# Generated by pormake.
# Topology wli, (5)-cn, num edge types: 1
# Building blocks:
#     Node 0, Type 0, BuildingBlock: BEQFEK_clean_sbu_0, # of connection points: 5
#     Node 1, Type 0, BuildingBlock: BEQFEK_clean_sbu_0, # of connection points: 5
#     Node 2, Type 0, BuildingBlock: BEQFEK_clean_sbu_0, # of connection points: 5
#     Node 3, Type 0, BuildingBlock: BEQFEK_clean_sbu_0, # of connection points: 5
#     Node 4, Type 0, BuildingBlock: BEQFEK_clean_sbu_0, # of connection points: 5
#     Node 5, Type 0, BuildingBlock: BEQFEK_clean_sbu_0, # of connection points: 5
#     Edge 6, Type (0, 0), BuildingBlock: FUNLAD_clean_linker_0, # of connection points: 2
#     Edge 7, Type (0, 0), BuildingBlock: FUNLAD_clean_linker_0, # of connection points: 2
#     Edge 8, Type (0, 0), BuildingBlock: FUNLAD_clean_linker_0, # of connection points: 2
#     Edge 9, Type (0, 0), BuildingBlock: FUNLAD_clean_linker_0, # of connection points: 2
#     Edge 10, Type (0, 0), BuildingBlock: FUNLAD_clean_linker_0, # of connection points: 2
#     Edge 11, Type (0, 0), BuildingBlock: FUNLAD_clean_linker_0, # of connection points: 2
#     Edge 12, Type (0, 0), BuildingBlock: FUNLAD_clean_linker_0, # of connection points: 2
#     Edge 13, Type (0, 0), BuildingBlock: FUNLAD_clean_linker_0, # of connection points: 2
#     Edge 14, Type (0, 0), BuildingBlock: FUNLAD_clean_linker_0, # of connection points: 2
#     Edge 15, Type (0, 0), BuildingBlock: FUNLAD_clean_linker_0, # of connection points: 2
#     Edge 16, Type (0, 0), BuildingBlock: FUNLAD_clean_linker_0, # of connection points: 2
#     Edge 17, Type (0, 0), BuildingBlock: FUNLAD_clean_linker_0, # of connection points: 2
#     Edge 18, Type (0, 0), BuildingBlock: FUNLAD_clean_linker_0, # of connection points: 2
#     Edge 19, Type (0, 0), BuildingBlock: FUNLAD_clean_linker_0, # of connection points: 2
#     Edge 20, Type (0, 0), BuildingBlock: FUNLAD_clean_linker_0, # of connection points: 2
# Relax obj value: 0.164
# Max RMSD: 0.123
# Mean RMSD: 0.123
data_MOF--net-wli--node1-BEQFEK_clean_sbu_0--edge1-FUNLAD_clean_linker_0
_symmetry_space_group_name_H-M    P1
_symmetry_Int_Tables_number       1
_symmetry_cell_setting            triclinic
loop_
_symmetry_equiv_pos_as_xyz
'x, y, z'
_cell_length_a     41.932746
_cell_length_b     41.949676
_cell_length_c     32.091493
_cell_angle_alpha  89.981703
_cell_angle_beta   90.034397
_cell_angle_gamma 119.94892
loop_
_atom_site_label
_atom_site_type_symbol
_atom_site_fract_x
_atom_site_fract_y
_atom_site_fract_z
_atom_type_partial_charge
Co0 Co 0.19812 0.43272 0.00718 0.0
Co1 Co 0.13576 0.37404 0.06486 0.0
C2 C 0.1933 0.3603 0.03067 0.0
O3 O 0.20743 0.39115 0.01199 0.0
O4 O 0.16485 0.34919 0.05352 0.0
C5 C 0.27394 0.48009 0.99248 0.0
O6 O 0.27627 0.46128 0.02393 0.0
C7 C 0.09302 0.32572 0.1362 0.0
C8 C 0.04037 0.32495 0.12725 0.0
C9 C 0.05802 0.3122 0.1531 0.0
N10 N 0.09586 0.34593 0.10229 0.0
N11 N 0.06415 0.345 0.09705 0.0
C12 C 0.12273 0.31856 0.15102 0.0
H13 H 0.14025 0.31966 0.12463 0.0
H14 H 0.14044 0.34002 0.17381 0.0
H15 H 0.11069 0.29131 0.1665 0.0
C16 C 0.20645 0.4809 0.07845 0.0
N17 N 0.19107 0.44751 0.06038 0.0
N18 N 0.16573 0.42302 0.08529 0.0
C19 C 0.1644 0.4402 0.12026 0.0
C20 C 0.19026 0.47742 0.11712 0.0
C21 C 0.23319 0.51594 0.05709 0.0
H22 H 0.22656 0.51429 0.02343 0.0
H23 H 0.26135 0.52011 0.06046 0.0
H24 H 0.2327 0.53998 0.07076 0.0
O25 O 0.15446 0.41837 0.97167 0.0
O26 O 0.11165 0.3758 0.01243 0.0
H27 H 0.10996 0.41193 0.14541 0.0
H28 H 0.14512 0.43979 0.18306 0.0
C29 C 0.13858 0.42139 0.15571 0.0
H30 H 0.1404 0.397 0.16519 0.0
H31 H 0.05889 0.35858 0.0731 0.0
O32 O 0.2423 0.47293 0.97981 0.0
C33 C 0.12108 0.39415 0.97863 0.0
Co34 Co 0.58125 0.77127 0.67804 0.0
Co35 Co 0.64059 0.77093 0.73803 0.0
C36 C 0.64874 0.84124 0.70625 0.0
O37 O 0.61874 0.82339 0.68611 0.0
O38 O 0.66132 0.82479 0.72849 0.0
C39 C 0.5441 0.79446 0.62192 0.0
O40 O 0.57791 0.81999 0.61284 0.0
C41 C 0.68696 0.77901 0.81246 0.0
C42 C 0.69669 0.73253 0.80159 0.0
C43 C 0.70406 0.76074 0.82917 0.0
N44 N 0.66996 0.76196 0.77684 0.0
N45 N 0.67616 0.73439 0.77055 0.0
C46 C 0.68813 0.81295 0.829 0.0
H47 H 0.68393 0.82831 0.80356 0.0
H48 H 0.66584 0.80515 0.85217 0.0
H49 H 0.71483 0.83088 0.84473 0.0
C50 C 0.53222 0.72812 0.74681 0.0
N51 N 0.56603 0.7476 0.73012 0.0
N52 N 0.59043 0.74742 0.75581 0.0
C53 C 0.57266 0.72741 0.78976 0.0
C54 C 0.53522 0.71474 0.78527 0.0
C55 C 0.49762 0.72003 0.72444 0.0
H56 H 0.49833 0.71081 0.69224 0.0
H57 H 0.49606 0.74562 0.72237 0.0
H58 H 0.47269 0.69844 0.74038 0.0
O59 O 0.60106 0.74641 0.64295 0.0
O60 O 0.64356 0.74787 0.68539 0.0
H61 H 0.60482 0.70524 0.81464 0.0
H62 H 0.57162 0.7049 0.85099 0.0
C63 C 0.59122 0.72057 0.82567 0.0
H64 H 0.61269 0.74724 0.83837 0.0
H65 H 0.66603 0.71652 0.74516 0.0
O66 O 0.53897 0.77014 0.64886 0.0
C67 C 0.62664 0.73928 0.65064 0.0
Co68 Co 0.23917 0.812 0.33874 0.0
Co69 Co 0.24342 0.87647 0.39307 0.0
C70 C 0.17134 0.81447 0.365 0.0
O71 O 0.18775 0.8001 0.34619 0.0
O72 O 0.18927 0.8442 0.38563 0.0
C73 C 0.21398 0.73629 0.32656 0.0
O74 O 0.19313 0.73359 0.35846 0.0
C75 C 0.23763 0.91648 0.46639 0.0
C76 C 0.28219 0.97301 0.45274 0.0
C77 C 0.25586 0.95211 0.48223 0.0
N78 N 0.25308 0.91638 0.42963 0.0
N79 N 0.27939 0.95036 0.42154 0.0
C80 C 0.20535 0.88338 0.48505 0.0
H81 H 0.18796 0.86413 0.46031 0.0
H82 H 0.21517 0.86866 0.50536 0.0
H83 H 0.18861 0.89162 0.5042 0.0
C84 C 0.28612 0.81111 0.40679 0.0
N85 N 0.26475 0.82333 0.39004 0.0
N86 N 0.26686 0.85031 0.41305 0.0
C87 C 0.29002 0.85623 0.44516 0.0
C88 C 0.30275 0.83141 0.44238 0.0
C89 C 0.29401 0.78377 0.38616 0.0
H90 H 0.29776 0.78923 0.35219 0.0
H91 H 0.27024 0.75572 0.3909 0.0
H92 H 0.31905 0.7848 0.39907 0.0
O93 O 0.26382 0.85414 0.30009 0.0
O94 O 0.26503 0.8989 0.3383 0.0
H95 H 0.31419 0.91324 0.46079 0.0
H96 H 0.32029 0.88593 0.50033 0.0
C97 C 0.30109 0.88619 0.47676 0.0
H98 H 0.2763 0.88253 0.49313 0.0
H99 H 0.29596 0.95799 0.395 0.0
O100 O 0.23693 0.76804 0.31275 0.0
C101 C 0.27185 0.88752 0.30448 0.0
Co102 Co 0.43231 0.19647 0.98797 0.0
Co103 Co 0.37083 0.13231 0.93447 0.0
C104 C 0.36519 0.1982 0.95884 0.0
O105 O 0.39611 0.2124 0.97736 0.0
O106 O 0.3515 0.16699 0.94093 0.0
C107 C 0.4864 0.2711 0.00609 0.0
O108 O 0.4698 0.27831 0.97585 0.0
C109 C 0.32527 0.09398 0.86034 0.0
C110 C 0.31008 0.03653 0.87434 0.0
C111 C 0.30663 0.0584 0.84439 0.0
N112 N 0.33962 0.0931 0.8976 0.0
N113 N 0.33001 0.05859 0.9059 0.0
C114 C 0.32829 0.12799 0.8413 0.0
H115 H 0.33072 0.14761 0.86587 0.0
H116 H 0.35329 0.14176 0.8216 0.0
H117 H 0.30397 0.12099 0.82146 0.0
C118 C 0.47939 0.19487 0.92055 0.0
N119 N 0.44608 0.1833 0.93767 0.0
N120 N 0.42071 0.15632 0.91509 0.0
C121 C 0.43737 0.14957 0.88302 0.0
C122 C 0.47502 0.174 0.88528 0.0
C123 C 0.51491 0.22293 0.93997 0.0
H124 H 0.51453 0.2173 0.97378 0.0
H125 H 0.51795 0.2506 0.93619 0.0
H126 H 0.53892 0.2229 0.92555 0.0
O127 O 0.41155 0.15437 0.02708 0.0
O128 O 0.36813 0.10928 0.98923 0.0
H129 H 0.40188 0.09289 0.86757 0.0
H130 H 0.43689 0.1183 0.82881 0.0
C131 C 0.41772 0.11974 0.85147 0.0
H132 H 0.39815 0.12505 0.83396 0.0
H133 H 0.33774 0.05017 0.93281 0.0
O134 O 0.47525 0.2378 0.01583 0.0
C135 C 0.38591 0.12109 0.02323 0.0
Co136 Co 0.8224 0.2452 0.66387 0.0
Co137 Co 0.88316 0.24671 0.60517 0.0
C138 C 0.82636 0.17689 0.64464 0.0
O139 O 0.81257 0.19407 0.66299 0.0
O140 O 0.85371 0.1935 0.62012 0.0
C141 C 0.74812 0.21726 0.68903 0.0
O142 O 0.74301 0.19013 0.66435 0.0
C143 C 0.91721 0.23595 0.52952 0.0
C144 C 0.97507 0.27972 0.53799 0.0
C145 C 0.9518 0.25218 0.51085 0.0
N146 N 0.92009 0.25358 0.56559 0.0
N147 N 0.95481 0.27947 0.57055 0.0
C148 C 0.88236 0.20328 0.51466 0.0
H149 H 0.86383 0.18897 0.54125 0.0
H150 H 0.86778 0.21246 0.49325 0.0
H151 H 0.88845 0.1839 0.49762 0.0
C152 C 0.81115 0.28124 0.59057 0.0
N153 N 0.82737 0.2642 0.60913 0.0
N154 N 0.85331 0.26585 0.58458 0.0
C155 C 0.8549 0.28481 0.54986 0.0
C156 C 0.82806 0.29497 0.5524 0.0
C157 C 0.78022 0.28442 0.60947 0.0
H158 H 0.75716 0.2565 0.61653 0.0
H159 H 0.76986 0.29811 0.58831 0.0
H160 H 0.78955 0.2999 0.63919 0.0
O161 O 0.86793 0.27595 0.69637 0.0
O162 O 0.90993 0.2749 0.65521 0.0
H163 H 0.91152 0.30648 0.53303 0.0
H164 H 0.88663 0.32039 0.4988 0.0
C165 C 0.88464 0.29734 0.51771 0.0
H166 H 0.87869 0.27412 0.49662 0.0
H167 H 0.96462 0.29737 0.59593 0.0
O168 O 0.78041 0.24465 0.69323 0.0
C169 C 0.90121 0.28498 0.68867 0.0
Co170 Co 0.76153 0.57412 0.3319 0.0
Co171 Co 0.76618 0.63702 0.27406 0.0
C172 C 0.83398 0.64065 0.30696 0.0
O173 O 0.81442 0.61041 0.32609 0.0
O174 O 0.81932 0.65493 0.28447 0.0
C175 C 0.78022 0.51904 0.34966 0.0
O176 O 0.80263 0.53468 0.31806 0.0
C177 C 0.77769 0.68667 0.20176 0.0
C178 C 0.73184 0.69743 0.21234 0.0
C179 C 0.76042 0.70487 0.18532 0.0
N180 N 0.75963 0.66887 0.2366 0.0
N181 N 0.73252 0.67581 0.24281 0.0
C182 C 0.81153 0.68735 0.18562 0.0
H183 H 0.82662 0.68309 0.21135 0.0
H184 H 0.80365 0.6649 0.16266 0.0
H185 H 0.82978 0.7139 0.16981 0.0
C186 C 0.71729 0.52834 0.26075 0.0
N187 N 0.73851 0.56126 0.27897 0.0
N188 N 0.74075 0.58743 0.25433 0.0
C189 C 0.72086 0.57182 0.21959 0.0
C190 C 0.70547 0.53389 0.22246 0.0
C191 C 0.70599 0.4922 0.2813 0.0
H192 H 0.70092 0.49378 0.31494 0.0
H193 H 0.72859 0.48586 0.27818 0.0
H194 H 0.68076 0.46959 0.26686 0.0
O195 O 0.73775 0.59476 0.36762 0.0
O196 O 0.74323 0.63987 0.32674 0.0
H197 H 0.70183 0.60687 0.19541 0.0
H198 H 0.70186 0.5749 0.15755 0.0
C199 C 0.71676 0.59287 0.18436 0.0
H200 H 0.74435 0.61411 0.17366 0.0
H201 H 0.714 0.66523 0.26759 0.0
O202 O 0.75888 0.53092 0.36059 0.0
C203 C 0.73295 0.62198 0.36078 0.0
C204 C 0.23221 0.70545 0.27226 0.0
C205 C 0.21008 0.70279 0.30644 0.0
C206 C 0.22743 0.67377 0.2522 0.0
C207 C 0.20049 0.63865 0.26612 0.0
C208 C 0.17856 0.63608 0.3004 0.0
C209 C 0.18338 0.66774 0.32048 0.0
C210 C 0.19295 0.60432 0.24425 0.0
C211 C 0.21779 0.60167 0.22007 0.0
C212 C 0.20952 0.56805 0.19612 0.0
C213 C 0.2389 0.56347 0.18286 0.0
C214 C 0.23252 0.53345 0.1581 0.0
C215 C 0.19662 0.50751 0.14593 0.0
H216 H 0.15013 0.54486 0.19228 0.0
C217 C 0.16714 0.5118 0.15925 0.0
C218 C 0.17346 0.5418 0.18404 0.0
H219 H 0.13929 0.49258 0.14939 0.0
H220 H 0.25289 0.73205 0.2605 0.0
H221 H 0.24418 0.67711 0.22514 0.0
H222 H 0.15741 0.60944 0.31158 0.0
H223 H 0.16579 0.66469 0.34667 0.0
H224 H 0.16614 0.5802 0.24927 0.0
H225 H 0.2457 0.62472 0.21824 0.0
H226 H 0.26695 0.58337 0.19135 0.0
H227 H 0.25569 0.5307 0.14803 0.0
C228 C 0.50003 0.65627 0.82546 0.0
C229 C 0.50482 0.69051 0.8134 0.0
C230 C 0.46977 0.63228 0.84972 0.0
C231 C 0.44382 0.64229 0.86256 0.0
C232 C 0.44897 0.67676 0.85059 0.0
C233 C 0.47922 0.70069 0.82636 0.0
C234 C 0.41 0.61682 0.88612 0.0
C235 C 0.40665 0.58842 0.90909 0.0
C236 C 0.37218 0.562 0.93097 0.0
C237 C 0.37435 0.54179 0.96463 0.0
C238 C 0.34251 0.51559 0.98497 0.0
C239 C 0.30768 0.50876 0.97181 0.0
H240 H 0.33422 0.56927 0.8912 0.0
C241 C 0.30542 0.52895 0.93814 0.0
C242 C 0.33728 0.5552 0.91782 0.0
H243 H 0.27898 0.52417 0.92704 0.0
H244 H 0.51911 0.64761 0.81505 0.0
H245 H 0.46632 0.60557 0.85701 0.0
H246 H 0.42933 0.6851 0.85972 0.0
H247 H 0.48241 0.727 0.81728 0.0
H248 H 0.38741 0.62249 0.88522 0.0
H249 H 0.43032 0.58477 0.91327 0.0
H250 H 0.40081 0.54621 0.9752 0.0
H251 H 0.34524 0.50044 0.01073 0.0
C252 C 0.32485 0.797 0.48591 0.0
C253 C 0.33155 0.83012 0.4676 0.0
C254 C 0.3527 0.79509 0.50777 0.0
C255 C 0.38806 0.82637 0.51132 0.0
C256 C 0.3943 0.85961 0.49345 0.0
C257 C 0.36641 0.86146 0.47169 0.0
C258 C 0.41934 0.8259 0.53286 0.0
C259 C 0.4196 0.79513 0.5445 0.0
C260 C 0.45199 0.7958 0.5643 0.0
C261 C 0.44638 0.76683 0.59082 0.0
C262 C 0.47623 0.76634 0.60963 0.0
C263 C 0.51242 0.79463 0.60178 0.0
H264 H 0.49384 0.84599 0.53463 0.0
C265 C 0.51809 0.82328 0.57464 0.0
C266 C 0.48825 0.82387 0.55604 0.0
H267 H 0.54563 0.84535 0.56767 0.0
H268 H 0.29802 0.77252 0.48313 0.0
H269 H 0.34607 0.76907 0.5217 0.0
H270 H 0.42111 0.88419 0.49566 0.0
H271 H 0.37232 0.8872 0.45728 0.0
H272 H 0.4436 0.85245 0.53873 0.0
H273 H 0.39545 0.76832 0.54008 0.0
H274 H 0.41878 0.74465 0.59734 0.0
H275 H 0.47091 0.74377 0.63025 0.0
C276 C 0.52959 0.20885 0.83921 0.0
C277 C 0.50447 0.17571 0.85854 0.0
C278 C 0.55842 0.21104 0.8152 0.0
C279 C 0.56286 0.18008 0.81052 0.0
C280 C 0.53721 0.1468 0.82942 0.0
C281 C 0.50841 0.14467 0.8534 0.0
C282 C 0.59332 0.18108 0.78573 0.0
C283 C 0.62527 0.21219 0.77767 0.0
C284 C 0.65619 0.21289 0.75413 0.0
C285 C 0.69188 0.24287 0.75959 0.0
C286 C 0.72176 0.24445 0.7384 0.0
C287 C 0.71654 0.21609 0.71104 0.0
H288 H 0.62374 0.16196 0.71964 0.0
C289 C 0.68075 0.18643 0.70489 0.0
C290 C 0.65088 0.1849 0.726 0.0
H291 H 0.67569 0.16434 0.68363 0.0
H292 H 0.52683 0.23306 0.84265 0.0
H293 H 0.57676 0.23689 0.8001 0.0
H294 H 0.53978 0.12247 0.82617 0.0
H295 H 0.48953 0.11892 0.86847 0.0
H296 H 0.58988 0.15478 0.77595 0.0
H297 H 0.63008 0.23809 0.79072 0.0
H298 H 0.69677 0.26502 0.7807 0.0
H299 H 0.74896 0.26781 0.74366 0.0
C300 C 0.80581 0.47718 0.36237 0.0
C301 C 0.78132 0.48942 0.37362 0.0
C302 C 0.80864 0.45094 0.38653 0.0
C303 C 0.78682 0.43619 0.42243 0.0
C304 C 0.762 0.44809 0.43325 0.0
C305 C 0.75912 0.47425 0.40906 0.0
C306 C 0.79086 0.4104 0.45085 0.0
C307 C 0.8053 0.38934 0.43933 0.0
C308 C 0.81074 0.36521 0.46897 0.0
C309 C 0.8112 0.33403 0.45378 0.0
C310 C 0.81671 0.31107 0.48088 0.0
C311 C 0.82218 0.3191 0.5236 0.0
H312 H 0.81837 0.3981 0.52442 0.0
C313 C 0.82267 0.35072 0.5387 0.0
C314 C 0.81701 0.37356 0.51173 0.0
H315 H 0.82788 0.35802 0.57137 0.0
H316 H 0.82346 0.48844 0.33537 0.0
H317 H 0.82882 0.44334 0.37763 0.0
H318 H 0.74501 0.4374 0.46085 0.0
H319 H 0.73999 0.48309 0.41865 0.0
H320 H 0.78067 0.4082 0.48244 0.0
H321 H 0.81227 0.38861 0.40691 0.0
H322 H 0.80697 0.32723 0.42093 0.0
H323 H 0.81649 0.28693 0.46854 0.0
C324 C 0.52834 0.33824 0.0201 0.0
C325 C 0.51684 0.30136 0.02958 0.0
C326 C 0.55591 0.36677 0.04358 0.0
C327 C 0.57242 0.35897 0.07731 0.0
C328 C 0.56172 0.32215 0.08586 0.0
C329 C 0.53416 0.29364 0.06241 0.0
C330 C 0.60095 0.3883 0.10409 0.0
C331 C 0.60401 0.42161 0.10922 0.0
C332 C 0.63093 0.45026 0.13796 0.0
C333 C 0.62386 0.47783 0.1521 0.0
C334 C 0.64812 0.50507 0.17947 0.0
C335 C 0.68014 0.5055 0.19292 0.0
H336 H 0.67058 0.43113 0.14003 0.0
C337 C 0.68762 0.47834 0.17856 0.0
C338 C 0.6634 0.45107 0.15113 0.0
H339 H 0.71241 0.47842 0.18831 0.0
H340 H 0.51586 0.34515 0.99469 0.0
H341 H 0.56426 0.39479 0.03494 0.0
H342 H 0.57425 0.31533 0.11131 0.0
H343 H 0.52617 0.26553 0.07037 0.0
H344 H 0.61819 0.38102 0.12232 0.0
H345 H 0.58449 0.42756 0.09385 0.0
H346 H 0.59921 0.47804 0.14237 0.0
H347 H 0.64163 0.52558 0.19052 0.0
C348 C 0.92185 0.31682 0.75788 0.0
C349 C 0.93038 0.30665 0.71955 0.0
C350 C 0.94923 0.3353 0.78788 0.0
C351 C 0.98571 0.34377 0.78021 0.0
C352 C 0.99444 0.335 0.74126 0.0
C353 C 0.96713 0.31655 0.71133 0.0
C354 C 0.01524 0.36078 0.81212 0.0
C355 C 0.00851 0.35718 0.8534 0.0
C356 C 0.03789 0.36902 0.88543 0.0
C357 C 0.02861 0.35157 0.9244 0.0
C358 C 0.05554 0.36007 0.95471 0.0
C359 C 0.09248 0.38651 0.94688 0.0
H360 H 0.08273 0.41147 0.84893 0.0
C361 C 0.10165 0.40499 0.90841 0.0
C362 C 0.07463 0.39645 0.87801 0.0
H363 H 0.12975 0.42586 0.90157 0.0
H364 H 0.89393 0.31008 0.76501 0.0
H365 H 0.9416 0.34277 0.81692 0.0
H366 H 0.02234 0.34152 0.73431 0.0
H367 H 0.97482 0.3095 0.682 0.0
H368 H 0.04342 0.37335 0.80108 0.0
H369 H 0.98029 0.34171 0.86434 0.0
H370 H 0.00051 0.3306 0.93115 0.0
H371 H 0.04736 0.3455 0.98414 0.0
C372 C 0.70551 0.61613 0.43191 0.0
C373 C 0.71529 0.63346 0.39278 0.0
C374 C 0.68964 0.62782 0.46222 0.0
C375 C 0.68337 0.65723 0.45401 0.0
C376 C 0.69227 0.67383 0.41458 0.0
C377 C 0.7082 0.66226 0.38439 0.0
C378 C 0.66756 0.6714 0.48546 0.0
C379 C 0.67074 0.66844 0.52684 0.0
C380 C 0.65805 0.68576 0.55814 0.0
C381 C 0.67501 0.69458 0.59741 0.0
C382 C 0.66478 0.71189 0.62737 0.0
C383 C 0.63704 0.72052 0.61886 0.0
H384 H 0.61503 0.6861 0.52052 0.0
C385 C 0.61939 0.71089 0.57989 0.0
C386 C 0.62967 0.69358 0.54988 0.0
H387 H 0.5976 0.71671 0.5725 0.0
H388 H 0.71024 0.59362 0.43924 0.0
H389 H 0.68206 0.61351 0.49177 0.0
H390 H 0.68745 0.6963 0.40727 0.0
H391 H 0.71509 0.67608 0.35449 0.0
H392 H 0.65558 0.68742 0.47388 0.0
H393 H 0.6858 0.65542 0.53841 0.0
H394 H 0.6967 0.68858 0.60476 0.0
H395 H 0.6788 0.71863 0.65716 0.0
C396 C 0.34807 0.05881 0.05558 0.0
C397 C 0.37635 0.09565 0.05905 0.0
C398 C 0.33851 0.03495 0.08955 0.0
C399 C 0.35725 0.04733 0.12776 0.0
C400 C 0.38541 0.08413 0.13122 0.0
C401 C 0.39499 0.10801 0.09724 0.0
C402 C 0.34683 0.02335 0.1652 0.0
C403 C 0.32911 0.98632 0.16333 0.0
C404 C 0.31655 0.96226 0.20077 0.0
C405 C 0.30908 0.92582 0.19713 0.0
C406 C 0.29526 0.90169 0.23097 0.0
C407 C 0.28831 0.91346 0.26918 0.0
H408 H 0.31403 0.00156 0.24299 0.0
C409 C 0.29604 0.95003 0.27293 0.0
C410 C 0.30982 0.97411 0.23911 0.0
H411 H 0.29079 0.95998 0.3018 0.0
H412 H 0.33294 0.04841 0.02673 0.0
H413 H 0.31582 0.00717 0.08588 0.0
H414 H 0.40004 0.09451 0.16038 0.0
H415 H 0.41685 0.13623 0.10108 0.0
H416 H 0.35499 0.03698 0.19524 0.0
H417 H 0.32415 0.97281 0.13325 0.0
H418 H 0.3137 0.91585 0.16789 0.0
H419 H 0.28955 0.87369 0.22693 0.0
C420 C 0.30607 0.19966 0.96034 0.0
C421 C 0.34475 0.2184 0.95948 0.0
C422 C 0.28724 0.21921 0.96491 0.0
C423 C 0.3069 0.25784 0.96779 0.0
C424 C 0.34541 0.27647 0.96513 0.0
C425 C 0.36418 0.25698 0.96164 0.0
C426 C 0.28846 0.27985 0.97311 0.0
C427 C 0.2587 0.26934 0.99756 0.0
C428 C 0.24262 0.29329 0.00676 0.0
C429 C 0.20715 0.27754 0.02414 0.0
C430 C 0.19117 0.29923 0.03298 0.0
C431 C 0.21039 0.33715 0.02445 0.0
H432 H 0.29021 0.34553 0.98845 0.0
C433 C 0.24621 0.35303 0.00822 0.0
C434 C 0.26225 0.33156 -0.00015 0.0
H435 H 0.26209 0.3823 0.002 0.0
H436 H 0.29047 0.1699 0.95875 0.0
H437 H 0.25746 0.20418 0.96594 0.0
H438 H 0.36111 0.30624 0.96689 0.0
H439 H 0.39399 0.27215 0.96076 0.0
H440 H 0.30173 0.30662 0.95826 0.0
H441 H 0.24593 0.24236 0.01214 0.0
H442 H 0.19155 0.24829 0.03046 0.0
H443 H 0.16354 0.2862 0.04562 0.0
C444 C 0.78077 0.11924 0.681 0.0
C445 C 0.81032 0.13701 0.65299 0.0
C446 C 0.76537 0.08181 0.68945 0.0
C447 C 0.77887 0.06098 0.66979 0.0
C448 C 0.80894 0.07878 0.64253 0.0
C449 C 0.82444 0.11641 0.63401 0.0
C450 C 0.76203 0.02078 0.67737 0.0
C451 C 0.72598 0.99942 0.68616 0.0
C452 C 0.70744 0.95898 0.69196 0.0
C453 C 0.66986 0.9381 0.68252 0.0
C454 C 0.65098 0.90002 0.68748 0.0
C455 C 0.66909 0.88185 0.7028 0.0
H456 H 0.75447 0.95647 0.71638 0.0
C457 C 0.70658 0.90277 0.71335 0.0
C458 C 0.72569 0.94104 0.70777 0.0
H459 H 0.72124 0.88956 0.72533 0.0
H460 H 0.76946 0.13424 0.6967 0.0
H461 H 0.74312 0.06943 0.7118 0.0
H462 H 0.8201 0.06344 0.62729 0.0
H463 H 0.84736 0.12929 0.61253 0.0
H464 H 0.77907 0.00828 0.67291 0.0
H465 H 0.70841 0.01161 0.68633 0.0
H466 H 0.65506 0.95125 0.6707 0.0
H467 H 0.62205 0.88482 0.67933 0.0
C468 C 0.11143 0.76418 0.33755 0.0
C469 C 0.13084 0.79693 0.36056 0.0
C470 C 0.07368 0.74838 0.33084 0.0
C471 C 0.05415 0.76467 0.34737 0.0
C472 C 0.07346 0.79742 0.3703 0.0
C473 C 0.11141 0.81333 0.37706 0.0
C474 C 0.01399 0.74862 0.33999 0.0
C475 C 0.99137 0.71236 0.33356 0.0
C476 C 0.95117 0.69522 0.32624 0.0
C477 C 0.92866 0.65801 0.33652 0.0
C478 C 0.89077 0.64042 0.3299 0.0
C479 C 0.87445 0.65948 0.31218 0.0
H480 H 0.95176 0.74279 0.29851 0.0
C481 C 0.89704 0.69657 0.30087 0.0
C482 C 0.93508 0.71435 0.30794 0.0
H483 H 0.88531 0.71196 0.287 0.0
H484 H 0.12547 0.75092 0.32398 0.0
H485 H 0.06019 0.72387 0.31178 0.0
H486 H 0.05915 0.81071 0.38309 0.0
H487 H 0.12554 0.83869 0.39467 0.0
H488 H 0.00267 0.7669 0.3418 0.0
H489 H 0.00227 0.69376 0.33598 0.0
H490 H 0.94037 0.64251 0.35017 0.0
H491 H 0.87428 0.61176 0.33871 0.0
C492 C 0.93935 0.23561 0.4349 0.0
C493 C 0.96298 0.2455 0.46944 0.0
C494 C 0.95207 0.2345 0.39495 0.0
C495 C 0.98904 0.24391 0.38853 0.0
C496 C 0.01203 0.25203 0.42345 0.0
C497 C 0.99925 0.25299 0.46334 0.0
C498 C 0.00572 0.24834 0.34634 0.0
C499 C 0.98952 0.24983 0.31066 0.0
C500 C 0.00889 0.2615 0.2699 0.0
C501 C 0.98766 0.25272 0.23344 0.0
C502 C 0.00411 0.26769 0.19514 0.0
C503 C 0.04223 0.29184 0.19237 0.0
H504 H 0.06461 0.29324 0.29435 0.0
C505 C 0.06376 0.2997 0.22852 0.0
C506 C 0.04731 0.2847 0.26693 0.0
H507 H 0.09296 0.31926 0.22785 0.0
H508 H 0.91156 0.23057 0.43811 0.0
H509 H 0.93284 0.22717 0.36946 0.0
H510 H 0.04052 0.25915 0.41974 0.0
H511 H 0.01816 0.26065 0.48935 0.0
H512 H 0.03363 0.25308 0.34514 0.0
H513 H 0.96133 0.24412 0.31091 0.0
H514 H 0.95803 0.23521 0.23478 0.0
H515 H 0.98676 0.26129 0.16782 0.0
C516 C 0.71016 0.77413 0.90587 0.0
C517 C 0.7234 0.76631 0.86939 0.0
C518 C 0.72497 0.77344 0.94473 0.0
C519 C 0.75358 0.76509 0.94787 0.0
C520 C 0.76766 0.75874 0.91105 0.0
C521 C 0.75267 0.75918 0.87233 0.0
C522 C 0.7667 0.75862 0.98852 0.0
C523 C 0.75848 0.76726 0.02594 0.0
C524 C 0.76518 0.75436 0.06661 0.0
C525 C 0.75944 0.7689 0.10342 0.0
C526 C 0.75993 0.75402 0.1422 0.0
C527 C 0.76651 0.72442 0.14518 0.0
H528 H 0.77676 0.71253 0.04255 0.0
C529 C 0.77385 0.71078 0.1087 0.0
C530 C 0.7731 0.72546 0.0698 0.0
H531 H 0.77776 0.68718 0.10977 0.0
H532 H 0.68684 0.7785 0.90483 0.0
H533 H 0.71239 0.77757 0.97201 0.0
H534 H 0.78948 0.75205 0.91231 0.0
H535 H 0.76329 0.75285 0.8447 0.0
H536 H 0.78283 0.74495 0.98713 0.0
H537 H 0.74497 0.78354 0.02733 0.0
H538 H 0.7531 0.79096 0.10212 0.0
H539 H 0.75394 0.76492 0.16984 0.0
C540 C 0.30726 0.06619 0.76683 0.0
C541 C 0.29018 0.04542 0.80265 0.0
C542 C 0.29454 0.05154 0.72716 0.0
C543 C 0.26426 0.01572 0.72244 0.0
C544 C 0.2467 0.99542 0.7584 0.0
C545 C 0.25956 0.01003 0.79803 0.0
C546 C 0.25257 0.99716 0.68113 0.0
C547 C 0.26243 0.01503 0.64432 0.0
C548 C 0.2558 0.99629 0.60316 0.0
C549 C 0.26048 0.0169 0.56686 0.0
C550 C 0.2589 0.0019 0.52752 0.0
C551 C 0.25238 0.9658 0.52352 0.0
H552 H 0.24605 0.9432 0.62594 0.0
C553 C 0.24683 0.94477 0.55965 0.0
C554 C 0.24856 0.95981 0.59904 0.0
H555 H 0.24324 0.91743 0.55778 0.0
H556 H 0.33179 0.09293 0.76923 0.0
H557 H 0.30982 0.06783 0.70059 0.0
H558 H 0.22357 0.96769 0.75587 0.0
H559 H 0.24606 0.99326 0.82512 0.0
H560 H 0.23559 0.96742 0.68145 0.0
H561 H 0.27658 0.04485 0.64391 0.0
H562 H 0.26642 0.04513 0.56894 0.0
H563 H 0.26364 0.01887 0.5002 0.0
loop_
_geom_bond_atom_site_label_1
_geom_bond_atom_site_label_2
_geom_bond_distance
_geom_bond_site_symmetry_2
_ccdc_geom_bond_type
Co0 O3 1.970 1_556 S
Co0 N17 1.989 1_556 S
Co0 O25 1.967 . S
Co0 O32 1.920 . S
Co1 O4 1.966 . S
Co1 N10 2.022 . S
Co1 N18 1.993 . S
Co1 O26 1.945 . S
C2 O3 1.258 . S
C2 O4 1.263 . S
O3 Co0 1.970 1_554 S
O3 C2 1.258 . S
O4 Co1 1.966 . S
O4 C2 1.263 . S
C5 O6 1.235 . S
C5 O32 1.289 . S
O6 C5 1.235 . S
C7 C9 1.400 . S
C7 N10 1.351 . S
C7 C12 1.501 . S
C8 C9 1.387 . S
C8 N11 1.341 . S
C9 C7 1.400 . S
C9 C8 1.387 . S
N10 Co1 2.022 . S
N10 C7 1.351 . S
N10 N11 1.365 . S
N11 C8 1.341 . S
N11 N10 1.365 . S
N11 H31 0.862 . S
C12 C7 1.501 . S
C12 H13 0.961 . S
C12 H14 0.961 . S
C12 H15 0.960 . S
H13 C12 0.961 . S
H14 C12 0.961 . S
H15 C12 0.960 . S
C16 N17 1.342 . S
C16 C20 1.401 . S
C16 C21 1.499 . S
N17 Co0 1.989 1_554 S
N17 C16 1.342 . S
N17 N18 1.388 . S
N18 Co1 1.993 . S
N18 N17 1.388 . S
N18 C19 1.346 . S
C19 N18 1.346 . S
C19 C20 1.396 . S
C19 C29 1.510 . S
C20 C16 1.401 . S
C20 C19 1.396 . S
C21 C16 1.499 . S
C21 H22 0.959 1_554 S
C21 H23 0.960 . S
C21 H24 0.961 . S
H22 C21 0.959 1_556 S
H23 C21 0.960 . S
H24 C21 0.961 . S
O25 Co0 1.967 . S
O25 C33 1.258 . S
O26 Co1 1.945 . S
O26 C33 1.263 1_554 S
H27 C29 0.959 . S
H28 C29 0.961 . S
C29 C19 1.510 . S
C29 H27 0.959 . S
C29 H28 0.961 . S
C29 H30 0.960 . S
H30 C29 0.960 . S
H31 N11 0.862 . S
O32 Co0 1.920 . S
O32 C5 1.289 . S
C33 O25 1.258 . S
C33 O26 1.263 1_556 S
Co34 O37 1.970 . S
Co34 N51 1.989 . S
Co34 O59 1.967 . S
Co34 O66 1.920 . S
Co35 O38 1.966 . S
Co35 N44 2.022 . S
Co35 N52 1.993 . S
Co35 O60 1.941 . S
C36 O37 1.258 . S
C36 O38 1.263 . S
O37 Co34 1.970 . S
O37 C36 1.258 . S
O38 Co35 1.966 . S
O38 C36 1.263 . S
C39 O40 1.235 . S
C39 O66 1.289 . S
O40 C39 1.235 . S
C41 C43 1.400 . S
C41 N44 1.351 . S
C41 C46 1.501 . S
C42 C43 1.387 . S
C42 N45 1.341 . S
C43 C41 1.400 . S
C43 C42 1.387 . S
N44 Co35 2.022 . S
N44 C41 1.351 . S
N44 N45 1.365 . S
N45 C42 1.341 . S
N45 N44 1.365 . S
N45 H65 0.862 . S
C46 C41 1.501 . S
C46 H47 0.961 . S
C46 H48 0.961 . S
C46 H49 0.960 . S
H47 C46 0.961 . S
H48 C46 0.961 . S
H49 C46 0.960 . S
C50 N51 1.342 . S
C50 C54 1.401 . S
C50 C55 1.499 . S
N51 Co34 1.989 . S
N51 C50 1.342 . S
N51 N52 1.388 . S
N52 Co35 1.993 . S
N52 N51 1.388 . S
N52 C53 1.346 . S
C53 N52 1.346 . S
C53 C54 1.396 . S
C53 C63 1.510 . S
C54 C50 1.401 . S
C54 C53 1.396 . S
C55 C50 1.499 . S
C55 H56 0.959 . S
C55 H57 0.960 . S
C55 H58 0.961 . S
H56 C55 0.959 . S
H57 C55 0.960 . S
H58 C55 0.961 . S
O59 Co34 1.967 . S
O59 C67 1.258 . S
O60 Co35 1.941 . S
O60 C67 1.266 . S
H61 C63 0.959 . S
H62 C63 0.961 . S
C63 C53 1.510 . S
C63 H61 0.959 . S
C63 H62 0.961 . S
C63 H64 0.960 . S
H64 C63 0.960 . S
H65 N45 0.862 . S
O66 Co34 1.920 . S
O66 C39 1.289 . S
C67 O59 1.258 . S
C67 O60 1.266 . S
Co68 O71 1.970 . S
Co68 N85 1.989 . S
Co68 O93 1.967 . S
Co68 O100 1.920 . S
Co69 O72 1.966 . S
Co69 N78 2.022 . S
Co69 N86 1.993 . S
Co69 O94 1.941 . S
C70 O71 1.258 . S
C70 O72 1.263 . S
O71 Co68 1.970 . S
O71 C70 1.258 . S
O72 Co69 1.966 . S
O72 C70 1.263 . S
C73 O74 1.235 . S
C73 O100 1.289 . S
O74 C73 1.235 . S
C75 C77 1.400 . S
C75 N78 1.351 . S
C75 C80 1.501 . S
C76 C77 1.387 . S
C76 N79 1.341 . S
C77 C75 1.400 . S
C77 C76 1.387 . S
N78 Co69 2.022 . S
N78 C75 1.351 . S
N78 N79 1.365 . S
N79 C76 1.341 . S
N79 N78 1.365 . S
N79 H99 0.862 . S
C80 C75 1.501 . S
C80 H81 0.961 . S
C80 H82 0.961 . S
C80 H83 0.960 . S
H81 C80 0.961 . S
H82 C80 0.961 . S
H83 C80 0.960 . S
C84 N85 1.342 . S
C84 C88 1.401 . S
C84 C89 1.499 . S
N85 Co68 1.989 . S
N85 C84 1.342 . S
N85 N86 1.388 . S
N86 Co69 1.993 . S
N86 N85 1.388 . S
N86 C87 1.346 . S
C87 N86 1.346 . S
C87 C88 1.396 . S
C87 C97 1.510 . S
C88 C84 1.401 . S
C88 C87 1.396 . S
C89 C84 1.499 . S
C89 H90 0.959 . S
C89 H91 0.960 . S
C89 H92 0.961 . S
H90 C89 0.959 . S
H91 C89 0.960 . S
H92 C89 0.961 . S
O93 Co68 1.967 . S
O93 C101 1.258 . S
O94 Co69 1.941 . S
O94 C101 1.266 . S
H95 C97 0.959 . S
H96 C97 0.961 . S
C97 C87 1.510 . S
C97 H95 0.959 . S
C97 H96 0.961 . S
C97 H98 0.960 . S
H98 C97 0.960 . S
H99 N79 0.862 . S
O100 Co68 1.920 . S
O100 C73 1.289 . S
C101 O93 1.258 . S
C101 O94 1.266 . S
Co102 O105 1.970 1_554 S
Co102 N119 1.989 1_554 S
Co102 O127 1.967 . S
Co102 O134 1.920 . S
Co103 O106 1.966 . S
Co103 N112 2.022 . S
Co103 N120 1.993 . S
Co103 O128 1.945 . S
C104 O105 1.258 . S
C104 O106 1.263 . S
O105 Co102 1.970 1_556 S
O105 C104 1.258 . S
O106 Co103 1.966 . S
O106 C104 1.263 . S
C107 O108 1.235 . S
C107 O134 1.289 . S
O108 C107 1.235 . S
C109 C111 1.400 . S
C109 N112 1.351 . S
C109 C114 1.501 . S
C110 C111 1.387 . S
C110 N113 1.341 . S
C111 C109 1.400 . S
C111 C110 1.387 . S
N112 Co103 2.022 . S
N112 C109 1.351 . S
N112 N113 1.365 . S
N113 C110 1.341 . S
N113 N112 1.365 . S
N113 H133 0.862 . S
C114 C109 1.501 . S
C114 H115 0.961 . S
C114 H116 0.961 . S
C114 H117 0.960 . S
H115 C114 0.961 . S
H116 C114 0.961 . S
H117 C114 0.960 . S
C118 N119 1.342 . S
C118 C122 1.401 . S
C118 C123 1.499 . S
N119 Co102 1.989 1_556 S
N119 C118 1.342 . S
N119 N120 1.388 . S
N120 Co103 1.993 . S
N120 N119 1.388 . S
N120 C121 1.346 . S
C121 N120 1.346 . S
C121 C122 1.396 . S
C121 C131 1.510 . S
C122 C118 1.401 . S
C122 C121 1.396 . S
C123 C118 1.499 . S
C123 H124 0.959 1_556 S
C123 H125 0.960 . S
C123 H126 0.961 . S
H124 C123 0.959 1_554 S
H125 C123 0.960 . S
H126 C123 0.961 . S
O127 Co102 1.967 . S
O127 C135 1.258 . S
O128 Co103 1.945 . S
O128 C135 1.263 1_556 S
H129 C131 0.959 . S
H130 C131 0.961 . S
C131 C121 1.510 . S
C131 H129 0.959 . S
C131 H130 0.961 . S
C131 H132 0.960 . S
H132 C131 0.960 . S
H133 N113 0.862 . S
O134 Co102 1.920 . S
O134 C107 1.289 . S
C135 O127 1.258 . S
C135 O128 1.263 1_554 S
Co136 O139 1.970 . S
Co136 N153 1.989 . S
Co136 O161 1.967 . S
Co136 O168 1.920 . S
Co137 O140 1.966 . S
Co137 N146 2.022 . S
Co137 N154 1.993 . S
Co137 O162 1.941 . S
C138 O139 1.258 . S
C138 O140 1.263 . S
O139 Co136 1.970 . S
O139 C138 1.258 . S
O140 Co137 1.966 . S
O140 C138 1.263 . S
C141 O142 1.235 . S
C141 O168 1.289 . S
O142 C141 1.235 . S
C143 C145 1.400 . S
C143 N146 1.351 . S
C143 C148 1.501 . S
C144 C145 1.387 . S
C144 N147 1.341 . S
C145 C143 1.400 . S
C145 C144 1.387 . S
N146 Co137 2.022 . S
N146 C143 1.351 . S
N146 N147 1.365 . S
N147 C144 1.341 . S
N147 N146 1.365 . S
N147 H167 0.862 . S
C148 C143 1.501 . S
C148 H149 0.961 . S
C148 H150 0.961 . S
C148 H151 0.960 . S
H149 C148 0.961 . S
H150 C148 0.961 . S
H151 C148 0.960 . S
C152 N153 1.342 . S
C152 C156 1.401 . S
C152 C157 1.499 . S
N153 Co136 1.989 . S
N153 C152 1.342 . S
N153 N154 1.388 . S
N154 Co137 1.993 . S
N154 N153 1.388 . S
N154 C155 1.346 . S
C155 N154 1.346 . S
C155 C156 1.396 . S
C155 C165 1.510 . S
C156 C152 1.401 . S
C156 C155 1.396 . S
C157 C152 1.499 . S
C157 H158 0.959 . S
C157 H159 0.960 . S
C157 H160 0.961 . S
H158 C157 0.959 . S
H159 C157 0.960 . S
H160 C157 0.961 . S
O161 Co136 1.967 . S
O161 C169 1.258 . S
O162 Co137 1.941 . S
O162 C169 1.266 . S
H163 C165 0.959 . S
H164 C165 0.961 . S
C165 C155 1.510 . S
C165 H163 0.959 . S
C165 H164 0.961 . S
C165 H166 0.960 . S
H166 C165 0.960 . S
H167 N147 0.862 . S
O168 Co136 1.920 . S
O168 C141 1.289 . S
C169 O161 1.258 . S
C169 O162 1.266 . S
Co170 O173 1.970 . S
Co170 N187 1.989 . S
Co170 O195 1.967 . S
Co170 O202 1.920 . S
Co171 O174 1.966 . S
Co171 N180 2.022 . S
Co171 N188 1.993 . S
Co171 O196 1.941 . S
C172 O173 1.258 . S
C172 O174 1.263 . S
O173 Co170 1.970 . S
O173 C172 1.258 . S
O174 Co171 1.966 . S
O174 C172 1.263 . S
C175 O176 1.235 . S
C175 O202 1.289 . S
O176 C175 1.235 . S
C177 C179 1.400 . S
C177 N180 1.351 . S
C177 C182 1.501 . S
C178 C179 1.387 . S
C178 N181 1.341 . S
C179 C177 1.400 . S
C179 C178 1.387 . S
N180 Co171 2.022 . S
N180 C177 1.351 . S
N180 N181 1.365 . S
N181 C178 1.341 . S
N181 N180 1.365 . S
N181 H201 0.862 . S
C182 C177 1.501 . S
C182 H183 0.961 . S
C182 H184 0.961 . S
C182 H185 0.960 . S
H183 C182 0.961 . S
H184 C182 0.961 . S
H185 C182 0.960 . S
C186 N187 1.342 . S
C186 C190 1.401 . S
C186 C191 1.499 . S
N187 Co170 1.989 . S
N187 C186 1.342 . S
N187 N188 1.388 . S
N188 Co171 1.993 . S
N188 N187 1.388 . S
N188 C189 1.346 . S
C189 N188 1.346 . S
C189 C190 1.396 . S
C189 C199 1.510 . S
C190 C186 1.401 . S
C190 C189 1.396 . S
C191 C186 1.499 . S
C191 H192 0.959 . S
C191 H193 0.960 . S
C191 H194 0.961 . S
H192 C191 0.959 . S
H193 C191 0.960 . S
H194 C191 0.961 . S
O195 Co170 1.967 . S
O195 C203 1.258 . S
O196 Co171 1.941 . S
O196 C203 1.266 . S
H197 C199 0.959 . S
H198 C199 0.961 . S
C199 C189 1.510 . S
C199 H197 0.959 . S
C199 H198 0.961 . S
C199 H200 0.960 . S
H200 C199 0.960 . S
H201 N181 0.862 . S
O202 Co170 1.920 . S
O202 C175 1.289 . S
C203 O195 1.258 . S
C203 O196 1.266 . S
C204 C205 1.386 . S
C204 C206 1.383 . S
C204 H220 0.951 . S
C205 C204 1.386 . S
C205 C209 1.383 . S
C206 C204 1.383 . S
C206 C207 1.402 . S
C206 H221 0.951 . S
C207 C206 1.402 . S
C207 C208 1.375 . S
C207 C210 1.481 . S
C208 C207 1.375 . S
C208 C209 1.367 . S
C208 H222 0.951 . S
C209 C205 1.383 . S
C209 C208 1.367 . S
C209 H223 0.950 . S
C210 C207 1.481 . S
C210 C211 1.297 . S
C210 H224 0.950 . S
C211 C210 1.297 . S
C211 C212 1.479 . S
C211 H225 0.950 . S
C212 C211 1.479 . S
C212 C213 1.375 . S
C212 C218 1.404 . S
C213 C212 1.375 . S
C213 C214 1.369 . S
C213 H226 0.950 . S
C214 C213 1.369 . S
C214 C215 1.392 . S
C214 H227 0.951 . S
C215 C214 1.392 . S
C215 C217 1.384 . S
H216 C218 0.949 . S
C217 C215 1.384 . S
C217 C218 1.385 . S
C217 H219 0.950 . S
C218 C212 1.404 . S
C218 H216 0.949 . S
C218 C217 1.385 . S
H219 C217 0.950 . S
H220 C204 0.951 . S
H221 C206 0.951 . S
H222 C208 0.951 . S
H223 C209 0.950 . S
H224 C210 0.950 . S
H225 C211 0.950 . S
H226 C213 0.950 . S
H227 C214 0.951 . S
C228 C229 1.386 . S
C228 C230 1.383 . S
C228 H244 0.951 . S
C229 C228 1.386 . S
C229 C233 1.383 . S
C230 C228 1.383 . S
C230 C231 1.402 . S
C230 H245 0.951 . S
C231 C230 1.402 . S
C231 C232 1.375 . S
C231 C234 1.481 . S
C232 C231 1.375 . S
C232 C233 1.367 . S
C232 H246 0.951 . S
C233 C229 1.383 . S
C233 C232 1.367 . S
C233 H247 0.950 . S
C234 C231 1.481 . S
C234 C235 1.297 . S
C234 H248 0.950 . S
C235 C234 1.297 . S
C235 C236 1.479 . S
C235 H249 0.950 . S
C236 C235 1.479 . S
C236 C237 1.375 . S
C236 C242 1.404 . S
C237 C236 1.375 . S
C237 C238 1.369 . S
C237 H250 0.950 . S
C238 C237 1.369 . S
C238 C239 1.392 . S
C238 H251 0.951 . S
C239 C238 1.392 . S
C239 C241 1.384 . S
H240 C242 0.949 . S
C241 C239 1.384 . S
C241 C242 1.385 . S
C241 H243 0.950 . S
C242 C236 1.404 . S
C242 H240 0.949 . S
C242 C241 1.385 . S
H243 C241 0.950 . S
H244 C228 0.951 . S
H245 C230 0.951 . S
H246 C232 0.951 . S
H247 C233 0.950 . S
H248 C234 0.950 . S
H249 C235 0.950 . S
H250 C237 0.950 . S
H251 C238 0.951 . S
C252 C253 1.386 . S
C252 C254 1.383 . S
C252 H268 0.951 . S
C253 C252 1.386 . S
C253 C257 1.383 . S
C254 C252 1.383 . S
C254 C255 1.402 . S
C254 H269 0.951 . S
C255 C254 1.402 . S
C255 C256 1.375 . S
C255 C258 1.481 . S
C256 C255 1.375 . S
C256 C257 1.367 . S
C256 H270 0.951 . S
C257 C253 1.383 . S
C257 C256 1.367 . S
C257 H271 0.950 . S
C258 C255 1.481 . S
C258 C259 1.297 . S
C258 H272 0.950 . S
C259 C258 1.297 . S
C259 C260 1.479 . S
C259 H273 0.950 . S
C260 C259 1.479 . S
C260 C261 1.375 . S
C260 C266 1.404 . S
C261 C260 1.375 . S
C261 C262 1.369 . S
C261 H274 0.950 . S
C262 C261 1.369 . S
C262 C263 1.392 . S
C262 H275 0.951 . S
C263 C262 1.392 . S
C263 C265 1.384 . S
H264 C266 0.949 . S
C265 C263 1.384 . S
C265 C266 1.385 . S
C265 H267 0.950 . S
C266 C260 1.404 . S
C266 H264 0.949 . S
C266 C265 1.385 . S
H267 C265 0.950 . S
H268 C252 0.951 . S
H269 C254 0.951 . S
H270 C256 0.951 . S
H271 C257 0.950 . S
H272 C258 0.950 . S
H273 C259 0.950 . S
H274 C261 0.950 . S
H275 C262 0.951 . S
C276 C277 1.386 . S
C276 C278 1.383 . S
C276 H292 0.951 . S
C277 C276 1.386 . S
C277 C281 1.383 . S
C278 C276 1.383 . S
C278 C279 1.402 . S
C278 H293 0.951 . S
C279 C278 1.402 . S
C279 C280 1.375 . S
C279 C282 1.481 . S
C280 C279 1.375 . S
C280 C281 1.367 . S
C280 H294 0.951 . S
C281 C277 1.383 . S
C281 C280 1.367 . S
C281 H295 0.950 . S
C282 C279 1.481 . S
C282 C283 1.297 . S
C282 H296 0.950 . S
C283 C282 1.297 . S
C283 C284 1.479 . S
C283 H297 0.950 . S
C284 C283 1.479 . S
C284 C285 1.375 . S
C284 C290 1.404 . S
C285 C284 1.375 . S
C285 C286 1.369 . S
C285 H298 0.950 . S
C286 C285 1.369 . S
C286 C287 1.392 . S
C286 H299 0.951 . S
C287 C286 1.392 . S
C287 C289 1.384 . S
H288 C290 0.949 . S
C289 C287 1.384 . S
C289 C290 1.385 . S
C289 H291 0.950 . S
C290 C284 1.404 . S
C290 H288 0.949 . S
C290 C289 1.385 . S
H291 C289 0.950 . S
H292 C276 0.951 . S
H293 C278 0.951 . S
H294 C280 0.951 . S
H295 C281 0.950 . S
H296 C282 0.950 . S
H297 C283 0.950 . S
H298 C285 0.950 . S
H299 C286 0.951 . S
C300 C301 1.386 . S
C300 C302 1.383 . S
C300 H316 0.951 . S
C301 C300 1.386 . S
C301 C305 1.383 . S
C302 C300 1.383 . S
C302 C303 1.402 . S
C302 H317 0.951 . S
C303 C302 1.402 . S
C303 C304 1.375 . S
C303 C306 1.481 . S
C304 C303 1.375 . S
C304 C305 1.367 . S
C304 H318 0.951 . S
C305 C301 1.383 . S
C305 C304 1.367 . S
C305 H319 0.950 . S
C306 C303 1.481 . S
C306 C307 1.297 . S
C306 H320 0.950 . S
C307 C306 1.297 . S
C307 C308 1.479 . S
C307 H321 0.950 . S
C308 C307 1.479 . S
C308 C309 1.375 . S
C308 C314 1.404 . S
C309 C308 1.375 . S
C309 C310 1.369 . S
C309 H322 0.950 . S
C310 C309 1.369 . S
C310 C311 1.392 . S
C310 H323 0.951 . S
C311 C310 1.392 . S
C311 C313 1.384 . S
H312 C314 0.949 . S
C313 C311 1.384 . S
C313 C314 1.385 . S
C313 H315 0.950 . S
C314 C308 1.404 . S
C314 H312 0.949 . S
C314 C313 1.385 . S
H315 C313 0.950 . S
H316 C300 0.951 . S
H317 C302 0.951 . S
H318 C304 0.951 . S
H319 C305 0.950 . S
H320 C306 0.950 . S
H321 C307 0.950 . S
H322 C309 0.950 . S
H323 C310 0.951 . S
C324 C325 1.386 . S
C324 C326 1.383 . S
C324 H340 0.951 . S
C325 C324 1.386 . S
C325 C329 1.383 . S
C326 C324 1.383 . S
C326 C327 1.402 . S
C326 H341 0.951 . S
C327 C326 1.402 . S
C327 C328 1.375 . S
C327 C330 1.481 . S
C328 C327 1.375 . S
C328 C329 1.367 . S
C328 H342 0.951 . S
C329 C325 1.383 . S
C329 C328 1.367 . S
C329 H343 0.950 . S
C330 C327 1.481 . S
C330 C331 1.297 . S
C330 H344 0.950 . S
C331 C330 1.297 . S
C331 C332 1.479 . S
C331 H345 0.950 . S
C332 C331 1.479 . S
C332 C333 1.375 . S
C332 C338 1.404 . S
C333 C332 1.375 . S
C333 C334 1.369 . S
C333 H346 0.950 . S
C334 C333 1.369 . S
C334 C335 1.392 . S
C334 H347 0.951 . S
C335 C334 1.392 . S
C335 C337 1.384 . S
H336 C338 0.949 . S
C337 C335 1.384 . S
C337 C338 1.385 . S
C337 H339 0.950 . S
C338 C332 1.404 . S
C338 H336 0.949 . S
C338 C337 1.385 . S
H339 C337 0.950 . S
H340 C324 0.951 . S
H341 C326 0.951 . S
H342 C328 0.951 . S
H343 C329 0.950 . S
H344 C330 0.950 . S
H345 C331 0.950 . S
H346 C333 0.950 . S
H347 C334 0.951 . S
C348 C349 1.386 . S
C348 C350 1.383 . S
C348 H364 0.951 . S
C349 C348 1.386 . S
C349 C353 1.383 . S
C350 C348 1.383 . S
C350 C351 1.402 . S
C350 H365 0.951 . S
C351 C350 1.402 . S
C351 C352 1.375 . S
C351 C354 1.481 1_655 S
C352 C351 1.375 . S
C352 C353 1.367 . S
C352 H366 0.951 1_655 S
C353 C349 1.383 . S
C353 C352 1.367 . S
C353 H367 0.950 . S
C354 C351 1.481 1_455 S
C354 C355 1.297 . S
C354 H368 0.950 . S
C355 C354 1.297 . S
C355 C356 1.479 . S
C355 H369 0.950 1_455 S
C356 C355 1.479 . S
C356 C357 1.375 . S
C356 C362 1.404 . S
C357 C356 1.375 . S
C357 C358 1.369 . S
C357 H370 0.950 . S
C358 C357 1.369 . S
C358 C359 1.392 . S
C358 H371 0.951 . S
C359 C358 1.392 . S
C359 C361 1.384 . S
H360 C362 0.949 . S
C361 C359 1.384 . S
C361 C362 1.385 . S
C361 H363 0.950 . S
C362 C356 1.404 . S
C362 H360 0.949 . S
C362 C361 1.385 . S
H363 C361 0.950 . S
H364 C348 0.951 . S
H365 C350 0.951 . S
H366 C352 0.951 1_455 S
H367 C353 0.950 . S
H368 C354 0.950 . S
H369 C355 0.950 1_655 S
H370 C357 0.950 . S
H371 C358 0.951 . S
C372 C373 1.386 . S
C372 C374 1.383 . S
C372 H388 0.951 . S
C373 C372 1.386 . S
C373 C377 1.383 . S
C374 C372 1.383 . S
C374 C375 1.402 . S
C374 H389 0.951 . S
C375 C374 1.402 . S
C375 C376 1.375 . S
C375 C378 1.481 . S
C376 C375 1.375 . S
C376 C377 1.367 . S
C376 H390 0.951 . S
C377 C373 1.383 . S
C377 C376 1.367 . S
C377 H391 0.950 . S
C378 C375 1.481 . S
C378 C379 1.297 . S
C378 H392 0.950 . S
C379 C378 1.297 . S
C379 C380 1.479 . S
C379 H393 0.950 . S
C380 C379 1.479 . S
C380 C381 1.375 . S
C380 C386 1.404 . S
C381 C380 1.375 . S
C381 C382 1.369 . S
C381 H394 0.950 . S
C382 C381 1.369 . S
C382 C383 1.392 . S
C382 H395 0.951 . S
C383 C382 1.392 . S
C383 C385 1.384 . S
H384 C386 0.949 . S
C385 C383 1.384 . S
C385 C386 1.385 . S
C385 H387 0.950 . S
C386 C380 1.404 . S
C386 H384 0.949 . S
C386 C385 1.385 . S
H387 C385 0.950 . S
H388 C372 0.951 . S
H389 C374 0.951 . S
H390 C376 0.951 . S
H391 C377 0.950 . S
H392 C378 0.950 . S
H393 C379 0.950 . S
H394 C381 0.950 . S
H395 C382 0.951 . S
C396 C397 1.386 . S
C396 C398 1.383 . S
C396 H412 0.951 . S
C397 C396 1.386 . S
C397 C401 1.383 . S
C398 C396 1.383 . S
C398 C399 1.402 . S
C398 H413 0.951 . S
C399 C398 1.402 . S
C399 C400 1.375 . S
C399 C402 1.481 . S
C400 C399 1.375 . S
C400 C401 1.367 . S
C400 H414 0.951 . S
C401 C397 1.383 . S
C401 C400 1.367 . S
C401 H415 0.950 . S
C402 C399 1.481 . S
C402 C403 1.297 1_545 S
C402 H416 0.950 . S
C403 C402 1.297 1_565 S
C403 C404 1.479 . S
C403 H417 0.950 . S
C404 C403 1.479 . S
C404 C405 1.375 . S
C404 C410 1.404 . S
C405 C404 1.375 . S
C405 C406 1.369 . S
C405 H418 0.950 . S
C406 C405 1.369 . S
C406 C407 1.392 . S
C406 H419 0.951 . S
C407 C406 1.392 . S
C407 C409 1.384 . S
H408 C410 0.949 1_545 S
C409 C407 1.384 . S
C409 C410 1.385 . S
C409 H411 0.950 . S
C410 C404 1.404 . S
C410 H408 0.949 1_565 S
C410 C409 1.385 . S
H411 C409 0.950 . S
H412 C396 0.951 . S
H413 C398 0.951 . S
H414 C400 0.951 . S
H415 C401 0.950 . S
H416 C402 0.950 . S
H417 C403 0.950 . S
H418 C405 0.950 . S
H419 C406 0.951 . S
C420 C421 1.386 1_554 S
C420 C422 1.383 . S
C420 H436 0.951 . S
C421 C420 1.386 1_556 S
C421 C425 1.383 . S
C422 C420 1.383 . S
C422 C423 1.402 1_554 S
C422 H437 0.951 . S
C423 C422 1.402 1_556 S
C423 C424 1.375 . S
C423 C426 1.481 . S
C424 C423 1.375 . S
C424 C425 1.367 . S
C424 H438 0.951 . S
C425 C421 1.383 . S
C425 C424 1.367 . S
C425 H439 0.950 . S
C426 C423 1.481 . S
C426 C427 1.297 1_556 S
C426 H440 0.950 . S
C427 C426 1.297 1_554 S
C427 C428 1.479 . S
C427 H441 0.950 . S
C428 C427 1.479 . S
C428 C429 1.375 . S
C428 C434 1.404 . S
C429 C428 1.375 . S
C429 C430 1.369 . S
C429 H442 0.950 . S
C430 C429 1.369 . S
C430 C431 1.392 . S
C430 H443 0.951 . S
C431 C430 1.392 . S
C431 C433 1.384 . S
H432 C434 0.949 1_556 S
C433 C431 1.384 . S
C433 C434 1.385 . S
C433 H435 0.950 1_554 S
C434 C428 1.404 . S
C434 H432 0.949 1_554 S
C434 C433 1.385 . S
H435 C433 0.950 1_556 S
H436 C420 0.951 . S
H437 C422 0.951 . S
H438 C424 0.951 . S
H439 C425 0.950 . S
H440 C426 0.950 . S
H441 C427 0.950 . S
H442 C429 0.950 . S
H443 C430 0.951 . S
C444 C445 1.386 . S
C444 C446 1.383 . S
C444 H460 0.951 . S
C445 C444 1.386 . S
C445 C449 1.383 . S
C446 C444 1.383 . S
C446 C447 1.402 . S
C446 H461 0.951 . S
C447 C446 1.402 . S
C447 C448 1.375 . S
C447 C450 1.481 . S
C448 C447 1.375 . S
C448 C449 1.367 . S
C448 H462 0.951 . S
C449 C445 1.383 . S
C449 C448 1.367 . S
C449 H463 0.950 . S
C450 C447 1.481 . S
C450 C451 1.297 1_545 S
C450 H464 0.950 . S
C451 C450 1.297 1_565 S
C451 C452 1.479 . S
C451 H465 0.950 1_565 S
C452 C451 1.479 . S
C452 C453 1.375 . S
C452 C458 1.404 . S
C453 C452 1.375 . S
C453 C454 1.369 . S
C453 H466 0.950 . S
C454 C453 1.369 . S
C454 C455 1.392 . S
C454 H467 0.951 . S
C455 C454 1.392 . S
C455 C457 1.384 . S
H456 C458 0.949 . S
C457 C455 1.384 . S
C457 C458 1.385 . S
C457 H459 0.950 . S
C458 C452 1.404 . S
C458 H456 0.949 . S
C458 C457 1.385 . S
H459 C457 0.950 . S
H460 C444 0.951 . S
H461 C446 0.951 . S
H462 C448 0.951 . S
H463 C449 0.950 . S
H464 C450 0.950 . S
H465 C451 0.950 1_545 S
H466 C453 0.950 . S
H467 C454 0.951 . S
C468 C469 1.386 . S
C468 C470 1.383 . S
C468 H484 0.951 . S
C469 C468 1.386 . S
C469 C473 1.383 . S
C470 C468 1.383 . S
C470 C471 1.402 . S
C470 H485 0.951 . S
C471 C470 1.402 . S
C471 C472 1.375 . S
C471 C474 1.481 . S
C472 C471 1.375 . S
C472 C473 1.367 . S
C472 H486 0.951 . S
C473 C469 1.383 . S
C473 C472 1.367 . S
C473 H487 0.950 . S
C474 C471 1.481 . S
C474 C475 1.297 1_455 S
C474 H488 0.950 . S
C475 C474 1.297 1_655 S
C475 C476 1.479 . S
C475 H489 0.968 . S
C476 C475 1.479 . S
C476 C477 1.375 . S
C476 C482 1.404 . S
C477 C476 1.375 . S
C477 C478 1.369 . S
C477 H490 0.950 . S
C478 C477 1.369 . S
C478 C479 1.392 . S
C478 H491 0.951 . S
C479 C478 1.392 . S
C479 C481 1.384 . S
H480 C482 0.949 . S
C481 C479 1.384 . S
C481 C482 1.385 . S
C481 H483 0.950 . S
C482 C476 1.404 . S
C482 H480 0.949 . S
C482 C481 1.385 . S
H483 C481 0.950 . S
H484 C468 0.951 . S
H485 C470 0.951 . S
H486 C472 0.951 . S
H487 C473 0.950 . S
H488 C474 0.950 . S
H489 C475 0.968 . S
H490 C477 0.950 . S
H491 C478 0.951 . S
C492 C493 1.386 . S
C492 C494 1.383 . S
C492 H508 0.951 . S
C493 C492 1.386 . S
C493 C497 1.383 . S
C494 C492 1.383 . S
C494 C495 1.402 . S
C494 H509 0.951 . S
C495 C494 1.402 . S
C495 C496 1.375 1_655 S
C495 C498 1.481 1_655 S
C496 C495 1.375 1_455 S
C496 C497 1.367 1_455 S
C496 H510 0.951 . S
C497 C493 1.383 . S
C497 C496 1.367 1_655 S
C497 H511 0.950 . S
C498 C495 1.481 1_455 S
C498 C499 1.291 1_455 S
C498 H512 0.950 . S
C499 C498 1.291 1_655 S
C499 C500 1.469 1_655 S
C499 H513 0.969 . S
C500 C499 1.469 1_455 S
C500 C501 1.375 . S
C500 C506 1.404 . S
C501 C500 1.375 . S
C501 C502 1.369 . S
C501 H514 0.950 1_455 S
C502 C501 1.369 . S
C502 C503 1.392 . S
C502 H515 0.951 . S
C503 C502 1.392 . S
C503 C505 1.384 . S
H504 C506 0.949 . S
C505 C503 1.384 . S
C505 C506 1.385 . S
C505 H507 0.950 . S
C506 C500 1.404 . S
C506 H504 0.949 . S
C506 C505 1.385 . S
H507 C505 0.950 . S
H508 C492 0.951 . S
H509 C494 0.951 . S
H510 C496 0.951 . S
H511 C497 0.950 . S
H512 C498 0.950 . S
H513 C499 0.969 . S
H514 C501 0.950 1_655 S
H515 C502 0.951 . S
C516 C517 1.386 . S
C516 C518 1.383 . S
C516 H532 0.951 . S
C517 C516 1.386 . S
C517 C521 1.383 . S
C518 C516 1.383 . S
C518 C519 1.402 . S
C518 H533 0.951 . S
C519 C518 1.402 . S
C519 C520 1.375 . S
C519 C522 1.481 . S
C520 C519 1.375 . S
C520 C521 1.367 . S
C520 H534 0.951 . S
C521 C517 1.383 . S
C521 C520 1.367 . S
C521 H535 0.950 . S
C522 C519 1.481 . S
C522 C523 1.297 1_556 S
C522 H536 0.950 . S
C523 C522 1.297 1_554 S
C523 C524 1.479 . S
C523 H537 0.950 . S
C524 C523 1.479 . S
C524 C525 1.375 . S
C524 C530 1.404 . S
C525 C524 1.375 . S
C525 C526 1.369 . S
C525 H538 0.950 . S
C526 C525 1.369 . S
C526 C527 1.392 . S
C526 H539 0.951 . S
C527 C526 1.392 . S
C527 C529 1.384 . S
H528 C530 0.949 . S
C529 C527 1.384 . S
C529 C530 1.385 . S
C529 H531 0.950 . S
C530 C524 1.404 . S
C530 H528 0.949 . S
C530 C529 1.385 . S
H531 C529 0.950 . S
H532 C516 0.951 . S
H533 C518 0.951 . S
H534 C520 0.951 . S
H535 C521 0.950 . S
H536 C522 0.950 . S
H537 C523 0.950 . S
H538 C525 0.950 . S
H539 C526 0.951 . S
C540 C541 1.386 . S
C540 C542 1.383 . S
C540 H556 0.951 . S
C541 C540 1.386 . S
C541 C545 1.383 . S
C542 C540 1.383 . S
C542 C543 1.402 . S
C542 H557 0.951 . S
C543 C542 1.402 . S
C543 C544 1.375 . S
C543 C546 1.481 1_545 S
C544 C543 1.375 . S
C544 C545 1.367 . S
C544 H558 0.951 1_545 S
C545 C541 1.383 . S
C545 C544 1.367 . S
C545 H559 0.950 . S
C546 C543 1.481 1_565 S
C546 C547 1.297 1_565 S
C546 H560 0.950 . S
C547 C546 1.297 1_545 S
C547 C548 1.479 1_545 S
C547 H561 0.950 . S
C548 C547 1.479 1_565 S
C548 C549 1.380 . S
C548 C554 1.404 . S
C549 C548 1.380 . S
C549 C550 1.372 . S
C549 H562 0.942 1_565 S
C550 C549 1.372 . S
C550 C551 1.392 . S
C550 H563 0.951 . S
C551 C550 1.392 . S
C551 C553 1.384 . S
H552 C554 0.949 . S
C553 C551 1.384 . S
C553 C554 1.385 . S
C553 H555 0.950 . S
C554 C548 1.404 . S
C554 H552 0.949 . S
C554 C553 1.385 . S
H555 C553 0.950 . S
H556 C540 0.951 . S
H557 C542 0.951 . S
H558 C544 0.951 1_565 S
H559 C545 0.950 . S
H560 C546 0.950 . S
H561 C547 0.950 . S
H562 C549 0.942 1_545 S
H563 C550 0.951 . S
C205 C73 1.546 . S
C215 C20 1.575 . S
C229 C54 1.586 . S
C239 C5 1.523 . S
C253 C88 1.596 . S
C263 C39 1.579 . S
C277 C122 1.597 . S
C287 C141 1.587 . S
C301 C175 1.571 . S
C311 C156 1.588 . S
C325 C107 1.584 . S
C335 C190 1.592 . S
C349 C169 1.100 . S
C359 C33 1.093 . S
C373 C203 1.101 . S
C383 C67 1.092 . S
C397 C135 1.113 . S
C407 C101 1.094 . S
C421 C104 1.436 . S
C431 C2 1.441 . S
C445 C138 1.460 . S
C455 C36 1.416 . S
C469 C70 1.464 . S
C479 C172 1.425 . S
C493 C145 1.312 . S
C503 C9 1.284 . S
C517 C43 1.315 . S
C527 C179 1.281 . S
C541 C111 1.315 . S
C551 C77 1.305 . S
