# Generated by pormake.
# Topology skc, (5)-cn, num edge types: 1
# Building blocks:
#     Node 0, Type 0, BuildingBlock: BEQFEK_clean_sbu_0, # of connection points: 5
#     Node 1, Type 0, BuildingBlock: BEQFEK_clean_sbu_0, # of connection points: 5
#     Node 2, Type 0, BuildingBlock: BEQFEK_clean_sbu_0, # of connection points: 5
#     Node 3, Type 0, BuildingBlock: BEQFEK_clean_sbu_0, # of connection points: 5
#     Node 4, Type 0, BuildingBlock: BEQFEK_clean_sbu_0, # of connection points: 5
#     Node 5, Type 0, BuildingBlock: BEQFEK_clean_sbu_0, # of connection points: 5
#     Node 6, Type 0, BuildingBlock: BEQFEK_clean_sbu_0, # of connection points: 5
#     Node 7, Type 0, BuildingBlock: BEQFEK_clean_sbu_0, # of connection points: 5
#     Edge 8, Type (0, 0), BuildingBlock: UVAHIK_clean_linker_0, # of connection points: 2
#     Edge 9, Type (0, 0), BuildingBlock: UVAHIK_clean_linker_0, # of connection points: 2
#     Edge 10, Type (0, 0), BuildingBlock: UVAHIK_clean_linker_0, # of connection points: 2
#     Edge 11, Type (0, 0), BuildingBlock: UVAHIK_clean_linker_0, # of connection points: 2
#     Edge 12, Type (0, 0), BuildingBlock: UVAHIK_clean_linker_0, # of connection points: 2
#     Edge 13, Type (0, 0), BuildingBlock: UVAHIK_clean_linker_0, # of connection points: 2
#     Edge 14, Type (0, 0), BuildingBlock: UVAHIK_clean_linker_0, # of connection points: 2
#     Edge 15, Type (0, 0), BuildingBlock: UVAHIK_clean_linker_0, # of connection points: 2
#     Edge 16, Type (0, 0), BuildingBlock: UVAHIK_clean_linker_0, # of connection points: 2
#     Edge 17, Type (0, 0), BuildingBlock: UVAHIK_clean_linker_0, # of connection points: 2
#     Edge 18, Type (0, 0), BuildingBlock: UVAHIK_clean_linker_0, # of connection points: 2
#     Edge 19, Type (0, 0), BuildingBlock: UVAHIK_clean_linker_0, # of connection points: 2
#     Edge 20, Type (0, 0), BuildingBlock: UVAHIK_clean_linker_0, # of connection points: 2
#     Edge 21, Type (0, 0), BuildingBlock: UVAHIK_clean_linker_0, # of connection points: 2
#     Edge 22, Type (0, 0), BuildingBlock: UVAHIK_clean_linker_0, # of connection points: 2
#     Edge 23, Type (0, 0), BuildingBlock: UVAHIK_clean_linker_0, # of connection points: 2
#     Edge 24, Type (0, 0), BuildingBlock: UVAHIK_clean_linker_0, # of connection points: 2
#     Edge 25, Type (0, 0), BuildingBlock: UVAHIK_clean_linker_0, # of connection points: 2
#     Edge 26, Type (0, 0), BuildingBlock: UVAHIK_clean_linker_0, # of connection points: 2
#     Edge 27, Type (0, 0), BuildingBlock: UVAHIK_clean_linker_0, # of connection points: 2
# Relax obj value: 0.156
# Max RMSD: 0.190
# Mean RMSD: 0.190
data_MOF--net-skc--node1-BEQFEK_clean_sbu_0--edge1-UVAHIK_clean_linker_0
_symmetry_space_group_name_H-M    P1
_symmetry_Int_Tables_number       1
_symmetry_cell_setting            triclinic
loop_
_symmetry_equiv_pos_as_xyz
'x, y, z'
_cell_length_a     57.490184
_cell_length_b     28.676265
_cell_length_c     30.793354
_cell_angle_alpha  89.967828
_cell_angle_beta   90.023158
_cell_angle_gamma 90.016515
loop_
_atom_site_label
_atom_site_type_symbol
_atom_site_fract_x
_atom_site_fract_y
_atom_site_fract_z
_atom_type_partial_charge
Co0 Co 0.08353 0.20379 0.16614 0.0
Co1 Co 0.11287 0.24448 0.08881 0.0
C2 C 0.08083 0.16319 0.07647 0.0
O3 O 0.07437 0.16484 0.11596 0.0
O4 O 0.09618 0.19107 0.06176 0.0
C5 C 0.06602 0.13388 0.22644 0.0
O6 O 0.07576 0.10316 0.20058 0.0
C7 C 0.15057 0.24778 0.02359 0.0
C8 C 0.14916 0.32167 0.00334 0.0
C9 C 0.1607 0.28008 0.99576 0.0
N10 N 0.13394 0.26949 0.04673 0.0
N11 N 0.13323 0.31364 0.03445 0.0
C12 C 0.15534 0.19654 0.02588 0.0
H13 H 0.15642 0.18181 0.99261 0.0
H14 H 0.14161 0.1784 0.04474 0.0
H15 H 0.17231 0.19046 0.04202 0.0
C16 C 0.13002 0.20242 0.20762 0.0
N17 N 0.1163 0.20852 0.17262 0.0
N18 N 0.12864 0.22708 0.14098 0.0
C19 C 0.1506 0.23395 0.15521 0.0
C20 C 0.15223 0.21832 0.19782 0.0
C21 C 0.12166 0.1829 0.24992 0.0
H22 H 0.11332 0.14865 0.24406 0.0
H23 H 0.13606 0.17805 0.27345 0.0
H24 H 0.10837 0.20656 0.26393 0.0
O25 O 0.07027 0.26708 0.15841 0.0
O26 O 0.0898 0.29438 0.10158 0.0
H27 H 0.16065 0.29022 0.11319 0.0
H28 H 0.18237 0.27448 0.15287 0.0
C29 C 0.16875 0.2607 0.1308 0.0
H30 H 0.17715 0.23734 0.10685 0.0
H31 H 0.1217 0.33825 0.04702 0.0
O32 O 0.0682 0.17718 0.21832 0.0
C33 C 0.07419 0.29904 0.13062 0.0
Co34 Co 0.91891 0.80437 0.16621 0.0
Co35 Co 0.89089 0.76268 0.08733 0.0
C36 C 0.92287 0.84318 0.075 0.0
O37 O 0.92846 0.84199 0.11504 0.0
O38 O 0.90775 0.81523 0.05951 0.0
C39 C 0.94071 0.87461 0.22147 0.0
O40 O 0.9423 0.8999 0.18602 0.0
C41 C 0.8566 0.75336 0.01604 0.0
C42 C 0.85165 0.67698 0.01482 0.0
C43 C 0.84417 0.71795 0.99535 0.0
N44 N 0.87049 0.7339 0.04623 0.0
N45 N 0.86758 0.68824 0.045 0.0
C46 C 0.85417 0.80493 0.01024 0.0
H47 H 0.86088 0.82362 0.03921 0.0
H48 H 0.8357 0.81445 0.00471 0.0
H49 H 0.86452 0.81606 0.98164 0.0
C50 C 0.87189 0.8055 0.20468 0.0
N51 N 0.88619 0.7988 0.17063 0.0
N52 N 0.87422 0.78164 0.13789 0.0
C53 C 0.85178 0.77716 0.15008 0.0
C54 C 0.84954 0.79209 0.19287 0.0
C55 C 0.88019 0.81935 0.24894 0.0
H56 H 0.89553 0.79795 0.25793 0.0
H57 H 0.88574 0.85641 0.24823 0.0
H58 H 0.86656 0.81471 0.27403 0.0
O59 O 0.93297 0.74144 0.16092 0.0
O60 O 0.91429 0.71432 0.10297 0.0
H61 H 0.83662 0.72177 0.11318 0.0
H62 H 0.81553 0.76128 0.13672 0.0
C63 C 0.83291 0.7587 0.12133 0.0
H64 H 0.83257 0.77899 0.09077 0.0
H65 H 0.87617 0.6648 0.06534 0.0
O66 O 0.9316 0.83419 0.21958 0.0
C67 C 0.92953 0.70965 0.13273 0.0
Co68 Co 0.08232 0.7993 0.66442 0.0
Co69 Co 0.1136 0.75748 0.73859 0.0
C70 C 0.08129 0.83603 0.7565 0.0
O71 O 0.07417 0.83507 0.71732 0.0
O72 O 0.09731 0.80875 0.76969 0.0
C73 C 0.06587 0.8717 0.60516 0.0
O74 O 0.07892 0.90066 0.6275 0.0
C75 C 0.14952 0.74748 0.80705 0.0
C76 C 0.15963 0.67376 0.79799 0.0
C77 C 0.16469 0.71332 0.82194 0.0
N78 N 0.13621 0.72887 0.77554 0.0
N79 N 0.14214 0.68464 0.77078 0.0
C80 C 0.14905 0.79785 0.81955 0.0
H81 H 0.14289 0.81942 0.79191 0.0
H82 H 0.16655 0.80977 0.83003 0.0
H83 H 0.13679 0.80251 0.84702 0.0
C84 C 0.12826 0.80601 0.62053 0.0
N85 N 0.11492 0.79669 0.65548 0.0
N86 N 0.12806 0.779 0.68644 0.0
C87 C 0.1502 0.77669 0.67203 0.0
C88 C 0.15102 0.79382 0.62999 0.0
C89 C 0.11907 0.82224 0.57765 0.0
H90 H 0.10272 0.8035 0.56982 0.0
H91 H 0.11514 0.86003 0.57968 0.0
H92 H 0.13191 0.81664 0.55127 0.0
O93 O 0.06971 0.73533 0.6702 0.0
O94 O 0.09043 0.70779 0.72542 0.0
H95 H 0.16725 0.71924 0.70263 0.0
H96 H 0.1869 0.76193 0.68003 0.0
C97 C 0.17014 0.75703 0.69731 0.0
H98 H 0.17116 0.77445 0.72935 0.0
H99 H 0.13471 0.66224 0.74799 0.0
O100 O 0.06567 0.82861 0.615 0.0
C101 C 0.07439 0.70304 0.69721 0.0
Co102 Co 0.91901 0.19782 0.66871 0.0
Co103 Co 0.89101 0.23926 0.74757 0.0
C104 C 0.92273 0.15812 0.75951 0.0
O105 O 0.92834 0.15927 0.71949 0.0
O106 O 0.9078 0.18644 0.77504 0.0
C107 C 0.93987 0.12795 0.61146 0.0
O108 O 0.94034 0.10045 0.64558 0.0
C109 C 0.85666 0.24783 0.81879 0.0
C110 C 0.85103 0.32403 0.81948 0.0
C111 C 0.84382 0.28289 0.83898 0.0
N112 N 0.87053 0.26761 0.78874 0.0
N113 N 0.86726 0.31318 0.78975 0.0
C114 C 0.85444 0.19623 0.82468 0.0
H115 H 0.86476 0.1854 0.85343 0.0
H116 H 0.86129 0.17758 0.79581 0.0
H117 H 0.836 0.18638 0.83012 0.0
C118 C 0.87219 0.19858 0.62942 0.0
N119 N 0.88634 0.20401 0.6639 0.0
N120 N 0.87434 0.22065 0.69679 0.0
C121 C 0.85195 0.22567 0.68438 0.0
C122 C 0.84982 0.212 0.64117 0.0
C123 C 0.88073 0.18652 0.58487 0.0
H124 H 0.89651 0.2073 0.57741 0.0
H125 H 0.88562 0.1491 0.58405 0.0
H126 H 0.86749 0.19347 0.55952 0.0
O127 O 0.93315 0.26045 0.67462 0.0
O128 O 0.91442 0.28796 0.7323 0.0
H129 H 0.83633 0.2806 0.72116 0.0
H130 H 0.81561 0.23987 0.69824 0.0
C131 C 0.83303 0.24343 0.71334 0.0
H132 H 0.83306 0.22336 0.74402 0.0
H133 H 0.8757 0.33678 0.76937 0.0
O134 O 0.93176 0.16905 0.61505 0.0
C135 C 0.92971 0.2924 0.70261 0.0
Co136 Co 0.58407 0.69763 0.66677 0.0
Co137 Co 0.61178 0.7398 0.58781 0.0
C138 C 0.58022 0.6585 0.57601 0.0
O139 O 0.57423 0.66018 0.61579 0.0
O140 O 0.59552 0.68611 0.56063 0.0
C141 C 0.56198 0.62803 0.72209 0.0
O142 O 0.5598 0.60341 0.68638 0.0
C143 C 0.6474 0.74835 0.51907 0.0
C144 C 0.64843 0.82472 0.50989 0.0
C145 C 0.65848 0.78354 0.49558 0.0
N146 N 0.63177 0.76816 0.54584 0.0
N147 N 0.63236 0.81376 0.5399 0.0
C148 C 0.65244 0.69718 0.51884 0.0
H149 H 0.64587 0.68064 0.54905 0.0
H150 H 0.67141 0.69088 0.51565 0.0
H151 H 0.64343 0.68083 0.49084 0.0
C152 C 0.63134 0.6961 0.70453 0.0
N153 N 0.61689 0.70325 0.67076 0.0
N154 N 0.62864 0.72186 0.6384 0.0
C155 C 0.651 0.72747 0.65083 0.0
C156 C 0.65344 0.71123 0.69311 0.0
C157 C 0.62385 0.67596 0.74715 0.0
H158 H 0.61195 0.70079 0.76355 0.0
H159 H 0.61413 0.64313 0.74139 0.0
H160 H 0.6389 0.66851 0.76861 0.0
O161 O 0.56991 0.76058 0.66153 0.0
O162 O 0.58809 0.78762 0.60301 0.0
H163 H 0.66137 0.78457 0.61025 0.0
H164 H 0.6842 0.76278 0.64492 0.0
C165 C 0.66902 0.75271 0.62475 0.0
H166 H 0.67511 0.72977 0.59814 0.0
H167 H 0.62205 0.83747 0.55685 0.0
O168 O 0.57156 0.66804 0.72044 0.0
C169 C 0.57301 0.79221 0.63302 0.0
Co170 Co 0.42239 0.30165 0.6667 0.0
Co171 Co 0.39215 0.26225 0.59003 0.0
C172 C 0.42385 0.34275 0.57612 0.0
O173 O 0.43032 0.34076 0.61564 0.0
O174 O 0.40858 0.31476 0.56127 0.0
C175 C 0.43674 0.37225 0.72925 0.0
O176 O 0.42239 0.40034 0.70878 0.0
C177 C 0.35653 0.25528 0.5207 0.0
C178 C 0.34922 0.17965 0.52175 0.0
C179 C 0.34271 0.22094 0.5017 0.0
N180 N 0.37032 0.23498 0.55059 0.0
N181 N 0.36601 0.18974 0.55065 0.0
C182 C 0.35535 0.30689 0.51384 0.0
H183 H 0.36588 0.31626 0.48494 0.0
H184 H 0.36256 0.32558 0.54239 0.0
H185 H 0.33712 0.31811 0.50818 0.0
C186 C 0.37643 0.30134 0.7105 0.0
N187 N 0.38984 0.2964 0.67493 0.0
N188 N 0.37697 0.28118 0.64251 0.0
C189 C 0.35478 0.27704 0.65627 0.0
C190 C 0.35369 0.28939 0.69992 0.0
C191 C 0.38581 0.31161 0.75484 0.0
H192 H 0.40335 0.29609 0.75862 0.0
H193 H 0.38726 0.34992 0.75897 0.0
H194 H 0.37426 0.29762 0.7806 0.0
O195 O 0.43568 0.2387 0.65897 0.0
O196 O 0.41535 0.21215 0.60283 0.0
H197 H 0.33692 0.22413 0.62044 0.0
H198 H 0.31793 0.26786 0.64365 0.0
C199 C 0.33502 0.26176 0.628 0.0
H200 H 0.33544 0.28153 0.59717 0.0
H201 H 0.3742 0.16586 0.57113 0.0
O202 O 0.43843 0.32994 0.71727 0.0
C203 C 0.43125 0.20697 0.63129 0.0
Co204 Co 0.58411 0.30961 0.16914 0.0
Co205 Co 0.61171 0.26699 0.24809 0.0
C206 C 0.58022 0.34916 0.25918 0.0
O207 O 0.57423 0.34782 0.21942 0.0
O208 O 0.59525 0.32096 0.27448 0.0
C209 C 0.56172 0.37818 0.11328 0.0
O210 O 0.55939 0.40291 0.1489 0.0
C211 C 0.64848 0.26144 0.31489 0.0
C212 C 0.64541 0.18802 0.33595 0.0
C213 C 0.65766 0.2288 0.3435 0.0
N214 N 0.6317 0.2407 0.29132 0.0
N215 N 0.62998 0.19681 0.30409 0.0
C216 C 0.65424 0.31225 0.31224 0.0
H217 H 0.65504 0.32739 0.34538 0.0
H218 H 0.64116 0.33108 0.29237 0.0
H219 H 0.67156 0.31686 0.29707 0.0
C220 C 0.63123 0.30996 0.13117 0.0
N221 N 0.61694 0.3038 0.16531 0.0
N222 N 0.62857 0.28405 0.19724 0.0
C223 C 0.65061 0.27612 0.18394 0.0
C224 C 0.65303 0.29248 0.14168 0.0
C225 C 0.62377 0.33086 0.08885 0.0
H226 H 0.61381 0.3633 0.09503 0.0
H227 H 0.63887 0.3392 0.06782 0.0
H228 H 0.61214 0.30602 0.07172 0.0
O229 O 0.57002 0.24652 0.17493 0.0
O230 O 0.58824 0.21862 0.23314 0.0
H231 H 0.65907 0.21897 0.22621 0.0
H232 H 0.68125 0.23236 0.18665 0.0
C233 C 0.66796 0.24757 0.2086 0.0
H234 H 0.67694 0.2701 0.23253 0.0
H235 H 0.61812 0.17295 0.29135 0.0
O236 O 0.57153 0.33842 0.11513 0.0
C237 C 0.57314 0.21447 0.20305 0.0
Co238 Co 0.42188 0.70449 0.16494 0.0
Co239 Co 0.39118 0.74726 0.23938 0.0
C240 C 0.42293 0.66735 0.25686 0.0
O241 O 0.42963 0.66775 0.21744 0.0
O242 O 0.40752 0.69583 0.27042 0.0
C243 C 0.43793 0.63174 0.10588 0.0
O244 O 0.42491 0.60305 0.12858 0.0
C245 C 0.35535 0.75765 0.30789 0.0
C246 C 0.34573 0.8317 0.29926 0.0
C247 C 0.34038 0.79205 0.32291 0.0
N248 N 0.36882 0.77619 0.27658 0.0
N249 N 0.36318 0.82061 0.27209 0.0
C250 C 0.35545 0.70714 0.31999 0.0
H251 H 0.36173 0.68572 0.29238 0.0
H252 H 0.3378 0.69551 0.32983 0.0
H253 H 0.36744 0.70195 0.34782 0.0
C254 C 0.37581 0.6989 0.1215 0.0
N255 N 0.38932 0.70804 0.15626 0.0
N256 N 0.37639 0.72606 0.18734 0.0
C257 C 0.35422 0.72886 0.17314 0.0
C258 C 0.35316 0.71164 0.13115 0.0
C259 C 0.38477 0.68218 0.07864 0.0
H260 H 0.40117 0.70058 0.07048 0.0
H261 H 0.38855 0.64434 0.08092 0.0
H262 H 0.37186 0.68782 0.05235 0.0
O263 O 0.43501 0.76818 0.17089 0.0
O264 O 0.4144 0.79659 0.2258 0.0
H265 H 0.33764 0.78655 0.20416 0.0
H266 H 0.31763 0.74462 0.18139 0.0
C267 C 0.33446 0.7489 0.19861 0.0
H268 H 0.33337 0.73124 0.23055 0.0
H269 H 0.37077 0.84302 0.24947 0.0
O270 O 0.43824 0.67491 0.11537 0.0
C271 C 0.43048 0.8008 0.19762 0.0
C272 C 0.04921 0.35654 0.1703 0.0
C273 C 0.06001 0.34208 0.13162 0.0
C274 C 0.0355 0.39681 0.17106 0.0
C275 C 0.99768 0.46739 0.10515 0.0
H276 H 0.01135 0.56908 0.18404 0.0
C277 C 0.94756 0.64122 0.09536 0.0
C278 C 0.94399 0.66696 0.13356 0.0
C279 C 0.96179 0.60173 0.09554 0.0
C280 C 0.00693 0.54075 0.16234 0.0
H281 H 0.0648 0.35828 0.06339 0.0
H282 H 0.04014 0.42791 0.06455 0.0
H283 H 0.03588 0.49969 0.18417 0.0
H284 H 0.95206 0.67089 0.20218 0.0
H285 H 0.97589 0.60067 0.20317 0.0
H286 H 0.96822 0.50683 0.0844 0.0
C287 C 0.04261 0.4083 0.09427 0.0
C288 C 0.02115 0.50119 0.16226 0.0
C289 C 0.05677 0.36865 0.09371 0.0
C290 C 0.95465 0.65195 0.17214 0.0
C291 C 0.96849 0.6118 0.17255 0.0
C292 C 0.98314 0.50645 0.10585 0.0
C293 C 0.0319 0.42272 0.13296 0.0
C294 C 0.01673 0.46438 0.13344 0.0
C295 C 0.97243 0.58625 0.13416 0.0
C296 C 0.98763 0.54395 0.13422 0.0
H297 H 0.05146 0.33687 0.20005 0.0
H298 H 0.02733 0.40725 0.20123 0.0
H299 H 0.9938 0.43911 0.08297 0.0
H300 H 0.93978 0.65221 0.06499 0.0
H301 H 0.96473 0.5839 0.06506 0.0
C302 C 0.95451 0.34978 0.66225 0.0
C303 C 0.94413 0.33511 0.70127 0.0
C304 C 0.9684 0.38983 0.66121 0.0
C305 C 0.0074 0.45923 0.72569 0.0
H306 H 0.99241 0.56243 0.64932 0.0
C307 C 0.05776 0.63315 0.73473 0.0
C308 C 0.0604 0.65972 0.69674 0.0
C309 C 0.04367 0.5934 0.73493 0.0
C310 C 0.99721 0.53368 0.67026 0.0
H311 H 0.94033 0.35063 0.76984 0.0
H312 H 0.9653 0.41982 0.76816 0.0
H313 H 0.96784 0.49311 0.64961 0.0
H314 H 0.05094 0.66477 0.6288 0.0
H315 H 0.02743 0.59418 0.62834 0.0
H316 H 0.03725 0.49823 0.74522 0.0
C317 C 0.96235 0.40057 0.73839 0.0
C318 C 0.98297 0.49415 0.6706 0.0
C319 C 0.94801 0.36119 0.73926 0.0
C320 C 0.04906 0.64519 0.65869 0.0
C321 C 0.03539 0.60483 0.6586 0.0
C322 C 0.02197 0.49827 0.7247 0.0
C323 C 0.97261 0.41525 0.69935 0.0
C324 C 0.98786 0.45678 0.69853 0.0
C325 C 0.03226 0.57856 0.69685 0.0
C326 C 0.01702 0.5363 0.69718 0.0
H327 H 0.95177 0.33049 0.63245 0.0
H328 H 0.97621 0.4005 0.63076 0.0
H329 H 0.01162 0.43053 0.7472 0.0
H330 H 0.0661 0.64376 0.7647 0.0
H331 H 0.0414 0.57495 0.7653 0.0
C332 C 0.55463 0.86034 0.59555 0.0
C333 C 0.55841 0.83472 0.63387 0.0
C334 C 0.54038 0.89982 0.59582 0.0
C335 C 0.52014 0.99447 0.66257 0.0
H336 H 0.46691 1.00061 0.58542 0.0
C337 C 0.45574 0.14846 0.67064 0.0
C338 C 0.44501 0.16338 0.63209 0.0
C339 C 0.46896 0.10757 0.67144 0.0
C340 C 0.48191 1.00004 0.60666 0.0
H341 H 0.55058 0.8309 0.70265 0.0
H342 H 0.52625 0.90113 0.70331 0.0
H343 H 0.49169 0.93163 0.58519 0.0
H344 H 0.43993 0.14748 0.56398 0.0
H345 H 0.46392 0.07757 0.56464 0.0
H346 H 0.5113 0.06339 0.68281 0.0
C347 C 0.53409 0.89001 0.67306 0.0
C348 C 0.49598 0.96026 0.60669 0.0
C349 C 0.54792 0.84984 0.67262 0.0
C350 C 0.44784 0.13663 0.59428 0.0
C351 C 0.4615 0.09626 0.59482 0.0
C352 C 0.5064 0.03469 0.66191 0.0
C353 C 0.53006 0.91507 0.63459 0.0
C354 C 0.51514 0.95709 0.63475 0.0
C355 C 0.47227 0.08105 0.63345 0.0
C356 C 0.48699 0.03807 0.63406 0.0
H357 H 0.56239 0.84946 0.56514 0.0
H358 H 0.5376 0.91877 0.56582 0.0
H359 H 0.535 0.99294 0.68418 0.0
H360 H 0.45367 0.1681 0.70043 0.0
H361 H 0.47641 0.09666 0.7021 0.0
C362 C 0.44703 0.87117 0.23451 0.0
C363 C 0.44458 0.84399 0.19679 0.0
C364 C 0.46106 0.911 0.23435 0.0
C365 C 0.48324 0.00372 0.16734 0.0
H366 H 0.53481 0.01069 0.24822 0.0
C367 C 0.54865 0.15692 0.16214 0.0
C368 C 0.55869 0.17178 0.20134 0.0
C369 C 0.53506 0.11645 0.16072 0.0
C370 C 0.52026 0.00995 0.22592 0.0
H371 H 0.45445 0.83787 0.12907 0.0
H372 H 0.47837 0.90868 0.12851 0.0
H373 H 0.50975 0.94217 0.248 0.0
H374 H 0.56199 0.15647 0.26998 0.0
H375 H 0.53742 0.08759 0.26816 0.0
H376 H 0.49283 0.07208 0.14639 0.0
C377 C 0.46967 0.89852 0.15825 0.0
C378 C 0.50604 0.97041 0.22565 0.0
C379 C 0.45608 0.85802 0.15866 0.0
C380 C 0.55468 0.14562 0.23916 0.0
C381 C 0.54068 0.10579 0.23798 0.0
C382 C 0.49714 0.04378 0.16822 0.0
C383 C 0.47245 0.92503 0.19621 0.0
C384 C 0.48746 0.96694 0.19631 0.0
C385 C 0.53074 0.09037 0.1987 0.0
C386 C 0.51592 0.04751 0.19749 0.0
H387 H 0.43847 0.86114 0.26444 0.0
H388 H 0.4629 0.93106 0.26395 0.0
H389 H 0.46887 1.00188 0.14464 0.0
H390 H 0.5516 0.17618 0.13237 0.0
H391 H 0.5282 0.10542 0.12965 0.0
C392 C 0.32386 0.25887 0.43645 0.0
C393 C 0.32346 0.2254 0.46983 0.0
C394 C 0.30557 0.2616 0.40645 0.0
C395 C 0.24397 0.2265 0.39142 0.0
H396 H 0.25661 0.24635 0.26914 0.0
C397 C 0.16967 0.24648 0.26739 0.0
C398 C 0.17226 0.22323 0.22764 0.0
C399 C 0.18843 0.2504 0.29601 0.0
C400 C 0.2528 0.24053 0.30315 0.0
H401 H 0.30379 0.16791 0.49717 0.0
H402 H 0.27228 0.17214 0.44476 0.0
H403 H 0.28874 0.24558 0.32104 0.0
H404 H 0.19643 0.18699 0.18578 0.0
H405 H 0.22929 0.19298 0.23608 0.0
H406 H 0.2082 0.21985 0.3736 0.0
C407 C 0.28638 0.19705 0.44221 0.0
C408 C 0.27119 0.24067 0.33298 0.0
C409 C 0.30458 0.19435 0.47207 0.0
C410 C 0.19406 0.20494 0.2164 0.0
C411 C 0.21286 0.20867 0.2451 0.0
C412 C 0.22563 0.22628 0.36167 0.0
C413 C 0.28656 0.2308 0.40911 0.0
C414 C 0.26701 0.23319 0.37744 0.0
C415 C 0.21021 0.23107 0.28548 0.0
C416 C 0.2298 0.23298 0.31711 0.0
H417 H 0.33845 0.28235 0.43285 0.0
H418 H 0.30626 0.28804 0.38136 0.0
H419 H 0.24006 0.22127 0.42548 0.0
H420 H 0.15311 0.26175 0.27629 0.0
H421 H 0.18587 0.26873 0.32637 0.0
C422 C 0.69301 0.81906 0.45932 0.0
C423 C 0.6778 0.78092 0.46361 0.0
C424 C 0.71076 0.81867 0.42845 0.0
C425 C 0.7471 0.7415 0.36219 0.0
H426 H 0.75711 0.85295 0.29326 0.0
C427 C 0.8159 0.74865 0.22514 0.0
C428 C 0.82869 0.79011 0.22102 0.0
C429 C 0.79663 0.74648 0.2528 0.0
C430 C 0.75476 0.82172 0.31255 0.0
H431 H 0.66898 0.71301 0.43717 0.0
H432 H 0.7005 0.71177 0.38414 0.0
H433 H 0.72535 0.85063 0.34554 0.0
H434 H 0.83153 0.86174 0.24233 0.0
H435 H 0.79835 0.85787 0.29161 0.0
H436 H 0.77683 0.71291 0.33001 0.0
C437 C 0.69876 0.74172 0.40531 0.0
C438 C 0.73649 0.82036 0.34243 0.0
C439 C 0.6808 0.74227 0.43607 0.0
C440 C 0.8219 0.82938 0.24498 0.0
C441 C 0.80276 0.82719 0.27286 0.0
C442 C 0.76552 0.74296 0.33251 0.0
C443 C 0.71382 0.78009 0.401 0.0
C444 C 0.73258 0.78042 0.36785 0.0
C445 C 0.78987 0.78568 0.2772 0.0
C446 C 0.76971 0.78327 0.30756 0.0
H447 H 0.69125 0.84942 0.47998 0.0
H448 H 0.72226 0.84852 0.42629 0.0
H449 H 0.74463 0.71039 0.38162 0.0
H450 H 0.82098 0.71769 0.20737 0.0
H451 H 0.787 0.71411 0.2549 0.0
C452 C 0.2995 0.80812 0.34458 0.0
C453 C 0.32113 0.78816 0.35442 0.0
C454 C 0.28138 0.80694 0.37471 0.0
C455 C 0.26249 0.75144 0.47882 0.0
H456 H 0.21984 0.85607 0.47943 0.0
C457 C 0.17915 0.75044 0.58372 0.0
C458 C 0.17096 0.79297 0.59999 0.0
C459 C 0.19782 0.74951 0.55464 0.0
C460 C 0.23173 0.82683 0.48036 0.0
H461 H 0.34103 0.75178 0.40351 0.0
H462 H 0.30973 0.7513 0.45718 0.0
H463 H 0.25195 0.85542 0.42879 0.0
H464 H 0.17568 0.86767 0.59995 0.0
H465 H 0.20903 0.86638 0.55083 0.0
H466 H 0.24297 0.72419 0.53216 0.0
C467 C 0.30635 0.76647 0.42562 0.0
C468 C 0.25001 0.82598 0.4505 0.0
C469 C 0.32436 0.7668 0.39497 0.0
C470 C 0.18176 0.83455 0.58742 0.0
C471 C 0.20073 0.83366 0.559 0.0
C472 C 0.24443 0.7527 0.50928 0.0
C473 C 0.28462 0.78686 0.41601 0.0
C474 C 0.26552 0.78805 0.4489 0.0
C475 C 0.20893 0.79112 0.54185 0.0
C476 C 0.22866 0.79025 0.51027 0.0
H477 H 0.29654 0.82448 0.31333 0.0
H478 H 0.26481 0.82182 0.36541 0.0
H479 H 0.27385 0.72136 0.47847 0.0
H480 H 0.17087 0.718 0.59302 0.0
H481 H 0.2032 0.71615 0.54166 0.0
C482 C 0.82281 0.17828 0.58568 0.0
C483 C 0.82918 0.21571 0.61253 0.0
C484 C 0.80404 0.18245 0.55706 0.0
C485 C 0.74969 0.24522 0.53852 0.0
H486 H 0.7581 0.20929 0.41808 0.0
C487 C 0.67413 0.21451 0.41722 0.0
C488 C 0.6765 0.23432 0.37574 0.0
C489 C 0.69248 0.21628 0.44696 0.0
C490 C 0.75556 0.21972 0.45155 0.0
H491 H 0.82103 0.28689 0.63049 0.0
H492 H 0.78763 0.29364 0.58153 0.0
H493 H 0.79074 0.2033 0.46882 0.0
H494 H 0.70006 0.27048 0.33238 0.0
H495 H 0.73227 0.27332 0.38433 0.0
H496 H 0.71435 0.26074 0.52139 0.0
C497 C 0.7972 0.26112 0.58262 0.0
C498 C 0.77414 0.21592 0.48061 0.0
C499 C 0.81621 0.25719 0.61073 0.0
C500 C 0.69754 0.25605 0.36451 0.0
C501 C 0.71605 0.25714 0.39402 0.0
C502 C 0.73098 0.2483 0.50959 0.0
C503 C 0.79107 0.22394 0.55522 0.0
C504 C 0.77138 0.22854 0.52439 0.0
C505 C 0.71374 0.23701 0.43543 0.0
C506 C 0.73374 0.23555 0.46583 0.0
H507 H 0.83244 0.14583 0.5867 0.0
H508 H 0.79954 0.1531 0.53658 0.0
H509 H 0.74708 0.255 0.57214 0.0
H510 H 0.65811 0.19728 0.42652 0.0
H511 H 0.6903 0.20009 0.47849 0.0
C512 C 0.80841 0.68558 0.96066 0.0
C513 C 0.8255 0.72066 0.96203 0.0
C514 C 0.79095 0.6863 0.92918 0.0
C515 C 0.75893 0.76357 0.85586 0.0
H516 H 0.74236 0.64825 0.79765 0.0
C517 C 0.67301 0.73831 0.76103 0.0
C518 C 0.6742 0.71454 0.72128 0.0
C519 C 0.69256 0.74126 0.78788 0.0
C520 C 0.74691 0.68081 0.81334 0.0
H521 H 0.83806 0.78299 0.92957 0.0
H522 H 0.80705 0.78506 0.87546 0.0
H523 H 0.77472 0.64919 0.84902 0.0
H524 H 0.69656 0.67583 0.67785 0.0
H525 H 0.73087 0.68049 0.72506 0.0
H526 H 0.73088 0.79502 0.8205 0.0
C527 C 0.8071 0.75735 0.89938 0.0
C528 C 0.7653 0.68126 0.84302 0.0
C529 C 0.82476 0.75639 0.93074 0.0
C530 C 0.69529 0.69417 0.70851 0.0
C531 C 0.71481 0.69672 0.73554 0.0
C532 C 0.74036 0.76301 0.82646 0.0
C533 C 0.79008 0.72217 0.89819 0.0
C534 C 0.77138 0.72253 0.8649 0.0
C535 C 0.71363 0.7202 0.77559 0.0
C536 C 0.73405 0.72153 0.80514 0.0
H537 H 0.8084 0.6575 0.98421 0.0
H538 H 0.77793 0.65899 0.92944 0.0
H539 H 0.76314 0.79581 0.87239 0.0
H540 H 0.65694 0.75466 0.77128 0.0
H541 H 0.69105 0.75922 0.81868 0.0
C542 C 0.17817 0.29457 0.92295 0.0
C543 C 0.1797 0.27358 0.96405 0.0
C544 C 0.19673 0.29186 0.89378 0.0
C545 C 0.25974 0.2822 0.89091 0.0
H546 H 0.25111 0.25231 0.7691 0.0
C547 C 0.3285 0.3221 0.75884 0.0
C548 C 0.33353 0.2858 0.72976 0.0
C549 C 0.30983 0.31829 0.78774 0.0
C550 C 0.25377 0.26052 0.80308 0.0
H551 H 0.20201 0.23426 0.00736 0.0
H552 H 0.23459 0.22968 0.95637 0.0
H553 H 0.21799 0.24801 0.81896 0.0
H554 H 0.32338 0.21662 0.70874 0.0
H555 H 0.29024 0.21061 0.75823 0.0
H556 H 0.29542 0.29557 0.8749 0.0
C557 C 0.21886 0.2476 0.94654 0.0
C558 C 0.23484 0.25829 0.8315 0.0
C559 C 0.20012 0.24968 0.97548 0.0
C560 C 0.31955 0.24561 0.73009 0.0
C561 C 0.30069 0.24206 0.75853 0.0
C562 C 0.2786 0.28511 0.86237 0.0
C563 C 0.21738 0.26892 0.90551 0.0
C564 C 0.23763 0.2692 0.87568 0.0
C565 C 0.2957 0.27829 0.78775 0.0
C566 C 0.27578 0.27442 0.81816 0.0
H567 H 0.16265 0.31347 0.9135 0.0
H568 H 0.1952 0.30902 0.86256 0.0
H569 H 0.26234 0.29119 0.92474 0.0
H570 H 0.33894 0.35354 0.75908 0.0
H571 H 0.30625 0.34692 0.80967 0.0
C572 C 0.67028 0.26478 0.07187 0.0
C573 C 0.67318 0.28635 0.11237 0.0
C574 C 0.68909 0.26008 0.04351 0.0
C575 C 0.75365 0.26468 0.03738 0.0
H576 H 0.74159 0.28946 0.91565 0.0
C577 C 0.82436 0.24483 0.90355 0.0
C578 C 0.82466 0.27934 0.87111 0.0
C579 C 0.80608 0.24279 0.93361 0.0
C580 C 0.74532 0.28267 0.94955 0.0
H581 H 0.69795 0.31873 0.1558 0.0
H582 H 0.73092 0.31142 0.10592 0.0
H583 H 0.7097 0.29174 0.96732 0.0
H584 H 0.80628 0.33947 0.84559 0.0
H585 H 0.77483 0.33644 0.89811 0.0
H586 H 0.78949 0.25721 0.01954 0.0
C587 C 0.71419 0.2976 0.09614 0.0
C588 C 0.72694 0.28338 0.97917 0.0
C589 C 0.69534 0.30207 0.12461 0.0
C590 C 0.80653 0.31219 0.86994 0.0
C591 C 0.78835 0.3102 0.89986 0.0
C592 C 0.77209 0.26407 0.00767 0.0
C593 C 0.71123 0.27701 0.055 0.0
C594 C 0.73086 0.27466 0.02351 0.0
C595 C 0.78778 0.27534 0.93194 0.0
C596 C 0.76816 0.27351 0.96344 0.0
H597 H 0.65343 0.25146 0.06214 0.0
H598 H 0.68626 0.24312 0.01255 0.0
H599 H 0.75726 0.25729 0.07121 0.0
H600 H 0.83838 0.2199 0.90636 0.0
H601 H 0.80619 0.21549 0.95792 0.0
C602 C 0.20558 0.69806 0.84407 0.0
C603 C 0.18379 0.71735 0.85377 0.0
C604 C 0.22356 0.69929 0.87451 0.0
C605 C 0.24166 0.75374 0.97958 0.0
H606 H 0.28491 0.65012 0.97968 0.0
C607 C 0.32462 0.75512 0.08568 0.0
C608 C 0.3331 0.71254 0.10137 0.0
C609 C 0.30599 0.75607 0.0565 0.0
C610 C 0.27284 0.67906 0.98077 0.0
H611 H 0.16346 0.7526 0.90289 0.0
H612 H 0.19452 0.75313 0.95708 0.0
H613 H 0.25302 0.65076 0.92853 0.0
H614 H 0.32887 0.63772 0.10023 0.0
H615 H 0.29555 0.63899 0.051 0.0
H616 H 0.26077 0.78064 0.03358 0.0
C617 C 0.19813 0.73847 0.92542 0.0
C618 C 0.2547 0.67991 0.95062 0.0
C619 C 0.18026 0.7381 0.89447 0.0
C620 C 0.32257 0.6709 0.08817 0.0
C621 C 0.30363 0.67178 0.05968 0.0
C622 C 0.25958 0.75244 0.01034 0.0
C623 C 0.22002 0.71873 0.91597 0.0
C624 C 0.23897 0.71751 0.94918 0.0
C625 C 0.29519 0.71438 0.04303 0.0
C626 C 0.27557 0.71525 0.01116 0.0
H627 H 0.20877 0.68218 0.81271 0.0
H628 H 0.24026 0.68494 0.86533 0.0
H629 H 0.23012 0.78356 0.97939 0.0
H630 H 0.33271 0.78761 0.09542 0.0
H631 H 0.30042 0.7895 0.04392 0.0
C632 C 0.03572 0.14992 0.28234 0.0
C633 C 0.05159 0.11863 0.2636 0.0
C634 C 0.0215 0.1359 0.31657 0.0
C635 C 0.01855 0.06271 0.41 0.0
H636 H 0.95306 0.09492 0.40637 0.0
C637 C 0.96176 0.07001 0.56558 0.0
C638 C 0.94936 0.11215 0.56924 0.0
C639 C 0.97186 0.05703 0.52594 0.0
C640 C 0.97128 0.08544 0.40791 0.0
H641 H 0.06517 0.04811 0.26641 0.0
H642 H 0.04058 0.02401 0.32784 0.0
H643 H 0.97608 0.09762 0.3399 0.0
H644 H 0.93717 0.1728 0.53376 0.0
H645 H 0.95483 0.15068 0.46539 0.0
H646 H 0.01413 0.05352 0.47856 0.0
C647 C 0.03905 0.05915 0.31521 0.0
C648 C 0.98439 0.0868 0.36985 0.0
C649 C 0.05306 0.07296 0.28019 0.0
C650 C 0.94666 0.14021 0.5322 0.0
C651 C 0.9566 0.12721 0.49276 0.0
C652 C 0.00542 0.06165 0.4483 0.0
C653 C 0.02302 0.09049 0.33336 0.0
C654 C 0.00835 0.07758 0.37094 0.0
C655 C 0.96953 0.08577 0.48918 0.0
C656 C 0.98192 0.07536 0.44794 0.0
H657 H 0.03407 0.18526 0.27027 0.0
H658 H 0.00951 0.16094 0.33046 0.0
H659 H 0.03701 0.0553 0.41158 0.0
H660 H 0.96411 0.04754 0.59353 0.0
H661 H 0.98166 0.02482 0.52415 0.0
C662 C 0.05533 0.93177 0.54883 0.0
C663 C 0.05102 0.88871 0.56924 0.0
C664 C 0.04147 0.94649 0.51391 0.0
C665 C 0.98457 0.92724 0.46189 0.0
H666 H 0.01626 0.94545 0.35207 0.0
C667 C 0.94593 0.8674 0.30175 0.0
C668 C 0.95018 0.89206 0.26316 0.0
C669 C 0.9559 0.88184 0.34079 0.0
C670 C 0.00706 0.94161 0.38255 0.0
H671 H 0.02843 0.82811 0.57001 0.0
H672 H 0.00424 0.85395 0.50989 0.0
H673 H 0.03865 0.94467 0.41954 0.0
H674 H 0.96766 0.95226 0.23557 0.0
H675 H 0.98531 0.97735 0.30413 0.0
H676 H 0.95315 0.92203 0.425 0.0
C677 C 0.01828 0.87635 0.52069 0.0
C678 C 0.01991 0.94112 0.42117 0.0
C679 C 0.03229 0.86133 0.55487 0.0
C680 C 0.96411 0.9324 0.26475 0.0
C681 C 0.97426 0.94673 0.30393 0.0
C682 C 0.97174 0.92787 0.42342 0.0
C683 C 0.02281 0.91882 0.49961 0.0
C684 C 0.00889 0.93157 0.46089 0.0
C685 C 0.97044 0.92126 0.3423 0.0
C686 C 0.98301 0.93257 0.38315 0.0
H687 H 0.06967 0.95358 0.55923 0.0
H688 H 0.04535 0.97929 0.49801 0.0
H689 H 0.97562 0.92071 0.49226 0.0
H690 H 0.93522 0.83632 0.30176 0.0
H691 H 0.95292 0.8609 0.36954 0.0
C692 C 0.07785 0.87452 0.82948 0.0
C693 C 0.06845 0.86482 0.78838 0.0
C694 C 0.06404 0.89463 0.86187 0.0
C695 C 0.0032 0.93955 0.88398 0.0
H696 H 0.01372 0.87806 0.9943 0.0
C697 C 0.93234 0.87208 7e-05 0.0
C698 C 0.93681 0.87249 0.04499 0.0
C699 C 0.94855 0.89062 0.97091 0.0
C700 C 0.0107 0.89639 0.96404 0.0
H701 H 0.03764 0.87143 0.74814 0.0
H702 H 0.01338 0.90354 0.80461 0.0
H703 H 0.04339 0.87472 0.93896 0.0
H704 H 0.9607 0.89722 0.0946 0.0
H705 H 0.98897 0.92893 0.04361 0.0
H706 H 0.96928 0.95669 0.90838 0.0
C707 C 0.03151 0.89736 0.81208 0.0
C708 C 0.02787 0.89474 0.93209 0.0
C709 C 0.04546 0.8784 0.7795 0.0
C710 C 0.95678 0.89576 0.06022 0.0
C711 C 0.97304 0.91392 0.03106 0.0
C712 C 0.98573 0.94 0.91564 0.0
C713 C 0.04031 0.9042 0.85428 0.0
C714 C 0.02409 0.91484 0.89095 0.0
C715 C 0.96956 0.90965 0.98611 0.0
C716 C 0.98912 0.91738 0.95556 0.0
H717 H 0.09565 0.86512 0.83707 0.0
H718 H 0.07177 0.90079 0.8934 0.0
H719 H 0.99983 0.95685 0.85337 0.0
H720 H 0.91705 0.85483 0.98722 0.0
H721 H 0.94544 0.88671 0.93641 0.0
C722 C 0.04473 0.12073 0.055 0.0
C723 C 0.06783 0.13322 0.04578 0.0
C724 C 0.03058 0.10142 0.02283 0.0
C725 C 0.02711 0.10196 0.9028 0.0
H726 H 0.96765 0.04368 0.92694 0.0
C727 C 0.95613 0.10429 0.77442 0.0
C728 C 0.93637 0.12827 0.78955 0.0
C729 C 0.97215 0.08541 0.80369 0.0
C730 C 0.98432 0.05937 0.91958 0.0
H731 H 0.09503 0.13038 0.99723 0.0
H732 H 0.07083 0.09396 0.94177 0.0
H733 H 0.99809 0.0428 0.98222 0.0
H734 H 0.91668 0.14651 0.84721 0.0
H735 H 0.94465 0.11352 0.89817 0.0
H736 H 0.0133 0.11852 0.8403 0.0
C737 C 0.06315 0.10133 0.97311 0.0
C738 C 1.00174 0.05937 0.95137 0.0
C739 C 0.07716 0.12183 0.00502 0.0
C740 C 0.93183 0.12873 0.83443 0.0
C741 C 0.9478 0.10953 0.86369 0.0
C742 C 0.00997 0.1008 0.87076 0.0
C743 C 0.03931 0.09314 0.9808 0.0
C744 C 0.02299 0.08275 0.9442 0.0
C745 C 0.96865 0.08972 0.84864 0.0
C746 C 0.98807 0.0812 0.87937 0.0
H747 H 0.037 0.12906 0.08612 0.0
H748 H 0.01239 0.09624 0.03036 0.0
H749 H 0.04292 0.12097 0.89574 0.0
H750 H 0.96009 0.10274 0.74007 0.0
H751 H 0.98795 0.06977 0.79122 0.0
C752 C 0.44818 0.57122 0.04987 0.0
C753 C 0.45269 0.6143 0.07005 0.0
C754 C 0.46195 0.5561 0.01501 0.0
C755 C 0.51885 0.57394 0.9627 0.0
H756 H 0.4868 0.55736 0.85298 0.0
C757 C 0.55732 0.63432 0.80258 0.0
C758 C 0.5527 0.61027 0.76382 0.0
C759 C 0.54749 0.61961 0.84166 0.0
C760 C 0.49609 0.56077 0.88342 0.0
H761 H 0.47557 0.67446 0.07057 0.0
H762 H 0.49962 0.64791 0.01057 0.0
H763 H 0.46457 0.55836 0.92056 0.0
H764 H 0.53476 0.55075 0.73601 0.0
H765 H 0.51737 0.5252 0.80462 0.0
H766 H 0.55023 0.57853 0.92563 0.0
C767 C 0.48548 0.62582 0.02148 0.0
C768 C 0.48333 0.56136 0.92211 0.0
C769 C 0.47155 0.64125 0.05558 0.0
C770 C 0.53858 0.57018 0.7653 0.0
C771 C 0.52859 0.55557 0.80452 0.0
C772 C 0.53159 0.57321 0.92414 0.0
C773 C 0.48073 0.58337 0.00058 0.0
C774 C 0.4945 0.57033 0.9618 0.0
C775 C 0.53273 0.58051 0.84304 0.0
C776 C 0.52021 0.56914 0.88391 0.0
H777 H 0.43374 0.54973 0.06036 0.0
H778 H 0.45791 0.52333 0.99924 0.0
H779 H 0.52789 0.58004 0.99304 0.0
H780 H 0.5682 0.66517 0.80268 0.0
H781 H 0.55074 0.64013 0.87055 0.0
C782 C 0.47084 0.36353 0.77865 0.0
C783 C 0.45139 0.38951 0.76535 0.0
C784 C 0.48472 0.37886 0.8129 0.0
C785 C 0.482 0.44126 0.91382 0.0
H786 H 0.54905 0.42703 0.90964 0.0
C787 C 0.5378 0.43506 0.07002 0.0
C788 C 0.55225 0.39547 0.07153 0.0
C789 C 0.52758 0.44916 0.03083 0.0
C790 C 0.53037 0.43151 0.9113 0.0
H791 H 0.43138 0.4523 0.7773 0.0
H792 H 0.45551 0.47855 0.83851 0.0
H793 H 0.52655 0.42513 0.84238 0.0
H794 H 0.56814 0.34098 0.03276 0.0
H795 H 0.5503 0.36518 0.96489 0.0
H796 H 0.48564 0.44498 0.98293 0.0
C797 C 0.46001 0.44657 0.82179 0.0
C798 C 0.51752 0.43052 0.87285 0.0
C799 C 0.44626 0.43154 0.78687 0.0
C800 C 0.557 0.37144 0.03282 0.0
C801 C 0.54695 0.38566 0.99376 0.0
C802 C 0.49487 0.44216 0.95239 0.0
C803 C 0.47937 0.42026 0.83509 0.0
C804 C 0.49314 0.43312 0.87395 0.0
C805 C 0.53183 0.4242 0.99238 0.0
C806 C 0.51906 0.43493 0.95163 0.0
H807 H 0.47536 0.33115 0.76265 0.0
H808 H 0.4993 0.35746 0.8229 0.0
H809 H 0.46322 0.44347 0.91557 0.0
H810 H 0.53387 0.45447 0.09927 0.0
H811 H 0.5161 0.47911 0.03072 0.0
C812 C 0.57623 0.39154 0.32997 0.0
C813 C 0.56697 0.37909 0.28943 0.0
C814 C 0.56204 0.41177 0.36169 0.0
C815 C 0.49989 0.44916 0.38366 0.0
H816 H 0.51303 0.39167 0.49487 0.0
C817 C 0.43206 0.37275 0.50102 0.0
C818 C 0.43671 0.3737 0.54586 0.0
C819 C 0.44742 0.39367 0.47165 0.0
C820 C 0.50922 0.40892 0.46437 0.0
H821 H 0.53606 0.38114 0.24915 0.0
H822 H 0.51111 0.41328 0.30469 0.0
H823 H 0.54254 0.39178 0.43936 0.0
H824 H 0.45979 0.40191 0.59518 0.0
H825 H 0.48658 0.4379 0.54384 0.0
H826 H 0.4655 0.46167 0.40822 0.0
C827 C 0.52938 0.40924 0.31218 0.0
C828 C 0.52631 0.40928 0.43228 0.0
C829 C 0.54372 0.39032 0.28014 0.0
C830 C 0.45583 0.39984 0.56084 0.0
C831 C 0.47121 0.42051 0.53148 0.0
C832 C 0.48254 0.44759 0.41553 0.0
C833 C 0.53807 0.41843 0.3541 0.0
C834 C 0.52167 0.42781 0.3908 0.0
C835 C 0.46773 0.41579 0.48656 0.0
C836 C 0.48687 0.42626 0.45577 0.0
H837 H 0.59423 0.38399 0.33775 0.0
H838 H 0.5697 0.41998 0.39288 0.0
H839 H 0.49581 0.46526 0.35279 0.0
H840 H 0.41738 0.35333 0.48836 0.0
H841 H 0.44431 0.38933 0.43719 0.0
C842 C 0.54323 0.61898 0.55535 0.0
C843 C 0.56656 0.62922 0.54581 0.0
C844 C 0.52852 0.60101 0.5234 0.0
C845 C 0.52498 0.60151 0.40323 0.0
H846 H 0.46362 0.55196 0.42781 0.0
C847 C 0.45449 0.6101 0.27421 0.0
C848 C 0.43562 0.63748 0.2883 0.0
C849 C 0.46972 0.59005 0.30422 0.0
C850 C 0.48079 0.56531 0.42039 0.0
H851 H 0.59353 0.62343 0.49708 0.0
H852 H 0.56835 0.58893 0.4421 0.0
H853 H 0.49399 0.54724 0.48309 0.0
H854 H 0.4166 0.66095 0.34509 0.0
H855 H 0.44326 0.62585 0.39745 0.0
H856 H 0.51177 0.61928 0.34058 0.0
C857 C 0.56092 0.5973 0.47343 0.0
C858 C 0.4982 0.56308 0.45216 0.0
C859 C 0.5755 0.61663 0.50507 0.0
C860 C 0.43107 0.64048 0.33309 0.0
C861 C 0.44626 0.62011 0.36314 0.0
C862 C 0.50783 0.60247 0.37123 0.0
C863 C 0.53691 0.59172 0.4813 0.0
C864 C 0.52023 0.58329 0.44479 0.0
C865 C 0.46631 0.59657 0.34893 0.0
C866 C 0.48531 0.5861 0.38001 0.0
H867 H 0.5358 0.6283 0.58649 0.0
H868 H 0.51024 0.59779 0.53114 0.0
H869 H 0.54139 0.6182 0.39596 0.0
H870 H 0.45838 0.60644 0.23997 0.0
H871 H 0.48489 0.57157 0.29244 0.0
loop_
_geom_bond_atom_site_label_1
_geom_bond_atom_site_label_2
_geom_bond_distance
_geom_bond_site_symmetry_2
_ccdc_geom_bond_type
Co0 O3 1.970 . S
Co0 N17 1.989 . S
Co0 O25 1.967 . S
Co0 O32 1.920 . S
Co1 O4 1.966 . S
Co1 N10 2.022 . S
Co1 N18 1.993 . S
Co1 O26 1.941 . S
C2 O3 1.258 . S
C2 O4 1.263 . S
O3 Co0 1.970 . S
O3 C2 1.258 . S
O4 Co1 1.966 . S
O4 C2 1.263 . S
C5 O6 1.235 . S
C5 O32 1.289 . S
O6 C5 1.235 . S
C7 C9 1.404 . S
C7 N10 1.344 1_556 S
C7 C12 1.504 . S
C8 C9 1.387 1_554 S
C8 N11 1.341 . S
C9 C7 1.404 . S
C9 C8 1.387 1_556 S
N10 Co1 2.022 . S
N10 C7 1.344 1_554 S
N10 N11 1.365 . S
N11 C8 1.341 . S
N11 N10 1.365 . S
N11 H31 0.862 . S
C12 C7 1.504 . S
C12 H13 0.962 . S
C12 H14 0.961 . S
C12 H15 0.960 . S
H13 C12 0.962 . S
H14 C12 0.961 . S
H15 C12 0.960 . S
C16 N17 1.342 . S
C16 C20 1.401 . S
C16 C21 1.499 . S
N17 Co0 1.989 . S
N17 C16 1.342 . S
N17 N18 1.388 . S
N18 Co1 1.993 . S
N18 N17 1.388 . S
N18 C19 1.346 . S
C19 N18 1.346 . S
C19 C20 1.396 . S
C19 C29 1.510 . S
C20 C16 1.401 . S
C20 C19 1.396 . S
C21 C16 1.499 . S
C21 H22 0.959 . S
C21 H23 0.960 . S
C21 H24 0.961 . S
H22 C21 0.959 . S
H23 C21 0.960 . S
H24 C21 0.961 . S
O25 Co0 1.967 . S
O25 C33 1.258 . S
O26 Co1 1.941 . S
O26 C33 1.266 . S
H27 C29 0.959 . S
H28 C29 0.961 . S
C29 C19 1.510 . S
C29 H27 0.959 . S
C29 H28 0.961 . S
C29 H30 0.960 . S
H30 C29 0.960 . S
H31 N11 0.862 . S
O32 Co0 1.920 . S
O32 C5 1.289 . S
C33 O25 1.258 . S
C33 O26 1.266 . S
Co34 O37 1.970 . S
Co34 N51 1.989 . S
Co34 O59 1.967 . S
Co34 O66 1.920 . S
Co35 O38 1.966 . S
Co35 N44 2.022 . S
Co35 N52 1.993 . S
Co35 O60 1.941 . S
C36 O37 1.258 . S
C36 O38 1.263 . S
O37 Co34 1.970 . S
O37 C36 1.258 . S
O38 Co35 1.966 . S
O38 C36 1.263 . S
C39 O40 1.235 . S
C39 O66 1.289 . S
O40 C39 1.235 . S
C41 C43 1.404 . S
C41 N44 1.344 1_556 S
C41 C46 1.504 . S
C42 C43 1.387 1_554 S
C42 N45 1.341 . S
C43 C41 1.404 . S
C43 C42 1.387 1_556 S
N44 Co35 2.022 . S
N44 C41 1.344 1_554 S
N44 N45 1.365 . S
N45 C42 1.341 . S
N45 N44 1.365 . S
N45 H65 0.862 . S
C46 C41 1.504 . S
C46 H47 0.962 . S
C46 H48 0.961 . S
C46 H49 0.960 . S
H47 C46 0.962 . S
H48 C46 0.961 . S
H49 C46 0.960 . S
C50 N51 1.342 . S
C50 C54 1.401 . S
C50 C55 1.499 . S
N51 Co34 1.989 . S
N51 C50 1.342 . S
N51 N52 1.388 . S
N52 Co35 1.993 . S
N52 N51 1.388 . S
N52 C53 1.346 . S
C53 N52 1.346 . S
C53 C54 1.396 . S
C53 C63 1.510 . S
C54 C50 1.401 . S
C54 C53 1.396 . S
C55 C50 1.499 . S
C55 H56 0.959 . S
C55 H57 0.960 . S
C55 H58 0.961 . S
H56 C55 0.959 . S
H57 C55 0.960 . S
H58 C55 0.961 . S
O59 Co34 1.967 . S
O59 C67 1.258 . S
O60 Co35 1.941 . S
O60 C67 1.266 . S
H61 C63 0.959 . S
H62 C63 0.961 . S
C63 C53 1.510 . S
C63 H61 0.959 . S
C63 H62 0.961 . S
C63 H64 0.960 . S
H64 C63 0.960 . S
H65 N45 0.862 . S
O66 Co34 1.920 . S
O66 C39 1.289 . S
C67 O59 1.258 . S
C67 O60 1.266 . S
Co68 O71 1.970 . S
Co68 N85 1.989 . S
Co68 O93 1.967 . S
Co68 O100 1.920 . S
Co69 O72 1.966 . S
Co69 N78 2.022 . S
Co69 N86 1.993 . S
Co69 O94 1.941 . S
C70 O71 1.258 . S
C70 O72 1.263 . S
O71 Co68 1.970 . S
O71 C70 1.258 . S
O72 Co69 1.966 . S
O72 C70 1.263 . S
C73 O74 1.235 . S
C73 O100 1.289 . S
O74 C73 1.235 . S
C75 C77 1.400 . S
C75 N78 1.351 . S
C75 C80 1.501 . S
C76 C77 1.387 . S
C76 N79 1.341 . S
C77 C75 1.400 . S
C77 C76 1.387 . S
N78 Co69 2.022 . S
N78 C75 1.351 . S
N78 N79 1.365 . S
N79 C76 1.341 . S
N79 N78 1.365 . S
N79 H99 0.862 . S
C80 C75 1.501 . S
C80 H81 0.961 . S
C80 H82 0.961 . S
C80 H83 0.960 . S
H81 C80 0.961 . S
H82 C80 0.961 . S
H83 C80 0.960 . S
C84 N85 1.342 . S
C84 C88 1.401 . S
C84 C89 1.499 . S
N85 Co68 1.989 . S
N85 C84 1.342 . S
N85 N86 1.388 . S
N86 Co69 1.993 . S
N86 N85 1.388 . S
N86 C87 1.346 . S
C87 N86 1.346 . S
C87 C88 1.396 . S
C87 C97 1.510 . S
C88 C84 1.401 . S
C88 C87 1.396 . S
C89 C84 1.499 . S
C89 H90 0.959 . S
C89 H91 0.960 . S
C89 H92 0.961 . S
H90 C89 0.959 . S
H91 C89 0.960 . S
H92 C89 0.961 . S
O93 Co68 1.967 . S
O93 C101 1.258 . S
O94 Co69 1.941 . S
O94 C101 1.266 . S
H95 C97 0.959 . S
H96 C97 0.961 . S
C97 C87 1.510 . S
C97 H95 0.959 . S
C97 H96 0.961 . S
C97 H98 0.960 . S
H98 C97 0.960 . S
H99 N79 0.862 . S
O100 Co68 1.920 . S
O100 C73 1.289 . S
C101 O93 1.258 . S
C101 O94 1.266 . S
Co102 O105 1.970 . S
Co102 N119 1.989 . S
Co102 O127 1.967 . S
Co102 O134 1.920 . S
Co103 O106 1.966 . S
Co103 N112 2.022 . S
Co103 N120 1.993 . S
Co103 O128 1.941 . S
C104 O105 1.258 . S
C104 O106 1.263 . S
O105 Co102 1.970 . S
O105 C104 1.258 . S
O106 Co103 1.966 . S
O106 C104 1.263 . S
C107 O108 1.235 . S
C107 O134 1.289 . S
O108 C107 1.235 . S
C109 C111 1.400 . S
C109 N112 1.351 . S
C109 C114 1.501 . S
C110 C111 1.387 . S
C110 N113 1.341 . S
C111 C109 1.400 . S
C111 C110 1.387 . S
N112 Co103 2.022 . S
N112 C109 1.351 . S
N112 N113 1.365 . S
N113 C110 1.341 . S
N113 N112 1.365 . S
N113 H133 0.862 . S
C114 C109 1.501 . S
C114 H115 0.961 . S
C114 H116 0.961 . S
C114 H117 0.960 . S
H115 C114 0.961 . S
H116 C114 0.961 . S
H117 C114 0.960 . S
C118 N119 1.342 . S
C118 C122 1.401 . S
C118 C123 1.499 . S
N119 Co102 1.989 . S
N119 C118 1.342 . S
N119 N120 1.388 . S
N120 Co103 1.993 . S
N120 N119 1.388 . S
N120 C121 1.346 . S
C121 N120 1.346 . S
C121 C122 1.396 . S
C121 C131 1.510 . S
C122 C118 1.401 . S
C122 C121 1.396 . S
C123 C118 1.499 . S
C123 H124 0.959 . S
C123 H125 0.960 . S
C123 H126 0.961 . S
H124 C123 0.959 . S
H125 C123 0.960 . S
H126 C123 0.961 . S
O127 Co102 1.967 . S
O127 C135 1.258 . S
O128 Co103 1.941 . S
O128 C135 1.266 . S
H129 C131 0.959 . S
H130 C131 0.961 . S
C131 C121 1.510 . S
C131 H129 0.959 . S
C131 H130 0.961 . S
C131 H132 0.960 . S
H132 C131 0.960 . S
H133 N113 0.862 . S
O134 Co102 1.920 . S
O134 C107 1.289 . S
C135 O127 1.258 . S
C135 O128 1.266 . S
Co136 O139 1.970 . S
Co136 N153 1.989 . S
Co136 O161 1.967 . S
Co136 O168 1.920 . S
Co137 O140 1.966 . S
Co137 N146 2.022 . S
Co137 N154 1.993 . S
Co137 O162 1.941 . S
C138 O139 1.258 . S
C138 O140 1.263 . S
O139 Co136 1.970 . S
O139 C138 1.258 . S
O140 Co137 1.966 . S
O140 C138 1.263 . S
C141 O142 1.235 . S
C141 O168 1.289 . S
O142 C141 1.235 . S
C143 C145 1.400 . S
C143 N146 1.351 . S
C143 C148 1.501 . S
C144 C145 1.387 . S
C144 N147 1.341 . S
C145 C143 1.400 . S
C145 C144 1.387 . S
N146 Co137 2.022 . S
N146 C143 1.351 . S
N146 N147 1.365 . S
N147 C144 1.341 . S
N147 N146 1.365 . S
N147 H167 0.862 . S
C148 C143 1.501 . S
C148 H149 0.961 . S
C148 H150 0.961 . S
C148 H151 0.960 . S
H149 C148 0.961 . S
H150 C148 0.961 . S
H151 C148 0.960 . S
C152 N153 1.342 . S
C152 C156 1.401 . S
C152 C157 1.499 . S
N153 Co136 1.989 . S
N153 C152 1.342 . S
N153 N154 1.388 . S
N154 Co137 1.993 . S
N154 N153 1.388 . S
N154 C155 1.346 . S
C155 N154 1.346 . S
C155 C156 1.396 . S
C155 C165 1.510 . S
C156 C152 1.401 . S
C156 C155 1.396 . S
C157 C152 1.499 . S
C157 H158 0.959 . S
C157 H159 0.960 . S
C157 H160 0.961 . S
H158 C157 0.959 . S
H159 C157 0.960 . S
H160 C157 0.961 . S
O161 Co136 1.967 . S
O161 C169 1.258 . S
O162 Co137 1.941 . S
O162 C169 1.266 . S
H163 C165 0.959 . S
H164 C165 0.961 . S
C165 C155 1.510 . S
C165 H163 0.959 . S
C165 H164 0.961 . S
C165 H166 0.960 . S
H166 C165 0.960 . S
H167 N147 0.862 . S
O168 Co136 1.920 . S
O168 C141 1.289 . S
C169 O161 1.258 . S
C169 O162 1.266 . S
Co170 O173 1.970 . S
Co170 N187 1.989 . S
Co170 O195 1.967 . S
Co170 O202 1.920 . S
Co171 O174 1.966 . S
Co171 N180 2.022 . S
Co171 N188 1.993 . S
Co171 O196 1.941 . S
C172 O173 1.258 . S
C172 O174 1.263 . S
O173 Co170 1.970 . S
O173 C172 1.258 . S
O174 Co171 1.966 . S
O174 C172 1.263 . S
C175 O176 1.235 . S
C175 O202 1.289 . S
O176 C175 1.235 . S
C177 C179 1.400 . S
C177 N180 1.351 . S
C177 C182 1.501 . S
C178 C179 1.387 . S
C178 N181 1.341 . S
C179 C177 1.400 . S
C179 C178 1.387 . S
N180 Co171 2.022 . S
N180 C177 1.351 . S
N180 N181 1.365 . S
N181 C178 1.341 . S
N181 N180 1.365 . S
N181 H201 0.862 . S
C182 C177 1.501 . S
C182 H183 0.961 . S
C182 H184 0.961 . S
C182 H185 0.960 . S
H183 C182 0.961 . S
H184 C182 0.961 . S
H185 C182 0.960 . S
C186 N187 1.342 . S
C186 C190 1.401 . S
C186 C191 1.499 . S
N187 Co170 1.989 . S
N187 C186 1.342 . S
N187 N188 1.388 . S
N188 Co171 1.993 . S
N188 N187 1.388 . S
N188 C189 1.346 . S
C189 N188 1.346 . S
C189 C190 1.396 . S
C189 C199 1.510 . S
C190 C186 1.401 . S
C190 C189 1.396 . S
C191 C186 1.499 . S
C191 H192 0.959 . S
C191 H193 0.960 . S
C191 H194 0.961 . S
H192 C191 0.959 . S
H193 C191 0.960 . S
H194 C191 0.961 . S
O195 Co170 1.967 . S
O195 C203 1.258 . S
O196 Co171 1.941 . S
O196 C203 1.266 . S
H197 C199 0.959 . S
H198 C199 0.961 . S
C199 C189 1.510 . S
C199 H197 0.959 . S
C199 H198 0.961 . S
C199 H200 0.960 . S
H200 C199 0.960 . S
H201 N181 0.862 . S
O202 Co170 1.920 . S
O202 C175 1.289 . S
C203 O195 1.258 . S
C203 O196 1.266 . S
Co204 O207 1.970 . S
Co204 N221 1.989 . S
Co204 O229 1.967 . S
Co204 O236 1.920 . S
Co205 O208 1.966 . S
Co205 N214 2.022 . S
Co205 N222 1.993 . S
Co205 O230 1.941 . S
C206 O207 1.258 . S
C206 O208 1.263 . S
O207 Co204 1.970 . S
O207 C206 1.258 . S
O208 Co205 1.966 . S
O208 C206 1.263 . S
C209 O210 1.235 . S
C209 O236 1.289 . S
O210 C209 1.235 . S
C211 C213 1.400 . S
C211 N214 1.351 . S
C211 C216 1.501 . S
C212 C213 1.387 . S
C212 N215 1.341 . S
C213 C211 1.400 . S
C213 C212 1.387 . S
N214 Co205 2.022 . S
N214 C211 1.351 . S
N214 N215 1.365 . S
N215 C212 1.341 . S
N215 N214 1.365 . S
N215 H235 0.862 . S
C216 C211 1.501 . S
C216 H217 0.961 . S
C216 H218 0.961 . S
C216 H219 0.960 . S
H217 C216 0.961 . S
H218 C216 0.961 . S
H219 C216 0.960 . S
C220 N221 1.342 . S
C220 C224 1.401 . S
C220 C225 1.499 . S
N221 Co204 1.989 . S
N221 C220 1.342 . S
N221 N222 1.388 . S
N222 Co205 1.993 . S
N222 N221 1.388 . S
N222 C223 1.346 . S
C223 N222 1.346 . S
C223 C224 1.396 . S
C223 C233 1.510 . S
C224 C220 1.401 . S
C224 C223 1.396 . S
C225 C220 1.499 . S
C225 H226 0.959 . S
C225 H227 0.960 . S
C225 H228 0.961 . S
H226 C225 0.959 . S
H227 C225 0.960 . S
H228 C225 0.961 . S
O229 Co204 1.967 . S
O229 C237 1.258 . S
O230 Co205 1.941 . S
O230 C237 1.266 . S
H231 C233 0.959 . S
H232 C233 0.961 . S
C233 C223 1.510 . S
C233 H231 0.959 . S
C233 H232 0.961 . S
C233 H234 0.960 . S
H234 C233 0.960 . S
H235 N215 0.862 . S
O236 Co204 1.920 . S
O236 C209 1.289 . S
C237 O229 1.258 . S
C237 O230 1.266 . S
Co238 O241 1.970 . S
Co238 N255 1.989 . S
Co238 O263 1.967 . S
Co238 O270 1.920 . S
Co239 O242 1.966 . S
Co239 N248 2.022 . S
Co239 N256 1.993 . S
Co239 O264 1.941 . S
C240 O241 1.258 . S
C240 O242 1.263 . S
O241 Co238 1.970 . S
O241 C240 1.258 . S
O242 Co239 1.966 . S
O242 C240 1.263 . S
C243 O244 1.235 . S
C243 O270 1.289 . S
O244 C243 1.235 . S
C245 C247 1.400 . S
C245 N248 1.351 . S
C245 C250 1.501 . S
C246 C247 1.387 . S
C246 N249 1.341 . S
C247 C245 1.400 . S
C247 C246 1.387 . S
N248 Co239 2.022 . S
N248 C245 1.351 . S
N248 N249 1.365 . S
N249 C246 1.341 . S
N249 N248 1.365 . S
N249 H269 0.862 . S
C250 C245 1.501 . S
C250 H251 0.961 . S
C250 H252 0.961 . S
C250 H253 0.960 . S
H251 C250 0.961 . S
H252 C250 0.961 . S
H253 C250 0.960 . S
C254 N255 1.342 . S
C254 C258 1.401 . S
C254 C259 1.499 . S
N255 Co238 1.989 . S
N255 C254 1.342 . S
N255 N256 1.388 . S
N256 Co239 1.993 . S
N256 N255 1.388 . S
N256 C257 1.346 . S
C257 N256 1.346 . S
C257 C258 1.396 . S
C257 C267 1.510 . S
C258 C254 1.401 . S
C258 C257 1.396 . S
C259 C254 1.499 . S
C259 H260 0.959 . S
C259 H261 0.960 . S
C259 H262 0.961 . S
H260 C259 0.959 . S
H261 C259 0.960 . S
H262 C259 0.961 . S
O263 Co238 1.967 . S
O263 C271 1.258 . S
O264 Co239 1.941 . S
O264 C271 1.266 . S
H265 C267 0.959 . S
H266 C267 0.961 . S
C267 C257 1.510 . S
C267 H265 0.959 . S
C267 H266 0.961 . S
C267 H268 0.960 . S
H268 C267 0.960 . S
H269 N249 0.862 . S
O270 Co238 1.920 . S
O270 C243 1.289 . S
C271 O263 1.258 . S
C271 O264 1.266 . S
C272 C273 1.349 . S
C272 C274 1.327 . S
C272 H297 0.950 . S
C273 C272 1.349 . S
C273 C289 1.349 . S
C274 C272 1.327 . S
C274 C293 1.429 . S
C274 H298 0.950 . S
C275 C292 1.586 . S
C275 C294 1.356 1_655 S
C275 H299 0.949 . S
H276 C280 0.949 . S
C277 C278 1.349 . S
C277 C279 1.327 . S
C277 H300 0.950 . S
C278 C277 1.349 . S
C278 C290 1.349 . S
C279 C277 1.327 . S
C279 C295 1.429 . S
C279 H301 0.950 . S
C280 H276 0.949 . S
C280 C288 1.586 . S
C280 C296 1.356 1_455 S
H281 C289 0.950 . S
H282 C287 0.950 . S
H283 C288 0.949 . S
H284 C290 0.950 . S
H285 C291 0.950 . S
H286 C292 0.949 . S
C287 H282 0.950 . S
C287 C289 1.327 . S
C287 C293 1.429 . S
C288 C280 1.586 . S
C288 H283 0.949 . S
C288 C294 1.368 . S
C289 C273 1.349 . S
C289 H281 0.950 . S
C289 C287 1.327 . S
C290 C278 1.349 . S
C290 H284 0.950 . S
C290 C291 1.327 . S
C291 H285 0.950 . S
C291 C290 1.327 . S
C291 C295 1.429 . S
C292 C275 1.586 . S
C292 H286 0.949 . S
C292 C296 1.368 . S
C293 C274 1.429 . S
C293 C287 1.429 . S
C293 C294 1.523 . S
C294 C275 1.356 1_455 S
C294 C288 1.368 . S
C294 C293 1.523 . S
C295 C279 1.429 . S
C295 C291 1.429 . S
C295 C296 1.523 . S
C296 C280 1.356 1_655 S
C296 C292 1.368 . S
C296 C295 1.523 . S
H297 C272 0.950 . S
H298 C274 0.950 . S
H299 C275 0.949 . S
H300 C277 0.950 . S
H301 C279 0.950 . S
C302 C303 1.349 . S
C302 C304 1.327 . S
C302 H327 0.950 . S
C303 C302 1.349 . S
C303 C319 1.349 . S
C304 C302 1.327 . S
C304 C323 1.429 . S
C304 H328 0.950 . S
C305 C322 1.586 . S
C305 C324 1.356 1_455 S
C305 H329 0.949 . S
H306 C310 0.949 . S
C307 C308 1.349 . S
C307 C309 1.327 . S
C307 H330 0.950 . S
C308 C307 1.349 . S
C308 C320 1.349 . S
C309 C307 1.327 . S
C309 C325 1.429 . S
C309 H331 0.950 . S
C310 H306 0.949 . S
C310 C318 1.586 . S
C310 C326 1.356 1_655 S
H311 C319 0.950 . S
H312 C317 0.950 . S
H313 C318 0.949 . S
H314 C320 0.950 . S
H315 C321 0.950 . S
H316 C322 0.949 . S
C317 H312 0.950 . S
C317 C319 1.327 . S
C317 C323 1.429 . S
C318 C310 1.586 . S
C318 H313 0.949 . S
C318 C324 1.368 . S
C319 C303 1.349 . S
C319 H311 0.950 . S
C319 C317 1.327 . S
C320 C308 1.349 . S
C320 H314 0.950 . S
C320 C321 1.327 . S
C321 H315 0.950 . S
C321 C320 1.327 . S
C321 C325 1.429 . S
C322 C305 1.586 . S
C322 H316 0.949 . S
C322 C326 1.368 . S
C323 C304 1.429 . S
C323 C317 1.429 . S
C323 C324 1.523 . S
C324 C305 1.356 1_655 S
C324 C318 1.368 . S
C324 C323 1.523 . S
C325 C309 1.429 . S
C325 C321 1.429 . S
C325 C326 1.523 . S
C326 C310 1.356 1_455 S
C326 C322 1.368 . S
C326 C325 1.523 . S
H327 C302 0.950 . S
H328 C304 0.950 . S
H329 C305 0.949 . S
H330 C307 0.950 . S
H331 C309 0.950 . S
C332 C333 1.349 . S
C332 C334 1.327 . S
C332 H357 0.950 . S
C333 C332 1.349 . S
C333 C349 1.349 . S
C334 C332 1.327 . S
C334 C353 1.429 . S
C334 H358 0.950 . S
C335 C352 1.574 1_565 S
C335 C354 1.368 . S
C335 H359 0.949 . S
H336 C340 0.949 . S
C337 C338 1.349 . S
C337 C339 1.327 . S
C337 H360 0.950 . S
C338 C337 1.349 . S
C338 C350 1.349 . S
C339 C337 1.327 . S
C339 C355 1.429 . S
C339 H361 0.950 . S
C340 H336 0.949 . S
C340 C348 1.574 1_545 S
C340 C356 1.368 . S
H341 C349 0.950 . S
H342 C347 0.950 . S
H343 C348 0.949 . S
H344 C350 0.950 . S
H345 C351 0.950 . S
H346 C352 0.949 . S
C347 H342 0.950 . S
C347 C349 1.327 . S
C347 C353 1.429 . S
C348 C340 1.574 1_565 S
C348 H343 0.949 . S
C348 C354 1.368 . S
C349 C333 1.349 . S
C349 H341 0.950 . S
C349 C347 1.327 . S
C350 C338 1.349 . S
C350 H344 0.950 . S
C350 C351 1.327 . S
C351 H345 0.950 . S
C351 C350 1.327 . S
C351 C355 1.429 . S
C352 C335 1.574 1_545 S
C352 H346 0.949 . S
C352 C356 1.368 . S
C353 C334 1.429 . S
C353 C347 1.429 . S
C353 C354 1.523 . S
C354 C335 1.368 . S
C354 C348 1.368 . S
C354 C353 1.523 . S
C355 C339 1.429 . S
C355 C351 1.429 . S
C355 C356 1.523 . S
C356 C340 1.368 . S
C356 C352 1.368 . S
C356 C355 1.523 . S
H357 C332 0.950 . S
H358 C334 0.950 . S
H359 C335 0.949 . S
H360 C337 0.950 . S
H361 C339 0.950 . S
C362 C363 1.349 . S
C362 C364 1.327 . S
C362 H387 0.950 . S
C363 C362 1.349 . S
C363 C379 1.349 . S
C364 C362 1.327 . S
C364 C383 1.429 . S
C364 H388 0.950 . S
C365 C382 1.574 1_565 S
C365 C384 1.368 . S
C365 H389 0.949 . S
H366 C370 0.949 . S
C367 C368 1.349 . S
C367 C369 1.327 . S
C367 H390 0.950 . S
C368 C367 1.349 . S
C368 C380 1.349 . S
C369 C367 1.327 . S
C369 C385 1.429 . S
C369 H391 0.950 . S
C370 H366 0.949 . S
C370 C378 1.574 1_545 S
C370 C386 1.368 . S
H371 C379 0.950 . S
H372 C377 0.950 . S
H373 C378 0.949 . S
H374 C380 0.950 . S
H375 C381 0.950 . S
H376 C382 0.949 . S
C377 H372 0.950 . S
C377 C379 1.327 . S
C377 C383 1.429 . S
C378 C370 1.574 1_565 S
C378 H373 0.949 . S
C378 C384 1.368 . S
C379 C363 1.349 . S
C379 H371 0.950 . S
C379 C377 1.327 . S
C380 C368 1.349 . S
C380 H374 0.950 . S
C380 C381 1.327 . S
C381 H375 0.950 . S
C381 C380 1.327 . S
C381 C385 1.429 . S
C382 C365 1.574 1_545 S
C382 H376 0.949 . S
C382 C386 1.368 . S
C383 C364 1.429 . S
C383 C377 1.429 . S
C383 C384 1.523 . S
C384 C365 1.368 . S
C384 C378 1.368 . S
C384 C383 1.523 . S
C385 C369 1.429 . S
C385 C381 1.429 . S
C385 C386 1.523 . S
C386 C370 1.368 . S
C386 C382 1.368 . S
C386 C385 1.523 . S
H387 C362 0.950 . S
H388 C364 0.950 . S
H389 C365 0.949 . S
H390 C367 0.950 . S
H391 C369 0.950 . S
C392 C393 1.349 . S
C392 C394 1.327 . S
C392 H417 0.950 . S
C393 C392 1.349 . S
C393 C409 1.349 . S
C394 C392 1.327 . S
C394 C413 1.429 . S
C394 H418 0.950 . S
C395 C412 1.574 . S
C395 C414 1.368 . S
C395 H419 0.949 . S
H396 C400 0.949 . S
C397 C398 1.349 . S
C397 C399 1.327 . S
C397 H420 0.950 . S
C398 C397 1.349 . S
C398 C410 1.349 . S
C399 C397 1.327 . S
C399 C415 1.429 . S
C399 H421 0.950 . S
C400 H396 0.949 . S
C400 C408 1.574 . S
C400 C416 1.368 . S
H401 C409 0.950 . S
H402 C407 0.950 . S
H403 C408 0.949 . S
H404 C410 0.950 . S
H405 C411 0.950 . S
H406 C412 0.949 . S
C407 H402 0.950 . S
C407 C409 1.327 . S
C407 C413 1.429 . S
C408 C400 1.574 . S
C408 H403 0.949 . S
C408 C414 1.368 . S
C409 C393 1.349 . S
C409 H401 0.950 . S
C409 C407 1.327 . S
C410 C398 1.349 . S
C410 H404 0.950 . S
C410 C411 1.327 . S
C411 H405 0.950 . S
C411 C410 1.327 . S
C411 C415 1.429 . S
C412 C395 1.574 . S
C412 H406 0.949 . S
C412 C416 1.368 . S
C413 C394 1.429 . S
C413 C407 1.429 . S
C413 C414 1.523 . S
C414 C395 1.368 . S
C414 C408 1.368 . S
C414 C413 1.523 . S
C415 C399 1.429 . S
C415 C411 1.429 . S
C415 C416 1.523 . S
C416 C400 1.368 . S
C416 C412 1.368 . S
C416 C415 1.523 . S
H417 C392 0.950 . S
H418 C394 0.950 . S
H419 C395 0.949 . S
H420 C397 0.950 . S
H421 C399 0.950 . S
C422 C423 1.349 . S
C422 C424 1.327 . S
C422 H447 0.950 . S
C423 C422 1.349 . S
C423 C439 1.349 . S
C424 C422 1.327 . S
C424 C443 1.429 . S
C424 H448 0.950 . S
C425 C442 1.574 . S
C425 C444 1.368 . S
C425 H449 0.949 . S
H426 C430 0.949 . S
C427 C428 1.349 . S
C427 C429 1.327 . S
C427 H450 0.950 . S
C428 C427 1.349 . S
C428 C440 1.349 . S
C429 C427 1.327 . S
C429 C445 1.429 . S
C429 H451 0.950 . S
C430 H426 0.949 . S
C430 C438 1.574 . S
C430 C446 1.368 . S
H431 C439 0.950 . S
H432 C437 0.950 . S
H433 C438 0.949 . S
H434 C440 0.950 . S
H435 C441 0.950 . S
H436 C442 0.949 . S
C437 H432 0.950 . S
C437 C439 1.327 . S
C437 C443 1.429 . S
C438 C430 1.574 . S
C438 H433 0.949 . S
C438 C444 1.368 . S
C439 C423 1.349 . S
C439 H431 0.950 . S
C439 C437 1.327 . S
C440 C428 1.349 . S
C440 H434 0.950 . S
C440 C441 1.327 . S
C441 H435 0.950 . S
C441 C440 1.327 . S
C441 C445 1.429 . S
C442 C425 1.574 . S
C442 H436 0.949 . S
C442 C446 1.368 . S
C443 C424 1.429 . S
C443 C437 1.429 . S
C443 C444 1.523 . S
C444 C425 1.368 . S
C444 C438 1.368 . S
C444 C443 1.523 . S
C445 C429 1.429 . S
C445 C441 1.429 . S
C445 C446 1.523 . S
C446 C430 1.368 . S
C446 C442 1.368 . S
C446 C445 1.523 . S
H447 C422 0.950 . S
H448 C424 0.950 . S
H449 C425 0.949 . S
H450 C427 0.950 . S
H451 C429 0.950 . S
C452 C453 1.349 . S
C452 C454 1.327 . S
C452 H477 0.950 . S
C453 C452 1.349 . S
C453 C469 1.349 . S
C454 C452 1.327 . S
C454 C473 1.429 . S
C454 H478 0.950 . S
C455 C472 1.574 . S
C455 C474 1.368 . S
C455 H479 0.949 . S
H456 C460 0.949 . S
C457 C458 1.349 . S
C457 C459 1.327 . S
C457 H480 0.950 . S
C458 C457 1.349 . S
C458 C470 1.349 . S
C459 C457 1.327 . S
C459 C475 1.429 . S
C459 H481 0.950 . S
C460 H456 0.949 . S
C460 C468 1.574 . S
C460 C476 1.368 . S
H461 C469 0.950 . S
H462 C467 0.950 . S
H463 C468 0.949 . S
H464 C470 0.950 . S
H465 C471 0.950 . S
H466 C472 0.949 . S
C467 H462 0.950 . S
C467 C469 1.327 . S
C467 C473 1.429 . S
C468 C460 1.574 . S
C468 H463 0.949 . S
C468 C474 1.368 . S
C469 C453 1.349 . S
C469 H461 0.950 . S
C469 C467 1.327 . S
C470 C458 1.349 . S
C470 H464 0.950 . S
C470 C471 1.327 . S
C471 H465 0.950 . S
C471 C470 1.327 . S
C471 C475 1.429 . S
C472 C455 1.574 . S
C472 H466 0.949 . S
C472 C476 1.368 . S
C473 C454 1.429 . S
C473 C467 1.429 . S
C473 C474 1.523 . S
C474 C455 1.368 . S
C474 C468 1.368 . S
C474 C473 1.523 . S
C475 C459 1.429 . S
C475 C471 1.429 . S
C475 C476 1.523 . S
C476 C460 1.368 . S
C476 C472 1.368 . S
C476 C475 1.523 . S
H477 C452 0.950 . S
H478 C454 0.950 . S
H479 C455 0.949 . S
H480 C457 0.950 . S
H481 C459 0.950 . S
C482 C483 1.349 . S
C482 C484 1.327 . S
C482 H507 0.950 . S
C483 C482 1.349 . S
C483 C499 1.349 . S
C484 C482 1.327 . S
C484 C503 1.429 . S
C484 H508 0.950 . S
C485 C502 1.574 . S
C485 C504 1.368 . S
C485 H509 0.949 . S
H486 C490 0.949 . S
C487 C488 1.349 . S
C487 C489 1.327 . S
C487 H510 0.950 . S
C488 C487 1.349 . S
C488 C500 1.349 . S
C489 C487 1.327 . S
C489 C505 1.429 . S
C489 H511 0.950 . S
C490 H486 0.949 . S
C490 C498 1.574 . S
C490 C506 1.368 . S
H491 C499 0.950 . S
H492 C497 0.950 . S
H493 C498 0.949 . S
H494 C500 0.950 . S
H495 C501 0.950 . S
H496 C502 0.949 . S
C497 H492 0.950 . S
C497 C499 1.327 . S
C497 C503 1.429 . S
C498 C490 1.574 . S
C498 H493 0.949 . S
C498 C504 1.368 . S
C499 C483 1.349 . S
C499 H491 0.950 . S
C499 C497 1.327 . S
C500 C488 1.349 . S
C500 H494 0.950 . S
C500 C501 1.327 . S
C501 H495 0.950 . S
C501 C500 1.327 . S
C501 C505 1.429 . S
C502 C485 1.574 . S
C502 H496 0.949 . S
C502 C506 1.368 . S
C503 C484 1.429 . S
C503 C497 1.429 . S
C503 C504 1.523 . S
C504 C485 1.368 . S
C504 C498 1.368 . S
C504 C503 1.523 . S
C505 C489 1.429 . S
C505 C501 1.429 . S
C505 C506 1.523 . S
C506 C490 1.368 . S
C506 C502 1.368 . S
C506 C505 1.523 . S
H507 C482 0.950 . S
H508 C484 0.950 . S
H509 C485 0.949 . S
H510 C487 0.950 . S
H511 C489 0.950 . S
C512 C513 1.349 . S
C512 C514 1.327 . S
C512 H537 0.950 . S
C513 C512 1.349 . S
C513 C529 1.349 . S
C514 C512 1.327 . S
C514 C533 1.429 . S
C514 H538 0.950 . S
C515 C532 1.574 . S
C515 C534 1.368 . S
C515 H539 0.949 . S
H516 C520 0.949 . S
C517 C518 1.349 . S
C517 C519 1.327 . S
C517 H540 0.950 . S
C518 C517 1.349 . S
C518 C530 1.349 . S
C519 C517 1.327 . S
C519 C535 1.429 . S
C519 H541 0.950 . S
C520 H516 0.949 . S
C520 C528 1.574 . S
C520 C536 1.368 . S
H521 C529 0.950 . S
H522 C527 0.950 . S
H523 C528 0.949 . S
H524 C530 0.950 . S
H525 C531 0.950 . S
H526 C532 0.949 . S
C527 H522 0.950 . S
C527 C529 1.327 . S
C527 C533 1.429 . S
C528 C520 1.574 . S
C528 H523 0.949 . S
C528 C534 1.368 . S
C529 C513 1.349 . S
C529 H521 0.950 . S
C529 C527 1.327 . S
C530 C518 1.349 . S
C530 H524 0.950 . S
C530 C531 1.327 . S
C531 H525 0.950 . S
C531 C530 1.327 . S
C531 C535 1.429 . S
C532 C515 1.574 . S
C532 H526 0.949 . S
C532 C536 1.368 . S
C533 C514 1.429 . S
C533 C527 1.429 . S
C533 C534 1.523 . S
C534 C515 1.368 . S
C534 C528 1.368 . S
C534 C533 1.523 . S
C535 C519 1.429 . S
C535 C531 1.429 . S
C535 C536 1.523 . S
C536 C520 1.368 . S
C536 C532 1.368 . S
C536 C535 1.523 . S
H537 C512 0.950 . S
H538 C514 0.950 . S
H539 C515 0.949 . S
H540 C517 0.950 . S
H541 C519 0.950 . S
C542 C543 1.349 . S
C542 C544 1.327 . S
C542 H567 0.950 . S
C543 C542 1.349 . S
C543 C559 1.349 . S
C544 C542 1.327 . S
C544 C563 1.429 . S
C544 H568 0.950 . S
C545 C562 1.574 . S
C545 C564 1.368 . S
C545 H569 0.949 . S
H546 C550 0.949 . S
C547 C548 1.349 . S
C547 C549 1.327 . S
C547 H570 0.950 . S
C548 C547 1.349 . S
C548 C560 1.349 . S
C549 C547 1.327 . S
C549 C565 1.429 . S
C549 H571 0.950 . S
C550 H546 0.949 . S
C550 C558 1.574 . S
C550 C566 1.368 . S
H551 C559 0.976 . S
H552 C557 0.950 . S
H553 C558 0.949 . S
H554 C560 0.950 . S
H555 C561 0.950 . S
H556 C562 0.949 . S
C557 H552 0.950 . S
C557 C559 1.327 . S
C557 C563 1.429 . S
C558 C550 1.574 . S
C558 H553 0.949 . S
C558 C564 1.368 . S
C559 C543 1.349 . S
C559 H551 0.976 . S
C559 C557 1.327 . S
C560 C548 1.349 . S
C560 H554 0.950 . S
C560 C561 1.327 . S
C561 H555 0.950 . S
C561 C560 1.327 . S
C561 C565 1.429 . S
C562 C545 1.574 . S
C562 H556 0.949 . S
C562 C566 1.368 . S
C563 C544 1.429 . S
C563 C557 1.429 . S
C563 C564 1.523 . S
C564 C545 1.368 . S
C564 C558 1.368 . S
C564 C563 1.523 . S
C565 C549 1.429 . S
C565 C561 1.429 . S
C565 C566 1.523 . S
C566 C550 1.368 . S
C566 C562 1.368 . S
C566 C565 1.523 . S
H567 C542 0.950 . S
H568 C544 0.950 . S
H569 C545 0.949 . S
H570 C547 0.950 . S
H571 C549 0.950 . S
C572 C573 1.349 . S
C572 C574 1.327 . S
C572 H597 0.950 . S
C573 C572 1.349 . S
C573 C589 1.349 . S
C574 C572 1.327 . S
C574 C593 1.429 . S
C574 H598 0.950 . S
C575 C592 1.574 1_554 S
C575 C594 1.368 . S
C575 H599 0.949 . S
H576 C580 0.949 . S
C577 C578 1.349 . S
C577 C579 1.327 . S
C577 H600 0.950 . S
C578 C577 1.349 . S
C578 C590 1.349 . S
C579 C577 1.327 . S
C579 C595 1.429 . S
C579 H601 0.950 . S
C580 H576 0.949 . S
C580 C588 1.574 . S
C580 C596 1.368 . S
H581 C589 0.950 . S
H582 C587 0.950 . S
H583 C588 0.949 . S
H584 C590 0.950 . S
H585 C591 0.950 . S
H586 C592 0.949 . S
C587 H582 0.950 . S
C587 C589 1.327 . S
C587 C593 1.429 . S
C588 C580 1.574 . S
C588 H583 0.949 . S
C588 C594 1.368 1_556 S
C589 C573 1.349 . S
C589 H581 0.950 . S
C589 C587 1.327 . S
C590 C578 1.349 . S
C590 H584 0.950 . S
C590 C591 1.327 . S
C591 H585 0.950 . S
C591 C590 1.327 . S
C591 C595 1.429 . S
C592 C575 1.574 1_556 S
C592 H586 0.949 . S
C592 C596 1.368 . S
C593 C574 1.429 . S
C593 C587 1.429 . S
C593 C594 1.523 . S
C594 C575 1.368 . S
C594 C588 1.368 1_554 S
C594 C593 1.523 . S
C595 C579 1.429 . S
C595 C591 1.429 . S
C595 C596 1.523 . S
C596 C580 1.368 . S
C596 C592 1.368 . S
C596 C595 1.523 . S
H597 C572 0.950 . S
H598 C574 0.950 . S
H599 C575 0.949 . S
H600 C577 0.950 . S
H601 C579 0.950 . S
C602 C603 1.349 . S
C602 C604 1.327 . S
C602 H627 0.950 . S
C603 C602 1.349 . S
C603 C619 1.349 . S
C604 C602 1.327 . S
C604 C623 1.429 . S
C604 H628 0.950 . S
C605 C622 1.574 . S
C605 C624 1.368 1_554 S
C605 H629 0.949 . S
H606 C610 0.949 . S
C607 C608 1.349 . S
C607 C609 1.327 . S
C607 H630 0.950 . S
C608 C607 1.349 . S
C608 C620 1.349 . S
C609 C607 1.327 . S
C609 C625 1.429 . S
C609 H631 0.950 . S
C610 H606 0.949 . S
C610 C618 1.574 . S
C610 C626 1.368 1_556 S
H611 C619 0.950 . S
H612 C617 0.950 . S
H613 C618 0.949 . S
H614 C620 0.950 . S
H615 C621 0.950 . S
H616 C622 0.949 . S
C617 H612 0.950 . S
C617 C619 1.327 . S
C617 C623 1.429 . S
C618 C610 1.574 . S
C618 H613 0.949 . S
C618 C624 1.368 . S
C619 C603 1.349 . S
C619 H611 0.950 . S
C619 C617 1.327 . S
C620 C608 1.349 . S
C620 H614 0.950 . S
C620 C621 1.327 . S
C621 H615 0.950 . S
C621 C620 1.327 . S
C621 C625 1.429 . S
C622 C605 1.574 . S
C622 H616 0.949 . S
C622 C626 1.368 . S
C623 C604 1.429 . S
C623 C617 1.429 . S
C623 C624 1.523 . S
C624 C605 1.368 1_556 S
C624 C618 1.368 . S
C624 C623 1.523 . S
C625 C609 1.429 . S
C625 C621 1.429 . S
C625 C626 1.523 . S
C626 C610 1.368 1_554 S
C626 C622 1.368 . S
C626 C625 1.523 . S
H627 C602 0.950 . S
H628 C604 0.950 . S
H629 C605 0.949 . S
H630 C607 0.950 . S
H631 C609 0.950 . S
C632 C633 1.349 . S
C632 C634 1.327 . S
C632 H657 0.950 . S
C633 C632 1.349 . S
C633 C649 1.349 . S
C634 C632 1.327 . S
C634 C653 1.429 . S
C634 H658 0.950 . S
C635 C652 1.574 . S
C635 C654 1.368 . S
C635 H659 0.949 . S
H636 C640 0.949 . S
C637 C638 1.349 . S
C637 C639 1.327 . S
C637 H660 0.950 . S
C638 C637 1.349 . S
C638 C650 1.349 . S
C639 C637 1.327 . S
C639 C655 1.429 . S
C639 H661 0.950 . S
C640 H636 0.949 . S
C640 C648 1.574 . S
C640 C656 1.368 . S
H641 C649 0.950 . S
H642 C647 0.950 . S
H643 C648 0.949 . S
H644 C650 0.950 . S
H645 C651 0.950 . S
H646 C652 0.949 . S
C647 H642 0.950 . S
C647 C649 1.327 . S
C647 C653 1.429 . S
C648 C640 1.574 . S
C648 H643 0.949 . S
C648 C654 1.368 1_655 S
C649 C633 1.349 . S
C649 H641 0.950 . S
C649 C647 1.327 . S
C650 C638 1.349 . S
C650 H644 0.950 . S
C650 C651 1.327 . S
C651 H645 0.950 . S
C651 C650 1.327 . S
C651 C655 1.429 . S
C652 C635 1.574 . S
C652 H646 0.949 . S
C652 C656 1.368 1_455 S
C653 C634 1.429 . S
C653 C647 1.429 . S
C653 C654 1.523 . S
C654 C635 1.368 . S
C654 C648 1.368 1_455 S
C654 C653 1.523 . S
C655 C639 1.429 . S
C655 C651 1.429 . S
C655 C656 1.523 . S
C656 C640 1.368 . S
C656 C652 1.368 1_655 S
C656 C655 1.523 . S
H657 C632 0.950 . S
H658 C634 0.950 . S
H659 C635 0.949 . S
H660 C637 0.950 . S
H661 C639 0.950 . S
C662 C663 1.349 . S
C662 C664 1.327 . S
C662 H687 0.950 . S
C663 C662 1.349 . S
C663 C679 1.349 . S
C664 C662 1.327 . S
C664 C683 1.429 . S
C664 H688 0.950 . S
C665 C682 1.574 . S
C665 C684 1.368 1_655 S
C665 H689 0.949 . S
H666 C670 0.949 . S
C667 C668 1.349 . S
C667 C669 1.327 . S
C667 H690 0.950 . S
C668 C667 1.349 . S
C668 C680 1.349 . S
C669 C667 1.327 . S
C669 C685 1.429 . S
C669 H691 0.950 . S
C670 H666 0.949 . S
C670 C678 1.574 . S
C670 C686 1.368 1_455 S
H671 C679 0.950 . S
H672 C677 0.950 . S
H673 C678 0.949 . S
H674 C680 0.950 . S
H675 C681 0.950 . S
H676 C682 0.949 . S
C677 H672 0.950 . S
C677 C679 1.327 . S
C677 C683 1.429 . S
C678 C670 1.574 . S
C678 H673 0.949 . S
C678 C684 1.368 . S
C679 C663 1.349 . S
C679 H671 0.950 . S
C679 C677 1.327 . S
C680 C668 1.349 . S
C680 H674 0.950 . S
C680 C681 1.327 . S
C681 H675 0.950 . S
C681 C680 1.327 . S
C681 C685 1.429 . S
C682 C665 1.574 . S
C682 H676 0.949 . S
C682 C686 1.368 . S
C683 C664 1.429 . S
C683 C677 1.429 . S
C683 C684 1.523 . S
C684 C665 1.368 1_455 S
C684 C678 1.368 . S
C684 C683 1.523 . S
C685 C669 1.429 . S
C685 C681 1.429 . S
C685 C686 1.523 . S
C686 C670 1.368 1_655 S
C686 C682 1.368 . S
C686 C685 1.523 . S
H687 C662 0.950 . S
H688 C664 0.950 . S
H689 C665 0.949 . S
H690 C667 0.950 . S
H691 C669 0.950 . S
C692 C693 1.349 . S
C692 C694 1.327 . S
C692 H717 0.950 . S
C693 C692 1.349 . S
C693 C709 1.349 . S
C694 C692 1.327 . S
C694 C713 1.429 . S
C694 H718 0.950 . S
C695 C712 1.570 1_455 S
C695 C714 1.372 . S
C695 H719 0.949 . S
H696 C700 0.949 . S
C697 C698 1.349 . S
C697 C699 1.327 1_554 S
C697 H720 0.950 . S
C698 C697 1.349 . S
C698 C710 1.349 . S
C699 C697 1.327 1_556 S
C699 C715 1.429 . S
C699 H721 0.950 . S
C700 H696 0.949 . S
C700 C708 1.569 1_655 S
C700 C716 1.372 . S
H701 C709 0.950 . S
H702 C707 0.950 . S
H703 C708 0.949 . S
H704 C710 0.950 . S
H705 C711 0.950 . S
H706 C712 0.949 . S
C707 H702 0.950 . S
C707 C709 1.327 . S
C707 C713 1.429 . S
C708 C700 1.569 1_455 S
C708 H703 0.949 . S
C708 C714 1.368 . S
C709 C693 1.349 . S
C709 H701 0.950 . S
C709 C707 1.327 . S
C710 C698 1.349 . S
C710 H704 0.950 . S
C710 C711 1.327 . S
C711 H705 0.950 . S
C711 C710 1.327 . S
C711 C715 1.429 1_554 S
C712 C695 1.570 1_655 S
C712 H706 0.949 . S
C712 C716 1.368 . S
C713 C694 1.429 . S
C713 C707 1.429 . S
C713 C714 1.523 . S
C714 C695 1.372 . S
C714 C708 1.368 . S
C714 C713 1.523 . S
C715 C699 1.429 . S
C715 C711 1.429 1_556 S
C715 C716 1.523 . S
C716 C700 1.372 . S
C716 C712 1.368 . S
C716 C715 1.523 . S
H717 C692 0.950 . S
H718 C694 0.950 . S
H719 C695 0.949 . S
H720 C697 0.950 . S
H721 C699 0.950 . S
C722 C723 1.349 . S
C722 C724 1.327 . S
C722 H747 0.950 . S
C723 C722 1.349 . S
C723 C739 1.349 . S
C724 C722 1.327 . S
C724 C743 1.429 1_554 S
C724 H748 0.950 . S
C725 C742 1.569 1_455 S
C725 C744 1.368 . S
C725 H749 0.949 . S
H726 C730 0.949 . S
C727 C728 1.349 . S
C727 C729 1.327 . S
C727 H750 0.950 . S
C728 C727 1.349 . S
C728 C740 1.349 . S
C729 C727 1.327 . S
C729 C745 1.429 . S
C729 H751 0.950 . S
C730 H726 0.949 . S
C730 C738 1.569 1_655 S
C730 C746 1.368 . S
H731 C739 0.950 . S
H732 C737 0.950 . S
H733 C738 0.949 . S
H734 C740 0.950 . S
H735 C741 0.950 . S
H736 C742 0.949 . S
C737 H732 0.950 . S
C737 C739 1.327 1_556 S
C737 C743 1.429 . S
C738 C730 1.569 1_455 S
C738 H733 0.949 . S
C738 C744 1.373 . S
C739 C723 1.349 . S
C739 H731 0.950 . S
C739 C737 1.327 1_554 S
C740 C728 1.349 . S
C740 H734 0.950 . S
C740 C741 1.327 . S
C741 H735 0.950 . S
C741 C740 1.327 . S
C741 C745 1.429 . S
C742 C725 1.569 1_655 S
C742 H736 0.949 . S
C742 C746 1.372 . S
C743 C724 1.429 1_556 S
C743 C737 1.429 . S
C743 C744 1.523 . S
C744 C725 1.368 . S
C744 C738 1.373 . S
C744 C743 1.523 . S
C745 C729 1.429 . S
C745 C741 1.429 . S
C745 C746 1.523 . S
C746 C730 1.368 . S
C746 C742 1.372 . S
C746 C745 1.523 . S
H747 C722 0.950 . S
H748 C724 0.950 . S
H749 C725 0.949 . S
H750 C727 0.950 . S
H751 C729 0.950 . S
C752 C753 1.349 . S
C752 C754 1.327 . S
C752 H777 0.950 . S
C753 C752 1.349 . S
C753 C769 1.349 . S
C754 C752 1.327 . S
C754 C773 1.429 1_554 S
C754 H778 0.950 1_554 S
C755 C772 1.574 . S
C755 C774 1.368 . S
C755 H779 0.949 . S
H756 C760 0.949 . S
C757 C758 1.349 . S
C757 C759 1.327 . S
C757 H780 0.950 . S
C758 C757 1.349 . S
C758 C770 1.349 . S
C759 C757 1.327 . S
C759 C775 1.429 . S
C759 H781 0.950 . S
C760 H756 0.949 . S
C760 C768 1.574 . S
C760 C776 1.368 . S
H761 C769 0.950 . S
H762 C767 0.950 . S
H763 C768 0.949 . S
H764 C770 0.950 . S
H765 C771 0.950 . S
H766 C772 0.949 . S
C767 H762 0.950 . S
C767 C769 1.327 . S
C767 C773 1.429 1_554 S
C768 C760 1.574 . S
C768 H763 0.949 . S
C768 C774 1.368 . S
C769 C753 1.349 . S
C769 H761 0.950 . S
C769 C767 1.327 . S
C770 C758 1.349 . S
C770 H764 0.950 . S
C770 C771 1.327 . S
C771 H765 0.950 . S
C771 C770 1.327 . S
C771 C775 1.429 . S
C772 C755 1.574 . S
C772 H766 0.949 . S
C772 C776 1.368 . S
C773 C754 1.429 1_556 S
C773 C767 1.429 1_556 S
C773 C774 1.523 . S
C774 C755 1.368 . S
C774 C768 1.368 . S
C774 C773 1.523 . S
C775 C759 1.429 . S
C775 C771 1.429 . S
C775 C776 1.523 . S
C776 C760 1.368 . S
C776 C772 1.368 . S
C776 C775 1.523 . S
H777 C752 0.950 . S
H778 C754 0.950 1_556 S
H779 C755 0.949 . S
H780 C757 0.950 . S
H781 C759 0.950 . S
C782 C783 1.349 . S
C782 C784 1.327 . S
C782 H807 0.950 . S
C783 C782 1.349 . S
C783 C799 1.349 . S
C784 C782 1.327 . S
C784 C803 1.429 . S
C784 H808 0.950 . S
C785 C802 1.574 . S
C785 C804 1.368 . S
C785 H809 0.949 . S
H786 C790 0.949 . S
C787 C788 1.349 . S
C787 C789 1.327 . S
C787 H810 0.950 . S
C788 C787 1.349 . S
C788 C800 1.349 . S
C789 C787 1.327 . S
C789 C805 1.429 1_554 S
C789 H811 0.950 . S
C790 H786 0.949 . S
C790 C798 1.574 . S
C790 C806 1.368 . S
H791 C799 0.950 . S
H792 C797 0.950 . S
H793 C798 0.949 . S
H794 C800 0.950 . S
H795 C801 0.950 1_556 S
H796 C802 0.949 . S
C797 H792 0.950 . S
C797 C799 1.327 . S
C797 C803 1.429 . S
C798 C790 1.574 . S
C798 H793 0.949 . S
C798 C804 1.368 . S
C799 C783 1.349 . S
C799 H791 0.950 . S
C799 C797 1.327 . S
C800 C788 1.349 . S
C800 H794 0.950 . S
C800 C801 1.327 . S
C801 H795 0.950 1_554 S
C801 C800 1.327 . S
C801 C805 1.429 1_554 S
C802 C785 1.574 . S
C802 H796 0.949 . S
C802 C806 1.368 . S
C803 C784 1.429 . S
C803 C797 1.429 . S
C803 C804 1.523 . S
C804 C785 1.368 . S
C804 C798 1.368 . S
C804 C803 1.523 . S
C805 C789 1.429 1_556 S
C805 C801 1.429 1_556 S
C805 C806 1.523 . S
C806 C790 1.368 . S
C806 C802 1.368 . S
C806 C805 1.523 . S
H807 C782 0.950 . S
H808 C784 0.950 . S
H809 C785 0.949 . S
H810 C787 0.950 . S
H811 C789 0.950 . S
C812 C813 1.349 . S
C812 C814 1.327 . S
C812 H837 0.950 . S
C813 C812 1.349 . S
C813 C829 1.349 . S
C814 C812 1.327 . S
C814 C833 1.429 . S
C814 H838 0.950 . S
C815 C832 1.574 . S
C815 C834 1.368 . S
C815 H839 0.949 . S
H816 C820 0.949 . S
C817 C818 1.349 . S
C817 C819 1.327 . S
C817 H840 0.950 . S
C818 C817 1.349 . S
C818 C830 1.349 . S
C819 C817 1.327 . S
C819 C835 1.429 . S
C819 H841 0.950 . S
C820 H816 0.949 . S
C820 C828 1.574 . S
C820 C836 1.368 . S
H821 C829 0.950 . S
H822 C827 0.950 . S
H823 C828 0.949 . S
H824 C830 0.950 . S
H825 C831 0.950 . S
H826 C832 0.949 . S
C827 H822 0.950 . S
C827 C829 1.327 . S
C827 C833 1.429 . S
C828 C820 1.574 . S
C828 H823 0.949 . S
C828 C834 1.368 . S
C829 C813 1.349 . S
C829 H821 0.950 . S
C829 C827 1.327 . S
C830 C818 1.349 . S
C830 H824 0.950 . S
C830 C831 1.327 . S
C831 H825 0.950 . S
C831 C830 1.327 . S
C831 C835 1.429 . S
C832 C815 1.574 . S
C832 H826 0.949 . S
C832 C836 1.368 . S
C833 C814 1.429 . S
C833 C827 1.429 . S
C833 C834 1.523 . S
C834 C815 1.368 . S
C834 C828 1.368 . S
C834 C833 1.523 . S
C835 C819 1.429 . S
C835 C831 1.429 . S
C835 C836 1.523 . S
C836 C820 1.368 . S
C836 C832 1.368 . S
C836 C835 1.523 . S
H837 C812 0.950 . S
H838 C814 0.950 . S
H839 C815 0.949 . S
H840 C817 0.950 . S
H841 C819 0.950 . S
C842 C843 1.349 . S
C842 C844 1.327 . S
C842 H867 0.950 . S
C843 C842 1.349 . S
C843 C859 1.349 . S
C844 C842 1.327 . S
C844 C863 1.429 . S
C844 H868 0.950 . S
C845 C862 1.574 . S
C845 C864 1.368 . S
C845 H869 0.949 . S
H846 C850 0.949 . S
C847 C848 1.349 . S
C847 C849 1.327 . S
C847 H870 0.950 . S
C848 C847 1.349 . S
C848 C860 1.349 . S
C849 C847 1.327 . S
C849 C865 1.429 . S
C849 H871 0.950 . S
C850 H846 0.949 . S
C850 C858 1.574 . S
C850 C866 1.368 . S
H851 C859 0.950 . S
H852 C857 0.950 . S
H853 C858 0.949 . S
H854 C860 0.950 . S
H855 C861 0.950 . S
H856 C862 0.949 . S
C857 H852 0.950 . S
C857 C859 1.327 . S
C857 C863 1.429 . S
C858 C850 1.574 . S
C858 H853 0.949 . S
C858 C864 1.368 . S
C859 C843 1.349 . S
C859 H851 0.950 . S
C859 C857 1.327 . S
C860 C848 1.349 . S
C860 H854 0.950 . S
C860 C861 1.327 . S
C861 H855 0.950 . S
C861 C860 1.327 . S
C861 C865 1.429 . S
C862 C845 1.574 . S
C862 H856 0.949 . S
C862 C866 1.368 . S
C863 C844 1.429 . S
C863 C857 1.429 . S
C863 C864 1.523 . S
C864 C845 1.368 . S
C864 C858 1.368 . S
C864 C863 1.523 . S
C865 C849 1.429 . S
C865 C861 1.429 . S
C865 C866 1.523 . S
C866 C850 1.368 . S
C866 C862 1.368 . S
C866 C865 1.523 . S
H867 C842 0.950 . S
H868 C844 0.950 . S
H869 C845 0.949 . S
H870 C847 0.950 . S
H871 C849 0.950 . S
C273 C33 1.555 . S
C278 C67 1.555 . S
C303 C135 1.555 . S
C308 C101 1.555 . S
C333 C169 1.555 . S
C338 C203 1.555 . S
C363 C271 1.555 . S
C368 C237 1.555 . S
C393 C179 1.410 . S
C398 C20 1.493 . S
C423 C145 1.410 . S
C428 C54 1.493 . S
C453 C247 1.410 . S
C458 C88 1.493 . S
C483 C122 1.493 . S
C488 C213 1.410 . S
C513 C43 1.410 . S
C518 C156 1.493 . S
C543 C9 1.410 . S
C548 C190 1.493 . S
C573 C224 1.493 . S
C578 C111 1.410 . S
C603 C77 1.410 . S
C608 C258 1.493 . S
C633 C5 1.282 . S
C638 C107 1.282 . S
C663 C73 1.282 . S
C668 C39 1.282 . S
C693 C70 0.710 . S
C698 C36 0.710 . S
C723 C2 0.710 . S
C728 C104 0.710 . S
C753 C243 1.282 . S
C758 C141 1.282 . S
C783 C175 1.282 . S
C788 C209 1.282 . S
C813 C206 0.710 . S
C818 C172 0.710 . S
C843 C138 0.710 . S
C848 C240 0.710 . S
