# Generated by pormake.
# Topology vba, (4)-cn, num edge types: 1
# Building blocks:
#     Node 0, Type 0, BuildingBlock: ESEHIV_clean_sbu_0, # of connection points: 4
#     Node 1, Type 0, BuildingBlock: ESEHIV_clean_sbu_0, # of connection points: 4
#     Node 2, Type 0, BuildingBlock: ESEHIV_clean_sbu_0, # of connection points: 4
#     Node 3, Type 0, BuildingBlock: ESEHIV_clean_sbu_0, # of connection points: 4
#     Node 4, Type 0, BuildingBlock: ESEHIV_clean_sbu_0, # of connection points: 4
#     Node 5, Type 0, BuildingBlock: ESEHIV_clean_sbu_0, # of connection points: 4
#     Node 6, Type 0, BuildingBlock: ESEHIV_clean_sbu_0, # of connection points: 4
#     Node 7, Type 0, BuildingBlock: ESEHIV_clean_sbu_0, # of connection points: 4
#     Node 8, Type 0, BuildingBlock: ESEHIV_clean_sbu_0, # of connection points: 4
#     Node 9, Type 0, BuildingBlock: ESEHIV_clean_sbu_0, # of connection points: 4
#     Node 10, Type 0, BuildingBlock: ESEHIV_clean_sbu_0, # of connection points: 4
#     Node 11, Type 0, BuildingBlock: ESEHIV_clean_sbu_0, # of connection points: 4
#     Node 12, Type 0, BuildingBlock: ESEHIV_clean_sbu_0, # of connection points: 4
#     Node 13, Type 0, BuildingBlock: ESEHIV_clean_sbu_0, # of connection points: 4
#     Node 14, Type 0, BuildingBlock: ESEHIV_clean_sbu_0, # of connection points: 4
#     Node 15, Type 0, BuildingBlock: ESEHIV_clean_sbu_0, # of connection points: 4
#     Node 16, Type 0, BuildingBlock: ESEHIV_clean_sbu_0, # of connection points: 4
#     Node 17, Type 0, BuildingBlock: ESEHIV_clean_sbu_0, # of connection points: 4
#     Node 18, Type 0, BuildingBlock: ESEHIV_clean_sbu_0, # of connection points: 4
#     Node 19, Type 0, BuildingBlock: ESEHIV_clean_sbu_0, # of connection points: 4
#     Node 20, Type 0, BuildingBlock: ESEHIV_clean_sbu_0, # of connection points: 4
#     Node 21, Type 0, BuildingBlock: ESEHIV_clean_sbu_0, # of connection points: 4
#     Node 22, Type 0, BuildingBlock: ESEHIV_clean_sbu_0, # of connection points: 4
#     Node 23, Type 0, BuildingBlock: ESEHIV_clean_sbu_0, # of connection points: 4
#     Node 24, Type 0, BuildingBlock: ESEHIV_clean_sbu_0, # of connection points: 4
#     Node 25, Type 0, BuildingBlock: ESEHIV_clean_sbu_0, # of connection points: 4
#     Node 26, Type 0, BuildingBlock: ESEHIV_clean_sbu_0, # of connection points: 4
#     Node 27, Type 0, BuildingBlock: ESEHIV_clean_sbu_0, # of connection points: 4
#     Node 28, Type 0, BuildingBlock: ESEHIV_clean_sbu_0, # of connection points: 4
#     Node 29, Type 0, BuildingBlock: ESEHIV_clean_sbu_0, # of connection points: 4
#     Node 30, Type 0, BuildingBlock: ESEHIV_clean_sbu_0, # of connection points: 4
#     Node 31, Type 0, BuildingBlock: ESEHIV_clean_sbu_0, # of connection points: 4
#     Edge 32, Type (0, 0), BuildingBlock: OJICUG_clean_linker_0, # of connection points: 2
#     Edge 33, Type (0, 0), BuildingBlock: OJICUG_clean_linker_0, # of connection points: 2
#     Edge 34, Type (0, 0), BuildingBlock: OJICUG_clean_linker_0, # of connection points: 2
#     Edge 35, Type (0, 0), BuildingBlock: OJICUG_clean_linker_0, # of connection points: 2
#     Edge 36, Type (0, 0), BuildingBlock: OJICUG_clean_linker_0, # of connection points: 2
#     Edge 37, Type (0, 0), BuildingBlock: OJICUG_clean_linker_0, # of connection points: 2
#     Edge 38, Type (0, 0), BuildingBlock: OJICUG_clean_linker_0, # of connection points: 2
#     Edge 39, Type (0, 0), BuildingBlock: OJICUG_clean_linker_0, # of connection points: 2
#     Edge 40, Type (0, 0), BuildingBlock: OJICUG_clean_linker_0, # of connection points: 2
#     Edge 41, Type (0, 0), BuildingBlock: OJICUG_clean_linker_0, # of connection points: 2
#     Edge 42, Type (0, 0), BuildingBlock: OJICUG_clean_linker_0, # of connection points: 2
#     Edge 43, Type (0, 0), BuildingBlock: OJICUG_clean_linker_0, # of connection points: 2
#     Edge 44, Type (0, 0), BuildingBlock: OJICUG_clean_linker_0, # of connection points: 2
#     Edge 45, Type (0, 0), BuildingBlock: OJICUG_clean_linker_0, # of connection points: 2
#     Edge 46, Type (0, 0), BuildingBlock: OJICUG_clean_linker_0, # of connection points: 2
#     Edge 47, Type (0, 0), BuildingBlock: OJICUG_clean_linker_0, # of connection points: 2
#     Edge 48, Type (0, 0), BuildingBlock: OJICUG_clean_linker_0, # of connection points: 2
#     Edge 49, Type (0, 0), BuildingBlock: OJICUG_clean_linker_0, # of connection points: 2
#     Edge 50, Type (0, 0), BuildingBlock: OJICUG_clean_linker_0, # of connection points: 2
#     Edge 51, Type (0, 0), BuildingBlock: OJICUG_clean_linker_0, # of connection points: 2
#     Edge 52, Type (0, 0), BuildingBlock: OJICUG_clean_linker_0, # of connection points: 2
#     Edge 53, Type (0, 0), BuildingBlock: OJICUG_clean_linker_0, # of connection points: 2
#     Edge 54, Type (0, 0), BuildingBlock: OJICUG_clean_linker_0, # of connection points: 2
#     Edge 55, Type (0, 0), BuildingBlock: OJICUG_clean_linker_0, # of connection points: 2
#     Edge 56, Type (0, 0), BuildingBlock: OJICUG_clean_linker_0, # of connection points: 2
#     Edge 57, Type (0, 0), BuildingBlock: OJICUG_clean_linker_0, # of connection points: 2
#     Edge 58, Type (0, 0), BuildingBlock: OJICUG_clean_linker_0, # of connection points: 2
#     Edge 59, Type (0, 0), BuildingBlock: OJICUG_clean_linker_0, # of connection points: 2
#     Edge 60, Type (0, 0), BuildingBlock: OJICUG_clean_linker_0, # of connection points: 2
#     Edge 61, Type (0, 0), BuildingBlock: OJICUG_clean_linker_0, # of connection points: 2
#     Edge 62, Type (0, 0), BuildingBlock: OJICUG_clean_linker_0, # of connection points: 2
#     Edge 63, Type (0, 0), BuildingBlock: OJICUG_clean_linker_0, # of connection points: 2
#     Edge 64, Type (0, 0), BuildingBlock: OJICUG_clean_linker_0, # of connection points: 2
#     Edge 65, Type (0, 0), BuildingBlock: OJICUG_clean_linker_0, # of connection points: 2
#     Edge 66, Type (0, 0), BuildingBlock: OJICUG_clean_linker_0, # of connection points: 2
#     Edge 67, Type (0, 0), BuildingBlock: OJICUG_clean_linker_0, # of connection points: 2
#     Edge 68, Type (0, 0), BuildingBlock: OJICUG_clean_linker_0, # of connection points: 2
#     Edge 69, Type (0, 0), BuildingBlock: OJICUG_clean_linker_0, # of connection points: 2
#     Edge 70, Type (0, 0), BuildingBlock: OJICUG_clean_linker_0, # of connection points: 2
#     Edge 71, Type (0, 0), BuildingBlock: OJICUG_clean_linker_0, # of connection points: 2
#     Edge 72, Type (0, 0), BuildingBlock: OJICUG_clean_linker_0, # of connection points: 2
#     Edge 73, Type (0, 0), BuildingBlock: OJICUG_clean_linker_0, # of connection points: 2
#     Edge 74, Type (0, 0), BuildingBlock: OJICUG_clean_linker_0, # of connection points: 2
#     Edge 75, Type (0, 0), BuildingBlock: OJICUG_clean_linker_0, # of connection points: 2
#     Edge 76, Type (0, 0), BuildingBlock: OJICUG_clean_linker_0, # of connection points: 2
#     Edge 77, Type (0, 0), BuildingBlock: OJICUG_clean_linker_0, # of connection points: 2
#     Edge 78, Type (0, 0), BuildingBlock: OJICUG_clean_linker_0, # of connection points: 2
#     Edge 79, Type (0, 0), BuildingBlock: OJICUG_clean_linker_0, # of connection points: 2
#     Edge 80, Type (0, 0), BuildingBlock: OJICUG_clean_linker_0, # of connection points: 2
#     Edge 81, Type (0, 0), BuildingBlock: OJICUG_clean_linker_0, # of connection points: 2
#     Edge 82, Type (0, 0), BuildingBlock: OJICUG_clean_linker_0, # of connection points: 2
#     Edge 83, Type (0, 0), BuildingBlock: OJICUG_clean_linker_0, # of connection points: 2
#     Edge 84, Type (0, 0), BuildingBlock: OJICUG_clean_linker_0, # of connection points: 2
#     Edge 85, Type (0, 0), BuildingBlock: OJICUG_clean_linker_0, # of connection points: 2
#     Edge 86, Type (0, 0), BuildingBlock: OJICUG_clean_linker_0, # of connection points: 2
#     Edge 87, Type (0, 0), BuildingBlock: OJICUG_clean_linker_0, # of connection points: 2
#     Edge 88, Type (0, 0), BuildingBlock: OJICUG_clean_linker_0, # of connection points: 2
#     Edge 89, Type (0, 0), BuildingBlock: OJICUG_clean_linker_0, # of connection points: 2
#     Edge 90, Type (0, 0), BuildingBlock: OJICUG_clean_linker_0, # of connection points: 2
#     Edge 91, Type (0, 0), BuildingBlock: OJICUG_clean_linker_0, # of connection points: 2
#     Edge 92, Type (0, 0), BuildingBlock: OJICUG_clean_linker_0, # of connection points: 2
#     Edge 93, Type (0, 0), BuildingBlock: OJICUG_clean_linker_0, # of connection points: 2
#     Edge 94, Type (0, 0), BuildingBlock: OJICUG_clean_linker_0, # of connection points: 2
#     Edge 95, Type (0, 0), BuildingBlock: OJICUG_clean_linker_0, # of connection points: 2
# Relax obj value: 0.004
# Max RMSD: 0.020
# Mean RMSD: 0.020
data_MOF--net-vba--node1-ESEHIV_clean_sbu_0--edge1-OJICUG_clean_linker_0
_symmetry_space_group_name_H-M    P1
_symmetry_Int_Tables_number       1
_symmetry_cell_setting            triclinic
loop_
_symmetry_equiv_pos_as_xyz
'x, y, z'
_cell_length_a     18.791898
_cell_length_b     87.788309
_cell_length_c     37.257714
_cell_angle_alpha  90.001588
_cell_angle_beta   90.002927
_cell_angle_gamma 90.000837
loop_
_atom_site_label
_atom_site_type_symbol
_atom_site_fract_x
_atom_site_fract_y
_atom_site_fract_z
_atom_type_partial_charge
Cu0 Cu 0.31279 0.09527 0.04211 0.0
N1 N 0.30476 0.11582 0.05432 0.0
N2 N 0.24938 0.13807 0.06381 0.0
C3 C 0.24326 0.12362 0.05176 0.0
C4 C 0.31802 0.13939 0.07431 0.0
C5 C 0.35198 0.12561 0.06856 0.0
O6 O 0.23944 0.08506 0.06978 0.0
C7 C 0.31812 0.08119 0.97417 0.0
O8 O 0.31442 0.06844 0.99247 0.0
H9 H 0.19491 0.11868 0.04112 0.0
H10 H 0.40669 0.12288 0.07485 0.0
N11 N 0.40029 0.08632 0.05275 0.0
N12 N 0.47283 0.06621 0.04777 0.0
C13 C 0.40682 0.07112 0.05606 0.0
C14 C 0.46515 0.09135 0.04313 0.0
C15 C 0.51022 0.07897 0.04036 0.0
C16 C 0.25187 0.08418 0.10338 0.0
O17 O 0.31392 0.08883 0.11541 0.0
H18 H 0.36165 0.06371 0.06039 0.0
H19 H 0.47655 0.10283 0.03431 0.0
O20 O 0.30671 0.09376 0.99024 0.0
H21 H 0.34177 0.14945 0.08604 0.0
H22 H 0.56385 0.07922 1.02978 0.0
Cu23 Cu 0.96563 0.22624 0.04288 0.0
N24 N 0.9738 0.20568 0.05502 0.0
N25 N 0.02933 0.18343 0.06427 0.0
C26 C 0.03522 0.19788 0.05214 0.0
C27 C 0.96094 0.18213 0.07517 0.0
C28 C 0.92688 0.19591 0.06957 0.0
O29 O 0.039 0.23645 0.07053 0.0
C30 C 0.96005 0.24033 0.97496 0.0
O31 O 0.96366 0.25309 0.99327 0.0
H32 H 0.08334 0.20281 0.04122 0.0
H33 H 0.87234 0.19866 0.07618 0.0
N34 N 0.87811 0.23516 0.05361 0.0
N35 N 0.80553 0.25527 0.04867 0.0
C36 C 0.87156 0.25036 0.05694 0.0
C37 C 0.81326 0.23013 0.04399 0.0
C38 C 0.76815 0.24251 0.04125 0.0
C39 C 0.02666 0.23732 0.10414 0.0
O40 O 0.96468 0.23265 0.1162 0.0
H41 H 0.91672 0.25778 0.06127 0.0
H42 H 0.80187 0.21865 0.03515 0.0
O43 O 0.97157 0.22777 0.99101 0.0
H44 H 0.93743 0.17208 0.0871 0.0
H45 H 0.71452 0.24226 0.03068 0.0
Cu46 Cu 0.3132 0.22625 0.26874 0.0
N47 N 0.3051 0.2057 0.25649 0.0
N48 N 0.24962 0.18346 0.24704 0.0
C49 C 0.24366 0.19789 0.25924 0.0
C50 C 0.31808 0.18217 0.23624 0.0
C51 C 0.3521 0.19594 0.24197 0.0
O52 O 0.23976 0.23646 0.24115 0.0
C53 C 0.31878 0.24029 0.33672 0.0
O54 O 0.31514 0.25306 0.31846 0.0
H55 H 0.19547 0.20281 0.27011 0.0
H56 H 0.40668 0.1987 0.23545 0.0
N57 N 0.40067 0.23519 0.25804 0.0
N58 N 0.47324 0.25531 0.263 0.0
C59 C 0.40719 0.2504 0.25476 0.0
C60 C 0.46556 0.23016 0.26759 0.0
C61 C 0.51065 0.24254 0.27034 0.0
C62 C 0.25207 0.23736 0.20754 0.0
O63 O 0.31409 0.23272 0.19545 0.0
H64 H 0.36202 0.25781 0.25048 0.0
H65 H 0.47699 0.21868 0.27636 0.0
O66 O 0.30728 0.22774 0.32062 0.0
H67 H 0.34165 0.17213 0.2243 0.0
H68 H 0.56433 0.24228 0.28087 0.0
Cu69 Cu 0.96599 0.09528 0.26832 0.0
N70 N 0.97411 0.11584 0.25621 0.0
N71 N 0.02955 0.1381 0.24692 0.0
C72 C 0.03559 0.12364 0.2589 0.0
C73 C 0.96098 0.13943 0.23632 0.0
C74 C 0.92698 0.12565 0.24194 0.0
O75 O 0.03928 0.08508 0.24059 0.0
C76 C 0.96063 0.08115 0.33618 0.0
O77 O 0.96429 0.06841 0.31783 0.0
H78 H 0.08388 0.11869 0.2696 0.0
H79 H 0.87231 0.12292 0.23556 0.0
N80 N 0.87844 0.08636 0.25763 0.0
N81 N 0.80588 0.06625 0.26259 0.0
C82 C 0.87188 0.07117 0.25427 0.0
C83 C 0.81362 0.09139 0.26732 0.0
C84 C 0.76853 0.07901 0.27006 0.0
C85 C 0.02683 0.08423 0.20698 0.0
O86 O 0.96482 0.0889 0.19498 0.0
H87 H 0.91702 0.06375 0.24989 0.0
H88 H 0.80227 0.10286 0.2762 0.0
O89 O 0.97208 0.09372 0.32018 0.0
H90 H 0.9373 0.1495 0.22459 0.0
H91 H 0.71493 0.07926 0.28069 0.0
Cu92 Cu 0.7155 0.97622 1.01805 0.0
N93 N 0.7237 0.95566 1.00591 0.0
N94 N 0.77929 0.93342 0.99662 0.0
C95 C 0.78516 0.94787 1.00875 0.0
C96 C 0.71087 0.93211 0.98576 0.0
C97 C 0.67678 0.94588 0.99139 0.0
O98 O 0.78882 0.98643 0.99038 0.0
C99 C 0.71001 0.99032 0.08597 0.0
O100 O 0.71354 1.00307 0.06765 0.0
H101 H 0.83329 0.9528 1.01964 0.0
H102 H 0.62221 0.94862 0.9848 0.0
N103 N 0.62796 0.98513 1.00735 0.0
N104 N 0.55536 1.00524 1.01228 0.0
C105 C 0.62138 1.00033 1.004 0.0
C106 C 0.56312 0.9801 1.01699 0.0
C107 C 0.51801 0.99247 1.01972 0.0
C108 C 0.77644 0.98729 0.95677 0.0
O109 O 0.71446 0.98261 0.94472 0.0
H110 H 0.66653 1.00775 0.99965 0.0
H111 H 0.55176 0.96862 1.02583 0.0
O112 O 0.72152 0.97775 0.06992 0.0
H113 H 0.68737 0.92206 0.97384 0.0
H114 H 0.46438 0.99222 1.03031 0.0
Cu115 Cu 0.06318 0.84531 1.01852 0.0
N116 N 0.05503 0.86586 1.00633 0.0
N117 N 0.99954 0.8881 0.9969 0.0
C118 C 0.9935 0.87364 1.00893 0.0
C119 C 0.06814 0.88943 0.98637 0.0
C120 C 0.10218 0.87566 0.99208 0.0
O121 O 0.9898 0.83509 0.99089 0.0
C122 C 0.06874 0.83121 0.08641 0.0
O123 O 0.06498 0.81846 0.06809 0.0
H124 H 0.94519 0.86869 1.01959 0.0
H125 H 0.15689 0.87294 0.98577 0.0
N126 N 0.15069 0.83638 1.0078 0.0
N127 N 0.22325 0.81627 1.01275 0.0
C128 C 0.15723 0.82118 1.00446 0.0
C129 C 0.21554 0.8414 1.01743 0.0
C130 C 0.26063 0.82903 1.02018 0.0
C131 C 1.00212 0.83422 0.95728 0.0
O132 O 0.06411 0.83888 0.94521 0.0
H133 H 0.11207 0.81377 1.00012 0.0
H134 H 0.22693 0.85288 1.02628 0.0
O135 O 0.05728 0.84378 0.07039 0.0
H136 H 0.09183 0.8995 0.97464 0.0
H137 H 0.31425 0.82928 0.03077 0.0
Cu138 Cu 0.71577 0.84527 0.79257 0.0
N139 N 0.72388 0.86583 0.80473 0.0
N140 N 0.77936 0.88808 0.81403 0.0
C141 C 0.78531 0.87363 0.8019 0.0
C142 C 0.71092 0.88938 0.82486 0.0
C143 C 0.6769 0.8756 0.81922 0.0
O144 O 0.78913 0.83507 0.82024 0.0
C145 C 0.71038 0.83116 0.72468 0.0
O146 O 0.71406 0.81841 0.74301 0.0
H147 H 0.83348 0.86871 0.79103 0.0
H148 H 0.62234 0.87285 0.82578 0.0
N149 N 0.62825 0.83634 0.80328 0.0
N150 N 0.5557 0.81623 0.7983 0.0
C151 C 0.62171 0.82114 0.8066 0.0
C152 C 0.5634 0.84137 0.79364 0.0
C153 C 0.51832 0.82899 0.79088 0.0
C154 C 0.77677 0.8342 0.85385 0.0
O155 O 0.71476 0.83885 0.8659 0.0
H156 H 0.66687 0.81373 0.81094 0.0
H157 H 0.55201 0.85285 0.78481 0.0
O158 O 0.72178 0.84373 0.74071 0.0
H159 H 0.68736 0.89943 0.83676 0.0
H160 H 0.46469 0.82924 0.78029 0.0
Cu161 Cu 0.06281 0.97625 0.79208 0.0
N162 N 0.05477 0.9557 0.80432 0.0
N163 N 0.99938 0.93345 0.81377 0.0
C164 C 0.99328 0.9479 0.80171 0.0
C165 C 0.06797 0.93214 0.82435 0.0
C166 C 0.10194 0.94592 0.81862 0.0
O167 O 0.98938 0.98646 0.81969 0.0
C168 C 0.06839 0.9903 0.72412 0.0
O169 O 0.0647 1.00306 0.74239 0.0
H170 H 0.94497 0.95283 0.79101 0.0
H171 H 0.15662 0.94866 0.82496 0.0
N172 N 0.15028 0.9852 0.80278 0.0
N173 N 0.22281 1.00532 0.79782 0.0
C174 C 0.15678 1.0004 0.80608 0.0
C175 C 0.21517 0.98018 0.7932 0.0
C176 C 0.26024 0.99256 0.79045 0.0
C177 C 1.00172 0.98735 0.8533 0.0
O178 O 0.06375 0.98271 0.86537 0.0
H179 H 0.1116 1.00782 0.81037 0.0
H180 H 0.2266 0.9687 0.78441 0.0
O181 O 0.05689 0.97775 0.7402 0.0
H182 H 0.09169 0.92208 0.83612 0.0
H183 H 0.31389 0.99231 0.7799 0.0
Cu184 Cu 0.31361 0.59516 0.54271 0.0
N185 N 0.30544 0.61571 0.55488 0.0
N186 N 0.24989 0.63796 0.56418 0.0
C187 C 0.24399 0.62351 0.55205 0.0
C188 C 0.31832 0.63926 0.57502 0.0
C189 C 0.35238 0.62549 0.56938 0.0
O190 O 0.24029 0.58494 0.57038 0.0
C191 C 0.31912 0.58108 0.47477 0.0
O192 O 0.31557 0.56832 0.49306 0.0
H193 H 0.19584 0.61858 0.54117 0.0
H194 H 0.40696 0.62275 0.57595 0.0
N195 N 0.40116 0.58624 0.5534 0.0
N196 N 0.47377 0.56614 0.54842 0.0
C197 C 0.40774 0.57104 0.55671 0.0
C198 C 0.46599 0.59127 0.54377 0.0
C199 C 0.51112 0.57891 0.54102 0.0
C200 C 0.25269 0.58408 0.60399 0.0
O201 O 0.3147 0.58874 0.61603 0.0
H202 H 0.3626 0.56362 0.56103 0.0
H203 H 0.47735 0.60276 0.53496 0.0
O204 O 0.30759 0.59363 0.49084 0.0
H205 H 0.34184 0.64931 0.58693 0.0
H206 H 0.56475 0.57917 0.53043 0.0
Cu207 Cu 0.96614 0.7261 0.54234 0.0
N208 N 0.97426 0.70554 0.55451 0.0
N209 N 0.02972 0.68329 0.56392 0.0
C210 C 0.03577 0.69775 0.55189 0.0
C211 C 0.96112 0.68197 0.57447 0.0
C212 C 0.92711 0.69574 0.56877 0.0
O213 O 0.03947 0.73631 0.57 0.0
C214 C 0.96074 0.7402 0.47445 0.0
O215 O 0.96445 0.75295 0.49279 0.0
H216 H 0.08407 0.7027 0.54121 0.0
H217 H 0.87242 0.69847 0.57511 0.0
N218 N 0.87861 0.73502 0.55303 0.0
N219 N 0.80606 0.75514 0.54808 0.0
C220 C 0.87207 0.75022 0.55638 0.0
C221 C 0.81377 0.73 0.54338 0.0
C222 C 0.76868 0.74238 0.54064 0.0
C223 C 0.02709 0.73718 0.60361 0.0
O224 O 0.9651 0.73251 0.61566 0.0
H225 H 0.91723 0.75764 0.56073 0.0
H226 H 0.80238 0.71852 0.53452 0.0
O227 O 0.97214 0.72763 0.49047 0.0
H228 H 0.93743 0.6719 0.58622 0.0
H229 H 0.71506 0.74213 0.53004 0.0
Cu230 Cu 0.31325 0.7262 0.76844 0.0
N231 N 0.30521 0.70564 0.75629 0.0
N232 N 0.24983 0.68338 0.74696 0.0
C233 C 0.24375 0.69784 0.75897 0.0
C234 C 0.3184 0.68207 0.73636 0.0
C235 C 0.35236 0.69585 0.74201 0.0
O236 O 0.23988 0.73639 0.74074 0.0
C237 C 0.31859 0.74031 0.83634 0.0
O238 O 0.31491 0.75305 0.81802 0.0
H239 H 0.19545 0.70278 0.76968 0.0
H240 H 0.40703 0.69859 0.73562 0.0
N241 N 0.40075 0.73514 0.75776 0.0
N242 N 0.47328 0.75526 0.76274 0.0
C243 C 0.40727 0.75034 0.75444 0.0
C244 C 0.4656 0.73012 0.76741 0.0
C245 C 0.51067 0.7425 0.77016 0.0
C246 C 0.25228 0.73726 0.70714 0.0
O247 O 0.31433 0.73261 0.69511 0.0
H248 H 0.3621 0.75775 0.7501 0.0
H249 H 0.477 0.71864 0.77624 0.0
O250 O 0.30718 0.72774 0.8203 0.0
H251 H 0.34211 0.672 0.72462 0.0
H252 H 0.56429 0.74225 0.78076 0.0
Cu253 Cu 0.96635 0.5952 0.76868 0.0
N254 N 0.97444 0.61575 0.75644 0.0
N255 N 0.02987 0.638 0.74702 0.0
C256 C 0.03586 0.62356 0.7592 0.0
C257 C 0.96141 0.63928 0.73622 0.0
C258 C 0.92742 0.62551 0.74192 0.0
O259 O 0.03977 0.58499 0.74107 0.0
C260 C 0.96076 0.58115 0.83664 0.0
O261 O 0.96442 0.56839 0.81837 0.0
H262 H 0.08406 0.61864 0.77007 0.0
H263 H 0.87284 0.62275 0.7354 0.0
N264 N 0.87887 0.58626 0.75797 0.0
N265 N 0.80632 0.56614 0.7629 0.0
C266 C 0.87236 0.57106 0.75466 0.0
C267 C 0.81399 0.59128 0.76754 0.0
C268 C 0.76891 0.57891 0.77027 0.0
C269 C 0.02742 0.5841 0.70746 0.0
O270 O 0.96541 0.58874 0.69539 0.0
H271 H 0.91754 0.56364 0.75037 0.0
H272 H 0.80256 0.60277 0.77633 0.0
O273 O 0.97227 0.5937 0.82056 0.0
H274 H 0.93782 0.64932 0.72428 0.0
H275 H 0.71524 0.57916 0.78081 0.0
Cu276 Cu 0.71649 0.47614 0.5186 0.0
N277 N 0.72459 0.45559 0.50641 0.0
N278 N 0.78004 0.43333 0.49707 0.0
C279 C 0.786 0.44777 0.50923 0.0
C280 C 0.71161 0.43205 0.48621 0.0
C281 C 0.67761 0.44582 0.49188 0.0
O282 O 0.78989 0.48635 0.49096 0.0
C283 C 0.71099 0.49022 0.58652 0.0
O284 O 0.7147 0.50298 0.56822 0.0
H285 H 0.83417 0.45269 0.52012 0.0
H286 H 0.62305 0.44858 0.4853 0.0
N287 N 0.62899 0.48507 0.50788 0.0
N288 N 0.55641 0.50518 0.51284 0.0
C289 C 0.62245 0.50027 0.50458 0.0
C290 C 0.56413 0.48004 0.51747 0.0
C291 C 0.51902 0.49242 0.52021 0.0
C292 C 0.77754 0.48723 0.45736 0.0
O293 O 0.71553 0.48258 0.44529 0.0
H294 H 0.66762 0.50769 0.50028 0.0
H295 H 0.55272 0.46856 0.52626 0.0
O296 O 0.72243 0.47766 0.57047 0.0
H297 H 0.68805 0.42201 0.47428 0.0
H298 H 0.46537 0.49216 0.53077 0.0
Cu299 Cu 0.06333 0.34513 0.51884 0.0
N300 N 0.05533 0.36569 0.50664 0.0
N301 N 0.99998 0.38795 0.49723 0.0
C302 C 0.99385 0.37349 0.50926 0.0
C303 C 0.06858 0.38925 0.48668 0.0
C304 C 0.10252 0.37547 0.49238 0.0
O305 O 0.98993 0.33494 0.49118 0.0
C306 C 0.06875 0.33107 0.58679 0.0
O307 O 0.06513 0.31831 0.56851 0.0
H308 H 0.94553 0.36856 0.51994 0.0
H309 H 0.1572 0.37273 0.48604 0.0
N310 N 0.15081 0.33618 0.50817 0.0
N311 N 0.22331 0.31606 0.51313 0.0
C312 C 0.1573 0.32098 0.50485 0.0
C313 C 0.21568 0.3412 0.51779 0.0
C314 C 0.26073 0.32882 0.52054 0.0
C315 C 1.00231 0.33406 0.45758 0.0
O316 O 0.06436 0.33869 0.44553 0.0
H317 H 0.11211 0.31357 0.50052 0.0
H318 H 0.22712 0.35268 0.52661 0.0
O319 O 0.05729 0.34362 0.57071 0.0
H320 H 0.09232 0.39932 0.47494 0.0
H321 H 0.31437 0.32906 0.53111 0.0
Cu322 Cu 0.71611 0.34526 0.29285 0.0
N323 N 0.72436 0.36581 0.30503 0.0
N324 N 0.77997 0.38805 0.31436 0.0
C325 C 0.78582 0.37361 0.3022 0.0
C326 C 0.71156 0.38936 0.32522 0.0
C327 C 0.67746 0.37559 0.31957 0.0
O328 O 0.78943 0.33503 0.32049 0.0
C329 C 0.7105 0.33118 0.22493 0.0
O330 O 0.71414 0.31843 0.24323 0.0
H331 H 0.83395 0.36867 0.29129 0.0
H332 H 0.62289 0.37285 0.32615 0.0
N333 N 0.62856 0.33635 0.30356 0.0
N334 N 0.55592 0.31625 0.29858 0.0
C335 C 0.62196 0.32116 0.30687 0.0
C336 C 0.56373 0.34139 0.29393 0.0
C337 C 0.51858 0.32903 0.29118 0.0
C338 C 0.77706 0.33416 0.35409 0.0
O339 O 0.71509 0.33883 0.36615 0.0
H340 H 0.66709 0.31373 0.31119 0.0
H341 H 0.55238 0.35288 0.28511 0.0
O342 O 0.72205 0.34374 0.24097 0.0
H343 H 0.68808 0.39941 0.33716 0.0
H344 H 0.46495 0.32929 0.2806 0.0
Cu345 Cu 0.06383 0.47617 0.29261 0.0
N346 N 0.05571 0.45561 0.30475 0.0
N347 N 1.00023 0.43337 0.31414 0.0
C348 C 0.99418 0.44783 0.30214 0.0
C349 C 0.06885 0.43203 0.32466 0.0
C350 C 0.10287 0.44581 0.31897 0.0
O351 O 0.99047 0.48637 0.32028 0.0
C352 C 0.06925 0.49029 0.22473 0.0
O353 O 0.06556 0.50303 0.24308 0.0
H354 H 0.94587 0.45278 0.2915 0.0
H355 H 0.15758 0.44853 0.32529 0.0
N356 N 0.15134 0.4851 0.30332 0.0
N357 N 0.22385 0.50522 0.29837 0.0
C358 C 0.15786 0.5003 0.30669 0.0
C359 C 0.21618 0.48009 0.29364 0.0
C360 C 0.26124 0.49247 0.2909 0.0
C361 C 1.00283 0.48723 0.3539 0.0
O362 O 0.06483 0.48256 0.36594 0.0
H363 H 0.11269 0.50771 0.31106 0.0
H364 H 0.22757 0.46861 0.28476 0.0
O365 O 0.05783 0.47772 0.24074 0.0
H366 H 0.09255 0.42196 0.33637 0.0
H367 H 0.31484 0.49223 0.28028 0.0
Cu368 Cu 0.81326 0.09512 0.54231 0.0
N369 N 0.80518 0.11567 0.55454 0.0
N370 N 0.74973 0.13791 0.56399 0.0
C371 C 0.74368 0.12346 0.55192 0.0
C372 C 0.81831 0.13923 0.57458 0.0
C373 C 0.85232 0.12546 0.56886 0.0
O374 O 0.73979 0.08492 0.5699 0.0
C375 C 0.81886 0.08107 0.47435 0.0
O376 O 0.81516 0.06831 0.49261 0.0
H377 H 0.69539 0.11853 0.54121 0.0
H378 H 0.90699 0.12272 0.57522 0.0
N379 N 0.90072 0.08617 0.55303 0.0
N380 N 0.97326 0.06606 0.54806 0.0
C381 C 0.90723 0.07097 0.55632 0.0
C382 C 0.96561 0.0912 0.54347 0.0
C383 C 1.01068 0.07882 0.54072 0.0
C384 C 0.75208 0.08403 0.60352 0.0
O385 O 0.81411 0.08866 0.61561 0.0
H386 H 0.86204 0.06356 0.56059 0.0
H387 H 0.97704 0.10268 0.53469 0.0
O388 O 0.80737 0.09362 0.49043 0.0
H389 H 0.84199 0.14929 0.58637 0.0
H390 H 0.06435 0.07908 0.53018 0.0
Cu391 Cu 0.46584 0.22606 0.54281 0.0
N392 N 0.47404 0.2055 0.55495 0.0
N393 N 0.52958 0.18326 0.56425 0.0
C394 C 0.53549 0.1977 0.55214 0.0
C395 C 0.46114 0.18195 0.57505 0.0
C396 C 0.42707 0.19572 0.56942 0.0
O397 O 0.53916 0.23628 0.57048 0.0
C398 C 0.46037 0.24018 0.47494 0.0
O399 O 0.46407 0.25292 0.4933 0.0
H400 H 0.58366 0.20264 0.54128 0.0
H401 H 0.37249 0.19846 0.57597 0.0
N402 N 0.3783 0.23497 0.55353 0.0
N403 N 0.30572 0.25508 0.5486 0.0
C404 C 0.37173 0.25017 0.55689 0.0
C405 C 0.31346 0.22994 0.54388 0.0
C406 C 0.26836 0.24232 0.54114 0.0
C407 C 0.5268 0.23714 0.60408 0.0
O408 O 0.46484 0.23246 0.61614 0.0
H409 H 0.41688 0.25758 0.56125 0.0
H410 H 0.3021 0.21847 0.53501 0.0
O411 O 0.47179 0.22761 0.49094 0.0
H412 H 0.4376 0.17189 0.58693 0.0
H413 H 0.21475 0.24207 0.53054 0.0
Cu414 Cu 0.81311 0.22621 0.76882 0.0
N415 N 0.80505 0.20566 0.75661 0.0
N416 N 0.74961 0.18342 0.74714 0.0
C417 C 0.74352 0.19787 0.75918 0.0
C418 C 0.81824 0.18209 0.73664 0.0
C419 C 0.85224 0.19586 0.74238 0.0
O420 O 0.73972 0.23641 0.74116 0.0
C421 C 0.81849 0.2403 0.83673 0.0
O422 O 0.81478 0.25305 0.81842 0.0
H423 H 0.69519 0.20282 0.76981 0.0
H424 H 0.90695 0.19859 0.73609 0.0
N425 N 0.90061 0.23516 0.75814 0.0
N426 N 0.97313 0.25528 0.76312 0.0
C427 C 0.90712 0.25036 0.75482 0.0
C428 C 0.96546 0.23014 0.76777 0.0
C429 C 1.01053 0.24252 0.77053 0.0
C430 C 0.75208 0.23729 0.70756 0.0
O431 O 0.81413 0.23265 0.69551 0.0
H432 H 0.86194 0.25777 0.75049 0.0
H433 H 0.97687 0.21866 0.7766 0.0
O434 O 0.80709 0.22773 0.82069 0.0
H435 H 0.84196 0.17203 0.7249 0.0
H436 H 0.06415 0.24227 0.78112 0.0
Cu437 Cu 0.46553 0.09529 0.76809 0.0
N438 N 0.47379 0.11585 0.75594 0.0
N439 N 0.5294 0.13809 0.74668 0.0
C440 C 0.53524 0.12364 0.75882 0.0
C441 C 0.461 0.1394 0.73579 0.0
C442 C 0.4269 0.12563 0.7414 0.0
O443 O 0.53888 0.08506 0.74047 0.0
C444 C 0.45984 0.08119 0.83599 0.0
O445 O 0.46349 0.06844 0.81767 0.0
H446 H 0.58335 0.11871 0.76973 0.0
H447 H 0.37234 0.12289 0.73479 0.0
N448 N 0.37799 0.08639 0.75733 0.0
N449 N 0.30537 0.06628 0.76227 0.0
C450 C 0.3714 0.07119 0.75399 0.0
C451 C 0.31315 0.09142 0.76696 0.0
C452 C 0.26802 0.07905 0.76969 0.0
C453 C 0.52658 0.0842 0.70686 0.0
O454 O 0.46465 0.08888 0.69477 0.0
H455 H 0.41655 0.06377 0.74967 0.0
H456 H 0.30179 0.1029 0.7758 0.0
O457 O 0.47138 0.09376 0.81997 0.0
H458 H 0.43753 0.14945 0.72387 0.0
H459 H 0.21439 0.0793 0.78027 0.0
Cu460 Cu 0.21603 0.9761 0.51815 0.0
N461 N 0.22425 0.95555 0.50599 0.0
N462 N 0.27984 0.93331 0.49666 0.0
C463 C 0.28571 0.94775 0.50882 0.0
C464 C 0.21142 0.932 0.48581 0.0
C465 C 0.17733 0.94577 0.49146 0.0
O466 O 0.28937 0.98633 0.49051 0.0
C467 C 0.21047 0.99021 0.58603 0.0
O468 O 0.21425 1.00296 0.5677 0.0
H469 H 0.33385 0.95269 0.5197 0.0
H470 H 0.12276 0.94851 0.48488 0.0
N471 N 0.12848 0.98501 0.50741 0.0
N472 N 0.05585 1.00511 0.5124 0.0
C473 C 0.12189 1.00021 0.50411 0.0
C474 C 0.06365 0.97997 0.51704 0.0
C475 C 0.01852 0.99234 0.5198 0.0
C476 C 0.27704 0.9872 0.4569 0.0
O477 O 0.21507 0.98253 0.44483 0.0
H478 H 0.16702 1.00763 0.49979 0.0
H479 H 0.0523 0.96849 0.52586 0.0
O480 O 0.22192 0.97764 0.57002 0.0
H481 H 0.18791 0.92195 0.47388 0.0
H482 H 0.9649 0.99208 0.53039 0.0
Cu483 Cu 0.56358 0.84518 0.51845 0.0
N484 N 0.55549 0.86573 0.50626 0.0
N485 N 0.50004 0.88798 0.49686 0.0
C486 C 0.49398 0.87352 0.50888 0.0
C487 C 0.56864 0.8893 0.48632 0.0
C488 C 0.60265 0.87553 0.49201 0.0
O489 O 0.4902 0.83497 0.49079 0.0
C490 C 0.56906 0.8311 0.58639 0.0
O491 O 0.56549 0.81834 0.56809 0.0
H492 H 0.44567 0.86857 0.51955 0.0
H493 H 0.65735 0.8728 0.48569 0.0
N494 N 0.65108 0.83624 0.50776 0.0
N495 N 0.72361 0.81612 0.51268 0.0
C496 C 0.65759 0.82104 0.50441 0.0
C497 C 0.71594 0.84126 0.51739 0.0
C498 C 0.76102 0.82888 0.52011 0.0
C499 C 0.50257 0.8341 0.45718 0.0
O500 O 0.56458 0.83876 0.44514 0.0
H501 H 0.61242 0.81363 0.50007 0.0
H502 H 0.72736 0.85273 0.52623 0.0
O503 O 0.55757 0.84366 0.57032 0.0
H504 H 0.59234 0.89937 0.47459 0.0
H505 H 0.81465 0.82912 0.53069 0.0
Cu506 Cu 0.21633 0.84523 0.29244 0.0
N507 N 0.22446 0.86579 0.30463 0.0
N508 N 0.27993 0.88804 0.31397 0.0
C509 C 0.28594 0.87358 0.30191 0.0
C510 C 0.2114 0.88935 0.32464 0.0
C511 C 0.17739 0.87558 0.31898 0.0
O512 O 0.28968 0.83502 0.32009 0.0
C513 C 0.21079 0.83116 0.22451 0.0
O514 O 0.21445 0.8184 0.24281 0.0
H515 H 0.33418 0.86865 0.29115 0.0
H516 H 0.12274 0.87284 0.32541 0.0
N517 N 0.1288 0.83631 0.30313 0.0
N518 N 0.05619 0.8162 0.29815 0.0
C519 C 0.12223 0.82111 0.30644 0.0
C520 C 0.06396 0.84134 0.29352 0.0
C521 C 0.01884 0.82897 0.29075 0.0
C522 C 0.27731 0.83414 0.3537 0.0
O523 O 0.2153 0.8388 0.36576 0.0
H524 H 0.16737 0.81368 0.31075 0.0
H525 H 0.05259 0.85282 0.28471 0.0
O526 O 0.2223 0.84371 0.24057 0.0
H527 H 0.18776 0.89942 0.33643 0.0
H528 H 0.9652 0.82923 0.28017 0.0
Cu529 Cu 0.56348 0.9762 0.29223 0.0
N530 N 0.55542 0.95565 0.30443 0.0
N531 N 0.49998 0.9334 0.31384 0.0
C532 C 0.49398 0.94784 0.3017 0.0
C533 C 0.56848 0.9321 0.32457 0.0
C534 C 0.60248 0.94588 0.31887 0.0
O535 O 0.49007 0.9864 0.31988 0.0
C536 C 0.5689 0.99029 0.22431 0.0
O537 O 0.56525 1.00304 0.24262 0.0
H538 H 0.44574 0.95277 0.2909 0.0
H539 H 0.65709 0.94863 0.32535 0.0
N540 N 0.65096 0.98515 0.30295 0.0
N541 N 0.72347 1.00527 0.29802 0.0
C542 C 0.65746 1.00035 0.30628 0.0
C543 C 0.71584 0.98013 0.29334 0.0
C544 C 0.7609 0.99251 0.29061 0.0
C545 C 0.5024 0.98727 0.35349 0.0
O546 O 0.56443 0.98263 0.36555 0.0
H547 H 0.61227 1.00776 0.31061 0.0
H548 H 0.72727 0.96865 0.28452 0.0
O549 O 0.5575 0.97772 0.24036 0.0
H550 H 0.59211 0.92206 0.33645 0.0
H551 H 0.81454 0.99227 0.28005 0.0
Cu552 Cu 0.8134 0.59534 0.04268 0.0
N553 N 0.80519 0.61589 0.05484 0.0
N554 N 0.74962 0.63813 0.06419 0.0
C555 C 0.74374 0.62369 0.05203 0.0
C556 C 0.81804 0.63943 0.07503 0.0
C557 C 0.85213 0.62567 0.06937 0.0
O558 O 0.74004 0.58512 0.07032 0.0
C559 C 0.8189 0.58123 0.97479 0.0
O560 O 0.81514 0.56848 0.99312 0.0
H561 H 0.69559 0.61875 0.04115 0.0
H562 H 0.9067 0.62292 0.07594 0.0
N563 N 0.90093 0.58642 0.0534 0.0
N564 N 0.97355 0.56632 0.04843 0.0
C565 C 0.90751 0.57122 0.05671 0.0
C566 C 0.96577 0.59146 0.0438 0.0
C567 C 1.0109 0.57909 0.04104 0.0
C568 C 0.75238 0.58425 0.10393 0.0
O569 O 0.81438 0.58891 0.11599 0.0
H570 H 0.86236 0.5638 0.06102 0.0
H571 H 0.97714 0.60294 0.03498 0.0
O572 O 0.80748 0.5938 0.99081 0.0
H573 H 0.84155 0.64948 0.08697 0.0
H574 H 0.06453 0.57935 1.03047 0.0
Cu575 Cu 0.46576 0.72625 0.04248 0.0
N576 N 0.4739 0.7057 0.05467 0.0
N577 N 0.52939 0.68345 0.06406 0.0
C578 C 0.53543 0.69791 0.05204 0.0
C579 C 0.4608 0.68212 0.07461 0.0
C580 C 0.42677 0.69589 0.06892 0.0
O581 O 0.53916 0.73646 0.07011 0.0
C582 C 0.46019 0.74033 0.97456 0.0
O583 O 0.46383 0.75309 0.99286 0.0
H584 H 0.58372 0.70286 0.04137 0.0
H585 H 0.37207 0.69862 0.07526 0.0
N586 N 0.37826 0.73518 0.0532 0.0
N587 N 0.30571 0.7553 0.04826 0.0
C588 C 0.37173 0.75038 0.05654 0.0
C589 C 0.3134 0.73016 0.04358 0.0
C590 C 0.26832 0.74254 0.04084 0.0
C591 C 0.52685 0.73734 0.10372 0.0
O592 O 0.46486 0.73268 0.1158 0.0
H593 H 0.4169 0.7578 0.06087 0.0
H594 H 0.302 0.71868 0.03473 0.0
O595 O 0.47169 0.72777 0.99061 0.0
H596 H 0.43712 0.67205 0.08634 0.0
H597 H 0.21469 0.74229 1.03026 0.0
Cu598 Cu 0.8134 0.72623 0.2683 0.0
N599 N 0.80521 0.70568 0.2561 0.0
N600 N 0.74963 0.68344 0.24677 0.0
C601 C 0.74379 0.69787 0.25899 0.0
C602 C 0.81799 0.68215 0.23581 0.0
C603 C 0.85207 0.69591 0.24146 0.0
O604 O 0.74 0.73645 0.2407 0.0
C605 C 0.81906 0.74029 0.33625 0.0
O606 O 0.81543 0.75305 0.31797 0.0
H607 H 0.6957 0.70279 0.26996 0.0
H608 H 0.90658 0.69867 0.2348 0.0
N609 N 0.90091 0.73515 0.25757 0.0
N610 N 0.97352 0.75525 0.26253 0.0
C611 C 0.90748 0.75035 0.25427 0.0
C612 C 0.96578 0.73011 0.26715 0.0
C613 C 1.0109 0.74249 0.2699 0.0
C614 C 0.75231 0.73733 0.20709 0.0
O615 O 0.81429 0.73267 0.195 0.0
H616 H 0.86232 0.75777 0.24998 0.0
H617 H 0.97716 0.71863 0.27595 0.0
O618 O 0.80752 0.72773 0.32018 0.0
H619 H 0.84144 0.67211 0.2238 0.0
H620 H 0.06455 0.74222 0.28045 0.0
Cu621 Cu 0.46605 0.59528 0.26866 0.0
N622 N 0.47411 0.61583 0.2565 0.0
N623 N 0.5295 0.63809 0.24708 0.0
C624 C 0.53564 0.62362 0.25904 0.0
C625 C 0.46084 0.63942 0.23665 0.0
C626 C 0.42686 0.62564 0.24235 0.0
O627 O 0.53944 0.58508 0.24099 0.0
C628 C 0.46066 0.58117 0.33654 0.0
O629 O 0.46438 0.56842 0.31821 0.0
H630 H 0.58401 0.61867 0.26962 0.0
H631 H 0.37212 0.62292 0.23611 0.0
N632 N 0.37856 0.58634 0.25795 0.0
N633 N 0.30608 0.56621 0.2629 0.0
C634 C 0.37207 0.57114 0.2546 0.0
C635 C 0.31371 0.59135 0.26762 0.0
C636 C 0.26867 0.57896 0.27036 0.0
C637 C 0.52708 0.58422 0.20738 0.0
O638 O 0.46507 0.58887 0.19533 0.0
H639 H 0.41725 0.56373 0.25023 0.0
H640 H 0.30229 0.60282 0.27649 0.0
O641 O 0.47206 0.59374 0.32052 0.0
H642 H 0.43706 0.6495 0.225 0.0
H643 H 0.21506 0.5792 0.28097 0.0
Cu644 Cu 0.21624 0.47632 1.01854 0.0
N645 N 0.22431 0.45576 1.00634 0.0
N646 N 0.27975 0.43351 0.99701 0.0
C647 C 0.28571 0.44795 1.00917 0.0
C648 C 0.21132 0.43222 0.98615 0.0
C649 C 0.17732 0.446 0.9918 0.0
O650 O 0.28964 0.48652 0.99089 0.0
C651 C 0.21076 0.49038 0.08649 0.0
O652 O 0.21438 0.50314 0.06822 0.0
H653 H 0.33388 0.45286 1.02007 0.0
H654 H 0.12278 0.44876 0.98522 0.0
N655 N 0.12875 0.48526 1.00785 0.0
N656 N 0.05618 0.50537 1.01282 0.0
C657 C 0.12222 0.50046 1.00456 0.0
C658 C 0.06387 0.48023 1.01742 0.0
C659 C 0.01878 0.4926 1.02018 0.0
C660 C 0.27727 0.4874 0.95728 0.0
O661 O 0.21522 0.48276 0.94523 0.0
H662 H 0.16739 0.50788 1.00027 0.0
H663 H 0.05246 0.46874 1.0262 0.0
O664 O 0.22224 0.47782 0.07041 0.0
H665 H 0.18776 0.42218 0.97421 0.0
H666 H 0.96512 0.49234 0.03072 0.0
Cu667 Cu 0.56305 0.34531 1.01889 0.0
N668 N 0.55502 0.36586 1.00668 0.0
N669 N 0.49967 0.38812 0.99725 0.0
C670 C 0.49354 0.37366 1.00929 0.0
C671 C 0.56827 0.38942 0.9867 0.0
C672 C 0.60222 0.37565 0.99241 0.0
O673 O 0.48962 0.3351 0.99127 0.0
C674 C 0.56851 0.33123 0.08681 0.0
O675 O 0.56471 0.31847 0.0685 0.0
H676 H 0.44522 0.36873 1.01997 0.0
H677 H 0.6569 0.3729 0.98608 0.0
N678 N 0.65052 0.33636 1.00818 0.0
N679 N 0.72304 0.31624 1.01315 0.0
C680 C 0.65702 0.32116 1.00488 0.0
C681 C 0.7154 0.34138 1.01778 0.0
C682 C 0.76047 0.329 1.02053 0.0
C683 C 0.50195 0.33422 0.95766 0.0
O684 O 0.56397 0.33885 0.94559 0.0
H685 H 0.61183 0.31374 1.00058 0.0
H686 H 0.72684 0.35286 1.02659 0.0
O687 O 0.55712 0.34379 0.07076 0.0
H688 H 0.59202 0.39949 0.97495 0.0
H689 H 0.81412 0.32925 0.03109 0.0
Cu690 Cu 0.21569 0.34527 0.7929 0.0
N691 N 0.22388 0.36583 0.80501 0.0
N692 N 0.27942 0.38808 0.81431 0.0
C693 C 0.28541 0.37361 0.80233 0.0
C694 C 0.21085 0.38942 0.82489 0.0
C695 C 0.17679 0.37564 0.81926 0.0
O696 O 0.28901 0.33506 0.8206 0.0
C697 C 0.21025 0.33114 0.72503 0.0
O698 O 0.21389 0.3184 0.74338 0.0
H699 H 0.33367 0.36865 0.79164 0.0
H700 H 0.1221 0.37293 0.82564 0.0
N701 N 0.12814 0.33636 0.80361 0.0
N702 N 0.05556 0.31625 0.79865 0.0
C703 C 0.12156 0.32116 0.80697 0.0
C704 C 0.06332 0.34138 0.79392 0.0
C705 C 0.01822 0.32901 0.79118 0.0
C706 C 0.27664 0.33421 0.85421 0.0
O707 O 0.21465 0.33889 0.86624 0.0
H708 H 0.1667 0.31374 0.81134 0.0
H709 H 0.05198 0.35286 0.78505 0.0
O710 O 0.22171 0.34371 0.74104 0.0
H711 H 0.18722 0.3995 0.83661 0.0
H712 H 0.96462 0.32926 0.78055 0.0
Cu713 Cu 0.56359 0.47616 0.79261 0.0
N714 N 0.55535 0.45561 0.80482 0.0
N715 N 0.49975 0.43338 0.81423 0.0
C716 C 0.49387 0.44782 0.80206 0.0
C717 C 0.5682 0.43207 0.82503 0.0
C718 C 0.6023 0.44583 0.81933 0.0
O719 O 0.49024 0.48639 0.82023 0.0
C720 C 0.56921 0.49024 0.72469 0.0
O721 O 0.56554 0.50299 0.743 0.0
H722 H 0.44571 0.45275 0.7912 0.0
H723 H 0.6569 0.44857 0.82585 0.0
N724 N 0.65112 0.48507 0.80334 0.0
N725 N 0.72373 0.50518 0.7984 0.0
C726 C 0.65769 0.50027 0.80667 0.0
C727 C 0.71597 0.48004 0.79373 0.0
C728 C 0.76109 0.49241 0.791 0.0
C729 C 0.50258 0.48727 0.85384 0.0
O730 O 0.56454 0.48259 0.86592 0.0
H731 H 0.61254 0.50769 0.81099 0.0
H732 H 0.72734 0.46856 0.7849 0.0
O733 O 0.5577 0.47768 0.74074 0.0
H734 H 0.59172 0.42202 0.83696 0.0
H735 H 0.81473 0.49216 0.78043 0.0
C736 C 0.12317 0.08024 0.11847 0.0
C737 C 0.19451 0.08086 0.12947 0.0
H738 H 1.014 0.0806 0.13455 0.0
C739 C 0.21011 0.08021 0.16641 0.0
H740 H 0.10935 0.08064 0.09026 0.0
C741 C 0.15547 0.0802 0.19188 0.0
C742 C 0.08415 0.08088 0.18088 0.0
H743 H 0.26465 0.08049 0.17579 0.0
H744 H 0.1693 0.08057 0.22009 0.0
C745 C 0.06853 0.08026 0.14394 0.0
C746 C 0.12332 0.24131 0.19257 0.0
C747 C 0.19462 0.24069 0.18151 0.0
H748 H 1.01409 0.24095 0.17658 0.0
C749 C 0.21009 0.24134 0.14455 0.0
H750 H 0.1096 0.24091 0.22079 0.0
C751 C 0.15536 0.24134 0.11913 0.0
C752 C 0.08407 0.24066 0.13019 0.0
H753 H 0.26459 0.24105 0.13512 0.0
H754 H 0.16908 0.24097 0.09091 0.0
C755 C 0.06859 0.24129 0.16715 0.0
C756 C 0.87297 0.99128 0.86831 0.0
C757 C 0.94429 0.99067 0.87935 0.0
H758 H 0.76377 0.99091 0.88433 0.0
C759 C 0.9598 0.99133 0.9163 0.0
H760 H 0.85922 0.99088 0.84009 0.0
C761 C 0.90511 0.99133 0.94174 0.0
C762 C 0.83381 0.99064 0.9307 0.0
H763 H 1.01432 0.99105 0.92572 0.0
H764 H 0.91887 0.99096 0.96996 0.0
C765 C 0.81828 0.99126 0.89374 0.0
C766 C 0.90548 0.83021 0.86885 0.0
C767 C 0.83418 0.83087 0.8799 0.0
H768 H 0.0147 0.83053 0.88486 0.0
C769 C 0.81869 0.83024 0.91686 0.0
H770 H 0.91922 0.83058 0.84063 0.0
C771 C 0.8734 0.83023 0.94229 0.0
C772 C 0.9447 0.83087 0.93124 0.0
H773 H 0.76418 0.83056 0.92628 0.0
H774 H 0.85966 0.83062 0.97051 0.0
C775 C 0.96019 0.83022 0.89428 0.0
C776 C 0.124 0.58007 0.61903 0.0
C777 C 0.19531 0.58074 0.63006 0.0
H778 H 0.01479 0.58039 0.63505 0.0
C779 C 0.21084 0.58013 0.66702 0.0
H780 H 0.11024 0.58044 0.59081 0.0
C781 C 0.15615 0.58012 0.69246 0.0
C782 C 0.08483 0.58075 0.68142 0.0
H783 H 0.26535 0.58046 0.67643 0.0
H784 H 0.16991 0.58053 0.72067 0.0
C785 C 0.06931 0.58009 0.64446 0.0
C786 C 0.15577 0.74119 0.61866 0.0
C787 C 0.08446 0.74053 0.62968 0.0
H788 H 0.26497 0.7409 0.63471 0.0
C789 C 0.0689 0.74118 0.66663 0.0
H790 H 0.16955 0.7408 0.59044 0.0
C791 C 0.12357 0.74121 0.69208 0.0
C792 C 0.19489 0.74057 0.68106 0.0
H793 H 1.01438 0.74085 0.67603 0.0
H794 H 0.10979 0.74083 0.72029 0.0
C795 C 0.21044 0.7412 0.64411 0.0
C796 C 0.96096 0.49119 0.41691 0.0
C797 C 0.94544 0.49056 0.37996 0.0
H798 H 0.92002 0.4908 0.47057 0.0
C799 C 0.87414 0.49123 0.36892 0.0
H800 H 0.01548 0.49086 0.42633 0.0
C801 C 0.81944 0.49121 0.39435 0.0
C802 C 0.83496 0.49056 0.43131 0.0
H803 H 0.86038 0.49086 0.3407 0.0
H804 H 0.76492 0.49091 0.38494 0.0
C805 C 0.90627 0.4912 0.44235 0.0
C806 C 0.90574 0.33012 0.36912 0.0
C807 C 0.83443 0.33079 0.38015 0.0
H808 H 0.01495 0.3304 0.38515 0.0
C809 C 0.8189 0.33015 0.4171 0.0
H810 H 0.9195 0.33051 0.3409 0.0
C811 C 0.87359 0.33011 0.44254 0.0
C812 C 0.9449 0.33074 0.43151 0.0
H813 H 0.76438 0.33048 0.42651 0.0
H814 H 0.85982 0.33049 0.47076 0.0
C815 C 0.96043 0.33011 0.39456 0.0
C816 C 0.62328 0.08013 0.61846 0.0
C817 C 0.69458 0.08073 0.62954 0.0
H818 H 0.51404 0.08054 0.63442 0.0
C819 C 0.71001 0.08008 0.6665 0.0
H820 H 0.60959 0.08053 0.59024 0.0
C821 C 0.65526 0.08011 0.69191 0.0
C822 C 0.58398 0.08082 0.68083 0.0
H823 H 0.76451 0.08036 0.67595 0.0
H824 H 0.66896 0.08049 0.72014 0.0
C825 C 0.56853 0.08019 0.64387 0.0
C826 C 0.65546 0.2412 0.6191 0.0
C827 C 0.58416 0.24051 0.63014 0.0
H828 H 0.76468 0.24095 0.63513 0.0
C829 C 0.56863 0.24115 0.66709 0.0
H830 H 0.66922 0.24082 0.59088 0.0
C831 C 0.62333 0.2412 0.69253 0.0
C832 C 0.69465 0.24059 0.6815 0.0
H833 H 0.51412 0.24081 0.67651 0.0
H834 H 0.60958 0.24081 0.72075 0.0
C835 C 0.71016 0.24123 0.64454 0.0
C836 C 0.31895 0.99119 0.3939 0.0
C837 C 0.33444 0.99055 0.43086 0.0
H838 H 0.35992 0.99084 0.34026 0.0
C839 C 0.40574 0.99122 0.44192 0.0
H840 H 0.26444 0.99087 0.38448 0.0
C841 C 0.46045 0.99123 0.41649 0.0
C842 C 0.44496 0.99059 0.37953 0.0
H843 H 0.41947 0.99084 0.47014 0.0
H844 H 0.51496 0.99093 0.42592 0.0
C845 C 0.37366 0.99123 0.36848 0.0
C846 C 0.46069 0.83014 0.39417 0.0
C847 C 0.44516 0.83077 0.43112 0.0
H848 H 0.41977 0.83052 0.34051 0.0
C849 C 0.37385 0.83013 0.44216 0.0
H850 H 0.51521 0.83045 0.38476 0.0
C851 C 0.31916 0.83015 0.41671 0.0
C852 C 0.33469 0.83079 0.37976 0.0
H853 H 0.36009 0.83051 0.47037 0.0
H854 H 0.26464 0.83047 0.42612 0.0
C855 C 0.406 0.83013 0.36873 0.0
C856 C 0.71049 0.58026 0.16693 0.0
C857 C 0.69498 0.5809 0.12998 0.0
H858 H 0.66955 0.58062 0.22058 0.0
C859 C 0.62367 0.58025 0.11893 0.0
H860 H 0.76501 0.58057 0.17635 0.0
C861 C 0.56897 0.58026 0.14436 0.0
C862 C 0.58449 0.58089 0.18132 0.0
H863 H 0.60992 0.58064 0.09071 0.0
H864 H 0.51446 0.58057 0.13495 0.0
C865 C 0.65579 0.58024 0.19237 0.0
C866 C 0.71032 0.74132 0.1441 0.0
C867 C 0.69486 0.74067 0.18106 0.0
H868 H 0.66929 0.74095 0.09046 0.0
C869 C 0.62357 0.74132 0.19213 0.0
H870 H 0.76482 0.74101 0.13466 0.0
C871 C 0.56883 0.74131 0.16672 0.0
C872 C 0.58429 0.74068 0.12975 0.0
H873 H 0.60986 0.74093 0.22035 0.0
H874 H 0.51433 0.74099 0.17615 0.0
C875 C 0.65558 0.74133 0.11869 0.0
C876 C 0.46072 0.49129 0.91684 0.0
C877 C 0.4452 0.49064 0.87988 0.0
H878 H 0.41977 0.49095 0.97049 0.0
C879 C 0.3739 0.49132 0.86883 0.0
H880 H 0.51523 0.49095 0.92626 0.0
C881 C 0.3192 0.49134 0.89427 0.0
C882 C 0.3347 0.49071 0.93123 0.0
H883 H 0.36015 0.49093 0.84062 0.0
H884 H 0.26468 0.49104 0.88485 0.0
C885 C 0.40601 0.49133 0.94227 0.0
C886 C 0.31851 0.33027 0.91723 0.0
C887 C 0.33402 0.33088 0.88027 0.0
H888 H 0.35946 0.33067 0.97088 0.0
C889 C 0.40532 0.3302 0.86923 0.0
H890 H 0.264 0.33061 0.92665 0.0
C891 C 0.46003 0.33021 0.89467 0.0
C892 C 0.44452 0.33088 0.93162 0.0
H893 H 0.41907 0.33056 0.84101 0.0
H894 H 0.51454 0.3305 0.88525 0.0
C895 C 0.37321 0.33026 0.94267 0.0
C896 C 0.5652 0.04633 0.04102 0.0
C897 C 0.49347 0.05073 0.03954 0.0
H898 H 0.64118 1.02852 0.03405 0.0
C899 C 0.44259 0.03993 1.02834 0.0
H900 H 0.60556 0.05431 0.04975 0.0
C901 C 0.46298 1.02512 1.01902 0.0
C902 C 0.53471 1.02072 1.0205 0.0
H903 H 0.387 0.04292 1.02599 0.0
H904 H 0.42262 1.01714 1.01029 0.0
C905 C 0.58558 1.03152 0.0317 0.0
C906 C 0.69279 0.28996 0.03261 0.0
C907 C 0.74367 0.30076 1.02138 0.0
H908 H 0.67281 0.26718 0.05069 0.0
C909 C 0.81539 0.29635 1.01987 0.0
H910 H 0.63721 0.29297 0.03497 0.0
C911 C 0.83577 0.28155 1.0292 0.0
C912 C 0.78489 0.27075 0.04043 0.0
H913 H 0.85575 0.30433 1.01112 0.0
H914 H 0.89135 0.27854 1.02684 0.0
C915 C 0.71317 0.27516 0.04194 0.0
C916 C 0.44308 0.28158 0.2825 0.0
C917 C 0.49392 0.27078 0.27124 0.0
H918 H 0.42317 0.30436 0.30061 0.0
C919 C 0.56565 0.27518 0.26973 0.0
H920 H 0.38748 0.27858 0.28487 0.0
C921 C 0.58607 0.28998 0.27907 0.0
C922 C 0.53523 0.30078 0.29033 0.0
H923 H 0.60598 0.2672 0.26095 0.0
H924 H 0.64166 0.29298 0.2767 0.0
C925 C 0.4635 0.29638 0.29184 0.0
C926 C 0.69319 1.03155 0.27863 0.0
C927 C 0.74409 1.02075 0.28981 0.0
H928 H 0.67316 0.05434 0.26061 0.0
C929 C 0.81581 1.02516 0.29129 0.0
H930 H 0.63759 1.02855 0.27629 0.0
C931 C 0.83617 0.03997 0.28198 0.0
C932 C 0.78527 0.05077 0.2708 0.0
H933 H 0.85619 1.01718 0.30001 0.0
H934 H 0.89176 0.04297 0.28432 0.0
C935 C 0.71354 0.04636 0.26932 0.0
C936 C 0.33597 0.78158 1.02883 0.0
C937 C 0.28509 0.77077 0.04003 0.0
H938 H 0.35597 0.80436 1.01077 0.0
C939 C 0.21336 0.77518 0.04152 0.0
H940 H 0.39156 0.77858 1.02648 0.0
C941 C 0.19299 0.78999 0.03219 0.0
C942 C 0.24388 0.80079 1.02098 0.0
H943 H 0.17299 0.76721 0.05025 0.0
H944 H 0.1374 0.79299 0.03454 0.0
C945 C 0.3156 0.79638 1.0195 0.0
C946 C 0.58597 0.78995 0.77885 0.0
C947 C 0.53508 0.80075 0.79006 0.0
H948 H 0.60599 0.76717 0.76078 0.0
C949 C 0.46335 0.79634 0.79152 0.0
H950 H 0.64157 0.79295 0.77652 0.0
C951 C 0.44299 0.78154 0.78218 0.0
C952 C 0.49389 0.77074 0.77098 0.0
H953 H 0.42297 0.80432 0.80025 0.0
H954 H 0.3874 0.77853 0.78451 0.0
C955 C 0.56562 0.77514 0.76951 0.0
C956 C 0.19259 1.0316 0.77835 0.0
C957 C 0.24345 1.0208 0.78958 0.0
H958 H 0.17263 0.05438 0.76026 0.0
C959 C 0.31518 1.0252 0.79109 0.0
H960 H 0.137 1.0286 0.77599 0.0
C961 C 0.33557 0.04 0.78175 0.0
C962 C 0.28471 0.05081 0.77051 0.0
H963 H 0.35553 1.01723 0.79984 0.0
H964 H 0.39116 0.043 0.78411 0.0
C965 C 0.21298 0.0464 0.76901 0.0
C966 C 0.46401 0.52506 0.51959 0.0
C967 C 0.53575 0.52066 0.52109 0.0
H968 H 0.388 0.54286 0.52658 0.0
C969 C 0.5866 0.53146 0.53232 0.0
H970 H 0.42367 0.51708 0.51083 0.0
C971 C 0.56618 0.54627 0.54166 0.0
C972 C 0.49445 0.55066 0.54017 0.0
H973 H 0.64219 0.52847 0.53468 0.0
H974 H 0.60652 0.55424 0.55042 0.0
C975 C 0.4436 0.53986 0.52893 0.0
C976 C 0.81595 0.79623 0.51939 0.0
C977 C 0.74423 0.80064 0.52088 0.0
H978 H 0.89191 0.77842 0.52634 0.0
C979 C 0.69334 0.78983 0.53207 0.0
H980 H 0.85632 0.80421 0.51067 0.0
C981 C 0.71371 0.77502 0.54137 0.0
C982 C 0.78543 0.77062 0.53988 0.0
H983 H 0.63775 0.79284 0.53442 0.0
H984 H 0.67334 0.76704 0.55009 0.0
C985 C 0.83632 0.78142 0.52869 0.0
C986 C 0.83652 0.53986 0.78238 0.0
C987 C 0.78567 0.55067 0.77113 0.0
H988 H 0.85646 0.51708 0.80046 0.0
C989 C 0.71394 0.54626 0.7696 0.0
H990 H 0.89211 0.54287 0.78476 0.0
C991 C 0.69354 0.53146 0.77892 0.0
C992 C 0.74439 0.52065 0.79017 0.0
H993 H 0.6736 0.55424 0.76083 0.0
H994 H 0.63796 0.52846 0.77654 0.0
C995 C 0.81612 0.52506 0.7917 0.0
C996 C 0.19302 0.28978 0.53254 0.0
C997 C 0.24391 0.30058 0.52135 0.0
H998 H 0.173 0.26699 0.55058 0.0
C999 C 0.31564 0.29617 0.51986 0.0
H1000 H 0.13743 0.29278 0.53488 0.0
C1001 C 0.33599 0.28136 0.52918 0.0
C1002 C 0.2851 0.27056 0.54037 0.0
H1003 H 0.35601 0.30414 0.51113 0.0
H1004 H 0.39158 0.27836 0.52683 0.0
C1005 C 0.21337 0.27497 0.54185 0.0
C1006 C 0.31614 0.52512 0.2916 0.0
C1007 C 0.24442 0.5207 0.29015 0.0
H1008 H 0.39204 0.54294 0.2846 0.0
C1009 C 0.19348 0.5315 0.27899 0.0
H1010 H 0.35655 0.51714 0.3003 0.0
C1011 C 0.2138 0.54631 0.26967 0.0
C1012 C 0.28551 0.55073 0.27112 0.0
H1013 H 0.13789 0.5285 0.27667 0.0
H1014 H 0.17339 0.55429 0.26096 0.0
C1015 C 0.33645 0.53993 0.28228 0.0
C1016 C 0.08604 1.03138 0.53194 0.0
C1017 C 0.03519 1.02058 0.52068 0.0
H1018 H 0.10599 0.05415 0.55008 0.0
C1019 C 0.96346 1.02498 0.51919 0.0
H1020 H 0.14164 1.02838 0.53429 0.0
C1021 C 0.94305 0.03978 0.52855 0.0
C1022 C 0.99391 0.05058 0.5398 0.0
H1023 H 0.92311 1.01701 0.51041 0.0
H1024 H 0.88746 0.04278 0.52619 0.0
C1025 C 0.06564 0.04618 0.5413 0.0
C1026 C 0.06547 0.27516 0.7699 0.0
C1027 C 0.99374 0.27075 0.77136 0.0
H1028 H 0.14143 0.29297 0.77692 0.0
C1029 C 0.94284 0.28156 0.78253 0.0
H1030 H 0.10585 0.26718 0.76119 0.0
C1031 C 0.9632 0.29637 0.79187 0.0
C1032 C 0.03494 0.30077 0.79042 0.0
H1033 H 0.88724 0.27856 0.78485 0.0
H1034 H 0.92283 0.30434 0.80058 0.0
C1035 C 0.08584 0.28997 0.77924 0.0
C1036 C 0.96378 0.79633 0.29139 0.0
C1037 C 0.03552 0.80073 0.28989 0.0
H1038 H 0.88777 0.77853 0.28439 0.0
C1039 C 0.08636 0.78993 0.27865 0.0
H1040 H 0.92345 0.80431 0.30015 0.0
C1041 C 0.06594 0.77513 0.26929 0.0
C1042 C 0.99421 0.77073 0.27079 0.0
H1043 H 0.14196 0.79292 0.27629 0.0
H1044 H 0.10628 0.76715 0.26053 0.0
C1045 C 0.94336 0.78153 0.28203 0.0
C1046 C 0.08636 0.53164 0.03233 0.0
C1047 C 0.03551 0.52084 1.02108 0.0
H1048 H 0.10629 0.55442 0.05044 0.0
C1049 C 0.96378 0.52524 1.01957 0.0
H1050 H 0.14196 0.52865 0.03469 0.0
C1051 C 0.94337 0.54004 1.02892 0.0
C1052 C 0.99422 0.55085 0.04017 0.0
H1053 H 0.92344 0.51727 1.0108 0.0
H1054 H 0.88778 0.54304 1.02656 0.0
C1055 C 0.06595 0.54645 0.04168 0.0
C1056 C 0.37023 0.09499 0.9213 0.0
C1057 C 0.35106 0.08121 0.93796 0.0
H1058 H 0.42103 0.10582 0.87668 0.0
C1059 C 0.37026 0.06743 0.92132 0.0
H1060 H 0.35709 0.10583 0.93354 0.0
C1061 C 0.40753 0.06743 0.8888 0.0
C1062 C 0.42685 0.08121 0.87219 0.0
H1063 H 0.35707 0.0566 0.93356 0.0
H1064 H 0.42062 0.0566 0.87654 0.0
C1065 C 0.4078 0.09499 0.88888 0.0
C1066 C 0.9081 0.22652 0.92207 0.0
C1067 C 0.92712 0.24031 0.93875 0.0
H1068 H 0.85745 0.21568 0.87741 0.0
C1069 C 0.90781 0.25409 0.92212 0.0
H1070 H 0.92132 0.21569 0.93429 0.0
C1071 C 0.87058 0.25408 0.88958 0.0
C1072 C 0.85141 0.24029 0.87295 0.0
H1073 H 0.92089 0.26492 0.93437 0.0
H1074 H 0.8574 0.26491 0.87733 0.0
C1075 C 0.87056 0.22651 0.88963 0.0
C1076 C 0.40832 0.22642 0.42199 0.0
C1077 C 0.42743 0.24019 0.43873 0.0
H1078 H 0.3576 0.21562 0.37729 0.0
C1079 C 0.4082 0.25399 0.42215 0.0
H1080 H 0.42147 0.21558 0.43417 0.0
C1081 C 0.37097 0.25401 0.38962 0.0
C1082 C 0.35171 0.24024 0.37294 0.0
H1083 H 0.42135 0.26481 0.43445 0.0
H1084 H 0.35785 0.26485 0.37741 0.0
C1085 C 0.37078 0.22645 0.38956 0.0
C1086 C 0.87111 0.06734 0.42148 0.0
C1087 C 0.85185 0.08111 0.43815 0.0
H1088 H 0.92152 0.05653 0.37668 0.0
C1089 C 0.87098 0.0949 0.42153 0.0
H1090 H 0.85794 0.0565 0.43369 0.0
C1091 C 0.90857 0.09492 0.38911 0.0
C1092 C 0.92767 0.08114 0.37239 0.0
H1093 H 0.8578 0.10573 0.43378 0.0
H1094 H 0.92176 0.10576 0.37693 0.0
C1095 C 0.90839 0.06735 0.38896 0.0
C1096 C 0.65825 0.97651 0.13891 0.0
C1097 C 0.6772 0.99029 0.12221 0.0
H1098 H 0.60776 0.96566 0.18362 0.0
C1099 C 0.65794 1.00407 0.13886 0.0
H1100 H 0.67143 0.96568 0.12668 0.0
C1101 C 0.62083 1.00406 0.17142 0.0
C1102 C 0.60172 0.99028 0.18807 0.0
H1103 H 0.67097 1.0149 0.12659 0.0
H1104 H 0.60768 1.01489 0.18368 0.0
C1105 C 0.62082 0.9765 0.17138 0.0
C1106 C 0.12105 0.81742 0.13919 0.0
C1107 C 0.10179 0.83121 0.1226 0.0
H1108 H 0.17154 0.80658 0.18392 0.0
C1109 C 0.12099 0.84499 0.13928 0.0
H1110 H 0.10784 0.8066 0.12694 0.0
C1111 C 0.15865 0.84497 0.17168 0.0
C1112 C 0.17775 0.83119 0.18832 0.0
H1113 H 0.10782 0.85583 0.12708 0.0
H1114 H 0.17189 0.8558 0.18391 0.0
C1115 C 0.1584 0.81741 0.17169 0.0
C1116 C 0.65834 0.81737 0.67183 0.0
C1117 C 0.67751 0.83116 0.68845 0.0
H1118 H 0.6081 0.80652 0.62704 0.0
C1119 C 0.65841 0.84494 0.67174 0.0
H1120 H 0.67148 0.80655 0.6841 0.0
C1121 C 0.62093 0.84492 0.63929 0.0
C1122 C 0.60192 0.83113 0.62262 0.0
H1123 H 0.67151 0.85578 0.68395 0.0
H1124 H 0.60775 0.85575 0.62704 0.0
C1125 C 0.62117 0.81736 0.63928 0.0
C1126 C 0.15822 0.97645 0.63892 0.0
C1127 C 0.1774 0.99022 0.62221 0.0
H1128 H 0.10734 0.96564 0.68356 0.0
C1129 C 0.15811 1.00401 0.63878 0.0
H1130 H 0.17142 0.96561 0.62674 0.0
C1131 C 0.12076 1.00403 0.67128 0.0
C1132 C 0.10144 0.99026 0.68793 0.0
H1133 H 0.1713 1.01483 0.62651 0.0
H1134 H 0.1076 1.01487 0.68349 0.0
C1135 C 0.12057 0.97647 0.67131 0.0
C1136 C 0.37136 0.56735 0.4219 0.0
C1137 C 0.35203 0.58112 0.43855 0.0
H1138 H 0.42178 0.55655 0.37709 0.0
C1139 C 0.37103 0.59491 0.4219 0.0
H1140 H 0.3583 0.55651 0.43413 0.0
C1141 C 0.40856 0.59493 0.38946 0.0
C1142 C 0.42774 0.58116 0.37276 0.0
H1143 H 0.3578 0.60574 0.43414 0.0
H1144 H 0.42165 0.60577 0.37726 0.0
C1145 C 0.40859 0.56737 0.38936 0.0
C1146 C 0.87134 0.75402 0.38912 0.0
C1147 C 0.85202 0.74025 0.37246 0.0
H1148 H 0.92178 0.76482 0.43392 0.0
C1149 C 0.87106 0.72646 0.3891 0.0
H1150 H 0.85825 0.76486 0.37689 0.0
C1151 C 0.90862 0.72644 0.42153 0.0
C1152 C 0.92779 0.74021 0.43824 0.0
H1153 H 0.85784 0.71563 0.37686 0.0
H1154 H 0.92175 0.7156 0.43373 0.0
C1155 C 0.9086 0.754 0.42164 0.0
C1156 C 0.40817 0.72652 0.92168 0.0
C1157 C 0.42725 0.74031 0.93835 0.0
H1158 H 0.35748 0.71568 0.87703 0.0
C1159 C 0.40797 0.75409 0.92171 0.0
H1160 H 0.42136 0.71569 0.93391 0.0
C1161 C 0.37073 0.75408 0.88918 0.0
C1162 C 0.35151 0.7403 0.87256 0.0
H1163 H 0.42109 0.76492 0.93396 0.0
H1164 H 0.35758 0.76491 0.87692 0.0
C1165 C 0.37062 0.72652 0.88925 0.0
C1166 C 0.90867 0.59498 0.88947 0.0
C1167 C 0.92776 0.58119 0.87284 0.0
H1168 H 0.8579 0.60584 0.93407 0.0
C1169 C 0.90846 0.56742 0.88949 0.0
H1170 H 0.92188 0.60581 0.87723 0.0
C1171 C 0.87116 0.56744 0.92201 0.0
C1172 C 0.85191 0.58123 0.93859 0.0
H1173 H 0.92159 0.55658 0.87728 0.0
H1174 H 0.85799 0.55661 0.93428 0.0
C1175 C 0.87107 0.595 0.92188 0.0
C1176 C 0.65877 0.50399 0.63935 0.0
C1177 C 0.67801 0.49021 0.62273 0.0
H1178 H 0.60837 0.51483 0.68411 0.0
C1179 C 0.65887 0.47643 0.6394 0.0
H1180 H 0.67194 0.51482 0.6271 0.0
C1181 C 0.62128 0.47643 0.67182 0.0
C1182 C 0.60219 0.49022 0.68849 0.0
H1183 H 0.67203 0.46559 0.62718 0.0
H1184 H 0.60808 0.4656 0.68403 0.0
C1185 C 0.62149 0.504 0.67187 0.0
C1186 C 0.12074 0.34489 0.63965 0.0
C1187 C 0.10165 0.3311 0.62301 0.0
H1188 H 0.17143 0.35575 0.68428 0.0
C1189 C 0.12087 0.31733 0.63969 0.0
H1190 H 0.10759 0.35572 0.6274 0.0
C1191 C 0.15808 0.31735 0.67223 0.0
C1192 C 0.17734 0.33114 0.68881 0.0
H1193 H 0.10773 0.30649 0.62747 0.0
H1194 H 0.1712 0.30652 0.68451 0.0
C1195 C 0.15826 0.34491 0.67209 0.0
C1196 C 0.62079 0.34501 0.13966 0.0
C1197 C 0.60155 0.33123 0.123 0.0
H1198 H 0.6717 0.35583 0.18428 0.0
C1199 C 0.62074 0.31744 0.13961 0.0
H1200 H 0.60766 0.35585 0.12745 0.0
C1201 C 0.65808 0.31743 0.17212 0.0
C1202 C 0.67747 0.33121 0.18873 0.0
H1203 H 0.6075 0.30662 0.12737 0.0
H1204 H 0.67117 0.3066 0.18436 0.0
C1205 C 0.65842 0.345 0.17207 0.0
C1206 C 0.12137 0.50409 0.17192 0.0
C1207 C 0.10217 0.4903 0.18851 0.0
H1208 H 0.17169 0.51495 0.12717 0.0
C1209 C 0.12129 0.47653 0.17179 0.0
H1210 H 0.10822 0.51491 0.18421 0.0
C1211 C 0.15881 0.47655 0.13935 0.0
C1212 C 0.17786 0.49034 0.12271 0.0
H1213 H 0.10815 0.46568 0.18398 0.0
H1214 H 0.17199 0.46572 0.1271 0.0
C1215 C 0.15859 0.50411 0.13939 0.0
C1216 C 0.06784 0.15638 0.06583 0.0
C1217 C 0.0848 0.17198 0.06538 0.0
H1218 H 0.10618 0.13345 0.06615 0.0
C1219 C 0.15716 0.17619 0.06549 0.0
H1220 H 1.01295 0.15266 0.06561 0.0
C1221 C 0.21091 0.16513 0.06539 0.0
C1222 C 0.19393 0.14953 0.06516 0.0
H1223 H 0.17258 0.18805 0.06576 0.0
H1224 H 0.26578 0.16884 0.06484 0.0
C1225 C 0.12159 0.14532 0.0657 0.0
C1226 C 0.21111 0.15641 0.24529 0.0
C1227 C 0.19415 0.17201 0.24578 0.0
H1228 H 0.17277 0.13348 0.2448 0.0
C1229 C 0.12179 0.17622 0.24558 0.0
H1230 H 0.26599 0.15269 0.24558 0.0
C1231 C 0.06804 0.16516 0.24554 0.0
C1232 C 0.08501 0.14956 0.24572 0.0
H1233 H 0.10637 0.18809 0.24534 0.0
H1234 H 1.01316 0.16887 0.24601 0.0
C1235 C 0.15736 0.14535 0.24528 0.0
C1236 C 0.8717 0.89532 0.9951 0.0
C1237 C 0.94403 0.89955 0.9956 0.0
H1238 H 0.76304 0.90265 0.99525 0.0
C1239 C 0.96094 0.91515 0.99537 0.0
H1240 H 0.85634 0.88345 0.99465 0.0
C1241 C 0.90715 0.9262 0.99532 0.0
C1242 C 0.83481 0.92198 0.99546 0.0
H1243 H 0.0158 0.91887 0.99589 0.0
H1244 H 0.92252 0.93807 0.99504 0.0
C1245 C 0.81791 0.90637 0.99501 0.0
C1246 C 0.81784 0.91514 0.81561 0.0
C1247 C 0.83482 0.89954 0.8152 0.0
H1248 H 0.85616 0.93807 0.81596 0.0
C1249 C 0.90718 0.89533 0.81538 0.0
H1250 H 0.76295 0.91885 0.81534 0.0
C1251 C 0.96092 0.90639 0.81534 0.0
C1252 C 0.94393 0.92199 0.81507 0.0
H1253 H 0.92261 0.88346 0.81568 0.0
H1254 H 0.0158 0.90268 0.81484 0.0
C1255 C 0.87158 0.9262 0.81554 0.0
C1256 C 0.06827 0.65624 0.56546 0.0
C1257 C 0.0852 0.67184 0.56521 0.0
H1258 H 0.10665 0.63332 0.5658 0.0
C1259 C 0.15754 0.67606 0.56569 0.0
H1260 H 1.0134 0.65252 0.56495 0.0
C1261 C 0.21131 0.66501 0.56577 0.0
C1262 C 0.19439 0.64941 0.56534 0.0
H1263 H 0.17292 0.68793 0.56613 0.0
H1264 H 0.26619 0.66873 0.56551 0.0
C1265 C 0.12204 0.64519 0.56551 0.0
C1266 C 0.21141 0.65632 0.74554 0.0
C1267 C 0.1944 0.67192 0.74574 0.0
H1268 H 0.17313 0.63339 0.74532 0.0
C1269 C 0.12205 0.67612 0.7453 0.0
H1270 H 0.2663 0.65261 0.74602 0.0
C1271 C 0.06832 0.66505 0.7453 0.0
C1272 C 0.08532 0.64946 0.74577 0.0
H1273 H 0.10661 0.68798 0.74483 0.0
H1274 H 1.01343 0.66876 0.74558 0.0
C1275 C 0.15768 0.64525 0.74557 0.0
C1276 C 0.90785 0.42607 0.49572 0.0
C1277 C 0.83548 0.42187 0.49588 0.0
H1278 H 0.01646 0.41871 0.49626 0.0
C1279 C 0.81848 0.40628 0.49541 0.0
H1280 H 0.9233 0.43794 0.49546 0.0
C1281 C 0.8722 0.39521 0.49547 0.0
C1282 C 0.94456 0.39941 0.49596 0.0
H1283 H 0.76358 0.40257 0.49566 0.0
H1284 H 0.85675 0.38334 0.495 0.0
C1285 C 0.96157 0.41501 0.49575 0.0
C1286 C 0.90784 0.39527 0.31566 0.0
C1287 C 0.8355 0.39949 0.31553 0.0
H1288 H 0.0165 0.40259 0.31508 0.0
C1289 C 0.81861 0.4151 0.31601 0.0
H1290 H 0.92321 0.3834 0.31591 0.0
C1291 C 0.8724 0.42614 0.31595 0.0
C1292 C 0.94473 0.42192 0.31543 0.0
H1293 H 0.76374 0.41882 0.31578 0.0
H1294 H 0.85704 0.43802 0.31642 0.0
C1295 C 0.96163 0.40632 0.31562 0.0
C1296 C 0.71119 0.16497 0.56557 0.0
C1297 C 0.69425 0.14937 0.56529 0.0
H1298 H 0.67282 0.18789 0.56593 0.0
C1299 C 0.62191 0.14515 0.56574 0.0
H1300 H 0.76607 0.16869 0.56509 0.0
C1301 C 0.56814 0.1562 0.56581 0.0
C1302 C 0.58508 0.17181 0.56541 0.0
H1303 H 0.60652 0.13328 0.56615 0.0
H1304 H 0.51327 0.15248 0.56553 0.0
C1305 C 0.65742 0.17602 0.56561 0.0
C1306 C 0.65726 0.14532 0.74546 0.0
C1307 C 0.58491 0.14954 0.74557 0.0
H1308 H 0.76591 0.15264 0.74611 0.0
C1309 C 0.568 0.16514 0.74512 0.0
H1310 H 0.67264 0.13344 0.74519 0.0
C1311 C 0.62179 0.17619 0.74525 0.0
C1312 C 0.69412 0.17197 0.74579 0.0
H1313 H 0.51313 0.16886 0.74534 0.0
H1314 H 0.60642 0.18806 0.7448 0.0
C1315 C 0.71104 0.15637 0.74556 0.0
C1316 C 0.31843 0.90626 0.49502 0.0
C1317 C 0.33535 0.92186 0.49549 0.0
H1318 H 0.35684 0.88334 0.49461 0.0
C1319 C 0.40769 0.92608 0.49534 0.0
H1320 H 0.26356 0.90254 0.49526 0.0
C1321 C 0.46147 0.91503 0.49537 0.0
C1322 C 0.44455 0.89943 0.49558 0.0
H1323 H 0.42308 0.93795 0.49508 0.0
H1324 H 0.51634 0.91875 0.49589 0.0
C1325 C 0.37222 0.89521 0.49508 0.0
C1326 C 0.37217 0.92615 0.31539 0.0
C1327 C 0.44452 0.92195 0.3151 0.0
H1328 H 0.26354 0.91881 0.31502 0.0
C1329 C 0.46149 0.90635 0.31551 0.0
H1330 H 0.35675 0.93802 0.3157 0.0
C1331 C 0.40774 0.89529 0.31553 0.0
C1332 C 0.33539 0.8995 0.31517 0.0
H1333 H 0.51637 0.90263 0.31516 0.0
H1334 H 0.42316 0.88342 0.31595 0.0
C1335 C 0.31842 0.91509 0.31544 0.0
C1336 C 0.65722 0.67623 0.06582 0.0
C1337 C 0.58489 0.67201 0.06533 0.0
H1338 H 0.76588 0.6689 0.06561 0.0
C1339 C 0.56797 0.6564 0.06553 0.0
H1340 H 0.67259 0.6881 0.06629 0.0
C1341 C 0.62176 0.64535 0.06554 0.0
C1342 C 0.6941 0.64957 0.06538 0.0
H1343 H 0.51311 0.65268 0.06502 0.0
H1344 H 0.60638 0.63348 0.0658 0.0
C1345 C 0.71101 0.66518 0.06586 0.0
C1346 C 0.62178 0.6762 0.24559 0.0
C1347 C 0.69413 0.67198 0.24562 0.0
H1348 H 0.51315 0.66886 0.24627 0.0
C1349 C 0.71107 0.65638 0.24505 0.0
H1350 H 0.60637 0.68807 0.24541 0.0
C1351 C 0.65731 0.64533 0.24514 0.0
C1352 C 0.58497 0.64954 0.24577 0.0
H1353 H 0.76595 0.65267 0.2452 0.0
H1354 H 0.67269 0.63346 0.2446 0.0
C1355 C 0.56802 0.66514 0.24565 0.0
C1356 C 0.31817 0.40645 0.99538 0.0
C1357 C 0.33518 0.42204 0.99584 0.0
H1358 H 0.35644 0.38352 0.995 0.0
C1359 C 0.40755 0.42624 0.99569 0.0
H1360 H 0.26327 0.40274 0.99563 0.0
C1361 C 0.46126 0.41518 0.99573 0.0
C1362 C 0.44425 0.39958 0.99595 0.0
H1363 H 0.42301 0.43811 0.99542 0.0
H1364 H 0.51615 0.41888 0.99625 0.0
C1365 C 0.37189 0.39538 0.99546 0.0
C1366 C 0.46108 0.40634 0.81596 0.0
C1367 C 0.44421 0.42194 0.81548 0.0
H1368 H 0.42262 0.38342 0.81645 0.0
C1369 C 0.37188 0.42617 0.81567 0.0
H1370 H 0.51595 0.40261 0.81569 0.0
C1371 C 0.31807 0.41512 0.8157 0.0
C1372 C 0.33495 0.39952 0.81552 0.0
H1373 H 0.35652 0.43804 0.81591 0.0
H1374 H 0.26321 0.41885 0.81522 0.0
C1375 C 0.40727 0.39529 0.81597 0.0
loop_
_geom_bond_atom_site_label_1
_geom_bond_atom_site_label_2
_geom_bond_distance
_geom_bond_site_symmetry_2
_ccdc_geom_bond_type
Cu0 N1 1.999 . S
Cu0 O6 1.974 . S
Cu0 N11 1.985 . S
Cu0 O20 1.959 1_554 S
N1 Cu0 1.999 . S
N1 C3 1.263 . S
N1 C5 1.389 1_554 S
N2 C3 1.358 . S
N2 C4 1.400 1_554 S
C3 N1 1.263 . S
C3 N2 1.358 . S
C3 H9 0.930 . S
C4 N2 1.400 1_556 S
C4 C5 1.351 . S
C4 H21 0.930 . S
C5 N1 1.389 1_556 S
C5 C4 1.351 . S
C5 H10 0.930 . S
O6 Cu0 1.974 . S
O6 C16 1.282 . S
C7 O8 1.261 . S
C7 O20 1.251 . S
O8 C7 1.261 . S
H9 C3 0.930 . S
H10 C5 0.930 . S
N11 Cu0 1.985 . S
N11 C13 1.328 1_554 S
N11 C14 1.390 . S
N12 C13 1.340 1_554 S
N12 C15 1.336 . S
C13 N11 1.328 1_556 S
C13 N12 1.340 1_556 S
C13 H18 0.940 . S
C14 N11 1.390 . S
C14 C15 1.346 . S
C14 H19 0.930 . S
C15 N12 1.336 . S
C15 C14 1.346 . S
C15 H22 0.929 . S
C16 O6 1.282 . S
C16 O17 1.216 . S
O17 C16 1.216 . S
H18 C13 0.940 . S
H19 C14 0.930 . S
O20 Cu0 1.959 1_556 S
O20 C7 1.251 . S
H21 C4 0.930 . S
H22 C15 0.929 . S
Cu23 N24 1.999 . S
Cu23 O29 1.982 . S
Cu23 N34 1.985 . S
Cu23 O43 1.959 1_554 S
N24 Cu23 1.999 . S
N24 C26 1.263 1_655 S
N24 C28 1.389 1_554 S
N25 C26 1.358 . S
N25 C27 1.400 1_554 S
C26 N24 1.263 1_455 S
C26 N25 1.358 . S
C26 H32 0.930 . S
C27 N25 1.400 1_556 S
C27 C28 1.351 1_455 S
C27 H44 0.930 1_455 S
C28 N24 1.389 1_556 S
C28 C27 1.351 1_655 S
C28 H33 0.930 . S
O29 Cu23 1.982 . S
O29 C39 1.267 1_655 S
C30 O31 1.267 . S
C30 O43 1.251 . S
O31 C30 1.267 . S
H32 C26 0.930 . S
H33 C28 0.930 . S
N34 Cu23 1.985 . S
N34 C36 1.328 1_554 S
N34 C37 1.390 . S
N35 C36 1.340 1_554 S
N35 C38 1.336 . S
C36 N34 1.328 1_556 S
C36 N35 1.340 1_556 S
C36 H41 0.940 . S
C37 N34 1.390 . S
C37 C38 1.346 . S
C37 H42 0.930 . S
C38 N35 1.336 . S
C38 C37 1.346 . S
C38 H45 0.929 . S
C39 O29 1.267 1_455 S
C39 O40 1.216 . S
O40 C39 1.216 . S
H41 C36 0.940 . S
H42 C37 0.930 . S
O43 Cu23 1.959 1_556 S
O43 C30 1.251 . S
H44 C27 0.930 1_655 S
H45 C38 0.929 . S
Cu46 N47 1.999 . S
Cu46 O52 1.974 . S
Cu46 N57 1.985 . S
Cu46 O66 1.959 . S
N47 Cu46 1.999 . S
N47 C49 1.263 . S
N47 C51 1.389 . S
N48 C49 1.358 . S
N48 C50 1.400 . S
C49 N47 1.263 . S
C49 N48 1.358 . S
C49 H55 0.930 . S
C50 N48 1.400 . S
C50 C51 1.351 . S
C50 H67 0.930 . S
C51 N47 1.389 . S
C51 C50 1.351 . S
C51 H56 0.930 . S
O52 Cu46 1.974 . S
O52 C62 1.282 . S
C53 O54 1.261 . S
C53 O66 1.251 . S
O54 C53 1.261 . S
H55 C49 0.930 . S
H56 C51 0.930 . S
N57 Cu46 1.985 . S
N57 C59 1.335 . S
N57 C60 1.390 . S
N58 C59 1.345 . S
N58 C61 1.336 . S
C59 N57 1.335 . S
C59 N58 1.345 . S
C59 H64 0.930 . S
C60 N57 1.390 . S
C60 C61 1.346 . S
C60 H65 0.930 . S
C61 N58 1.336 . S
C61 C60 1.346 . S
C61 H68 0.929 . S
C62 O52 1.282 . S
C62 O63 1.216 . S
O63 C62 1.216 . S
H64 C59 0.930 . S
H65 C60 0.930 . S
O66 Cu46 1.959 . S
O66 C53 1.251 . S
H67 C50 0.930 . S
H68 C61 0.929 . S
Cu69 N70 1.999 . S
Cu69 O75 1.982 . S
Cu69 N80 1.985 . S
Cu69 O89 1.959 . S
N70 Cu69 1.999 . S
N70 C72 1.263 1_655 S
N70 C74 1.389 . S
N71 C72 1.358 . S
N71 C73 1.400 . S
C72 N70 1.263 1_455 S
C72 N71 1.358 . S
C72 H78 0.930 . S
C73 N71 1.400 . S
C73 C74 1.351 1_455 S
C73 H90 0.930 1_455 S
C74 N70 1.389 . S
C74 C73 1.351 1_655 S
C74 H79 0.930 . S
O75 Cu69 1.982 . S
O75 C85 1.266 1_655 S
C76 O77 1.268 . S
C76 O89 1.251 . S
O77 C76 1.268 . S
H78 C72 0.930 . S
H79 C74 0.930 . S
N80 Cu69 1.985 . S
N80 C82 1.335 . S
N80 C83 1.390 . S
N81 C82 1.345 . S
N81 C84 1.336 . S
C82 N80 1.335 . S
C82 N81 1.345 . S
C82 H87 0.930 . S
C83 N80 1.390 . S
C83 C84 1.346 . S
C83 H88 0.930 . S
C84 N81 1.336 . S
C84 C83 1.346 . S
C84 H91 0.929 . S
C85 O75 1.266 1_455 S
C85 O86 1.216 . S
O86 C85 1.216 . S
H87 C82 0.930 . S
H88 C83 0.930 . S
O89 Cu69 1.959 . S
O89 C76 1.251 . S
H90 C73 0.930 1_655 S
H91 C84 0.929 . S
Cu92 N93 1.999 . S
Cu92 O98 1.974 . S
Cu92 N103 1.985 . S
Cu92 O112 1.959 1_556 S
N93 Cu92 1.999 . S
N93 C95 1.263 . S
N93 C97 1.389 1_556 S
N94 C95 1.358 . S
N94 C96 1.400 1_556 S
C95 N93 1.263 . S
C95 N94 1.358 . S
C95 H101 0.930 . S
C96 N94 1.400 1_554 S
C96 C97 1.351 . S
C96 H113 0.930 . S
C97 N93 1.389 1_554 S
C97 C96 1.351 . S
C97 H102 0.930 . S
O98 Cu92 1.974 . S
O98 C108 1.282 . S
C99 O100 1.261 . S
C99 O112 1.251 . S
O100 C99 1.261 . S
H101 C95 0.930 . S
H102 C97 0.930 . S
N103 Cu92 1.985 . S
N103 C105 1.328 1_556 S
N103 C106 1.390 . S
N104 C105 1.340 1_556 S
N104 C107 1.336 . S
C105 N103 1.328 1_554 S
C105 N104 1.340 1_554 S
C105 H110 0.940 . S
C106 N103 1.390 . S
C106 C107 1.346 . S
C106 H111 0.930 . S
C107 N104 1.336 . S
C107 C106 1.346 . S
C107 H114 0.929 . S
C108 O98 1.282 . S
C108 O109 1.216 . S
O109 C108 1.216 . S
H110 C105 0.940 . S
H111 C106 0.930 . S
O112 Cu92 1.959 1_554 S
O112 C99 1.251 . S
H113 C96 0.930 . S
H114 C107 0.929 . S
Cu115 N116 1.999 . S
Cu115 O121 1.982 . S
Cu115 N126 1.985 . S
Cu115 O135 1.959 1_556 S
N116 Cu115 1.999 . S
N116 C118 1.263 1_455 S
N116 C120 1.389 1_556 S
N117 C118 1.358 . S
N117 C119 1.400 1_556 S
C118 N116 1.263 1_655 S
C118 N117 1.358 . S
C118 H124 0.930 . S
C119 N117 1.400 1_554 S
C119 C120 1.351 1_655 S
C119 H136 0.930 1_655 S
C120 N116 1.389 1_554 S
C120 C119 1.351 1_455 S
C120 H125 0.930 . S
O121 Cu115 1.982 . S
O121 C131 1.267 1_455 S
C122 O123 1.267 . S
C122 O135 1.251 . S
O123 C122 1.267 . S
H124 C118 0.930 . S
H125 C120 0.930 . S
N126 Cu115 1.985 . S
N126 C128 1.328 1_556 S
N126 C129 1.390 . S
N127 C128 1.340 1_556 S
N127 C130 1.336 . S
C128 N126 1.328 1_554 S
C128 N127 1.340 1_554 S
C128 H133 0.940 . S
C129 N126 1.390 . S
C129 C130 1.346 . S
C129 H134 0.930 . S
C130 N127 1.336 . S
C130 C129 1.346 . S
C130 H137 0.929 . S
C131 O121 1.267 1_655 S
C131 O132 1.216 . S
O132 C131 1.216 . S
H133 C128 0.940 . S
H134 C129 0.930 . S
O135 Cu115 1.959 1_554 S
O135 C122 1.251 . S
H136 C119 0.930 1_455 S
H137 C130 0.929 . S
Cu138 N139 1.999 . S
Cu138 O144 1.974 . S
Cu138 N149 1.985 . S
Cu138 O158 1.959 . S
N139 Cu138 1.999 . S
N139 C141 1.263 . S
N139 C143 1.389 . S
N140 C141 1.358 . S
N140 C142 1.400 . S
C141 N139 1.263 . S
C141 N140 1.358 . S
C141 H147 0.930 . S
C142 N140 1.400 . S
C142 C143 1.351 . S
C142 H159 0.930 . S
C143 N139 1.389 . S
C143 C142 1.351 . S
C143 H148 0.930 . S
O144 Cu138 1.974 . S
O144 C154 1.282 . S
C145 O146 1.261 . S
C145 O158 1.251 . S
O146 C145 1.261 . S
H147 C141 0.930 . S
H148 C143 0.930 . S
N149 Cu138 1.985 . S
N149 C151 1.335 . S
N149 C152 1.390 . S
N150 C151 1.345 . S
N150 C153 1.336 . S
C151 N149 1.335 . S
C151 N150 1.345 . S
C151 H156 0.930 . S
C152 N149 1.390 . S
C152 C153 1.346 . S
C152 H157 0.930 . S
C153 N150 1.336 . S
C153 C152 1.346 . S
C153 H160 0.929 . S
C154 O144 1.282 . S
C154 O155 1.216 . S
O155 C154 1.216 . S
H156 C151 0.930 . S
H157 C152 0.930 . S
O158 Cu138 1.959 . S
O158 C145 1.251 . S
H159 C142 0.930 . S
H160 C153 0.929 . S
Cu161 N162 1.999 . S
Cu161 O167 1.982 . S
Cu161 N172 1.985 . S
Cu161 O181 1.959 . S
N162 Cu161 1.999 . S
N162 C164 1.263 1_455 S
N162 C166 1.389 . S
N163 C164 1.358 . S
N163 C165 1.400 . S
C164 N162 1.263 1_655 S
C164 N163 1.358 . S
C164 H170 0.930 . S
C165 N163 1.400 . S
C165 C166 1.351 1_655 S
C165 H182 0.930 1_655 S
C166 N162 1.389 . S
C166 C165 1.351 1_455 S
C166 H171 0.930 . S
O167 Cu161 1.982 . S
O167 C177 1.266 1_455 S
C168 O169 1.268 . S
C168 O181 1.251 . S
O169 C168 1.268 . S
H170 C164 0.930 . S
H171 C166 0.930 . S
N172 Cu161 1.985 . S
N172 C174 1.335 . S
N172 C175 1.390 . S
N173 C174 1.345 . S
N173 C176 1.336 . S
C174 N172 1.335 . S
C174 N173 1.345 . S
C174 H179 0.930 . S
C175 N172 1.390 . S
C175 C176 1.346 . S
C175 H180 0.930 . S
C176 N173 1.336 . S
C176 C175 1.346 . S
C176 H183 0.929 . S
C177 O167 1.266 1_655 S
C177 O178 1.216 . S
O178 C177 1.216 . S
H179 C174 0.930 . S
H180 C175 0.930 . S
O181 Cu161 1.959 . S
O181 C168 1.251 . S
H182 C165 0.930 1_455 S
H183 C176 0.929 . S
Cu184 N185 1.999 . S
Cu184 O190 1.974 . S
Cu184 N195 1.985 . S
Cu184 O204 1.959 . S
N185 Cu184 1.999 . S
N185 C187 1.263 . S
N185 C189 1.389 . S
N186 C187 1.358 . S
N186 C188 1.400 . S
C187 N185 1.263 . S
C187 N186 1.358 . S
C187 H193 0.930 . S
C188 N186 1.400 . S
C188 C189 1.351 . S
C188 H205 0.930 . S
C189 N185 1.389 . S
C189 C188 1.351 . S
C189 H194 0.930 . S
O190 Cu184 1.974 . S
O190 C200 1.282 . S
C191 O192 1.261 . S
C191 O204 1.251 . S
O192 C191 1.261 . S
H193 C187 0.930 . S
H194 C189 0.930 . S
N195 Cu184 1.985 . S
N195 C197 1.335 . S
N195 C198 1.390 . S
N196 C197 1.345 . S
N196 C199 1.336 . S
C197 N195 1.335 . S
C197 N196 1.345 . S
C197 H202 0.930 . S
C198 N195 1.390 . S
C198 C199 1.346 . S
C198 H203 0.930 . S
C199 N196 1.336 . S
C199 C198 1.346 . S
C199 H206 0.929 . S
C200 O190 1.282 . S
C200 O201 1.216 . S
O201 C200 1.216 . S
H202 C197 0.930 . S
H203 C198 0.930 . S
O204 Cu184 1.959 . S
O204 C191 1.251 . S
H205 C188 0.930 . S
H206 C199 0.929 . S
Cu207 N208 1.999 . S
Cu207 O213 1.981 . S
Cu207 N218 1.985 . S
Cu207 O227 1.959 . S
N208 Cu207 1.999 . S
N208 C210 1.263 1_655 S
N208 C212 1.389 . S
N209 C210 1.358 . S
N209 C211 1.400 . S
C210 N208 1.263 1_455 S
C210 N209 1.358 . S
C210 H216 0.930 . S
C211 N209 1.400 . S
C211 C212 1.351 1_455 S
C211 H228 0.930 1_455 S
C212 N208 1.389 . S
C212 C211 1.351 1_655 S
C212 H217 0.930 . S
O213 Cu207 1.981 . S
O213 C223 1.267 1_655 S
C214 O215 1.267 . S
C214 O227 1.251 . S
O215 C214 1.267 . S
H216 C210 0.930 . S
H217 C212 0.930 . S
N218 Cu207 1.985 . S
N218 C220 1.335 . S
N218 C221 1.390 . S
N219 C220 1.345 . S
N219 C222 1.336 . S
C220 N218 1.335 . S
C220 N219 1.345 . S
C220 H225 0.930 . S
C221 N218 1.390 . S
C221 C222 1.346 . S
C221 H226 0.930 . S
C222 N219 1.336 . S
C222 C221 1.346 . S
C222 H229 0.929 . S
C223 O213 1.267 1_455 S
C223 O224 1.216 . S
O224 C223 1.216 . S
H225 C220 0.930 . S
H226 C221 0.930 . S
O227 Cu207 1.959 . S
O227 C214 1.251 . S
H228 C211 0.930 1_655 S
H229 C222 0.929 . S
Cu230 N231 1.999 . S
Cu230 O236 1.974 . S
Cu230 N241 1.985 . S
Cu230 O250 1.959 . S
N231 Cu230 1.999 . S
N231 C233 1.263 . S
N231 C235 1.389 . S
N232 C233 1.358 . S
N232 C234 1.400 . S
C233 N231 1.263 . S
C233 N232 1.358 . S
C233 H239 0.930 . S
C234 N232 1.400 . S
C234 C235 1.351 . S
C234 H251 0.930 . S
C235 N231 1.389 . S
C235 C234 1.351 . S
C235 H240 0.930 . S
O236 Cu230 1.974 . S
O236 C246 1.282 . S
C237 O238 1.261 . S
C237 O250 1.251 . S
O238 C237 1.261 . S
H239 C233 0.930 . S
H240 C235 0.930 . S
N241 Cu230 1.985 . S
N241 C243 1.335 . S
N241 C244 1.390 . S
N242 C243 1.345 . S
N242 C245 1.336 . S
C243 N241 1.335 . S
C243 N242 1.345 . S
C243 H248 0.930 . S
C244 N241 1.390 . S
C244 C245 1.346 . S
C244 H249 0.930 . S
C245 N242 1.336 . S
C245 C244 1.346 . S
C245 H252 0.929 . S
C246 O236 1.282 . S
C246 O247 1.216 . S
O247 C246 1.216 . S
H248 C243 0.930 . S
H249 C244 0.930 . S
O250 Cu230 1.959 . S
O250 C237 1.251 . S
H251 C234 0.930 . S
H252 C245 0.929 . S
Cu253 N254 1.999 . S
Cu253 O259 1.974 . S
Cu253 N264 1.985 . S
Cu253 O273 1.959 . S
N254 Cu253 1.999 . S
N254 C256 1.263 1_655 S
N254 C258 1.389 . S
N255 C256 1.358 . S
N255 C257 1.400 . S
C256 N254 1.263 1_455 S
C256 N255 1.358 . S
C256 H262 0.930 . S
C257 N255 1.400 . S
C257 C258 1.351 1_455 S
C257 H274 0.930 1_455 S
C258 N254 1.389 . S
C258 C257 1.351 1_655 S
C258 H263 0.930 . S
O259 Cu253 1.974 . S
O259 C269 1.282 1_655 S
C260 O261 1.268 . S
C260 O273 1.251 . S
O261 C260 1.268 . S
H262 C256 0.930 . S
H263 C258 0.930 . S
N264 Cu253 1.985 . S
N264 C266 1.335 . S
N264 C267 1.390 . S
N265 C266 1.345 . S
N265 C268 1.336 . S
C266 N264 1.335 . S
C266 N265 1.345 . S
C266 H271 0.930 . S
C267 N264 1.390 . S
C267 C268 1.346 . S
C267 H272 0.930 . S
C268 N265 1.336 . S
C268 C267 1.346 . S
C268 H275 0.929 . S
C269 O259 1.282 1_455 S
C269 O270 1.216 . S
O270 C269 1.216 . S
H271 C266 0.930 . S
H272 C267 0.930 . S
O273 Cu253 1.959 . S
O273 C260 1.251 . S
H274 C257 0.930 1_655 S
H275 C268 0.929 . S
Cu276 N277 1.999 . S
Cu276 O282 1.974 . S
Cu276 N287 1.985 . S
Cu276 O296 1.959 . S
N277 Cu276 1.999 . S
N277 C279 1.263 . S
N277 C281 1.389 . S
N278 C279 1.358 . S
N278 C280 1.400 . S
C279 N277 1.263 . S
C279 N278 1.358 . S
C279 H285 0.930 . S
C280 N278 1.400 . S
C280 C281 1.351 . S
C280 H297 0.930 . S
C281 N277 1.389 . S
C281 C280 1.351 . S
C281 H286 0.930 . S
O282 Cu276 1.974 . S
O282 C292 1.282 . S
C283 O284 1.261 . S
C283 O296 1.251 . S
O284 C283 1.261 . S
H285 C279 0.930 . S
H286 C281 0.930 . S
N287 Cu276 1.985 . S
N287 C289 1.335 . S
N287 C290 1.390 . S
N288 C289 1.345 . S
N288 C291 1.336 . S
C289 N287 1.335 . S
C289 N288 1.345 . S
C289 H294 0.930 . S
C290 N287 1.390 . S
C290 C291 1.346 . S
C290 H295 0.930 . S
C291 N288 1.336 . S
C291 C290 1.346 . S
C291 H298 0.929 . S
C292 O282 1.282 . S
C292 O293 1.216 . S
O293 C292 1.216 . S
H294 C289 0.930 . S
H295 C290 0.930 . S
O296 Cu276 1.959 . S
O296 C283 1.251 . S
H297 C280 0.930 . S
H298 C291 0.929 . S
Cu299 N300 1.999 . S
Cu299 O305 1.981 . S
Cu299 N310 1.985 . S
Cu299 O319 1.959 . S
N300 Cu299 1.999 . S
N300 C302 1.263 1_455 S
N300 C304 1.389 . S
N301 C302 1.358 . S
N301 C303 1.400 . S
C302 N300 1.263 1_655 S
C302 N301 1.358 . S
C302 H308 0.930 . S
C303 N301 1.400 . S
C303 C304 1.351 1_655 S
C303 H320 0.930 1_655 S
C304 N300 1.389 . S
C304 C303 1.351 1_455 S
C304 H309 0.930 . S
O305 Cu299 1.981 . S
O305 C315 1.267 1_455 S
C306 O307 1.267 . S
C306 O319 1.251 . S
O307 C306 1.267 . S
H308 C302 0.930 . S
H309 C304 0.930 . S
N310 Cu299 1.985 . S
N310 C312 1.335 . S
N310 C313 1.390 . S
N311 C312 1.345 . S
N311 C314 1.336 . S
C312 N310 1.335 . S
C312 N311 1.345 . S
C312 H317 0.930 . S
C313 N310 1.390 . S
C313 C314 1.346 . S
C313 H318 0.930 . S
C314 N311 1.336 . S
C314 C313 1.346 . S
C314 H321 0.929 . S
C315 O305 1.267 1_655 S
C315 O316 1.216 . S
O316 C315 1.216 . S
H317 C312 0.930 . S
H318 C313 0.930 . S
O319 Cu299 1.959 . S
O319 C306 1.251 . S
H320 C303 0.930 1_455 S
H321 C314 0.929 . S
Cu322 N323 1.999 . S
Cu322 O328 1.974 . S
Cu322 N333 1.985 . S
Cu322 O342 1.959 . S
N323 Cu322 1.999 . S
N323 C325 1.263 . S
N323 C327 1.389 . S
N324 C325 1.358 . S
N324 C326 1.400 . S
C325 N323 1.263 . S
C325 N324 1.358 . S
C325 H331 0.930 . S
C326 N324 1.400 . S
C326 C327 1.351 . S
C326 H343 0.930 . S
C327 N323 1.389 . S
C327 C326 1.351 . S
C327 H332 0.930 . S
O328 Cu322 1.974 . S
O328 C338 1.282 . S
C329 O330 1.261 . S
C329 O342 1.251 . S
O330 C329 1.261 . S
H331 C325 0.930 . S
H332 C327 0.930 . S
N333 Cu322 1.985 . S
N333 C335 1.335 . S
N333 C336 1.390 . S
N334 C335 1.345 . S
N334 C337 1.336 . S
C335 N333 1.335 . S
C335 N334 1.345 . S
C335 H340 0.930 . S
C336 N333 1.390 . S
C336 C337 1.346 . S
C336 H341 0.930 . S
C337 N334 1.336 . S
C337 C336 1.346 . S
C337 H344 0.929 . S
C338 O328 1.282 . S
C338 O339 1.216 . S
O339 C338 1.216 . S
H340 C335 0.930 . S
H341 C336 0.930 . S
O342 Cu322 1.959 . S
O342 C329 1.251 . S
H343 C326 0.930 . S
H344 C337 0.929 . S
Cu345 N346 1.999 . S
Cu345 O351 1.974 . S
Cu345 N356 1.985 . S
Cu345 O365 1.959 . S
N346 Cu345 1.999 . S
N346 C348 1.263 1_455 S
N346 C350 1.389 . S
N347 C348 1.358 . S
N347 C349 1.400 . S
C348 N346 1.263 1_655 S
C348 N347 1.358 . S
C348 H354 0.930 . S
C349 N347 1.400 . S
C349 C350 1.351 1_655 S
C349 H366 0.930 1_655 S
C350 N346 1.389 . S
C350 C349 1.351 1_455 S
C350 H355 0.930 . S
O351 Cu345 1.974 . S
O351 C361 1.282 1_455 S
C352 O353 1.268 . S
C352 O365 1.251 . S
O353 C352 1.268 . S
H354 C348 0.930 . S
H355 C350 0.930 . S
N356 Cu345 1.985 . S
N356 C358 1.335 . S
N356 C359 1.390 . S
N357 C358 1.345 . S
N357 C360 1.336 . S
C358 N356 1.335 . S
C358 N357 1.345 . S
C358 H363 0.930 . S
C359 N356 1.390 . S
C359 C360 1.346 . S
C359 H364 0.930 . S
C360 N357 1.336 . S
C360 C359 1.346 . S
C360 H367 0.929 . S
C361 O351 1.282 1_655 S
C361 O362 1.216 . S
O362 C361 1.216 . S
H363 C358 0.930 . S
H364 C359 0.930 . S
O365 Cu345 1.959 . S
O365 C352 1.251 . S
H366 C349 0.930 1_455 S
H367 C360 0.929 . S
Cu368 N369 1.999 . S
Cu368 O374 1.974 . S
Cu368 N379 1.985 . S
Cu368 O388 1.959 . S
N369 Cu368 1.999 . S
N369 C371 1.263 . S
N369 C373 1.389 . S
N370 C371 1.358 . S
N370 C372 1.400 . S
C371 N369 1.263 . S
C371 N370 1.358 . S
C371 H377 0.930 . S
C372 N370 1.400 . S
C372 C373 1.351 . S
C372 H389 0.930 . S
C373 N369 1.389 . S
C373 C372 1.351 . S
C373 H378 0.930 . S
O374 Cu368 1.974 . S
O374 C384 1.282 . S
C375 O376 1.261 . S
C375 O388 1.251 . S
O376 C375 1.261 . S
H377 C371 0.930 . S
H378 C373 0.930 . S
N379 Cu368 1.985 . S
N379 C381 1.335 . S
N379 C382 1.390 . S
N380 C381 1.345 . S
N380 C383 1.336 . S
C381 N379 1.335 . S
C381 N380 1.345 . S
C381 H386 0.930 . S
C382 N379 1.390 . S
C382 C383 1.346 . S
C382 H387 0.930 . S
C383 N380 1.336 . S
C383 C382 1.346 . S
C383 H390 0.929 . S
C384 O374 1.282 . S
C384 O385 1.216 . S
O385 C384 1.216 . S
H386 C381 0.930 . S
H387 C382 0.930 . S
O388 Cu368 1.959 . S
O388 C375 1.251 . S
H389 C372 0.930 . S
H390 C383 0.929 . S
Cu391 N392 1.999 . S
Cu391 O397 1.974 . S
Cu391 N402 1.985 . S
Cu391 O411 1.959 . S
N392 Cu391 1.999 . S
N392 C394 1.263 . S
N392 C396 1.389 . S
N393 C394 1.358 . S
N393 C395 1.400 . S
C394 N392 1.263 . S
C394 N393 1.358 . S
C394 H400 0.930 . S
C395 N393 1.400 . S
C395 C396 1.351 . S
C395 H412 0.930 . S
C396 N392 1.389 . S
C396 C395 1.351 . S
C396 H401 0.930 . S
O397 Cu391 1.974 . S
O397 C407 1.282 . S
C398 O399 1.261 . S
C398 O411 1.251 . S
O399 C398 1.261 . S
H400 C394 0.930 . S
H401 C396 0.930 . S
N402 Cu391 1.985 . S
N402 C404 1.335 . S
N402 C405 1.390 . S
N403 C404 1.345 . S
N403 C406 1.336 . S
C404 N402 1.335 . S
C404 N403 1.345 . S
C404 H409 0.930 . S
C405 N402 1.390 . S
C405 C406 1.346 . S
C405 H410 0.930 . S
C406 N403 1.336 . S
C406 C405 1.346 . S
C406 H413 0.929 . S
C407 O397 1.282 . S
C407 O408 1.216 . S
O408 C407 1.216 . S
H409 C404 0.930 . S
H410 C405 0.930 . S
O411 Cu391 1.959 . S
O411 C398 1.251 . S
H412 C395 0.930 . S
H413 C406 0.929 . S
Cu414 N415 1.999 . S
Cu414 O420 1.974 . S
Cu414 N425 1.985 . S
Cu414 O434 1.959 . S
N415 Cu414 1.999 . S
N415 C417 1.263 . S
N415 C419 1.389 . S
N416 C417 1.358 . S
N416 C418 1.400 . S
C417 N415 1.263 . S
C417 N416 1.358 . S
C417 H423 0.930 . S
C418 N416 1.400 . S
C418 C419 1.351 . S
C418 H435 0.930 . S
C419 N415 1.389 . S
C419 C418 1.351 . S
C419 H424 0.930 . S
O420 Cu414 1.974 . S
O420 C430 1.282 . S
C421 O422 1.261 . S
C421 O434 1.251 . S
O422 C421 1.261 . S
H423 C417 0.930 . S
H424 C419 0.930 . S
N425 Cu414 1.985 . S
N425 C427 1.335 . S
N425 C428 1.390 . S
N426 C427 1.345 . S
N426 C429 1.336 . S
C427 N425 1.335 . S
C427 N426 1.345 . S
C427 H432 0.930 . S
C428 N425 1.390 . S
C428 C429 1.346 . S
C428 H433 0.930 . S
C429 N426 1.336 . S
C429 C428 1.346 . S
C429 H436 0.929 . S
C430 O420 1.282 . S
C430 O431 1.216 . S
O431 C430 1.216 . S
H432 C427 0.930 . S
H433 C428 0.930 . S
O434 Cu414 1.959 . S
O434 C421 1.251 . S
H435 C418 0.930 . S
H436 C429 0.929 . S
Cu437 N438 1.999 . S
Cu437 O443 1.974 . S
Cu437 N448 1.985 . S
Cu437 O457 1.959 . S
N438 Cu437 1.999 . S
N438 C440 1.263 . S
N438 C442 1.389 . S
N439 C440 1.358 . S
N439 C441 1.400 . S
C440 N438 1.263 . S
C440 N439 1.358 . S
C440 H446 0.930 . S
C441 N439 1.400 . S
C441 C442 1.351 . S
C441 H458 0.930 . S
C442 N438 1.389 . S
C442 C441 1.351 . S
C442 H447 0.930 . S
O443 Cu437 1.974 . S
O443 C453 1.282 . S
C444 O445 1.261 . S
C444 O457 1.251 . S
O445 C444 1.261 . S
H446 C440 0.930 . S
H447 C442 0.930 . S
N448 Cu437 1.985 . S
N448 C450 1.335 . S
N448 C451 1.390 . S
N449 C450 1.345 . S
N449 C452 1.336 . S
C450 N448 1.335 . S
C450 N449 1.345 . S
C450 H455 0.930 . S
C451 N448 1.390 . S
C451 C452 1.346 . S
C451 H456 0.930 . S
C452 N449 1.336 . S
C452 C451 1.346 . S
C452 H459 0.929 . S
C453 O443 1.282 . S
C453 O454 1.216 . S
O454 C453 1.216 . S
H455 C450 0.930 . S
H456 C451 0.930 . S
O457 Cu437 1.959 . S
O457 C444 1.251 . S
H458 C441 0.930 . S
H459 C452 0.929 . S
Cu460 N461 1.999 . S
Cu460 O466 1.974 . S
Cu460 N471 1.985 . S
Cu460 O480 1.959 . S
N461 Cu460 1.999 . S
N461 C463 1.263 . S
N461 C465 1.389 . S
N462 C463 1.358 . S
N462 C464 1.400 . S
C463 N461 1.263 . S
C463 N462 1.358 . S
C463 H469 0.930 . S
C464 N462 1.400 . S
C464 C465 1.351 . S
C464 H481 0.930 . S
C465 N461 1.389 . S
C465 C464 1.351 . S
C465 H470 0.930 . S
O466 Cu460 1.974 . S
O466 C476 1.282 . S
C467 O468 1.261 . S
C467 O480 1.251 . S
O468 C467 1.261 . S
H469 C463 0.930 . S
H470 C465 0.930 . S
N471 Cu460 1.985 . S
N471 C473 1.335 . S
N471 C474 1.390 . S
N472 C473 1.345 . S
N472 C475 1.336 . S
C473 N471 1.335 . S
C473 N472 1.345 . S
C473 H478 0.930 . S
C474 N471 1.390 . S
C474 C475 1.346 . S
C474 H479 0.930 . S
C475 N472 1.336 . S
C475 C474 1.346 . S
C475 H482 0.929 . S
C476 O466 1.282 . S
C476 O477 1.216 . S
O477 C476 1.216 . S
H478 C473 0.930 . S
H479 C474 0.930 . S
O480 Cu460 1.959 . S
O480 C467 1.251 . S
H481 C464 0.930 . S
H482 C475 0.929 . S
Cu483 N484 1.999 . S
Cu483 O489 1.974 . S
Cu483 N494 1.985 . S
Cu483 O503 1.959 . S
N484 Cu483 1.999 . S
N484 C486 1.263 . S
N484 C488 1.389 . S
N485 C486 1.358 . S
N485 C487 1.400 . S
C486 N484 1.263 . S
C486 N485 1.358 . S
C486 H492 0.930 . S
C487 N485 1.400 . S
C487 C488 1.351 . S
C487 H504 0.930 . S
C488 N484 1.389 . S
C488 C487 1.351 . S
C488 H493 0.930 . S
O489 Cu483 1.974 . S
O489 C499 1.282 . S
C490 O491 1.261 . S
C490 O503 1.251 . S
O491 C490 1.261 . S
H492 C486 0.930 . S
H493 C488 0.930 . S
N494 Cu483 1.985 . S
N494 C496 1.335 . S
N494 C497 1.390 . S
N495 C496 1.345 . S
N495 C498 1.336 . S
C496 N494 1.335 . S
C496 N495 1.345 . S
C496 H501 0.930 . S
C497 N494 1.390 . S
C497 C498 1.346 . S
C497 H502 0.930 . S
C498 N495 1.336 . S
C498 C497 1.346 . S
C498 H505 0.929 . S
C499 O489 1.282 . S
C499 O500 1.216 . S
O500 C499 1.216 . S
H501 C496 0.930 . S
H502 C497 0.930 . S
O503 Cu483 1.959 . S
O503 C490 1.251 . S
H504 C487 0.930 . S
H505 C498 0.929 . S
Cu506 N507 1.999 . S
Cu506 O512 1.974 . S
Cu506 N517 1.985 . S
Cu506 O526 1.959 . S
N507 Cu506 1.999 . S
N507 C509 1.263 . S
N507 C511 1.389 . S
N508 C509 1.358 . S
N508 C510 1.400 . S
C509 N507 1.263 . S
C509 N508 1.358 . S
C509 H515 0.930 . S
C510 N508 1.400 . S
C510 C511 1.351 . S
C510 H527 0.930 . S
C511 N507 1.389 . S
C511 C510 1.351 . S
C511 H516 0.930 . S
O512 Cu506 1.974 . S
O512 C522 1.282 . S
C513 O514 1.261 . S
C513 O526 1.251 . S
O514 C513 1.261 . S
H515 C509 0.930 . S
H516 C511 0.930 . S
N517 Cu506 1.985 . S
N517 C519 1.335 . S
N517 C520 1.390 . S
N518 C519 1.345 . S
N518 C521 1.336 . S
C519 N517 1.335 . S
C519 N518 1.345 . S
C519 H524 0.930 . S
C520 N517 1.390 . S
C520 C521 1.346 . S
C520 H525 0.930 . S
C521 N518 1.336 . S
C521 C520 1.346 . S
C521 H528 0.929 . S
C522 O512 1.282 . S
C522 O523 1.216 . S
O523 C522 1.216 . S
H524 C519 0.930 . S
H525 C520 0.930 . S
O526 Cu506 1.959 . S
O526 C513 1.251 . S
H527 C510 0.930 . S
H528 C521 0.929 . S
Cu529 N530 1.999 . S
Cu529 O535 1.974 . S
Cu529 N540 1.985 . S
Cu529 O549 1.959 . S
N530 Cu529 1.999 . S
N530 C532 1.263 . S
N530 C534 1.389 . S
N531 C532 1.358 . S
N531 C533 1.400 . S
C532 N530 1.263 . S
C532 N531 1.358 . S
C532 H538 0.930 . S
C533 N531 1.400 . S
C533 C534 1.351 . S
C533 H550 0.930 . S
C534 N530 1.389 . S
C534 C533 1.351 . S
C534 H539 0.930 . S
O535 Cu529 1.974 . S
O535 C545 1.282 . S
C536 O537 1.261 . S
C536 O549 1.251 . S
O537 C536 1.261 . S
H538 C532 0.930 . S
H539 C534 0.930 . S
N540 Cu529 1.985 . S
N540 C542 1.335 . S
N540 C543 1.390 . S
N541 C542 1.345 . S
N541 C544 1.336 . S
C542 N540 1.335 . S
C542 N541 1.345 . S
C542 H547 0.930 . S
C543 N540 1.390 . S
C543 C544 1.346 . S
C543 H548 0.930 . S
C544 N541 1.336 . S
C544 C543 1.346 . S
C544 H551 0.929 . S
C545 O535 1.282 . S
C545 O546 1.216 . S
O546 C545 1.216 . S
H547 C542 0.930 . S
H548 C543 0.930 . S
O549 Cu529 1.959 . S
O549 C536 1.251 . S
H550 C533 0.930 . S
H551 C544 0.929 . S
Cu552 N553 1.999 . S
Cu552 O558 1.974 . S
Cu552 N563 1.985 . S
Cu552 O572 1.959 1_554 S
N553 Cu552 1.999 . S
N553 C555 1.263 . S
N553 C557 1.389 1_554 S
N554 C555 1.358 . S
N554 C556 1.400 1_554 S
C555 N553 1.263 . S
C555 N554 1.358 . S
C555 H561 0.930 . S
C556 N554 1.400 1_556 S
C556 C557 1.351 . S
C556 H573 0.930 . S
C557 N553 1.389 1_556 S
C557 C556 1.351 . S
C557 H562 0.930 . S
O558 Cu552 1.974 . S
O558 C568 1.282 . S
C559 O560 1.261 . S
C559 O572 1.251 . S
O560 C559 1.261 . S
H561 C555 0.930 . S
H562 C557 0.930 . S
N563 Cu552 1.985 . S
N563 C565 1.328 1_554 S
N563 C566 1.390 . S
N564 C565 1.340 1_554 S
N564 C567 1.336 . S
C565 N563 1.328 1_556 S
C565 N564 1.340 1_556 S
C565 H570 0.940 . S
C566 N563 1.390 . S
C566 C567 1.346 . S
C566 H571 0.930 . S
C567 N564 1.336 . S
C567 C566 1.346 . S
C567 H574 0.929 . S
C568 O558 1.282 . S
C568 O569 1.216 . S
O569 C568 1.216 . S
H570 C565 0.940 . S
H571 C566 0.930 . S
O572 Cu552 1.959 1_556 S
O572 C559 1.251 . S
H573 C556 0.930 . S
H574 C567 0.929 . S
Cu575 N576 1.999 . S
Cu575 O581 1.974 . S
Cu575 N586 1.985 . S
Cu575 O595 1.959 1_554 S
N576 Cu575 1.999 . S
N576 C578 1.263 . S
N576 C580 1.389 1_554 S
N577 C578 1.358 . S
N577 C579 1.400 1_554 S
C578 N576 1.263 . S
C578 N577 1.358 . S
C578 H584 0.930 . S
C579 N577 1.400 1_556 S
C579 C580 1.351 . S
C579 H596 0.930 . S
C580 N576 1.389 1_556 S
C580 C579 1.351 . S
C580 H585 0.930 . S
O581 Cu575 1.974 . S
O581 C591 1.282 . S
C582 O583 1.261 . S
C582 O595 1.251 . S
O583 C582 1.261 . S
H584 C578 0.930 . S
H585 C580 0.930 . S
N586 Cu575 1.985 . S
N586 C588 1.328 1_554 S
N586 C589 1.390 . S
N587 C588 1.340 1_554 S
N587 C590 1.336 . S
C588 N586 1.328 1_556 S
C588 N587 1.340 1_556 S
C588 H593 0.940 . S
C589 N586 1.390 . S
C589 C590 1.346 . S
C589 H594 0.930 . S
C590 N587 1.336 . S
C590 C589 1.346 . S
C590 H597 0.929 . S
C591 O581 1.282 . S
C591 O592 1.216 . S
O592 C591 1.216 . S
H593 C588 0.940 . S
H594 C589 0.930 . S
O595 Cu575 1.959 1_556 S
O595 C582 1.251 . S
H596 C579 0.930 . S
H597 C590 0.929 . S
Cu598 N599 1.999 . S
Cu598 O604 1.974 . S
Cu598 N609 1.985 . S
Cu598 O618 1.959 . S
N599 Cu598 1.999 . S
N599 C601 1.263 . S
N599 C603 1.389 . S
N600 C601 1.358 . S
N600 C602 1.400 . S
C601 N599 1.263 . S
C601 N600 1.358 . S
C601 H607 0.930 . S
C602 N600 1.400 . S
C602 C603 1.351 . S
C602 H619 0.930 . S
C603 N599 1.389 . S
C603 C602 1.351 . S
C603 H608 0.930 . S
O604 Cu598 1.974 . S
O604 C614 1.282 . S
C605 O606 1.261 . S
C605 O618 1.251 . S
O606 C605 1.261 . S
H607 C601 0.930 . S
H608 C603 0.930 . S
N609 Cu598 1.985 . S
N609 C611 1.335 . S
N609 C612 1.390 . S
N610 C611 1.345 . S
N610 C613 1.336 . S
C611 N609 1.335 . S
C611 N610 1.345 . S
C611 H616 0.930 . S
C612 N609 1.390 . S
C612 C613 1.346 . S
C612 H617 0.930 . S
C613 N610 1.336 . S
C613 C612 1.346 . S
C613 H620 0.929 . S
C614 O604 1.282 . S
C614 O615 1.216 . S
O615 C614 1.216 . S
H616 C611 0.930 . S
H617 C612 0.930 . S
O618 Cu598 1.959 . S
O618 C605 1.251 . S
H619 C602 0.930 . S
H620 C613 0.929 . S
Cu621 N622 1.999 . S
Cu621 O627 1.974 . S
Cu621 N632 1.985 . S
Cu621 O641 1.959 . S
N622 Cu621 1.999 . S
N622 C624 1.263 . S
N622 C626 1.389 . S
N623 C624 1.358 . S
N623 C625 1.400 . S
C624 N622 1.263 . S
C624 N623 1.358 . S
C624 H630 0.930 . S
C625 N623 1.400 . S
C625 C626 1.351 . S
C625 H642 0.930 . S
C626 N622 1.389 . S
C626 C625 1.351 . S
C626 H631 0.930 . S
O627 Cu621 1.974 . S
O627 C637 1.282 . S
C628 O629 1.261 . S
C628 O641 1.251 . S
O629 C628 1.261 . S
H630 C624 0.930 . S
H631 C626 0.930 . S
N632 Cu621 1.985 . S
N632 C634 1.335 . S
N632 C635 1.390 . S
N633 C634 1.345 . S
N633 C636 1.336 . S
C634 N632 1.335 . S
C634 N633 1.345 . S
C634 H639 0.930 . S
C635 N632 1.390 . S
C635 C636 1.346 . S
C635 H640 0.930 . S
C636 N633 1.336 . S
C636 C635 1.346 . S
C636 H643 0.929 . S
C637 O627 1.282 . S
C637 O638 1.216 . S
O638 C637 1.216 . S
H639 C634 0.930 . S
H640 C635 0.930 . S
O641 Cu621 1.959 . S
O641 C628 1.251 . S
H642 C625 0.930 . S
H643 C636 0.929 . S
Cu644 N645 1.999 . S
Cu644 O650 1.974 . S
Cu644 N655 1.985 . S
Cu644 O664 1.959 1_556 S
N645 Cu644 1.999 . S
N645 C647 1.263 . S
N645 C649 1.389 1_556 S
N646 C647 1.358 . S
N646 C648 1.400 1_556 S
C647 N645 1.263 . S
C647 N646 1.358 . S
C647 H653 0.930 . S
C648 N646 1.400 1_554 S
C648 C649 1.351 . S
C648 H665 0.930 . S
C649 N645 1.389 1_554 S
C649 C648 1.351 . S
C649 H654 0.930 . S
O650 Cu644 1.974 . S
O650 C660 1.282 . S
C651 O652 1.261 . S
C651 O664 1.251 . S
O652 C651 1.261 . S
H653 C647 0.930 . S
H654 C649 0.930 . S
N655 Cu644 1.985 . S
N655 C657 1.328 1_556 S
N655 C658 1.390 . S
N656 C657 1.340 1_556 S
N656 C659 1.336 . S
C657 N655 1.328 1_554 S
C657 N656 1.340 1_554 S
C657 H662 0.940 . S
C658 N655 1.390 . S
C658 C659 1.346 . S
C658 H663 0.930 . S
C659 N656 1.336 . S
C659 C658 1.346 . S
C659 H666 0.929 . S
C660 O650 1.282 . S
C660 O661 1.216 . S
O661 C660 1.216 . S
H662 C657 0.940 . S
H663 C658 0.930 . S
O664 Cu644 1.959 1_554 S
O664 C651 1.251 . S
H665 C648 0.930 . S
H666 C659 0.929 . S
Cu667 N668 1.999 . S
Cu667 O673 1.974 . S
Cu667 N678 1.985 . S
Cu667 O687 1.959 1_556 S
N668 Cu667 1.999 . S
N668 C670 1.263 . S
N668 C672 1.389 1_556 S
N669 C670 1.358 . S
N669 C671 1.400 1_556 S
C670 N668 1.263 . S
C670 N669 1.358 . S
C670 H676 0.930 . S
C671 N669 1.400 1_554 S
C671 C672 1.351 . S
C671 H688 0.930 . S
C672 N668 1.389 1_554 S
C672 C671 1.351 . S
C672 H677 0.930 . S
O673 Cu667 1.974 . S
O673 C683 1.282 . S
C674 O675 1.261 . S
C674 O687 1.251 . S
O675 C674 1.261 . S
H676 C670 0.930 . S
H677 C672 0.930 . S
N678 Cu667 1.985 . S
N678 C680 1.328 1_556 S
N678 C681 1.390 . S
N679 C680 1.340 1_556 S
N679 C682 1.336 . S
C680 N678 1.328 1_554 S
C680 N679 1.340 1_554 S
C680 H685 0.940 . S
C681 N678 1.390 . S
C681 C682 1.346 . S
C681 H686 0.930 . S
C682 N679 1.336 . S
C682 C681 1.346 . S
C682 H689 0.929 . S
C683 O673 1.282 . S
C683 O684 1.216 . S
O684 C683 1.216 . S
H685 C680 0.940 . S
H686 C681 0.930 . S
O687 Cu667 1.959 1_554 S
O687 C674 1.251 . S
H688 C671 0.930 . S
H689 C682 0.929 . S
Cu690 N691 1.999 . S
Cu690 O696 1.974 . S
Cu690 N701 1.985 . S
Cu690 O710 1.959 . S
N691 Cu690 1.999 . S
N691 C693 1.263 . S
N691 C695 1.389 . S
N692 C693 1.358 . S
N692 C694 1.400 . S
C693 N691 1.263 . S
C693 N692 1.358 . S
C693 H699 0.930 . S
C694 N692 1.400 . S
C694 C695 1.351 . S
C694 H711 0.930 . S
C695 N691 1.389 . S
C695 C694 1.351 . S
C695 H700 0.930 . S
O696 Cu690 1.974 . S
O696 C706 1.282 . S
C697 O698 1.261 . S
C697 O710 1.251 . S
O698 C697 1.261 . S
H699 C693 0.930 . S
H700 C695 0.930 . S
N701 Cu690 1.985 . S
N701 C703 1.335 . S
N701 C704 1.390 . S
N702 C703 1.345 . S
N702 C705 1.336 . S
C703 N701 1.335 . S
C703 N702 1.345 . S
C703 H708 0.930 . S
C704 N701 1.390 . S
C704 C705 1.346 . S
C704 H709 0.930 . S
C705 N702 1.336 . S
C705 C704 1.346 . S
C705 H712 0.929 . S
C706 O696 1.282 . S
C706 O707 1.216 . S
O707 C706 1.216 . S
H708 C703 0.930 . S
H709 C704 0.930 . S
O710 Cu690 1.959 . S
O710 C697 1.251 . S
H711 C694 0.930 . S
H712 C705 0.929 . S
Cu713 N714 1.999 . S
Cu713 O719 1.974 . S
Cu713 N724 1.985 . S
Cu713 O733 1.959 . S
N714 Cu713 1.999 . S
N714 C716 1.263 . S
N714 C718 1.389 . S
N715 C716 1.358 . S
N715 C717 1.400 . S
C716 N714 1.263 . S
C716 N715 1.358 . S
C716 H722 0.930 . S
C717 N715 1.400 . S
C717 C718 1.351 . S
C717 H734 0.930 . S
C718 N714 1.389 . S
C718 C717 1.351 . S
C718 H723 0.930 . S
O719 Cu713 1.974 . S
O719 C729 1.282 . S
C720 O721 1.261 . S
C720 O733 1.251 . S
O721 C720 1.261 . S
H722 C716 0.930 . S
H723 C718 0.930 . S
N724 Cu713 1.985 . S
N724 C726 1.335 . S
N724 C727 1.390 . S
N725 C726 1.345 . S
N725 C728 1.336 . S
C726 N724 1.335 . S
C726 N725 1.345 . S
C726 H731 0.930 . S
C727 N724 1.390 . S
C727 C728 1.346 . S
C727 H732 0.930 . S
C728 N725 1.336 . S
C728 C727 1.346 . S
C728 H735 0.929 . S
C729 O719 1.282 . S
C729 O730 1.216 . S
O730 C729 1.216 . S
H731 C726 0.930 . S
H732 C727 0.930 . S
O733 Cu713 1.959 . S
O733 C720 1.251 . S
H734 C717 0.930 . S
H735 C728 0.929 . S
C736 C737 1.387 . S
C736 H740 0.950 . S
C736 C745 1.390 . S
C737 C736 1.387 . S
C737 C739 1.387 . S
H738 C745 0.950 . S
C739 C737 1.387 . S
C739 C741 1.390 . S
C739 H743 0.950 . S
H740 C736 0.950 . S
C741 C739 1.390 . S
C741 C742 1.387 . S
C741 H744 0.950 . S
C742 C741 1.387 . S
C742 C745 1.387 . S
H743 C739 0.950 . S
H744 C741 0.950 . S
C745 C736 1.390 . S
C745 H738 0.950 . S
C745 C742 1.387 . S
C746 C747 1.387 . S
C746 H750 0.950 . S
C746 C755 1.390 . S
C747 C746 1.387 . S
C747 C749 1.387 . S
H748 C755 0.950 . S
C749 C747 1.387 . S
C749 C751 1.390 . S
C749 H753 0.950 . S
H750 C746 0.950 . S
C751 C749 1.390 . S
C751 C752 1.387 . S
C751 H754 0.950 . S
C752 C751 1.387 . S
C752 C755 1.387 . S
H753 C749 0.950 . S
H754 C751 0.950 . S
C755 C746 1.390 . S
C755 H748 0.950 . S
C755 C752 1.387 . S
C756 C757 1.387 . S
C756 H760 0.950 . S
C756 C765 1.390 . S
C757 C756 1.387 . S
C757 C759 1.387 . S
H758 C765 0.950 . S
C759 C757 1.387 . S
C759 C761 1.390 . S
C759 H763 0.950 . S
H760 C756 0.950 . S
C761 C759 1.390 . S
C761 C762 1.387 . S
C761 H764 0.950 . S
C762 C761 1.387 . S
C762 C765 1.387 . S
H763 C759 0.950 . S
H764 C761 0.950 . S
C765 C756 1.390 . S
C765 H758 0.950 . S
C765 C762 1.387 . S
C766 C767 1.387 . S
C766 H770 0.950 . S
C766 C775 1.390 . S
C767 C766 1.387 . S
C767 C769 1.387 . S
H768 C775 0.950 . S
C769 C767 1.387 . S
C769 C771 1.390 . S
C769 H773 0.950 . S
H770 C766 0.950 . S
C771 C769 1.390 . S
C771 C772 1.387 . S
C771 H774 0.950 . S
C772 C771 1.387 . S
C772 C775 1.387 . S
H773 C769 0.950 . S
H774 C771 0.950 . S
C775 C766 1.390 . S
C775 H768 0.950 . S
C775 C772 1.387 . S
C776 C777 1.387 . S
C776 H780 0.950 . S
C776 C785 1.390 . S
C777 C776 1.387 . S
C777 C779 1.387 . S
H778 C785 0.950 . S
C779 C777 1.387 . S
C779 C781 1.390 . S
C779 H783 0.950 . S
H780 C776 0.950 . S
C781 C779 1.390 . S
C781 C782 1.387 . S
C781 H784 0.950 . S
C782 C781 1.387 . S
C782 C785 1.387 . S
H783 C779 0.950 . S
H784 C781 0.950 . S
C785 C776 1.390 . S
C785 H778 0.950 . S
C785 C782 1.387 . S
C786 C787 1.387 . S
C786 H790 0.950 . S
C786 C795 1.390 . S
C787 C786 1.387 . S
C787 C789 1.387 . S
H788 C795 0.950 . S
C789 C787 1.387 . S
C789 C791 1.390 . S
C789 H793 0.950 . S
H790 C786 0.950 . S
C791 C789 1.390 . S
C791 C792 1.387 . S
C791 H794 0.950 . S
C792 C791 1.387 . S
C792 C795 1.387 . S
H793 C789 0.950 . S
H794 C791 0.950 . S
C795 C786 1.390 . S
C795 H788 0.950 . S
C795 C792 1.387 . S
C796 C797 1.387 . S
C796 H800 0.950 . S
C796 C805 1.390 . S
C797 C796 1.387 . S
C797 C799 1.387 . S
H798 C805 0.950 . S
C799 C797 1.387 . S
C799 C801 1.390 . S
C799 H803 0.950 . S
H800 C796 0.950 . S
C801 C799 1.390 . S
C801 C802 1.387 . S
C801 H804 0.950 . S
C802 C801 1.387 . S
C802 C805 1.387 . S
H803 C799 0.950 . S
H804 C801 0.950 . S
C805 C796 1.390 . S
C805 H798 0.950 . S
C805 C802 1.387 . S
C806 C807 1.387 . S
C806 H810 0.950 . S
C806 C815 1.390 . S
C807 C806 1.387 . S
C807 C809 1.387 . S
H808 C815 0.950 . S
C809 C807 1.387 . S
C809 C811 1.390 . S
C809 H813 0.950 . S
H810 C806 0.950 . S
C811 C809 1.390 . S
C811 C812 1.387 . S
C811 H814 0.950 . S
C812 C811 1.387 . S
C812 C815 1.387 . S
H813 C809 0.950 . S
H814 C811 0.950 . S
C815 C806 1.390 . S
C815 H808 0.950 . S
C815 C812 1.387 . S
C816 C817 1.387 . S
C816 H820 0.950 . S
C816 C825 1.390 . S
C817 C816 1.387 . S
C817 C819 1.387 . S
H818 C825 0.950 . S
C819 C817 1.387 . S
C819 C821 1.390 . S
C819 H823 0.950 . S
H820 C816 0.950 . S
C821 C819 1.390 . S
C821 C822 1.387 . S
C821 H824 0.950 . S
C822 C821 1.387 . S
C822 C825 1.387 . S
H823 C819 0.950 . S
H824 C821 0.950 . S
C825 C816 1.390 . S
C825 H818 0.950 . S
C825 C822 1.387 . S
C826 C827 1.387 . S
C826 H830 0.950 . S
C826 C835 1.390 . S
C827 C826 1.387 . S
C827 C829 1.387 . S
H828 C835 0.950 . S
C829 C827 1.387 . S
C829 C831 1.390 . S
C829 H833 0.950 . S
H830 C826 0.950 . S
C831 C829 1.390 . S
C831 C832 1.387 . S
C831 H834 0.950 . S
C832 C831 1.387 . S
C832 C835 1.387 . S
H833 C829 0.950 . S
H834 C831 0.950 . S
C835 C826 1.390 . S
C835 H828 0.950 . S
C835 C832 1.387 . S
C836 C837 1.387 . S
C836 H840 0.950 . S
C836 C845 1.390 . S
C837 C836 1.387 . S
C837 C839 1.387 . S
H838 C845 0.950 . S
C839 C837 1.387 . S
C839 C841 1.390 . S
C839 H843 0.950 . S
H840 C836 0.950 . S
C841 C839 1.390 . S
C841 C842 1.387 . S
C841 H844 0.950 . S
C842 C841 1.387 . S
C842 C845 1.387 . S
H843 C839 0.950 . S
H844 C841 0.950 . S
C845 C836 1.390 . S
C845 H838 0.950 . S
C845 C842 1.387 . S
C846 C847 1.387 . S
C846 H850 0.950 . S
C846 C855 1.390 . S
C847 C846 1.387 . S
C847 C849 1.387 . S
H848 C855 0.950 . S
C849 C847 1.387 . S
C849 C851 1.390 . S
C849 H853 0.950 . S
H850 C846 0.950 . S
C851 C849 1.390 . S
C851 C852 1.387 . S
C851 H854 0.950 . S
C852 C851 1.387 . S
C852 C855 1.387 . S
H853 C849 0.950 . S
H854 C851 0.950 . S
C855 C846 1.390 . S
C855 H848 0.950 . S
C855 C852 1.387 . S
C856 C857 1.387 . S
C856 H860 0.950 . S
C856 C865 1.390 . S
C857 C856 1.387 . S
C857 C859 1.387 . S
H858 C865 0.950 . S
C859 C857 1.387 . S
C859 C861 1.390 . S
C859 H863 0.950 . S
H860 C856 0.950 . S
C861 C859 1.390 . S
C861 C862 1.387 . S
C861 H864 0.950 . S
C862 C861 1.387 . S
C862 C865 1.387 . S
H863 C859 0.950 . S
H864 C861 0.950 . S
C865 C856 1.390 . S
C865 H858 0.950 . S
C865 C862 1.387 . S
C866 C867 1.387 . S
C866 H870 0.950 . S
C866 C875 1.390 . S
C867 C866 1.387 . S
C867 C869 1.387 . S
H868 C875 0.950 . S
C869 C867 1.387 . S
C869 C871 1.390 . S
C869 H873 0.950 . S
H870 C866 0.950 . S
C871 C869 1.390 . S
C871 C872 1.387 . S
C871 H874 0.950 . S
C872 C871 1.387 . S
C872 C875 1.387 . S
H873 C869 0.950 . S
H874 C871 0.950 . S
C875 C866 1.390 . S
C875 H868 0.950 . S
C875 C872 1.387 . S
C876 C877 1.387 . S
C876 H880 0.950 . S
C876 C885 1.390 . S
C877 C876 1.387 . S
C877 C879 1.387 . S
H878 C885 0.950 . S
C879 C877 1.387 . S
C879 C881 1.390 . S
C879 H883 0.950 . S
H880 C876 0.950 . S
C881 C879 1.390 . S
C881 C882 1.387 . S
C881 H884 0.950 . S
C882 C881 1.387 . S
C882 C885 1.387 . S
H883 C879 0.950 . S
H884 C881 0.950 . S
C885 C876 1.390 . S
C885 H878 0.950 . S
C885 C882 1.387 . S
C886 C887 1.387 . S
C886 H890 0.950 . S
C886 C895 1.390 . S
C887 C886 1.387 . S
C887 C889 1.387 . S
H888 C895 0.950 . S
C889 C887 1.387 . S
C889 C891 1.390 . S
C889 H893 0.950 . S
H890 C886 0.950 . S
C891 C889 1.390 . S
C891 C892 1.387 . S
C891 H894 0.950 . S
C892 C891 1.387 . S
C892 C895 1.387 . S
H893 C889 0.950 . S
H894 C891 0.950 . S
C895 C886 1.390 . S
C895 H888 0.950 . S
C895 C892 1.387 . S
C896 C897 1.387 . S
C896 H900 0.950 . S
C896 C905 1.390 1_545 S
C897 C896 1.387 . S
C897 C899 1.387 1_554 S
H898 C905 0.950 . S
C899 C897 1.387 1_556 S
C899 C901 1.390 1_545 S
C899 H903 0.950 . S
H900 C896 0.950 . S
C901 C899 1.390 1_565 S
C901 C902 1.387 . S
C901 H904 0.950 . S
C902 C901 1.387 . S
C902 C905 1.387 1_556 S
H903 C899 0.950 . S
H904 C901 0.950 . S
C905 C896 1.390 1_565 S
C905 H898 0.950 . S
C905 C902 1.387 1_554 S
C906 C907 1.387 1_554 S
C906 H910 0.950 . S
C906 C915 1.390 . S
C907 C906 1.387 1_556 S
C907 C909 1.387 . S
H908 C915 0.950 . S
C909 C907 1.387 . S
C909 C911 1.390 . S
C909 H913 0.950 . S
H910 C906 0.950 . S
C911 C909 1.390 . S
C911 C912 1.387 1_556 S
C911 H914 0.950 . S
C912 C911 1.387 1_554 S
C912 C915 1.387 . S
H913 C909 0.950 . S
H914 C911 0.950 . S
C915 C906 1.390 . S
C915 H908 0.950 . S
C915 C912 1.387 . S
C916 C917 1.387 . S
C916 H920 0.950 . S
C916 C925 1.390 . S
C917 C916 1.387 . S
C917 C919 1.387 . S
H918 C925 0.950 . S
C919 C917 1.387 . S
C919 C921 1.390 . S
C919 H923 0.950 . S
H920 C916 0.950 . S
C921 C919 1.390 . S
C921 C922 1.387 . S
C921 H924 0.950 . S
C922 C921 1.387 . S
C922 C925 1.387 . S
H923 C919 0.950 . S
H924 C921 0.950 . S
C925 C916 1.390 . S
C925 H918 0.950 . S
C925 C922 1.387 . S
C926 C927 1.387 . S
C926 H930 0.950 . S
C926 C935 1.390 1_565 S
C927 C926 1.387 . S
C927 C929 1.387 . S
H928 C935 0.950 . S
C929 C927 1.387 . S
C929 C931 1.390 1_565 S
C929 H933 0.950 . S
H930 C926 0.950 . S
C931 C929 1.390 1_545 S
C931 C932 1.387 . S
C931 H934 0.950 . S
C932 C931 1.387 . S
C932 C935 1.387 . S
H933 C929 0.950 . S
H934 C931 0.950 . S
C935 C926 1.390 1_545 S
C935 H928 0.950 . S
C935 C932 1.387 . S
C936 C937 1.387 1_556 S
C936 H940 0.950 . S
C936 C945 1.390 . S
C937 C936 1.387 1_554 S
C937 C939 1.387 . S
H938 C945 0.950 . S
C939 C937 1.387 . S
C939 C941 1.390 . S
C939 H943 0.950 . S
H940 C936 0.950 . S
C941 C939 1.390 . S
C941 C942 1.387 1_554 S
C941 H944 0.950 . S
C942 C941 1.387 1_556 S
C942 C945 1.387 . S
H943 C939 0.950 . S
H944 C941 0.950 . S
C945 C936 1.390 . S
C945 H938 0.950 . S
C945 C942 1.387 . S
C946 C947 1.387 . S
C946 H950 0.950 . S
C946 C955 1.390 . S
C947 C946 1.387 . S
C947 C949 1.387 . S
H948 C955 0.950 . S
C949 C947 1.387 . S
C949 C951 1.390 . S
C949 H953 0.950 . S
H950 C946 0.950 . S
C951 C949 1.390 . S
C951 C952 1.387 . S
C951 H954 0.950 . S
C952 C951 1.387 . S
C952 C955 1.387 . S
H953 C949 0.950 . S
H954 C951 0.950 . S
C955 C946 1.390 . S
C955 H948 0.950 . S
C955 C952 1.387 . S
C956 C957 1.387 . S
C956 H960 0.950 . S
C956 C965 1.390 1_565 S
C957 C956 1.387 . S
C957 C959 1.387 . S
H958 C965 0.950 . S
C959 C957 1.387 . S
C959 C961 1.390 1_565 S
C959 H963 0.950 . S
H960 C956 0.950 . S
C961 C959 1.390 1_545 S
C961 C962 1.387 . S
C961 H964 0.950 . S
C962 C961 1.387 . S
C962 C965 1.387 . S
H963 C959 0.950 . S
H964 C961 0.950 . S
C965 C956 1.390 1_545 S
C965 H958 0.950 . S
C965 C962 1.387 . S
C966 C967 1.387 . S
C966 H970 0.950 . S
C966 C975 1.390 . S
C967 C966 1.387 . S
C967 C969 1.387 . S
H968 C975 0.950 . S
C969 C967 1.387 . S
C969 C971 1.390 . S
C969 H973 0.950 . S
H970 C966 0.950 . S
C971 C969 1.390 . S
C971 C972 1.387 . S
C971 H974 0.950 . S
C972 C971 1.387 . S
C972 C975 1.387 . S
H973 C969 0.950 . S
H974 C971 0.950 . S
C975 C966 1.390 . S
C975 H968 0.950 . S
C975 C972 1.387 . S
C976 C977 1.387 . S
C976 H980 0.950 . S
C976 C985 1.390 . S
C977 C976 1.387 . S
C977 C979 1.387 . S
H978 C985 0.950 . S
C979 C977 1.387 . S
C979 C981 1.390 . S
C979 H983 0.950 . S
H980 C976 0.950 . S
C981 C979 1.390 . S
C981 C982 1.387 . S
C981 H984 0.950 . S
C982 C981 1.387 . S
C982 C985 1.387 . S
H983 C979 0.950 . S
H984 C981 0.950 . S
C985 C976 1.390 . S
C985 H978 0.950 . S
C985 C982 1.387 . S
C986 C987 1.387 . S
C986 H990 0.950 . S
C986 C995 1.390 . S
C987 C986 1.387 . S
C987 C989 1.387 . S
H988 C995 0.950 . S
C989 C987 1.387 . S
C989 C991 1.390 . S
C989 H993 0.950 . S
H990 C986 0.950 . S
C991 C989 1.390 . S
C991 C992 1.387 . S
C991 H994 0.950 . S
C992 C991 1.387 . S
C992 C995 1.387 . S
H993 C989 0.950 . S
H994 C991 0.950 . S
C995 C986 1.390 . S
C995 H988 0.950 . S
C995 C992 1.387 . S
C996 C997 1.387 . S
C996 H1000 0.950 . S
C996 C1005 1.390 . S
C997 C996 1.387 . S
C997 C999 1.387 . S
H998 C1005 0.950 . S
C999 C997 1.387 . S
C999 C1001 1.390 . S
C999 H1003 0.950 . S
H1000 C996 0.950 . S
C1001 C999 1.390 . S
C1001 C1002 1.387 . S
C1001 H1004 0.950 . S
C1002 C1001 1.387 . S
C1002 C1005 1.387 . S
H1003 C999 0.950 . S
H1004 C1001 0.950 . S
C1005 C996 1.390 . S
C1005 H998 0.950 . S
C1005 C1002 1.387 . S
C1006 C1007 1.387 . S
C1006 H1010 0.950 . S
C1006 C1015 1.390 . S
C1007 C1006 1.387 . S
C1007 C1009 1.387 . S
H1008 C1015 0.950 . S
C1009 C1007 1.387 . S
C1009 C1011 1.390 . S
C1009 H1013 0.950 . S
H1010 C1006 0.950 . S
C1011 C1009 1.390 . S
C1011 C1012 1.387 . S
C1011 H1014 0.950 . S
C1012 C1011 1.387 . S
C1012 C1015 1.387 . S
H1013 C1009 0.950 . S
H1014 C1011 0.950 . S
C1015 C1006 1.390 . S
C1015 H1008 0.950 . S
C1015 C1012 1.387 . S
C1016 C1017 1.387 . S
C1016 H1020 0.950 . S
C1016 C1025 1.390 1_465 S
C1017 C1016 1.387 . S
C1017 C1019 1.387 . S
H1018 C1025 0.950 . S
C1019 C1017 1.387 . S
C1019 C1021 1.390 1_465 S
C1019 H1023 0.950 . S
H1020 C1016 0.950 . S
C1021 C1019 1.390 1_645 S
C1021 C1022 1.387 . S
C1021 H1024 0.950 . S
C1022 C1021 1.387 . S
C1022 C1025 1.387 . S
H1023 C1019 0.950 . S
H1024 C1021 0.950 . S
C1025 C1016 1.390 1_645 S
C1025 H1018 0.950 . S
C1025 C1022 1.387 . S
C1026 C1027 1.387 . S
C1026 H1030 0.950 . S
C1026 C1035 1.390 1_655 S
C1027 C1026 1.387 . S
C1027 C1029 1.387 . S
H1028 C1035 0.950 . S
C1029 C1027 1.387 . S
C1029 C1031 1.390 1_655 S
C1029 H1033 0.950 . S
H1030 C1026 0.950 . S
C1031 C1029 1.390 1_455 S
C1031 C1032 1.387 . S
C1031 H1034 0.950 . S
C1032 C1031 1.387 . S
C1032 C1035 1.387 . S
H1033 C1029 0.950 . S
H1034 C1031 0.950 . S
C1035 C1026 1.390 1_455 S
C1035 H1028 0.950 . S
C1035 C1032 1.387 . S
C1036 C1037 1.387 . S
C1036 H1040 0.950 . S
C1036 C1045 1.390 1_455 S
C1037 C1036 1.387 . S
C1037 C1039 1.387 . S
H1038 C1045 0.950 . S
C1039 C1037 1.387 . S
C1039 C1041 1.390 1_455 S
C1039 H1043 0.950 . S
H1040 C1036 0.950 . S
C1041 C1039 1.390 1_655 S
C1041 C1042 1.387 . S
C1041 H1044 0.950 . S
C1042 C1041 1.387 . S
C1042 C1045 1.387 . S
H1043 C1039 0.950 . S
H1044 C1041 0.950 . S
C1045 C1036 1.390 1_655 S
C1045 H1038 0.950 . S
C1045 C1042 1.387 . S
C1046 C1047 1.387 1_554 S
C1046 H1050 0.950 . S
C1046 C1055 1.390 1_455 S
C1047 C1046 1.387 1_556 S
C1047 C1049 1.387 . S
H1048 C1055 0.950 . S
C1049 C1047 1.387 . S
C1049 C1051 1.390 1_455 S
C1049 H1053 0.950 . S
H1050 C1046 0.950 . S
C1051 C1049 1.390 1_655 S
C1051 C1052 1.387 1_556 S
C1051 H1054 0.950 . S
C1052 C1051 1.387 1_554 S
C1052 C1055 1.387 . S
H1053 C1049 0.950 . S
H1054 C1051 0.950 . S
C1055 C1046 1.390 1_655 S
C1055 H1048 0.950 . S
C1055 C1052 1.387 . S
C1056 C1057 1.387 . S
C1056 H1060 0.950 . S
C1056 C1065 1.390 . S
C1057 C1056 1.387 . S
C1057 C1059 1.387 . S
H1058 C1065 0.950 . S
C1059 C1057 1.387 . S
C1059 C1061 1.390 . S
C1059 H1063 0.950 . S
H1060 C1056 0.950 . S
C1061 C1059 1.390 . S
C1061 C1062 1.387 . S
C1061 H1064 0.950 . S
C1062 C1061 1.387 . S
C1062 C1065 1.387 . S
H1063 C1059 0.950 . S
H1064 C1061 0.950 . S
C1065 C1056 1.390 . S
C1065 H1058 0.950 . S
C1065 C1062 1.387 . S
C1066 C1067 1.387 . S
C1066 H1070 0.950 . S
C1066 C1075 1.390 . S
C1067 C1066 1.387 . S
C1067 C1069 1.387 . S
H1068 C1075 0.950 . S
C1069 C1067 1.387 . S
C1069 C1071 1.390 . S
C1069 H1073 0.950 . S
H1070 C1066 0.950 . S
C1071 C1069 1.390 . S
C1071 C1072 1.387 . S
C1071 H1074 0.950 . S
C1072 C1071 1.387 . S
C1072 C1075 1.387 . S
H1073 C1069 0.950 . S
H1074 C1071 0.950 . S
C1075 C1066 1.390 . S
C1075 H1068 0.950 . S
C1075 C1072 1.387 . S
C1076 C1077 1.387 . S
C1076 H1080 0.950 . S
C1076 C1085 1.390 . S
C1077 C1076 1.387 . S
C1077 C1079 1.387 . S
H1078 C1085 0.950 . S
C1079 C1077 1.387 . S
C1079 C1081 1.390 . S
C1079 H1083 0.950 . S
H1080 C1076 0.950 . S
C1081 C1079 1.390 . S
C1081 C1082 1.387 . S
C1081 H1084 0.950 . S
C1082 C1081 1.387 . S
C1082 C1085 1.387 . S
H1083 C1079 0.950 . S
H1084 C1081 0.950 . S
C1085 C1076 1.390 . S
C1085 H1078 0.950 . S
C1085 C1082 1.387 . S
C1086 C1087 1.387 . S
C1086 H1090 0.950 . S
C1086 C1095 1.390 . S
C1087 C1086 1.387 . S
C1087 C1089 1.387 . S
H1088 C1095 0.950 . S
C1089 C1087 1.387 . S
C1089 C1091 1.390 . S
C1089 H1093 0.950 . S
H1090 C1086 0.950 . S
C1091 C1089 1.390 . S
C1091 C1092 1.387 . S
C1091 H1094 0.950 . S
C1092 C1091 1.387 . S
C1092 C1095 1.387 . S
H1093 C1089 0.950 . S
H1094 C1091 0.950 . S
C1095 C1086 1.390 . S
C1095 H1088 0.950 . S
C1095 C1092 1.387 . S
C1096 C1097 1.387 . S
C1096 H1100 0.950 . S
C1096 C1105 1.390 . S
C1097 C1096 1.387 . S
C1097 C1099 1.387 . S
H1098 C1105 0.950 . S
C1099 C1097 1.387 . S
C1099 C1101 1.390 . S
C1099 H1103 0.950 . S
H1100 C1096 0.950 . S
C1101 C1099 1.390 . S
C1101 C1102 1.387 . S
C1101 H1104 0.950 . S
C1102 C1101 1.387 . S
C1102 C1105 1.387 . S
H1103 C1099 0.950 . S
H1104 C1101 0.950 . S
C1105 C1096 1.390 . S
C1105 H1098 0.950 . S
C1105 C1102 1.387 . S
C1106 C1107 1.387 . S
C1106 H1110 0.950 . S
C1106 C1115 1.390 . S
C1107 C1106 1.387 . S
C1107 C1109 1.387 . S
H1108 C1115 0.950 . S
C1109 C1107 1.387 . S
C1109 C1111 1.390 . S
C1109 H1113 0.950 . S
H1110 C1106 0.950 . S
C1111 C1109 1.390 . S
C1111 C1112 1.387 . S
C1111 H1114 0.950 . S
C1112 C1111 1.387 . S
C1112 C1115 1.387 . S
H1113 C1109 0.950 . S
H1114 C1111 0.950 . S
C1115 C1106 1.390 . S
C1115 H1108 0.950 . S
C1115 C1112 1.387 . S
C1116 C1117 1.387 . S
C1116 H1120 0.950 . S
C1116 C1125 1.390 . S
C1117 C1116 1.387 . S
C1117 C1119 1.387 . S
H1118 C1125 0.950 . S
C1119 C1117 1.387 . S
C1119 C1121 1.390 . S
C1119 H1123 0.950 . S
H1120 C1116 0.950 . S
C1121 C1119 1.390 . S
C1121 C1122 1.387 . S
C1121 H1124 0.950 . S
C1122 C1121 1.387 . S
C1122 C1125 1.387 . S
H1123 C1119 0.950 . S
H1124 C1121 0.950 . S
C1125 C1116 1.390 . S
C1125 H1118 0.950 . S
C1125 C1122 1.387 . S
C1126 C1127 1.387 . S
C1126 H1130 0.950 . S
C1126 C1135 1.390 . S
C1127 C1126 1.387 . S
C1127 C1129 1.387 . S
H1128 C1135 0.950 . S
C1129 C1127 1.387 . S
C1129 C1131 1.390 . S
C1129 H1133 0.950 . S
H1130 C1126 0.950 . S
C1131 C1129 1.390 . S
C1131 C1132 1.387 . S
C1131 H1134 0.950 . S
C1132 C1131 1.387 . S
C1132 C1135 1.387 . S
H1133 C1129 0.950 . S
H1134 C1131 0.950 . S
C1135 C1126 1.390 . S
C1135 H1128 0.950 . S
C1135 C1132 1.387 . S
C1136 C1137 1.387 . S
C1136 H1140 0.950 . S
C1136 C1145 1.390 . S
C1137 C1136 1.387 . S
C1137 C1139 1.387 . S
H1138 C1145 0.950 . S
C1139 C1137 1.387 . S
C1139 C1141 1.390 . S
C1139 H1143 0.950 . S
H1140 C1136 0.950 . S
C1141 C1139 1.390 . S
C1141 C1142 1.387 . S
C1141 H1144 0.950 . S
C1142 C1141 1.387 . S
C1142 C1145 1.387 . S
H1143 C1139 0.950 . S
H1144 C1141 0.950 . S
C1145 C1136 1.390 . S
C1145 H1138 0.950 . S
C1145 C1142 1.387 . S
C1146 C1147 1.387 . S
C1146 H1150 0.950 . S
C1146 C1155 1.390 . S
C1147 C1146 1.387 . S
C1147 C1149 1.387 . S
H1148 C1155 0.950 . S
C1149 C1147 1.387 . S
C1149 C1151 1.390 . S
C1149 H1153 0.950 . S
H1150 C1146 0.950 . S
C1151 C1149 1.390 . S
C1151 C1152 1.387 . S
C1151 H1154 0.950 . S
C1152 C1151 1.387 . S
C1152 C1155 1.387 . S
H1153 C1149 0.950 . S
H1154 C1151 0.950 . S
C1155 C1146 1.390 . S
C1155 H1148 0.950 . S
C1155 C1152 1.387 . S
C1156 C1157 1.387 . S
C1156 H1160 0.950 . S
C1156 C1165 1.390 . S
C1157 C1156 1.387 . S
C1157 C1159 1.387 . S
H1158 C1165 0.950 . S
C1159 C1157 1.387 . S
C1159 C1161 1.390 . S
C1159 H1163 0.950 . S
H1160 C1156 0.950 . S
C1161 C1159 1.390 . S
C1161 C1162 1.387 . S
C1161 H1164 0.950 . S
C1162 C1161 1.387 . S
C1162 C1165 1.387 . S
H1163 C1159 0.950 . S
H1164 C1161 0.950 . S
C1165 C1156 1.390 . S
C1165 H1158 0.950 . S
C1165 C1162 1.387 . S
C1166 C1167 1.387 . S
C1166 H1170 0.950 . S
C1166 C1175 1.390 . S
C1167 C1166 1.387 . S
C1167 C1169 1.387 . S
H1168 C1175 0.950 . S
C1169 C1167 1.387 . S
C1169 C1171 1.390 . S
C1169 H1173 0.950 . S
H1170 C1166 0.950 . S
C1171 C1169 1.390 . S
C1171 C1172 1.387 . S
C1171 H1174 0.950 . S
C1172 C1171 1.387 . S
C1172 C1175 1.387 . S
H1173 C1169 0.950 . S
H1174 C1171 0.950 . S
C1175 C1166 1.390 . S
C1175 H1168 0.950 . S
C1175 C1172 1.387 . S
C1176 C1177 1.387 . S
C1176 H1180 0.950 . S
C1176 C1185 1.390 . S
C1177 C1176 1.387 . S
C1177 C1179 1.387 . S
H1178 C1185 0.950 . S
C1179 C1177 1.387 . S
C1179 C1181 1.390 . S
C1179 H1183 0.950 . S
H1180 C1176 0.950 . S
C1181 C1179 1.390 . S
C1181 C1182 1.387 . S
C1181 H1184 0.950 . S
C1182 C1181 1.387 . S
C1182 C1185 1.387 . S
H1183 C1179 0.950 . S
H1184 C1181 0.950 . S
C1185 C1176 1.390 . S
C1185 H1178 0.950 . S
C1185 C1182 1.387 . S
C1186 C1187 1.387 . S
C1186 H1190 0.950 . S
C1186 C1195 1.390 . S
C1187 C1186 1.387 . S
C1187 C1189 1.387 . S
H1188 C1195 0.950 . S
C1189 C1187 1.387 . S
C1189 C1191 1.390 . S
C1189 H1193 0.950 . S
H1190 C1186 0.950 . S
C1191 C1189 1.390 . S
C1191 C1192 1.387 . S
C1191 H1194 0.950 . S
C1192 C1191 1.387 . S
C1192 C1195 1.387 . S
H1193 C1189 0.950 . S
H1194 C1191 0.950 . S
C1195 C1186 1.390 . S
C1195 H1188 0.950 . S
C1195 C1192 1.387 . S
C1196 C1197 1.387 . S
C1196 H1200 0.950 . S
C1196 C1205 1.390 . S
C1197 C1196 1.387 . S
C1197 C1199 1.387 . S
H1198 C1205 0.950 . S
C1199 C1197 1.387 . S
C1199 C1201 1.390 . S
C1199 H1203 0.950 . S
H1200 C1196 0.950 . S
C1201 C1199 1.390 . S
C1201 C1202 1.387 . S
C1201 H1204 0.950 . S
C1202 C1201 1.387 . S
C1202 C1205 1.387 . S
H1203 C1199 0.950 . S
H1204 C1201 0.950 . S
C1205 C1196 1.390 . S
C1205 H1198 0.950 . S
C1205 C1202 1.387 . S
C1206 C1207 1.387 . S
C1206 H1210 0.950 . S
C1206 C1215 1.390 . S
C1207 C1206 1.387 . S
C1207 C1209 1.387 . S
H1208 C1215 0.950 . S
C1209 C1207 1.387 . S
C1209 C1211 1.390 . S
C1209 H1213 0.950 . S
H1210 C1206 0.950 . S
C1211 C1209 1.390 . S
C1211 C1212 1.387 . S
C1211 H1214 0.950 . S
C1212 C1211 1.387 . S
C1212 C1215 1.387 . S
H1213 C1209 0.950 . S
H1214 C1211 0.950 . S
C1215 C1206 1.390 . S
C1215 H1208 0.950 . S
C1215 C1212 1.387 . S
C1216 C1217 1.387 . S
C1216 H1220 0.950 . S
C1216 C1225 1.390 . S
C1217 C1216 1.387 . S
C1217 C1219 1.387 1_554 S
H1218 C1225 0.950 . S
C1219 C1217 1.387 1_556 S
C1219 C1221 1.390 . S
C1219 H1223 0.950 . S
H1220 C1216 0.950 . S
C1221 C1219 1.390 . S
C1221 C1222 1.387 1_556 S
C1221 H1224 0.950 . S
C1222 C1221 1.387 1_554 S
C1222 C1225 1.387 . S
H1223 C1219 0.950 . S
H1224 C1221 0.950 . S
C1225 C1216 1.390 . S
C1225 H1218 0.950 . S
C1225 C1222 1.387 . S
C1226 C1227 1.387 . S
C1226 H1230 0.950 . S
C1226 C1235 1.390 . S
C1227 C1226 1.387 . S
C1227 C1229 1.387 . S
H1228 C1235 0.950 . S
C1229 C1227 1.387 . S
C1229 C1231 1.390 . S
C1229 H1233 0.950 . S
H1230 C1226 0.950 . S
C1231 C1229 1.390 . S
C1231 C1232 1.387 . S
C1231 H1234 0.950 . S
C1232 C1231 1.387 . S
C1232 C1235 1.387 . S
H1233 C1229 0.950 . S
H1234 C1231 0.950 . S
C1235 C1226 1.390 . S
C1235 H1228 0.950 . S
C1235 C1232 1.387 . S
C1236 C1237 1.387 . S
C1236 H1240 0.950 . S
C1236 C1245 1.390 . S
C1237 C1236 1.387 . S
C1237 C1239 1.387 1_556 S
H1238 C1245 0.950 . S
C1239 C1237 1.387 1_554 S
C1239 C1241 1.390 . S
C1239 H1243 0.950 . S
H1240 C1236 0.950 . S
C1241 C1239 1.390 . S
C1241 C1242 1.387 1_554 S
C1241 H1244 0.950 . S
C1242 C1241 1.387 1_556 S
C1242 C1245 1.387 . S
H1243 C1239 0.950 . S
H1244 C1241 0.950 . S
C1245 C1236 1.390 . S
C1245 H1238 0.950 . S
C1245 C1242 1.387 . S
C1246 C1247 1.387 . S
C1246 H1250 0.950 . S
C1246 C1255 1.390 . S
C1247 C1246 1.387 . S
C1247 C1249 1.387 . S
H1248 C1255 0.950 . S
C1249 C1247 1.387 . S
C1249 C1251 1.390 . S
C1249 H1253 0.950 . S
H1250 C1246 0.950 . S
C1251 C1249 1.390 . S
C1251 C1252 1.387 . S
C1251 H1254 0.950 . S
C1252 C1251 1.387 . S
C1252 C1255 1.387 . S
H1253 C1249 0.950 . S
H1254 C1251 0.950 . S
C1255 C1246 1.390 . S
C1255 H1248 0.950 . S
C1255 C1252 1.387 . S
C1256 C1257 1.387 . S
C1256 H1260 0.950 . S
C1256 C1265 1.390 . S
C1257 C1256 1.387 . S
C1257 C1259 1.387 . S
H1258 C1265 0.950 . S
C1259 C1257 1.387 . S
C1259 C1261 1.390 . S
C1259 H1263 0.950 . S
H1260 C1256 0.950 . S
C1261 C1259 1.390 . S
C1261 C1262 1.387 . S
C1261 H1264 0.950 . S
C1262 C1261 1.387 . S
C1262 C1265 1.387 . S
H1263 C1259 0.950 . S
H1264 C1261 0.950 . S
C1265 C1256 1.390 . S
C1265 H1258 0.950 . S
C1265 C1262 1.387 . S
C1266 C1267 1.387 . S
C1266 H1270 0.950 . S
C1266 C1275 1.390 . S
C1267 C1266 1.387 . S
C1267 C1269 1.387 . S
H1268 C1275 0.950 . S
C1269 C1267 1.387 . S
C1269 C1271 1.390 . S
C1269 H1273 0.950 . S
H1270 C1266 0.950 . S
C1271 C1269 1.390 . S
C1271 C1272 1.387 . S
C1271 H1274 0.950 . S
C1272 C1271 1.387 . S
C1272 C1275 1.387 . S
H1273 C1269 0.950 . S
H1274 C1271 0.950 . S
C1275 C1266 1.390 . S
C1275 H1268 0.950 . S
C1275 C1272 1.387 . S
C1276 C1277 1.387 . S
C1276 H1280 0.950 . S
C1276 C1285 1.390 . S
C1277 C1276 1.387 . S
C1277 C1279 1.387 . S
H1278 C1285 0.950 . S
C1279 C1277 1.387 . S
C1279 C1281 1.390 . S
C1279 H1283 0.950 . S
H1280 C1276 0.950 . S
C1281 C1279 1.390 . S
C1281 C1282 1.387 . S
C1281 H1284 0.950 . S
C1282 C1281 1.387 . S
C1282 C1285 1.387 . S
H1283 C1279 0.950 . S
H1284 C1281 0.950 . S
C1285 C1276 1.390 . S
C1285 H1278 0.950 . S
C1285 C1282 1.387 . S
C1286 C1287 1.387 . S
C1286 H1290 0.950 . S
C1286 C1295 1.390 . S
C1287 C1286 1.387 . S
C1287 C1289 1.387 . S
H1288 C1295 0.950 . S
C1289 C1287 1.387 . S
C1289 C1291 1.390 . S
C1289 H1293 0.950 . S
H1290 C1286 0.950 . S
C1291 C1289 1.390 . S
C1291 C1292 1.387 . S
C1291 H1294 0.950 . S
C1292 C1291 1.387 . S
C1292 C1295 1.387 . S
H1293 C1289 0.950 . S
H1294 C1291 0.950 . S
C1295 C1286 1.390 . S
C1295 H1288 0.950 . S
C1295 C1292 1.387 . S
C1296 C1297 1.387 . S
C1296 H1300 0.950 . S
C1296 C1305 1.390 . S
C1297 C1296 1.387 . S
C1297 C1299 1.387 . S
H1298 C1305 0.950 . S
C1299 C1297 1.387 . S
C1299 C1301 1.390 . S
C1299 H1303 0.950 . S
H1300 C1296 0.950 . S
C1301 C1299 1.390 . S
C1301 C1302 1.387 . S
C1301 H1304 0.950 . S
C1302 C1301 1.387 . S
C1302 C1305 1.387 . S
H1303 C1299 0.950 . S
H1304 C1301 0.950 . S
C1305 C1296 1.390 . S
C1305 H1298 0.950 . S
C1305 C1302 1.387 . S
C1306 C1307 1.387 . S
C1306 H1310 0.950 . S
C1306 C1315 1.390 . S
C1307 C1306 1.387 . S
C1307 C1309 1.387 . S
H1308 C1315 0.950 . S
C1309 C1307 1.387 . S
C1309 C1311 1.390 . S
C1309 H1313 0.950 . S
H1310 C1306 0.950 . S
C1311 C1309 1.390 . S
C1311 C1312 1.387 . S
C1311 H1314 0.950 . S
C1312 C1311 1.387 . S
C1312 C1315 1.387 . S
H1313 C1309 0.950 . S
H1314 C1311 0.950 . S
C1315 C1306 1.390 . S
C1315 H1308 0.950 . S
C1315 C1312 1.387 . S
C1316 C1317 1.387 . S
C1316 H1320 0.950 . S
C1316 C1325 1.390 . S
C1317 C1316 1.387 . S
C1317 C1319 1.387 . S
H1318 C1325 0.950 . S
C1319 C1317 1.387 . S
C1319 C1321 1.390 . S
C1319 H1323 0.950 . S
H1320 C1316 0.950 . S
C1321 C1319 1.390 . S
C1321 C1322 1.387 . S
C1321 H1324 0.950 . S
C1322 C1321 1.387 . S
C1322 C1325 1.387 . S
H1323 C1319 0.950 . S
H1324 C1321 0.950 . S
C1325 C1316 1.390 . S
C1325 H1318 0.950 . S
C1325 C1322 1.387 . S
C1326 C1327 1.387 . S
C1326 H1330 0.950 . S
C1326 C1335 1.390 . S
C1327 C1326 1.387 . S
C1327 C1329 1.387 . S
H1328 C1335 0.950 . S
C1329 C1327 1.387 . S
C1329 C1331 1.390 . S
C1329 H1333 0.950 . S
H1330 C1326 0.950 . S
C1331 C1329 1.390 . S
C1331 C1332 1.387 . S
C1331 H1334 0.950 . S
C1332 C1331 1.387 . S
C1332 C1335 1.387 . S
H1333 C1329 0.950 . S
H1334 C1331 0.950 . S
C1335 C1326 1.390 . S
C1335 H1328 0.950 . S
C1335 C1332 1.387 . S
C1336 C1337 1.387 . S
C1336 H1340 0.950 . S
C1336 C1345 1.390 . S
C1337 C1336 1.387 . S
C1337 C1339 1.387 1_554 S
H1338 C1345 0.950 . S
C1339 C1337 1.387 1_556 S
C1339 C1341 1.390 . S
C1339 H1343 0.950 . S
H1340 C1336 0.950 . S
C1341 C1339 1.390 . S
C1341 C1342 1.387 1_556 S
C1341 H1344 0.950 . S
C1342 C1341 1.387 1_554 S
C1342 C1345 1.387 . S
H1343 C1339 0.950 . S
H1344 C1341 0.950 . S
C1345 C1336 1.390 . S
C1345 H1338 0.950 . S
C1345 C1342 1.387 . S
C1346 C1347 1.387 . S
C1346 H1350 0.950 . S
C1346 C1355 1.390 . S
C1347 C1346 1.387 . S
C1347 C1349 1.387 . S
H1348 C1355 0.950 . S
C1349 C1347 1.387 . S
C1349 C1351 1.390 . S
C1349 H1353 0.950 . S
H1350 C1346 0.950 . S
C1351 C1349 1.390 . S
C1351 C1352 1.387 . S
C1351 H1354 0.950 . S
C1352 C1351 1.387 . S
C1352 C1355 1.387 . S
H1353 C1349 0.950 . S
H1354 C1351 0.950 . S
C1355 C1346 1.390 . S
C1355 H1348 0.950 . S
C1355 C1352 1.387 . S
C1356 C1357 1.387 . S
C1356 H1360 0.950 . S
C1356 C1365 1.390 . S
C1357 C1356 1.387 . S
C1357 C1359 1.387 1_556 S
H1358 C1365 0.950 . S
C1359 C1357 1.387 1_554 S
C1359 C1361 1.390 . S
C1359 H1363 0.950 . S
H1360 C1356 0.950 . S
C1361 C1359 1.390 . S
C1361 C1362 1.387 1_554 S
C1361 H1364 0.950 . S
C1362 C1361 1.387 1_556 S
C1362 C1365 1.387 . S
H1363 C1359 0.950 . S
H1364 C1361 0.950 . S
C1365 C1356 1.390 . S
C1365 H1358 0.950 . S
C1365 C1362 1.387 . S
C1366 C1367 1.387 . S
C1366 H1370 0.950 . S
C1366 C1375 1.390 . S
C1367 C1366 1.387 . S
C1367 C1369 1.387 . S
H1368 C1375 0.950 . S
C1369 C1367 1.387 . S
C1369 C1371 1.390 . S
C1369 H1373 0.950 . S
H1370 C1366 0.950 . S
C1371 C1369 1.390 . S
C1371 C1372 1.387 . S
C1371 H1374 0.950 . S
C1372 C1371 1.387 . S
C1372 C1375 1.387 . S
H1373 C1369 0.950 . S
H1374 C1371 0.950 . S
C1375 C1366 1.390 . S
C1375 H1368 0.950 . S
C1375 C1372 1.387 . S
C737 C16 1.530 . S
C742 C85 1.530 . S
C747 C62 1.529 . S
C752 C39 1.529 . S
C757 C177 1.529 . S
C762 C108 1.529 . S
C767 C154 1.530 . S
C772 C131 1.530 . S
C777 C200 1.529 . S
C782 C269 1.529 . S
C787 C223 1.530 . S
C792 C246 1.530 . S
C797 C361 1.530 . S
C802 C292 1.530 . S
C807 C338 1.530 . S
C812 C315 1.530 . S
C817 C384 1.530 . S
C822 C453 1.530 . S
C827 C407 1.529 . S
C832 C430 1.529 . S
C837 C476 1.530 . S
C842 C545 1.530 . S
C847 C499 1.530 . S
C852 C522 1.530 . S
C857 C568 1.530 . S
C862 C637 1.530 . S
C867 C614 1.530 . S
C872 C591 1.530 . S
C877 C729 1.529 . S
C882 C660 1.529 . S
C887 C706 1.529 . S
C892 C683 1.529 . S
C897 N12 1.540 . S
C902 N104 1.540 . S
C907 N679 1.540 . S
C912 N35 1.540 . S
C917 N58 1.540 . S
C922 N334 1.540 . S
C927 N541 1.540 . S
C932 N81 1.540 . S
C937 N587 1.540 . S
C942 N127 1.540 . S
C947 N150 1.540 . S
C952 N242 1.540 . S
C957 N173 1.540 . S
C962 N449 1.540 . S
C967 N288 1.540 . S
C972 N196 1.540 . S
C977 N495 1.540 . S
C982 N219 1.540 . S
C987 N265 1.540 . S
C992 N725 1.540 . S
C997 N311 1.540 . S
C1002 N403 1.540 . S
C1007 N357 1.540 . S
C1012 N633 1.540 . S
C1017 N472 1.540 . S
C1022 N380 1.540 . S
C1027 N426 1.540 . S
C1032 N702 1.540 . S
C1037 N518 1.540 . S
C1042 N610 1.540 . S
C1047 N656 1.540 . S
C1052 N564 1.540 . S
C1057 C7 1.446 . S
C1062 C444 1.446 . S
C1067 C30 1.446 . S
C1072 C421 1.446 . S
C1077 C398 1.446 . S
C1082 C53 1.446 . S
C1087 C375 1.447 . S
C1092 C76 1.447 . S
C1097 C99 1.447 . S
C1102 C536 1.447 . S
C1107 C122 1.446 . S
C1112 C513 1.446 . S
C1117 C145 1.446 . S
C1122 C490 1.446 . S
C1127 C467 1.447 . S
C1132 C168 1.447 . S
C1137 C191 1.446 . S
C1142 C628 1.446 . S
C1147 C605 1.446 . S
C1152 C214 1.446 . S
C1157 C582 1.446 . S
C1162 C237 1.446 . S
C1167 C260 1.446 . S
C1172 C559 1.446 . S
C1177 C283 1.446 . S
C1182 C720 1.446 . S
C1187 C306 1.446 . S
C1192 C697 1.446 . S
C1197 C674 1.447 . S
C1202 C329 1.447 . S
C1207 C352 1.446 . S
C1212 C651 1.446 . S
C1217 N25 1.460 . S
C1222 N2 1.460 . S
C1227 N48 1.460 . S
C1232 N71 1.460 . S
C1237 N117 1.456 . S
C1242 N94 1.456 . S
C1247 N140 1.456 . S
C1252 N163 1.456 . S
C1257 N209 1.456 . S
C1262 N186 1.456 . S
C1267 N232 1.456 . S
C1272 N255 1.456 . S
C1277 N278 1.460 . S
C1282 N301 1.460 . S
C1287 N324 1.460 . S
C1292 N347 1.460 . S
C1297 N370 1.456 . S
C1302 N393 1.456 . S
C1307 N439 1.456 . S
C1312 N416 1.456 . S
C1317 N462 1.456 . S
C1322 N485 1.456 . S
C1327 N531 1.460 . S
C1332 N508 1.460 . S
C1337 N577 1.460 . S
C1342 N554 1.460 . S
C1347 N600 1.456 . S
C1352 N623 1.456 . S
C1357 N646 1.456 . S
C1362 N669 1.456 . S
C1367 N715 1.456 . S
C1372 N692 1.456 . S
