# Generated by pormake.
# Topology tzs, (4)-cn, num edge types: 1
# Building blocks:
#     Node 0, Type 0, BuildingBlock: KUFVIS_clean_sbu_0, # of connection points: 4
#     Node 1, Type 0, BuildingBlock: KUFVIS_clean_sbu_0, # of connection points: 4
#     Node 2, Type 0, BuildingBlock: KUFVIS_clean_sbu_0, # of connection points: 4
#     Node 3, Type 0, BuildingBlock: KUFVIS_clean_sbu_0, # of connection points: 4
#     Node 4, Type 0, BuildingBlock: KUFVIS_clean_sbu_0, # of connection points: 4
#     Node 5, Type 0, BuildingBlock: KUFVIS_clean_sbu_0, # of connection points: 4
#     Node 6, Type 0, BuildingBlock: KUFVIS_clean_sbu_0, # of connection points: 4
#     Node 7, Type 0, BuildingBlock: KUFVIS_clean_sbu_0, # of connection points: 4
#     Node 8, Type 0, BuildingBlock: KUFVIS_clean_sbu_0, # of connection points: 4
#     Node 9, Type 0, BuildingBlock: KUFVIS_clean_sbu_0, # of connection points: 4
#     Node 10, Type 0, BuildingBlock: KUFVIS_clean_sbu_0, # of connection points: 4
#     Node 11, Type 0, BuildingBlock: KUFVIS_clean_sbu_0, # of connection points: 4
#     Node 12, Type 0, BuildingBlock: KUFVIS_clean_sbu_0, # of connection points: 4
#     Node 13, Type 0, BuildingBlock: KUFVIS_clean_sbu_0, # of connection points: 4
#     Node 14, Type 0, BuildingBlock: KUFVIS_clean_sbu_0, # of connection points: 4
#     Node 15, Type 0, BuildingBlock: KUFVIS_clean_sbu_0, # of connection points: 4
#     Edge 16, Type (0, 0), BuildingBlock: ZUJKAS_clean_linker_0, # of connection points: 2
#     Edge 17, Type (0, 0), BuildingBlock: ZUJKAS_clean_linker_0, # of connection points: 2
#     Edge 18, Type (0, 0), BuildingBlock: ZUJKAS_clean_linker_0, # of connection points: 2
#     Edge 19, Type (0, 0), BuildingBlock: ZUJKAS_clean_linker_0, # of connection points: 2
#     Edge 20, Type (0, 0), BuildingBlock: ZUJKAS_clean_linker_0, # of connection points: 2
#     Edge 21, Type (0, 0), BuildingBlock: ZUJKAS_clean_linker_0, # of connection points: 2
#     Edge 22, Type (0, 0), BuildingBlock: ZUJKAS_clean_linker_0, # of connection points: 2
#     Edge 23, Type (0, 0), BuildingBlock: ZUJKAS_clean_linker_0, # of connection points: 2
#     Edge 24, Type (0, 0), BuildingBlock: ZUJKAS_clean_linker_0, # of connection points: 2
#     Edge 25, Type (0, 0), BuildingBlock: ZUJKAS_clean_linker_0, # of connection points: 2
#     Edge 26, Type (0, 0), BuildingBlock: ZUJKAS_clean_linker_0, # of connection points: 2
#     Edge 27, Type (0, 0), BuildingBlock: ZUJKAS_clean_linker_0, # of connection points: 2
#     Edge 28, Type (0, 0), BuildingBlock: ZUJKAS_clean_linker_0, # of connection points: 2
#     Edge 29, Type (0, 0), BuildingBlock: ZUJKAS_clean_linker_0, # of connection points: 2
#     Edge 30, Type (0, 0), BuildingBlock: ZUJKAS_clean_linker_0, # of connection points: 2
#     Edge 31, Type (0, 0), BuildingBlock: ZUJKAS_clean_linker_0, # of connection points: 2
#     Edge 32, Type (0, 0), BuildingBlock: ZUJKAS_clean_linker_0, # of connection points: 2
#     Edge 33, Type (0, 0), BuildingBlock: ZUJKAS_clean_linker_0, # of connection points: 2
#     Edge 34, Type (0, 0), BuildingBlock: ZUJKAS_clean_linker_0, # of connection points: 2
#     Edge 35, Type (0, 0), BuildingBlock: ZUJKAS_clean_linker_0, # of connection points: 2
#     Edge 36, Type (0, 0), BuildingBlock: ZUJKAS_clean_linker_0, # of connection points: 2
#     Edge 37, Type (0, 0), BuildingBlock: ZUJKAS_clean_linker_0, # of connection points: 2
#     Edge 38, Type (0, 0), BuildingBlock: ZUJKAS_clean_linker_0, # of connection points: 2
#     Edge 39, Type (0, 0), BuildingBlock: ZUJKAS_clean_linker_0, # of connection points: 2
#     Edge 40, Type (0, 0), BuildingBlock: ZUJKAS_clean_linker_0, # of connection points: 2
#     Edge 41, Type (0, 0), BuildingBlock: ZUJKAS_clean_linker_0, # of connection points: 2
#     Edge 42, Type (0, 0), BuildingBlock: ZUJKAS_clean_linker_0, # of connection points: 2
#     Edge 43, Type (0, 0), BuildingBlock: ZUJKAS_clean_linker_0, # of connection points: 2
#     Edge 44, Type (0, 0), BuildingBlock: ZUJKAS_clean_linker_0, # of connection points: 2
#     Edge 45, Type (0, 0), BuildingBlock: ZUJKAS_clean_linker_0, # of connection points: 2
#     Edge 46, Type (0, 0), BuildingBlock: ZUJKAS_clean_linker_0, # of connection points: 2
#     Edge 47, Type (0, 0), BuildingBlock: ZUJKAS_clean_linker_0, # of connection points: 2
# Relax obj value: 0.101
# Max RMSD: 0.098
# Mean RMSD: 0.098
data_MOF--net-tzs--node1-KUFVIS_clean_sbu_0--edge1-ZUJKAS_clean_linker_0
_symmetry_space_group_name_H-M    P1
_symmetry_Int_Tables_number       1
_symmetry_cell_setting            triclinic
loop_
_symmetry_equiv_pos_as_xyz
'x, y, z'
_cell_length_a     62.293283
_cell_length_b     62.304206
_cell_length_c     51.3716
_cell_angle_alpha  89.989639
_cell_angle_beta   89.973033
_cell_angle_gamma 89.952561
loop_
_atom_site_label
_atom_site_type_symbol
_atom_site_fract_x
_atom_site_fract_y
_atom_site_fract_z
_atom_type_partial_charge
Mn0 Mn 0.14581 0.361 0.19466 0.0
Mn1 Mn 0.18829 0.38508 0.16601 0.0
C2 C 0.16114 0.39152 0.21277 0.0
C3 C 0.10894 0.3566 0.20172 0.0
C4 C 0.19154 0.34309 0.19555 0.0
O5 O 0.14475 0.3494 0.15727 0.0
O6 O 0.172 0.36866 0.1397 0.0
C7 C 0.16582 0.41588 0.13158 0.0
N8 N 0.17992 0.41197 0.15126 0.0
C9 C 0.18985 0.44923 0.15347 0.0
C10 C 0.17545 0.45368 0.13319 0.0
C11 C 0.16327 0.43695 0.12233 0.0
C12 C 0.19133 0.42803 0.16226 0.0
H13 H 0.1567 0.40301 0.12291 0.0
C14 C 0.15641 0.35536 0.13804 0.0
O15 O 0.1226 0.34146 0.20684 0.0
O16 O 0.11656 0.37393 0.19114 0.0
N17 N 0.2052 0.40172 0.18965 0.0
C18 C 0.21824 0.39478 0.20922 0.0
C19 C 0.23107 0.40964 0.22263 0.0
C20 C 0.23064 0.4314 0.21548 0.0
C21 C 0.21738 0.43809 0.19498 0.0
C22 C 0.20476 0.42259 0.18253 0.0
H23 H 0.21889 0.37803 0.21456 0.0
O24 O 0.15016 0.37838 0.22716 0.0
O25 O 0.16302 0.38616 0.18855 0.0
O26 O 0.17207 0.34249 0.20307 0.0
O27 O 0.19898 0.35785 0.1809 0.0
C28 C 0.21638 0.45949 0.1862 0.0
C29 C 0.20282 0.465 0.16526 0.0
H30 H 0.1736 0.46987 0.12583 0.0
H31 H 0.15211 0.44025 0.10669 0.0
H32 H 0.24136 0.40432 0.23832 0.0
H33 H 0.24064 0.4428 0.22577 0.0
H34 H 0.22602 0.47182 0.19536 0.0
H35 H 0.20219 0.48151 0.15868 0.0
Mn36 Mn 0.64436 0.14818 0.20029 0.0
Mn37 Mn 0.6208 0.19137 0.17235 0.0
C38 C 0.6134 0.1631 0.21786 0.0
C39 C 0.64862 0.11116 0.20689 0.0
C40 C 0.66166 0.19425 0.20392 0.0
O41 O 0.65662 0.14755 0.16314 0.0
O42 O 0.63931 0.17656 0.14686 0.0
C43 C 0.59299 0.16899 0.13432 0.0
N44 N 0.59521 0.18278 0.15471 0.0
C45 C 0.55737 0.19051 0.15488 0.0
C46 C 0.55466 0.17643 0.13385 0.0
C47 C 0.57255 0.16558 0.12358 0.0
C48 C 0.57811 0.19323 0.16481 0.0
H49 H 0.60671 0.16068 0.12632 0.0
C50 C 0.65216 0.16063 0.14464 0.0
O51 O 0.66367 0.12474 0.2126 0.0
O52 O 0.63151 0.11896 0.19596 0.0
N53 N 0.60219 0.20696 0.19513 0.0
C54 C 0.6074 0.21906 0.21628 0.0
C55 C 0.59131 0.23083 0.22904 0.0
C56 C 0.5701 0.23014 0.2198 0.0
C57 C 0.5651 0.21741 0.19812 0.0
C58 C 0.58183 0.20614 0.18613 0.0
H59 H 0.62372 0.21982 0.22328 0.0
O60 O 0.62643 0.15217 0.23246 0.0
O61 O 0.6192 0.16544 0.1938 0.0
O62 O 0.66283 0.17438 0.20964 0.0
O63 O 0.64667 0.20222 0.19006 0.0
C64 C 0.54416 0.21534 0.18804 0.0
C65 C 0.54027 0.20178 0.16656 0.0
H66 H 0.53892 0.17374 0.12552 0.0
H67 H 0.57059 0.15465 0.10738 0.0
H68 H 0.59526 0.24053 0.24584 0.0
H69 H 0.55778 0.23937 0.22961 0.0
H70 H 0.53088 0.22391 0.19685 0.0
H71 H 0.52405 0.20007 0.15926 0.0
Mn72 Mn 0.85991 0.64581 0.19383 0.0
Mn73 Mn 0.81611 0.62313 0.16638 0.0
C74 C 0.84478 0.61487 0.2112 0.0
C75 C 0.897 0.64972 0.2 0.0
C76 C 0.81398 0.66349 0.19896 0.0
O77 O 0.86039 0.65838 0.15692 0.0
O78 O 0.83065 0.64212 0.14113 0.0
C79 C 0.83802 0.59602 0.12715 0.0
N80 N 0.82438 0.5979 0.14776 0.0
C81 C 0.81638 0.56014 0.14674 0.0
C82 C 0.83029 0.5578 0.12545 0.0
C83 C 0.84121 0.57581 0.11569 0.0
C84 C 0.81393 0.58066 0.15744 0.0
H85 H 0.84639 0.60984 0.11953 0.0
C86 C 0.84684 0.6546 0.13873 0.0
O87 O 0.88355 0.66482 0.20604 0.0
O88 O 0.88903 0.63271 0.18905 0.0
N89 N 0.80067 0.60413 0.1888 0.0
C90 C 0.78867 0.60897 0.21019 0.0
C91 C 0.77675 0.59273 0.22241 0.0
C92 C 0.77716 0.57177 0.21239 0.0
C93 C 0.7898 0.56713 0.19049 0.0
C94 C 0.80122 0.58399 0.17904 0.0
H95 H 0.78808 0.62512 0.21776 0.0
O96 O 0.85596 0.62765 0.22583 0.0
O97 O 0.84231 0.62089 0.18725 0.0
O98 O 0.83404 0.66457 0.20366 0.0
O99 O 0.80562 0.64859 0.18532 0.0
C100 C 0.79158 0.54643 0.17962 0.0
C101 C 0.80501 0.5429 0.15791 0.0
H102 H 0.83278 0.54224 0.11654 0.0
H103 H 0.85202 0.57412 0.09931 0.0
H104 H 0.76713 0.59639 0.23939 0.0
H105 H 0.76778 0.55934 0.22177 0.0
H106 H 0.78288 0.53305 0.18798 0.0
H107 H 0.8065 0.52686 0.14999 0.0
Mn108 Mn 0.36244 0.85884 0.19115 0.0
Mn109 Mn 0.39091 0.81607 0.16994 0.0
C110 C 0.3935 0.84799 0.21227 0.0
C111 C 0.35481 0.89547 0.19446 0.0
C112 C 0.34929 0.81175 0.19969 0.0
O113 O 0.35189 0.85587 0.15344 0.0
O114 O 0.37154 0.82677 0.14242 0.0
C115 C 0.41691 0.83847 0.13003 0.0
N116 N 0.41578 0.82607 0.15183 0.0
C117 C 0.45423 0.82266 0.15348 0.0
C118 C 0.4558 0.83531 0.13099 0.0
C119 C 0.43706 0.84332 0.11928 0.0
C120 C 0.43372 0.81847 0.1634 0.0
H121 H 0.40256 0.84459 0.12088 0.0
C122 C 0.35777 0.84142 0.13716 0.0
O123 O 0.34066 0.88097 0.20021 0.0
O124 O 0.3729 0.88875 0.18487 0.0
N125 N 0.41066 0.80435 0.19467 0.0
C126 C 0.4064 0.79314 0.21686 0.0
C127 C 0.42346 0.78435 0.2312 0.0
C128 C 0.44466 0.78691 0.2224 0.0
C129 C 0.44863 0.79837 0.1994 0.0
C130 C 0.431 0.80682 0.18598 0.0
H131 H 0.39011 0.79095 0.22354 0.0
O132 O 0.37884 0.8586 0.22479 0.0
O133 O 0.38932 0.84359 0.18816 0.0
O134 O 0.34585 0.83184 0.20173 0.0
O135 O 0.36591 0.804 0.18859 0.0
C136 C 0.46939 0.8018 0.1893 0.0
C137 C 0.4722 0.81412 0.16651 0.0
H138 H 0.47132 0.83905 0.12261 0.0
H139 H 0.43815 0.85315 0.10196 0.0
H140 H 0.42027 0.77554 0.24894 0.0
H141 H 0.45777 0.78006 0.2335 0.0
H142 H 0.48334 0.79518 0.19897 0.0
H143 H 0.48826 0.81693 0.15918 0.0
Mn144 Mn 0.14946 0.64441 0.30814 0.0
Mn145 Mn 0.19279 0.62061 0.33525 0.0
C146 C 0.16398 0.61326 0.29059 0.0
C147 C 0.11243 0.64899 0.30208 0.0
C148 C 0.19581 0.66086 0.30263 0.0
O149 O 0.14926 0.65686 0.34507 0.0
O150 O 0.1789 0.64016 0.36045 0.0
C151 C 0.17093 0.59454 0.3755 0.0
N152 N 0.184 0.59579 0.35428 0.0
C153 C 0.1928 0.55828 0.35735 0.0
C154 C 0.17943 0.55658 0.37922 0.0
C155 C 0.16831 0.57476 0.3882 0.0
C156 C 0.19432 0.57828 0.34508 0.0
H157 H 0.16273 0.60858 0.38282 0.0
C158 C 0.16292 0.6529 0.36308 0.0
O159 O 0.12609 0.66388 0.29602 0.0
O160 O 0.12017 0.63185 0.31299 0.0
N161 N 0.2076 0.60099 0.31294 0.0
C162 C 0.21977 0.60532 0.29152 0.0
C163 C 0.23134 0.58866 0.27956 0.0
C164 C 0.23073 0.56788 0.29015 0.0
C165 C 0.21845 0.56392 0.31252 0.0
C166 C 0.20684 0.58103 0.3232 0.0
H167 H 0.22063 0.62136 0.28363 0.0
O168 O 0.15299 0.62632 0.27609 0.0
O169 O 0.16649 0.61902 0.3146 0.0
O170 O 0.17574 0.66266 0.2983 0.0
O171 O 0.20384 0.64559 0.31598 0.0
C172 C 0.21761 0.54378 0.32494 0.0
C173 C 0.20489 0.541 0.34744 0.0
H174 H 0.17762 0.54141 0.3893 0.0
H175 H 0.15799 0.57359 0.40509 0.0
H176 H 0.2409 0.59189 0.26241 0.0
H177 H 0.23989 0.55513 0.28107 0.0
H178 H 0.22658 0.53028 0.31728 0.0
H179 H 0.20424 0.52539 0.35669 0.0
Mn180 Mn 0.3595 0.14606 0.30666 0.0
Mn181 Mn 0.38543 0.18861 0.33282 0.0
C182 C 0.39124 0.15852 0.28878 0.0
C183 C 0.35289 0.10942 0.30109 0.0
C184 C 0.34539 0.19307 0.3001 0.0
O185 O 0.34698 0.14723 0.34357 0.0
O186 O 0.36523 0.17615 0.35837 0.0
C187 C 0.41046 0.1654 0.37295 0.0
N188 N 0.40984 0.17858 0.3518 0.0
C189 C 0.44825 0.18268 0.35229 0.0
C190 C 0.44929 0.16922 0.37414 0.0
C191 C 0.43031 0.1605 0.38446 0.0
C192 C 0.42801 0.18698 0.34165 0.0
H193 H 0.39593 0.15868 0.38099 0.0
C194 C 0.35165 0.16092 0.36129 0.0
O195 O 0.3388 0.12385 0.29478 0.0
O196 O 0.37034 0.11616 0.31225 0.0
N197 N 0.40578 0.20193 0.31006 0.0
C198 C 0.40208 0.21386 0.28829 0.0
C199 C 0.41946 0.22339 0.27526 0.0
C200 C 0.4404 0.22074 0.28489 0.0
C201 C 0.44379 0.20853 0.30746 0.0
C202 C 0.42585 0.19946 0.31963 0.0
H203 H 0.38601 0.21602 0.28088 0.0
O204 O 0.37767 0.14798 0.27452 0.0
O205 O 0.38563 0.16186 0.31274 0.0
O206 O 0.34287 0.17306 0.2961 0.0
O207 O 0.36086 0.20075 0.31345 0.0
C208 C 0.46427 0.20486 0.31823 0.0
C209 C 0.46651 0.19184 0.34053 0.0
H210 H 0.46457 0.16538 0.38305 0.0
H211 H 0.43099 0.15005 0.40127 0.0
H212 H 0.41672 0.23277 0.25784 0.0
H213 H 0.45376 0.22807 0.27474 0.0
H214 H 0.47843 0.21183 0.30942 0.0
H215 H 0.48237 0.18888 0.34839 0.0
Mn216 Mn 0.85852 0.36436 0.31183 0.0
Mn217 Mn 0.81522 0.39187 0.3334 0.0
C218 C 0.84653 0.39475 0.29025 0.0
C219 C 0.8955 0.35812 0.30883 0.0
C220 C 0.81184 0.34956 0.30479 0.0
O221 O 0.85607 0.35419 0.34975 0.0
O222 O 0.82706 0.37372 0.36148 0.0
C223 C 0.83726 0.41987 0.3715 0.0
N224 N 0.8246 0.41763 0.35006 0.0
C225 C 0.8201 0.45587 0.34645 0.0
C226 C 0.83301 0.45859 0.36856 0.0
C227 C 0.84168 0.44051 0.38108 0.0
C228 C 0.81631 0.43491 0.33776 0.0
H229 H 0.84393 0.40603 0.38123 0.0
C230 C 0.84202 0.36023 0.36648 0.0
O231 O 0.8816 0.34331 0.3033 0.0
O232 O 0.88794 0.37607 0.31784 0.0
N233 N 0.80245 0.41039 0.30803 0.0
C234 C 0.79122 0.40505 0.28622 0.0
C235 C 0.7819 0.42135 0.27107 0.0
C236 C 0.78402 0.44291 0.27865 0.0
C237 C 0.79551 0.44799 0.30129 0.0
C238 C 0.80447 0.43108 0.31558 0.0
H239 H 0.78944 0.38849 0.28042 0.0
O240 O 0.85762 0.38035 0.27791 0.0
O241 O 0.84243 0.39069 0.31447 0.0
O242 O 0.83196 0.34686 0.30164 0.0
O243 O 0.8038 0.36586 0.31629 0.0
C244 C 0.79857 0.46918 0.31015 0.0
C245 C 0.811 0.47313 0.33258 0.0
H246 H 0.83645 0.47448 0.376 0.0
H247 H 0.85172 0.44248 0.3981 0.0
H248 H 0.77307 0.4173 0.25362 0.0
H249 H 0.77684 0.45543 0.26689 0.0
H250 H 0.79157 0.48259 0.29976 0.0
H251 H 0.81352 0.48951 0.33893 0.0
Mn252 Mn 0.64386 0.85871 0.31354 0.0
Mn253 Mn 0.61932 0.81405 0.33617 0.0
C254 C 0.61338 0.84509 0.29324 0.0
C255 C 0.64835 0.89596 0.30996 0.0
C256 C 0.66111 0.81287 0.30617 0.0
O257 O 0.65496 0.85704 0.3512 0.0
O258 O 0.63724 0.82708 0.36357 0.0
C259 C 0.59068 0.83437 0.37505 0.0
N260 N 0.59336 0.82175 0.35366 0.0
C261 C 0.55555 0.81409 0.35172 0.0
C262 C 0.55237 0.82697 0.37377 0.0
C263 C 0.57 0.83722 0.38542 0.0
C264 C 0.57649 0.81197 0.34216 0.0
H265 H 0.6042 0.84219 0.38414 0.0
C266 C 0.64999 0.84274 0.36814 0.0
O267 O 0.66361 0.88263 0.30409 0.0
O268 O 0.63092 0.88772 0.31956 0.0
N269 N 0.60122 0.80002 0.31145 0.0
C270 C 0.60692 0.78899 0.28961 0.0
C271 C 0.59118 0.77775 0.27564 0.0
C272 C 0.56982 0.77783 0.28437 0.0
C273 C 0.56429 0.78952 0.30673 0.0
C274 C 0.58069 0.80029 0.31994 0.0
H275 H 0.62339 0.7886 0.28305 0.0
O276 O 0.62696 0.8567 0.28025 0.0
O277 O 0.61841 0.84128 0.31725 0.0
O278 O 0.66265 0.83309 0.30296 0.0
O279 O 0.64551 0.80411 0.31824 0.0
C280 C 0.54315 0.79096 0.31639 0.0
C281 C 0.53875 0.8034 0.33872 0.0
H282 H 0.53645 0.82917 0.38185 0.0
H283 H 0.56767 0.84722 0.40241 0.0
H284 H 0.59554 0.76887 0.25831 0.0
H285 H 0.55777 0.76897 0.27363 0.0
H286 H 0.53011 0.78277 0.30662 0.0
H287 H 0.52239 0.80466 0.34571 0.0
Mn288 Mn 0.86107 0.64606 0.80887 0.0
Mn289 Mn 0.88807 0.68934 0.83117 0.0
C290 C 0.89142 0.65859 0.78769 0.0
C291 C 0.85533 0.60905 0.8048 0.0
C292 C 0.84614 0.69289 0.80198 0.0
O293 O 0.851 0.64762 0.84681 0.0
O294 O 0.86904 0.67758 0.85855 0.0
C295 C 0.91488 0.66696 0.87031 0.0
N296 N 0.9133 0.6797 0.84885 0.0
C297 C 0.95167 0.68376 0.84667 0.0
C298 C 0.9537 0.67077 0.86882 0.0
C299 C 0.93522 0.66228 0.88064 0.0
C300 C 0.93098 0.68782 0.83721 0.0
H301 H 0.90073 0.66042 0.8795 0.0
C302 C 0.85611 0.6621 0.86338 0.0
O303 O 0.84031 0.62288 0.79967 0.0
O304 O 0.87316 0.61666 0.814 0.0
N305 N 0.90738 0.70209 0.80666 0.0
C306 C 0.90271 0.71359 0.78482 0.0
C307 C 0.91947 0.72289 0.77043 0.0
C308 C 0.9408 0.72047 0.77879 0.0
C309 C 0.9452 0.70869 0.80143 0.0
C310 C 0.92784 0.69981 0.81498 0.0
H311 H 0.88633 0.7156 0.77839 0.0
O312 O 0.87704 0.64779 0.77498 0.0
O313 O 0.88728 0.66227 0.81199 0.0
O314 O 0.84312 0.67272 0.79965 0.0
O315 O 0.86271 0.70089 0.81287 0.0
C316 C 0.96613 0.70529 0.81101 0.0
C317 C 0.96937 0.6927 0.83349 0.0
H318 H 0.96936 0.66712 0.87684 0.0
H319 H 0.93665 0.65218 0.89769 0.0
H320 H 0.91595 0.73194 0.75296 0.0
H321 H 0.95368 0.72765 0.76761 0.0
H322 H 0.97987 0.71215 0.80115 0.0
H323 H 0.98556 0.68994 0.84043 0.0
Mn324 Mn 0.3574 0.86426 0.80659 0.0
Mn325 Mn 0.31336 0.88993 0.82936 0.0
C326 C 0.34458 0.89517 0.78642 0.0
C327 C 0.39449 0.85858 0.803 0.0
C328 C 0.31117 0.84818 0.79944 0.0
O329 O 0.35535 0.85305 0.84418 0.0
O330 O 0.32606 0.87179 0.85681 0.0
C331 C 0.33432 0.91825 0.86803 0.0
N332 N 0.32161 0.91577 0.84668 0.0
C333 C 0.3147 0.95373 0.84454 0.0
C334 C 0.32768 0.9567 0.86654 0.0
C335 C 0.3376 0.93889 0.87827 0.0
C336 C 0.31214 0.93281 0.83513 0.0
H337 H 0.34189 0.90459 0.87715 0.0
C338 C 0.34131 0.85849 0.86123 0.0
O339 O 0.38069 0.84381 0.79707 0.0
O340 O 0.38681 0.87626 0.81266 0.0
N341 N 0.29968 0.90826 0.80456 0.0
C342 C 0.28851 0.90272 0.78278 0.0
C343 C 0.27754 0.91864 0.76876 0.0
C344 C 0.27805 0.94002 0.77737 0.0
C345 C 0.28991 0.94538 0.79965 0.0
C346 C 0.30036 0.9288 0.81295 0.0
H347 H 0.2878 0.88625 0.77631 0.0
O348 O 0.35587 0.88134 0.77337 0.0
O349 O 0.34062 0.89016 0.8104 0.0
O350 O 0.33132 0.84625 0.79594 0.0
O351 O 0.30281 0.86391 0.81166 0.0
C352 C 0.29182 0.96652 0.80916 0.0
C353 C 0.30436 0.97071 0.83145 0.0
H354 H 0.33023 0.97259 0.87452 0.0
H355 H 0.34768 0.94106 0.89521 0.0
H356 H 0.26855 0.91442 0.75148 0.0
H357 H 0.2694 0.95221 0.7666 0.0
H358 H 0.28391 0.9797 0.7993 0.0
H359 H 0.30598 0.98707 0.83832 0.0
Mn360 Mn 0.14821 0.35989 0.80987 0.0
Mn361 Mn 0.12524 0.31595 0.83644 0.0
C362 C 0.11706 0.34524 0.79251 0.0
C363 C 0.1521 0.39699 0.80402 0.0
C364 C 0.1653 0.31383 0.80339 0.0
O365 O 0.16076 0.35996 0.84672 0.0
O366 O 0.14492 0.3297 0.86166 0.0
C367 C 0.09935 0.33701 0.87752 0.0
N368 N 0.10051 0.32428 0.85601 0.0
C369 C 0.06301 0.31546 0.85914 0.0
C370 C 0.0614 0.32846 0.88134 0.0
C371 C 0.07961 0.33942 0.89043 0.0
C372 C 0.08296 0.31411 0.84671 0.0
H373 H 0.11339 0.34511 0.8849 0.0
C374 C 0.15727 0.34596 0.86449 0.0
O375 O 0.16723 0.38362 0.79782 0.0
O376 O 0.13518 0.38894 0.81507 0.0
N377 N 0.10552 0.30136 0.81407 0.0
C378 C 0.10973 0.28962 0.79227 0.0
C379 C 0.093 0.27831 0.78015 0.0
C380 C 0.07226 0.27878 0.79088 0.0
C381 C 0.06842 0.29066 0.8136 0.0
C382 C 0.08561 0.30198 0.8245 0.0
H383 H 0.12572 0.28892 0.78419 0.0
O384 O 0.12995 0.35637 0.77796 0.0
O385 O 0.12313 0.3425 0.81637 0.0
O386 O 0.16689 0.334 0.79969 0.0
O387 O 0.15012 0.30538 0.8165 0.0
C388 C 0.04831 0.29139 0.82611 0.0
C389 C 0.04566 0.30362 0.84902 0.0
H390 H 0.04628 0.33012 0.89156 0.0
H391 H 0.07851 0.34947 0.90756 0.0
H392 H 0.09614 0.26908 0.76271 0.0
H393 H 0.05946 0.26985 0.78163 0.0
H394 H 0.03475 0.28265 0.81827 0.0
H395 H 0.03009 0.30414 0.8584 0.0
Mn396 Mn 0.64898 0.14477 0.81524 0.0
Mn397 Mn 0.69187 0.12154 0.84423 0.0
C398 C 0.6636 0.11317 0.79903 0.0
C399 C 0.61218 0.14971 0.80798 0.0
C400 C 0.69529 0.16134 0.81087 0.0
O401 O 0.64826 0.15792 0.85189 0.0
O402 O 0.67727 0.14105 0.8688 0.0
C403 C 0.66902 0.09533 0.88354 0.0
N404 N 0.68287 0.09669 0.86309 0.0
C405 C 0.69015 0.05879 0.86488 0.0
C406 C 0.67599 0.05698 0.886 0.0
C407 C 0.66533 0.07533 0.89531 0.0
C408 C 0.69311 0.07913 0.85388 0.0
H409 H 0.66086 0.10941 0.89083 0.0
C410 C 0.66134 0.15396 0.87053 0.0
O411 O 0.62618 0.16429 0.80201 0.0
O412 O 0.61941 0.13263 0.81956 0.0
N413 N 0.70723 0.10199 0.82242 0.0
C414 C 0.7195 0.10632 0.8011 0.0
C415 C 0.73115 0.08968 0.78926 0.0
C416 C 0.7302 0.06884 0.79959 0.0
C417 C 0.7173 0.06472 0.82143 0.0
C418 C 0.70613 0.08197 0.83245 0.0
H419 H 0.72048 0.12238 0.79328 0.0
O420 O 0.65295 0.12598 0.78382 0.0
O421 O 0.66588 0.11956 0.82286 0.0
O422 O 0.67539 0.1626 0.80541 0.0
O423 O 0.70318 0.14664 0.82525 0.0
C424 C 0.71501 0.04419 0.83263 0.0
C425 C 0.70131 0.0412 0.85419 0.0
H426 H 0.67311 0.04158 0.89514 0.0
H427 H 0.65435 0.07406 0.91157 0.0
H428 H 0.74096 0.09294 0.77233 0.0
H429 H 0.73934 0.05609 0.7905 0.0
H430 H 0.72353 0.03054 0.82462 0.0
H431 H 0.69942 0.02528 0.86236 0.0
Mn432 Mn 0.86382 0.35786 0.69785 0.0
Mn433 Mn 0.89064 0.31382 0.67733 0.0
C434 C 0.8939 0.34548 0.72017 0.0
C435 C 0.85806 0.39497 0.70009 0.0
C436 C 0.84737 0.31185 0.70411 0.0
O437 O 0.85413 0.35509 0.65968 0.0
O438 O 0.87468 0.32672 0.6481 0.0
C439 C 0.9219 0.33411 0.64158 0.0
N440 N 0.91775 0.32184 0.66293 0.0
C441 C 0.95523 0.31371 0.66846 0.0
C442 C 0.95993 0.32624 0.64651 0.0
C443 C 0.9432 0.33662 0.63313 0.0
C444 C 0.93377 0.31221 0.6763 0.0
H445 H 0.90904 0.3418 0.63099 0.0
C446 C 0.8611 0.34155 0.64284 0.0
O447 O 0.84302 0.38131 0.70555 0.0
O448 O 0.87605 0.3871 0.69154 0.0
N449 N 0.90693 0.29989 0.704 0.0
C450 C 0.89966 0.2882 0.72463 0.0
C451 C 0.91442 0.27713 0.74035 0.0
C452 C 0.93643 0.27787 0.73444 0.0
C453 C 0.94347 0.28964 0.71279 0.0
C454 C 0.92803 0.30051 0.69797 0.0
H455 H 0.88274 0.28728 0.72904 0.0
O456 O 0.87962 0.35713 0.73196 0.0
O457 O 0.88983 0.34111 0.69606 0.0
O458 O 0.84563 0.33191 0.70839 0.0
O459 O 0.86325 0.30353 0.6921 0.0
C460 C 0.96515 0.29079 0.70516 0.0
C461 C 0.971 0.30266 0.68288 0.0
H462 H 0.97631 0.32805 0.63979 0.0
H463 H 0.9467 0.34633 0.61618 0.0
H464 H 0.90884 0.26794 0.7569 0.0
H465 H 0.94775 0.26924 0.74654 0.0
H466 H 0.97745 0.28255 0.71622 0.0
H467 H 0.98773 0.30342 0.67719 0.0
Mn468 Mn 0.64659 0.86302 0.69885 0.0
Mn469 Mn 0.69034 0.891 0.6798 0.0
C470 C 0.65816 0.89289 0.72187 0.0
C471 C 0.6095 0.85698 0.7009 0.0
C472 C 0.69323 0.84819 0.70733 0.0
O473 O 0.64967 0.85382 0.66064 0.0
O474 O 0.67939 0.87299 0.65107 0.0
C475 C 0.66902 0.91911 0.64113 0.0
N476 N 0.68117 0.9168 0.66299 0.0
C477 C 0.6855 0.95503 0.66691 0.0
C478 C 0.6731 0.95781 0.64438 0.0
C479 C 0.66476 0.93977 0.6315 0.0
C480 C 0.6891 0.93406 0.67567 0.0
H481 H 0.66263 0.90529 0.63109 0.0
C482 C 0.66442 0.85988 0.64485 0.0
O483 O 0.62324 0.84191 0.70612 0.0
O484 O 0.61729 0.87505 0.69265 0.0
N485 N 0.70235 0.90945 0.70575 0.0
C486 C 0.71325 0.90405 0.72779 0.0
C487 C 0.72236 0.92029 0.74317 0.0
C488 C 0.7204 0.94186 0.73558 0.0
C489 C 0.70922 0.94702 0.71273 0.0
C490 C 0.70046 0.93016 0.69821 0.0
H491 H 0.71497 0.88747 0.73358 0.0
O492 O 0.64697 0.87815 0.73341 0.0
O493 O 0.6627 0.88943 0.69764 0.0
O494 O 0.67302 0.84506 0.70883 0.0
O495 O 0.70144 0.86504 0.6973 0.0
C496 C 0.70634 0.96823 0.70383 0.0
C497 C 0.69432 0.97225 0.68108 0.0
H498 H 0.66982 0.97373 0.63687 0.0
H499 H 0.65513 0.94179 0.61414 0.0
H500 H 0.73096 0.91618 0.76079 0.0
H501 H 0.72749 0.95433 0.74748 0.0
H502 H 0.71318 0.98161 0.71441 0.0
H503 H 0.69194 0.98864 0.67468 0.0
Mn504 Mn 0.14323 0.64852 0.69294 0.0
Mn505 Mn 0.11961 0.69193 0.66567 0.0
C506 C 0.11213 0.66314 0.71057 0.0
C507 C 0.14782 0.61153 0.69925 0.0
C508 C 0.16017 0.6947 0.69775 0.0
O509 O 0.15554 0.64818 0.65589 0.0
O510 O 0.1387 0.67768 0.64026 0.0
C511 C 0.09265 0.66968 0.62663 0.0
N512 N 0.09441 0.68327 0.64728 0.0
C513 C 0.05649 0.69064 0.64666 0.0
C514 C 0.05427 0.67676 0.62535 0.0
C515 C 0.07242 0.66618 0.61535 0.0
C516 C 0.07704 0.69342 0.65715 0.0
H517 H 0.10657 0.66159 0.61882 0.0
C518 C 0.15143 0.66168 0.63774 0.0
O519 O 0.16274 0.62522 0.70503 0.0
O520 O 0.1306 0.61921 0.68843 0.0
N521 N 0.10048 0.70705 0.68827 0.0
C522 C 0.10524 0.71909 0.70963 0.0
C523 C 0.08887 0.73071 0.72205 0.0
C524 C 0.06784 0.72995 0.71226 0.0
C525 C 0.06328 0.71725 0.69039 0.0
C526 C 0.08028 0.70615 0.67874 0.0
H527 H 0.12144 0.71994 0.71703 0.0
O528 O 0.12523 0.65223 0.72511 0.0
O529 O 0.11797 0.6657 0.68656 0.0
O530 O 0.16163 0.67467 0.70246 0.0
O531 O 0.145 0.70283 0.68432 0.0
C532 C 0.04253 0.71512 0.67976 0.0
C533 C 0.03911 0.70168 0.65805 0.0
H534 H 0.0387 0.67402 0.61658 0.0
H535 H 0.07083 0.65541 0.59894 0.0
H536 H 0.09247 0.74036 0.739 0.0
H537 H 0.0553 0.73909 0.72178 0.0
H538 H 0.02905 0.72354 0.6883 0.0
H539 H 0.02304 0.69992 0.6503 0.0
Mn540 Mn 0.36387 0.14714 0.69067 0.0
Mn541 Mn 0.32023 0.12137 0.66731 0.0
C542 C 0.35107 0.11628 0.71043 0.0
C543 C 0.40086 0.1526 0.69517 0.0
C544 C 0.31718 0.16225 0.69854 0.0
O545 O 0.36246 0.15832 0.65321 0.0
O546 O 0.33201 0.14136 0.64095 0.0
C547 C 0.34212 0.09602 0.62634 0.0
N548 N 0.32958 0.09682 0.64806 0.0
C549 C 0.32511 0.05847 0.64787 0.0
C550 C 0.33791 0.05724 0.62546 0.0
C551 C 0.3465 0.0761 0.6147 0.0
C552 C 0.32135 0.07876 0.65866 0.0
H553 H 0.34872 0.11046 0.61793 0.0
C554 C 0.34773 0.15411 0.6366 0.0
O555 O 0.38707 0.16751 0.70082 0.0
O556 O 0.39325 0.13505 0.68518 0.0
N557 N 0.30747 0.1012 0.69075 0.0
C558 C 0.29618 0.10505 0.71299 0.0
C559 C 0.28686 0.08779 0.72647 0.0
C560 C 0.28902 0.06682 0.71677 0.0
C561 C 0.30056 0.06327 0.69372 0.0
C562 C 0.30952 0.08109 0.68117 0.0
H563 H 0.29437 0.12116 0.72043 0.0
O564 O 0.36193 0.1302 0.72381 0.0
O565 O 0.34742 0.12117 0.68632 0.0
O566 O 0.33739 0.16504 0.70064 0.0
O567 O 0.30892 0.14604 0.68714 0.0
C568 C 0.30362 0.04276 0.68278 0.0
C569 C 0.31603 0.04033 0.66 0.0
H570 H 0.34131 0.04191 0.61641 0.0
H571 H 0.35644 0.07529 0.59744 0.0
H572 H 0.27799 0.09066 0.74425 0.0
H573 H 0.28181 0.05356 0.72723 0.0
H574 H 0.29662 0.02869 0.69179 0.0
H575 H 0.31853 0.02444 0.652 0.0
H576 H 0.31853 0.18613 0.25885 0.0
H577 H 0.2928 0.21119 0.23966 0.0
H578 H 0.30994 0.25876 0.29701 0.0
H579 H 0.33636 0.23412 0.31555 0.0
H580 H 0.25812 0.22909 0.2578 0.0
H581 H 0.31503 0.29398 0.23281 0.0
H582 H 0.32393 0.26786 0.24339 0.0
H583 H 0.31578 0.28777 0.26686 0.0
C584 C 0.31691 0.20198 0.26728 0.0
C585 C 0.32963 0.20819 0.28861 0.0
C586 C 0.30218 0.2163 0.25629 0.0
C587 C 0.29968 0.23707 0.26652 0.0
C588 C 0.31202 0.24311 0.2882 0.0
H589 H 0.18796 0.31824 0.23925 0.0
H590 H 0.21384 0.29217 0.25596 0.0
C591 C 0.32703 0.22894 0.29891 0.0
C592 C 0.28378 0.25213 0.2549 0.0
H593 H 0.27781 0.303 0.23121 0.0
C594 C 0.26247 0.2452 0.2518 0.0
C595 C 0.28947 0.27305 0.24661 0.0
C596 C 0.31234 0.28102 0.24731 0.0
C597 C 0.24668 0.25866 0.24107 0.0
C598 C 0.25212 0.27997 0.2341 0.0
C599 C 0.27351 0.28677 0.23682 0.0
C600 C 0.23604 0.29547 0.22374 0.0
C601 C 0.22447 0.24965 0.23679 0.0
C602 C 0.24013 0.30661 0.20048 0.0
C603 C 0.2256 0.32192 0.19122 0.0
C604 C 0.20653 0.32629 0.20489 0.0
C605 C 0.20234 0.31501 0.22805 0.0
C606 C 0.21709 0.29998 0.23755 0.0
H607 H 0.22485 0.23189 0.23486 0.0
H608 H 0.21424 0.25358 0.25382 0.0
H609 H 0.21691 0.25649 0.21906 0.0
H610 H 0.25465 0.3035 0.18948 0.0
H611 H 0.2293 0.33032 0.17331 0.0
H612 H 0.81902 0.32089 0.26535 0.0
H613 H 0.79403 0.2943 0.24779 0.0
H614 H 0.74662 0.31334 0.30455 0.0
H615 H 0.77113 0.34061 0.32131 0.0
H616 H 0.77585 0.26021 0.26704 0.0
H617 H 0.71126 0.31708 0.24057 0.0
H618 H 0.73747 0.32601 0.25071 0.0
H619 H 0.71756 0.31858 0.27454 0.0
C620 C 0.80322 0.31947 0.274 0.0
C621 C 0.79697 0.33303 0.29454 0.0
C622 C 0.78895 0.30424 0.26396 0.0
C623 C 0.76821 0.30208 0.27442 0.0
C624 C 0.76222 0.31515 0.29551 0.0
H625 H 0.68616 0.19011 0.24795 0.0
H626 H 0.71234 0.21573 0.26518 0.0
C627 C 0.77632 0.33066 0.30521 0.0
C628 C 0.75299 0.286 0.26349 0.0
H629 H 0.70201 0.27999 0.24023 0.0
C630 C 0.75975 0.26457 0.26101 0.0
C631 C 0.73207 0.29168 0.25515 0.0
C632 C 0.72424 0.31463 0.2551 0.0
C633 C 0.74615 0.24868 0.25074 0.0
C634 C 0.72487 0.25417 0.24364 0.0
C635 C 0.7182 0.27565 0.24591 0.0
C636 C 0.70933 0.23818 0.23315 0.0
C637 C 0.75503 0.22635 0.24696 0.0
C638 C 0.69834 0.24247 0.20985 0.0
C639 C 0.68295 0.22816 0.2004 0.0
C640 C 0.67839 0.20904 0.21383 0.0
C641 C 0.68954 0.20457 0.237 0.0
C642 C 0.70463 0.21915 0.24676 0.0
H643 H 0.77281 0.22652 0.24524 0.0
H644 H 0.75086 0.21636 0.26412 0.0
H645 H 0.74829 0.21864 0.22929 0.0
H646 H 0.7016 0.257 0.19896 0.0
H647 H 0.6747 0.23203 0.18244 0.0
H648 H 0.82456 0.69781 0.23011 0.0
H649 H 0.80035 0.72484 0.24846 0.0
H650 H 0.7465 0.69401 0.21142 0.0
H651 H 0.77044 0.66705 0.19285 0.0
H652 H 0.74734 0.73914 0.20521 0.0
H653 H 0.75744 0.71472 0.30861 0.0
H654 H 0.78184 0.7203 0.29118 0.0
H655 H 0.76556 0.69782 0.2818 0.0
C656 C 0.80757 0.69674 0.22585 0.0
C657 C 0.7995 0.68015 0.21002 0.0
C658 C 0.79375 0.71217 0.23646 0.0
C659 C 0.7716 0.71128 0.23153 0.0
C660 C 0.76354 0.69495 0.21552 0.0
H661 H 0.66354 0.76901 0.30872 0.0
H662 H 0.69113 0.74564 0.29043 0.0
C663 C 0.77729 0.67952 0.20495 0.0
C664 C 0.7567 0.72734 0.24292 0.0
H665 H 0.73569 0.74504 0.30048 0.0
C666 C 0.74485 0.74053 0.22604 0.0
C667 C 0.75336 0.72894 0.27009 0.0
C668 C 0.76506 0.7146 0.28905 0.0
C669 C 0.72966 0.75523 0.23561 0.0
C670 C 0.72642 0.75694 0.26279 0.0
C671 C 0.73833 0.74381 0.27966 0.0
C672 C 0.70995 0.77146 0.27404 0.0
C673 C 0.71674 0.76836 0.21652 0.0
C674 C 0.71149 0.79381 0.27111 0.0
C675 C 0.6957 0.80731 0.28156 0.0
C676 C 0.67809 0.7987 0.29524 0.0
C677 C 0.6768 0.77627 0.29832 0.0
C678 C 0.69259 0.76284 0.2879 0.0
H679 H 0.71789 0.7619 0.19641 0.0
H680 H 0.69957 0.76886 0.22232 0.0
H681 H 0.72288 0.78507 0.21635 0.0
H682 H 0.72495 0.80082 0.26083 0.0
H683 H 0.6973 0.82447 0.27889 0.0
H684 H 0.31229 0.82156 0.22619 0.0
H685 H 0.28546 0.79676 0.24345 0.0
H686 H 0.32241 0.74309 0.21516 0.0
H687 H 0.34936 0.76771 0.19767 0.0
H688 H 0.27748 0.74132 0.20329 0.0
H689 H 0.29285 0.75762 0.30802 0.0
H690 H 0.28797 0.78091 0.28823 0.0
H691 H 0.31159 0.765 0.28273 0.0
C692 C 0.31481 0.80449 0.22366 0.0
C693 C 0.33309 0.79668 0.21056 0.0
C694 C 0.29946 0.79033 0.23365 0.0
C695 C 0.30206 0.76809 0.23081 0.0
C696 C 0.32014 0.76021 0.21761 0.0
H697 H 0.23932 0.66334 0.30934 0.0
H698 H 0.26406 0.68976 0.29131 0.0
C699 C 0.33556 0.77434 0.20768 0.0
C700 C 0.28582 0.75301 0.24138 0.0
H701 H 0.26346 0.73506 0.29806 0.0
C702 C 0.27436 0.73995 0.224 0.0
C703 C 0.28193 0.75118 0.26842 0.0
C704 C 0.29432 0.76427 0.28803 0.0
C705 C 0.25904 0.72513 0.23294 0.0
C706 C 0.25498 0.72349 0.25996 0.0
C707 C 0.26649 0.7365 0.27734 0.0
C708 C 0.23961 0.70761 0.27072 0.0
C709 C 0.24769 0.71099 0.2135 0.0
C710 C 0.21756 0.70898 0.2653 0.0
C711 C 0.20325 0.69387 0.27564 0.0
C712 C 0.21076 0.67712 0.29164 0.0
C713 C 0.23289 0.67595 0.2971 0.0
C714 C 0.24711 0.69107 0.28683 0.0
H715 H 0.25571 0.71119 0.19418 0.0
H716 H 0.24698 0.69417 0.22059 0.0
H717 H 0.23097 0.71678 0.21094 0.0
H718 H 0.2114 0.72182 0.25319 0.0
H719 H 0.18634 0.69533 0.27108 0.0
H720 H 0.68363 0.80687 0.722 0.0
H721 H 0.70834 0.77946 0.7386 0.0
H722 H 0.76087 0.82417 0.73278 0.0
H723 H 0.73646 0.85162 0.7161 0.0
H724 H 0.74882 0.76435 0.71219 0.0
H725 H 0.76152 0.80043 0.80995 0.0
H726 H 0.73837 0.80657 0.7901 0.0
H727 H 0.76392 0.81836 0.78265 0.0
C728 C 0.70042 0.81093 0.72433 0.0
C729 C 0.70801 0.83151 0.71773 0.0
C730 C 0.71451 0.79521 0.73376 0.0
C731 C 0.73637 0.79987 0.7371 0.0
C732 C 0.74401 0.82034 0.73057 0.0
H733 H 0.84966 0.73629 0.79483 0.0
H734 H 0.8225 0.76109 0.77851 0.0
C735 C 0.73001 0.83598 0.72094 0.0
C736 C 0.75136 0.78329 0.74704 0.0
H737 H 0.7839 0.77123 0.79846 0.0
C738 C 0.7564 0.76571 0.73112 0.0
C739 C 0.76125 0.78522 0.77168 0.0
C740 C 0.75595 0.80356 0.78976 0.0
C741 C 0.77162 0.75029 0.73886 0.0
C742 C 0.78163 0.75225 0.76351 0.0
C743 C 0.77627 0.76972 0.77957 0.0
C744 C 0.79816 0.73678 0.77281 0.0
C745 C 0.77739 0.73252 0.72016 0.0
C746 C 0.79354 0.7148 0.7752 0.0
C747 C 0.80916 0.70047 0.78434 0.0
C748 C 0.82963 0.70789 0.79167 0.0
C749 C 0.8341 0.72996 0.78943 0.0
C750 C 0.81856 0.7442 0.7801 0.0
H751 H 0.7729 0.73663 0.69983 0.0
H752 H 0.79485 0.72896 0.72077 0.0
H753 H 0.76855 0.71774 0.72567 0.0
H754 H 0.77776 0.70873 0.77034 0.0
H755 H 0.80507 0.68364 0.78603 0.0
H756 H 0.19513 0.6846 0.72809 0.0
H757 H 0.22221 0.70915 0.74552 0.0
H758 H 0.18996 0.76254 0.70917 0.0
H759 H 0.16293 0.73827 0.69153 0.0
H760 H 0.235 0.76192 0.70136 0.0
H761 H 0.21301 0.75235 0.80565 0.0
H762 H 0.21835 0.72788 0.78825 0.0
H763 H 0.19555 0.74399 0.7795 0.0
C764 C 0.19375 0.70156 0.72381 0.0
C765 C 0.17675 0.70941 0.70842 0.0
C766 C 0.20921 0.71558 0.73389 0.0
C767 C 0.20795 0.73768 0.72886 0.0
C768 C 0.19119 0.74554 0.71333 0.0
H769 H 0.26732 0.84631 0.80299 0.0
H770 H 0.24341 0.81883 0.78558 0.0
C771 C 0.17572 0.73159 0.70329 0.0
C772 C 0.22412 0.75275 0.73955 0.0
H773 H 0.24303 0.77417 0.79627 0.0
C774 C 0.23685 0.76454 0.72211 0.0
C775 C 0.22632 0.75627 0.76661 0.0
C776 C 0.2125 0.74462 0.78617 0.0
C777 C 0.2517 0.77983 0.73101 0.0
C778 C 0.25401 0.78323 0.75809 0.0
C779 C 0.24132 0.7714 0.77553 0.0
C780 C 0.26881 0.79969 0.76867 0.0
C781 C 0.26435 0.79265 0.71138 0.0
C782 C 0.29108 0.79795 0.76512 0.0
C783 C 0.30488 0.81367 0.77506 0.0
C784 C 0.29664 0.83141 0.78883 0.0
C785 C 0.27429 0.83294 0.79248 0.0
C786 C 0.26055 0.81721 0.78258 0.0
H787 H 0.25744 0.79137 0.6915 0.0
H788 H 0.26492 0.80985 0.71699 0.0
H789 H 0.28107 0.78653 0.71071 0.0
H790 H 0.29781 0.78438 0.75477 0.0
H791 H 0.32198 0.81188 0.77195 0.0
H792 H 0.20408 0.3246 0.78132 0.0
H793 H 0.23109 0.30023 0.76293 0.0
H794 H 0.19079 0.24605 0.78089 0.0
H795 H 0.1638 0.27006 0.79944 0.0
H796 H 0.24848 0.25764 0.79407 0.0
H797 H 0.20934 0.24698 0.69746 0.0
H798 H 0.20627 0.27131 0.71628 0.0
H799 H 0.19271 0.24731 0.7262 0.0
C800 C 0.20092 0.30751 0.78133 0.0
C801 C 0.18173 0.29933 0.79191 0.0
C802 C 0.2164 0.29363 0.77087 0.0
C803 C 0.21284 0.27141 0.77055 0.0
C804 C 0.19376 0.26319 0.78095 0.0
H805 H 0.27378 0.15909 0.70626 0.0
H806 H 0.24956 0.18612 0.72421 0.0
C807 C 0.17838 0.27697 0.79158 0.0
C808 C 0.22906 0.25661 0.75951 0.0
H809 H 0.23966 0.22555 0.70634 0.0
C810 C 0.24673 0.25071 0.77482 0.0
C811 C 0.2265 0.24754 0.73454 0.0
C812 C 0.20776 0.25357 0.71746 0.0
C813 C 0.26174 0.23549 0.76599 0.0
C814 C 0.25923 0.22636 0.7409 0.0
C815 C 0.24162 0.23254 0.72552 0.0
C816 C 0.27429 0.20993 0.73046 0.0
C817 C 0.27966 0.22878 0.784 0.0
C818 C 0.2963 0.21432 0.72782 0.0
C819 C 0.31028 0.19879 0.71776 0.0
C820 C 0.30249 0.17865 0.70974 0.0
C821 C 0.28039 0.17441 0.71218 0.0
C822 C 0.26647 0.18987 0.72244 0.0
H823 H 0.27591 0.23264 0.80463 0.0
H824 H 0.28287 0.21129 0.78245 0.0
H825 H 0.29452 0.23752 0.77862 0.0
H826 H 0.30265 0.22986 0.73325 0.0
H827 H 0.32715 0.20271 0.71592 0.0
H828 H 0.68938 0.1861 0.76742 0.0
H829 H 0.71457 0.2117 0.74817 0.0
H830 H 0.7593 0.19961 0.81058 0.0
H831 H 0.73465 0.17331 0.82922 0.0
H832 H 0.73094 0.24796 0.76401 0.0
H833 H 0.79789 0.19081 0.74994 0.0
H834 H 0.77138 0.18216 0.75929 0.0
H835 H 0.78987 0.19214 0.78339 0.0
C836 C 0.70462 0.18885 0.77699 0.0
C837 C 0.71011 0.1775 0.7997 0.0
C838 C 0.71901 0.20351 0.76597 0.0
C839 C 0.73909 0.20727 0.77756 0.0
C840 C 0.74426 0.19648 0.80074 0.0
H841 H 0.82002 0.31831 0.74509 0.0
H842 H 0.79332 0.29335 0.76242 0.0
C843 C 0.73006 0.18155 0.8115 0.0
C844 C 0.75447 0.22264 0.76558 0.0
H845 H 0.80648 0.22794 0.74558 0.0
C846 C 0.74742 0.24353 0.7598 0.0
C847 C 0.77589 0.2168 0.75957 0.0
C848 C 0.78413 0.19419 0.7631 0.0
C849 C 0.76124 0.25881 0.74864 0.0
C850 C 0.78298 0.25331 0.74399 0.0
C851 C 0.78991 0.23231 0.7494 0.0
C852 C 0.79882 0.26885 0.73322 0.0
C853 C 0.75217 0.28047 0.74138 0.0
C854 C 0.81138 0.26322 0.71154 0.0
C855 C 0.82706 0.27722 0.70206 0.0
C856 C 0.83035 0.29731 0.71383 0.0
C857 C 0.81766 0.30306 0.73537 0.0
C858 C 0.80226 0.28885 0.74518 0.0
H859 H 0.73456 0.27963 0.73805 0.0
H860 H 0.75497 0.29189 0.7576 0.0
H861 H 0.75988 0.28693 0.72354 0.0
H862 H 0.80912 0.24789 0.70198 0.0
H863 H 0.83654 0.27233 0.6854 0.0
H864 H 0.15488 0.38256 0.89333 0.0
H865 H 0.15635 0.38425 0.94113 0.0
H866 H 0.17718 0.3183 0.94372 0.0
H867 H 0.17539 0.31643 0.89617 0.0
H868 H 0.12956 0.34471 0.9697 0.0
H869 H 0.2143 0.35992 0.99902 0.0
H870 H 0.20311 0.37122 0.96956 0.0
H871 H 0.20882 0.34307 0.97123 0.0
C872 C 0.16072 0.36878 0.90407 0.0
C873 C 0.16521 0.34942 0.89115 0.0
C874 C 0.16132 0.36968 0.93133 0.0
C875 C 0.1668 0.35136 0.94581 0.0
C876 C 0.17301 0.3326 0.93281 0.0
H877 H 0.1763 0.32409 0.1106 0.0
H878 H 0.17655 0.32089 0.06302 0.0
C879 C 0.17213 0.3316 0.9057 0.0
C880 C 0.16335 0.35073 0.97426 0.0
H881 H 0.18949 0.35254 0.03247 0.0
C882 C 0.14259 0.34654 0.98353 0.0
C883 C 0.18047 0.35272 0.992 0.0
C884 C 0.203 0.35704 0.98267 0.0
C885 C 0.13849 0.3441 0.01026 0.0
C886 C 0.15558 0.34643 0.0282 0.0
C887 C 0.17638 0.35065 0.01877 0.0
C888 C 0.1523 0.34529 0.05684 0.0
C889 C 0.11603 0.33848 0.01888 0.0
C890 C 0.13796 0.35939 0.06927 0.0
C891 C 0.13742 0.36075 0.09643 0.0
C892 C 0.15136 0.34822 0.11157 0.0
C893 C 0.16493 0.33338 0.09929 0.0
C894 C 0.16529 0.33181 0.07214 0.0
H895 H 0.10692 0.33038 0.0031 0.0
H896 H 0.1162 0.32784 0.03623 0.0
H897 H 0.1073 0.35343 0.02396 0.0
H898 H 0.12821 0.37038 0.05801 0.0
H899 H 0.12743 0.37288 0.10551 0.0
H900 H 0.69019 0.17317 0.9019 0.0
H901 H 0.68826 0.17489 0.94937 0.0
H902 H 0.6226 0.15313 0.94675 0.0
H903 H 0.62441 0.15168 0.89894 0.0
H904 H 0.63204 0.18441 0.98711 0.0
H905 H 0.68866 0.11564 0.98669 0.0
H906 H 0.698 0.13851 0.96866 0.0
H907 H 0.67446 0.12437 0.95794 0.0
C908 C 0.67506 0.16963 0.91141 0.0
C909 C 0.65741 0.16241 0.89685 0.0
C910 C 0.67407 0.17033 0.93851 0.0
C911 C 0.65551 0.16354 0.95153 0.0
C912 C 0.63715 0.15826 0.937 0.0
H913 H 0.64895 0.12425 0.11532 0.0
H914 H 0.65053 0.12313 0.06746 0.0
C915 C 0.63809 0.1577 0.90972 0.0
C916 C 0.65606 0.16028 0.9801 0.0
H917 H 0.68221 0.13225 0.02778 0.0
C918 C 0.6429 0.17295 0.99602 0.0
C919 C 0.66991 0.14492 0.99163 0.0
C920 C 0.68342 0.12991 0.97537 0.0
C921 C 0.64389 0.1713 0.02326 0.0
C922 C 0.65869 0.15687 0.03481 0.0
C923 C 0.67117 0.14354 0.01888 0.0
C924 C 0.66161 0.15589 0.06343 0.0
C925 C 0.62906 0.18504 0.03948 0.0
C926 C 0.66868 0.17412 0.07688 0.0
C927 C 0.66789 0.17472 0.10399 0.0
C928 C 0.66033 0.15698 0.11815 0.0
C929 C 0.65524 0.13797 0.10484 0.0
C930 C 0.65588 0.13743 0.07755 0.0
H931 H 0.61504 0.19073 0.02803 0.0
H932 H 0.62312 0.17608 0.05673 0.0
H933 H 0.63795 0.19934 0.04648 0.0
H934 H 0.6736 0.18836 0.06635 0.0
H935 H 0.67172 0.18961 0.11385 0.0
H936 H 0.85374 0.62638 0.89426 0.0
H937 H 0.85129 0.6262 0.94199 0.0
H938 H 0.84058 0.69462 0.94155 0.0
H939 H 0.84352 0.69489 0.89417 0.0
H940 H 0.87395 0.68333 0.97279 0.0
H941 H 0.80285 0.63269 0.9945 0.0
H942 H 0.8223 0.62029 0.9735 0.0
H943 H 0.80791 0.64361 0.96254 0.0
C944 C 0.85006 0.64119 0.90435 0.0
C945 C 0.8487 0.66063 0.89059 0.0
C946 C 0.84877 0.64112 0.93162 0.0
C947 C 0.84578 0.66043 0.94536 0.0
C948 C 0.84301 0.67957 0.9314 0.0
H949 H 0.81747 0.67409 0.10831 0.0
H950 H 0.81901 0.67774 0.061 0.0
C951 C 0.84451 0.67968 0.90433 0.0
C952 C 0.84736 0.66124 0.97419 0.0
H953 H 0.82464 0.64273 0.03028 0.0
C954 C 0.86313 0.6745 0.98538 0.0
C955 C 0.83322 0.64977 0.99057 0.0
C956 C 0.81548 0.63593 0.97974 0.0
C957 C 0.86504 0.67671 0.0125 0.0
C958 C 0.85104 0.66505 0.02888 0.0
C959 C 0.83538 0.65168 0.01768 0.0
C960 C 0.85184 0.66673 0.0577 0.0
C961 C 0.88164 0.69189 0.02332 0.0
C962 C 0.87016 0.66034 0.07173 0.0
C963 C 0.86943 0.65869 0.09894 0.0
C964 C 0.85029 0.66312 0.11234 0.0
C965 C 0.83249 0.67083 0.09841 0.0
C966 C 0.83329 0.6727 0.07138 0.0
H967 H 0.88716 0.7036 0.00844 0.0
H968 H 0.87523 0.70086 0.04031 0.0
H969 H 0.89581 0.68253 0.02988 0.0
H970 H 0.88455 0.6553 0.06158 0.0
H971 H 0.88317 0.65219 0.10921 0.0
H972 H 0.35613 0.80787 0.10376 0.0
H973 H 0.35203 0.8091 0.05684 0.0
H974 H 0.33786 0.87682 0.06099 0.0
H975 H 0.34293 0.87588 0.10847 0.0
H976 H 0.32162 0.81845 0.02395 0.0
H977 H 0.38821 0.87672 0.01172 0.0
H978 H 0.3822 0.86425 0.04255 0.0
H979 H 0.36648 0.88664 0.03127 0.0
C980 C 0.35192 0.82306 0.09482 0.0
C981 C 0.3502 0.84188 0.10984 0.0
C982 C 0.34955 0.82371 0.06791 0.0
C983 C 0.34525 0.84315 0.05524 0.0
C984 C 0.34184 0.86174 0.07029 0.0
H985 H 0.30849 0.85493 0.89543 0.0
H986 H 0.31055 0.84905 0.94196 0.0
C987 C 0.34438 0.86114 0.09745 0.0
C988 C 0.3452 0.84366 0.02631 0.0
H989 H 0.36942 0.86665 0.97353 0.0
C990 C 0.3321 0.829 0.01295 0.0
C991 C 0.35934 0.85694 0.01192 0.0
C992 C 0.37503 0.87187 0.02505 0.0
C993 C 0.33247 0.82748 0.98571 0.0
C994 C 0.34579 0.84151 0.97127 0.0
C995 C 0.35918 0.85591 0.98459 0.0
C996 C 0.34471 0.84279 0.94242 0.0
C997 C 0.31881 0.81057 0.97276 0.0
C998 C 0.36332 0.84134 0.92694 0.0
C999 C 0.36226 0.845 0.89999 0.0
C1000 C 0.34259 0.85039 0.88829 0.0
C1001 C 0.32394 0.85087 0.90378 0.0
C1002 C 0.32503 0.84732 0.93048 0.0
H1003 H 0.31621 0.79662 0.98586 0.0
H1004 H 0.30282 0.81749 0.96819 0.0
H1005 H 0.32621 0.80475 0.9544 0.0
H1006 H 0.37873 0.83797 0.93582 0.0
H1007 H 0.37691 0.84472 0.88863 0.0
H1008 H 0.1701 0.69132 0.60695 0.0
H1009 H 0.17285 0.68987 0.55952 0.0
H1010 H 0.152 0.62389 0.56065 0.0
H1011 H 0.14965 0.62519 0.60844 0.0
H1012 H 0.18319 0.63284 0.52203 0.0
H1013 H 0.11594 0.69108 0.5191 0.0
H1014 H 0.13848 0.70042 0.53765 0.0
H1015 H 0.12377 0.67724 0.54847 0.0
C1016 C 0.16689 0.67627 0.59712 0.0
C1017 C 0.15975 0.65834 0.61125 0.0
C1018 C 0.16817 0.67555 0.57005 0.0
C1019 C 0.16197 0.657 0.55658 0.0
C1020 C 0.15664 0.63843 0.57073 0.0
H1021 H 0.12605 0.65211 0.39181 0.0
H1022 H 0.1243 0.65398 0.43959 0.0
C1023 C 0.15555 0.63909 0.59799 0.0
C1024 C 0.15964 0.65764 0.52786 0.0
H1025 H 0.13387 0.68441 0.47884 0.0
C1026 C 0.17235 0.64402 0.51257 0.0
C1027 C 0.14506 0.67189 0.51558 0.0
C1028 C 0.12986 0.68584 0.53102 0.0
C1029 C 0.17151 0.64488 0.48528 0.0
C1030 C 0.15792 0.66008 0.47301 0.0
C1031 C 0.14456 0.67308 0.48829 0.0
C1032 C 0.15769 0.66275 0.44433 0.0
C1033 C 0.1851 0.62939 0.4698 0.0
C1034 C 0.17659 0.66847 0.43125 0.0
C1035 C 0.17757 0.66747 0.40416 0.0
C1036 C 0.15957 0.66107 0.38965 0.0
C1037 C 0.14003 0.65742 0.40256 0.0
C1038 C 0.13911 0.65823 0.42982 0.0
H1039 H 0.18974 0.61516 0.48158 0.0
H1040 H 0.1765 0.62379 0.45213 0.0
H1041 H 0.20005 0.63757 0.46353 0.0
H1042 H 0.19094 0.67255 0.44207 0.0
H1043 H 0.19284 0.67028 0.39463 0.0
H1044 H 0.31569 0.17015 0.60695 0.0
H1045 H 0.31533 0.17264 0.55947 0.0
H1046 H 0.38254 0.15604 0.55733 0.0
H1047 H 0.38307 0.15409 0.60513 0.0
H1048 H 0.37137 0.1856 0.51941 0.0
H1049 H 0.3153 0.11663 0.51859 0.0
H1050 H 0.30534 0.13896 0.53706 0.0
H1051 H 0.32921 0.12518 0.54759 0.0
C1052 C 0.33056 0.16775 0.59637 0.0
C1053 C 0.34942 0.16195 0.60962 0.0
C1054 C 0.33026 0.16888 0.56926 0.0
C1055 C 0.34871 0.16379 0.55486 0.0
C1056 C 0.36805 0.15978 0.5681 0.0
H1057 H 0.35206 0.12495 0.39149 0.0
H1058 H 0.35013 0.12457 0.43928 0.0
C1059 C 0.36842 0.1589 0.59538 0.0
C1060 C 0.34735 0.16144 0.52615 0.0
H1061 H 0.32063 0.13451 0.47806 0.0
C1062 C 0.36034 0.1744 0.51036 0.0
C1063 C 0.33333 0.14639 0.51436 0.0
C1064 C 0.32017 0.13083 0.53026 0.0
C1065 C 0.35916 0.17324 0.4831 0.0
C1066 C 0.34419 0.15912 0.47133 0.0
C1067 C 0.33175 0.14563 0.4871 0.0
C1068 C 0.34149 0.15813 0.44265 0.0
C1069 C 0.37421 0.18695 0.46716 0.0
C1070 C 0.33585 0.17667 0.42875 0.0
C1071 C 0.33695 0.17688 0.40163 0.0
C1072 C 0.34327 0.15843 0.3879 0.0
C1073 C 0.34679 0.13926 0.40163 0.0
C1074 C 0.34594 0.13912 0.4289 0.0
H1075 H 0.38846 0.19198 0.47864 0.0
H1076 H 0.37983 0.17826 0.44955 0.0
H1077 H 0.36567 0.20167 0.46081 0.0
H1078 H 0.33178 0.19134 0.43894 0.0
H1079 H 0.33428 0.19188 0.39144 0.0
H1080 H 0.8773 0.34589 0.3939 0.0
H1081 H 0.87933 0.33993 0.4412 0.0
H1082 H 0.81164 0.35345 0.44797 0.0
H1083 H 0.80937 0.35875 0.40127 0.0
H1084 H 0.87048 0.37013 0.47872 0.0
H1085 H 0.81679 0.30034 0.49197 0.0
H1086 H 0.82711 0.30805 0.46051 0.0
H1087 H 0.80401 0.32145 0.47399 0.0
C1088 C 0.86278 0.34694 0.40543 0.0
C1089 C 0.8432 0.3528 0.39383 0.0
C1090 C 0.86397 0.34373 0.43244 0.0
C1091 C 0.84558 0.34608 0.4481 0.0
C1092 C 0.82595 0.35112 0.43632 0.0
H1093 H 0.8456 0.37652 0.61544 0.0
H1094 H 0.84006 0.37862 0.56803 0.0
C1095 C 0.82474 0.35429 0.40954 0.0
C1096 C 0.84689 0.34493 0.47692 0.0
H1097 H 0.824 0.32129 0.53005 0.0
C1098 C 0.86048 0.35931 0.48998 0.0
C1099 C 0.83383 0.33082 0.49157 0.0
C1100 C 0.81978 0.31415 0.47877 0.0
C1101 C 0.86121 0.36011 0.5173 0.0
C1102 C 0.84757 0.34653 0.53195 0.0
C1103 C 0.83414 0.33202 0.51884 0.0
C1104 C 0.8486 0.34542 0.5608 0.0
C1105 C 0.87697 0.3751 0.5302 0.0
C1106 C 0.85406 0.32589 0.57254 0.0
C1107 C 0.85685 0.3246 0.59935 0.0
C1108 C 0.85434 0.34285 0.61523 0.0
C1109 C 0.84769 0.36222 0.60373 0.0
C1110 C 0.84481 0.36348 0.57664 0.0
H1111 H 0.8895 0.38073 0.51641 0.0
H1112 H 0.86826 0.3894 0.5376 0.0
H1113 H 0.88498 0.36716 0.54695 0.0
H1114 H 0.85689 0.3117 0.56082 0.0
H1115 H 0.86169 0.30932 0.60754 0.0
H1116 H 0.63065 0.84358 0.61608 0.0
H1117 H 0.62993 0.83797 0.56866 0.0
H1118 H 0.69641 0.85684 0.56385 0.0
H1119 H 0.69752 0.86163 0.61059 0.0
H1120 H 0.63636 0.86808 0.53142 0.0
H1121 H 0.69719 0.80433 0.51937 0.0
H1122 H 0.68592 0.81104 0.55069 0.0
H1123 H 0.70781 0.82649 0.53746 0.0
C1124 C 0.64524 0.84592 0.60495 0.0
C1125 C 0.66411 0.85306 0.61718 0.0
C1126 C 0.64477 0.84289 0.57786 0.0
C1127 C 0.66321 0.84676 0.5627 0.0
C1128 C 0.68214 0.85325 0.57508 0.0
H1129 H 0.66147 0.87891 0.39597 0.0
H1130 H 0.66671 0.88098 0.4434 0.0
C1131 C 0.68265 0.85616 0.60192 0.0
C1132 C 0.66258 0.84563 0.53383 0.0
H1133 H 0.6892 0.82517 0.48128 0.0
C1134 C 0.64775 0.85852 0.52042 0.0
C1135 C 0.67741 0.83311 0.51947 0.0
C1136 C 0.69281 0.8178 0.53252 0.0
C1137 C 0.64752 0.85945 0.49308 0.0
C1138 C 0.663 0.84767 0.47877 0.0
C1139 C 0.67765 0.83459 0.49222 0.0
C1140 C 0.66284 0.84681 0.44984 0.0
C1141 C 0.63034 0.8726 0.47984 0.0
C1142 C 0.66044 0.82688 0.43759 0.0
C1143 C 0.65796 0.82566 0.41072 0.0
C1144 C 0.65768 0.84435 0.39534 0.0
C1145 C 0.6616 0.86425 0.4073 0.0
C1146 C 0.66424 0.86546 0.43442 0.0
H1147 H 0.6168 0.87628 0.4932 0.0
H1148 H 0.63733 0.88805 0.47326 0.0
H1149 H 0.62389 0.86408 0.46255 0.0
H1150 H 0.65953 0.81225 0.44894 0.0
H1151 H 0.65524 0.81002 0.40211 0.0
H1152 H 0.1436 0.58037 0.31335 0.0
H1153 H 0.1429 0.54293 0.29962 0.0
H1154 H 0.1884 0.5574 0.23857 0.0
H1155 H 0.18679 0.59554 0.25044 0.0
H1156 H 0.16195 0.53244 0.22002 0.0
H1157 H 0.18196 0.49696 0.31508 0.0
H1158 H 0.15591 0.50905 0.31715 0.0
H1159 H 0.17913 0.52544 0.31105 0.0
C1160 C 0.15352 0.57544 0.29707 0.0
C1161 C 0.16564 0.59057 0.28322 0.0
C1162 C 0.15332 0.55398 0.28939 0.0
C1163 C 0.16623 0.54695 0.26863 0.0
C1164 C 0.17842 0.56224 0.25481 0.0
H1165 H 0.1882 0.4098 0.24835 0.0
H1166 H 0.19075 0.44803 0.25921 0.0
C1167 C 0.17769 0.58398 0.26166 0.0
C1168 C 0.16609 0.52398 0.26037 0.0
H1169 H 0.16786 0.47248 0.28292 0.0
C1170 C 0.16371 0.51935 0.23378 0.0
C1171 C 0.16805 0.50667 0.27818 0.0
C1172 C 0.17159 0.50983 0.30692 0.0
C1173 C 0.16342 0.49819 0.22445 0.0
C1174 C 0.16489 0.48087 0.24237 0.0
C1175 C 0.16702 0.48553 0.26898 0.0
C1176 C 0.16425 0.45783 0.23439 0.0
C1177 C 0.16168 0.49513 0.19541 0.0
C1178 C 0.14856 0.45032 0.21699 0.0
C1179 C 0.14824 0.42883 0.20945 0.0
C1180 C 0.16268 0.41412 0.22039 0.0
C1181 C 0.17739 0.42109 0.23912 0.0
C1182 C 0.17861 0.44289 0.24549 0.0
H1183 H 0.17038 0.50801 0.18481 0.0
H1184 H 0.16812 0.47952 0.18901 0.0
H1185 H 0.14454 0.49613 0.18966 0.0
H1186 H 0.13647 0.46102 0.20921 0.0
H1187 H 0.1363 0.42354 0.19552 0.0
H1188 H 0.57901 0.1511 0.18993 0.0
H1189 H 0.54127 0.15305 0.20213 0.0
H1190 H 0.55894 0.17968 0.27666 0.0
H1191 H 0.59704 0.17869 0.26372 0.0
H1192 H 0.52252 0.132 0.24104 0.0
H1193 H 0.53022 0.20816 0.27647 0.0
H1194 H 0.51107 0.21963 0.25432 0.0
H1195 H 0.53576 0.20833 0.24223 0.0
C1196 C 0.5748 0.15799 0.20861 0.0
C1197 C 0.59077 0.16552 0.22552 0.0
C1198 C 0.55325 0.15886 0.21569 0.0
C1199 C 0.54721 0.16679 0.24016 0.0
C1200 C 0.56319 0.17398 0.25743 0.0
H1201 H 0.42548 0.14384 0.31517 0.0
H1202 H 0.46332 0.14596 0.30265 0.0
C1203 C 0.58489 0.1733 0.25015 0.0
C1204 C 0.52424 0.16611 0.24777 0.0
H1205 H 0.48143 0.19718 0.26526 0.0
C1206 C 0.51357 0.14627 0.24642 0.0
C1207 C 0.51254 0.18472 0.25482 0.0
C1208 C 0.52293 0.20646 0.25687 0.0
C1209 C 0.4916 0.14455 0.25189 0.0
C1210 C 0.48 0.16314 0.25884 0.0
C1211 C 0.49049 0.18298 0.26004 0.0
C1212 C 0.45713 0.16204 0.2661 0.0
C1213 C 0.48084 0.12292 0.25 0.0
C1214 C 0.44122 0.17048 0.24965 0.0
C1215 C 0.41956 0.16924 0.25677 0.0
C1216 C 0.41377 0.16013 0.28072 0.0
C1217 C 0.4297 0.15143 0.29689 0.0
C1218 C 0.45124 0.15248 0.28971 0.0
H1219 H 0.49105 0.11096 0.23976 0.0
H1220 H 0.4775 0.11683 0.26989 0.0
H1221 H 0.46527 0.1243 0.2396 0.0
H1222 H 0.44558 0.17787 0.23131 0.0
H1223 H 0.40741 0.17573 0.2439 0.0
H1224 H 0.85604 0.58038 0.18287 0.0
H1225 H 0.85374 0.54261 0.19499 0.0
H1226 H 0.82752 0.56044 0.26969 0.0
H1227 H 0.82907 0.59857 0.25701 0.0
H1228 H 0.87492 0.5238 0.23504 0.0
H1229 H 0.78699 0.51279 0.24609 0.0
H1230 H 0.79864 0.53704 0.23326 0.0
H1231 H 0.79819 0.53252 0.2677 0.0
C1232 C 0.84921 0.5762 0.2016 0.0
C1233 C 0.84203 0.59223 0.2187 0.0
C1234 C 0.84812 0.55464 0.20861 0.0
C1235 C 0.8402 0.54865 0.2331 0.0
C1236 C 0.83324 0.56468 0.25046 0.0
H1237 H 0.86084 0.43025 0.31424 0.0
H1238 H 0.85943 0.46728 0.29856 0.0
C1239 C 0.83424 0.58639 0.24332 0.0
C1240 C 0.84069 0.5257 0.24072 0.0
H1241 H 0.80916 0.48322 0.25797 0.0
C1242 C 0.86053 0.51497 0.24016 0.0
C1243 C 0.82191 0.51413 0.24732 0.0
C1244 C 0.80017 0.52464 0.24847 0.0
C1245 C 0.86212 0.49311 0.24636 0.0
C1246 C 0.84337 0.48168 0.25308 0.0
C1247 C 0.82349 0.49218 0.25308 0.0
C1248 C 0.84434 0.4592 0.26196 0.0
C1249 C 0.88379 0.48231 0.24567 0.0
C1250 C 0.83617 0.44248 0.24652 0.0
C1251 C 0.837 0.42126 0.25546 0.0
C1252 C 0.8454 0.41676 0.28019 0.0
C1253 C 0.85382 0.43348 0.29534 0.0
C1254 C 0.85319 0.45455 0.28636 0.0
H1255 H 0.89591 0.49212 0.23516 0.0
H1256 H 0.88953 0.47981 0.26589 0.0
H1257 H 0.88264 0.46634 0.23618 0.0
H1258 H 0.82927 0.44587 0.22762 0.0
H1259 H 0.83072 0.40847 0.24339 0.0
H1260 H 0.57829 0.85577 0.32077 0.0
H1261 H 0.54086 0.8547 0.30704 0.0
H1262 H 0.5604 0.83214 0.23121 0.0
H1263 H 0.5982 0.83239 0.2455 0.0
H1264 H 0.52247 0.87759 0.26828 0.0
H1265 H 0.53153 0.80271 0.22899 0.0
H1266 H 0.513 0.79026 0.25113 0.0
H1267 H 0.53763 0.80174 0.26302 0.0
C1268 C 0.57456 0.85004 0.30138 0.0
C1269 C 0.59096 0.84341 0.28446 0.0
C1270 C 0.5532 0.84968 0.29345 0.0
C1271 C 0.54778 0.8431 0.26821 0.0
C1272 C 0.5642 0.83687 0.25096 0.0
H1273 H 0.42859 0.86254 0.18747 0.0
H1274 H 0.46582 0.86186 0.20265 0.0
C1275 C 0.58571 0.83709 0.25904 0.0
C1276 C 0.52494 0.84374 0.26006 0.0
H1277 H 0.48297 0.81247 0.24067 0.0
C1278 C 0.51388 0.86335 0.26205 0.0
C1279 C 0.5137 0.82518 0.25196 0.0
C1280 C 0.52453 0.80373 0.24882 0.0
C1281 C 0.49199 0.86488 0.25595 0.0
C1282 C 0.48085 0.84629 0.24807 0.0
C1283 C 0.49171 0.82667 0.24649 0.0
C1284 C 0.45825 0.84719 0.23968 0.0
C1285 C 0.48078 0.88628 0.25805 0.0
C1286 C 0.44178 0.83911 0.25557 0.0
C1287 C 0.42046 0.83954 0.24694 0.0
C1288 C 0.41562 0.84746 0.22207 0.0
C1289 C 0.4321 0.85588 0.20649 0.0
C1290 C 0.45327 0.85566 0.21517 0.0
H1291 H 0.49082 0.89846 0.2681 0.0
H1292 H 0.47699 0.89227 0.23823 0.0
H1293 H 0.46538 0.88451 0.26874 0.0
H1294 H 0.44545 0.83248 0.27455 0.0
H1295 H 0.40788 0.83326 0.25934 0.0
H1296 H 0.88443 0.57667 0.81227 0.0
H1297 H 0.88338 0.54039 0.79397 0.0
H1298 H 0.82108 0.5534 0.76103 0.0
H1299 H 0.822 0.58972 0.7792 0.0
H1300 H 0.85272 0.50614 0.7995 0.0
H1301 H 0.85886 0.53574 0.69771 0.0
H1302 H 0.86496 0.5524 0.72549 0.0
H1303 H 0.83753 0.54727 0.71671 0.0
C1304 C 0.87036 0.57173 0.80146 0.0
C1305 C 0.85333 0.58616 0.79713 0.0
C1306 C 0.86981 0.551 0.79094 0.0
C1307 C 0.85234 0.54433 0.77572 0.0
C1308 C 0.8349 0.55834 0.77232 0.0
H1309 H 0.82367 0.41476 0.72284 0.0
H1310 H 0.82193 0.45128 0.74018 0.0
C1311 C 0.83538 0.57905 0.78292 0.0
C1312 C 0.85262 0.52292 0.7629 0.0
H1313 H 0.85374 0.49836 0.70335 0.0
C1314 C 0.8529 0.50443 0.77849 0.0
C1315 C 0.85317 0.52073 0.73547 0.0
C1316 C 0.8538 0.54005 0.71778 0.0
C1317 C 0.85338 0.4838 0.76738 0.0
C1318 C 0.85343 0.4816 0.73995 0.0
C1319 C 0.85349 0.50009 0.72435 0.0
C1320 C 0.85374 0.46017 0.72725 0.0
C1321 C 0.85416 0.46448 0.78507 0.0
C1322 C 0.87188 0.45332 0.71329 0.0
C1323 C 0.87293 0.43241 0.70328 0.0
C1324 C 0.85577 0.41804 0.70688 0.0
C1325 C 0.83719 0.42537 0.71972 0.0
C1326 C 0.83621 0.44621 0.72981 0.0
H1327 H 0.85849 0.46891 0.80535 0.0
H1328 H 0.83814 0.45672 0.78543 0.0
H1329 H 0.86595 0.45253 0.77779 0.0
H1330 H 0.88554 0.46389 0.71096 0.0
H1331 H 0.88748 0.42728 0.69354 0.0
H1332 H 0.58969 0.82317 0.72499 0.0
H1333 H 0.55293 0.82179 0.74182 0.0
H1334 H 0.54048 0.8846 0.71002 0.0
H1335 H 0.57719 0.88612 0.69309 0.0
H1336 H 0.53527 0.85181 0.77806 0.0
H1337 H 0.48815 0.84865 0.68637 0.0
H1338 H 0.51638 0.84209 0.68766 0.0
H1339 H 0.50788 0.86965 0.68787 0.0
C1340 C 0.57902 0.83652 0.72111 0.0
C1341 C 0.5864 0.85473 0.70759 0.0
C1342 C 0.55804 0.83575 0.73088 0.0
C1343 C 0.54391 0.85304 0.7271 0.0
C1344 C 0.55099 0.87095 0.71289 0.0
H1345 H 0.42729 0.8872 0.81132 0.0
H1346 H 0.46405 0.88519 0.79434 0.0
C1347 C 0.57201 0.87179 0.70322 0.0
C1348 C 0.52222 0.85286 0.73927 0.0
H1349 H 0.46858 0.85434 0.72543 0.0
C1350 C 0.52068 0.85229 0.76656 0.0
C1351 C 0.5032 0.85337 0.72426 0.0
C1352 C 0.50386 0.8533 0.69491 0.0
C1353 C 0.50064 0.85255 0.77921 0.0
C1354 C 0.48164 0.85351 0.76421 0.0
C1355 C 0.48317 0.85374 0.73692 0.0
C1356 C 0.45996 0.85405 0.77637 0.0
C1357 C 0.4999 0.85157 0.80853 0.0
C1358 C 0.4455 0.83717 0.7721 0.0
C1359 C 0.42456 0.83821 0.7819 0.0
C1360 C 0.41752 0.8563 0.79594 0.0
C1361 C 0.43221 0.87298 0.80075 0.0
C1362 C 0.45324 0.87185 0.79106 0.0
H1363 H 0.51551 0.84643 0.81694 0.0
H1364 H 0.496 0.86772 0.8163 0.0
H1365 H 0.4872 0.84031 0.81515 0.0
H1366 H 0.45033 0.8233 0.7608 0.0
H1367 H 0.41367 0.82512 0.7777 0.0
H1368 H 0.12214 0.42852 0.81239 0.0
H1369 H 0.12194 0.46498 0.79442 0.0
H1370 H 0.18375 0.45364 0.75924 0.0
H1371 H 0.18408 0.41721 0.77703 0.0
H1372 H 0.15175 0.49974 0.79964 0.0
H1373 H 0.14481 0.47152 0.69745 0.0
H1374 H 0.13962 0.45429 0.72502 0.0
H1375 H 0.16675 0.46009 0.71547 0.0
C1376 C 0.13581 0.43386 0.80109 0.0
C1377 C 0.15309 0.41989 0.79607 0.0
C1378 C 0.13564 0.45469 0.79078 0.0
C1379 C 0.15264 0.46189 0.77507 0.0
C1380 C 0.17027 0.44828 0.77089 0.0
H1381 H 0.18089 0.59213 0.72511 0.0
H1382 H 0.18197 0.55572 0.74287 0.0
C1383 C 0.1705 0.4275 0.78125 0.0
C1384 C 0.15177 0.48346 0.76271 0.0
H1385 H 0.15037 0.50883 0.70367 0.0
C1386 C 0.15143 0.50174 0.77867 0.0
C1387 C 0.15104 0.48604 0.73533 0.0
C1388 C 0.15037 0.46697 0.71725 0.0
C1389 C 0.15084 0.52252 0.76799 0.0
C1390 C 0.15078 0.5251 0.7406 0.0
C1391 C 0.15065 0.50682 0.72464 0.0
C1392 C 0.1507 0.5467 0.72824 0.0
C1393 C 0.15001 0.54156 0.78611 0.0
C1394 C 0.13312 0.55347 0.71322 0.0
C1395 C 0.13247 0.5743 0.70291 0.0
C1396 C 0.1495 0.58869 0.70728 0.0
C1397 C 0.16747 0.58151 0.72141 0.0
C1398 C 0.16806 0.56074 0.73176 0.0
H1399 H 0.14507 0.53685 0.80609 0.0
H1400 H 0.16619 0.54893 0.78729 0.0
H1401 H 0.13867 0.55391 0.77875 0.0
H1402 H 0.11961 0.54284 0.7101 0.0
H1403 H 0.11839 0.57931 0.69214 0.0
H1404 H 0.42008 0.18548 0.72158 0.0
H1405 H 0.45626 0.18611 0.7401 0.0
H1406 H 0.46932 0.12411 0.70637 0.0
H1407 H 0.43315 0.12335 0.6877 0.0
H1408 H 0.47253 0.15512 0.77585 0.0
H1409 H 0.52253 0.16033 0.6865 0.0
H1410 H 0.4943 0.16699 0.68676 0.0
H1411 H 0.50268 0.13941 0.6864 0.0
C1412 C 0.43077 0.17215 0.71766 0.0
C1413 C 0.42372 0.15439 0.70307 0.0
C1414 C 0.45142 0.17249 0.72839 0.0
C1415 C 0.46554 0.15521 0.72455 0.0
C1416 C 0.45881 0.13776 0.70931 0.0
H1417 H 0.57938 0.12078 0.81455 0.0
H1418 H 0.5433 0.1224 0.79554 0.0
C1419 C 0.43811 0.13735 0.69866 0.0
C1420 C 0.48681 0.15495 0.73767 0.0
H1421 H 0.54084 0.15394 0.72622 0.0
C1422 C 0.48748 0.15491 0.76501 0.0
C1423 C 0.50629 0.1548 0.72352 0.0
C1424 C 0.50655 0.15556 0.69417 0.0
C1425 C 0.50709 0.15448 0.77856 0.0
C1426 C 0.52656 0.15393 0.7644 0.0
C1427 C 0.52589 0.15423 0.73706 0.0
C1428 C 0.54784 0.15346 0.77751 0.0
C1429 C 0.50686 0.15494 0.80792 0.0
C1430 C 0.56236 0.17038 0.77378 0.0
C1431 C 0.58292 0.16953 0.78466 0.0
C1432 C 0.58951 0.15162 0.79933 0.0
C1433 C 0.57477 0.13487 0.80353 0.0
C1434 C 0.55413 0.13578 0.79269 0.0
H1435 H 0.49103 0.16011 0.81569 0.0
H1436 H 0.51029 0.1386 0.81545 0.0
H1437 H 0.51943 0.16593 0.81547 0.0
H1438 H 0.55786 0.18417 0.76213 0.0
H1439 H 0.59386 0.18268 0.78094 0.0
H1440 H 0.65097 0.07963 0.82814 0.0
H1441 H 0.65229 0.04158 0.81718 0.0
H1442 H 0.68003 0.05709 0.74253 0.0
H1443 H 0.67943 0.09549 0.75405 0.0
H1444 H 0.63111 0.0226 0.77717 0.0
H1445 H 0.7188 0.00886 0.76907 0.0
H1446 H 0.70764 0.03408 0.77964 0.0
H1447 H 0.70875 0.02777 0.74564 0.0
C1448 C 0.65791 0.07488 0.80968 0.0
C1449 C 0.66579 0.09033 0.79226 0.0
C1450 C 0.65844 0.05316 0.80333 0.0
C1451 C 0.66649 0.04645 0.77919 0.0
C1452 C 0.67416 0.06189 0.7615 0.0
H1453 H 0.64422 0.92881 0.6985 0.0
H1454 H 0.64576 0.96561 0.71489 0.0
C1455 C 0.67372 0.08376 0.76798 0.0
C1456 C 0.66547 0.02338 0.77225 0.0
H1457 H 0.69602 0.97974 0.75671 0.0
C1458 C 0.64533 0.01325 0.77259 0.0
C1459 C 0.68401 0.01115 0.76639 0.0
C1460 C 0.70607 0.02097 0.76534 0.0
C1461 C 0.6432 0.99138 0.76675 0.0
C1462 C 0.66171 0.9793 0.76069 0.0
C1463 C 0.68188 0.98918 0.76109 0.0
C1464 C 0.66023 0.95688 0.75167 0.0
C1465 C 0.6212 0.98128 0.76703 0.0
C1466 C 0.66796 0.93987 0.76698 0.0
C1467 C 0.66703 0.91876 0.75764 0.0
C1468 C 0.65899 0.91469 0.73263 0.0
C1469 C 0.65092 0.93171 0.71765 0.0
C1470 C 0.65163 0.95265 0.72703 0.0
H1471 H 0.60929 0.99144 0.7774 0.0
H1472 H 0.61562 0.97906 0.7467 0.0
H1473 H 0.62175 0.96523 0.77644 0.0
H1474 H 0.67471 0.94295 0.78604 0.0
H1475 H 0.67308 0.90575 0.76956 0.0
H1476 H 0.90556 0.67468 0.74111 0.0
H1477 H 0.94314 0.67641 0.72597 0.0
H1478 H 0.96392 0.64574 0.7969 0.0
H1479 H 0.92672 0.64406 0.81196 0.0
H1480 H 0.97997 0.69648 0.75769 0.0
H1481 H 0.98987 0.61014 0.73322 0.0
H1482 H 0.96397 0.62323 0.73386 0.0
H1483 H 0.97702 0.6161 0.76377 0.0
C1484 C 0.91824 0.66832 0.7533 0.0
C1485 C 0.91351 0.65973 0.77787 0.0
C1486 C 0.93957 0.66932 0.74473 0.0
C1487 C 0.95616 0.66112 0.76035 0.0
C1488 C 0.95129 0.65202 0.78456 0.0
H1489 H 0.09554 0.67826 0.75655 0.0
H1490 H 0.05739 0.67904 0.76928 0.0
C1491 C 0.93012 0.65123 0.79318 0.0
C1492 C 0.97875 0.66237 0.75191 0.0
H1493 H 0.02131 0.63139 0.73376 0.0
C1494 C 0.98909 0.6823 0.75253 0.0
C1495 C 0.99041 0.6438 0.74497 0.0
C1496 C 0.97981 0.62207 0.74369 0.0
C1497 C 0.01106 0.68414 0.74704 0.0
C1498 C 0.02285 0.66555 0.74014 0.0
C1499 C 0.01231 0.64564 0.73908 0.0
C1500 C 0.04583 0.66634 0.73261 0.0
C1501 C 0.02133 0.70595 0.74873 0.0
C1502 C 0.05198 0.65862 0.70808 0.0
C1503 C 0.07356 0.65793 0.70107 0.0
C1504 C 0.08945 0.66536 0.71817 0.0
C1505 C 0.08346 0.67292 0.74285 0.0
C1506 C 0.06173 0.67348 0.75002 0.0
H1507 H 0.02892 0.70778 0.76815 0.0
H1508 H 0.03392 0.70778 0.7338 0.0
H1509 H 0.00937 0.71904 0.74634 0.0
H1510 H 0.04005 0.65287 0.69442 0.0
H1511 H 0.07785 0.65125 0.6823 0.0
H1512 H 0.33558 0.10099 0.75675 0.0
H1513 H 0.33386 0.06304 0.77046 0.0
H1514 H 0.36306 0.04392 0.69795 0.0
H1515 H 0.36473 0.0815 0.68428 0.0
H1516 H 0.31369 0.02608 0.73364 0.0
H1517 H 0.39892 0.0177 0.76445 0.0
H1518 H 0.38479 0.04302 0.76597 0.0
H1519 H 0.39323 0.03255 0.73513 0.0
C1520 C 0.34158 0.08859 0.74387 0.0
C1521 C 0.34976 0.09391 0.71927 0.0
C1522 C 0.3406 0.06706 0.75164 0.0
C1523 C 0.34836 0.05085 0.73514 0.0
C1524 C 0.35703 0.05627 0.71089 0.0
H1525 H 0.33237 0.91078 0.73865 0.0
H1526 H 0.33267 0.94863 0.72461 0.0
C1527 C 0.35783 0.07765 0.70307 0.0
C1528 C 0.34723 0.02809 0.74282 0.0
H1529 H 0.37799 0.98622 0.76355 0.0
C1530 C 0.3277 0.01726 0.74003 0.0
C1531 C 0.36558 0.01685 0.7513 0.0
C1532 C 0.38688 0.02802 0.75456 0.0
C1533 C 0.32605 0.99521 0.74514 0.0
C1534 C 0.34438 0.98385 0.7539 0.0
C1535 C 0.36392 0.99488 0.75688 0.0
C1536 C 0.34355 0.96094 0.7618 0.0
C1537 C 0.30468 0.9845 0.74104 0.0
C1538 C 0.35005 0.95526 0.787 0.0
C1539 C 0.35021 0.93385 0.79473 0.0
C1540 C 0.34336 0.91765 0.7777 0.0
C1541 C 0.3372 0.92312 0.75229 0.0
C1542 C 0.33726 0.94468 0.74437 0.0
H1543 H 0.29118 0.99606 0.74295 0.0
H1544 H 0.30417 0.97767 0.72109 0.0
H1545 H 0.30227 0.9713 0.75502 0.0
H1546 H 0.35514 0.96743 0.80073 0.0
H1547 H 0.35588 0.92994 0.81409 0.0
H1548 H 0.08534 0.36661 0.81631 0.0
H1549 H 0.04756 0.3682 0.80419 0.0
H1550 H 0.05922 0.32224 0.74278 0.0
H1551 H 0.09773 0.32295 0.753 0.0
H1552 H 0.03414 0.34928 0.72535 0.0
H1553 H 1.00147 0.33004 0.82215 0.0
H1554 H 0.01406 0.35586 0.82342 0.0
H1555 H 0.02985 0.33231 0.81673 0.0
C1556 C 0.07972 0.3568 0.80028 0.0
C1557 C 0.09417 0.34426 0.78589 0.0
C1558 C 0.05806 0.35751 0.79353 0.0
C1559 C 0.05014 0.34471 0.77318 0.0
C1560 C 0.06475 0.33213 0.75875 0.0
H1561 H 0.913 0.32159 0.75848 0.0
H1562 H 0.9513 0.32097 0.7693 0.0
C1563 C 0.0867 0.33234 0.76466 0.0
C1564 C 0.02692 0.34526 0.76605 0.0
H1565 H 0.97616 0.34415 0.79105 0.0
C1566 C 0.02146 0.34769 0.73971 0.0
C1567 C 0.01018 0.34361 0.78469 0.0
C1568 C 0.01423 0.34013 0.81329 0.0
C1569 C 1.00001 0.34815 0.73137 0.0
C1570 C 0.98325 0.34683 0.7501 0.0
C1571 C 0.98876 0.34484 0.7765 0.0
C1572 C 0.95996 0.34702 0.74314 0.0
C1573 C 0.99611 0.34992 0.70246 0.0
C1574 C 0.95167 0.36202 0.72536 0.0
C1575 C 0.9302 0.3611 0.71777 0.0
C1576 C 0.91623 0.34616 0.72912 0.0
C1577 C 0.92378 0.33261 0.74877 0.0
C1578 C 0.94561 0.33254 0.75515 0.0
H1579 H 0.00888 0.34153 0.69127 0.0
H1580 H 0.98048 0.34319 0.69662 0.0
H1581 H 0.99657 0.3671 0.69677 0.0
H1582 H 0.96181 0.37432 0.717 0.0
H1583 H 0.92441 0.37225 0.70317 0.0
H1584 H 0.32805 0.09443 0.26167 0.0
H1585 H 0.3271 0.05826 0.24381 0.0
H1586 H 0.37067 0.03682 0.30374 0.0
H1587 H 0.37279 0.07358 0.32063 0.0
H1588 H 0.38294 0.02071 0.26116 0.0
H1589 H 0.29562 0.00674 0.26446 0.0
H1590 H 0.30124 0.03019 0.24554 0.0
H1591 H 0.30777 0.02972 0.27978 0.0
C1592 C 0.33716 0.08194 0.27134 0.0
C1593 C 0.35034 0.08681 0.29274 0.0
C1594 C 0.33649 0.06114 0.26117 0.0
C1595 C 0.34837 0.04449 0.27271 0.0
C1596 C 0.36124 0.04928 0.29448 0.0
H1597 H 0.32776 0.91063 0.23167 0.0
H1598 H 0.32666 0.9466 0.25022 0.0
C1599 C 0.36237 0.07026 0.30425 0.0
C1600 C 0.3484 0.02249 0.26108 0.0
H1601 H 0.31573 0.98352 0.23623 0.0
C1602 C 0.3682 0.01249 0.25601 0.0
C1603 C 0.32923 0.01146 0.2546 0.0
C1604 C 0.30731 0.02001 0.26167 0.0
C1605 C 0.36941 0.99204 0.2445 0.0
C1606 C 0.35028 0.98163 0.23649 0.0
C1607 C 0.33047 0.99154 0.24183 0.0
C1608 C 0.3503 0.96 0.22387 0.0
C1609 C 0.39121 0.98165 0.24195 0.0
C1610 C 0.36344 0.95544 0.20225 0.0
C1611 C 0.3645 0.93461 0.192 0.0
C1612 C 0.3518 0.91811 0.20251 0.0
C1613 C 0.33766 0.92301 0.223 0.0
C1614 C 0.33706 0.94363 0.23369 0.0
H1615 H 0.40277 0.98829 0.2563 0.0
H1616 H 0.39029 0.96401 0.24483 0.0
H1617 H 0.39773 0.9849 0.22224 0.0
H1618 H 0.37319 0.96789 0.19354 0.0
H1619 H 0.37545 0.93133 0.1761 0.0
H1620 H 0.928 0.38707 0.31618 0.0
H1621 H 0.96443 0.38546 0.29827 0.0
H1622 H 0.95134 0.3227 0.26678 0.0
H1623 H 0.91489 0.32418 0.28452 0.0
H1624 H 0.99866 0.35476 0.30451 0.0
H1625 H 0.969 0.35945 0.20266 0.0
H1626 H 0.95236 0.36599 0.23034 0.0
H1627 H 0.95742 0.33844 0.22208 0.0
C1628 C 0.93297 0.37278 0.30579 0.0
C1629 C 0.91848 0.3558 0.30168 0.0
C1630 C 0.95378 0.37191 0.29551 0.0
C1631 C 0.96045 0.35414 0.28077 0.0
C1632 C 0.94639 0.33674 0.27769 0.0
H1633 H 0.08981 0.32369 0.22816 0.0
H1634 H 0.05365 0.32287 0.24674 0.0
C1635 C 0.92561 0.33754 0.28804 0.0
C1636 C 0.98185 0.35412 0.26795 0.0
H1637 H 0.00634 0.35401 0.20834 0.0
C1638 C 1.00036 0.35457 0.2835 0.0
C1639 C 0.98402 0.3542 0.2405 0.0
C1640 C 0.96468 0.35468 0.22283 0.0
C1641 C 0.02098 0.35471 0.27234 0.0
C1642 C 0.02315 0.35424 0.24491 0.0
C1643 C 0.00464 0.35416 0.22935 0.0
C1644 C 0.04454 0.35412 0.23208 0.0
C1645 C 0.04031 0.35573 0.28998 0.0
C1646 C 0.05115 0.37161 0.21683 0.0
C1647 C 0.07183 0.37212 0.20609 0.0
C1648 C 0.08621 0.35504 0.21024 0.0
C1649 C 0.07918 0.33714 0.22462 0.0
C1650 C 0.05856 0.3367 0.23542 0.0
H1651 H 0.03593 0.36077 0.31003 0.0
H1652 H 0.04781 0.33959 0.29111 0.0
H1653 H 0.05247 0.36706 0.28217 0.0
H1654 H 0.04052 0.38517 0.21387 0.0
H1655 H 0.07673 0.38614 0.19514 0.0
H1656 H 0.61815 0.92751 0.31712 0.0
H1657 H 0.61883 0.9642 0.29982 0.0
H1658 H 0.68219 0.95319 0.26881 0.0
H1659 H 0.68166 0.91656 0.28594 0.0
H1660 H 0.64867 0.9991 0.30731 0.0
H1661 H 0.64575 0.97125 0.20466 0.0
H1662 H 0.63928 0.95398 0.23178 0.0
H1663 H 0.66682 0.95965 0.224 0.0
C1664 C 0.63236 0.93298 0.30693 0.0
C1665 C 0.64981 0.91904 0.30283 0.0
C1666 C 0.63269 0.95395 0.297 0.0
C1667 C 0.65039 0.9613 0.2826 0.0
C1668 C 0.6682 0.94773 0.27944 0.0
H1669 H 0.68081 0.09167 0.23431 0.0
H1670 H 0.68121 0.05526 0.25216 0.0
C1671 C 0.66792 0.92683 0.28944 0.0
C1672 C 0.65006 0.98295 0.27034 0.0
H1673 H 0.65101 0.00852 0.21141 0.0
C1674 C 0.64917 1.00117 0.28636 0.0
C1675 C 0.65041 0.98563 0.24296 0.0
C1676 C 0.65043 0.96662 0.22476 0.0
C1677 C 0.64906 0.022 0.27575 0.0
C1678 C 0.65004 0.02468 0.2484 0.0
C1679 C 0.65048 0.00645 0.23236 0.0
C1680 C 0.65039 0.04632 0.23613 0.0
C1681 C 0.64762 0.04099 0.29388 0.0
C1682 C 0.6333 0.05317 0.22036 0.0
C1683 C 0.63303 0.074 0.21003 0.0
C1684 C 0.64997 0.08833 0.2151 0.0
C1685 C 0.66748 0.08109 0.23004 0.0
C1686 C 0.66768 0.06032 0.24044 0.0
H1687 H 0.6421 0.03623 0.31362 0.0
H1688 H 0.66372 0.04843 0.29579 0.0
H1689 H 0.63646 0.05331 0.28605 0.0
H1690 H 0.61986 0.04258 0.21663 0.0
H1691 H 0.6193 0.07904 0.19863 0.0
H1692 H 0.09288 0.68144 0.27519 0.0
H1693 H 0.05617 0.68235 0.25832 0.0
H1694 H 0.04349 0.62088 0.29364 0.0
H1695 H 0.08022 0.61985 0.31068 0.0
H1696 H 0.03776 0.65169 0.22404 0.0
H1697 H 0.99187 0.65819 0.31646 0.0
H1698 H 0.02018 0.66418 0.31436 0.0
H1699 H 0.01123 0.6368 0.31537 0.0
C1700 C 0.08221 0.66824 0.27973 0.0
C1701 C 0.08949 0.6506 0.29439 0.0
C1702 C 0.06124 0.66875 0.26996 0.0
C1703 C 0.04702 0.65176 0.27483 0.0
C1704 C 0.05407 0.63433 0.28994 0.0
H1705 H 0.92888 0.62003 0.19186 0.0
H1706 H 0.96564 0.62077 0.20887 0.0
C1707 C 0.07509 0.63375 0.29964 0.0
C1708 C 0.02518 0.65187 0.26308 0.0
H1709 H 0.97171 0.65224 0.278 0.0
C1710 C 0.02331 0.65184 0.23582 0.0
C1711 C 0.00635 0.65222 0.27847 0.0
C1712 C 0.00738 0.65303 0.30779 0.0
C1713 C 1.00311 0.65192 0.22356 0.0
C1714 C 0.98428 0.65187 0.23896 0.0
C1715 C 0.98616 0.65214 0.26621 0.0
C1716 C 0.96244 0.65187 0.22722 0.0
C1717 C 1.00208 0.65241 0.19423 0.0
C1718 C 0.94841 0.66909 0.23184 0.0
C1719 C 0.92744 0.66874 0.22209 0.0
C1720 C 0.91995 0.65104 0.20769 0.0
C1721 C 0.93416 0.63396 0.20269 0.0
C1722 C 0.9552 0.63438 0.21238 0.0
H1723 H 0.01764 0.65729 0.18547 0.0
H1724 H 0.99807 0.63614 0.18694 0.0
H1725 H 0.98939 0.66364 0.18748 0.0
H1726 H 0.95363 0.68274 0.24326 0.0
H1727 H 0.91692 0.68212 0.22643 0.0
loop_
_geom_bond_atom_site_label_1
_geom_bond_atom_site_label_2
_geom_bond_distance
_geom_bond_site_symmetry_2
_ccdc_geom_bond_type
Mn0 O5 2.095 . S
Mn0 O15 2.162 . S
Mn0 O16 2.297 . S
Mn0 O24 2.385 . S
Mn0 O25 2.209 . S
Mn0 O26 2.094 . S
Mn1 O6 2.121 . S
Mn1 N8 2.257 . S
Mn1 N17 2.282 . S
Mn1 O25 2.215 . S
Mn1 O27 2.117 . S
C2 O24 1.234 . S
C2 O25 1.283 . S
C3 O15 1.281 . S
C3 O16 1.236 . S
C4 O26 1.240 . S
C4 O27 1.264 . S
O5 Mn0 2.095 . S
O5 C14 1.250 . S
O6 Mn1 2.121 . S
O6 C14 1.258 . S
C7 N8 1.326 . S
C7 C11 1.460 . S
C7 H13 0.929 . S
N8 Mn1 2.257 . S
N8 C7 1.326 . S
N8 C12 1.362 . S
C9 C10 1.258 . S
C9 C12 1.431 . S
C9 C29 1.449 . S
C10 C9 1.258 . S
C10 C11 1.477 . S
C10 H30 0.931 . S
C11 C7 1.460 . S
C11 C10 1.477 . S
C11 H31 0.930 . S
C12 N8 1.362 . S
C12 C9 1.431 . S
C12 C22 1.476 . S
H13 C7 0.929 . S
C14 O5 1.250 . S
C14 O6 1.258 . S
O15 Mn0 2.162 . S
O15 C3 1.281 . S
O16 Mn0 2.297 . S
O16 C3 1.236 . S
N17 Mn1 2.282 . S
N17 C18 1.328 . S
N17 C22 1.318 . S
C18 N17 1.328 . S
C18 C19 1.457 . S
C18 H23 0.929 . S
C19 C18 1.457 . S
C19 C20 1.291 . S
C19 H32 0.931 . S
C20 C19 1.291 . S
C20 C21 1.373 . S
C20 H33 0.929 . S
C21 C20 1.373 . S
C21 C22 1.396 . S
C21 C28 1.403 . S
C22 C12 1.476 . S
C22 N17 1.318 . S
C22 C21 1.396 . S
H23 C18 0.929 . S
O24 Mn0 2.385 . S
O24 C2 1.234 . S
O25 Mn0 2.209 . S
O25 Mn1 2.215 . S
O25 C2 1.283 . S
O26 Mn0 2.094 . S
O26 C4 1.240 . S
O27 Mn1 2.117 . S
O27 C4 1.264 . S
C28 C21 1.403 . S
C28 C29 1.399 . S
C28 H34 0.929 . S
C29 C9 1.449 . S
C29 C28 1.399 . S
C29 H35 0.930 . S
H30 C10 0.931 . S
H31 C11 0.930 . S
H32 C19 0.931 . S
H33 C20 0.929 . S
H34 C28 0.929 . S
H35 C29 0.930 . S
Mn36 O41 2.095 . S
Mn36 O51 2.162 . S
Mn36 O52 2.297 . S
Mn36 O60 2.385 . S
Mn36 O61 2.209 . S
Mn36 O62 2.094 . S
Mn37 O42 2.121 . S
Mn37 N44 2.257 . S
Mn37 N53 2.282 . S
Mn37 O61 2.215 . S
Mn37 O63 2.117 . S
C38 O60 1.234 . S
C38 O61 1.283 . S
C39 O51 1.281 . S
C39 O52 1.236 . S
C40 O62 1.240 . S
C40 O63 1.264 . S
O41 Mn36 2.095 . S
O41 C50 1.250 . S
O42 Mn37 2.121 . S
O42 C50 1.258 . S
C43 N44 1.326 . S
C43 C47 1.460 . S
C43 H49 0.929 . S
N44 Mn37 2.257 . S
N44 C43 1.326 . S
N44 C48 1.362 . S
C45 C46 1.258 . S
C45 C48 1.431 . S
C45 C65 1.449 . S
C46 C45 1.258 . S
C46 C47 1.477 . S
C46 H66 0.931 . S
C47 C43 1.460 . S
C47 C46 1.477 . S
C47 H67 0.930 . S
C48 N44 1.362 . S
C48 C45 1.431 . S
C48 C58 1.476 . S
H49 C43 0.929 . S
C50 O41 1.250 . S
C50 O42 1.258 . S
O51 Mn36 2.162 . S
O51 C39 1.281 . S
O52 Mn36 2.297 . S
O52 C39 1.236 . S
N53 Mn37 2.282 . S
N53 C54 1.328 . S
N53 C58 1.318 . S
C54 N53 1.328 . S
C54 C55 1.457 . S
C54 H59 0.929 . S
C55 C54 1.457 . S
C55 C56 1.291 . S
C55 H68 0.931 . S
C56 C55 1.291 . S
C56 C57 1.373 . S
C56 H69 0.929 . S
C57 C56 1.373 . S
C57 C58 1.396 . S
C57 C64 1.403 . S
C58 C48 1.476 . S
C58 N53 1.318 . S
C58 C57 1.396 . S
H59 C54 0.929 . S
O60 Mn36 2.385 . S
O60 C38 1.234 . S
O61 Mn36 2.209 . S
O61 Mn37 2.215 . S
O61 C38 1.283 . S
O62 Mn36 2.094 . S
O62 C40 1.240 . S
O63 Mn37 2.117 . S
O63 C40 1.264 . S
C64 C57 1.403 . S
C64 C65 1.399 . S
C64 H70 0.929 . S
C65 C45 1.449 . S
C65 C64 1.399 . S
C65 H71 0.930 . S
H66 C46 0.931 . S
H67 C47 0.930 . S
H68 C55 0.931 . S
H69 C56 0.929 . S
H70 C64 0.929 . S
H71 C65 0.930 . S
Mn72 O77 2.095 . S
Mn72 O87 2.162 . S
Mn72 O88 2.297 . S
Mn72 O96 2.385 . S
Mn72 O97 2.209 . S
Mn72 O98 2.094 . S
Mn73 O78 2.121 . S
Mn73 N80 2.257 . S
Mn73 N89 2.282 . S
Mn73 O97 2.215 . S
Mn73 O99 2.117 . S
C74 O96 1.234 . S
C74 O97 1.283 . S
C75 O87 1.281 . S
C75 O88 1.236 . S
C76 O98 1.240 . S
C76 O99 1.264 . S
O77 Mn72 2.095 . S
O77 C86 1.250 . S
O78 Mn73 2.121 . S
O78 C86 1.258 . S
C79 N80 1.326 . S
C79 C83 1.460 . S
C79 H85 0.929 . S
N80 Mn73 2.257 . S
N80 C79 1.326 . S
N80 C84 1.362 . S
C81 C82 1.258 . S
C81 C84 1.431 . S
C81 C101 1.449 . S
C82 C81 1.258 . S
C82 C83 1.477 . S
C82 H102 0.931 . S
C83 C79 1.460 . S
C83 C82 1.477 . S
C83 H103 0.930 . S
C84 N80 1.362 . S
C84 C81 1.431 . S
C84 C94 1.476 . S
H85 C79 0.929 . S
C86 O77 1.250 . S
C86 O78 1.258 . S
O87 Mn72 2.162 . S
O87 C75 1.281 . S
O88 Mn72 2.297 . S
O88 C75 1.236 . S
N89 Mn73 2.282 . S
N89 C90 1.328 . S
N89 C94 1.318 . S
C90 N89 1.328 . S
C90 C91 1.457 . S
C90 H95 0.929 . S
C91 C90 1.457 . S
C91 C92 1.291 . S
C91 H104 0.931 . S
C92 C91 1.291 . S
C92 C93 1.373 . S
C92 H105 0.929 . S
C93 C92 1.373 . S
C93 C94 1.396 . S
C93 C100 1.403 . S
C94 C84 1.476 . S
C94 N89 1.318 . S
C94 C93 1.396 . S
H95 C90 0.929 . S
O96 Mn72 2.385 . S
O96 C74 1.234 . S
O97 Mn72 2.209 . S
O97 Mn73 2.215 . S
O97 C74 1.283 . S
O98 Mn72 2.094 . S
O98 C76 1.240 . S
O99 Mn73 2.117 . S
O99 C76 1.264 . S
C100 C93 1.403 . S
C100 C101 1.399 . S
C100 H106 0.929 . S
C101 C81 1.449 . S
C101 C100 1.399 . S
C101 H107 0.930 . S
H102 C82 0.931 . S
H103 C83 0.930 . S
H104 C91 0.931 . S
H105 C92 0.929 . S
H106 C100 0.929 . S
H107 C101 0.930 . S
Mn108 O113 2.095 . S
Mn108 O123 2.162 . S
Mn108 O124 2.297 . S
Mn108 O132 2.385 . S
Mn108 O133 2.209 . S
Mn108 O134 2.094 . S
Mn109 O114 2.121 . S
Mn109 N116 2.257 . S
Mn109 N125 2.282 . S
Mn109 O133 2.215 . S
Mn109 O135 2.117 . S
C110 O132 1.234 . S
C110 O133 1.283 . S
C111 O123 1.281 . S
C111 O124 1.236 . S
C112 O134 1.240 . S
C112 O135 1.264 . S
O113 Mn108 2.095 . S
O113 C122 1.250 . S
O114 Mn109 2.121 . S
O114 C122 1.258 . S
C115 N116 1.326 . S
C115 C119 1.460 . S
C115 H121 0.929 . S
N116 Mn109 2.257 . S
N116 C115 1.326 . S
N116 C120 1.362 . S
C117 C118 1.258 . S
C117 C120 1.431 . S
C117 C137 1.449 . S
C118 C117 1.258 . S
C118 C119 1.477 . S
C118 H138 0.931 . S
C119 C115 1.460 . S
C119 C118 1.477 . S
C119 H139 0.930 . S
C120 N116 1.362 . S
C120 C117 1.431 . S
C120 C130 1.476 . S
H121 C115 0.929 . S
C122 O113 1.250 . S
C122 O114 1.258 . S
O123 Mn108 2.162 . S
O123 C111 1.281 . S
O124 Mn108 2.297 . S
O124 C111 1.236 . S
N125 Mn109 2.282 . S
N125 C126 1.328 . S
N125 C130 1.318 . S
C126 N125 1.328 . S
C126 C127 1.457 . S
C126 H131 0.929 . S
C127 C126 1.457 . S
C127 C128 1.291 . S
C127 H140 0.931 . S
C128 C127 1.291 . S
C128 C129 1.373 . S
C128 H141 0.929 . S
C129 C128 1.373 . S
C129 C130 1.396 . S
C129 C136 1.403 . S
C130 C120 1.476 . S
C130 N125 1.318 . S
C130 C129 1.396 . S
H131 C126 0.929 . S
O132 Mn108 2.385 . S
O132 C110 1.234 . S
O133 Mn108 2.209 . S
O133 Mn109 2.215 . S
O133 C110 1.283 . S
O134 Mn108 2.094 . S
O134 C112 1.240 . S
O135 Mn109 2.117 . S
O135 C112 1.264 . S
C136 C129 1.403 . S
C136 C137 1.399 . S
C136 H142 0.929 . S
C137 C117 1.449 . S
C137 C136 1.399 . S
C137 H143 0.930 . S
H138 C118 0.931 . S
H139 C119 0.930 . S
H140 C127 0.931 . S
H141 C128 0.929 . S
H142 C136 0.929 . S
H143 C137 0.930 . S
Mn144 O149 2.095 . S
Mn144 O159 2.162 . S
Mn144 O160 2.297 . S
Mn144 O168 2.385 . S
Mn144 O169 2.209 . S
Mn144 O170 2.094 . S
Mn145 O150 2.121 . S
Mn145 N152 2.257 . S
Mn145 N161 2.282 . S
Mn145 O169 2.215 . S
Mn145 O171 2.117 . S
C146 O168 1.234 . S
C146 O169 1.283 . S
C147 O159 1.281 . S
C147 O160 1.236 . S
C148 O170 1.240 . S
C148 O171 1.264 . S
O149 Mn144 2.095 . S
O149 C158 1.250 . S
O150 Mn145 2.121 . S
O150 C158 1.258 . S
C151 N152 1.326 . S
C151 C155 1.460 . S
C151 H157 0.929 . S
N152 Mn145 2.257 . S
N152 C151 1.326 . S
N152 C156 1.362 . S
C153 C154 1.258 . S
C153 C156 1.431 . S
C153 C173 1.449 . S
C154 C153 1.258 . S
C154 C155 1.477 . S
C154 H174 0.931 . S
C155 C151 1.460 . S
C155 C154 1.477 . S
C155 H175 0.930 . S
C156 N152 1.362 . S
C156 C153 1.431 . S
C156 C166 1.476 . S
H157 C151 0.929 . S
C158 O149 1.250 . S
C158 O150 1.258 . S
O159 Mn144 2.162 . S
O159 C147 1.281 . S
O160 Mn144 2.297 . S
O160 C147 1.236 . S
N161 Mn145 2.282 . S
N161 C162 1.328 . S
N161 C166 1.318 . S
C162 N161 1.328 . S
C162 C163 1.457 . S
C162 H167 0.929 . S
C163 C162 1.457 . S
C163 C164 1.291 . S
C163 H176 0.931 . S
C164 C163 1.291 . S
C164 C165 1.373 . S
C164 H177 0.929 . S
C165 C164 1.373 . S
C165 C166 1.396 . S
C165 C172 1.403 . S
C166 C156 1.476 . S
C166 N161 1.318 . S
C166 C165 1.396 . S
H167 C162 0.929 . S
O168 Mn144 2.385 . S
O168 C146 1.234 . S
O169 Mn144 2.209 . S
O169 Mn145 2.215 . S
O169 C146 1.283 . S
O170 Mn144 2.094 . S
O170 C148 1.240 . S
O171 Mn145 2.117 . S
O171 C148 1.264 . S
C172 C165 1.403 . S
C172 C173 1.399 . S
C172 H178 0.929 . S
C173 C153 1.449 . S
C173 C172 1.399 . S
C173 H179 0.930 . S
H174 C154 0.931 . S
H175 C155 0.930 . S
H176 C163 0.931 . S
H177 C164 0.929 . S
H178 C172 0.929 . S
H179 C173 0.930 . S
Mn180 O185 2.095 . S
Mn180 O195 2.162 . S
Mn180 O196 2.297 . S
Mn180 O204 2.385 . S
Mn180 O205 2.209 . S
Mn180 O206 2.094 . S
Mn181 O186 2.121 . S
Mn181 N188 2.257 . S
Mn181 N197 2.282 . S
Mn181 O205 2.215 . S
Mn181 O207 2.117 . S
C182 O204 1.234 . S
C182 O205 1.283 . S
C183 O195 1.281 . S
C183 O196 1.236 . S
C184 O206 1.240 . S
C184 O207 1.264 . S
O185 Mn180 2.095 . S
O185 C194 1.250 . S
O186 Mn181 2.121 . S
O186 C194 1.258 . S
C187 N188 1.326 . S
C187 C191 1.460 . S
C187 H193 0.929 . S
N188 Mn181 2.257 . S
N188 C187 1.326 . S
N188 C192 1.362 . S
C189 C190 1.258 . S
C189 C192 1.431 . S
C189 C209 1.449 . S
C190 C189 1.258 . S
C190 C191 1.477 . S
C190 H210 0.931 . S
C191 C187 1.460 . S
C191 C190 1.477 . S
C191 H211 0.930 . S
C192 N188 1.362 . S
C192 C189 1.431 . S
C192 C202 1.476 . S
H193 C187 0.929 . S
C194 O185 1.250 . S
C194 O186 1.258 . S
O195 Mn180 2.162 . S
O195 C183 1.281 . S
O196 Mn180 2.297 . S
O196 C183 1.236 . S
N197 Mn181 2.282 . S
N197 C198 1.328 . S
N197 C202 1.318 . S
C198 N197 1.328 . S
C198 C199 1.457 . S
C198 H203 0.929 . S
C199 C198 1.457 . S
C199 C200 1.291 . S
C199 H212 0.931 . S
C200 C199 1.291 . S
C200 C201 1.373 . S
C200 H213 0.929 . S
C201 C200 1.373 . S
C201 C202 1.396 . S
C201 C208 1.403 . S
C202 C192 1.476 . S
C202 N197 1.318 . S
C202 C201 1.396 . S
H203 C198 0.929 . S
O204 Mn180 2.385 . S
O204 C182 1.234 . S
O205 Mn180 2.209 . S
O205 Mn181 2.215 . S
O205 C182 1.283 . S
O206 Mn180 2.094 . S
O206 C184 1.240 . S
O207 Mn181 2.117 . S
O207 C184 1.264 . S
C208 C201 1.403 . S
C208 C209 1.399 . S
C208 H214 0.929 . S
C209 C189 1.449 . S
C209 C208 1.399 . S
C209 H215 0.930 . S
H210 C190 0.931 . S
H211 C191 0.930 . S
H212 C199 0.931 . S
H213 C200 0.929 . S
H214 C208 0.929 . S
H215 C209 0.930 . S
Mn216 O221 2.095 . S
Mn216 O231 2.162 . S
Mn216 O232 2.297 . S
Mn216 O240 2.385 . S
Mn216 O241 2.209 . S
Mn216 O242 2.094 . S
Mn217 O222 2.121 . S
Mn217 N224 2.257 . S
Mn217 N233 2.282 . S
Mn217 O241 2.215 . S
Mn217 O243 2.117 . S
C218 O240 1.234 . S
C218 O241 1.283 . S
C219 O231 1.281 . S
C219 O232 1.236 . S
C220 O242 1.240 . S
C220 O243 1.264 . S
O221 Mn216 2.095 . S
O221 C230 1.250 . S
O222 Mn217 2.121 . S
O222 C230 1.258 . S
C223 N224 1.326 . S
C223 C227 1.460 . S
C223 H229 0.929 . S
N224 Mn217 2.257 . S
N224 C223 1.326 . S
N224 C228 1.362 . S
C225 C226 1.258 . S
C225 C228 1.431 . S
C225 C245 1.449 . S
C226 C225 1.258 . S
C226 C227 1.477 . S
C226 H246 0.931 . S
C227 C223 1.460 . S
C227 C226 1.477 . S
C227 H247 0.930 . S
C228 N224 1.362 . S
C228 C225 1.431 . S
C228 C238 1.476 . S
H229 C223 0.929 . S
C230 O221 1.250 . S
C230 O222 1.258 . S
O231 Mn216 2.162 . S
O231 C219 1.281 . S
O232 Mn216 2.297 . S
O232 C219 1.236 . S
N233 Mn217 2.282 . S
N233 C234 1.328 . S
N233 C238 1.318 . S
C234 N233 1.328 . S
C234 C235 1.457 . S
C234 H239 0.929 . S
C235 C234 1.457 . S
C235 C236 1.291 . S
C235 H248 0.931 . S
C236 C235 1.291 . S
C236 C237 1.373 . S
C236 H249 0.929 . S
C237 C236 1.373 . S
C237 C238 1.396 . S
C237 C244 1.403 . S
C238 C228 1.476 . S
C238 N233 1.318 . S
C238 C237 1.396 . S
H239 C234 0.929 . S
O240 Mn216 2.385 . S
O240 C218 1.234 . S
O241 Mn216 2.209 . S
O241 Mn217 2.215 . S
O241 C218 1.283 . S
O242 Mn216 2.094 . S
O242 C220 1.240 . S
O243 Mn217 2.117 . S
O243 C220 1.264 . S
C244 C237 1.403 . S
C244 C245 1.399 . S
C244 H250 0.929 . S
C245 C225 1.449 . S
C245 C244 1.399 . S
C245 H251 0.930 . S
H246 C226 0.931 . S
H247 C227 0.930 . S
H248 C235 0.931 . S
H249 C236 0.929 . S
H250 C244 0.929 . S
H251 C245 0.930 . S
Mn252 O257 2.095 . S
Mn252 O267 2.162 . S
Mn252 O268 2.297 . S
Mn252 O276 2.385 . S
Mn252 O277 2.209 . S
Mn252 O278 2.094 . S
Mn253 O258 2.121 . S
Mn253 N260 2.257 . S
Mn253 N269 2.282 . S
Mn253 O277 2.215 . S
Mn253 O279 2.117 . S
C254 O276 1.234 . S
C254 O277 1.283 . S
C255 O267 1.281 . S
C255 O268 1.236 . S
C256 O278 1.240 . S
C256 O279 1.264 . S
O257 Mn252 2.095 . S
O257 C266 1.250 . S
O258 Mn253 2.121 . S
O258 C266 1.258 . S
C259 N260 1.326 . S
C259 C263 1.460 . S
C259 H265 0.929 . S
N260 Mn253 2.257 . S
N260 C259 1.326 . S
N260 C264 1.362 . S
C261 C262 1.258 . S
C261 C264 1.431 . S
C261 C281 1.449 . S
C262 C261 1.258 . S
C262 C263 1.477 . S
C262 H282 0.931 . S
C263 C259 1.460 . S
C263 C262 1.477 . S
C263 H283 0.930 . S
C264 N260 1.362 . S
C264 C261 1.431 . S
C264 C274 1.476 . S
H265 C259 0.929 . S
C266 O257 1.250 . S
C266 O258 1.258 . S
O267 Mn252 2.162 . S
O267 C255 1.281 . S
O268 Mn252 2.297 . S
O268 C255 1.236 . S
N269 Mn253 2.282 . S
N269 C270 1.328 . S
N269 C274 1.318 . S
C270 N269 1.328 . S
C270 C271 1.457 . S
C270 H275 0.929 . S
C271 C270 1.457 . S
C271 C272 1.291 . S
C271 H284 0.931 . S
C272 C271 1.291 . S
C272 C273 1.373 . S
C272 H285 0.929 . S
C273 C272 1.373 . S
C273 C274 1.396 . S
C273 C280 1.403 . S
C274 C264 1.476 . S
C274 N269 1.318 . S
C274 C273 1.396 . S
H275 C270 0.929 . S
O276 Mn252 2.385 . S
O276 C254 1.234 . S
O277 Mn252 2.209 . S
O277 Mn253 2.215 . S
O277 C254 1.283 . S
O278 Mn252 2.094 . S
O278 C256 1.240 . S
O279 Mn253 2.117 . S
O279 C256 1.264 . S
C280 C273 1.403 . S
C280 C281 1.399 . S
C280 H286 0.929 . S
C281 C261 1.449 . S
C281 C280 1.399 . S
C281 H287 0.930 . S
H282 C262 0.931 . S
H283 C263 0.930 . S
H284 C271 0.931 . S
H285 C272 0.929 . S
H286 C280 0.929 . S
H287 C281 0.930 . S
Mn288 O293 2.095 . S
Mn288 O303 2.162 . S
Mn288 O304 2.297 . S
Mn288 O312 2.385 . S
Mn288 O313 2.209 . S
Mn288 O314 2.094 . S
Mn289 O294 2.121 . S
Mn289 N296 2.257 . S
Mn289 N305 2.282 . S
Mn289 O313 2.215 . S
Mn289 O315 2.117 . S
C290 O312 1.234 . S
C290 O313 1.283 . S
C291 O303 1.281 . S
C291 O304 1.236 . S
C292 O314 1.240 . S
C292 O315 1.264 . S
O293 Mn288 2.095 . S
O293 C302 1.250 . S
O294 Mn289 2.121 . S
O294 C302 1.258 . S
C295 N296 1.326 . S
C295 C299 1.460 . S
C295 H301 0.929 . S
N296 Mn289 2.257 . S
N296 C295 1.326 . S
N296 C300 1.362 . S
C297 C298 1.258 . S
C297 C300 1.431 . S
C297 C317 1.449 . S
C298 C297 1.258 . S
C298 C299 1.477 . S
C298 H318 0.931 . S
C299 C295 1.460 . S
C299 C298 1.477 . S
C299 H319 0.930 . S
C300 N296 1.362 . S
C300 C297 1.431 . S
C300 C310 1.476 . S
H301 C295 0.929 . S
C302 O293 1.250 . S
C302 O294 1.258 . S
O303 Mn288 2.162 . S
O303 C291 1.281 . S
O304 Mn288 2.297 . S
O304 C291 1.236 . S
N305 Mn289 2.282 . S
N305 C306 1.328 . S
N305 C310 1.318 . S
C306 N305 1.328 . S
C306 C307 1.457 . S
C306 H311 0.929 . S
C307 C306 1.457 . S
C307 C308 1.291 . S
C307 H320 0.931 . S
C308 C307 1.291 . S
C308 C309 1.373 . S
C308 H321 0.929 . S
C309 C308 1.373 . S
C309 C310 1.396 . S
C309 C316 1.403 . S
C310 C300 1.476 . S
C310 N305 1.318 . S
C310 C309 1.396 . S
H311 C306 0.929 . S
O312 Mn288 2.385 . S
O312 C290 1.234 . S
O313 Mn288 2.209 . S
O313 Mn289 2.215 . S
O313 C290 1.283 . S
O314 Mn288 2.094 . S
O314 C292 1.240 . S
O315 Mn289 2.117 . S
O315 C292 1.264 . S
C316 C309 1.403 . S
C316 C317 1.399 . S
C316 H322 0.929 . S
C317 C297 1.449 . S
C317 C316 1.399 . S
C317 H323 0.930 . S
H318 C298 0.931 . S
H319 C299 0.930 . S
H320 C307 0.931 . S
H321 C308 0.929 . S
H322 C316 0.929 . S
H323 C317 0.930 . S
Mn324 O329 2.095 . S
Mn324 O339 2.162 . S
Mn324 O340 2.297 . S
Mn324 O348 2.385 . S
Mn324 O349 2.209 . S
Mn324 O350 2.094 . S
Mn325 O330 2.121 . S
Mn325 N332 2.257 . S
Mn325 N341 2.282 . S
Mn325 O349 2.215 . S
Mn325 O351 2.117 . S
C326 O348 1.234 . S
C326 O349 1.283 . S
C327 O339 1.281 . S
C327 O340 1.236 . S
C328 O350 1.240 . S
C328 O351 1.264 . S
O329 Mn324 2.095 . S
O329 C338 1.250 . S
O330 Mn325 2.121 . S
O330 C338 1.258 . S
C331 N332 1.326 . S
C331 C335 1.460 . S
C331 H337 0.929 . S
N332 Mn325 2.257 . S
N332 C331 1.326 . S
N332 C336 1.362 . S
C333 C334 1.258 . S
C333 C336 1.431 . S
C333 C353 1.449 . S
C334 C333 1.258 . S
C334 C335 1.477 . S
C334 H354 0.931 . S
C335 C331 1.460 . S
C335 C334 1.477 . S
C335 H355 0.930 . S
C336 N332 1.362 . S
C336 C333 1.431 . S
C336 C346 1.476 . S
H337 C331 0.929 . S
C338 O329 1.250 . S
C338 O330 1.258 . S
O339 Mn324 2.162 . S
O339 C327 1.281 . S
O340 Mn324 2.297 . S
O340 C327 1.236 . S
N341 Mn325 2.282 . S
N341 C342 1.328 . S
N341 C346 1.318 . S
C342 N341 1.328 . S
C342 C343 1.457 . S
C342 H347 0.929 . S
C343 C342 1.457 . S
C343 C344 1.291 . S
C343 H356 0.931 . S
C344 C343 1.291 . S
C344 C345 1.373 . S
C344 H357 0.929 . S
C345 C344 1.373 . S
C345 C346 1.396 . S
C345 C352 1.403 . S
C346 C336 1.476 . S
C346 N341 1.318 . S
C346 C345 1.396 . S
H347 C342 0.929 . S
O348 Mn324 2.385 . S
O348 C326 1.234 . S
O349 Mn324 2.209 . S
O349 Mn325 2.215 . S
O349 C326 1.283 . S
O350 Mn324 2.094 . S
O350 C328 1.240 . S
O351 Mn325 2.117 . S
O351 C328 1.264 . S
C352 C345 1.403 . S
C352 C353 1.399 . S
C352 H358 0.929 . S
C353 C333 1.449 . S
C353 C352 1.399 . S
C353 H359 0.930 . S
H354 C334 0.931 . S
H355 C335 0.930 . S
H356 C343 0.931 . S
H357 C344 0.929 . S
H358 C352 0.929 . S
H359 C353 0.930 . S
Mn360 O365 2.095 . S
Mn360 O375 2.162 . S
Mn360 O376 2.297 . S
Mn360 O384 2.385 . S
Mn360 O385 2.209 . S
Mn360 O386 2.094 . S
Mn361 O366 2.121 . S
Mn361 N368 2.257 . S
Mn361 N377 2.282 . S
Mn361 O385 2.215 . S
Mn361 O387 2.117 . S
C362 O384 1.234 . S
C362 O385 1.283 . S
C363 O375 1.281 . S
C363 O376 1.236 . S
C364 O386 1.240 . S
C364 O387 1.264 . S
O365 Mn360 2.095 . S
O365 C374 1.250 . S
O366 Mn361 2.121 . S
O366 C374 1.258 . S
C367 N368 1.326 . S
C367 C371 1.460 . S
C367 H373 0.929 . S
N368 Mn361 2.257 . S
N368 C367 1.326 . S
N368 C372 1.362 . S
C369 C370 1.258 . S
C369 C372 1.431 . S
C369 C389 1.449 . S
C370 C369 1.258 . S
C370 C371 1.477 . S
C370 H390 0.931 . S
C371 C367 1.460 . S
C371 C370 1.477 . S
C371 H391 0.930 . S
C372 N368 1.362 . S
C372 C369 1.431 . S
C372 C382 1.476 . S
H373 C367 0.929 . S
C374 O365 1.250 . S
C374 O366 1.258 . S
O375 Mn360 2.162 . S
O375 C363 1.281 . S
O376 Mn360 2.297 . S
O376 C363 1.236 . S
N377 Mn361 2.282 . S
N377 C378 1.328 . S
N377 C382 1.318 . S
C378 N377 1.328 . S
C378 C379 1.457 . S
C378 H383 0.929 . S
C379 C378 1.457 . S
C379 C380 1.291 . S
C379 H392 0.931 . S
C380 C379 1.291 . S
C380 C381 1.373 . S
C380 H393 0.929 . S
C381 C380 1.373 . S
C381 C382 1.396 . S
C381 C388 1.403 . S
C382 C372 1.476 . S
C382 N377 1.318 . S
C382 C381 1.396 . S
H383 C378 0.929 . S
O384 Mn360 2.385 . S
O384 C362 1.234 . S
O385 Mn360 2.209 . S
O385 Mn361 2.215 . S
O385 C362 1.283 . S
O386 Mn360 2.094 . S
O386 C364 1.240 . S
O387 Mn361 2.117 . S
O387 C364 1.264 . S
C388 C381 1.403 . S
C388 C389 1.399 . S
C388 H394 0.929 . S
C389 C369 1.449 . S
C389 C388 1.399 . S
C389 H395 0.930 . S
H390 C370 0.931 . S
H391 C371 0.930 . S
H392 C379 0.931 . S
H393 C380 0.929 . S
H394 C388 0.929 . S
H395 C389 0.930 . S
Mn396 O401 2.095 . S
Mn396 O411 2.162 . S
Mn396 O412 2.297 . S
Mn396 O420 2.385 . S
Mn396 O421 2.209 . S
Mn396 O422 2.094 . S
Mn397 O402 2.121 . S
Mn397 N404 2.257 . S
Mn397 N413 2.282 . S
Mn397 O421 2.215 . S
Mn397 O423 2.117 . S
C398 O420 1.234 . S
C398 O421 1.283 . S
C399 O411 1.281 . S
C399 O412 1.236 . S
C400 O422 1.240 . S
C400 O423 1.264 . S
O401 Mn396 2.095 . S
O401 C410 1.250 . S
O402 Mn397 2.121 . S
O402 C410 1.258 . S
C403 N404 1.326 . S
C403 C407 1.460 . S
C403 H409 0.929 . S
N404 Mn397 2.257 . S
N404 C403 1.326 . S
N404 C408 1.362 . S
C405 C406 1.258 . S
C405 C408 1.431 . S
C405 C425 1.449 . S
C406 C405 1.258 . S
C406 C407 1.477 . S
C406 H426 0.931 . S
C407 C403 1.460 . S
C407 C406 1.477 . S
C407 H427 0.930 . S
C408 N404 1.362 . S
C408 C405 1.431 . S
C408 C418 1.476 . S
H409 C403 0.929 . S
C410 O401 1.250 . S
C410 O402 1.258 . S
O411 Mn396 2.162 . S
O411 C399 1.281 . S
O412 Mn396 2.297 . S
O412 C399 1.236 . S
N413 Mn397 2.282 . S
N413 C414 1.328 . S
N413 C418 1.318 . S
C414 N413 1.328 . S
C414 C415 1.457 . S
C414 H419 0.929 . S
C415 C414 1.457 . S
C415 C416 1.291 . S
C415 H428 0.931 . S
C416 C415 1.291 . S
C416 C417 1.373 . S
C416 H429 0.929 . S
C417 C416 1.373 . S
C417 C418 1.396 . S
C417 C424 1.403 . S
C418 C408 1.476 . S
C418 N413 1.318 . S
C418 C417 1.396 . S
H419 C414 0.929 . S
O420 Mn396 2.385 . S
O420 C398 1.234 . S
O421 Mn396 2.209 . S
O421 Mn397 2.215 . S
O421 C398 1.283 . S
O422 Mn396 2.094 . S
O422 C400 1.240 . S
O423 Mn397 2.117 . S
O423 C400 1.264 . S
C424 C417 1.403 . S
C424 C425 1.399 . S
C424 H430 0.929 . S
C425 C405 1.449 . S
C425 C424 1.399 . S
C425 H431 0.930 . S
H426 C406 0.931 . S
H427 C407 0.930 . S
H428 C415 0.931 . S
H429 C416 0.929 . S
H430 C424 0.929 . S
H431 C425 0.930 . S
Mn432 O437 2.095 . S
Mn432 O447 2.162 . S
Mn432 O448 2.297 . S
Mn432 O456 2.385 . S
Mn432 O457 2.209 . S
Mn432 O458 2.094 . S
Mn433 O438 2.121 . S
Mn433 N440 2.257 . S
Mn433 N449 2.282 . S
Mn433 O457 2.215 . S
Mn433 O459 2.117 . S
C434 O456 1.234 . S
C434 O457 1.283 . S
C435 O447 1.281 . S
C435 O448 1.236 . S
C436 O458 1.240 . S
C436 O459 1.264 . S
O437 Mn432 2.095 . S
O437 C446 1.250 . S
O438 Mn433 2.121 . S
O438 C446 1.258 . S
C439 N440 1.326 . S
C439 C443 1.460 . S
C439 H445 0.929 . S
N440 Mn433 2.257 . S
N440 C439 1.326 . S
N440 C444 1.362 . S
C441 C442 1.258 . S
C441 C444 1.431 . S
C441 C461 1.449 . S
C442 C441 1.258 . S
C442 C443 1.477 . S
C442 H462 0.931 . S
C443 C439 1.460 . S
C443 C442 1.477 . S
C443 H463 0.930 . S
C444 N440 1.362 . S
C444 C441 1.431 . S
C444 C454 1.476 . S
H445 C439 0.929 . S
C446 O437 1.250 . S
C446 O438 1.258 . S
O447 Mn432 2.162 . S
O447 C435 1.281 . S
O448 Mn432 2.297 . S
O448 C435 1.236 . S
N449 Mn433 2.282 . S
N449 C450 1.328 . S
N449 C454 1.318 . S
C450 N449 1.328 . S
C450 C451 1.457 . S
C450 H455 0.929 . S
C451 C450 1.457 . S
C451 C452 1.291 . S
C451 H464 0.931 . S
C452 C451 1.291 . S
C452 C453 1.373 . S
C452 H465 0.929 . S
C453 C452 1.373 . S
C453 C454 1.396 . S
C453 C460 1.403 . S
C454 C444 1.476 . S
C454 N449 1.318 . S
C454 C453 1.396 . S
H455 C450 0.929 . S
O456 Mn432 2.385 . S
O456 C434 1.234 . S
O457 Mn432 2.209 . S
O457 Mn433 2.215 . S
O457 C434 1.283 . S
O458 Mn432 2.094 . S
O458 C436 1.240 . S
O459 Mn433 2.117 . S
O459 C436 1.264 . S
C460 C453 1.403 . S
C460 C461 1.399 . S
C460 H466 0.929 . S
C461 C441 1.449 . S
C461 C460 1.399 . S
C461 H467 0.930 . S
H462 C442 0.931 . S
H463 C443 0.930 . S
H464 C451 0.931 . S
H465 C452 0.929 . S
H466 C460 0.929 . S
H467 C461 0.930 . S
Mn468 O473 2.095 . S
Mn468 O483 2.162 . S
Mn468 O484 2.297 . S
Mn468 O492 2.385 . S
Mn468 O493 2.209 . S
Mn468 O494 2.094 . S
Mn469 O474 2.121 . S
Mn469 N476 2.257 . S
Mn469 N485 2.282 . S
Mn469 O493 2.215 . S
Mn469 O495 2.117 . S
C470 O492 1.234 . S
C470 O493 1.283 . S
C471 O483 1.281 . S
C471 O484 1.236 . S
C472 O494 1.240 . S
C472 O495 1.264 . S
O473 Mn468 2.095 . S
O473 C482 1.250 . S
O474 Mn469 2.121 . S
O474 C482 1.258 . S
C475 N476 1.326 . S
C475 C479 1.460 . S
C475 H481 0.929 . S
N476 Mn469 2.257 . S
N476 C475 1.326 . S
N476 C480 1.362 . S
C477 C478 1.258 . S
C477 C480 1.431 . S
C477 C497 1.449 . S
C478 C477 1.258 . S
C478 C479 1.477 . S
C478 H498 0.931 . S
C479 C475 1.460 . S
C479 C478 1.477 . S
C479 H499 0.930 . S
C480 N476 1.362 . S
C480 C477 1.431 . S
C480 C490 1.476 . S
H481 C475 0.929 . S
C482 O473 1.250 . S
C482 O474 1.258 . S
O483 Mn468 2.162 . S
O483 C471 1.281 . S
O484 Mn468 2.297 . S
O484 C471 1.236 . S
N485 Mn469 2.282 . S
N485 C486 1.328 . S
N485 C490 1.318 . S
C486 N485 1.328 . S
C486 C487 1.457 . S
C486 H491 0.929 . S
C487 C486 1.457 . S
C487 C488 1.291 . S
C487 H500 0.931 . S
C488 C487 1.291 . S
C488 C489 1.373 . S
C488 H501 0.929 . S
C489 C488 1.373 . S
C489 C490 1.396 . S
C489 C496 1.403 . S
C490 C480 1.476 . S
C490 N485 1.318 . S
C490 C489 1.396 . S
H491 C486 0.929 . S
O492 Mn468 2.385 . S
O492 C470 1.234 . S
O493 Mn468 2.209 . S
O493 Mn469 2.215 . S
O493 C470 1.283 . S
O494 Mn468 2.094 . S
O494 C472 1.240 . S
O495 Mn469 2.117 . S
O495 C472 1.264 . S
C496 C489 1.403 . S
C496 C497 1.399 . S
C496 H502 0.929 . S
C497 C477 1.449 . S
C497 C496 1.399 . S
C497 H503 0.930 . S
H498 C478 0.931 . S
H499 C479 0.930 . S
H500 C487 0.931 . S
H501 C488 0.929 . S
H502 C496 0.929 . S
H503 C497 0.930 . S
Mn504 O509 2.095 . S
Mn504 O519 2.162 . S
Mn504 O520 2.297 . S
Mn504 O528 2.385 . S
Mn504 O529 2.209 . S
Mn504 O530 2.094 . S
Mn505 O510 2.121 . S
Mn505 N512 2.257 . S
Mn505 N521 2.282 . S
Mn505 O529 2.215 . S
Mn505 O531 2.117 . S
C506 O528 1.234 . S
C506 O529 1.283 . S
C507 O519 1.281 . S
C507 O520 1.236 . S
C508 O530 1.240 . S
C508 O531 1.264 . S
O509 Mn504 2.095 . S
O509 C518 1.250 . S
O510 Mn505 2.121 . S
O510 C518 1.258 . S
C511 N512 1.326 . S
C511 C515 1.460 . S
C511 H517 0.929 . S
N512 Mn505 2.257 . S
N512 C511 1.326 . S
N512 C516 1.362 . S
C513 C514 1.258 . S
C513 C516 1.431 . S
C513 C533 1.449 . S
C514 C513 1.258 . S
C514 C515 1.477 . S
C514 H534 0.931 . S
C515 C511 1.460 . S
C515 C514 1.477 . S
C515 H535 0.930 . S
C516 N512 1.362 . S
C516 C513 1.431 . S
C516 C526 1.476 . S
H517 C511 0.929 . S
C518 O509 1.250 . S
C518 O510 1.258 . S
O519 Mn504 2.162 . S
O519 C507 1.281 . S
O520 Mn504 2.297 . S
O520 C507 1.236 . S
N521 Mn505 2.282 . S
N521 C522 1.328 . S
N521 C526 1.318 . S
C522 N521 1.328 . S
C522 C523 1.457 . S
C522 H527 0.929 . S
C523 C522 1.457 . S
C523 C524 1.291 . S
C523 H536 0.931 . S
C524 C523 1.291 . S
C524 C525 1.373 . S
C524 H537 0.929 . S
C525 C524 1.373 . S
C525 C526 1.396 . S
C525 C532 1.403 . S
C526 C516 1.476 . S
C526 N521 1.318 . S
C526 C525 1.396 . S
H527 C522 0.929 . S
O528 Mn504 2.385 . S
O528 C506 1.234 . S
O529 Mn504 2.209 . S
O529 Mn505 2.215 . S
O529 C506 1.283 . S
O530 Mn504 2.094 . S
O530 C508 1.240 . S
O531 Mn505 2.117 . S
O531 C508 1.264 . S
C532 C525 1.403 . S
C532 C533 1.399 . S
C532 H538 0.929 . S
C533 C513 1.449 . S
C533 C532 1.399 . S
C533 H539 0.930 . S
H534 C514 0.931 . S
H535 C515 0.930 . S
H536 C523 0.931 . S
H537 C524 0.929 . S
H538 C532 0.929 . S
H539 C533 0.930 . S
Mn540 O545 2.095 . S
Mn540 O555 2.162 . S
Mn540 O556 2.297 . S
Mn540 O564 2.385 . S
Mn540 O565 2.209 . S
Mn540 O566 2.094 . S
Mn541 O546 2.121 . S
Mn541 N548 2.257 . S
Mn541 N557 2.282 . S
Mn541 O565 2.215 . S
Mn541 O567 2.117 . S
C542 O564 1.234 . S
C542 O565 1.283 . S
C543 O555 1.281 . S
C543 O556 1.236 . S
C544 O566 1.240 . S
C544 O567 1.264 . S
O545 Mn540 2.095 . S
O545 C554 1.250 . S
O546 Mn541 2.121 . S
O546 C554 1.258 . S
C547 N548 1.326 . S
C547 C551 1.460 . S
C547 H553 0.929 . S
N548 Mn541 2.257 . S
N548 C547 1.326 . S
N548 C552 1.362 . S
C549 C550 1.258 . S
C549 C552 1.431 . S
C549 C569 1.449 . S
C550 C549 1.258 . S
C550 C551 1.477 . S
C550 H570 0.931 . S
C551 C547 1.460 . S
C551 C550 1.477 . S
C551 H571 0.930 . S
C552 N548 1.362 . S
C552 C549 1.431 . S
C552 C562 1.476 . S
H553 C547 0.929 . S
C554 O545 1.250 . S
C554 O546 1.258 . S
O555 Mn540 2.162 . S
O555 C543 1.281 . S
O556 Mn540 2.297 . S
O556 C543 1.236 . S
N557 Mn541 2.282 . S
N557 C558 1.328 . S
N557 C562 1.318 . S
C558 N557 1.328 . S
C558 C559 1.457 . S
C558 H563 0.929 . S
C559 C558 1.457 . S
C559 C560 1.291 . S
C559 H572 0.931 . S
C560 C559 1.291 . S
C560 C561 1.373 . S
C560 H573 0.929 . S
C561 C560 1.373 . S
C561 C562 1.396 . S
C561 C568 1.403 . S
C562 C552 1.476 . S
C562 N557 1.318 . S
C562 C561 1.396 . S
H563 C558 0.929 . S
O564 Mn540 2.385 . S
O564 C542 1.234 . S
O565 Mn540 2.209 . S
O565 Mn541 2.215 . S
O565 C542 1.283 . S
O566 Mn540 2.094 . S
O566 C544 1.240 . S
O567 Mn541 2.117 . S
O567 C544 1.264 . S
C568 C561 1.403 . S
C568 C569 1.399 . S
C568 H574 0.929 . S
C569 C549 1.449 . S
C569 C568 1.399 . S
C569 H575 0.930 . S
H570 C550 0.931 . S
H571 C551 0.930 . S
H572 C559 0.931 . S
H573 C560 0.929 . S
H574 C568 0.929 . S
H575 C569 0.930 . S
H576 C584 0.929 . S
H577 C586 0.930 . S
H578 C588 0.930 . S
H579 C591 0.929 . S
H580 C594 0.930 . S
H581 C596 0.960 . S
H582 C596 0.960 . S
H583 C596 0.960 . S
C584 H576 0.929 . S
C584 C585 1.377 . S
C584 C586 1.384 . S
C585 C584 1.377 . S
C585 C591 1.390 . S
C586 H577 0.930 . S
C586 C584 1.384 . S
C586 C587 1.372 . S
C587 C586 1.372 . S
C587 C588 1.400 . S
C587 C592 1.490 . S
C588 H578 0.930 . S
C588 C587 1.400 . S
C588 C591 1.386 . S
H589 C605 0.930 . S
H590 C606 0.931 . S
C591 H579 0.929 . S
C591 C585 1.390 . S
C591 C588 1.386 . S
C592 C587 1.490 . S
C592 C594 1.395 . S
C592 C595 1.403 . S
H593 C599 0.930 . S
C594 H580 0.930 . S
C594 C592 1.395 . S
C594 C597 1.403 . S
C595 C592 1.403 . S
C595 C596 1.524 . S
C595 C599 1.400 . S
C596 H581 0.960 . S
C596 H582 0.960 . S
C596 H583 0.960 . S
C596 C595 1.524 . S
C597 C594 1.403 . S
C597 C598 1.392 . S
C597 C601 1.495 . S
C598 C597 1.392 . S
C598 C599 1.385 . S
C598 C600 1.478 . S
C599 H593 0.930 . S
C599 C595 1.400 . S
C599 C598 1.385 . S
C600 C598 1.478 . S
C600 C602 1.381 . S
C600 C606 1.383 . S
C601 C597 1.495 . S
C601 H607 0.959 . S
C601 H608 0.961 . S
C601 H609 0.960 . S
C602 C600 1.381 . S
C602 C603 1.394 . S
C602 H610 0.930 . S
C603 C602 1.394 . S
C603 C604 1.383 . S
C603 H611 0.929 . S
C604 C603 1.383 . S
C604 C605 1.377 . S
C605 H589 0.930 . S
C605 C604 1.377 . S
C605 C606 1.379 . S
C606 H590 0.931 . S
C606 C600 1.383 . S
C606 C605 1.379 . S
H607 C601 0.959 . S
H608 C601 0.961 . S
H609 C601 0.960 . S
H610 C602 0.930 . S
H611 C603 0.929 . S
H612 C620 0.929 . S
H613 C622 0.930 . S
H614 C624 0.930 . S
H615 C627 0.929 . S
H616 C630 0.930 . S
H617 C632 0.960 . S
H618 C632 0.960 . S
H619 C632 0.960 . S
C620 H612 0.929 . S
C620 C621 1.377 . S
C620 C622 1.384 . S
C621 C620 1.377 . S
C621 C627 1.390 . S
C622 H613 0.930 . S
C622 C620 1.384 . S
C622 C623 1.372 . S
C623 C622 1.372 . S
C623 C624 1.400 . S
C623 C628 1.490 . S
C624 H614 0.930 . S
C624 C623 1.400 . S
C624 C627 1.386 . S
H625 C641 0.930 . S
H626 C642 0.931 . S
C627 H615 0.929 . S
C627 C621 1.390 . S
C627 C624 1.386 . S
C628 C623 1.490 . S
C628 C630 1.395 . S
C628 C631 1.403 . S
H629 C635 0.930 . S
C630 H616 0.930 . S
C630 C628 1.395 . S
C630 C633 1.403 . S
C631 C628 1.403 . S
C631 C632 1.524 . S
C631 C635 1.400 . S
C632 H617 0.960 . S
C632 H618 0.960 . S
C632 H619 0.960 . S
C632 C631 1.524 . S
C633 C630 1.403 . S
C633 C634 1.392 . S
C633 C637 1.495 . S
C634 C633 1.392 . S
C634 C635 1.385 . S
C634 C636 1.478 . S
C635 H629 0.930 . S
C635 C631 1.400 . S
C635 C634 1.385 . S
C636 C634 1.478 . S
C636 C638 1.381 . S
C636 C642 1.383 . S
C637 C633 1.495 . S
C637 H643 0.959 . S
C637 H644 0.961 . S
C637 H645 0.960 . S
C638 C636 1.381 . S
C638 C639 1.394 . S
C638 H646 0.930 . S
C639 C638 1.394 . S
C639 C640 1.383 . S
C639 H647 0.929 . S
C640 C639 1.383 . S
C640 C641 1.377 . S
C641 H625 0.930 . S
C641 C640 1.377 . S
C641 C642 1.379 . S
C642 H626 0.931 . S
C642 C636 1.383 . S
C642 C641 1.379 . S
H643 C637 0.959 . S
H644 C637 0.961 . S
H645 C637 0.960 . S
H646 C638 0.930 . S
H647 C639 0.929 . S
H648 C656 0.929 . S
H649 C658 0.930 . S
H650 C660 0.930 . S
H651 C663 0.929 . S
H652 C666 0.930 . S
H653 C668 0.960 . S
H654 C668 0.960 . S
H655 C668 0.960 . S
C656 H648 0.929 . S
C656 C657 1.377 . S
C656 C658 1.384 . S
C657 C656 1.377 . S
C657 C663 1.390 . S
C658 H649 0.930 . S
C658 C656 1.384 . S
C658 C659 1.372 . S
C659 C658 1.372 . S
C659 C660 1.400 . S
C659 C664 1.490 . S
C660 H650 0.930 . S
C660 C659 1.400 . S
C660 C663 1.386 . S
H661 C677 0.930 . S
H662 C678 0.931 . S
C663 H651 0.929 . S
C663 C657 1.390 . S
C663 C660 1.386 . S
C664 C659 1.490 . S
C664 C666 1.395 . S
C664 C667 1.403 . S
H665 C671 0.930 . S
C666 H652 0.930 . S
C666 C664 1.395 . S
C666 C669 1.403 . S
C667 C664 1.403 . S
C667 C668 1.524 . S
C667 C671 1.400 . S
C668 H653 0.960 . S
C668 H654 0.960 . S
C668 H655 0.960 . S
C668 C667 1.524 . S
C669 C666 1.403 . S
C669 C670 1.392 . S
C669 C673 1.495 . S
C670 C669 1.392 . S
C670 C671 1.385 . S
C670 C672 1.478 . S
C671 H665 0.930 . S
C671 C667 1.400 . S
C671 C670 1.385 . S
C672 C670 1.478 . S
C672 C674 1.381 . S
C672 C678 1.383 . S
C673 C669 1.495 . S
C673 H679 0.959 . S
C673 H680 0.961 . S
C673 H681 0.960 . S
C674 C672 1.381 . S
C674 C675 1.394 . S
C674 H682 0.930 . S
C675 C674 1.394 . S
C675 C676 1.383 . S
C675 H683 0.929 . S
C676 C675 1.383 . S
C676 C677 1.377 . S
C677 H661 0.930 . S
C677 C676 1.377 . S
C677 C678 1.379 . S
C678 H662 0.931 . S
C678 C672 1.383 . S
C678 C677 1.379 . S
H679 C673 0.959 . S
H680 C673 0.961 . S
H681 C673 0.960 . S
H682 C674 0.930 . S
H683 C675 0.929 . S
H684 C692 0.929 . S
H685 C694 0.930 . S
H686 C696 0.930 . S
H687 C699 0.929 . S
H688 C702 0.930 . S
H689 C704 0.960 . S
H690 C704 0.960 . S
H691 C704 0.960 . S
C692 H684 0.929 . S
C692 C693 1.377 . S
C692 C694 1.384 . S
C693 C692 1.377 . S
C693 C699 1.390 . S
C694 H685 0.930 . S
C694 C692 1.384 . S
C694 C695 1.372 . S
C695 C694 1.372 . S
C695 C696 1.400 . S
C695 C700 1.490 . S
C696 H686 0.930 . S
C696 C695 1.400 . S
C696 C699 1.386 . S
H697 C713 0.930 . S
H698 C714 0.931 . S
C699 H687 0.929 . S
C699 C693 1.390 . S
C699 C696 1.386 . S
C700 C695 1.490 . S
C700 C702 1.395 . S
C700 C703 1.403 . S
H701 C707 0.930 . S
C702 H688 0.930 . S
C702 C700 1.395 . S
C702 C705 1.403 . S
C703 C700 1.403 . S
C703 C704 1.524 . S
C703 C707 1.400 . S
C704 H689 0.960 . S
C704 H690 0.960 . S
C704 H691 0.960 . S
C704 C703 1.524 . S
C705 C702 1.403 . S
C705 C706 1.392 . S
C705 C709 1.495 . S
C706 C705 1.392 . S
C706 C707 1.385 . S
C706 C708 1.478 . S
C707 H701 0.930 . S
C707 C703 1.400 . S
C707 C706 1.385 . S
C708 C706 1.478 . S
C708 C710 1.381 . S
C708 C714 1.383 . S
C709 C705 1.495 . S
C709 H715 0.959 . S
C709 H716 0.961 . S
C709 H717 0.960 . S
C710 C708 1.381 . S
C710 C711 1.394 . S
C710 H718 0.930 . S
C711 C710 1.394 . S
C711 C712 1.383 . S
C711 H719 0.929 . S
C712 C711 1.383 . S
C712 C713 1.377 . S
C713 H697 0.930 . S
C713 C712 1.377 . S
C713 C714 1.379 . S
C714 H698 0.931 . S
C714 C708 1.383 . S
C714 C713 1.379 . S
H715 C709 0.959 . S
H716 C709 0.961 . S
H717 C709 0.960 . S
H718 C710 0.930 . S
H719 C711 0.929 . S
H720 C728 0.929 . S
H721 C730 0.930 . S
H722 C732 0.930 . S
H723 C735 0.929 . S
H724 C738 0.930 . S
H725 C740 0.960 . S
H726 C740 0.960 . S
H727 C740 0.960 . S
C728 H720 0.929 . S
C728 C729 1.377 . S
C728 C730 1.384 . S
C729 C728 1.377 . S
C729 C735 1.390 . S
C730 H721 0.930 . S
C730 C728 1.384 . S
C730 C731 1.372 . S
C731 C730 1.372 . S
C731 C732 1.400 . S
C731 C736 1.490 . S
C732 H722 0.930 . S
C732 C731 1.400 . S
C732 C735 1.386 . S
H733 C749 0.930 . S
H734 C750 0.931 . S
C735 H723 0.929 . S
C735 C729 1.390 . S
C735 C732 1.386 . S
C736 C731 1.490 . S
C736 C738 1.395 . S
C736 C739 1.403 . S
H737 C743 0.930 . S
C738 H724 0.930 . S
C738 C736 1.395 . S
C738 C741 1.403 . S
C739 C736 1.403 . S
C739 C740 1.524 . S
C739 C743 1.400 . S
C740 H725 0.960 . S
C740 H726 0.960 . S
C740 H727 0.960 . S
C740 C739 1.524 . S
C741 C738 1.403 . S
C741 C742 1.392 . S
C741 C745 1.495 . S
C742 C741 1.392 . S
C742 C743 1.385 . S
C742 C744 1.478 . S
C743 H737 0.930 . S
C743 C739 1.400 . S
C743 C742 1.385 . S
C744 C742 1.478 . S
C744 C746 1.381 . S
C744 C750 1.383 . S
C745 C741 1.495 . S
C745 H751 0.959 . S
C745 H752 0.961 . S
C745 H753 0.960 . S
C746 C744 1.381 . S
C746 C747 1.394 . S
C746 H754 0.930 . S
C747 C746 1.394 . S
C747 C748 1.383 . S
C747 H755 0.929 . S
C748 C747 1.383 . S
C748 C749 1.377 . S
C749 H733 0.930 . S
C749 C748 1.377 . S
C749 C750 1.379 . S
C750 H734 0.931 . S
C750 C744 1.383 . S
C750 C749 1.379 . S
H751 C745 0.959 . S
H752 C745 0.961 . S
H753 C745 0.960 . S
H754 C746 0.930 . S
H755 C747 0.929 . S
H756 C764 0.929 . S
H757 C766 0.930 . S
H758 C768 0.930 . S
H759 C771 0.929 . S
H760 C774 0.930 . S
H761 C776 0.960 . S
H762 C776 0.960 . S
H763 C776 0.960 . S
C764 H756 0.929 . S
C764 C765 1.377 . S
C764 C766 1.384 . S
C765 C764 1.377 . S
C765 C771 1.390 . S
C766 H757 0.930 . S
C766 C764 1.384 . S
C766 C767 1.372 . S
C767 C766 1.372 . S
C767 C768 1.400 . S
C767 C772 1.490 . S
C768 H758 0.930 . S
C768 C767 1.400 . S
C768 C771 1.386 . S
H769 C785 0.930 . S
H770 C786 0.931 . S
C771 H759 0.929 . S
C771 C765 1.390 . S
C771 C768 1.386 . S
C772 C767 1.490 . S
C772 C774 1.395 . S
C772 C775 1.403 . S
H773 C779 0.930 . S
C774 H760 0.930 . S
C774 C772 1.395 . S
C774 C777 1.403 . S
C775 C772 1.403 . S
C775 C776 1.524 . S
C775 C779 1.400 . S
C776 H761 0.960 . S
C776 H762 0.960 . S
C776 H763 0.960 . S
C776 C775 1.524 . S
C777 C774 1.403 . S
C777 C778 1.392 . S
C777 C781 1.495 . S
C778 C777 1.392 . S
C778 C779 1.385 . S
C778 C780 1.478 . S
C779 H773 0.930 . S
C779 C775 1.400 . S
C779 C778 1.385 . S
C780 C778 1.478 . S
C780 C782 1.381 . S
C780 C786 1.383 . S
C781 C777 1.495 . S
C781 H787 0.959 . S
C781 H788 0.961 . S
C781 H789 0.960 . S
C782 C780 1.381 . S
C782 C783 1.394 . S
C782 H790 0.930 . S
C783 C782 1.394 . S
C783 C784 1.383 . S
C783 H791 0.929 . S
C784 C783 1.383 . S
C784 C785 1.377 . S
C785 H769 0.930 . S
C785 C784 1.377 . S
C785 C786 1.379 . S
C786 H770 0.931 . S
C786 C780 1.383 . S
C786 C785 1.379 . S
H787 C781 0.959 . S
H788 C781 0.961 . S
H789 C781 0.960 . S
H790 C782 0.930 . S
H791 C783 0.929 . S
H792 C800 0.929 . S
H793 C802 0.930 . S
H794 C804 0.930 . S
H795 C807 0.929 . S
H796 C810 0.930 . S
H797 C812 0.960 . S
H798 C812 0.960 . S
H799 C812 0.960 . S
C800 H792 0.929 . S
C800 C801 1.377 . S
C800 C802 1.384 . S
C801 C800 1.377 . S
C801 C807 1.390 . S
C802 H793 0.930 . S
C802 C800 1.384 . S
C802 C803 1.372 . S
C803 C802 1.372 . S
C803 C804 1.400 . S
C803 C808 1.490 . S
C804 H794 0.930 . S
C804 C803 1.400 . S
C804 C807 1.386 . S
H805 C821 0.930 . S
H806 C822 0.931 . S
C807 H795 0.929 . S
C807 C801 1.390 . S
C807 C804 1.386 . S
C808 C803 1.490 . S
C808 C810 1.395 . S
C808 C811 1.403 . S
H809 C815 0.930 . S
C810 H796 0.930 . S
C810 C808 1.395 . S
C810 C813 1.403 . S
C811 C808 1.403 . S
C811 C812 1.524 . S
C811 C815 1.400 . S
C812 H797 0.960 . S
C812 H798 0.960 . S
C812 H799 0.960 . S
C812 C811 1.524 . S
C813 C810 1.403 . S
C813 C814 1.392 . S
C813 C817 1.495 . S
C814 C813 1.392 . S
C814 C815 1.385 . S
C814 C816 1.478 . S
C815 H809 0.930 . S
C815 C811 1.400 . S
C815 C814 1.385 . S
C816 C814 1.478 . S
C816 C818 1.381 . S
C816 C822 1.383 . S
C817 C813 1.495 . S
C817 H823 0.959 . S
C817 H824 0.961 . S
C817 H825 0.960 . S
C818 C816 1.381 . S
C818 C819 1.394 . S
C818 H826 0.930 . S
C819 C818 1.394 . S
C819 C820 1.383 . S
C819 H827 0.929 . S
C820 C819 1.383 . S
C820 C821 1.377 . S
C821 H805 0.930 . S
C821 C820 1.377 . S
C821 C822 1.379 . S
C822 H806 0.931 . S
C822 C816 1.383 . S
C822 C821 1.379 . S
H823 C817 0.959 . S
H824 C817 0.961 . S
H825 C817 0.960 . S
H826 C818 0.930 . S
H827 C819 0.929 . S
H828 C836 0.929 . S
H829 C838 0.930 . S
H830 C840 0.930 . S
H831 C843 0.929 . S
H832 C846 0.930 . S
H833 C848 0.960 . S
H834 C848 0.960 . S
H835 C848 0.960 . S
C836 H828 0.929 . S
C836 C837 1.377 . S
C836 C838 1.384 . S
C837 C836 1.377 . S
C837 C843 1.390 . S
C838 H829 0.930 . S
C838 C836 1.384 . S
C838 C839 1.372 . S
C839 C838 1.372 . S
C839 C840 1.400 . S
C839 C844 1.490 . S
C840 H830 0.930 . S
C840 C839 1.400 . S
C840 C843 1.386 . S
H841 C857 0.930 . S
H842 C858 0.931 . S
C843 H831 0.929 . S
C843 C837 1.390 . S
C843 C840 1.386 . S
C844 C839 1.490 . S
C844 C846 1.395 . S
C844 C847 1.403 . S
H845 C851 0.930 . S
C846 H832 0.930 . S
C846 C844 1.395 . S
C846 C849 1.403 . S
C847 C844 1.403 . S
C847 C848 1.524 . S
C847 C851 1.400 . S
C848 H833 0.960 . S
C848 H834 0.960 . S
C848 H835 0.960 . S
C848 C847 1.524 . S
C849 C846 1.403 . S
C849 C850 1.392 . S
C849 C853 1.495 . S
C850 C849 1.392 . S
C850 C851 1.385 . S
C850 C852 1.478 . S
C851 H845 0.930 . S
C851 C847 1.400 . S
C851 C850 1.385 . S
C852 C850 1.478 . S
C852 C854 1.381 . S
C852 C858 1.383 . S
C853 C849 1.495 . S
C853 H859 0.959 . S
C853 H860 0.961 . S
C853 H861 0.960 . S
C854 C852 1.381 . S
C854 C855 1.394 . S
C854 H862 0.930 . S
C855 C854 1.394 . S
C855 C856 1.383 . S
C855 H863 0.929 . S
C856 C855 1.383 . S
C856 C857 1.377 . S
C857 H841 0.930 . S
C857 C856 1.377 . S
C857 C858 1.379 . S
C858 H842 0.931 . S
C858 C852 1.383 . S
C858 C857 1.379 . S
H859 C853 0.959 . S
H860 C853 0.961 . S
H861 C853 0.960 . S
H862 C854 0.930 . S
H863 C855 0.929 . S
H864 C872 0.929 . S
H865 C874 0.930 . S
H866 C876 0.930 . S
H867 C879 0.929 . S
H868 C882 0.930 . S
H869 C884 0.960 . S
H870 C884 0.960 . S
H871 C884 0.960 . S
C872 H864 0.929 . S
C872 C873 1.377 . S
C872 C874 1.384 . S
C873 C872 1.377 . S
C873 C879 1.390 . S
C874 H865 0.930 . S
C874 C872 1.384 . S
C874 C875 1.372 . S
C875 C874 1.372 . S
C875 C876 1.400 . S
C875 C880 1.490 . S
C876 H866 0.930 . S
C876 C875 1.400 . S
C876 C879 1.386 . S
H877 C893 0.930 . S
H878 C894 0.931 . S
C879 H867 0.929 . S
C879 C873 1.390 . S
C879 C876 1.386 . S
C880 C875 1.490 . S
C880 C882 1.395 . S
C880 C883 1.403 . S
H881 C887 0.930 . S
C882 H868 0.930 . S
C882 C880 1.395 . S
C882 C885 1.403 1_556 S
C883 C880 1.403 . S
C883 C884 1.524 . S
C883 C887 1.400 1_556 S
C884 H869 0.960 . S
C884 H870 0.960 . S
C884 H871 0.960 . S
C884 C883 1.524 . S
C885 C882 1.403 1_554 S
C885 C886 1.392 . S
C885 C889 1.495 . S
C886 C885 1.392 . S
C886 C887 1.385 . S
C886 C888 1.478 . S
C887 H881 0.930 . S
C887 C883 1.400 1_554 S
C887 C886 1.385 . S
C888 C886 1.478 . S
C888 C890 1.381 . S
C888 C894 1.383 . S
C889 C885 1.495 . S
C889 H895 0.959 . S
C889 H896 0.961 . S
C889 H897 0.960 . S
C890 C888 1.381 . S
C890 C891 1.394 . S
C890 H898 0.930 . S
C891 C890 1.394 . S
C891 C892 1.383 . S
C891 H899 0.929 . S
C892 C891 1.383 . S
C892 C893 1.377 . S
C893 H877 0.930 . S
C893 C892 1.377 . S
C893 C894 1.379 . S
C894 H878 0.931 . S
C894 C888 1.383 . S
C894 C893 1.379 . S
H895 C889 0.959 . S
H896 C889 0.961 . S
H897 C889 0.960 . S
H898 C890 0.930 . S
H899 C891 0.929 . S
H900 C908 0.929 . S
H901 C910 0.930 . S
H902 C912 0.930 . S
H903 C915 0.929 . S
H904 C918 0.930 . S
H905 C920 0.960 . S
H906 C920 0.960 . S
H907 C920 0.960 . S
C908 H900 0.929 . S
C908 C909 1.377 . S
C908 C910 1.384 . S
C909 C908 1.377 . S
C909 C915 1.390 . S
C910 H901 0.930 . S
C910 C908 1.384 . S
C910 C911 1.372 . S
C911 C910 1.372 . S
C911 C912 1.400 . S
C911 C916 1.490 . S
C912 H902 0.930 . S
C912 C911 1.400 . S
C912 C915 1.386 . S
H913 C929 0.930 . S
H914 C930 0.931 . S
C915 H903 0.929 . S
C915 C909 1.390 . S
C915 C912 1.386 . S
C916 C911 1.490 . S
C916 C918 1.395 . S
C916 C919 1.403 . S
H917 C923 0.930 . S
C918 H904 0.930 . S
C918 C916 1.395 . S
C918 C921 1.403 1_556 S
C919 C916 1.403 . S
C919 C920 1.524 . S
C919 C923 1.400 1_556 S
C920 H905 0.960 . S
C920 H906 0.960 . S
C920 H907 0.960 . S
C920 C919 1.524 . S
C921 C918 1.403 1_554 S
C921 C922 1.392 . S
C921 C925 1.495 . S
C922 C921 1.392 . S
C922 C923 1.385 . S
C922 C924 1.478 . S
C923 H917 0.930 . S
C923 C919 1.400 1_554 S
C923 C922 1.385 . S
C924 C922 1.478 . S
C924 C926 1.381 . S
C924 C930 1.383 . S
C925 C921 1.495 . S
C925 H931 0.959 . S
C925 H932 0.961 . S
C925 H933 0.960 . S
C926 C924 1.381 . S
C926 C927 1.394 . S
C926 H934 0.930 . S
C927 C926 1.394 . S
C927 C928 1.383 . S
C927 H935 0.929 . S
C928 C927 1.383 . S
C928 C929 1.377 . S
C929 H913 0.930 . S
C929 C928 1.377 . S
C929 C930 1.379 . S
C930 H914 0.931 . S
C930 C924 1.383 . S
C930 C929 1.379 . S
H931 C925 0.959 . S
H932 C925 0.961 . S
H933 C925 0.960 . S
H934 C926 0.930 . S
H935 C927 0.929 . S
H936 C944 0.929 . S
H937 C946 0.930 . S
H938 C948 0.930 . S
H939 C951 0.929 . S
H940 C954 0.930 . S
H941 C956 0.960 . S
H942 C956 0.960 . S
H943 C956 0.960 . S
C944 H936 0.929 . S
C944 C945 1.377 . S
C944 C946 1.384 . S
C945 C944 1.377 . S
C945 C951 1.390 . S
C946 H937 0.930 . S
C946 C944 1.384 . S
C946 C947 1.372 . S
C947 C946 1.372 . S
C947 C948 1.400 . S
C947 C952 1.490 . S
C948 H938 0.930 . S
C948 C947 1.400 . S
C948 C951 1.386 . S
H949 C965 0.930 . S
H950 C966 0.931 . S
C951 H939 0.929 . S
C951 C945 1.390 . S
C951 C948 1.386 . S
C952 C947 1.490 . S
C952 C954 1.395 . S
C952 C955 1.403 . S
H953 C959 0.930 . S
C954 H940 0.930 . S
C954 C952 1.395 . S
C954 C957 1.403 1_556 S
C955 C952 1.403 . S
C955 C956 1.524 . S
C955 C959 1.400 1_556 S
C956 H941 0.960 . S
C956 H942 0.960 . S
C956 H943 0.960 . S
C956 C955 1.524 . S
C957 C954 1.403 1_554 S
C957 C958 1.392 . S
C957 C961 1.495 . S
C958 C957 1.392 . S
C958 C959 1.385 . S
C958 C960 1.478 . S
C959 H953 0.930 . S
C959 C955 1.400 1_554 S
C959 C958 1.385 . S
C960 C958 1.478 . S
C960 C962 1.381 . S
C960 C966 1.383 . S
C961 C957 1.495 . S
C961 H967 0.959 . S
C961 H968 0.961 . S
C961 H969 0.960 . S
C962 C960 1.381 . S
C962 C963 1.394 . S
C962 H970 0.930 . S
C963 C962 1.394 . S
C963 C964 1.383 . S
C963 H971 0.929 . S
C964 C963 1.383 . S
C964 C965 1.377 . S
C965 H949 0.930 . S
C965 C964 1.377 . S
C965 C966 1.379 . S
C966 H950 0.931 . S
C966 C960 1.383 . S
C966 C965 1.379 . S
H967 C961 0.959 . S
H968 C961 0.961 . S
H969 C961 0.960 . S
H970 C962 0.930 . S
H971 C963 0.929 . S
H972 C980 0.929 . S
H973 C982 0.930 . S
H974 C984 0.930 . S
H975 C987 0.929 . S
H976 C990 0.930 . S
H977 C992 0.960 . S
H978 C992 0.960 . S
H979 C992 0.960 . S
C980 H972 0.929 . S
C980 C981 1.377 . S
C980 C982 1.384 . S
C981 C980 1.377 . S
C981 C987 1.390 . S
C982 H973 0.930 . S
C982 C980 1.384 . S
C982 C983 1.372 . S
C983 C982 1.372 . S
C983 C984 1.400 . S
C983 C988 1.490 . S
C984 H974 0.930 . S
C984 C983 1.400 . S
C984 C987 1.386 . S
H985 C1001 0.930 . S
H986 C1002 0.931 . S
C987 H975 0.929 . S
C987 C981 1.390 . S
C987 C984 1.386 . S
C988 C983 1.490 . S
C988 C990 1.395 . S
C988 C991 1.403 . S
H989 C995 0.930 . S
C990 H976 0.930 . S
C990 C988 1.395 . S
C990 C993 1.403 1_554 S
C991 C988 1.403 . S
C991 C992 1.524 . S
C991 C995 1.400 1_554 S
C992 H977 0.960 . S
C992 H978 0.960 . S
C992 H979 0.960 . S
C992 C991 1.524 . S
C993 C990 1.403 1_556 S
C993 C994 1.392 . S
C993 C997 1.495 . S
C994 C993 1.392 . S
C994 C995 1.385 . S
C994 C996 1.478 . S
C995 H989 0.930 . S
C995 C991 1.400 1_556 S
C995 C994 1.385 . S
C996 C994 1.478 . S
C996 C998 1.381 . S
C996 C1002 1.383 . S
C997 C993 1.495 . S
C997 H1003 0.959 . S
C997 H1004 0.961 . S
C997 H1005 0.960 . S
C998 C996 1.381 . S
C998 C999 1.394 . S
C998 H1006 0.930 . S
C999 C998 1.394 . S
C999 C1000 1.383 . S
C999 H1007 0.929 . S
C1000 C999 1.383 . S
C1000 C1001 1.377 . S
C1001 H985 0.930 . S
C1001 C1000 1.377 . S
C1001 C1002 1.379 . S
C1002 H986 0.931 . S
C1002 C996 1.383 . S
C1002 C1001 1.379 . S
H1003 C997 0.959 . S
H1004 C997 0.961 . S
H1005 C997 0.960 . S
H1006 C998 0.930 . S
H1007 C999 0.929 . S
H1008 C1016 0.929 . S
H1009 C1018 0.930 . S
H1010 C1020 0.930 . S
H1011 C1023 0.929 . S
H1012 C1026 0.930 . S
H1013 C1028 0.960 . S
H1014 C1028 0.960 . S
H1015 C1028 0.960 . S
C1016 H1008 0.929 . S
C1016 C1017 1.377 . S
C1016 C1018 1.384 . S
C1017 C1016 1.377 . S
C1017 C1023 1.390 . S
C1018 H1009 0.930 . S
C1018 C1016 1.384 . S
C1018 C1019 1.372 . S
C1019 C1018 1.372 . S
C1019 C1020 1.400 . S
C1019 C1024 1.490 . S
C1020 H1010 0.930 . S
C1020 C1019 1.400 . S
C1020 C1023 1.386 . S
H1021 C1037 0.930 . S
H1022 C1038 0.931 . S
C1023 H1011 0.929 . S
C1023 C1017 1.390 . S
C1023 C1020 1.386 . S
C1024 C1019 1.490 . S
C1024 C1026 1.395 . S
C1024 C1027 1.403 . S
H1025 C1031 0.930 . S
C1026 H1012 0.930 . S
C1026 C1024 1.395 . S
C1026 C1029 1.403 . S
C1027 C1024 1.403 . S
C1027 C1028 1.524 . S
C1027 C1031 1.400 . S
C1028 H1013 0.960 . S
C1028 H1014 0.960 . S
C1028 H1015 0.960 . S
C1028 C1027 1.524 . S
C1029 C1026 1.403 . S
C1029 C1030 1.392 . S
C1029 C1033 1.495 . S
C1030 C1029 1.392 . S
C1030 C1031 1.385 . S
C1030 C1032 1.478 . S
C1031 H1025 0.930 . S
C1031 C1027 1.400 . S
C1031 C1030 1.385 . S
C1032 C1030 1.478 . S
C1032 C1034 1.381 . S
C1032 C1038 1.383 . S
C1033 C1029 1.495 . S
C1033 H1039 0.959 . S
C1033 H1040 0.961 . S
C1033 H1041 0.960 . S
C1034 C1032 1.381 . S
C1034 C1035 1.394 . S
C1034 H1042 0.930 . S
C1035 C1034 1.394 . S
C1035 C1036 1.383 . S
C1035 H1043 0.929 . S
C1036 C1035 1.383 . S
C1036 C1037 1.377 . S
C1037 H1021 0.930 . S
C1037 C1036 1.377 . S
C1037 C1038 1.379 . S
C1038 H1022 0.931 . S
C1038 C1032 1.383 . S
C1038 C1037 1.379 . S
H1039 C1033 0.959 . S
H1040 C1033 0.961 . S
H1041 C1033 0.960 . S
H1042 C1034 0.930 . S
H1043 C1035 0.929 . S
H1044 C1052 0.929 . S
H1045 C1054 0.930 . S
H1046 C1056 0.930 . S
H1047 C1059 0.929 . S
H1048 C1062 0.930 . S
H1049 C1064 0.960 . S
H1050 C1064 0.960 . S
H1051 C1064 0.960 . S
C1052 H1044 0.929 . S
C1052 C1053 1.377 . S
C1052 C1054 1.384 . S
C1053 C1052 1.377 . S
C1053 C1059 1.390 . S
C1054 H1045 0.930 . S
C1054 C1052 1.384 . S
C1054 C1055 1.372 . S
C1055 C1054 1.372 . S
C1055 C1056 1.400 . S
C1055 C1060 1.490 . S
C1056 H1046 0.930 . S
C1056 C1055 1.400 . S
C1056 C1059 1.386 . S
H1057 C1073 0.930 . S
H1058 C1074 0.931 . S
C1059 H1047 0.929 . S
C1059 C1053 1.390 . S
C1059 C1056 1.386 . S
C1060 C1055 1.490 . S
C1060 C1062 1.395 . S
C1060 C1063 1.403 . S
H1061 C1067 0.930 . S
C1062 H1048 0.930 . S
C1062 C1060 1.395 . S
C1062 C1065 1.403 . S
C1063 C1060 1.403 . S
C1063 C1064 1.524 . S
C1063 C1067 1.400 . S
C1064 H1049 0.960 . S
C1064 H1050 0.960 . S
C1064 H1051 0.960 . S
C1064 C1063 1.524 . S
C1065 C1062 1.403 . S
C1065 C1066 1.392 . S
C1065 C1069 1.495 . S
C1066 C1065 1.392 . S
C1066 C1067 1.385 . S
C1066 C1068 1.478 . S
C1067 H1061 0.930 . S
C1067 C1063 1.400 . S
C1067 C1066 1.385 . S
C1068 C1066 1.478 . S
C1068 C1070 1.381 . S
C1068 C1074 1.383 . S
C1069 C1065 1.495 . S
C1069 H1075 0.959 . S
C1069 H1076 0.961 . S
C1069 H1077 0.960 . S
C1070 C1068 1.381 . S
C1070 C1071 1.394 . S
C1070 H1078 0.930 . S
C1071 C1070 1.394 . S
C1071 C1072 1.383 . S
C1071 H1079 0.929 . S
C1072 C1071 1.383 . S
C1072 C1073 1.377 . S
C1073 H1057 0.930 . S
C1073 C1072 1.377 . S
C1073 C1074 1.379 . S
C1074 H1058 0.931 . S
C1074 C1068 1.383 . S
C1074 C1073 1.379 . S
H1075 C1069 0.959 . S
H1076 C1069 0.961 . S
H1077 C1069 0.960 . S
H1078 C1070 0.930 . S
H1079 C1071 0.929 . S
H1080 C1088 0.929 . S
H1081 C1090 0.930 . S
H1082 C1092 0.930 . S
H1083 C1095 0.929 . S
H1084 C1098 0.930 . S
H1085 C1100 0.960 . S
H1086 C1100 0.960 . S
H1087 C1100 0.960 . S
C1088 H1080 0.929 . S
C1088 C1089 1.377 . S
C1088 C1090 1.384 . S
C1089 C1088 1.377 . S
C1089 C1095 1.390 . S
C1090 H1081 0.930 . S
C1090 C1088 1.384 . S
C1090 C1091 1.372 . S
C1091 C1090 1.372 . S
C1091 C1092 1.400 . S
C1091 C1096 1.490 . S
C1092 H1082 0.930 . S
C1092 C1091 1.400 . S
C1092 C1095 1.386 . S
H1093 C1109 0.930 . S
H1094 C1110 0.931 . S
C1095 H1083 0.929 . S
C1095 C1089 1.390 . S
C1095 C1092 1.386 . S
C1096 C1091 1.490 . S
C1096 C1098 1.395 . S
C1096 C1099 1.403 . S
H1097 C1103 0.930 . S
C1098 H1084 0.930 . S
C1098 C1096 1.395 . S
C1098 C1101 1.403 . S
C1099 C1096 1.403 . S
C1099 C1100 1.524 . S
C1099 C1103 1.400 . S
C1100 H1085 0.960 . S
C1100 H1086 0.960 . S
C1100 H1087 0.960 . S
C1100 C1099 1.524 . S
C1101 C1098 1.403 . S
C1101 C1102 1.392 . S
C1101 C1105 1.495 . S
C1102 C1101 1.392 . S
C1102 C1103 1.385 . S
C1102 C1104 1.478 . S
C1103 H1097 0.930 . S
C1103 C1099 1.400 . S
C1103 C1102 1.385 . S
C1104 C1102 1.478 . S
C1104 C1106 1.381 . S
C1104 C1110 1.383 . S
C1105 C1101 1.495 . S
C1105 H1111 0.959 . S
C1105 H1112 0.961 . S
C1105 H1113 0.960 . S
C1106 C1104 1.381 . S
C1106 C1107 1.394 . S
C1106 H1114 0.930 . S
C1107 C1106 1.394 . S
C1107 C1108 1.383 . S
C1107 H1115 0.929 . S
C1108 C1107 1.383 . S
C1108 C1109 1.377 . S
C1109 H1093 0.930 . S
C1109 C1108 1.377 . S
C1109 C1110 1.379 . S
C1110 H1094 0.931 . S
C1110 C1104 1.383 . S
C1110 C1109 1.379 . S
H1111 C1105 0.959 . S
H1112 C1105 0.961 . S
H1113 C1105 0.960 . S
H1114 C1106 0.930 . S
H1115 C1107 0.929 . S
H1116 C1124 0.929 . S
H1117 C1126 0.930 . S
H1118 C1128 0.930 . S
H1119 C1131 0.929 . S
H1120 C1134 0.930 . S
H1121 C1136 0.960 . S
H1122 C1136 0.960 . S
H1123 C1136 0.960 . S
C1124 H1116 0.929 . S
C1124 C1125 1.377 . S
C1124 C1126 1.384 . S
C1125 C1124 1.377 . S
C1125 C1131 1.390 . S
C1126 H1117 0.930 . S
C1126 C1124 1.384 . S
C1126 C1127 1.372 . S
C1127 C1126 1.372 . S
C1127 C1128 1.400 . S
C1127 C1132 1.490 . S
C1128 H1118 0.930 . S
C1128 C1127 1.400 . S
C1128 C1131 1.386 . S
H1129 C1145 0.930 . S
H1130 C1146 0.931 . S
C1131 H1119 0.929 . S
C1131 C1125 1.390 . S
C1131 C1128 1.386 . S
C1132 C1127 1.490 . S
C1132 C1134 1.395 . S
C1132 C1135 1.403 . S
H1133 C1139 0.930 . S
C1134 H1120 0.930 . S
C1134 C1132 1.395 . S
C1134 C1137 1.403 . S
C1135 C1132 1.403 . S
C1135 C1136 1.524 . S
C1135 C1139 1.400 . S
C1136 H1121 0.960 . S
C1136 H1122 0.960 . S
C1136 H1123 0.960 . S
C1136 C1135 1.524 . S
C1137 C1134 1.403 . S
C1137 C1138 1.392 . S
C1137 C1141 1.495 . S
C1138 C1137 1.392 . S
C1138 C1139 1.385 . S
C1138 C1140 1.478 . S
C1139 H1133 0.930 . S
C1139 C1135 1.400 . S
C1139 C1138 1.385 . S
C1140 C1138 1.478 . S
C1140 C1142 1.381 . S
C1140 C1146 1.383 . S
C1141 C1137 1.495 . S
C1141 H1147 0.959 . S
C1141 H1148 0.961 . S
C1141 H1149 0.960 . S
C1142 C1140 1.381 . S
C1142 C1143 1.394 . S
C1142 H1150 0.930 . S
C1143 C1142 1.394 . S
C1143 C1144 1.383 . S
C1143 H1151 0.929 . S
C1144 C1143 1.383 . S
C1144 C1145 1.377 . S
C1145 H1129 0.930 . S
C1145 C1144 1.377 . S
C1145 C1146 1.379 . S
C1146 H1130 0.931 . S
C1146 C1140 1.383 . S
C1146 C1145 1.379 . S
H1147 C1141 0.959 . S
H1148 C1141 0.961 . S
H1149 C1141 0.960 . S
H1150 C1142 0.930 . S
H1151 C1143 0.929 . S
H1152 C1160 0.929 . S
H1153 C1162 0.930 . S
H1154 C1164 0.930 . S
H1155 C1167 0.929 . S
H1156 C1170 0.930 . S
H1157 C1172 0.960 . S
H1158 C1172 0.960 . S
H1159 C1172 0.960 . S
C1160 H1152 0.929 . S
C1160 C1161 1.377 . S
C1160 C1162 1.384 . S
C1161 C1160 1.377 . S
C1161 C1167 1.390 . S
C1162 H1153 0.930 . S
C1162 C1160 1.384 . S
C1162 C1163 1.372 . S
C1163 C1162 1.372 . S
C1163 C1164 1.400 . S
C1163 C1168 1.490 . S
C1164 H1154 0.930 . S
C1164 C1163 1.400 . S
C1164 C1167 1.386 . S
H1165 C1181 0.930 . S
H1166 C1182 0.931 . S
C1167 H1155 0.929 . S
C1167 C1161 1.390 . S
C1167 C1164 1.386 . S
C1168 C1163 1.490 . S
C1168 C1170 1.395 . S
C1168 C1171 1.403 . S
H1169 C1175 0.930 . S
C1170 H1156 0.930 . S
C1170 C1168 1.395 . S
C1170 C1173 1.403 . S
C1171 C1168 1.403 . S
C1171 C1172 1.524 . S
C1171 C1175 1.400 . S
C1172 H1157 0.960 . S
C1172 H1158 0.960 . S
C1172 H1159 0.960 . S
C1172 C1171 1.524 . S
C1173 C1170 1.403 . S
C1173 C1174 1.392 . S
C1173 C1177 1.495 . S
C1174 C1173 1.392 . S
C1174 C1175 1.385 . S
C1174 C1176 1.478 . S
C1175 H1169 0.930 . S
C1175 C1171 1.400 . S
C1175 C1174 1.385 . S
C1176 C1174 1.478 . S
C1176 C1178 1.381 . S
C1176 C1182 1.383 . S
C1177 C1173 1.495 . S
C1177 H1183 0.959 . S
C1177 H1184 0.961 . S
C1177 H1185 0.960 . S
C1178 C1176 1.381 . S
C1178 C1179 1.394 . S
C1178 H1186 0.930 . S
C1179 C1178 1.394 . S
C1179 C1180 1.383 . S
C1179 H1187 0.929 . S
C1180 C1179 1.383 . S
C1180 C1181 1.377 . S
C1181 H1165 0.930 . S
C1181 C1180 1.377 . S
C1181 C1182 1.379 . S
C1182 H1166 0.931 . S
C1182 C1176 1.383 . S
C1182 C1181 1.379 . S
H1183 C1177 0.959 . S
H1184 C1177 0.961 . S
H1185 C1177 0.960 . S
H1186 C1178 0.930 . S
H1187 C1179 0.929 . S
H1188 C1196 0.929 . S
H1189 C1198 0.930 . S
H1190 C1200 0.930 . S
H1191 C1203 0.929 . S
H1192 C1206 0.930 . S
H1193 C1208 0.960 . S
H1194 C1208 0.960 . S
H1195 C1208 0.960 . S
C1196 H1188 0.929 . S
C1196 C1197 1.377 . S
C1196 C1198 1.384 . S
C1197 C1196 1.377 . S
C1197 C1203 1.390 . S
C1198 H1189 0.930 . S
C1198 C1196 1.384 . S
C1198 C1199 1.372 . S
C1199 C1198 1.372 . S
C1199 C1200 1.400 . S
C1199 C1204 1.490 . S
C1200 H1190 0.930 . S
C1200 C1199 1.400 . S
C1200 C1203 1.386 . S
H1201 C1217 0.930 . S
H1202 C1218 0.931 . S
C1203 H1191 0.929 . S
C1203 C1197 1.390 . S
C1203 C1200 1.386 . S
C1204 C1199 1.490 . S
C1204 C1206 1.395 . S
C1204 C1207 1.403 . S
H1205 C1211 0.930 . S
C1206 H1192 0.930 . S
C1206 C1204 1.395 . S
C1206 C1209 1.403 . S
C1207 C1204 1.403 . S
C1207 C1208 1.524 . S
C1207 C1211 1.400 . S
C1208 H1193 0.960 . S
C1208 H1194 0.960 . S
C1208 H1195 0.960 . S
C1208 C1207 1.524 . S
C1209 C1206 1.403 . S
C1209 C1210 1.392 . S
C1209 C1213 1.495 . S
C1210 C1209 1.392 . S
C1210 C1211 1.385 . S
C1210 C1212 1.478 . S
C1211 H1205 0.930 . S
C1211 C1207 1.400 . S
C1211 C1210 1.385 . S
C1212 C1210 1.478 . S
C1212 C1214 1.381 . S
C1212 C1218 1.383 . S
C1213 C1209 1.495 . S
C1213 H1219 0.959 . S
C1213 H1220 0.961 . S
C1213 H1221 0.960 . S
C1214 C1212 1.381 . S
C1214 C1215 1.394 . S
C1214 H1222 0.930 . S
C1215 C1214 1.394 . S
C1215 C1216 1.383 . S
C1215 H1223 0.929 . S
C1216 C1215 1.383 . S
C1216 C1217 1.377 . S
C1217 H1201 0.930 . S
C1217 C1216 1.377 . S
C1217 C1218 1.379 . S
C1218 H1202 0.931 . S
C1218 C1212 1.383 . S
C1218 C1217 1.379 . S
H1219 C1213 0.959 . S
H1220 C1213 0.961 . S
H1221 C1213 0.960 . S
H1222 C1214 0.930 . S
H1223 C1215 0.929 . S
H1224 C1232 0.929 . S
H1225 C1234 0.930 . S
H1226 C1236 0.930 . S
H1227 C1239 0.929 . S
H1228 C1242 0.930 . S
H1229 C1244 0.960 . S
H1230 C1244 0.960 . S
H1231 C1244 0.960 . S
C1232 H1224 0.929 . S
C1232 C1233 1.377 . S
C1232 C1234 1.384 . S
C1233 C1232 1.377 . S
C1233 C1239 1.390 . S
C1234 H1225 0.930 . S
C1234 C1232 1.384 . S
C1234 C1235 1.372 . S
C1235 C1234 1.372 . S
C1235 C1236 1.400 . S
C1235 C1240 1.490 . S
C1236 H1226 0.930 . S
C1236 C1235 1.400 . S
C1236 C1239 1.386 . S
H1237 C1253 0.930 . S
H1238 C1254 0.931 . S
C1239 H1227 0.929 . S
C1239 C1233 1.390 . S
C1239 C1236 1.386 . S
C1240 C1235 1.490 . S
C1240 C1242 1.395 . S
C1240 C1243 1.403 . S
H1241 C1247 0.930 . S
C1242 H1228 0.930 . S
C1242 C1240 1.395 . S
C1242 C1245 1.403 . S
C1243 C1240 1.403 . S
C1243 C1244 1.524 . S
C1243 C1247 1.400 . S
C1244 H1229 0.960 . S
C1244 H1230 0.960 . S
C1244 H1231 0.960 . S
C1244 C1243 1.524 . S
C1245 C1242 1.403 . S
C1245 C1246 1.392 . S
C1245 C1249 1.495 . S
C1246 C1245 1.392 . S
C1246 C1247 1.385 . S
C1246 C1248 1.478 . S
C1247 H1241 0.930 . S
C1247 C1243 1.400 . S
C1247 C1246 1.385 . S
C1248 C1246 1.478 . S
C1248 C1250 1.381 . S
C1248 C1254 1.383 . S
C1249 C1245 1.495 . S
C1249 H1255 0.959 . S
C1249 H1256 0.961 . S
C1249 H1257 0.960 . S
C1250 C1248 1.381 . S
C1250 C1251 1.394 . S
C1250 H1258 0.930 . S
C1251 C1250 1.394 . S
C1251 C1252 1.383 . S
C1251 H1259 0.929 . S
C1252 C1251 1.383 . S
C1252 C1253 1.377 . S
C1253 H1237 0.930 . S
C1253 C1252 1.377 . S
C1253 C1254 1.379 . S
C1254 H1238 0.931 . S
C1254 C1248 1.383 . S
C1254 C1253 1.379 . S
H1255 C1249 0.959 . S
H1256 C1249 0.961 . S
H1257 C1249 0.960 . S
H1258 C1250 0.930 . S
H1259 C1251 0.929 . S
H1260 C1268 0.929 . S
H1261 C1270 0.930 . S
H1262 C1272 0.930 . S
H1263 C1275 0.929 . S
H1264 C1278 0.930 . S
H1265 C1280 0.960 . S
H1266 C1280 0.960 . S
H1267 C1280 0.960 . S
C1268 H1260 0.929 . S
C1268 C1269 1.377 . S
C1268 C1270 1.384 . S
C1269 C1268 1.377 . S
C1269 C1275 1.390 . S
C1270 H1261 0.930 . S
C1270 C1268 1.384 . S
C1270 C1271 1.372 . S
C1271 C1270 1.372 . S
C1271 C1272 1.400 . S
C1271 C1276 1.490 . S
C1272 H1262 0.930 . S
C1272 C1271 1.400 . S
C1272 C1275 1.386 . S
H1273 C1289 0.930 . S
H1274 C1290 0.931 . S
C1275 H1263 0.929 . S
C1275 C1269 1.390 . S
C1275 C1272 1.386 . S
C1276 C1271 1.490 . S
C1276 C1278 1.395 . S
C1276 C1279 1.403 . S
H1277 C1283 0.930 . S
C1278 H1264 0.930 . S
C1278 C1276 1.395 . S
C1278 C1281 1.403 . S
C1279 C1276 1.403 . S
C1279 C1280 1.524 . S
C1279 C1283 1.400 . S
C1280 H1265 0.960 . S
C1280 H1266 0.960 . S
C1280 H1267 0.960 . S
C1280 C1279 1.524 . S
C1281 C1278 1.403 . S
C1281 C1282 1.392 . S
C1281 C1285 1.495 . S
C1282 C1281 1.392 . S
C1282 C1283 1.385 . S
C1282 C1284 1.478 . S
C1283 H1277 0.930 . S
C1283 C1279 1.400 . S
C1283 C1282 1.385 . S
C1284 C1282 1.478 . S
C1284 C1286 1.381 . S
C1284 C1290 1.383 . S
C1285 C1281 1.495 . S
C1285 H1291 0.959 . S
C1285 H1292 0.961 . S
C1285 H1293 0.960 . S
C1286 C1284 1.381 . S
C1286 C1287 1.394 . S
C1286 H1294 0.930 . S
C1287 C1286 1.394 . S
C1287 C1288 1.383 . S
C1287 H1295 0.929 . S
C1288 C1287 1.383 . S
C1288 C1289 1.377 . S
C1289 H1273 0.930 . S
C1289 C1288 1.377 . S
C1289 C1290 1.379 . S
C1290 H1274 0.931 . S
C1290 C1284 1.383 . S
C1290 C1289 1.379 . S
H1291 C1285 0.959 . S
H1292 C1285 0.961 . S
H1293 C1285 0.960 . S
H1294 C1286 0.930 . S
H1295 C1287 0.929 . S
H1296 C1304 0.929 . S
H1297 C1306 0.930 . S
H1298 C1308 0.930 . S
H1299 C1311 0.929 . S
H1300 C1314 0.930 . S
H1301 C1316 0.960 . S
H1302 C1316 0.960 . S
H1303 C1316 0.960 . S
C1304 H1296 0.929 . S
C1304 C1305 1.377 . S
C1304 C1306 1.384 . S
C1305 C1304 1.377 . S
C1305 C1311 1.390 . S
C1306 H1297 0.930 . S
C1306 C1304 1.384 . S
C1306 C1307 1.372 . S
C1307 C1306 1.372 . S
C1307 C1308 1.400 . S
C1307 C1312 1.490 . S
C1308 H1298 0.930 . S
C1308 C1307 1.400 . S
C1308 C1311 1.386 . S
H1309 C1325 0.930 . S
H1310 C1326 0.931 . S
C1311 H1299 0.929 . S
C1311 C1305 1.390 . S
C1311 C1308 1.386 . S
C1312 C1307 1.490 . S
C1312 C1314 1.395 . S
C1312 C1315 1.403 . S
H1313 C1319 0.930 . S
C1314 H1300 0.930 . S
C1314 C1312 1.395 . S
C1314 C1317 1.403 . S
C1315 C1312 1.403 . S
C1315 C1316 1.524 . S
C1315 C1319 1.400 . S
C1316 H1301 0.960 . S
C1316 H1302 0.960 . S
C1316 H1303 0.960 . S
C1316 C1315 1.524 . S
C1317 C1314 1.403 . S
C1317 C1318 1.392 . S
C1317 C1321 1.495 . S
C1318 C1317 1.392 . S
C1318 C1319 1.385 . S
C1318 C1320 1.478 . S
C1319 H1313 0.930 . S
C1319 C1315 1.400 . S
C1319 C1318 1.385 . S
C1320 C1318 1.478 . S
C1320 C1322 1.381 . S
C1320 C1326 1.383 . S
C1321 C1317 1.495 . S
C1321 H1327 0.959 . S
C1321 H1328 0.961 . S
C1321 H1329 0.960 . S
C1322 C1320 1.381 . S
C1322 C1323 1.394 . S
C1322 H1330 0.930 . S
C1323 C1322 1.394 . S
C1323 C1324 1.383 . S
C1323 H1331 0.929 . S
C1324 C1323 1.383 . S
C1324 C1325 1.377 . S
C1325 H1309 0.930 . S
C1325 C1324 1.377 . S
C1325 C1326 1.379 . S
C1326 H1310 0.931 . S
C1326 C1320 1.383 . S
C1326 C1325 1.379 . S
H1327 C1321 0.959 . S
H1328 C1321 0.961 . S
H1329 C1321 0.960 . S
H1330 C1322 0.930 . S
H1331 C1323 0.929 . S
H1332 C1340 0.929 . S
H1333 C1342 0.930 . S
H1334 C1344 0.930 . S
H1335 C1347 0.929 . S
H1336 C1350 0.930 . S
H1337 C1352 0.960 . S
H1338 C1352 0.960 . S
H1339 C1352 0.960 . S
C1340 H1332 0.929 . S
C1340 C1341 1.377 . S
C1340 C1342 1.384 . S
C1341 C1340 1.377 . S
C1341 C1347 1.390 . S
C1342 H1333 0.930 . S
C1342 C1340 1.384 . S
C1342 C1343 1.372 . S
C1343 C1342 1.372 . S
C1343 C1344 1.400 . S
C1343 C1348 1.490 . S
C1344 H1334 0.930 . S
C1344 C1343 1.400 . S
C1344 C1347 1.386 . S
H1345 C1361 0.930 . S
H1346 C1362 0.931 . S
C1347 H1335 0.929 . S
C1347 C1341 1.390 . S
C1347 C1344 1.386 . S
C1348 C1343 1.490 . S
C1348 C1350 1.395 . S
C1348 C1351 1.403 . S
H1349 C1355 0.930 . S
C1350 H1336 0.930 . S
C1350 C1348 1.395 . S
C1350 C1353 1.403 . S
C1351 C1348 1.403 . S
C1351 C1352 1.524 . S
C1351 C1355 1.400 . S
C1352 H1337 0.960 . S
C1352 H1338 0.960 . S
C1352 H1339 0.960 . S
C1352 C1351 1.524 . S
C1353 C1350 1.403 . S
C1353 C1354 1.392 . S
C1353 C1357 1.495 . S
C1354 C1353 1.392 . S
C1354 C1355 1.385 . S
C1354 C1356 1.478 . S
C1355 H1349 0.930 . S
C1355 C1351 1.400 . S
C1355 C1354 1.385 . S
C1356 C1354 1.478 . S
C1356 C1358 1.381 . S
C1356 C1362 1.383 . S
C1357 C1353 1.495 . S
C1357 H1363 0.959 . S
C1357 H1364 0.961 . S
C1357 H1365 0.960 . S
C1358 C1356 1.381 . S
C1358 C1359 1.394 . S
C1358 H1366 0.930 . S
C1359 C1358 1.394 . S
C1359 C1360 1.383 . S
C1359 H1367 0.929 . S
C1360 C1359 1.383 . S
C1360 C1361 1.377 . S
C1361 H1345 0.930 . S
C1361 C1360 1.377 . S
C1361 C1362 1.379 . S
C1362 H1346 0.931 . S
C1362 C1356 1.383 . S
C1362 C1361 1.379 . S
H1363 C1357 0.959 . S
H1364 C1357 0.961 . S
H1365 C1357 0.960 . S
H1366 C1358 0.930 . S
H1367 C1359 0.929 . S
H1368 C1376 0.929 . S
H1369 C1378 0.930 . S
H1370 C1380 0.930 . S
H1371 C1383 0.929 . S
H1372 C1386 0.930 . S
H1373 C1388 0.960 . S
H1374 C1388 0.960 . S
H1375 C1388 0.960 . S
C1376 H1368 0.929 . S
C1376 C1377 1.377 . S
C1376 C1378 1.384 . S
C1377 C1376 1.377 . S
C1377 C1383 1.390 . S
C1378 H1369 0.930 . S
C1378 C1376 1.384 . S
C1378 C1379 1.372 . S
C1379 C1378 1.372 . S
C1379 C1380 1.400 . S
C1379 C1384 1.490 . S
C1380 H1370 0.930 . S
C1380 C1379 1.400 . S
C1380 C1383 1.386 . S
H1381 C1397 0.930 . S
H1382 C1398 0.931 . S
C1383 H1371 0.929 . S
C1383 C1377 1.390 . S
C1383 C1380 1.386 . S
C1384 C1379 1.490 . S
C1384 C1386 1.395 . S
C1384 C1387 1.403 . S
H1385 C1391 0.930 . S
C1386 H1372 0.930 . S
C1386 C1384 1.395 . S
C1386 C1389 1.403 . S
C1387 C1384 1.403 . S
C1387 C1388 1.524 . S
C1387 C1391 1.400 . S
C1388 H1373 0.960 . S
C1388 H1374 0.960 . S
C1388 H1375 0.960 . S
C1388 C1387 1.524 . S
C1389 C1386 1.403 . S
C1389 C1390 1.392 . S
C1389 C1393 1.495 . S
C1390 C1389 1.392 . S
C1390 C1391 1.385 . S
C1390 C1392 1.478 . S
C1391 H1385 0.930 . S
C1391 C1387 1.400 . S
C1391 C1390 1.385 . S
C1392 C1390 1.478 . S
C1392 C1394 1.381 . S
C1392 C1398 1.383 . S
C1393 C1389 1.495 . S
C1393 H1399 0.959 . S
C1393 H1400 0.961 . S
C1393 H1401 0.960 . S
C1394 C1392 1.381 . S
C1394 C1395 1.394 . S
C1394 H1402 0.930 . S
C1395 C1394 1.394 . S
C1395 C1396 1.383 . S
C1395 H1403 0.929 . S
C1396 C1395 1.383 . S
C1396 C1397 1.377 . S
C1397 H1381 0.930 . S
C1397 C1396 1.377 . S
C1397 C1398 1.379 . S
C1398 H1382 0.931 . S
C1398 C1392 1.383 . S
C1398 C1397 1.379 . S
H1399 C1393 0.959 . S
H1400 C1393 0.961 . S
H1401 C1393 0.960 . S
H1402 C1394 0.930 . S
H1403 C1395 0.929 . S
H1404 C1412 0.929 . S
H1405 C1414 0.930 . S
H1406 C1416 0.930 . S
H1407 C1419 0.929 . S
H1408 C1422 0.930 . S
H1409 C1424 0.960 . S
H1410 C1424 0.960 . S
H1411 C1424 0.960 . S
C1412 H1404 0.929 . S
C1412 C1413 1.377 . S
C1412 C1414 1.384 . S
C1413 C1412 1.377 . S
C1413 C1419 1.390 . S
C1414 H1405 0.930 . S
C1414 C1412 1.384 . S
C1414 C1415 1.372 . S
C1415 C1414 1.372 . S
C1415 C1416 1.400 . S
C1415 C1420 1.490 . S
C1416 H1406 0.930 . S
C1416 C1415 1.400 . S
C1416 C1419 1.386 . S
H1417 C1433 0.930 . S
H1418 C1434 0.931 . S
C1419 H1407 0.929 . S
C1419 C1413 1.390 . S
C1419 C1416 1.386 . S
C1420 C1415 1.490 . S
C1420 C1422 1.395 . S
C1420 C1423 1.403 . S
H1421 C1427 0.930 . S
C1422 H1408 0.930 . S
C1422 C1420 1.395 . S
C1422 C1425 1.403 . S
C1423 C1420 1.403 . S
C1423 C1424 1.524 . S
C1423 C1427 1.400 . S
C1424 H1409 0.960 . S
C1424 H1410 0.960 . S
C1424 H1411 0.960 . S
C1424 C1423 1.524 . S
C1425 C1422 1.403 . S
C1425 C1426 1.392 . S
C1425 C1429 1.495 . S
C1426 C1425 1.392 . S
C1426 C1427 1.385 . S
C1426 C1428 1.478 . S
C1427 H1421 0.930 . S
C1427 C1423 1.400 . S
C1427 C1426 1.385 . S
C1428 C1426 1.478 . S
C1428 C1430 1.381 . S
C1428 C1434 1.383 . S
C1429 C1425 1.495 . S
C1429 H1435 0.959 . S
C1429 H1436 0.961 . S
C1429 H1437 0.960 . S
C1430 C1428 1.381 . S
C1430 C1431 1.394 . S
C1430 H1438 0.930 . S
C1431 C1430 1.394 . S
C1431 C1432 1.383 . S
C1431 H1439 0.929 . S
C1432 C1431 1.383 . S
C1432 C1433 1.377 . S
C1433 H1417 0.930 . S
C1433 C1432 1.377 . S
C1433 C1434 1.379 . S
C1434 H1418 0.931 . S
C1434 C1428 1.383 . S
C1434 C1433 1.379 . S
H1435 C1429 0.959 . S
H1436 C1429 0.961 . S
H1437 C1429 0.960 . S
H1438 C1430 0.930 . S
H1439 C1431 0.929 . S
H1440 C1448 0.929 . S
H1441 C1450 0.930 . S
H1442 C1452 0.930 . S
H1443 C1455 0.929 . S
H1444 C1458 0.930 . S
H1445 C1460 0.960 . S
H1446 C1460 0.960 . S
H1447 C1460 0.960 . S
C1448 H1440 0.929 . S
C1448 C1449 1.377 . S
C1448 C1450 1.384 . S
C1449 C1448 1.377 . S
C1449 C1455 1.390 . S
C1450 H1441 0.930 . S
C1450 C1448 1.384 . S
C1450 C1451 1.372 . S
C1451 C1450 1.372 . S
C1451 C1452 1.400 . S
C1451 C1456 1.490 . S
C1452 H1442 0.930 . S
C1452 C1451 1.400 . S
C1452 C1455 1.386 . S
H1453 C1469 0.930 . S
H1454 C1470 0.931 . S
C1455 H1443 0.929 . S
C1455 C1449 1.390 . S
C1455 C1452 1.386 . S
C1456 C1451 1.490 . S
C1456 C1458 1.395 . S
C1456 C1459 1.403 . S
H1457 C1463 0.930 . S
C1458 H1444 0.930 . S
C1458 C1456 1.395 . S
C1458 C1461 1.403 1_545 S
C1459 C1456 1.403 . S
C1459 C1460 1.524 . S
C1459 C1463 1.400 1_545 S
C1460 H1445 0.960 . S
C1460 H1446 0.960 . S
C1460 H1447 0.960 . S
C1460 C1459 1.524 . S
C1461 C1458 1.403 1_565 S
C1461 C1462 1.392 . S
C1461 C1465 1.495 . S
C1462 C1461 1.392 . S
C1462 C1463 1.385 . S
C1462 C1464 1.478 . S
C1463 H1457 0.930 . S
C1463 C1459 1.400 1_565 S
C1463 C1462 1.385 . S
C1464 C1462 1.478 . S
C1464 C1466 1.381 . S
C1464 C1470 1.383 . S
C1465 C1461 1.495 . S
C1465 H1471 0.959 . S
C1465 H1472 0.961 . S
C1465 H1473 0.960 . S
C1466 C1464 1.381 . S
C1466 C1467 1.394 . S
C1466 H1474 0.930 . S
C1467 C1466 1.394 . S
C1467 C1468 1.383 . S
C1467 H1475 0.929 . S
C1468 C1467 1.383 . S
C1468 C1469 1.377 . S
C1469 H1453 0.930 . S
C1469 C1468 1.377 . S
C1469 C1470 1.379 . S
C1470 H1454 0.931 . S
C1470 C1464 1.383 . S
C1470 C1469 1.379 . S
H1471 C1465 0.959 . S
H1472 C1465 0.961 . S
H1473 C1465 0.960 . S
H1474 C1466 0.930 . S
H1475 C1467 0.929 . S
H1476 C1484 0.929 . S
H1477 C1486 0.930 . S
H1478 C1488 0.930 . S
H1479 C1491 0.929 . S
H1480 C1494 0.930 . S
H1481 C1496 0.960 1_455 S
H1482 C1496 0.960 . S
H1483 C1496 0.960 . S
C1484 H1476 0.929 . S
C1484 C1485 1.377 . S
C1484 C1486 1.384 . S
C1485 C1484 1.377 . S
C1485 C1491 1.390 . S
C1486 H1477 0.930 . S
C1486 C1484 1.384 . S
C1486 C1487 1.372 . S
C1487 C1486 1.372 . S
C1487 C1488 1.400 . S
C1487 C1492 1.490 . S
C1488 H1478 0.930 . S
C1488 C1487 1.400 . S
C1488 C1491 1.386 . S
H1489 C1505 0.930 . S
H1490 C1506 0.931 . S
C1491 H1479 0.929 . S
C1491 C1485 1.390 . S
C1491 C1488 1.386 . S
C1492 C1487 1.490 . S
C1492 C1494 1.395 . S
C1492 C1495 1.403 . S
H1493 C1499 0.930 . S
C1494 H1480 0.930 . S
C1494 C1492 1.395 . S
C1494 C1497 1.403 1_655 S
C1495 C1492 1.403 . S
C1495 C1496 1.524 . S
C1495 C1499 1.400 1_655 S
C1496 H1481 0.960 1_655 S
C1496 H1482 0.960 . S
C1496 H1483 0.960 . S
C1496 C1495 1.524 . S
C1497 C1494 1.403 1_455 S
C1497 C1498 1.392 . S
C1497 C1501 1.495 . S
C1498 C1497 1.392 . S
C1498 C1499 1.385 . S
C1498 C1500 1.478 . S
C1499 H1493 0.930 . S
C1499 C1495 1.400 1_455 S
C1499 C1498 1.385 . S
C1500 C1498 1.478 . S
C1500 C1502 1.381 . S
C1500 C1506 1.383 . S
C1501 C1497 1.495 . S
C1501 H1507 0.959 1_455 S
C1501 H1508 0.961 . S
C1501 H1509 0.960 . S
C1502 C1500 1.381 . S
C1502 C1503 1.394 . S
C1502 H1510 0.930 . S
C1503 C1502 1.394 . S
C1503 C1504 1.383 . S
C1503 H1511 0.929 . S
C1504 C1503 1.383 . S
C1504 C1505 1.377 . S
C1505 H1489 0.930 . S
C1505 C1504 1.377 . S
C1505 C1506 1.379 . S
C1506 H1490 0.931 . S
C1506 C1500 1.383 . S
C1506 C1505 1.379 . S
H1507 C1501 0.959 1_655 S
H1508 C1501 0.961 . S
H1509 C1501 0.960 . S
H1510 C1502 0.930 . S
H1511 C1503 0.929 . S
H1512 C1520 0.929 . S
H1513 C1522 0.930 . S
H1514 C1524 0.930 . S
H1515 C1527 0.929 . S
H1516 C1530 0.930 . S
H1517 C1532 0.960 . S
H1518 C1532 0.960 . S
H1519 C1532 0.960 . S
C1520 H1512 0.929 . S
C1520 C1521 1.377 . S
C1520 C1522 1.384 . S
C1521 C1520 1.377 . S
C1521 C1527 1.390 . S
C1522 H1513 0.930 . S
C1522 C1520 1.384 . S
C1522 C1523 1.372 . S
C1523 C1522 1.372 . S
C1523 C1524 1.400 . S
C1523 C1528 1.490 . S
C1524 H1514 0.930 . S
C1524 C1523 1.400 . S
C1524 C1527 1.386 . S
H1525 C1541 0.930 . S
H1526 C1542 0.931 . S
C1527 H1515 0.929 . S
C1527 C1521 1.390 . S
C1527 C1524 1.386 . S
C1528 C1523 1.490 . S
C1528 C1530 1.395 . S
C1528 C1531 1.403 . S
H1529 C1535 0.930 . S
C1530 H1516 0.930 . S
C1530 C1528 1.395 . S
C1530 C1533 1.403 1_545 S
C1531 C1528 1.403 . S
C1531 C1532 1.524 . S
C1531 C1535 1.400 1_545 S
C1532 H1517 0.960 . S
C1532 H1518 0.960 . S
C1532 H1519 0.960 . S
C1532 C1531 1.524 . S
C1533 C1530 1.403 1_565 S
C1533 C1534 1.392 . S
C1533 C1537 1.495 . S
C1534 C1533 1.392 . S
C1534 C1535 1.385 . S
C1534 C1536 1.478 . S
C1535 H1529 0.930 . S
C1535 C1531 1.400 1_565 S
C1535 C1534 1.385 . S
C1536 C1534 1.478 . S
C1536 C1538 1.381 . S
C1536 C1542 1.383 . S
C1537 C1533 1.495 . S
C1537 H1543 0.959 . S
C1537 H1544 0.961 . S
C1537 H1545 0.960 . S
C1538 C1536 1.381 . S
C1538 C1539 1.394 . S
C1538 H1546 0.930 . S
C1539 C1538 1.394 . S
C1539 C1540 1.383 . S
C1539 H1547 0.929 . S
C1540 C1539 1.383 . S
C1540 C1541 1.377 . S
C1541 H1525 0.930 . S
C1541 C1540 1.377 . S
C1541 C1542 1.379 . S
C1542 H1526 0.931 . S
C1542 C1536 1.383 . S
C1542 C1541 1.379 . S
H1543 C1537 0.959 . S
H1544 C1537 0.961 . S
H1545 C1537 0.960 . S
H1546 C1538 0.930 . S
H1547 C1539 0.929 . S
H1548 C1556 0.929 . S
H1549 C1558 0.930 . S
H1550 C1560 0.930 . S
H1551 C1563 0.929 . S
H1552 C1566 0.930 . S
H1553 C1568 0.960 1_655 S
H1554 C1568 0.960 . S
H1555 C1568 0.960 . S
C1556 H1548 0.929 . S
C1556 C1557 1.377 . S
C1556 C1558 1.384 . S
C1557 C1556 1.377 . S
C1557 C1563 1.390 . S
C1558 H1549 0.930 . S
C1558 C1556 1.384 . S
C1558 C1559 1.372 . S
C1559 C1558 1.372 . S
C1559 C1560 1.400 . S
C1559 C1564 1.490 . S
C1560 H1550 0.930 . S
C1560 C1559 1.400 . S
C1560 C1563 1.386 . S
H1561 C1577 0.930 . S
H1562 C1578 0.931 . S
C1563 H1551 0.929 . S
C1563 C1557 1.390 . S
C1563 C1560 1.386 . S
C1564 C1559 1.490 . S
C1564 C1566 1.395 . S
C1564 C1567 1.403 . S
H1565 C1571 0.930 . S
C1566 H1552 0.930 . S
C1566 C1564 1.395 . S
C1566 C1569 1.403 1_455 S
C1567 C1564 1.403 . S
C1567 C1568 1.524 . S
C1567 C1571 1.400 1_455 S
C1568 H1553 0.960 1_455 S
C1568 H1554 0.960 . S
C1568 H1555 0.960 . S
C1568 C1567 1.524 . S
C1569 C1566 1.403 1_655 S
C1569 C1570 1.392 . S
C1569 C1573 1.495 . S
C1570 C1569 1.392 . S
C1570 C1571 1.385 . S
C1570 C1572 1.478 . S
C1571 H1565 0.930 . S
C1571 C1567 1.400 1_655 S
C1571 C1570 1.385 . S
C1572 C1570 1.478 . S
C1572 C1574 1.381 . S
C1572 C1578 1.383 . S
C1573 C1569 1.495 . S
C1573 H1579 0.959 1_655 S
C1573 H1580 0.961 . S
C1573 H1581 0.960 . S
C1574 C1572 1.381 . S
C1574 C1575 1.394 . S
C1574 H1582 0.930 . S
C1575 C1574 1.394 . S
C1575 C1576 1.383 . S
C1575 H1583 0.929 . S
C1576 C1575 1.383 . S
C1576 C1577 1.377 . S
C1577 H1561 0.930 . S
C1577 C1576 1.377 . S
C1577 C1578 1.379 . S
C1578 H1562 0.931 . S
C1578 C1572 1.383 . S
C1578 C1577 1.379 . S
H1579 C1573 0.959 1_455 S
H1580 C1573 0.961 . S
H1581 C1573 0.960 . S
H1582 C1574 0.930 . S
H1583 C1575 0.929 . S
H1584 C1592 0.929 . S
H1585 C1594 0.930 . S
H1586 C1596 0.930 . S
H1587 C1599 0.929 . S
H1588 C1602 0.930 . S
H1589 C1604 0.944 1_565 S
H1590 C1604 0.960 . S
H1591 C1604 0.960 . S
C1592 H1584 0.929 . S
C1592 C1593 1.377 . S
C1592 C1594 1.384 . S
C1593 C1592 1.377 . S
C1593 C1599 1.390 . S
C1594 H1585 0.930 . S
C1594 C1592 1.384 . S
C1594 C1595 1.372 . S
C1595 C1594 1.372 . S
C1595 C1596 1.400 . S
C1595 C1600 1.490 . S
C1596 H1586 0.930 . S
C1596 C1595 1.400 . S
C1596 C1599 1.386 . S
H1597 C1613 0.930 . S
H1598 C1614 0.931 . S
C1599 H1587 0.929 . S
C1599 C1593 1.390 . S
C1599 C1596 1.386 . S
C1600 C1595 1.490 . S
C1600 C1602 1.395 . S
C1600 C1603 1.403 . S
H1601 C1607 0.930 . S
C1602 H1588 0.930 . S
C1602 C1600 1.395 . S
C1602 C1605 1.403 1_545 S
C1603 C1600 1.403 . S
C1603 C1604 1.524 . S
C1603 C1607 1.400 1_545 S
C1604 H1589 0.944 1_545 S
C1604 H1590 0.960 . S
C1604 H1591 0.960 . S
C1604 C1603 1.524 . S
C1605 C1602 1.403 1_565 S
C1605 C1606 1.392 . S
C1605 C1609 1.495 . S
C1606 C1605 1.392 . S
C1606 C1607 1.385 . S
C1606 C1608 1.478 . S
C1607 H1601 0.930 . S
C1607 C1603 1.400 1_565 S
C1607 C1606 1.385 . S
C1608 C1606 1.478 . S
C1608 C1610 1.381 . S
C1608 C1614 1.383 . S
C1609 C1605 1.495 . S
C1609 H1615 0.959 1_565 S
C1609 H1616 0.961 . S
C1609 H1617 0.960 . S
C1610 C1608 1.381 . S
C1610 C1611 1.394 . S
C1610 H1618 0.930 . S
C1611 C1610 1.394 . S
C1611 C1612 1.383 . S
C1611 H1619 0.929 . S
C1612 C1611 1.383 . S
C1612 C1613 1.377 . S
C1613 H1597 0.930 . S
C1613 C1612 1.377 . S
C1613 C1614 1.379 . S
C1614 H1598 0.931 . S
C1614 C1608 1.383 . S
C1614 C1613 1.379 . S
H1615 C1609 0.959 1_545 S
H1616 C1609 0.961 . S
H1617 C1609 0.960 . S
H1618 C1610 0.930 . S
H1619 C1611 0.929 . S
H1620 C1628 0.929 . S
H1621 C1630 0.930 . S
H1622 C1632 0.930 . S
H1623 C1635 0.929 . S
H1624 C1638 0.930 . S
H1625 C1640 0.960 . S
H1626 C1640 0.960 . S
H1627 C1640 0.960 . S
C1628 H1620 0.929 . S
C1628 C1629 1.377 . S
C1628 C1630 1.384 . S
C1629 C1628 1.377 . S
C1629 C1635 1.390 . S
C1630 H1621 0.930 . S
C1630 C1628 1.384 . S
C1630 C1631 1.372 . S
C1631 C1630 1.372 . S
C1631 C1632 1.400 . S
C1631 C1636 1.490 . S
C1632 H1622 0.930 . S
C1632 C1631 1.400 . S
C1632 C1635 1.386 . S
H1633 C1649 0.930 . S
H1634 C1650 0.931 . S
C1635 H1623 0.929 . S
C1635 C1629 1.390 . S
C1635 C1632 1.386 . S
C1636 C1631 1.490 . S
C1636 C1638 1.395 . S
C1636 C1639 1.403 . S
H1637 C1643 0.930 . S
C1638 H1624 0.930 . S
C1638 C1636 1.395 . S
C1638 C1641 1.403 1_655 S
C1639 C1636 1.403 . S
C1639 C1640 1.524 . S
C1639 C1643 1.400 1_655 S
C1640 H1625 0.960 . S
C1640 H1626 0.960 . S
C1640 H1627 0.960 . S
C1640 C1639 1.524 . S
C1641 C1638 1.403 1_455 S
C1641 C1642 1.392 . S
C1641 C1645 1.495 . S
C1642 C1641 1.392 . S
C1642 C1643 1.385 . S
C1642 C1644 1.478 . S
C1643 H1637 0.930 . S
C1643 C1639 1.400 1_455 S
C1643 C1642 1.385 . S
C1644 C1642 1.478 . S
C1644 C1646 1.381 . S
C1644 C1650 1.383 . S
C1645 C1641 1.495 . S
C1645 H1651 0.959 . S
C1645 H1652 0.961 . S
C1645 H1653 0.960 . S
C1646 C1644 1.381 . S
C1646 C1647 1.394 . S
C1646 H1654 0.930 . S
C1647 C1646 1.394 . S
C1647 C1648 1.383 . S
C1647 H1655 0.929 . S
C1648 C1647 1.383 . S
C1648 C1649 1.377 . S
C1649 H1633 0.930 . S
C1649 C1648 1.377 . S
C1649 C1650 1.379 . S
C1650 H1634 0.931 . S
C1650 C1644 1.383 . S
C1650 C1649 1.379 . S
H1651 C1645 0.959 . S
H1652 C1645 0.961 . S
H1653 C1645 0.960 . S
H1654 C1646 0.930 . S
H1655 C1647 0.929 . S
H1656 C1664 0.929 . S
H1657 C1666 0.930 . S
H1658 C1668 0.930 . S
H1659 C1671 0.929 . S
H1660 C1674 0.930 . S
H1661 C1676 0.960 . S
H1662 C1676 0.960 . S
H1663 C1676 0.960 . S
C1664 H1656 0.929 . S
C1664 C1665 1.377 . S
C1664 C1666 1.384 . S
C1665 C1664 1.377 . S
C1665 C1671 1.390 . S
C1666 H1657 0.930 . S
C1666 C1664 1.384 . S
C1666 C1667 1.372 . S
C1667 C1666 1.372 . S
C1667 C1668 1.400 . S
C1667 C1672 1.490 . S
C1668 H1658 0.930 . S
C1668 C1667 1.400 . S
C1668 C1671 1.386 . S
H1669 C1685 0.930 . S
H1670 C1686 0.931 . S
C1671 H1659 0.929 . S
C1671 C1665 1.390 . S
C1671 C1668 1.386 . S
C1672 C1667 1.490 . S
C1672 C1674 1.395 . S
C1672 C1675 1.403 . S
H1673 C1679 0.930 . S
C1674 H1660 0.930 . S
C1674 C1672 1.395 . S
C1674 C1677 1.403 1_565 S
C1675 C1672 1.403 . S
C1675 C1676 1.524 . S
C1675 C1679 1.400 1_565 S
C1676 H1661 0.960 . S
C1676 H1662 0.960 . S
C1676 H1663 0.960 . S
C1676 C1675 1.524 . S
C1677 C1674 1.403 1_545 S
C1677 C1678 1.392 . S
C1677 C1681 1.495 . S
C1678 C1677 1.392 . S
C1678 C1679 1.385 . S
C1678 C1680 1.478 . S
C1679 H1673 0.930 . S
C1679 C1675 1.400 1_545 S
C1679 C1678 1.385 . S
C1680 C1678 1.478 . S
C1680 C1682 1.381 . S
C1680 C1686 1.383 . S
C1681 C1677 1.495 . S
C1681 H1687 0.959 . S
C1681 H1688 0.961 . S
C1681 H1689 0.960 . S
C1682 C1680 1.381 . S
C1682 C1683 1.394 . S
C1682 H1690 0.930 . S
C1683 C1682 1.394 . S
C1683 C1684 1.383 . S
C1683 H1691 0.929 . S
C1684 C1683 1.383 . S
C1684 C1685 1.377 . S
C1685 H1669 0.930 . S
C1685 C1684 1.377 . S
C1685 C1686 1.379 . S
C1686 H1670 0.931 . S
C1686 C1680 1.383 . S
C1686 C1685 1.379 . S
H1687 C1681 0.959 . S
H1688 C1681 0.961 . S
H1689 C1681 0.960 . S
H1690 C1682 0.930 . S
H1691 C1683 0.929 . S
H1692 C1700 0.929 . S
H1693 C1702 0.930 . S
H1694 C1704 0.930 . S
H1695 C1707 0.929 . S
H1696 C1710 0.930 . S
H1697 C1712 0.960 1_655 S
H1698 C1712 0.960 . S
H1699 C1712 0.960 . S
C1700 H1692 0.929 . S
C1700 C1701 1.377 . S
C1700 C1702 1.384 . S
C1701 C1700 1.377 . S
C1701 C1707 1.390 . S
C1702 H1693 0.930 . S
C1702 C1700 1.384 . S
C1702 C1703 1.372 . S
C1703 C1702 1.372 . S
C1703 C1704 1.400 . S
C1703 C1708 1.490 . S
C1704 H1694 0.930 . S
C1704 C1703 1.400 . S
C1704 C1707 1.386 . S
H1705 C1721 0.930 . S
H1706 C1722 0.931 . S
C1707 H1695 0.929 . S
C1707 C1701 1.390 . S
C1707 C1704 1.386 . S
C1708 C1703 1.490 . S
C1708 C1710 1.395 . S
C1708 C1711 1.403 . S
H1709 C1715 0.930 . S
C1710 H1696 0.930 . S
C1710 C1708 1.395 . S
C1710 C1713 1.403 1_455 S
C1711 C1708 1.403 . S
C1711 C1712 1.524 . S
C1711 C1715 1.400 1_455 S
C1712 H1697 0.960 1_455 S
C1712 H1698 0.960 . S
C1712 H1699 0.960 . S
C1712 C1711 1.524 . S
C1713 C1710 1.403 1_655 S
C1713 C1714 1.392 . S
C1713 C1717 1.495 . S
C1714 C1713 1.392 . S
C1714 C1715 1.385 . S
C1714 C1716 1.478 . S
C1715 H1709 0.930 . S
C1715 C1711 1.400 1_655 S
C1715 C1714 1.385 . S
C1716 C1714 1.478 . S
C1716 C1718 1.381 . S
C1716 C1722 1.383 . S
C1717 C1713 1.495 . S
C1717 H1723 0.959 1_655 S
C1717 H1724 0.961 . S
C1717 H1725 0.960 . S
C1718 C1716 1.381 . S
C1718 C1719 1.394 . S
C1718 H1726 0.930 . S
C1719 C1718 1.394 . S
C1719 C1720 1.383 . S
C1719 H1727 0.929 . S
C1720 C1719 1.383 . S
C1720 C1721 1.377 . S
C1721 H1705 0.930 . S
C1721 C1720 1.377 . S
C1721 C1722 1.379 . S
C1722 H1706 0.931 . S
C1722 C1716 1.383 . S
C1722 C1721 1.379 . S
H1723 C1717 0.959 1_455 S
H1724 C1717 0.961 . S
H1725 C1717 0.960 . S
H1726 C1718 0.930 . S
H1727 C1719 0.929 . S
C585 C184 1.346 . S
C604 C4 1.346 . S
C621 C220 1.346 . S
C640 C40 1.346 . S
C657 C76 1.346 . S
C676 C256 1.346 . S
C693 C112 1.347 . S
C712 C148 1.341 . S
C729 C472 1.346 . S
C748 C292 1.345 . S
C765 C508 1.346 . S
C784 C328 1.345 . S
C801 C364 1.346 . S
C820 C544 1.346 . S
C837 C400 1.346 . S
C856 C436 1.346 . S
C873 C374 1.494 . S
C892 C14 1.502 . S
C909 C410 1.486 . S
C928 C50 1.470 . S
C945 C302 1.495 . S
C964 C86 1.509 . S
C981 C122 1.491 . S
C1000 C338 1.494 . S
C1017 C518 1.487 . S
C1036 C158 1.466 . S
C1053 C554 1.486 . S
C1072 C194 1.466 . S
C1089 C230 1.493 . S
C1108 C446 1.495 . S
C1125 C482 1.493 . S
C1144 C266 1.492 . S
C1161 C146 0.915 . S
C1180 C2 0.918 . S
C1197 C38 0.917 . S
C1216 C182 0.910 . S
C1233 C74 0.921 . S
C1252 C218 0.892 . S
C1269 C254 0.918 . S
C1288 C110 0.905 . S
C1305 C291 1.822 . S
C1324 C435 1.816 . S
C1341 C471 1.823 . S
C1360 C327 1.818 . S
C1377 C363 1.822 . S
C1396 C507 1.815 . S
C1413 C543 1.822 . S
C1432 C399 1.821 . S
C1449 C398 0.920 . S
C1468 C470 0.894 . S
C1485 C290 0.912 . S
C1504 C506 0.932 . S
C1521 C542 0.915 . S
C1540 C326 0.923 . S
C1557 C362 0.914 . S
C1576 C434 0.921 . S
C1593 C183 1.822 . S
C1612 C111 1.820 . S
C1629 C219 1.822 . S
C1648 C3 1.817 . S
C1665 C255 1.822 . S
C1684 C39 1.818 . S
C1701 C147 1.822 . S
C1720 C75 1.821 . S
