# Generated by pormake.
# Topology hcp, (12)-cn, num edge types: 1
# Building blocks:
#     Node 0, Type 0, BuildingBlock: ENOWUB_clean_sbu_0, # of connection points: 12
#     Node 1, Type 0, BuildingBlock: ENOWUB_clean_sbu_0, # of connection points: 12
#     Edge 2, Type (0, 0), BuildingBlock: KIFKEQ_clean_linker_1, # of connection points: 2
#     Edge 3, Type (0, 0), BuildingBlock: KIFKEQ_clean_linker_1, # of connection points: 2
#     Edge 4, Type (0, 0), BuildingBlock: KIFKEQ_clean_linker_1, # of connection points: 2
#     Edge 5, Type (0, 0), BuildingBlock: KIFKEQ_clean_linker_1, # of connection points: 2
#     Edge 6, Type (0, 0), BuildingBlock: KIFKEQ_clean_linker_1, # of connection points: 2
#     Edge 7, Type (0, 0), BuildingBlock: KIFKEQ_clean_linker_1, # of connection points: 2
#     Edge 8, Type (0, 0), BuildingBlock: KIFKEQ_clean_linker_1, # of connection points: 2
#     Edge 9, Type (0, 0), BuildingBlock: KIFKEQ_clean_linker_1, # of connection points: 2
#     Edge 10, Type (0, 0), BuildingBlock: KIFKEQ_clean_linker_1, # of connection points: 2
#     Edge 11, Type (0, 0), BuildingBlock: KIFKEQ_clean_linker_1, # of connection points: 2
#     Edge 12, Type (0, 0), BuildingBlock: KIFKEQ_clean_linker_1, # of connection points: 2
#     Edge 13, Type (0, 0), BuildingBlock: KIFKEQ_clean_linker_1, # of connection points: 2
# Relax obj value: 0.186
# Max RMSD: 0.270
# Mean RMSD: 0.270
data_MOF--net-hcp--node1-ENOWUB_clean_sbu_0--edge1-KIFKEQ_clean_linker_1
_symmetry_space_group_name_H-M    P1
_symmetry_Int_Tables_number       1
_symmetry_cell_setting            triclinic
loop_
_symmetry_equiv_pos_as_xyz
'x, y, z'
_cell_length_a     18.701174
_cell_length_b     18.756618
_cell_length_c     31.170237
_cell_angle_alpha  89.932023
_cell_angle_beta   89.943894
_cell_angle_gamma 120.05776
loop_
_atom_site_label
_atom_site_type_symbol
_atom_site_fract_x
_atom_site_fract_y
_atom_site_fract_z
_atom_type_partial_charge
O0 O 0.73645 0.2578 0.13818 0.0
O1 O 0.66696 0.21615 0.23069 0.0
O2 O 0.72929 0.44185 0.2268 0.0
O3 O 0.63184 0.3088 0.17661 0.0
O4 O 0.76331 0.34828 0.2776 0.0
Zr5 Zr 0.76183 0.3437 0.20236 0.0
Zr6 Zr 0.66717 0.22055 0.30594 0.0
Zr7 Zr 0.53728 0.17968 0.20344 0.0
O8 O 0.63242 0.31607 0.33131 0.0
O9 O 0.50041 0.27497 0.2278 0.0
O10 O 0.53692 0.18239 0.27874 0.0
Zr11 Zr 0.72868 0.44384 0.30223 0.0
Zr12 Zr 0.59796 0.4046 0.20128 0.0
Zr13 Zr 0.50257 0.2787 0.30315 0.0
O14 O 0.59803 0.40832 0.27627 0.0
O15 O 0.52513 0.38027 0.35887 0.0
O16 O 0.37725 0.14674 0.28903 0.0
O17 O 0.89652 0.4598 0.22253 0.0
O18 O 0.74487 0.57502 0.278 0.0
O19 O 0.56548 0.06645 0.21674 0.0
O20 O 0.46778 0.20193 0.14162 0.0
O21 O 0.8035 0.42409 0.3617 0.0
O22 O 0.56858 0.14615 0.36382 0.0
O23 O 0.68136 0.45944 0.13548 0.0
O24 O 0.47805 0.41662 0.22071 0.0
O25 O 0.80188 0.23347 0.29138 0.0
O26 O 0.66361 0.47625 0.36057 0.0
O27 O 0.59852 0.16025 0.13976 0.0
O28 O 0.39912 0.09027 0.22839 0.0
O29 O 0.87194 0.51578 0.28236 0.0
O30 O 0.81133 0.25147 0.21949 0.0
O31 O 0.42068 0.33771 0.28106 0.0
O32 O 0.47371 0.18932 0.36469 0.0
O33 O 0.78404 0.42664 0.1396 0.0
C34 C 0.67094 0.19503 0.1227 0.0
O35 O 0.75837 0.28606 0.36582 0.0
O36 O 0.6159 0.08135 0.28516 0.0
C37 C 0.58853 0.44575 0.37388 0.0
C38 C 0.35511 0.08996 0.26021 0.0
C39 C 0.91962 0.51227 0.25368 0.0
C40 C 0.71846 0.59718 0.24512 0.0
C41 C 0.59455 0.04479 0.24878 0.0
C42 C 0.46464 0.26529 0.12733 0.0
C43 C 0.80362 0.36096 0.37858 0.0
C44 C 0.50376 0.14531 0.3791 0.0
C45 C 0.74621 0.45938 0.12092 0.0
C46 C 0.42391 0.38656 0.25117 0.0
C47 C 0.84095 0.24642 0.2555 0.0
O48 O 0.50281 0.338 0.14348 0.0
O49 O 0.66932 0.54888 0.21615 0.0
O50 O 0.37161 0.81386 0.86219 0.0
O51 O 0.30408 0.6418 0.83206 0.0
O52 O 0.27277 0.74333 0.73032 0.0
O53 O 0.40195 0.77294 0.77992 0.0
O54 O 0.1736 0.61061 0.77848 0.0
Zr55 Zr 0.27146 0.73877 0.80549 0.0
Zr56 Zr 0.20832 0.51443 0.80301 0.0
Zr57 Zr 0.43388 0.67488 0.80481 0.0
O58 O 0.20769 0.51522 0.72775 0.0
O59 O 0.43577 0.67842 0.72933 0.0
O60 O 0.33792 0.54723 0.77678 0.0
Zr61 Zr 0.17676 0.61432 0.70339 0.0
Zr62 Zr 0.40318 0.77607 0.70481 0.0
Zr63 Zr 0.33797 0.55057 0.70152 0.0
O64 O 0.30638 0.6486 0.67713 0.0
O65 O 0.24616 0.48682 0.6392 0.0
O66 O 0.4692 0.55652 0.71521 0.0
O67 O 0.15237 0.75293 0.78628 0.0
O68 O 0.20395 0.70661 0.64167 0.0
O69 O 0.40792 0.57386 0.86184 0.0
O70 O 0.5661 0.79698 0.78718 0.0
O71 O 0.04979 0.48383 0.71732 0.0
O72 O 0.21399 0.39011 0.78701 0.0
O73 O 0.41554 0.90744 0.72559 0.0
O74 O 0.46294 0.75243 0.63951 0.0
O75 O 0.12763 0.53472 0.8586 0.0
O76 O 0.1501 0.52879 0.64152 0.0
O77 O 0.46517 0.76864 0.86473 0.0
O78 O 0.51698 0.61807 0.78079 0.0
O79 O 0.09916 0.67827 0.72452 0.0
O80 O 0.17503 0.67328 0.86424 0.0
O81 O 0.42126 0.61466 0.63895 0.0
O82 O 0.28256 0.40952 0.72299 0.0
O83 O 0.33671 0.88141 0.78629 0.0
C84 C 0.43583 0.81413 0.87776 0.0
O85 O 0.06972 0.42747 0.77851 0.0
O86 O 0.26867 0.48274 0.86346 0.0
C87 C 0.18253 0.48921 0.62457 0.0
C88 C 0.5211 0.5819 0.74663 0.0
C89 C 0.10059 0.72554 0.75475 0.0
C90 C 0.26818 0.77408 0.62896 0.0
C91 C 0.34286 0.51024 0.87733 0.0
C92 C 0.59131 0.84811 0.75534 0.0
C93 C 0.02636 0.42757 0.7466 0.0
C94 C 0.24309 0.36649 0.756 0.0
C95 C 0.3857 0.92942 0.75701 0.0
C96 C 0.45955 0.68759 0.62284 0.0
C97 C 0.1273 0.59759 0.87543 0.0
O98 O 0.54623 0.84881 0.7244 0.0
O99 O 0.33983 0.80845 0.64667 0.0
H100 H 0.49051 0.79092 0.95473 0.0
H101 H 0.49242 0.97765 0.8733 0.0
H102 H 0.56863 0.8946 0.00907 0.0
H103 H 0.57676 0.08303 0.92531 0.0
H104 H 0.61242 0.22264 0.05073 0.0
H105 H 0.56595 0.13511 0.98826 0.0
H106 H 0.68613 0.00453 0.03596 0.0
H107 H 0.72674 0.09015 0.10058 0.0
C108 C 0.50865 0.85461 0.94845 0.0
C109 C 0.4838 0.87633 0.91059 0.0
C110 C 0.55469 0.91458 0.97924 0.0
C111 C 0.57922 -0.00189 0.97216 0.0
C112 C 0.55724 0.01957 0.93296 0.0
C113 C 0.50893 0.95925 0.90294 0.0
C114 C 0.63114 0.17704 0.04696 0.0
C115 C 0.67355 0.16356 0.08001 0.0
C116 C 0.60457 0.12633 0.01097 0.0
C117 C 0.6208 0.06098 0.00679 0.0
C118 C 0.6702 0.05246 0.03837 0.0
C119 C 0.69541 0.10268 0.07498 0.0
H120 H 0.37319 0.64198 0.55015 0.0
H121 H 0.61801 0.73334 0.60009 0.0
H122 H 0.40776 0.59062 0.48702 0.0
H123 H 0.65754 0.69018 0.5346 0.0
H124 H 0.66583 0.49546 0.45088 0.0
H125 H 0.64382 0.57382 0.50619 0.0
H126 H 0.46462 0.58934 0.42451 0.0
H127 H 0.48189 0.50399 0.3715 0.0
C128 C 0.43603 0.65471 0.54627 0.0
C129 C 0.49285 0.69148 0.57968 0.0
C130 C 0.45646 0.62534 0.50986 0.0
C131 C 0.53542 0.63383 0.50545 0.0
C132 C 0.59511 0.67915 0.53718 0.0
C133 C 0.57352 0.70626 0.57433 0.0
C134 C 0.62111 0.5151 0.44528 0.0
C135 C 0.5742 0.49236 0.40755 0.0
C136 C 0.60927 0.56151 0.47668 0.0
C137 C 0.5522 0.58901 0.47046 0.0
C138 C 0.50741 0.56803 0.43161 0.0
C139 C 0.51727 0.51913 0.40094 0.0
H140 H 0.83527 0.61748 0.08997 0.0
H141 H 0.72863 0.36229 0.05512 0.0
H142 H 0.91922 0.65765 0.02438 0.0
H143 H 0.81427 0.39992 0.99183 0.0
H144 H 0.96663 0.47638 0.87456 0.0
H145 H 0.85862 0.45316 0.92561 0.0
H146 H 0.03729 0.65886 0.00138 0.0
H147 H 0.14324 0.68541 0.94805 0.0
C148 C 0.82767 0.57035 0.06737 0.0
C149 C 0.77476 0.48696 0.07694 0.0
C150 C 0.87699 0.5929 0.03027 0.0
C151 C 0.8753 0.53218 0.00278 0.0
C152 C 0.81731 0.44909 0.01129 0.0
C153 C 0.76759 0.42705 0.04772 0.0
C154 C -0.01749 0.51637 0.90225 0.0
C155 C 0.06346 0.58164 0.90789 0.0
C156 C 0.9206 0.50321 0.93165 0.0
C157 C 0.93863 0.55338 0.96829 0.0
C158 C 0.01994 0.61955 0.97342 0.0
C159 C 0.08129 0.63416 0.94322 0.0
H160 H 0.28956 0.92667 0.62259 0.0
H161 H 0.24871 0.71676 0.54746 0.0
H162 H 0.33507 0.01304 0.55852 0.0
H163 H 0.29467 0.80326 0.48283 0.0
H164 H 0.51783 0.01429 0.40759 0.0
H165 H 0.43797 0.91592 0.46401 0.0
H166 H 0.30267 0.04331 0.486 0.0
H167 H 0.38263 0.14212 0.42996 0.0
C168 C 0.2866 0.89835 0.59184 0.0
C169 C 0.26437 0.81505 0.58963 0.0
C170 C 0.31325 0.94784 0.55518 0.0
C171 C 0.31955 0.9152 0.51572 0.0
C172 C 0.29133 0.83025 0.51293 0.0
C173 C 0.26361 0.78042 0.54965 0.0
C174 C 0.47132 0.02163 0.42451 0.0
C175 C 0.45743 0.08679 0.4144 0.0
C176 C 0.42468 0.96447 0.45643 0.0
C177 C 0.3635 0.97146 0.47922 0.0
C178 C 0.34941 0.03635 0.46906 0.0
C179 C 0.39548 0.09306 0.43694 0.0
H180 H 0.50293 0.24447 0.04609 0.0
H181 H 0.33181 0.28473 0.11999 0.0
H182 H 0.46693 0.29403 0.98155 0.0
H183 H 0.29522 0.33407 0.05593 0.0
H184 H 0.22204 0.38998 0.92725 0.0
H185 H 0.23678 0.30755 0.98306 0.0
H186 H 0.50077 0.43751 0.96309 0.0
H187 H 0.48629 0.5199 0.90665 0.0
C188 C 0.45462 0.25992 0.04803 0.0
C189 C 0.41927 0.25962 0.08778 0.0
C190 C 0.43511 0.28989 0.01131 0.0
C191 C 0.3793 0.31941 0.01376 0.0
C192 C 0.33818 0.31156 0.0528 0.0
C193 C 0.35844 0.28251 0.08947 0.0
C194 C 0.28344 0.40122 0.93458 0.0
C195 C 0.35314 0.46238 0.91251 0.0
C196 C 0.2917 0.35371 0.96664 0.0
C197 C 0.36977 0.36551 0.97738 0.0
C198 C 0.43951 0.42595 0.95511 0.0
C199 C 0.43135 0.47403 0.92315 0.0
H200 H 0.80741 0.2442 0.42945 0.0
H201 H 0.93602 0.50698 0.40636 0.0
H202 H 0.9085 0.26263 0.48342 0.0
H203 H 0.03658 0.52539 0.46161 0.0
H204 H 0.23802 0.53423 0.54298 0.0
H205 H 0.14955 0.49808 0.47949 0.0
H206 H 0.94297 0.31922 0.55482 0.0
H207 H 0.03168 0.3553 0.61736 0.0
C208 C 0.857 0.30616 0.43597 0.0
C209 C 0.86293 0.37426 0.41361 0.0
C210 C 0.91509 0.31657 0.46704 0.0
C211 C -0.01911 0.39534 0.47675 0.0
C212 C -0.01268 0.46364 0.4544 0.0
C213 C 0.92892 0.45325 0.4232 0.0
C214 C 0.17485 0.48436 0.54518 0.0
C215 C 0.14206 0.44621 0.58477 0.0
C216 C 0.12367 0.46482 0.50914 0.0
C217 C 0.03885 0.40665 0.51223 0.0
C218 C 0.00802 0.36377 0.55107 0.0
C219 C 0.05903 0.38374 0.58695 0.0
H220 H 0.73274 0.05838 0.28214 0.0
H221 H 0.52898 0.90523 0.19794 0.0
H222 H 0.78511 0.96484 0.27592 0.0
H223 H 0.58235 0.80918 0.19216 0.0
H224 H 0.72932 0.68106 0.17231 0.0
H225 H 0.70967 0.79988 0.16751 0.0
H226 H 0.72419 0.82197 0.30562 0.0
H227 H 0.74284 0.70268 0.31056 0.0
C228 C 0.69848 0.00401 0.26247 0.0
C229 C 0.62468 -0.01291 0.24174 0.0
C230 C 0.72925 0.95103 0.25874 0.0
C231 C 0.6871 0.87972 0.23422 0.0
C232 C 0.61581 0.86441 0.2113 0.0
C233 C 0.58487 0.91843 0.21483 0.0
C234 C 0.73065 0.71291 0.20156 0.0
C235 C 0.73605 0.68224 0.24193 0.0
C236 C 0.71867 0.78011 0.19871 0.0
C237 C 0.71345 0.81816 0.23616 0.0
C238 C 0.7278 0.79309 0.27625 0.0
C239 C 0.73924 0.72542 0.27913 0.0
H240 H 0.03091 0.75016 0.68508 0.0
H241 H 0.00998 0.72751 0.82299 0.0
H242 H 0.88756 0.71232 0.67978 0.0
H243 H 0.86671 0.69589 0.81828 0.0
H244 H 0.5972 0.52196 0.79669 0.0
H245 H 0.74597 0.57615 0.79901 0.0
H246 H 0.77596 0.7286 0.68826 0.0
H247 H 0.6272 0.6685 0.68421 0.0
C248 C -0.00379 0.74085 0.71447 0.0
C249 C 0.03037 0.73959 0.75435 0.0
C250 C 0.91371 0.71905 0.71148 0.0
C251 C 0.86442 0.69784 0.74852 0.0
C252 C 0.90213 0.70827 0.78896 0.0
C253 C -0.01528 0.72854 0.79187 0.0
C254 C 0.63591 0.564 0.77177 0.0
C255 C 0.60157 0.58974 0.73967 0.0
C256 C 0.72117 0.59716 0.77378 0.0
C257 C 0.77348 0.65873 0.74458 0.0
C258 C 0.738 0.681 0.71112 0.0
C259 C 0.65264 0.64582 0.70836 0.0
H260 H 0.22173 0.01138 0.20872 0.0
H261 H 0.33123 -0.0122 0.32558 0.0
H262 H 0.1278 0.86296 0.20766 0.0
H263 H 0.24274 0.839 0.32316 0.0
H264 H 0.00914 0.58289 0.32475 0.0
H265 H 0.11433 0.72617 0.33009 0.0
H266 H 0.13022 0.74287 0.1915 0.0
H267 H 0.01907 0.5998 0.18654 0.0
C268 C 0.22351 0.97419 0.23488 0.0
C269 C 0.28165 0.01032 0.26777 0.0
C270 C 0.17181 0.88903 0.23365 0.0
C271 C 0.17937 0.83837 0.26455 0.0
C272 C 0.23464 0.87563 0.29888 0.0
C273 C 0.28466 0.96104 0.30071 0.0
C274 C 0.03705 0.61663 0.29541 0.0
C275 C 0.0047 0.58138 0.25524 0.0
C276 C 0.09751 0.69914 0.29844 0.0
C277 C 0.12847 0.74735 0.26122 0.0
C278 C 0.10475 0.7084 0.22087 0.0
C279 C 0.04272 0.62585 0.21788 0.0
H280 H 0.31552 0.33909 0.82284 0.0
H281 H 0.19658 0.2379 0.70177 0.0
H282 H 0.37494 0.25008 0.82244 0.0
H283 H 0.24962 0.14273 0.70273 0.0
H284 H 0.40254 0.02903 0.68904 0.0
H285 H 0.37143 0.14073 0.69139 0.0
H286 H 0.35513 0.12132 0.82995 0.0
H287 H 0.39293 0.01607 0.82745 0.0
C288 C 0.2986 0.2943 0.79729 0.0
C289 C 0.25059 0.29375 0.7627 0.0
C290 C 0.3334 0.24384 0.7967 0.0
C291 C 0.31864 0.19013 0.76207 0.0
C292 C 0.26496 0.18541 0.72912 0.0
C293 C 0.2324 0.23788 0.72908 0.0
C294 C 0.39628 0.0518 0.71994 0.0
C295 C 0.39821 0.01303 0.758 0.0
C296 C 0.37635 0.11426 0.72135 0.0
C297 C 0.35704 0.13758 0.76076 0.0
C298 C 0.36885 0.10508 0.79895 0.0
C299 C 0.39046 0.04433 0.79755 0.0
H300 H 0.35349 0.41873 0.31851 0.0
H301 H 0.33382 0.37813 0.1817 0.0
H302 H 0.21286 0.39507 0.32061 0.0
H303 H 0.19234 0.35067 0.18373 0.0
H304 H 0.93104 0.21798 0.31606 0.0
H305 H 0.0805 0.27178 0.31488 0.0
H306 H 0.09899 0.39751 0.19539 0.0
H307 H 0.95182 0.341 0.19527 0.0
C308 C 0.31953 0.40707 0.28874 0.0
C309 C 0.35348 0.39977 0.24994 0.0
C310 C 0.23885 0.39219 0.29003 0.0
C311 C 0.19088 0.36884 0.25261 0.0
C312 C 0.22775 0.36886 0.21317 0.0
C313 C 0.30893 0.38504 0.21181 0.0
C314 C 0.96733 0.25622 0.28944 0.0
C315 C 0.92948 0.27342 0.25538 0.0
C316 C 0.05281 0.28806 0.28897 0.0
C317 C 0.10141 0.33882 0.25488 0.0
C318 C 0.06329 0.35725 0.22155 0.0
C319 C -0.0215 0.32435 0.22155 0.0
H320 H 0.8816 0.35533 0.79061 0.0
H321 H 0.01755 0.31854 0.68991 0.0
H322 H 0.78552 0.20681 0.79373 0.0
H323 H 0.92579 0.17076 0.6941 0.0
H324 H 0.69143 0.91663 0.68721 0.0
H325 H 0.79565 0.06058 0.68146 0.0
H326 H 0.78442 0.08709 0.81885 0.0
H327 H 0.67536 0.94294 0.82388 0.0
C328 C 0.88853 0.31535 0.76799 0.0
C329 C 0.95403 0.34768 0.73864 0.0
C330 C 0.83543 0.23036 0.77057 0.0
C331 C 0.8489 0.17661 0.74472 0.0
C332 C 0.91263 0.21002 0.71407 0.0
C333 C 0.96434 0.29482 0.71094 0.0
C334 C 0.71341 0.95268 0.71636 0.0
C335 C 0.67488 0.91952 0.75586 0.0
C336 C 0.77301 0.03545 0.7131 0.0
C337 C 0.79644 0.08618 0.74951 0.0
C338 C 0.76527 0.05022 0.78994 0.0
C339 C 0.70452 0.96723 0.7931 0.0
loop_
_geom_bond_atom_site_label_1
_geom_bond_atom_site_label_2
_geom_bond_distance
_geom_bond_site_symmetry_2
_ccdc_geom_bond_type
O0 Zr5 2.207 . S
O0 C34 1.295 . S
O1 Zr5 2.133 . S
O1 Zr6 2.133 . S
O1 Zr7 2.133 . S
O2 Zr5 2.133 . S
O2 Zr11 2.133 . S
O2 Zr12 2.133 . S
O3 Zr5 2.133 . S
O3 Zr7 2.133 . S
O3 Zr12 2.133 . S
O4 Zr5 2.133 . S
O4 Zr6 2.133 . S
O4 Zr11 2.133 . S
Zr5 O0 2.207 . S
Zr5 O1 2.133 . S
Zr5 O2 2.133 . S
Zr5 O3 2.133 . S
Zr5 O4 2.133 . S
Zr5 O17 2.207 . S
Zr5 O30 2.207 . S
Zr5 O33 2.207 . S
Zr6 O1 2.133 . S
Zr6 O4 2.133 . S
Zr6 O8 2.133 . S
Zr6 O10 2.133 . S
Zr6 O22 2.207 . S
Zr6 O25 2.207 . S
Zr6 O35 2.207 . S
Zr6 O36 2.207 . S
Zr7 O1 2.133 . S
Zr7 O3 2.133 . S
Zr7 O9 2.133 . S
Zr7 O10 2.133 . S
Zr7 O19 2.207 . S
Zr7 O20 2.207 . S
Zr7 O27 2.207 . S
Zr7 O28 2.207 . S
O8 Zr6 2.133 . S
O8 Zr11 2.133 . S
O8 Zr13 2.133 . S
O9 Zr7 2.133 . S
O9 Zr12 2.133 . S
O9 Zr13 2.133 . S
O10 Zr6 2.133 . S
O10 Zr7 2.133 . S
O10 Zr13 2.133 . S
Zr11 O2 2.133 . S
Zr11 O4 2.133 . S
Zr11 O8 2.133 . S
Zr11 O14 2.133 . S
Zr11 O18 2.207 . S
Zr11 O21 2.207 . S
Zr11 O26 2.207 . S
Zr11 O29 2.207 . S
Zr12 O2 2.133 . S
Zr12 O3 2.133 . S
Zr12 O9 2.133 . S
Zr12 O14 2.133 . S
Zr12 O23 2.207 . S
Zr12 O24 2.207 . S
Zr12 O48 2.207 . S
Zr12 O49 2.207 . S
Zr13 O8 2.133 . S
Zr13 O9 2.133 . S
Zr13 O10 2.133 . S
Zr13 O14 2.133 . S
Zr13 O15 2.207 . S
Zr13 O16 2.207 . S
Zr13 O31 2.207 . S
Zr13 O32 2.207 . S
O14 Zr11 2.133 . S
O14 Zr12 2.133 . S
O14 Zr13 2.133 . S
O15 Zr13 2.207 . S
O15 C37 1.295 . S
O16 Zr13 2.207 . S
O16 C38 1.295 . S
O17 Zr5 2.207 . S
O17 C39 1.295 . S
O18 Zr11 2.207 . S
O18 C40 1.295 . S
O19 Zr7 2.207 . S
O19 C41 1.295 . S
O20 Zr7 2.207 . S
O20 C42 1.295 . S
O21 Zr11 2.207 . S
O21 C43 1.295 . S
O22 Zr6 2.207 . S
O22 C44 1.295 . S
O23 Zr12 2.207 . S
O23 C45 1.295 . S
O24 Zr12 2.207 . S
O24 C46 1.295 . S
O25 Zr6 2.207 . S
O25 C47 1.295 . S
O26 Zr11 2.207 . S
O26 C37 1.295 . S
O27 Zr7 2.207 . S
O27 C34 1.295 . S
O28 Zr7 2.207 . S
O28 C38 1.295 . S
O29 Zr11 2.207 . S
O29 C39 1.295 . S
O30 Zr5 2.207 . S
O30 C47 1.295 . S
O31 Zr13 2.207 . S
O31 C46 1.295 . S
O32 Zr13 2.207 . S
O32 C44 1.295 . S
O33 Zr5 2.207 . S
O33 C45 1.295 . S
C34 O0 1.295 . S
C34 O27 1.295 . S
O35 Zr6 2.207 . S
O35 C43 1.295 . S
O36 Zr6 2.207 . S
O36 C41 1.295 . S
C37 O15 1.295 . S
C37 O26 1.295 . S
C38 O16 1.295 . S
C38 O28 1.295 . S
C39 O17 1.295 . S
C39 O29 1.295 . S
C40 O18 1.295 . S
C40 O49 1.295 . S
C41 O19 1.295 . S
C41 O36 1.295 . S
C42 O20 1.295 . S
C42 O48 1.295 . S
C43 O21 1.295 . S
C43 O35 1.295 . S
C44 O22 1.295 . S
C44 O32 1.295 . S
C45 O23 1.295 . S
C45 O33 1.295 . S
C46 O24 1.295 . S
C46 O31 1.295 . S
C47 O25 1.295 . S
C47 O30 1.295 . S
O48 Zr12 2.207 . S
O48 C42 1.295 . S
O49 Zr12 2.207 . S
O49 C40 1.295 . S
O50 Zr55 2.207 . S
O50 C84 1.295 . S
O51 Zr55 2.133 . S
O51 Zr56 2.133 . S
O51 Zr57 2.133 . S
O52 Zr55 2.133 . S
O52 Zr61 2.133 . S
O52 Zr62 2.133 . S
O53 Zr55 2.133 . S
O53 Zr57 2.133 . S
O53 Zr62 2.133 . S
O54 Zr55 2.133 . S
O54 Zr56 2.133 . S
O54 Zr61 2.133 . S
Zr55 O50 2.207 . S
Zr55 O51 2.133 . S
Zr55 O52 2.133 . S
Zr55 O53 2.133 . S
Zr55 O54 2.133 . S
Zr55 O67 2.207 . S
Zr55 O80 2.207 . S
Zr55 O83 2.207 . S
Zr56 O51 2.133 . S
Zr56 O54 2.133 . S
Zr56 O58 2.133 . S
Zr56 O60 2.133 . S
Zr56 O72 2.207 . S
Zr56 O75 2.207 . S
Zr56 O85 2.207 . S
Zr56 O86 2.207 . S
Zr57 O51 2.133 . S
Zr57 O53 2.133 . S
Zr57 O59 2.133 . S
Zr57 O60 2.133 . S
Zr57 O69 2.207 . S
Zr57 O70 2.207 . S
Zr57 O77 2.207 . S
Zr57 O78 2.207 . S
O58 Zr56 2.133 . S
O58 Zr61 2.133 . S
O58 Zr63 2.133 . S
O59 Zr57 2.133 . S
O59 Zr62 2.133 . S
O59 Zr63 2.133 . S
O60 Zr56 2.133 . S
O60 Zr57 2.133 . S
O60 Zr63 2.133 . S
Zr61 O52 2.133 . S
Zr61 O54 2.133 . S
Zr61 O58 2.133 . S
Zr61 O64 2.133 . S
Zr61 O68 2.207 . S
Zr61 O71 2.207 . S
Zr61 O76 2.207 . S
Zr61 O79 2.207 . S
Zr62 O52 2.133 . S
Zr62 O53 2.133 . S
Zr62 O59 2.133 . S
Zr62 O64 2.133 . S
Zr62 O73 2.207 . S
Zr62 O74 2.207 . S
Zr62 O98 2.207 . S
Zr62 O99 2.207 . S
Zr63 O58 2.133 . S
Zr63 O59 2.133 . S
Zr63 O60 2.133 . S
Zr63 O64 2.133 . S
Zr63 O65 2.207 . S
Zr63 O66 2.207 . S
Zr63 O81 2.207 . S
Zr63 O82 2.207 . S
O64 Zr61 2.133 . S
O64 Zr62 2.133 . S
O64 Zr63 2.133 . S
O65 Zr63 2.207 . S
O65 C87 1.295 . S
O66 Zr63 2.207 . S
O66 C88 1.295 . S
O67 Zr55 2.207 . S
O67 C89 1.295 . S
O68 Zr61 2.207 . S
O68 C90 1.295 . S
O69 Zr57 2.207 . S
O69 C91 1.295 . S
O70 Zr57 2.207 . S
O70 C92 1.295 . S
O71 Zr61 2.207 . S
O71 C93 1.295 . S
O72 Zr56 2.207 . S
O72 C94 1.295 . S
O73 Zr62 2.207 . S
O73 C95 1.295 . S
O74 Zr62 2.207 . S
O74 C96 1.295 . S
O75 Zr56 2.207 . S
O75 C97 1.295 . S
O76 Zr61 2.207 . S
O76 C87 1.295 . S
O77 Zr57 2.207 . S
O77 C84 1.295 . S
O78 Zr57 2.207 . S
O78 C88 1.295 . S
O79 Zr61 2.207 . S
O79 C89 1.295 . S
O80 Zr55 2.207 . S
O80 C97 1.295 . S
O81 Zr63 2.207 . S
O81 C96 1.295 . S
O82 Zr63 2.207 . S
O82 C94 1.295 . S
O83 Zr55 2.207 . S
O83 C95 1.295 . S
C84 O50 1.295 . S
C84 O77 1.295 . S
O85 Zr56 2.207 . S
O85 C93 1.295 . S
O86 Zr56 2.207 . S
O86 C91 1.295 . S
C87 O65 1.295 . S
C87 O76 1.295 . S
C88 O66 1.295 . S
C88 O78 1.295 . S
C89 O67 1.295 . S
C89 O79 1.295 . S
C90 O68 1.295 . S
C90 O99 1.295 . S
C91 O69 1.295 . S
C91 O86 1.295 . S
C92 O70 1.295 . S
C92 O98 1.295 . S
C93 O71 1.295 . S
C93 O85 1.295 . S
C94 O72 1.295 . S
C94 O82 1.295 . S
C95 O73 1.295 . S
C95 O83 1.295 . S
C96 O74 1.295 . S
C96 O81 1.295 . S
C97 O75 1.295 . S
C97 O80 1.295 . S
O98 Zr62 2.207 . S
O98 C92 1.295 . S
O99 Zr62 2.207 . S
O99 C90 1.295 . S
H100 C108 0.950 . S
H101 C113 0.950 1_545 S
H102 C110 0.950 1_554 S
H103 C112 0.950 . S
H104 C114 0.950 . S
H105 C116 0.950 1_556 S
H106 C118 0.950 1_565 S
H107 C119 0.950 . S
C108 H100 0.950 . S
C108 C109 1.386 . S
C108 C110 1.391 . S
C109 C108 1.386 . S
C109 C113 1.393 . S
C110 H102 0.950 1_556 S
C110 C108 1.391 . S
C110 C111 1.400 1_565 S
C111 C110 1.400 1_545 S
C111 C112 1.398 . S
C111 C117 1.491 1_556 S
C112 H103 0.950 . S
C112 C111 1.398 . S
C112 C113 1.391 1_545 S
C113 H101 0.950 1_565 S
C113 C109 1.393 . S
C113 C112 1.391 1_565 S
C114 H104 0.950 . S
C114 C115 1.386 . S
C114 C116 1.391 . S
C115 C114 1.386 . S
C115 C119 1.393 . S
C116 H105 0.950 1_554 S
C116 C114 1.391 . S
C116 C117 1.400 . S
C117 C111 1.491 1_554 S
C117 C116 1.400 . S
C117 C118 1.398 . S
C118 H106 0.950 1_545 S
C118 C117 1.398 . S
C118 C119 1.391 . S
C119 H107 0.950 . S
C119 C115 1.393 . S
C119 C118 1.391 . S
H120 C128 0.950 . S
H121 C133 0.950 . S
H122 C130 0.950 . S
H123 C132 0.950 . S
H124 C134 0.950 . S
H125 C136 0.950 . S
H126 C138 0.950 . S
H127 C139 0.950 . S
C128 H120 0.950 . S
C128 C129 1.386 . S
C128 C130 1.391 . S
C129 C128 1.386 . S
C129 C133 1.393 . S
C130 H122 0.950 . S
C130 C128 1.391 . S
C130 C131 1.400 . S
C131 C130 1.400 . S
C131 C132 1.398 . S
C131 C137 1.491 . S
C132 H123 0.950 . S
C132 C131 1.398 . S
C132 C133 1.391 . S
C133 H121 0.950 . S
C133 C129 1.393 . S
C133 C132 1.391 . S
C134 H124 0.950 . S
C134 C135 1.386 . S
C134 C136 1.391 . S
C135 C134 1.386 . S
C135 C139 1.393 . S
C136 H125 0.950 . S
C136 C134 1.391 . S
C136 C137 1.400 . S
C137 C131 1.491 . S
C137 C136 1.400 . S
C137 C138 1.398 . S
C138 H126 0.950 . S
C138 C137 1.398 . S
C138 C139 1.391 . S
C139 H127 0.950 . S
C139 C135 1.393 . S
C139 C138 1.391 . S
H140 C148 0.950 . S
H141 C153 0.950 . S
H142 C150 0.950 1_455 S
H143 C152 0.950 1_556 S
H144 C154 0.950 1_655 S
H145 C156 0.950 . S
H146 C158 0.950 1_554 S
H147 C159 0.950 . S
C148 H140 0.950 . S
C148 C149 1.386 . S
C148 C150 1.391 . S
C149 C148 1.386 . S
C149 C153 1.393 . S
C150 H142 0.950 1_655 S
C150 C148 1.391 . S
C150 C151 1.400 . S
C151 C150 1.400 . S
C151 C152 1.398 . S
C151 C157 1.491 1_554 S
C152 H143 0.950 1_554 S
C152 C151 1.398 . S
C152 C153 1.391 . S
C153 H141 0.950 . S
C153 C149 1.393 . S
C153 C152 1.391 . S
C154 H144 0.950 1_455 S
C154 C155 1.386 . S
C154 C156 1.391 1_455 S
C155 C154 1.386 . S
C155 C159 1.393 . S
C156 H145 0.950 . S
C156 C154 1.391 1_655 S
C156 C157 1.400 . S
C157 C151 1.491 1_556 S
C157 C156 1.400 . S
C157 C158 1.398 1_655 S
C158 H146 0.950 1_556 S
C158 C157 1.398 1_455 S
C158 C159 1.391 . S
C159 H147 0.950 . S
C159 C155 1.393 . S
C159 C158 1.391 . S
H160 C168 0.950 . S
H161 C173 0.950 . S
H162 C170 0.950 . S
H163 C172 0.950 . S
H164 C174 0.950 . S
H165 C176 0.950 . S
H166 C178 0.950 . S
H167 C179 0.950 . S
C168 H160 0.950 . S
C168 C169 1.386 . S
C168 C170 1.391 . S
C169 C168 1.386 . S
C169 C173 1.393 . S
C170 H162 0.950 . S
C170 C168 1.391 . S
C170 C171 1.400 . S
C171 C170 1.400 . S
C171 C172 1.398 . S
C171 C177 1.491 . S
C172 H163 0.950 . S
C172 C171 1.398 . S
C172 C173 1.391 . S
C173 H161 0.950 . S
C173 C169 1.393 . S
C173 C172 1.391 . S
C174 H164 0.950 . S
C174 C175 1.386 . S
C174 C176 1.391 1_545 S
C175 C174 1.386 . S
C175 C179 1.393 . S
C176 H165 0.950 . S
C176 C174 1.391 1_565 S
C176 C177 1.400 . S
C177 C171 1.491 . S
C177 C176 1.400 . S
C177 C178 1.398 1_565 S
C178 H166 0.950 . S
C178 C177 1.398 1_545 S
C178 C179 1.391 . S
C179 H167 0.950 . S
C179 C175 1.393 . S
C179 C178 1.391 . S
H180 C188 0.950 . S
H181 C193 0.950 . S
H182 C190 0.950 . S
H183 C192 0.950 1_556 S
H184 C194 0.950 . S
H185 C196 0.950 . S
H186 C198 0.950 1_554 S
H187 C199 0.950 . S
C188 H180 0.950 . S
C188 C189 1.386 . S
C188 C190 1.391 . S
C189 C188 1.386 . S
C189 C193 1.393 . S
C190 H182 0.950 . S
C190 C188 1.391 . S
C190 C191 1.400 . S
C191 C190 1.400 . S
C191 C192 1.398 . S
C191 C197 1.491 1_554 S
C192 H183 0.950 1_554 S
C192 C191 1.398 . S
C192 C193 1.391 . S
C193 H181 0.950 . S
C193 C189 1.393 . S
C193 C192 1.391 . S
C194 H184 0.950 . S
C194 C195 1.386 . S
C194 C196 1.391 . S
C195 C194 1.386 . S
C195 C199 1.393 . S
C196 H185 0.950 . S
C196 C194 1.391 . S
C196 C197 1.400 . S
C197 C191 1.491 1_556 S
C197 C196 1.400 . S
C197 C198 1.398 . S
C198 H186 0.950 1_556 S
C198 C197 1.398 . S
C198 C199 1.391 . S
C199 H187 0.950 . S
C199 C195 1.393 . S
C199 C198 1.391 . S
H200 C208 0.950 . S
H201 C213 0.950 1_455 S
H202 C210 0.950 . S
H203 C212 0.950 . S
H204 C214 0.950 . S
H205 C216 0.950 . S
H206 C218 0.950 1_655 S
H207 C219 0.950 . S
C208 H200 0.950 . S
C208 C209 1.386 . S
C208 C210 1.391 . S
C209 C208 1.386 . S
C209 C213 1.393 . S
C210 H202 0.950 . S
C210 C208 1.391 . S
C210 C211 1.400 1_655 S
C211 C210 1.400 1_455 S
C211 C212 1.398 . S
C211 C217 1.491 . S
C212 H203 0.950 . S
C212 C211 1.398 . S
C212 C213 1.391 1_455 S
C213 H201 0.950 1_655 S
C213 C209 1.393 . S
C213 C212 1.391 1_655 S
C214 H204 0.950 . S
C214 C215 1.386 . S
C214 C216 1.391 . S
C215 C214 1.386 . S
C215 C219 1.393 . S
C216 H205 0.950 . S
C216 C214 1.391 . S
C216 C217 1.400 . S
C217 C211 1.491 . S
C217 C216 1.400 . S
C217 C218 1.398 . S
C218 H206 0.950 1_455 S
C218 C217 1.398 . S
C218 C219 1.391 . S
C219 H207 0.950 . S
C219 C215 1.393 . S
C219 C218 1.391 . S
H220 C228 0.950 . S
H221 C233 0.950 . S
H222 C230 0.950 . S
H223 C232 0.950 . S
H224 C234 0.950 . S
H225 C236 0.950 . S
H226 C238 0.950 . S
H227 C239 0.950 . S
C228 H220 0.950 . S
C228 C229 1.386 . S
C228 C230 1.391 1_545 S
C229 C228 1.386 . S
C229 C233 1.393 1_545 S
C230 H222 0.950 . S
C230 C228 1.391 1_565 S
C230 C231 1.400 . S
C231 C230 1.400 . S
C231 C232 1.398 . S
C231 C237 1.491 . S
C232 H223 0.950 . S
C232 C231 1.398 . S
C232 C233 1.391 . S
C233 H221 0.950 . S
C233 C229 1.393 1_565 S
C233 C232 1.391 . S
C234 H224 0.950 . S
C234 C235 1.386 . S
C234 C236 1.391 . S
C235 C234 1.386 . S
C235 C239 1.393 . S
C236 H225 0.950 . S
C236 C234 1.391 . S
C236 C237 1.400 . S
C237 C231 1.491 . S
C237 C236 1.400 . S
C237 C238 1.398 . S
C238 H226 0.950 . S
C238 C237 1.398 . S
C238 C239 1.391 . S
C239 H227 0.950 . S
C239 C235 1.393 . S
C239 C238 1.391 . S
H240 C248 0.950 . S
H241 C253 0.950 . S
H242 C250 0.950 . S
H243 C252 0.950 . S
H244 C254 0.950 . S
H245 C256 0.950 . S
H246 C258 0.950 . S
H247 C259 0.950 . S
C248 H240 0.950 . S
C248 C249 1.386 . S
C248 C250 1.391 1_455 S
C249 C248 1.386 . S
C249 C253 1.393 1_455 S
C250 H242 0.950 . S
C250 C248 1.391 1_655 S
C250 C251 1.400 . S
C251 C250 1.400 . S
C251 C252 1.398 . S
C251 C257 1.491 . S
C252 H243 0.950 . S
C252 C251 1.398 . S
C252 C253 1.391 . S
C253 H241 0.950 . S
C253 C249 1.393 1_655 S
C253 C252 1.391 . S
C254 H244 0.950 . S
C254 C255 1.386 . S
C254 C256 1.391 . S
C255 C254 1.386 . S
C255 C259 1.393 . S
C256 H245 0.950 . S
C256 C254 1.391 . S
C256 C257 1.400 . S
C257 C251 1.491 . S
C257 C256 1.400 . S
C257 C258 1.398 . S
C258 H246 0.950 . S
C258 C257 1.398 . S
C258 C259 1.391 . S
C259 H247 0.950 . S
C259 C255 1.393 . S
C259 C258 1.391 . S
H260 C268 0.950 . S
H261 C273 0.950 . S
H262 C270 0.950 . S
H263 C272 0.950 . S
H264 C274 0.950 . S
H265 C276 0.950 . S
H266 C278 0.950 . S
H267 C279 0.950 . S
C268 H260 0.950 . S
C268 C269 1.386 . S
C268 C270 1.391 1_545 S
C269 C268 1.386 . S
C269 C273 1.393 1_545 S
C270 H262 0.950 . S
C270 C268 1.391 1_565 S
C270 C271 1.400 . S
C271 C270 1.400 . S
C271 C272 1.398 . S
C271 C277 1.491 . S
C272 H263 0.950 . S
C272 C271 1.398 . S
C272 C273 1.391 . S
C273 H261 0.950 . S
C273 C269 1.393 1_565 S
C273 C272 1.391 . S
C274 H264 0.950 . S
C274 C275 1.386 1_455 S
C274 C276 1.391 . S
C275 C274 1.386 1_655 S
C275 C279 1.393 . S
C276 H265 0.950 . S
C276 C274 1.391 . S
C276 C277 1.400 . S
C277 C271 1.491 . S
C277 C276 1.400 . S
C277 C278 1.398 . S
C278 H266 0.950 . S
C278 C277 1.398 . S
C278 C279 1.391 1_455 S
C279 H267 0.950 . S
C279 C275 1.393 . S
C279 C278 1.391 1_655 S
H280 C288 0.950 . S
H281 C293 0.950 . S
H282 C290 0.950 . S
H283 C292 0.950 . S
H284 C294 0.950 . S
H285 C296 0.950 . S
H286 C298 0.950 . S
H287 C299 0.950 . S
C288 H280 0.950 . S
C288 C289 1.386 . S
C288 C290 1.391 . S
C289 C288 1.386 . S
C289 C293 1.393 . S
C290 H282 0.950 . S
C290 C288 1.391 . S
C290 C291 1.400 . S
C291 C290 1.400 . S
C291 C292 1.398 . S
C291 C297 1.491 . S
C292 H283 0.950 . S
C292 C291 1.398 . S
C292 C293 1.391 . S
C293 H281 0.950 . S
C293 C289 1.393 . S
C293 C292 1.391 . S
C294 H284 0.950 . S
C294 C295 1.386 . S
C294 C296 1.391 1_565 S
C295 C294 1.386 . S
C295 C299 1.393 1_565 S
C296 H285 0.950 . S
C296 C294 1.391 1_545 S
C296 C297 1.400 . S
C297 C291 1.491 . S
C297 C296 1.400 . S
C297 C298 1.398 . S
C298 H286 0.950 . S
C298 C297 1.398 . S
C298 C299 1.391 . S
C299 H287 0.950 . S
C299 C295 1.393 1_545 S
C299 C298 1.391 . S
H300 C308 0.950 . S
H301 C313 0.950 . S
H302 C310 0.950 . S
H303 C312 0.950 . S
H304 C314 0.950 . S
H305 C316 0.950 . S
H306 C318 0.950 . S
H307 C319 0.950 . S
C308 H300 0.950 . S
C308 C309 1.386 . S
C308 C310 1.391 . S
C309 C308 1.386 . S
C309 C313 1.393 . S
C310 H302 0.950 . S
C310 C308 1.391 . S
C310 C311 1.400 . S
C311 C310 1.400 . S
C311 C312 1.398 . S
C311 C317 1.491 . S
C312 H303 0.950 . S
C312 C311 1.398 . S
C312 C313 1.391 . S
C313 H301 0.950 . S
C313 C309 1.393 . S
C313 C312 1.391 . S
C314 H304 0.950 . S
C314 C315 1.386 . S
C314 C316 1.391 1_655 S
C315 C314 1.386 . S
C315 C319 1.393 1_655 S
C316 H305 0.950 . S
C316 C314 1.391 1_455 S
C316 C317 1.400 . S
C317 C311 1.491 . S
C317 C316 1.400 . S
C317 C318 1.398 . S
C318 H306 0.950 . S
C318 C317 1.398 . S
C318 C319 1.391 . S
C319 H307 0.950 . S
C319 C315 1.393 1_455 S
C319 C318 1.391 . S
H320 C328 0.950 . S
H321 C333 0.950 . S
H322 C330 0.950 . S
H323 C332 0.950 . S
H324 C334 0.950 . S
H325 C336 0.950 . S
H326 C338 0.950 . S
H327 C339 0.950 . S
C328 H320 0.950 . S
C328 C329 1.386 1_655 S
C328 C330 1.391 . S
C329 C328 1.386 1_455 S
C329 C333 1.393 . S
C330 H322 0.950 . S
C330 C328 1.391 . S
C330 C331 1.400 . S
C331 C330 1.400 . S
C331 C332 1.398 . S
C331 C337 1.491 . S
C332 H323 0.950 . S
C332 C331 1.398 . S
C332 C333 1.391 1_655 S
C333 H321 0.950 . S
C333 C329 1.393 . S
C333 C332 1.391 1_455 S
C334 H324 0.950 . S
C334 C335 1.386 . S
C334 C336 1.391 1_565 S
C335 C334 1.386 . S
C335 C339 1.393 1_565 S
C336 H325 0.950 . S
C336 C334 1.391 1_545 S
C336 C337 1.400 . S
C337 C331 1.491 . S
C337 C336 1.400 . S
C337 C338 1.398 . S
C338 H326 0.950 . S
C338 C337 1.398 . S
C338 C339 1.391 . S
C339 H327 0.950 . S
C339 C335 1.393 1_545 S
C339 C338 1.391 . S
C109 C84 1.844 . S
C115 C34 1.713 . S
C129 C96 1.742 . S
C135 C37 1.851 . S
C149 C45 1.714 . S
C155 C97 1.845 . S
C169 C90 1.717 . S
C175 C44 1.845 . S
C189 C42 1.730 . S
C195 C91 1.848 . S
C209 C43 1.845 . S
C215 C87 1.714 . S
C229 C41 1.131 . S
C235 C40 1.131 . S
C249 C89 1.124 . S
C255 C88 1.124 . S
C269 C38 1.125 . S
C275 C39 1.125 . S
C289 C94 1.132 . S
C295 C95 1.132 . S
C309 C46 1.121 . S
C315 C47 1.121 . S
C329 C93 1.130 . S
C335 C92 1.130 . S
