# Generated by pormake.
# Topology wjh, (4)-cn, num edge types: 1
# Building blocks:
#     Node 0, Type 0, BuildingBlock: QUQFOY_clean_sbu_3, # of connection points: 4
#     Node 1, Type 0, BuildingBlock: QUQFOY_clean_sbu_3, # of connection points: 4
#     Node 2, Type 0, BuildingBlock: QUQFOY_clean_sbu_3, # of connection points: 4
#     Node 3, Type 0, BuildingBlock: QUQFOY_clean_sbu_3, # of connection points: 4
#     Node 4, Type 0, BuildingBlock: QUQFOY_clean_sbu_3, # of connection points: 4
#     Node 5, Type 0, BuildingBlock: QUQFOY_clean_sbu_3, # of connection points: 4
#     Node 6, Type 0, BuildingBlock: QUQFOY_clean_sbu_3, # of connection points: 4
#     Node 7, Type 0, BuildingBlock: QUQFOY_clean_sbu_3, # of connection points: 4
#     Node 8, Type 0, BuildingBlock: QUQFOY_clean_sbu_3, # of connection points: 4
#     Node 9, Type 0, BuildingBlock: QUQFOY_clean_sbu_3, # of connection points: 4
#     Node 10, Type 0, BuildingBlock: QUQFOY_clean_sbu_3, # of connection points: 4
#     Node 11, Type 0, BuildingBlock: QUQFOY_clean_sbu_3, # of connection points: 4
#     Edge 12, Type (0, 0), BuildingBlock: MIFKUJ_clean_linker_0, # of connection points: 2
#     Edge 13, Type (0, 0), BuildingBlock: MIFKUJ_clean_linker_0, # of connection points: 2
#     Edge 14, Type (0, 0), BuildingBlock: MIFKUJ_clean_linker_0, # of connection points: 2
#     Edge 15, Type (0, 0), BuildingBlock: MIFKUJ_clean_linker_0, # of connection points: 2
#     Edge 16, Type (0, 0), BuildingBlock: MIFKUJ_clean_linker_0, # of connection points: 2
#     Edge 17, Type (0, 0), BuildingBlock: MIFKUJ_clean_linker_0, # of connection points: 2
#     Edge 18, Type (0, 0), BuildingBlock: MIFKUJ_clean_linker_0, # of connection points: 2
#     Edge 19, Type (0, 0), BuildingBlock: MIFKUJ_clean_linker_0, # of connection points: 2
#     Edge 20, Type (0, 0), BuildingBlock: MIFKUJ_clean_linker_0, # of connection points: 2
#     Edge 21, Type (0, 0), BuildingBlock: MIFKUJ_clean_linker_0, # of connection points: 2
#     Edge 22, Type (0, 0), BuildingBlock: MIFKUJ_clean_linker_0, # of connection points: 2
#     Edge 23, Type (0, 0), BuildingBlock: MIFKUJ_clean_linker_0, # of connection points: 2
#     Edge 24, Type (0, 0), BuildingBlock: MIFKUJ_clean_linker_0, # of connection points: 2
#     Edge 25, Type (0, 0), BuildingBlock: MIFKUJ_clean_linker_0, # of connection points: 2
#     Edge 26, Type (0, 0), BuildingBlock: MIFKUJ_clean_linker_0, # of connection points: 2
#     Edge 27, Type (0, 0), BuildingBlock: MIFKUJ_clean_linker_0, # of connection points: 2
#     Edge 28, Type (0, 0), BuildingBlock: MIFKUJ_clean_linker_0, # of connection points: 2
#     Edge 29, Type (0, 0), BuildingBlock: MIFKUJ_clean_linker_0, # of connection points: 2
#     Edge 30, Type (0, 0), BuildingBlock: MIFKUJ_clean_linker_0, # of connection points: 2
#     Edge 31, Type (0, 0), BuildingBlock: MIFKUJ_clean_linker_0, # of connection points: 2
#     Edge 32, Type (0, 0), BuildingBlock: MIFKUJ_clean_linker_0, # of connection points: 2
#     Edge 33, Type (0, 0), BuildingBlock: MIFKUJ_clean_linker_0, # of connection points: 2
#     Edge 34, Type (0, 0), BuildingBlock: MIFKUJ_clean_linker_0, # of connection points: 2
#     Edge 35, Type (0, 0), BuildingBlock: MIFKUJ_clean_linker_0, # of connection points: 2
# Relax obj value: 0.076
# Max RMSD: 0.098
# Mean RMSD: 0.098
data_MOF--net-wjh--node1-QUQFOY_clean_sbu_3--edge1-MIFKUJ_clean_linker_0
_symmetry_space_group_name_H-M    P1
_symmetry_Int_Tables_number       1
_symmetry_cell_setting            triclinic
loop_
_symmetry_equiv_pos_as_xyz
'x, y, z'
_cell_length_a     83.051403
_cell_length_b     83.553359
_cell_length_c     35.863178
_cell_angle_alpha  90.347846
_cell_angle_beta   89.790045
_cell_angle_gamma 119.97559
loop_
_atom_site_label
_atom_site_type_symbol
_atom_site_fract_x
_atom_site_fract_y
_atom_site_fract_z
_atom_type_partial_charge
C0 C 0.5104 0.11894 0.96134 0.0
O1 O 0.51556 0.11032 -0.01723 0.0
Cd2 Cd 0.50541 0.10051 0.04432 0.0
O3 O 0.49881 0.12379 0.97272 0.0
Cd4 Cd 0.48202 0.12126 0.03387 0.0
C5 C 0.45807 0.07434 0.02915 0.0
O6 O 0.50792 0.12707 0.07395 0.0
O7 O 0.48185 0.11742 0.10223 0.0
O8 O 0.48952 0.15336 0.0282 0.0
C9 C 0.4992 0.12371 0.10447 0.0
O10 O 0.47364 0.07561 0.03665 0.0
C11 C 0.47348 0.15062 0.03653 0.0
O12 O 0.45666 0.08876 0.02533 0.0
O13 O 0.4608 0.13389 0.04074 0.0
C14 C 0.37139 0.52165 0.12708 0.0
O15 O 0.3848 0.52884 0.15005 0.0
Cd16 Cd 0.38493 0.51999 0.21252 0.0
O17 O 0.35547 0.50835 0.13685 0.0
Cd18 Cd 0.34098 0.49145 0.19715 0.0
C19 C 0.36936 0.4731 0.20079 0.0
O20 O 0.35779 0.51839 0.23658 0.0
O21 O 0.34315 0.49275 0.26611 0.0
O22 O 0.31432 0.49538 0.18524 0.0
C23 C 0.35276 0.5102 0.2675 0.0
O24 O 0.38181 0.4895 0.20934 0.0
C25 C 0.30201 0.47933 0.19541 0.0
O26 O 0.35288 0.46943 0.19274 0.0
O27 O 0.30762 0.46809 0.20303 0.0
C28 C 0.8308 0.38208 0.2995 0.0
O29 O 0.83837 0.39538 0.32257 0.0
Cd30 Cd 0.84704 0.39448 0.38488 0.0
O31 O 0.82651 0.3657 0.30919 0.0
Cd32 Cd 0.8288 0.35089 0.36915 0.0
C33 C 0.87594 0.37615 0.37035 0.0
O34 O 0.82119 0.36885 0.41179 0.0
O35 O 0.83281 0.3537 0.43751 0.0
O36 O 0.79658 0.32657 0.36441 0.0
C37 C 0.82527 0.36357 0.44143 0.0
O38 O 0.87305 0.38921 0.37989 0.0
C39 C 0.79925 0.31307 0.36962 0.0
O40 O 0.86234 0.36015 0.36238 0.0
O41 O 0.81609 0.31683 0.37115 0.0
C42 C 0.43204 0.83743 0.46399 0.0
O43 O 0.42574 0.84518 0.48539 0.0
Cd44 Cd 0.4367 0.8572 0.54565 0.0
O45 O 0.44492 0.8344 0.47494 0.0
Cd46 Cd 0.46229 0.83814 0.5354 0.0
C47 C 0.48395 0.88474 0.52697 0.0
O48 O 0.43668 0.8323 0.5761 0.0
O49 O 0.46311 0.8435 0.60359 0.0
O50 O 0.45505 0.80613 0.5317 0.0
C51 C 0.4457 0.8368 0.60629 0.0
O52 O 0.46806 0.88264 0.53509 0.0
C53 C 0.47126 0.80914 0.53904 0.0
O54 O 0.48631 0.87081 0.524 0.0
O55 O 0.48397 0.82598 0.54161 0.0
C56 C 0.57677 0.44036 0.62481 0.0
O57 O 0.56279 0.4326 0.64632 0.0
Cd58 Cd 0.56085 0.44128 0.70835 0.0
O59 O 0.59223 0.45383 0.63629 0.0
Cd60 Cd 0.60491 0.47014 0.69815 0.0
C61 C 0.57617 0.48802 0.69602 0.0
O62 O 0.58722 0.44277 0.73603 0.0
O63 O 0.60074 0.46835 0.76656 0.0
O64 O 0.63302 0.46819 0.68672 0.0
C65 C 0.59134 0.45088 0.76726 0.0
O66 O 0.56353 0.47159 0.70361 0.0
C67 C 0.6442 0.48382 0.70097 0.0
O68 O 0.59292 0.49181 0.69066 0.0
O69 O 0.63736 0.49383 0.71071 0.0
C70 C 0.11421 0.58084 0.79731 0.0
O71 O 0.10537 0.56698 0.81845 0.0
Cd72 Cd 0.09348 0.56644 0.8785 0.0
O73 O 0.11839 0.59707 0.80833 0.0
Cd74 Cd 0.1148 0.61104 0.86896 0.0
C75 C 0.06781 0.58789 0.85981 0.0
O76 O 0.11932 0.59055 0.90934 0.0
O77 O 0.10933 0.60673 0.93718 0.0
O78 O 0.14734 0.63535 0.86629 0.0
C79 C 0.11522 0.59541 0.93964 0.0
O80 O 0.06895 0.57364 0.86755 0.0
C81 C 0.14462 0.64868 0.87381 0.0
O82 O 0.08237 0.60379 0.85745 0.0
O83 O 0.12778 0.64481 0.87606 0.0
C84 C 0.8341 0.44563 0.92875 0.0
O85 O 0.84305 0.44048 0.90782 0.0
Cd86 Cd 0.84865 0.44541 0.84279 0.0
O87 O 0.82759 0.45553 0.91608 0.0
Cd88 Cd 0.82933 0.47017 0.85356 0.0
C89 C 0.87656 0.49251 0.84539 0.0
O90 O 0.82071 0.44199 0.81804 0.0
O91 O 0.82949 0.46644 0.78541 0.0
O92 O 0.79871 0.46718 0.86563 0.0
C93 C 0.82284 0.44913 0.78615 0.0
O94 O 0.87423 0.47668 0.83688 0.0
C95 C 0.80268 0.48256 0.85116 0.0
O96 O 0.86287 0.4943 0.85621 0.0
O97 O 0.8194 0.4928 0.8408 0.0
C98 C 0.3741 0.84101 0.09117 0.0
O99 O 0.38754 0.84912 0.06846 0.0
Cd100 Cd 0.38646 0.85776 0.00614 0.0
O101 O 0.35749 0.83626 0.08138 0.0
Cd102 Cd 0.34213 0.8376 0.02147 0.0
C103 C 0.36554 0.88445 0.01808 0.0
O104 O 0.36137 0.83092 -0.01932 0.0
O105 O 0.34481 0.84028 0.95264 0.0
O106 O 0.3177 0.80557 0.02905 0.0
C107 C 0.35587 0.83401 0.95023 0.0
O108 O 0.37926 0.88256 0.00831 0.0
C109 C 0.30417 0.80807 0.02195 0.0
O110 O 0.35011 0.87046 0.02771 0.0
O111 O 0.30803 0.82472 0.01776 0.0
C112 C 0.51796 0.38176 0.25003 0.0
O113 O 0.52428 0.39479 0.22648 0.0
Cd114 Cd 0.51426 0.39364 0.16448 0.0
O115 O 0.50516 0.36548 0.2409 0.0
Cd116 Cd 0.4876 0.34994 0.18151 0.0
C117 C 0.46727 0.37651 0.182 0.0
O118 O 0.5134 0.36709 0.13966 0.0
O119 O 0.48682 0.3522 0.11272 0.0
O120 O 0.49378 0.32465 0.19014 0.0
C121 C 0.50433 0.36189 0.10957 0.0
O122 O 0.48327 0.38931 0.17187 0.0
C123 C 0.47746 0.31169 0.18289 0.0
O124 O 0.46445 0.36036 0.18923 0.0
O125 O 0.46514 0.3163 0.17841 0.0
C126 C 0.11815 0.52301 0.42484 0.0
O127 O 0.11073 0.52975 0.40399 0.0
Cd128 Cd 0.0977 0.51862 0.34429 0.0
O129 O 0.12044 0.50973 0.41348 0.0
Cd130 Cd 0.11615 0.49235 0.35268 0.0
C131 C 0.06933 0.47153 0.36189 0.0
O132 O 0.12183 0.51758 0.31188 0.0
O133 O 0.11014 0.49107 0.28484 0.0
O134 O 0.14836 0.49965 0.35379 0.0
C135 C 0.11679 0.50835 0.28192 0.0
O136 O 0.07182 0.48753 0.35464 0.0
C137 C 0.14529 0.48338 0.3479 0.0
O138 O 0.08311 0.4688 0.36418 0.0
O139 O 0.12834 0.47064 0.34709 0.0
C140 C 0.57307 0.11807 0.59205 0.0
O141 O 0.55903 0.10939 0.571 0.0
Cd142 Cd 0.55883 0.10348 0.50614 0.0
O143 O 0.58956 0.12429 0.57947 0.0
Cd144 Cd 0.60311 0.12279 0.517 0.0
C145 C 0.57857 0.07579 0.5093 0.0
O146 O 0.58342 0.13062 0.47988 0.0
O147 O 0.59947 0.12137 0.44888 0.0
O148 O 0.62877 0.1543 0.52604 0.0
C149 C 0.58865 0.12793 0.44848 0.0
O150 O 0.56501 0.07826 0.50174 0.0
C151 C 0.64158 0.15128 0.5152 0.0
O152 O 0.59427 0.08939 0.51914 0.0
O153 O 0.63681 0.13455 0.50833 0.0
C154 C 0.42751 0.5807 0.75148 0.0
O155 O 0.42043 0.56736 0.72839 0.0
Cd156 Cd 0.42953 0.56755 0.66578 0.0
O157 O 0.44061 0.59663 0.74153 0.0
Cd158 Cd 0.45764 0.61121 0.68135 0.0
C159 C 0.47665 0.58351 0.67905 0.0
O160 O 0.43104 0.59426 0.64084 0.0
O161 O 0.45733 0.60863 0.6126 0.0
O162 O 0.45286 0.63734 0.69205 0.0
C163 C 0.43979 0.59913 0.61033 0.0
O164 O 0.46027 0.57102 0.67013 0.0
C165 C 0.4692 0.64984 0.68358 0.0
O166 O 0.48015 0.59989 0.68673 0.0
O167 O 0.4809 0.64457 0.67716 0.0
H168 H 0.48519 0.12098 0.17474 0.0
H169 H 0.50082 0.12316 0.234 0.0
H170 H 0.5497 0.13192 0.1742 0.0
H171 H 0.5343 0.12989 0.11502 0.0
H172 H 0.5379 0.10475 0.22963 0.0
H173 H 0.55054 0.16738 0.21472 0.0
H174 H 0.542 0.19139 0.20502 0.0
H175 H 0.50914 0.17457 0.305 0.0
H176 H 0.51728 0.15028 0.31502 0.0
H177 H 0.60107 0.12888 0.37771 0.0
H178 H 0.58627 0.12978 0.31958 0.0
H179 H 0.54225 0.13068 0.38223 0.0
H180 H 0.55741 0.13056 0.44045 0.0
H181 H 0.55084 0.15275 0.32554 0.0
H182 H 0.53706 0.09032 0.34147 0.0
H183 H 0.54403 0.06528 0.35211 0.0
H184 H 0.5766 0.07991 0.25176 0.0
H185 H 0.57003 0.10522 0.24079 0.0
C186 C 0.49928 0.12341 0.17428 0.0
C187 C 0.50853 0.12525 0.14031 0.0
C188 C 0.50819 0.12472 0.20807 0.0
C189 C 0.52641 0.12778 0.20833 0.0
C190 C 0.53563 0.12956 0.17448 0.0
C191 C 0.52683 0.12845 0.14075 0.0
C192 C 0.53579 0.1287 0.24384 0.0
C193 C 0.54096 0.11536 0.25047 0.0
C194 C 0.5392 0.14223 0.27131 0.0
C195 C 0.53436 0.15688 0.2654 0.0
C196 C 0.54136 0.16869 0.23446 0.0
C197 C 0.53662 0.18238 0.22894 0.0
C198 C 0.52499 0.18447 0.25432 0.0
C199 C 0.51812 0.17292 0.28534 0.0
C200 C 0.52281 0.1592 0.29096 0.0
C201 C 0.5883 0.12939 0.37903 0.0
C202 C 0.5803 0.12951 0.41351 0.0
C203 C 0.57981 0.12981 0.34584 0.0
C204 C 0.56293 0.12988 0.34655 0.0
C205 C 0.55522 0.13056 0.38101 0.0
C206 C 0.56388 0.13045 0.41424 0.0
C207 C 0.55311 0.12884 0.31139 0.0
C208 C 0.5478 0.14211 0.30481 0.0
C209 C 0.54931 0.11506 0.28411 0.0
C210 C 0.55319 0.09978 0.2905 0.0
C211 C 0.54581 0.08828 0.32181 0.0
C212 C 0.54968 0.07403 0.32788 0.0
C213 C 0.56079 0.07104 0.30268 0.0
C214 C 0.56801 0.08226 0.27129 0.0
C215 C 0.56421 0.09655 0.26511 0.0
H216 H 0.56376 0.05999 0.30743 0.0
H217 H 0.52134 0.19507 0.25 0.0
H218 H 0.38192 0.54504 0.27631 0.0
H219 H 0.39577 0.56115 0.3348 0.0
H220 H 0.35452 0.51446 0.39682 0.0
H221 H 0.34067 0.49803 0.3382 0.0
H222 H 0.36256 0.55186 0.4218 0.0
H223 H 0.39262 0.5165 0.39162 0.0
H224 H 0.40943 0.50621 0.35004 0.0
H225 H 0.4541 0.56218 0.33985 0.0
H226 H 0.4374 0.57284 0.38093 0.0
H227 H 0.40422 0.57136 0.59979 0.0
H228 H 0.38883 0.55774 0.54083 0.0
H229 H 0.4381 0.59658 0.48094 0.0
H230 H 0.45386 0.60986 0.54017 0.0
H231 H 0.42582 0.56389 0.4533 0.0
H232 H 0.39768 0.59994 0.48382 0.0
H233 H 0.38133 0.61173 0.52285 0.0
H234 H 0.33392 0.55713 0.52974 0.0
H235 H 0.35008 0.54495 0.49117 0.0
C236 C 0.3757 0.53824 0.30238 0.0
C237 C 0.3603 0.52024 0.30281 0.0
C238 C 0.38364 0.54745 0.33568 0.0
C239 C 0.37618 0.53891 0.36989 0.0
C240 C 0.36042 0.52121 0.37053 0.0
C241 C 0.35261 0.51185 0.33715 0.0
C242 C 0.38541 0.54822 0.40493 0.0
C243 C 0.37629 0.55433 0.42909 0.0
C244 C 0.40354 0.5519 0.41345 0.0
C245 C 0.41367 0.54549 0.38902 0.0
C246 C 0.40595 0.52664 0.38024 0.0
C247 C 0.41547 0.52073 0.35682 0.0
C248 C 0.4328 0.53354 0.34223 0.0
C249 C 0.44066 0.55228 0.35112 0.0
C250 C 0.43118 0.55826 0.37449 0.0
C251 C 0.41174 0.5771 0.57406 0.0
C252 C 0.43024 0.59167 0.57451 0.0
C253 C 0.40288 0.56937 0.54034 0.0
C254 C 0.4122 0.57631 0.50641 0.0
C255 C 0.43063 0.59102 0.5068 0.0
C256 C 0.4396 0.59861 0.54059 0.0
C257 C 0.40299 0.5676 0.47068 0.0
C258 C 0.41212 0.56156 0.44622 0.0
C259 C 0.38496 0.56424 0.46167 0.0
C260 C 0.37517 0.57151 0.48487 0.0
C261 C 0.38382 0.59042 0.49389 0.0
C262 C 0.37458 0.59718 0.5159 0.0
C263 C 0.35662 0.58518 0.52884 0.0
C264 C 0.34784 0.5664 0.51973 0.0
C265 C 0.35703 0.55957 0.49776 0.0
H266 H 0.34948 0.59044 0.54587 0.0
H267 H 0.44015 0.52894 0.3241 0.0
H268 H 0.81973 0.41514 0.78027 0.0
H269 H 0.81818 0.39834 0.72297 0.0
H270 H 0.81931 0.44203 0.65755 0.0
H271 H 0.82115 0.45909 0.71472 0.0
H272 H 0.792 0.40453 0.63497 0.0
H273 H 0.85739 0.44262 0.66463 0.0
H274 H 0.88473 0.45412 0.70573 0.0
H275 H 0.87605 0.39915 0.71534 0.0
H276 H 0.84845 0.38728 0.67473 0.0
H277 H 0.817 0.39067 0.45564 0.0
H278 H 0.81459 0.4027 0.51617 0.0
H279 H 0.82639 0.36385 0.57099 0.0
H280 H 0.82944 0.35211 0.51015 0.0
H281 H 0.84557 0.39636 0.60208 0.0
H282 H 0.78191 0.35802 0.56968 0.0
H283 H 0.754 0.3455 0.52996 0.0
H284 H 0.75811 0.39879 0.52734 0.0
H285 H 0.78621 0.4117 0.56662 0.0
C286 C 0.8195 0.42109 0.75372 0.0
C287 C 0.82065 0.43843 0.75187 0.0
C288 C 0.81865 0.41152 0.72107 0.0
C289 C 0.81873 0.41905 0.68622 0.0
C290 C 0.81924 0.43605 0.68429 0.0
C291 C 0.82036 0.44576 0.7169 0.0
C292 C 0.81899 0.40954 0.65163 0.0
C293 C 0.80374 0.40285 0.62749 0.0
C294 C 0.83409 0.40689 0.64277 0.0
C295 C 0.85073 0.41403 0.66702 0.0
C296 C 0.8612 0.43296 0.6758 0.0
C297 C 0.87677 0.43955 0.69894 0.0
C298 C 0.88209 0.42736 0.71323 0.0
C299 C 0.87189 0.40857 0.70431 0.0
C300 C 0.85629 0.4019 0.68122 0.0
C301 C 0.819 0.38462 0.48057 0.0
C302 C 0.82336 0.37042 0.47821 0.0
C303 C 0.81751 0.39144 0.51518 0.0
C304 C 0.81998 0.38395 0.54815 0.0
C305 C 0.82436 0.36977 0.54589 0.0
C306 C 0.82607 0.36307 0.51117 0.0
C307 C 0.81862 0.39145 0.58483 0.0
C308 C 0.83368 0.39781 0.60952 0.0
C309 C 0.80322 0.39359 0.59438 0.0
C310 C 0.78626 0.38586 0.57088 0.0
C311 C 0.77694 0.3671 0.56042 0.0
C312 C 0.76107 0.35993 0.53802 0.0
C313 C 0.75431 0.37135 0.52608 0.0
C314 C 0.76337 0.38996 0.53659 0.0
C315 C 0.77926 0.39721 0.55897 0.0
H316 H 0.74202 0.36577 0.50873 0.0
H317 H 0.89415 0.43249 0.73114 0.0
H318 H 0.41102 0.83179 0.61636 0.0
H319 H 0.39581 0.83106 0.67527 0.0
H320 H 0.44423 0.83939 0.73571 0.0
H321 H 0.45972 0.84038 0.67663 0.0
H322 H 0.40868 0.81002 0.763 0.0
H323 H 0.43912 0.87436 0.72887 0.0
H324 H 0.44696 0.90033 0.68635 0.0
H325 H 0.3893 0.8846 0.67924 0.0
H326 H 0.38109 0.85834 0.7213 0.0
H327 H 0.38647 0.83059 0.94009 0.0
H328 H 0.40123 0.83044 0.88136 0.0
H329 H 0.35884 0.83494 0.82083 0.0
H330 H 0.34435 0.83581 0.87988 0.0
H331 H 0.39122 0.85747 0.79263 0.0
H332 H 0.35994 0.79365 0.82547 0.0
H333 H 0.35071 0.7666 0.86572 0.0
H334 H 0.40758 0.77957 0.87271 0.0
H335 H 0.4172 0.80686 0.8329 0.0
C336 C 0.41844 0.83346 0.64217 0.0
C337 C 0.43658 0.83619 0.64198 0.0
C338 C 0.40975 0.83308 0.67573 0.0
C339 C 0.41897 0.83527 0.70963 0.0
C340 C 0.43695 0.8377 0.70968 0.0
C341 C 0.44578 0.83833 0.67602 0.0
C342 C 0.40975 0.83505 0.745 0.0
C343 C 0.40507 0.82051 0.76987 0.0
C344 C 0.40454 0.84843 0.75304 0.0
C345 C 0.40947 0.86428 0.72794 0.0
C346 C 0.4281 0.87634 0.71798 0.0
C347 C 0.43261 0.89113 0.69401 0.0
C348 C 0.41864 0.89408 0.68002 0.0
C349 C 0.40012 0.88228 0.69006 0.0
C350 C 0.39552 0.86745 0.71399 0.0
C351 C 0.38022 0.83144 0.91427 0.0
C352 C 0.36423 0.83316 0.9145 0.0
C353 C 0.38862 0.83126 0.88069 0.0
C354 C 0.38097 0.83237 0.84664 0.0
C355 C 0.36495 0.83403 0.84679 0.0
C356 C 0.35667 0.83448 0.88047 0.0
C357 C 0.39008 0.8324 0.81102 0.0
C358 C 0.39476 0.84692 0.78595 0.0
C359 C 0.39504 0.81883 0.80257 0.0
C360 C 0.38931 0.8024 0.82647 0.0
C361 C 0.3705 0.79082 0.83582 0.0
C362 C 0.36519 0.77543 0.85852 0.0
C363 C 0.37855 0.7714 0.87184 0.0
C364 C 0.39725 0.78273 0.86241 0.0
C365 C 0.40263 0.79814 0.83974 0.0
H366 H 0.37442 0.75947 0.88941 0.0
H367 H 0.42216 0.90554 0.66148 0.0
H368 H 0.54024 0.38852 0.09782 0.0
H369 H 0.55507 0.40225 0.03851 0.0
H370 H 0.50419 0.36591 -0.01968 0.0
H371 H 0.48908 0.35209 0.03984 0.0
H372 H 0.53822 0.37006 0.94698 0.0
H373 H 0.51225 0.40673 -0.00612 0.0
H374 H 0.50719 0.42505 0.04183 0.0
H375 H 0.56587 0.46341 0.04598 0.0
H376 H 0.57131 0.44515 -0.00156 0.0
H377 H 0.56045 0.41709 0.77463 0.0
H378 H 0.54598 0.40089 0.83234 0.0
H379 H 0.58979 0.44524 0.89593 0.0
H380 H 0.60376 0.46196 0.83813 0.0
H381 H 0.55894 0.43631 0.92707 0.0
H382 H 0.58606 0.40109 0.8819 0.0
H383 H 0.59275 0.38292 0.8364 0.0
H384 H 0.53472 0.34225 0.83137 0.0
H385 H 0.52765 0.3603 0.87648 0.0
C386 C 0.53221 0.38334 0.07242 0.0
C387 C 0.51345 0.36932 0.07344 0.0
C388 C 0.54071 0.39122 0.03862 0.0
C389 C 0.53065 0.38515 0.00526 0.0
C390 C 0.51212 0.37074 0.00592 0.0
C391 C 0.50352 0.36294 0.03986 0.0
C392 C 0.53937 0.39445 0.96995 0.0
C393 C 0.54256 0.38447 0.94224 0.0
C394 C 0.54548 0.41337 0.9646 0.0
C395 C 0.5422 0.42448 -0.00714 0.0
C396 C 0.52409 0.41899 0.00523 0.0
C397 C 0.52115 0.42938 0.0323 0.0
C398 C 0.5362 0.44536 0.04701 0.0
C399 C 0.55423 0.45102 0.03459 0.0
C400 C 0.55724 0.44067 0.00756 0.0
C401 C 0.56705 0.42331 0.80094 0.0
C402 C 0.58322 0.44074 0.80204 0.0
C403 C 0.55883 0.41399 0.83391 0.0
C404 C 0.56696 0.42167 0.86852 0.0
C405 C 0.58326 0.43902 0.86957 0.0
C406 C 0.59125 0.44855 0.8366 0.0
C407 C 0.55802 0.412 0.90369 0.0
C408 C 0.55471 0.4219 0.93153 0.0
C409 C 0.55209 0.39307 0.90935 0.0
C410 C 0.55631 0.38214 0.88232 0.0
C411 C 0.57471 0.38834 0.87089 0.0
C412 C 0.57857 0.37805 0.8452 0.0
C413 C 0.56416 0.36147 0.83093 0.0
C414 C 0.54587 0.35511 0.84241 0.0
C415 C 0.54192 0.36536 0.86807 0.0
H416 H 0.56718 0.35353 0.81104 0.0
H417 H 0.5339 0.45338 0.06796 0.0
H418 H 0.12037 0.54224 0.27232 0.0
H419 H 0.11969 0.55666 0.2137 0.0
H420 H 0.1124 0.50882 0.1528 0.0
H421 H 0.11277 0.49409 0.21158 0.0
H422 H 0.14109 0.54481 0.12494 0.0
H423 H 0.07653 0.51215 0.1613 0.0
H424 H 0.05041 0.50341 0.20481 0.0
H425 H 0.06369 0.56003 0.21217 0.0
H426 H 0.09008 0.56915 0.16911 0.0
H427 H 0.11869 0.56503 0.94913 0.0
H428 H 0.11888 0.55039 0.00756 0.0
H429 H 0.11282 0.59167 0.06898 0.0
H430 H 0.11196 0.60606 0.01022 0.0
H431 H 0.09109 0.55911 0.09755 0.0
H432 H 0.15512 0.5926 0.06302 0.0
H433 H 0.18239 0.6029 0.02198 0.0
H434 H 0.17197 0.54721 0.01401 0.0
H435 H 0.14447 0.53653 0.05461 0.0
C436 C 0.11863 0.53478 0.24646 0.0
C437 C 0.11659 0.51703 0.24643 0.0
C438 C 0.11819 0.54301 0.21308 0.0
C439 C 0.1159 0.53373 0.17914 0.0
C440 C 0.11415 0.51614 0.17887 0.0
C441 C 0.11431 0.50775 0.21236 0.0
C442 C 0.11543 0.54252 0.14394 0.0
C443 C 0.13005 0.54771 0.11855 0.0
C444 C 0.10133 0.54683 0.13656 0.0
C445 C 0.0854 0.54135 0.16228 0.0
C446 C 0.07399 0.52276 0.17246 0.0
C447 C 0.05911 0.51773 0.19699 0.0
C448 C 0.05543 0.53116 0.21133 0.0
C449 C 0.06658 0.54964 0.20108 0.0
C450 C 0.08149 0.55475 0.17659 0.0
C451 C 0.11743 0.57102 0.97507 0.0
C452 C 0.1154 0.58674 0.97519 0.0
C453 C 0.11763 0.56269 0.00847 0.0
C454 C 0.11621 0.57013 0.04268 0.0
C455 C 0.114 0.58574 0.04288 0.0
C456 C 0.11355 0.59396 0.00936 0.0
C457 C 0.11677 0.56141 0.07814 0.0
C458 C 0.10218 0.55624 0.10373 0.0
C459 C 0.13108 0.55737 0.08598 0.0
C460 C 0.14763 0.56374 0.06158 0.0
C461 C 0.15856 0.58253 0.05228 0.0
C462 C 0.17407 0.58843 0.02914 0.0
C463 C 0.17888 0.57571 0.01532 0.0
C464 C 0.16821 0.55705 0.0247 0.0
C465 C 0.15267 0.55106 0.04781 0.0
H466 H 0.1909 0.58031 -0.00259 0.0
H467 H 0.0439 0.52724 0.23031 0.0
H468 H 0.44395 0.28027 0.16876 0.0
H469 H 0.43924 0.25069 0.14414 0.0
H470 H 0.49817 0.27125 0.15074 0.0
H471 H 0.50298 0.30047 0.17613 0.0
H472 H 0.47855 0.25722 0.07583 0.0
H473 H 0.47685 0.24191 0.20724 0.0
H474 H 0.4643 0.23733 0.27115 0.0
H475 H 0.41046 0.19651 0.23109 0.0
H476 H 0.42265 0.20106 0.1668 0.0
H477 H 0.49921 0.18732 0.03651 0.0
H478 H 0.49564 0.21276 0.05992 0.0
H479 H 0.43742 0.17517 0.08057 0.0
H480 H 0.44108 0.14938 0.05812 0.0
H481 H 0.45163 0.19645 0.13858 0.0
H482 H 0.45263 0.20823 0.00949 0.0
H483 H 0.46337 0.21245 0.94424 0.0
H484 H 0.51542 0.2594 0.97632 0.0
H485 H 0.50511 0.25531 0.04188 0.0
C486 C 0.45584 0.27831 0.16581 0.0
C487 C 0.47384 0.29276 0.17438 0.0
C488 C 0.45312 0.26145 0.15164 0.0
C489 C 0.46839 0.25889 0.1454 0.0
C490 C 0.48623 0.273 0.15527 0.0
C491 C 0.48892 0.28967 0.16998 0.0
C492 C 0.46616 0.24214 0.12617 0.0
C493 C 0.47277 0.24393 0.08952 0.0
C494 C 0.45791 0.2247 0.14359 0.0
C495 C 0.4506 0.22201 0.18217 0.0
C496 C 0.46229 0.23212 0.21199 0.0
C497 C 0.45525 0.22949 0.2483 0.0
C498 C 0.43658 0.21669 0.25516 0.0
C499 C 0.42491 0.20645 0.22573 0.0
C500 C 0.43188 0.20904 0.18936 0.0
C501 C 0.48554 0.18445 0.04538 0.0
C502 C 0.47041 0.16629 0.0453 0.0
C503 C 0.48349 0.19908 0.05871 0.0
C504 C 0.46619 0.196 0.07171 0.0
C505 C 0.45091 0.17794 0.07069 0.0
C506 C 0.45299 0.16322 0.05759 0.0
C507 C 0.46454 0.21155 0.08828 0.0
C508 C 0.45717 0.2096 0.12444 0.0
C509 C 0.47182 0.22882 0.07012 0.0
C510 C 0.47812 0.23137 0.03069 0.0
C511 C 0.46642 0.21937 0.00269 0.0
C512 C 0.47243 0.22176 0.96563 0.0
C513 C 0.49008 0.23616 0.95615 0.0
C514 C 0.50175 0.24824 -0.01629 0.0
C515 C 0.49582 0.24591 0.02082 0.0
H516 H 0.4947 0.23799 0.92744 0.0
H517 H 0.43116 0.21467 0.28329 0.0
H518 H 0.28774 0.50225 0.18758 0.0
H519 H 0.25899 0.49837 0.21449 0.0
H520 H 0.24402 0.44354 0.25055 0.0
H521 H 0.27304 0.44738 0.224 0.0
H522 H 0.21303 0.44948 0.22093 0.0
H523 H 0.26239 0.47217 0.31222 0.0
H524 H 0.2945 0.49293 0.33354 0.0
H525 H 0.28748 0.53993 0.31686 0.0
H526 H 0.25542 0.51946 0.29479 0.0
H527 H 0.14467 0.45017 0.34177 0.0
H528 H 0.16969 0.44519 0.31871 0.0
H529 H 0.20518 0.50408 0.30569 0.0
H530 H 0.1808 0.5091 0.33051 0.0
H531 H 0.22533 0.49177 0.32834 0.0
H532 H 0.1787 0.47147 0.23099 0.0
H533 H 0.14736 0.45245 0.20424 0.0
H534 H 0.14947 0.40316 0.22728 0.0
H535 H 0.18076 0.4219 0.25454 0.0
C536 C 0.27818 0.48917 0.2004 0.0
C537 C 0.2828 0.47518 0.20391 0.0
C538 C 0.26175 0.487 0.21584 0.0
C539 C 0.24952 0.47077 0.23489 0.0
C540 C 0.25331 0.45618 0.23598 0.0
C541 C 0.26989 0.4584 0.22077 0.0
C542 C 0.23395 0.47002 0.25672 0.0
C543 C 0.21561 0.45846 0.24483 0.0
C544 C 0.23742 0.48198 0.28748 0.0
C545 C 0.25655 0.49428 0.30159 0.0
C546 C 0.26773 0.48694 0.31286 0.0
C547 C 0.28592 0.49865 0.3251 0.0
C548 C 0.29304 0.51774 0.32649 0.0
C549 C 0.28195 0.52514 0.31575 0.0
C550 C 0.26376 0.51348 0.30341 0.0
C551 C 0.15794 0.46203 0.33454 0.0
C552 C 0.16072 0.48002 0.33797 0.0
C553 C 0.17219 0.45918 0.32097 0.0
C554 C 0.1893 0.47423 0.30958 0.0
C555 C 0.19219 0.49219 0.31421 0.0
C556 C 0.17817 0.49505 0.32844 0.0
C557 C 0.20418 0.47161 0.292 0.0
C558 C 0.22253 0.48255 0.30477 0.0
C559 C 0.2007 0.4593 0.26166 0.0
C560 C 0.18195 0.44806 0.24518 0.0
C561 C 0.17242 0.45657 0.23056 0.0
C562 C 0.15468 0.44584 0.21528 0.0
C563 C 0.14641 0.42661 0.21417 0.0
C564 C 0.15588 0.41806 0.22823 0.0
C565 C 0.17362 0.42872 0.24358 0.0
H566 H 0.13267 0.41833 0.20233 0.0
H567 H 0.30713 0.52678 0.33595 0.0
H568 H 0.67128 0.14959 0.48545 0.0
H569 H 0.69987 0.17531 0.45956 0.0
H570 H 0.68255 0.21361 0.49629 0.0
H571 H 0.65415 0.18817 0.52233 0.0
H572 H 0.69098 0.21588 0.42 0.0
H573 H 0.71794 0.21304 0.53828 0.0
H574 H 0.7262 0.19737 0.58629 0.0
H575 H 0.75791 0.18644 0.50569 0.0
H576 H 0.74962 0.20184 0.45706 0.0
H577 H 0.76457 0.30473 0.39077 0.0
H578 H 0.7396 0.27556 0.41359 0.0
H579 H 0.77258 0.24976 0.39164 0.0
H580 H 0.79839 0.27963 0.37085 0.0
H581 H 0.75661 0.23777 0.4539 0.0
H582 H 0.73253 0.24149 0.33659 0.0
H583 H 0.72412 0.25549 0.28538 0.0
H584 H 0.68652 0.26201 0.35788 0.0
H585 H 0.69487 0.24827 0.40969 0.0
C586 C 0.67378 0.16354 0.4888 0.0
C587 C 0.66037 0.1668 0.50585 0.0
C588 C 0.69011 0.17822 0.47391 0.0
C589 C 0.69328 0.19637 0.47576 0.0
C590 C 0.68034 0.19971 0.49435 0.0
C591 C 0.66414 0.18513 0.50941 0.0
C592 C 0.70923 0.21178 0.45604 0.0
C593 C 0.70534 0.2208 0.4276 0.0
C594 C 0.72797 0.21757 0.46465 0.0
C595 C 0.73299 0.2084 0.49395 0.0
C596 C 0.72653 0.20715 0.53072 0.0
C597 C 0.73125 0.19835 0.55806 0.0
C598 C 0.74252 0.19087 0.54902 0.0
C599 C 0.74915 0.19222 0.51264 0.0
C600 C 0.74446 0.20099 0.48519 0.0
C601 C 0.76648 0.29282 0.39017 0.0
C602 C 0.78344 0.29449 0.37855 0.0
C603 C 0.75206 0.27601 0.40313 0.0
C604 C 0.75387 0.26016 0.4036 0.0
C605 C 0.77072 0.2617 0.39144 0.0
C606 C 0.78543 0.27874 0.37927 0.0
C607 C 0.73839 0.2424 0.41847 0.0
C608 C 0.7423 0.23282 0.44584 0.0
C609 C 0.7196 0.23577 0.40828 0.0
C610 C 0.71442 0.24393 0.3771 0.0
C611 C 0.72254 0.246 0.34168 0.0
C612 C 0.71778 0.25388 0.31253 0.0
C613 C 0.70482 0.25966 0.31839 0.0
C614 C 0.69656 0.25753 0.35339 0.0
C615 C 0.70128 0.24966 0.38263 0.0
H616 H 0.70116 0.26577 0.29579 0.0
H617 H 0.74616 0.18406 0.57023 0.0
H618 H 0.50448 0.81037 0.55271 0.0
H619 H 0.50873 0.78552 0.57857 0.0
H620 H 0.44945 0.74873 0.57624 0.0
H621 H 0.4451 0.77311 0.54971 0.0
H622 H 0.46946 0.75426 0.64937 0.0
H623 H 0.47052 0.73977 0.51762 0.0
H624 H 0.48313 0.74723 0.45374 0.0
H625 H 0.53657 0.75877 0.49371 0.0
H626 H 0.52433 0.75163 0.55797 0.0
H627 H 0.44524 0.66312 0.68675 0.0
H628 H 0.4504 0.69279 0.66503 0.0
H629 H 0.50786 0.71006 0.64226 0.0
H630 H 0.50252 0.67983 0.66275 0.0
H631 H 0.49465 0.71854 0.58579 0.0
H632 H 0.49417 0.72969 0.71498 0.0
H633 H 0.48351 0.72372 0.7803 0.0
H634 H 0.43241 0.72117 0.74912 0.0
H635 H 0.44263 0.72686 0.68351 0.0
C636 C 0.4924 0.79687 0.55698 0.0
C637 C 0.47445 0.79374 0.54915 0.0
C638 C 0.49485 0.78273 0.57185 0.0
C639 C 0.47938 0.76536 0.57954 0.0
C640 C 0.46155 0.76206 0.57063 0.0
C641 C 0.45912 0.77602 0.55525 0.0
C642 C 0.48142 0.75082 0.59881 0.0
C643 C 0.47489 0.74635 0.63553 0.0
C644 C 0.48926 0.74113 0.58122 0.0
C645 C 0.49658 0.74542 0.54264 0.0
C646 C 0.48501 0.7441 0.51285 0.0
C647 C 0.49208 0.74822 0.47656 0.0
C648 C 0.51066 0.75354 0.46969 0.0
C649 C 0.5222 0.75469 0.49909 0.0
C650 C 0.5152 0.7506 0.53544 0.0
C651 C 0.4591 0.67332 0.67784 0.0
C652 C 0.47348 0.66907 0.6766 0.0
C653 C 0.46207 0.6904 0.66551 0.0
C654 C 0.4796 0.70389 0.65234 0.0
C655 C 0.4942 0.69994 0.6523 0.0
C656 C 0.49117 0.68269 0.66429 0.0
C657 C 0.48209 0.72143 0.6363 0.0
C658 C 0.48951 0.72656 0.60016 0.0
C659 C 0.47539 0.73201 0.65475 0.0
C660 C 0.46914 0.7286 0.69423 0.0
C661 C 0.4806 0.72773 0.72199 0.0
C662 C 0.47464 0.72442 0.75909 0.0
C663 C 0.45728 0.72204 0.76885 0.0
C664 C 0.44586 0.72301 0.74153 0.0
C665 C 0.45174 0.72631 0.70438 0.0
H666 H 0.4527 0.71948 0.79758 0.0
H667 H 0.5161 0.75671 0.44157 0.0
H668 H 0.66483 0.46922 0.67315 0.0
H669 H 0.69373 0.47287 0.69884 0.0
H670 H 0.69496 0.51179 0.78003 0.0
H671 H 0.66664 0.50891 0.75317 0.0
H672 H 0.72854 0.52157 0.76407 0.0
H673 H 0.67604 0.46428 0.79945 0.0
H674 H 0.6476 0.43416 0.79002 0.0
H675 H 0.67862 0.41488 0.72677 0.0
H676 H 0.70721 0.44499 0.73542 0.0
H677 H 0.76756 0.46736 0.88022 0.0
H678 H 0.74209 0.47156 0.8581 0.0
H679 H 0.7788 0.51083 0.77667 0.0
H680 H 0.80442 0.50742 0.80011 0.0
H681 H 0.72543 0.46257 0.79739 0.0
H682 H 0.7639 0.53888 0.74583 0.0
H683 H 0.79017 0.56909 0.7649 0.0
H684 H 0.78386 0.55059 0.87824 0.0
H685 H 0.7574 0.52037 0.85996 0.0
C686 C 0.67153 0.4789 0.69587 0.0
C687 C 0.66338 0.48867 0.71128 0.0
C688 C 0.68797 0.48085 0.71081 0.0
C689 C 0.69627 0.49217 0.74222 0.0
C690 C 0.68881 0.50287 0.75601 0.0
C691 C 0.67259 0.50123 0.74056 0.0
C692 C 0.71188 0.49189 0.76215 0.0
C693 C 0.72788 0.50868 0.77129 0.0
C694 C 0.71086 0.47511 0.77291 0.0
C695 C 0.69372 0.45694 0.76779 0.0
C696 C 0.67677 0.45365 0.78334 0.0
C697 C 0.66063 0.43658 0.77816 0.0
C698 C 0.6613 0.42263 0.75773 0.0
C699 C 0.67812 0.42571 0.74254 0.0
C700 C 0.6943 0.44277 0.74759 0.0
C701 C 0.77029 0.47725 0.85827 0.0
C702 C 0.78803 0.48711 0.84205 0.0
C703 C 0.75568 0.47956 0.84541 0.0
C704 C 0.7584 0.49157 0.81566 0.0
C705 C 0.77629 0.5018 0.80017 0.0
C706 C 0.79098 0.49979 0.81356 0.0
C707 C 0.7423 0.49227 0.79897 0.0
C708 C 0.72617 0.47552 0.79032 0.0
C709 C 0.74294 0.5091 0.79012 0.0
C710 C 0.75877 0.5273 0.80142 0.0
C711 C 0.76807 0.54129 0.77485 0.0
C712 C 0.783 0.55841 0.78551 0.0
C713 C 0.78871 0.56174 0.82273 0.0
C714 C 0.77947 0.54797 0.84939 0.0
C715 C 0.76452 0.53083 0.83888 0.0
H716 H 0.80028 0.575 0.83093 0.0
H717 H 0.64878 0.40942 0.75375 0.0
H718 H 0.14364 0.68031 0.89107 0.0
H719 H 0.16893 0.70906 0.91764 0.0
H720 H 0.206 0.6871 0.90862 0.0
H721 H 0.18106 0.6586 0.8817 0.0
H722 H 0.20389 0.70025 -0.01874 0.0
H723 H 0.21194 0.71963 0.85181 0.0
H724 H 0.20143 0.72573 0.79208 0.0
H725 H 0.18899 0.76419 0.84656 0.0
H726 H 0.1992 0.75813 0.90675 0.0
H727 H 0.29427 0.77181 0.01639 0.0
H728 H 0.2651 0.7463 -0.00614 0.0
H729 H 0.24207 0.78245 -0.01319 0.0
H730 H 0.2718 0.80844 0.00791 0.0
H731 H 0.23358 0.76307 0.92683 0.0
H732 H 0.22746 0.74672 0.05447 0.0
H733 H 0.2366 0.74085 0.11597 0.0
H734 H 0.24293 0.6969 0.06911 0.0
H735 H 0.23409 0.70267 0.00719 0.0
C736 C 0.15728 0.68177 0.89405 0.0
C737 C 0.16031 0.66713 0.88429 0.0
C738 C 0.1717 0.69818 0.90931 0.0
C739 C 0.1893 0.70015 0.91533 0.0
C740 C 0.1925 0.68583 0.90439 0.0
C741 C 0.17822 0.66957 0.88878 0.0
C742 C 0.20421 0.7166 0.93487 0.0
C743 C 0.21051 0.71399 0.9693 0.0
C744 C 0.21222 0.73461 0.92002 0.0
C745 C 0.20611 0.73825 0.88385 0.0
C746 C 0.20679 0.72925 0.85112 0.0
C747 C 0.20093 0.73273 0.81717 0.0
C748 C 0.19448 0.74529 0.81555 0.0
C749 C 0.19394 0.75444 0.84787 0.0
C750 C 0.19978 0.75099 0.8819 0.0
C751 C 0.28292 0.77433 0.01074 0.0
C752 C 0.28538 0.79219 0.01414 0.0
C753 C 0.26613 0.75964 -0.00206 0.0
C754 C 0.25115 0.76227 -0.01095 0.0
C755 C 0.25337 0.78 -0.00651 0.0
C756 C 0.27033 0.79483 0.00583 0.0
C757 C 0.23374 0.74671 0.97301 0.0
C758 C 0.22687 0.74943 0.93926 0.0
C759 C 0.22493 0.7288 -0.01115 0.0
C760 C 0.23022 0.72522 0.0261 0.0
C761 C 0.23092 0.73589 0.05721 0.0
C762 C 0.23603 0.73256 0.09216 0.0
C763 C 0.24037 0.71854 0.09643 0.0
C764 C 0.23957 0.70777 0.06576 0.0
C765 C 0.23448 0.71104 0.03074 0.0
H766 H 0.24433 0.71599 0.12351 0.0
H767 H 0.18996 0.74797 0.78923 0.0
H768 H 0.54523 0.09393 0.6364 0.0
H769 H 0.53693 0.09942 0.69847 0.0
H770 H 0.58407 0.1548 0.69756 0.0
H771 H 0.59303 0.14887 0.63577 0.0
H772 H 0.58033 0.14252 0.76357 0.0
H773 H 0.53783 0.14513 0.68016 0.0
H774 H 0.51523 0.13526 0.62863 0.0
H775 H 0.47783 0.08629 0.68899 0.0
H776 H 0.50031 0.09572 0.74068 0.0
H777 H 0.50511 0.13884 0.9061 0.0
H778 H 0.51835 0.14509 0.84284 0.0
H779 H 0.54582 0.11406 0.86667 0.0
H780 H 0.53318 0.10816 0.92924 0.0
H781 H 0.51411 0.12315 0.7866 0.0
H782 H 0.58604 0.13016 0.82391 0.0
H783 H 0.60932 0.14361 0.87417 0.0
H784 H 0.58922 0.1804 0.90372 0.0
H785 H 0.56601 0.16738 0.85331 0.0
C786 C 0.55395 0.10721 0.64963 0.0
C787 C 0.56971 0.12102 0.63128 0.0
C788 C 0.54908 0.11042 0.68497 0.0
C789 C 0.55946 0.12776 0.70229 0.0
C790 C 0.5757 0.14137 0.68465 0.0
C791 C 0.58086 0.13798 0.64946 0.0
C792 C 0.55322 0.1314 0.7388 0.0
C793 C 0.56589 0.13841 0.7685 0.0
C794 C 0.5345 0.12679 0.74511 0.0
C795 C 0.52082 0.12112 0.71425 0.0
C796 C 0.52483 0.13221 0.68237 0.0
C797 C 0.51203 0.1267 0.65313 0.0
C798 C 0.49511 0.11015 0.65551 0.0
C799 C 0.49094 0.09911 0.68719 0.0
C800 C 0.50369 0.10455 0.7165 0.0
C801 C 0.51408 0.13349 0.89785 0.0
C802 C 0.51812 0.12308 0.92291 0.0
C803 C 0.52164 0.13706 0.86172 0.0
C804 C 0.5334 0.13036 0.85018 0.0
C805 C 0.53723 0.11984 0.87511 0.0
C806 C 0.52982 0.11635 0.91097 0.0
C807 C 0.54102 0.1333 0.81163 0.0
C808 C 0.52862 0.12757 0.78151 0.0
C809 C 0.56009 0.13966 0.80473 0.0
C810 C 0.5742 0.1477 0.83489 0.0
C811 C 0.58666 0.1412 0.84096 0.0
C812 C 0.59983 0.14873 0.86952 0.0
C813 C 0.60073 0.16282 0.89216 0.0
C814 C 0.58848 0.16944 0.88623 0.0
C815 C 0.57529 0.16197 0.85769 0.0
H816 H 0.61093 0.16862 0.91428 0.0
H817 H 0.48523 0.1059 0.63283 0.0
H818 H 0.44137 0.60359 0.81294 0.0
H819 H 0.43036 0.59616 0.87757 0.0
H820 H 0.38686 0.54235 0.84222 0.0
H821 H 0.39747 0.54966 0.77809 0.0
H822 H 0.37401 0.55676 0.89351 0.0
H823 H 0.42726 0.54823 0.8788 0.0
H824 H 0.4599 0.55824 0.86333 0.0
H825 H 0.47847 0.60064 0.94728 0.0
H826 H 0.44591 0.59102 0.96291 0.0
H827 H 0.35247 0.50476 0.06256 0.0
H828 H 0.36052 0.51697 -0.00105 0.0
H829 H 0.40565 0.568 0.04223 0.0
H830 H 0.39811 0.55574 0.10517 0.0
H831 H 0.41779 0.55705 -0.01248 0.0
H832 H 0.36446 0.56415 0.00592 0.0
H833 H 0.33183 0.55414 0.02141 0.0
H834 H 0.3133 0.51485 0.93135 0.0
H835 H 0.34583 0.52445 0.91562 0.0
C836 C 0.42935 0.59026 0.81893 0.0
C837 C 0.42044 0.57717 0.79035 0.0
C838 C 0.4231 0.58601 0.85585 0.0
C839 C 0.40789 0.5686 0.86475 0.0
C840 C 0.3986 0.55585 0.83605 0.0
C841 C 0.4048 0.56005 0.79935 0.0
C842 C 0.40212 0.56309 0.90398 0.0
C843 C 0.38354 0.55674 0.91409 0.0
C844 C 0.41462 0.56334 0.93095 0.0
C845 C 0.43417 0.56905 0.92172 0.0
C846 C 0.43831 0.55977 0.89377 0.0
C847 C 0.45679 0.56536 0.885 0.0
C848 C 0.47125 0.5801 0.90423 0.0
C849 C 0.46726 0.58925 0.93235 0.0
C850 C 0.4488 0.58373 0.94119 0.0
C851 C 0.36397 0.51864 0.05843 0.0
C852 C 0.37474 0.52921 0.08882 0.0
C853 C 0.36853 0.52565 0.02211 0.0
C854 C 0.38368 0.54347 0.01574 0.0
C855 C 0.394 0.5542 0.0463 0.0
C856 C 0.38964 0.54714 0.08233 0.0
C857 C 0.38961 0.55068 0.97732 0.0
C858 C 0.40825 0.55727 0.96723 0.0
C859 C 0.37715 0.55067 0.95048 0.0
C860 C 0.35758 0.54491 0.95981 0.0
C861 C 0.35342 0.55328 -0.01041 0.0
C862 C 0.33495 0.5477 -0.00161 0.0
C863 C 0.3205 0.53384 0.97744 0.0
C864 C 0.32451 0.52557 0.94758 0.0
C865 C 0.34296 0.53109 0.93869 0.0
H866 H 0.30621 0.52953 -0.01571 0.0
H867 H 0.48555 0.58441 0.8974 0.0
H868 H 0.80341 0.43541 0.9729 0.0
H869 H 0.79778 0.42147 0.03517 0.0
H870 H 0.85303 0.42869 0.03494 0.0
H871 H 0.85821 0.4416 0.97248 0.0
H872 H 0.83114 0.39657 0.05881 0.0
H873 H 0.83909 0.45704 0.08678 0.0
H874 H 0.83158 0.48204 0.08204 0.0
H875 H 0.77608 0.44526 0.12047 0.0
H876 H 0.78322 0.41999 0.12505 0.0
H877 H 0.8432 0.41598 0.2692 0.0
H878 H 0.83877 0.4236 0.20645 0.0
H879 H 0.80595 0.36561 0.17928 0.0
H880 H 0.81082 0.35775 0.2426 0.0
H881 H 0.81061 0.41871 0.16761 0.0
H882 H 0.81223 0.36021 0.08608 0.0
H883 H 0.82411 0.33852 0.09217 0.0
H884 H 0.868 0.37716 0.16339 0.0
H885 H 0.8565 0.39913 0.15735 0.0
C886 C 0.81437 0.43418 -0.0135 0.0
C887 C 0.83124 0.43956 0.96799 0.0
C888 C 0.81116 0.4262 0.02203 0.0
C889 C 0.82498 0.42399 0.03994 0.0
C890 C 0.84203 0.42997 0.0217 0.0
C891 C 0.84505 0.4375 -0.01392 0.0
C892 C 0.82199 0.41533 0.07743 0.0
C893 C 0.82652 0.40137 0.08252 0.0
C894 C 0.81589 0.42142 0.10853 0.0
C895 C 0.81161 0.43659 0.10582 0.0
C896 C 0.82525 0.45427 0.09397 0.0
C897 C 0.82107 0.46848 0.09135 0.0
C898 C 0.80334 0.46523 0.10083 0.0
C899 C 0.78978 0.44775 0.11306 0.0
C900 C 0.79389 0.43348 0.11569 0.0
C901 C 0.83497 0.40474 0.25009 0.0
C902 C 0.82744 0.3862 0.26102 0.0
C903 C 0.83236 0.40917 0.21411 0.0
C904 C 0.82206 0.39523 0.18796 0.0
C905 C 0.81413 0.37664 0.19883 0.0
C906 C 0.81691 0.37215 0.23502 0.0
C907 C 0.82055 0.40058 0.14916 0.0
C908 C 0.81494 0.41373 0.14375 0.0
C909 C 0.82626 0.39421 0.11796 0.0
C910 C 0.83335 0.38116 0.12167 0.0
C911 C 0.82442 0.36406 0.103 0.0
C912 C 0.83109 0.35173 0.10644 0.0
C913 C 0.84675 0.35643 0.12829 0.0
C914 C 0.85583 0.3735 0.14661 0.0
C915 C 0.84923 0.38588 0.14323 0.0
H916 H 0.85189 0.34686 0.13093 0.0
H917 H 0.80013 0.47625 0.09879 0.0
H918 H 0.44783 0.83123 0.40198 0.0
H919 H 0.43669 0.82749 0.33739 0.0
H920 H 0.38834 0.82947 0.37506 0.0
H921 H 0.39923 0.83311 0.43918 0.0
H922 H 0.37977 0.80387 0.31896 0.0
H923 H 0.42514 0.86788 0.34471 0.0
H924 H 0.45584 0.89318 0.36454 0.0
H925 H 0.48205 0.87909 0.27705 0.0
H926 H 0.45151 0.85353 0.25702 0.0
H927 H 0.35314 0.83359 0.15519 0.0
H928 H 0.36174 0.82917 0.21813 0.0
H929 H 0.41269 0.83437 0.17482 0.0
H930 H 0.40453 0.83936 0.11265 0.0
H931 H 0.42027 0.85471 0.23328 0.0
H932 H 0.37476 0.79201 0.20405 0.0
H933 H 0.34415 0.76653 0.18437 0.0
H934 H 0.3183 0.77748 0.27733 0.0
H935 H 0.34873 0.8032 0.29731 0.0
C936 C 0.43467 0.83053 0.3965 0.0
C937 C 0.42453 0.8327 0.42561 0.0
C938 C 0.42836 0.82846 0.35964 0.0
C939 C 0.41179 0.82842 0.35145 0.0
C940 C 0.40115 0.82948 0.38072 0.0
C941 C 0.40749 0.83169 0.41736 0.0
C942 C 0.40615 0.82881 0.31242 0.0
C943 C 0.38857 0.815 0.30017 0.0
C944 C 0.41774 0.8432 0.28785 0.0
C945 C 0.43607 0.85867 0.29965 0.0
C946 C 0.43747 0.8701 0.32988 0.0
C947 C 0.45483 0.8845 0.34113 0.0
C948 C 0.47089 0.88771 0.32214 0.0
C949 C 0.46961 0.87657 0.29178 0.0
C950 C 0.45227 0.86213 0.28045 0.0
C951 C 0.36608 0.83364 0.15915 0.0
C952 C 0.3782 0.83697 0.129 0.0
C953 C 0.37096 0.83103 0.19508 0.0
C954 C 0.38785 0.83134 0.20126 0.0
C955 C 0.39966 0.83418 0.17091 0.0
C956 C 0.39494 0.83703 0.1353 0.0
C957 C 0.39384 0.82968 0.2394 0.0
C958 C 0.41149 0.84338 0.25168 0.0
C959 C 0.38232 0.81513 0.26385 0.0
C960 C 0.36401 0.79964 0.25197 0.0
C961 C 0.36253 0.78908 0.22014 0.0
C962 C 0.34521 0.77457 0.20896 0.0
C963 C 0.32928 0.77042 0.22953 0.0
C964 C 0.33065 0.78073 0.2614 0.0
C965 C 0.34793 0.79526 0.27268 0.0
H966 H 0.31589 0.75919 0.22083 0.0
H967 H 0.48432 0.89885 0.33091 0.0
H968 H 0.55309 0.40571 0.59979 0.0
H969 H 0.54605 0.39505 0.53528 0.0
H970 H 0.58749 0.44903 0.49702 0.0
H971 H 0.59485 0.45981 0.56203 0.0
H972 H 0.55144 0.4351 0.46532 0.0
H973 H 0.59592 0.41542 0.48498 0.0
H974 H 0.61008 0.39971 0.51795 0.0
H975 H 0.55983 0.34762 0.50434 0.0
H976 H 0.54526 0.36306 0.47175 0.0
H977 H 0.54637 0.41444 0.27546 0.0
H978 H 0.5578 0.42288 0.33882 0.0
H979 H 0.51845 0.36793 0.37603 0.0
H980 H 0.50678 0.35916 0.3119 0.0
H981 H 0.55376 0.38199 0.40835 0.0
H982 H 0.50863 0.40064 0.39181 0.0
H983 H 0.4931 0.41545 0.36046 0.0
H984 H 0.54273 0.46834 0.37057 0.0
H985 H 0.55865 0.4538 0.40151 0.0
C986 C 0.56093 0.41526 0.57768 0.0
C987 C 0.57448 0.43363 0.5859 0.0
C988 C 0.55693 0.40911 0.54085 0.0
C989 C 0.56627 0.42123 0.51143 0.0
C990 C 0.58018 0.43946 0.51945 0.0
C991 C 0.58442 0.44557 0.55649 0.0
C992 C 0.56032 0.41513 0.47253 0.0
C993 C 0.55229 0.42374 0.45256 0.0
C994 C 0.56072 0.39978 0.45664 0.0
C995 C 0.56944 0.39044 0.47621 0.0
C996 C 0.58783 0.40064 0.48931 0.0
C997 C 0.59594 0.39177 0.50787 0.0
C998 C 0.58585 0.37268 0.51332 0.0
C999 C 0.56763 0.36241 0.50014 0.0
C1000 C 0.55944 0.37121 0.48158 0.0
C1001 C 0.5401 0.40402 0.29691 0.0
C1002 C 0.52547 0.38612 0.28855 0.0
C1003 C 0.54669 0.40893 0.33322 0.0
C1004 C 0.5388 0.39613 0.36219 0.0
C1005 C 0.52467 0.37803 0.35399 0.0
C1006 C 0.51799 0.37306 0.3174 0.0
C1007 C 0.54507 0.40211 0.40105 0.0
C1008 C 0.55303 0.39343 0.42106 0.0
C1009 C 0.54441 0.41727 0.41727 0.0
C1010 C 0.5349 0.4261 0.39865 0.0
C1011 C 0.51629 0.41541 0.38705 0.0
C1012 C 0.5074 0.42376 0.36941 0.0
C1013 C 0.51694 0.44281 0.36344 0.0
C1014 C 0.53537 0.45357 0.37517 0.0
C1015 C 0.54433 0.44528 0.39279 0.0
H1016 H 0.51003 0.44925 0.34979 0.0
H1017 H 0.59216 0.36584 0.52769 0.0
H1018 H 0.12901 0.55793 0.44799 0.0
H1019 H 0.13322 0.56944 0.51203 0.0
H1020 H 0.12253 0.51652 0.55252 0.0
H1021 H 0.11859 0.50493 0.48808 0.0
H1022 H 0.09929 0.52953 0.58286 0.0
H1023 H 0.16401 0.55104 0.56349 0.0
H1024 H 0.19408 0.56744 0.53071 0.0
H1025 H 0.1944 0.61871 0.54363 0.0
H1026 H 0.16416 0.60257 0.57602 0.0
H1027 H 0.11292 0.54954 0.77196 0.0
H1028 H 0.11769 0.54212 0.70883 0.0
H1029 H 0.13123 0.59657 0.67267 0.0
H1030 H 0.12655 0.6043 0.73668 0.0
H1031 H 0.15387 0.58372 0.63967 0.0
H1032 H 0.08947 0.56315 0.65603 0.0
H1033 H 0.05899 0.54755 0.68744 0.0
H1034 H 0.05736 0.49552 0.67762 0.0
H1035 H 0.08799 0.51087 0.64665 0.0
C1036 C 0.1279 0.54883 0.47049 0.0
C1037 C 0.12338 0.53049 0.46311 0.0
C1038 C 0.1304 0.55547 0.50703 0.0
C1039 C 0.1282 0.54385 0.53696 0.0
C1040 C 0.12433 0.52571 0.5297 0.0
C1041 C 0.12216 0.51914 0.49297 0.0
C1042 C 0.12807 0.55012 0.57564 0.0
C1043 C 0.11132 0.54116 0.59556 0.0
C1044 C 0.14356 0.56581 0.59142 0.0
C1045 C 0.16172 0.57555 0.57187 0.0
C1046 C 0.17039 0.56578 0.55902 0.0
C1047 C 0.18749 0.57504 0.54059 0.0
C1048 C 0.19612 0.5941 0.53501 0.0
C1049 C 0.18768 0.60395 0.54794 0.0
C1050 C 0.17057 0.59475 0.56637 0.0
C1051 C 0.11703 0.56007 0.75081 0.0
C1052 C 0.11908 0.57746 0.75934 0.0
C1053 C 0.11977 0.55577 0.71465 0.0
C1054 C 0.12449 0.56866 0.68596 0.0
C1055 C 0.1275 0.58639 0.69448 0.0
C1056 C 0.12479 0.59078 0.73098 0.0
C1057 C 0.12515 0.56295 0.647 0.0
C1058 C 0.14189 0.57205 0.62697 0.0
C1059 C 0.10957 0.54751 0.63075 0.0
C1060 C 0.09112 0.5382 0.64934 0.0
C1061 C 0.08269 0.54841 0.66086 0.0
C1062 C 0.06537 0.53961 0.67853 0.0
C1063 C 0.05626 0.52056 0.6846 0.0
C1064 C 0.06444 0.51027 0.67294 0.0
C1065 C 0.08178 0.51902 0.6553 0.0
H1066 H 0.04285 0.51377 0.69827 0.0
H1067 H 0.20937 0.60124 0.52074 0.0
H1068 H 0.45802 0.0452 -0.00361 0.0
H1069 H 0.43264 0.01332 -0.00694 0.0
H1070 H 0.39626 0.02877 0.0487 0.0
H1071 H 0.42181 0.06121 0.05122 0.0
H1072 H 0.39943 -0.00303 0.08047 0.0
H1073 H 0.38334 0.01572 0.96907 0.0
H1074 H 0.38887 0.03191 0.90909 0.0
H1075 H 0.41171 -0.00013 0.86351 0.0
H1076 H 0.40659 -0.01633 0.92338 0.0
H1077 H 0.34465 0.89749 0.05348 0.0
H1078 H 0.35091 0.9296 0.05464 0.0
H1079 H 0.39829 0.9458 -0.01724 0.0
H1080 H 0.39223 0.91423 -0.01857 0.0
H1081 H 0.3783 0.96184 0.96165 0.0
H1082 H 0.40321 0.95126 0.07689 0.0
H1083 H 0.40009 0.93592 0.13721 0.0
H1084 H 0.36197 0.95313 0.17524 0.0
H1085 H 0.36472 0.96839 0.1149 0.0
C1086 C 0.44455 0.0419 0.00744 0.0
C1087 C 0.44185 0.05565 0.02405 0.0
C1088 C 0.43005 0.02369 0.00545 0.0
C1089 C 0.41258 0.01871 0.02055 0.0
C1090 C 0.40965 0.0324 0.03676 0.0
C1091 C 0.42417 0.05087 0.03801 0.0
C1092 C 0.39813 -0.00112 0.02083 0.0
C1093 C 0.3942 -0.01073 0.05464 0.0
C1094 C 0.39155 -0.01112 -0.01292 0.0
C1095 C 0.3946 -0.00151 0.95082 0.0
C1096 C 0.38965 0.0122 0.94634 0.0
C1097 C 0.3927 0.02137 0.91233 0.0
C1098 C 0.40064 0.01693 0.88251 0.0
C1099 C 0.40553 0.00328 0.88662 0.0
C1100 C 0.40253 -0.00593 0.92058 0.0
C1101 C 0.35627 0.90791 0.03768 0.0
C1102 C 0.36803 0.90332 0.01764 0.0
C1103 C 0.35985 0.92623 0.03841 0.0
C1104 C 0.37511 0.94012 0.01882 0.0
C1105 C 0.3864 0.93534 -0.00206 0.0
C1106 C 0.38297 0.91725 -0.00254 0.0
C1107 C 0.38039 0.95992 0.02109 0.0
C1108 C 0.38271 0.96952 -0.01233 0.0
C1109 C 0.3856 0.96989 0.05515 0.0
C1110 C 0.38395 0.96071 0.09128 0.0
C1111 C 0.39404 0.95163 0.09802 0.0
C1112 C 0.39237 0.94298 0.13221 0.0
C1113 C 0.38079 0.94348 0.15998 0.0
C1114 C 0.3709 0.9527 0.15366 0.0
C1115 C 0.3725 0.96134 0.11948 0.0
H1116 H 0.37952 0.93679 0.18645 0.0
H1117 H 0.40299 0.02405 0.8562 0.0
H1118 H 0.47144 0.41083 0.18474 0.0
H1119 H 0.44771 0.41943 0.19263 0.0
H1120 H 0.40533 0.36199 0.19731 0.0
H1121 H 0.42933 0.35304 0.1897 0.0
H1122 H 0.39881 0.38812 0.14718 0.0
H1123 H 0.41156 0.37998 0.27341 0.0
H1124 H 0.43191 0.38284 0.32596 0.0
H1125 H 0.45903 0.44198 0.31935 0.0
H1126 H 0.43904 0.43949 0.2664 0.0
H1127 H 0.34702 0.4354 0.18937 0.0
H1128 H 0.35662 0.41189 0.1908 0.0
H1129 H 0.41312 0.45452 0.21263 0.0
H1130 H 0.40378 0.47771 0.21183 0.0
H1131 H 0.40372 0.42633 0.25765 0.0
H1132 H 0.39764 0.4348 0.12481 0.0
H1133 H 0.3802 0.43376 0.06845 0.0
H1134 H 0.34269 0.37583 0.08503 0.0
H1135 H 0.35982 0.37659 0.14177 0.0
C1136 C 0.4571 0.39991 0.18732 0.0
C1137 C 0.45232 0.3812 0.1866 0.0
C1138 C 0.44354 0.40489 0.1919 0.0
C1139 C 0.42481 0.39137 0.19569 0.0
C1140 C 0.41976 0.37262 0.19443 0.0
C1141 C 0.43347 0.36755 0.19026 0.0
C1142 C 0.41098 0.39743 0.20151 0.0
C1143 C 0.39937 0.39599 0.1718 0.0
C1144 C 0.412 0.40793 0.23338 0.0
C1145 C 0.4238 0.40953 0.26584 0.0
C1146 C 0.42191 0.3936 0.28305 0.0
C1147 C 0.43339 0.39516 0.31292 0.0
C1148 C 0.44677 0.41258 0.32597 0.0
C1149 C 0.44865 0.42849 0.30924 0.0
C1150 C 0.43722 0.42701 0.27934 0.0
C1151 C 0.36148 0.43971 0.19445 0.0
C1152 C 0.37459 0.45848 0.20055 0.0
C1153 C 0.36694 0.42627 0.19523 0.0
C1154 C 0.38561 0.43142 0.20192 0.0
C1155 C 0.39861 0.45013 0.2078 0.0
C1156 C 0.39321 0.46344 0.20715 0.0
C1157 C 0.39215 0.41777 0.20259 0.0
C1158 C 0.40249 0.41786 0.23359 0.0
C1159 C 0.39011 0.40623 0.17174 0.0
C1160 C 0.37983 0.40581 0.13776 0.0
C1161 C 0.38558 0.42188 0.11659 0.0
C1162 C 0.37577 0.42134 0.08456 0.0
C1163 C 0.3603 0.40476 0.07324 0.0
C1164 C 0.35464 0.38867 0.09388 0.0
C1165 C 0.36439 0.38915 0.12597 0.0
H1166 H 0.35273 0.40436 0.04843 0.0
H1167 H 0.45567 0.41376 0.34904 0.0
H1168 H 0.05523 0.43384 0.35553 0.0
H1169 H 0.02237 0.4094 0.3608 0.0
H1170 H 0.00724 0.45069 0.38628 0.0
H1171 H 0.03954 0.47484 0.38099 0.0
H1172 H -0.01004 0.42044 0.43255 0.0
H1173 H 0.00301 0.4339 0.29888 0.0
H1174 H 0.01917 0.43467 0.24046 0.0
H1175 H -0.00102 0.37644 0.24918 0.0
H1176 H -0.01711 0.37539 0.30793 0.0
H1177 H 0.90696 0.40968 0.37866 0.0
H1178 H 0.93907 0.41713 0.38064 0.0
H1179 H 0.92243 0.35996 0.36123 0.0
H1180 H 0.88958 0.35215 0.35909 0.0
H1181 H 0.95523 0.38726 0.31872 0.0
H1182 H 0.93504 0.37337 0.44437 0.0
H1183 H 0.9183 0.37352 0.50117 0.0
H1184 H 0.95183 0.4326 0.50798 0.0
H1185 H 0.96858 0.43285 0.45091 0.0
C1186 C 0.04487 0.43761 0.36264 0.0
C1187 C 0.04998 0.45629 0.36765 0.0
C1188 C 0.02613 0.42367 0.3655 0.0
C1189 C 0.01235 0.42824 0.37385 0.0
C1190 C 0.01761 0.44681 0.37993 0.0
C1191 C 0.03612 0.46064 0.3767 0.0
C1192 C -0.00775 0.4142 0.37514 0.0
C1193 C -0.01763 0.41299 0.40781 0.0
C1194 C -0.01762 0.40396 0.34326 0.0
C1195 C -0.00802 0.40461 0.30797 0.0
C1196 C 0.00216 0.4213 0.28847 0.0
C1197 C 0.01127 0.42178 0.25529 0.0
C1198 C 0.01016 0.40562 0.24119 0.0
C1199 C -0.00012 0.38894 0.26019 0.0
C1200 C -0.00925 0.3884 0.29341 0.0
C1201 C 0.90992 0.39855 0.37472 0.0
C1202 C 0.89554 0.38022 0.36912 0.0
C1203 C 0.9284 0.40289 0.3759 0.0
C1204 C 0.93314 0.38908 0.37172 0.0
C1205 C 0.91902 0.3708 0.36477 0.0
C1206 C 0.90029 0.36638 0.3636 0.0
C1207 C 0.95298 0.39433 0.37559 0.0
C1208 C 0.96281 0.39398 0.34397 0.0
C1209 C 0.96288 0.40316 0.4085 0.0
C1210 C 0.95308 0.40311 0.44329 0.0
C1211 C 0.9388 0.3864 0.45788 0.0
C1212 C 0.9293 0.38642 0.49014 0.0
C1213 C 0.934 0.40306 0.50817 0.0
C1214 C 0.94823 0.41971 0.49402 0.0
C1215 C 0.95776 0.41978 0.46175 0.0
H1216 H 0.92662 0.40304 0.53312 0.0
H1217 H 0.01722 0.40602 0.21549 0.0
H1218 H 0.48104 0.91433 0.50652 0.0
H1219 H 0.50573 0.9461 0.49824 0.0
H1220 H 0.54673 0.93065 0.52453 0.0
H1221 H 0.52178 0.89829 0.53254 0.0
H1222 H 0.54973 0.96348 0.56465 0.0
H1223 H 0.54771 0.94151 0.44105 0.0
H1224 H 0.53255 0.92402 0.3838 0.0
H1225 H 0.50701 0.95721 0.36757 0.0
H1226 H 0.52177 0.97471 0.42502 0.0
H1227 H 0.60176 0.06235 0.53014 0.0
H1228 H 0.59459 0.02995 0.52786 0.0
H1229 H 0.54072 0.01383 0.48136 0.0
H1230 H 0.54776 0.04559 0.48278 0.0
H1231 H 0.55512 -0.00375 0.44633 0.0
H1232 H 0.5483 0.01019 0.5769 0.0
H1233 H 0.56042 0.02675 0.63654 0.0
H1234 H 0.60025 0.0083 0.64072 0.0
H1235 H 0.58847 -0.00821 0.58086 0.0
C1236 C 0.49529 0.91757 0.51042 0.0
C1237 C 0.49944 0.90376 0.52027 0.0
C1238 C 0.5094 0.93576 0.50552 0.0
C1239 C 0.52805 0.94071 0.51058 0.0
C1240 C 0.5324 0.92705 0.52039 0.0
C1241 C 0.51817 0.90861 0.52478 0.0
C1242 C 0.54254 0.9604 0.50641 0.0
C1243 C 0.55145 0.97066 0.53853 0.0
C1244 C 0.54457 0.96972 0.47243 0.0
C1245 C 0.53587 0.95943 0.43743 0.0
C1246 C 0.5388 0.94503 0.42538 0.0
C1247 C 0.53027 0.93511 0.39288 0.0
C1248 C 0.51883 0.9395 0.37207 0.0
C1249 C 0.51591 0.95384 0.38369 0.0
C1250 C 0.52439 0.9638 0.41619 0.0
C1251 C 0.58848 0.05187 0.51915 0.0
C1252 C 0.57532 0.05662 0.50689 0.0
C1253 C 0.58438 0.03337 0.51795 0.0
C1254 C 0.56706 0.01939 0.50453 0.0
C1255 C 0.55421 0.02429 0.49159 0.0
C1256 C 0.55826 0.04257 0.49271 0.0
C1257 C 0.56142 -0.00056 0.50505 0.0
C1258 C 0.55413 -0.01089 0.47215 0.0
C1259 C 0.56065 -0.00992 0.5384 0.0
C1260 C 0.5677 -1e-05 0.57426 0.0
C1261 C 0.55974 0.00979 0.59044 0.0
C1262 C 0.56652 0.01914 0.62428 0.0
C1263 C 0.58114 0.01864 0.64234 0.0
C1264 C 0.58897 0.00873 0.62665 0.0
C1265 C 0.58224 -0.00063 0.59278 0.0
H1266 H 0.58638 0.02588 0.66854 0.0
H1267 H 0.51225 0.93182 0.34691 0.0
H1268 H 0.54116 0.48286 0.69606 0.0
H1269 H 0.53159 0.50579 0.68937 0.0
H1270 H 0.58888 0.54897 0.68185 0.0
H1271 H 0.59881 0.52583 0.68841 0.0
H1272 H 0.56379 0.55619 0.73158 0.0
H1273 H 0.56874 0.54008 0.60583 0.0
H1274 H 0.56475 0.51879 0.55419 0.0
H1275 H 0.50547 0.49176 0.56707 0.0
H1276 H 0.5091 0.51269 0.61917 0.0
H1277 H 0.51474 0.60618 0.68691 0.0
H1278 H 0.53844 0.59668 0.6861 0.0
H1279 H 0.49525 0.53976 0.67391 0.0
H1280 H 0.47188 0.54899 0.67416 0.0
H1281 H 0.52233 0.5479 0.62506 0.0
H1282 H 0.51766 0.55863 0.75804 0.0
H1283 H 0.52056 0.57818 0.81231 0.0
H1284 H 0.57827 0.61427 0.78712 0.0
H1285 H 0.57564 0.59503 0.73242 0.0
C1286 C 0.55185 0.4972 0.69311 0.0
C1287 C 0.5708 0.50245 0.69262 0.0
C1288 C 0.5463 0.51031 0.68924 0.0
C1289 C 0.55951 0.52904 0.68487 0.0
C1290 C 0.57849 0.53455 0.68516 0.0
C1291 C 0.58412 0.52131 0.68874 0.0
C1292 C 0.5529 0.54238 0.6791 0.0
C1293 C 0.55514 0.55482 0.70781 0.0
C1294 C 0.54151 0.54043 0.64824 0.0
C1295 C 0.53921 0.52795 0.6165 0.0
C1296 C 0.55485 0.52954 0.59779 0.0
C1297 C 0.55265 0.51753 0.56842 0.0
C1298 C 0.53487 0.50393 0.55737 0.0
C1299 C 0.51924 0.50232 0.57563 0.0
C1300 C 0.52136 0.51427 0.60505 0.0
C1301 C 0.51036 0.59166 0.68417 0.0
C1302 C 0.49139 0.57839 0.68036 0.0
C1303 C 0.5239 0.58625 0.68375 0.0
C1304 C 0.51863 0.56749 0.67975 0.0
C1305 C 0.49971 0.55432 0.67658 0.0
C1306 C 0.48631 0.55967 0.67684 0.0
C1307 C 0.53239 0.56103 0.67847 0.0
C1308 C 0.53148 0.54983 0.64827 0.0
C1309 C 0.54486 0.56405 0.70807 0.0
C1310 C 0.5464 0.57556 0.74091 0.0
C1311 C 0.53092 0.57083 0.76391 0.0
C1312 C 0.53252 0.58183 0.79478 0.0
C1313 C 0.54957 0.5975 0.80308 0.0
C1314 C 0.56507 0.60216 0.7806 0.0
C1315 C 0.56353 0.59121 0.74968 0.0
H1316 H 0.55078 0.606 0.82699 0.0
H1317 H 0.5332 0.49464 0.53463 0.0
H1318 H 0.03877 0.55829 0.8278 0.0
H1319 H 0.00689 0.55187 0.82156 0.0
H1320 H 0.02213 0.60466 0.87145 0.0
H1321 H 0.05457 0.61142 0.87708 0.0
H1322 H -0.01025 0.57172 0.90435 0.0
H1323 H 0.01032 0.60189 0.78802 0.0
H1324 H 0.02725 0.60982 0.72824 0.0
H1325 H -0.00564 0.55359 0.69116 0.0
H1326 H -0.02259 0.54523 0.75092 0.0
H1327 H 0.89032 0.52748 0.87565 0.0
H1328 H 0.92283 0.55285 0.87486 0.0
H1329 H 0.93816 0.51901 0.80946 0.0
H1330 H 0.90616 0.49403 0.80978 0.0
H1331 H 0.95561 0.55372 0.78424 0.0
H1332 H 0.9431 0.52274 0.90534 0.0
H1333 H 0.92704 0.51303 0.966 0.0
H1334 H 0.94532 0.5696 -0.0059 0.0
H1335 H 0.96132 0.5796 0.93336 0.0
C1336 C 0.03543 0.56867 0.83701 0.0
C1337 C 0.04913 0.58534 0.85297 0.0
C1338 C 0.01722 0.56501 0.83332 0.0
C1339 C 0.01217 0.57781 0.84591 0.0
C1340 C 0.02581 0.59465 0.86142 0.0
C1341 C 0.04429 0.59852 0.86445 0.0
C1342 C -0.00771 0.57259 0.84453 0.0
C1343 C -0.01772 0.56836 0.8781 0.0
C1344 C -0.01743 0.56799 0.81029 0.0
C1345 C -0.0074 0.57293 0.77405 0.0
C1346 C 0.00676 0.59118 0.76721 0.0
C1347 C 0.01636 0.59576 0.7333 0.0
C1348 C 0.01189 0.58222 0.70592 0.0
C1349 C -0.00221 0.56407 0.71238 0.0
C1350 C -0.01185 0.55941 0.74625 0.0
C1351 C 0.90063 0.52559 0.86076 0.0
C1352 C 0.89565 0.50866 0.84308 0.0
C1353 C 0.91918 0.54007 0.86041 0.0
C1354 C 0.93297 0.53781 0.84224 0.0
C1355 C 0.92781 0.52115 0.82353 0.0
C1356 C 0.90945 0.50678 0.824 0.0
C1357 C 0.95303 0.552 0.84405 0.0
C1358 C 0.96307 0.55783 0.8105 0.0
C1359 C 0.96276 0.55789 0.8783 0.0
C1360 C 0.95316 0.55188 0.91469 0.0
C1361 C 0.94356 0.53308 0.92436 0.0
C1362 C 0.9345 0.52753 0.95875 0.0
C1363 C 0.9351 0.54068 -0.01617 0.0
C1364 C 0.94482 0.55942 0.9746 0.0
C1365 C 0.95388 0.56504 0.94021 0.0
H1366 H 0.92808 0.53636 0.01045 0.0
H1367 H 0.01934 0.58579 0.67969 0.0
loop_
_geom_bond_atom_site_label_1
_geom_bond_atom_site_label_2
_geom_bond_distance
_geom_bond_site_symmetry_2
_ccdc_geom_bond_type
C0 O1 1.306 1_556 S
C0 O3 1.160 . S
O1 C0 1.306 1_554 S
O1 Cd2 2.228 . S
Cd2 O1 2.228 . S
Cd2 O6 2.273 . S
Cd2 O10 2.277 . S
O3 C0 1.160 . S
O3 Cd4 2.203 1_556 S
Cd4 O3 2.203 1_554 S
Cd4 O6 2.411 . S
Cd4 O7 2.333 . S
Cd4 O8 2.352 . S
Cd4 O12 2.277 . S
Cd4 O13 2.356 . S
C5 O10 1.209 . S
C5 O12 1.226 . S
O6 Cd2 2.273 . S
O6 Cd4 2.411 . S
O6 C9 1.320 . S
O7 Cd4 2.333 . S
O7 C9 1.214 . S
O8 Cd4 2.352 . S
O8 C11 1.258 . S
C9 O6 1.320 . S
C9 O7 1.214 . S
O10 Cd2 2.277 . S
O10 C5 1.209 . S
C11 O8 1.258 . S
C11 O13 1.282 . S
O12 Cd4 2.277 . S
O12 C5 1.226 . S
O13 Cd4 2.356 . S
O13 C11 1.282 . S
C14 O15 1.306 . S
C14 O17 1.160 . S
O15 C14 1.306 . S
O15 Cd16 2.228 . S
Cd16 O15 2.228 . S
Cd16 O20 2.273 . S
Cd16 O24 2.277 . S
O17 C14 1.160 . S
O17 Cd18 2.203 . S
Cd18 O17 2.203 . S
Cd18 O20 2.411 . S
Cd18 O21 2.333 . S
Cd18 O22 2.352 . S
Cd18 O26 2.277 . S
Cd18 O27 2.356 . S
C19 O24 1.209 . S
C19 O26 1.226 . S
O20 Cd16 2.273 . S
O20 Cd18 2.411 . S
O20 C23 1.320 . S
O21 Cd18 2.333 . S
O21 C23 1.214 . S
O22 Cd18 2.352 . S
O22 C25 1.258 . S
C23 O20 1.320 . S
C23 O21 1.214 . S
O24 Cd16 2.277 . S
O24 C19 1.209 . S
C25 O22 1.258 . S
C25 O27 1.282 . S
O26 Cd18 2.277 . S
O26 C19 1.226 . S
O27 Cd18 2.356 . S
O27 C25 1.282 . S
C28 O29 1.306 . S
C28 O31 1.160 . S
O29 C28 1.306 . S
O29 Cd30 2.228 . S
Cd30 O29 2.228 . S
Cd30 O34 2.273 . S
Cd30 O38 2.277 . S
O31 C28 1.160 . S
O31 Cd32 2.203 . S
Cd32 O31 2.203 . S
Cd32 O34 2.411 . S
Cd32 O35 2.333 . S
Cd32 O36 2.352 . S
Cd32 O40 2.277 . S
Cd32 O41 2.356 . S
C33 O38 1.209 . S
C33 O40 1.226 . S
O34 Cd30 2.273 . S
O34 Cd32 2.411 . S
O34 C37 1.320 . S
O35 Cd32 2.333 . S
O35 C37 1.214 . S
O36 Cd32 2.352 . S
O36 C39 1.258 . S
C37 O34 1.320 . S
C37 O35 1.214 . S
O38 Cd30 2.277 . S
O38 C33 1.209 . S
C39 O36 1.258 . S
C39 O41 1.282 . S
O40 Cd32 2.277 . S
O40 C33 1.226 . S
O41 Cd32 2.356 . S
O41 C39 1.282 . S
C42 O43 1.306 . S
C42 O45 1.160 . S
O43 C42 1.306 . S
O43 Cd44 2.228 . S
Cd44 O43 2.228 . S
Cd44 O48 2.273 . S
Cd44 O52 2.277 . S
O45 C42 1.160 . S
O45 Cd46 2.203 . S
Cd46 O45 2.203 . S
Cd46 O48 2.411 . S
Cd46 O49 2.333 . S
Cd46 O50 2.352 . S
Cd46 O54 2.277 . S
Cd46 O55 2.356 . S
C47 O52 1.209 . S
C47 O54 1.226 . S
O48 Cd44 2.273 . S
O48 Cd46 2.411 . S
O48 C51 1.320 . S
O49 Cd46 2.333 . S
O49 C51 1.214 . S
O50 Cd46 2.352 . S
O50 C53 1.258 . S
C51 O48 1.320 . S
C51 O49 1.214 . S
O52 Cd44 2.277 . S
O52 C47 1.209 . S
C53 O50 1.258 . S
C53 O55 1.282 . S
O54 Cd46 2.277 . S
O54 C47 1.226 . S
O55 Cd46 2.356 . S
O55 C53 1.282 . S
C56 O57 1.306 . S
C56 O59 1.160 . S
O57 C56 1.306 . S
O57 Cd58 2.228 . S
Cd58 O57 2.228 . S
Cd58 O62 2.273 . S
Cd58 O66 2.277 . S
O59 C56 1.160 . S
O59 Cd60 2.203 . S
Cd60 O59 2.203 . S
Cd60 O62 2.411 . S
Cd60 O63 2.333 . S
Cd60 O64 2.352 . S
Cd60 O68 2.277 . S
Cd60 O69 2.356 . S
C61 O66 1.209 . S
C61 O68 1.226 . S
O62 Cd58 2.273 . S
O62 Cd60 2.411 . S
O62 C65 1.320 . S
O63 Cd60 2.333 . S
O63 C65 1.214 . S
O64 Cd60 2.352 . S
O64 C67 1.258 . S
C65 O62 1.320 . S
C65 O63 1.214 . S
O66 Cd58 2.277 . S
O66 C61 1.209 . S
C67 O64 1.258 . S
C67 O69 1.282 . S
O68 Cd60 2.277 . S
O68 C61 1.226 . S
O69 Cd60 2.356 . S
O69 C67 1.282 . S
C70 O71 1.306 . S
C70 O73 1.160 . S
O71 C70 1.306 . S
O71 Cd72 2.228 . S
Cd72 O71 2.228 . S
Cd72 O76 2.273 . S
Cd72 O80 2.277 . S
O73 C70 1.160 . S
O73 Cd74 2.203 . S
Cd74 O73 2.203 . S
Cd74 O76 2.411 . S
Cd74 O77 2.333 . S
Cd74 O78 2.352 . S
Cd74 O82 2.277 . S
Cd74 O83 2.356 . S
C75 O80 1.209 . S
C75 O82 1.226 . S
O76 Cd72 2.273 . S
O76 Cd74 2.411 . S
O76 C79 1.320 . S
O77 Cd74 2.333 . S
O77 C79 1.214 . S
O78 Cd74 2.352 . S
O78 C81 1.258 . S
C79 O76 1.320 . S
C79 O77 1.214 . S
O80 Cd72 2.277 . S
O80 C75 1.209 . S
C81 O78 1.258 . S
C81 O83 1.282 . S
O82 Cd74 2.277 . S
O82 C75 1.226 . S
O83 Cd74 2.356 . S
O83 C81 1.282 . S
C84 O85 1.306 . S
C84 O87 1.160 . S
O85 C84 1.306 . S
O85 Cd86 2.228 . S
Cd86 O85 2.228 . S
Cd86 O90 2.273 . S
Cd86 O94 2.277 . S
O87 C84 1.160 . S
O87 Cd88 2.203 . S
Cd88 O87 2.203 . S
Cd88 O90 2.411 . S
Cd88 O91 2.333 . S
Cd88 O92 2.352 . S
Cd88 O96 2.277 . S
Cd88 O97 2.356 . S
C89 O94 1.209 . S
C89 O96 1.226 . S
O90 Cd86 2.273 . S
O90 Cd88 2.411 . S
O90 C93 1.320 . S
O91 Cd88 2.333 . S
O91 C93 1.214 . S
O92 Cd88 2.352 . S
O92 C95 1.258 . S
C93 O90 1.320 . S
C93 O91 1.214 . S
O94 Cd86 2.277 . S
O94 C89 1.209 . S
C95 O92 1.258 . S
C95 O97 1.282 . S
O96 Cd88 2.277 . S
O96 C89 1.226 . S
O97 Cd88 2.356 . S
O97 C95 1.282 . S
C98 O99 1.306 . S
C98 O101 1.160 . S
O99 C98 1.306 . S
O99 Cd100 2.228 . S
Cd100 O99 2.228 . S
Cd100 O104 2.273 . S
Cd100 O108 2.277 . S
O101 C98 1.160 . S
O101 Cd102 2.203 . S
Cd102 O101 2.203 . S
Cd102 O104 2.411 . S
Cd102 O105 2.333 1_554 S
Cd102 O106 2.352 . S
Cd102 O110 2.277 . S
Cd102 O111 2.356 . S
C103 O108 1.209 . S
C103 O110 1.226 . S
O104 Cd100 2.273 . S
O104 Cd102 2.411 . S
O104 C107 1.320 1_554 S
O105 Cd102 2.333 1_556 S
O105 C107 1.214 . S
O106 Cd102 2.352 . S
O106 C109 1.258 . S
C107 O104 1.320 1_556 S
C107 O105 1.214 . S
O108 Cd100 2.277 . S
O108 C103 1.209 . S
C109 O106 1.258 . S
C109 O111 1.282 . S
O110 Cd102 2.277 . S
O110 C103 1.226 . S
O111 Cd102 2.356 . S
O111 C109 1.282 . S
C112 O113 1.306 . S
C112 O115 1.160 . S
O113 C112 1.306 . S
O113 Cd114 2.228 . S
Cd114 O113 2.228 . S
Cd114 O118 2.273 . S
Cd114 O122 2.277 . S
O115 C112 1.160 . S
O115 Cd116 2.203 . S
Cd116 O115 2.203 . S
Cd116 O118 2.411 . S
Cd116 O119 2.333 . S
Cd116 O120 2.352 . S
Cd116 O124 2.277 . S
Cd116 O125 2.356 . S
C117 O122 1.209 . S
C117 O124 1.226 . S
O118 Cd114 2.273 . S
O118 Cd116 2.411 . S
O118 C121 1.320 . S
O119 Cd116 2.333 . S
O119 C121 1.214 . S
O120 Cd116 2.352 . S
O120 C123 1.258 . S
C121 O118 1.320 . S
C121 O119 1.214 . S
O122 Cd114 2.277 . S
O122 C117 1.209 . S
C123 O120 1.258 . S
C123 O125 1.282 . S
O124 Cd116 2.277 . S
O124 C117 1.226 . S
O125 Cd116 2.356 . S
O125 C123 1.282 . S
C126 O127 1.306 . S
C126 O129 1.160 . S
O127 C126 1.306 . S
O127 Cd128 2.228 . S
Cd128 O127 2.228 . S
Cd128 O132 2.273 . S
Cd128 O136 2.277 . S
O129 C126 1.160 . S
O129 Cd130 2.203 . S
Cd130 O129 2.203 . S
Cd130 O132 2.411 . S
Cd130 O133 2.333 . S
Cd130 O134 2.352 . S
Cd130 O138 2.277 . S
Cd130 O139 2.356 . S
C131 O136 1.209 . S
C131 O138 1.226 . S
O132 Cd128 2.273 . S
O132 Cd130 2.411 . S
O132 C135 1.320 . S
O133 Cd130 2.333 . S
O133 C135 1.214 . S
O134 Cd130 2.352 . S
O134 C137 1.258 . S
C135 O132 1.320 . S
C135 O133 1.214 . S
O136 Cd128 2.277 . S
O136 C131 1.209 . S
C137 O134 1.258 . S
C137 O139 1.282 . S
O138 Cd130 2.277 . S
O138 C131 1.226 . S
O139 Cd130 2.356 . S
O139 C137 1.282 . S
C140 O141 1.306 . S
C140 O143 1.160 . S
O141 C140 1.306 . S
O141 Cd142 2.228 . S
Cd142 O141 2.228 . S
Cd142 O146 2.273 . S
Cd142 O150 2.277 . S
O143 C140 1.160 . S
O143 Cd144 2.203 . S
Cd144 O143 2.203 . S
Cd144 O146 2.411 . S
Cd144 O147 2.333 . S
Cd144 O148 2.352 . S
Cd144 O152 2.277 . S
Cd144 O153 2.356 . S
C145 O150 1.209 . S
C145 O152 1.226 . S
O146 Cd142 2.273 . S
O146 Cd144 2.411 . S
O146 C149 1.320 . S
O147 Cd144 2.333 . S
O147 C149 1.214 . S
O148 Cd144 2.352 . S
O148 C151 1.258 . S
C149 O146 1.320 . S
C149 O147 1.214 . S
O150 Cd142 2.277 . S
O150 C145 1.209 . S
C151 O148 1.258 . S
C151 O153 1.282 . S
O152 Cd144 2.277 . S
O152 C145 1.226 . S
O153 Cd144 2.356 . S
O153 C151 1.282 . S
C154 O155 1.306 . S
C154 O157 1.160 . S
O155 C154 1.306 . S
O155 Cd156 2.228 . S
Cd156 O155 2.228 . S
Cd156 O160 2.273 . S
Cd156 O164 2.277 . S
O157 C154 1.160 . S
O157 Cd158 2.203 . S
Cd158 O157 2.203 . S
Cd158 O160 2.411 . S
Cd158 O161 2.333 . S
Cd158 O162 2.352 . S
Cd158 O166 2.277 . S
Cd158 O167 2.356 . S
C159 O164 1.209 . S
C159 O166 1.226 . S
O160 Cd156 2.273 . S
O160 Cd158 2.411 . S
O160 C163 1.320 . S
O161 Cd158 2.333 . S
O161 C163 1.214 . S
O162 Cd158 2.352 . S
O162 C165 1.258 . S
C163 O160 1.320 . S
C163 O161 1.214 . S
O164 Cd156 2.277 . S
O164 C159 1.209 . S
C165 O162 1.258 . S
C165 O167 1.282 . S
O166 Cd158 2.277 . S
O166 C159 1.226 . S
O167 Cd158 2.356 . S
O167 C165 1.282 . S
H168 C186 0.951 . S
H169 C188 0.951 . S
H170 C190 0.950 . S
H171 C191 0.950 . S
H172 C193 0.950 . S
H173 C196 0.950 . S
H174 C197 0.950 . S
H175 C199 0.950 . S
H176 C200 0.950 . S
H177 C201 0.951 . S
H178 C203 0.951 . S
H179 C205 0.950 . S
H180 C206 0.950 . S
H181 C208 0.950 . S
H182 C211 0.950 . S
H183 C212 0.950 . S
H184 C214 0.950 . S
H185 C215 0.950 . S
C186 H168 0.951 . S
C186 C187 1.366 . S
C186 C188 1.388 . S
C187 C186 1.366 . S
C187 C191 1.385 . S
C188 H169 0.951 . S
C188 C186 1.388 . S
C188 C189 1.366 . S
C189 C188 1.366 . S
C189 C190 1.414 . S
C189 C192 1.499 . S
C190 H170 0.950 . S
C190 C189 1.414 . S
C190 C191 1.374 . S
C191 H171 0.950 . S
C191 C187 1.385 . S
C191 C190 1.374 . S
C192 C189 1.499 . S
C192 C193 1.373 . S
C192 C194 1.389 . S
C193 H172 0.950 . S
C193 C192 1.373 . S
C193 C209 1.377 . S
C194 C192 1.389 . S
C194 C195 1.524 . S
C194 C208 1.377 . S
C195 C194 1.524 . S
C195 C196 1.397 . S
C195 C200 1.363 . S
C196 H173 0.950 . S
C196 C195 1.397 . S
C196 C197 1.334 . S
C197 H174 0.950 . S
C197 C196 1.334 . S
C197 C198 1.287 . S
C198 C197 1.287 . S
C198 C199 1.524 . S
C198 H217 0.913 . S
C199 H175 0.950 . S
C199 C198 1.524 . S
C199 C200 1.415 . S
C200 H176 0.950 . S
C200 C195 1.363 . S
C200 C199 1.415 . S
C201 H177 0.951 . S
C201 C202 1.366 . S
C201 C203 1.388 . S
C202 C201 1.366 . S
C202 C206 1.385 . S
C203 H178 0.951 . S
C203 C201 1.388 . S
C203 C204 1.366 . S
C204 C203 1.366 . S
C204 C205 1.414 . S
C204 C207 1.499 . S
C205 H179 0.950 . S
C205 C204 1.414 . S
C205 C206 1.374 . S
C206 H180 0.950 . S
C206 C202 1.385 . S
C206 C205 1.374 . S
C207 C204 1.499 . S
C207 C208 1.373 . S
C207 C209 1.389 . S
C208 H181 0.950 . S
C208 C194 1.377 . S
C208 C207 1.373 . S
C209 C193 1.377 . S
C209 C207 1.389 . S
C209 C210 1.524 . S
C210 C209 1.524 . S
C210 C211 1.397 . S
C210 C215 1.363 . S
C211 H182 0.950 . S
C211 C210 1.397 . S
C211 C212 1.334 . S
C212 H183 0.950 . S
C212 C211 1.334 . S
C212 C213 1.287 . S
C213 C212 1.287 . S
C213 C214 1.524 . S
C213 H216 0.999 . S
C214 H184 0.950 . S
C214 C213 1.524 . S
C214 C215 1.415 . S
C215 H185 0.950 . S
C215 C210 1.363 . S
C215 C214 1.415 . S
H216 C213 0.999 . S
H217 C198 0.913 . S
H218 C236 0.951 . S
H219 C238 0.951 . S
H220 C240 0.950 . S
H221 C241 0.950 . S
H222 C243 0.950 . S
H223 C246 0.950 . S
H224 C247 0.950 . S
H225 C249 0.950 . S
H226 C250 0.950 . S
H227 C251 0.951 . S
H228 C253 0.951 . S
H229 C255 0.950 . S
H230 C256 0.950 . S
H231 C258 0.950 . S
H232 C261 0.950 . S
H233 C262 0.950 . S
H234 C264 0.950 . S
H235 C265 0.950 . S
C236 H218 0.951 . S
C236 C237 1.366 . S
C236 C238 1.388 . S
C237 C236 1.366 . S
C237 C241 1.385 . S
C238 H219 0.951 . S
C238 C236 1.388 . S
C238 C239 1.366 . S
C239 C238 1.366 . S
C239 C240 1.414 . S
C239 C242 1.499 . S
C240 H220 0.950 . S
C240 C239 1.414 . S
C240 C241 1.374 . S
C241 H221 0.950 . S
C241 C237 1.385 . S
C241 C240 1.374 . S
C242 C239 1.499 . S
C242 C243 1.373 . S
C242 C244 1.389 . S
C243 H222 0.950 . S
C243 C242 1.373 . S
C243 C259 1.377 . S
C244 C242 1.389 . S
C244 C245 1.524 . S
C244 C258 1.377 . S
C245 C244 1.524 . S
C245 C246 1.397 . S
C245 C250 1.363 . S
C246 H223 0.950 . S
C246 C245 1.397 . S
C246 C247 1.334 . S
C247 H224 0.950 . S
C247 C246 1.334 . S
C247 C248 1.287 . S
C248 C247 1.287 . S
C248 C249 1.524 . S
C248 H267 0.913 . S
C249 H225 0.950 . S
C249 C248 1.524 . S
C249 C250 1.415 . S
C250 H226 0.950 . S
C250 C245 1.363 . S
C250 C249 1.415 . S
C251 H227 0.951 . S
C251 C252 1.366 . S
C251 C253 1.388 . S
C252 C251 1.366 . S
C252 C256 1.385 . S
C253 H228 0.951 . S
C253 C251 1.388 . S
C253 C254 1.366 . S
C254 C253 1.366 . S
C254 C255 1.414 . S
C254 C257 1.499 . S
C255 H229 0.950 . S
C255 C254 1.414 . S
C255 C256 1.374 . S
C256 H230 0.950 . S
C256 C252 1.385 . S
C256 C255 1.374 . S
C257 C254 1.499 . S
C257 C258 1.373 . S
C257 C259 1.389 . S
C258 H231 0.950 . S
C258 C244 1.377 . S
C258 C257 1.373 . S
C259 C243 1.377 . S
C259 C257 1.389 . S
C259 C260 1.524 . S
C260 C259 1.524 . S
C260 C261 1.397 . S
C260 C265 1.363 . S
C261 H232 0.950 . S
C261 C260 1.397 . S
C261 C262 1.334 . S
C262 H233 0.950 . S
C262 C261 1.334 . S
C262 C263 1.287 . S
C263 C262 1.287 . S
C263 C264 1.524 . S
C263 H266 0.999 . S
C264 H234 0.950 . S
C264 C263 1.524 . S
C264 C265 1.415 . S
C265 H235 0.950 . S
C265 C260 1.363 . S
C265 C264 1.415 . S
H266 C263 0.999 . S
H267 C248 0.913 . S
H268 C286 0.951 . S
H269 C288 0.951 . S
H270 C290 0.950 . S
H271 C291 0.950 . S
H272 C293 0.950 . S
H273 C296 0.950 . S
H274 C297 0.950 . S
H275 C299 0.950 . S
H276 C300 0.950 . S
H277 C301 0.951 . S
H278 C303 0.951 . S
H279 C305 0.950 . S
H280 C306 0.950 . S
H281 C308 0.950 . S
H282 C311 0.950 . S
H283 C312 0.950 . S
H284 C314 0.950 . S
H285 C315 0.950 . S
C286 H268 0.951 . S
C286 C287 1.366 . S
C286 C288 1.388 . S
C287 C286 1.366 . S
C287 C291 1.385 . S
C288 H269 0.951 . S
C288 C286 1.388 . S
C288 C289 1.366 . S
C289 C288 1.366 . S
C289 C290 1.414 . S
C289 C292 1.499 . S
C290 H270 0.950 . S
C290 C289 1.414 . S
C290 C291 1.374 . S
C291 H271 0.950 . S
C291 C287 1.385 . S
C291 C290 1.374 . S
C292 C289 1.499 . S
C292 C293 1.373 . S
C292 C294 1.389 . S
C293 H272 0.950 . S
C293 C292 1.373 . S
C293 C309 1.377 . S
C294 C292 1.389 . S
C294 C295 1.524 . S
C294 C308 1.377 . S
C295 C294 1.524 . S
C295 C296 1.397 . S
C295 C300 1.363 . S
C296 H273 0.950 . S
C296 C295 1.397 . S
C296 C297 1.334 . S
C297 H274 0.950 . S
C297 C296 1.334 . S
C297 C298 1.287 . S
C298 C297 1.287 . S
C298 C299 1.524 . S
C298 H317 0.913 . S
C299 H275 0.950 . S
C299 C298 1.524 . S
C299 C300 1.415 . S
C300 H276 0.950 . S
C300 C295 1.363 . S
C300 C299 1.415 . S
C301 H277 0.951 . S
C301 C302 1.366 . S
C301 C303 1.388 . S
C302 C301 1.366 . S
C302 C306 1.385 . S
C303 H278 0.951 . S
C303 C301 1.388 . S
C303 C304 1.366 . S
C304 C303 1.366 . S
C304 C305 1.414 . S
C304 C307 1.499 . S
C305 H279 0.950 . S
C305 C304 1.414 . S
C305 C306 1.374 . S
C306 H280 0.950 . S
C306 C302 1.385 . S
C306 C305 1.374 . S
C307 C304 1.499 . S
C307 C308 1.373 . S
C307 C309 1.389 . S
C308 H281 0.950 . S
C308 C294 1.377 . S
C308 C307 1.373 . S
C309 C293 1.377 . S
C309 C307 1.389 . S
C309 C310 1.524 . S
C310 C309 1.524 . S
C310 C311 1.397 . S
C310 C315 1.363 . S
C311 H282 0.950 . S
C311 C310 1.397 . S
C311 C312 1.334 . S
C312 H283 0.950 . S
C312 C311 1.334 . S
C312 C313 1.287 . S
C313 C312 1.287 . S
C313 C314 1.524 . S
C313 H316 0.999 . S
C314 H284 0.950 . S
C314 C313 1.524 . S
C314 C315 1.415 . S
C315 H285 0.950 . S
C315 C310 1.363 . S
C315 C314 1.415 . S
H316 C313 0.999 . S
H317 C298 0.913 . S
H318 C336 0.951 . S
H319 C338 0.951 . S
H320 C340 0.950 . S
H321 C341 0.950 . S
H322 C343 0.950 . S
H323 C346 0.950 . S
H324 C347 0.950 . S
H325 C349 0.950 . S
H326 C350 0.950 . S
H327 C351 0.951 . S
H328 C353 0.951 . S
H329 C355 0.950 . S
H330 C356 0.950 . S
H331 C358 0.950 . S
H332 C361 0.950 . S
H333 C362 0.950 . S
H334 C364 0.950 . S
H335 C365 0.950 . S
C336 H318 0.951 . S
C336 C337 1.366 . S
C336 C338 1.388 . S
C337 C336 1.366 . S
C337 C341 1.385 . S
C338 H319 0.951 . S
C338 C336 1.388 . S
C338 C339 1.366 . S
C339 C338 1.366 . S
C339 C340 1.414 . S
C339 C342 1.499 . S
C340 H320 0.950 . S
C340 C339 1.414 . S
C340 C341 1.374 . S
C341 H321 0.950 . S
C341 C337 1.385 . S
C341 C340 1.374 . S
C342 C339 1.499 . S
C342 C343 1.373 . S
C342 C344 1.389 . S
C343 H322 0.950 . S
C343 C342 1.373 . S
C343 C359 1.377 . S
C344 C342 1.389 . S
C344 C345 1.524 . S
C344 C358 1.377 . S
C345 C344 1.524 . S
C345 C346 1.397 . S
C345 C350 1.363 . S
C346 H323 0.950 . S
C346 C345 1.397 . S
C346 C347 1.334 . S
C347 H324 0.950 . S
C347 C346 1.334 . S
C347 C348 1.287 . S
C348 C347 1.287 . S
C348 C349 1.524 . S
C348 H367 0.913 . S
C349 H325 0.950 . S
C349 C348 1.524 . S
C349 C350 1.415 . S
C350 H326 0.950 . S
C350 C345 1.363 . S
C350 C349 1.415 . S
C351 H327 0.951 . S
C351 C352 1.366 . S
C351 C353 1.388 . S
C352 C351 1.366 . S
C352 C356 1.385 . S
C353 H328 0.951 . S
C353 C351 1.388 . S
C353 C354 1.366 . S
C354 C353 1.366 . S
C354 C355 1.414 . S
C354 C357 1.499 . S
C355 H329 0.950 . S
C355 C354 1.414 . S
C355 C356 1.374 . S
C356 H330 0.950 . S
C356 C352 1.385 . S
C356 C355 1.374 . S
C357 C354 1.499 . S
C357 C358 1.373 . S
C357 C359 1.389 . S
C358 H331 0.950 . S
C358 C344 1.377 . S
C358 C357 1.373 . S
C359 C343 1.377 . S
C359 C357 1.389 . S
C359 C360 1.524 . S
C360 C359 1.524 . S
C360 C361 1.397 . S
C360 C365 1.363 . S
C361 H332 0.950 . S
C361 C360 1.397 . S
C361 C362 1.334 . S
C362 H333 0.950 . S
C362 C361 1.334 . S
C362 C363 1.287 . S
C363 C362 1.287 . S
C363 C364 1.524 . S
C363 H366 0.999 . S
C364 H334 0.950 . S
C364 C363 1.524 . S
C364 C365 1.415 . S
C365 H335 0.950 . S
C365 C360 1.363 . S
C365 C364 1.415 . S
H366 C363 0.999 . S
H367 C348 0.913 . S
H368 C386 0.951 . S
H369 C388 0.951 . S
H370 C390 0.950 . S
H371 C391 0.950 . S
H372 C393 0.950 . S
H373 C396 0.950 . S
H374 C397 0.950 . S
H375 C399 0.950 . S
H376 C400 0.950 . S
H377 C401 0.951 . S
H378 C403 0.951 . S
H379 C405 0.950 . S
H380 C406 0.950 . S
H381 C408 0.950 . S
H382 C411 0.950 . S
H383 C412 0.950 . S
H384 C414 0.950 . S
H385 C415 0.950 . S
C386 H368 0.951 . S
C386 C387 1.366 . S
C386 C388 1.388 . S
C387 C386 1.366 . S
C387 C391 1.385 . S
C388 H369 0.951 . S
C388 C386 1.388 . S
C388 C389 1.366 . S
C389 C388 1.366 . S
C389 C390 1.414 . S
C389 C392 1.490 1_554 S
C390 H370 0.950 . S
C390 C389 1.414 . S
C390 C391 1.374 . S
C391 H371 0.950 . S
C391 C387 1.385 . S
C391 C390 1.374 . S
C392 C389 1.490 1_556 S
C392 C393 1.381 . S
C392 C394 1.390 . S
C393 H372 0.950 . S
C393 C392 1.381 . S
C393 C409 1.377 . S
C394 C392 1.390 . S
C394 C395 1.524 1_556 S
C394 C408 1.377 . S
C395 C394 1.524 1_554 S
C395 C396 1.397 . S
C395 C400 1.363 . S
C396 H373 0.950 . S
C396 C395 1.397 . S
C396 C397 1.334 . S
C397 H374 0.950 . S
C397 C396 1.334 . S
C397 C398 1.287 . S
C398 C397 1.287 . S
C398 C399 1.524 . S
C398 H417 0.913 . S
C399 H375 0.950 . S
C399 C398 1.524 . S
C399 C400 1.415 . S
C400 H376 0.950 . S
C400 C395 1.363 . S
C400 C399 1.415 . S
C401 H377 0.951 . S
C401 C402 1.366 . S
C401 C403 1.388 . S
C402 C401 1.366 . S
C402 C406 1.385 . S
C403 H378 0.951 . S
C403 C401 1.388 . S
C403 C404 1.366 . S
C404 C403 1.366 . S
C404 C405 1.414 . S
C404 C407 1.499 . S
C405 H379 0.950 . S
C405 C404 1.414 . S
C405 C406 1.374 . S
C406 H380 0.950 . S
C406 C402 1.385 . S
C406 C405 1.374 . S
C407 C404 1.499 . S
C407 C408 1.373 . S
C407 C409 1.389 . S
C408 H381 0.950 . S
C408 C394 1.377 . S
C408 C407 1.373 . S
C409 C393 1.377 . S
C409 C407 1.389 . S
C409 C410 1.524 . S
C410 C409 1.524 . S
C410 C411 1.397 . S
C410 C415 1.363 . S
C411 H382 0.950 . S
C411 C410 1.397 . S
C411 C412 1.334 . S
C412 H383 0.950 . S
C412 C411 1.334 . S
C412 C413 1.287 . S
C413 C412 1.287 . S
C413 C414 1.524 . S
C413 H416 0.999 . S
C414 H384 0.950 . S
C414 C413 1.524 . S
C414 C415 1.415 . S
C415 H385 0.950 . S
C415 C410 1.363 . S
C415 C414 1.415 . S
H416 C413 0.999 . S
H417 C398 0.913 . S
H418 C436 0.951 . S
H419 C438 0.951 . S
H420 C440 0.950 . S
H421 C441 0.950 . S
H422 C443 0.950 . S
H423 C446 0.950 . S
H424 C447 0.950 . S
H425 C449 0.950 . S
H426 C450 0.950 . S
H427 C451 0.951 . S
H428 C453 0.951 . S
H429 C455 0.950 . S
H430 C456 0.950 . S
H431 C458 0.950 . S
H432 C461 0.950 . S
H433 C462 0.950 . S
H434 C464 0.950 . S
H435 C465 0.950 . S
C436 H418 0.951 . S
C436 C437 1.366 . S
C436 C438 1.388 . S
C437 C436 1.366 . S
C437 C441 1.385 . S
C438 H419 0.951 . S
C438 C436 1.388 . S
C438 C439 1.366 . S
C439 C438 1.366 . S
C439 C440 1.414 . S
C439 C442 1.499 . S
C440 H420 0.950 . S
C440 C439 1.414 . S
C440 C441 1.374 . S
C441 H421 0.950 . S
C441 C437 1.385 . S
C441 C440 1.374 . S
C442 C439 1.499 . S
C442 C443 1.373 . S
C442 C444 1.389 . S
C443 H422 0.950 . S
C443 C442 1.373 . S
C443 C459 1.377 . S
C444 C442 1.389 . S
C444 C445 1.524 . S
C444 C458 1.377 . S
C445 C444 1.524 . S
C445 C446 1.397 . S
C445 C450 1.363 . S
C446 H423 0.950 . S
C446 C445 1.397 . S
C446 C447 1.334 . S
C447 H424 0.950 . S
C447 C446 1.334 . S
C447 C448 1.287 . S
C448 C447 1.287 . S
C448 C449 1.524 . S
C448 H467 0.913 . S
C449 H425 0.950 . S
C449 C448 1.524 . S
C449 C450 1.415 . S
C450 H426 0.950 . S
C450 C445 1.363 . S
C450 C449 1.415 . S
C451 H427 0.951 . S
C451 C452 1.366 . S
C451 C453 1.388 1_556 S
C452 C451 1.366 . S
C452 C456 1.385 1_556 S
C453 H428 0.951 . S
C453 C451 1.388 1_554 S
C453 C454 1.366 . S
C454 C453 1.366 . S
C454 C455 1.414 . S
C454 C457 1.499 . S
C455 H429 0.950 . S
C455 C454 1.414 . S
C455 C456 1.374 . S
C456 H430 0.950 . S
C456 C452 1.385 1_554 S
C456 C455 1.374 . S
C457 C454 1.499 . S
C457 C458 1.373 . S
C457 C459 1.389 . S
C458 H431 0.950 . S
C458 C444 1.377 . S
C458 C457 1.373 . S
C459 C443 1.377 . S
C459 C457 1.389 . S
C459 C460 1.524 . S
C460 C459 1.524 . S
C460 C461 1.397 . S
C460 C465 1.363 . S
C461 H432 0.950 . S
C461 C460 1.397 . S
C461 C462 1.334 . S
C462 H433 0.950 . S
C462 C461 1.334 . S
C462 C463 1.287 . S
C463 C462 1.287 . S
C463 C464 1.524 . S
C463 H466 0.999 . S
C464 H434 0.950 . S
C464 C463 1.524 . S
C464 C465 1.415 . S
C465 H435 0.950 . S
C465 C460 1.363 . S
C465 C464 1.415 . S
H466 C463 0.999 . S
H467 C448 0.913 . S
H468 C486 0.951 . S
H469 C488 0.951 . S
H470 C490 0.950 . S
H471 C491 0.950 . S
H472 C493 0.950 . S
H473 C496 0.950 . S
H474 C497 0.950 . S
H475 C499 0.950 . S
H476 C500 0.950 . S
H477 C501 0.951 . S
H478 C503 0.951 . S
H479 C505 0.950 . S
H480 C506 0.950 . S
H481 C508 0.950 . S
H482 C511 0.950 . S
H483 C512 0.950 . S
H484 C514 0.950 . S
H485 C515 0.950 . S
C486 H468 0.951 . S
C486 C487 1.366 . S
C486 C488 1.388 . S
C487 C486 1.366 . S
C487 C491 1.385 . S
C488 H469 0.951 . S
C488 C486 1.388 . S
C488 C489 1.366 . S
C489 C488 1.366 . S
C489 C490 1.414 . S
C489 C492 1.499 . S
C490 H470 0.950 . S
C490 C489 1.414 . S
C490 C491 1.374 . S
C491 H471 0.950 . S
C491 C487 1.385 . S
C491 C490 1.374 . S
C492 C489 1.499 . S
C492 C493 1.373 . S
C492 C494 1.389 . S
C493 H472 0.950 . S
C493 C492 1.373 . S
C493 C509 1.377 . S
C494 C492 1.389 . S
C494 C495 1.524 . S
C494 C508 1.377 . S
C495 C494 1.524 . S
C495 C496 1.397 . S
C495 C500 1.363 . S
C496 H473 0.950 . S
C496 C495 1.397 . S
C496 C497 1.334 . S
C497 H474 0.950 . S
C497 C496 1.334 . S
C497 C498 1.287 . S
C498 C497 1.287 . S
C498 C499 1.524 . S
C498 H517 0.913 . S
C499 H475 0.950 . S
C499 C498 1.524 . S
C499 C500 1.415 . S
C500 H476 0.950 . S
C500 C495 1.363 . S
C500 C499 1.415 . S
C501 H477 0.951 . S
C501 C502 1.366 . S
C501 C503 1.388 . S
C502 C501 1.366 . S
C502 C506 1.385 . S
C503 H478 0.951 . S
C503 C501 1.388 . S
C503 C504 1.366 . S
C504 C503 1.366 . S
C504 C505 1.414 . S
C504 C507 1.499 . S
C505 H479 0.950 . S
C505 C504 1.414 . S
C505 C506 1.374 . S
C506 H480 0.950 . S
C506 C502 1.385 . S
C506 C505 1.374 . S
C507 C504 1.499 . S
C507 C508 1.373 . S
C507 C509 1.389 . S
C508 H481 0.950 . S
C508 C494 1.377 . S
C508 C507 1.373 . S
C509 C493 1.377 . S
C509 C507 1.389 . S
C509 C510 1.524 . S
C510 C509 1.524 . S
C510 C511 1.397 . S
C510 C515 1.363 . S
C511 H482 0.950 . S
C511 C510 1.397 . S
C511 C512 1.334 1_554 S
C512 H483 0.950 . S
C512 C511 1.334 1_556 S
C512 C513 1.287 . S
C513 C512 1.287 . S
C513 C514 1.524 . S
C513 H516 0.999 . S
C514 H484 0.950 . S
C514 C513 1.524 . S
C514 C515 1.415 1_556 S
C515 H485 0.950 . S
C515 C510 1.363 . S
C515 C514 1.415 1_554 S
H516 C513 0.999 . S
H517 C498 0.913 . S
H518 C536 0.951 . S
H519 C538 0.951 . S
H520 C540 0.950 . S
H521 C541 0.950 . S
H522 C543 0.950 . S
H523 C546 0.950 . S
H524 C547 0.950 . S
H525 C549 0.950 . S
H526 C550 0.950 . S
H527 C551 0.951 . S
H528 C553 0.951 . S
H529 C555 0.950 . S
H530 C556 0.950 . S
H531 C558 0.950 . S
H532 C561 0.950 . S
H533 C562 0.950 . S
H534 C564 0.950 . S
H535 C565 0.950 . S
C536 H518 0.951 . S
C536 C537 1.366 . S
C536 C538 1.388 . S
C537 C536 1.366 . S
C537 C541 1.385 . S
C538 H519 0.951 . S
C538 C536 1.388 . S
C538 C539 1.366 . S
C539 C538 1.366 . S
C539 C540 1.414 . S
C539 C542 1.499 . S
C540 H520 0.950 . S
C540 C539 1.414 . S
C540 C541 1.374 . S
C541 H521 0.950 . S
C541 C537 1.385 . S
C541 C540 1.374 . S
C542 C539 1.499 . S
C542 C543 1.373 . S
C542 C544 1.389 . S
C543 H522 0.950 . S
C543 C542 1.373 . S
C543 C559 1.377 . S
C544 C542 1.389 . S
C544 C545 1.524 . S
C544 C558 1.377 . S
C545 C544 1.524 . S
C545 C546 1.397 . S
C545 C550 1.363 . S
C546 H523 0.950 . S
C546 C545 1.397 . S
C546 C547 1.334 . S
C547 H524 0.950 . S
C547 C546 1.334 . S
C547 C548 1.287 . S
C548 C547 1.287 . S
C548 C549 1.524 . S
C548 H567 0.913 . S
C549 H525 0.950 . S
C549 C548 1.524 . S
C549 C550 1.415 . S
C550 H526 0.950 . S
C550 C545 1.363 . S
C550 C549 1.415 . S
C551 H527 0.951 . S
C551 C552 1.366 . S
C551 C553 1.388 . S
C552 C551 1.366 . S
C552 C556 1.385 . S
C553 H528 0.951 . S
C553 C551 1.388 . S
C553 C554 1.366 . S
C554 C553 1.366 . S
C554 C555 1.414 . S
C554 C557 1.499 . S
C555 H529 0.950 . S
C555 C554 1.414 . S
C555 C556 1.374 . S
C556 H530 0.950 . S
C556 C552 1.385 . S
C556 C555 1.374 . S
C557 C554 1.499 . S
C557 C558 1.373 . S
C557 C559 1.389 . S
C558 H531 0.950 . S
C558 C544 1.377 . S
C558 C557 1.373 . S
C559 C543 1.377 . S
C559 C557 1.389 . S
C559 C560 1.524 . S
C560 C559 1.524 . S
C560 C561 1.397 . S
C560 C565 1.363 . S
C561 H532 0.950 . S
C561 C560 1.397 . S
C561 C562 1.334 . S
C562 H533 0.950 . S
C562 C561 1.334 . S
C562 C563 1.287 . S
C563 C562 1.287 . S
C563 C564 1.524 . S
C563 H566 0.999 . S
C564 H534 0.950 . S
C564 C563 1.524 . S
C564 C565 1.415 . S
C565 H535 0.950 . S
C565 C560 1.363 . S
C565 C564 1.415 . S
H566 C563 0.999 . S
H567 C548 0.913 . S
H568 C586 0.951 . S
H569 C588 0.951 . S
H570 C590 0.950 . S
H571 C591 0.950 . S
H572 C593 0.950 . S
H573 C596 0.950 . S
H574 C597 0.950 . S
H575 C599 0.950 . S
H576 C600 0.950 . S
H577 C601 0.951 . S
H578 C603 0.951 . S
H579 C605 0.950 . S
H580 C606 0.950 . S
H581 C608 0.950 . S
H582 C611 0.950 . S
H583 C612 0.950 . S
H584 C614 0.950 . S
H585 C615 0.950 . S
C586 H568 0.951 . S
C586 C587 1.366 . S
C586 C588 1.388 . S
C587 C586 1.366 . S
C587 C591 1.385 . S
C588 H569 0.951 . S
C588 C586 1.388 . S
C588 C589 1.366 . S
C589 C588 1.366 . S
C589 C590 1.414 . S
C589 C592 1.499 . S
C590 H570 0.950 . S
C590 C589 1.414 . S
C590 C591 1.374 . S
C591 H571 0.950 . S
C591 C587 1.385 . S
C591 C590 1.374 . S
C592 C589 1.499 . S
C592 C593 1.373 . S
C592 C594 1.389 . S
C593 H572 0.950 . S
C593 C592 1.373 . S
C593 C609 1.377 . S
C594 C592 1.389 . S
C594 C595 1.524 . S
C594 C608 1.377 . S
C595 C594 1.524 . S
C595 C596 1.397 . S
C595 C600 1.363 . S
C596 H573 0.950 . S
C596 C595 1.397 . S
C596 C597 1.334 . S
C597 H574 0.950 . S
C597 C596 1.334 . S
C597 C598 1.287 . S
C598 C597 1.287 . S
C598 C599 1.524 . S
C598 H617 0.913 . S
C599 H575 0.950 . S
C599 C598 1.524 . S
C599 C600 1.415 . S
C600 H576 0.950 . S
C600 C595 1.363 . S
C600 C599 1.415 . S
C601 H577 0.951 . S
C601 C602 1.366 . S
C601 C603 1.388 . S
C602 C601 1.366 . S
C602 C606 1.385 . S
C603 H578 0.951 . S
C603 C601 1.388 . S
C603 C604 1.366 . S
C604 C603 1.366 . S
C604 C605 1.414 . S
C604 C607 1.499 . S
C605 H579 0.950 . S
C605 C604 1.414 . S
C605 C606 1.374 . S
C606 H580 0.950 . S
C606 C602 1.385 . S
C606 C605 1.374 . S
C607 C604 1.499 . S
C607 C608 1.373 . S
C607 C609 1.389 . S
C608 H581 0.950 . S
C608 C594 1.377 . S
C608 C607 1.373 . S
C609 C593 1.377 . S
C609 C607 1.389 . S
C609 C610 1.524 . S
C610 C609 1.524 . S
C610 C611 1.397 . S
C610 C615 1.363 . S
C611 H582 0.950 . S
C611 C610 1.397 . S
C611 C612 1.334 . S
C612 H583 0.950 . S
C612 C611 1.334 . S
C612 C613 1.287 . S
C613 C612 1.287 . S
C613 C614 1.524 . S
C613 H616 0.999 . S
C614 H584 0.950 . S
C614 C613 1.524 . S
C614 C615 1.415 . S
C615 H585 0.950 . S
C615 C610 1.363 . S
C615 C614 1.415 . S
H616 C613 0.999 . S
H617 C598 0.913 . S
H618 C636 0.951 . S
H619 C638 0.951 . S
H620 C640 0.950 . S
H621 C641 0.950 . S
H622 C643 0.950 . S
H623 C646 0.950 . S
H624 C647 0.950 . S
H625 C649 0.950 . S
H626 C650 0.950 . S
H627 C651 0.951 . S
H628 C653 0.951 . S
H629 C655 0.950 . S
H630 C656 0.950 . S
H631 C658 0.950 . S
H632 C661 0.950 . S
H633 C662 0.950 . S
H634 C664 0.950 . S
H635 C665 0.950 . S
C636 H618 0.951 . S
C636 C637 1.366 . S
C636 C638 1.388 . S
C637 C636 1.366 . S
C637 C641 1.385 . S
C638 H619 0.951 . S
C638 C636 1.388 . S
C638 C639 1.366 . S
C639 C638 1.366 . S
C639 C640 1.414 . S
C639 C642 1.499 . S
C640 H620 0.950 . S
C640 C639 1.414 . S
C640 C641 1.374 . S
C641 H621 0.950 . S
C641 C637 1.385 . S
C641 C640 1.374 . S
C642 C639 1.499 . S
C642 C643 1.373 . S
C642 C644 1.389 . S
C643 H622 0.950 . S
C643 C642 1.373 . S
C643 C659 1.377 . S
C644 C642 1.389 . S
C644 C645 1.524 . S
C644 C658 1.377 . S
C645 C644 1.524 . S
C645 C646 1.397 . S
C645 C650 1.363 . S
C646 H623 0.950 . S
C646 C645 1.397 . S
C646 C647 1.334 . S
C647 H624 0.950 . S
C647 C646 1.334 . S
C647 C648 1.287 . S
C648 C647 1.287 . S
C648 C649 1.524 . S
C648 H667 0.913 . S
C649 H625 0.950 . S
C649 C648 1.524 . S
C649 C650 1.415 . S
C650 H626 0.950 . S
C650 C645 1.363 . S
C650 C649 1.415 . S
C651 H627 0.951 . S
C651 C652 1.366 . S
C651 C653 1.388 . S
C652 C651 1.366 . S
C652 C656 1.385 . S
C653 H628 0.951 . S
C653 C651 1.388 . S
C653 C654 1.366 . S
C654 C653 1.366 . S
C654 C655 1.414 . S
C654 C657 1.499 . S
C655 H629 0.950 . S
C655 C654 1.414 . S
C655 C656 1.374 . S
C656 H630 0.950 . S
C656 C652 1.385 . S
C656 C655 1.374 . S
C657 C654 1.499 . S
C657 C658 1.373 . S
C657 C659 1.389 . S
C658 H631 0.950 . S
C658 C644 1.377 . S
C658 C657 1.373 . S
C659 C643 1.377 . S
C659 C657 1.389 . S
C659 C660 1.524 . S
C660 C659 1.524 . S
C660 C661 1.397 . S
C660 C665 1.363 . S
C661 H632 0.950 . S
C661 C660 1.397 . S
C661 C662 1.334 . S
C662 H633 0.950 . S
C662 C661 1.334 . S
C662 C663 1.287 . S
C663 C662 1.287 . S
C663 C664 1.524 . S
C663 H666 0.999 . S
C664 H634 0.950 . S
C664 C663 1.524 . S
C664 C665 1.415 . S
C665 H635 0.950 . S
C665 C660 1.363 . S
C665 C664 1.415 . S
H666 C663 0.999 . S
H667 C648 0.913 . S
H668 C686 0.951 . S
H669 C688 0.951 . S
H670 C690 0.950 . S
H671 C691 0.950 . S
H672 C693 0.950 . S
H673 C696 0.950 . S
H674 C697 0.950 . S
H675 C699 0.950 . S
H676 C700 0.950 . S
H677 C701 0.951 . S
H678 C703 0.951 . S
H679 C705 0.950 . S
H680 C706 0.950 . S
H681 C708 0.950 . S
H682 C711 0.950 . S
H683 C712 0.950 . S
H684 C714 0.950 . S
H685 C715 0.950 . S
C686 H668 0.951 . S
C686 C687 1.366 . S
C686 C688 1.388 . S
C687 C686 1.366 . S
C687 C691 1.385 . S
C688 H669 0.951 . S
C688 C686 1.388 . S
C688 C689 1.366 . S
C689 C688 1.366 . S
C689 C690 1.414 . S
C689 C692 1.499 . S
C690 H670 0.950 . S
C690 C689 1.414 . S
C690 C691 1.374 . S
C691 H671 0.950 . S
C691 C687 1.385 . S
C691 C690 1.374 . S
C692 C689 1.499 . S
C692 C693 1.373 . S
C692 C694 1.389 . S
C693 H672 0.950 . S
C693 C692 1.373 . S
C693 C709 1.377 . S
C694 C692 1.389 . S
C694 C695 1.524 . S
C694 C708 1.377 . S
C695 C694 1.524 . S
C695 C696 1.397 . S
C695 C700 1.363 . S
C696 H673 0.950 . S
C696 C695 1.397 . S
C696 C697 1.334 . S
C697 H674 0.950 . S
C697 C696 1.334 . S
C697 C698 1.287 . S
C698 C697 1.287 . S
C698 C699 1.524 . S
C698 H717 0.913 . S
C699 H675 0.950 . S
C699 C698 1.524 . S
C699 C700 1.415 . S
C700 H676 0.950 . S
C700 C695 1.363 . S
C700 C699 1.415 . S
C701 H677 0.951 . S
C701 C702 1.366 . S
C701 C703 1.388 . S
C702 C701 1.366 . S
C702 C706 1.385 . S
C703 H678 0.951 . S
C703 C701 1.388 . S
C703 C704 1.366 . S
C704 C703 1.366 . S
C704 C705 1.414 . S
C704 C707 1.499 . S
C705 H679 0.950 . S
C705 C704 1.414 . S
C705 C706 1.374 . S
C706 H680 0.950 . S
C706 C702 1.385 . S
C706 C705 1.374 . S
C707 C704 1.499 . S
C707 C708 1.373 . S
C707 C709 1.389 . S
C708 H681 0.950 . S
C708 C694 1.377 . S
C708 C707 1.373 . S
C709 C693 1.377 . S
C709 C707 1.389 . S
C709 C710 1.524 . S
C710 C709 1.524 . S
C710 C711 1.397 . S
C710 C715 1.363 . S
C711 H682 0.950 . S
C711 C710 1.397 . S
C711 C712 1.334 . S
C712 H683 0.950 . S
C712 C711 1.334 . S
C712 C713 1.287 . S
C713 C712 1.287 . S
C713 C714 1.524 . S
C713 H716 0.999 . S
C714 H684 0.950 . S
C714 C713 1.524 . S
C714 C715 1.415 . S
C715 H685 0.950 . S
C715 C710 1.363 . S
C715 C714 1.415 . S
H716 C713 0.999 . S
H717 C698 0.913 . S
H718 C736 0.951 . S
H719 C738 0.951 . S
H720 C740 0.950 . S
H721 C741 0.950 . S
H722 C743 0.950 . S
H723 C746 0.950 . S
H724 C747 0.950 . S
H725 C749 0.950 . S
H726 C750 0.950 . S
H727 C751 0.952 . S
H728 C753 0.951 . S
H729 C755 0.950 . S
H730 C756 0.950 . S
H731 C758 0.950 . S
H732 C761 0.950 . S
H733 C762 0.950 . S
H734 C764 0.950 . S
H735 C765 0.950 1_556 S
C736 H718 0.951 . S
C736 C737 1.366 . S
C736 C738 1.388 . S
C737 C736 1.366 . S
C737 C741 1.385 . S
C738 H719 0.951 . S
C738 C736 1.388 . S
C738 C739 1.366 . S
C739 C738 1.366 . S
C739 C740 1.414 . S
C739 C742 1.499 . S
C740 H720 0.950 . S
C740 C739 1.414 . S
C740 C741 1.374 . S
C741 H721 0.950 . S
C741 C737 1.385 . S
C741 C740 1.374 . S
C742 C739 1.499 . S
C742 C743 1.373 . S
C742 C744 1.389 . S
C743 H722 0.950 . S
C743 C742 1.373 . S
C743 C759 1.377 . S
C744 C742 1.389 . S
C744 C745 1.524 . S
C744 C758 1.377 . S
C745 C744 1.524 . S
C745 C746 1.397 . S
C745 C750 1.363 . S
C746 H723 0.950 . S
C746 C745 1.397 . S
C746 C747 1.334 . S
C747 H724 0.950 . S
C747 C746 1.334 . S
C747 C748 1.287 . S
C748 C747 1.287 . S
C748 C749 1.524 . S
C748 H767 0.913 . S
C749 H725 0.950 . S
C749 C748 1.524 . S
C749 C750 1.415 . S
C750 H726 0.950 . S
C750 C745 1.363 . S
C750 C749 1.415 . S
C751 H727 0.952 . S
C751 C752 1.366 . S
C751 C753 1.388 1_554 S
C752 C751 1.366 . S
C752 C756 1.385 . S
C753 H728 0.951 . S
C753 C751 1.388 1_556 S
C753 C754 1.366 . S
C754 C753 1.366 . S
C754 C755 1.414 1_556 S
C754 C757 1.499 . S
C755 H729 0.950 . S
C755 C754 1.414 1_554 S
C755 C756 1.374 . S
C756 H730 0.950 . S
C756 C752 1.385 . S
C756 C755 1.374 . S
C757 C754 1.499 . S
C757 C758 1.373 . S
C757 C759 1.389 . S
C758 H731 0.950 . S
C758 C744 1.377 . S
C758 C757 1.373 . S
C759 C743 1.377 . S
C759 C757 1.389 . S
C759 C760 1.524 1_556 S
C760 C759 1.524 1_554 S
C760 C761 1.397 . S
C760 C765 1.363 . S
C761 H732 0.950 . S
C761 C760 1.397 . S
C761 C762 1.334 . S
C762 H733 0.950 . S
C762 C761 1.334 . S
C762 C763 1.287 . S
C763 C762 1.287 . S
C763 C764 1.524 . S
C763 H766 0.999 . S
C764 H734 0.950 . S
C764 C763 1.524 . S
C764 C765 1.415 . S
C765 H735 0.950 1_554 S
C765 C760 1.363 . S
C765 C764 1.415 . S
H766 C763 0.999 . S
H767 C748 0.913 . S
H768 C786 0.951 . S
H769 C788 0.951 . S
H770 C790 0.950 . S
H771 C791 0.950 . S
H772 C793 0.950 . S
H773 C796 0.950 . S
H774 C797 0.950 . S
H775 C799 0.950 . S
H776 C800 0.950 . S
H777 C801 0.951 . S
H778 C803 0.951 . S
H779 C805 0.950 . S
H780 C806 0.950 . S
H781 C808 0.950 . S
H782 C811 0.950 . S
H783 C812 0.950 . S
H784 C814 0.950 . S
H785 C815 0.950 . S
C786 H768 0.951 . S
C786 C787 1.366 . S
C786 C788 1.388 . S
C787 C786 1.366 . S
C787 C791 1.385 . S
C788 H769 0.951 . S
C788 C786 1.388 . S
C788 C789 1.366 . S
C789 C788 1.366 . S
C789 C790 1.414 . S
C789 C792 1.499 . S
C790 H770 0.950 . S
C790 C789 1.414 . S
C790 C791 1.374 . S
C791 H771 0.950 . S
C791 C787 1.385 . S
C791 C790 1.374 . S
C792 C789 1.499 . S
C792 C793 1.373 . S
C792 C794 1.389 . S
C793 H772 0.950 . S
C793 C792 1.373 . S
C793 C809 1.377 . S
C794 C792 1.389 . S
C794 C795 1.524 . S
C794 C808 1.377 . S
C795 C794 1.524 . S
C795 C796 1.397 . S
C795 C800 1.363 . S
C796 H773 0.950 . S
C796 C795 1.397 . S
C796 C797 1.334 . S
C797 H774 0.950 . S
C797 C796 1.334 . S
C797 C798 1.287 . S
C798 C797 1.287 . S
C798 C799 1.524 . S
C798 H817 0.913 . S
C799 H775 0.950 . S
C799 C798 1.524 . S
C799 C800 1.415 . S
C800 H776 0.950 . S
C800 C795 1.363 . S
C800 C799 1.415 . S
C801 H777 0.951 . S
C801 C802 1.366 . S
C801 C803 1.388 . S
C802 C801 1.366 . S
C802 C806 1.385 . S
C803 H778 0.951 . S
C803 C801 1.388 . S
C803 C804 1.366 . S
C804 C803 1.366 . S
C804 C805 1.414 . S
C804 C807 1.499 . S
C805 H779 0.950 . S
C805 C804 1.414 . S
C805 C806 1.374 . S
C806 H780 0.950 . S
C806 C802 1.385 . S
C806 C805 1.374 . S
C807 C804 1.499 . S
C807 C808 1.373 . S
C807 C809 1.389 . S
C808 H781 0.950 . S
C808 C794 1.377 . S
C808 C807 1.373 . S
C809 C793 1.377 . S
C809 C807 1.389 . S
C809 C810 1.524 . S
C810 C809 1.524 . S
C810 C811 1.397 . S
C810 C815 1.363 . S
C811 H782 0.950 . S
C811 C810 1.397 . S
C811 C812 1.334 . S
C812 H783 0.950 . S
C812 C811 1.334 . S
C812 C813 1.287 . S
C813 C812 1.287 . S
C813 C814 1.524 . S
C813 H816 0.999 . S
C814 H784 0.950 . S
C814 C813 1.524 . S
C814 C815 1.415 . S
C815 H785 0.950 . S
C815 C810 1.363 . S
C815 C814 1.415 . S
H816 C813 0.999 . S
H817 C798 0.913 . S
H818 C836 0.951 . S
H819 C838 0.951 . S
H820 C840 0.950 . S
H821 C841 0.950 . S
H822 C843 0.950 . S
H823 C846 0.950 . S
H824 C847 0.950 . S
H825 C849 0.950 1_554 S
H826 C850 0.950 1_554 S
H827 C851 0.951 . S
H828 C853 0.951 . S
H829 C855 0.950 . S
H830 C856 0.950 . S
H831 C858 0.950 1_554 S
H832 C861 0.961 . S
H833 C862 0.960 . S
H834 C864 0.950 . S
H835 C865 0.950 . S
C836 H818 0.951 . S
C836 C837 1.366 . S
C836 C838 1.388 . S
C837 C836 1.366 . S
C837 C841 1.385 . S
C838 H819 0.951 . S
C838 C836 1.388 . S
C838 C839 1.366 . S
C839 C838 1.366 . S
C839 C840 1.414 . S
C839 C842 1.499 . S
C840 H820 0.950 . S
C840 C839 1.414 . S
C840 C841 1.374 . S
C841 H821 0.950 . S
C841 C837 1.385 . S
C841 C840 1.374 . S
C842 C839 1.499 . S
C842 C843 1.373 . S
C842 C844 1.389 . S
C843 H822 0.950 . S
C843 C842 1.373 . S
C843 C859 1.377 . S
C844 C842 1.389 . S
C844 C845 1.524 . S
C844 C858 1.377 . S
C845 C844 1.524 . S
C845 C846 1.397 . S
C845 C850 1.363 . S
C846 H823 0.950 . S
C846 C845 1.397 . S
C846 C847 1.334 . S
C847 H824 0.950 . S
C847 C846 1.334 . S
C847 C848 1.287 . S
C848 C847 1.287 . S
C848 C849 1.524 . S
C848 H867 0.913 . S
C849 H825 0.950 1_556 S
C849 C848 1.524 . S
C849 C850 1.415 . S
C850 H826 0.950 1_556 S
C850 C845 1.363 . S
C850 C849 1.415 . S
C851 H827 0.951 . S
C851 C852 1.366 . S
C851 C853 1.388 . S
C852 C851 1.366 . S
C852 C856 1.385 . S
C853 H828 0.951 . S
C853 C851 1.388 . S
C853 C854 1.366 . S
C854 C853 1.366 . S
C854 C855 1.414 . S
C854 C857 1.477 1_554 S
C855 H829 0.950 . S
C855 C854 1.414 . S
C855 C856 1.374 . S
C856 H830 0.950 . S
C856 C852 1.385 . S
C856 C855 1.374 . S
C857 C854 1.477 1_556 S
C857 C858 1.374 . S
C857 C859 1.411 . S
C858 H831 0.950 1_556 S
C858 C844 1.377 . S
C858 C857 1.374 . S
C859 C843 1.377 . S
C859 C857 1.411 . S
C859 C860 1.524 . S
C860 C859 1.524 . S
C860 C861 1.397 . S
C860 C865 1.363 . S
C861 H832 0.961 . S
C861 C860 1.397 . S
C861 C862 1.334 . S
C862 H833 0.960 . S
C862 C861 1.334 . S
C862 C863 1.287 . S
C863 C862 1.287 . S
C863 C864 1.524 . S
C863 H866 0.999 . S
C864 H834 0.950 . S
C864 C863 1.524 . S
C864 C865 1.415 . S
C865 H835 0.950 . S
C865 C860 1.363 . S
C865 C864 1.415 . S
H866 C863 0.999 . S
H867 C848 0.913 . S
H868 C886 0.942 1_556 S
H869 C888 0.951 . S
H870 C890 0.950 . S
H871 C891 0.950 1_556 S
H872 C893 0.950 . S
H873 C896 0.950 . S
H874 C897 0.950 . S
H875 C899 0.950 . S
H876 C900 0.950 . S
H877 C901 0.951 . S
H878 C903 0.951 . S
H879 C905 0.950 . S
H880 C906 0.950 . S
H881 C908 0.950 . S
H882 C911 0.950 . S
H883 C912 0.950 . S
H884 C914 0.950 . S
H885 C915 0.950 . S
C886 H868 0.942 1_554 S
C886 C887 1.358 1_554 S
C886 C888 1.405 . S
C887 C886 1.358 1_556 S
C887 C891 1.385 1_556 S
C888 H869 0.951 . S
C888 C886 1.405 . S
C888 C889 1.366 . S
C889 C888 1.366 . S
C889 C890 1.414 . S
C889 C892 1.499 . S
C890 H870 0.950 . S
C890 C889 1.414 . S
C890 C891 1.374 . S
C891 H871 0.950 1_554 S
C891 C887 1.385 1_554 S
C891 C890 1.374 . S
C892 C889 1.499 . S
C892 C893 1.373 . S
C892 C894 1.389 . S
C893 H872 0.950 . S
C893 C892 1.373 . S
C893 C909 1.377 . S
C894 C892 1.389 . S
C894 C895 1.524 . S
C894 C908 1.377 . S
C895 C894 1.524 . S
C895 C896 1.397 . S
C895 C900 1.363 . S
C896 H873 0.950 . S
C896 C895 1.397 . S
C896 C897 1.334 . S
C897 H874 0.950 . S
C897 C896 1.334 . S
C897 C898 1.287 . S
C898 C897 1.287 . S
C898 C899 1.524 . S
C898 H917 0.913 . S
C899 H875 0.950 . S
C899 C898 1.524 . S
C899 C900 1.415 . S
C900 H876 0.950 . S
C900 C895 1.363 . S
C900 C899 1.415 . S
C901 H877 0.951 . S
C901 C902 1.366 . S
C901 C903 1.388 . S
C902 C901 1.366 . S
C902 C906 1.385 . S
C903 H878 0.951 . S
C903 C901 1.388 . S
C903 C904 1.366 . S
C904 C903 1.366 . S
C904 C905 1.414 . S
C904 C907 1.499 . S
C905 H879 0.950 . S
C905 C904 1.414 . S
C905 C906 1.374 . S
C906 H880 0.950 . S
C906 C902 1.385 . S
C906 C905 1.374 . S
C907 C904 1.499 . S
C907 C908 1.373 . S
C907 C909 1.389 . S
C908 H881 0.950 . S
C908 C894 1.377 . S
C908 C907 1.373 . S
C909 C893 1.377 . S
C909 C907 1.389 . S
C909 C910 1.524 . S
C910 C909 1.524 . S
C910 C911 1.397 . S
C910 C915 1.363 . S
C911 H882 0.950 . S
C911 C910 1.397 . S
C911 C912 1.334 . S
C912 H883 0.950 . S
C912 C911 1.334 . S
C912 C913 1.287 . S
C913 C912 1.287 . S
C913 C914 1.524 . S
C913 H916 0.999 . S
C914 H884 0.950 . S
C914 C913 1.524 . S
C914 C915 1.415 . S
C915 H885 0.950 . S
C915 C910 1.363 . S
C915 C914 1.415 . S
H916 C913 0.999 . S
H917 C898 0.913 . S
H918 C936 0.951 . S
H919 C938 0.951 . S
H920 C940 0.950 . S
H921 C941 0.950 . S
H922 C943 0.950 . S
H923 C946 0.950 . S
H924 C947 0.950 . S
H925 C949 0.950 . S
H926 C950 0.950 . S
H927 C951 0.951 . S
H928 C953 0.951 . S
H929 C955 0.950 . S
H930 C956 0.950 . S
H931 C958 0.950 . S
H932 C961 0.950 . S
H933 C962 0.950 . S
H934 C964 0.950 . S
H935 C965 0.950 . S
C936 H918 0.951 . S
C936 C937 1.366 . S
C936 C938 1.388 . S
C937 C936 1.366 . S
C937 C941 1.385 . S
C938 H919 0.951 . S
C938 C936 1.388 . S
C938 C939 1.366 . S
C939 C938 1.366 . S
C939 C940 1.414 . S
C939 C942 1.499 . S
C940 H920 0.950 . S
C940 C939 1.414 . S
C940 C941 1.374 . S
C941 H921 0.950 . S
C941 C937 1.385 . S
C941 C940 1.374 . S
C942 C939 1.499 . S
C942 C943 1.373 . S
C942 C944 1.389 . S
C943 H922 0.950 . S
C943 C942 1.373 . S
C943 C959 1.377 . S
C944 C942 1.389 . S
C944 C945 1.524 . S
C944 C958 1.377 . S
C945 C944 1.524 . S
C945 C946 1.397 . S
C945 C950 1.363 . S
C946 H923 0.950 . S
C946 C945 1.397 . S
C946 C947 1.334 . S
C947 H924 0.950 . S
C947 C946 1.334 . S
C947 C948 1.287 . S
C948 C947 1.287 . S
C948 C949 1.524 . S
C948 H967 0.913 . S
C949 H925 0.950 . S
C949 C948 1.524 . S
C949 C950 1.415 . S
C950 H926 0.950 . S
C950 C945 1.363 . S
C950 C949 1.415 . S
C951 H927 0.951 . S
C951 C952 1.366 . S
C951 C953 1.388 . S
C952 C951 1.366 . S
C952 C956 1.385 . S
C953 H928 0.951 . S
C953 C951 1.388 . S
C953 C954 1.366 . S
C954 C953 1.366 . S
C954 C955 1.414 . S
C954 C957 1.499 . S
C955 H929 0.950 . S
C955 C954 1.414 . S
C955 C956 1.374 . S
C956 H930 0.950 . S
C956 C952 1.385 . S
C956 C955 1.374 . S
C957 C954 1.499 . S
C957 C958 1.373 . S
C957 C959 1.389 . S
C958 H931 0.950 . S
C958 C944 1.377 . S
C958 C957 1.373 . S
C959 C943 1.377 . S
C959 C957 1.389 . S
C959 C960 1.524 . S
C960 C959 1.524 . S
C960 C961 1.397 . S
C960 C965 1.363 . S
C961 H932 0.950 . S
C961 C960 1.397 . S
C961 C962 1.334 . S
C962 H933 0.950 . S
C962 C961 1.334 . S
C962 C963 1.287 . S
C963 C962 1.287 . S
C963 C964 1.524 . S
C963 H966 0.999 . S
C964 H934 0.950 . S
C964 C963 1.524 . S
C964 C965 1.415 . S
C965 H935 0.950 . S
C965 C960 1.363 . S
C965 C964 1.415 . S
H966 C963 0.999 . S
H967 C948 0.913 . S
H968 C986 0.951 . S
H969 C988 0.951 . S
H970 C990 0.950 . S
H971 C991 0.950 . S
H972 C993 0.950 . S
H973 C996 0.950 . S
H974 C997 0.950 . S
H975 C999 0.950 . S
H976 C1000 0.950 . S
H977 C1001 0.951 . S
H978 C1003 0.951 . S
H979 C1005 0.950 . S
H980 C1006 0.950 . S
H981 C1008 0.950 . S
H982 C1011 0.950 . S
H983 C1012 0.950 . S
H984 C1014 0.950 . S
H985 C1015 0.950 . S
C986 H968 0.951 . S
C986 C987 1.366 . S
C986 C988 1.388 . S
C987 C986 1.366 . S
C987 C991 1.385 . S
C988 H969 0.951 . S
C988 C986 1.388 . S
C988 C989 1.366 . S
C989 C988 1.366 . S
C989 C990 1.414 . S
C989 C992 1.499 . S
C990 H970 0.950 . S
C990 C989 1.414 . S
C990 C991 1.374 . S
C991 H971 0.950 . S
C991 C987 1.385 . S
C991 C990 1.374 . S
C992 C989 1.499 . S
C992 C993 1.373 . S
C992 C994 1.389 . S
C993 H972 0.950 . S
C993 C992 1.373 . S
C993 C1009 1.377 . S
C994 C992 1.389 . S
C994 C995 1.524 . S
C994 C1008 1.377 . S
C995 C994 1.524 . S
C995 C996 1.397 . S
C995 C1000 1.363 . S
C996 H973 0.950 . S
C996 C995 1.397 . S
C996 C997 1.334 . S
C997 H974 0.950 . S
C997 C996 1.334 . S
C997 C998 1.287 . S
C998 C997 1.287 . S
C998 C999 1.524 . S
C998 H1017 0.913 . S
C999 H975 0.950 . S
C999 C998 1.524 . S
C999 C1000 1.415 . S
C1000 H976 0.950 . S
C1000 C995 1.363 . S
C1000 C999 1.415 . S
C1001 H977 0.951 . S
C1001 C1002 1.366 . S
C1001 C1003 1.388 . S
C1002 C1001 1.366 . S
C1002 C1006 1.385 . S
C1003 H978 0.951 . S
C1003 C1001 1.388 . S
C1003 C1004 1.366 . S
C1004 C1003 1.366 . S
C1004 C1005 1.414 . S
C1004 C1007 1.499 . S
C1005 H979 0.950 . S
C1005 C1004 1.414 . S
C1005 C1006 1.374 . S
C1006 H980 0.950 . S
C1006 C1002 1.385 . S
C1006 C1005 1.374 . S
C1007 C1004 1.499 . S
C1007 C1008 1.373 . S
C1007 C1009 1.389 . S
C1008 H981 0.950 . S
C1008 C994 1.377 . S
C1008 C1007 1.373 . S
C1009 C993 1.377 . S
C1009 C1007 1.389 . S
C1009 C1010 1.524 . S
C1010 C1009 1.524 . S
C1010 C1011 1.397 . S
C1010 C1015 1.363 . S
C1011 H982 0.950 . S
C1011 C1010 1.397 . S
C1011 C1012 1.334 . S
C1012 H983 0.950 . S
C1012 C1011 1.334 . S
C1012 C1013 1.287 . S
C1013 C1012 1.287 . S
C1013 C1014 1.524 . S
C1013 H1016 0.999 . S
C1014 H984 0.950 . S
C1014 C1013 1.524 . S
C1014 C1015 1.415 . S
C1015 H985 0.950 . S
C1015 C1010 1.363 . S
C1015 C1014 1.415 . S
H1016 C1013 0.999 . S
H1017 C998 0.913 . S
H1018 C1036 0.951 . S
H1019 C1038 0.951 . S
H1020 C1040 0.950 . S
H1021 C1041 0.950 . S
H1022 C1043 0.950 . S
H1023 C1046 0.950 . S
H1024 C1047 0.950 . S
H1025 C1049 0.950 . S
H1026 C1050 0.950 . S
H1027 C1051 0.951 . S
H1028 C1053 0.951 . S
H1029 C1055 0.950 . S
H1030 C1056 0.950 . S
H1031 C1058 0.950 . S
H1032 C1061 0.950 . S
H1033 C1062 0.950 . S
H1034 C1064 0.950 . S
H1035 C1065 0.950 . S
C1036 H1018 0.951 . S
C1036 C1037 1.366 . S
C1036 C1038 1.388 . S
C1037 C1036 1.366 . S
C1037 C1041 1.385 . S
C1038 H1019 0.951 . S
C1038 C1036 1.388 . S
C1038 C1039 1.366 . S
C1039 C1038 1.366 . S
C1039 C1040 1.414 . S
C1039 C1042 1.499 . S
C1040 H1020 0.950 . S
C1040 C1039 1.414 . S
C1040 C1041 1.374 . S
C1041 H1021 0.950 . S
C1041 C1037 1.385 . S
C1041 C1040 1.374 . S
C1042 C1039 1.499 . S
C1042 C1043 1.373 . S
C1042 C1044 1.389 . S
C1043 H1022 0.950 . S
C1043 C1042 1.373 . S
C1043 C1059 1.377 . S
C1044 C1042 1.389 . S
C1044 C1045 1.524 . S
C1044 C1058 1.377 . S
C1045 C1044 1.524 . S
C1045 C1046 1.397 . S
C1045 C1050 1.363 . S
C1046 H1023 0.950 . S
C1046 C1045 1.397 . S
C1046 C1047 1.334 . S
C1047 H1024 0.950 . S
C1047 C1046 1.334 . S
C1047 C1048 1.287 . S
C1048 C1047 1.287 . S
C1048 C1049 1.524 . S
C1048 H1067 0.913 . S
C1049 H1025 0.950 . S
C1049 C1048 1.524 . S
C1049 C1050 1.415 . S
C1050 H1026 0.950 . S
C1050 C1045 1.363 . S
C1050 C1049 1.415 . S
C1051 H1027 0.951 . S
C1051 C1052 1.366 . S
C1051 C1053 1.388 . S
C1052 C1051 1.366 . S
C1052 C1056 1.385 . S
C1053 H1028 0.951 . S
C1053 C1051 1.388 . S
C1053 C1054 1.366 . S
C1054 C1053 1.366 . S
C1054 C1055 1.414 . S
C1054 C1057 1.499 . S
C1055 H1029 0.950 . S
C1055 C1054 1.414 . S
C1055 C1056 1.374 . S
C1056 H1030 0.950 . S
C1056 C1052 1.385 . S
C1056 C1055 1.374 . S
C1057 C1054 1.499 . S
C1057 C1058 1.373 . S
C1057 C1059 1.389 . S
C1058 H1031 0.950 . S
C1058 C1044 1.377 . S
C1058 C1057 1.373 . S
C1059 C1043 1.377 . S
C1059 C1057 1.389 . S
C1059 C1060 1.524 . S
C1060 C1059 1.524 . S
C1060 C1061 1.397 . S
C1060 C1065 1.363 . S
C1061 H1032 0.950 . S
C1061 C1060 1.397 . S
C1061 C1062 1.334 . S
C1062 H1033 0.950 . S
C1062 C1061 1.334 . S
C1062 C1063 1.287 . S
C1063 C1062 1.287 . S
C1063 C1064 1.524 . S
C1063 H1066 0.999 . S
C1064 H1034 0.950 . S
C1064 C1063 1.524 . S
C1064 C1065 1.415 . S
C1065 H1035 0.950 . S
C1065 C1060 1.363 . S
C1065 C1064 1.415 . S
H1066 C1063 0.999 . S
H1067 C1048 0.913 . S
H1068 C1086 0.951 1_556 S
H1069 C1088 0.951 1_556 S
H1070 C1090 0.950 . S
H1071 C1091 0.950 . S
H1072 C1093 0.950 . S
H1073 C1096 0.950 1_554 S
H1074 C1097 0.950 . S
H1075 C1099 0.950 . S
H1076 C1100 0.950 . S
H1077 C1101 0.951 . S
H1078 C1103 0.951 . S
H1079 C1105 0.950 1_556 S
H1080 C1106 0.950 1_556 S
H1081 C1108 0.950 1_556 S
H1082 C1111 0.950 . S
H1083 C1112 0.950 . S
H1084 C1114 0.950 . S
H1085 C1115 0.950 . S
C1086 H1068 0.951 1_554 S
C1086 C1087 1.366 . S
C1086 C1088 1.388 . S
C1087 C1086 1.366 . S
C1087 C1091 1.385 . S
C1088 H1069 0.951 1_554 S
C1088 C1086 1.388 . S
C1088 C1089 1.366 . S
C1089 C1088 1.366 . S
C1089 C1090 1.414 . S
C1089 C1092 1.499 . S
C1090 H1070 0.950 . S
C1090 C1089 1.414 . S
C1090 C1091 1.374 . S
C1091 H1071 0.950 . S
C1091 C1087 1.385 . S
C1091 C1090 1.374 . S
C1092 C1089 1.499 . S
C1092 C1093 1.373 . S
C1092 C1094 1.389 . S
C1093 H1072 0.950 . S
C1093 C1092 1.373 . S
C1093 C1109 1.377 1_545 S
C1094 C1092 1.389 . S
C1094 C1095 1.524 1_554 S
C1094 C1108 1.377 1_545 S
C1095 C1094 1.524 1_556 S
C1095 C1096 1.397 . S
C1095 C1100 1.363 . S
C1096 H1073 0.950 1_556 S
C1096 C1095 1.397 . S
C1096 C1097 1.334 . S
C1097 H1074 0.950 . S
C1097 C1096 1.334 . S
C1097 C1098 1.287 . S
C1098 C1097 1.287 . S
C1098 C1099 1.524 . S
C1098 H1117 0.913 . S
C1099 H1075 0.950 . S
C1099 C1098 1.524 . S
C1099 C1100 1.415 . S
C1100 H1076 0.950 . S
C1100 C1095 1.363 . S
C1100 C1099 1.415 . S
C1101 H1077 0.951 . S
C1101 C1102 1.366 . S
C1101 C1103 1.388 . S
C1102 C1101 1.366 . S
C1102 C1106 1.385 . S
C1103 H1078 0.951 . S
C1103 C1101 1.388 . S
C1103 C1104 1.366 . S
C1104 C1103 1.366 . S
C1104 C1105 1.414 . S
C1104 C1107 1.499 . S
C1105 H1079 0.950 1_554 S
C1105 C1104 1.414 . S
C1105 C1106 1.374 . S
C1106 H1080 0.950 1_554 S
C1106 C1102 1.385 . S
C1106 C1105 1.374 . S
C1107 C1104 1.499 . S
C1107 C1108 1.373 . S
C1107 C1109 1.389 . S
C1108 H1081 0.950 1_554 S
C1108 C1094 1.377 1_565 S
C1108 C1107 1.373 . S
C1109 C1093 1.377 1_565 S
C1109 C1107 1.389 . S
C1109 C1110 1.524 . S
C1110 C1109 1.524 . S
C1110 C1111 1.397 . S
C1110 C1115 1.363 . S
C1111 H1082 0.950 . S
C1111 C1110 1.397 . S
C1111 C1112 1.334 . S
C1112 H1083 0.950 . S
C1112 C1111 1.334 . S
C1112 C1113 1.287 . S
C1113 C1112 1.287 . S
C1113 C1114 1.524 . S
C1113 H1116 0.999 . S
C1114 H1084 0.950 . S
C1114 C1113 1.524 . S
C1114 C1115 1.415 . S
C1115 H1085 0.950 . S
C1115 C1110 1.363 . S
C1115 C1114 1.415 . S
H1116 C1113 0.999 . S
H1117 C1098 0.913 . S
H1118 C1136 0.951 . S
H1119 C1138 0.951 . S
H1120 C1140 0.950 . S
H1121 C1141 0.950 . S
H1122 C1143 0.950 . S
H1123 C1146 0.950 . S
H1124 C1147 0.950 . S
H1125 C1149 0.950 . S
H1126 C1150 0.950 . S
H1127 C1151 0.951 . S
H1128 C1153 0.951 . S
H1129 C1155 0.950 . S
H1130 C1156 0.950 . S
H1131 C1158 0.950 . S
H1132 C1161 0.950 . S
H1133 C1162 0.950 . S
H1134 C1164 0.950 . S
H1135 C1165 0.950 . S
C1136 H1118 0.951 . S
C1136 C1137 1.366 . S
C1136 C1138 1.388 . S
C1137 C1136 1.366 . S
C1137 C1141 1.385 . S
C1138 H1119 0.951 . S
C1138 C1136 1.388 . S
C1138 C1139 1.366 . S
C1139 C1138 1.366 . S
C1139 C1140 1.414 . S
C1139 C1142 1.499 . S
C1140 H1120 0.950 . S
C1140 C1139 1.414 . S
C1140 C1141 1.374 . S
C1141 H1121 0.950 . S
C1141 C1137 1.385 . S
C1141 C1140 1.374 . S
C1142 C1139 1.499 . S
C1142 C1143 1.373 . S
C1142 C1144 1.389 . S
C1143 H1122 0.950 . S
C1143 C1142 1.373 . S
C1143 C1159 1.377 . S
C1144 C1142 1.389 . S
C1144 C1145 1.524 . S
C1144 C1158 1.377 . S
C1145 C1144 1.524 . S
C1145 C1146 1.397 . S
C1145 C1150 1.363 . S
C1146 H1123 0.950 . S
C1146 C1145 1.397 . S
C1146 C1147 1.334 . S
C1147 H1124 0.950 . S
C1147 C1146 1.334 . S
C1147 C1148 1.287 . S
C1148 C1147 1.287 . S
C1148 C1149 1.524 . S
C1148 H1167 0.913 . S
C1149 H1125 0.950 . S
C1149 C1148 1.524 . S
C1149 C1150 1.415 . S
C1150 H1126 0.950 . S
C1150 C1145 1.363 . S
C1150 C1149 1.415 . S
C1151 H1127 0.951 . S
C1151 C1152 1.366 . S
C1151 C1153 1.388 . S
C1152 C1151 1.366 . S
C1152 C1156 1.385 . S
C1153 H1128 0.951 . S
C1153 C1151 1.388 . S
C1153 C1154 1.366 . S
C1154 C1153 1.366 . S
C1154 C1155 1.414 . S
C1154 C1157 1.499 . S
C1155 H1129 0.950 . S
C1155 C1154 1.414 . S
C1155 C1156 1.374 . S
C1156 H1130 0.950 . S
C1156 C1152 1.385 . S
C1156 C1155 1.374 . S
C1157 C1154 1.499 . S
C1157 C1158 1.373 . S
C1157 C1159 1.389 . S
C1158 H1131 0.950 . S
C1158 C1144 1.377 . S
C1158 C1157 1.373 . S
C1159 C1143 1.377 . S
C1159 C1157 1.389 . S
C1159 C1160 1.524 . S
C1160 C1159 1.524 . S
C1160 C1161 1.397 . S
C1160 C1165 1.363 . S
C1161 H1132 0.950 . S
C1161 C1160 1.397 . S
C1161 C1162 1.334 . S
C1162 H1133 0.950 . S
C1162 C1161 1.334 . S
C1162 C1163 1.287 . S
C1163 C1162 1.287 . S
C1163 C1164 1.524 . S
C1163 H1166 0.999 . S
C1164 H1134 0.950 . S
C1164 C1163 1.524 . S
C1164 C1165 1.415 . S
C1165 H1135 0.950 . S
C1165 C1160 1.363 . S
C1165 C1164 1.415 . S
H1166 C1163 0.999 . S
H1167 C1148 0.913 . S
H1168 C1186 0.951 . S
H1169 C1188 0.951 . S
H1170 C1190 0.950 . S
H1171 C1191 0.950 . S
H1172 C1193 0.950 . S
H1173 C1196 0.950 . S
H1174 C1197 0.950 . S
H1175 C1199 0.950 . S
H1176 C1200 0.950 . S
H1177 C1201 0.951 . S
H1178 C1203 0.951 . S
H1179 C1205 0.950 . S
H1180 C1206 0.950 . S
H1181 C1208 0.950 . S
H1182 C1211 0.950 . S
H1183 C1212 0.950 . S
H1184 C1214 0.950 . S
H1185 C1215 0.950 . S
C1186 H1168 0.951 . S
C1186 C1187 1.366 . S
C1186 C1188 1.388 . S
C1187 C1186 1.366 . S
C1187 C1191 1.385 . S
C1188 H1169 0.951 . S
C1188 C1186 1.388 . S
C1188 C1189 1.366 . S
C1189 C1188 1.366 . S
C1189 C1190 1.414 . S
C1189 C1192 1.499 . S
C1190 H1170 0.950 . S
C1190 C1189 1.414 . S
C1190 C1191 1.374 . S
C1191 H1171 0.950 . S
C1191 C1187 1.385 . S
C1191 C1190 1.374 . S
C1192 C1189 1.499 . S
C1192 C1193 1.373 . S
C1192 C1194 1.389 . S
C1193 H1172 0.950 . S
C1193 C1192 1.373 . S
C1193 C1209 1.377 1_455 S
C1194 C1192 1.389 . S
C1194 C1195 1.524 . S
C1194 C1208 1.377 1_455 S
C1195 C1194 1.524 . S
C1195 C1196 1.397 . S
C1195 C1200 1.363 . S
C1196 H1173 0.950 . S
C1196 C1195 1.397 . S
C1196 C1197 1.334 . S
C1197 H1174 0.950 . S
C1197 C1196 1.334 . S
C1197 C1198 1.287 . S
C1198 C1197 1.287 . S
C1198 C1199 1.524 . S
C1198 H1217 0.913 . S
C1199 H1175 0.950 . S
C1199 C1198 1.524 . S
C1199 C1200 1.415 . S
C1200 H1176 0.950 . S
C1200 C1195 1.363 . S
C1200 C1199 1.415 . S
C1201 H1177 0.951 . S
C1201 C1202 1.366 . S
C1201 C1203 1.388 . S
C1202 C1201 1.366 . S
C1202 C1206 1.385 . S
C1203 H1178 0.951 . S
C1203 C1201 1.388 . S
C1203 C1204 1.366 . S
C1204 C1203 1.366 . S
C1204 C1205 1.414 . S
C1204 C1207 1.499 . S
C1205 H1179 0.950 . S
C1205 C1204 1.414 . S
C1205 C1206 1.374 . S
C1206 H1180 0.950 . S
C1206 C1202 1.385 . S
C1206 C1205 1.374 . S
C1207 C1204 1.499 . S
C1207 C1208 1.373 . S
C1207 C1209 1.389 . S
C1208 H1181 0.950 . S
C1208 C1194 1.377 1_655 S
C1208 C1207 1.373 . S
C1209 C1193 1.377 1_655 S
C1209 C1207 1.389 . S
C1209 C1210 1.524 . S
C1210 C1209 1.524 . S
C1210 C1211 1.397 . S
C1210 C1215 1.363 . S
C1211 H1182 0.950 . S
C1211 C1210 1.397 . S
C1211 C1212 1.334 . S
C1212 H1183 0.950 . S
C1212 C1211 1.334 . S
C1212 C1213 1.287 . S
C1213 C1212 1.287 . S
C1213 C1214 1.524 . S
C1213 H1216 0.999 . S
C1214 H1184 0.950 . S
C1214 C1213 1.524 . S
C1214 C1215 1.415 . S
C1215 H1185 0.950 . S
C1215 C1210 1.363 . S
C1215 C1214 1.415 . S
H1216 C1213 0.999 . S
H1217 C1198 0.913 . S
H1218 C1236 0.951 . S
H1219 C1238 0.951 . S
H1220 C1240 0.950 . S
H1221 C1241 0.950 . S
H1222 C1243 0.950 . S
H1223 C1246 0.950 . S
H1224 C1247 0.950 . S
H1225 C1249 0.950 . S
H1226 C1250 0.950 . S
H1227 C1251 0.951 . S
H1228 C1253 0.951 . S
H1229 C1255 0.950 . S
H1230 C1256 0.950 . S
H1231 C1258 0.950 . S
H1232 C1261 0.950 . S
H1233 C1262 0.950 . S
H1234 C1264 0.950 . S
H1235 C1265 0.950 . S
C1236 H1218 0.951 . S
C1236 C1237 1.366 . S
C1236 C1238 1.388 . S
C1237 C1236 1.366 . S
C1237 C1241 1.385 . S
C1238 H1219 0.951 . S
C1238 C1236 1.388 . S
C1238 C1239 1.366 . S
C1239 C1238 1.366 . S
C1239 C1240 1.414 . S
C1239 C1242 1.499 . S
C1240 H1220 0.950 . S
C1240 C1239 1.414 . S
C1240 C1241 1.374 . S
C1241 H1221 0.950 . S
C1241 C1237 1.385 . S
C1241 C1240 1.374 . S
C1242 C1239 1.499 . S
C1242 C1243 1.373 . S
C1242 C1244 1.389 . S
C1243 H1222 0.950 . S
C1243 C1242 1.373 . S
C1243 C1259 1.377 1_565 S
C1244 C1242 1.389 . S
C1244 C1245 1.524 . S
C1244 C1258 1.377 1_565 S
C1245 C1244 1.524 . S
C1245 C1246 1.397 . S
C1245 C1250 1.363 . S
C1246 H1223 0.950 . S
C1246 C1245 1.397 . S
C1246 C1247 1.334 . S
C1247 H1224 0.950 . S
C1247 C1246 1.334 . S
C1247 C1248 1.287 . S
C1248 C1247 1.287 . S
C1248 C1249 1.524 . S
C1248 H1267 0.913 . S
C1249 H1225 0.950 . S
C1249 C1248 1.524 . S
C1249 C1250 1.415 . S
C1250 H1226 0.950 . S
C1250 C1245 1.363 . S
C1250 C1249 1.415 . S
C1251 H1227 0.951 . S
C1251 C1252 1.366 . S
C1251 C1253 1.388 . S
C1252 C1251 1.366 . S
C1252 C1256 1.385 . S
C1253 H1228 0.951 . S
C1253 C1251 1.388 . S
C1253 C1254 1.366 . S
C1254 C1253 1.366 . S
C1254 C1255 1.414 . S
C1254 C1257 1.499 . S
C1255 H1229 0.950 . S
C1255 C1254 1.414 . S
C1255 C1256 1.374 . S
C1256 H1230 0.950 . S
C1256 C1252 1.385 . S
C1256 C1255 1.374 . S
C1257 C1254 1.499 . S
C1257 C1258 1.373 . S
C1257 C1259 1.389 . S
C1258 H1231 0.950 . S
C1258 C1244 1.377 1_545 S
C1258 C1257 1.373 . S
C1259 C1243 1.377 1_545 S
C1259 C1257 1.389 . S
C1259 C1260 1.524 . S
C1260 C1259 1.524 . S
C1260 C1261 1.397 . S
C1260 C1265 1.363 . S
C1261 H1232 0.950 . S
C1261 C1260 1.397 . S
C1261 C1262 1.334 . S
C1262 H1233 0.950 . S
C1262 C1261 1.334 . S
C1262 C1263 1.287 . S
C1263 C1262 1.287 . S
C1263 C1264 1.524 . S
C1263 H1266 0.999 . S
C1264 H1234 0.950 . S
C1264 C1263 1.524 . S
C1264 C1265 1.415 . S
C1265 H1235 0.950 . S
C1265 C1260 1.363 . S
C1265 C1264 1.415 . S
H1266 C1263 0.999 . S
H1267 C1248 0.913 . S
H1268 C1286 0.951 . S
H1269 C1288 0.951 . S
H1270 C1290 0.950 . S
H1271 C1291 0.950 . S
H1272 C1293 0.950 . S
H1273 C1296 0.950 . S
H1274 C1297 0.950 . S
H1275 C1299 0.950 . S
H1276 C1300 0.950 . S
H1277 C1301 0.951 . S
H1278 C1303 0.951 . S
H1279 C1305 0.950 . S
H1280 C1306 0.950 . S
H1281 C1308 0.950 . S
H1282 C1311 0.950 . S
H1283 C1312 0.950 . S
H1284 C1314 0.950 . S
H1285 C1315 0.950 . S
C1286 H1268 0.951 . S
C1286 C1287 1.366 . S
C1286 C1288 1.388 . S
C1287 C1286 1.366 . S
C1287 C1291 1.385 . S
C1288 H1269 0.951 . S
C1288 C1286 1.388 . S
C1288 C1289 1.366 . S
C1289 C1288 1.366 . S
C1289 C1290 1.414 . S
C1289 C1292 1.499 . S
C1290 H1270 0.950 . S
C1290 C1289 1.414 . S
C1290 C1291 1.374 . S
C1291 H1271 0.950 . S
C1291 C1287 1.385 . S
C1291 C1290 1.374 . S
C1292 C1289 1.499 . S
C1292 C1293 1.373 . S
C1292 C1294 1.389 . S
C1293 H1272 0.950 . S
C1293 C1292 1.373 . S
C1293 C1309 1.377 . S
C1294 C1292 1.389 . S
C1294 C1295 1.524 . S
C1294 C1308 1.377 . S
C1295 C1294 1.524 . S
C1295 C1296 1.397 . S
C1295 C1300 1.363 . S
C1296 H1273 0.950 . S
C1296 C1295 1.397 . S
C1296 C1297 1.334 . S
C1297 H1274 0.950 . S
C1297 C1296 1.334 . S
C1297 C1298 1.287 . S
C1298 C1297 1.287 . S
C1298 C1299 1.524 . S
C1298 H1317 0.913 . S
C1299 H1275 0.950 . S
C1299 C1298 1.524 . S
C1299 C1300 1.415 . S
C1300 H1276 0.950 . S
C1300 C1295 1.363 . S
C1300 C1299 1.415 . S
C1301 H1277 0.951 . S
C1301 C1302 1.366 . S
C1301 C1303 1.388 . S
C1302 C1301 1.366 . S
C1302 C1306 1.385 . S
C1303 H1278 0.951 . S
C1303 C1301 1.388 . S
C1303 C1304 1.366 . S
C1304 C1303 1.366 . S
C1304 C1305 1.414 . S
C1304 C1307 1.499 . S
C1305 H1279 0.950 . S
C1305 C1304 1.414 . S
C1305 C1306 1.374 . S
C1306 H1280 0.950 . S
C1306 C1302 1.385 . S
C1306 C1305 1.374 . S
C1307 C1304 1.499 . S
C1307 C1308 1.373 . S
C1307 C1309 1.389 . S
C1308 H1281 0.950 . S
C1308 C1294 1.377 . S
C1308 C1307 1.373 . S
C1309 C1293 1.377 . S
C1309 C1307 1.389 . S
C1309 C1310 1.524 . S
C1310 C1309 1.524 . S
C1310 C1311 1.397 . S
C1310 C1315 1.363 . S
C1311 H1282 0.950 . S
C1311 C1310 1.397 . S
C1311 C1312 1.334 . S
C1312 H1283 0.950 . S
C1312 C1311 1.334 . S
C1312 C1313 1.287 . S
C1313 C1312 1.287 . S
C1313 C1314 1.524 . S
C1313 H1316 0.999 . S
C1314 H1284 0.950 . S
C1314 C1313 1.524 . S
C1314 C1315 1.415 . S
C1315 H1285 0.950 . S
C1315 C1310 1.363 . S
C1315 C1314 1.415 . S
H1316 C1313 0.999 . S
H1317 C1298 0.913 . S
H1318 C1336 0.951 . S
H1319 C1338 0.951 . S
H1320 C1340 0.950 . S
H1321 C1341 0.950 . S
H1322 C1343 0.950 . S
H1323 C1346 0.950 . S
H1324 C1347 0.950 . S
H1325 C1349 0.950 . S
H1326 C1350 0.950 . S
H1327 C1351 0.951 . S
H1328 C1353 0.951 . S
H1329 C1355 0.950 . S
H1330 C1356 0.950 . S
H1331 C1358 0.950 . S
H1332 C1361 0.950 . S
H1333 C1362 0.950 . S
H1334 C1364 0.950 . S
H1335 C1365 0.950 . S
C1336 H1318 0.951 . S
C1336 C1337 1.366 . S
C1336 C1338 1.388 . S
C1337 C1336 1.366 . S
C1337 C1341 1.385 . S
C1338 H1319 0.951 . S
C1338 C1336 1.388 . S
C1338 C1339 1.366 . S
C1339 C1338 1.366 . S
C1339 C1340 1.414 . S
C1339 C1342 1.499 . S
C1340 H1320 0.950 . S
C1340 C1339 1.414 . S
C1340 C1341 1.374 . S
C1341 H1321 0.950 . S
C1341 C1337 1.385 . S
C1341 C1340 1.374 . S
C1342 C1339 1.499 . S
C1342 C1343 1.373 . S
C1342 C1344 1.389 . S
C1343 H1322 0.950 . S
C1343 C1342 1.373 . S
C1343 C1359 1.377 1_455 S
C1344 C1342 1.389 . S
C1344 C1345 1.524 . S
C1344 C1358 1.377 1_455 S
C1345 C1344 1.524 . S
C1345 C1346 1.397 . S
C1345 C1350 1.363 . S
C1346 H1323 0.950 . S
C1346 C1345 1.397 . S
C1346 C1347 1.334 . S
C1347 H1324 0.950 . S
C1347 C1346 1.334 . S
C1347 C1348 1.287 . S
C1348 C1347 1.287 . S
C1348 C1349 1.524 . S
C1348 H1367 0.913 . S
C1349 H1325 0.950 . S
C1349 C1348 1.524 . S
C1349 C1350 1.415 . S
C1350 H1326 0.950 . S
C1350 C1345 1.363 . S
C1350 C1349 1.415 . S
C1351 H1327 0.951 . S
C1351 C1352 1.366 . S
C1351 C1353 1.388 . S
C1352 C1351 1.366 . S
C1352 C1356 1.385 . S
C1353 H1328 0.951 . S
C1353 C1351 1.388 . S
C1353 C1354 1.366 . S
C1354 C1353 1.366 . S
C1354 C1355 1.414 . S
C1354 C1357 1.499 . S
C1355 H1329 0.950 . S
C1355 C1354 1.414 . S
C1355 C1356 1.374 . S
C1356 H1330 0.950 . S
C1356 C1352 1.385 . S
C1356 C1355 1.374 . S
C1357 C1354 1.499 . S
C1357 C1358 1.373 . S
C1357 C1359 1.389 . S
C1358 H1331 0.950 . S
C1358 C1344 1.377 1_655 S
C1358 C1357 1.373 . S
C1359 C1343 1.377 1_655 S
C1359 C1357 1.389 . S
C1359 C1360 1.524 . S
C1360 C1359 1.524 . S
C1360 C1361 1.397 . S
C1360 C1365 1.363 . S
C1361 H1332 0.950 . S
C1361 C1360 1.397 . S
C1361 C1362 1.334 . S
C1362 H1333 0.950 . S
C1362 C1361 1.334 . S
C1362 C1363 1.287 1_556 S
C1363 C1362 1.287 1_554 S
C1363 C1364 1.524 . S
C1363 H1366 0.999 . S
C1364 H1334 0.950 . S
C1364 C1363 1.524 . S
C1364 C1365 1.415 1_554 S
C1365 H1335 0.950 . S
C1365 C1360 1.363 . S
C1365 C1364 1.415 1_556 S
H1366 C1363 0.999 . S
H1367 C1348 0.913 . S
C187 C9 1.024 . S
C202 C149 1.024 . S
C237 C23 1.023 . S
C252 C163 1.024 . S
C287 C93 1.023 . S
C302 C37 1.023 . S
C337 C51 1.023 . S
C352 C107 1.023 . S
C387 C121 1.023 . S
C402 C65 1.023 . S
C437 C135 1.023 . S
C452 C79 1.024 . S
C487 C123 1.283 . S
C502 C11 1.283 . S
C537 C25 1.284 . S
C552 C137 1.284 . S
C587 C151 1.283 . S
C602 C39 1.283 . S
C637 C53 1.282 . S
C652 C165 1.282 . S
C687 C67 1.283 . S
C702 C95 1.283 . S
C737 C81 1.282 . S
C752 C109 1.283 . S
C787 C140 1.640 . S
C802 C0 1.640 . S
C837 C154 1.640 . S
C852 C14 1.640 . S
C887 C84 1.639 . S
C902 C28 1.640 . S
C937 C42 1.640 . S
C952 C98 1.640 . S
C987 C56 1.640 . S
C1002 C112 1.640 . S
C1037 C126 1.639 . S
C1052 C70 1.640 . S
C1087 C5 1.264 . S
C1102 C103 1.264 . S
C1137 C117 1.264 . S
C1152 C19 1.264 . S
C1187 C131 1.264 . S
C1202 C33 1.264 . S
C1237 C47 1.264 . S
C1252 C145 1.264 . S
C1287 C61 1.265 . S
C1302 C159 1.265 . S
C1337 C75 1.264 . S
C1352 C89 1.264 . S
