# Generated by pormake.
# Topology uks, (4)-cn, num edge types: 1
# Building blocks:
#     Node 0, Type 0, BuildingBlock: KOZSID_clean_sbu_0, # of connection points: 4
#     Node 1, Type 0, BuildingBlock: KOZSID_clean_sbu_0, # of connection points: 4
#     Node 2, Type 0, BuildingBlock: KOZSID_clean_sbu_0, # of connection points: 4
#     Node 3, Type 0, BuildingBlock: KOZSID_clean_sbu_0, # of connection points: 4
#     Node 4, Type 0, BuildingBlock: KOZSID_clean_sbu_0, # of connection points: 4
#     Node 5, Type 0, BuildingBlock: KOZSID_clean_sbu_0, # of connection points: 4
#     Node 6, Type 0, BuildingBlock: KOZSID_clean_sbu_0, # of connection points: 4
#     Node 7, Type 0, BuildingBlock: KOZSID_clean_sbu_0, # of connection points: 4
#     Node 8, Type 0, BuildingBlock: KOZSID_clean_sbu_0, # of connection points: 4
#     Node 9, Type 0, BuildingBlock: KOZSID_clean_sbu_0, # of connection points: 4
#     Node 10, Type 0, BuildingBlock: KOZSID_clean_sbu_0, # of connection points: 4
#     Node 11, Type 0, BuildingBlock: KOZSID_clean_sbu_0, # of connection points: 4
#     Node 12, Type 0, BuildingBlock: KOZSID_clean_sbu_0, # of connection points: 4
#     Node 13, Type 0, BuildingBlock: KOZSID_clean_sbu_0, # of connection points: 4
#     Node 14, Type 0, BuildingBlock: KOZSID_clean_sbu_0, # of connection points: 4
#     Node 15, Type 0, BuildingBlock: KOZSID_clean_sbu_0, # of connection points: 4
#     Node 16, Type 0, BuildingBlock: KOZSID_clean_sbu_0, # of connection points: 4
#     Node 17, Type 0, BuildingBlock: KOZSID_clean_sbu_0, # of connection points: 4
#     Node 18, Type 0, BuildingBlock: KOZSID_clean_sbu_0, # of connection points: 4
#     Node 19, Type 0, BuildingBlock: KOZSID_clean_sbu_0, # of connection points: 4
#     Node 20, Type 0, BuildingBlock: KOZSID_clean_sbu_0, # of connection points: 4
#     Node 21, Type 0, BuildingBlock: KOZSID_clean_sbu_0, # of connection points: 4
#     Node 22, Type 0, BuildingBlock: KOZSID_clean_sbu_0, # of connection points: 4
#     Node 23, Type 0, BuildingBlock: KOZSID_clean_sbu_0, # of connection points: 4
#     Edge 24, Type (0, 0), BuildingBlock: AJUNOK_clean_linker_0, # of connection points: 2
#     Edge 25, Type (0, 0), BuildingBlock: AJUNOK_clean_linker_0, # of connection points: 2
#     Edge 26, Type (0, 0), BuildingBlock: AJUNOK_clean_linker_0, # of connection points: 2
#     Edge 27, Type (0, 0), BuildingBlock: AJUNOK_clean_linker_0, # of connection points: 2
#     Edge 28, Type (0, 0), BuildingBlock: AJUNOK_clean_linker_0, # of connection points: 2
#     Edge 29, Type (0, 0), BuildingBlock: AJUNOK_clean_linker_0, # of connection points: 2
#     Edge 30, Type (0, 0), BuildingBlock: AJUNOK_clean_linker_0, # of connection points: 2
#     Edge 31, Type (0, 0), BuildingBlock: AJUNOK_clean_linker_0, # of connection points: 2
#     Edge 32, Type (0, 0), BuildingBlock: AJUNOK_clean_linker_0, # of connection points: 2
#     Edge 33, Type (0, 0), BuildingBlock: AJUNOK_clean_linker_0, # of connection points: 2
#     Edge 34, Type (0, 0), BuildingBlock: AJUNOK_clean_linker_0, # of connection points: 2
#     Edge 35, Type (0, 0), BuildingBlock: AJUNOK_clean_linker_0, # of connection points: 2
#     Edge 36, Type (0, 0), BuildingBlock: AJUNOK_clean_linker_0, # of connection points: 2
#     Edge 37, Type (0, 0), BuildingBlock: AJUNOK_clean_linker_0, # of connection points: 2
#     Edge 38, Type (0, 0), BuildingBlock: AJUNOK_clean_linker_0, # of connection points: 2
#     Edge 39, Type (0, 0), BuildingBlock: AJUNOK_clean_linker_0, # of connection points: 2
#     Edge 40, Type (0, 0), BuildingBlock: AJUNOK_clean_linker_0, # of connection points: 2
#     Edge 41, Type (0, 0), BuildingBlock: AJUNOK_clean_linker_0, # of connection points: 2
#     Edge 42, Type (0, 0), BuildingBlock: AJUNOK_clean_linker_0, # of connection points: 2
#     Edge 43, Type (0, 0), BuildingBlock: AJUNOK_clean_linker_0, # of connection points: 2
#     Edge 44, Type (0, 0), BuildingBlock: AJUNOK_clean_linker_0, # of connection points: 2
#     Edge 45, Type (0, 0), BuildingBlock: AJUNOK_clean_linker_0, # of connection points: 2
#     Edge 46, Type (0, 0), BuildingBlock: AJUNOK_clean_linker_0, # of connection points: 2
#     Edge 47, Type (0, 0), BuildingBlock: AJUNOK_clean_linker_0, # of connection points: 2
#     Edge 48, Type (0, 0), BuildingBlock: AJUNOK_clean_linker_0, # of connection points: 2
#     Edge 49, Type (0, 0), BuildingBlock: AJUNOK_clean_linker_0, # of connection points: 2
#     Edge 50, Type (0, 0), BuildingBlock: AJUNOK_clean_linker_0, # of connection points: 2
#     Edge 51, Type (0, 0), BuildingBlock: AJUNOK_clean_linker_0, # of connection points: 2
#     Edge 52, Type (0, 0), BuildingBlock: AJUNOK_clean_linker_0, # of connection points: 2
#     Edge 53, Type (0, 0), BuildingBlock: AJUNOK_clean_linker_0, # of connection points: 2
#     Edge 54, Type (0, 0), BuildingBlock: AJUNOK_clean_linker_0, # of connection points: 2
#     Edge 55, Type (0, 0), BuildingBlock: AJUNOK_clean_linker_0, # of connection points: 2
#     Edge 56, Type (0, 0), BuildingBlock: AJUNOK_clean_linker_0, # of connection points: 2
#     Edge 57, Type (0, 0), BuildingBlock: AJUNOK_clean_linker_0, # of connection points: 2
#     Edge 58, Type (0, 0), BuildingBlock: AJUNOK_clean_linker_0, # of connection points: 2
#     Edge 59, Type (0, 0), BuildingBlock: AJUNOK_clean_linker_0, # of connection points: 2
#     Edge 60, Type (0, 0), BuildingBlock: AJUNOK_clean_linker_0, # of connection points: 2
#     Edge 61, Type (0, 0), BuildingBlock: AJUNOK_clean_linker_0, # of connection points: 2
#     Edge 62, Type (0, 0), BuildingBlock: AJUNOK_clean_linker_0, # of connection points: 2
#     Edge 63, Type (0, 0), BuildingBlock: AJUNOK_clean_linker_0, # of connection points: 2
#     Edge 64, Type (0, 0), BuildingBlock: AJUNOK_clean_linker_0, # of connection points: 2
#     Edge 65, Type (0, 0), BuildingBlock: AJUNOK_clean_linker_0, # of connection points: 2
#     Edge 66, Type (0, 0), BuildingBlock: AJUNOK_clean_linker_0, # of connection points: 2
#     Edge 67, Type (0, 0), BuildingBlock: AJUNOK_clean_linker_0, # of connection points: 2
#     Edge 68, Type (0, 0), BuildingBlock: AJUNOK_clean_linker_0, # of connection points: 2
#     Edge 69, Type (0, 0), BuildingBlock: AJUNOK_clean_linker_0, # of connection points: 2
#     Edge 70, Type (0, 0), BuildingBlock: AJUNOK_clean_linker_0, # of connection points: 2
#     Edge 71, Type (0, 0), BuildingBlock: AJUNOK_clean_linker_0, # of connection points: 2
# Relax obj value: 0.068
# Max RMSD: 0.079
# Mean RMSD: 0.061
data_MOF--net-uks--node1-KOZSID_clean_sbu_0--edge1-AJUNOK_clean_linker_0
_symmetry_space_group_name_H-M    P1
_symmetry_Int_Tables_number       1
_symmetry_cell_setting            triclinic
loop_
_symmetry_equiv_pos_as_xyz
'x, y, z'
_cell_length_a     47.095821
_cell_length_b     57.772653
_cell_length_c     49.850583
_cell_angle_alpha  89.001114
_cell_angle_beta   91.242976
_cell_angle_gamma 90.127255
loop_
_atom_site_label
_atom_site_type_symbol
_atom_site_fract_x
_atom_site_fract_y
_atom_site_fract_z
_atom_type_partial_charge
C0 C 0.06436 0.38683 0.70018 0.0
C1 C 0.04367 0.39076 0.71897 0.0
C2 C 0.0554 0.405 0.73793 0.0
C3 C 0.08308 0.40822 0.7307 0.0
N4 N 0.08956 0.39664 0.70845 0.0
Co5 Co 0.12906 0.39023 0.69663 0.0
N6 N 0.14712 0.40049 0.73104 0.0
C7 C 0.1341 0.41333 0.74936 0.0
C8 C 0.15136 0.41848 0.77097 0.0
C9 C 0.17703 0.40854 0.76582 0.0
C10 C 0.17411 0.39788 0.74117 0.0
N11 N 0.16823 0.38263 0.68488 0.0
C12 C 0.19328 0.38045 0.69909 0.0
C13 C 0.21534 0.37552 0.6821 0.0
C14 C 0.20388 0.37495 0.65657 0.0
C15 C 0.1755 0.37953 0.65924 0.0
N16 N 0.11105 0.38069 0.66205 0.0
C17 C 0.12486 0.3795 0.63877 0.0
C18 C 0.10718 0.37471 0.61734 0.0
C19 C 0.08056 0.37268 0.62777 0.0
C20 C 0.08341 0.37593 0.65525 0.0
N21 N 0.13319 0.42222 0.68239 0.0
C22 C 0.14081 0.46898 0.66625 0.0
C23 C 0.11399 0.45823 0.66416 0.0
C24 C 0.11071 0.43476 0.67199 0.0
C25 C 0.16372 0.45519 0.67494 0.0
C26 C 0.15936 0.43252 0.68378 0.0
N27 N 0.12557 0.35882 0.71115 0.0
C28 C 0.1323 0.3178 0.70713 0.0
C29 C 0.12479 0.31449 0.73389 0.0
C30 C 0.11701 0.33349 0.74887 0.0
C31 C 0.11738 0.35549 0.73709 0.0
C32 C 0.13262 0.34021 0.6961 0.0
H33 H 0.11152 0.36979 0.74925 0.0
H34 H 0.13909 0.34255 0.67562 0.0
H35 H 0.08992 0.42694 0.67019 0.0
H36 H 0.1775 0.42364 0.69225 0.0
C37 C 0.10464 0.41645 0.74787 0.0
C38 C 0.05923 0.3751 0.67395 0.0
C39 C 0.19785 0.38653 0.7276 0.0
C40 C 0.15464 0.37926 0.63873 0.0
H41 H 0.02264 0.38335 0.71986 0.0
H42 H 0.04561 0.4105 0.75619 0.0
H43 H 0.14567 0.42756 0.78889 0.0
H44 H 0.19571 0.40906 0.77881 0.0
H45 H 0.2376 0.37346 0.68747 0.0
H46 H 0.21496 0.37155 0.63825 0.0
H47 H 0.11303 0.37221 0.59671 0.0
H48 H 0.06129 0.3692 0.61633 0.0
H49 H 0.09558 0.46797 0.65716 0.0
H50 H 0.18518 0.46193 0.67554 0.0
H51 H 0.13838 0.30327 0.69507 0.0
H52 H 0.11097 0.33137 0.76962 0.0
C53 C 0.57931 0.61906 0.16378 0.0
C54 C 0.57382 0.6265 0.13752 0.0
C55 C 0.59876 0.63504 0.12796 0.0
C56 C 0.61802 0.6323 0.14876 0.0
N57 N 0.607 0.62225 0.17083 0.0
Co58 Co 0.62776 0.61548 0.20535 0.0
N59 N 0.66521 0.62067 0.18849 0.0
C60 C 0.66977 0.63052 0.16427 0.0
C61 C 0.69776 0.63049 0.15727 0.0
C62 C 0.71185 0.62016 0.17851 0.0
C63 C 0.69157 0.61472 0.19746 0.0
N64 N 0.64845 0.60905 0.23988 0.0
C65 C 0.67645 0.60526 0.24491 0.0
C66 C 0.68193 0.60234 0.27229 0.0
C67 C 0.65651 0.60443 0.28474 0.0
C68 C 0.63701 0.60858 0.26443 0.0
N69 N 0.59019 0.60997 0.22202 0.0
C70 C 0.58524 0.60861 0.24853 0.0
C71 C 0.55722 0.60499 0.25426 0.0
C72 C 0.54345 0.60438 0.22986 0.0
C73 C 0.56394 0.60779 0.21055 0.0
N74 N 0.63015 0.58216 0.19642 0.0
C75 C 0.63999 0.53478 0.18576 0.0
C76 C 0.63165 0.54194 0.21116 0.0
C77 C 0.62649 0.56548 0.21594 0.0
C78 C 0.64249 0.55191 0.1656 0.0
C79 C 0.63766 0.57536 0.17134 0.0
N80 N 0.62596 0.6488 0.21484 0.0
C81 C 0.59918 0.684 0.22172 0.0
C82 C 0.62334 0.69542 0.23197 0.0
C83 C 0.64887 0.68292 0.23315 0.0
C84 C 0.64968 0.65983 0.2247 0.0
C85 C 0.60101 0.66095 0.21303 0.0
H86 H 0.66958 0.65081 0.22662 0.0
H87 H 0.58211 0.6529 0.20512 0.0
H88 H 0.62017 0.57016 0.23574 0.0
H89 H 0.64074 0.58802 0.15555 0.0
C90 C 0.6471 0.63624 0.14707 0.0
C91 C 0.55684 0.61212 0.18212 0.0
C92 C 0.69871 0.60673 0.22483 0.0
C93 C 0.60764 0.60885 0.26727 0.0
H94 H 0.55369 0.62633 0.12663 0.0
H95 H 0.6025 0.64203 0.10805 0.0
H96 H 0.70674 0.63656 0.13862 0.0
H97 H 0.73456 0.61744 0.18016 0.0
H98 H 0.70221 0.59937 0.28234 0.0
H99 H 0.65263 0.60259 0.30599 0.0
H100 H 0.54792 0.60291 0.27383 0.0
H101 H 0.52077 0.60244 0.2266 0.0
H102 H 0.62917 0.52939 0.22734 0.0
H103 H 0.64907 0.54733 0.1457 0.0
H104 H 0.57897 0.69288 0.22022 0.0
H105 H 0.66809 0.69075 0.24119 0.0
C106 C 0.44583 0.14679 0.70489 0.0
C107 C 0.4693 0.13765 0.71856 0.0
C108 C 0.45912 0.12452 0.73949 0.0
C109 C 0.43005 0.12625 0.73746 0.0
N110 N 0.4213 0.13967 0.71659 0.0
Co111 Co 0.38086 0.14685 0.70699 0.0
N112 N 0.36708 0.13737 0.74307 0.0
C113 C 0.38218 0.12488 0.76141 0.0
C114 C 0.36783 0.12101 0.78473 0.0
C115 C 0.34192 0.13145 0.78075 0.0
C116 C 0.34165 0.14093 0.75495 0.0
N117 N 0.34047 0.15424 0.69718 0.0
C118 C 0.31714 0.15645 0.7127 0.0
C119 C 0.2931 0.16084 0.69681 0.0
C120 C 0.3016 0.16122 0.67067 0.0
C121 C 0.33027 0.15699 0.67188 0.0
N122 N 0.39483 0.15634 0.671 0.0
C123 C 0.3785 0.1589 0.64869 0.0
C124 C 0.39361 0.16613 0.6268 0.0
C125 C 0.4212 0.16822 0.6359 0.0
C126 C 0.42149 0.16205 0.66291 0.0
N127 N 0.37498 0.11477 0.69469 0.0
C128 C 0.36612 0.06791 0.68031 0.0
C129 C 0.39247 0.07904 0.6765 0.0
C130 C 0.39613 0.10252 0.68299 0.0
C131 C 0.34439 0.08132 0.69103 0.0
C132 C 0.34947 0.10407 0.69883 0.0
N133 N 0.38636 0.17846 0.71953 0.0
C134 C 0.37502 0.21901 0.71638 0.0
C135 C 0.39098 0.22339 0.73989 0.0
C136 C 0.40566 0.20476 0.75211 0.0
C137 C 0.40229 0.18246 0.74221 0.0
C138 C 0.37362 0.19665 0.70621 0.0
H139 H 0.41253 0.16847 0.75313 0.0
H140 H 0.36168 0.19406 0.68784 0.0
H141 H 0.41638 0.11055 0.67914 0.0
H142 H 0.33253 0.11278 0.70857 0.0
C143 C 0.41083 0.11963 0.75727 0.0
C144 C 0.44756 0.1608 0.67993 0.0
C145 C 0.31615 0.15153 0.74187 0.0
C146 C 0.34882 0.1584 0.65029 0.0
H147 H 0.49143 0.14024 0.71388 0.0
H148 H 0.47152 0.11567 0.75504 0.0
H149 H 0.37552 0.11219 0.80278 0.0
H150 H 0.32503 0.13176 0.7951 0.0
H151 H 0.27151 0.16292 0.70335 0.0
H152 H 0.28849 0.16457 0.65293 0.0
H153 H 0.38538 0.17042 0.6069 0.0
H154 H 0.43901 0.17378 0.62402 0.0
H155 H 0.4106 0.0698 0.66927 0.0
H156 H 0.32331 0.07436 0.69389 0.0
H157 H 0.36324 0.23263 0.70597 0.0
H158 H 0.41971 0.20713 0.76929 0.0
C159 C 0.89768 0.87734 0.15633 0.0
C160 C 0.89572 0.87355 0.12896 0.0
C161 C 0.86822 0.87871 0.12117 0.0
C162 C 0.85506 0.88532 0.14418 0.0
N163 N 0.87264 0.88459 0.16577 0.0
Co164 Co 0.86291 0.89214 0.20292 0.0
N165 N 0.82216 0.88725 0.19515 0.0
C166 C 0.80943 0.88789 0.17069 0.0
C167 C 0.78061 0.88451 0.17178 0.0
C168 C 0.775 0.88173 0.19856 0.0
C169 C 0.80088 0.88349 0.21236 0.0
N170 N 0.85331 0.89972 0.24011 0.0
C171 C 0.82953 0.89459 0.25369 0.0
C172 C 0.8316 0.90262 0.27975 0.0
C173 C 0.85747 0.91352 0.28218 0.0
C174 C 0.86982 0.91141 0.25762 0.0
N175 N 0.90378 0.89726 0.2103 0.0
C176 C 0.91523 0.90951 0.23052 0.0
C177 C 0.94443 0.90934 0.23053 0.0
C178 C 0.95157 0.89617 0.20897 0.0
C179 C 0.92622 0.88908 0.197 0.0
N180 N 0.8584 0.92522 0.19244 0.0
C181 C 0.85068 0.9725 0.17788 0.0
C182 C 0.83147 0.96078 0.19443 0.0
C183 C 0.83566 0.9374 0.20142 0.0
C184 C 0.87411 0.95987 0.16896 0.0
C185 C 0.87753 0.93634 0.17638 0.0
N186 N 0.86695 0.85917 0.21376 0.0
C187 C 0.88368 0.82991 0.24564 0.0
C188 C 0.86928 0.81231 0.23171 0.0
C189 C 0.85395 0.81893 0.20827 0.0
C190 C 0.85334 0.84222 0.19954 0.0
C191 C 0.88217 0.85303 0.23648 0.0
H192 H 0.84128 0.84659 0.18152 0.0
H193 H 0.89305 0.86604 0.24809 0.0
H194 H 0.82025 0.92918 0.21411 0.0
H195 H 0.8957 0.92716 0.16916 0.0
C196 C 0.82569 0.88772 0.14741 0.0
C197 C 0.9237 0.87524 0.17271 0.0
C198 C 0.80429 0.88352 0.24171 0.0
C199 C 0.8983 0.9163 0.25183 0.0
H200 H 0.91236 0.86768 0.11609 0.0
H201 H 0.85868 0.87675 0.10139 0.0
H202 H 0.76559 0.88339 0.15511 0.0
H203 H 0.75423 0.87897 0.20694 0.0
H204 H 0.81612 0.90084 0.29538 0.0
H205 H 0.86664 0.92114 0.30006 0.0
H206 H 0.95882 0.91674 0.24528 0.0
H207 H 0.97289 0.89207 0.20296 0.0
H208 H 0.81293 0.96952 0.20174 0.0
H209 H 0.88996 0.96811 0.15662 0.0
H210 H 0.89606 0.8259 0.26367 0.0
H211 H 0.84177 0.80636 0.19699 0.0
C212 C 0.06896 0.15014 0.80782 0.0
C213 C 0.04942 0.14683 0.78688 0.0
C214 C 0.06154 0.13221 0.76908 0.0
C215 C 0.08848 0.12812 0.7788 0.0
N216 N 0.09401 0.1394 0.80175 0.0
Co217 Co 0.13293 0.14586 0.81641 0.0
N218 N 0.15204 0.13779 0.78267 0.0
C219 C 0.14002 0.12527 0.76296 0.0
C220 C 0.1578 0.12186 0.74196 0.0
C221 C 0.18277 0.13256 0.7491 0.0
C222 C 0.17898 0.14182 0.77432 0.0
N223 N 0.17127 0.15374 0.83133 0.0
C224 C 0.19661 0.15718 0.819 0.0
C225 C 0.21805 0.16106 0.83795 0.0
C226 C 0.20585 0.15947 0.86275 0.0
C227 C 0.17764 0.15479 0.85773 0.0
N228 N 0.11382 0.15305 0.85013 0.0
C229 C 0.12643 0.15077 0.87443 0.0
C230 C 0.1073 0.15083 0.89482 0.0
C231 C 0.08112 0.15359 0.88238 0.0
C232 C 0.08577 0.1563 0.85505 0.0
N233 N 0.13796 0.11324 0.8289 0.0
C234 C 0.14848 0.06689 0.84639 0.0
C235 C 0.17052 0.08197 0.83931 0.0
C236 C 0.16476 0.10413 0.82935 0.0
C237 C 0.12075 0.07618 0.8457 0.0
C238 C 0.11602 0.09948 0.83738 0.0
N239 N 0.12874 0.1778 0.80379 0.0
C240 C 0.13355 0.2187 0.81082 0.0
C241 C 0.12621 0.22322 0.78382 0.0
C242 C 0.11946 0.20461 0.76733 0.0
C243 C 0.12083 0.18214 0.77766 0.0
C244 C 0.13471 0.1958 0.82042 0.0
H245 H 0.11586 0.16827 0.76425 0.0
H246 H 0.1408 0.19259 0.84115 0.0
H247 H 0.18255 0.11376 0.82204 0.0
H248 H 0.09466 0.10625 0.83753 0.0
C249 C 0.11076 0.121 0.7627 0.0
C250 C 0.06336 0.16169 0.8342 0.0
C251 C 0.2021 0.15258 0.79039 0.0
C252 C 0.15625 0.15188 0.87688 0.0
H253 H 0.02961 0.15542 0.78266 0.0
H254 H 0.05292 0.12765 0.74956 0.0
H255 H 0.15287 0.11342 0.7232 0.0
H256 H 0.20166 0.13329 0.73715 0.0
H257 H 0.24043 0.16352 0.83431 0.0
H258 H 0.21643 0.16115 0.8821 0.0
H259 H 0.11181 0.14962 0.91618 0.0
H260 H 0.06097 0.15417 0.89238 0.0
H261 H 0.19256 0.07687 0.84118 0.0
H262 H 0.10279 0.06555 0.85125 0.0
H263 H 0.13838 0.23269 0.82437 0.0
H264 H 0.11379 0.20733 0.74633 0.0
C265 C 0.90402 0.6501 0.35999 0.0
C266 C 0.90058 0.65894 0.38543 0.0
C267 C 0.87239 0.66383 0.38764 0.0
C268 C 0.86024 0.65758 0.36359 0.0
N269 N 0.87881 0.64858 0.34643 0.0
Co270 Co 0.86983 0.63775 0.30935 0.0
N271 N 0.82828 0.63933 0.31541 0.0
C272 C 0.81546 0.65 0.33568 0.0
C273 C 0.78651 0.64742 0.33516 0.0
C274 C 0.78063 0.63438 0.31313 0.0
C275 C 0.80647 0.62987 0.3013 0.0
N276 N 0.86083 0.62684 0.27245 0.0
C277 C 0.83611 0.61877 0.26182 0.0
C278 C 0.83902 0.61304 0.23508 0.0
C279 C 0.86657 0.61779 0.22875 0.0
C280 C 0.87882 0.62611 0.25187 0.0
N281 N 0.91154 0.63641 0.30323 0.0
C282 C 0.92391 0.63421 0.27925 0.0
C283 C 0.95297 0.6348 0.28073 0.0
C284 C 0.95952 0.63808 0.3072 0.0
C285 C 0.93392 0.63934 0.32048 0.0
N286 N 0.86988 0.605 0.32236 0.0
C287 C 0.8624 0.55722 0.33519 0.0
C288 C 0.8802 0.56461 0.31441 0.0
C289 C 0.88351 0.58833 0.3083 0.0
C290 C 0.8499 0.57458 0.35043 0.0
C291 C 0.85398 0.59817 0.34382 0.0
N292 N 0.86918 0.67034 0.29575 0.0
C293 C 0.88922 0.70904 0.29416 0.0
C294 C 0.86905 0.71626 0.27469 0.0
C295 C 0.84868 0.70002 0.26629 0.0
C296 C 0.84894 0.67739 0.2772 0.0
C297 C 0.88909 0.6861 0.30413 0.0
H298 H 0.83274 0.66557 0.27039 0.0
H299 H 0.90534 0.68117 0.31846 0.0
H300 H 0.8965 0.59306 0.29156 0.0
H301 H 0.84336 0.61083 0.35561 0.0
C302 C 0.83134 0.65851 0.35721 0.0
C303 C 0.93194 0.64691 0.34831 0.0
C304 C 0.809 0.61831 0.27555 0.0
C305 C 0.90771 0.63016 0.25607 0.0
H306 H 0.91699 0.66239 0.40039 0.0
H307 H 0.86201 0.67114 0.4047 0.0
H308 H 0.77158 0.65342 0.3497 0.0
H309 H 0.75969 0.62891 0.30644 0.0
H310 H 0.82285 0.60634 0.22153 0.0
H311 H 0.87665 0.61485 0.2098 0.0
H312 H 0.96767 0.6332 0.26447 0.0
H313 H 0.98073 0.64027 0.31553 0.0
H314 H 0.89138 0.55215 0.30261 0.0
H315 H 0.83618 0.57001 0.36686 0.0
H316 H 0.90541 0.72092 0.30127 0.0
H317 H 0.83243 0.70483 0.25154 0.0
C318 C 0.4465 0.39624 0.8103 0.0
C319 C 0.46867 0.40513 0.79541 0.0
C320 C 0.4566 0.41737 0.77425 0.0
C321 C 0.42778 0.4154 0.77737 0.0
N322 N 0.42092 0.40264 0.79911 0.0
Co323 Co 0.38136 0.39551 0.81036 0.0
N324 N 0.36445 0.40386 0.77446 0.0
C325 C 0.37789 0.41603 0.75524 0.0
C326 C 0.36145 0.41953 0.73248 0.0
C327 C 0.33589 0.40919 0.73775 0.0
C328 C 0.33796 0.40006 0.76366 0.0
N329 N 0.34181 0.38819 0.82173 0.0
C330 C 0.31722 0.38532 0.8071 0.0
C331 C 0.29458 0.38113 0.8239 0.0
C332 C 0.30525 0.38152 0.84971 0.0
C333 C 0.33374 0.38601 0.8474 0.0
N334 N 0.39842 0.3872 0.8462 0.0
C335 C 0.38388 0.38503 0.86904 0.0
C336 C 0.40079 0.37864 0.8907 0.0
C337 C 0.42769 0.37675 0.88093 0.0
C338 C 0.42583 0.38223 0.85375 0.0
N339 N 0.37643 0.42789 0.82162 0.0
C340 C 0.36878 0.475 0.83438 0.0
C341 C 0.39511 0.46394 0.83881 0.0
C342 C 0.39834 0.44035 0.83278 0.0
C343 C 0.34618 0.46133 0.82487 0.0
C344 C 0.35064 0.4384 0.81775 0.0
N345 N 0.38599 0.36354 0.79902 0.0
C346 C 0.3761 0.32297 0.80516 0.0
C347 C 0.39087 0.31768 0.78188 0.0
C348 C 0.4031 0.33609 0.76743 0.0
C349 C 0.39985 0.35882 0.77595 0.0
C350 C 0.37476 0.34577 0.8138 0.0
H351 H 0.40849 0.37254 0.76372 0.0
H352 H 0.3641 0.34898 0.83223 0.0
H353 H 0.41873 0.43236 0.8367 0.0
H354 H 0.33296 0.42935 0.80885 0.0
C355 C 0.40684 0.42142 0.75812 0.0
C356 C 0.45061 0.38342 0.83599 0.0
C357 C 0.31373 0.38938 0.77782 0.0
C358 C 0.3541 0.38525 0.86834 0.0
H359 H 0.4912 0.40303 0.79948 0.0
H360 H 0.46758 0.42586 0.75795 0.0
H361 H 0.36751 0.42808 0.71397 0.0
H362 H 0.31774 0.40865 0.72409 0.0
H363 H 0.27252 0.37861 0.81815 0.0
H364 H 0.29367 0.37847 0.86796 0.0
H365 H 0.39417 0.3748 0.91096 0.0
H366 H 0.44644 0.37176 0.89252 0.0
H367 H 0.4133 0.47345 0.84645 0.0
H368 H 0.32488 0.46817 0.82267 0.0
H369 H 0.36499 0.30981 0.81652 0.0
H370 H 0.41493 0.33311 0.74944 0.0
C371 C 0.57435 0.86104 0.3456 0.0
C372 C 0.56922 0.85356 0.3717 0.0
C373 C 0.59498 0.84859 0.38336 0.0
C374 C 0.61431 0.85317 0.36383 0.0
N375 N 0.60251 0.86076 0.34033 0.0
Co376 Co 0.6231 0.86928 0.30673 0.0
N377 N 0.66062 0.85989 0.3233 0.0
C378 C 0.66521 0.85043 0.34799 0.0
C379 C 0.69314 0.84539 0.35368 0.0
C380 C 0.70729 0.85198 0.33121 0.0
C381 C 0.68703 0.86069 0.3131 0.0
N382 N 0.64366 0.87881 0.27354 0.0
C383 C 0.67176 0.87854 0.26837 0.0
C384 C 0.67718 0.88717 0.24278 0.0
C385 C 0.65161 0.8934 0.23156 0.0
C386 C 0.63215 0.88821 0.25079 0.0
N387 N 0.5853 0.87758 0.28978 0.0
C388 C 0.58046 0.88559 0.26445 0.0
C389 C 0.55232 0.88911 0.25813 0.0
C390 C 0.53822 0.88272 0.28068 0.0
C391 C 0.55868 0.87563 0.2995 0.0
N392 N 0.62835 0.90178 0.32026 0.0
C393 C 0.64065 0.94795 0.33679 0.0
C394 C 0.62462 0.94357 0.31342 0.0
C395 C 0.61888 0.92068 0.30555 0.0
C396 C 0.64986 0.92867 0.35201 0.0
C397 C 0.64322 0.90605 0.34371 0.0
N398 N 0.61864 0.83683 0.29298 0.0
C399 C 0.61575 0.81023 0.2556 0.0
C400 C 0.61822 0.79086 0.27277 0.0
C401 C 0.61976 0.79499 0.30037 0.0
C402 C 0.62014 0.81783 0.30994 0.0
C403 C 0.61564 0.83274 0.26598 0.0
H404 H 0.62211 0.81969 0.33118 0.0
H405 H 0.61341 0.84661 0.25168 0.0
H406 H 0.60708 0.91876 0.28722 0.0
H407 H 0.65062 0.89225 0.35654 0.0
C408 C 0.64321 0.84825 0.36608 0.0
C409 C 0.55168 0.86731 0.32634 0.0
C410 C 0.69401 0.87028 0.28689 0.0
C411 C 0.60285 0.89059 0.24748 0.0
H412 H 0.54895 0.85141 0.38124 0.0
H413 H 0.59905 0.84171 0.40341 0.0
H414 H 0.70221 0.83829 0.37217 0.0
H415 H 0.72999 0.85085 0.32861 0.0
H416 H 0.69749 0.88869 0.23316 0.0
H417 H 0.64764 0.90057 0.21162 0.0
H418 H 0.54317 0.89569 0.23941 0.0
H419 H 0.51544 0.88326 0.28305 0.0
H420 H 0.61706 0.95779 0.30077 0.0
H421 H 0.66202 0.93103 0.37046 0.0
H422 H 0.61383 0.80803 0.2341 0.0
H423 H 0.62151 0.78064 0.31458 0.0
C424 C 0.64527 0.13446 0.41323 0.0
C425 C 0.6173 0.14123 0.40889 0.0
C426 C 0.61359 0.14398 0.38179 0.0
C427 C 0.63943 0.13874 0.37128 0.0
N428 N 0.65934 0.1326 0.39 0.0
Co429 Co 0.6999 0.12405 0.384 0.0
N430 N 0.69575 0.13153 0.3448 0.0
C431 C 0.67202 0.13866 0.33127 0.0
C432 C 0.6761 0.14312 0.30457 0.0
C433 C 0.70419 0.13889 0.30088 0.0
C434 C 0.71568 0.13211 0.32573 0.0
N435 N 0.74036 0.11527 0.37816 0.0
C436 C 0.75593 0.11716 0.3558 0.0
C437 C 0.78367 0.10972 0.36028 0.0
C438 C 0.78571 0.10293 0.38657 0.0
C439 C 0.75926 0.10665 0.39652 0.0
N440 N 0.70411 0.11702 0.42336 0.0
C441 C 0.72728 0.10863 0.43672 0.0
C442 C 0.72376 0.10595 0.4638 0.0
C443 C 0.69683 0.1134 0.4681 0.0
C444 C 0.68552 0.12015 0.44323 0.0
N445 N 0.68781 0.09091 0.37725 0.0
C446 C 0.67144 0.0441 0.36592 0.0
C447 C 0.69283 0.0492 0.38499 0.0
C448 C 0.7006 0.07236 0.39024 0.0
C449 C 0.65871 0.06308 0.3526 0.0
C450 C 0.6668 0.08587 0.35868 0.0
N451 N 0.71213 0.15703 0.38999 0.0
C452 C 0.74718 0.18525 0.40547 0.0
C453 C 0.73339 0.20339 0.39134 0.0
C454 C 0.70791 0.19791 0.37787 0.0
C455 C 0.69764 0.17502 0.37769 0.0
C456 C 0.73636 0.16239 0.40447 0.0
H457 H 0.67815 0.17217 0.36691 0.0
H458 H 0.74821 0.14915 0.41503 0.0
H459 H 0.71712 0.07474 0.40487 0.0
H460 H 0.65575 0.09908 0.34773 0.0
C461 C 0.64638 0.14157 0.34435 0.0
C462 C 0.65786 0.13097 0.43978 0.0
C463 C 0.74556 0.12641 0.3302 0.0
C464 C 0.75227 0.10407 0.42339 0.0
H465 H 0.60148 0.14427 0.42386 0.0
H466 H 0.59462 0.14985 0.3711 0.0
H467 H 0.6606 0.14904 0.28965 0.0
H468 H 0.71499 0.14075 0.28202 0.0
H469 H 0.80079 0.10964 0.34614 0.0
H470 H 0.80446 0.09669 0.39734 0.0
H471 H 0.73914 0.0998 0.4787 0.0
H472 H 0.68686 0.11426 0.48741 0.0
H473 H 0.70354 0.03537 0.39607 0.0
H474 H 0.64275 0.0605 0.33698 0.0
H475 H 0.76679 0.18851 0.41652 0.0
H476 H 0.69588 0.21131 0.36727 0.0
C477 C 0.95059 0.23215 0.87925 0.0
C478 C 0.97277 0.24745 0.88407 0.0
C479 C 0.96406 0.26234 0.90332 0.0
C480 C 0.93633 0.25656 0.90799 0.0
N481 N 0.92684 0.2394 0.89216 0.0
Co482 Co 0.88579 0.23305 0.88379 0.0
N483 N 0.87186 0.26075 0.90332 0.0
C484 C 0.88775 0.27335 0.92045 0.0
C485 C 0.87335 0.29186 0.93037 0.0
C486 C 0.84663 0.29082 0.91899 0.0
C487 C 0.84597 0.27156 0.90277 0.0
N488 N 0.84482 0.22684 0.8747 0.0
C489 C 0.82118 0.24042 0.87615 0.0
C490 C 0.79702 0.22826 0.8683 0.0
C491 C 0.80568 0.20645 0.86198 0.0
C492 C 0.83454 0.20643 0.86628 0.0
N493 N 0.89945 0.20491 0.86485 0.0
C494 C 0.88253 0.18657 0.8597 0.0
C495 C 0.89707 0.16688 0.85398 0.0
C496 C 0.92505 0.17294 0.85567 0.0
C497 C 0.92633 0.19647 0.86127 0.0
N498 N 0.88251 0.21435 0.91652 0.0
C499 C 0.87064 0.1812 0.95585 0.0
C500 C 0.89688 0.18116 0.94323 0.0
C501 C 0.90258 0.19819 0.9238 0.0
C502 C 0.8517 0.1993 0.95021 0.0
C503 C 0.85807 0.21571 0.93065 0.0
N504 N 0.88834 0.25194 0.85138 0.0
C505 C 0.87136 0.25972 0.80655 0.0
C506 C 0.87926 0.28302 0.80895 0.0
C507 C 0.89337 0.29009 0.83224 0.0
C508 C 0.89808 0.2742 0.85301 0.0
C509 C 0.8762 0.24439 0.82803 0.0
H510 H 0.9082 0.2805 0.87085 0.0
H511 H 0.86889 0.22677 0.8263 0.0
H512 H 0.92264 0.19761 0.91392 0.0
H513 H 0.84243 0.2288 0.92611 0.0
C514 C 0.91726 0.27048 0.92166 0.0
C515 C 0.95355 0.2095 0.86526 0.0
C516 C 0.82008 0.26364 0.88805 0.0
C517 C 0.853 0.18836 0.86084 0.0
H518 H 0.99313 0.24808 0.87447 0.0
H519 H 0.97587 0.27686 0.91132 0.0
H520 H 0.88176 0.30535 0.9431 0.0
H521 H 0.82971 0.30308 0.92201 0.0
H522 H 0.77527 0.23426 0.86802 0.0
H523 H 0.79249 0.19233 0.85497 0.0
H524 H 0.8884 0.14987 0.8501 0.0
H525 H 0.94234 0.16081 0.85432 0.0
H526 H 0.91234 0.16769 0.94757 0.0
H527 H 0.83165 0.20043 0.96037 0.0
H528 H 0.86111 0.25349 0.78838 0.0
H529 H 0.89989 0.30792 0.83479 0.0
C530 C 0.86546 0.36078 0.3996 0.0
C531 C 0.8927 0.35445 0.39256 0.0
C532 C 0.89514 0.35991 0.36577 0.0
C533 C 0.86929 0.36895 0.35784 0.0
N534 N 0.85089 0.36946 0.37805 0.0
Co535 Co 0.81041 0.3784 0.37535 0.0
N536 N 0.80921 0.3732 0.3365 0.0
C537 C 0.83172 0.37241 0.32034 0.0
C538 C 0.82411 0.36744 0.29436 0.0
C539 C 0.79512 0.36518 0.29434 0.0
C540 C 0.78651 0.36913 0.32035 0.0
N541 N 0.76998 0.38733 0.37296 0.0
C542 C 0.75043 0.38271 0.35357 0.0
C543 C 0.72428 0.39207 0.35971 0.0
C544 C 0.72797 0.40321 0.38368 0.0
C545 C 0.75602 0.39995 0.39088 0.0
N546 N 0.81195 0.38394 0.41413 0.0
C547 C 0.79442 0.39748 0.42782 0.0
C548 C 0.80172 0.39825 0.45466 0.0
C549 C 0.82526 0.3843 0.45777 0.0
C550 C 0.83082 0.37576 0.43259 0.0
N551 N 0.82134 0.4112 0.36836 0.0
C552 C 0.83596 0.45821 0.35757 0.0
C553 C 0.81364 0.44721 0.34361 0.0
C554 C 0.80691 0.42393 0.34905 0.0
C555 C 0.85049 0.445 0.37751 0.0
C556 C 0.84293 0.42166 0.38254 0.0
N557 N 0.79905 0.3456 0.38177 0.0
C558 C 0.7679 0.3169 0.40189 0.0
C559 C 0.77925 0.29916 0.38641 0.0
C560 C 0.80153 0.30525 0.36935 0.0
C561 C 0.81112 0.3283 0.36742 0.0
C562 C 0.7779 0.33989 0.39918 0.0
H563 H 0.82802 0.33219 0.3538 0.0
H564 H 0.76816 0.35315 0.41086 0.0
H565 H 0.7898 0.41626 0.33755 0.0
H566 H 0.85462 0.41205 0.39791 0.0
C567 C 0.8594 0.3713 0.33122 0.0
C568 C 0.85369 0.35959 0.42663 0.0
C569 C 0.75674 0.37097 0.32853 0.0
C570 C 0.76871 0.40504 0.41589 0.0
H571 H 0.90903 0.34629 0.4049 0.0
H572 H 0.91293 0.3561 0.3532 0.0
H573 H 0.83802 0.36444 0.27777 0.0
H574 H 0.78198 0.36074 0.27724 0.0
H575 H 0.70467 0.39107 0.34806 0.0
H576 H 0.71186 0.41187 0.39494 0.0
H577 H 0.79045 0.40684 0.47033 0.0
H578 H 0.83664 0.38042 0.4764 0.0
H579 H 0.801 0.45659 0.32865 0.0
H580 H 0.86786 0.45253 0.38896 0.0
H581 H 0.75079 0.31319 0.41549 0.0
H582 H 0.81156 0.29224 0.35739 0.0
C583 C 0.57114 0.33337 0.8887 0.0
C584 C 0.54875 0.31945 0.89676 0.0
C585 C 0.56043 0.30016 0.90874 0.0
C586 C 0.58925 0.30335 0.90755 0.0
N587 N 0.59674 0.32371 0.89588 0.0
Co588 Co 0.6368 0.33446 0.88919 0.0
N589 N 0.65395 0.30407 0.90182 0.0
C590 C 0.6393 0.2856 0.91131 0.0
C591 C 0.6559 0.26654 0.9166 0.0
C592 C 0.68276 0.27308 0.90995 0.0
C593 C 0.68126 0.296 0.90121 0.0
N594 N 0.67687 0.34516 0.88257 0.0
C595 C 0.70225 0.33368 0.88444 0.0
C596 C 0.72468 0.34825 0.87807 0.0
C597 C 0.71321 0.36937 0.87153 0.0
C598 C 0.6845 0.3667 0.87441 0.0
N599 N 0.61954 0.36447 0.87568 0.0
C600 C 0.63416 0.38332 0.86731 0.0
C601 C 0.61714 0.40077 0.85722 0.0
C602 C 0.59001 0.39248 0.85881 0.0
C603 C 0.59189 0.37036 0.86996 0.0
N604 N 0.63992 0.3465 0.92625 0.0
C605 C 0.65475 0.35948 0.97866 0.0
C606 C 0.65825 0.37496 0.95729 0.0
C607 C 0.6505 0.3682 0.93134 0.0
C608 C 0.64121 0.33847 0.9739 0.0
C609 C 0.63388 0.33246 0.9478 0.0
N610 N 0.63412 0.32251 0.85277 0.0
C611 C 0.64572 0.3254 0.80611 0.0
C612 C 0.63363 0.30375 0.80193 0.0
C613 C 0.62109 0.29188 0.82305 0.0
C614 C 0.62166 0.30151 0.84824 0.0
C615 C 0.64548 0.33457 0.83168 0.0
H616 H 0.61228 0.29148 0.86378 0.0
H617 H 0.65484 0.35124 0.83402 0.0
H618 H 0.65405 0.38059 0.9158 0.0
H619 H 0.62419 0.31604 0.94568 0.0
C620 C 0.60969 0.28635 0.91378 0.0
C621 C 0.56684 0.35536 0.87377 0.0
C622 C 0.70637 0.30913 0.89218 0.0
C623 C 0.66393 0.38337 0.86737 0.0
H624 H 0.52627 0.32264 0.89365 0.0
H625 H 0.54924 0.28511 0.91632 0.0
H626 H 0.64915 0.24967 0.92381 0.0
H627 H 0.70127 0.26203 0.91104 0.0
H628 H 0.74704 0.34401 0.87793 0.0
H629 H 0.72444 0.3847 0.86484 0.0
H630 H 0.62374 0.41727 0.8488 0.0
H631 H 0.57107 0.40152 0.85188 0.0
H632 H 0.668 0.39173 0.96039 0.0
H633 H 0.63714 0.32636 0.99023 0.0
H634 H 0.65527 0.33508 0.78981 0.0
H635 H 0.61148 0.275 0.82024 0.0
C636 C 0.66476 0.358 0.10567 0.0
C637 C 0.6395 0.34936 0.0948 0.0
C638 C 0.62653 0.33712 0.11486 0.0
C639 C 0.64444 0.33893 0.13677 0.0
N640 N 0.66777 0.35173 0.13182 0.0
Co641 Co 0.69932 0.3579 0.15761 0.0
N642 N 0.6754 0.34929 0.18851 0.0
C643 C 0.65112 0.33698 0.18757 0.0
C644 C 0.63918 0.334 0.21228 0.0
C645 C 0.6572 0.34502 0.22987 0.0
C646 C 0.67923 0.354 0.21481 0.0
N647 N 0.7309 0.36363 0.18334 0.0
C648 C 0.72997 0.36762 0.20989 0.0
C649 C 0.75697 0.37229 0.22021 0.0
C650 C 0.77538 0.37053 0.19948 0.0
C651 C 0.75867 0.36518 0.1776 0.0
N652 N 0.72313 0.36681 0.12673 0.0
C653 C 0.75166 0.36835 0.1269 0.0
C654 C 0.76219 0.37533 0.10261 0.0
C655 C 0.73883 0.3781 0.08604 0.0
C656 C 0.7153 0.37245 0.10119 0.0
N657 N 0.68698 0.39057 0.16056 0.0
C658 C 0.67022 0.43719 0.1674 0.0
C659 C 0.69888 0.43119 0.16497 0.0
C660 C 0.70674 0.40802 0.16127 0.0
C661 C 0.65009 0.41923 0.16601 0.0
C662 C 0.65887 0.39614 0.1628 0.0
N663 N 0.71202 0.32521 0.1549 0.0
C664 C 0.72685 0.29286 0.12823 0.0
C665 C 0.73236 0.2789 0.15124 0.0
C666 C 0.72663 0.28891 0.17614 0.0
C667 C 0.71727 0.31199 0.17754 0.0
C668 C 0.71633 0.31553 0.13045 0.0
H669 H 0.71426 0.31907 0.19714 0.0
H670 H 0.71197 0.32529 0.11223 0.0
H671 H 0.72897 0.40425 0.15924 0.0
H672 H 0.64288 0.38274 0.16246 0.0
C673 C 0.63806 0.33194 0.16294 0.0
C674 C 0.68651 0.36986 0.08983 0.0
C675 C 0.70451 0.3652 0.22624 0.0
C676 C 0.76728 0.36661 0.15098 0.0
H677 H 0.63147 0.35132 0.07439 0.0
H678 H 0.60612 0.3285 0.11376 0.0
H679 H 0.61926 0.32559 0.21684 0.0
H680 H 0.65458 0.34613 0.25132 0.0
H681 H 0.76272 0.37696 0.24044 0.0
H682 H 0.79794 0.37416 0.20001 0.0
H683 H 0.78412 0.37866 0.09772 0.0
H684 H 0.73911 0.38316 0.06504 0.0
H685 H 0.71522 0.4444 0.16574 0.0
H686 H 0.62771 0.42291 0.16803 0.0
H687 H 0.73086 0.28652 0.10837 0.0
H688 H 0.7289 0.27908 0.19469 0.0
C689 C 0.56309 0.21369 0.62413 0.0
C690 C 0.53997 0.22641 0.61453 0.0
C691 C 0.55056 0.24459 0.59992 0.0
C692 C 0.57951 0.24199 0.60119 0.0
N693 N 0.58808 0.22315 0.61567 0.0
Co694 Co 0.62872 0.21334 0.62241 0.0
N695 N 0.64461 0.24199 0.60444 0.0
C696 C 0.62911 0.25919 0.59261 0.0
C697 C 0.6452 0.27756 0.58399 0.0
C698 C 0.67258 0.27201 0.59109 0.0
C699 C 0.67183 0.25037 0.60356 0.0
N700 N 0.66932 0.20341 0.62892 0.0
C701 C 0.69435 0.21492 0.62511 0.0
C702 C 0.71745 0.20123 0.63264 0.0
C703 C 0.70678 0.18077 0.64222 0.0
C704 C 0.67785 0.18293 0.63983 0.0
N705 N 0.61301 0.18517 0.64141 0.0
C706 C 0.62855 0.16771 0.65257 0.0
C707 C 0.61262 0.15132 0.66561 0.0
C708 C 0.58521 0.15881 0.66287 0.0
C709 C 0.58585 0.17935 0.64804 0.0
N710 N 0.62784 0.19687 0.58774 0.0
C711 C 0.62841 0.17446 0.53815 0.0
C712 C 0.63623 0.16267 0.5618 0.0
C713 C 0.63563 0.17409 0.58622 0.0
C714 C 0.61961 0.19734 0.53971 0.0
C715 C 0.61951 0.2081 0.56444 0.0
N716 N 0.62956 0.22974 0.65639 0.0
C717 C 0.64542 0.23284 0.70233 0.0
C718 C 0.63315 0.25469 0.70342 0.0
C719 C 0.61877 0.26379 0.68107 0.0
C720 C 0.61728 0.2511 0.65785 0.0
C721 C 0.64321 0.22058 0.67864 0.0
H722 H 0.60626 0.25902 0.64133 0.0
H723 H 0.65271 0.20384 0.67866 0.0
H724 H 0.64202 0.16416 0.6034 0.0
H725 H 0.61297 0.22559 0.56389 0.0
C726 C 0.59929 0.25814 0.59147 0.0
C727 C 0.56005 0.19276 0.64118 0.0
C728 C 0.69744 0.2389 0.61508 0.0
C729 C 0.65819 0.16745 0.65084 0.0
H730 H 0.51773 0.22304 0.61802 0.0
H731 H 0.53859 0.25845 0.59017 0.0
H732 H 0.63779 0.29348 0.57447 0.0
H733 H 0.69091 0.28297 0.58801 0.0
H734 H 0.73972 0.20578 0.63191 0.0
H735 H 0.7187 0.16642 0.65097 0.0
H736 H 0.62009 0.13592 0.67621 0.0
H737 H 0.56686 0.15019 0.67113 0.0
H738 H 0.64375 0.14497 0.56143 0.0
H739 H 0.61329 0.2071 0.5218 0.0
H740 H 0.65628 0.22521 0.7197 0.0
H741 H 0.6089 0.28072 0.68148 0.0
C742 C 0.79434 0.07322 0.13843 0.0
C743 C 0.7751 0.05553 0.13326 0.0
C744 C 0.7513 0.06571 0.12203 0.0
C745 C 0.75726 0.08898 0.12092 0.0
N746 N 0.78325 0.09409 0.1309 0.0
Co747 Co 0.80011 0.12565 0.13258 0.0
N748 N 0.76239 0.14099 0.12796 0.0
C749 C 0.73835 0.13059 0.1193 0.0
C750 C 0.71515 0.14488 0.1196 0.0
C751 C 0.72522 0.16567 0.12867 0.0
C752 C 0.7543 0.16311 0.13301 0.0
N753 N 0.81701 0.15724 0.13379 0.0
C754 C 0.80464 0.17828 0.13691 0.0
C755 C 0.8246 0.19588 0.13444 0.0
C756 C 0.85015 0.18551 0.12978 0.0
C757 C 0.84451 0.1622 0.12944 0.0
N758 N 0.83773 0.11034 0.1376 0.0
C759 C 0.86303 0.12047 0.13344 0.0
C760 C 0.88546 0.10567 0.13808 0.0
C761 C 0.87348 0.08487 0.14544 0.0
C762 C 0.8443 0.08814 0.14484 0.0
N763 N 0.80467 0.12568 0.09389 0.0
C764 C 0.82311 0.13059 0.04169 0.0
C765 C 0.82821 0.11001 0.05599 0.0
C766 C 0.81816 0.10768 0.08202 0.0
C767 C 0.80646 0.14773 0.05288 0.0
C768 C 0.79753 0.14499 0.07909 0.0
N769 N 0.79605 0.12563 0.17102 0.0
C770 C 0.81542 0.13329 0.21487 0.0
C771 C 0.79051 0.12494 0.22614 0.0
C772 C 0.76841 0.11702 0.20955 0.0
C773 C 0.77155 0.11763 0.18197 0.0
C774 C 0.81784 0.13334 0.18711 0.0
H775 H 0.75417 0.11166 0.16952 0.0
H776 H 0.83732 0.13959 0.17868 0.0
H777 H 0.82297 0.09194 0.09309 0.0
H778 H 0.78659 0.15923 0.0879 0.0
C779 C 0.73756 0.10664 0.11543 0.0
C780 C 0.82346 0.06939 0.14879 0.0
C781 C 0.77386 0.18239 0.13972 0.0
C782 C 0.86478 0.14445 0.12884 0.0
H783 H 0.778 0.03718 0.13713 0.0
H784 H 0.73159 0.05724 0.11638 0.0
H785 H 0.69328 0.14046 0.11489 0.0
H786 H 0.71243 0.18088 0.13167 0.0
H787 H 0.82104 0.21434 0.13543 0.0
H788 H 0.87052 0.19395 0.12751 0.0
H789 H 0.90788 0.10964 0.13695 0.0
H790 H 0.88485 0.06903 0.15027 0.0
H791 H 0.84095 0.09642 0.04766 0.0
H792 H 0.80226 0.1639 0.04219 0.0
H793 H 0.83279 0.13958 0.22737 0.0
H794 H 0.74869 0.11077 0.21785 0.0
C795 C 0.94533 0.30503 0.63636 0.0
C796 C 0.96576 0.28926 0.64548 0.0
C797 C 0.95617 0.26764 0.639 0.0
C798 C 0.92993 0.27099 0.6272 0.0
N799 N 0.9222 0.29344 0.62611 0.0
Co800 Co 0.88324 0.30467 0.61589 0.0
N801 N 0.86568 0.27318 0.61926 0.0
C802 C 0.88024 0.25318 0.61999 0.0
C803 C 0.86306 0.23403 0.62204 0.0
C804 C 0.83586 0.24245 0.62228 0.0
C805 C 0.8379 0.26638 0.62044 0.0
N806 N 0.84446 0.31596 0.60542 0.0
C807 C 0.81842 0.30556 0.60685 0.0
C808 C 0.79742 0.31996 0.59606 0.0
C809 C 0.81072 0.33971 0.58715 0.0
C810 C 0.83905 0.33643 0.59308 0.0
N811 N 0.90073 0.33622 0.61321 0.0
C812 C 0.88903 0.35404 0.5992 0.0
C813 C 0.90674 0.37282 0.59719 0.0
C814 C 0.93118 0.36649 0.61083 0.0
C815 C 0.92693 0.34427 0.62117 0.0
N816 N 0.89061 0.29948 0.57785 0.0
C817 C 0.88751 0.30652 0.52225 0.0
C818 C 0.90958 0.31639 0.53778 0.0
C819 C 0.91161 0.31156 0.5653 0.0
C820 C 0.87122 0.2892 0.53468 0.0
C821 C 0.87193 0.28691 0.56254 0.0
N822 N 0.87555 0.31005 0.65317 0.0
C823 C 0.86018 0.3349 0.68819 0.0
C824 C 0.86717 0.31761 0.70699 0.0
C825 C 0.87773 0.29647 0.69856 0.0
C826 C 0.88186 0.29308 0.67162 0.0
C827 C 0.86441 0.33066 0.66107 0.0
H828 H 0.89057 0.2768 0.66585 0.0
H829 H 0.85909 0.34409 0.64656 0.0
H830 H 0.92855 0.31958 0.57665 0.0
H831 H 0.85587 0.27618 0.57138 0.0
C832 C 0.90983 0.25341 0.62308 0.0
C833 C 0.94928 0.33073 0.63617 0.0
C834 C 0.81295 0.28165 0.61659 0.0
C835 C 0.8607 0.35292 0.59005 0.0
H836 H 0.98527 0.2926 0.65651 0.0
H837 H 0.96622 0.2513 0.64424 0.0
H838 H 0.86953 0.2161 0.62388 0.0
H839 H 0.81668 0.23213 0.62317 0.0
H840 H 0.77487 0.31647 0.59448 0.0
H841 H 0.80082 0.35484 0.57793 0.0
H842 H 0.90245 0.38918 0.58702 0.0
H843 H 0.95022 0.37693 0.61231 0.0
H844 H 0.92407 0.32906 0.5296 0.0
H845 H 0.8564 0.27859 0.5235 0.0
H846 H 0.85199 0.35143 0.69439 0.0
H847 H 0.88335 0.28281 0.71289 0.0
C848 C 0.38884 0.70021 0.06291 0.0
C849 C 0.40989 0.70568 0.04482 0.0
C850 C 0.43189 0.71539 0.05925 0.0
C851 C 0.4232 0.71555 0.08537 0.0
N852 N 0.397 0.70669 0.08837 0.0
Co853 Co 0.37698 0.70466 0.12348 0.0
N854 N 0.40392 0.72619 0.14242 0.0
C855 C 0.42935 0.73256 0.13284 0.0
C856 C 0.44393 0.74735 0.14942 0.0
C857 C 0.42691 0.75027 0.17107 0.0
C858 C 0.4028 0.73686 0.16681 0.0
N859 N 0.35623 0.70293 0.1583 0.0
C860 C 0.35858 0.71561 0.18132 0.0
C861 C 0.34065 0.70675 0.20075 0.0
C862 C 0.32684 0.68816 0.1898 0.0
C863 C 0.33706 0.68643 0.16437 0.0
N864 N 0.35033 0.68281 0.10476 0.0
C865 C 0.33231 0.66846 0.11746 0.0
C866 C 0.3167 0.65489 0.10026 0.0
C867 C 0.32546 0.66092 0.07504 0.0
C868 C 0.34597 0.678 0.07813 0.0
N869 N 0.40123 0.67861 0.13526 0.0
C870 C 0.44571 0.64898 0.15119 0.0
C871 C 0.43481 0.6488 0.12476 0.0
C872 C 0.41212 0.66348 0.11733 0.0
C873 C 0.4319 0.66245 0.16988 0.0
C874 C 0.41022 0.67729 0.16152 0.0
N875 N 0.35365 0.73078 0.11214 0.0
C876 C 0.30823 0.74912 0.11047 0.0
C877 C 0.32105 0.77012 0.10335 0.0
C878 C 0.35014 0.771 0.09922 0.0
C879 C 0.36609 0.75091 0.1034 0.0
C880 C 0.32495 0.72963 0.11486 0.0
H881 H 0.38861 0.75198 0.10054 0.0
H882 H 0.31481 0.7139 0.12152 0.0
H883 H 0.40461 0.66354 0.09674 0.0
H884 H 0.40228 0.68874 0.17626 0.0
C885 C 0.43704 0.72666 0.10678 0.0
C886 C 0.36222 0.68766 0.05536 0.0
C887 C 0.38028 0.73372 0.18717 0.0
C888 C 0.32767 0.67078 0.14493 0.0
H889 H 0.40948 0.70295 0.02341 0.0
H890 H 0.45151 0.72225 0.05143 0.0
H891 H 0.46419 0.75559 0.14586 0.0
H892 H 0.43186 0.76106 0.18806 0.0
H893 H 0.33854 0.7125 0.22115 0.0
H894 H 0.31122 0.67719 0.19932 0.0
H895 H 0.30025 0.64256 0.10536 0.0
H896 H 0.31782 0.65342 0.0565 0.0
H897 H 0.44476 0.63859 0.10958 0.0
H898 H 0.43912 0.66274 0.19066 0.0
H899 H 0.28559 0.74809 0.11381 0.0
H900 H 0.36047 0.78709 0.09364 0.0
C901 C 0.41338 0.85172 0.36502 0.0
C902 C 0.40742 0.87419 0.3565 0.0
C903 C 0.37906 0.87778 0.36115 0.0
C904 C 0.36928 0.85731 0.37207 0.0
N905 N 0.38977 0.8412 0.37441 0.0
Co906 Co 0.38504 0.80898 0.38767 0.0
N907 N 0.34392 0.81002 0.38111 0.0
C908 C 0.32784 0.82918 0.37878 0.0
C909 C 0.29961 0.82408 0.37456 0.0
C910 C 0.29813 0.80031 0.37426 0.0
C911 C 0.32572 0.79219 0.37817 0.0
N912 N 0.38098 0.77678 0.4008 0.0
C913 C 0.36015 0.76152 0.39516 0.0
C914 C 0.36614 0.74002 0.40684 0.0
C915 C 0.39139 0.74233 0.42082 0.0
C916 C 0.39955 0.76491 0.41663 0.0
N917 N 0.42637 0.80808 0.39468 0.0
C918 C 0.44027 0.79363 0.41184 0.0
C919 C 0.46903 0.79767 0.41283 0.0
C920 C 0.47335 0.8158 0.39522 0.0
C921 C 0.44686 0.82173 0.38445 0.0
N922 N 0.37861 0.82051 0.42534 0.0
C923 C 0.36414 0.83806 0.47766 0.0
C924 C 0.35282 0.81723 0.46739 0.0
C925 C 0.35954 0.8093 0.44154 0.0
C926 C 0.38404 0.84924 0.46075 0.0
C927 C 0.39117 0.84017 0.43527 0.0
N928 N 0.38965 0.79727 0.34993 0.0
C929 C 0.40289 0.767 0.31874 0.0
C930 C 0.38756 0.77737 0.29692 0.0
C931 C 0.3746 0.79872 0.30261 0.0
C932 C 0.37559 0.80804 0.32877 0.0
C933 C 0.40382 0.77714 0.34465 0.0
H934 H 0.36418 0.82389 0.33188 0.0
H935 H 0.41538 0.76821 0.36065 0.0
H936 H 0.34878 0.79394 0.43466 0.0
H937 H 0.40655 0.84945 0.42342 0.0
C938 C 0.34067 0.85102 0.37529 0.0
C939 C 0.44162 0.84095 0.3655 0.0
C940 C 0.334 0.76765 0.38029 0.0
C941 C 0.42662 0.77396 0.4222 0.0
H942 H 0.42193 0.88661 0.34779 0.0
H943 H 0.3668 0.89309 0.35591 0.0
H944 H 0.28235 0.83614 0.37084 0.0
H945 H 0.27898 0.79018 0.37137 0.0
H946 H 0.35375 0.72429 0.40537 0.0
H947 H 0.40312 0.7288 0.43145 0.0
H948 H 0.4851 0.78791 0.42397 0.0
H949 H 0.49362 0.82368 0.39077 0.0
H950 H 0.33882 0.80652 0.47916 0.0
H951 H 0.39397 0.86527 0.4668 0.0
H952 H 0.41364 0.75068 0.31615 0.0
H953 H 0.3636 0.80853 0.28694 0.0
C954 C 0.20392 0.88419 0.95323 0.0
C955 C 0.22595 0.88451 0.97216 0.0
C956 C 0.24832 0.89575 0.96064 0.0
C957 C 0.23968 0.90068 0.93473 0.0
N958 N 0.21319 0.89304 0.92913 0.0
Co959 Co 0.19723 0.88876 0.89189 0.0
N960 N 0.23467 0.89348 0.87415 0.0
C961 C 0.25768 0.90279 0.88629 0.0
C962 C 0.28047 0.90502 0.86975 0.0
C963 C 0.27122 0.89695 0.84542 0.0
C964 C 0.24313 0.89023 0.84836 0.0
N965 N 0.1812 0.8835 0.85486 0.0
C966 C 0.19403 0.88028 0.8307 0.0
C967 C 0.17377 0.87849 0.81023 0.0
C968 C 0.14771 0.88108 0.8217 0.0
C969 C 0.1533 0.8843 0.84854 0.0
N970 N 0.16005 0.88443 0.90982 0.0
C971 C 0.13475 0.88649 0.89698 0.0
C972 C 0.11231 0.88418 0.91394 0.0
C973 C 0.1242 0.88031 0.93903 0.0
C974 C 0.15346 0.88006 0.93614 0.0
N975 N 0.18957 0.92238 0.88734 0.0
C976 C 0.1759 0.9696 0.87688 0.0
C977 C 0.17351 0.95968 0.90284 0.0
C978 C 0.18006 0.93598 0.90756 0.0
C979 C 0.18441 0.95488 0.85656 0.0
C980 C 0.1924 0.93217 0.86236 0.0
N981 N 0.20445 0.85567 0.89565 0.0
C982 C 0.1883 0.81646 0.8905 0.0
C983 C 0.21478 0.80822 0.8994 0.0
C984 C 0.23591 0.82411 0.90667 0.0
C985 C 0.23035 0.84775 0.90454 0.0
C986 C 0.1835 0.84025 0.88895 0.0
H987 H 0.24718 0.85957 0.90971 0.0
H988 H 0.16294 0.84614 0.88196 0.0
H989 H 0.17743 0.92866 0.92745 0.0
H990 H 0.20045 0.92254 0.84604 0.0
C991 C 0.25834 0.90587 0.91402 0.0
C992 C 0.17416 0.87655 0.95906 0.0
C993 C 0.22495 0.88253 0.82558 0.0
C994 C 0.13316 0.8866 0.86876 0.0
H995 H 0.22664 0.87644 0.99186 0.0
H996 H 0.26942 0.89784 0.96931 0.0
H997 H 0.30157 0.91116 0.87495 0.0
H998 H 0.2837 0.89628 0.82747 0.0
H999 H 0.17751 0.87649 0.78906 0.0
H1000 H 0.12715 0.88075 0.81159 0.0
H1001 H 0.08991 0.88442 0.90862 0.0
H1002 H 0.11253 0.87797 0.95733 0.0
H1003 H 0.16675 0.97008 0.91937 0.0
H1004 H 0.1849 0.96062 0.83581 0.0
H1005 H 0.17154 0.80461 0.88455 0.0
H1006 H 0.25688 0.81832 0.9131 0.0
C1007 C 0.14297 0.7215 0.43946 0.0
C1008 C 0.1467 0.73837 0.45877 0.0
C1009 C 0.13555 0.75852 0.44832 0.0
C1010 C 0.12665 0.75346 0.42275 0.0
N1011 N 0.13204 0.73141 0.41615 0.0
Co1012 Co 0.1288 0.71945 0.37863 0.0
N1013 N 0.12406 0.75098 0.36154 0.0
C1014 C 0.11735 0.77012 0.375 0.0
C1015 C 0.11494 0.7895 0.35879 0.0
C1016 C 0.12023 0.78216 0.33338 0.0
C1017 C 0.12579 0.75863 0.33541 0.0
N1018 N 0.12614 0.70758 0.34106 0.0
C1019 C 0.12779 0.71859 0.31648 0.0
C1020 C 0.12422 0.70283 0.296 0.0
C1021 C 0.11954 0.68161 0.30797 0.0
C1022 C 0.12071 0.68539 0.33509 0.0
N1023 N 0.1331 0.68792 0.39576 0.0
C1024 C 0.12468 0.66845 0.38341 0.0
C1025 C 0.12349 0.6496 0.40041 0.0
C1026 C 0.13168 0.6576 0.42512 0.0
C1027 C 0.13852 0.6809 0.42192 0.0
N1028 N 0.08753 0.71652 0.38158 0.0
C1029 C 0.03232 0.69901 0.37924 0.0
C1030 C 0.04873 0.69687 0.40287 0.0
C1031 C 0.07615 0.70615 0.40379 0.0
C1032 C 0.04279 0.71248 0.35804 0.0
C1033 C 0.07041 0.72119 0.35966 0.0
N1034 N 0.16952 0.72184 0.37538 0.0
C1035 C 0.2142 0.70503 0.36399 0.0
C1036 C 0.22781 0.72551 0.37115 0.0
C1037 C 0.21199 0.74416 0.37998 0.0
C1038 C 0.18287 0.74197 0.38199 0.0
C1039 C 0.18477 0.70355 0.36626 0.0
H1040 H 0.17127 0.75653 0.38908 0.0
H1041 H 0.17439 0.68762 0.36083 0.0
H1042 H 0.08878 0.7034 0.42182 0.0
H1043 H 0.07852 0.73018 0.34233 0.0
C1044 C 0.11875 0.76994 0.40306 0.0
C1045 C 0.1474 0.69606 0.44479 0.0
C1046 C 0.13016 0.74404 0.31165 0.0
C1047 C 0.11918 0.66852 0.35561 0.0
H1048 H 0.157 0.73676 0.47826 0.0
H1049 H 0.13567 0.77529 0.4577 0.0
H1050 H 0.11087 0.80706 0.36483 0.0
H1051 H 0.11987 0.79291 0.31537 0.0
H1052 H 0.1244 0.70635 0.27462 0.0
H1053 H 0.11605 0.66531 0.29803 0.0
H1054 H 0.11694 0.63218 0.39556 0.0
H1055 H 0.13148 0.64748 0.44356 0.0
H1056 H 0.04094 0.68723 0.42003 0.0
H1057 H 0.03052 0.71488 0.33957 0.0
H1058 H 0.22615 0.69033 0.35719 0.0
H1059 H 0.22221 0.76024 0.38565 0.0
C1060 C 0.30812 0.64349 0.93545 0.0
C1061 C 0.29437 0.63052 0.95492 0.0
C1062 C 0.27689 0.61523 0.94165 0.0
C1063 C 0.28081 0.61962 0.9148 0.0
N1064 N 0.29957 0.63671 0.91026 0.0
Co1065 Co 0.31015 0.64834 0.87371 0.0
N1066 N 0.27694 0.63349 0.85508 0.0
C1067 C 0.26302 0.61524 0.86576 0.0
C1068 C 0.24624 0.60388 0.84745 0.0
C1069 C 0.24978 0.61558 0.82364 0.0
C1070 C 0.26782 0.63417 0.82871 0.0
N1071 N 0.31985 0.66144 0.83747 0.0
C1072 C 0.30373 0.66413 0.81428 0.0
C1073 C 0.3179 0.6784 0.79624 0.0
C1074 C 0.3442 0.6829 0.80726 0.0
C1075 C 0.34457 0.67203 0.83191 0.0
N1076 N 0.34406 0.66229 0.89235 0.0
C1077 C 0.36693 0.67066 0.87966 0.0
C1078 C 0.38692 0.67986 0.89689 0.0
C1079 C 0.37606 0.67717 0.92204 0.0
C1080 C 0.34992 0.6663 0.91896 0.0
N1081 N 0.33201 0.61968 0.86703 0.0
C1082 C 0.3502 0.57409 0.85652 0.0
C1083 C 0.3451 0.59028 0.83571 0.0
C1084 C 0.33512 0.61237 0.84125 0.0
C1085 C 0.34938 0.58231 0.8829 0.0
C1086 C 0.3411 0.60529 0.88764 0.0
N1087 N 0.28816 0.67613 0.88002 0.0
C1088 C 0.28517 0.71754 0.88099 0.0
C1089 C 0.25726 0.71598 0.88954 0.0
C1090 C 0.24483 0.69425 0.89329 0.0
C1091 C 0.26073 0.67442 0.88838 0.0
C1092 C 0.30026 0.69743 0.87634 0.0
H1093 H 0.25092 0.65774 0.89141 0.0
H1094 H 0.32172 0.69923 0.86979 0.0
H1095 H 0.32877 0.62288 0.82422 0.0
H1096 H 0.3408 0.61088 0.90814 0.0
C1097 C 0.26569 0.6098 0.89328 0.0
C1098 C 0.33142 0.66009 0.94179 0.0
C1099 C 0.277 0.65108 0.80749 0.0
C1100 C 0.36571 0.6746 0.85186 0.0
H1101 H 0.29719 0.63165 0.97647 0.0
H1102 H 0.2627 0.60265 0.95056 0.0
H1103 H 0.23338 0.58861 0.85086 0.0
H1104 H 0.24069 0.61044 0.80455 0.0
H1105 H 0.31025 0.68517 0.7771 0.0
H1106 H 0.36059 0.69377 0.79878 0.0
H1107 H 0.40623 0.68892 0.89166 0.0
H1108 H 0.386 0.68316 0.9404 0.0
H1109 H 0.34772 0.58582 0.81493 0.0
H1110 H 0.35402 0.57093 0.8999 0.0
H1111 H 0.29524 0.73423 0.87789 0.0
H1112 H 0.22314 0.69263 0.89989 0.0
C1113 C 0.13158 0.81223 0.07237 0.0
C1114 C 0.13256 0.79575 0.05243 0.0
C1115 C 0.12219 0.77551 0.06304 0.0
C1116 C 0.11637 0.78013 0.0892 0.0
N1117 N 0.12265 0.80206 0.09593 0.0
Co1118 Co 0.12419 0.81341 0.13382 0.0
N1119 N 0.12233 0.78155 0.15058 0.0
C1120 C 0.11495 0.76241 0.13704 0.0
C1121 C 0.11501 0.74271 0.15278 0.0
C1122 C 0.12234 0.7498 0.17806 0.0
C1123 C 0.12611 0.77362 0.17655 0.0
N1124 N 0.1263 0.82489 0.1716 0.0
C1125 C 0.12978 0.8136 0.196 0.0
C1126 C 0.12763 0.82912 0.21678 0.0
C1127 C 0.12223 0.85046 0.20529 0.0
C1128 C 0.12134 0.847 0.17811 0.0
N1129 N 0.12568 0.84508 0.11694 0.0
C1130 C 0.11881 0.86442 0.12991 0.0
C1131 C 0.11747 0.88362 0.11337 0.0
C1132 C 0.12404 0.87593 0.08835 0.0
C1133 C 0.12996 0.85243 0.09095 0.0
N1134 N 0.08261 0.81541 0.13437 0.0
C1135 C 0.02581 0.82817 0.14037 0.0
C1136 C 0.0396 0.83246 0.11614 0.0
C1137 C 0.06789 0.82568 0.11342 0.0
C1138 C 0.04032 0.81564 0.16062 0.0
C1139 C 0.06853 0.80927 0.15714 0.0
N1140 N 0.16525 0.812 0.13316 0.0
C1141 C 0.20982 0.83233 0.1325 0.0
C1142 C 0.22207 0.81353 0.11996 0.0
C1143 C 0.20617 0.79333 0.11631 0.0
C1144 C 0.17787 0.79287 0.1232 0.0
C1145 C 0.18115 0.83119 0.139 0.0
H1146 H 0.16596 0.7774 0.11922 0.0
H1147 H 0.17156 0.84618 0.14761 0.0
H1148 H 0.0783 0.82997 0.09493 0.0
H1149 H 0.07929 0.80066 0.17368 0.0
C1150 C 0.1121 0.76317 0.10908 0.0
C1151 C 0.1376 0.83753 0.06789 0.0
C1152 C 0.13094 0.78805 0.20064 0.0
C1153 C 0.11696 0.86405 0.158 0.0
H1154 H 0.14102 0.79747 0.03257 0.0
H1155 H 0.12138 0.75887 0.05341 0.0
H1156 H 0.11098 0.72514 0.1465 0.0
H1157 H 0.12438 0.73863 0.19563 0.0
H1158 H 0.12861 0.82526 0.2381 0.0
H1159 H 0.119 0.86655 0.21559 0.0
H1160 H 0.11264 0.9012 0.11885 0.0
H1161 H 0.12406 0.88647 0.0702 0.0
H1162 H 0.02898 0.84183 0.09981 0.0
H1163 H 0.03066 0.81209 0.17978 0.0
H1164 H 0.22199 0.84788 0.13646 0.0
H1165 H 0.2155 0.77806 0.10777 0.0
C1166 C 0.2058 0.64673 0.56581 0.0
C1167 C 0.22827 0.64277 0.54894 0.0
C1168 C 0.24714 0.62866 0.56265 0.0
C1169 C 0.23627 0.62571 0.58777 0.0
N1170 N 0.21193 0.63739 0.59088 0.0
Co1171 Co 0.19623 0.64542 0.6266 0.0
N1172 N 0.2304 0.63437 0.6477 0.0
C1173 C 0.2494 0.61957 0.63783 0.0
C1174 C 0.26773 0.61056 0.65696 0.0
C1175 C 0.2598 0.62016 0.68055 0.0
C1176 C 0.23743 0.63521 0.67453 0.0
N1177 N 0.18134 0.65551 0.6619 0.0
C1178 C 0.19515 0.6597 0.68595 0.0
C1179 C 0.1776 0.6723 0.70226 0.0
C1180 C 0.1515 0.67367 0.68951 0.0
C1181 C 0.15467 0.66293 0.66543 0.0
N1182 N 0.1615 0.65508 0.60559 0.0
C1183 C 0.13606 0.65826 0.6167 0.0
C1184 C 0.11473 0.66216 0.598 0.0
C1185 C 0.12754 0.66158 0.57356 0.0
C1186 C 0.15636 0.65801 0.57854 0.0
N1187 N 0.17975 0.61403 0.63164 0.0
C1188 C 0.16274 0.56761 0.64118 0.0
C1189 C 0.16608 0.58325 0.66215 0.0
C1190 C 0.17556 0.60572 0.65716 0.0
C1191 C 0.16583 0.5764 0.61488 0.0
C1192 C 0.1738 0.59974 0.61054 0.0
N1193 N 0.21262 0.67618 0.62223 0.0
C1194 C 0.20714 0.71744 0.62338 0.0
C1195 C 0.23648 0.72018 0.62211 0.0
C1196 C 0.2537 0.70075 0.61966 0.0
C1197 C 0.24127 0.67884 0.61941 0.0
C1198 C 0.19563 0.69527 0.62357 0.0
H1199 H 0.25497 0.66409 0.61775 0.0
H1200 H 0.17308 0.69369 0.62578 0.0
H1201 H 0.18021 0.61588 0.6745 0.0
H1202 H 0.17588 0.60592 0.59013 0.0
C1203 C 0.25128 0.6167 0.61012 0.0
C1204 C 0.17806 0.65767 0.55708 0.0
C1205 C 0.22304 0.6493 0.69508 0.0
C1206 C 0.13446 0.66224 0.64432 0.0
H1207 H 0.23162 0.65004 0.52917 0.0
H1208 H 0.26756 0.62291 0.5558 0.0
H1209 H 0.28497 0.59856 0.65412 0.0
H1210 H 0.26931 0.61606 0.69996 0.0
H1211 H 0.1829 0.67979 0.72144 0.0
H1212 H 0.13279 0.68234 0.69653 0.0
H1213 H 0.0927 0.66604 0.60168 0.0
H1214 H 0.11676 0.66389 0.55433 0.0
H1215 H 0.16222 0.57809 0.68272 0.0
H1216 H 0.16289 0.56525 0.59782 0.0
H1217 H 0.19335 0.73226 0.62547 0.0
H1218 H 0.27657 0.70248 0.61862 0.0
C1219 C 0.30753 0.88933 0.59015 0.0
C1220 C 0.29181 0.8988 0.56883 0.0
C1221 C 0.27064 0.91176 0.57965 0.0
C1222 C 0.2746 0.90978 0.60697 0.0
N1223 N 0.29694 0.89641 0.61406 0.0
Co1224 Co 0.30956 0.88971 0.65194 0.0
N1225 N 0.27263 0.89929 0.6674 0.0
C1226 C 0.25294 0.91209 0.654 0.0
C1227 C 0.2297 0.9168 0.66912 0.0
C1228 C 0.23519 0.90662 0.69375 0.0
C1229 C 0.26172 0.89632 0.6925 0.0
N1230 N 0.32201 0.88223 0.68978 0.0
C1231 C 0.30703 0.87999 0.713 0.0
C1232 C 0.32525 0.87525 0.73463 0.0
C1233 C 0.35225 0.8747 0.7248 0.0
C1234 C 0.34923 0.87918 0.69774 0.0
N1235 N 0.34651 0.88046 0.63625 0.0
C1236 C 0.37088 0.87776 0.65055 0.0
C1237 C 0.39259 0.86957 0.63546 0.0
C1238 C 0.3813 0.86703 0.61006 0.0
C1239 C 0.35318 0.87414 0.61071 0.0
N1240 N 0.32359 0.92183 0.65575 0.0
C1241 C 0.34115 0.96855 0.66175 0.0
C1242 C 0.33125 0.95522 0.6835 0.0
C1243 C 0.32181 0.93252 0.67992 0.0
C1244 C 0.3424 0.95743 0.63683 0.0
C1245 C 0.33444 0.93402 0.63451 0.0
N1246 N 0.29578 0.85821 0.6483 0.0
C1247 C 0.30457 0.81736 0.65133 0.0
C1248 C 0.27758 0.8129 0.64035 0.0
C1249 C 0.2598 0.83158 0.63352 0.0
C1250 C 0.26933 0.85411 0.63764 0.0
C1251 C 0.31311 0.8401 0.65542 0.0
H1252 H 0.25543 0.86822 0.63192 0.0
H1253 H 0.33395 0.84298 0.66394 0.0
H1254 H 0.3128 0.92381 0.69697 0.0
H1255 H 0.33653 0.92599 0.61528 0.0
C1256 C 0.25551 0.91684 0.62643 0.0
C1257 C 0.33366 0.87531 0.58672 0.0
C1258 C 0.27639 0.88524 0.71608 0.0
C1259 C 0.37071 0.87795 0.67872 0.0
H1260 H 0.29535 0.89667 0.54764 0.0
H1261 H 0.25377 0.92087 0.56884 0.0
H1262 H 0.21067 0.92605 0.66281 0.0
H1263 H 0.22129 0.90695 0.71073 0.0
H1264 H 0.31969 0.87305 0.75547 0.0
H1265 H 0.37171 0.87113 0.73604 0.0
H1266 H 0.41364 0.86452 0.64245 0.0
H1267 H 0.39252 0.8601 0.59335 0.0
H1268 H 0.33033 0.96219 0.70345 0.0
H1269 H 0.34871 0.96662 0.61888 0.0
H1270 H 0.3192 0.80343 0.65634 0.0
H1271 H 0.23869 0.8288 0.62511 0.0
C1272 C 0.10271 0.25437 0.75592 0.0
C1273 C 0.12585 0.24705 0.77233 0.0
C1274 C 0.10261 0.2762 0.74325 0.0
C1275 C 0.12561 0.29138 0.74663 0.0
H1276 H 0.08455 0.24311 0.75283 0.0
H1277 H 0.08443 0.28129 0.73084 0.0
S1278 S 0.19149 0.28068 0.78671 0.0
N1279 N 0.17264 0.25675 0.79063 0.0
N1280 N 0.17201 0.29803 0.76714 0.0
C1281 C 0.14874 0.28449 0.763 0.0
C1282 C 0.14896 0.26225 0.77583 0.0
C1283 C 0.74375 0.58997 0.24462 0.0
C1284 C 0.72845 0.60927 0.2347 0.0
C1285 C 0.77058 0.59276 0.25699 0.0
C1286 C 0.78267 0.61487 0.25944 0.0
H1287 H 0.73447 0.57282 0.24364 0.0
H1288 H 0.7815 0.57774 0.26541 0.0
S1289 S 0.75165 0.67062 0.23588 0.0
N1290 N 0.72748 0.65105 0.22787 0.0
N1291 N 0.77829 0.65608 0.25006 0.0
C1292 C 0.76809 0.63409 0.24861 0.0
C1293 C 0.74078 0.63135 0.23654 0.0
C1294 C 0.39112 0.28927 0.74417 0.0
C1295 C 0.39241 0.2934 0.77195 0.0
C1296 C 0.39144 0.26678 0.73415 0.0
C1297 C 0.39209 0.24718 0.75138 0.0
H1298 H 0.38936 0.30351 0.72983 0.0
H1299 H 0.39105 0.26486 0.71259 0.0
S1300 S 0.39615 0.24826 0.82599 0.0
N1301 N 0.39664 0.27576 0.81659 0.0
N1302 N 0.39347 0.23359 0.79797 0.0
C1303 C 0.39328 0.25101 0.77928 0.0
C1304 C 0.39423 0.274 0.78947 0.0
C1305 C 0.73655 0.89473 0.27836 0.0
C1306 C 0.72402 0.87267 0.27918 0.0
C1307 C 0.76349 0.89796 0.26761 0.0
C1308 C 0.77877 0.87915 0.2578 0.0
H1309 H 0.72489 0.90966 0.28496 0.0
H1310 H 0.77184 0.91539 0.26579 0.0
S1311 S 0.75545 0.81796 0.25636 0.0
N1312 N 0.72881 0.83176 0.27 0.0
N1313 N 0.77991 0.83779 0.25017 0.0
C1314 C 0.76687 0.85692 0.25945 0.0
C1315 C 0.73935 0.85367 0.27015 0.0
C1316 C 0.77915 0.10449 0.26841 0.0
C1317 C 0.78645 0.1252 0.2551 0.0
C1318 C 0.76804 0.10487 0.29407 0.0
C1319 C 0.76402 0.12596 0.3069 0.0
H1320 H 0.78031 0.08812 0.25822 0.0
H1321 H 0.76073 0.08882 0.30316 0.0
S1322 S 0.78237 0.18453 0.28166 0.0
N1323 N 0.79113 0.16706 0.25728 0.0
N1324 N 0.77022 0.16767 0.30596 0.0
C1325 C 0.77327 0.14657 0.29476 0.0
C1326 C 0.78459 0.14622 0.26862 0.0
C1327 C 0.84254 0.31008 0.74872 0.0
C1328 C 0.8654 0.32076 0.73584 0.0
C1329 C 0.8465 0.29956 0.77395 0.0
C1330 C 0.87339 0.29957 0.78677 0.0
H1331 H 0.82272 0.30714 0.73782 0.0
H1332 H 0.82916 0.28966 0.78236 0.0
S1333 S 0.93796 0.32994 0.76335 0.0
N1334 N 0.91388 0.33466 0.73932 0.0
N1335 N 0.92176 0.31458 0.78673 0.0
C1336 C 0.8952 0.31307 0.77567 0.0
C1337 C 0.89097 0.32396 0.75015 0.0
C1338 C 0.72513 0.38884 0.29346 0.0
C1339 C 0.73462 0.36877 0.30725 0.0
C1340 C 0.71219 0.38742 0.268 0.0
C1341 C 0.70867 0.36593 0.25568 0.0
H1342 H 0.73005 0.40579 0.3013 0.0
H1343 H 0.70729 0.40327 0.25691 0.0
S1344 S 0.72766 0.30839 0.28461 0.0
N1345 N 0.73736 0.32687 0.30803 0.0
N1346 N 0.71359 0.32415 0.25978 0.0
C1347 C 0.71597 0.34567 0.27019 0.0
C1348 C 0.72884 0.34712 0.29617 0.0
C1349 C 0.60844 0.27447 0.73948 0.0
C1350 C 0.63408 0.26779 0.7281 0.0
C1351 C 0.60853 0.28685 0.76315 0.0
C1352 C 0.63425 0.29304 0.77577 0.0
H1353 H 0.58825 0.26972 0.73026 0.0
H1354 H 0.58843 0.29134 0.77187 0.0
S1355 S 0.7069 0.2803 0.75332 0.0
N1356 N 0.68568 0.26863 0.73042 0.0
N1357 N 0.68585 0.29212 0.77535 0.0
C1358 C 0.66002 0.28692 0.76432 0.0
C1359 C 0.65993 0.27412 0.74032 0.0
C1360 C 0.29868 0.80129 0.12794 0.0
C1361 C 0.30363 0.79101 0.10315 0.0
C1362 C 0.27295 0.81248 0.1324 0.0
C1363 C 0.25189 0.81349 0.11209 0.0
H1364 H 0.31297 0.79798 0.1449 0.0
H1365 H 0.26814 0.81747 0.15265 0.0
S1366 S 0.25821 0.79473 0.04187 0.0
N1367 N 0.28833 0.78659 0.05677 0.0
N1368 N 0.24001 0.80811 0.06493 0.0
C1369 C 0.25866 0.8067 0.08609 0.0
C1370 C 0.28468 0.7952 0.08165 0.0
C1371 C 0.29868 0.74034 0.39881 0.0
C1372 C 0.31169 0.75014 0.37622 0.0
C1373 C 0.27263 0.72908 0.3963 0.0
C1374 C 0.25862 0.72788 0.37127 0.0
H1375 H 0.3074 0.74315 0.41878 0.0
H1376 H 0.26198 0.72348 0.41437 0.0
S1377 S 0.28512 0.74893 0.3059 0.0
N1378 N 0.31034 0.75597 0.32787 0.0
N1379 N 0.26035 0.73544 0.32326 0.0
C1380 C 0.27238 0.73591 0.34827 0.0
C1381 C 0.29922 0.74704 0.35076 0.0
C1382 C 0.21798 0.77138 0.87455 0.0
C1383 C 0.22134 0.78328 0.89879 0.0
C1384 C 0.22812 0.74878 0.87216 0.0
C1385 C 0.24154 0.73739 0.89402 0.0
H1386 H 0.2089 0.78004 0.85693 0.0
H1387 H 0.2267 0.74056 0.85279 0.0
S1388 S 0.25282 0.75996 0.96245 0.0
N1389 N 0.23695 0.78135 0.9456 0.0
N1390 N 0.25601 0.7387 0.94098 0.0
C1391 C 0.24365 0.74854 0.91871 0.0
C1392 C 0.23351 0.77159 0.92114 0.0
C1393 C 0.24545 0.76054 0.60639 0.0
C1394 C 0.24896 0.74314 0.62612 0.0
C1395 C 0.25509 0.78308 0.61104 0.0
C1396 C 0.26813 0.78888 0.63572 0.0
H1397 H 0.23501 0.75672 0.58739 0.0
H1398 H 0.25228 0.79605 0.59525 0.0
S1399 S 0.28034 0.74936 0.69432 0.0
N1400 N 0.26547 0.73288 0.67119 0.0
N1401 N 0.28286 0.77544 0.68045 0.0
C1402 C 0.27155 0.77149 0.65563 0.0
C1403 C 0.26208 0.74854 0.65071 0.0
C1404 C 0.86797 0.78263 0.26993 0.0
C1405 C 0.8696 0.78754 0.24212 0.0
C1406 C 0.86802 0.75972 0.28026 0.0
C1407 C 0.86927 0.74053 0.26328 0.0
H1408 H 0.86624 0.79663 0.28396 0.0
H1409 H 0.8666 0.75699 0.30174 0.0
S1410 S 0.87632 0.74329 0.18932 0.0
N1411 N 0.87467 0.77069 0.19806 0.0
N1412 N 0.87365 0.72793 0.2174 0.0
C1413 C 0.87116 0.74505 0.23554 0.0
C1414 C 0.87157 0.76838 0.22501 0.0
C1415 C 0.24229 0.40786 0.74413 0.0
C1416 C 0.22767 0.38679 0.74009 0.0
C1417 C 0.26982 0.40855 0.75615 0.0
C1418 C 0.28432 0.38819 0.76446 0.0
H1419 H 0.23224 0.42402 0.73807 0.0
H1420 H 0.27982 0.42524 0.7591 0.0
S1421 S 0.25566 0.32855 0.75853 0.0
N1422 N 0.23003 0.34505 0.74556 0.0
N1423 N 0.28151 0.3463 0.76778 0.0
C1424 C 0.26995 0.36704 0.76048 0.0
C1425 C 0.24188 0.36634 0.74831 0.0
C1426 C 0.60076 0.74922 0.27077 0.0
C1427 C 0.61959 0.76666 0.26196 0.0
C1428 C 0.6017 0.7265 0.26065 0.0
C1429 C 0.62195 0.71999 0.24172 0.0
H1430 H 0.58495 0.75323 0.28544 0.0
H1431 H 0.58674 0.71378 0.2681 0.0
S1432 S 0.67637 0.75894 0.21239 0.0
N1433 N 0.65914 0.77564 0.23308 0.0
N1434 N 0.66124 0.73317 0.21459 0.0
C1435 C 0.64098 0.73725 0.23291 0.0
C1436 C 0.6397 0.76044 0.24284 0.0
C1437 C 0.27346 0.1726 0.76075 0.0
C1438 C 0.28776 0.15165 0.7559 0.0
C1439 C 0.24632 0.17291 0.77258 0.0
C1440 C 0.23222 0.15228 0.78003 0.0
H1441 H 0.28322 0.18889 0.75503 0.0
H1442 H 0.23603 0.1894 0.7754 0.0
S1443 S 0.26013 0.09285 0.77174 0.0
N1444 N 0.28512 0.10973 0.75925 0.0
N1445 N 0.23517 0.11036 0.78222 0.0
C1446 C 0.24654 0.1313 0.77573 0.0
C1447 C 0.27388 0.13097 0.76343 0.0
C1448 C 0.2553 0.90452 0.75755 0.0
C1449 C 0.26253 0.88416 0.74384 0.0
C1450 C 0.24278 0.90385 0.78332 0.0
C1451 C 0.23671 0.88278 0.79697 0.0
H1452 H 0.25963 0.92124 0.74834 0.0
H1453 H 0.23807 0.92006 0.79284 0.0
S1454 S 0.25155 0.82445 0.77054 0.0
N1455 N 0.26258 0.84221 0.74656 0.0
N1456 N 0.23931 0.84098 0.79441 0.0
C1457 C 0.24378 0.86234 0.78352 0.0
C1458 C 0.25662 0.86302 0.75731 0.0
C1459 C 0.10767 0.75319 0.26476 0.0
C1460 C 0.13088 0.75504 0.28314 0.0
C1461 C 0.1077 0.76393 0.23874 0.0
C1462 C 0.13101 0.77712 0.2293 0.0
H1463 H 0.08906 0.74348 0.27064 0.0
H1464 H 0.08912 0.76187 0.22582 0.0
S1465 S 0.197 0.78802 0.26942 0.0
N1466 N 0.17766 0.77188 0.28977 0.0
N1467 N 0.17791 0.79149 0.24143 0.0
C1468 C 0.15417 0.77933 0.24764 0.0
C1469 C 0.15407 0.76851 0.27419 0.0
C1470 C 0.27821 0.65264 0.75503 0.0
C1471 C 0.2624 0.65182 0.77895 0.0
C1472 C 0.26527 0.65355 0.72894 0.0
C1473 C 0.23565 0.65068 0.72431 0.0
H1474 H 0.30113 0.6521 0.75608 0.0
H1475 H 0.27908 0.65569 0.71199 0.0
S1476 S 0.18388 0.64415 0.77955 0.0
N1477 N 0.21426 0.64933 0.79545 0.0
N1478 N 0.19137 0.64335 0.7474 0.0
C1479 C 0.21962 0.64807 0.74804 0.0
C1480 C 0.23251 0.65022 0.77473 0.0
C1481 C 0.40765 0.75297 0.25835 0.0
C1482 C 0.38522 0.76626 0.2688 0.0
C1483 C 0.40605 0.74275 0.23247 0.0
C1484 C 0.38207 0.74532 0.21499 0.0
H1485 H 0.42697 0.7505 0.27018 0.0
H1486 H 0.42389 0.73255 0.22616 0.0
S1487 S 0.31624 0.77656 0.23226 0.0
N1488 N 0.33693 0.77953 0.25916 0.0
N1489 N 0.33484 0.76166 0.21084 0.0
C1490 C 0.35939 0.75826 0.22517 0.0
C1491 C 0.36075 0.76837 0.25167 0.0
C1492 C 0.75019 0.29529 0.86733 0.0
C1493 C 0.73583 0.29799 0.89169 0.0
C1494 C 0.77731 0.28464 0.8664 0.0
C1495 C 0.79161 0.2762 0.88979 0.0
H1496 H 0.7402 0.30128 0.84871 0.0
H1497 H 0.78714 0.28284 0.8471 0.0
S1498 S 0.76344 0.27866 0.95873 0.0
N1499 N 0.73862 0.29149 0.9399 0.0
N1500 N 0.78848 0.27081 0.93805 0.0
C1501 C 0.77742 0.27872 0.91424 0.0
C1502 C 0.74999 0.28977 0.91521 0.0
C1503 C 0.76817 0.26687 0.59222 0.0
C1504 C 0.78299 0.27153 0.6165 0.0
C1505 C 0.74067 0.25673 0.59183 0.0
C1506 C 0.72649 0.25081 0.6157 0.0
H1507 H 0.77811 0.27086 0.5733 0.0
H1508 H 0.73053 0.25322 0.57262 0.0
S1509 S 0.75571 0.25946 0.68461 0.0
N1510 N 0.78111 0.26925 0.66503 0.0
N1511 N 0.72977 0.25066 0.66436 0.0
C1512 C 0.74109 0.25546 0.64006 0.0
C1513 C 0.76911 0.26564 0.64044 0.0
C1514 C 0.73594 0.24074 0.12642 0.0
C1515 C 0.74333 0.2542 0.149 0.0
C1516 C 0.74595 0.21793 0.12346 0.0
C1517 C 0.763 0.20684 0.14337 0.0
H1518 H 0.72206 0.24772 0.11073 0.0
H1519 H 0.74024 0.20889 0.10527 0.0
S1520 S 0.79061 0.23392 0.2056 0.0
N1521 N 0.77146 0.25454 0.19071 0.0
N1522 N 0.78785 0.21125 0.18602 0.0
C1523 C 0.77077 0.21989 0.16595 0.0
C1524 C 0.76142 0.24346 0.16864 0.0
C1525 C 0.76378 0.26281 0.41218 0.0
C1526 C 0.76764 0.27467 0.38748 0.0
C1527 C 0.75331 0.23978 0.41337 0.0
C1528 C 0.74557 0.22766 0.38994 0.0
H1529 H 0.76924 0.27131 0.4308 0.0
H1530 H 0.75081 0.23152 0.43285 0.0
S1531 S 0.75128 0.25065 0.3202 0.0
N1532 N 0.76266 0.27217 0.339 0.0
N1533 N 0.74298 0.22944 0.34125 0.0
C1534 C 0.74925 0.23936 0.36518 0.0
C1535 C 0.76024 0.26261 0.36395 0.0
C1536 C 0.13816 0.52913 0.63163 0.0
C1537 C 0.15729 0.54235 0.64733 0.0
C1538 C 0.1324 0.50564 0.638 0.0
C1539 C 0.14539 0.49438 0.66041 0.0
H1540 H 0.12734 0.537 0.61441 0.0
H1541 H 0.11798 0.49617 0.62499 0.0
S1542 S 0.19695 0.52115 0.7083 0.0
N1543 N 0.19022 0.54168 0.68571 0.0
N1544 N 0.17707 0.49901 0.69921 0.0
C1545 C 0.16407 0.50762 0.67654 0.0
C1546 C 0.17063 0.53112 0.6696 0.0
C1547 C 0.49327 0.65149 0.17373 0.0
C1548 C 0.47345 0.63825 0.15895 0.0
C1549 C 0.51967 0.64253 0.18166 0.0
C1550 C 0.52757 0.62001 0.17498 0.0
H1551 H 0.48857 0.66919 0.1789 0.0
H1552 H 0.5342 0.65351 0.19275 0.0
S1553 S 0.48408 0.57799 0.13672 0.0
N1554 N 0.46367 0.60117 0.1382 0.0
N1555 N 0.51404 0.58451 0.15278 0.0
C1556 C 0.50829 0.60647 0.1602 0.0
C1557 C 0.48109 0.61557 0.15217 0.0
C1558 C 0.33467 1.00667 0.68511 0.0
C1559 C 0.34858 0.99389 0.66544 0.0
C1560 C 0.3412 0.02991 0.69004 0.0
C1561 C 0.36098 0.04249 0.67465 0.0
H1562 H 0.31819 0.99886 0.69705 0.0
H1563 H 0.33041 0.0379 0.70641 0.0
S1564 S 0.40337 0.01785 0.61983 0.0
N1565 N 0.38453 0.99575 0.63102 0.0
N1566 N 0.39397 0.04016 0.63782 0.0
C1567 C 0.37478 0.03019 0.6544 0.0
C1568 C 0.3691 1.00595 0.65023 0.0
C1569 C 0.99435 0.86298 0.14084 0.0
C1570 C 0.99802 0.83908 0.14591 0.0
C1571 C 0.96998 0.87454 0.14909 0.0
C1572 C 0.94848 0.86259 0.16264 0.0
H1573 H 0.01095 0.87302 0.1314 0.0
H1574 H 0.9682 0.89302 0.14543 0.0
S1575 S 0.94617 0.79987 0.17871 0.0
N1576 N 0.97686 0.80369 0.16375 0.0
N1577 N 0.93116 0.82566 0.17936 0.0
C1578 C 0.95121 0.83868 0.16694 0.0
C1579 C 0.97599 0.82685 0.15859 0.0
C1580 C 0.14713 1.00678 0.88189 0.0
C1581 C 0.16984 0.99485 0.87029 0.0
C1582 C 0.14006 0.02979 0.87403 0.0
C1583 C 0.15503 0.04187 0.85386 0.0
H1584 H 0.13437 0.99819 0.8969 0.0
H1585 H 0.12283 0.0382 0.88405 0.0
S1586 S 0.2164 0.01854 0.81693 0.0
N1587 N 0.20867 0.99801 0.83892 0.0
N1588 N 0.19269 0.03898 0.82128 0.0
C1589 C 0.17741 0.02984 0.84177 0.0
C1590 C 0.1855 1.00706 0.85073 0.0
C1591 C 0.9568 0.68423 0.35815 0.0
C1592 C 0.95647 0.6599 0.36 0.0
C1593 C 0.98101 0.6969 0.3656 0.0
C1594 C 0.00564 0.68569 0.37544 0.0
H1595 H 0.93854 0.69355 0.35009 0.0
H1596 H 0.98073 0.71555 0.36297 0.0
S1597 S 0.01503 0.62232 0.38524 0.0
N1598 N 0.98219 0.62512 0.37331 0.0
N1599 N 0.02793 0.64886 0.3874 0.0
C1600 C 0.00515 0.66141 0.37845 0.0
C1601 C 0.98049 0.64852 0.3707 0.0
C1602 C 0.37383 0.53511 0.86649 0.0
C1603 C 0.35509 0.54887 0.85053 0.0
C1604 C 0.37836 0.5115 0.86112 0.0
C1605 C 0.36467 0.5005 0.8393 0.0
H1606 H 0.38528 0.54262 0.88329 0.0
H1607 H 0.39245 0.50174 0.87449 0.0
S1608 S 0.3138 0.52862 0.79079 0.0
N1609 N 0.32166 0.54896 0.8125 0.0
N1610 N 0.33283 0.50599 0.80057 0.0
C1611 C 0.34643 0.51423 0.82279 0.0
C1612 C 0.341 0.53795 0.82883 0.0
C1613 C 0.47942 0.83856 0.33156 0.0
C1614 C 0.46637 0.85125 0.35168 0.0
C1615 C 0.50652 0.84454 0.32252 0.0
C1616 C 0.52147 0.86335 0.33345 0.0
H1617 H 0.4692 0.82317 0.32378 0.0
H1618 H 0.5164 0.83379 0.30779 0.0
S1619 S 0.49634 0.90251 0.38591 0.0
N1620 N 0.4702 0.88367 0.38192 0.0
N1621 N 0.52083 0.89535 0.36432 0.0
C1622 C 0.50813 0.87683 0.35266 0.0
C1623 C 0.48064 0.87064 0.36199 0.0
C1624 C 0.64743 0.17599 0.49203 0.0
C1625 C 0.63215 0.16384 0.51175 0.0
C1626 C 0.65423 0.16556 0.46796 0.0
C1627 C 0.64586 0.14275 0.46286 0.0
H1628 H 0.65533 0.19329 0.49573 0.0
H1629 H 0.6672 0.17498 0.45374 0.0
S1630 S 0.60326 0.10431 0.50642 0.0
N1631 N 0.60693 0.12841 0.52354 0.0
N1632 N 0.62015 0.10874 0.47807 0.0
C1633 C 0.62948 0.13076 0.48165 0.0
C1634 C 0.62255 0.14133 0.50623 0.0
C1635 C 0.82305 0.14015 0.99319 0.0
C1636 C 0.83843 0.13637 0.01721 0.0
C1637 C 0.83487 0.15296 0.97219 0.0
C1638 C 0.86219 0.16274 0.97487 0.0
H1639 H 0.80108 0.13466 0.99142 0.0
H1640 H 0.8218 0.15667 0.95448 0.0
S1641 S 0.91186 0.15558 0.03303 0.0
N1642 N 0.88307 0.14118 0.04177 0.0
N1643 N 0.90521 0.16586 1.00241 0.0
C1644 C 0.87863 0.15738 0.99794 0.0
C1645 C 0.86668 0.14406 0.01919 0.0
C1646 C 0.89963 0.3286 0.4797 0.0
C1647 C 0.8794 0.31638 0.495 0.0
C1648 C 0.89158 0.34218 0.45724 0.0
C1649 C 0.86331 0.34272 0.44777 0.0
H1650 H 0.92184 0.32869 0.48564 0.0
H1651 H 0.90744 0.35324 0.4483 0.0
S1652 S 0.80182 0.31291 0.47802 0.0
N1653 N 0.82894 0.30635 0.49817 0.0
N1654 N 0.8153 0.32881 0.45367 0.0
C1655 C 0.84319 0.32932 0.46136 0.0
C1656 C 0.85084 0.31674 0.4853 0.0
C1657 C 0.65709 0.38343 0.02003 0.0
C1658 C 0.66638 0.36424 1.00568 0.0
C1659 C 0.665 0.38604 0.04713 0.0
C1660 C 0.68261 0.36965 0.0603 0.0
H1661 H 0.64255 0.3958 0.01066 0.0
H1662 H 0.65637 0.4003 0.05815 0.0
S1663 S 0.71452 0.31764 0.03075 0.0
N1664 N 0.69579 0.32971 1.00589 0.0
N1665 N 0.71024 0.33442 0.05682 0.0
C1666 C 0.6931 0.35107 0.04575 0.0
C1667 C 0.6851 0.34843 0.01837 0.0
C1668 C 0.85545 0.5226 0.36696 0.0
C1669 C 0.85636 0.53176 0.34052 0.0
C1670 C 0.84943 0.49896 0.37229 0.0
C1671 C 0.84369 0.48323 0.35146 0.0
H1672 H 0.85959 0.53379 0.38381 0.0
H1673 H 0.84872 0.49307 0.393 0.0
S1674 S 0.84351 0.49802 0.27854 0.0
N1675 N 0.85057 0.52282 0.29322 0.0
N1676 N 0.84032 0.47872 0.30309 0.0
C1677 C 0.8448 0.49212 0.32492 0.0
C1678 C 0.85087 0.51616 0.31951 0.0
C1679 C 0.49494 0.3878 0.86635 0.0
C1680 C 0.48025 0.37601 0.84565 0.0
C1681 C 0.52269 0.38122 0.8752 0.0
C1682 C 0.53724 0.36261 0.8637 0.0
H1683 H 0.48491 0.40232 0.87577 0.0
H1684 H 0.53282 0.39076 0.89129 0.0
S1685 S 0.50874 0.32632 0.80856 0.0
N1686 N 0.48292 0.34494 0.81373 0.0
N1687 N 0.53456 0.3327 0.83018 0.0
C1688 C 0.52284 0.35081 0.84292 0.0
C1689 C 0.49466 0.35752 0.8339 0.0
C1690 C 0.68357 1.00174 0.35799 0.0
C1691 C 0.66293 0.01939 0.35951 0.0
C1692 C 0.67624 0.9788 0.35107 0.0
C1693 C 0.64793 0.97234 0.34505 0.0
H1694 H 0.70577 1.00575 0.36164 0.0
H1695 H 0.69303 0.9661 0.34986 0.0
S1696 S 0.58517 1.01077 0.34896 0.0
N1697 N 0.61229 0.02773 0.35665 0.0
N1698 N 0.59892 0.98516 0.34295 0.0
C1699 C 0.62701 0.98957 0.34704 0.0
C1700 C 0.63438 0.01285 0.3544 0.0
C1701 C 0.00892 0.17118 0.82918 0.0
C1702 C 0.03583 0.17524 0.84152 0.0
C1703 C 0.98432 0.18417 0.83493 0.0
C1704 C 0.98256 0.19855 0.85755 0.0
H1705 H 0.00552 0.15702 0.81593 0.0
H1706 H 0.96585 0.18167 0.82204 0.0
S1707 S 0.04534 0.21251 0.90135 0.0
N1708 N 0.05893 0.19797 0.87655 0.0
N1709 N 0.01072 0.21234 0.89576 0.0
C1710 C 0.00865 0.20094 0.87222 0.0
C1711 C 0.03516 0.19152 0.86266 0.0
C1712 C 0.83022 0.03671 0.18266 0.0
C1713 C 0.8329 0.04522 0.15625 0.0
C1714 C 0.83663 0.01347 0.18952 0.0
C1715 C 0.84589 0.99764 0.17024 0.0
H1716 H 0.82269 0.04804 0.19805 0.0
H1717 H 0.83412 1.00783 0.21016 0.0
S1718 S 0.85548 1.01149 0.09791 0.0
N1719 N 0.84515 0.03621 0.11065 0.0
N1720 N 0.8568 0.99263 0.1232 0.0
C1721 C 0.84886 1.00617 0.14373 0.0
C1722 C 0.8424 0.02985 0.13683 0.0
C1723 C 0.02976 0.34319 0.65122 0.0
C1724 C 0.03044 0.36449 0.66481 0.0
C1725 C 0.0042 0.33321 0.64115 0.0
C1726 C 0.97705 0.34242 0.64642 0.0
H1727 H 0.04948 0.33428 0.64755 0.0
H1728 H 0.00606 0.31817 0.62873 0.0
S1729 S 0.96595 0.39949 0.67791 0.0
N1730 N 1.00083 0.39691 0.67741 0.0
N1731 N 0.95303 0.37516 0.66573 0.0
C1732 C 0.9773 0.3637 0.66016 0.0
C1733 C 1.00362 0.37523 0.66773 0.0
C1734 C 0.67425 0.47462 0.19297 0.0
C1735 C 0.66171 0.46195 0.17185 0.0
C1736 C 0.66682 0.49789 0.19751 0.0
C1737 C 0.64699 0.50979 0.18076 0.0
H1738 H 0.68979 0.4664 0.20631 0.0
H1739 H 0.67707 0.50677 0.21406 0.0
S1740 S 0.60818 0.48474 0.12248 0.0
N1741 N 0.6283 0.46324 0.13407 0.0
N1742 N 0.61488 0.50689 0.14219 0.0
C1743 C 0.63443 0.49737 0.15948 0.0
C1744 C 0.64159 0.47354 0.15517 0.0
C1745 C 0.48935 0.18908 0.67941 0.0
C1746 C 0.47614 0.16889 0.66952 0.0
C1747 C 0.51606 0.19681 0.67003 0.0
C1748 C 0.53097 0.18461 0.65047 0.0
H1749 H 0.4789 0.19901 0.69454 0.0
H1750 H 0.52527 0.21238 0.67834 0.0
S1751 S 0.50598 0.13061 0.61823 0.0
N1752 N 0.48046 0.13679 0.63917 0.0
N1753 N 0.53006 0.15127 0.62154 0.0
C1754 C 0.51794 0.16443 0.64046 0.0
C1755 C 0.49082 0.15658 0.64999 0.0
C1756 C 0.37417 0.86232 0.52047 0.0
C1757 C 0.35568 0.84771 0.50542 0.0
C1758 C 0.36709 0.87124 0.54601 0.0
C1759 C 0.34138 0.86567 0.55893 0.0
H1760 H 0.39468 0.86697 0.51263 0.0
H1761 H 0.382 0.88292 0.55557 0.0
S1762 S 0.28354 0.8303 0.52851 0.0
N1763 N 0.30828 0.83049 0.50556 0.0
N1764 N 0.29666 0.84538 0.55371 0.0
C1765 C 0.32247 0.85149 0.54416 0.0
C1766 C 0.32919 0.84295 0.51775 0.0
C1767 C 0.13563 0.84037 0.01521 0.0
C1768 C 0.14686 0.84813 0.04021 0.0
C1769 C 0.14511 0.84896 0.98989 0.0
C1770 C 0.16436 0.86774 0.98732 0.0
H1771 H 0.11882 0.82764 0.01484 0.0
H1772 H 0.13669 0.8409 0.97196 0.0
S1773 S 0.1942 0.89958 0.04607 0.0
N1774 N 0.17773 0.87731 0.05991 0.0
N1775 N 0.18844 0.89748 0.01343 0.0
C1776 C 0.17308 0.8776 0.01216 0.0
C1777 C 0.16597 0.8671 0.03798 0.0
C1778 C 0.15416 0.68692 0.52345 0.0
C1779 C 0.17067 0.66663 0.52783 0.0
C1780 C 0.14566 0.69524 0.49739 0.0
C1781 C 0.15587 0.68583 0.47328 0.0
H1782 H 0.14691 0.69641 0.54052 0.0
H1783 H 0.1304 0.70917 0.49651 0.0
S1784 S 0.1976 0.63119 0.47191 0.0
N1785 N 0.19143 0.63449 0.50407 0.0
N1786 N 0.18407 0.65424 0.45643 0.0
C1787 C 0.17301 0.66577 0.47728 0.0
C1788 C 0.1785 0.65547 0.50384 0.0
C1789 C 0.37211 0.66683 0.01075 0.0
C1790 C 0.35442 0.68109 0.02608 0.0
C1791 C 0.36464 0.66005 0.98409 0.0
C1792 C 0.33897 0.66708 0.97096 0.0
H1793 H 0.39192 0.66057 0.01957 0.0
H1794 H 0.37916 0.64905 0.97364 0.0
S1795 S 0.28444 0.70385 1.00197 0.0
N1796 N 0.3094 0.70141 0.02568 0.0
N1797 N 0.29562 0.68891 0.97628 0.0
C1798 C 0.32092 0.68099 0.98622 0.0
C1799 C 0.32852 0.68788 0.01335 0.0
loop_
_geom_bond_atom_site_label_1
_geom_bond_atom_site_label_2
_geom_bond_distance
_geom_bond_site_symmetry_2
_ccdc_geom_bond_type
C0 C1 1.443 . S
C0 N4 1.376 . S
C0 C38 1.389 . S
C1 C0 1.443 . S
C1 C2 1.340 . S
C1 H41 0.951 . S
C2 C1 1.340 . S
C2 C3 1.439 . S
C2 H42 0.950 . S
C3 C2 1.439 . S
C3 N4 1.374 . S
C3 C37 1.395 . S
N4 C0 1.376 . S
N4 C3 1.374 . S
N4 Co5 2.008 . S
Co5 N4 2.008 . S
Co5 N6 1.995 . S
Co5 N11 2.008 . S
Co5 N16 1.995 . S
Co5 N21 2.282 . S
Co5 N27 2.282 . S
N6 Co5 1.995 . S
N6 C7 1.376 . S
N6 C10 1.383 . S
C7 N6 1.376 . S
C7 C8 1.446 . S
C7 C37 1.391 . S
C8 C7 1.446 . S
C8 C9 1.339 . S
C8 H43 0.949 . S
C9 C8 1.339 . S
C9 C10 1.439 . S
C9 H44 0.950 . S
C10 N6 1.383 . S
C10 C9 1.439 . S
C10 C39 1.392 . S
N11 Co5 2.008 . S
N11 C12 1.376 . S
N11 C15 1.374 . S
C12 N11 1.376 . S
C12 C13 1.443 . S
C12 C39 1.389 . S
C13 C12 1.443 . S
C13 C14 1.340 . S
C13 H45 0.951 . S
C14 C13 1.340 . S
C14 C15 1.439 . S
C14 H46 0.950 . S
C15 N11 1.374 . S
C15 C14 1.439 . S
C15 C40 1.395 . S
N16 Co5 1.995 . S
N16 C17 1.376 . S
N16 C20 1.383 . S
C17 N16 1.376 . S
C17 C18 1.446 . S
C17 C40 1.391 . S
C18 C17 1.446 . S
C18 C19 1.339 . S
C18 H47 0.949 . S
C19 C18 1.339 . S
C19 C20 1.439 . S
C19 H48 0.950 . S
C20 N16 1.383 . S
C20 C19 1.439 . S
C20 C38 1.392 . S
N21 Co5 2.282 . S
N21 C24 1.332 . S
N21 C26 1.332 . S
C22 C23 1.386 . S
C22 C25 1.388 . S
C23 C22 1.386 . S
C23 C24 1.382 . S
C23 H49 0.950 . S
C24 N21 1.332 . S
C24 C23 1.382 . S
C24 H35 0.952 . S
C25 C22 1.388 . S
C25 C26 1.382 . S
C25 H50 0.950 . S
C26 N21 1.332 . S
C26 C25 1.382 . S
C26 H36 0.948 . S
N27 Co5 2.282 . S
N27 C31 1.332 . S
N27 C32 1.332 . S
C28 C29 1.388 . S
C28 C32 1.382 . S
C28 H51 0.950 . S
C29 C28 1.388 . S
C29 C30 1.386 . S
C30 C29 1.386 . S
C30 C31 1.382 . S
C30 H52 0.950 . S
C31 N27 1.332 . S
C31 C30 1.382 . S
C31 H33 0.952 . S
C32 N27 1.332 . S
C32 C28 1.382 . S
C32 H34 0.948 . S
H33 C31 0.952 . S
H34 C32 0.948 . S
H35 C24 0.952 . S
H36 C26 0.948 . S
C37 C3 1.395 . S
C37 C7 1.391 . S
C38 C0 1.389 . S
C38 C20 1.392 . S
C39 C10 1.392 . S
C39 C12 1.389 . S
C40 C15 1.395 . S
C40 C17 1.391 . S
H41 C1 0.951 . S
H42 C2 0.950 . S
H43 C8 0.949 . S
H44 C9 0.950 . S
H45 C13 0.951 . S
H46 C14 0.950 . S
H47 C18 0.949 . S
H48 C19 0.950 . S
H49 C23 0.950 . S
H50 C25 0.950 . S
H51 C28 0.950 . S
H52 C30 0.950 . S
C53 C54 1.443 . S
C53 N57 1.376 . S
C53 C91 1.389 . S
C54 C53 1.443 . S
C54 C55 1.340 . S
C54 H94 0.951 . S
C55 C54 1.340 . S
C55 C56 1.439 . S
C55 H95 0.950 . S
C56 C55 1.439 . S
C56 N57 1.374 . S
C56 C90 1.395 . S
N57 C53 1.376 . S
N57 C56 1.374 . S
N57 Co58 2.008 . S
Co58 N57 2.008 . S
Co58 N59 1.995 . S
Co58 N64 2.008 . S
Co58 N69 1.995 . S
Co58 N74 2.282 . S
Co58 N80 2.282 . S
N59 Co58 1.995 . S
N59 C60 1.376 . S
N59 C63 1.383 . S
C60 N59 1.376 . S
C60 C61 1.446 . S
C60 C90 1.391 . S
C61 C60 1.446 . S
C61 C62 1.339 . S
C61 H96 0.949 . S
C62 C61 1.339 . S
C62 C63 1.439 . S
C62 H97 0.950 . S
C63 N59 1.383 . S
C63 C62 1.439 . S
C63 C92 1.392 . S
N64 Co58 2.008 . S
N64 C65 1.376 . S
N64 C68 1.374 . S
C65 N64 1.376 . S
C65 C66 1.443 . S
C65 C92 1.389 . S
C66 C65 1.443 . S
C66 C67 1.340 . S
C66 H98 0.951 . S
C67 C66 1.340 . S
C67 C68 1.439 . S
C67 H99 0.950 . S
C68 N64 1.374 . S
C68 C67 1.439 . S
C68 C93 1.395 . S
N69 Co58 1.995 . S
N69 C70 1.376 . S
N69 C73 1.383 . S
C70 N69 1.376 . S
C70 C71 1.446 . S
C70 C93 1.391 . S
C71 C70 1.446 . S
C71 C72 1.339 . S
C71 H100 0.949 . S
C72 C71 1.339 . S
C72 C73 1.439 . S
C72 H101 0.950 . S
C73 N69 1.383 . S
C73 C72 1.439 . S
C73 C91 1.392 . S
N74 Co58 2.282 . S
N74 C77 1.332 . S
N74 C79 1.332 . S
C75 C76 1.386 . S
C75 C78 1.388 . S
C76 C75 1.386 . S
C76 C77 1.382 . S
C76 H102 0.950 . S
C77 N74 1.332 . S
C77 C76 1.382 . S
C77 H88 0.952 . S
C78 C75 1.388 . S
C78 C79 1.382 . S
C78 H103 0.950 . S
C79 N74 1.332 . S
C79 C78 1.382 . S
C79 H89 0.948 . S
N80 Co58 2.282 . S
N80 C84 1.332 . S
N80 C85 1.332 . S
C81 C82 1.388 . S
C81 C85 1.382 . S
C81 H104 0.950 . S
C82 C81 1.388 . S
C82 C83 1.386 . S
C83 C82 1.386 . S
C83 C84 1.382 . S
C83 H105 0.950 . S
C84 N80 1.332 . S
C84 C83 1.382 . S
C84 H86 0.952 . S
C85 N80 1.332 . S
C85 C81 1.382 . S
C85 H87 0.948 . S
H86 C84 0.952 . S
H87 C85 0.948 . S
H88 C77 0.952 . S
H89 C79 0.948 . S
C90 C56 1.395 . S
C90 C60 1.391 . S
C91 C53 1.389 . S
C91 C73 1.392 . S
C92 C63 1.392 . S
C92 C65 1.389 . S
C93 C68 1.395 . S
C93 C70 1.391 . S
H94 C54 0.951 . S
H95 C55 0.950 . S
H96 C61 0.949 . S
H97 C62 0.950 . S
H98 C66 0.951 . S
H99 C67 0.950 . S
H100 C71 0.949 . S
H101 C72 0.950 . S
H102 C76 0.950 . S
H103 C78 0.950 . S
H104 C81 0.950 . S
H105 C83 0.950 . S
C106 C107 1.443 . S
C106 N110 1.376 . S
C106 C144 1.389 . S
C107 C106 1.443 . S
C107 C108 1.340 . S
C107 H147 0.951 . S
C108 C107 1.340 . S
C108 C109 1.439 . S
C108 H148 0.950 . S
C109 C108 1.439 . S
C109 N110 1.374 . S
C109 C143 1.395 . S
N110 C106 1.376 . S
N110 C109 1.374 . S
N110 Co111 2.008 . S
Co111 N110 2.008 . S
Co111 N112 1.995 . S
Co111 N117 2.008 . S
Co111 N122 1.995 . S
Co111 N127 2.282 . S
Co111 N133 2.282 . S
N112 Co111 1.995 . S
N112 C113 1.376 . S
N112 C116 1.383 . S
C113 N112 1.376 . S
C113 C114 1.446 . S
C113 C143 1.391 . S
C114 C113 1.446 . S
C114 C115 1.339 . S
C114 H149 0.949 . S
C115 C114 1.339 . S
C115 C116 1.439 . S
C115 H150 0.950 . S
C116 N112 1.383 . S
C116 C115 1.439 . S
C116 C145 1.392 . S
N117 Co111 2.008 . S
N117 C118 1.376 . S
N117 C121 1.374 . S
C118 N117 1.376 . S
C118 C119 1.443 . S
C118 C145 1.389 . S
C119 C118 1.443 . S
C119 C120 1.340 . S
C119 H151 0.951 . S
C120 C119 1.340 . S
C120 C121 1.439 . S
C120 H152 0.950 . S
C121 N117 1.374 . S
C121 C120 1.439 . S
C121 C146 1.395 . S
N122 Co111 1.995 . S
N122 C123 1.376 . S
N122 C126 1.383 . S
C123 N122 1.376 . S
C123 C124 1.446 . S
C123 C146 1.391 . S
C124 C123 1.446 . S
C124 C125 1.339 . S
C124 H153 0.949 . S
C125 C124 1.339 . S
C125 C126 1.439 . S
C125 H154 0.950 . S
C126 N122 1.383 . S
C126 C125 1.439 . S
C126 C144 1.392 . S
N127 Co111 2.282 . S
N127 C130 1.332 . S
N127 C132 1.332 . S
C128 C129 1.386 . S
C128 C131 1.388 . S
C129 C128 1.386 . S
C129 C130 1.382 . S
C129 H155 0.950 . S
C130 N127 1.332 . S
C130 C129 1.382 . S
C130 H141 0.952 . S
C131 C128 1.388 . S
C131 C132 1.382 . S
C131 H156 0.950 . S
C132 N127 1.332 . S
C132 C131 1.382 . S
C132 H142 0.948 . S
N133 Co111 2.282 . S
N133 C137 1.332 . S
N133 C138 1.332 . S
C134 C135 1.388 . S
C134 C138 1.382 . S
C134 H157 0.950 . S
C135 C134 1.388 . S
C135 C136 1.386 . S
C136 C135 1.386 . S
C136 C137 1.382 . S
C136 H158 0.950 . S
C137 N133 1.332 . S
C137 C136 1.382 . S
C137 H139 0.952 . S
C138 N133 1.332 . S
C138 C134 1.382 . S
C138 H140 0.948 . S
H139 C137 0.952 . S
H140 C138 0.948 . S
H141 C130 0.952 . S
H142 C132 0.948 . S
C143 C109 1.395 . S
C143 C113 1.391 . S
C144 C106 1.389 . S
C144 C126 1.392 . S
C145 C116 1.392 . S
C145 C118 1.389 . S
C146 C121 1.395 . S
C146 C123 1.391 . S
H147 C107 0.951 . S
H148 C108 0.950 . S
H149 C114 0.949 . S
H150 C115 0.950 . S
H151 C119 0.951 . S
H152 C120 0.950 . S
H153 C124 0.949 . S
H154 C125 0.950 . S
H155 C129 0.950 . S
H156 C131 0.950 . S
H157 C134 0.950 . S
H158 C136 0.950 . S
C159 C160 1.443 . S
C159 N163 1.376 . S
C159 C197 1.389 . S
C160 C159 1.443 . S
C160 C161 1.340 . S
C160 H200 0.951 . S
C161 C160 1.340 . S
C161 C162 1.439 . S
C161 H201 0.950 . S
C162 C161 1.439 . S
C162 N163 1.374 . S
C162 C196 1.395 . S
N163 C159 1.376 . S
N163 C162 1.374 . S
N163 Co164 2.008 . S
Co164 N163 2.008 . S
Co164 N165 1.995 . S
Co164 N170 2.008 . S
Co164 N175 1.995 . S
Co164 N180 2.282 . S
Co164 N186 2.282 . S
N165 Co164 1.995 . S
N165 C166 1.376 . S
N165 C169 1.383 . S
C166 N165 1.376 . S
C166 C167 1.446 . S
C166 C196 1.391 . S
C167 C166 1.446 . S
C167 C168 1.339 . S
C167 H202 0.949 . S
C168 C167 1.339 . S
C168 C169 1.439 . S
C168 H203 0.950 . S
C169 N165 1.383 . S
C169 C168 1.439 . S
C169 C198 1.392 . S
N170 Co164 2.008 . S
N170 C171 1.376 . S
N170 C174 1.374 . S
C171 N170 1.376 . S
C171 C172 1.443 . S
C171 C198 1.389 . S
C172 C171 1.443 . S
C172 C173 1.340 . S
C172 H204 0.951 . S
C173 C172 1.340 . S
C173 C174 1.439 . S
C173 H205 0.950 . S
C174 N170 1.374 . S
C174 C173 1.439 . S
C174 C199 1.395 . S
N175 Co164 1.995 . S
N175 C176 1.376 . S
N175 C179 1.383 . S
C176 N175 1.376 . S
C176 C177 1.446 . S
C176 C199 1.391 . S
C177 C176 1.446 . S
C177 C178 1.339 . S
C177 H206 0.949 . S
C178 C177 1.339 . S
C178 C179 1.439 . S
C178 H207 0.950 . S
C179 N175 1.383 . S
C179 C178 1.439 . S
C179 C197 1.392 . S
N180 Co164 2.282 . S
N180 C183 1.332 . S
N180 C185 1.332 . S
C181 C182 1.386 . S
C181 C184 1.388 . S
C182 C181 1.386 . S
C182 C183 1.382 . S
C182 H208 0.950 . S
C183 N180 1.332 . S
C183 C182 1.382 . S
C183 H194 0.952 . S
C184 C181 1.388 . S
C184 C185 1.382 . S
C184 H209 0.950 . S
C185 N180 1.332 . S
C185 C184 1.382 . S
C185 H195 0.948 . S
N186 Co164 2.282 . S
N186 C190 1.332 . S
N186 C191 1.332 . S
C187 C188 1.388 . S
C187 C191 1.382 . S
C187 H210 0.950 . S
C188 C187 1.388 . S
C188 C189 1.386 . S
C189 C188 1.386 . S
C189 C190 1.382 . S
C189 H211 0.950 . S
C190 N186 1.332 . S
C190 C189 1.382 . S
C190 H192 0.952 . S
C191 N186 1.332 . S
C191 C187 1.382 . S
C191 H193 0.948 . S
H192 C190 0.952 . S
H193 C191 0.948 . S
H194 C183 0.952 . S
H195 C185 0.948 . S
C196 C162 1.395 . S
C196 C166 1.391 . S
C197 C159 1.389 . S
C197 C179 1.392 . S
C198 C169 1.392 . S
C198 C171 1.389 . S
C199 C174 1.395 . S
C199 C176 1.391 . S
H200 C160 0.951 . S
H201 C161 0.950 . S
H202 C167 0.949 . S
H203 C168 0.950 . S
H204 C172 0.951 . S
H205 C173 0.950 . S
H206 C177 0.949 . S
H207 C178 0.950 . S
H208 C182 0.950 . S
H209 C184 0.950 . S
H210 C187 0.950 . S
H211 C189 0.950 . S
C212 C213 1.443 . S
C212 N216 1.376 . S
C212 C250 1.389 . S
C213 C212 1.443 . S
C213 C214 1.340 . S
C213 H253 0.951 . S
C214 C213 1.340 . S
C214 C215 1.439 . S
C214 H254 0.950 . S
C215 C214 1.439 . S
C215 N216 1.374 . S
C215 C249 1.395 . S
N216 C212 1.376 . S
N216 C215 1.374 . S
N216 Co217 2.008 . S
Co217 N216 2.008 . S
Co217 N218 1.995 . S
Co217 N223 2.008 . S
Co217 N228 1.995 . S
Co217 N233 2.282 . S
Co217 N239 2.282 . S
N218 Co217 1.995 . S
N218 C219 1.376 . S
N218 C222 1.383 . S
C219 N218 1.376 . S
C219 C220 1.446 . S
C219 C249 1.391 . S
C220 C219 1.446 . S
C220 C221 1.339 . S
C220 H255 0.949 . S
C221 C220 1.339 . S
C221 C222 1.439 . S
C221 H256 0.950 . S
C222 N218 1.383 . S
C222 C221 1.439 . S
C222 C251 1.392 . S
N223 Co217 2.008 . S
N223 C224 1.376 . S
N223 C227 1.374 . S
C224 N223 1.376 . S
C224 C225 1.443 . S
C224 C251 1.389 . S
C225 C224 1.443 . S
C225 C226 1.340 . S
C225 H257 0.951 . S
C226 C225 1.340 . S
C226 C227 1.439 . S
C226 H258 0.950 . S
C227 N223 1.374 . S
C227 C226 1.439 . S
C227 C252 1.395 . S
N228 Co217 1.995 . S
N228 C229 1.376 . S
N228 C232 1.383 . S
C229 N228 1.376 . S
C229 C230 1.446 . S
C229 C252 1.391 . S
C230 C229 1.446 . S
C230 C231 1.339 . S
C230 H259 0.949 . S
C231 C230 1.339 . S
C231 C232 1.439 . S
C231 H260 0.950 . S
C232 N228 1.383 . S
C232 C231 1.439 . S
C232 C250 1.392 . S
N233 Co217 2.282 . S
N233 C236 1.332 . S
N233 C238 1.332 . S
C234 C235 1.386 . S
C234 C237 1.388 . S
C235 C234 1.386 . S
C235 C236 1.382 . S
C235 H261 0.950 . S
C236 N233 1.332 . S
C236 C235 1.382 . S
C236 H247 0.952 . S
C237 C234 1.388 . S
C237 C238 1.382 . S
C237 H262 0.950 . S
C238 N233 1.332 . S
C238 C237 1.382 . S
C238 H248 0.948 . S
N239 Co217 2.282 . S
N239 C243 1.332 . S
N239 C244 1.332 . S
C240 C241 1.388 . S
C240 C244 1.382 . S
C240 H263 0.950 . S
C241 C240 1.388 . S
C241 C242 1.386 . S
C242 C241 1.386 . S
C242 C243 1.382 . S
C242 H264 0.950 . S
C243 N239 1.332 . S
C243 C242 1.382 . S
C243 H245 0.952 . S
C244 N239 1.332 . S
C244 C240 1.382 . S
C244 H246 0.948 . S
H245 C243 0.952 . S
H246 C244 0.948 . S
H247 C236 0.952 . S
H248 C238 0.948 . S
C249 C215 1.395 . S
C249 C219 1.391 . S
C250 C212 1.389 . S
C250 C232 1.392 . S
C251 C222 1.392 . S
C251 C224 1.389 . S
C252 C227 1.395 . S
C252 C229 1.391 . S
H253 C213 0.951 . S
H254 C214 0.950 . S
H255 C220 0.949 . S
H256 C221 0.950 . S
H257 C225 0.951 . S
H258 C226 0.950 . S
H259 C230 0.949 . S
H260 C231 0.950 . S
H261 C235 0.950 . S
H262 C237 0.950 . S
H263 C240 0.950 . S
H264 C242 0.950 . S
C265 C266 1.443 . S
C265 N269 1.376 . S
C265 C303 1.389 . S
C266 C265 1.443 . S
C266 C267 1.340 . S
C266 H306 0.951 . S
C267 C266 1.340 . S
C267 C268 1.439 . S
C267 H307 0.950 . S
C268 C267 1.439 . S
C268 N269 1.374 . S
C268 C302 1.395 . S
N269 C265 1.376 . S
N269 C268 1.374 . S
N269 Co270 2.008 . S
Co270 N269 2.008 . S
Co270 N271 1.995 . S
Co270 N276 2.008 . S
Co270 N281 1.995 . S
Co270 N286 2.282 . S
Co270 N292 2.282 . S
N271 Co270 1.995 . S
N271 C272 1.376 . S
N271 C275 1.383 . S
C272 N271 1.376 . S
C272 C273 1.446 . S
C272 C302 1.391 . S
C273 C272 1.446 . S
C273 C274 1.339 . S
C273 H308 0.949 . S
C274 C273 1.339 . S
C274 C275 1.439 . S
C274 H309 0.950 . S
C275 N271 1.383 . S
C275 C274 1.439 . S
C275 C304 1.392 . S
N276 Co270 2.008 . S
N276 C277 1.376 . S
N276 C280 1.374 . S
C277 N276 1.376 . S
C277 C278 1.443 . S
C277 C304 1.389 . S
C278 C277 1.443 . S
C278 C279 1.340 . S
C278 H310 0.951 . S
C279 C278 1.340 . S
C279 C280 1.439 . S
C279 H311 0.950 . S
C280 N276 1.374 . S
C280 C279 1.439 . S
C280 C305 1.395 . S
N281 Co270 1.995 . S
N281 C282 1.376 . S
N281 C285 1.383 . S
C282 N281 1.376 . S
C282 C283 1.446 . S
C282 C305 1.391 . S
C283 C282 1.446 . S
C283 C284 1.339 . S
C283 H312 0.949 . S
C284 C283 1.339 . S
C284 C285 1.439 . S
C284 H313 0.950 . S
C285 N281 1.383 . S
C285 C284 1.439 . S
C285 C303 1.392 . S
N286 Co270 2.282 . S
N286 C289 1.332 . S
N286 C291 1.332 . S
C287 C288 1.386 . S
C287 C290 1.388 . S
C288 C287 1.386 . S
C288 C289 1.382 . S
C288 H314 0.950 . S
C289 N286 1.332 . S
C289 C288 1.382 . S
C289 H300 0.952 . S
C290 C287 1.388 . S
C290 C291 1.382 . S
C290 H315 0.950 . S
C291 N286 1.332 . S
C291 C290 1.382 . S
C291 H301 0.948 . S
N292 Co270 2.282 . S
N292 C296 1.332 . S
N292 C297 1.332 . S
C293 C294 1.388 . S
C293 C297 1.382 . S
C293 H316 0.950 . S
C294 C293 1.388 . S
C294 C295 1.386 . S
C295 C294 1.386 . S
C295 C296 1.382 . S
C295 H317 0.950 . S
C296 N292 1.332 . S
C296 C295 1.382 . S
C296 H298 0.952 . S
C297 N292 1.332 . S
C297 C293 1.382 . S
C297 H299 0.948 . S
H298 C296 0.952 . S
H299 C297 0.948 . S
H300 C289 0.952 . S
H301 C291 0.948 . S
C302 C268 1.395 . S
C302 C272 1.391 . S
C303 C265 1.389 . S
C303 C285 1.392 . S
C304 C275 1.392 . S
C304 C277 1.389 . S
C305 C280 1.395 . S
C305 C282 1.391 . S
H306 C266 0.951 . S
H307 C267 0.950 . S
H308 C273 0.949 . S
H309 C274 0.950 . S
H310 C278 0.951 . S
H311 C279 0.950 . S
H312 C283 0.949 . S
H313 C284 0.950 . S
H314 C288 0.950 . S
H315 C290 0.950 . S
H316 C293 0.950 . S
H317 C295 0.950 . S
C318 C319 1.443 . S
C318 N322 1.376 . S
C318 C356 1.389 . S
C319 C318 1.443 . S
C319 C320 1.340 . S
C319 H359 0.951 . S
C320 C319 1.340 . S
C320 C321 1.439 . S
C320 H360 0.950 . S
C321 C320 1.439 . S
C321 N322 1.374 . S
C321 C355 1.395 . S
N322 C318 1.376 . S
N322 C321 1.374 . S
N322 Co323 2.008 . S
Co323 N322 2.008 . S
Co323 N324 1.995 . S
Co323 N329 2.008 . S
Co323 N334 1.995 . S
Co323 N339 2.282 . S
Co323 N345 2.282 . S
N324 Co323 1.995 . S
N324 C325 1.376 . S
N324 C328 1.383 . S
C325 N324 1.376 . S
C325 C326 1.446 . S
C325 C355 1.391 . S
C326 C325 1.446 . S
C326 C327 1.339 . S
C326 H361 0.949 . S
C327 C326 1.339 . S
C327 C328 1.439 . S
C327 H362 0.950 . S
C328 N324 1.383 . S
C328 C327 1.439 . S
C328 C357 1.392 . S
N329 Co323 2.008 . S
N329 C330 1.376 . S
N329 C333 1.374 . S
C330 N329 1.376 . S
C330 C331 1.443 . S
C330 C357 1.389 . S
C331 C330 1.443 . S
C331 C332 1.340 . S
C331 H363 0.951 . S
C332 C331 1.340 . S
C332 C333 1.439 . S
C332 H364 0.950 . S
C333 N329 1.374 . S
C333 C332 1.439 . S
C333 C358 1.395 . S
N334 Co323 1.995 . S
N334 C335 1.376 . S
N334 C338 1.383 . S
C335 N334 1.376 . S
C335 C336 1.446 . S
C335 C358 1.391 . S
C336 C335 1.446 . S
C336 C337 1.339 . S
C336 H365 0.949 . S
C337 C336 1.339 . S
C337 C338 1.439 . S
C337 H366 0.950 . S
C338 N334 1.383 . S
C338 C337 1.439 . S
C338 C356 1.392 . S
N339 Co323 2.282 . S
N339 C342 1.332 . S
N339 C344 1.332 . S
C340 C341 1.386 . S
C340 C343 1.388 . S
C341 C340 1.386 . S
C341 C342 1.382 . S
C341 H367 0.950 . S
C342 N339 1.332 . S
C342 C341 1.382 . S
C342 H353 0.952 . S
C343 C340 1.388 . S
C343 C344 1.382 . S
C343 H368 0.950 . S
C344 N339 1.332 . S
C344 C343 1.382 . S
C344 H354 0.948 . S
N345 Co323 2.282 . S
N345 C349 1.332 . S
N345 C350 1.332 . S
C346 C347 1.388 . S
C346 C350 1.382 . S
C346 H369 0.950 . S
C347 C346 1.388 . S
C347 C348 1.386 . S
C348 C347 1.386 . S
C348 C349 1.382 . S
C348 H370 0.950 . S
C349 N345 1.332 . S
C349 C348 1.382 . S
C349 H351 0.952 . S
C350 N345 1.332 . S
C350 C346 1.382 . S
C350 H352 0.948 . S
H351 C349 0.952 . S
H352 C350 0.948 . S
H353 C342 0.952 . S
H354 C344 0.948 . S
C355 C321 1.395 . S
C355 C325 1.391 . S
C356 C318 1.389 . S
C356 C338 1.392 . S
C357 C328 1.392 . S
C357 C330 1.389 . S
C358 C333 1.395 . S
C358 C335 1.391 . S
H359 C319 0.951 . S
H360 C320 0.950 . S
H361 C326 0.949 . S
H362 C327 0.950 . S
H363 C331 0.951 . S
H364 C332 0.950 . S
H365 C336 0.949 . S
H366 C337 0.950 . S
H367 C341 0.950 . S
H368 C343 0.950 . S
H369 C346 0.950 . S
H370 C348 0.950 . S
C371 C372 1.443 . S
C371 N375 1.376 . S
C371 C409 1.389 . S
C372 C371 1.443 . S
C372 C373 1.340 . S
C372 H412 0.951 . S
C373 C372 1.340 . S
C373 C374 1.439 . S
C373 H413 0.950 . S
C374 C373 1.439 . S
C374 N375 1.374 . S
C374 C408 1.395 . S
N375 C371 1.376 . S
N375 C374 1.374 . S
N375 Co376 2.008 . S
Co376 N375 2.008 . S
Co376 N377 1.995 . S
Co376 N382 2.008 . S
Co376 N387 1.995 . S
Co376 N392 2.282 . S
Co376 N398 2.282 . S
N377 Co376 1.995 . S
N377 C378 1.376 . S
N377 C381 1.383 . S
C378 N377 1.376 . S
C378 C379 1.446 . S
C378 C408 1.391 . S
C379 C378 1.446 . S
C379 C380 1.339 . S
C379 H414 0.949 . S
C380 C379 1.339 . S
C380 C381 1.439 . S
C380 H415 0.950 . S
C381 N377 1.383 . S
C381 C380 1.439 . S
C381 C410 1.392 . S
N382 Co376 2.008 . S
N382 C383 1.376 . S
N382 C386 1.374 . S
C383 N382 1.376 . S
C383 C384 1.443 . S
C383 C410 1.389 . S
C384 C383 1.443 . S
C384 C385 1.340 . S
C384 H416 0.951 . S
C385 C384 1.340 . S
C385 C386 1.439 . S
C385 H417 0.950 . S
C386 N382 1.374 . S
C386 C385 1.439 . S
C386 C411 1.395 . S
N387 Co376 1.995 . S
N387 C388 1.376 . S
N387 C391 1.383 . S
C388 N387 1.376 . S
C388 C389 1.446 . S
C388 C411 1.391 . S
C389 C388 1.446 . S
C389 C390 1.339 . S
C389 H418 0.949 . S
C390 C389 1.339 . S
C390 C391 1.439 . S
C390 H419 0.950 . S
C391 N387 1.383 . S
C391 C390 1.439 . S
C391 C409 1.392 . S
N392 Co376 2.282 . S
N392 C395 1.332 . S
N392 C397 1.332 . S
C393 C394 1.386 . S
C393 C396 1.388 . S
C394 C393 1.386 . S
C394 C395 1.382 . S
C394 H420 0.950 . S
C395 N392 1.332 . S
C395 C394 1.382 . S
C395 H406 0.952 . S
C396 C393 1.388 . S
C396 C397 1.382 . S
C396 H421 0.950 . S
C397 N392 1.332 . S
C397 C396 1.382 . S
C397 H407 0.948 . S
N398 Co376 2.282 . S
N398 C402 1.332 . S
N398 C403 1.332 . S
C399 C400 1.388 . S
C399 C403 1.382 . S
C399 H422 0.950 . S
C400 C399 1.388 . S
C400 C401 1.386 . S
C401 C400 1.386 . S
C401 C402 1.382 . S
C401 H423 0.950 . S
C402 N398 1.332 . S
C402 C401 1.382 . S
C402 H404 0.952 . S
C403 N398 1.332 . S
C403 C399 1.382 . S
C403 H405 0.948 . S
H404 C402 0.952 . S
H405 C403 0.948 . S
H406 C395 0.952 . S
H407 C397 0.948 . S
C408 C374 1.395 . S
C408 C378 1.391 . S
C409 C371 1.389 . S
C409 C391 1.392 . S
C410 C381 1.392 . S
C410 C383 1.389 . S
C411 C386 1.395 . S
C411 C388 1.391 . S
H412 C372 0.951 . S
H413 C373 0.950 . S
H414 C379 0.949 . S
H415 C380 0.950 . S
H416 C384 0.951 . S
H417 C385 0.950 . S
H418 C389 0.949 . S
H419 C390 0.950 . S
H420 C394 0.950 . S
H421 C396 0.950 . S
H422 C399 0.950 . S
H423 C401 0.950 . S
C424 C425 1.443 . S
C424 N428 1.376 . S
C424 C462 1.389 . S
C425 C424 1.443 . S
C425 C426 1.340 . S
C425 H465 0.951 . S
C426 C425 1.340 . S
C426 C427 1.439 . S
C426 H466 0.950 . S
C427 C426 1.439 . S
C427 N428 1.374 . S
C427 C461 1.395 . S
N428 C424 1.376 . S
N428 C427 1.374 . S
N428 Co429 2.008 . S
Co429 N428 2.008 . S
Co429 N430 1.995 . S
Co429 N435 2.008 . S
Co429 N440 1.995 . S
Co429 N445 2.282 . S
Co429 N451 2.282 . S
N430 Co429 1.995 . S
N430 C431 1.376 . S
N430 C434 1.383 . S
C431 N430 1.376 . S
C431 C432 1.446 . S
C431 C461 1.391 . S
C432 C431 1.446 . S
C432 C433 1.339 . S
C432 H467 0.949 . S
C433 C432 1.339 . S
C433 C434 1.439 . S
C433 H468 0.950 . S
C434 N430 1.383 . S
C434 C433 1.439 . S
C434 C463 1.392 . S
N435 Co429 2.008 . S
N435 C436 1.376 . S
N435 C439 1.374 . S
C436 N435 1.376 . S
C436 C437 1.443 . S
C436 C463 1.389 . S
C437 C436 1.443 . S
C437 C438 1.340 . S
C437 H469 0.951 . S
C438 C437 1.340 . S
C438 C439 1.439 . S
C438 H470 0.950 . S
C439 N435 1.374 . S
C439 C438 1.439 . S
C439 C464 1.395 . S
N440 Co429 1.995 . S
N440 C441 1.376 . S
N440 C444 1.383 . S
C441 N440 1.376 . S
C441 C442 1.446 . S
C441 C464 1.391 . S
C442 C441 1.446 . S
C442 C443 1.339 . S
C442 H471 0.949 . S
C443 C442 1.339 . S
C443 C444 1.439 . S
C443 H472 0.950 . S
C444 N440 1.383 . S
C444 C443 1.439 . S
C444 C462 1.392 . S
N445 Co429 2.282 . S
N445 C448 1.332 . S
N445 C450 1.332 . S
C446 C447 1.386 . S
C446 C449 1.388 . S
C447 C446 1.386 . S
C447 C448 1.382 . S
C447 H473 0.950 . S
C448 N445 1.332 . S
C448 C447 1.382 . S
C448 H459 0.952 . S
C449 C446 1.388 . S
C449 C450 1.382 . S
C449 H474 0.950 . S
C450 N445 1.332 . S
C450 C449 1.382 . S
C450 H460 0.948 . S
N451 Co429 2.282 . S
N451 C455 1.332 . S
N451 C456 1.332 . S
C452 C453 1.388 . S
C452 C456 1.382 . S
C452 H475 0.950 . S
C453 C452 1.388 . S
C453 C454 1.386 . S
C454 C453 1.386 . S
C454 C455 1.382 . S
C454 H476 0.950 . S
C455 N451 1.332 . S
C455 C454 1.382 . S
C455 H457 0.952 . S
C456 N451 1.332 . S
C456 C452 1.382 . S
C456 H458 0.948 . S
H457 C455 0.952 . S
H458 C456 0.948 . S
H459 C448 0.952 . S
H460 C450 0.948 . S
C461 C427 1.395 . S
C461 C431 1.391 . S
C462 C424 1.389 . S
C462 C444 1.392 . S
C463 C434 1.392 . S
C463 C436 1.389 . S
C464 C439 1.395 . S
C464 C441 1.391 . S
H465 C425 0.951 . S
H466 C426 0.950 . S
H467 C432 0.949 . S
H468 C433 0.950 . S
H469 C437 0.951 . S
H470 C438 0.950 . S
H471 C442 0.949 . S
H472 C443 0.950 . S
H473 C447 0.950 . S
H474 C449 0.950 . S
H475 C452 0.950 . S
H476 C454 0.950 . S
C477 C478 1.443 . S
C477 N481 1.376 . S
C477 C515 1.389 . S
C478 C477 1.443 . S
C478 C479 1.340 . S
C478 H518 0.951 1_655 S
C479 C478 1.340 . S
C479 C480 1.439 . S
C479 H519 0.950 . S
C480 C479 1.439 . S
C480 N481 1.374 . S
C480 C514 1.395 . S
N481 C477 1.376 . S
N481 C480 1.374 . S
N481 Co482 2.008 . S
Co482 N481 2.008 . S
Co482 N483 1.995 . S
Co482 N488 2.008 . S
Co482 N493 1.995 . S
Co482 N498 2.282 . S
Co482 N504 2.282 . S
N483 Co482 1.995 . S
N483 C484 1.376 . S
N483 C487 1.383 . S
C484 N483 1.376 . S
C484 C485 1.446 . S
C484 C514 1.391 . S
C485 C484 1.446 . S
C485 C486 1.339 . S
C485 H520 0.949 . S
C486 C485 1.339 . S
C486 C487 1.439 . S
C486 H521 0.950 . S
C487 N483 1.383 . S
C487 C486 1.439 . S
C487 C516 1.392 . S
N488 Co482 2.008 . S
N488 C489 1.376 . S
N488 C492 1.374 . S
C489 N488 1.376 . S
C489 C490 1.443 . S
C489 C516 1.389 . S
C490 C489 1.443 . S
C490 C491 1.340 . S
C490 H522 0.951 . S
C491 C490 1.340 . S
C491 C492 1.439 . S
C491 H523 0.950 . S
C492 N488 1.374 . S
C492 C491 1.439 . S
C492 C517 1.395 . S
N493 Co482 1.995 . S
N493 C494 1.376 . S
N493 C497 1.383 . S
C494 N493 1.376 . S
C494 C495 1.446 . S
C494 C517 1.391 . S
C495 C494 1.446 . S
C495 C496 1.339 . S
C495 H524 0.949 . S
C496 C495 1.339 . S
C496 C497 1.439 . S
C496 H525 0.950 . S
C497 N493 1.383 . S
C497 C496 1.439 . S
C497 C515 1.392 . S
N498 Co482 2.282 . S
N498 C501 1.332 . S
N498 C503 1.332 . S
C499 C500 1.386 . S
C499 C502 1.388 . S
C500 C499 1.386 . S
C500 C501 1.382 . S
C500 H526 0.950 . S
C501 N498 1.332 . S
C501 C500 1.382 . S
C501 H512 0.952 . S
C502 C499 1.388 . S
C502 C503 1.382 . S
C502 H527 0.950 . S
C503 N498 1.332 . S
C503 C502 1.382 . S
C503 H513 0.948 . S
N504 Co482 2.282 . S
N504 C508 1.332 . S
N504 C509 1.332 . S
C505 C506 1.388 . S
C505 C509 1.382 . S
C505 H528 0.950 . S
C506 C505 1.388 . S
C506 C507 1.386 . S
C507 C506 1.386 . S
C507 C508 1.382 . S
C507 H529 0.950 . S
C508 N504 1.332 . S
C508 C507 1.382 . S
C508 H510 0.952 . S
C509 N504 1.332 . S
C509 C505 1.382 . S
C509 H511 0.948 . S
H510 C508 0.952 . S
H511 C509 0.948 . S
H512 C501 0.952 . S
H513 C503 0.948 . S
C514 C480 1.395 . S
C514 C484 1.391 . S
C515 C477 1.389 . S
C515 C497 1.392 . S
C516 C487 1.392 . S
C516 C489 1.389 . S
C517 C492 1.395 . S
C517 C494 1.391 . S
H518 C478 0.951 1_455 S
H519 C479 0.950 . S
H520 C485 0.949 . S
H521 C486 0.950 . S
H522 C490 0.951 . S
H523 C491 0.950 . S
H524 C495 0.949 . S
H525 C496 0.950 . S
H526 C500 0.950 . S
H527 C502 0.950 . S
H528 C505 0.950 . S
H529 C507 0.950 . S
C530 C531 1.443 . S
C530 N534 1.376 . S
C530 C568 1.389 . S
C531 C530 1.443 . S
C531 C532 1.340 . S
C531 H571 0.951 . S
C532 C531 1.340 . S
C532 C533 1.439 . S
C532 H572 0.950 . S
C533 C532 1.439 . S
C533 N534 1.374 . S
C533 C567 1.395 . S
N534 C530 1.376 . S
N534 C533 1.374 . S
N534 Co535 2.008 . S
Co535 N534 2.008 . S
Co535 N536 1.995 . S
Co535 N541 2.008 . S
Co535 N546 1.995 . S
Co535 N551 2.282 . S
Co535 N557 2.282 . S
N536 Co535 1.995 . S
N536 C537 1.376 . S
N536 C540 1.383 . S
C537 N536 1.376 . S
C537 C538 1.446 . S
C537 C567 1.391 . S
C538 C537 1.446 . S
C538 C539 1.339 . S
C538 H573 0.949 . S
C539 C538 1.339 . S
C539 C540 1.439 . S
C539 H574 0.950 . S
C540 N536 1.383 . S
C540 C539 1.439 . S
C540 C569 1.392 . S
N541 Co535 2.008 . S
N541 C542 1.376 . S
N541 C545 1.374 . S
C542 N541 1.376 . S
C542 C543 1.443 . S
C542 C569 1.389 . S
C543 C542 1.443 . S
C543 C544 1.340 . S
C543 H575 0.951 . S
C544 C543 1.340 . S
C544 C545 1.439 . S
C544 H576 0.950 . S
C545 N541 1.374 . S
C545 C544 1.439 . S
C545 C570 1.395 . S
N546 Co535 1.995 . S
N546 C547 1.376 . S
N546 C550 1.383 . S
C547 N546 1.376 . S
C547 C548 1.446 . S
C547 C570 1.391 . S
C548 C547 1.446 . S
C548 C549 1.339 . S
C548 H577 0.949 . S
C549 C548 1.339 . S
C549 C550 1.439 . S
C549 H578 0.950 . S
C550 N546 1.383 . S
C550 C549 1.439 . S
C550 C568 1.392 . S
N551 Co535 2.282 . S
N551 C554 1.332 . S
N551 C556 1.332 . S
C552 C553 1.386 . S
C552 C555 1.388 . S
C553 C552 1.386 . S
C553 C554 1.382 . S
C553 H579 0.950 . S
C554 N551 1.332 . S
C554 C553 1.382 . S
C554 H565 0.952 . S
C555 C552 1.388 . S
C555 C556 1.382 . S
C555 H580 0.950 . S
C556 N551 1.332 . S
C556 C555 1.382 . S
C556 H566 0.948 . S
N557 Co535 2.282 . S
N557 C561 1.332 . S
N557 C562 1.332 . S
C558 C559 1.388 . S
C558 C562 1.382 . S
C558 H581 0.950 . S
C559 C558 1.388 . S
C559 C560 1.386 . S
C560 C559 1.386 . S
C560 C561 1.382 . S
C560 H582 0.950 . S
C561 N557 1.332 . S
C561 C560 1.382 . S
C561 H563 0.952 . S
C562 N557 1.332 . S
C562 C558 1.382 . S
C562 H564 0.948 . S
H563 C561 0.952 . S
H564 C562 0.948 . S
H565 C554 0.952 . S
H566 C556 0.948 . S
C567 C533 1.395 . S
C567 C537 1.391 . S
C568 C530 1.389 . S
C568 C550 1.392 . S
C569 C540 1.392 . S
C569 C542 1.389 . S
C570 C545 1.395 . S
C570 C547 1.391 . S
H571 C531 0.951 . S
H572 C532 0.950 . S
H573 C538 0.949 . S
H574 C539 0.950 . S
H575 C543 0.951 . S
H576 C544 0.950 . S
H577 C548 0.949 . S
H578 C549 0.950 . S
H579 C553 0.950 . S
H580 C555 0.950 . S
H581 C558 0.950 . S
H582 C560 0.950 . S
C583 C584 1.443 . S
C583 N587 1.376 . S
C583 C621 1.389 . S
C584 C583 1.443 . S
C584 C585 1.340 . S
C584 H624 0.951 . S
C585 C584 1.340 . S
C585 C586 1.439 . S
C585 H625 0.950 . S
C586 C585 1.439 . S
C586 N587 1.374 . S
C586 C620 1.395 . S
N587 C583 1.376 . S
N587 C586 1.374 . S
N587 Co588 2.008 . S
Co588 N587 2.008 . S
Co588 N589 1.995 . S
Co588 N594 2.008 . S
Co588 N599 1.995 . S
Co588 N604 2.282 . S
Co588 N610 2.282 . S
N589 Co588 1.995 . S
N589 C590 1.376 . S
N589 C593 1.383 . S
C590 N589 1.376 . S
C590 C591 1.446 . S
C590 C620 1.391 . S
C591 C590 1.446 . S
C591 C592 1.339 . S
C591 H626 0.949 . S
C592 C591 1.339 . S
C592 C593 1.439 . S
C592 H627 0.950 . S
C593 N589 1.383 . S
C593 C592 1.439 . S
C593 C622 1.392 . S
N594 Co588 2.008 . S
N594 C595 1.376 . S
N594 C598 1.374 . S
C595 N594 1.376 . S
C595 C596 1.443 . S
C595 C622 1.389 . S
C596 C595 1.443 . S
C596 C597 1.340 . S
C596 H628 0.951 . S
C597 C596 1.340 . S
C597 C598 1.439 . S
C597 H629 0.950 . S
C598 N594 1.374 . S
C598 C597 1.439 . S
C598 C623 1.395 . S
N599 Co588 1.995 . S
N599 C600 1.376 . S
N599 C603 1.383 . S
C600 N599 1.376 . S
C600 C601 1.446 . S
C600 C623 1.391 . S
C601 C600 1.446 . S
C601 C602 1.339 . S
C601 H630 0.949 . S
C602 C601 1.339 . S
C602 C603 1.439 . S
C602 H631 0.950 . S
C603 N599 1.383 . S
C603 C602 1.439 . S
C603 C621 1.392 . S
N604 Co588 2.282 . S
N604 C607 1.332 . S
N604 C609 1.332 . S
C605 C606 1.386 . S
C605 C608 1.388 . S
C606 C605 1.386 . S
C606 C607 1.382 . S
C606 H632 0.950 . S
C607 N604 1.332 . S
C607 C606 1.382 . S
C607 H618 0.952 . S
C608 C605 1.388 . S
C608 C609 1.382 . S
C608 H633 0.950 . S
C609 N604 1.332 . S
C609 C608 1.382 . S
C609 H619 0.948 . S
N610 Co588 2.282 . S
N610 C614 1.332 . S
N610 C615 1.332 . S
C611 C612 1.388 . S
C611 C615 1.382 . S
C611 H634 0.950 . S
C612 C611 1.388 . S
C612 C613 1.386 . S
C613 C612 1.386 . S
C613 C614 1.382 . S
C613 H635 0.950 . S
C614 N610 1.332 . S
C614 C613 1.382 . S
C614 H616 0.952 . S
C615 N610 1.332 . S
C615 C611 1.382 . S
C615 H617 0.948 . S
H616 C614 0.952 . S
H617 C615 0.948 . S
H618 C607 0.952 . S
H619 C609 0.948 . S
C620 C586 1.395 . S
C620 C590 1.391 . S
C621 C583 1.389 . S
C621 C603 1.392 . S
C622 C593 1.392 . S
C622 C595 1.389 . S
C623 C598 1.395 . S
C623 C600 1.391 . S
H624 C584 0.951 . S
H625 C585 0.950 . S
H626 C591 0.949 . S
H627 C592 0.950 . S
H628 C596 0.951 . S
H629 C597 0.950 . S
H630 C601 0.949 . S
H631 C602 0.950 . S
H632 C606 0.950 . S
H633 C608 0.950 . S
H634 C611 0.950 . S
H635 C613 0.950 . S
C636 C637 1.443 . S
C636 N640 1.376 . S
C636 C674 1.389 . S
C637 C636 1.443 . S
C637 C638 1.340 . S
C637 H677 0.951 . S
C638 C637 1.340 . S
C638 C639 1.439 . S
C638 H678 0.950 . S
C639 C638 1.439 . S
C639 N640 1.374 . S
C639 C673 1.395 . S
N640 C636 1.376 . S
N640 C639 1.374 . S
N640 Co641 2.008 . S
Co641 N640 2.008 . S
Co641 N642 1.995 . S
Co641 N647 2.008 . S
Co641 N652 1.995 . S
Co641 N657 2.282 . S
Co641 N663 2.282 . S
N642 Co641 1.995 . S
N642 C643 1.376 . S
N642 C646 1.383 . S
C643 N642 1.376 . S
C643 C644 1.446 . S
C643 C673 1.391 . S
C644 C643 1.446 . S
C644 C645 1.339 . S
C644 H679 0.949 . S
C645 C644 1.339 . S
C645 C646 1.439 . S
C645 H680 0.950 . S
C646 N642 1.383 . S
C646 C645 1.439 . S
C646 C675 1.392 . S
N647 Co641 2.008 . S
N647 C648 1.376 . S
N647 C651 1.374 . S
C648 N647 1.376 . S
C648 C649 1.443 . S
C648 C675 1.389 . S
C649 C648 1.443 . S
C649 C650 1.340 . S
C649 H681 0.951 . S
C650 C649 1.340 . S
C650 C651 1.439 . S
C650 H682 0.950 . S
C651 N647 1.374 . S
C651 C650 1.439 . S
C651 C676 1.395 . S
N652 Co641 1.995 . S
N652 C653 1.376 . S
N652 C656 1.383 . S
C653 N652 1.376 . S
C653 C654 1.446 . S
C653 C676 1.391 . S
C654 C653 1.446 . S
C654 C655 1.339 . S
C654 H683 0.949 . S
C655 C654 1.339 . S
C655 C656 1.439 . S
C655 H684 0.950 . S
C656 N652 1.383 . S
C656 C655 1.439 . S
C656 C674 1.392 . S
N657 Co641 2.282 . S
N657 C660 1.332 . S
N657 C662 1.332 . S
C658 C659 1.386 . S
C658 C661 1.388 . S
C659 C658 1.386 . S
C659 C660 1.382 . S
C659 H685 0.950 . S
C660 N657 1.332 . S
C660 C659 1.382 . S
C660 H671 0.952 . S
C661 C658 1.388 . S
C661 C662 1.382 . S
C661 H686 0.950 . S
C662 N657 1.332 . S
C662 C661 1.382 . S
C662 H672 0.948 . S
N663 Co641 2.282 . S
N663 C667 1.332 . S
N663 C668 1.332 . S
C664 C665 1.388 . S
C664 C668 1.382 . S
C664 H687 0.950 . S
C665 C664 1.388 . S
C665 C666 1.386 . S
C666 C665 1.386 . S
C666 C667 1.382 . S
C666 H688 0.950 . S
C667 N663 1.332 . S
C667 C666 1.382 . S
C667 H669 0.952 . S
C668 N663 1.332 . S
C668 C664 1.382 . S
C668 H670 0.948 . S
H669 C667 0.952 . S
H670 C668 0.948 . S
H671 C660 0.952 . S
H672 C662 0.948 . S
C673 C639 1.395 . S
C673 C643 1.391 . S
C674 C636 1.389 . S
C674 C656 1.392 . S
C675 C646 1.392 . S
C675 C648 1.389 . S
C676 C651 1.395 . S
C676 C653 1.391 . S
H677 C637 0.951 . S
H678 C638 0.950 . S
H679 C644 0.949 . S
H680 C645 0.950 . S
H681 C649 0.951 . S
H682 C650 0.950 . S
H683 C654 0.949 . S
H684 C655 0.950 . S
H685 C659 0.950 . S
H686 C661 0.950 . S
H687 C664 0.950 . S
H688 C666 0.950 . S
C689 C690 1.443 . S
C689 N693 1.376 . S
C689 C727 1.389 . S
C690 C689 1.443 . S
C690 C691 1.340 . S
C690 H730 0.951 . S
C691 C690 1.340 . S
C691 C692 1.439 . S
C691 H731 0.950 . S
C692 C691 1.439 . S
C692 N693 1.374 . S
C692 C726 1.395 . S
N693 C689 1.376 . S
N693 C692 1.374 . S
N693 Co694 2.008 . S
Co694 N693 2.008 . S
Co694 N695 1.995 . S
Co694 N700 2.008 . S
Co694 N705 1.995 . S
Co694 N710 2.282 . S
Co694 N716 2.282 . S
N695 Co694 1.995 . S
N695 C696 1.376 . S
N695 C699 1.383 . S
C696 N695 1.376 . S
C696 C697 1.446 . S
C696 C726 1.391 . S
C697 C696 1.446 . S
C697 C698 1.339 . S
C697 H732 0.949 . S
C698 C697 1.339 . S
C698 C699 1.439 . S
C698 H733 0.950 . S
C699 N695 1.383 . S
C699 C698 1.439 . S
C699 C728 1.392 . S
N700 Co694 2.008 . S
N700 C701 1.376 . S
N700 C704 1.374 . S
C701 N700 1.376 . S
C701 C702 1.443 . S
C701 C728 1.389 . S
C702 C701 1.443 . S
C702 C703 1.340 . S
C702 H734 0.951 . S
C703 C702 1.340 . S
C703 C704 1.439 . S
C703 H735 0.950 . S
C704 N700 1.374 . S
C704 C703 1.439 . S
C704 C729 1.395 . S
N705 Co694 1.995 . S
N705 C706 1.376 . S
N705 C709 1.383 . S
C706 N705 1.376 . S
C706 C707 1.446 . S
C706 C729 1.391 . S
C707 C706 1.446 . S
C707 C708 1.339 . S
C707 H736 0.949 . S
C708 C707 1.339 . S
C708 C709 1.439 . S
C708 H737 0.950 . S
C709 N705 1.383 . S
C709 C708 1.439 . S
C709 C727 1.392 . S
N710 Co694 2.282 . S
N710 C713 1.332 . S
N710 C715 1.332 . S
C711 C712 1.386 . S
C711 C714 1.388 . S
C712 C711 1.386 . S
C712 C713 1.382 . S
C712 H738 0.950 . S
C713 N710 1.332 . S
C713 C712 1.382 . S
C713 H724 0.952 . S
C714 C711 1.388 . S
C714 C715 1.382 . S
C714 H739 0.950 . S
C715 N710 1.332 . S
C715 C714 1.382 . S
C715 H725 0.948 . S
N716 Co694 2.282 . S
N716 C720 1.332 . S
N716 C721 1.332 . S
C717 C718 1.388 . S
C717 C721 1.382 . S
C717 H740 0.950 . S
C718 C717 1.388 . S
C718 C719 1.386 . S
C719 C718 1.386 . S
C719 C720 1.382 . S
C719 H741 0.950 . S
C720 N716 1.332 . S
C720 C719 1.382 . S
C720 H722 0.952 . S
C721 N716 1.332 . S
C721 C717 1.382 . S
C721 H723 0.948 . S
H722 C720 0.952 . S
H723 C721 0.948 . S
H724 C713 0.952 . S
H725 C715 0.948 . S
C726 C692 1.395 . S
C726 C696 1.391 . S
C727 C689 1.389 . S
C727 C709 1.392 . S
C728 C699 1.392 . S
C728 C701 1.389 . S
C729 C704 1.395 . S
C729 C706 1.391 . S
H730 C690 0.951 . S
H731 C691 0.950 . S
H732 C697 0.949 . S
H733 C698 0.950 . S
H734 C702 0.951 . S
H735 C703 0.950 . S
H736 C707 0.949 . S
H737 C708 0.950 . S
H738 C712 0.950 . S
H739 C714 0.950 . S
H740 C717 0.950 . S
H741 C719 0.950 . S
C742 C743 1.443 . S
C742 N746 1.376 . S
C742 C780 1.389 . S
C743 C742 1.443 . S
C743 C744 1.340 . S
C743 H783 0.951 . S
C744 C743 1.340 . S
C744 C745 1.439 . S
C744 H784 0.950 . S
C745 C744 1.439 . S
C745 N746 1.374 . S
C745 C779 1.395 . S
N746 C742 1.376 . S
N746 C745 1.374 . S
N746 Co747 2.008 . S
Co747 N746 2.008 . S
Co747 N748 1.995 . S
Co747 N753 2.008 . S
Co747 N758 1.995 . S
Co747 N763 2.282 . S
Co747 N769 2.282 . S
N748 Co747 1.995 . S
N748 C749 1.376 . S
N748 C752 1.383 . S
C749 N748 1.376 . S
C749 C750 1.446 . S
C749 C779 1.391 . S
C750 C749 1.446 . S
C750 C751 1.339 . S
C750 H785 0.949 . S
C751 C750 1.339 . S
C751 C752 1.439 . S
C751 H786 0.950 . S
C752 N748 1.383 . S
C752 C751 1.439 . S
C752 C781 1.392 . S
N753 Co747 2.008 . S
N753 C754 1.376 . S
N753 C757 1.374 . S
C754 N753 1.376 . S
C754 C755 1.443 . S
C754 C781 1.389 . S
C755 C754 1.443 . S
C755 C756 1.340 . S
C755 H787 0.951 . S
C756 C755 1.340 . S
C756 C757 1.439 . S
C756 H788 0.950 . S
C757 N753 1.374 . S
C757 C756 1.439 . S
C757 C782 1.395 . S
N758 Co747 1.995 . S
N758 C759 1.376 . S
N758 C762 1.383 . S
C759 N758 1.376 . S
C759 C760 1.446 . S
C759 C782 1.391 . S
C760 C759 1.446 . S
C760 C761 1.339 . S
C760 H789 0.949 . S
C761 C760 1.339 . S
C761 C762 1.439 . S
C761 H790 0.950 . S
C762 N758 1.383 . S
C762 C761 1.439 . S
C762 C780 1.392 . S
N763 Co747 2.282 . S
N763 C766 1.332 . S
N763 C768 1.332 . S
C764 C765 1.386 . S
C764 C767 1.388 . S
C765 C764 1.386 . S
C765 C766 1.382 . S
C765 H791 0.950 . S
C766 N763 1.332 . S
C766 C765 1.382 . S
C766 H777 0.952 . S
C767 C764 1.388 . S
C767 C768 1.382 . S
C767 H792 0.950 . S
C768 N763 1.332 . S
C768 C767 1.382 . S
C768 H778 0.948 . S
N769 Co747 2.282 . S
N769 C773 1.332 . S
N769 C774 1.332 . S
C770 C771 1.388 . S
C770 C774 1.382 . S
C770 H793 0.950 . S
C771 C770 1.388 . S
C771 C772 1.386 . S
C772 C771 1.386 . S
C772 C773 1.382 . S
C772 H794 0.950 . S
C773 N769 1.332 . S
C773 C772 1.382 . S
C773 H775 0.952 . S
C774 N769 1.332 . S
C774 C770 1.382 . S
C774 H776 0.948 . S
H775 C773 0.952 . S
H776 C774 0.948 . S
H777 C766 0.952 . S
H778 C768 0.948 . S
C779 C745 1.395 . S
C779 C749 1.391 . S
C780 C742 1.389 . S
C780 C762 1.392 . S
C781 C752 1.392 . S
C781 C754 1.389 . S
C782 C757 1.395 . S
C782 C759 1.391 . S
H783 C743 0.951 . S
H784 C744 0.950 . S
H785 C750 0.949 . S
H786 C751 0.950 . S
H787 C755 0.951 . S
H788 C756 0.950 . S
H789 C760 0.949 . S
H790 C761 0.950 . S
H791 C765 0.950 . S
H792 C767 0.950 . S
H793 C770 0.950 . S
H794 C772 0.950 . S
C795 C796 1.443 . S
C795 N799 1.376 . S
C795 C833 1.389 . S
C796 C795 1.443 . S
C796 C797 1.340 . S
C796 H836 0.951 . S
C797 C796 1.340 . S
C797 C798 1.439 . S
C797 H837 0.950 . S
C798 C797 1.439 . S
C798 N799 1.374 . S
C798 C832 1.395 . S
N799 C795 1.376 . S
N799 C798 1.374 . S
N799 Co800 2.008 . S
Co800 N799 2.008 . S
Co800 N801 1.995 . S
Co800 N806 2.008 . S
Co800 N811 1.995 . S
Co800 N816 2.282 . S
Co800 N822 2.282 . S
N801 Co800 1.995 . S
N801 C802 1.376 . S
N801 C805 1.383 . S
C802 N801 1.376 . S
C802 C803 1.446 . S
C802 C832 1.391 . S
C803 C802 1.446 . S
C803 C804 1.339 . S
C803 H838 0.949 . S
C804 C803 1.339 . S
C804 C805 1.439 . S
C804 H839 0.950 . S
C805 N801 1.383 . S
C805 C804 1.439 . S
C805 C834 1.392 . S
N806 Co800 2.008 . S
N806 C807 1.376 . S
N806 C810 1.374 . S
C807 N806 1.376 . S
C807 C808 1.443 . S
C807 C834 1.389 . S
C808 C807 1.443 . S
C808 C809 1.340 . S
C808 H840 0.951 . S
C809 C808 1.340 . S
C809 C810 1.439 . S
C809 H841 0.950 . S
C810 N806 1.374 . S
C810 C809 1.439 . S
C810 C835 1.395 . S
N811 Co800 1.995 . S
N811 C812 1.376 . S
N811 C815 1.383 . S
C812 N811 1.376 . S
C812 C813 1.446 . S
C812 C835 1.391 . S
C813 C812 1.446 . S
C813 C814 1.339 . S
C813 H842 0.949 . S
C814 C813 1.339 . S
C814 C815 1.439 . S
C814 H843 0.950 . S
C815 N811 1.383 . S
C815 C814 1.439 . S
C815 C833 1.392 . S
N816 Co800 2.282 . S
N816 C819 1.332 . S
N816 C821 1.332 . S
C817 C818 1.386 . S
C817 C820 1.388 . S
C818 C817 1.386 . S
C818 C819 1.382 . S
C818 H844 0.950 . S
C819 N816 1.332 . S
C819 C818 1.382 . S
C819 H830 0.952 . S
C820 C817 1.388 . S
C820 C821 1.382 . S
C820 H845 0.950 . S
C821 N816 1.332 . S
C821 C820 1.382 . S
C821 H831 0.948 . S
N822 Co800 2.282 . S
N822 C826 1.332 . S
N822 C827 1.332 . S
C823 C824 1.388 . S
C823 C827 1.382 . S
C823 H846 0.950 . S
C824 C823 1.388 . S
C824 C825 1.386 . S
C825 C824 1.386 . S
C825 C826 1.382 . S
C825 H847 0.950 . S
C826 N822 1.332 . S
C826 C825 1.382 . S
C826 H828 0.952 . S
C827 N822 1.332 . S
C827 C823 1.382 . S
C827 H829 0.948 . S
H828 C826 0.952 . S
H829 C827 0.948 . S
H830 C819 0.952 . S
H831 C821 0.948 . S
C832 C798 1.395 . S
C832 C802 1.391 . S
C833 C795 1.389 . S
C833 C815 1.392 . S
C834 C805 1.392 . S
C834 C807 1.389 . S
C835 C810 1.395 . S
C835 C812 1.391 . S
H836 C796 0.951 . S
H837 C797 0.950 . S
H838 C803 0.949 . S
H839 C804 0.950 . S
H840 C808 0.951 . S
H841 C809 0.950 . S
H842 C813 0.949 . S
H843 C814 0.950 . S
H844 C818 0.950 . S
H845 C820 0.950 . S
H846 C823 0.950 . S
H847 C825 0.950 . S
C848 C849 1.443 . S
C848 N852 1.376 . S
C848 C886 1.389 . S
C849 C848 1.443 . S
C849 C850 1.340 . S
C849 H889 0.951 . S
C850 C849 1.340 . S
C850 C851 1.439 . S
C850 H890 0.950 . S
C851 C850 1.439 . S
C851 N852 1.374 . S
C851 C885 1.395 . S
N852 C848 1.376 . S
N852 C851 1.374 . S
N852 Co853 2.008 . S
Co853 N852 2.008 . S
Co853 N854 1.995 . S
Co853 N859 2.008 . S
Co853 N864 1.995 . S
Co853 N869 2.282 . S
Co853 N875 2.282 . S
N854 Co853 1.995 . S
N854 C855 1.376 . S
N854 C858 1.383 . S
C855 N854 1.376 . S
C855 C856 1.446 . S
C855 C885 1.391 . S
C856 C855 1.446 . S
C856 C857 1.339 . S
C856 H891 0.949 . S
C857 C856 1.339 . S
C857 C858 1.439 . S
C857 H892 0.950 . S
C858 N854 1.383 . S
C858 C857 1.439 . S
C858 C887 1.392 . S
N859 Co853 2.008 . S
N859 C860 1.376 . S
N859 C863 1.374 . S
C860 N859 1.376 . S
C860 C861 1.443 . S
C860 C887 1.389 . S
C861 C860 1.443 . S
C861 C862 1.340 . S
C861 H893 0.951 . S
C862 C861 1.340 . S
C862 C863 1.439 . S
C862 H894 0.950 . S
C863 N859 1.374 . S
C863 C862 1.439 . S
C863 C888 1.395 . S
N864 Co853 1.995 . S
N864 C865 1.376 . S
N864 C868 1.383 . S
C865 N864 1.376 . S
C865 C866 1.446 . S
C865 C888 1.391 . S
C866 C865 1.446 . S
C866 C867 1.339 . S
C866 H895 0.949 . S
C867 C866 1.339 . S
C867 C868 1.439 . S
C867 H896 0.950 . S
C868 N864 1.383 . S
C868 C867 1.439 . S
C868 C886 1.392 . S
N869 Co853 2.282 . S
N869 C872 1.332 . S
N869 C874 1.332 . S
C870 C871 1.386 . S
C870 C873 1.388 . S
C871 C870 1.386 . S
C871 C872 1.382 . S
C871 H897 0.950 . S
C872 N869 1.332 . S
C872 C871 1.382 . S
C872 H883 0.952 . S
C873 C870 1.388 . S
C873 C874 1.382 . S
C873 H898 0.950 . S
C874 N869 1.332 . S
C874 C873 1.382 . S
C874 H884 0.948 . S
N875 Co853 2.282 . S
N875 C879 1.332 . S
N875 C880 1.332 . S
C876 C877 1.388 . S
C876 C880 1.382 . S
C876 H899 0.950 . S
C877 C876 1.388 . S
C877 C878 1.386 . S
C878 C877 1.386 . S
C878 C879 1.382 . S
C878 H900 0.950 . S
C879 N875 1.332 . S
C879 C878 1.382 . S
C879 H881 0.952 . S
C880 N875 1.332 . S
C880 C876 1.382 . S
C880 H882 0.948 . S
H881 C879 0.952 . S
H882 C880 0.948 . S
H883 C872 0.952 . S
H884 C874 0.948 . S
C885 C851 1.395 . S
C885 C855 1.391 . S
C886 C848 1.389 . S
C886 C868 1.392 . S
C887 C858 1.392 . S
C887 C860 1.389 . S
C888 C863 1.395 . S
C888 C865 1.391 . S
H889 C849 0.951 . S
H890 C850 0.950 . S
H891 C856 0.949 . S
H892 C857 0.950 . S
H893 C861 0.951 . S
H894 C862 0.950 . S
H895 C866 0.949 . S
H896 C867 0.950 . S
H897 C871 0.950 . S
H898 C873 0.950 . S
H899 C876 0.950 . S
H900 C878 0.950 . S
C901 C902 1.443 . S
C901 N905 1.376 . S
C901 C939 1.389 . S
C902 C901 1.443 . S
C902 C903 1.340 . S
C902 H942 0.951 . S
C903 C902 1.340 . S
C903 C904 1.439 . S
C903 H943 0.950 . S
C904 C903 1.439 . S
C904 N905 1.374 . S
C904 C938 1.395 . S
N905 C901 1.376 . S
N905 C904 1.374 . S
N905 Co906 2.008 . S
Co906 N905 2.008 . S
Co906 N907 1.995 . S
Co906 N912 2.008 . S
Co906 N917 1.995 . S
Co906 N922 2.282 . S
Co906 N928 2.282 . S
N907 Co906 1.995 . S
N907 C908 1.376 . S
N907 C911 1.383 . S
C908 N907 1.376 . S
C908 C909 1.446 . S
C908 C938 1.391 . S
C909 C908 1.446 . S
C909 C910 1.339 . S
C909 H944 0.949 . S
C910 C909 1.339 . S
C910 C911 1.439 . S
C910 H945 0.950 . S
C911 N907 1.383 . S
C911 C910 1.439 . S
C911 C940 1.392 . S
N912 Co906 2.008 . S
N912 C913 1.376 . S
N912 C916 1.374 . S
C913 N912 1.376 . S
C913 C914 1.443 . S
C913 C940 1.389 . S
C914 C913 1.443 . S
C914 C915 1.340 . S
C914 H946 0.951 . S
C915 C914 1.340 . S
C915 C916 1.439 . S
C915 H947 0.950 . S
C916 N912 1.374 . S
C916 C915 1.439 . S
C916 C941 1.395 . S
N917 Co906 1.995 . S
N917 C918 1.376 . S
N917 C921 1.383 . S
C918 N917 1.376 . S
C918 C919 1.446 . S
C918 C941 1.391 . S
C919 C918 1.446 . S
C919 C920 1.339 . S
C919 H948 0.949 . S
C920 C919 1.339 . S
C920 C921 1.439 . S
C920 H949 0.950 . S
C921 N917 1.383 . S
C921 C920 1.439 . S
C921 C939 1.392 . S
N922 Co906 2.282 . S
N922 C925 1.332 . S
N922 C927 1.332 . S
C923 C924 1.386 . S
C923 C926 1.388 . S
C924 C923 1.386 . S
C924 C925 1.382 . S
C924 H950 0.950 . S
C925 N922 1.332 . S
C925 C924 1.382 . S
C925 H936 0.952 . S
C926 C923 1.388 . S
C926 C927 1.382 . S
C926 H951 0.950 . S
C927 N922 1.332 . S
C927 C926 1.382 . S
C927 H937 0.948 . S
N928 Co906 2.282 . S
N928 C932 1.332 . S
N928 C933 1.332 . S
C929 C930 1.388 . S
C929 C933 1.382 . S
C929 H952 0.950 . S
C930 C929 1.388 . S
C930 C931 1.386 . S
C931 C930 1.386 . S
C931 C932 1.382 . S
C931 H953 0.950 . S
C932 N928 1.332 . S
C932 C931 1.382 . S
C932 H934 0.952 . S
C933 N928 1.332 . S
C933 C929 1.382 . S
C933 H935 0.948 . S
H934 C932 0.952 . S
H935 C933 0.948 . S
H936 C925 0.952 . S
H937 C927 0.948 . S
C938 C904 1.395 . S
C938 C908 1.391 . S
C939 C901 1.389 . S
C939 C921 1.392 . S
C940 C911 1.392 . S
C940 C913 1.389 . S
C941 C916 1.395 . S
C941 C918 1.391 . S
H942 C902 0.951 . S
H943 C903 0.950 . S
H944 C909 0.949 . S
H945 C910 0.950 . S
H946 C914 0.951 . S
H947 C915 0.950 . S
H948 C919 0.949 . S
H949 C920 0.950 . S
H950 C924 0.950 . S
H951 C926 0.950 . S
H952 C929 0.950 . S
H953 C931 0.950 . S
C954 C955 1.443 . S
C954 N958 1.376 . S
C954 C992 1.389 . S
C955 C954 1.443 . S
C955 C956 1.340 . S
C955 H995 0.951 . S
C956 C955 1.340 . S
C956 C957 1.439 . S
C956 H996 0.950 . S
C957 C956 1.439 . S
C957 N958 1.374 . S
C957 C991 1.395 . S
N958 C954 1.376 . S
N958 C957 1.374 . S
N958 Co959 2.008 . S
Co959 N958 2.008 . S
Co959 N960 1.995 . S
Co959 N965 2.008 . S
Co959 N970 1.995 . S
Co959 N975 2.282 . S
Co959 N981 2.282 . S
N960 Co959 1.995 . S
N960 C961 1.376 . S
N960 C964 1.383 . S
C961 N960 1.376 . S
C961 C962 1.446 . S
C961 C991 1.391 . S
C962 C961 1.446 . S
C962 C963 1.339 . S
C962 H997 0.949 . S
C963 C962 1.339 . S
C963 C964 1.439 . S
C963 H998 0.950 . S
C964 N960 1.383 . S
C964 C963 1.439 . S
C964 C993 1.392 . S
N965 Co959 2.008 . S
N965 C966 1.376 . S
N965 C969 1.374 . S
C966 N965 1.376 . S
C966 C967 1.443 . S
C966 C993 1.389 . S
C967 C966 1.443 . S
C967 C968 1.340 . S
C967 H999 0.951 . S
C968 C967 1.340 . S
C968 C969 1.439 . S
C968 H1000 0.950 . S
C969 N965 1.374 . S
C969 C968 1.439 . S
C969 C994 1.395 . S
N970 Co959 1.995 . S
N970 C971 1.376 . S
N970 C974 1.383 . S
C971 N970 1.376 . S
C971 C972 1.446 . S
C971 C994 1.391 . S
C972 C971 1.446 . S
C972 C973 1.339 . S
C972 H1001 0.949 . S
C973 C972 1.339 . S
C973 C974 1.439 . S
C973 H1002 0.950 . S
C974 N970 1.383 . S
C974 C973 1.439 . S
C974 C992 1.392 . S
N975 Co959 2.282 . S
N975 C978 1.332 . S
N975 C980 1.332 . S
C976 C977 1.386 . S
C976 C979 1.388 . S
C977 C976 1.386 . S
C977 C978 1.382 . S
C977 H1003 0.950 . S
C978 N975 1.332 . S
C978 C977 1.382 . S
C978 H989 0.952 . S
C979 C976 1.388 . S
C979 C980 1.382 . S
C979 H1004 0.950 . S
C980 N975 1.332 . S
C980 C979 1.382 . S
C980 H990 0.948 . S
N981 Co959 2.282 . S
N981 C985 1.332 . S
N981 C986 1.332 . S
C982 C983 1.388 . S
C982 C986 1.382 . S
C982 H1005 0.950 . S
C983 C982 1.388 . S
C983 C984 1.386 . S
C984 C983 1.386 . S
C984 C985 1.382 . S
C984 H1006 0.950 . S
C985 N981 1.332 . S
C985 C984 1.382 . S
C985 H987 0.952 . S
C986 N981 1.332 . S
C986 C982 1.382 . S
C986 H988 0.948 . S
H987 C985 0.952 . S
H988 C986 0.948 . S
H989 C978 0.952 . S
H990 C980 0.948 . S
C991 C957 1.395 . S
C991 C961 1.391 . S
C992 C954 1.389 . S
C992 C974 1.392 . S
C993 C964 1.392 . S
C993 C966 1.389 . S
C994 C969 1.395 . S
C994 C971 1.391 . S
H995 C955 0.951 . S
H996 C956 0.950 . S
H997 C962 0.949 . S
H998 C963 0.950 . S
H999 C967 0.951 . S
H1000 C968 0.950 . S
H1001 C972 0.949 . S
H1002 C973 0.950 . S
H1003 C977 0.950 . S
H1004 C979 0.950 . S
H1005 C982 0.950 . S
H1006 C984 0.950 . S
C1007 C1008 1.443 . S
C1007 N1011 1.376 . S
C1007 C1045 1.389 . S
C1008 C1007 1.443 . S
C1008 C1009 1.340 . S
C1008 H1048 0.951 . S
C1009 C1008 1.340 . S
C1009 C1010 1.439 . S
C1009 H1049 0.950 . S
C1010 C1009 1.439 . S
C1010 N1011 1.374 . S
C1010 C1044 1.395 . S
N1011 C1007 1.376 . S
N1011 C1010 1.374 . S
N1011 Co1012 2.008 . S
Co1012 N1011 2.008 . S
Co1012 N1013 1.995 . S
Co1012 N1018 2.008 . S
Co1012 N1023 1.995 . S
Co1012 N1028 2.282 . S
Co1012 N1034 2.282 . S
N1013 Co1012 1.995 . S
N1013 C1014 1.376 . S
N1013 C1017 1.383 . S
C1014 N1013 1.376 . S
C1014 C1015 1.446 . S
C1014 C1044 1.391 . S
C1015 C1014 1.446 . S
C1015 C1016 1.339 . S
C1015 H1050 0.949 . S
C1016 C1015 1.339 . S
C1016 C1017 1.439 . S
C1016 H1051 0.950 . S
C1017 N1013 1.383 . S
C1017 C1016 1.439 . S
C1017 C1046 1.392 . S
N1018 Co1012 2.008 . S
N1018 C1019 1.376 . S
N1018 C1022 1.374 . S
C1019 N1018 1.376 . S
C1019 C1020 1.443 . S
C1019 C1046 1.389 . S
C1020 C1019 1.443 . S
C1020 C1021 1.340 . S
C1020 H1052 0.951 . S
C1021 C1020 1.340 . S
C1021 C1022 1.439 . S
C1021 H1053 0.950 . S
C1022 N1018 1.374 . S
C1022 C1021 1.439 . S
C1022 C1047 1.395 . S
N1023 Co1012 1.995 . S
N1023 C1024 1.376 . S
N1023 C1027 1.383 . S
C1024 N1023 1.376 . S
C1024 C1025 1.446 . S
C1024 C1047 1.391 . S
C1025 C1024 1.446 . S
C1025 C1026 1.339 . S
C1025 H1054 0.949 . S
C1026 C1025 1.339 . S
C1026 C1027 1.439 . S
C1026 H1055 0.950 . S
C1027 N1023 1.383 . S
C1027 C1026 1.439 . S
C1027 C1045 1.392 . S
N1028 Co1012 2.282 . S
N1028 C1031 1.332 . S
N1028 C1033 1.332 . S
C1029 C1030 1.386 . S
C1029 C1032 1.388 . S
C1030 C1029 1.386 . S
C1030 C1031 1.382 . S
C1030 H1056 0.950 . S
C1031 N1028 1.332 . S
C1031 C1030 1.382 . S
C1031 H1042 0.952 . S
C1032 C1029 1.388 . S
C1032 C1033 1.382 . S
C1032 H1057 0.950 . S
C1033 N1028 1.332 . S
C1033 C1032 1.382 . S
C1033 H1043 0.948 . S
N1034 Co1012 2.282 . S
N1034 C1038 1.332 . S
N1034 C1039 1.332 . S
C1035 C1036 1.388 . S
C1035 C1039 1.382 . S
C1035 H1058 0.950 . S
C1036 C1035 1.388 . S
C1036 C1037 1.386 . S
C1037 C1036 1.386 . S
C1037 C1038 1.382 . S
C1037 H1059 0.950 . S
C1038 N1034 1.332 . S
C1038 C1037 1.382 . S
C1038 H1040 0.952 . S
C1039 N1034 1.332 . S
C1039 C1035 1.382 . S
C1039 H1041 0.948 . S
H1040 C1038 0.952 . S
H1041 C1039 0.948 . S
H1042 C1031 0.952 . S
H1043 C1033 0.948 . S
C1044 C1010 1.395 . S
C1044 C1014 1.391 . S
C1045 C1007 1.389 . S
C1045 C1027 1.392 . S
C1046 C1017 1.392 . S
C1046 C1019 1.389 . S
C1047 C1022 1.395 . S
C1047 C1024 1.391 . S
H1048 C1008 0.951 . S
H1049 C1009 0.950 . S
H1050 C1015 0.949 . S
H1051 C1016 0.950 . S
H1052 C1020 0.951 . S
H1053 C1021 0.950 . S
H1054 C1025 0.949 . S
H1055 C1026 0.950 . S
H1056 C1030 0.950 . S
H1057 C1032 0.950 . S
H1058 C1035 0.950 . S
H1059 C1037 0.950 . S
C1060 C1061 1.443 . S
C1060 N1064 1.376 . S
C1060 C1098 1.389 . S
C1061 C1060 1.443 . S
C1061 C1062 1.340 . S
C1061 H1101 0.951 . S
C1062 C1061 1.340 . S
C1062 C1063 1.439 . S
C1062 H1102 0.950 . S
C1063 C1062 1.439 . S
C1063 N1064 1.374 . S
C1063 C1097 1.395 . S
N1064 C1060 1.376 . S
N1064 C1063 1.374 . S
N1064 Co1065 2.008 . S
Co1065 N1064 2.008 . S
Co1065 N1066 1.995 . S
Co1065 N1071 2.008 . S
Co1065 N1076 1.995 . S
Co1065 N1081 2.282 . S
Co1065 N1087 2.282 . S
N1066 Co1065 1.995 . S
N1066 C1067 1.376 . S
N1066 C1070 1.383 . S
C1067 N1066 1.376 . S
C1067 C1068 1.446 . S
C1067 C1097 1.391 . S
C1068 C1067 1.446 . S
C1068 C1069 1.339 . S
C1068 H1103 0.949 . S
C1069 C1068 1.339 . S
C1069 C1070 1.439 . S
C1069 H1104 0.950 . S
C1070 N1066 1.383 . S
C1070 C1069 1.439 . S
C1070 C1099 1.392 . S
N1071 Co1065 2.008 . S
N1071 C1072 1.376 . S
N1071 C1075 1.374 . S
C1072 N1071 1.376 . S
C1072 C1073 1.443 . S
C1072 C1099 1.389 . S
C1073 C1072 1.443 . S
C1073 C1074 1.340 . S
C1073 H1105 0.951 . S
C1074 C1073 1.340 . S
C1074 C1075 1.439 . S
C1074 H1106 0.950 . S
C1075 N1071 1.374 . S
C1075 C1074 1.439 . S
C1075 C1100 1.395 . S
N1076 Co1065 1.995 . S
N1076 C1077 1.376 . S
N1076 C1080 1.383 . S
C1077 N1076 1.376 . S
C1077 C1078 1.446 . S
C1077 C1100 1.391 . S
C1078 C1077 1.446 . S
C1078 C1079 1.339 . S
C1078 H1107 0.949 . S
C1079 C1078 1.339 . S
C1079 C1080 1.439 . S
C1079 H1108 0.950 . S
C1080 N1076 1.383 . S
C1080 C1079 1.439 . S
C1080 C1098 1.392 . S
N1081 Co1065 2.282 . S
N1081 C1084 1.332 . S
N1081 C1086 1.332 . S
C1082 C1083 1.386 . S
C1082 C1085 1.388 . S
C1083 C1082 1.386 . S
C1083 C1084 1.382 . S
C1083 H1109 0.950 . S
C1084 N1081 1.332 . S
C1084 C1083 1.382 . S
C1084 H1095 0.952 . S
C1085 C1082 1.388 . S
C1085 C1086 1.382 . S
C1085 H1110 0.950 . S
C1086 N1081 1.332 . S
C1086 C1085 1.382 . S
C1086 H1096 0.948 . S
N1087 Co1065 2.282 . S
N1087 C1091 1.332 . S
N1087 C1092 1.332 . S
C1088 C1089 1.388 . S
C1088 C1092 1.382 . S
C1088 H1111 0.950 . S
C1089 C1088 1.388 . S
C1089 C1090 1.386 . S
C1090 C1089 1.386 . S
C1090 C1091 1.382 . S
C1090 H1112 0.950 . S
C1091 N1087 1.332 . S
C1091 C1090 1.382 . S
C1091 H1093 0.952 . S
C1092 N1087 1.332 . S
C1092 C1088 1.382 . S
C1092 H1094 0.948 . S
H1093 C1091 0.952 . S
H1094 C1092 0.948 . S
H1095 C1084 0.952 . S
H1096 C1086 0.948 . S
C1097 C1063 1.395 . S
C1097 C1067 1.391 . S
C1098 C1060 1.389 . S
C1098 C1080 1.392 . S
C1099 C1070 1.392 . S
C1099 C1072 1.389 . S
C1100 C1075 1.395 . S
C1100 C1077 1.391 . S
H1101 C1061 0.951 . S
H1102 C1062 0.950 . S
H1103 C1068 0.949 . S
H1104 C1069 0.950 . S
H1105 C1073 0.951 . S
H1106 C1074 0.950 . S
H1107 C1078 0.949 . S
H1108 C1079 0.950 . S
H1109 C1083 0.950 . S
H1110 C1085 0.950 . S
H1111 C1088 0.950 . S
H1112 C1090 0.950 . S
C1113 C1114 1.443 . S
C1113 N1117 1.376 . S
C1113 C1151 1.389 . S
C1114 C1113 1.443 . S
C1114 C1115 1.340 . S
C1114 H1154 0.951 . S
C1115 C1114 1.340 . S
C1115 C1116 1.439 . S
C1115 H1155 0.950 . S
C1116 C1115 1.439 . S
C1116 N1117 1.374 . S
C1116 C1150 1.395 . S
N1117 C1113 1.376 . S
N1117 C1116 1.374 . S
N1117 Co1118 2.008 . S
Co1118 N1117 2.008 . S
Co1118 N1119 1.995 . S
Co1118 N1124 2.008 . S
Co1118 N1129 1.995 . S
Co1118 N1134 2.282 . S
Co1118 N1140 2.282 . S
N1119 Co1118 1.995 . S
N1119 C1120 1.376 . S
N1119 C1123 1.383 . S
C1120 N1119 1.376 . S
C1120 C1121 1.446 . S
C1120 C1150 1.391 . S
C1121 C1120 1.446 . S
C1121 C1122 1.339 . S
C1121 H1156 0.949 . S
C1122 C1121 1.339 . S
C1122 C1123 1.439 . S
C1122 H1157 0.950 . S
C1123 N1119 1.383 . S
C1123 C1122 1.439 . S
C1123 C1152 1.392 . S
N1124 Co1118 2.008 . S
N1124 C1125 1.376 . S
N1124 C1128 1.374 . S
C1125 N1124 1.376 . S
C1125 C1126 1.443 . S
C1125 C1152 1.389 . S
C1126 C1125 1.443 . S
C1126 C1127 1.340 . S
C1126 H1158 0.951 . S
C1127 C1126 1.340 . S
C1127 C1128 1.439 . S
C1127 H1159 0.950 . S
C1128 N1124 1.374 . S
C1128 C1127 1.439 . S
C1128 C1153 1.395 . S
N1129 Co1118 1.995 . S
N1129 C1130 1.376 . S
N1129 C1133 1.383 . S
C1130 N1129 1.376 . S
C1130 C1131 1.446 . S
C1130 C1153 1.391 . S
C1131 C1130 1.446 . S
C1131 C1132 1.339 . S
C1131 H1160 0.949 . S
C1132 C1131 1.339 . S
C1132 C1133 1.439 . S
C1132 H1161 0.950 . S
C1133 N1129 1.383 . S
C1133 C1132 1.439 . S
C1133 C1151 1.392 . S
N1134 Co1118 2.282 . S
N1134 C1137 1.332 . S
N1134 C1139 1.332 . S
C1135 C1136 1.386 . S
C1135 C1138 1.388 . S
C1136 C1135 1.386 . S
C1136 C1137 1.382 . S
C1136 H1162 0.950 . S
C1137 N1134 1.332 . S
C1137 C1136 1.382 . S
C1137 H1148 0.952 . S
C1138 C1135 1.388 . S
C1138 C1139 1.382 . S
C1138 H1163 0.950 1_455 S
C1139 N1134 1.332 . S
C1139 C1138 1.382 . S
C1139 H1149 0.948 . S
N1140 Co1118 2.282 . S
N1140 C1144 1.332 . S
N1140 C1145 1.332 . S
C1141 C1142 1.388 . S
C1141 C1145 1.382 . S
C1141 H1164 0.950 . S
C1142 C1141 1.388 . S
C1142 C1143 1.386 . S
C1143 C1142 1.386 . S
C1143 C1144 1.382 . S
C1143 H1165 0.950 . S
C1144 N1140 1.332 . S
C1144 C1143 1.382 . S
C1144 H1146 0.952 . S
C1145 N1140 1.332 . S
C1145 C1141 1.382 . S
C1145 H1147 0.948 . S
H1146 C1144 0.952 . S
H1147 C1145 0.948 . S
H1148 C1137 0.952 . S
H1149 C1139 0.948 . S
C1150 C1116 1.395 . S
C1150 C1120 1.391 . S
C1151 C1113 1.389 . S
C1151 C1133 1.392 . S
C1152 C1123 1.392 . S
C1152 C1125 1.389 . S
C1153 C1128 1.395 . S
C1153 C1130 1.391 . S
H1154 C1114 0.951 . S
H1155 C1115 0.950 . S
H1156 C1121 0.949 . S
H1157 C1122 0.950 . S
H1158 C1126 0.951 . S
H1159 C1127 0.950 . S
H1160 C1131 0.949 . S
H1161 C1132 0.950 . S
H1162 C1136 0.950 . S
H1163 C1138 0.950 1_655 S
H1164 C1141 0.950 . S
H1165 C1143 0.950 . S
C1166 C1167 1.443 . S
C1166 N1170 1.376 . S
C1166 C1204 1.389 . S
C1167 C1166 1.443 . S
C1167 C1168 1.340 . S
C1167 H1207 0.951 . S
C1168 C1167 1.340 . S
C1168 C1169 1.439 . S
C1168 H1208 0.950 . S
C1169 C1168 1.439 . S
C1169 N1170 1.374 . S
C1169 C1203 1.395 . S
N1170 C1166 1.376 . S
N1170 C1169 1.374 . S
N1170 Co1171 2.008 . S
Co1171 N1170 2.008 . S
Co1171 N1172 1.995 . S
Co1171 N1177 2.008 . S
Co1171 N1182 1.995 . S
Co1171 N1187 2.282 . S
Co1171 N1193 2.282 . S
N1172 Co1171 1.995 . S
N1172 C1173 1.376 . S
N1172 C1176 1.383 . S
C1173 N1172 1.376 . S
C1173 C1174 1.446 . S
C1173 C1203 1.391 . S
C1174 C1173 1.446 . S
C1174 C1175 1.339 . S
C1174 H1209 0.949 . S
C1175 C1174 1.339 . S
C1175 C1176 1.439 . S
C1175 H1210 0.950 . S
C1176 N1172 1.383 . S
C1176 C1175 1.439 . S
C1176 C1205 1.392 . S
N1177 Co1171 2.008 . S
N1177 C1178 1.376 . S
N1177 C1181 1.374 . S
C1178 N1177 1.376 . S
C1178 C1179 1.443 . S
C1178 C1205 1.389 . S
C1179 C1178 1.443 . S
C1179 C1180 1.340 . S
C1179 H1211 0.951 . S
C1180 C1179 1.340 . S
C1180 C1181 1.439 . S
C1180 H1212 0.950 . S
C1181 N1177 1.374 . S
C1181 C1180 1.439 . S
C1181 C1206 1.395 . S
N1182 Co1171 1.995 . S
N1182 C1183 1.376 . S
N1182 C1186 1.383 . S
C1183 N1182 1.376 . S
C1183 C1184 1.446 . S
C1183 C1206 1.391 . S
C1184 C1183 1.446 . S
C1184 C1185 1.339 . S
C1184 H1213 0.949 . S
C1185 C1184 1.339 . S
C1185 C1186 1.439 . S
C1185 H1214 0.950 . S
C1186 N1182 1.383 . S
C1186 C1185 1.439 . S
C1186 C1204 1.392 . S
N1187 Co1171 2.282 . S
N1187 C1190 1.332 . S
N1187 C1192 1.332 . S
C1188 C1189 1.386 . S
C1188 C1191 1.388 . S
C1189 C1188 1.386 . S
C1189 C1190 1.382 . S
C1189 H1215 0.950 . S
C1190 N1187 1.332 . S
C1190 C1189 1.382 . S
C1190 H1201 0.952 . S
C1191 C1188 1.388 . S
C1191 C1192 1.382 . S
C1191 H1216 0.950 . S
C1192 N1187 1.332 . S
C1192 C1191 1.382 . S
C1192 H1202 0.948 . S
N1193 Co1171 2.282 . S
N1193 C1197 1.332 . S
N1193 C1198 1.332 . S
C1194 C1195 1.388 . S
C1194 C1198 1.382 . S
C1194 H1217 0.950 . S
C1195 C1194 1.388 . S
C1195 C1196 1.386 . S
C1196 C1195 1.386 . S
C1196 C1197 1.382 . S
C1196 H1218 0.950 . S
C1197 N1193 1.332 . S
C1197 C1196 1.382 . S
C1197 H1199 0.952 . S
C1198 N1193 1.332 . S
C1198 C1194 1.382 . S
C1198 H1200 0.948 . S
H1199 C1197 0.952 . S
H1200 C1198 0.948 . S
H1201 C1190 0.952 . S
H1202 C1192 0.948 . S
C1203 C1169 1.395 . S
C1203 C1173 1.391 . S
C1204 C1166 1.389 . S
C1204 C1186 1.392 . S
C1205 C1176 1.392 . S
C1205 C1178 1.389 . S
C1206 C1181 1.395 . S
C1206 C1183 1.391 . S
H1207 C1167 0.951 . S
H1208 C1168 0.950 . S
H1209 C1174 0.949 . S
H1210 C1175 0.950 . S
H1211 C1179 0.951 . S
H1212 C1180 0.950 . S
H1213 C1184 0.949 . S
H1214 C1185 0.950 . S
H1215 C1189 0.950 . S
H1216 C1191 0.950 . S
H1217 C1194 0.950 . S
H1218 C1196 0.950 . S
C1219 C1220 1.443 . S
C1219 N1223 1.376 . S
C1219 C1257 1.389 . S
C1220 C1219 1.443 . S
C1220 C1221 1.340 . S
C1220 H1260 0.951 . S
C1221 C1220 1.340 . S
C1221 C1222 1.439 . S
C1221 H1261 0.950 . S
C1222 C1221 1.439 . S
C1222 N1223 1.374 . S
C1222 C1256 1.395 . S
N1223 C1219 1.376 . S
N1223 C1222 1.374 . S
N1223 Co1224 2.008 . S
Co1224 N1223 2.008 . S
Co1224 N1225 1.995 . S
Co1224 N1230 2.008 . S
Co1224 N1235 1.995 . S
Co1224 N1240 2.282 . S
Co1224 N1246 2.282 . S
N1225 Co1224 1.995 . S
N1225 C1226 1.376 . S
N1225 C1229 1.383 . S
C1226 N1225 1.376 . S
C1226 C1227 1.446 . S
C1226 C1256 1.391 . S
C1227 C1226 1.446 . S
C1227 C1228 1.339 . S
C1227 H1262 0.949 . S
C1228 C1227 1.339 . S
C1228 C1229 1.439 . S
C1228 H1263 0.950 . S
C1229 N1225 1.383 . S
C1229 C1228 1.439 . S
C1229 C1258 1.392 . S
N1230 Co1224 2.008 . S
N1230 C1231 1.376 . S
N1230 C1234 1.374 . S
C1231 N1230 1.376 . S
C1231 C1232 1.443 . S
C1231 C1258 1.389 . S
C1232 C1231 1.443 . S
C1232 C1233 1.340 . S
C1232 H1264 0.951 . S
C1233 C1232 1.340 . S
C1233 C1234 1.439 . S
C1233 H1265 0.950 . S
C1234 N1230 1.374 . S
C1234 C1233 1.439 . S
C1234 C1259 1.395 . S
N1235 Co1224 1.995 . S
N1235 C1236 1.376 . S
N1235 C1239 1.383 . S
C1236 N1235 1.376 . S
C1236 C1237 1.446 . S
C1236 C1259 1.391 . S
C1237 C1236 1.446 . S
C1237 C1238 1.339 . S
C1237 H1266 0.949 . S
C1238 C1237 1.339 . S
C1238 C1239 1.439 . S
C1238 H1267 0.950 . S
C1239 N1235 1.383 . S
C1239 C1238 1.439 . S
C1239 C1257 1.392 . S
N1240 Co1224 2.282 . S
N1240 C1243 1.332 . S
N1240 C1245 1.332 . S
C1241 C1242 1.386 . S
C1241 C1244 1.388 . S
C1242 C1241 1.386 . S
C1242 C1243 1.382 . S
C1242 H1268 0.950 . S
C1243 N1240 1.332 . S
C1243 C1242 1.382 . S
C1243 H1254 0.952 . S
C1244 C1241 1.388 . S
C1244 C1245 1.382 . S
C1244 H1269 0.950 . S
C1245 N1240 1.332 . S
C1245 C1244 1.382 . S
C1245 H1255 0.948 . S
N1246 Co1224 2.282 . S
N1246 C1250 1.332 . S
N1246 C1251 1.332 . S
C1247 C1248 1.388 . S
C1247 C1251 1.382 . S
C1247 H1270 0.950 . S
C1248 C1247 1.388 . S
C1248 C1249 1.386 . S
C1249 C1248 1.386 . S
C1249 C1250 1.382 . S
C1249 H1271 0.950 . S
C1250 N1246 1.332 . S
C1250 C1249 1.382 . S
C1250 H1252 0.952 . S
C1251 N1246 1.332 . S
C1251 C1247 1.382 . S
C1251 H1253 0.948 . S
H1252 C1250 0.952 . S
H1253 C1251 0.948 . S
H1254 C1243 0.952 . S
H1255 C1245 0.948 . S
C1256 C1222 1.395 . S
C1256 C1226 1.391 . S
C1257 C1219 1.389 . S
C1257 C1239 1.392 . S
C1258 C1229 1.392 . S
C1258 C1231 1.389 . S
C1259 C1234 1.395 . S
C1259 C1236 1.391 . S
H1260 C1220 0.951 . S
H1261 C1221 0.950 . S
H1262 C1227 0.949 . S
H1263 C1228 0.950 . S
H1264 C1232 0.951 . S
H1265 C1233 0.950 . S
H1266 C1237 0.949 . S
H1267 C1238 0.950 . S
H1268 C1242 0.950 . S
H1269 C1244 0.950 . S
H1270 C1247 0.950 . S
H1271 C1249 0.950 . S
C1272 C1273 1.369 . S
C1272 C1274 1.419 . S
C1272 H1276 0.930 . S
C1273 C1272 1.369 . S
C1273 C1282 1.429 . S
C1274 C1272 1.419 . S
C1274 C1275 1.363 . S
C1274 H1277 0.929 . S
C1275 C1274 1.363 . S
C1275 C1281 1.428 . S
H1276 C1272 0.930 . S
H1277 C1274 0.929 . S
S1278 N1279 1.613 . S
S1278 N1280 1.610 . S
N1279 S1278 1.613 . S
N1279 C1282 1.350 . S
N1280 S1278 1.610 . S
N1280 C1281 1.351 . S
C1281 C1275 1.428 . S
C1281 N1280 1.351 . S
C1281 C1282 1.434 . S
C1282 C1273 1.429 . S
C1282 N1279 1.350 . S
C1282 C1281 1.434 . S
C1283 C1284 1.369 . S
C1283 C1285 1.419 . S
C1283 H1287 0.930 . S
C1284 C1283 1.369 . S
C1284 C1293 1.429 . S
C1285 C1283 1.419 . S
C1285 C1286 1.363 . S
C1285 H1288 0.929 . S
C1286 C1285 1.363 . S
C1286 C1292 1.428 . S
H1287 C1283 0.930 . S
H1288 C1285 0.929 . S
S1289 N1290 1.613 . S
S1289 N1291 1.610 . S
N1290 S1289 1.613 . S
N1290 C1293 1.350 . S
N1291 S1289 1.610 . S
N1291 C1292 1.351 . S
C1292 C1286 1.428 . S
C1292 N1291 1.351 . S
C1292 C1293 1.434 . S
C1293 C1284 1.429 . S
C1293 N1290 1.350 . S
C1293 C1292 1.434 . S
C1294 C1295 1.369 . S
C1294 C1296 1.419 . S
C1294 H1298 0.930 . S
C1295 C1294 1.369 . S
C1295 C1304 1.429 . S
C1296 C1294 1.419 . S
C1296 C1297 1.363 . S
C1296 H1299 0.929 . S
C1297 C1296 1.363 . S
C1297 C1303 1.428 . S
H1298 C1294 0.930 . S
H1299 C1296 0.929 . S
S1300 N1301 1.613 . S
S1300 N1302 1.610 . S
N1301 S1300 1.613 . S
N1301 C1304 1.350 . S
N1302 S1300 1.610 . S
N1302 C1303 1.351 . S
C1303 C1297 1.428 . S
C1303 N1302 1.351 . S
C1303 C1304 1.434 . S
C1304 C1295 1.429 . S
C1304 N1301 1.350 . S
C1304 C1303 1.434 . S
C1305 C1306 1.369 . S
C1305 C1307 1.419 . S
C1305 H1309 0.930 . S
C1306 C1305 1.369 . S
C1306 C1315 1.429 . S
C1307 C1305 1.419 . S
C1307 C1308 1.363 . S
C1307 H1310 0.929 . S
C1308 C1307 1.363 . S
C1308 C1314 1.428 . S
H1309 C1305 0.930 . S
H1310 C1307 0.929 . S
S1311 N1312 1.613 . S
S1311 N1313 1.610 . S
N1312 S1311 1.613 . S
N1312 C1315 1.350 . S
N1313 S1311 1.610 . S
N1313 C1314 1.351 . S
C1314 C1308 1.428 . S
C1314 N1313 1.351 . S
C1314 C1315 1.434 . S
C1315 C1306 1.429 . S
C1315 N1312 1.350 . S
C1315 C1314 1.434 . S
C1316 C1317 1.369 . S
C1316 C1318 1.419 . S
C1316 H1320 0.930 . S
C1317 C1316 1.369 . S
C1317 C1326 1.429 . S
C1318 C1316 1.419 . S
C1318 C1319 1.363 . S
C1318 H1321 0.929 . S
C1319 C1318 1.363 . S
C1319 C1325 1.428 . S
H1320 C1316 0.930 . S
H1321 C1318 0.929 . S
S1322 N1323 1.613 . S
S1322 N1324 1.610 . S
N1323 S1322 1.613 . S
N1323 C1326 1.350 . S
N1324 S1322 1.610 . S
N1324 C1325 1.351 . S
C1325 C1319 1.428 . S
C1325 N1324 1.351 . S
C1325 C1326 1.434 . S
C1326 C1317 1.429 . S
C1326 N1323 1.350 . S
C1326 C1325 1.434 . S
C1327 C1328 1.369 . S
C1327 C1329 1.419 . S
C1327 H1331 0.930 . S
C1328 C1327 1.369 . S
C1328 C1337 1.429 . S
C1329 C1327 1.419 . S
C1329 C1330 1.363 . S
C1329 H1332 0.929 . S
C1330 C1329 1.363 . S
C1330 C1336 1.428 . S
H1331 C1327 0.930 . S
H1332 C1329 0.929 . S
S1333 N1334 1.613 . S
S1333 N1335 1.610 . S
N1334 S1333 1.613 . S
N1334 C1337 1.350 . S
N1335 S1333 1.610 . S
N1335 C1336 1.351 . S
C1336 C1330 1.428 . S
C1336 N1335 1.351 . S
C1336 C1337 1.434 . S
C1337 C1328 1.429 . S
C1337 N1334 1.350 . S
C1337 C1336 1.434 . S
C1338 C1339 1.369 . S
C1338 C1340 1.419 . S
C1338 H1342 0.930 . S
C1339 C1338 1.369 . S
C1339 C1348 1.429 . S
C1340 C1338 1.419 . S
C1340 C1341 1.363 . S
C1340 H1343 0.929 . S
C1341 C1340 1.363 . S
C1341 C1347 1.428 . S
H1342 C1338 0.930 . S
H1343 C1340 0.929 . S
S1344 N1345 1.613 . S
S1344 N1346 1.610 . S
N1345 S1344 1.613 . S
N1345 C1348 1.350 . S
N1346 S1344 1.610 . S
N1346 C1347 1.351 . S
C1347 C1341 1.428 . S
C1347 N1346 1.351 . S
C1347 C1348 1.434 . S
C1348 C1339 1.429 . S
C1348 N1345 1.350 . S
C1348 C1347 1.434 . S
C1349 C1350 1.369 . S
C1349 C1351 1.419 . S
C1349 H1353 0.930 . S
C1350 C1349 1.369 . S
C1350 C1359 1.429 . S
C1351 C1349 1.419 . S
C1351 C1352 1.363 . S
C1351 H1354 0.929 . S
C1352 C1351 1.363 . S
C1352 C1358 1.428 . S
H1353 C1349 0.930 . S
H1354 C1351 0.929 . S
S1355 N1356 1.613 . S
S1355 N1357 1.610 . S
N1356 S1355 1.613 . S
N1356 C1359 1.350 . S
N1357 S1355 1.610 . S
N1357 C1358 1.351 . S
C1358 C1352 1.428 . S
C1358 N1357 1.351 . S
C1358 C1359 1.434 . S
C1359 C1350 1.429 . S
C1359 N1356 1.350 . S
C1359 C1358 1.434 . S
C1360 C1361 1.369 . S
C1360 C1362 1.419 . S
C1360 H1364 0.930 . S
C1361 C1360 1.369 . S
C1361 C1370 1.429 . S
C1362 C1360 1.419 . S
C1362 C1363 1.363 . S
C1362 H1365 0.929 . S
C1363 C1362 1.363 . S
C1363 C1369 1.428 . S
H1364 C1360 0.930 . S
H1365 C1362 0.929 . S
S1366 N1367 1.613 . S
S1366 N1368 1.610 . S
N1367 S1366 1.613 . S
N1367 C1370 1.350 . S
N1368 S1366 1.610 . S
N1368 C1369 1.351 . S
C1369 C1363 1.428 . S
C1369 N1368 1.351 . S
C1369 C1370 1.434 . S
C1370 C1361 1.429 . S
C1370 N1367 1.350 . S
C1370 C1369 1.434 . S
C1371 C1372 1.369 . S
C1371 C1373 1.419 . S
C1371 H1375 0.930 . S
C1372 C1371 1.369 . S
C1372 C1381 1.429 . S
C1373 C1371 1.419 . S
C1373 C1374 1.363 . S
C1373 H1376 0.929 . S
C1374 C1373 1.363 . S
C1374 C1380 1.428 . S
H1375 C1371 0.930 . S
H1376 C1373 0.929 . S
S1377 N1378 1.613 . S
S1377 N1379 1.610 . S
N1378 S1377 1.613 . S
N1378 C1381 1.350 . S
N1379 S1377 1.610 . S
N1379 C1380 1.351 . S
C1380 C1374 1.428 . S
C1380 N1379 1.351 . S
C1380 C1381 1.434 . S
C1381 C1372 1.429 . S
C1381 N1378 1.350 . S
C1381 C1380 1.434 . S
C1382 C1383 1.369 . S
C1382 C1384 1.419 . S
C1382 H1386 0.930 . S
C1383 C1382 1.369 . S
C1383 C1392 1.429 . S
C1384 C1382 1.419 . S
C1384 C1385 1.363 . S
C1384 H1387 0.929 . S
C1385 C1384 1.363 . S
C1385 C1391 1.428 . S
H1386 C1382 0.930 . S
H1387 C1384 0.929 . S
S1388 N1389 1.613 . S
S1388 N1390 1.610 . S
N1389 S1388 1.613 . S
N1389 C1392 1.350 . S
N1390 S1388 1.610 . S
N1390 C1391 1.351 . S
C1391 C1385 1.428 . S
C1391 N1390 1.351 . S
C1391 C1392 1.434 . S
C1392 C1383 1.429 . S
C1392 N1389 1.350 . S
C1392 C1391 1.434 . S
C1393 C1394 1.369 . S
C1393 C1395 1.419 . S
C1393 H1397 0.930 . S
C1394 C1393 1.369 . S
C1394 C1403 1.429 . S
C1395 C1393 1.419 . S
C1395 C1396 1.363 . S
C1395 H1398 0.929 . S
C1396 C1395 1.363 . S
C1396 C1402 1.428 . S
H1397 C1393 0.930 . S
H1398 C1395 0.929 . S
S1399 N1400 1.613 . S
S1399 N1401 1.610 . S
N1400 S1399 1.613 . S
N1400 C1403 1.350 . S
N1401 S1399 1.610 . S
N1401 C1402 1.351 . S
C1402 C1396 1.428 . S
C1402 N1401 1.351 . S
C1402 C1403 1.434 . S
C1403 C1394 1.429 . S
C1403 N1400 1.350 . S
C1403 C1402 1.434 . S
C1404 C1405 1.369 . S
C1404 C1406 1.419 . S
C1404 H1408 0.930 . S
C1405 C1404 1.369 . S
C1405 C1414 1.429 . S
C1406 C1404 1.419 . S
C1406 C1407 1.363 . S
C1406 H1409 0.929 . S
C1407 C1406 1.363 . S
C1407 C1413 1.428 . S
H1408 C1404 0.930 . S
H1409 C1406 0.929 . S
S1410 N1411 1.613 . S
S1410 N1412 1.610 . S
N1411 S1410 1.613 . S
N1411 C1414 1.350 . S
N1412 S1410 1.610 . S
N1412 C1413 1.351 . S
C1413 C1407 1.428 . S
C1413 N1412 1.351 . S
C1413 C1414 1.434 . S
C1414 C1405 1.429 . S
C1414 N1411 1.350 . S
C1414 C1413 1.434 . S
C1415 C1416 1.369 . S
C1415 C1417 1.419 . S
C1415 H1419 0.930 . S
C1416 C1415 1.369 . S
C1416 C1425 1.429 . S
C1417 C1415 1.419 . S
C1417 C1418 1.363 . S
C1417 H1420 0.929 . S
C1418 C1417 1.363 . S
C1418 C1424 1.428 . S
H1419 C1415 0.930 . S
H1420 C1417 0.929 . S
S1421 N1422 1.613 . S
S1421 N1423 1.610 . S
N1422 S1421 1.613 . S
N1422 C1425 1.350 . S
N1423 S1421 1.610 . S
N1423 C1424 1.351 . S
C1424 C1418 1.428 . S
C1424 N1423 1.351 . S
C1424 C1425 1.434 . S
C1425 C1416 1.429 . S
C1425 N1422 1.350 . S
C1425 C1424 1.434 . S
C1426 C1427 1.369 . S
C1426 C1428 1.419 . S
C1426 H1430 0.930 . S
C1427 C1426 1.369 . S
C1427 C1436 1.429 . S
C1428 C1426 1.419 . S
C1428 C1429 1.363 . S
C1428 H1431 0.929 . S
C1429 C1428 1.363 . S
C1429 C1435 1.428 . S
H1430 C1426 0.930 . S
H1431 C1428 0.929 . S
S1432 N1433 1.613 . S
S1432 N1434 1.610 . S
N1433 S1432 1.613 . S
N1433 C1436 1.350 . S
N1434 S1432 1.610 . S
N1434 C1435 1.351 . S
C1435 C1429 1.428 . S
C1435 N1434 1.351 . S
C1435 C1436 1.434 . S
C1436 C1427 1.429 . S
C1436 N1433 1.350 . S
C1436 C1435 1.434 . S
C1437 C1438 1.369 . S
C1437 C1439 1.419 . S
C1437 H1441 0.930 . S
C1438 C1437 1.369 . S
C1438 C1447 1.429 . S
C1439 C1437 1.419 . S
C1439 C1440 1.363 . S
C1439 H1442 0.929 . S
C1440 C1439 1.363 . S
C1440 C1446 1.428 . S
H1441 C1437 0.930 . S
H1442 C1439 0.929 . S
S1443 N1444 1.613 . S
S1443 N1445 1.610 . S
N1444 S1443 1.613 . S
N1444 C1447 1.350 . S
N1445 S1443 1.610 . S
N1445 C1446 1.351 . S
C1446 C1440 1.428 . S
C1446 N1445 1.351 . S
C1446 C1447 1.434 . S
C1447 C1438 1.429 . S
C1447 N1444 1.350 . S
C1447 C1446 1.434 . S
C1448 C1449 1.369 . S
C1448 C1450 1.419 . S
C1448 H1452 0.930 . S
C1449 C1448 1.369 . S
C1449 C1458 1.429 . S
C1450 C1448 1.419 . S
C1450 C1451 1.363 . S
C1450 H1453 0.929 . S
C1451 C1450 1.363 . S
C1451 C1457 1.428 . S
H1452 C1448 0.930 . S
H1453 C1450 0.929 . S
S1454 N1455 1.613 . S
S1454 N1456 1.610 . S
N1455 S1454 1.613 . S
N1455 C1458 1.350 . S
N1456 S1454 1.610 . S
N1456 C1457 1.351 . S
C1457 C1451 1.428 . S
C1457 N1456 1.351 . S
C1457 C1458 1.434 . S
C1458 C1449 1.429 . S
C1458 N1455 1.350 . S
C1458 C1457 1.434 . S
C1459 C1460 1.369 . S
C1459 C1461 1.419 . S
C1459 H1463 0.930 . S
C1460 C1459 1.369 . S
C1460 C1469 1.429 . S
C1461 C1459 1.419 . S
C1461 C1462 1.363 . S
C1461 H1464 0.929 . S
C1462 C1461 1.363 . S
C1462 C1468 1.428 . S
H1463 C1459 0.930 . S
H1464 C1461 0.929 . S
S1465 N1466 1.613 . S
S1465 N1467 1.610 . S
N1466 S1465 1.613 . S
N1466 C1469 1.350 . S
N1467 S1465 1.610 . S
N1467 C1468 1.351 . S
C1468 C1462 1.428 . S
C1468 N1467 1.351 . S
C1468 C1469 1.434 . S
C1469 C1460 1.429 . S
C1469 N1466 1.350 . S
C1469 C1468 1.434 . S
C1470 C1471 1.369 . S
C1470 C1472 1.419 . S
C1470 H1474 0.930 . S
C1471 C1470 1.369 . S
C1471 C1480 1.429 . S
C1472 C1470 1.419 . S
C1472 C1473 1.363 . S
C1472 H1475 0.929 . S
C1473 C1472 1.363 . S
C1473 C1479 1.428 . S
H1474 C1470 0.930 . S
H1475 C1472 0.929 . S
S1476 N1477 1.613 . S
S1476 N1478 1.610 . S
N1477 S1476 1.613 . S
N1477 C1480 1.350 . S
N1478 S1476 1.610 . S
N1478 C1479 1.351 . S
C1479 C1473 1.428 . S
C1479 N1478 1.351 . S
C1479 C1480 1.434 . S
C1480 C1471 1.429 . S
C1480 N1477 1.350 . S
C1480 C1479 1.434 . S
C1481 C1482 1.369 . S
C1481 C1483 1.419 . S
C1481 H1485 0.930 . S
C1482 C1481 1.369 . S
C1482 C1491 1.429 . S
C1483 C1481 1.419 . S
C1483 C1484 1.363 . S
C1483 H1486 0.929 . S
C1484 C1483 1.363 . S
C1484 C1490 1.428 . S
H1485 C1481 0.930 . S
H1486 C1483 0.929 . S
S1487 N1488 1.613 . S
S1487 N1489 1.610 . S
N1488 S1487 1.613 . S
N1488 C1491 1.350 . S
N1489 S1487 1.610 . S
N1489 C1490 1.351 . S
C1490 C1484 1.428 . S
C1490 N1489 1.351 . S
C1490 C1491 1.434 . S
C1491 C1482 1.429 . S
C1491 N1488 1.350 . S
C1491 C1490 1.434 . S
C1492 C1493 1.369 . S
C1492 C1494 1.419 . S
C1492 H1496 0.930 . S
C1493 C1492 1.369 . S
C1493 C1502 1.429 . S
C1494 C1492 1.419 . S
C1494 C1495 1.363 . S
C1494 H1497 0.929 . S
C1495 C1494 1.363 . S
C1495 C1501 1.428 . S
H1496 C1492 0.930 . S
H1497 C1494 0.929 . S
S1498 N1499 1.613 . S
S1498 N1500 1.610 . S
N1499 S1498 1.613 . S
N1499 C1502 1.350 . S
N1500 S1498 1.610 . S
N1500 C1501 1.351 . S
C1501 C1495 1.428 . S
C1501 N1500 1.351 . S
C1501 C1502 1.434 . S
C1502 C1493 1.429 . S
C1502 N1499 1.350 . S
C1502 C1501 1.434 . S
C1503 C1504 1.369 . S
C1503 C1505 1.419 . S
C1503 H1507 0.930 . S
C1504 C1503 1.369 . S
C1504 C1513 1.429 . S
C1505 C1503 1.419 . S
C1505 C1506 1.363 . S
C1505 H1508 0.929 . S
C1506 C1505 1.363 . S
C1506 C1512 1.428 . S
H1507 C1503 0.930 . S
H1508 C1505 0.929 . S
S1509 N1510 1.613 . S
S1509 N1511 1.610 . S
N1510 S1509 1.613 . S
N1510 C1513 1.350 . S
N1511 S1509 1.610 . S
N1511 C1512 1.351 . S
C1512 C1506 1.428 . S
C1512 N1511 1.351 . S
C1512 C1513 1.434 . S
C1513 C1504 1.429 . S
C1513 N1510 1.350 . S
C1513 C1512 1.434 . S
C1514 C1515 1.369 . S
C1514 C1516 1.419 . S
C1514 H1518 0.930 . S
C1515 C1514 1.369 . S
C1515 C1524 1.429 . S
C1516 C1514 1.419 . S
C1516 C1517 1.363 . S
C1516 H1519 0.929 . S
C1517 C1516 1.363 . S
C1517 C1523 1.428 . S
H1518 C1514 0.930 . S
H1519 C1516 0.929 . S
S1520 N1521 1.613 . S
S1520 N1522 1.610 . S
N1521 S1520 1.613 . S
N1521 C1524 1.350 . S
N1522 S1520 1.610 . S
N1522 C1523 1.351 . S
C1523 C1517 1.428 . S
C1523 N1522 1.351 . S
C1523 C1524 1.434 . S
C1524 C1515 1.429 . S
C1524 N1521 1.350 . S
C1524 C1523 1.434 . S
C1525 C1526 1.369 . S
C1525 C1527 1.419 . S
C1525 H1529 0.930 . S
C1526 C1525 1.369 . S
C1526 C1535 1.429 . S
C1527 C1525 1.419 . S
C1527 C1528 1.363 . S
C1527 H1530 0.929 . S
C1528 C1527 1.363 . S
C1528 C1534 1.428 . S
H1529 C1525 0.930 . S
H1530 C1527 0.929 . S
S1531 N1532 1.613 . S
S1531 N1533 1.610 . S
N1532 S1531 1.613 . S
N1532 C1535 1.350 . S
N1533 S1531 1.610 . S
N1533 C1534 1.351 . S
C1534 C1528 1.428 . S
C1534 N1533 1.351 . S
C1534 C1535 1.434 . S
C1535 C1526 1.429 . S
C1535 N1532 1.350 . S
C1535 C1534 1.434 . S
C1536 C1537 1.369 . S
C1536 C1538 1.419 . S
C1536 H1540 0.930 . S
C1537 C1536 1.369 . S
C1537 C1546 1.429 . S
C1538 C1536 1.419 . S
C1538 C1539 1.363 . S
C1538 H1541 0.929 . S
C1539 C1538 1.363 . S
C1539 C1545 1.428 . S
H1540 C1536 0.930 . S
H1541 C1538 0.929 . S
S1542 N1543 1.613 . S
S1542 N1544 1.610 . S
N1543 S1542 1.613 . S
N1543 C1546 1.350 . S
N1544 S1542 1.610 . S
N1544 C1545 1.351 . S
C1545 C1539 1.428 . S
C1545 N1544 1.351 . S
C1545 C1546 1.434 . S
C1546 C1537 1.429 . S
C1546 N1543 1.350 . S
C1546 C1545 1.434 . S
C1547 C1548 1.369 . S
C1547 C1549 1.419 . S
C1547 H1551 0.930 . S
C1548 C1547 1.369 . S
C1548 C1557 1.429 . S
C1549 C1547 1.419 . S
C1549 C1550 1.363 . S
C1549 H1552 0.929 . S
C1550 C1549 1.363 . S
C1550 C1556 1.428 . S
H1551 C1547 0.930 . S
H1552 C1549 0.929 . S
S1553 N1554 1.613 . S
S1553 N1555 1.610 . S
N1554 S1553 1.613 . S
N1554 C1557 1.350 . S
N1555 S1553 1.610 . S
N1555 C1556 1.351 . S
C1556 C1550 1.428 . S
C1556 N1555 1.351 . S
C1556 C1557 1.434 . S
C1557 C1548 1.429 . S
C1557 N1554 1.350 . S
C1557 C1556 1.434 . S
C1558 C1559 1.369 . S
C1558 C1560 1.419 . S
C1558 H1562 0.930 . S
C1559 C1558 1.369 . S
C1559 C1568 1.429 1_565 S
C1560 C1558 1.419 . S
C1560 C1561 1.363 1_565 S
C1560 H1563 0.929 . S
C1561 C1560 1.363 1_545 S
C1561 C1567 1.428 . S
H1562 C1558 0.930 . S
H1563 C1560 0.929 . S
S1564 N1565 1.613 . S
S1564 N1566 1.610 . S
N1565 S1564 1.613 . S
N1565 C1568 1.350 . S
N1566 S1564 1.610 . S
N1566 C1567 1.351 . S
C1567 C1561 1.428 . S
C1567 N1566 1.351 . S
C1567 C1568 1.434 . S
C1568 C1559 1.429 1_545 S
C1568 N1565 1.350 . S
C1568 C1567 1.434 . S
C1569 C1570 1.369 . S
C1569 C1571 1.419 . S
C1569 H1573 0.930 1_655 S
C1570 C1569 1.369 . S
C1570 C1579 1.429 . S
C1571 C1569 1.419 . S
C1571 C1572 1.363 . S
C1571 H1574 0.929 . S
C1572 C1571 1.363 . S
C1572 C1578 1.428 . S
H1573 C1569 0.930 1_455 S
H1574 C1571 0.929 . S
S1575 N1576 1.613 . S
S1575 N1577 1.610 . S
N1576 S1575 1.613 . S
N1576 C1579 1.350 . S
N1577 S1575 1.610 . S
N1577 C1578 1.351 . S
C1578 C1572 1.428 . S
C1578 N1577 1.351 . S
C1578 C1579 1.434 . S
C1579 C1570 1.429 . S
C1579 N1576 1.350 . S
C1579 C1578 1.434 . S
C1580 C1581 1.369 . S
C1580 C1582 1.419 . S
C1580 H1584 0.930 . S
C1581 C1580 1.369 . S
C1581 C1590 1.429 1_565 S
C1582 C1580 1.419 . S
C1582 C1583 1.363 1_565 S
C1582 H1585 0.929 . S
C1583 C1582 1.363 1_545 S
C1583 C1589 1.428 . S
H1584 C1580 0.930 . S
H1585 C1582 0.929 . S
S1586 N1587 1.613 . S
S1586 N1588 1.610 . S
N1587 S1586 1.613 . S
N1587 C1590 1.350 . S
N1588 S1586 1.610 . S
N1588 C1589 1.351 . S
C1589 C1583 1.428 . S
C1589 N1588 1.351 . S
C1589 C1590 1.434 . S
C1590 C1581 1.429 1_545 S
C1590 N1587 1.350 . S
C1590 C1589 1.434 . S
C1591 C1592 1.369 . S
C1591 C1593 1.419 . S
C1591 H1595 0.930 . S
C1592 C1591 1.369 . S
C1592 C1601 1.429 . S
C1593 C1591 1.419 . S
C1593 C1594 1.363 . S
C1593 H1596 0.929 . S
C1594 C1593 1.363 . S
C1594 C1600 1.428 . S
H1595 C1591 0.930 . S
H1596 C1593 0.929 . S
S1597 N1598 1.613 . S
S1597 N1599 1.610 . S
N1598 S1597 1.613 . S
N1598 C1601 1.350 . S
N1599 S1597 1.610 . S
N1599 C1600 1.351 . S
C1600 C1594 1.428 . S
C1600 N1599 1.351 . S
C1600 C1601 1.434 . S
C1601 C1592 1.429 . S
C1601 N1598 1.350 . S
C1601 C1600 1.434 . S
C1602 C1603 1.369 . S
C1602 C1604 1.419 . S
C1602 H1606 0.930 . S
C1603 C1602 1.369 . S
C1603 C1612 1.429 . S
C1604 C1602 1.419 . S
C1604 C1605 1.363 . S
C1604 H1607 0.929 . S
C1605 C1604 1.363 . S
C1605 C1611 1.428 . S
H1606 C1602 0.930 . S
H1607 C1604 0.929 . S
S1608 N1609 1.613 . S
S1608 N1610 1.610 . S
N1609 S1608 1.613 . S
N1609 C1612 1.350 . S
N1610 S1608 1.610 . S
N1610 C1611 1.351 . S
C1611 C1605 1.428 . S
C1611 N1610 1.351 . S
C1611 C1612 1.434 . S
C1612 C1603 1.429 . S
C1612 N1609 1.350 . S
C1612 C1611 1.434 . S
C1613 C1614 1.369 . S
C1613 C1615 1.419 . S
C1613 H1617 0.930 . S
C1614 C1613 1.369 . S
C1614 C1623 1.429 . S
C1615 C1613 1.419 . S
C1615 C1616 1.363 . S
C1615 H1618 0.929 . S
C1616 C1615 1.363 . S
C1616 C1622 1.428 . S
H1617 C1613 0.930 . S
H1618 C1615 0.929 . S
S1619 N1620 1.613 . S
S1619 N1621 1.610 . S
N1620 S1619 1.613 . S
N1620 C1623 1.350 . S
N1621 S1619 1.610 . S
N1621 C1622 1.351 . S
C1622 C1616 1.428 . S
C1622 N1621 1.351 . S
C1622 C1623 1.434 . S
C1623 C1614 1.429 . S
C1623 N1620 1.350 . S
C1623 C1622 1.434 . S
C1624 C1625 1.369 . S
C1624 C1626 1.419 . S
C1624 H1628 0.930 . S
C1625 C1624 1.369 . S
C1625 C1634 1.429 . S
C1626 C1624 1.419 . S
C1626 C1627 1.363 . S
C1626 H1629 0.929 . S
C1627 C1626 1.363 . S
C1627 C1633 1.428 . S
H1628 C1624 0.930 . S
H1629 C1626 0.929 . S
S1630 N1631 1.613 . S
S1630 N1632 1.610 . S
N1631 S1630 1.613 . S
N1631 C1634 1.350 . S
N1632 S1630 1.610 . S
N1632 C1633 1.351 . S
C1633 C1627 1.428 . S
C1633 N1632 1.351 . S
C1633 C1634 1.434 . S
C1634 C1625 1.429 . S
C1634 N1631 1.350 . S
C1634 C1633 1.434 . S
C1635 C1636 1.369 . S
C1635 C1637 1.419 . S
C1635 H1639 0.930 . S
C1636 C1635 1.369 . S
C1636 C1645 1.429 . S
C1637 C1635 1.419 . S
C1637 C1638 1.363 . S
C1637 H1640 0.929 . S
C1638 C1637 1.363 . S
C1638 C1644 1.428 . S
H1639 C1635 0.930 . S
H1640 C1637 0.929 . S
S1641 N1642 1.613 . S
S1641 N1643 1.610 1_554 S
N1642 S1641 1.613 . S
N1642 C1645 1.350 . S
N1643 S1641 1.610 1_556 S
N1643 C1644 1.351 1_556 S
C1644 C1638 1.428 . S
C1644 N1643 1.351 1_554 S
C1644 C1645 1.434 . S
C1645 C1636 1.429 . S
C1645 N1642 1.350 . S
C1645 C1644 1.434 . S
C1646 C1647 1.369 . S
C1646 C1648 1.419 . S
C1646 H1650 0.930 . S
C1647 C1646 1.369 . S
C1647 C1656 1.429 . S
C1648 C1646 1.419 . S
C1648 C1649 1.363 . S
C1648 H1651 0.929 . S
C1649 C1648 1.363 . S
C1649 C1655 1.428 . S
H1650 C1646 0.930 . S
H1651 C1648 0.929 . S
S1652 N1653 1.613 . S
S1652 N1654 1.610 . S
N1653 S1652 1.613 . S
N1653 C1656 1.350 . S
N1654 S1652 1.610 . S
N1654 C1655 1.351 . S
C1655 C1649 1.428 . S
C1655 N1654 1.351 . S
C1655 C1656 1.434 . S
C1656 C1647 1.429 . S
C1656 N1653 1.350 . S
C1656 C1655 1.434 . S
C1657 C1658 1.369 . S
C1657 C1659 1.419 . S
C1657 H1661 0.930 . S
C1658 C1657 1.369 . S
C1658 C1667 1.429 . S
C1659 C1657 1.419 . S
C1659 C1660 1.363 . S
C1659 H1662 0.929 . S
C1660 C1659 1.363 . S
C1660 C1666 1.428 . S
H1661 C1657 0.930 . S
H1662 C1659 0.929 . S
S1663 N1664 1.613 . S
S1663 N1665 1.610 . S
N1664 S1663 1.613 . S
N1664 C1667 1.350 . S
N1665 S1663 1.610 . S
N1665 C1666 1.351 . S
C1666 C1660 1.428 . S
C1666 N1665 1.351 . S
C1666 C1667 1.434 . S
C1667 C1658 1.429 . S
C1667 N1664 1.350 . S
C1667 C1666 1.434 . S
C1668 C1669 1.369 . S
C1668 C1670 1.419 . S
C1668 H1672 0.930 . S
C1669 C1668 1.369 . S
C1669 C1678 1.429 . S
C1670 C1668 1.419 . S
C1670 C1671 1.363 . S
C1670 H1673 0.929 . S
C1671 C1670 1.363 . S
C1671 C1677 1.428 . S
H1672 C1668 0.930 . S
H1673 C1670 0.929 . S
S1674 N1675 1.613 . S
S1674 N1676 1.610 . S
N1675 S1674 1.613 . S
N1675 C1678 1.350 . S
N1676 S1674 1.610 . S
N1676 C1677 1.351 . S
C1677 C1671 1.428 . S
C1677 N1676 1.351 . S
C1677 C1678 1.434 . S
C1678 C1669 1.429 . S
C1678 N1675 1.350 . S
C1678 C1677 1.434 . S
C1679 C1680 1.369 . S
C1679 C1681 1.419 . S
C1679 H1683 0.930 . S
C1680 C1679 1.369 . S
C1680 C1689 1.429 . S
C1681 C1679 1.419 . S
C1681 C1682 1.363 . S
C1681 H1684 0.929 . S
C1682 C1681 1.363 . S
C1682 C1688 1.428 . S
H1683 C1679 0.930 . S
H1684 C1681 0.929 . S
S1685 N1686 1.613 . S
S1685 N1687 1.610 . S
N1686 S1685 1.613 . S
N1686 C1689 1.350 . S
N1687 S1685 1.610 . S
N1687 C1688 1.351 . S
C1688 C1682 1.428 . S
C1688 N1687 1.351 . S
C1688 C1689 1.434 . S
C1689 C1680 1.429 . S
C1689 N1686 1.350 . S
C1689 C1688 1.434 . S
C1690 C1691 1.369 1_565 S
C1690 C1692 1.419 . S
C1690 H1694 0.930 . S
C1691 C1690 1.369 1_545 S
C1691 C1700 1.429 . S
C1692 C1690 1.419 . S
C1692 C1693 1.363 . S
C1692 H1695 0.929 . S
C1693 C1692 1.363 . S
C1693 C1699 1.428 . S
H1694 C1690 0.930 . S
H1695 C1692 0.929 . S
S1696 N1697 1.613 . S
S1696 N1698 1.610 . S
N1697 S1696 1.613 . S
N1697 C1700 1.350 . S
N1698 S1696 1.610 . S
N1698 C1699 1.351 1_545 S
C1699 C1693 1.428 . S
C1699 N1698 1.351 1_565 S
C1699 C1700 1.434 1_565 S
C1700 C1691 1.429 . S
C1700 N1697 1.350 . S
C1700 C1699 1.434 1_545 S
C1701 C1702 1.369 1_655 S
C1701 C1703 1.419 . S
C1701 H1705 0.930 . S
C1702 C1701 1.369 1_455 S
C1702 C1711 1.429 . S
C1703 C1701 1.419 . S
C1703 C1704 1.363 . S
C1703 H1706 0.929 . S
C1704 C1703 1.363 . S
C1704 C1710 1.428 1_655 S
H1705 C1701 0.930 . S
H1706 C1703 0.929 . S
S1707 N1708 1.613 . S
S1707 N1709 1.610 . S
N1708 S1707 1.613 . S
N1708 C1711 1.350 . S
N1709 S1707 1.610 . S
N1709 C1710 1.351 . S
C1710 C1704 1.428 1_455 S
C1710 N1709 1.351 . S
C1710 C1711 1.434 . S
C1711 C1702 1.429 . S
C1711 N1708 1.350 . S
C1711 C1710 1.434 . S
C1712 C1713 1.369 . S
C1712 C1714 1.419 . S
C1712 H1716 0.930 . S
C1713 C1712 1.369 . S
C1713 C1722 1.429 . S
C1714 C1712 1.419 . S
C1714 C1715 1.363 1_545 S
C1714 H1717 0.929 . S
C1715 C1714 1.363 1_565 S
C1715 C1721 1.421 1_565 S
H1716 C1712 0.930 . S
H1717 C1714 0.929 . S
S1718 N1719 1.613 . S
S1718 N1720 1.610 1_545 S
N1719 S1718 1.613 . S
N1719 C1722 1.350 . S
N1720 S1718 1.610 1_565 S
N1720 C1721 1.334 1_565 S
C1721 C1715 1.421 1_545 S
C1721 N1720 1.334 1_545 S
C1721 C1722 1.461 . S
C1722 C1713 1.429 . S
C1722 N1719 1.350 . S
C1722 C1721 1.461 . S
C1723 C1724 1.369 . S
C1723 C1725 1.419 . S
C1723 H1727 0.930 . S
C1724 C1723 1.369 . S
C1724 C1733 1.429 1_455 S
C1725 C1723 1.419 . S
C1725 C1726 1.363 1_455 S
C1725 H1728 0.929 . S
C1726 C1725 1.363 1_655 S
C1726 C1732 1.428 . S
H1727 C1723 0.930 . S
H1728 C1725 0.929 . S
S1729 N1730 1.613 . S
S1729 N1731 1.610 . S
N1730 S1729 1.613 . S
N1730 C1733 1.350 . S
N1731 S1729 1.610 . S
N1731 C1732 1.351 . S
C1732 C1726 1.428 . S
C1732 N1731 1.351 . S
C1732 C1733 1.434 . S
C1733 C1724 1.429 1_655 S
C1733 N1730 1.350 . S
C1733 C1732 1.434 . S
C1734 C1735 1.369 . S
C1734 C1736 1.419 . S
C1734 H1738 0.930 . S
C1735 C1734 1.369 . S
C1735 C1744 1.429 . S
C1736 C1734 1.419 . S
C1736 C1737 1.363 . S
C1736 H1739 0.929 . S
C1737 C1736 1.363 . S
C1737 C1743 1.428 . S
H1738 C1734 0.930 . S
H1739 C1736 0.929 . S
S1740 N1741 1.613 . S
S1740 N1742 1.610 . S
N1741 S1740 1.613 . S
N1741 C1744 1.350 . S
N1742 S1740 1.610 . S
N1742 C1743 1.351 . S
C1743 C1737 1.428 . S
C1743 N1742 1.351 . S
C1743 C1744 1.434 . S
C1744 C1735 1.429 . S
C1744 N1741 1.350 . S
C1744 C1743 1.434 . S
C1745 C1746 1.369 . S
C1745 C1747 1.419 . S
C1745 H1749 0.930 . S
C1746 C1745 1.369 . S
C1746 C1755 1.429 . S
C1747 C1745 1.419 . S
C1747 C1748 1.363 . S
C1747 H1750 0.929 . S
C1748 C1747 1.363 . S
C1748 C1754 1.428 . S
H1749 C1745 0.930 . S
H1750 C1747 0.929 . S
S1751 N1752 1.613 . S
S1751 N1753 1.610 . S
N1752 S1751 1.613 . S
N1752 C1755 1.350 . S
N1753 S1751 1.610 . S
N1753 C1754 1.351 . S
C1754 C1748 1.428 . S
C1754 N1753 1.351 . S
C1754 C1755 1.434 . S
C1755 C1746 1.429 . S
C1755 N1752 1.350 . S
C1755 C1754 1.434 . S
C1756 C1757 1.369 . S
C1756 C1758 1.419 . S
C1756 H1760 0.930 . S
C1757 C1756 1.369 . S
C1757 C1766 1.429 . S
C1758 C1756 1.419 . S
C1758 C1759 1.363 . S
C1758 H1761 0.929 . S
C1759 C1758 1.363 . S
C1759 C1765 1.428 . S
H1760 C1756 0.930 . S
H1761 C1758 0.929 . S
S1762 N1763 1.613 . S
S1762 N1764 1.610 . S
N1763 S1762 1.613 . S
N1763 C1766 1.350 . S
N1764 S1762 1.610 . S
N1764 C1765 1.351 . S
C1765 C1759 1.428 . S
C1765 N1764 1.351 . S
C1765 C1766 1.434 . S
C1766 C1757 1.429 . S
C1766 N1763 1.350 . S
C1766 C1765 1.434 . S
C1767 C1768 1.369 1_556 S
C1767 C1769 1.419 . S
C1767 H1771 0.930 . S
C1768 C1767 1.369 1_554 S
C1768 C1777 1.429 . S
C1769 C1767 1.419 . S
C1769 C1770 1.363 . S
C1769 H1772 0.929 . S
C1770 C1769 1.363 . S
C1770 C1776 1.428 1_556 S
H1771 C1767 0.930 . S
H1772 C1769 0.929 . S
S1773 N1774 1.613 . S
S1773 N1775 1.610 . S
N1774 S1773 1.613 . S
N1774 C1777 1.350 . S
N1775 S1773 1.610 . S
N1775 C1776 1.351 . S
C1776 C1770 1.428 1_554 S
C1776 N1775 1.351 . S
C1776 C1777 1.434 . S
C1777 C1768 1.429 . S
C1777 N1774 1.350 . S
C1777 C1776 1.434 . S
C1778 C1779 1.369 . S
C1778 C1780 1.419 . S
C1778 H1782 0.930 . S
C1779 C1778 1.369 . S
C1779 C1788 1.429 . S
C1780 C1778 1.419 . S
C1780 C1781 1.363 . S
C1780 H1783 0.929 . S
C1781 C1780 1.363 . S
C1781 C1787 1.428 . S
H1782 C1778 0.930 . S
H1783 C1780 0.929 . S
S1784 N1785 1.613 . S
S1784 N1786 1.610 . S
N1785 S1784 1.613 . S
N1785 C1788 1.350 . S
N1786 S1784 1.610 . S
N1786 C1787 1.351 . S
C1787 C1781 1.428 . S
C1787 N1786 1.351 . S
C1787 C1788 1.434 . S
C1788 C1779 1.429 . S
C1788 N1785 1.350 . S
C1788 C1787 1.434 . S
C1789 C1790 1.369 1_556 S
C1789 C1791 1.419 . S
C1789 H1793 0.930 . S
C1790 C1789 1.369 1_554 S
C1790 C1799 1.429 . S
C1791 C1789 1.419 . S
C1791 C1792 1.363 . S
C1791 H1794 0.929 . S
C1792 C1791 1.363 . S
C1792 C1798 1.428 . S
H1793 C1789 0.930 . S
H1794 C1791 0.929 . S
S1795 N1796 1.613 . S
S1795 N1797 1.610 1_554 S
N1796 S1795 1.613 . S
N1796 C1799 1.350 . S
N1797 S1795 1.610 1_556 S
N1797 C1798 1.351 . S
C1798 C1792 1.428 . S
C1798 N1797 1.351 . S
C1798 C1799 1.434 1_556 S
C1799 C1790 1.429 . S
C1799 N1796 1.350 . S
C1799 C1798 1.434 1_554 S
C1273 C241 1.405 . S
C1275 C29 1.409 . S
C1284 C92 1.505 . S
C1286 C304 1.528 . S
C1295 C347 1.523 . S
C1297 C135 1.527 . S
C1306 C410 1.579 . S
C1308 C198 1.561 . S
C1317 C771 1.337 . S
C1319 C463 1.371 . S
C1328 C824 1.338 . S
C1330 C506 1.327 . S
C1339 C569 1.481 . S
C1341 C675 1.507 . S
C1350 C718 1.314 . S
C1352 C612 1.329 . S
C1361 C877 1.272 . S
C1363 C1142 1.291 . S
C1372 C940 1.613 . S
C1374 C1036 1.591 . S
C1383 C983 1.486 . S
C1385 C1089 1.490 . S
C1394 C1195 1.396 . S
C1396 C1248 1.403 . S
C1405 C188 1.733 . S
C1407 C294 1.723 . S
C1416 C39 2.047 . S
C1418 C357 2.048 . S
C1427 C400 1.725 . S
C1429 C82 1.742 . S
C1438 C145 2.093 . S
C1440 C251 2.098 . S
C1449 C1258 2.143 . S
C1451 C993 2.153 . S
C1460 C1046 2.358 . S
C1462 C1152 2.333 . S
C1471 C1099 2.165 . S
C1473 C1205 2.173 . S
C1482 C930 2.010 . S
C1484 C887 2.026 . S
C1493 C622 2.129 . S
C1495 C516 2.139 . S
C1504 C834 2.206 . S
C1506 C728 2.209 . S
C1515 C665 1.989 . S
C1517 C781 1.994 . S
C1526 C559 1.649 . S
C1528 C453 1.627 . S
C1537 C1188 1.647 . S
C1539 C22 1.660 . S
C1548 C870 1.593 . S
C1550 C91 1.579 . S
C1559 C1241 1.743 . S
C1561 C128 1.735 . S
C1570 C1135 1.564 1_655 S
C1572 C197 1.539 . S
C1581 C976 1.646 . S
C1583 C234 1.644 . S
C1592 C303 1.616 . S
C1594 C1029 1.631 1_655 S
C1603 C1082 1.772 . S
C1605 C340 1.773 . S
C1614 C939 1.526 . S
C1616 C409 1.545 . S
C1625 C711 1.569 . S
C1627 C462 1.557 . S
C1636 C764 1.634 . S
C1638 C499 1.638 1_554 S
C1647 C817 1.396 . S
C1649 C568 1.382 . S
C1658 C605 1.413 1_554 S
C1660 C674 1.406 . S
C1669 C287 1.782 . S
C1671 C552 1.801 . S
C1680 C356 2.047 . S
C1682 C621 2.045 . S
C1691 C446 1.840 . S
C1693 C393 1.851 . S
C1702 C250 2.000 . S
C1704 C515 2.011 . S
C1713 C780 1.818 . S
C1715 C181 1.811 . S
C1724 C38 1.986 . S
C1726 C833 1.983 . S
C1735 C658 1.761 . S
C1737 C75 1.771 . S
C1746 C144 2.051 . S
C1748 C727 2.064 . S
C1757 C923 2.090 . S
C1759 C1257 2.099 . S
C1768 C1151 2.124 . S
C1770 C992 2.133 . S
C1779 C1204 2.154 . S
C1781 C1045 2.158 . S
C1790 C886 2.130 . S
C1792 C1098 2.125 . S
