# Generated by pormake.
# Topology sml, (6)-cn, num edge types: 1
# Building blocks:
#     Node 0, Type 0, BuildingBlock: CUWYAW_clean_sbu_0, # of connection points: 6
#     Node 1, Type 0, BuildingBlock: CUWYAW_clean_sbu_0, # of connection points: 6
#     Node 2, Type 0, BuildingBlock: CUWYAW_clean_sbu_0, # of connection points: 6
#     Node 3, Type 0, BuildingBlock: CUWYAW_clean_sbu_0, # of connection points: 6
#     Node 4, Type 0, BuildingBlock: CUWYAW_clean_sbu_0, # of connection points: 6
#     Node 5, Type 0, BuildingBlock: CUWYAW_clean_sbu_0, # of connection points: 6
#     Edge 6, Type (0, 0), BuildingBlock: ZUJKAS_clean_linker_0, # of connection points: 2
#     Edge 7, Type (0, 0), BuildingBlock: ZUJKAS_clean_linker_0, # of connection points: 2
#     Edge 8, Type (0, 0), BuildingBlock: ZUJKAS_clean_linker_0, # of connection points: 2
#     Edge 9, Type (0, 0), BuildingBlock: ZUJKAS_clean_linker_0, # of connection points: 2
#     Edge 10, Type (0, 0), BuildingBlock: ZUJKAS_clean_linker_0, # of connection points: 2
#     Edge 11, Type (0, 0), BuildingBlock: ZUJKAS_clean_linker_0, # of connection points: 2
#     Edge 12, Type (0, 0), BuildingBlock: ZUJKAS_clean_linker_0, # of connection points: 2
#     Edge 13, Type (0, 0), BuildingBlock: ZUJKAS_clean_linker_0, # of connection points: 2
#     Edge 14, Type (0, 0), BuildingBlock: ZUJKAS_clean_linker_0, # of connection points: 2
#     Edge 15, Type (0, 0), BuildingBlock: ZUJKAS_clean_linker_0, # of connection points: 2
#     Edge 16, Type (0, 0), BuildingBlock: ZUJKAS_clean_linker_0, # of connection points: 2
#     Edge 17, Type (0, 0), BuildingBlock: ZUJKAS_clean_linker_0, # of connection points: 2
#     Edge 18, Type (0, 0), BuildingBlock: ZUJKAS_clean_linker_0, # of connection points: 2
#     Edge 19, Type (0, 0), BuildingBlock: ZUJKAS_clean_linker_0, # of connection points: 2
#     Edge 20, Type (0, 0), BuildingBlock: ZUJKAS_clean_linker_0, # of connection points: 2
#     Edge 21, Type (0, 0), BuildingBlock: ZUJKAS_clean_linker_0, # of connection points: 2
#     Edge 22, Type (0, 0), BuildingBlock: ZUJKAS_clean_linker_0, # of connection points: 2
#     Edge 23, Type (0, 0), BuildingBlock: ZUJKAS_clean_linker_0, # of connection points: 2
# Relax obj value: 0.202
# Max RMSD: 0.227
# Mean RMSD: 0.227
data_MOF--net-sml--node1-CUWYAW_clean_sbu_0--edge1-ZUJKAS_clean_linker_0
_symmetry_space_group_name_H-M    P1
_symmetry_Int_Tables_number       1
_symmetry_cell_setting            triclinic
loop_
_symmetry_equiv_pos_as_xyz
'x, y, z'
_cell_length_a     44.167461
_cell_length_b     44.195625
_cell_length_c     29.896393
_cell_angle_alpha  90.031876
_cell_angle_beta   89.985343
_cell_angle_gamma 120.03472
loop_
_atom_site_label
_atom_site_type_symbol
_atom_site_fract_x
_atom_site_fract_y
_atom_site_fract_z
_atom_type_partial_charge
C0 C 0.22611 0.38241 0.13849 0.0
Eu1 Eu 0.2172 0.40655 0.06298 0.0
C2 C 0.22272 0.38678 0.18678 0.0
C3 C 0.24177 0.37868 0.21715 0.0
C4 C 0.23947 0.38305 0.26313 0.0
C5 C 0.21801 0.39564 0.27974 0.0
C6 C 0.19882 0.40365 0.24907 0.0
C7 C 0.20124 0.39937 0.20298 0.0
C8 C 0.26719 0.45644 0.01042 0.0
C9 C 0.19713 0.46616 0.0619 0.0
C10 C 0.18348 0.44453 0.89793 0.0
Eu11 Eu 0.19187 0.41988 0.97336 0.0
C12 C 0.18757 0.44074 0.84967 0.0
C13 C 0.16893 0.44915 0.81904 0.0
C14 C 0.17185 0.44528 0.77308 0.0
C15 C 0.19356 0.43289 0.75675 0.0
C16 C 0.21241 0.42464 0.78767 0.0
C17 C 0.20935 0.42841 0.83375 0.0
C18 C 0.14162 0.3698 0.0255 0.0
C19 C 0.21206 0.36007 0.97489 0.0
O20 O 0.19711 0.36682 0.11521 0.0
O21 O 0.25117 0.40937 0.11773 0.0
O22 O 0.26725 0.45872 0.05371 0.0
O23 O 0.24222 0.4277 0.99749 0.0
O24 O 0.199 0.4427 0.08721 0.0
O25 O 0.19779 0.46482 0.0176 0.0
O26 O 0.21216 0.46013 0.92179 0.0
O27 O 0.15836 0.41725 0.91809 0.0
O28 O 0.14164 0.36811 0.98217 0.0
O29 O 0.16659 0.39849 0.03873 0.0
O30 O 0.20942 0.38306 0.94941 0.0
O31 O 0.21196 0.36187 0.01916 0.0
H32 H 0.25848 0.36894 0.20528 0.0
H33 H 0.25423 0.37617 0.28573 0.0
H34 H 0.18235 0.41376 0.26064 0.0
H35 H 0.1865 0.40603 0.18001 0.0
H36 H 0.15202 0.45872 0.8307 0.0
H37 H 0.15736 0.45235 0.75028 0.0
H38 H 0.22906 0.4147 0.77631 0.0
H39 H 0.22379 0.42153 0.85691 0.0
C40 C 0.81708 0.20059 0.44784 0.0
Eu41 Eu 0.79144 0.20194 0.36965 0.0
C42 C 0.80938 0.20007 0.49599 0.0
C43 C 0.83707 0.21939 0.52562 0.0
C44 C 0.83097 0.21887 0.57157 0.0
C45 C 0.79695 0.19889 0.58902 0.0
C46 C 0.7691 0.1798 0.55909 0.0
C47 C 0.77526 0.18037 0.51299 0.0
C48 C 0.79991 0.25885 0.32476 0.0
C49 C 0.71183 0.18926 0.37831 0.0
C50 C 0.71893 0.18621 0.20718 0.0
Eu51 Eu 0.74562 0.18706 0.28545 0.0
C52 C 0.72745 0.18849 0.15913 0.0
C53 C 0.70044 0.16941 0.12855 0.0
C54 C 0.70738 0.17132 0.0827 0.0
C55 C 0.74158 0.19244 0.06634 0.0
C56 C 0.76875 0.21135 0.09722 0.0
C57 C 0.76174 0.20941 0.14322 0.0
C58 C 0.73541 0.13053 0.33228 0.0
C59 C 0.82631 0.20266 0.27711 0.0
O60 O 0.79682 0.17251 0.4245 0.0
O61 O 0.82553 0.22946 0.4262 0.0
O62 O 0.8255 0.25747 0.34413 0.0
O63 O 0.77138 0.23132 0.33198 0.0
O64 O 0.73809 0.18786 0.39767 0.0
O65 O 0.71103 0.19392 0.33471 0.0
O66 O 0.73657 0.21453 0.23123 0.0
O67 O 0.71368 0.15799 0.22806 0.0
O68 O 0.71038 0.13309 0.31329 0.0
O69 O 0.76469 0.15702 0.32396 0.0
O70 O 0.79977 0.20367 0.25799 0.0
O71 O 0.82668 0.19666 0.3203 0.0
H72 H 0.86356 0.23487 0.51319 0.0
H73 H 0.85295 0.2344 0.59341 0.0
H74 H 0.74263 0.16389 0.57132 0.0
H75 H 0.75343 0.16522 0.49075 0.0
H76 H 0.67384 0.15299 0.14016 0.0
H77 H 0.68592 0.15592 0.06009 0.0
H78 H 0.79534 0.22809 0.08583 0.0
H79 H 0.78302 0.22441 0.16625 0.0
C80 C 0.60688 0.83107 0.79363 0.0
Eu81 Eu 0.58615 0.80315 0.71461 0.0
C82 C 0.60092 0.82159 0.84152 0.0
C83 C 0.59614 0.84348 0.87109 0.0
C84 C 0.59134 0.83597 0.9168 0.0
C85 C 0.59133 0.80637 0.93412 0.0
C86 C 0.59597 0.78429 0.90436 0.0
C87 C 0.6006 0.79175 0.85844 0.0
C88 C 0.53955 0.80762 0.66042 0.0
C89 C 0.52328 0.72141 0.72266 0.0
C90 C 0.54347 0.72664 0.5526 0.0
Eu91 Eu 0.56302 0.75506 0.6316 0.0
C92 C 0.54988 0.73629 0.5048 0.0
C93 C 0.55457 0.71434 0.47523 0.0
C94 C 0.55979 0.72208 0.42959 0.0
C95 C 0.56033 0.75197 0.41237 0.0
C96 C 0.55585 0.77413 0.44215 0.0
C97 C 0.5508 0.76645 0.48798 0.0
C98 C 0.60797 0.74913 0.68691 0.0
C99 C 0.62343 0.83804 0.62333 0.0
O100 O 0.62324 0.81878 0.76979 0.0
O101 O 0.58106 0.83088 0.77194 0.0
O102 O 0.56419 0.8343 0.68151 0.0
O103 O 0.53944 0.77999 0.67093 0.0
O104 O 0.54859 0.7494 0.74272 0.0
O105 O 0.52042 0.71887 0.67858 0.0
O106 O 0.52641 0.73845 0.57581 0.0
O107 O 0.56931 0.72745 0.57497 0.0
O108 O 0.58277 0.7229 0.6659 0.0
O109 O 0.60958 0.77747 0.67594 0.0
O110 O 0.59938 0.80918 0.6034 0.0
O111 O 0.62671 0.84096 0.66725 0.0
H112 H 0.59644 0.8667 0.85882 0.0
H113 H 0.58835 0.8538 0.93875 0.0
H114 H 0.59576 0.7611 0.9165 0.0
H115 H 0.60406 0.77429 0.8363 0.0
H116 H 0.55385 0.69091 0.48744 0.0
H117 H 0.56268 0.7042 0.4076 0.0
H118 H 0.55649 0.79755 0.43008 0.0
H119 H 0.54746 0.78397 0.51015 0.0
C120 C 0.79146 0.62072 0.12342 0.0
Eu121 Eu 0.7912 0.59479 0.04493 0.0
C122 C 0.7913 0.61278 0.17135 0.0
C123 C 0.76892 0.61739 0.2002 0.0
C124 C 0.76903 0.61148 0.24607 0.0
C125 C 0.79172 0.60098 0.2642 0.0
C126 C 0.81377 0.59579 0.23503 0.0
C127 C 0.81354 0.60159 0.18901 0.0
C128 C 0.73437 0.54497 1.00095 0.0
C129 C 0.80674 0.52991 0.05243 0.0
C130 C 0.80666 0.53985 0.8819 0.0
Eu131 Eu 0.80646 0.56565 0.96033 0.0
C132 C 0.80539 0.54697 0.83397 0.0
C133 C 0.82733 0.54242 0.80426 0.0
C134 C 0.82601 0.54773 0.75842 0.0
C135 C 0.80254 0.55756 0.74121 0.0
C136 C 0.78089 0.56264 0.77124 0.0
C137 C 0.78233 0.55744 0.81723 0.0
C138 C 0.86335 0.61368 0.00533 0.0
C139 C 0.78919 0.62957 0.95347 0.0
O140 O 0.81986 0.62894 0.10063 0.0
O141 O 0.76287 0.60064 0.10101 0.0
O142 O 0.73522 0.57168 0.02026 0.0
O143 O 0.76249 0.54499 0.00752 0.0
O144 O 0.80762 0.55712 0.07233 0.0
O145 O 0.8014 0.52452 0.00892 0.0
O146 O 0.7783 0.53021 0.90546 0.0
O147 O 0.83517 0.56149 0.90344 0.0
O148 O 0.86147 0.58663 0.98566 0.0
O149 O 0.83596 0.61521 0.99849 0.0
O150 O 0.78882 0.60259 0.93356 0.0
O151 O 0.79523 0.63541 0.99672 0.0
H152 H 0.75144 0.62584 0.18723 0.0
H153 H 0.7512 0.61506 0.26732 0.0
H154 H 0.83179 0.58801 0.24784 0.0
H155 H 0.83101 0.59773 0.1674 0.0
H156 H 0.84543 0.53453 0.81653 0.0
H157 H 0.84355 0.54427 0.73648 0.0
H158 H 0.76231 0.56994 0.75916 0.0
H159 H 0.76517 0.56122 0.83955 0.0
C160 C 0.17855 0.79741 0.43666 0.0
Eu161 Eu 0.20568 0.80004 0.35817 0.0
C162 C 0.18693 0.79965 0.48474 0.0
C163 C 0.16025 0.77863 0.51477 0.0
C164 C 0.16687 0.78054 0.56068 0.0
C165 C 0.2004 0.80364 0.57768 0.0
C166 C 0.2273 0.82448 0.54735 0.0
C167 C 0.22062 0.82252 0.50126 0.0
C168 C 0.19862 0.74557 0.30864 0.0
C169 C 0.28598 0.81479 0.36601 0.0
C170 C 0.28064 0.82441 0.19564 0.0
Eu171 Eu 0.25237 0.81929 0.27403 0.0
C172 C 0.27222 0.82172 0.14757 0.0
C173 C 0.29893 0.84213 0.11725 0.0
C174 C 0.29216 0.83987 0.07136 0.0
C175 C 0.25844 0.81703 0.05467 0.0
C176 C 0.23152 0.79682 0.08531 0.0
C177 C 0.23836 0.79913 0.13138 0.0
C178 C 0.26143 0.87331 0.32564 0.0
C179 C 0.17068 0.80086 0.26628 0.0
O180 O 0.19524 0.82606 0.41297 0.0
O181 O 0.17452 0.76977 0.41537 0.0
O182 O 0.17261 0.74556 0.32894 0.0
O183 O 0.22683 0.77304 0.31738 0.0
O184 O 0.25934 0.81509 0.38601 0.0
O185 O 0.28714 0.8116 0.32212 0.0
O186 O 0.26555 0.79553 0.21909 0.0
O187 O 0.28235 0.85103 0.21705 0.0
O188 O 0.28681 0.87207 0.30551 0.0
O189 O 0.23242 0.84697 0.31586 0.0
O190 O 0.19799 0.80177 0.24653 0.0
O191 O 0.16966 0.80503 0.30989 0.0
H192 H 0.13412 0.76071 0.50268 0.0
H193 H 0.14569 0.76364 0.58286 0.0
H194 H 0.25335 0.84274 0.55927 0.0
H195 H 0.24167 0.839 0.47865 0.0
H196 H 0.32518 0.85986 0.12912 0.0
H197 H 0.31336 0.85632 0.04895 0.0
H198 H 0.20532 0.77876 0.07367 0.0
H199 H 0.21732 0.78314 0.15425 0.0
C200 C 0.38649 0.16186 0.80579 0.0
Eu201 Eu 0.40651 0.19047 0.72699 0.0
C202 C 0.3888 0.17109 0.85353 0.0
C203 C 0.38495 0.14626 0.88549 0.0
C204 C 0.38681 0.15386 0.9311 0.0
C205 C 0.39257 0.18656 0.94585 0.0
C206 C 0.39663 0.2116 0.91361 0.0
C207 C 0.39471 0.20391 0.86778 0.0
C208 C 0.45463 0.18852 0.6732 0.0
C209 C 0.4655 0.27349 0.73398 0.0
C210 C 0.44719 0.26698 0.56421 0.0
Eu211 Eu 0.42751 0.23799 0.64291 0.0
C212 C 0.4401 0.25864 0.5162 0.0
C213 C 0.44422 0.28503 0.48665 0.0
C214 C 0.43918 0.27856 0.4407 0.0
C215 C 0.42999 0.24548 0.42316 0.0
C216 C 0.42519 0.21879 0.45309 0.0
C217 C 0.43019 0.2253 0.49921 0.0
C218 C 0.38033 0.24056 0.69777 0.0
C219 C 0.36977 0.1541 0.63535 0.0
O220 O 0.36751 0.16987 0.78011 0.0
O221 O 0.41545 0.16747 0.78653 0.0
O222 O 0.43107 0.16147 0.69484 0.0
O223 O 0.45311 0.21542 0.68309 0.0
O224 O 0.44028 0.24556 0.75428 0.0
O225 O 0.46938 0.27499 0.69003 0.0
O226 O 0.46272 0.25277 0.58581 0.0
O227 O 0.42251 0.26758 0.5877 0.0
O228 O 0.40435 0.26758 0.67654 0.0
O229 O 0.38115 0.2134 0.68716 0.0
O230 O 0.39203 0.18364 0.61506 0.0
O231 O 0.3676 0.15084 0.67935 0.0
H232 H 0.38055 0.12086 0.87512 0.0
H233 H 0.3842 0.13419 0.95484 0.0
H234 H 0.40084 0.23695 0.92379 0.0
H235 H 0.39774 0.22347 0.84357 0.0
H236 H 0.45165 0.31086 0.49912 0.0
H237 H 0.44239 0.29954 0.41892 0.0
H238 H 0.41835 0.19308 0.44083 0.0
H239 H 0.42674 0.20447 0.52146 0.0
H240 H 0.38873 0.29912 0.73799 0.0
H241 H 0.35293 0.30345 0.797 0.0
H242 H 0.28734 0.19121 0.79805 0.0
H243 H 0.32299 0.18677 0.73799 0.0
H244 H 0.24983 0.22588 0.79443 0.0
H245 H 0.34747 0.28057 0.92996 0.0
H246 H 0.36488 0.30453 0.87904 0.0
H247 H 0.35287 0.25914 0.88163 0.0
C248 C 0.36678 0.27534 0.75091 0.0
C249 C 0.35865 0.2426 0.7337 0.0
C250 C 0.3466 0.27781 0.78497 0.0
C251 C 0.31798 0.24759 0.80259 0.0
C252 C 0.30963 0.21478 0.78531 0.0
H253 H 0.2241 0.31111 0.01491 0.0
H254 H 0.24254 0.27334 0.97834 0.0
C255 C 0.32997 0.21229 0.75115 0.0
C256 C 0.29554 0.25117 0.83645 0.0
H257 H 0.30133 0.29556 0.93224 0.0
C258 C 0.26075 0.24033 0.82518 0.0
C259 C 0.30945 0.26911 0.87714 0.0
C260 C 0.34561 0.27863 0.89289 0.0
C261 C 0.24062 0.24999 0.85144 0.0
C262 C 0.25606 0.27167 0.8892 0.0
C263 C 0.28965 0.27951 0.9028 0.0
C264 C 0.24004 0.29033 0.91125 0.0
C265 C 0.20347 0.2379 0.83751 0.0
C266 C 0.23227 0.31219 0.88569 0.0
C267 C 0.22169 0.33366 0.90635 0.0
C268 C 0.2191 0.33411 0.95318 0.0
C269 C 0.22584 0.3114 0.97876 0.0
C270 C 0.23636 0.28978 0.95795 0.0
H271 H 0.19159 0.21193 0.82095 0.0
H272 H 0.18697 0.23617 0.86653 0.0
H273 H 0.20335 0.25666 0.81295 0.0
H274 H 0.23589 0.31388 0.84976 0.0
H275 H 0.21683 0.35084 0.88555 0.0
H276 H 0.13378 0.37602 0.11478 0.0
H277 H 0.08149 0.34082 0.16009 0.0
H278 H 0.02957 0.27601 0.04554 0.0
H279 H 0.0819 0.31098 1.00009 0.0
H280 H 0.01669 0.33483 0.13924 0.0
H281 H 0.00671 0.20461 0.14752 0.0
H282 H 0.04686 0.24402 0.13335 0.0
H283 H 0.01294 0.22279 0.09225 0.0
C284 C 0.11142 0.3539 0.09947 0.0
C285 C 0.11173 0.34628 0.0539 0.0
C286 C 0.08162 0.33384 0.12537 0.0
C287 C 0.05181 0.30568 0.10623 0.0
C288 C 0.05252 0.29726 0.06112 0.0
H289 H 0.83736 0.22111 0.18876 0.0
H290 H 0.89193 0.24342 0.14698 0.0
C291 C 0.08232 0.31737 0.03515 0.0
C292 C 0.01889 0.28749 0.13212 0.0
H293 H 0.95685 0.20771 0.17171 0.0
C294 C 0.00371 0.30708 0.14658 0.0
C295 C 0.00217 0.25133 0.14173 0.0
C296 C 0.01808 0.22942 0.12829 0.0
C297 C 0.97185 0.29137 0.1697 0.0
C298 C 0.9546 0.25505 0.17817 0.0
C299 C 0.97007 0.2355 0.16463 0.0
C300 C 0.92057 0.23733 0.20154 0.0
C301 C 0.95691 0.31375 0.18511 0.0
C302 C 0.9184 0.22539 0.24549 0.0
C303 C 0.88724 0.21265 0.26959 0.0
C304 C 0.85773 0.21154 0.24998 0.0
C305 C 0.85958 0.22179 0.20504 0.0
C306 C 0.89075 0.2346 0.18108 0.0
H307 H 0.97663 0.34206 0.1839 0.0
H308 H 0.93477 0.30905 0.16304 0.0
H309 H 0.94675 0.30685 0.21981 0.0
H310 H 0.94121 0.22727 0.26172 0.0
H311 H 0.8867 0.20482 0.30404 0.0
H312 H 0.67594 0.08906 0.37781 0.0
H313 H 0.66451 0.04174 0.42933 0.0
H314 H 0.76926 0.06052 0.40824 0.0
H315 H 0.78133 0.10938 0.35822 0.0
H316 H 0.66212 0.98345 0.41249 0.0
H317 H 0.76434 0.05289 0.54114 0.0
H318 H 0.75454 0.07572 0.49875 0.0
H319 H 0.78189 0.05742 0.48587 0.0
C320 C 0.69662 0.08327 0.38448 0.0
C321 C 0.72945 0.10267 0.36406 0.0
C322 C 0.6901 0.05624 0.41394 0.0
C323 C 0.71608 0.04764 0.42308 0.0
C324 C 0.74905 0.06713 0.40267 0.0
H325 H 0.6433 0.83977 0.53655 0.0
H326 H 0.67112 0.8908 0.48735 0.0
C327 C 0.75584 0.0948 0.37381 0.0
C328 C 0.70752 0.01703 0.45199 0.0
H329 H 0.73196 0.99092 0.54614 0.0
C330 C 0.67741 0.98515 0.44176 0.0
C331 C 0.72726 0.01928 0.49044 0.0
C332 C 0.75859 0.05324 0.50503 0.0
C333 C 0.66598 0.95573 0.46921 0.0
C334 C 0.68626 0.95759 0.50694 0.0
C335 C 0.71671 0.98933 0.51689 0.0
C336 C 0.67489 0.92759 0.53803 0.0
C337 C 0.63139 0.92355 0.45847 0.0
C338 C 0.67023 0.93165 0.58367 0.0
C339 C 0.65545 0.90271 0.61217 0.0
C340 C 0.64461 0.86912 0.59534 0.0
C341 C 0.65104 0.86533 0.55025 0.0
C342 C 0.66664 0.89442 0.52204 0.0
H343 H 0.61477 0.92988 0.43702 0.0
H344 H 0.6362 0.90461 0.43993 0.0
H345 H 0.61655 0.91076 0.48938 0.0
H346 H 0.67657 0.95698 0.5969 0.0
H347 H 0.65068 0.90638 0.64675 0.0
H348 H 0.59848 0.68915 0.72352 0.0
H349 H 0.63703 0.68158 0.77502 0.0
H350 H 0.70839 0.79284 0.77474 0.0
H351 H 0.66953 0.80068 0.72283 0.0
H352 H 0.73887 0.74777 0.758 0.0
H353 H 0.65592 0.71019 0.90986 0.0
H354 H 0.63259 0.6875 0.86029 0.0
H355 H 0.65098 0.73406 0.86406 0.0
C356 C 0.62227 0.71206 0.7346 0.0
C357 C 0.63109 0.74549 0.71926 0.0
C358 C 0.64414 0.70771 0.7642 0.0
C359 C 0.6753 0.73668 0.77899 0.0
C360 C 0.68428 0.77022 0.76386 0.0
H361 H 0.78602 0.6867 0.98265 0.0
H362 H 0.76484 0.72015 0.94132 0.0
C363 C 0.66212 0.77465 0.73439 0.0
C364 C 0.69888 0.73102 0.80847 0.0
H365 H 0.69941 0.69275 0.90721 0.0
C366 C 0.73069 0.7364 0.79103 0.0
C367 C 0.68831 0.71666 0.8517 0.0
C368 C 0.65524 0.71205 0.87285 0.0
C369 C 0.75113 0.72559 0.81461 0.0
C370 C 0.73909 0.70859 0.85632 0.0
C371 C 0.70846 0.70542 0.87501 0.0
C372 C 0.75614 0.69141 0.87956 0.0
C373 C 0.78502 0.73183 0.79424 0.0
C374 C 0.75858 0.66433 0.85843 0.0
C375 C 0.77069 0.64515 0.8819 0.0
C376 C 0.78031 0.65247 0.92716 0.0
C377 C 0.77883 0.68032 0.94785 0.0
C378 C 0.76673 0.69951 0.9243 0.0
H379 H 0.79607 0.75458 0.77116 0.0
H380 H 0.80472 0.73644 0.8204 0.0
H381 H 0.78007 0.7085 0.77454 0.0
H382 H 0.74977 0.65706 0.82426 0.0
H383 H 0.77134 0.62382 0.86494 0.0
H384 H 0.10886 0.79498 0.29448 0.0
H385 H 0.05421 0.77139 0.25236 0.0
H386 H 0.10558 0.76093 0.13562 0.0
H387 H 0.16044 0.78492 0.17707 0.0
H388 H 0.05747 0.7845 0.11686 0.0
H389 H 4e-05 0.66589 0.22461 0.0
H390 H 0.01623 0.70687 0.25327 0.0
H391 H 0.0462 0.6974 0.22442 0.0
C392 C 0.10873 0.78817 0.25965 0.0
C393 C 0.13899 0.79142 0.23935 0.0
C394 C 0.07741 0.77458 0.2357 0.0
C395 C 0.07574 0.76384 0.19116 0.0
C396 C 0.10631 0.76895 0.17004 0.0
H397 H 0.91874 0.60717 0.02977 0.0
H398 H 0.96833 0.64658 0.07638 0.0
C399 C 0.13766 0.78261 0.19388 0.0
C400 C 0.0418 0.7448 0.16744 0.0
H401 H 0.96507 0.66692 0.16622 0.0
C402 C 0.03703 0.75898 0.12785 0.0
C403 C 0.01539 0.71136 0.18177 0.0
C404 C 0.01964 0.69423 0.22312 0.0
C405 C 0.00681 0.74021 0.10162 0.0
C406 C 0.98072 0.70658 0.11564 0.0
C407 C 0.98508 0.69284 0.15582 0.0
C408 C 0.95051 0.68358 0.08694 0.0
C409 C 0.00365 0.75571 0.05814 0.0
C410 C 0.92397 0.69132 0.07753 0.0
C411 C 0.89545 0.66873 0.05073 0.0
C412 C 0.89319 0.63815 0.03319 0.0
C413 C 0.91983 0.6306 0.04273 0.0
C414 C 0.94814 0.65303 0.06944 0.0
H415 H 0.02832 0.77983 0.04907 0.0
H416 H 0.99643 0.73645 0.03057 0.0
H417 H 0.9826 0.76235 0.06114 0.0
H418 H 0.92516 0.71459 0.09119 0.0
H419 H 0.87525 0.67514 0.04377 0.0
H420 H 0.34706 0.08594 0.65592 0.0
H421 H 0.32144 0.03611 0.60454 0.0
H422 H 0.31832 0.10218 0.50054 0.0
H423 H 0.34575 0.15242 0.55101 0.0
H424 H 0.26415 0.00058 0.55575 0.0
H425 H 0.37785 0.06956 0.44211 0.0
H426 H 0.37643 0.08656 0.49632 0.0
H427 H 0.35455 0.09274 0.44932 0.0
C428 C 0.34044 0.08968 0.62227 0.0
C429 C 0.34878 0.12307 0.60719 0.0
C430 C 0.32581 0.06121 0.59292 0.0
C431 C 0.31888 0.0656 0.54827 0.0
C432 C 0.32457 0.0984 0.53435 0.0
H433 H 0.21444 0.89118 0.35778 0.0
H434 H 0.22571 0.93678 0.41312 0.0
C435 C 0.33998 0.12702 0.5633 0.0
C436 C 0.30806 0.0366 0.51567 0.0
H437 H 0.33137 0.0157 0.41656 0.0
C438 C 0.27882 0.00382 0.5253 0.0
C439 C 0.32765 0.04067 0.47635 0.0
C440 C 0.36105 0.07415 0.4656 0.0
C441 C 0.26869 0.97503 0.49671 0.0
C442 C 0.28766 0.97951 0.45673 0.0
C443 C 0.31666 0.01234 0.44703 0.0
C444 C 0.27942 0.95035 0.42531 0.0
C445 C 0.23861 0.93992 0.51043 0.0
C446 C 0.30592 0.94319 0.41321 0.0
C447 C 0.29979 0.91798 0.38095 0.0
C448 C 0.2669 0.89907 0.36051 0.0
C449 C 0.24 0.90543 0.37328 0.0
C450 C 0.24633 0.93121 0.40513 0.0
H451 H 0.23346 0.93876 0.54695 0.0
H452 H 0.21458 0.93526 0.49271 0.0
H453 H 0.24377 0.91849 0.50159 0.0
H454 H 0.33161 0.95749 0.42836 0.0
H455 H 0.32088 0.9133 0.37202 0.0
H456 H 0.25237 0.44917 0.70763 0.0
H457 H 0.25667 0.44327 0.62671 0.0
H458 H 0.14539 0.40076 0.61397 0.0
H459 H 0.14085 0.4065 0.69466 0.0
H460 H 0.2248 0.38436 0.57232 0.0
H461 H 0.18404 0.47958 0.52239 0.0
H462 H 0.19641 0.47643 0.57899 0.0
H463 H 0.1535 0.44559 0.55861 0.0
C464 C 0.22877 0.43837 0.68765 0.0
C465 C 0.19629 0.42859 0.70767 0.0
C466 C 0.2313 0.43516 0.64136 0.0
C467 C 0.20146 0.42222 0.6141 0.0
C468 C 0.16892 0.41171 0.6341 0.0
H469 H 0.15972 0.37978 0.32968 0.0
H470 H 0.15615 0.38617 0.41061 0.0
C471 C 0.16637 0.41498 0.6803 0.0
C472 C 0.20424 0.41912 0.56489 0.0
H473 H 0.18853 0.44539 0.46426 0.0
C474 C 0.21706 0.39785 0.54868 0.0
C475 C 0.19406 0.43669 0.53403 0.0
C476 C 0.18154 0.46112 0.54928 0.0
C477 C 0.21931 0.39309 0.50253 0.0
C478 C 0.20906 0.41059 0.47168 0.0
C479 C 0.1963 0.43192 0.48789 0.0
C480 C 0.21145 0.4072 0.42245 0.0
C481 C 0.23185 0.36867 0.48727 0.0
C482 C 0.2438 0.41753 0.40201 0.0
C483 C 0.24593 0.41398 0.35578 0.0
C484 C 0.21577 0.40028 0.32884 0.0
C485 C 0.18349 0.39066 0.34931 0.0
C486 C 0.18138 0.39414 0.39561 0.0
H487 H 0.22958 0.35036 0.51424 0.0
H488 H 0.2168 0.35319 0.45775 0.0
H489 H 0.25981 0.38422 0.47762 0.0
H490 H 0.2675 0.42855 0.4218 0.0
H491 H 0.27132 0.42232 0.34106 0.0
H492 H 0.70189 0.19604 0.99832 0.0
H493 H 0.71187 0.19695 0.9178 0.0
H494 H 0.80763 0.19612 0.94227 0.0
H495 H 0.79728 0.19404 0.02298 0.0
H496 H 0.76747 0.24533 0.86612 0.0
H497 H 0.75583 0.11448 0.85547 0.0
H498 H 0.74205 0.12871 0.90406 0.0
H499 H 0.78763 0.14357 0.89516 0.0
C500 C 0.7249 0.19565 0.98665 0.0
C501 C 0.74859 0.19459 0.01726 0.0
C502 C 0.73069 0.19643 0.94056 0.0
C503 C 0.76018 0.196 0.92392 0.0
C504 C 0.78432 0.19576 0.95429 0.0
H505 H 0.83731 0.19586 0.6566 0.0
H506 H 0.82847 0.19624 0.73724 0.0
C507 C 0.77857 0.19499 1.00047 0.0
C508 C 0.76567 0.19611 0.87481 0.0
H509 H 0.77367 0.14893 0.78967 0.0
C510 C 0.76872 0.22421 0.84936 0.0
C511 C 0.76729 0.16853 0.85296 0.0
C512 C 0.76272 0.13693 0.87816 0.0
C513 C 0.77392 0.22577 0.80282 0.0
C514 C 0.77546 0.19814 0.78095 0.0
C515 C 0.77247 0.17008 0.80642 0.0
C516 C 0.78055 0.19801 0.73176 0.0
C517 C 0.77854 0.25739 0.77765 0.0
C518 C 0.75629 0.19837 0.70171 0.0
C519 C 0.76141 0.19844 0.65545 0.0
C520 C 0.79084 0.19796 0.63825 0.0
C521 C 0.81471 0.19692 0.66855 0.0
C522 C 0.80957 0.19687 0.71473 0.0
H523 H 0.78589 0.27996 0.80031 0.0
H524 H 0.79892 0.26536 0.75138 0.0
H525 H 0.75352 0.25094 0.76114 0.0
H526 H 0.7333 0.19853 0.71403 0.0
H527 H 0.74258 0.19942 0.63319 0.0
H528 H 0.52533 0.77458 0.35849 0.0
H529 H 0.53082 0.78363 0.27738 0.0
H530 H 0.61115 0.75538 0.27441 0.0
H531 H 0.60579 0.74623 0.35535 0.0
H532 H 0.58752 0.82805 0.22471 0.0
H533 H 0.54236 0.68981 0.1813 0.0
H534 H 0.53714 0.70306 0.23654 0.0
H535 H 0.57869 0.70872 0.21931 0.0
C536 C 0.54437 0.77058 0.34064 0.0
C537 C 0.5649 0.75937 0.36342 0.0
C538 C 0.54736 0.77559 0.29423 0.0
C539 C 0.57086 0.76945 0.26962 0.0
C540 C 0.59214 0.75932 0.29245 0.0
H541 H 0.62698 0.78437 0.98782 0.0
H542 H 0.6219 0.77555 0.069 0.0
C543 C 0.58908 0.75417 0.33877 0.0
C544 C 0.57333 0.77393 0.22017 0.0
H545 H 0.56515 0.73085 0.1219 0.0
C546 C 0.58246 0.80676 0.20221 0.0
C547 C 0.5668 0.74614 0.1908 0.0
C548 C 0.55538 0.70985 0.20784 0.0
C549 C 0.58586 0.81275 0.15581 0.0
C550 C 0.57932 0.78496 0.12644 0.0
C551 C 0.57022 0.75214 0.1444 0.0
C552 C 0.58163 0.78939 0.07699 0.0
C553 C 0.59722 0.84902 0.13874 0.0
C554 C 0.5601 0.79926 0.0543 0.0
C555 C 0.5629 0.80424 0.00795 0.0
C556 C 0.58709 0.79917 0.98314 0.0
C557 C 0.60791 0.78827 0.0058 0.0
C558 C 0.60516 0.78339 0.05224 0.0
H559 H 0.61022 0.86908 0.16526 0.0
H560 H 0.61545 0.85582 0.11003 0.0
H561 H 0.57389 0.8501 0.12727 0.0
H562 H 0.54107 0.8031 0.07247 0.0
H563 H 0.54597 0.81195 0.99148 0.0
H564 H 0.8058 0.51737 0.67369 0.0
H565 H 0.80433 0.52562 0.59313 0.0
H566 H 0.79137 0.61476 0.61656 0.0
H567 H 0.79424 0.60759 0.69733 0.0
H568 H 0.75217 0.52478 0.54131 0.0
H569 H 0.87378 0.65385 0.53018 0.0
H570 H 0.86262 0.62646 0.57917 0.0
H571 H 0.84222 0.6523 0.56936 0.0
C572 C 0.80314 0.53907 0.6618 0.0
C573 C 0.80052 0.56205 0.69211 0.0
C574 C 0.80202 0.54356 0.61569 0.0
C575 C 0.79832 0.57114 0.5988 0.0
C576 C 0.79497 0.59372 0.62884 0.0
H577 H 0.78763 0.64099 0.33134 0.0
H578 H 0.78796 0.63246 0.41198 0.0
C579 C 0.79619 0.58932 0.67504 0.0
C580 C 0.79747 0.5758 0.54973 0.0
H581 H 0.83946 0.63312 0.46439 0.0
C582 C 0.77131 0.54841 0.52443 0.0
C583 C 0.82249 0.60666 0.5278 0.0
C584 C 0.85207 0.6364 0.55288 0.0
C585 C 0.76911 0.55125 0.47789 0.0
C586 C 0.79416 0.58209 0.45596 0.0
C587 C 0.82029 0.6095 0.48127 0.0
C588 C 0.79354 0.58667 0.40683 0.0
C589 C 0.73952 0.52152 0.45281 0.0
C590 C 0.79695 0.56397 0.37705 0.0
C591 C 0.79638 0.56853 0.33079 0.0
C592 C 0.79265 0.59608 0.3134 0.0
C593 C 0.78983 0.61909 0.34346 0.0
C594 C 0.7903 0.61444 0.38962 0.0
H595 H 0.7177 0.50425 0.47549 0.0
H596 H 0.72916 0.53145 0.42628 0.0
H597 H 0.7493 0.50544 0.43667 0.0
H598 H 0.80022 0.54279 0.38957 0.0
H599 H 0.79844 0.55022 0.3087 0.0
H600 H 0.25786 0.80992 0.62192 0.0
H601 H 0.26736 0.81177 0.70288 0.0
H602 H 0.16744 0.80426 0.72567 0.0
H603 H 0.15786 0.80273 0.64504 0.0
H604 H 0.26916 0.85912 0.76727 0.0
H605 H 0.16138 0.72448 0.80216 0.0
H606 H 0.17776 0.73944 0.74642 0.0
H607 H 0.14813 0.75105 0.77199 0.0
C608 C 0.23801 0.80893 0.64413 0.0
C609 C 0.20694 0.80585 0.62686 0.0
C610 C 0.24341 0.8098 0.69041 0.0
C611 C 0.21781 0.80746 0.72035 0.0
C612 C 0.18716 0.80519 0.70325 0.0
H613 H 0.20106 0.81104 0.01047 0.0
H614 H 0.19131 0.80869 0.92953 0.0
C615 C 0.18174 0.80432 0.65708 0.0
C616 C 0.22334 0.80796 0.76947 0.0
H617 H 0.18915 0.76058 0.86517 0.0
C618 C 0.2518 0.8375 0.78865 0.0
C619 C 0.20057 0.77978 0.79737 0.0
C620 C 0.17041 0.74674 0.7785 0.0
C621 C 0.25775 0.8399 0.83505 0.0
C622 C 0.23498 0.81172 0.86295 0.0
C623 C 0.20652 0.78218 0.84377 0.0
C624 C 0.24054 0.81228 0.91205 0.0
C625 C 0.28793 0.87291 0.85394 0.0
C626 C 0.27107 0.81428 0.92912 0.0
C627 C 0.27663 0.81541 0.97529 0.0
C628 C 0.25169 0.81445 0.00551 0.0
C629 C 0.22071 0.8116 0.98827 0.0
C630 C 0.21517 0.81044 0.942 0.0
H631 H 0.29714 0.89513 0.83019 0.0
H632 H 0.28051 0.88031 0.88588 0.0
H633 H 0.31011 0.86848 0.86073 0.0
H634 H 0.29062 0.81486 0.90669 0.0
H635 H 0.30042 0.81679 0.9873 0.0
H636 H 0.38099 0.187 0.37805 0.0
H637 H 0.37477 0.17746 0.29703 0.0
H638 H 0.46271 0.28072 0.27553 0.0
H639 H 0.46997 0.28999 0.35619 0.0
H640 H 0.36211 0.21456 0.23194 0.0
H641 H 0.48881 0.22083 0.19989 0.0
H642 H 0.47093 0.21612 0.25541 0.0
H643 H 0.49306 0.25831 0.22893 0.0
C644 C 0.39934 0.2075 0.35613 0.0
C645 C 0.42603 0.23926 0.37383 0.0
C646 C 0.39558 0.20209 0.30978 0.0
C647 C 0.41856 0.22818 0.28014 0.0
C648 C 0.44506 0.25994 0.29766 0.0
H649 H 0.43846 0.24711 0.98966 0.0
H650 H 0.44342 0.25819 0.07044 0.0
C651 C 0.44887 0.26536 0.3439 0.0
C652 C 0.41437 0.22259 0.2309 0.0
H653 H 0.45695 0.22119 0.13608 0.0
C654 C 0.38277 0.21582 0.21101 0.0
C655 C 0.44138 0.22437 0.20352 0.0
C656 C 0.47534 0.22997 0.223 0.0
C657 C 0.37768 0.21137 0.16449 0.0
C658 C 0.40471 0.21319 0.13714 0.0
C659 C 0.43631 0.21999 0.15701 0.0
C660 C 0.40045 0.20715 0.088 0.0
C661 C 0.34363 0.20543 0.14494 0.0
C662 C 0.37466 0.17481 0.07098 0.0
C663 C 0.37167 0.16847 0.0249 0.0
C664 C 0.39457 0.19426 0.99472 0.0
C665 C 0.42015 0.22682 0.01184 0.0
C666 C 0.42317 0.23311 0.05804 0.0
H667 H 0.3299 0.21427 0.16805 0.0
H668 H 0.348 0.21934 0.11257 0.0
H669 H 0.3262 0.17707 0.1388 0.0
H670 H 0.35721 0.15416 0.09342 0.0
H671 H 0.35145 0.14323 0.01292 0.0
H672 H 0.17522 0.46576 0.14704 0.0
H673 H 0.17103 0.51208 0.18569 0.0
H674 H 0.20716 0.57607 0.06703 0.0
H675 H 0.21027 0.52911 0.02747 0.0
H676 H 0.22229 0.57491 0.20531 0.0
H677 H 0.12567 0.58792 0.10116 0.0
H678 H 0.13319 0.55154 0.09566 0.0
H679 H 0.16239 0.59277 0.0696 0.0
C680 C 0.18195 0.48954 0.12893 0.0
C681 C 0.19311 0.49381 0.08417 0.0
C682 C 0.1795 0.516 0.1511 0.0
C683 C 0.18838 0.54744 0.12919 0.0
C684 C 0.19931 0.55173 0.08432 0.0
H685 H 0.2522 0.74096 0.2712 0.0
H686 H 0.24879 0.69335 0.22597 0.0
C687 C 0.20131 0.52497 0.06183 0.0
C688 C 0.18842 0.57636 0.15454 0.0
H689 H 0.15687 0.63291 0.15505 0.0
C690 C 0.20781 0.58743 0.19438 0.0
C691 C 0.16917 0.59242 0.14064 0.0
C692 C 0.14614 0.58034 0.09968 0.0
C693 C 0.20881 0.61427 0.22045 0.0
C694 C 0.19082 0.63137 0.20558 0.0
C695 C 0.17097 0.62003 0.16611 0.0
C696 C 0.19248 0.66115 0.23061 0.0
C697 C 0.22862 0.62354 0.26414 0.0
C698 C 0.16182 0.65951 0.24674 0.0
C699 C 0.16367 0.68711 0.27191 0.0
C700 C 0.19621 0.71672 0.28121 0.0
C701 C 0.22675 0.71853 0.26436 0.0
C702 C 0.22487 0.69118 0.2389 0.0
H703 H 0.2316 0.60157 0.27695 0.0
H704 H 0.25521 0.64622 0.25885 0.0
H705 H 0.21528 0.63064 0.29009 0.0
H706 H 0.13654 0.63664 0.24051 0.0
H707 H 0.13972 0.68515 0.28438 0.0
H708 H 0.69799 0.1676 0.46511 0.0
H709 H 0.65228 0.16523 0.51333 0.0
H710 H 0.61624 0.2039 0.40533 0.0
H711 H 0.66143 0.20553 0.3564 0.0
H712 H 0.64337 0.21802 0.5402 0.0
H713 H 0.52567 0.12134 0.44742 0.0
H714 H 0.56883 0.12856 0.43541 0.0
H715 H 0.55529 0.15792 0.4138 0.0
C716 C 0.6802 0.17537 0.45144 0.0
C717 C 0.68331 0.18672 0.40687 0.0
C718 C 0.65406 0.17398 0.47907 0.0
C719 C 0.63054 0.18394 0.46279 0.0
C720 C 0.63355 0.19527 0.4183 0.0
H721 H 0.50971 0.24416 0.63296 0.0
H722 H 0.55183 0.24308 0.58075 0.0
C723 C 0.65953 0.19638 0.39045 0.0
C724 C 0.60404 0.18401 0.49316 0.0
H725 H 0.51642 0.15218 0.50628 0.0
C726 C 0.6156 0.2035 0.53287 0.0
C727 C 0.56778 0.16472 0.48381 0.0
C728 C 0.55357 0.14167 0.44302 0.0
C729 C 0.59196 0.20452 0.56331 0.0
C730 C 0.55582 0.18628 0.55317 0.0
C731 C 0.54418 0.16645 0.51372 0.0
C732 C 0.52961 0.18694 0.58349 0.0
C733 C 0.60593 0.22452 0.60646 0.0
C734 C 0.50246 0.15565 0.60118 0.0
C735 C 0.47799 0.15617 0.63034 0.0
C736 C 0.48028 0.18799 0.64218 0.0
C737 C 0.50725 0.21925 0.62416 0.0
C738 C 0.53153 0.2187 0.59472 0.0
H739 H 0.63215 0.22835 0.61474 0.0
H740 H 0.60855 0.25072 0.60297 0.0
H741 H 0.58796 0.21081 0.63479 0.0
H742 H 0.50042 0.13084 0.59279 0.0
H743 H 0.45735 0.13168 0.64367 0.0
H744 H 0.32164 0.52079 0.03233 0.0
H745 H 0.36493 0.56467 0.98137 0.0
H746 H 0.31528 0.49535 0.86971 0.0
H747 H 0.27206 0.45153 0.92031 0.0
H748 H 0.41151 0.55679 0.92232 0.0
H749 H 0.32072 0.58741 0.83041 0.0
H750 H 0.3096 0.56501 0.88357 0.0
H751 H 0.30752 0.54184 0.83323 0.0
C752 C 0.31997 0.51502 0.9969 0.0
C753 C 0.29341 0.48294 0.98017 0.0
C754 C 0.34466 0.54003 0.96788 0.0
C755 C 0.34297 0.53341 0.92174 0.0
C756 C 0.31664 0.50123 0.90508 0.0
H757 H 0.46828 0.65828 0.69579 0.0
H758 H 0.42521 0.61131 0.7434 0.0
C759 C 0.29206 0.47621 0.93404 0.0
C760 C 0.36922 0.55988 0.89114 0.0
H761 H 0.37871 0.6132 0.80321 0.0
C762 C 0.40441 0.56922 0.89633 0.0
C763 C 0.35974 0.57574 0.85706 0.0
C764 C 0.3224 0.56728 0.85078 0.0
C765 C 0.43044 0.59392 0.86811 0.0
C766 C 0.42108 0.61027 0.83448 0.0
C767 C 0.38581 0.60062 0.82899 0.0
C768 C 0.44763 0.6383 0.80565 0.0
C769 C 0.46763 0.60183 0.87412 0.0
C770 C 0.47426 0.66916 0.82484 0.0
C771 C 0.49894 0.69591 0.79785 0.0
C772 C 0.49728 0.69256 0.75096 0.0
C773 C 0.47038 0.6617 0.73175 0.0
C774 C 0.44573 0.63485 0.75888 0.0
H775 H 0.46871 0.58011 0.89134 0.0
H776 H 0.48127 0.60665 0.84146 0.0
H777 H 0.48206 0.62562 0.89502 0.0
H778 H 0.47574 0.67276 0.86077 0.0
H779 H 0.51912 0.71937 0.81387 0.0
H780 H 0.74746 0.26635 0.28929 0.0
H781 H 0.7526 0.31398 0.24253 0.0
H782 H 0.86498 0.36656 0.25472 0.0
H783 H 0.85995 0.31803 0.30018 0.0
H784 H 0.77919 0.38168 0.2618 0.0
H785 H 0.85315 0.36789 0.12079 0.0
H786 H 0.83282 0.33514 0.16379 0.0
H787 H 0.87408 0.37402 0.17414 0.0
C788 C 0.77329 0.28785 0.28153 0.0
C789 C 0.80334 0.28831 0.29778 0.0
C790 C 0.77619 0.31514 0.25502 0.0
C791 C 0.80919 0.34358 0.24447 0.0
C792 C 0.83928 0.34448 0.2615 0.0
H793 H 0.83072 0.53776 0.13833 0.0
H794 H 0.83389 0.49415 0.1852 0.0
C795 C 0.83639 0.31694 0.28777 0.0
C796 C 0.81168 0.37249 0.21654 0.0
H797 H 0.84498 0.41698 0.11887 0.0
C798 C 0.7936 0.38942 0.23055 0.0
C799 C 0.83011 0.38223 0.1755 0.0
C800 C 0.84837 0.36369 0.15735 0.0
C801 C 0.79325 0.41569 0.20462 0.0
C802 C 0.81242 0.42609 0.16412 0.0
C803 C 0.8306 0.40923 0.15014 0.0
C804 C 0.81274 0.45341 0.13492 0.0
C805 C 0.77134 0.43114 0.2202 0.0
C806 C 0.80129 0.44554 0.09041 0.0
C807 C 0.80003 0.47062 0.06325 0.0
C808 C 0.81004 0.50401 0.08021 0.0
C809 C 0.82237 0.51213 0.12444 0.0
C810 C 0.82403 0.48716 0.15138 0.0
H811 H 0.75093 0.41375 0.24444 0.0
H812 H 0.78842 0.4564 0.23723 0.0
H813 H 0.75832 0.43602 0.1916 0.0
H814 H 0.79262 0.41972 0.07692 0.0
H815 H 0.79044 0.46355 0.02933 0.0
H816 H 0.33542 0.79748 0.343 0.0
H817 H 0.37981 0.79702 0.39156 0.0
H818 H 0.34606 0.83717 0.50046 0.0
H819 H 0.30102 0.8367 0.45267 0.0
H820 H 0.43483 0.84715 0.43677 0.0
H821 H 0.33937 0.7514 0.55669 0.0
H822 H 0.32633 0.76068 0.50366 0.0
H823 H 0.33494 0.78937 0.55066 0.0
C824 C 0.33751 0.80629 0.37726 0.0
C825 C 0.31442 0.81671 0.39415 0.0
C826 C 0.36289 0.80601 0.40497 0.0
C827 C 0.36574 0.8163 0.44994 0.0
C828 C 0.34367 0.82812 0.46629 0.0
H829 H 0.54024 0.86578 0.62859 0.0
H830 H 0.49888 0.86816 0.5761 0.0
C831 C 0.31804 0.828 0.43882 0.0
C832 C 0.39155 0.8144 0.47986 0.0
H833 H 0.39913 0.78022 0.57878 0.0
C834 C 0.42704 0.8324 0.46774 0.0
C835 C 0.38128 0.79461 0.51986 0.0
C836 C 0.34337 0.77262 0.5333 0.0
C837 C 0.45261 0.83167 0.49494 0.0
C838 C 0.44247 0.81319 0.53592 0.0
C839 C 0.40693 0.79473 0.54763 0.0
C840 C 0.46809 0.81208 0.56699 0.0
C841 C 0.49007 0.85008 0.47906 0.0
C842 C 0.46395 0.77977 0.58038 0.0
C843 C 0.48711 0.77837 0.61094 0.0
C844 C 0.51498 0.80925 0.62849 0.0
C845 C 0.51907 0.84158 0.61532 0.0
C846 C 0.49569 0.84298 0.585 0.0
H847 H 0.49183 0.854 0.44224 0.0
H848 H 0.50449 0.87621 0.49506 0.0
H849 H 0.50326 0.83515 0.48817 0.0
H850 H 0.44268 0.75559 0.56723 0.0
H851 H 0.48302 0.75307 0.62108 0.0
H852 H 0.67301 0.54266 0.98021 0.0
H853 H 0.62365 0.49723 0.93758 0.0
H854 H 0.67991 0.44156 0.92022 0.0
H855 H 0.72848 0.48597 0.96416 0.0
H856 H 0.61981 0.47563 0.85243 0.0
H857 H 0.58764 0.36511 0.96656 0.0
H858 H 0.6169 0.40995 0.98232 0.0
H859 H 0.63251 0.38648 0.94921 0.0
C860 C 0.67463 0.52054 0.96757 0.0
C861 C 0.70451 0.51778 0.97546 0.0
C862 C 0.64651 0.49469 0.94315 0.0
C863 C 0.64781 0.46566 0.92635 0.0
C864 C 0.6779 0.46321 0.93377 0.0
H865 H 0.52928 0.32793 0.70935 0.0
H866 H 0.5716 0.37558 0.75643 0.0
C867 C 0.70582 0.48883 0.95847 0.0
C868 C 0.61818 0.43831 0.9001 0.0
H869 H 0.56334 0.35014 0.89288 0.0
C870 C 0.6072 0.44821 0.86149 0.0
C871 C 0.60127 0.4026 0.91235 0.0
C872 C 0.60992 0.39043 0.95514 0.0
C873 C 0.58059 0.42326 0.83401 0.0
C874 C 0.5652 0.38735 0.84481 0.0
C875 C 0.57541 0.3776 0.88422 0.0
C876 C 0.53887 0.35933 0.81556 0.0
C877 C 0.56905 0.43574 0.79401 0.0
C878 C 0.50668 0.33374 0.8333 0.0
C879 C 0.4827 0.30608 0.80667 0.0
C880 C 0.49037 0.30351 0.76164 0.0
C881 C 0.52243 0.32935 0.74376 0.0
C882 C 0.54657 0.35679 0.77059 0.0
H883 H 0.57459 0.46299 0.79873 0.0
H884 H 0.58371 0.4354 0.76405 0.0
H885 H 0.54065 0.41869 0.78747 0.0
H886 H 0.50019 0.33505 0.86794 0.0
H887 H 0.45819 0.28667 0.82146 0.0
loop_
_geom_bond_atom_site_label_1
_geom_bond_atom_site_label_2
_geom_bond_distance
_geom_bond_site_symmetry_2
_ccdc_geom_bond_type
C0 Eu1 2.835 . S
C0 C2 1.500 . S
C0 O20 1.257 . S
C0 O21 1.260 . S
Eu1 C0 2.835 . S
Eu1 O20 2.473 . S
Eu1 O21 2.480 . S
Eu1 O22 2.430 . S
Eu1 O23 2.670 1_554 S
Eu1 O24 2.394 . S
Eu1 O29 2.355 . S
Eu1 O31 2.374 1_554 S
C2 C0 1.500 . S
C2 C3 1.377 . S
C2 C7 1.377 . S
C3 C2 1.377 . S
C3 C4 1.395 . S
C3 H32 0.931 . S
C4 C3 1.395 . S
C4 C5 1.383 . S
C4 H33 0.931 . S
C5 C4 1.383 . S
C5 C6 1.394 . S
C6 C5 1.394 . S
C6 C7 1.378 . S
C6 H34 0.931 . S
C7 C2 1.377 . S
C7 C6 1.378 . S
C7 H35 0.931 . S
C8 O22 1.259 1_556 S
C8 O23 1.270 . S
C9 O24 1.251 . S
C9 O25 1.251 . S
C10 Eu11 2.835 . S
C10 C12 1.500 . S
C10 O26 1.257 . S
C10 O27 1.260 . S
Eu11 C10 2.835 . S
Eu11 O23 2.355 . S
Eu11 O25 2.374 1_556 S
Eu11 O26 2.473 . S
Eu11 O27 2.480 . S
Eu11 O28 2.430 . S
Eu11 O29 2.670 1_556 S
Eu11 O30 2.394 . S
C12 C10 1.500 . S
C12 C13 1.377 . S
C12 C17 1.377 . S
C13 C12 1.377 . S
C13 C14 1.395 . S
C13 H36 0.931 . S
C14 C13 1.395 . S
C14 C15 1.383 . S
C14 H37 0.931 . S
C15 C14 1.383 . S
C15 C16 1.394 . S
C16 C15 1.394 . S
C16 C17 1.378 . S
C16 H38 0.931 . S
C17 C12 1.377 . S
C17 C16 1.378 . S
C17 H39 0.931 . S
C18 O28 1.259 1_554 S
C18 O29 1.270 . S
C19 O30 1.251 . S
C19 O31 1.251 . S
O20 C0 1.257 . S
O20 Eu1 2.473 . S
O21 C0 1.260 . S
O21 Eu1 2.480 . S
O22 Eu1 2.430 . S
O22 C8 1.259 1_554 S
O23 Eu1 2.670 1_556 S
O23 C8 1.270 . S
O23 Eu11 2.355 . S
O24 Eu1 2.394 . S
O24 C9 1.251 . S
O25 C9 1.251 . S
O25 Eu11 2.374 1_554 S
O26 C10 1.257 . S
O26 Eu11 2.473 . S
O27 C10 1.260 . S
O27 Eu11 2.480 . S
O28 Eu11 2.430 . S
O28 C18 1.259 1_556 S
O29 Eu1 2.355 . S
O29 Eu11 2.670 1_554 S
O29 C18 1.270 . S
O30 Eu11 2.394 . S
O30 C19 1.251 . S
O31 Eu1 2.374 1_556 S
O31 C19 1.251 . S
H32 C3 0.931 . S
H33 C4 0.931 . S
H34 C6 0.931 . S
H35 C7 0.931 . S
H36 C13 0.931 . S
H37 C14 0.931 . S
H38 C16 0.931 . S
H39 C17 0.931 . S
C40 Eu41 2.835 . S
C40 C42 1.500 . S
C40 O60 1.257 . S
C40 O61 1.260 . S
Eu41 C40 2.835 . S
Eu41 O60 2.473 . S
Eu41 O61 2.480 . S
Eu41 O62 2.430 . S
Eu41 O63 2.670 . S
Eu41 O64 2.394 . S
Eu41 O69 2.355 . S
Eu41 O71 2.374 . S
C42 C40 1.500 . S
C42 C43 1.377 . S
C42 C47 1.377 . S
C43 C42 1.377 . S
C43 C44 1.395 . S
C43 H72 0.931 . S
C44 C43 1.395 . S
C44 C45 1.383 . S
C44 H73 0.931 . S
C45 C44 1.383 . S
C45 C46 1.394 . S
C46 C45 1.394 . S
C46 C47 1.378 . S
C46 H74 0.931 . S
C47 C42 1.377 . S
C47 C46 1.378 . S
C47 H75 0.931 . S
C48 O62 1.259 . S
C48 O63 1.270 . S
C49 O64 1.251 . S
C49 O65 1.251 . S
C50 Eu51 2.835 . S
C50 C52 1.500 . S
C50 O66 1.257 . S
C50 O67 1.260 . S
Eu51 C50 2.835 . S
Eu51 O63 2.355 . S
Eu51 O65 2.374 . S
Eu51 O66 2.473 . S
Eu51 O67 2.480 . S
Eu51 O68 2.430 . S
Eu51 O69 2.670 . S
Eu51 O70 2.394 . S
C52 C50 1.500 . S
C52 C53 1.377 . S
C52 C57 1.377 . S
C53 C52 1.377 . S
C53 C54 1.395 . S
C53 H76 0.931 . S
C54 C53 1.395 . S
C54 C55 1.383 . S
C54 H77 0.931 . S
C55 C54 1.383 . S
C55 C56 1.394 . S
C56 C55 1.394 . S
C56 C57 1.378 . S
C56 H78 0.931 . S
C57 C52 1.377 . S
C57 C56 1.378 . S
C57 H79 0.931 . S
C58 O68 1.259 . S
C58 O69 1.270 . S
C59 O70 1.251 . S
C59 O71 1.251 . S
O60 C40 1.257 . S
O60 Eu41 2.473 . S
O61 C40 1.260 . S
O61 Eu41 2.480 . S
O62 Eu41 2.430 . S
O62 C48 1.259 . S
O63 Eu41 2.670 . S
O63 C48 1.270 . S
O63 Eu51 2.355 . S
O64 Eu41 2.394 . S
O64 C49 1.251 . S
O65 C49 1.251 . S
O65 Eu51 2.374 . S
O66 C50 1.257 . S
O66 Eu51 2.473 . S
O67 C50 1.260 . S
O67 Eu51 2.480 . S
O68 Eu51 2.430 . S
O68 C58 1.259 . S
O69 Eu41 2.355 . S
O69 Eu51 2.670 . S
O69 C58 1.270 . S
O70 Eu51 2.394 . S
O70 C59 1.251 . S
O71 Eu41 2.374 . S
O71 C59 1.251 . S
H72 C43 0.931 . S
H73 C44 0.931 . S
H74 C46 0.931 . S
H75 C47 0.931 . S
H76 C53 0.931 . S
H77 C54 0.931 . S
H78 C56 0.931 . S
H79 C57 0.931 . S
C80 Eu81 2.835 . S
C80 C82 1.500 . S
C80 O100 1.257 . S
C80 O101 1.260 . S
Eu81 C80 2.835 . S
Eu81 O100 2.473 . S
Eu81 O101 2.480 . S
Eu81 O102 2.430 . S
Eu81 O103 2.670 . S
Eu81 O104 2.394 . S
Eu81 O109 2.355 . S
Eu81 O111 2.374 . S
C82 C80 1.500 . S
C82 C83 1.377 . S
C82 C87 1.377 . S
C83 C82 1.377 . S
C83 C84 1.395 . S
C83 H112 0.931 . S
C84 C83 1.395 . S
C84 C85 1.383 . S
C84 H113 0.931 . S
C85 C84 1.383 . S
C85 C86 1.394 . S
C86 C85 1.394 . S
C86 C87 1.378 . S
C86 H114 0.931 . S
C87 C82 1.377 . S
C87 C86 1.378 . S
C87 H115 0.931 . S
C88 O102 1.259 . S
C88 O103 1.270 . S
C89 O104 1.251 . S
C89 O105 1.251 . S
C90 Eu91 2.835 . S
C90 C92 1.500 . S
C90 O106 1.257 . S
C90 O107 1.260 . S
Eu91 C90 2.835 . S
Eu91 O103 2.355 . S
Eu91 O105 2.374 . S
Eu91 O106 2.473 . S
Eu91 O107 2.480 . S
Eu91 O108 2.430 . S
Eu91 O109 2.670 . S
Eu91 O110 2.394 . S
C92 C90 1.500 . S
C92 C93 1.377 . S
C92 C97 1.377 . S
C93 C92 1.377 . S
C93 C94 1.395 . S
C93 H116 0.931 . S
C94 C93 1.395 . S
C94 C95 1.383 . S
C94 H117 0.931 . S
C95 C94 1.383 . S
C95 C96 1.394 . S
C96 C95 1.394 . S
C96 C97 1.378 . S
C96 H118 0.931 . S
C97 C92 1.377 . S
C97 C96 1.378 . S
C97 H119 0.931 . S
C98 O108 1.259 . S
C98 O109 1.270 . S
C99 O110 1.251 . S
C99 O111 1.251 . S
O100 C80 1.257 . S
O100 Eu81 2.473 . S
O101 C80 1.260 . S
O101 Eu81 2.480 . S
O102 Eu81 2.430 . S
O102 C88 1.259 . S
O103 Eu81 2.670 . S
O103 C88 1.270 . S
O103 Eu91 2.355 . S
O104 Eu81 2.394 . S
O104 C89 1.251 . S
O105 C89 1.251 . S
O105 Eu91 2.374 . S
O106 C90 1.257 . S
O106 Eu91 2.473 . S
O107 C90 1.260 . S
O107 Eu91 2.480 . S
O108 Eu91 2.430 . S
O108 C98 1.259 . S
O109 Eu81 2.355 . S
O109 Eu91 2.670 . S
O109 C98 1.270 . S
O110 Eu91 2.394 . S
O110 C99 1.251 . S
O111 Eu81 2.374 . S
O111 C99 1.251 . S
H112 C83 0.931 . S
H113 C84 0.931 . S
H114 C86 0.931 . S
H115 C87 0.931 . S
H116 C93 0.931 . S
H117 C94 0.931 . S
H118 C96 0.931 . S
H119 C97 0.931 . S
C120 Eu121 2.835 . S
C120 C122 1.500 . S
C120 O140 1.257 . S
C120 O141 1.260 . S
Eu121 C120 2.835 . S
Eu121 O140 2.473 . S
Eu121 O141 2.480 . S
Eu121 O142 2.430 . S
Eu121 O143 2.670 1_554 S
Eu121 O144 2.394 . S
Eu121 O149 2.355 . S
Eu121 O151 2.374 1_554 S
C122 C120 1.500 . S
C122 C123 1.377 . S
C122 C127 1.377 . S
C123 C122 1.377 . S
C123 C124 1.395 . S
C123 H152 0.931 . S
C124 C123 1.395 . S
C124 C125 1.383 . S
C124 H153 0.931 . S
C125 C124 1.383 . S
C125 C126 1.394 . S
C126 C125 1.394 . S
C126 C127 1.378 . S
C126 H154 0.931 . S
C127 C122 1.377 . S
C127 C126 1.378 . S
C127 H155 0.931 . S
C128 O142 1.259 1_556 S
C128 O143 1.270 . S
C129 O144 1.251 . S
C129 O145 1.251 . S
C130 Eu131 2.835 . S
C130 C132 1.500 . S
C130 O146 1.257 . S
C130 O147 1.260 . S
Eu131 C130 2.835 . S
Eu131 O143 2.355 . S
Eu131 O145 2.374 1_556 S
Eu131 O146 2.473 . S
Eu131 O147 2.480 . S
Eu131 O148 2.430 . S
Eu131 O149 2.670 1_556 S
Eu131 O150 2.394 . S
C132 C130 1.500 . S
C132 C133 1.377 . S
C132 C137 1.377 . S
C133 C132 1.377 . S
C133 C134 1.395 . S
C133 H156 0.931 . S
C134 C133 1.395 . S
C134 C135 1.383 . S
C134 H157 0.931 . S
C135 C134 1.383 . S
C135 C136 1.394 . S
C136 C135 1.394 . S
C136 C137 1.378 . S
C136 H158 0.931 . S
C137 C132 1.377 . S
C137 C136 1.378 . S
C137 H159 0.931 . S
C138 O148 1.259 1_554 S
C138 O149 1.270 . S
C139 O150 1.251 . S
C139 O151 1.251 . S
O140 C120 1.257 . S
O140 Eu121 2.473 . S
O141 C120 1.260 . S
O141 Eu121 2.480 . S
O142 Eu121 2.430 . S
O142 C128 1.259 1_554 S
O143 Eu121 2.670 1_556 S
O143 C128 1.270 . S
O143 Eu131 2.355 . S
O144 Eu121 2.394 . S
O144 C129 1.251 . S
O145 C129 1.251 . S
O145 Eu131 2.374 1_554 S
O146 C130 1.257 . S
O146 Eu131 2.473 . S
O147 C130 1.260 . S
O147 Eu131 2.480 . S
O148 Eu131 2.430 . S
O148 C138 1.259 1_556 S
O149 Eu121 2.355 . S
O149 Eu131 2.670 1_554 S
O149 C138 1.270 . S
O150 Eu131 2.394 . S
O150 C139 1.251 . S
O151 Eu121 2.374 1_556 S
O151 C139 1.251 . S
H152 C123 0.931 . S
H153 C124 0.931 . S
H154 C126 0.931 . S
H155 C127 0.931 . S
H156 C133 0.931 . S
H157 C134 0.931 . S
H158 C136 0.931 . S
H159 C137 0.931 . S
C160 Eu161 2.835 . S
C160 C162 1.500 . S
C160 O180 1.257 . S
C160 O181 1.260 . S
Eu161 C160 2.835 . S
Eu161 O180 2.473 . S
Eu161 O181 2.480 . S
Eu161 O182 2.430 . S
Eu161 O183 2.670 . S
Eu161 O184 2.394 . S
Eu161 O189 2.355 . S
Eu161 O191 2.374 . S
C162 C160 1.500 . S
C162 C163 1.377 . S
C162 C167 1.377 . S
C163 C162 1.377 . S
C163 C164 1.395 . S
C163 H192 0.931 . S
C164 C163 1.395 . S
C164 C165 1.383 . S
C164 H193 0.931 . S
C165 C164 1.383 . S
C165 C166 1.394 . S
C166 C165 1.394 . S
C166 C167 1.378 . S
C166 H194 0.931 . S
C167 C162 1.377 . S
C167 C166 1.378 . S
C167 H195 0.931 . S
C168 O182 1.259 . S
C168 O183 1.270 . S
C169 O184 1.251 . S
C169 O185 1.251 . S
C170 Eu171 2.835 . S
C170 C172 1.500 . S
C170 O186 1.257 . S
C170 O187 1.260 . S
Eu171 C170 2.835 . S
Eu171 O183 2.355 . S
Eu171 O185 2.374 . S
Eu171 O186 2.473 . S
Eu171 O187 2.480 . S
Eu171 O188 2.430 . S
Eu171 O189 2.670 . S
Eu171 O190 2.394 . S
C172 C170 1.500 . S
C172 C173 1.377 . S
C172 C177 1.377 . S
C173 C172 1.377 . S
C173 C174 1.395 . S
C173 H196 0.931 . S
C174 C173 1.395 . S
C174 C175 1.383 . S
C174 H197 0.931 . S
C175 C174 1.383 . S
C175 C176 1.394 . S
C176 C175 1.394 . S
C176 C177 1.378 . S
C176 H198 0.931 . S
C177 C172 1.377 . S
C177 C176 1.378 . S
C177 H199 0.931 . S
C178 O188 1.259 . S
C178 O189 1.270 . S
C179 O190 1.251 . S
C179 O191 1.251 . S
O180 C160 1.257 . S
O180 Eu161 2.473 . S
O181 C160 1.260 . S
O181 Eu161 2.480 . S
O182 Eu161 2.430 . S
O182 C168 1.259 . S
O183 Eu161 2.670 . S
O183 C168 1.270 . S
O183 Eu171 2.355 . S
O184 Eu161 2.394 . S
O184 C169 1.251 . S
O185 C169 1.251 . S
O185 Eu171 2.374 . S
O186 C170 1.257 . S
O186 Eu171 2.473 . S
O187 C170 1.260 . S
O187 Eu171 2.480 . S
O188 Eu171 2.430 . S
O188 C178 1.259 . S
O189 Eu161 2.355 . S
O189 Eu171 2.670 . S
O189 C178 1.270 . S
O190 Eu171 2.394 . S
O190 C179 1.251 . S
O191 Eu161 2.374 . S
O191 C179 1.251 . S
H192 C163 0.931 . S
H193 C164 0.931 . S
H194 C166 0.931 . S
H195 C167 0.931 . S
H196 C173 0.931 . S
H197 C174 0.931 . S
H198 C176 0.931 . S
H199 C177 0.931 . S
C200 Eu201 2.835 . S
C200 C202 1.500 . S
C200 O220 1.257 . S
C200 O221 1.260 . S
Eu201 C200 2.835 . S
Eu201 O220 2.473 . S
Eu201 O221 2.480 . S
Eu201 O222 2.430 . S
Eu201 O223 2.670 . S
Eu201 O224 2.394 . S
Eu201 O229 2.355 . S
Eu201 O231 2.374 . S
C202 C200 1.500 . S
C202 C203 1.377 . S
C202 C207 1.377 . S
C203 C202 1.377 . S
C203 C204 1.395 . S
C203 H232 0.931 . S
C204 C203 1.395 . S
C204 C205 1.383 . S
C204 H233 0.931 . S
C205 C204 1.383 . S
C205 C206 1.394 . S
C206 C205 1.394 . S
C206 C207 1.378 . S
C206 H234 0.931 . S
C207 C202 1.377 . S
C207 C206 1.378 . S
C207 H235 0.931 . S
C208 O222 1.259 . S
C208 O223 1.270 . S
C209 O224 1.251 . S
C209 O225 1.251 . S
C210 Eu211 2.835 . S
C210 C212 1.500 . S
C210 O226 1.257 . S
C210 O227 1.260 . S
Eu211 C210 2.835 . S
Eu211 O223 2.355 . S
Eu211 O225 2.374 . S
Eu211 O226 2.473 . S
Eu211 O227 2.480 . S
Eu211 O228 2.430 . S
Eu211 O229 2.670 . S
Eu211 O230 2.394 . S
C212 C210 1.500 . S
C212 C213 1.377 . S
C212 C217 1.377 . S
C213 C212 1.377 . S
C213 C214 1.395 . S
C213 H236 0.931 . S
C214 C213 1.395 . S
C214 C215 1.383 . S
C214 H237 0.931 . S
C215 C214 1.383 . S
C215 C216 1.394 . S
C216 C215 1.394 . S
C216 C217 1.378 . S
C216 H238 0.931 . S
C217 C212 1.377 . S
C217 C216 1.378 . S
C217 H239 0.931 . S
C218 O228 1.259 . S
C218 O229 1.270 . S
C219 O230 1.251 . S
C219 O231 1.251 . S
O220 C200 1.257 . S
O220 Eu201 2.473 . S
O221 C200 1.260 . S
O221 Eu201 2.480 . S
O222 Eu201 2.430 . S
O222 C208 1.259 . S
O223 Eu201 2.670 . S
O223 C208 1.270 . S
O223 Eu211 2.355 . S
O224 Eu201 2.394 . S
O224 C209 1.251 . S
O225 C209 1.251 . S
O225 Eu211 2.374 . S
O226 C210 1.257 . S
O226 Eu211 2.473 . S
O227 C210 1.260 . S
O227 Eu211 2.480 . S
O228 Eu211 2.430 . S
O228 C218 1.259 . S
O229 Eu201 2.355 . S
O229 Eu211 2.670 . S
O229 C218 1.270 . S
O230 Eu211 2.394 . S
O230 C219 1.251 . S
O231 Eu201 2.374 . S
O231 C219 1.251 . S
H232 C203 0.931 . S
H233 C204 0.931 . S
H234 C206 0.931 . S
H235 C207 0.931 . S
H236 C213 0.931 . S
H237 C214 0.931 . S
H238 C216 0.931 . S
H239 C217 0.931 . S
H240 C248 0.929 . S
H241 C250 0.930 . S
H242 C252 0.930 . S
H243 C255 0.929 . S
H244 C258 0.930 . S
H245 C260 0.960 . S
H246 C260 0.960 . S
H247 C260 0.960 . S
C248 H240 0.929 . S
C248 C249 1.377 . S
C248 C250 1.384 . S
C249 C248 1.377 . S
C249 C255 1.390 . S
C250 H241 0.930 . S
C250 C248 1.384 . S
C250 C251 1.372 . S
C251 C250 1.372 . S
C251 C252 1.400 . S
C251 C256 1.490 . S
C252 H242 0.930 . S
C252 C251 1.400 . S
C252 C255 1.386 . S
H253 C269 0.930 . S
H254 C270 0.931 . S
C255 H243 0.929 . S
C255 C249 1.390 . S
C255 C252 1.386 . S
C256 C251 1.490 . S
C256 C258 1.395 . S
C256 C259 1.403 . S
H257 C263 0.930 . S
C258 H244 0.930 . S
C258 C256 1.395 . S
C258 C261 1.403 . S
C259 C256 1.403 . S
C259 C260 1.524 . S
C259 C263 1.400 . S
C260 H245 0.960 . S
C260 H246 0.960 . S
C260 H247 0.960 . S
C260 C259 1.524 . S
C261 C258 1.403 . S
C261 C262 1.392 . S
C261 C265 1.495 . S
C262 C261 1.392 . S
C262 C263 1.385 . S
C262 C264 1.478 . S
C263 H257 0.930 . S
C263 C259 1.400 . S
C263 C262 1.385 . S
C264 C262 1.478 . S
C264 C266 1.381 . S
C264 C270 1.383 . S
C265 C261 1.495 . S
C265 H271 0.959 . S
C265 H272 0.961 . S
C265 H273 0.960 . S
C266 C264 1.381 . S
C266 C267 1.394 . S
C266 H274 0.930 . S
C267 C266 1.394 . S
C267 C268 1.383 . S
C267 H275 0.929 . S
C268 C267 1.383 . S
C268 C269 1.377 . S
C269 H253 0.930 . S
C269 C268 1.377 . S
C269 C270 1.379 . S
C270 H254 0.931 . S
C270 C264 1.383 . S
C270 C269 1.379 . S
H271 C265 0.959 . S
H272 C265 0.961 . S
H273 C265 0.960 . S
H274 C266 0.930 . S
H275 C267 0.929 . S
H276 C284 0.929 . S
H277 C286 0.930 . S
H278 C288 0.930 . S
H279 C291 0.929 . S
H280 C294 0.930 . S
H281 C296 0.960 . S
H282 C296 0.960 . S
H283 C296 0.960 . S
C284 H276 0.929 . S
C284 C285 1.377 . S
C284 C286 1.384 . S
C285 C284 1.377 . S
C285 C291 1.390 . S
C286 H277 0.930 . S
C286 C284 1.384 . S
C286 C287 1.372 . S
C287 C286 1.372 . S
C287 C288 1.400 . S
C287 C292 1.490 . S
C288 H278 0.930 . S
C288 C287 1.400 . S
C288 C291 1.386 . S
H289 C305 0.930 . S
H290 C306 0.931 . S
C291 H279 0.929 . S
C291 C285 1.390 . S
C291 C288 1.386 . S
C292 C287 1.490 . S
C292 C294 1.395 . S
C292 C295 1.403 1_455 S
H293 C299 0.930 . S
C294 H280 0.930 . S
C294 C292 1.395 . S
C294 C297 1.403 . S
C295 C292 1.403 1_655 S
C295 C296 1.524 . S
C295 C299 1.400 . S
C296 H281 0.960 . S
C296 H282 0.960 . S
C296 H283 0.960 . S
C296 C295 1.524 . S
C297 C294 1.403 . S
C297 C298 1.392 1_455 S
C297 C301 1.495 . S
C298 C297 1.392 1_655 S
C298 C299 1.385 . S
C298 C300 1.478 . S
C299 H293 0.930 . S
C299 C295 1.400 . S
C299 C298 1.385 . S
C300 C298 1.478 . S
C300 C302 1.381 . S
C300 C306 1.383 . S
C301 C297 1.495 . S
C301 H307 0.959 . S
C301 H308 0.961 . S
C301 H309 0.960 . S
C302 C300 1.381 . S
C302 C303 1.394 . S
C302 H310 0.930 . S
C303 C302 1.394 . S
C303 C304 1.383 . S
C303 H311 0.929 . S
C304 C303 1.383 . S
C304 C305 1.377 . S
C305 H289 0.930 . S
C305 C304 1.377 . S
C305 C306 1.379 . S
C306 H290 0.931 . S
C306 C300 1.383 . S
C306 C305 1.379 . S
H307 C301 0.959 . S
H308 C301 0.961 . S
H309 C301 0.960 . S
H310 C302 0.930 . S
H311 C303 0.929 . S
H312 C320 0.929 . S
H313 C322 0.930 . S
H314 C324 0.930 . S
H315 C327 0.929 . S
H316 C330 0.930 . S
H317 C332 0.960 . S
H318 C332 0.960 . S
H319 C332 0.960 . S
C320 H312 0.929 . S
C320 C321 1.377 . S
C320 C322 1.384 . S
C321 C320 1.377 . S
C321 C327 1.390 . S
C322 H313 0.930 . S
C322 C320 1.384 . S
C322 C323 1.372 . S
C323 C322 1.372 . S
C323 C324 1.400 . S
C323 C328 1.490 . S
C324 H314 0.930 . S
C324 C323 1.400 . S
C324 C327 1.386 . S
H325 C341 0.930 . S
H326 C342 0.931 . S
C327 H315 0.929 . S
C327 C321 1.390 . S
C327 C324 1.386 . S
C328 C323 1.490 . S
C328 C330 1.395 . S
C328 C331 1.403 . S
H329 C335 0.930 . S
C330 H316 0.930 . S
C330 C328 1.395 . S
C330 C333 1.403 1_545 S
C331 C328 1.403 . S
C331 C332 1.524 . S
C331 C335 1.400 1_545 S
C332 H317 0.960 . S
C332 H318 0.960 . S
C332 H319 0.960 . S
C332 C331 1.524 . S
C333 C330 1.403 1_565 S
C333 C334 1.392 . S
C333 C337 1.495 . S
C334 C333 1.392 . S
C334 C335 1.385 . S
C334 C336 1.478 . S
C335 H329 0.930 . S
C335 C331 1.400 1_565 S
C335 C334 1.385 . S
C336 C334 1.478 . S
C336 C338 1.381 . S
C336 C342 1.383 . S
C337 C333 1.495 . S
C337 H343 0.959 . S
C337 H344 0.961 . S
C337 H345 0.960 . S
C338 C336 1.381 . S
C338 C339 1.394 . S
C338 H346 0.930 . S
C339 C338 1.394 . S
C339 C340 1.383 . S
C339 H347 0.929 . S
C340 C339 1.383 . S
C340 C341 1.377 . S
C341 H325 0.930 . S
C341 C340 1.377 . S
C341 C342 1.379 . S
C342 H326 0.931 . S
C342 C336 1.383 . S
C342 C341 1.379 . S
H343 C337 0.959 . S
H344 C337 0.961 . S
H345 C337 0.960 . S
H346 C338 0.930 . S
H347 C339 0.929 . S
H348 C356 0.929 . S
H349 C358 0.930 . S
H350 C360 0.930 . S
H351 C363 0.929 . S
H352 C366 0.930 . S
H353 C368 0.960 . S
H354 C368 0.960 . S
H355 C368 0.960 . S
C356 H348 0.929 . S
C356 C357 1.377 . S
C356 C358 1.384 . S
C357 C356 1.377 . S
C357 C363 1.390 . S
C358 H349 0.930 . S
C358 C356 1.384 . S
C358 C359 1.372 . S
C359 C358 1.372 . S
C359 C360 1.400 . S
C359 C364 1.490 . S
C360 H350 0.930 . S
C360 C359 1.400 . S
C360 C363 1.386 . S
H361 C377 0.930 . S
H362 C378 0.931 . S
C363 H351 0.929 . S
C363 C357 1.390 . S
C363 C360 1.386 . S
C364 C359 1.490 . S
C364 C366 1.395 . S
C364 C367 1.403 . S
H365 C371 0.930 . S
C366 H352 0.930 . S
C366 C364 1.395 . S
C366 C369 1.403 . S
C367 C364 1.403 . S
C367 C368 1.524 . S
C367 C371 1.400 . S
C368 H353 0.960 . S
C368 H354 0.960 . S
C368 H355 0.960 . S
C368 C367 1.524 . S
C369 C366 1.403 . S
C369 C370 1.392 . S
C369 C373 1.495 . S
C370 C369 1.392 . S
C370 C371 1.385 . S
C370 C372 1.478 . S
C371 H365 0.930 . S
C371 C367 1.400 . S
C371 C370 1.385 . S
C372 C370 1.478 . S
C372 C374 1.381 . S
C372 C378 1.383 . S
C373 C369 1.495 . S
C373 H379 0.959 . S
C373 H380 0.961 . S
C373 H381 0.960 . S
C374 C372 1.381 . S
C374 C375 1.394 . S
C374 H382 0.930 . S
C375 C374 1.394 . S
C375 C376 1.383 . S
C375 H383 0.929 . S
C376 C375 1.383 . S
C376 C377 1.377 . S
C377 H361 0.930 . S
C377 C376 1.377 . S
C377 C378 1.379 . S
C378 H362 0.931 . S
C378 C372 1.383 . S
C378 C377 1.379 . S
H379 C373 0.959 . S
H380 C373 0.961 . S
H381 C373 0.960 . S
H382 C374 0.930 . S
H383 C375 0.929 . S
H384 C392 0.929 . S
H385 C394 0.930 . S
H386 C396 0.930 . S
H387 C399 0.929 . S
H388 C402 0.930 . S
H389 C404 0.960 . S
H390 C404 0.960 . S
H391 C404 0.960 . S
C392 H384 0.929 . S
C392 C393 1.377 . S
C392 C394 1.384 . S
C393 C392 1.377 . S
C393 C399 1.390 . S
C394 H385 0.930 . S
C394 C392 1.384 . S
C394 C395 1.372 . S
C395 C394 1.372 . S
C395 C396 1.400 . S
C395 C400 1.490 . S
C396 H386 0.930 . S
C396 C395 1.400 . S
C396 C399 1.386 . S
H397 C413 0.930 . S
H398 C414 0.931 . S
C399 H387 0.929 . S
C399 C393 1.390 . S
C399 C396 1.386 . S
C400 C395 1.490 . S
C400 C402 1.395 . S
C400 C403 1.403 . S
H401 C407 0.930 . S
C402 H388 0.930 . S
C402 C400 1.395 . S
C402 C405 1.403 1_455 S
C403 C400 1.403 . S
C403 C404 1.524 . S
C403 C407 1.400 1_455 S
C404 H389 0.960 . S
C404 H390 0.960 . S
C404 H391 0.960 . S
C404 C403 1.524 . S
C405 C402 1.403 1_655 S
C405 C406 1.392 . S
C405 C409 1.495 . S
C406 C405 1.392 . S
C406 C407 1.385 . S
C406 C408 1.478 . S
C407 H401 0.930 . S
C407 C403 1.400 1_655 S
C407 C406 1.385 . S
C408 C406 1.478 . S
C408 C410 1.381 . S
C408 C414 1.383 . S
C409 C405 1.495 . S
C409 H415 0.959 . S
C409 H416 0.961 . S
C409 H417 0.960 . S
C410 C408 1.381 . S
C410 C411 1.394 . S
C410 H418 0.930 . S
C411 C410 1.394 . S
C411 C412 1.383 . S
C411 H419 0.929 . S
C412 C411 1.383 . S
C412 C413 1.377 . S
C413 H397 0.930 . S
C413 C412 1.377 . S
C413 C414 1.379 . S
C414 H398 0.931 . S
C414 C408 1.383 . S
C414 C413 1.379 . S
H415 C409 0.959 . S
H416 C409 0.961 . S
H417 C409 0.960 . S
H418 C410 0.930 . S
H419 C411 0.929 . S
H420 C428 0.929 . S
H421 C430 0.930 . S
H422 C432 0.930 . S
H423 C435 0.929 . S
H424 C438 0.930 . S
H425 C440 0.960 . S
H426 C440 0.960 . S
H427 C440 0.960 . S
C428 H420 0.929 . S
C428 C429 1.377 . S
C428 C430 1.384 . S
C429 C428 1.377 . S
C429 C435 1.390 . S
C430 H421 0.930 . S
C430 C428 1.384 . S
C430 C431 1.372 . S
C431 C430 1.372 . S
C431 C432 1.400 . S
C431 C436 1.490 . S
C432 H422 0.930 . S
C432 C431 1.400 . S
C432 C435 1.386 . S
H433 C449 0.930 . S
H434 C450 0.931 . S
C435 H423 0.929 . S
C435 C429 1.390 . S
C435 C432 1.386 . S
C436 C431 1.490 . S
C436 C438 1.395 1_545 S
C436 C439 1.403 . S
H437 C443 0.929 . S
C438 H424 0.930 . S
C438 C436 1.395 1_565 S
C438 C441 1.403 . S
C439 C436 1.403 . S
C439 C440 1.524 . S
C439 C443 1.375 1_545 S
C440 H425 0.960 . S
C440 H426 0.960 . S
C440 H427 0.960 . S
C440 C439 1.524 . S
C441 C438 1.403 . S
C441 C442 1.392 . S
C441 C445 1.495 . S
C442 C441 1.392 . S
C442 C443 1.412 . S
C442 C444 1.478 . S
C443 H437 0.929 . S
C443 C439 1.375 1_565 S
C443 C442 1.412 . S
C444 C442 1.478 . S
C444 C446 1.381 . S
C444 C450 1.383 . S
C445 C441 1.495 . S
C445 H451 0.959 . S
C445 H452 0.961 . S
C445 H453 0.960 . S
C446 C444 1.381 . S
C446 C447 1.394 . S
C446 H454 0.930 . S
C447 C446 1.394 . S
C447 C448 1.383 . S
C447 H455 0.929 . S
C448 C447 1.383 . S
C448 C449 1.377 . S
C449 H433 0.930 . S
C449 C448 1.377 . S
C449 C450 1.379 . S
C450 H434 0.931 . S
C450 C444 1.383 . S
C450 C449 1.379 . S
H451 C445 0.959 . S
H452 C445 0.961 . S
H453 C445 0.960 . S
H454 C446 0.930 . S
H455 C447 0.929 . S
H456 C464 0.929 . S
H457 C466 0.930 . S
H458 C468 0.930 . S
H459 C471 0.929 . S
H460 C474 0.930 . S
H461 C476 0.960 . S
H462 C476 0.960 . S
H463 C476 0.960 . S
C464 H456 0.929 . S
C464 C465 1.377 . S
C464 C466 1.384 . S
C465 C464 1.377 . S
C465 C471 1.390 . S
C466 H457 0.930 . S
C466 C464 1.384 . S
C466 C467 1.372 . S
C467 C466 1.372 . S
C467 C468 1.400 . S
C467 C472 1.490 . S
C468 H458 0.930 . S
C468 C467 1.400 . S
C468 C471 1.386 . S
H469 C485 0.930 . S
H470 C486 0.931 . S
C471 H459 0.929 . S
C471 C465 1.390 . S
C471 C468 1.386 . S
C472 C467 1.490 . S
C472 C474 1.395 . S
C472 C475 1.403 . S
H473 C479 0.930 . S
C474 H460 0.930 . S
C474 C472 1.395 . S
C474 C477 1.403 . S
C475 C472 1.403 . S
C475 C476 1.524 . S
C475 C479 1.400 . S
C476 H461 0.960 . S
C476 H462 0.960 . S
C476 H463 0.960 . S
C476 C475 1.524 . S
C477 C474 1.403 . S
C477 C478 1.392 . S
C477 C481 1.495 . S
C478 C477 1.392 . S
C478 C479 1.385 . S
C478 C480 1.478 . S
C479 H473 0.930 . S
C479 C475 1.400 . S
C479 C478 1.385 . S
C480 C478 1.478 . S
C480 C482 1.381 . S
C480 C486 1.383 . S
C481 C477 1.495 . S
C481 H487 0.959 . S
C481 H488 0.961 . S
C481 H489 0.960 . S
C482 C480 1.381 . S
C482 C483 1.394 . S
C482 H490 0.930 . S
C483 C482 1.394 . S
C483 C484 1.383 . S
C483 H491 0.929 . S
C484 C483 1.383 . S
C484 C485 1.377 . S
C485 H469 0.930 . S
C485 C484 1.377 . S
C485 C486 1.379 . S
C486 H470 0.931 . S
C486 C480 1.383 . S
C486 C485 1.379 . S
H487 C481 0.959 . S
H488 C481 0.961 . S
H489 C481 0.960 . S
H490 C482 0.930 . S
H491 C483 0.929 . S
H492 C500 0.929 1_554 S
H493 C502 0.930 . S
H494 C504 0.930 . S
H495 C507 0.929 1_554 S
H496 C510 0.930 . S
H497 C512 0.960 . S
H498 C512 0.960 . S
H499 C512 0.960 . S
C500 H492 0.929 1_556 S
C500 C501 1.377 1_556 S
C500 C502 1.384 . S
C501 C500 1.377 1_554 S
C501 C507 1.390 1_554 S
C502 H493 0.930 . S
C502 C500 1.384 . S
C502 C503 1.372 . S
C503 C502 1.372 . S
C503 C504 1.400 . S
C503 C508 1.490 . S
C504 H494 0.930 . S
C504 C503 1.400 . S
C504 C507 1.386 . S
H505 C521 0.930 . S
H506 C522 0.931 . S
C507 H495 0.929 1_556 S
C507 C501 1.390 1_556 S
C507 C504 1.386 . S
C508 C503 1.490 . S
C508 C510 1.395 . S
C508 C511 1.403 . S
H509 C515 0.930 . S
C510 H496 0.930 . S
C510 C508 1.395 . S
C510 C513 1.403 . S
C511 C508 1.403 . S
C511 C512 1.524 . S
C511 C515 1.400 . S
C512 H497 0.960 . S
C512 H498 0.960 . S
C512 H499 0.960 . S
C512 C511 1.524 . S
C513 C510 1.403 . S
C513 C514 1.392 . S
C513 C517 1.495 . S
C514 C513 1.392 . S
C514 C515 1.385 . S
C514 C516 1.478 . S
C515 H509 0.930 . S
C515 C511 1.400 . S
C515 C514 1.385 . S
C516 C514 1.478 . S
C516 C518 1.381 . S
C516 C522 1.383 . S
C517 C513 1.495 . S
C517 H523 0.959 . S
C517 H524 0.961 . S
C517 H525 0.960 . S
C518 C516 1.381 . S
C518 C519 1.394 . S
C518 H526 0.930 . S
C519 C518 1.394 . S
C519 C520 1.383 . S
C519 H527 0.929 . S
C520 C519 1.383 . S
C520 C521 1.377 . S
C521 H505 0.930 . S
C521 C520 1.377 . S
C521 C522 1.379 . S
C522 H506 0.931 . S
C522 C516 1.383 . S
C522 C521 1.379 . S
H523 C517 0.959 . S
H524 C517 0.961 . S
H525 C517 0.960 . S
H526 C518 0.930 . S
H527 C519 0.929 . S
H528 C536 0.929 . S
H529 C538 0.930 . S
H530 C540 0.930 . S
H531 C543 0.929 . S
H532 C546 0.930 . S
H533 C548 0.960 . S
H534 C548 0.960 . S
H535 C548 0.960 . S
C536 H528 0.929 . S
C536 C537 1.377 . S
C536 C538 1.384 . S
C537 C536 1.377 . S
C537 C543 1.390 . S
C538 H529 0.930 . S
C538 C536 1.384 . S
C538 C539 1.372 . S
C539 C538 1.372 . S
C539 C540 1.400 . S
C539 C544 1.490 . S
C540 H530 0.930 . S
C540 C539 1.400 . S
C540 C543 1.386 . S
H541 C557 0.930 1_556 S
H542 C558 0.931 . S
C543 H531 0.929 . S
C543 C537 1.390 . S
C543 C540 1.386 . S
C544 C539 1.490 . S
C544 C546 1.395 . S
C544 C547 1.403 . S
H545 C551 0.930 . S
C546 H532 0.930 . S
C546 C544 1.395 . S
C546 C549 1.403 . S
C547 C544 1.403 . S
C547 C548 1.524 . S
C547 C551 1.400 . S
C548 H533 0.960 . S
C548 H534 0.960 . S
C548 H535 0.960 . S
C548 C547 1.524 . S
C549 C546 1.403 . S
C549 C550 1.392 . S
C549 C553 1.495 . S
C550 C549 1.392 . S
C550 C551 1.385 . S
C550 C552 1.478 . S
C551 H545 0.930 . S
C551 C547 1.400 . S
C551 C550 1.385 . S
C552 C550 1.478 . S
C552 C554 1.381 . S
C552 C558 1.383 . S
C553 C549 1.495 . S
C553 H559 0.959 . S
C553 H560 0.961 . S
C553 H561 0.960 . S
C554 C552 1.381 . S
C554 C555 1.394 . S
C554 H562 0.930 . S
C555 C554 1.394 . S
C555 C556 1.383 1_554 S
C555 H563 0.929 . S
C556 C555 1.383 1_556 S
C556 C557 1.377 1_556 S
C557 H541 0.930 1_554 S
C557 C556 1.377 1_554 S
C557 C558 1.379 . S
C558 H542 0.931 . S
C558 C552 1.383 . S
C558 C557 1.379 . S
H559 C553 0.959 . S
H560 C553 0.961 . S
H561 C553 0.960 . S
H562 C554 0.930 . S
H563 C555 0.929 . S
H564 C572 0.929 . S
H565 C574 0.930 . S
H566 C576 0.930 . S
H567 C579 0.929 . S
H568 C582 0.930 . S
H569 C584 0.960 . S
H570 C584 0.960 . S
H571 C584 0.960 . S
C572 H564 0.929 . S
C572 C573 1.377 . S
C572 C574 1.384 . S
C573 C572 1.377 . S
C573 C579 1.390 . S
C574 H565 0.930 . S
C574 C572 1.384 . S
C574 C575 1.372 . S
C575 C574 1.372 . S
C575 C576 1.400 . S
C575 C580 1.490 . S
C576 H566 0.930 . S
C576 C575 1.400 . S
C576 C579 1.386 . S
H577 C593 0.930 . S
H578 C594 0.931 . S
C579 H567 0.929 . S
C579 C573 1.390 . S
C579 C576 1.386 . S
C580 C575 1.490 . S
C580 C582 1.395 . S
C580 C583 1.403 . S
H581 C587 0.930 . S
C582 H568 0.930 . S
C582 C580 1.395 . S
C582 C585 1.403 . S
C583 C580 1.403 . S
C583 C584 1.524 . S
C583 C587 1.400 . S
C584 H569 0.960 . S
C584 H570 0.960 . S
C584 H571 0.960 . S
C584 C583 1.524 . S
C585 C582 1.403 . S
C585 C586 1.392 . S
C585 C589 1.495 . S
C586 C585 1.392 . S
C586 C587 1.385 . S
C586 C588 1.478 . S
C587 H581 0.930 . S
C587 C583 1.400 . S
C587 C586 1.385 . S
C588 C586 1.478 . S
C588 C590 1.381 . S
C588 C594 1.383 . S
C589 C585 1.495 . S
C589 H595 0.959 . S
C589 H596 0.961 . S
C589 H597 0.960 . S
C590 C588 1.381 . S
C590 C591 1.394 . S
C590 H598 0.930 . S
C591 C590 1.394 . S
C591 C592 1.383 . S
C591 H599 0.929 . S
C592 C591 1.383 . S
C592 C593 1.377 . S
C593 H577 0.930 . S
C593 C592 1.377 . S
C593 C594 1.379 . S
C594 H578 0.931 . S
C594 C588 1.383 . S
C594 C593 1.379 . S
H595 C589 0.959 . S
H596 C589 0.961 . S
H597 C589 0.960 . S
H598 C590 0.930 . S
H599 C591 0.929 . S
H600 C608 0.929 . S
H601 C610 0.930 . S
H602 C612 0.930 . S
H603 C615 0.929 . S
H604 C618 0.930 . S
H605 C620 0.960 . S
H606 C620 0.960 . S
H607 C620 0.960 . S
C608 H600 0.929 . S
C608 C609 1.377 . S
C608 C610 1.384 . S
C609 C608 1.377 . S
C609 C615 1.390 . S
C610 H601 0.930 . S
C610 C608 1.384 . S
C610 C611 1.372 . S
C611 C610 1.372 . S
C611 C612 1.400 . S
C611 C616 1.490 . S
C612 H602 0.930 . S
C612 C611 1.400 . S
C612 C615 1.386 . S
H613 C629 0.921 1_554 S
H614 C630 0.931 . S
C615 H603 0.929 . S
C615 C609 1.390 . S
C615 C612 1.386 . S
C616 C611 1.490 . S
C616 C618 1.395 . S
C616 C619 1.403 . S
H617 C623 0.930 . S
C618 H604 0.930 . S
C618 C616 1.395 . S
C618 C621 1.403 . S
C619 C616 1.403 . S
C619 C620 1.524 . S
C619 C623 1.400 . S
C620 H605 0.960 . S
C620 H606 0.960 . S
C620 H607 0.960 . S
C620 C619 1.524 . S
C621 C618 1.403 . S
C621 C622 1.392 . S
C621 C625 1.495 . S
C622 C621 1.392 . S
C622 C623 1.385 . S
C622 C624 1.478 . S
C623 H617 0.930 . S
C623 C619 1.400 . S
C623 C622 1.385 . S
C624 C622 1.478 . S
C624 C626 1.381 . S
C624 C630 1.383 . S
C625 C621 1.495 . S
C625 H631 0.959 . S
C625 H632 0.961 . S
C625 H633 0.960 . S
C626 C624 1.381 . S
C626 C627 1.394 . S
C626 H634 0.930 . S
C627 C626 1.394 . S
C627 C628 1.383 1_556 S
C627 H635 0.929 1_556 S
C628 C627 1.383 1_554 S
C628 C629 1.377 1_554 S
C629 H613 0.921 1_556 S
C629 C628 1.377 1_556 S
C629 C630 1.379 . S
C630 H614 0.931 . S
C630 C624 1.383 . S
C630 C629 1.379 . S
H631 C625 0.959 . S
H632 C625 0.961 . S
H633 C625 0.960 . S
H634 C626 0.930 . S
H635 C627 0.929 1_554 S
H636 C644 0.929 . S
H637 C646 0.930 . S
H638 C648 0.930 . S
H639 C651 0.929 . S
H640 C654 0.930 . S
H641 C656 0.960 . S
H642 C656 0.960 . S
H643 C656 0.960 . S
C644 H636 0.929 . S
C644 C645 1.377 . S
C644 C646 1.384 . S
C645 C644 1.377 . S
C645 C651 1.390 . S
C646 H637 0.930 . S
C646 C644 1.384 . S
C646 C647 1.372 . S
C647 C646 1.372 . S
C647 C648 1.400 . S
C647 C652 1.490 . S
C648 H638 0.930 . S
C648 C647 1.400 . S
C648 C651 1.386 . S
H649 C665 0.930 1_556 S
H650 C666 0.931 . S
C651 H639 0.929 . S
C651 C645 1.390 . S
C651 C648 1.386 . S
C652 C647 1.490 . S
C652 C654 1.395 . S
C652 C655 1.403 . S
H653 C659 0.930 . S
C654 H640 0.930 . S
C654 C652 1.395 . S
C654 C657 1.403 . S
C655 C652 1.403 . S
C655 C656 1.524 . S
C655 C659 1.400 . S
C656 H641 0.960 . S
C656 H642 0.960 . S
C656 H643 0.960 . S
C656 C655 1.524 . S
C657 C654 1.403 . S
C657 C658 1.392 . S
C657 C661 1.495 . S
C658 C657 1.392 . S
C658 C659 1.385 . S
C658 C660 1.478 . S
C659 H653 0.930 . S
C659 C655 1.400 . S
C659 C658 1.385 . S
C660 C658 1.478 . S
C660 C662 1.381 . S
C660 C666 1.383 . S
C661 C657 1.495 . S
C661 H667 0.959 . S
C661 H668 0.961 . S
C661 H669 0.960 . S
C662 C660 1.381 . S
C662 C663 1.394 . S
C662 H670 0.930 . S
C663 C662 1.394 . S
C663 C664 1.383 1_554 S
C663 H671 0.929 1_554 S
C664 C663 1.383 1_556 S
C664 C665 1.377 1_556 S
C665 H649 0.930 1_554 S
C665 C664 1.377 1_554 S
C665 C666 1.379 . S
C666 H650 0.931 . S
C666 C660 1.383 . S
C666 C665 1.379 . S
H667 C661 0.959 . S
H668 C661 0.961 . S
H669 C661 0.960 . S
H670 C662 0.930 . S
H671 C663 0.929 1_556 S
H672 C680 0.929 . S
H673 C682 0.930 . S
H674 C684 0.930 . S
H675 C687 0.929 . S
H676 C690 0.930 . S
H677 C692 0.960 . S
H678 C692 0.960 . S
H679 C692 0.960 . S
C680 H672 0.929 . S
C680 C681 1.377 . S
C680 C682 1.384 . S
C681 C680 1.377 . S
C681 C687 1.390 . S
C682 H673 0.930 . S
C682 C680 1.384 . S
C682 C683 1.372 . S
C683 C682 1.372 . S
C683 C684 1.400 . S
C683 C688 1.490 . S
C684 H674 0.930 . S
C684 C683 1.400 . S
C684 C687 1.386 . S
H685 C701 0.930 . S
H686 C702 0.931 . S
C687 H675 0.929 . S
C687 C681 1.390 . S
C687 C684 1.386 . S
C688 C683 1.490 . S
C688 C690 1.395 . S
C688 C691 1.403 . S
H689 C695 0.930 . S
C690 H676 0.930 . S
C690 C688 1.395 . S
C690 C693 1.403 . S
C691 C688 1.403 . S
C691 C692 1.524 . S
C691 C695 1.400 . S
C692 H677 0.960 . S
C692 H678 0.960 . S
C692 H679 0.960 . S
C692 C691 1.524 . S
C693 C690 1.403 . S
C693 C694 1.392 . S
C693 C697 1.495 . S
C694 C693 1.392 . S
C694 C695 1.385 . S
C694 C696 1.478 . S
C695 H689 0.930 . S
C695 C691 1.400 . S
C695 C694 1.385 . S
C696 C694 1.478 . S
C696 C698 1.381 . S
C696 C702 1.383 . S
C697 C693 1.495 . S
C697 H703 0.959 . S
C697 H704 0.961 . S
C697 H705 0.960 . S
C698 C696 1.381 . S
C698 C699 1.394 . S
C698 H706 0.930 . S
C699 C698 1.394 . S
C699 C700 1.383 . S
C699 H707 0.929 . S
C700 C699 1.383 . S
C700 C701 1.377 . S
C701 H685 0.930 . S
C701 C700 1.377 . S
C701 C702 1.379 . S
C702 H686 0.931 . S
C702 C696 1.383 . S
C702 C701 1.379 . S
H703 C697 0.959 . S
H704 C697 0.961 . S
H705 C697 0.960 . S
H706 C698 0.930 . S
H707 C699 0.929 . S
H708 C716 0.929 . S
H709 C718 0.930 . S
H710 C720 0.930 . S
H711 C723 0.929 . S
H712 C726 0.930 . S
H713 C728 0.960 . S
H714 C728 0.960 . S
H715 C728 0.960 . S
C716 H708 0.929 . S
C716 C717 1.377 . S
C716 C718 1.384 . S
C717 C716 1.377 . S
C717 C723 1.390 . S
C718 H709 0.930 . S
C718 C716 1.384 . S
C718 C719 1.372 . S
C719 C718 1.372 . S
C719 C720 1.400 . S
C719 C724 1.490 . S
C720 H710 0.930 . S
C720 C719 1.400 . S
C720 C723 1.386 . S
H721 C737 0.930 . S
H722 C738 0.931 . S
C723 H711 0.929 . S
C723 C717 1.390 . S
C723 C720 1.386 . S
C724 C719 1.490 . S
C724 C726 1.395 . S
C724 C727 1.403 . S
H725 C731 0.930 . S
C726 H712 0.930 . S
C726 C724 1.395 . S
C726 C729 1.403 . S
C727 C724 1.403 . S
C727 C728 1.524 . S
C727 C731 1.400 . S
C728 H713 0.960 . S
C728 H714 0.960 . S
C728 H715 0.960 . S
C728 C727 1.524 . S
C729 C726 1.403 . S
C729 C730 1.392 . S
C729 C733 1.495 . S
C730 C729 1.392 . S
C730 C731 1.385 . S
C730 C732 1.478 . S
C731 H725 0.930 . S
C731 C727 1.400 . S
C731 C730 1.385 . S
C732 C730 1.478 . S
C732 C734 1.381 . S
C732 C738 1.383 . S
C733 C729 1.495 . S
C733 H739 0.959 . S
C733 H740 0.961 . S
C733 H741 0.960 . S
C734 C732 1.381 . S
C734 C735 1.394 . S
C734 H742 0.930 . S
C735 C734 1.394 . S
C735 C736 1.383 . S
C735 H743 0.929 . S
C736 C735 1.383 . S
C736 C737 1.377 . S
C737 H721 0.930 . S
C737 C736 1.377 . S
C737 C738 1.379 . S
C738 H722 0.931 . S
C738 C732 1.383 . S
C738 C737 1.379 . S
H739 C733 0.959 . S
H740 C733 0.961 . S
H741 C733 0.960 . S
H742 C734 0.930 . S
H743 C735 0.929 . S
H744 C752 0.939 . S
H745 C754 0.930 . S
H746 C756 0.930 . S
H747 C759 0.929 . S
H748 C762 0.930 . S
H749 C764 0.960 . S
H750 C764 0.960 . S
H751 C764 0.960 . S
C752 H744 0.939 . S
C752 C753 1.377 . S
C752 C754 1.384 . S
C753 C752 1.377 . S
C753 C759 1.390 . S
C754 H745 0.930 . S
C754 C752 1.384 . S
C754 C755 1.372 . S
C755 C754 1.372 . S
C755 C756 1.400 . S
C755 C760 1.490 . S
C756 H746 0.930 . S
C756 C755 1.400 . S
C756 C759 1.386 . S
H757 C773 0.930 . S
H758 C774 0.931 . S
C759 H747 0.929 . S
C759 C753 1.390 . S
C759 C756 1.386 . S
C760 C755 1.490 . S
C760 C762 1.395 . S
C760 C763 1.403 . S
H761 C767 0.930 . S
C762 H748 0.930 . S
C762 C760 1.395 . S
C762 C765 1.403 . S
C763 C760 1.403 . S
C763 C764 1.524 . S
C763 C767 1.400 . S
C764 H749 0.960 . S
C764 H750 0.960 . S
C764 H751 0.960 . S
C764 C763 1.524 . S
C765 C762 1.403 . S
C765 C766 1.392 . S
C765 C769 1.495 . S
C766 C765 1.392 . S
C766 C767 1.385 . S
C766 C768 1.478 . S
C767 H761 0.930 . S
C767 C763 1.400 . S
C767 C766 1.385 . S
C768 C766 1.478 . S
C768 C770 1.381 . S
C768 C774 1.383 . S
C769 C765 1.495 . S
C769 H775 0.959 . S
C769 H776 0.961 . S
C769 H777 0.960 . S
C770 C768 1.381 . S
C770 C771 1.394 . S
C770 H778 0.930 . S
C771 C770 1.394 . S
C771 C772 1.383 . S
C771 H779 0.929 . S
C772 C771 1.383 . S
C772 C773 1.377 . S
C773 H757 0.930 . S
C773 C772 1.377 . S
C773 C774 1.379 . S
C774 H758 0.931 . S
C774 C768 1.383 . S
C774 C773 1.379 . S
H775 C769 0.959 . S
H776 C769 0.961 . S
H777 C769 0.960 . S
H778 C770 0.930 . S
H779 C771 0.929 . S
H780 C788 0.929 . S
H781 C790 0.930 . S
H782 C792 0.930 . S
H783 C795 0.929 . S
H784 C798 0.930 . S
H785 C800 0.960 . S
H786 C800 0.960 . S
H787 C800 0.960 . S
C788 H780 0.929 . S
C788 C789 1.377 . S
C788 C790 1.384 . S
C789 C788 1.377 . S
C789 C795 1.390 . S
C790 H781 0.930 . S
C790 C788 1.384 . S
C790 C791 1.372 . S
C791 C790 1.372 . S
C791 C792 1.400 . S
C791 C796 1.490 . S
C792 H782 0.930 . S
C792 C791 1.400 . S
C792 C795 1.386 . S
H793 C809 0.930 . S
H794 C810 0.931 . S
C795 H783 0.929 . S
C795 C789 1.390 . S
C795 C792 1.386 . S
C796 C791 1.490 . S
C796 C798 1.395 . S
C796 C799 1.403 . S
H797 C803 0.930 . S
C798 H784 0.930 . S
C798 C796 1.395 . S
C798 C801 1.403 . S
C799 C796 1.403 . S
C799 C800 1.524 . S
C799 C803 1.400 . S
C800 H785 0.960 . S
C800 H786 0.960 . S
C800 H787 0.960 . S
C800 C799 1.524 . S
C801 C798 1.403 . S
C801 C802 1.392 . S
C801 C805 1.495 . S
C802 C801 1.392 . S
C802 C803 1.385 . S
C802 C804 1.478 . S
C803 H797 0.930 . S
C803 C799 1.400 . S
C803 C802 1.385 . S
C804 C802 1.478 . S
C804 C806 1.381 . S
C804 C810 1.383 . S
C805 C801 1.495 . S
C805 H811 0.959 . S
C805 H812 0.961 . S
C805 H813 0.960 . S
C806 C804 1.381 . S
C806 C807 1.394 . S
C806 H814 0.930 . S
C807 C806 1.394 . S
C807 C808 1.383 . S
C807 H815 0.929 . S
C808 C807 1.383 . S
C808 C809 1.377 . S
C809 H793 0.930 . S
C809 C808 1.377 . S
C809 C810 1.379 . S
C810 H794 0.931 . S
C810 C804 1.383 . S
C810 C809 1.379 . S
H811 C805 0.959 . S
H812 C805 0.961 . S
H813 C805 0.960 . S
H814 C806 0.930 . S
H815 C807 0.929 . S
H816 C824 0.929 . S
H817 C826 0.930 . S
H818 C828 0.930 . S
H819 C831 0.929 . S
H820 C834 0.930 . S
H821 C836 0.960 . S
H822 C836 0.960 . S
H823 C836 0.960 . S
C824 H816 0.929 . S
C824 C825 1.377 . S
C824 C826 1.384 . S
C825 C824 1.377 . S
C825 C831 1.390 . S
C826 H817 0.930 . S
C826 C824 1.384 . S
C826 C827 1.372 . S
C827 C826 1.372 . S
C827 C828 1.400 . S
C827 C832 1.490 . S
C828 H818 0.930 . S
C828 C827 1.400 . S
C828 C831 1.386 . S
H829 C845 0.930 . S
H830 C846 0.931 . S
C831 H819 0.929 . S
C831 C825 1.390 . S
C831 C828 1.386 . S
C832 C827 1.490 . S
C832 C834 1.395 . S
C832 C835 1.403 . S
H833 C839 0.930 . S
C834 H820 0.930 . S
C834 C832 1.395 . S
C834 C837 1.403 . S
C835 C832 1.403 . S
C835 C836 1.524 . S
C835 C839 1.400 . S
C836 H821 0.960 . S
C836 H822 0.960 . S
C836 H823 0.960 . S
C836 C835 1.524 . S
C837 C834 1.403 . S
C837 C838 1.392 . S
C837 C841 1.495 . S
C838 C837 1.392 . S
C838 C839 1.385 . S
C838 C840 1.478 . S
C839 H833 0.930 . S
C839 C835 1.400 . S
C839 C838 1.385 . S
C840 C838 1.478 . S
C840 C842 1.381 . S
C840 C846 1.383 . S
C841 C837 1.495 . S
C841 H847 0.959 . S
C841 H848 0.961 . S
C841 H849 0.960 . S
C842 C840 1.381 . S
C842 C843 1.394 . S
C842 H850 0.930 . S
C843 C842 1.394 . S
C843 C844 1.383 . S
C843 H851 0.929 . S
C844 C843 1.383 . S
C844 C845 1.377 . S
C845 H829 0.930 . S
C845 C844 1.377 . S
C845 C846 1.379 . S
C846 H830 0.931 . S
C846 C840 1.383 . S
C846 C845 1.379 . S
H847 C841 0.959 . S
H848 C841 0.961 . S
H849 C841 0.960 . S
H850 C842 0.930 . S
H851 C843 0.929 . S
H852 C860 0.929 . S
H853 C862 0.930 . S
H854 C864 0.930 . S
H855 C867 0.929 . S
H856 C870 0.930 . S
H857 C872 0.960 . S
H858 C872 0.960 . S
H859 C872 0.960 . S
C860 H852 0.929 . S
C860 C861 1.377 . S
C860 C862 1.384 . S
C861 C860 1.377 . S
C861 C867 1.390 . S
C862 H853 0.930 . S
C862 C860 1.384 . S
C862 C863 1.372 . S
C863 C862 1.372 . S
C863 C864 1.400 . S
C863 C868 1.490 . S
C864 H854 0.930 . S
C864 C863 1.400 . S
C864 C867 1.386 . S
H865 C881 0.930 . S
H866 C882 0.931 . S
C867 H855 0.929 . S
C867 C861 1.390 . S
C867 C864 1.386 . S
C868 C863 1.490 . S
C868 C870 1.395 . S
C868 C871 1.403 . S
H869 C875 0.930 . S
C870 H856 0.930 . S
C870 C868 1.395 . S
C870 C873 1.403 . S
C871 C868 1.403 . S
C871 C872 1.524 . S
C871 C875 1.400 . S
C872 H857 0.960 . S
C872 H858 0.960 . S
C872 H859 0.960 . S
C872 C871 1.524 . S
C873 C870 1.403 . S
C873 C874 1.392 . S
C873 C877 1.495 . S
C874 C873 1.392 . S
C874 C875 1.385 . S
C874 C876 1.478 . S
C875 H869 0.930 . S
C875 C871 1.400 . S
C875 C874 1.385 . S
C876 C874 1.478 . S
C876 C878 1.381 . S
C876 C882 1.383 . S
C877 C873 1.495 . S
C877 H883 0.959 . S
C877 H884 0.961 . S
C877 H885 0.960 . S
C878 C876 1.381 . S
C878 C879 1.394 . S
C878 H886 0.930 . S
C879 C878 1.394 . S
C879 C880 1.383 . S
C879 H887 0.929 . S
C880 C879 1.383 . S
C880 C881 1.377 . S
C881 H865 0.930 . S
C881 C880 1.377 . S
C881 C882 1.379 . S
C882 H866 0.931 . S
C882 C876 1.383 . S
C882 C881 1.379 . S
H883 C877 0.959 . S
H884 C877 0.961 . S
H885 C877 0.960 . S
H886 C878 0.930 . S
H887 C879 0.929 . S
C249 C218 1.209 . S
C268 C19 1.278 . S
C285 C18 1.221 . S
C304 C59 1.266 . S
C321 C58 1.217 . S
C340 C99 1.268 . S
C357 C98 1.211 . S
C376 C139 1.275 . S
C393 C179 1.273 . S
C412 C138 1.247 . S
C429 C219 1.274 . S
C448 C178 1.223 . S
C465 C15 1.176 . S
C484 C5 1.190 . S
C501 C55 1.183 . S
C520 C45 1.203 . S
C537 C95 1.180 . S
C556 C85 1.202 . S
C573 C135 1.185 . S
C592 C125 1.194 . S
C609 C165 1.184 . S
C628 C175 1.201 . S
C645 C215 1.175 . S
C664 C205 1.151 . S
C681 C9 1.681 . S
C700 C168 1.686 . S
C717 C49 1.681 . S
C736 C208 1.683 . S
C753 C8 1.690 . S
C772 C89 1.689 . S
C789 C48 1.689 . S
C808 C129 1.662 . S
C825 C169 1.677 . S
C844 C88 1.690 . S
C861 C128 1.687 . S
C880 C209 1.675 . S
