# Generated by pormake.
# Topology rob, (6)-cn, num edge types: 1
# Building blocks:
#     Node 0, Type 0, BuildingBlock: INOVEN_clean_sbu_0, # of connection points: 6
#     Node 1, Type 0, BuildingBlock: INOVEN_clean_sbu_0, # of connection points: 6
#     Node 2, Type 0, BuildingBlock: INOVEN_clean_sbu_0, # of connection points: 6
#     Node 3, Type 0, BuildingBlock: INOVEN_clean_sbu_0, # of connection points: 6
#     Edge 4, Type (0, 0), BuildingBlock: XIVTED_clean_linker_0, # of connection points: 2
#     Edge 5, Type (0, 0), BuildingBlock: XIVTED_clean_linker_0, # of connection points: 2
#     Edge 6, Type (0, 0), BuildingBlock: XIVTED_clean_linker_0, # of connection points: 2
#     Edge 7, Type (0, 0), BuildingBlock: XIVTED_clean_linker_0, # of connection points: 2
#     Edge 8, Type (0, 0), BuildingBlock: XIVTED_clean_linker_0, # of connection points: 2
#     Edge 9, Type (0, 0), BuildingBlock: XIVTED_clean_linker_0, # of connection points: 2
#     Edge 10, Type (0, 0), BuildingBlock: XIVTED_clean_linker_0, # of connection points: 2
#     Edge 11, Type (0, 0), BuildingBlock: XIVTED_clean_linker_0, # of connection points: 2
#     Edge 12, Type (0, 0), BuildingBlock: XIVTED_clean_linker_0, # of connection points: 2
#     Edge 13, Type (0, 0), BuildingBlock: XIVTED_clean_linker_0, # of connection points: 2
#     Edge 14, Type (0, 0), BuildingBlock: XIVTED_clean_linker_0, # of connection points: 2
#     Edge 15, Type (0, 0), BuildingBlock: XIVTED_clean_linker_0, # of connection points: 2
# Relax obj value: 0.127
# Max RMSD: 0.188
# Mean RMSD: 0.188
data_MOF--net-rob--node1-INOVEN_clean_sbu_0--edge1-XIVTED_clean_linker_0
_symmetry_space_group_name_H-M    P1
_symmetry_Int_Tables_number       1
_symmetry_cell_setting            triclinic
loop_
_symmetry_equiv_pos_as_xyz
'x, y, z'
_cell_length_a     16.620437
_cell_length_b     23.831337
_cell_length_c     37.734181
_cell_angle_alpha  90.101032
_cell_angle_beta   126.79111
_cell_angle_gamma 90.048499
loop_
_atom_site_label
_atom_site_type_symbol
_atom_site_fract_x
_atom_site_fract_y
_atom_site_fract_z
_atom_type_partial_charge
Gd0 Gd 0.17193 0.2795 0.99839 0.0
Gd1 Gd 0.34772 0.2338 0.00149 0.0
C2 C 0.37892 0.23835 0.09134 0.0
C3 C 0.04293 0.29522 0.01495 0.0
C4 C 0.04544 0.29175 0.05493 0.0
C5 C 0.12567 0.31442 0.09576 0.0
C6 C 0.96628 0.2657 0.05232 0.0
C7 C 0.04548 0.28674 0.13032 0.0
C8 C 0.96634 0.26306 0.08948 0.0
C9 C 0.12546 0.31218 0.13286 0.0
C10 C 0.29105 0.35897 1.00036 0.0
C11 C 0.14149 0.27676 0.90899 0.0
C12 C 0.47911 0.21486 0.98658 0.0
C13 C 0.48461 0.22051 0.94893 0.0
C14 C 0.54077 0.18172 0.94401 0.0
C15 C 0.43218 0.26281 0.91704 0.0
C16 C 0.49073 0.2267 0.87538 0.0
C17 C 0.43471 0.26573 0.88054 0.0
C18 C 0.54415 0.18484 0.90782 0.0
C19 C 0.22768 0.15489 0.99966 0.0
O20 O 0.28092 0.24575 0.06687 0.0
O21 O 0.42942 0.23997 0.07458 0.0
O22 O 0.0947 0.33575 0.01397 0.0
O23 O 0.0505 0.24788 0.99955 0.0
O24 O 0.19443 0.3638 0.97854 0.0
O25 O 0.32126 0.31376 0.02231 0.0
O26 O 0.23993 0.27046 0.93363 0.0
O27 O 0.0906 0.27302 0.92549 0.0
O28 O 0.41707 0.17675 0.98213 0.0
O29 O 0.47669 0.26114 0.00468 0.0
O30 O 0.32445 0.15015 0.02217 0.0
O31 O 0.19841 0.19979 0.97743 0.0
H32 H 0.18834 0.33441 0.099 0.0
H33 H 0.90399 0.24743 0.02138 0.0
H34 H 0.90439 0.24199 0.08614 0.0
H35 H 0.18733 0.33151 0.1633 0.0
H36 H 0.5815 0.14855 0.96806 0.0
H37 H 0.38918 0.29354 0.92034 0.0
H38 H 0.39362 0.29894 0.85662 0.0
H39 H 0.58706 0.15365 0.90479 0.0
Gd40 Gd 0.67633 0.77939 1.0001 0.0
Gd41 Gd 0.84934 0.7315 0.00199 0.0
C42 C 0.88173 0.73522 0.09209 0.0
C43 C 0.54652 0.80008 0.01566 0.0
C44 C 0.54196 0.79533 0.05362 0.0
C45 C 0.48399 0.83361 0.05778 0.0
C46 C 0.59722 0.7545 0.08657 0.0
C47 C 0.53747 0.79098 0.12767 0.0
C48 C 0.59542 0.75248 0.12329 0.0
C49 C 0.48144 0.8314 0.09423 0.0
C50 C 0.79693 0.85712 0.00116 0.0
C51 C 0.64347 0.77561 0.91001 0.0
C52 C 0.97901 0.71126 0.98627 0.0
C53 C 0.98406 0.71722 0.94849 0.0
C54 C 0.03784 0.67774 0.94266 0.0
C55 C 0.93358 0.76056 0.91738 0.0
C56 C 0.98958 0.72419 0.87478 0.0
C57 C 0.93582 0.76386 0.88081 0.0
C58 C 0.04092 0.68124 0.9064 0.0
C59 C 0.72936 0.65376 0.00135 0.0
O60 O 0.78373 0.74282 0.0679 0.0
O61 O 0.93185 0.7375 0.07516 0.0
O62 O 0.60892 0.83757 0.01969 0.0
O63 O 0.5477 0.75337 0.99765 0.0
O64 O 0.7005 0.86264 0.97939 0.0
O65 O 0.82607 0.81206 0.02322 0.0
O66 O 0.74155 0.76817 0.93422 0.0
O67 O 0.59349 0.77323 0.92699 0.0
O68 O 0.91559 0.67386 0.98147 0.0
O69 O 0.97902 0.75736 0.00522 0.0
O70 O 0.82579 0.64836 0.02298 0.0
O71 O 0.69988 0.69865 0.97904 0.0
H72 H 0.44118 0.86569 0.03294 0.0
H73 H 0.64185 0.72426 0.08392 0.0
H74 H 0.63863 0.72036 0.148 0.0
H75 H 0.43703 0.86221 0.09663 0.0
H76 H 0.07698 0.64376 0.96607 0.0
H77 H 0.89235 0.79181 0.92136 0.0
H78 H 0.89634 0.79788 0.85753 0.0
H79 H 0.08202 0.64953 0.90268 0.0
Gd80 Gd 0.35897 0.78668 0.50916 0.0
Gd81 Gd 0.16748 0.73998 0.49267 0.0
C82 C 0.16158 0.75424 0.40907 0.0
C83 C 0.50234 0.80325 0.50161 0.0
C84 C 0.50807 0.80281 0.4637 0.0
C85 C 0.44229 0.83523 0.42564 0.0
C86 C 0.57847 0.76857 0.46492 0.0
C87 C 0.51573 0.7982 0.39036 0.0
C88 C 0.58233 0.76626 0.42877 0.0
C89 C 0.4461 0.83297 0.38955 0.0
C90 C 0.2353 0.86488 0.50461 0.0
C91 C 0.36562 0.77187 0.59282 0.0
C92 C 0.02468 0.72343 0.5006 0.0
C93 C 0.0199 0.72325 0.53879 0.0
C94 C 0.08638 0.69065 0.57664 0.0
C95 C 0.94954 0.75697 0.53801 0.0
C96 C 1.0131 0.72609 0.61245 0.0
C97 C 0.94616 0.75844 0.57432 0.0
C98 C 0.0829 0.69197 0.61286 0.0
C99 C 0.2911 0.66182 0.49711 0.0
O100 O 0.25954 0.76135 0.43774 0.0
O101 O 0.10222 0.75139 0.42142 0.0
O102 O 0.45129 0.84394 0.50291 0.0
O103 O 0.48639 0.75482 0.51273 0.0
O104 O 0.33273 0.86858 0.53069 0.0
O105 O 0.20772 0.82175 0.48023 0.0
O106 O 0.26755 0.76495 0.56431 0.0
O107 O 0.42453 0.77465 0.58026 0.0
O108 O 0.07473 0.68271 0.49864 0.0
O109 O 0.041 0.77201 0.48981 0.0
O110 O 0.19367 0.65804 0.47114 0.0
O111 O 0.3185 0.70489 0.52153 0.0
H112 H 0.38683 0.86203 0.42342 0.0
H113 H 0.63 0.74305 0.49376 0.0
H114 H 0.63633 0.73851 0.43066 0.0
H115 H 0.39459 0.85892 0.36105 0.0
H116 H 0.14189 0.66429 0.57854 0.0
H117 H 0.89758 0.78268 0.50938 0.0
H118 H 0.8921 0.78579 0.57273 0.0
H119 H 0.13468 0.66572 0.64108 0.0
Gd120 Gd 0.85631 0.28685 0.50783 0.0
Gd121 Gd 0.6665 0.23883 0.49257 0.0
C122 C 0.65631 0.25542 0.40828 0.0
C123 C 1.00033 0.30422 0.50073 0.0
C124 C 1.01104 0.29741 0.46465 0.0
C125 C 0.07363 0.33388 0.46202 0.0
C126 C 0.9559 0.25647 0.43154 0.0
C127 C 0.02265 0.29022 0.39269 0.0
C128 C 0.96113 0.25315 0.39584 0.0
C129 C 0.07983 0.33018 0.4266 0.0
C130 C 0.73445 0.36414 0.50564 0.0
C131 C 0.86486 0.27207 0.59215 0.0
C132 C 0.52538 0.22061 0.50129 0.0
C133 C 0.521 0.22114 0.53958 0.0
C134 C 0.58809 0.18917 0.57775 0.0
C135 C 0.45033 0.25489 0.53854 0.0
C136 C 0.51463 0.22522 0.61329 0.0
C137 C 0.44715 0.25696 0.57488 0.0
C138 C 0.58484 0.19114 0.61401 0.0
C139 C 0.78931 0.1618 0.49498 0.0
O140 O 0.75478 0.26115 0.43634 0.0
O141 O 0.5986 0.25238 0.42144 0.0
O142 O 0.93849 0.34346 0.49488 0.0
O143 O 0.99181 0.25822 0.5172 0.0
O144 O 0.83187 0.36812 0.53081 0.0
O145 O 0.70593 0.32142 0.4808 0.0
O146 O 0.76718 0.26362 0.56405 0.0
O147 O 0.92293 0.2763 0.57922 0.0
O148 O 0.5776 0.18052 0.50015 0.0
O149 O 0.53865 0.26916 0.48929 0.0
O150 O 0.6919 0.15777 0.46956 0.0
O151 O 0.81704 0.20444 0.51981 0.0
H152 H 0.11673 0.36587 0.48709 0.0
H153 H 0.9075 0.22752 0.43286 0.0
H154 H 0.91703 0.22139 0.37072 0.0
H155 H 0.12737 0.35969 0.42515 0.0
H156 H 0.64387 0.16282 0.57987 0.0
H157 H 0.39793 0.28012 0.50965 0.0
H158 H 0.39279 0.28427 0.57307 0.0
H159 H 0.63709 0.16538 0.64251 0.0
H160 H 0.7889 0.55869 0.05093 0.0
H161 H 0.23088 0.45472 0.95136 0.0
H162 H 0.52253 0.65094 0.95243 0.0
H163 H 0.49766 0.36235 0.04931 0.0
H164 H 0.33581 0.52686 0.95144 0.0
H165 H 0.68374 0.48701 0.05103 0.0
C166 C 0.70807 0.56391 0.02928 0.0
C167 C 0.66449 0.61096 0.00158 0.0
C168 C 0.37165 0.49087 0.97293 0.0
C169 C 0.54298 0.52861 0.00153 0.0
C170 C 0.31172 0.44958 0.97293 0.0
C171 C 0.35551 0.40233 1.00039 0.0
C172 C 0.47668 0.48514 1.00064 0.0
C173 C 0.46065 0.39794 0.02752 0.0
C174 C 0.64799 0.52286 0.02938 0.0
C175 C 0.55936 0.61547 0.97439 0.0
N176 N 0.51754 0.43877 0.02698 0.0
N177 N 0.50227 0.57484 0.97501 0.0
H178 H 0.49766 0.65537 0.55508 0.0
H179 H 0.52805 0.37025 0.44866 0.0
H180 H 0.23833 0.57002 0.44413 0.0
H181 H 0.78822 0.45589 0.55895 0.0
H182 H 0.42055 0.44248 0.44691 0.0
H183 H 0.60564 0.58292 0.55729 0.0
C184 C 0.46349 0.62152 0.53112 0.0
C185 C 0.35883 0.61887 0.49931 0.0
C186 C 0.50116 0.44551 0.47154 0.0
C187 C 0.48178 0.5354 0.50176 0.0
C188 C 0.56251 0.40413 0.4726 0.0
C189 C 0.66727 0.40694 0.50404 0.0
C190 C 0.54476 0.49022 0.50211 0.0
C191 C 0.70782 0.45207 0.53409 0.0
C192 C 0.52509 0.58003 0.53243 0.0
C193 C 0.31863 0.57375 0.46927 0.0
N194 N 0.64671 0.49182 0.53237 0.0
N195 N 0.37992 0.53394 0.47123 0.0
H196 H 0.02101 0.15201 0.94918 0.0
H197 H 1.00342 0.85867 0.05025 0.0
H198 H 0.28534 0.05926 0.04882 0.0
H199 H 0.73943 0.9529 0.95222 0.0
H200 H 0.10808 0.9309 0.04961 0.0
H201 H 0.91639 0.07942 0.94945 0.0
C202 C 0.05702 0.11648 0.97119 0.0
C203 C 0.16208 0.11181 0.99909 0.0
C204 C 0.02723 0.9358 0.0282 0.0
C205 C 0.04288 0.02815 0.99943 0.0
C206 C 0.9675 0.89445 0.02851 0.0
C207 C 0.86253 0.89971 0.00126 0.0
C208 C 0.98175 0.98288 1.00043 0.0
C209 C 0.82008 0.94715 0.97387 0.0
C210 C 0.9973 0.07492 0.97129 0.0
C211 C 0.20462 0.06459 0.02672 0.0
N212 N 0.87961 0.98677 0.97418 0.0
N213 N 0.14509 0.02473 0.02618 0.0
H214 H 0.99565 0.15558 0.55274 0.0
H215 H 0.02886 0.87116 0.44647 0.0
H216 H 0.73678 0.0706 0.4413 0.0
H217 H 0.28751 0.9568 0.55753 0.0
H218 H 0.92039 0.94347 0.44399 0.0
H219 H 0.10395 0.08363 0.55478 0.0
C220 C 0.96165 0.12194 0.52859 0.0
C221 C 0.85701 0.11923 0.49674 0.0
C222 C 1.00089 0.94648 0.46893 0.0
C223 C 0.98042 0.03622 0.49903 0.0
C224 C 0.06279 0.90507 0.4704 0.0
C225 C 0.16741 0.90782 0.50231 0.0
C226 C 0.04383 0.99114 0.49956 0.0
C227 C 0.20726 0.95299 0.53232 0.0
C228 C 0.02345 0.08071 0.52982 0.0
C229 C 0.81706 0.07435 0.46648 0.0
N230 N 0.14566 0.99272 0.53022 0.0
N231 N 0.87858 0.03472 0.46837 0.0
H232 H 0.46965 0.21637 0.33975 0.0
H233 H 0.57661 0.25801 0.16069 0.0
H234 H 0.74621 0.28298 0.36993 0.0
H235 H 0.29479 0.19929 0.12948 0.0
H236 H 0.64763 0.25736 0.23941 0.0
H237 H 0.4075 0.2035 0.26279 0.0
C238 C 0.51705 0.22835 0.33018 0.0
C239 C 0.61338 0.25026 0.36124 0.0
C240 C 0.57046 0.24417 0.21523 0.0
C241 C 0.5441 0.2351 0.27398 0.0
C242 C 0.53045 0.24414 0.17048 0.0
C243 C 0.42963 0.22958 0.13874 0.0
C244 C 0.50877 0.22948 0.22783 0.0
C245 C 0.37259 0.21188 0.15295 0.0
C246 C 0.48209 0.22063 0.28644 0.0
C247 C 0.67209 0.265 0.34723 0.0
N248 N 0.41269 0.21285 0.19643 0.0
N249 N 0.63657 0.2571 0.30464 0.0
H250 H 0.69439 0.77183 0.21526 0.0
H251 H 0.35667 0.80159 0.3016 0.0
H252 H 0.37642 0.80668 0.12993 0.0
H253 H 0.67994 0.78747 0.38923 0.0
H254 H 0.362 0.79879 0.23838 0.0
H255 H 0.6897 0.77161 0.27893 0.0
C256 C 0.62338 0.77906 0.20977 0.0
C257 C 0.53568 0.78944 0.16691 0.0
C258 C 0.43186 0.79631 0.27143 0.0
C259 C 0.52999 0.7896 0.2401 0.0
C260 C 0.42901 0.79826 0.30774 0.0
C261 C 0.51807 0.79516 0.35123 0.0
C262 C 0.52441 0.79096 0.27823 0.0
C263 C 0.60908 0.78945 0.35654 0.0
C264 C 0.62093 0.77928 0.24628 0.0
C265 C 0.44628 0.79925 0.16223 0.0
N266 N 0.60986 0.78763 0.32062 0.0
N267 N 0.44578 0.79902 0.19821 0.0
H268 H 0.44741 0.75301 0.84039 0.0
H269 H 0.56051 0.79401 0.66439 0.0
H270 H 0.72341 0.82321 0.87258 0.0
H271 H 0.26319 0.7634 0.6279 0.0
H272 H 0.62299 0.80331 0.74164 0.0
H273 H 0.37592 0.75765 0.76167 0.0
C274 C 0.49223 0.7701 0.83082 0.0
C275 C 0.59194 0.78649 0.86279 0.0
C276 C 0.54392 0.79483 0.71653 0.0
C277 C 0.51239 0.79112 0.77375 0.0
C278 C 0.50854 0.78923 0.67256 0.0
C279 C 0.40682 0.77757 0.63971 0.0
C280 C 0.47702 0.78833 0.72748 0.0
C281 C 0.34245 0.77204 0.65209 0.0
C282 C 0.45193 0.77245 0.78607 0.0
C283 C 0.64718 0.80847 0.8489 0.0
N284 N 0.37873 0.77719 0.69499 0.0
N285 N 0.60712 0.80951 0.80542 0.0
H286 H 0.67373 0.22163 0.70211 0.0
H287 H 0.33523 0.24889 0.78818 0.0
H288 H 0.35028 0.2346 0.61441 0.0
H289 H 0.65168 0.21004 0.8732 0.0
H290 H 0.34067 0.25059 0.72472 0.0
H291 H 0.66807 0.22305 0.76528 0.0
C292 C 0.6013 0.22442 0.69594 0.0
C293 C 0.51226 0.2276 0.65244 0.0
C294 C 0.40894 0.24171 0.75726 0.0
C295 C 0.50557 0.23026 0.72536 0.0
C296 C 0.40607 0.24109 0.79364 0.0
C297 C 0.4931 0.22917 0.83633 0.0
C298 C 0.49968 0.23075 0.76341 0.0
C299 C 0.58233 0.2187 0.841 0.0
C300 C 0.59827 0.22558 0.73223 0.0
C301 C 0.42112 0.23262 0.6471 0.0
N302 N 0.58328 0.21983 0.80515 0.0
N303 N 0.42019 0.23372 0.68299 0.0
H304 H 0.80473 0.68372 0.12949 0.0
H305 H 0.26406 0.76796 0.37451 0.0
H306 H 0.07408 0.76389 0.16186 0.0
H307 H 0.97023 0.72453 0.33739 0.0
H308 H 0.2035 0.75461 0.29869 0.0
H309 H 0.87428 0.68414 0.2075 0.0
C310 C 0.87903 0.70111 0.15321 0.0
C311 C 0.93305 0.72509 0.13935 0.0
C312 C 0.15212 0.74801 0.30701 0.0
C313 C 1.0132 0.72524 0.2285 0.0
C314 C 0.18641 0.75578 0.35039 0.0
C315 C 0.1218 0.74769 0.36239 0.0
C316 C 0.05242 0.7317 0.27514 0.0
C317 C 0.02233 0.73156 0.32955 0.0
C318 C 0.91857 0.70127 0.19766 0.0
C319 C 0.03007 0.74529 0.17133 0.0
N320 N 0.99053 0.72403 0.28724 0.0
N321 N 0.06686 0.74548 0.21462 0.0
H322 H 0.86503 0.27609 0.30479 0.0
H323 H 0.20527 0.27724 0.2191 0.0
H324 H 0.18651 0.29956 0.3916 0.0
H325 H 0.88216 0.29379 0.13228 0.0
H326 H 0.20051 0.27797 0.28258 0.0
H327 H 0.87069 0.27385 0.24146 0.0
C328 C 0.93699 0.28039 0.31063 0.0
C329 C 0.02547 0.288 0.35379 0.0
C330 C 0.13067 0.28141 0.2496 0.0
C331 C 0.03239 0.28569 0.28102 0.0
C332 C 0.13323 0.28134 0.21315 0.0
C333 C 0.04395 0.28562 0.16975 0.0
C334 C 0.03815 0.28528 0.24296 0.0
C335 C 0.95302 0.28947 0.16473 0.0
C336 C 0.94005 0.27948 0.27435 0.0
C337 C 0.11625 0.29414 0.35901 0.0
N338 N 0.95255 0.28913 0.20071 0.0
N339 N 0.11738 0.29266 0.32319 0.0
H340 H 0.05955 0.29566 0.6635 0.0
H341 H 0.94627 0.25323 0.83925 0.0
H342 H 0.76296 0.26331 0.62738 0.0
H343 H 0.22149 0.32527 0.87182 0.0
H344 H 0.87535 0.25799 0.76066 0.0
H345 H 0.122 0.30545 0.74077 0.0
C346 C 1.00776 0.29062 0.67175 0.0
C347 C 0.90628 0.27824 0.63902 0.0
C348 C 0.95108 0.27315 0.7851 0.0
C349 C 0.97635 0.28957 0.7267 0.0
C350 C 0.99106 0.27072 0.82979 0.0
C351 C 0.09043 0.28756 0.86183 0.0
C352 C 1.0115 0.29235 0.77291 0.0
C353 C 0.1456 0.31009 0.84807 0.0
C354 C 0.0431 0.2965 0.71571 0.0
C355 C 0.84207 0.27241 0.65146 0.0
N356 N 0.10586 0.31119 0.80462 0.0
N357 N 0.8783 0.27785 0.69431 0.0
H358 H 0.17202 0.72034 0.70126 0.0
H359 H 0.83512 0.74957 0.78802 0.0
H360 H 0.84899 0.73642 0.61375 0.0
H361 H 0.14936 0.70552 0.87208 0.0
H362 H 0.84045 0.75204 0.72452 0.0
H363 H 0.16637 0.72089 0.76442 0.0
C364 C 0.09965 0.72362 0.69511 0.0
C365 C 1.01074 0.72792 0.65164 0.0
C366 C 0.90825 0.74184 0.75686 0.0
C367 C 1.00414 0.72965 0.72463 0.0
C368 C 0.90547 0.74078 0.79328 0.0
C369 C 0.99189 0.72716 0.8357 0.0
C370 C 0.99832 0.72967 0.76272 0.0
C371 C 0.08045 0.7155 0.84008 0.0
C372 C 0.09665 0.72429 0.73141 0.0
C373 C 0.91978 0.73357 0.64639 0.0
N374 N 0.08136 0.71712 0.80422 0.0
N375 N 0.91888 0.73422 0.68231 0.0
loop_
_geom_bond_atom_site_label_1
_geom_bond_atom_site_label_2
_geom_bond_distance
_geom_bond_site_symmetry_2
_ccdc_geom_bond_type
Gd0 C3 2.818 1_556 S
Gd0 O20 2.377 1_556 S
Gd0 O22 2.448 1_556 S
Gd0 O23 2.506 1_556 S
Gd0 O24 2.435 1_556 S
Gd0 O25 2.717 . S
Gd0 O27 2.395 . S
Gd0 O31 2.327 1_556 S
Gd1 C12 2.818 1_554 S
Gd1 O21 2.395 . S
Gd1 O25 2.327 1_554 S
Gd1 O26 2.377 1_554 S
Gd1 O28 2.448 1_554 S
Gd1 O29 2.506 1_554 S
Gd1 O30 2.435 1_554 S
Gd1 O31 2.717 . S
C2 O20 1.240 . S
C2 O21 1.240 . S
C3 Gd0 2.818 1_554 S
C3 C4 1.510 . S
C3 O22 1.249 . S
C3 O23 1.252 . S
C4 C3 1.510 . S
C4 C5 1.404 . S
C4 C6 1.352 . S
C5 C4 1.404 . S
C5 C9 1.389 . S
C5 H32 0.930 . S
C6 C4 1.352 . S
C6 C8 1.374 . S
C6 H33 0.931 . S
C7 C8 1.359 . S
C7 C9 1.364 . S
C8 C6 1.374 . S
C8 C7 1.359 . S
C8 H34 0.931 . S
C9 C5 1.389 . S
C9 C7 1.364 . S
C9 H35 0.931 . S
C10 O24 1.256 . S
C10 O25 1.257 1_554 S
C11 O26 1.240 . S
C11 O27 1.240 . S
C12 Gd1 2.818 1_556 S
C12 C13 1.510 . S
C12 O28 1.249 . S
C12 O29 1.252 . S
C13 C12 1.510 . S
C13 C14 1.404 . S
C13 C15 1.352 . S
C14 C13 1.404 . S
C14 C18 1.389 . S
C14 H36 0.930 . S
C15 C13 1.352 . S
C15 C17 1.374 . S
C15 H37 0.931 . S
C16 C17 1.359 . S
C16 C18 1.364 . S
C17 C15 1.374 . S
C17 C16 1.359 . S
C17 H38 0.931 . S
C18 C14 1.389 . S
C18 C16 1.364 . S
C18 H39 0.931 . S
C19 O30 1.256 . S
C19 O31 1.257 1_556 S
O20 Gd0 2.377 1_554 S
O20 C2 1.240 . S
O21 Gd1 2.395 . S
O21 C2 1.240 . S
O22 Gd0 2.448 1_554 S
O22 C3 1.249 . S
O23 Gd0 2.506 1_554 S
O23 C3 1.252 . S
O24 Gd0 2.435 1_554 S
O24 C10 1.256 . S
O25 Gd0 2.717 . S
O25 Gd1 2.327 1_556 S
O25 C10 1.257 1_556 S
O26 Gd1 2.377 1_556 S
O26 C11 1.240 . S
O27 Gd0 2.395 . S
O27 C11 1.240 . S
O28 Gd1 2.448 1_556 S
O28 C12 1.249 . S
O29 Gd1 2.506 1_556 S
O29 C12 1.252 . S
O30 Gd1 2.435 1_556 S
O30 C19 1.256 . S
O31 Gd0 2.327 1_554 S
O31 Gd1 2.717 . S
O31 C19 1.257 1_554 S
H32 C5 0.930 . S
H33 C6 0.931 . S
H34 C8 0.931 . S
H35 C9 0.931 . S
H36 C14 0.930 . S
H37 C15 0.931 . S
H38 C17 0.931 . S
H39 C18 0.931 . S
Gd40 C43 2.818 1_556 S
Gd40 O60 2.377 1_556 S
Gd40 O62 2.448 1_556 S
Gd40 O63 2.506 1_556 S
Gd40 O64 2.435 1_556 S
Gd40 O65 2.717 . S
Gd40 O67 2.395 . S
Gd40 O71 2.327 1_556 S
Gd41 C52 2.818 1_554 S
Gd41 O61 2.395 . S
Gd41 O65 2.327 1_554 S
Gd41 O66 2.377 1_554 S
Gd41 O68 2.448 1_554 S
Gd41 O69 2.506 1_554 S
Gd41 O70 2.435 1_554 S
Gd41 O71 2.717 . S
C42 O60 1.240 . S
C42 O61 1.240 . S
C43 Gd40 2.818 1_554 S
C43 C44 1.510 . S
C43 O62 1.249 . S
C43 O63 1.252 . S
C44 C43 1.510 . S
C44 C45 1.404 . S
C44 C46 1.352 . S
C45 C44 1.404 . S
C45 C49 1.389 . S
C45 H72 0.930 . S
C46 C44 1.352 . S
C46 C48 1.374 . S
C46 H73 0.931 . S
C47 C48 1.359 . S
C47 C49 1.364 . S
C48 C46 1.374 . S
C48 C47 1.359 . S
C48 H74 0.931 . S
C49 C45 1.389 . S
C49 C47 1.364 . S
C49 H75 0.931 . S
C50 O64 1.256 . S
C50 O65 1.257 1_554 S
C51 O66 1.240 . S
C51 O67 1.240 . S
C52 Gd41 2.818 1_556 S
C52 C53 1.510 . S
C52 O68 1.249 . S
C52 O69 1.252 . S
C53 C52 1.510 . S
C53 C54 1.404 . S
C53 C55 1.352 . S
C54 C53 1.404 . S
C54 C58 1.389 . S
C54 H76 0.930 . S
C55 C53 1.352 . S
C55 C57 1.374 . S
C55 H77 0.931 . S
C56 C57 1.359 . S
C56 C58 1.364 . S
C57 C55 1.374 . S
C57 C56 1.359 . S
C57 H78 0.931 . S
C58 C54 1.389 . S
C58 C56 1.364 . S
C58 H79 0.931 . S
C59 O70 1.256 . S
C59 O71 1.257 1_556 S
O60 Gd40 2.377 1_554 S
O60 C42 1.240 . S
O61 Gd41 2.395 . S
O61 C42 1.240 . S
O62 Gd40 2.448 1_554 S
O62 C43 1.249 . S
O63 Gd40 2.506 1_554 S
O63 C43 1.252 . S
O64 Gd40 2.435 1_554 S
O64 C50 1.256 . S
O65 Gd40 2.717 . S
O65 Gd41 2.327 1_556 S
O65 C50 1.257 1_556 S
O66 Gd41 2.377 1_556 S
O66 C51 1.240 . S
O67 Gd40 2.395 . S
O67 C51 1.240 . S
O68 Gd41 2.448 1_556 S
O68 C52 1.249 . S
O69 Gd41 2.506 1_556 S
O69 C52 1.252 . S
O70 Gd41 2.435 1_556 S
O70 C59 1.256 . S
O71 Gd40 2.327 1_554 S
O71 Gd41 2.717 . S
O71 C59 1.257 1_554 S
H72 C45 0.930 . S
H73 C46 0.931 . S
H74 C48 0.931 . S
H75 C49 0.931 . S
H76 C54 0.930 . S
H77 C55 0.931 . S
H78 C57 0.931 . S
H79 C58 0.931 . S
Gd80 C83 2.818 . S
Gd80 O100 2.377 . S
Gd80 O102 2.448 . S
Gd80 O103 2.506 . S
Gd80 O104 2.435 . S
Gd80 O105 2.717 . S
Gd80 O107 2.395 . S
Gd80 O111 2.327 . S
Gd81 C92 2.818 . S
Gd81 O101 2.395 . S
Gd81 O105 2.327 . S
Gd81 O106 2.377 . S
Gd81 O108 2.448 . S
Gd81 O109 2.506 . S
Gd81 O110 2.435 . S
Gd81 O111 2.717 . S
C82 O100 1.240 . S
C82 O101 1.240 . S
C83 Gd80 2.818 . S
C83 C84 1.510 . S
C83 O102 1.249 . S
C83 O103 1.252 . S
C84 C83 1.510 . S
C84 C85 1.404 . S
C84 C86 1.352 . S
C85 C84 1.404 . S
C85 C89 1.389 . S
C85 H112 0.930 . S
C86 C84 1.352 . S
C86 C88 1.374 . S
C86 H113 0.931 . S
C87 C88 1.359 . S
C87 C89 1.364 . S
C88 C86 1.374 . S
C88 C87 1.359 . S
C88 H114 0.931 . S
C89 C85 1.389 . S
C89 C87 1.364 . S
C89 H115 0.931 . S
C90 O104 1.256 . S
C90 O105 1.257 . S
C91 O106 1.240 . S
C91 O107 1.240 . S
C92 Gd81 2.818 . S
C92 C93 1.510 . S
C92 O108 1.249 . S
C92 O109 1.252 . S
C93 C92 1.510 . S
C93 C94 1.404 . S
C93 C95 1.352 . S
C94 C93 1.404 . S
C94 C98 1.389 . S
C94 H116 0.930 . S
C95 C93 1.352 . S
C95 C97 1.374 . S
C95 H117 0.931 . S
C96 C97 1.359 . S
C96 C98 1.364 . S
C97 C95 1.374 . S
C97 C96 1.359 . S
C97 H118 0.931 . S
C98 C94 1.389 . S
C98 C96 1.364 . S
C98 H119 0.931 . S
C99 O110 1.256 . S
C99 O111 1.257 . S
O100 Gd80 2.377 . S
O100 C82 1.240 . S
O101 Gd81 2.395 . S
O101 C82 1.240 . S
O102 Gd80 2.448 . S
O102 C83 1.249 . S
O103 Gd80 2.506 . S
O103 C83 1.252 . S
O104 Gd80 2.435 . S
O104 C90 1.256 . S
O105 Gd80 2.717 . S
O105 Gd81 2.327 . S
O105 C90 1.257 . S
O106 Gd81 2.377 . S
O106 C91 1.240 . S
O107 Gd80 2.395 . S
O107 C91 1.240 . S
O108 Gd81 2.448 . S
O108 C92 1.249 . S
O109 Gd81 2.506 . S
O109 C92 1.252 . S
O110 Gd81 2.435 . S
O110 C99 1.256 . S
O111 Gd80 2.327 . S
O111 Gd81 2.717 . S
O111 C99 1.257 . S
H112 C85 0.930 . S
H113 C86 0.931 . S
H114 C88 0.931 . S
H115 C89 0.931 . S
H116 C94 0.930 . S
H117 C95 0.931 . S
H118 C97 0.931 . S
H119 C98 0.931 . S
Gd120 C123 2.818 . S
Gd120 O140 2.377 . S
Gd120 O142 2.448 . S
Gd120 O143 2.506 . S
Gd120 O144 2.435 . S
Gd120 O145 2.717 . S
Gd120 O147 2.395 . S
Gd120 O151 2.327 . S
Gd121 C132 2.818 . S
Gd121 O141 2.395 . S
Gd121 O145 2.327 . S
Gd121 O146 2.377 . S
Gd121 O148 2.448 . S
Gd121 O149 2.506 . S
Gd121 O150 2.435 . S
Gd121 O151 2.717 . S
C122 O140 1.240 . S
C122 O141 1.240 . S
C123 Gd120 2.818 . S
C123 C124 1.510 . S
C123 O142 1.249 . S
C123 O143 1.252 . S
C124 C123 1.510 . S
C124 C125 1.404 . S
C124 C126 1.352 . S
C125 C124 1.404 . S
C125 C129 1.389 . S
C125 H152 0.930 . S
C126 C124 1.352 . S
C126 C128 1.374 . S
C126 H153 0.931 . S
C127 C128 1.359 . S
C127 C129 1.364 . S
C128 C126 1.374 . S
C128 C127 1.359 . S
C128 H154 0.931 . S
C129 C125 1.389 . S
C129 C127 1.364 . S
C129 H155 0.931 . S
C130 O144 1.256 . S
C130 O145 1.257 . S
C131 O146 1.240 . S
C131 O147 1.240 . S
C132 Gd121 2.818 . S
C132 C133 1.510 . S
C132 O148 1.249 . S
C132 O149 1.252 . S
C133 C132 1.510 . S
C133 C134 1.404 . S
C133 C135 1.352 . S
C134 C133 1.404 . S
C134 C138 1.389 . S
C134 H156 0.930 . S
C135 C133 1.352 . S
C135 C137 1.374 . S
C135 H157 0.931 . S
C136 C137 1.359 . S
C136 C138 1.364 . S
C137 C135 1.374 . S
C137 C136 1.359 . S
C137 H158 0.931 . S
C138 C134 1.389 . S
C138 C136 1.364 . S
C138 H159 0.931 . S
C139 O150 1.256 . S
C139 O151 1.257 . S
O140 Gd120 2.377 . S
O140 C122 1.240 . S
O141 Gd121 2.395 . S
O141 C122 1.240 . S
O142 Gd120 2.448 . S
O142 C123 1.249 . S
O143 Gd120 2.506 . S
O143 C123 1.252 . S
O144 Gd120 2.435 . S
O144 C130 1.256 . S
O145 Gd120 2.717 . S
O145 Gd121 2.327 . S
O145 C130 1.257 . S
O146 Gd121 2.377 . S
O146 C131 1.240 . S
O147 Gd120 2.395 . S
O147 C131 1.240 . S
O148 Gd121 2.448 . S
O148 C132 1.249 . S
O149 Gd121 2.506 . S
O149 C132 1.252 . S
O150 Gd121 2.435 . S
O150 C139 1.256 . S
O151 Gd120 2.327 . S
O151 Gd121 2.717 . S
O151 C139 1.257 . S
H152 C125 0.930 . S
H153 C126 0.931 . S
H154 C128 0.931 . S
H155 C129 0.931 . S
H156 C134 0.930 . S
H157 C135 0.931 . S
H158 C137 0.931 . S
H159 C138 0.931 . S
H160 C166 0.930 . S
H161 C170 0.930 . S
H162 C175 0.929 . S
H163 C173 0.929 . S
H164 C168 0.929 . S
H165 C174 0.929 . S
C166 H160 0.930 . S
C166 C167 1.367 1_554 S
C166 C174 1.378 . S
C167 C166 1.367 1_556 S
C167 C175 1.433 . S
C168 H164 0.929 . S
C168 C170 1.378 . S
C168 C172 1.352 1_556 S
C169 C172 1.458 1_556 S
C169 C174 1.350 1_556 S
C169 N177 1.428 . S
C170 H161 0.930 . S
C170 C168 1.378 . S
C170 C171 1.367 1_556 S
C171 C170 1.367 1_554 S
C171 C173 1.433 . S
C172 C168 1.352 1_554 S
C172 C169 1.458 1_554 S
C172 N176 1.429 . S
C173 H163 0.929 . S
C173 C171 1.433 . S
C173 N176 1.384 . S
C174 H165 0.929 . S
C174 C166 1.378 . S
C174 C169 1.350 1_554 S
C175 H162 0.929 . S
C175 C167 1.433 . S
C175 N177 1.384 . S
N176 C172 1.429 . S
N176 C173 1.384 . S
N177 C169 1.428 . S
N177 C175 1.384 . S
H178 C184 0.930 . S
H179 C188 0.930 . S
H180 C193 0.929 . S
H181 C191 0.929 . S
H182 C186 0.929 . S
H183 C192 0.929 . S
C184 H178 0.930 . S
C184 C185 1.367 . S
C184 C192 1.378 . S
C185 C184 1.367 . S
C185 C193 1.433 . S
C186 H182 0.929 . S
C186 C188 1.378 . S
C186 C190 1.350 . S
C187 C190 1.463 . S
C187 C192 1.350 . S
C187 N195 1.427 . S
C188 H179 0.930 . S
C188 C186 1.378 . S
C188 C189 1.367 . S
C189 C188 1.367 . S
C189 C191 1.433 . S
C190 C186 1.350 . S
C190 C187 1.463 . S
C190 N194 1.427 . S
C191 H181 0.929 . S
C191 C189 1.433 . S
C191 N194 1.384 . S
C192 H183 0.929 . S
C192 C184 1.378 . S
C192 C187 1.350 . S
C193 H180 0.929 . S
C193 C185 1.433 . S
C193 N195 1.384 . S
N194 C190 1.427 . S
N194 C191 1.384 . S
N195 C187 1.427 . S
N195 C193 1.384 . S
H196 C202 0.930 . S
H197 C206 0.930 . S
H198 C211 0.929 . S
H199 C209 0.929 . S
H200 C204 0.929 1_455 S
H201 C210 0.929 1_655 S
C202 H196 0.930 . S
C202 C203 1.367 . S
C202 C210 1.378 . S
C203 C202 1.367 . S
C203 C211 1.433 1_556 S
C204 H200 0.929 1_655 S
C204 C206 1.378 . S
C204 C208 1.350 . S
C205 C208 1.463 1_446 S
C205 C210 1.350 . S
C205 N213 1.427 1_556 S
C206 H197 0.930 . S
C206 C204 1.378 . S
C206 C207 1.367 . S
C207 C206 1.367 . S
C207 C209 1.433 1_554 S
C208 C204 1.350 . S
C208 C205 1.463 1_664 S
C208 N212 1.427 1_554 S
C209 H199 0.929 . S
C209 C207 1.433 1_556 S
C209 N212 1.384 . S
C210 H201 0.929 1_455 S
C210 C202 1.378 . S
C210 C205 1.350 . S
C211 H198 0.929 . S
C211 C203 1.433 1_554 S
C211 N213 1.384 . S
N212 C208 1.427 1_556 S
N212 C209 1.384 . S
N213 C205 1.427 1_554 S
N213 C211 1.384 . S
H214 C220 0.930 . S
H215 C224 0.930 . S
H216 C229 0.929 . S
H217 C227 0.929 . S
H218 C222 0.929 . S
H219 C228 0.929 . S
C220 H214 0.930 . S
C220 C221 1.367 . S
C220 C228 1.378 1_655 S
C221 C220 1.367 . S
C221 C229 1.433 . S
C222 H218 0.929 . S
C222 C224 1.378 1_655 S
C222 C226 1.350 1_655 S
C223 C226 1.463 1_645 S
C223 C228 1.350 1_655 S
C223 N231 1.427 . S
C224 H215 0.930 . S
C224 C222 1.378 1_455 S
C224 C225 1.367 . S
C225 C224 1.367 . S
C225 C227 1.433 . S
C226 C222 1.350 1_455 S
C226 C223 1.463 1_465 S
C226 N230 1.427 . S
C227 H217 0.929 . S
C227 C225 1.433 . S
C227 N230 1.384 . S
C228 H219 0.929 . S
C228 C220 1.378 1_455 S
C228 C223 1.350 1_455 S
C229 H216 0.929 . S
C229 C221 1.433 . S
C229 N231 1.384 . S
N230 C226 1.427 . S
N230 C227 1.384 . S
N231 C223 1.427 . S
N231 C229 1.384 . S
H232 C238 0.930 . S
H233 C242 0.930 . S
H234 C247 0.929 . S
H235 C245 0.929 . S
H236 C240 0.929 . S
H237 C246 0.929 . S
C238 H232 0.930 . S
C238 C239 1.367 . S
C238 C246 1.378 . S
C239 C238 1.367 . S
C239 C247 1.433 . S
C240 H236 0.929 . S
C240 C242 1.378 . S
C240 C244 1.350 . S
C241 C244 1.463 . S
C241 C246 1.350 . S
C241 N249 1.427 . S
C242 H233 0.930 . S
C242 C240 1.378 . S
C242 C243 1.367 . S
C243 C242 1.367 . S
C243 C245 1.433 . S
C244 C240 1.350 . S
C244 C241 1.463 . S
C244 N248 1.427 . S
C245 H235 0.929 . S
C245 C243 1.433 . S
C245 N248 1.384 . S
C246 H237 0.929 . S
C246 C238 1.378 . S
C246 C241 1.350 . S
C247 H234 0.929 . S
C247 C239 1.433 . S
C247 N249 1.384 . S
N248 C244 1.427 . S
N248 C245 1.384 . S
N249 C241 1.427 . S
N249 C247 1.384 . S
H250 C256 0.930 . S
H251 C260 0.930 . S
H252 C265 0.929 . S
H253 C263 0.929 . S
H254 C258 0.929 . S
H255 C264 0.929 . S
C256 H250 0.930 . S
C256 C257 1.367 . S
C256 C264 1.378 . S
C257 C256 1.367 . S
C257 C265 1.433 . S
C258 H254 0.929 . S
C258 C260 1.378 . S
C258 C262 1.350 . S
C259 C262 1.463 . S
C259 C264 1.350 . S
C259 N267 1.427 . S
C260 H251 0.930 . S
C260 C258 1.378 . S
C260 C261 1.367 . S
C261 C260 1.367 . S
C261 C263 1.433 . S
C262 C258 1.350 . S
C262 C259 1.463 . S
C262 N266 1.427 . S
C263 H253 0.929 . S
C263 C261 1.433 . S
C263 N266 1.384 . S
C264 H255 0.929 . S
C264 C256 1.378 . S
C264 C259 1.350 . S
C265 H252 0.929 . S
C265 C257 1.433 . S
C265 N267 1.384 . S
N266 C262 1.427 . S
N266 C263 1.384 . S
N267 C259 1.427 . S
N267 C265 1.384 . S
H268 C274 0.930 . S
H269 C278 0.930 . S
H270 C283 0.929 . S
H271 C281 0.929 . S
H272 C276 0.929 . S
H273 C282 0.929 . S
C274 H268 0.930 . S
C274 C275 1.367 . S
C274 C282 1.378 . S
C275 C274 1.367 . S
C275 C283 1.433 . S
C276 H272 0.929 . S
C276 C278 1.378 . S
C276 C280 1.350 . S
C277 C280 1.463 . S
C277 C282 1.350 . S
C277 N285 1.427 . S
C278 H269 0.930 . S
C278 C276 1.378 . S
C278 C279 1.367 . S
C279 C278 1.367 . S
C279 C281 1.433 . S
C280 C276 1.350 . S
C280 C277 1.463 . S
C280 N284 1.427 . S
C281 H271 0.929 . S
C281 C279 1.433 . S
C281 N284 1.384 . S
C282 H273 0.929 . S
C282 C274 1.378 . S
C282 C277 1.350 . S
C283 H270 0.929 . S
C283 C275 1.433 . S
C283 N285 1.384 . S
N284 C280 1.427 . S
N284 C281 1.384 . S
N285 C277 1.427 . S
N285 C283 1.384 . S
H286 C292 0.930 . S
H287 C296 0.930 . S
H288 C301 0.929 . S
H289 C299 0.929 . S
H290 C294 0.929 . S
H291 C300 0.929 . S
C292 H286 0.930 . S
C292 C293 1.367 . S
C292 C300 1.378 . S
C293 C292 1.367 . S
C293 C301 1.433 . S
C294 H290 0.929 . S
C294 C296 1.378 . S
C294 C298 1.350 . S
C295 C298 1.463 . S
C295 C300 1.350 . S
C295 N303 1.427 . S
C296 H287 0.930 . S
C296 C294 1.378 . S
C296 C297 1.367 . S
C297 C296 1.367 . S
C297 C299 1.433 . S
C298 C294 1.350 . S
C298 C295 1.463 . S
C298 N302 1.427 . S
C299 H289 0.929 . S
C299 C297 1.433 . S
C299 N302 1.384 . S
C300 H291 0.929 . S
C300 C292 1.378 . S
C300 C295 1.350 . S
C301 H288 0.929 . S
C301 C293 1.433 . S
C301 N303 1.384 . S
N302 C298 1.427 . S
N302 C299 1.384 . S
N303 C295 1.427 . S
N303 C301 1.384 . S
H304 C310 0.930 . S
H305 C314 0.930 . S
H306 C319 0.929 . S
H307 C317 0.929 . S
H308 C312 0.929 . S
H309 C318 0.929 . S
C310 H304 0.930 . S
C310 C311 1.367 . S
C310 C318 1.378 . S
C311 C310 1.367 . S
C311 C319 1.433 . S
C312 H308 0.929 . S
C312 C314 1.378 . S
C312 C316 1.350 . S
C313 C316 1.463 1_655 S
C313 C318 1.350 . S
C313 N321 1.427 . S
C314 H305 0.930 . S
C314 C312 1.378 . S
C314 C315 1.367 . S
C315 C314 1.367 . S
C315 C317 1.433 . S
C316 C312 1.350 . S
C316 C313 1.463 1_455 S
C316 N320 1.427 . S
C317 H307 0.929 . S
C317 C315 1.433 . S
C317 N320 1.384 . S
C318 H309 0.929 . S
C318 C310 1.378 . S
C318 C313 1.350 . S
C319 H306 0.929 . S
C319 C311 1.433 . S
C319 N321 1.384 . S
N320 C316 1.427 . S
N320 C317 1.384 . S
N321 C313 1.427 . S
N321 C319 1.384 . S
H322 C328 0.930 . S
H323 C332 0.930 . S
H324 C337 0.929 . S
H325 C335 0.929 . S
H326 C330 0.929 . S
H327 C336 0.929 . S
C328 H322 0.930 . S
C328 C329 1.367 . S
C328 C336 1.378 . S
C329 C328 1.367 . S
C329 C337 1.433 1_655 S
C330 H326 0.929 . S
C330 C332 1.378 . S
C330 C334 1.350 . S
C331 C334 1.463 1_655 S
C331 C336 1.350 . S
C331 N339 1.427 1_655 S
C332 H323 0.930 . S
C332 C330 1.378 . S
C332 C333 1.367 . S
C333 C332 1.367 . S
C333 C335 1.433 1_455 S
C334 C330 1.350 . S
C334 C331 1.463 1_455 S
C334 N338 1.427 1_455 S
C335 H325 0.929 . S
C335 C333 1.433 1_655 S
C335 N338 1.384 . S
C336 H327 0.929 . S
C336 C328 1.378 . S
C336 C331 1.350 . S
C337 H324 0.929 . S
C337 C329 1.433 1_455 S
C337 N339 1.384 . S
N338 C334 1.427 1_655 S
N338 C335 1.384 . S
N339 C331 1.427 1_455 S
N339 C337 1.384 . S
H340 C346 0.930 . S
H341 C350 0.930 . S
H342 C355 0.929 . S
H343 C353 0.929 . S
H344 C348 0.929 . S
H345 C354 0.929 . S
C346 H340 0.930 . S
C346 C347 1.367 . S
C346 C354 1.378 . S
C347 C346 1.367 . S
C347 C355 1.433 . S
C348 H344 0.929 . S
C348 C350 1.378 . S
C348 C352 1.350 . S
C349 C352 1.463 1_655 S
C349 C354 1.350 . S
C349 N357 1.427 . S
C350 H341 0.930 . S
C350 C348 1.378 . S
C350 C351 1.367 . S
C351 C350 1.367 . S
C351 C353 1.433 . S
C352 C348 1.350 . S
C352 C349 1.463 1_455 S
C352 N356 1.427 . S
C353 H343 0.929 . S
C353 C351 1.433 . S
C353 N356 1.384 . S
C354 H345 0.929 . S
C354 C346 1.378 . S
C354 C349 1.350 . S
C355 H342 0.929 . S
C355 C347 1.433 . S
C355 N357 1.384 . S
N356 C352 1.427 . S
N356 C353 1.384 . S
N357 C349 1.427 . S
N357 C355 1.384 . S
H358 C364 0.930 . S
H359 C368 0.930 . S
H360 C373 0.929 . S
H361 C371 0.929 . S
H362 C366 0.929 . S
H363 C372 0.929 . S
C364 H358 0.930 . S
C364 C365 1.367 . S
C364 C372 1.378 . S
C365 C364 1.367 . S
C365 C373 1.433 1_455 S
C366 H362 0.929 . S
C366 C368 1.378 . S
C366 C370 1.350 . S
C367 C370 1.463 1_455 S
C367 C372 1.350 . S
C367 N375 1.427 1_455 S
C368 H359 0.930 . S
C368 C366 1.378 . S
C368 C369 1.367 . S
C369 C368 1.367 . S
C369 C371 1.433 1_655 S
C370 C366 1.350 . S
C370 C367 1.463 1_655 S
C370 N374 1.427 1_655 S
C371 H361 0.929 . S
C371 C369 1.433 1_455 S
C371 N374 1.384 . S
C372 H363 0.929 . S
C372 C364 1.378 . S
C372 C367 1.350 . S
C373 H360 0.929 . S
C373 C365 1.433 1_655 S
C373 N375 1.384 . S
N374 C370 1.427 1_455 S
N374 C371 1.384 . S
N375 C367 1.427 1_655 S
N375 C373 1.384 . S
C167 C59 1.570 . S
C171 C10 1.570 . S
C185 C99 1.574 . S
C189 C130 1.574 . S
C203 C19 1.573 . S
C207 C50 1.573 . S
C221 C139 1.574 . S
C225 C90 1.574 . S
C239 C122 1.653 . S
C243 C2 1.649 . S
C257 C47 1.037 . S
C261 C87 1.045 . S
C275 C51 1.649 . S
C279 C91 1.655 . S
C293 C136 1.046 . S
C297 C16 1.039 . S
C311 C42 1.653 . S
C315 C82 1.648 . S
C329 C127 1.037 . S
C333 C7 1.042 . S
C347 C131 1.654 . S
C351 C11 1.650 . S
C365 C96 1.046 . S
C369 C56 1.038 . S
