# Generated by pormake.
# Topology vbe, (5)-cn, num edge types: 1
# Building blocks:
#     Node 0, Type 0, BuildingBlock: XOMCOT_clean_sbu_0, # of connection points: 5
#     Node 1, Type 0, BuildingBlock: XOMCOT_clean_sbu_0, # of connection points: 5
#     Node 2, Type 0, BuildingBlock: XOMCOT_clean_sbu_0, # of connection points: 5
#     Node 3, Type 0, BuildingBlock: XOMCOT_clean_sbu_0, # of connection points: 5
#     Node 4, Type 0, BuildingBlock: XOMCOT_clean_sbu_0, # of connection points: 5
#     Node 5, Type 0, BuildingBlock: XOMCOT_clean_sbu_0, # of connection points: 5
#     Node 6, Type 0, BuildingBlock: XOMCOT_clean_sbu_0, # of connection points: 5
#     Node 7, Type 0, BuildingBlock: XOMCOT_clean_sbu_0, # of connection points: 5
#     Node 8, Type 0, BuildingBlock: XOMCOT_clean_sbu_0, # of connection points: 5
#     Node 9, Type 0, BuildingBlock: XOMCOT_clean_sbu_0, # of connection points: 5
#     Node 10, Type 0, BuildingBlock: XOMCOT_clean_sbu_0, # of connection points: 5
#     Node 11, Type 0, BuildingBlock: XOMCOT_clean_sbu_0, # of connection points: 5
#     Node 12, Type 0, BuildingBlock: XOMCOT_clean_sbu_0, # of connection points: 5
#     Node 13, Type 0, BuildingBlock: XOMCOT_clean_sbu_0, # of connection points: 5
#     Node 14, Type 0, BuildingBlock: XOMCOT_clean_sbu_0, # of connection points: 5
#     Node 15, Type 0, BuildingBlock: XOMCOT_clean_sbu_0, # of connection points: 5
#     Edge 16, Type (0, 0), None
#     Edge 17, Type (0, 0), None
#     Edge 18, Type (0, 0), None
#     Edge 19, Type (0, 0), None
#     Edge 20, Type (0, 0), None
#     Edge 21, Type (0, 0), None
#     Edge 22, Type (0, 0), None
#     Edge 23, Type (0, 0), None
#     Edge 24, Type (0, 0), None
#     Edge 25, Type (0, 0), None
#     Edge 26, Type (0, 0), None
#     Edge 27, Type (0, 0), None
#     Edge 28, Type (0, 0), None
#     Edge 29, Type (0, 0), None
#     Edge 30, Type (0, 0), None
#     Edge 31, Type (0, 0), None
#     Edge 32, Type (0, 0), None
#     Edge 33, Type (0, 0), None
#     Edge 34, Type (0, 0), None
#     Edge 35, Type (0, 0), None
#     Edge 36, Type (0, 0), None
#     Edge 37, Type (0, 0), None
#     Edge 38, Type (0, 0), None
#     Edge 39, Type (0, 0), None
#     Edge 40, Type (0, 0), None
#     Edge 41, Type (0, 0), None
#     Edge 42, Type (0, 0), None
#     Edge 43, Type (0, 0), None
#     Edge 44, Type (0, 0), None
#     Edge 45, Type (0, 0), None
#     Edge 46, Type (0, 0), None
#     Edge 47, Type (0, 0), None
#     Edge 48, Type (0, 0), None
#     Edge 49, Type (0, 0), None
#     Edge 50, Type (0, 0), None
#     Edge 51, Type (0, 0), None
#     Edge 52, Type (0, 0), None
#     Edge 53, Type (0, 0), None
#     Edge 54, Type (0, 0), None
#     Edge 55, Type (0, 0), None
# Relax obj value: 0.345
# Max RMSD: 0.261
# Mean RMSD: 0.261
data_MOF--net-vbe--node1-XOMCOT_clean_sbu_0--edge1-none
_symmetry_space_group_name_H-M    P1
_symmetry_Int_Tables_number       1
_symmetry_cell_setting            triclinic
loop_
_symmetry_equiv_pos_as_xyz
'x, y, z'
_cell_length_a     23.393414
_cell_length_b     19.629683
_cell_length_c     29.124415
_cell_angle_alpha  89.999971
_cell_angle_beta   89.99999
_cell_angle_gamma 90.00009
loop_
_atom_site_label
_atom_site_type_symbol
_atom_site_fract_x
_atom_site_fract_y
_atom_site_fract_z
_atom_type_partial_charge
Co0 Co 0.08991 0.08501 0.36924 0.0
C1 C 0.05367 0.04097 0.45939 0.0
C2 C 1.02483 0.97105 0.40784 0.0
C3 C 1.02202 0.93915 0.45003 0.0
N4 N 1.04527 0.03483 0.41363 0.0
N5 N 1.04109 -0.01685 0.48205 0.0
H6 H 0.07491 0.08377 0.47518 0.0
H7 H 1.01889 0.94621 0.37508 0.0
C8 C 0.07177 0.024 0.27273 0.0
O9 O 0.12391 0.0384 0.25918 0.0
N10 N 0.13887 0.13464 0.32842 0.0
C11 C 0.19612 0.14319 0.33258 0.0
C12 C 0.21496 0.18523 0.29847 0.0
C13 C 0.12331 0.17402 0.29317 0.0
N14 N 0.16901 0.20391 0.27405 0.0
C15 C 0.1855 0.04291 0.42343 0.0
C16 C 0.23347 0.95963 0.35746 0.0
C17 C 0.26739 -0.01787 0.3941 0.0
C18 C 0.24192 0.02065 0.42888 0.0
C19 C 0.17677 -0.0185 0.35396 0.0
N20 N 0.15505 0.02713 0.38471 0.0
H21 H 0.16876 0.07875 0.44803 0.0
H22 H 0.15217 0.96513 0.32488 0.0
H23 H 0.22302 0.12244 0.35905 0.0
H24 H 0.07996 0.17996 0.28204 0.0
O25 O 0.09999 0.16187 0.41218 0.0
O26 O 1.02987 0.15199 0.36248 0.0
O27 O 0.05891 0.02563 0.31594 0.0
C28 C 0.05435 0.18852 0.39371 0.0
H29 H 1.01165 0.88616 0.45588 0.0
H30 H 0.25842 0.20209 0.29282 0.0
H31 H 0.25137 0.92756 0.3308 0.0
H32 H 0.26667 0.03797 0.45807 0.0
Co33 Co 0.50711 0.8659 0.36924 0.0
C34 C 0.54335 0.90994 0.45939 0.0
C35 C 0.57218 -0.02014 0.40784 0.0
C36 C 0.57499 0.01176 0.45003 0.0
N37 N 0.55175 0.91608 0.41363 0.0
N38 N 0.55593 0.96775 0.48205 0.0
H39 H 0.52212 0.86713 0.47518 0.0
H40 H 0.57813 0.0047 0.37508 0.0
C41 C 0.52525 0.9269 0.27273 0.0
O42 O 0.4731 0.91251 0.25918 0.0
N43 N 0.45815 0.81626 0.32842 0.0
C44 C 0.4009 0.80771 0.33259 0.0
C45 C 0.38206 0.76567 0.29847 0.0
C46 C 0.4737 0.77689 0.29317 0.0
N47 N 0.42801 0.747 0.27405 0.0
C48 C 0.41151 0.90799 0.42343 0.0
C49 C 0.36354 -0.00873 0.35746 0.0
C50 C 0.32963 0.96877 0.3941 0.0
C51 C 0.3551 0.93025 0.42888 0.0
C52 C 0.42025 0.9694 0.35396 0.0
N53 N 0.44196 0.92377 0.38471 0.0
H54 H 0.42827 0.87215 0.44803 0.0
H55 H 0.44485 -0.01423 0.32488 0.0
H56 H 0.374 0.82845 0.35905 0.0
H57 H 0.51705 0.77096 0.28204 0.0
O58 O 0.49703 0.78904 0.41218 0.0
O59 O 0.56714 0.79892 0.36248 0.0
O60 O 0.53811 0.92527 0.31594 0.0
C61 C 0.54267 0.76239 0.39371 0.0
H62 H 0.58536 0.06475 0.45588 0.0
H63 H 0.3386 0.74881 0.29282 0.0
H64 H 0.34564 0.02333 0.3308 0.0
H65 H 0.33035 0.91293 0.45807 0.0
Co66 Co 0.58991 0.8659 0.14081 0.0
C67 C 0.55367 0.90994 0.05066 0.0
C68 C 0.52483 -0.02015 0.10221 0.0
C69 C 0.52202 0.01176 0.06002 0.0
N70 N 0.54526 0.91608 0.09642 0.0
N71 N 0.54109 0.96775 0.028 0.0
H72 H 0.57491 0.86713 0.03487 0.0
H73 H 0.51889 0.00469 0.13496 0.0
C74 C 0.57178 0.92692 0.23731 0.0
O75 O 0.62392 0.91252 0.25087 0.0
N76 N 0.63887 0.81627 0.18163 0.0
C77 C 0.69612 0.80772 0.17746 0.0
C78 C 0.71496 0.76568 0.21158 0.0
C79 C 0.62331 0.7769 0.21688 0.0
N80 N 0.66901 0.74701 0.236 0.0
C81 C 0.6855 0.90799 0.08662 0.0
C82 C 0.73347 -0.00872 0.15259 0.0
C83 C 0.76739 0.96878 0.11594 0.0
C84 C 0.74192 0.93026 0.08116 0.0
C85 C 0.67677 0.96941 0.15609 0.0
N86 N 0.65505 0.92378 0.12533 0.0
H87 H 0.66875 0.87215 0.06201 0.0
H88 H 0.65217 -0.01422 0.18516 0.0
H89 H 0.72302 0.82846 0.151 0.0
H90 H 0.57996 0.77096 0.22801 0.0
O91 O 0.59999 0.78904 0.09786 0.0
O92 O 0.52987 0.79892 0.14756 0.0
O93 O 0.55891 0.92527 0.19411 0.0
C94 C 0.55435 0.76239 0.11634 0.0
H95 H 0.51165 0.06475 0.05417 0.0
H96 H 0.75842 0.74883 0.21723 0.0
H97 H 0.75137 0.02335 0.17924 0.0
H98 H 0.76667 0.91293 0.05198 0.0
Co99 Co 1.00711 0.08501 0.14081 0.0
C100 C 1.04335 0.04097 0.05066 0.0
C101 C 0.07218 0.97105 0.10221 0.0
C102 C 0.07499 0.93914 0.06002 0.0
N103 N 0.05175 0.03483 0.09642 0.0
N104 N 0.05593 -0.01685 0.028 0.0
H105 H 1.02212 0.08377 0.03487 0.0
H106 H 0.07813 0.94621 0.13496 0.0
C107 C 1.02523 0.02399 0.23731 0.0
O108 O 0.97309 0.03839 0.25087 0.0
N109 N 0.95815 0.13464 0.18163 0.0
C110 C 0.9009 0.14319 0.17746 0.0
C111 C 0.88206 0.18523 0.21157 0.0
C112 C 0.9737 0.17401 0.21688 0.0
N113 N 0.92801 0.2039 0.23599 0.0
C114 C 0.91151 0.04291 0.08661 0.0
C115 C 0.86354 0.95963 0.15259 0.0
C116 C 0.82963 -0.01786 0.11594 0.0
C117 C 0.8551 0.02065 0.08116 0.0
C118 C 0.92025 -0.0185 0.15609 0.0
N119 N 0.94196 0.02713 0.12533 0.0
H120 H 0.92827 0.07876 0.06201 0.0
H121 H 0.94485 0.96513 0.18516 0.0
H122 H 0.874 0.12245 0.15099 0.0
H123 H 1.01705 0.17995 0.22801 0.0
O124 O 0.99703 0.16187 0.09786 0.0
O125 O 0.06714 0.15199 0.14756 0.0
O126 O 1.03811 0.02563 0.19411 0.0
C127 C 1.04267 0.18852 0.11634 0.0
H128 H 0.08536 0.88616 0.05417 0.0
H129 H 0.8386 0.20209 0.21723 0.0
H130 H 0.84564 0.92757 0.17924 0.0
H131 H 0.83035 0.03798 0.05198 0.0
Co132 Co 1.00711 0.86589 0.6408 0.0
C133 C 1.04327 0.90999 0.55065 0.0
C134 C 0.07218 -0.02014 0.6022 0.0
C135 C 0.0749 0.01182 0.56002 0.0
N136 N 0.05175 0.91608 0.59641 0.0
N137 N 0.05574 0.96785 0.52802 0.0
H138 H 1.02204 0.86718 0.53487 0.0
H139 H 0.07818 0.00467 0.63496 0.0
C140 C 1.02525 0.92689 0.73731 0.0
O141 O 0.9731 0.91251 0.75086 0.0
N142 N 0.95816 0.81626 0.68162 0.0
C143 C 0.90091 0.8077 0.67746 0.0
C144 C 0.88207 0.76567 0.71157 0.0
C145 C 0.97372 0.77688 0.71688 0.0
N146 N 0.92802 0.74699 0.73599 0.0
C147 C 0.9115 0.90798 0.58663 0.0
C148 C 0.86355 -0.00872 0.6526 0.0
C149 C 0.82963 0.96877 0.61596 0.0
C150 C 0.85509 0.93025 0.58118 0.0
C151 C 0.92026 0.96941 0.65609 0.0
N152 N 0.94196 0.92377 0.62534 0.0
H153 H 0.92824 0.87213 0.56203 0.0
H154 H 0.94487 -0.01422 0.68516 0.0
H155 H 0.87401 0.82844 0.65099 0.0
H156 H 1.01707 0.77095 0.728 0.0
O157 O 0.99703 0.78904 0.59786 0.0
O158 O 0.06715 0.79891 0.64755 0.0
O159 O 1.03812 0.92526 0.69411 0.0
C160 C 1.04267 0.76239 0.61633 0.0
H161 H 0.08526 0.06482 0.55418 0.0
H162 H 0.83861 0.74881 0.71723 0.0
H163 H 0.84566 0.02335 0.67925 0.0
H164 H 0.83033 0.91292 0.552 0.0
Co165 Co 0.5899 0.08501 0.6408 0.0
C166 C 0.55375 0.04092 0.55065 0.0
C167 C 0.52484 0.97104 0.6022 0.0
C168 C 0.52212 0.93908 0.56003 0.0
N169 N 0.54527 0.03482 0.59641 0.0
N170 N 0.54128 -0.01695 0.52802 0.0
H171 H 0.57497 0.08373 0.53487 0.0
H172 H 0.51884 0.94624 0.63496 0.0
C173 C 0.57177 0.02401 0.73731 0.0
O174 O 0.62392 0.0384 0.75086 0.0
N175 N 0.63886 0.13465 0.68162 0.0
C176 C 0.6961 0.14321 0.67745 0.0
C177 C 0.71494 0.18525 0.71157 0.0
C178 C 0.6233 0.17402 0.71688 0.0
N179 N 0.669 0.20392 0.73599 0.0
C180 C 0.68552 0.04293 0.58662 0.0
C181 C 0.73347 0.95964 0.6526 0.0
C182 C 0.76739 -0.01786 0.61596 0.0
C183 C 0.74193 0.02067 0.58118 0.0
C184 C 0.67677 -0.0185 0.65609 0.0
N185 N 0.65506 0.02714 0.62534 0.0
H186 H 0.66878 0.07878 0.56203 0.0
H187 H 0.65215 0.96513 0.68516 0.0
H188 H 0.72301 0.12248 0.65099 0.0
H189 H 0.57995 0.17995 0.72801 0.0
O190 O 0.59999 0.16187 0.59785 0.0
O191 O 0.52987 0.15199 0.64755 0.0
O192 O 0.5589 0.02564 0.69411 0.0
C193 C 0.55434 0.18851 0.61633 0.0
H194 H 0.51177 0.88609 0.55418 0.0
H195 H 0.75841 0.20211 0.71722 0.0
H196 H 0.75137 0.92757 0.67926 0.0
H197 H 0.76668 0.03799 0.552 0.0
Co198 Co 0.50711 0.08501 0.86925 0.0
C199 C 0.54327 0.04092 0.95939 0.0
C200 C 0.57218 0.97104 0.90785 0.0
C201 C 0.5749 0.93908 0.95002 0.0
N202 N 0.55175 0.03482 0.91364 0.0
N203 N 0.55574 -0.01695 0.98203 0.0
H204 H 0.52204 0.08373 0.97518 0.0
H205 H 0.57818 0.94624 0.87508 0.0
C206 C 0.52524 0.02399 0.77273 0.0
O207 O 0.4731 0.03839 0.75919 0.0
N208 N 0.45816 0.13465 0.82842 0.0
C209 C 0.40091 0.1432 0.83259 0.0
C210 C 0.38207 0.18524 0.79847 0.0
C211 C 0.47372 0.17402 0.79317 0.0
N212 N 0.42802 0.20391 0.77405 0.0
C213 C 0.4115 0.04293 0.92342 0.0
C214 C 0.36355 0.95962 0.85745 0.0
C215 C 0.32963 -0.01787 0.89409 0.0
C216 C 0.35509 0.02066 0.92887 0.0
C217 C 0.42026 -0.0185 0.85396 0.0
N218 N 0.44196 0.02714 0.88471 0.0
H219 H 0.42824 0.07878 0.94802 0.0
H220 H 0.44487 0.96512 0.82489 0.0
H221 H 0.37401 0.12247 0.85905 0.0
H222 H 0.51707 0.17995 0.78204 0.0
O223 O 0.49703 0.16187 0.91219 0.0
O224 O 0.56715 0.15199 0.8625 0.0
O225 O 0.53812 0.02564 0.81594 0.0
C226 C 0.54267 0.18852 0.89372 0.0
H227 H 0.58526 0.88609 0.95586 0.0
H228 H 0.33861 0.2021 0.79282 0.0
H229 H 0.34566 0.92755 0.8308 0.0
H230 H 0.33033 0.03799 0.95805 0.0
Co231 Co 0.0899 0.86589 0.86925 0.0
C232 C 0.05375 0.90999 0.95939 0.0
C233 C 1.02484 -0.02013 0.90784 0.0
C234 C 1.02212 0.01182 0.95002 0.0
N235 N 1.04527 0.91608 0.91364 0.0
N236 N 1.04128 0.96785 0.98203 0.0
H237 H 0.07497 0.86717 0.97518 0.0
H238 H 1.01884 0.00467 0.87508 0.0
C239 C 0.07178 0.92691 0.77273 0.0
O240 O 0.12392 0.91251 0.75919 0.0
N241 N 0.13886 0.81625 0.82842 0.0
C242 C 0.1961 0.8077 0.83259 0.0
C243 C 0.21494 0.76566 0.79848 0.0
C244 C 0.1233 0.77689 0.79317 0.0
N245 N 0.169 0.747 0.77405 0.0
C246 C 0.18552 0.90798 0.92342 0.0
C247 C 0.23347 -0.00873 0.85745 0.0
C248 C 0.26739 0.96876 0.89409 0.0
C249 C 0.24193 0.93024 0.92887 0.0
C250 C 0.17677 0.96941 0.85396 0.0
N251 N 0.15506 0.92377 0.88471 0.0
H252 H 0.16878 0.87212 0.94802 0.0
H253 H 0.15215 -0.01422 0.82489 0.0
H254 H 0.22301 0.82843 0.85906 0.0
H255 H 0.07995 0.77096 0.78204 0.0
O256 O 0.09999 0.78904 0.91219 0.0
O257 O 1.02987 0.79891 0.8625 0.0
O258 O 0.0589 0.92526 0.81594 0.0
C259 C 0.05434 0.76239 0.89372 0.0
H260 H 1.01177 0.06482 0.95586 0.0
H261 H 0.25841 0.7488 0.79282 0.0
H262 H 0.25137 0.02334 0.8308 0.0
H263 H 0.26668 0.91291 0.95805 0.0
Co264 Co 0.58991 0.58501 0.36924 0.0
C265 C 0.55367 0.54097 0.45939 0.0
C266 C 0.52483 0.47106 0.40784 0.0
C267 C 0.52202 0.43915 0.45003 0.0
N268 N 0.54526 0.53483 0.41363 0.0
N269 N 0.54109 0.48315 0.48205 0.0
H270 H 0.57491 0.58377 0.47518 0.0
H271 H 0.51888 0.44622 0.37508 0.0
C272 C 0.57177 0.524 0.27273 0.0
O273 O 0.62391 0.53839 0.25919 0.0
N274 N 0.63888 0.63464 0.32841 0.0
C275 C 0.69612 0.64318 0.33258 0.0
C276 C 0.71496 0.68522 0.29847 0.0
C277 C 0.62332 0.67402 0.29317 0.0
N278 N 0.66901 0.70391 0.27405 0.0
C279 C 0.6855 0.5429 0.42343 0.0
C280 C 0.73347 0.45963 0.35745 0.0
C281 C 0.76739 0.48213 0.39409 0.0
C282 C 0.74192 0.52064 0.42888 0.0
C283 C 0.67677 0.48149 0.35395 0.0
N284 N 0.65505 0.52712 0.38471 0.0
H285 H 0.66875 0.57874 0.44803 0.0
H286 H 0.65216 0.46513 0.32488 0.0
H287 H 0.72302 0.62243 0.35904 0.0
H288 H 0.57996 0.67996 0.28204 0.0
O289 O 0.60001 0.66186 0.41219 0.0
O290 O 0.52988 0.652 0.36248 0.0
O291 O 0.5589 0.52564 0.31594 0.0
C292 C 0.55438 0.68851 0.39369 0.0
H293 H 0.51165 0.38616 0.45588 0.0
H294 H 0.75842 0.70208 0.29281 0.0
H295 H 0.75137 0.42757 0.33079 0.0
H296 H 0.76666 0.53796 0.45807 0.0
Co297 Co 1.00711 0.3659 0.36924 0.0
C298 C 1.04335 0.40994 0.45939 0.0
C299 C 0.07219 0.47985 0.40784 0.0
C300 C 0.075 0.51176 0.45003 0.0
N301 N 0.05175 0.41607 0.41363 0.0
N302 N 0.05593 0.46775 0.48205 0.0
H303 H 1.02211 0.36713 0.47518 0.0
H304 H 0.07813 0.50469 0.37508 0.0
C305 C 1.02525 0.4269 0.27273 0.0
O306 O 0.9731 0.41251 0.25919 0.0
N307 N 0.95814 0.31627 0.32841 0.0
C308 C 0.9009 0.30772 0.33258 0.0
C309 C 0.88206 0.26568 0.29847 0.0
C310 C 0.9737 0.27689 0.29317 0.0
N311 N 0.92801 0.247 0.27405 0.0
C312 C 0.91152 0.408 0.42343 0.0
C313 C 0.86354 0.49127 0.35745 0.0
C314 C 0.82963 0.46877 0.39409 0.0
C315 C 0.8551 0.43026 0.42888 0.0
C316 C 0.92025 0.46941 0.35395 0.0
N317 N 0.94197 0.42378 0.38471 0.0
H318 H 0.92827 0.37217 0.44804 0.0
H319 H 0.94485 0.48577 0.32488 0.0
H320 H 0.874 0.32847 0.35904 0.0
H321 H 1.01705 0.27095 0.28204 0.0
O322 O 0.99701 0.28905 0.41219 0.0
O323 O 0.06714 0.29891 0.36248 0.0
O324 O 1.03811 0.42527 0.31594 0.0
C325 C 1.04264 0.2624 0.39369 0.0
H326 H 0.08537 0.56475 0.45588 0.0
H327 H 0.8386 0.24882 0.29282 0.0
H328 H 0.84564 0.52333 0.33079 0.0
H329 H 0.83035 0.41294 0.45807 0.0
Co330 Co 0.08991 0.3659 0.14081 0.0
C331 C 0.05367 0.40994 0.05066 0.0
C332 C 1.02483 0.47985 0.10221 0.0
C333 C 1.02202 0.51176 0.06002 0.0
N334 N 1.04526 0.41607 0.09642 0.0
N335 N 1.04109 0.46775 0.028 0.0
H336 H 0.07491 0.36713 0.03487 0.0
H337 H 1.01888 0.50469 0.13496 0.0
C338 C 0.07178 0.42692 0.23731 0.0
O339 O 0.12392 0.41252 0.25086 0.0
N340 N 0.13888 0.31627 0.18163 0.0
C341 C 0.19612 0.30773 0.17747 0.0
C342 C 0.21496 0.26569 0.21158 0.0
C343 C 0.12332 0.2769 0.21688 0.0
N344 N 0.16901 0.247 0.23599 0.0
C345 C 0.1855 0.408 0.08662 0.0
C346 C 0.23347 0.49128 0.15259 0.0
C347 C 0.26739 0.46878 0.11595 0.0
C348 C 0.24192 0.43026 0.08117 0.0
C349 C 0.17677 0.46941 0.15609 0.0
N350 N 0.15505 0.42378 0.12533 0.0
H351 H 0.16875 0.37216 0.06201 0.0
H352 H 0.15216 0.48578 0.18517 0.0
H353 H 0.22302 0.32848 0.15101 0.0
H354 H 0.07996 0.27095 0.22801 0.0
O355 O 0.10001 0.28905 0.09786 0.0
O356 O 1.02988 0.29891 0.14757 0.0
O357 O 0.0589 0.42527 0.19411 0.0
C358 C 0.05438 0.2624 0.11636 0.0
H359 H 1.01165 0.56474 0.05417 0.0
H360 H 0.25842 0.24883 0.21724 0.0
H361 H 0.25137 0.52334 0.17925 0.0
H362 H 0.26666 0.41294 0.05198 0.0
Co363 Co 0.50711 0.58501 0.14081 0.0
C364 C 0.54335 0.54097 0.05066 0.0
C365 C 0.57219 0.47106 0.10221 0.0
C366 C 0.575 0.43915 0.06002 0.0
N367 N 0.55176 0.53483 0.09642 0.0
N368 N 0.55593 0.48315 0.028 0.0
H369 H 0.52212 0.58377 0.03487 0.0
H370 H 0.57813 0.44622 0.13496 0.0
C371 C 0.52523 0.52399 0.23731 0.0
O372 O 0.47309 0.53839 0.25086 0.0
N373 N 0.45814 0.63464 0.18163 0.0
C374 C 0.4009 0.64319 0.17746 0.0
C375 C 0.38206 0.68522 0.21158 0.0
C376 C 0.4737 0.67401 0.21688 0.0
N377 N 0.42801 0.7039 0.23599 0.0
C378 C 0.41152 0.54291 0.08662 0.0
C379 C 0.36354 0.45963 0.15259 0.0
C380 C 0.32963 0.48214 0.11595 0.0
C381 C 0.3551 0.52065 0.08117 0.0
C382 C 0.42025 0.4815 0.15609 0.0
N383 N 0.44197 0.52713 0.12533 0.0
H384 H 0.42827 0.57874 0.06201 0.0
H385 H 0.44485 0.46513 0.18517 0.0
H386 H 0.374 0.62244 0.151 0.0
H387 H 0.51705 0.67995 0.22801 0.0
O388 O 0.49701 0.66186 0.09786 0.0
O389 O 0.56714 0.652 0.14757 0.0
O390 O 0.53811 0.52564 0.19411 0.0
C391 C 0.54264 0.68851 0.11636 0.0
H392 H 0.58537 0.38616 0.05417 0.0
H393 H 0.3386 0.70208 0.21723 0.0
H394 H 0.34564 0.42757 0.17925 0.0
H395 H 0.33035 0.53797 0.05198 0.0
Co396 Co 0.50711 0.36589 0.6408 0.0
C397 C 0.54327 0.40999 0.55065 0.0
C398 C 0.57218 0.47986 0.6022 0.0
C399 C 0.5749 0.51182 0.56003 0.0
N400 N 0.55175 0.41608 0.59641 0.0
N401 N 0.55574 0.46785 0.52802 0.0
H402 H 0.52204 0.36717 0.53486 0.0
H403 H 0.57818 0.50466 0.63496 0.0
C404 C 0.52525 0.42689 0.73731 0.0
O405 O 0.4731 0.41251 0.75085 0.0
N406 N 0.45815 0.31626 0.68163 0.0
C407 C 0.40091 0.30771 0.67746 0.0
C408 C 0.38207 0.26567 0.71157 0.0
C409 C 0.47371 0.27689 0.71688 0.0
N410 N 0.42802 0.24699 0.73599 0.0
C411 C 0.4115 0.40799 0.58663 0.0
C412 C 0.36355 0.49128 0.6526 0.0
C413 C 0.32963 0.46877 0.61597 0.0
C414 C 0.35509 0.43025 0.58118 0.0
C415 C 0.42026 0.46941 0.65609 0.0
N416 N 0.44197 0.42377 0.62534 0.0
H417 H 0.42824 0.37214 0.56203 0.0
H418 H 0.44487 0.48578 0.68517 0.0
H419 H 0.37401 0.32845 0.651 0.0
H420 H 0.51707 0.27095 0.728 0.0
O421 O 0.49701 0.28905 0.59785 0.0
O422 O 0.56715 0.29891 0.64755 0.0
O423 O 0.53812 0.42526 0.69411 0.0
C424 C 0.54264 0.2624 0.61634 0.0
H425 H 0.58526 0.56481 0.55418 0.0
H426 H 0.33861 0.24881 0.71723 0.0
H427 H 0.34566 0.52335 0.67926 0.0
H428 H 0.33033 0.41293 0.552 0.0
Co429 Co 0.0899 0.58501 0.6408 0.0
C430 C 0.05375 0.54092 0.55065 0.0
C431 C 1.02484 0.47105 0.6022 0.0
C432 C 1.02212 0.43909 0.56003 0.0
N433 N 1.04527 0.53483 0.59641 0.0
N434 N 1.04128 0.48305 0.52802 0.0
H435 H 0.07497 0.58373 0.53486 0.0
H436 H 1.01884 0.44624 0.63496 0.0
C437 C 0.07177 0.52401 0.73731 0.0
O438 O 0.12391 0.5384 0.75085 0.0
N439 N 0.13886 0.63465 0.68163 0.0
C440 C 0.19611 0.6432 0.67746 0.0
C441 C 0.21495 0.68524 0.71157 0.0
C442 C 0.1233 0.67402 0.71688 0.0
N443 N 0.169 0.70392 0.73599 0.0
C444 C 0.18552 0.54292 0.58663 0.0
C445 C 0.23347 0.45964 0.6526 0.0
C446 C 0.26739 0.48214 0.61597 0.0
C447 C 0.24193 0.52066 0.58118 0.0
C448 C 0.17676 0.4815 0.65609 0.0
N449 N 0.15505 0.52713 0.62534 0.0
H450 H 0.16878 0.57877 0.56202 0.0
H451 H 0.15215 0.46513 0.68517 0.0
H452 H 0.22301 0.62246 0.651 0.0
H453 H 0.07995 0.67995 0.72801 0.0
O454 O 0.10001 0.66186 0.59785 0.0
O455 O 1.02987 0.652 0.64755 0.0
O456 O 0.0589 0.52565 0.69411 0.0
C457 C 0.05438 0.68851 0.61634 0.0
H458 H 1.01176 0.38609 0.55418 0.0
H459 H 0.25841 0.7021 0.71723 0.0
H460 H 0.25137 0.42757 0.67926 0.0
H461 H 0.26668 0.53798 0.552 0.0
Co462 Co 1.00711 0.58501 0.86925 0.0
C463 C 1.04327 0.54092 0.95939 0.0
C464 C 0.07218 0.47105 0.90785 0.0
C465 C 0.0749 0.43909 0.95002 0.0
N466 N 0.05175 0.53483 0.91364 0.0
N467 N 0.05574 0.48305 0.98203 0.0
H468 H 1.02204 0.58373 0.97518 0.0
H469 H 0.07818 0.44625 0.87508 0.0
C470 C 1.02524 0.52399 0.77273 0.0
O471 O 0.9731 0.53839 0.75919 0.0
N472 N 0.95815 0.63464 0.82842 0.0
C473 C 0.90091 0.6432 0.83259 0.0
C474 C 0.88207 0.68523 0.79847 0.0
C475 C 0.97371 0.67402 0.79317 0.0
N476 N 0.92802 0.70391 0.77405 0.0
C477 C 0.9115 0.54292 0.92342 0.0
C478 C 0.86355 0.45962 0.85745 0.0
C479 C 0.82963 0.48213 0.89408 0.0
C480 C 0.85509 0.52065 0.92886 0.0
C481 C 0.92026 0.48149 0.85396 0.0
N482 N 0.94197 0.52713 0.88471 0.0
H483 H 0.92824 0.57877 0.94802 0.0
H484 H 0.94487 0.46512 0.82488 0.0
H485 H 0.87401 0.62245 0.85905 0.0
H486 H 1.01707 0.67995 0.78204 0.0
O487 O 0.99701 0.66186 0.9122 0.0
O488 O 0.06715 0.652 0.86249 0.0
O489 O 1.03812 0.52565 0.81594 0.0
C490 C 1.04264 0.68851 0.8937 0.0
H491 H 0.08526 0.3861 0.95586 0.0
H492 H 0.83861 0.70209 0.79281 0.0
H493 H 0.84566 0.42756 0.83079 0.0
H494 H 0.83034 0.53798 0.95805 0.0
Co495 Co 0.5899 0.36589 0.86925 0.0
C496 C 0.55375 0.40999 0.95939 0.0
C497 C 0.52484 0.47986 0.90785 0.0
C498 C 0.52212 0.51182 0.95002 0.0
N499 N 0.54527 0.41608 0.91364 0.0
N500 N 0.54128 0.46785 0.98203 0.0
H501 H 0.57497 0.36717 0.97518 0.0
H502 H 0.51884 0.50466 0.87508 0.0
C503 C 0.57178 0.42691 0.77273 0.0
O504 O 0.62392 0.41252 0.75919 0.0
N505 N 0.63886 0.31626 0.82842 0.0
C506 C 0.69611 0.3077 0.83259 0.0
C507 C 0.71495 0.26567 0.79847 0.0
C508 C 0.6233 0.27689 0.79317 0.0
N509 N 0.669 0.247 0.77405 0.0
C510 C 0.68551 0.40799 0.92342 0.0
C511 C 0.73347 0.49127 0.85745 0.0
C512 C 0.76739 0.46876 0.89408 0.0
C513 C 0.74193 0.43025 0.92886 0.0
C514 C 0.67676 0.46941 0.85396 0.0
N515 N 0.65505 0.42377 0.88471 0.0
H516 H 0.66878 0.37214 0.94802 0.0
H517 H 0.65215 0.48579 0.82488 0.0
H518 H 0.72301 0.32844 0.85905 0.0
H519 H 0.57995 0.27096 0.78204 0.0
O520 O 0.60001 0.28905 0.9122 0.0
O521 O 0.52987 0.29891 0.86249 0.0
O522 O 0.5589 0.42526 0.81594 0.0
C523 C 0.55438 0.2624 0.8937 0.0
H524 H 0.51176 0.56481 0.95586 0.0
H525 H 0.75841 0.24881 0.79282 0.0
H526 H 0.75137 0.52334 0.83079 0.0
H527 H 0.76668 0.41292 0.95805 0.0
loop_
_geom_bond_atom_site_label_1
_geom_bond_atom_site_label_2
_geom_bond_distance
_geom_bond_site_symmetry_2
_ccdc_geom_bond_type
Co0 N4 2.148 . S
Co0 N10 2.128 . S
Co0 N20 2.194 . S
Co0 O25 2.351 . S
Co0 O26 2.155 1_455 S
Co0 O27 2.096 1_455 S
C1 N4 1.301 . S
C1 N5 1.328 1_445 S
C1 H6 0.930 . S
C2 C3 1.333 1_545 S
C2 N4 1.317 1_655 S
C2 H7 0.930 1_545 S
C3 C2 1.333 1_565 S
C3 N5 1.350 . S
C3 H29 0.931 . S
N4 Co0 2.148 . S
N4 C1 1.301 . S
N4 C2 1.317 1_455 S
N5 C1 1.328 1_665 S
N5 C3 1.350 . S
H6 C1 0.930 . S
H7 C2 0.930 1_565 S
C8 O9 1.224 . S
C8 O27 1.247 1_455 S
O9 C8 1.224 . S
N10 Co0 2.128 . S
N10 C11 1.355 . S
N10 C13 1.311 . S
C11 N10 1.355 . S
C11 C12 1.363 . S
C11 H23 0.929 . S
C12 C11 1.363 . S
C12 N14 1.375 . S
C12 H30 0.931 . S
C13 N10 1.311 . S
C13 N14 1.347 . S
C13 H24 0.929 . S
N14 C12 1.375 . S
N14 C13 1.347 . S
C15 C18 1.365 . S
C15 N20 1.328 . S
C15 H21 0.929 . S
C16 C17 1.362 . S
C16 C19 1.378 . S
C16 H31 0.929 1_545 S
C17 C16 1.362 . S
C17 C18 1.366 . S
C18 C15 1.365 . S
C18 C17 1.366 . S
C18 H32 0.930 . S
C19 C16 1.378 . S
C19 N20 1.315 . S
C19 H22 0.930 . S
N20 Co0 2.194 . S
N20 C15 1.328 . S
N20 C19 1.315 . S
H21 C15 0.929 . S
H22 C19 0.930 . S
H23 C11 0.929 . S
H24 C13 0.929 . S
O25 Co0 2.351 . S
O25 C28 1.244 . S
O26 Co0 2.155 1_655 S
O26 C28 1.240 1_655 S
O27 Co0 2.096 1_655 S
O27 C8 1.247 1_655 S
C28 O25 1.244 . S
C28 O26 1.240 1_455 S
H29 C3 0.931 . S
H30 C12 0.931 . S
H31 C16 0.929 1_565 S
H32 C18 0.930 . S
Co33 N37 2.148 . S
Co33 N43 2.128 . S
Co33 N53 2.194 . S
Co33 O58 2.351 . S
Co33 O59 2.155 . S
Co33 O60 2.096 . S
C34 N37 1.301 . S
C34 N38 1.328 1_565 S
C34 H39 0.930 . S
C35 C36 1.333 1_565 S
C35 N37 1.317 . S
C35 H40 0.930 1_565 S
C36 C35 1.333 1_545 S
C36 N38 1.350 . S
C36 H62 0.931 . S
N37 Co33 2.148 . S
N37 C34 1.301 . S
N37 C35 1.317 . S
N38 C34 1.328 1_545 S
N38 C36 1.350 . S
H39 C34 0.930 . S
H40 C35 0.930 1_545 S
C41 O42 1.224 . S
C41 O60 1.247 . S
O42 C41 1.224 . S
N43 Co33 2.128 . S
N43 C44 1.355 . S
N43 C46 1.311 . S
C44 N43 1.355 . S
C44 C45 1.363 . S
C44 H56 0.929 . S
C45 C44 1.363 . S
C45 N47 1.375 . S
C45 H63 0.931 . S
C46 N43 1.311 . S
C46 N47 1.347 . S
C46 H57 0.929 . S
N47 C45 1.375 . S
N47 C46 1.347 . S
C48 C51 1.365 . S
C48 N53 1.328 . S
C48 H54 0.929 . S
C49 C50 1.362 . S
C49 C52 1.378 . S
C49 H64 0.929 1_565 S
C50 C49 1.362 . S
C50 C51 1.366 . S
C51 C48 1.365 . S
C51 C50 1.366 . S
C51 H65 0.930 . S
C52 C49 1.378 . S
C52 N53 1.315 . S
C52 H55 0.930 . S
N53 Co33 2.194 . S
N53 C48 1.328 . S
N53 C52 1.315 . S
H54 C48 0.929 . S
H55 C52 0.930 . S
H56 C44 0.929 . S
H57 C46 0.929 . S
O58 Co33 2.351 . S
O58 C61 1.244 . S
O59 Co33 2.155 . S
O59 C61 1.240 . S
O60 Co33 2.096 . S
O60 C41 1.247 . S
C61 O58 1.244 . S
C61 O59 1.240 . S
H62 C36 0.931 . S
H63 C45 0.931 . S
H64 C49 0.929 1_545 S
H65 C51 0.930 . S
Co66 N70 2.148 . S
Co66 N76 2.128 . S
Co66 N86 2.194 . S
Co66 O91 2.351 . S
Co66 O92 2.155 . S
Co66 O93 2.096 . S
C67 N70 1.301 . S
C67 N71 1.328 1_565 S
C67 H72 0.930 . S
C68 C69 1.333 1_565 S
C68 N70 1.317 . S
C68 H73 0.930 1_565 S
C69 C68 1.333 1_545 S
C69 N71 1.350 . S
C69 H95 0.931 . S
N70 Co66 2.148 . S
N70 C67 1.301 . S
N70 C68 1.317 . S
N71 C67 1.328 1_545 S
N71 C69 1.350 . S
H72 C67 0.930 . S
H73 C68 0.930 1_545 S
C74 O75 1.224 . S
C74 O93 1.247 . S
O75 C74 1.224 . S
N76 Co66 2.128 . S
N76 C77 1.355 . S
N76 C79 1.311 . S
C77 N76 1.355 . S
C77 C78 1.363 . S
C77 H89 0.929 . S
C78 C77 1.363 . S
C78 N80 1.375 . S
C78 H96 0.931 . S
C79 N76 1.311 . S
C79 N80 1.347 . S
C79 H90 0.929 . S
N80 C78 1.375 . S
N80 C79 1.347 . S
C81 C84 1.365 . S
C81 N86 1.328 . S
C81 H87 0.929 . S
C82 C83 1.362 . S
C82 C85 1.378 . S
C82 H97 0.929 1_565 S
C83 C82 1.362 . S
C83 C84 1.366 . S
C84 C81 1.365 . S
C84 C83 1.366 . S
C84 H98 0.930 . S
C85 C82 1.378 . S
C85 N86 1.315 . S
C85 H88 0.930 . S
N86 Co66 2.194 . S
N86 C81 1.328 . S
N86 C85 1.315 . S
H87 C81 0.929 . S
H88 C85 0.930 . S
H89 C77 0.929 . S
H90 C79 0.929 . S
O91 Co66 2.351 . S
O91 C94 1.244 . S
O92 Co66 2.155 . S
O92 C94 1.240 . S
O93 Co66 2.096 . S
O93 C74 1.247 . S
C94 O91 1.244 . S
C94 O92 1.240 . S
H95 C69 0.931 . S
H96 C78 0.931 . S
H97 C82 0.929 1_545 S
H98 C84 0.930 . S
Co99 N103 2.148 . S
Co99 N109 2.128 . S
Co99 N119 2.194 . S
Co99 O124 2.351 . S
Co99 O125 2.155 1_655 S
Co99 O126 2.096 1_655 S
C100 N103 1.301 . S
C100 N104 1.328 1_645 S
C100 H105 0.930 . S
C101 C102 1.333 1_545 S
C101 N103 1.317 1_455 S
C101 H106 0.930 1_545 S
C102 C101 1.333 1_565 S
C102 N104 1.350 . S
C102 H128 0.931 . S
N103 Co99 2.148 . S
N103 C100 1.301 . S
N103 C101 1.317 1_655 S
N104 C100 1.328 1_465 S
N104 C102 1.350 . S
H105 C100 0.930 . S
H106 C101 0.930 1_565 S
C107 O108 1.224 . S
C107 O126 1.247 1_655 S
O108 C107 1.224 . S
N109 Co99 2.128 . S
N109 C110 1.355 . S
N109 C112 1.311 . S
C110 N109 1.355 . S
C110 C111 1.363 . S
C110 H122 0.929 . S
C111 C110 1.363 . S
C111 N113 1.375 . S
C111 H129 0.931 . S
C112 N109 1.311 . S
C112 N113 1.347 . S
C112 H123 0.929 . S
N113 C111 1.375 . S
N113 C112 1.347 . S
C114 C117 1.365 . S
C114 N119 1.328 . S
C114 H120 0.929 . S
C115 C116 1.362 . S
C115 C118 1.378 . S
C115 H130 0.929 1_545 S
C116 C115 1.362 . S
C116 C117 1.366 . S
C117 C114 1.365 . S
C117 C116 1.366 . S
C117 H131 0.930 . S
C118 C115 1.378 . S
C118 N119 1.315 . S
C118 H121 0.930 . S
N119 Co99 2.194 . S
N119 C114 1.328 . S
N119 C118 1.315 . S
H120 C114 0.929 . S
H121 C118 0.930 . S
H122 C110 0.929 . S
H123 C112 0.929 . S
O124 Co99 2.351 . S
O124 C127 1.244 . S
O125 Co99 2.155 1_455 S
O125 C127 1.240 1_455 S
O126 Co99 2.096 1_455 S
O126 C107 1.247 1_455 S
C127 O124 1.244 . S
C127 O125 1.240 1_655 S
H128 C102 0.931 . S
H129 C111 0.931 . S
H130 C115 0.929 1_565 S
H131 C117 0.930 . S
Co132 N136 2.148 . S
Co132 N142 2.128 . S
Co132 N152 2.194 . S
Co132 O157 2.351 . S
Co132 O158 2.155 1_655 S
Co132 O159 2.096 1_655 S
C133 N136 1.301 . S
C133 N137 1.328 1_665 S
C133 H138 0.930 . S
C134 C135 1.333 1_565 S
C134 N136 1.317 1_455 S
C134 H139 0.930 1_565 S
C135 C134 1.333 1_545 S
C135 N137 1.350 . S
C135 H161 0.931 . S
N136 Co132 2.148 . S
N136 C133 1.301 . S
N136 C134 1.317 1_655 S
N137 C133 1.328 1_445 S
N137 C135 1.350 . S
H138 C133 0.930 . S
H139 C134 0.930 1_545 S
C140 O141 1.224 . S
C140 O159 1.247 1_655 S
O141 C140 1.224 . S
N142 Co132 2.128 . S
N142 C143 1.355 . S
N142 C145 1.311 . S
C143 N142 1.355 . S
C143 C144 1.363 . S
C143 H155 0.929 . S
C144 C143 1.363 . S
C144 N146 1.375 . S
C144 H162 0.931 . S
C145 N142 1.311 . S
C145 N146 1.347 . S
C145 H156 0.929 . S
N146 C144 1.375 . S
N146 C145 1.347 . S
C147 C150 1.365 . S
C147 N152 1.328 . S
C147 H153 0.929 . S
C148 C149 1.362 . S
C148 C151 1.378 . S
C148 H163 0.929 1_565 S
C149 C148 1.362 . S
C149 C150 1.366 . S
C150 C147 1.365 . S
C150 C149 1.366 . S
C150 H164 0.930 . S
C151 C148 1.378 . S
C151 N152 1.315 . S
C151 H154 0.930 . S
N152 Co132 2.194 . S
N152 C147 1.328 . S
N152 C151 1.315 . S
H153 C147 0.929 . S
H154 C151 0.930 . S
H155 C143 0.929 . S
H156 C145 0.929 . S
O157 Co132 2.351 . S
O157 C160 1.244 . S
O158 Co132 2.155 1_455 S
O158 C160 1.240 1_455 S
O159 Co132 2.096 1_455 S
O159 C140 1.247 1_455 S
C160 O157 1.244 . S
C160 O158 1.240 1_655 S
H161 C135 0.931 . S
H162 C144 0.931 . S
H163 C148 0.929 1_545 S
H164 C150 0.930 . S
Co165 N169 2.148 . S
Co165 N175 2.128 . S
Co165 N185 2.194 . S
Co165 O190 2.351 . S
Co165 O191 2.155 . S
Co165 O192 2.096 . S
C166 N169 1.301 . S
C166 N170 1.328 1_545 S
C166 H171 0.930 . S
C167 C168 1.333 1_545 S
C167 N169 1.317 . S
C167 H172 0.930 1_545 S
C168 C167 1.333 1_565 S
C168 N170 1.350 . S
C168 H194 0.931 . S
N169 Co165 2.148 . S
N169 C166 1.301 . S
N169 C167 1.317 . S
N170 C166 1.328 1_565 S
N170 C168 1.350 . S
H171 C166 0.930 . S
H172 C167 0.930 1_565 S
C173 O174 1.224 . S
C173 O192 1.247 . S
O174 C173 1.224 . S
N175 Co165 2.128 . S
N175 C176 1.355 . S
N175 C178 1.311 . S
C176 N175 1.355 . S
C176 C177 1.363 . S
C176 H188 0.929 . S
C177 C176 1.363 . S
C177 N179 1.375 . S
C177 H195 0.931 . S
C178 N175 1.311 . S
C178 N179 1.347 . S
C178 H189 0.929 . S
N179 C177 1.375 . S
N179 C178 1.347 . S
C180 C183 1.365 . S
C180 N185 1.328 . S
C180 H186 0.929 . S
C181 C182 1.362 . S
C181 C184 1.378 . S
C181 H196 0.929 1_545 S
C182 C181 1.362 . S
C182 C183 1.366 . S
C183 C180 1.365 . S
C183 C182 1.366 . S
C183 H197 0.930 . S
C184 C181 1.378 . S
C184 N185 1.315 . S
C184 H187 0.930 . S
N185 Co165 2.194 . S
N185 C180 1.328 . S
N185 C184 1.315 . S
H186 C180 0.929 . S
H187 C184 0.930 . S
H188 C176 0.929 . S
H189 C178 0.929 . S
O190 Co165 2.351 . S
O190 C193 1.244 . S
O191 Co165 2.155 . S
O191 C193 1.240 . S
O192 Co165 2.096 . S
O192 C173 1.247 . S
C193 O190 1.244 . S
C193 O191 1.240 . S
H194 C168 0.931 . S
H195 C177 0.931 . S
H196 C181 0.929 1_565 S
H197 C183 0.930 . S
Co198 N202 2.148 . S
Co198 N208 2.128 . S
Co198 N218 2.194 . S
Co198 O223 2.351 . S
Co198 O224 2.155 . S
Co198 O225 2.096 . S
C199 N202 1.301 . S
C199 N203 1.328 1_545 S
C199 H204 0.930 . S
C200 C201 1.333 1_545 S
C200 N202 1.317 . S
C200 H205 0.930 1_545 S
C201 C200 1.333 1_565 S
C201 N203 1.350 . S
C201 H227 0.931 . S
N202 Co198 2.148 . S
N202 C199 1.301 . S
N202 C200 1.317 . S
N203 C199 1.328 1_565 S
N203 C201 1.350 . S
H204 C199 0.930 . S
H205 C200 0.930 1_565 S
C206 O207 1.224 . S
C206 O225 1.247 . S
O207 C206 1.224 . S
N208 Co198 2.128 . S
N208 C209 1.355 . S
N208 C211 1.311 . S
C209 N208 1.355 . S
C209 C210 1.363 . S
C209 H221 0.929 . S
C210 C209 1.363 . S
C210 N212 1.375 . S
C210 H228 0.931 . S
C211 N208 1.311 . S
C211 N212 1.347 . S
C211 H222 0.929 . S
N212 C210 1.375 . S
N212 C211 1.347 . S
C213 C216 1.365 . S
C213 N218 1.328 . S
C213 H219 0.929 . S
C214 C215 1.362 . S
C214 C217 1.378 . S
C214 H229 0.929 1_545 S
C215 C214 1.362 . S
C215 C216 1.366 . S
C216 C213 1.365 . S
C216 C215 1.366 . S
C216 H230 0.930 . S
C217 C214 1.378 . S
C217 N218 1.315 . S
C217 H220 0.930 . S
N218 Co198 2.194 . S
N218 C213 1.328 . S
N218 C217 1.315 . S
H219 C213 0.929 . S
H220 C217 0.930 . S
H221 C209 0.929 . S
H222 C211 0.929 . S
O223 Co198 2.351 . S
O223 C226 1.244 . S
O224 Co198 2.155 . S
O224 C226 1.240 . S
O225 Co198 2.096 . S
O225 C206 1.247 . S
C226 O223 1.244 . S
C226 O224 1.240 . S
H227 C201 0.931 . S
H228 C210 0.931 . S
H229 C214 0.929 1_565 S
H230 C216 0.930 . S
Co231 N235 2.148 . S
Co231 N241 2.128 . S
Co231 N251 2.194 . S
Co231 O256 2.351 . S
Co231 O257 2.155 1_455 S
Co231 O258 2.096 1_455 S
C232 N235 1.301 . S
C232 N236 1.328 1_465 S
C232 H237 0.930 . S
C233 C234 1.333 1_565 S
C233 N235 1.317 1_655 S
C233 H238 0.930 1_565 S
C234 C233 1.333 1_545 S
C234 N236 1.350 . S
C234 H260 0.931 . S
N235 Co231 2.148 . S
N235 C232 1.301 . S
N235 C233 1.317 1_455 S
N236 C232 1.328 1_645 S
N236 C234 1.350 . S
H237 C232 0.930 . S
H238 C233 0.930 1_545 S
C239 O240 1.224 . S
C239 O258 1.247 1_455 S
O240 C239 1.224 . S
N241 Co231 2.128 . S
N241 C242 1.355 . S
N241 C244 1.311 . S
C242 N241 1.355 . S
C242 C243 1.363 . S
C242 H254 0.929 . S
C243 C242 1.363 . S
C243 N245 1.375 . S
C243 H261 0.931 . S
C244 N241 1.311 . S
C244 N245 1.347 . S
C244 H255 0.929 . S
N245 C243 1.375 . S
N245 C244 1.347 . S
C246 C249 1.365 . S
C246 N251 1.328 . S
C246 H252 0.929 . S
C247 C248 1.362 . S
C247 C250 1.378 . S
C247 H262 0.929 1_565 S
C248 C247 1.362 . S
C248 C249 1.366 . S
C249 C246 1.365 . S
C249 C248 1.366 . S
C249 H263 0.930 . S
C250 C247 1.378 . S
C250 N251 1.315 . S
C250 H253 0.930 . S
N251 Co231 2.194 . S
N251 C246 1.328 . S
N251 C250 1.315 . S
H252 C246 0.929 . S
H253 C250 0.930 . S
H254 C242 0.929 . S
H255 C244 0.929 . S
O256 Co231 2.351 . S
O256 C259 1.244 . S
O257 Co231 2.155 1_655 S
O257 C259 1.240 1_655 S
O258 Co231 2.096 1_655 S
O258 C239 1.247 1_655 S
C259 O256 1.244 . S
C259 O257 1.240 1_455 S
H260 C234 0.931 . S
H261 C243 0.931 . S
H262 C247 0.929 1_545 S
H263 C249 0.930 . S
Co264 N268 2.148 . S
Co264 N274 2.128 . S
Co264 N284 2.194 . S
Co264 O289 2.351 . S
Co264 O290 2.155 . S
Co264 O291 2.096 . S
C265 N268 1.301 . S
C265 N269 1.328 . S
C265 H270 0.930 . S
C266 C267 1.333 . S
C266 N268 1.317 . S
C266 H271 0.930 . S
C267 C266 1.333 . S
C267 N269 1.350 . S
C267 H293 0.931 . S
N268 Co264 2.148 . S
N268 C265 1.301 . S
N268 C266 1.317 . S
N269 C265 1.328 . S
N269 C267 1.350 . S
H270 C265 0.930 . S
H271 C266 0.930 . S
C272 O273 1.224 . S
C272 O291 1.247 . S
O273 C272 1.224 . S
N274 Co264 2.128 . S
N274 C275 1.355 . S
N274 C277 1.311 . S
C275 N274 1.355 . S
C275 C276 1.363 . S
C275 H287 0.929 . S
C276 C275 1.363 . S
C276 N278 1.375 . S
C276 H294 0.931 . S
C277 N274 1.311 . S
C277 N278 1.347 . S
C277 H288 0.929 . S
N278 C276 1.375 . S
N278 C277 1.347 . S
C279 C282 1.365 . S
C279 N284 1.328 . S
C279 H285 0.929 . S
C280 C281 1.362 . S
C280 C283 1.378 . S
C280 H295 0.929 . S
C281 C280 1.362 . S
C281 C282 1.366 . S
C282 C279 1.365 . S
C282 C281 1.366 . S
C282 H296 0.930 . S
C283 C280 1.378 . S
C283 N284 1.315 . S
C283 H286 0.930 . S
N284 Co264 2.194 . S
N284 C279 1.328 . S
N284 C283 1.315 . S
H285 C279 0.929 . S
H286 C283 0.930 . S
H287 C275 0.929 . S
H288 C277 0.929 . S
O289 Co264 2.351 . S
O289 C292 1.244 . S
O290 Co264 2.155 . S
O290 C292 1.240 . S
O291 Co264 2.096 . S
O291 C272 1.247 . S
C292 O289 1.244 . S
C292 O290 1.240 . S
H293 C267 0.931 . S
H294 C276 0.931 . S
H295 C280 0.929 . S
H296 C282 0.930 . S
Co297 N301 2.148 . S
Co297 N307 2.128 . S
Co297 N317 2.194 . S
Co297 O322 2.351 . S
Co297 O323 2.155 1_655 S
Co297 O324 2.096 1_655 S
C298 N301 1.301 . S
C298 N302 1.328 1_655 S
C298 H303 0.930 . S
C299 C300 1.333 . S
C299 N301 1.317 1_455 S
C299 H304 0.930 . S
C300 C299 1.333 . S
C300 N302 1.350 . S
C300 H326 0.931 . S
N301 Co297 2.148 . S
N301 C298 1.301 . S
N301 C299 1.317 1_655 S
N302 C298 1.328 1_455 S
N302 C300 1.350 . S
H303 C298 0.930 . S
H304 C299 0.930 . S
C305 O306 1.224 . S
C305 O324 1.247 1_655 S
O306 C305 1.224 . S
N307 Co297 2.128 . S
N307 C308 1.355 . S
N307 C310 1.311 . S
C308 N307 1.355 . S
C308 C309 1.363 . S
C308 H320 0.929 . S
C309 C308 1.363 . S
C309 N311 1.375 . S
C309 H327 0.931 . S
C310 N307 1.311 . S
C310 N311 1.347 . S
C310 H321 0.929 . S
N311 C309 1.375 . S
N311 C310 1.347 . S
C312 C315 1.365 . S
C312 N317 1.328 . S
C312 H318 0.929 . S
C313 C314 1.362 . S
C313 C316 1.378 . S
C313 H328 0.929 . S
C314 C313 1.362 . S
C314 C315 1.366 . S
C315 C312 1.365 . S
C315 C314 1.366 . S
C315 H329 0.930 . S
C316 C313 1.378 . S
C316 N317 1.315 . S
C316 H319 0.930 . S
N317 Co297 2.194 . S
N317 C312 1.328 . S
N317 C316 1.315 . S
H318 C312 0.929 . S
H319 C316 0.930 . S
H320 C308 0.929 . S
H321 C310 0.929 . S
O322 Co297 2.351 . S
O322 C325 1.244 . S
O323 Co297 2.155 1_455 S
O323 C325 1.240 1_455 S
O324 Co297 2.096 1_455 S
O324 C305 1.247 1_455 S
C325 O322 1.244 . S
C325 O323 1.240 1_655 S
H326 C300 0.931 . S
H327 C309 0.931 . S
H328 C313 0.929 . S
H329 C315 0.930 . S
Co330 N334 2.148 . S
Co330 N340 2.128 . S
Co330 N350 2.194 . S
Co330 O355 2.351 . S
Co330 O356 2.155 1_455 S
Co330 O357 2.096 1_455 S
C331 N334 1.301 . S
C331 N335 1.328 1_455 S
C331 H336 0.930 . S
C332 C333 1.333 . S
C332 N334 1.317 1_655 S
C332 H337 0.930 . S
C333 C332 1.333 . S
C333 N335 1.350 . S
C333 H359 0.931 . S
N334 Co330 2.148 . S
N334 C331 1.301 . S
N334 C332 1.317 1_455 S
N335 C331 1.328 1_655 S
N335 C333 1.350 . S
H336 C331 0.930 . S
H337 C332 0.930 . S
C338 O339 1.224 . S
C338 O357 1.247 1_455 S
O339 C338 1.224 . S
N340 Co330 2.128 . S
N340 C341 1.355 . S
N340 C343 1.311 . S
C341 N340 1.355 . S
C341 C342 1.363 . S
C341 H353 0.929 . S
C342 C341 1.363 . S
C342 N344 1.375 . S
C342 H360 0.931 . S
C343 N340 1.311 . S
C343 N344 1.347 . S
C343 H354 0.929 . S
N344 C342 1.375 . S
N344 C343 1.347 . S
C345 C348 1.365 . S
C345 N350 1.328 . S
C345 H351 0.929 . S
C346 C347 1.362 . S
C346 C349 1.378 . S
C346 H361 0.929 . S
C347 C346 1.362 . S
C347 C348 1.366 . S
C348 C345 1.365 . S
C348 C347 1.366 . S
C348 H362 0.930 . S
C349 C346 1.378 . S
C349 N350 1.315 . S
C349 H352 0.930 . S
N350 Co330 2.194 . S
N350 C345 1.328 . S
N350 C349 1.315 . S
H351 C345 0.929 . S
H352 C349 0.930 . S
H353 C341 0.929 . S
H354 C343 0.929 . S
O355 Co330 2.351 . S
O355 C358 1.244 . S
O356 Co330 2.155 1_655 S
O356 C358 1.240 1_655 S
O357 Co330 2.096 1_655 S
O357 C338 1.247 1_655 S
C358 O355 1.244 . S
C358 O356 1.240 1_455 S
H359 C333 0.931 . S
H360 C342 0.931 . S
H361 C346 0.929 . S
H362 C348 0.930 . S
Co363 N367 2.148 . S
Co363 N373 2.128 . S
Co363 N383 2.194 . S
Co363 O388 2.351 . S
Co363 O389 2.155 . S
Co363 O390 2.096 . S
C364 N367 1.301 . S
C364 N368 1.328 . S
C364 H369 0.930 . S
C365 C366 1.333 . S
C365 N367 1.317 . S
C365 H370 0.930 . S
C366 C365 1.333 . S
C366 N368 1.350 . S
C366 H392 0.931 . S
N367 Co363 2.148 . S
N367 C364 1.301 . S
N367 C365 1.317 . S
N368 C364 1.328 . S
N368 C366 1.350 . S
H369 C364 0.930 . S
H370 C365 0.930 . S
C371 O372 1.224 . S
C371 O390 1.247 . S
O372 C371 1.224 . S
N373 Co363 2.128 . S
N373 C374 1.355 . S
N373 C376 1.311 . S
C374 N373 1.355 . S
C374 C375 1.363 . S
C374 H386 0.929 . S
C375 C374 1.363 . S
C375 N377 1.375 . S
C375 H393 0.931 . S
C376 N373 1.311 . S
C376 N377 1.347 . S
C376 H387 0.929 . S
N377 C375 1.375 . S
N377 C376 1.347 . S
C378 C381 1.365 . S
C378 N383 1.328 . S
C378 H384 0.929 . S
C379 C380 1.362 . S
C379 C382 1.378 . S
C379 H394 0.929 . S
C380 C379 1.362 . S
C380 C381 1.366 . S
C381 C378 1.365 . S
C381 C380 1.366 . S
C381 H395 0.930 . S
C382 C379 1.378 . S
C382 N383 1.315 . S
C382 H385 0.930 . S
N383 Co363 2.194 . S
N383 C378 1.328 . S
N383 C382 1.315 . S
H384 C378 0.929 . S
H385 C382 0.930 . S
H386 C374 0.929 . S
H387 C376 0.929 . S
O388 Co363 2.351 . S
O388 C391 1.244 . S
O389 Co363 2.155 . S
O389 C391 1.240 . S
O390 Co363 2.096 . S
O390 C371 1.247 . S
C391 O388 1.244 . S
C391 O389 1.240 . S
H392 C366 0.931 . S
H393 C375 0.931 . S
H394 C379 0.929 . S
H395 C381 0.930 . S
Co396 N400 2.148 . S
Co396 N406 2.128 . S
Co396 N416 2.194 . S
Co396 O421 2.351 . S
Co396 O422 2.155 . S
Co396 O423 2.096 . S
C397 N400 1.301 . S
C397 N401 1.328 . S
C397 H402 0.930 . S
C398 C399 1.333 . S
C398 N400 1.317 . S
C398 H403 0.930 . S
C399 C398 1.333 . S
C399 N401 1.350 . S
C399 H425 0.931 . S
N400 Co396 2.148 . S
N400 C397 1.301 . S
N400 C398 1.317 . S
N401 C397 1.328 . S
N401 C399 1.350 . S
H402 C397 0.930 . S
H403 C398 0.930 . S
C404 O405 1.224 . S
C404 O423 1.247 . S
O405 C404 1.224 . S
N406 Co396 2.128 . S
N406 C407 1.355 . S
N406 C409 1.311 . S
C407 N406 1.355 . S
C407 C408 1.363 . S
C407 H419 0.929 . S
C408 C407 1.363 . S
C408 N410 1.375 . S
C408 H426 0.931 . S
C409 N406 1.311 . S
C409 N410 1.347 . S
C409 H420 0.929 . S
N410 C408 1.375 . S
N410 C409 1.347 . S
C411 C414 1.365 . S
C411 N416 1.328 . S
C411 H417 0.929 . S
C412 C413 1.362 . S
C412 C415 1.378 . S
C412 H427 0.929 . S
C413 C412 1.362 . S
C413 C414 1.366 . S
C414 C411 1.365 . S
C414 C413 1.366 . S
C414 H428 0.930 . S
C415 C412 1.378 . S
C415 N416 1.315 . S
C415 H418 0.930 . S
N416 Co396 2.194 . S
N416 C411 1.328 . S
N416 C415 1.315 . S
H417 C411 0.929 . S
H418 C415 0.930 . S
H419 C407 0.929 . S
H420 C409 0.929 . S
O421 Co396 2.351 . S
O421 C424 1.244 . S
O422 Co396 2.155 . S
O422 C424 1.240 . S
O423 Co396 2.096 . S
O423 C404 1.247 . S
C424 O421 1.244 . S
C424 O422 1.240 . S
H425 C399 0.931 . S
H426 C408 0.931 . S
H427 C412 0.929 . S
H428 C414 0.930 . S
Co429 N433 2.148 . S
Co429 N439 2.128 . S
Co429 N449 2.194 . S
Co429 O454 2.351 . S
Co429 O455 2.155 1_455 S
Co429 O456 2.096 1_455 S
C430 N433 1.301 . S
C430 N434 1.328 1_455 S
C430 H435 0.930 . S
C431 C432 1.333 . S
C431 N433 1.317 1_655 S
C431 H436 0.930 . S
C432 C431 1.333 . S
C432 N434 1.350 . S
C432 H458 0.931 . S
N433 Co429 2.148 . S
N433 C430 1.301 . S
N433 C431 1.317 1_455 S
N434 C430 1.328 1_655 S
N434 C432 1.350 . S
H435 C430 0.930 . S
H436 C431 0.930 . S
C437 O438 1.224 . S
C437 O456 1.247 1_455 S
O438 C437 1.224 . S
N439 Co429 2.128 . S
N439 C440 1.355 . S
N439 C442 1.311 . S
C440 N439 1.355 . S
C440 C441 1.363 . S
C440 H452 0.929 . S
C441 C440 1.363 . S
C441 N443 1.375 . S
C441 H459 0.931 . S
C442 N439 1.311 . S
C442 N443 1.347 . S
C442 H453 0.929 . S
N443 C441 1.375 . S
N443 C442 1.347 . S
C444 C447 1.365 . S
C444 N449 1.328 . S
C444 H450 0.929 . S
C445 C446 1.362 . S
C445 C448 1.378 . S
C445 H460 0.929 . S
C446 C445 1.362 . S
C446 C447 1.366 . S
C447 C444 1.365 . S
C447 C446 1.366 . S
C447 H461 0.930 . S
C448 C445 1.378 . S
C448 N449 1.315 . S
C448 H451 0.930 . S
N449 Co429 2.194 . S
N449 C444 1.328 . S
N449 C448 1.315 . S
H450 C444 0.929 . S
H451 C448 0.930 . S
H452 C440 0.929 . S
H453 C442 0.929 . S
O454 Co429 2.351 . S
O454 C457 1.244 . S
O455 Co429 2.155 1_655 S
O455 C457 1.240 1_655 S
O456 Co429 2.096 1_655 S
O456 C437 1.247 1_655 S
C457 O454 1.244 . S
C457 O455 1.240 1_455 S
H458 C432 0.931 . S
H459 C441 0.931 . S
H460 C445 0.929 . S
H461 C447 0.930 . S
Co462 N466 2.148 . S
Co462 N472 2.128 . S
Co462 N482 2.194 . S
Co462 O487 2.351 . S
Co462 O488 2.155 1_655 S
Co462 O489 2.096 1_655 S
C463 N466 1.301 . S
C463 N467 1.328 1_655 S
C463 H468 0.930 . S
C464 C465 1.333 . S
C464 N466 1.317 1_455 S
C464 H469 0.930 . S
C465 C464 1.333 . S
C465 N467 1.350 . S
C465 H491 0.931 . S
N466 Co462 2.148 . S
N466 C463 1.301 . S
N466 C464 1.317 1_655 S
N467 C463 1.328 1_455 S
N467 C465 1.350 . S
H468 C463 0.930 . S
H469 C464 0.930 . S
C470 O471 1.224 . S
C470 O489 1.247 1_655 S
O471 C470 1.224 . S
N472 Co462 2.128 . S
N472 C473 1.355 . S
N472 C475 1.311 . S
C473 N472 1.355 . S
C473 C474 1.363 . S
C473 H485 0.929 . S
C474 C473 1.363 . S
C474 N476 1.375 . S
C474 H492 0.931 . S
C475 N472 1.311 . S
C475 N476 1.347 . S
C475 H486 0.929 . S
N476 C474 1.375 . S
N476 C475 1.347 . S
C477 C480 1.365 . S
C477 N482 1.328 . S
C477 H483 0.929 . S
C478 C479 1.362 . S
C478 C481 1.378 . S
C478 H493 0.929 . S
C479 C478 1.362 . S
C479 C480 1.366 . S
C480 C477 1.365 . S
C480 C479 1.366 . S
C480 H494 0.930 . S
C481 C478 1.378 . S
C481 N482 1.315 . S
C481 H484 0.930 . S
N482 Co462 2.194 . S
N482 C477 1.328 . S
N482 C481 1.315 . S
H483 C477 0.929 . S
H484 C481 0.930 . S
H485 C473 0.929 . S
H486 C475 0.929 . S
O487 Co462 2.351 . S
O487 C490 1.244 . S
O488 Co462 2.155 1_455 S
O488 C490 1.240 1_455 S
O489 Co462 2.096 1_455 S
O489 C470 1.247 1_455 S
C490 O487 1.244 . S
C490 O488 1.240 1_655 S
H491 C465 0.931 . S
H492 C474 0.931 . S
H493 C478 0.929 . S
H494 C480 0.930 . S
Co495 N499 2.148 . S
Co495 N505 2.128 . S
Co495 N515 2.194 . S
Co495 O520 2.351 . S
Co495 O521 2.155 . S
Co495 O522 2.096 . S
C496 N499 1.301 . S
C496 N500 1.328 . S
C496 H501 0.930 . S
C497 C498 1.333 . S
C497 N499 1.317 . S
C497 H502 0.930 . S
C498 C497 1.333 . S
C498 N500 1.350 . S
C498 H524 0.931 . S
N499 Co495 2.148 . S
N499 C496 1.301 . S
N499 C497 1.317 . S
N500 C496 1.328 . S
N500 C498 1.350 . S
H501 C496 0.930 . S
H502 C497 0.930 . S
C503 O504 1.224 . S
C503 O522 1.247 . S
O504 C503 1.224 . S
N505 Co495 2.128 . S
N505 C506 1.355 . S
N505 C508 1.311 . S
C506 N505 1.355 . S
C506 C507 1.363 . S
C506 H518 0.929 . S
C507 C506 1.363 . S
C507 N509 1.375 . S
C507 H525 0.931 . S
C508 N505 1.311 . S
C508 N509 1.347 . S
C508 H519 0.929 . S
N509 C507 1.375 . S
N509 C508 1.347 . S
C510 C513 1.365 . S
C510 N515 1.328 . S
C510 H516 0.929 . S
C511 C512 1.362 . S
C511 C514 1.378 . S
C511 H526 0.929 . S
C512 C511 1.362 . S
C512 C513 1.366 . S
C513 C510 1.365 . S
C513 C512 1.366 . S
C513 H527 0.930 . S
C514 C511 1.378 . S
C514 N515 1.315 . S
C514 H517 0.930 . S
N515 Co495 2.194 . S
N515 C510 1.328 . S
N515 C514 1.315 . S
H516 C510 0.929 . S
H517 C514 0.930 . S
H518 C506 0.929 . S
H519 C508 0.929 . S
O520 Co495 2.351 . S
O520 C523 1.244 . S
O521 Co495 2.155 . S
O521 C523 1.240 . S
O522 Co495 2.096 . S
O522 C503 1.247 . S
C523 O520 1.244 . S
C523 O521 1.240 . S
H524 C498 0.931 . S
H525 C507 0.931 . S
H526 C511 0.929 . S
H527 C513 0.930 . S
C107 C8 2.194 1_655 S
C74 C41 2.194 . S
C140 C239 2.194 1_655 S
C173 C206 2.194 . S
C272 C371 2.194 . S
C305 C338 2.194 1_655 S
C503 C404 2.194 . S
C470 C437 2.194 1_655 S
N14 N344 0.080 . S
N377 N47 0.080 . S
N278 N80 0.080 . S
N311 N113 0.080 . S
N476 N146 0.080 . S
N509 N179 0.080 . S
N410 N212 0.080 . S
N443 N245 0.080 . S
N5 N137 2.005 1_665 S
N38 N170 2.005 1_545 S
N203 N71 2.005 1_566 S
N104 N236 2.005 1_464 S
N269 N401 2.005 . S
N434 N302 2.005 1_655 S
N335 N467 2.005 1_654 S
N500 N368 2.005 1_556 S
C17 C50 1.523 1_545 S
C116 C83 1.523 1_545 S
C182 C149 1.523 1_545 S
C215 C248 1.523 1_545 S
C314 C281 1.523 . S
C380 C347 1.523 . S
C413 C446 1.523 . S
C512 C479 1.523 . S
C28 C325 1.479 1_455 S
C61 C292 1.479 . S
C94 C391 1.479 . S
C127 C358 1.479 1_655 S
C160 C457 1.479 1_655 S
C424 C193 1.479 . S
C226 C523 1.479 . S
C490 C259 1.479 1_655 S
