# Generated by pormake.
# Topology uks, (4)-cn, num edge types: 1
# Building blocks:
#     Node 0, Type 0, BuildingBlock: ESEHIV_clean_sbu_0, # of connection points: 4
#     Node 1, Type 0, BuildingBlock: ESEHIV_clean_sbu_0, # of connection points: 4
#     Node 2, Type 0, BuildingBlock: ESEHIV_clean_sbu_0, # of connection points: 4
#     Node 3, Type 0, BuildingBlock: ESEHIV_clean_sbu_0, # of connection points: 4
#     Node 4, Type 0, BuildingBlock: ESEHIV_clean_sbu_0, # of connection points: 4
#     Node 5, Type 0, BuildingBlock: ESEHIV_clean_sbu_0, # of connection points: 4
#     Node 6, Type 0, BuildingBlock: ESEHIV_clean_sbu_0, # of connection points: 4
#     Node 7, Type 0, BuildingBlock: ESEHIV_clean_sbu_0, # of connection points: 4
#     Node 8, Type 0, BuildingBlock: ESEHIV_clean_sbu_0, # of connection points: 4
#     Node 9, Type 0, BuildingBlock: ESEHIV_clean_sbu_0, # of connection points: 4
#     Node 10, Type 0, BuildingBlock: ESEHIV_clean_sbu_0, # of connection points: 4
#     Node 11, Type 0, BuildingBlock: ESEHIV_clean_sbu_0, # of connection points: 4
#     Node 12, Type 0, BuildingBlock: ESEHIV_clean_sbu_0, # of connection points: 4
#     Node 13, Type 0, BuildingBlock: ESEHIV_clean_sbu_0, # of connection points: 4
#     Node 14, Type 0, BuildingBlock: ESEHIV_clean_sbu_0, # of connection points: 4
#     Node 15, Type 0, BuildingBlock: ESEHIV_clean_sbu_0, # of connection points: 4
#     Node 16, Type 0, BuildingBlock: ESEHIV_clean_sbu_0, # of connection points: 4
#     Node 17, Type 0, BuildingBlock: ESEHIV_clean_sbu_0, # of connection points: 4
#     Node 18, Type 0, BuildingBlock: ESEHIV_clean_sbu_0, # of connection points: 4
#     Node 19, Type 0, BuildingBlock: ESEHIV_clean_sbu_0, # of connection points: 4
#     Node 20, Type 0, BuildingBlock: ESEHIV_clean_sbu_0, # of connection points: 4
#     Node 21, Type 0, BuildingBlock: ESEHIV_clean_sbu_0, # of connection points: 4
#     Node 22, Type 0, BuildingBlock: ESEHIV_clean_sbu_0, # of connection points: 4
#     Node 23, Type 0, BuildingBlock: ESEHIV_clean_sbu_0, # of connection points: 4
#     Edge 24, Type (0, 0), BuildingBlock: XUDNAN_clean_linker_2, # of connection points: 2
#     Edge 25, Type (0, 0), BuildingBlock: XUDNAN_clean_linker_2, # of connection points: 2
#     Edge 26, Type (0, 0), BuildingBlock: XUDNAN_clean_linker_2, # of connection points: 2
#     Edge 27, Type (0, 0), BuildingBlock: XUDNAN_clean_linker_2, # of connection points: 2
#     Edge 28, Type (0, 0), BuildingBlock: XUDNAN_clean_linker_2, # of connection points: 2
#     Edge 29, Type (0, 0), BuildingBlock: XUDNAN_clean_linker_2, # of connection points: 2
#     Edge 30, Type (0, 0), BuildingBlock: XUDNAN_clean_linker_2, # of connection points: 2
#     Edge 31, Type (0, 0), BuildingBlock: XUDNAN_clean_linker_2, # of connection points: 2
#     Edge 32, Type (0, 0), BuildingBlock: XUDNAN_clean_linker_2, # of connection points: 2
#     Edge 33, Type (0, 0), BuildingBlock: XUDNAN_clean_linker_2, # of connection points: 2
#     Edge 34, Type (0, 0), BuildingBlock: XUDNAN_clean_linker_2, # of connection points: 2
#     Edge 35, Type (0, 0), BuildingBlock: XUDNAN_clean_linker_2, # of connection points: 2
#     Edge 36, Type (0, 0), BuildingBlock: XUDNAN_clean_linker_2, # of connection points: 2
#     Edge 37, Type (0, 0), BuildingBlock: XUDNAN_clean_linker_2, # of connection points: 2
#     Edge 38, Type (0, 0), BuildingBlock: XUDNAN_clean_linker_2, # of connection points: 2
#     Edge 39, Type (0, 0), BuildingBlock: XUDNAN_clean_linker_2, # of connection points: 2
#     Edge 40, Type (0, 0), BuildingBlock: XUDNAN_clean_linker_2, # of connection points: 2
#     Edge 41, Type (0, 0), BuildingBlock: XUDNAN_clean_linker_2, # of connection points: 2
#     Edge 42, Type (0, 0), BuildingBlock: XUDNAN_clean_linker_2, # of connection points: 2
#     Edge 43, Type (0, 0), BuildingBlock: XUDNAN_clean_linker_2, # of connection points: 2
#     Edge 44, Type (0, 0), BuildingBlock: XUDNAN_clean_linker_2, # of connection points: 2
#     Edge 45, Type (0, 0), BuildingBlock: XUDNAN_clean_linker_2, # of connection points: 2
#     Edge 46, Type (0, 0), BuildingBlock: XUDNAN_clean_linker_2, # of connection points: 2
#     Edge 47, Type (0, 0), BuildingBlock: XUDNAN_clean_linker_2, # of connection points: 2
#     Edge 48, Type (0, 0), BuildingBlock: XUDNAN_clean_linker_2, # of connection points: 2
#     Edge 49, Type (0, 0), BuildingBlock: XUDNAN_clean_linker_2, # of connection points: 2
#     Edge 50, Type (0, 0), BuildingBlock: XUDNAN_clean_linker_2, # of connection points: 2
#     Edge 51, Type (0, 0), BuildingBlock: XUDNAN_clean_linker_2, # of connection points: 2
#     Edge 52, Type (0, 0), BuildingBlock: XUDNAN_clean_linker_2, # of connection points: 2
#     Edge 53, Type (0, 0), BuildingBlock: XUDNAN_clean_linker_2, # of connection points: 2
#     Edge 54, Type (0, 0), BuildingBlock: XUDNAN_clean_linker_2, # of connection points: 2
#     Edge 55, Type (0, 0), BuildingBlock: XUDNAN_clean_linker_2, # of connection points: 2
#     Edge 56, Type (0, 0), BuildingBlock: XUDNAN_clean_linker_2, # of connection points: 2
#     Edge 57, Type (0, 0), BuildingBlock: XUDNAN_clean_linker_2, # of connection points: 2
#     Edge 58, Type (0, 0), BuildingBlock: XUDNAN_clean_linker_2, # of connection points: 2
#     Edge 59, Type (0, 0), BuildingBlock: XUDNAN_clean_linker_2, # of connection points: 2
#     Edge 60, Type (0, 0), BuildingBlock: XUDNAN_clean_linker_2, # of connection points: 2
#     Edge 61, Type (0, 0), BuildingBlock: XUDNAN_clean_linker_2, # of connection points: 2
#     Edge 62, Type (0, 0), BuildingBlock: XUDNAN_clean_linker_2, # of connection points: 2
#     Edge 63, Type (0, 0), BuildingBlock: XUDNAN_clean_linker_2, # of connection points: 2
#     Edge 64, Type (0, 0), BuildingBlock: XUDNAN_clean_linker_2, # of connection points: 2
#     Edge 65, Type (0, 0), BuildingBlock: XUDNAN_clean_linker_2, # of connection points: 2
#     Edge 66, Type (0, 0), BuildingBlock: XUDNAN_clean_linker_2, # of connection points: 2
#     Edge 67, Type (0, 0), BuildingBlock: XUDNAN_clean_linker_2, # of connection points: 2
#     Edge 68, Type (0, 0), BuildingBlock: XUDNAN_clean_linker_2, # of connection points: 2
#     Edge 69, Type (0, 0), BuildingBlock: XUDNAN_clean_linker_2, # of connection points: 2
#     Edge 70, Type (0, 0), BuildingBlock: XUDNAN_clean_linker_2, # of connection points: 2
#     Edge 71, Type (0, 0), BuildingBlock: XUDNAN_clean_linker_2, # of connection points: 2
# Relax obj value: 0.050
# Max RMSD: 0.127
# Mean RMSD: 0.107
data_MOF--net-uks--node1-ESEHIV_clean_sbu_0--edge1-XUDNAN_clean_linker_2
_symmetry_space_group_name_H-M    P1
_symmetry_Int_Tables_number       1
_symmetry_cell_setting            triclinic
loop_
_symmetry_equiv_pos_as_xyz
'x, y, z'
_cell_length_a     52.286288
_cell_length_b     61.186624
_cell_length_c     60.937695
_cell_angle_alpha  89.976963
_cell_angle_beta   89.806959
_cell_angle_gamma 85.942245
loop_
_atom_site_label
_atom_site_type_symbol
_atom_site_fract_x
_atom_site_fract_y
_atom_site_fract_z
_atom_type_partial_charge
Cu0 Cu 0.12032 0.40558 0.72423 0.0
N1 N 0.11891 0.38318 0.74517 0.0
N2 N 0.11844 0.34878 0.7579 0.0
C3 C 0.11751 0.36189 0.74 0.0
C4 C 0.12062 0.36252 0.77506 0.0
C5 C 0.12099 0.38368 0.76716 0.0
O6 O 0.09921 0.39673 0.69992 0.0
C7 C 0.16879 0.41726 0.7331 0.0
O8 O 0.15607 0.42357 0.75088 0.0
H9 H 0.11666 0.35617 0.72325 0.0
H10 H 0.12319 0.39827 0.77676 0.0
N11 N 0.10668 0.43307 0.7342 0.0
N12 N 0.10072 0.46957 0.73657 0.0
C13 C 0.10971 0.45241 0.72418 0.0
C14 C 0.09505 0.43822 0.75345 0.0
C15 C 0.09157 0.46074 0.75503 0.0
C16 C 0.07567 0.39499 0.7048 0.0
O17 O 0.06787 0.4003 0.72474 0.0
H18 H 0.11968 0.45391 0.70871 0.0
H19 H 0.09029 0.4265 0.76582 0.0
O20 O 0.15669 0.4083 0.71775 0.0
H21 H 0.12197 0.35771 0.79213 0.0
H22 H 0.08354 0.46996 0.7689 0.0
Cu23 Cu 0.6568 0.64217 0.20659 0.0
N24 N 0.65545 0.66856 0.19112 0.0
N25 N 0.65106 0.70496 0.18738 0.0
C26 C 0.66154 0.688 0.19925 0.0
C27 C 0.63802 0.69589 0.17108 0.0
C28 C 0.64077 0.67343 0.17343 0.0
O29 O 0.62103 0.63784 0.21274 0.0
C30 C 0.68185 0.63289 0.24827 0.0
O31 O 0.66838 0.61561 0.24967 0.0
H32 H 0.67108 0.68975 0.21483 0.0
H33 H 0.63081 0.6616 0.16416 0.0
N34 N 0.67034 0.61893 0.18894 0.0
N35 N 0.68329 0.58517 0.17733 0.0
C36 C 0.67601 0.59783 0.19478 0.0
C37 C 0.67436 0.61959 0.16713 0.0
C38 C 0.68225 0.59884 0.15993 0.0
C39 C 0.60596 0.65354 0.2199 0.0
O40 O 0.61577 0.67093 0.22811 0.0
H41 H 0.67391 0.59172 0.2113 0.0
H42 H 0.67126 0.63408 0.15706 0.0
O43 O 0.67864 0.64574 0.23195 0.0
H44 H 0.62608 0.70488 0.15919 0.0
H45 H 0.68674 0.59414 0.14315 0.0
Cu46 Cu 0.40786 0.14558 0.72766 0.0
N47 N 0.40107 0.17582 0.7238 0.0
N48 N 0.39242 0.21069 0.73413 0.0
C49 C 0.39614 0.18965 0.74069 0.0
C50 C 0.39549 0.21013 0.71211 0.0
C51 C 0.40085 0.18855 0.70577 0.0
O52 O 0.44511 0.14028 0.72878 0.0
C53 C 0.36558 0.14455 0.75334 0.0
O54 O 0.35648 0.15285 0.73481 0.0
H55 H 0.39582 0.18429 0.7576 0.0
H56 H 0.40453 0.18265 0.68926 0.0
N57 N 0.39468 0.12856 0.70532 0.0
N58 N 0.38249 0.09852 0.68832 0.0
C59 C 0.3949 0.10653 0.70568 0.0
C60 C 0.38162 0.13482 0.68713 0.0
C61 C 0.37412 0.11634 0.6766 0.0
C62 C 0.45701 0.14237 0.71068 0.0
O63 O 0.44348 0.14645 0.69282 0.0
H64 H 0.40332 0.09668 0.7189 0.0
H65 H 0.37737 0.15162 0.6821 0.0
O66 O 0.38946 0.13876 0.75445 0.0
H67 H 0.3938 0.22421 0.70133 0.0
H68 H 0.36328 0.11613 0.66151 0.0
Cu69 Cu 0.88512 0.90066 0.22703 0.0
N70 N 0.89945 0.88215 0.24879 0.0
N71 N 0.91318 0.8494 0.26243 0.0
C72 C 0.90959 0.86182 0.24424 0.0
C73 C 0.90505 0.86258 0.27921 0.0
C74 C 0.8965 0.88277 0.27073 0.0
O75 O 0.90516 0.8924 0.20076 0.0
C76 C 0.83471 0.90346 0.24109 0.0
O77 O 0.84455 0.91696 0.25493 0.0
H78 H 0.91209 0.85568 0.22766 0.0
H79 H 0.88712 0.89629 0.27976 0.0
N80 N 0.88671 0.93071 0.23315 0.0
N81 N 0.87711 0.96689 0.23128 0.0
C82 C 0.87597 0.94741 0.22104 0.0
C83 C 0.89517 0.94003 0.25152 0.0
C84 C 0.88909 0.96233 0.25047 0.0
C85 C 0.9251 0.90248 0.19637 0.0
O86 O 0.92933 0.92021 0.20754 0.0
H87 H 0.8663 0.9452 0.20561 0.0
H88 H 0.90414 0.93115 0.26512 0.0
O89 O 0.84903 0.89432 0.22623 0.0
H90 H 0.90416 0.85771 0.29625 0.0
H91 H 0.89269 0.97424 0.26302 0.0
Cu92 Cu 0.1587 0.14548 0.83021 0.0
N93 N 0.14544 0.16128 0.80605 0.0
N94 N 0.13322 0.19038 0.78522 0.0
C95 C 0.14755 0.18283 0.80245 0.0
C96 C 0.12171 0.17272 0.77778 0.0
C97 C 0.12918 0.15489 0.79069 0.0
O98 O 0.13648 0.15548 0.85446 0.0
C99 C 0.21149 0.13992 0.84219 0.0
O100 O 0.20464 0.1233 0.85394 0.0
H101 H 0.15896 0.19279 0.81268 0.0
H102 H 0.12238 0.13864 0.78953 0.0
N103 N 0.15844 0.1151 0.82537 0.0
N104 N 0.16153 0.07878 0.83112 0.0
C105 C 0.15741 0.09888 0.84034 0.0
C106 C 0.16328 0.1049 0.80609 0.0
C107 C 0.16513 0.08259 0.80955 0.0
C108 C 0.11397 0.14876 0.85452 0.0
O109 O 0.10854 0.1336 0.84035 0.0
H110 H 0.15506 0.1018 0.85777 0.0
H111 H 0.16625 0.11317 0.7907 0.0
O112 O 0.19429 0.15236 0.83279 0.0
H113 H 0.10796 0.17275 0.76456 0.0
H114 H 0.16927 0.07014 0.79717 0.0
Cu115 Cu 0.89752 0.64359 0.31838 0.0
N116 N 0.90681 0.6604 0.29439 0.0
N117 N 0.91671 0.69048 0.27627 0.0
C118 C 0.91254 0.68145 0.29605 0.0
C119 C 0.91375 0.67434 0.26157 0.0
C120 C 0.90751 0.6558 0.2728 0.0
O121 O 0.92069 0.65125 0.34184 0.0
C122 C 0.84587 0.66175 0.31289 0.0
O123 O 0.85575 0.67513 0.29888 0.0
H124 H 0.91307 0.69009 0.31152 0.0
H125 H 0.90296 0.64038 0.26568 0.0
N126 N 0.90112 0.61332 0.31308 0.0
N127 N 0.89378 0.57793 0.31758 0.0
C128 C 0.88915 0.59863 0.32508 0.0
C129 C 0.91394 0.60159 0.29735 0.0
C130 C 0.90952 0.57973 0.30014 0.0
C131 C 0.9434 0.64214 0.34131 0.0
O132 O 0.94899 0.62675 0.32672 0.0
H133 H 0.87725 0.60321 0.33912 0.0
H134 H 0.92554 0.6084 0.28469 0.0
O135 O 0.86083 0.6492 0.32458 0.0
H136 H 0.91494 0.67605 0.24392 0.0
H137 H 0.91687 0.56634 0.28979 0.0
Cu138 Cu 0.38694 0.41485 0.80472 0.0
N139 N 0.37757 0.38721 0.81337 0.0
N140 N 0.3721 0.35131 0.81104 0.0
C141 C 0.38526 0.36809 0.80361 0.0
C142 C 0.35553 0.36038 0.8261 0.0
C143 C 0.35882 0.38248 0.82736 0.0
O144 O 0.42387 0.41245 0.79903 0.0
C145 C 0.34135 0.428 0.78463 0.0
O146 O 0.33511 0.43038 0.80543 0.0
H147 H 0.39962 0.36676 0.79077 0.0
H148 H 0.34734 0.39442 0.8369 0.0
N149 N 0.38069 0.43566 0.82721 0.0
N150 N 0.37328 0.46771 0.84468 0.0
C151 C 0.37811 0.45769 0.82517 0.0
C152 C 0.3777 0.43169 0.84876 0.0
C153 C 0.37306 0.45135 0.85953 0.0
C154 C 0.43743 0.4072 0.81585 0.0
O155 O 0.4256 0.40362 0.83442 0.0
H156 H 0.37914 0.46611 0.8096 0.0
H157 H 0.37892 0.41561 0.85619 0.0
O158 O 0.3646 0.42226 0.7797 0.0
H159 H 0.34103 0.35195 0.83474 0.0
H160 H 0.37001 0.45342 0.87701 0.0
Cu161 Cu 0.60333 0.89655 0.2893 0.0
N162 N 0.598 0.88054 0.26382 0.0
N163 N 0.60534 0.8528 0.24014 0.0
C164 C 0.61409 0.86353 0.25761 0.0
C165 C 0.5826 0.8635 0.23518 0.0
C166 C 0.5781 0.88064 0.24986 0.0
O167 O 0.58118 0.88575 0.31226 0.0
C168 C 0.65424 0.90144 0.28132 0.0
O169 O 0.64345 0.91512 0.26693 0.0
H170 H 0.63132 0.85845 0.26656 0.0
H171 H 0.56116 0.89181 0.25073 0.0
N172 N 0.59634 0.92692 0.286 0.0
N173 N 0.59929 0.96289 0.29171 0.0
C174 C 0.60651 0.94229 0.29844 0.0
C175 C 0.58209 0.93806 0.27083 0.0
C176 C 0.58378 0.96019 0.27434 0.0
C177 C 0.5574 0.89193 0.31116 0.0
O178 O 0.54964 0.90539 0.29536 0.0
H179 H 0.61969 0.93824 0.31171 0.0
H180 H 0.57145 0.93064 0.25797 0.0
O181 O 0.64008 0.89135 0.29441 0.0
H182 H 0.56991 0.85907 0.22218 0.0
H183 H 0.57429 0.97319 0.26471 0.0
Cu184 Cu 0.70837 0.13504 0.3922 0.0
N185 N 0.69341 0.159 0.37711 0.0
N186 N 0.69386 0.19448 0.36855 0.0
C187 C 0.69517 0.17944 0.38473 0.0
C188 C 0.69069 0.18308 0.34992 0.0
C189 C 0.69042 0.16115 0.35526 0.0
O190 O 0.70601 0.14269 0.4234 0.0
C191 C 0.74757 0.12319 0.36179 0.0
O192 O 0.72938 0.11245 0.35293 0.0
H193 H 0.70116 0.18281 0.40131 0.0
H194 H 0.69132 0.14765 0.34378 0.0
N195 N 0.69094 0.10952 0.38822 0.0
N196 N 0.66992 0.08191 0.37439 0.0
C197 C 0.67936 0.10162 0.37039 0.0
C198 C 0.68831 0.09456 0.40406 0.0
C199 C 0.67542 0.07762 0.39568 0.0
C200 C 0.72351 0.15051 0.43486 0.0
O201 O 0.74603 0.15289 0.42591 0.0
H202 H 0.67854 0.10988 0.35469 0.0
H203 H 0.69552 0.09583 0.42059 0.0
O204 O 0.7434 0.1323 0.38041 0.0
H205 H 0.69101 0.18982 0.3335 0.0
H206 H 0.67052 0.06328 0.40472 0.0
Cu207 Cu 0.89198 0.22081 0.89587 0.0
N208 N 0.88681 0.21052 0.86728 0.0
N209 N 0.89027 0.20985 0.83058 0.0
C210 C 0.89789 0.21892 0.84947 0.0
C211 C 0.87361 0.19511 0.83682 0.0
C212 C 0.87155 0.19552 0.85948 0.0
O213 O 0.92922 0.22203 0.89835 0.0
C214 C 0.84714 0.24613 0.89505 0.0
O215 O 0.83988 0.22623 0.89205 0.0
H216 H 0.91078 0.23197 0.85042 0.0
H217 H 0.85945 0.18588 0.86947 0.0
N218 N 0.88155 0.20228 0.9184 0.0
N219 N 0.87361 0.1912 0.95268 0.0
C220 C 0.87757 0.20841 0.93949 0.0
C221 C 0.87975 0.18043 0.91824 0.0
C222 C 0.87499 0.17354 0.93937 0.0
C223 C 0.94106 0.20333 0.89514 0.0
O224 O 0.92734 0.18657 0.89135 0.0
H225 H 0.87868 0.22507 0.9452 0.0
H226 H 0.88259 0.17009 0.90393 0.0
O227 O 0.87094 0.24847 0.89807 0.0
H228 H 0.86362 0.18476 0.82584 0.0
H229 H 0.87294 0.15684 0.94459 0.0
Cu230 Cu 0.80678 0.38427 0.3873 0.0
N231 N 0.80961 0.35498 0.37862 0.0
N232 N 0.79484 0.32178 0.37509 0.0
C233 C 0.79162 0.34161 0.3847 0.0
C234 C 0.8159 0.32272 0.3623 0.0
C235 C 0.82505 0.34332 0.36453 0.0
O236 O 0.80873 0.38348 0.41941 0.0
C237 C 0.77293 0.39218 0.3541 0.0
O238 O 0.79317 0.38323 0.34387 0.0
H239 H 0.77563 0.34691 0.39518 0.0
H240 H 0.8411 0.34955 0.35589 0.0
N241 N 0.83194 0.40146 0.3759 0.0
N242 N 0.84925 0.43209 0.36473 0.0
C243 C 0.82791 0.42307 0.372 0.0
C244 C 0.85671 0.3964 0.37083 0.0
C245 C 0.86744 0.41527 0.36389 0.0
C246 C 0.82865 0.37287 0.42707 0.0
O247 O 0.84625 0.36508 0.41315 0.0
H248 H 0.80949 0.43192 0.37452 0.0
H249 H 0.86641 0.38028 0.37242 0.0
O250 O 0.77408 0.39545 0.37475 0.0
H251 H 0.82389 0.30965 0.35184 0.0
H252 H 0.88725 0.41652 0.35918 0.0
Cu253 Cu 0.63351 0.33428 0.88203 0.0
N254 N 0.61854 0.31111 0.86807 0.0
N255 N 0.60558 0.29082 0.84012 0.0
C256 C 0.6228 0.30474 0.84711 0.0
C257 C 0.59025 0.28797 0.85763 0.0
C258 C 0.59823 0.30052 0.87477 0.0
O259 O 0.61741 0.36053 0.86841 0.0
C260 C 0.68769 0.3408 0.88659 0.0
O261 O 0.68079 0.35955 0.89614 0.0
H262 H 0.63776 0.3108 0.83699 0.0
H263 H 0.58895 0.30267 0.89057 0.0
N264 N 0.62419 0.33554 0.91183 0.0
N265 N 0.62519 0.33984 0.94839 0.0
C266 C 0.63919 0.3363 0.92979 0.0
C267 C 0.59999 0.33868 0.91932 0.0
C268 C 0.60051 0.34121 0.94175 0.0
C269 C 0.61644 0.36391 0.84779 0.0
O270 O 0.63248 0.35252 0.83485 0.0
H271 H 0.65991 0.33514 0.92913 0.0
H272 H 0.58312 0.33972 0.90904 0.0
O273 O 0.67057 0.32915 0.8789 0.0
H274 H 0.57352 0.27854 0.85776 0.0
H275 H 0.58391 0.34405 0.95229 0.0
Cu276 Cu 0.68968 0.38231 0.16124 0.0
N277 N 0.67326 0.38243 0.18862 0.0
N278 N 0.67044 0.3871 0.22498 0.0
C279 C 0.68151 0.39329 0.20618 0.0
C280 C 0.6545 0.37175 0.21911 0.0
C281 C 0.65609 0.36903 0.19661 0.0
O282 O 0.7059 0.41031 0.16045 0.0
C283 C 0.70124 0.33792 0.1579 0.0
O284 O 0.67612 0.33955 0.15653 0.0
H285 H 0.69698 0.40415 0.20545 0.0
H286 H 0.64661 0.35714 0.18705 0.0
N287 N 0.66718 0.38047 0.1374 0.0
N288 N 0.65429 0.37317 0.10326 0.0
C289 C 0.67451 0.37485 0.11681 0.0
C290 C 0.64141 0.3825 0.13698 0.0
C291 C 0.63341 0.37809 0.11595 0.0
C292 C 0.69389 0.42715 0.15196 0.0
O293 O 0.67275 0.42465 0.14098 0.0
H294 H 0.69438 0.37182 0.11204 0.0
H295 H 0.62931 0.3864 0.15108 0.0
O296 O 0.71279 0.3555 0.1602 0.0
H297 H 0.64349 0.36245 0.2304 0.0
H298 H 0.6137 0.37783 0.11065 0.0
Cu299 Cu 0.64387 0.21188 0.64266 0.0
N300 N 0.62451 0.23566 0.6553 0.0
N301 N 0.6079 0.25466 0.68407 0.0
C302 C 0.61395 0.23467 0.67544 0.0
C303 C 0.61455 0.26898 0.66856 0.0
C304 C 0.62473 0.25721 0.65079 0.0
O305 O 0.62847 0.18591 0.65364 0.0
C306 C 0.68983 0.23106 0.64234 0.0
O307 O 0.6777 0.24163 0.62628 0.0
H308 H 0.61307 0.21965 0.68458 0.0
H309 H 0.63355 0.26393 0.63645 0.0
N310 N 0.64242 0.21127 0.61183 0.0
N311 N 0.65366 0.20351 0.57695 0.0
C312 C 0.66087 0.20251 0.59826 0.0
C313 C 0.62279 0.21799 0.59869 0.0
C314 C 0.62964 0.21322 0.5772 0.0
C315 C 0.63029 0.17869 0.67321 0.0
O316 O 0.64749 0.18629 0.68633 0.0
H317 H 0.67907 0.19517 0.60401 0.0
H318 H 0.60468 0.22562 0.60438 0.0
O319 O 0.679 0.21556 0.65183 0.0
H320 H 0.61355 0.28661 0.67043 0.0
H321 H 0.6179 0.2168 0.56287 0.0
Cu322 Cu 0.83255 0.15718 0.16987 0.0
N323 N 0.84685 0.16119 0.19751 0.0
N324 N 0.84807 0.1591 0.2342 0.0
C325 C 0.83553 0.1541 0.21577 0.0
C326 C 0.86821 0.16995 0.2272 0.0
C327 C 0.86748 0.17114 0.20447 0.0
O328 O 0.82162 0.12726 0.17193 0.0
C329 C 0.80964 0.19952 0.16824 0.0
O330 O 0.83347 0.20387 0.17202 0.0
H331 H 0.81783 0.14594 0.21545 0.0
H332 H 0.88077 0.17892 0.19388 0.0
N333 N 0.85471 0.16069 0.14596 0.0
N334 N 0.86651 0.16825 0.11155 0.0
C335 C 0.84712 0.16887 0.12628 0.0
C336 C 0.87992 0.15495 0.14368 0.0
C337 C 0.8872 0.15942 0.12238 0.0
C338 C 0.83611 0.11058 0.16614 0.0
O339 O 0.85651 0.11345 0.15418 0.0
H340 H 0.82754 0.17466 0.12268 0.0
H341 H 0.89201 0.14761 0.15646 0.0
O342 O 0.80431 0.17953 0.16678 0.0
H343 H 0.88244 0.17656 0.23769 0.0
H344 H 0.90622 0.15651 0.11542 0.0
Cu345 Cu 0.89029 0.30194 0.63618 0.0
N346 N 0.89945 0.27428 0.64809 0.0
N347 N 0.90569 0.2511 0.67634 0.0
C348 C 0.91034 0.27089 0.66795 0.0
C349 C 0.8919 0.24145 0.66089 0.0
C350 C 0.88808 0.25577 0.64352 0.0
O351 O 0.91605 0.32196 0.6447 0.0
C352 C 0.84873 0.30338 0.66602 0.0
O353 O 0.86626 0.29984 0.68123 0.0
H354 H 0.91847 0.28376 0.67728 0.0
H355 H 0.87552 0.25379 0.6297 0.0
N356 N 0.88781 0.30111 0.60546 0.0
N357 N 0.87706 0.31093 0.57105 0.0
C358 C 0.87525 0.31626 0.59258 0.0
C359 C 0.89776 0.28558 0.59166 0.0
C360 C 0.89126 0.2916 0.57047 0.0
C361 C 0.93773 0.31923 0.63504 0.0
O362 O 0.94094 0.30374 0.62016 0.0
H363 H 0.86525 0.33103 0.59891 0.0
H364 H 0.90897 0.2709 0.59668 0.0
O365 O 0.85564 0.30894 0.64686 0.0
H366 H 0.8835 0.22588 0.66273 0.0
H367 H 0.89631 0.28228 0.5558 0.0
Cu368 Cu 0.37543 0.68016 0.17576 0.0
N369 N 0.37611 0.66492 0.20228 0.0
N370 N 0.37917 0.66284 0.2388 0.0
C371 C 0.36836 0.67384 0.22159 0.0
C372 C 0.39412 0.64621 0.23001 0.0
C373 C 0.39215 0.64751 0.20745 0.0
O374 O 0.41073 0.68701 0.17085 0.0
C375 C 0.34565 0.72033 0.16518 0.0
O376 O 0.36199 0.72296 0.14914 0.0
H377 H 0.35757 0.68955 0.22294 0.0
H378 H 0.40367 0.6379 0.19568 0.0
N379 N 0.36553 0.66303 0.15228 0.0
N380 N 0.35469 0.65445 0.11796 0.0
C381 C 0.36397 0.6697 0.13124 0.0
C382 C 0.35703 0.64279 0.15245 0.0
C383 C 0.35031 0.63745 0.13129 0.0
C384 C 0.42466 0.69321 0.18647 0.0
O385 O 0.4136 0.70044 0.20471 0.0
H386 H 0.36886 0.68575 0.12594 0.0
H387 H 0.35544 0.63279 0.16696 0.0
O388 O 0.34967 0.70449 0.17854 0.0
H389 H 0.40693 0.63494 0.23916 0.0
H390 H 0.34277 0.62224 0.12621 0.0
Cu391 Cu 0.40764 0.78199 0.42005 0.0
N392 N 0.41838 0.75657 0.40442 0.0
N393 N 0.41538 0.73112 0.37834 0.0
C394 C 0.405 0.74992 0.38714 0.0
C395 C 0.43653 0.72578 0.39039 0.0
C396 C 0.43828 0.74151 0.4066 0.0
O397 O 0.42209 0.80656 0.40523 0.0
C398 C 0.36154 0.76494 0.42609 0.0
O399 O 0.3775 0.75009 0.43523 0.0
H400 H 0.38788 0.75889 0.3811 0.0
H401 H 0.45291 0.7418 0.41905 0.0
N402 N 0.417 0.78187 0.44975 0.0
N403 N 0.4152 0.79059 0.48555 0.0
C404 C 0.40302 0.7919 0.46597 0.0
C405 C 0.43884 0.77389 0.4593 0.0
C406 C 0.43778 0.77918 0.48132 0.0
C407 C 0.4464 0.80586 0.40292 0.0
O408 O 0.46031 0.78914 0.41118 0.0
H409 H 0.38431 0.80015 0.46326 0.0
H410 H 0.45474 0.76537 0.45079 0.0
O411 O 0.37037 0.78245 0.41881 0.0
H412 H 0.44947 0.71138 0.38797 0.0
H413 H 0.45292 0.77546 0.49307 0.0
Cu414 Cu 0.25746 0.90477 0.8907 0.0
N415 N 0.28619 0.91166 0.87448 0.0
N416 N 0.3123 0.91211 0.84531 0.0
C417 C 0.28998 0.90566 0.85342 0.0
C418 C 0.32301 0.92262 0.8621 0.0
C419 C 0.30683 0.92233 0.88008 0.0
O420 O 0.22929 0.92399 0.87888 0.0
C421 C 0.2765 0.86209 0.89124 0.0
O422 O 0.29606 0.87257 0.89807 0.0
H423 H 0.2767 0.89628 0.84444 0.0
H424 H 0.30999 0.92926 0.89608 0.0
N425 N 0.26076 0.91042 0.92072 0.0
N426 N 0.25363 0.90757 0.95684 0.0
C427 C 0.25253 0.89775 0.93703 0.0
C428 C 0.26739 0.92888 0.9305 0.0
C429 C 0.26306 0.92717 0.95278 0.0
C430 C 0.21156 0.93331 0.89071 0.0
O431 O 0.20899 0.9269 0.91112 0.0
H432 H 0.24443 0.88221 0.9342 0.0
H433 H 0.27374 0.94301 0.92192 0.0
O434 O 0.25541 0.87312 0.8871 0.0
H435 H 0.34109 0.93016 0.86144 0.0
H436 H 0.26605 0.93961 0.96495 0.0
Cu437 Cu 0.12498 0.74747 0.40914 0.0
N438 N 0.11833 0.77242 0.39172 0.0
N439 N 0.12321 0.79453 0.36294 0.0
C440 C 0.12874 0.77448 0.37168 0.0
C441 C 0.10837 0.80549 0.37809 0.0
C442 C 0.10549 0.79182 0.39591 0.0
O443 O 0.10379 0.72452 0.39909 0.0
C444 C 0.17587 0.7555 0.41053 0.0
O445 O 0.16502 0.77475 0.41603 0.0
H446 H 0.14056 0.76146 0.36388 0.0
H447 H 0.09542 0.79596 0.41103 0.0
N448 N 0.11874 0.75177 0.43909 0.0
N449 N 0.12197 0.74455 0.47501 0.0
C450 C 0.13285 0.74159 0.45503 0.0
C451 C 0.0982 0.76165 0.44931 0.0
C452 C 0.10015 0.75721 0.4715 0.0
C453 C 0.07969 0.72898 0.39723 0.0
O454 O 0.07022 0.74898 0.40156 0.0
H455 H 0.14993 0.731 0.45181 0.0
H456 H 0.08233 0.77048 0.44112 0.0
O457 O 0.1616 0.73994 0.40644 0.0
H458 H 0.10091 0.82239 0.37678 0.0
H459 H 0.0862 0.76235 0.48396 0.0
Cu460 Cu 0.29086 0.65631 0.90005 0.0
N461 N 0.26207 0.65255 0.88279 0.0
N462 N 0.23974 0.64987 0.85176 0.0
C463 C 0.26322 0.65024 0.86084 0.0
C464 C 0.22315 0.65197 0.86882 0.0
C465 C 0.23698 0.65369 0.88792 0.0
O466 O 0.31656 0.63377 0.89011 0.0
C467 C 0.28231 0.70141 0.89948 0.0
O468 O 0.26044 0.69583 0.9077 0.0
H469 H 0.281 0.64994 0.85167 0.0
H470 H 0.22917 0.65648 0.9042 0.0
N471 N 0.28516 0.65259 0.93022 0.0
N472 N 0.29274 0.65264 0.96644 0.0
C473 C 0.30108 0.65824 0.94628 0.0
C474 C 0.26608 0.64301 0.94049 0.0
C475 C 0.27064 0.64307 0.96277 0.0
C476 C 0.31114 0.61415 0.89403 0.0
O477 O 0.29013 0.61102 0.90513 0.0
H478 H 0.3188 0.66578 0.94305 0.0
H479 H 0.25027 0.63595 0.93239 0.0
O480 O 0.2997 0.68634 0.89507 0.0
H481 H 0.20247 0.65267 0.86763 0.0
H482 H 0.25854 0.6365 0.97523 0.0
Cu483 Cu 0.14965 0.85135 0.15381 0.0
N484 N 0.15208 0.86156 0.18258 0.0
N485 N 0.15293 0.85871 0.21918 0.0
C486 C 0.15825 0.84855 0.19987 0.0
C487 C 0.1431 0.87899 0.21385 0.0
C488 C 0.1426 0.88071 0.19124 0.0
O489 O 0.11316 0.84811 0.14898 0.0
C490 C 0.19522 0.82516 0.15134 0.0
O491 O 0.20438 0.84455 0.14983 0.0
H492 H 0.1646 0.83139 0.19829 0.0
H493 H 0.13441 0.89446 0.18186 0.0
N494 N 0.16231 0.87051 0.13299 0.0
N495 N 0.18004 0.88155 0.10169 0.0
C496 C 0.16893 0.86515 0.11219 0.0
C497 C 0.16929 0.89106 0.13582 0.0
C498 C 0.18013 0.89793 0.11655 0.0
C499 C 0.09879 0.86562 0.14631 0.0
O500 O 0.10959 0.88429 0.14458 0.0
H501 H 0.16615 0.84927 0.10516 0.0
H502 H 0.16747 0.90012 0.15104 0.0
O503 O 0.17101 0.82389 0.15268 0.0
H504 H 0.13588 0.89137 0.22543 0.0
H505 H 0.1884 0.91346 0.11406 0.0
Cu506 Cu 0.1487 0.67131 0.66325 0.0
N507 N 0.13682 0.7005 0.66828 0.0
N508 N 0.14289 0.7362 0.67161 0.0
C509 C 0.15262 0.71552 0.67519 0.0
C510 C 0.11992 0.73422 0.66209 0.0
C511 C 0.11617 0.71213 0.66011 0.0
O512 O 0.15901 0.67108 0.63231 0.0
C513 C 0.16773 0.66777 0.70424 0.0
O514 O 0.14344 0.67418 0.70721 0.0
H515 H 0.17201 0.71134 0.68071 0.0
H516 H 0.10049 0.70516 0.65171 0.0
N517 N 0.12492 0.65028 0.66917 0.0
N518 N 0.11115 0.6188 0.68181 0.0
C519 C 0.13146 0.63087 0.67886 0.0
C520 C 0.09935 0.65056 0.66616 0.0
C521 C 0.09085 0.63101 0.67377 0.0
C522 C 0.14062 0.67334 0.61859 0.0
O523 O 0.11717 0.67194 0.62587 0.0
H524 H 0.15078 0.62578 0.68397 0.0
H525 H 0.0876 0.66415 0.65937 0.0
O526 O 0.17597 0.66519 0.68461 0.0
H527 H 0.10741 0.74769 0.65595 0.0
H528 H 0.07121 0.62648 0.67419 0.0
Cu529 Cu 0.31336 0.89062 0.64821 0.0
N530 N 0.28033 0.8811 0.64476 0.0
N531 N 0.24732 0.86014 0.64969 0.0
C532 C 0.27171 0.86366 0.65521 0.0
C533 C 0.24037 0.87604 0.63507 0.0
C534 C 0.26073 0.88898 0.63211 0.0
O535 O 0.33686 0.87298 0.62916 0.0
C536 C 0.34287 0.88778 0.68817 0.0
O537 O 0.36316 0.89017 0.67585 0.0
H538 H 0.28339 0.85355 0.66642 0.0
H539 H 0.26115 0.90307 0.62146 0.0
N540 N 0.31498 0.92064 0.64213 0.0
N541 N 0.32613 0.95522 0.64566 0.0
C542 C 0.32725 0.93488 0.65447 0.0
C543 C 0.30567 0.9324 0.62488 0.0
C544 C 0.31242 0.95373 0.62706 0.0
C545 C 0.3324 0.87241 0.60861 0.0
O546 O 0.3124 0.88411 0.60086 0.0
H547 H 0.33682 0.93041 0.66967 0.0
H548 H 0.29513 0.92592 0.61143 0.0
O549 O 0.3211 0.88663 0.67916 0.0
H550 H 0.22181 0.87835 0.62726 0.0
H551 H 0.30821 0.9669 0.61549 0.0
H552 H 0.14348 0.22814 0.80686 0.0
H553 H 0.11475 0.20389 0.74531 0.0
H554 H 0.10707 0.24178 0.73216 0.0
H555 H 0.09992 0.2757 0.81132 0.0
H556 H 0.1234 0.29293 0.82221 0.0
H557 H 0.12654 0.26383 0.82706 0.0
H558 H 0.17217 0.26167 0.81014 0.0
H559 H 0.16924 0.29079 0.80536 0.0
H560 H 0.17679 0.27225 0.78291 0.0
H561 H 0.10174 0.28239 0.72575 0.0
H562 H 0.10082 0.32261 0.72592 0.0
H563 H 0.13507 0.32069 0.79083 0.0
C564 C 0.13582 0.23064 0.79053 0.0
C565 C 0.12959 0.21273 0.77726 0.0
C566 C 0.11931 0.2171 0.75606 0.0
C567 C 0.11498 0.23866 0.74834 0.0
C568 C 0.12113 0.25582 0.7619 0.0
C569 C 0.13149 0.25207 0.78249 0.0
C570 C 0.13664 0.27348 0.79368 0.0
C571 C 0.12067 0.27667 0.81482 0.0
C572 C 0.16542 0.27461 0.79829 0.0
C573 C 0.12753 0.28983 0.77615 0.0
C574 C 0.11857 0.27927 0.75801 0.0
C575 C 0.10893 0.29083 0.7398 0.0
C576 C 0.10864 0.31378 0.74003 0.0
C577 C 0.11811 0.3251 0.75828 0.0
C578 C 0.12753 0.31277 0.77663 0.0
H579 H 0.71477 0.66582 0.24832 0.0
H580 H 0.69639 0.60759 0.2841 0.0
H581 H 0.73368 0.61159 0.30827 0.0
H582 H 0.78033 0.65433 0.24716 0.0
H583 H 0.78849 0.68229 0.25029 0.0
H584 H 0.75846 0.67658 0.23806 0.0
H585 H 0.73416 0.70131 0.26694 0.0
H586 H 0.76421 0.70709 0.27932 0.0
H587 H 0.73945 0.69606 0.29574 0.0
H588 H 0.77603 0.61968 0.32578 0.0
H589 H 0.81965 0.6304 0.33414 0.0
H590 H 0.80977 0.68341 0.2869 0.0
C591 C 0.71819 0.65414 0.26153 0.0
C592 C 0.70251 0.63642 0.26433 0.0
C593 C 0.70799 0.62137 0.28166 0.0
C594 C 0.72912 0.62355 0.29553 0.0
C595 C 0.7445 0.64096 0.29199 0.0
C596 C 0.73916 0.65606 0.27546 0.0
C597 C 0.75972 0.67222 0.27381 0.0
C598 C 0.7725 0.67128 0.25098 0.0
C599 C 0.74872 0.69555 0.27928 0.0
C600 C 0.778 0.66342 0.29145 0.0
C601 C 0.76875 0.64559 0.30202 0.0
C602 C 0.78323 0.63384 0.31785 0.0
C603 C 0.80801 0.64009 0.32254 0.0
C604 C 0.81818 0.65785 0.3113 0.0
C605 C 0.80255 0.66995 0.29602 0.0
H606 H 0.3909 0.33571 0.77156 0.0
H607 H 0.35672 0.31569 0.83277 0.0
H608 H 0.35724 0.27781 0.81911 0.0
H609 H 0.35773 0.30083 0.73607 0.0
H610 H 0.38484 0.29452 0.71825 0.0
H611 H 0.38179 0.32027 0.73267 0.0
H612 H 0.42671 0.31205 0.74981 0.0
H613 H 0.42999 0.28635 0.73531 0.0
H614 H 0.43348 0.28685 0.76472 0.0
H615 H 0.36069 0.24228 0.79879 0.0
H616 H 0.36872 0.21094 0.77385 0.0
H617 H 0.40244 0.2533 0.72622 0.0
C618 C 0.38377 0.3234 0.78225 0.0
C619 C 0.37359 0.3289 0.80329 0.0
C620 C 0.36421 0.31212 0.81651 0.0
C621 C 0.36453 0.29047 0.80892 0.0
C622 C 0.37441 0.28573 0.78808 0.0
C623 C 0.38404 0.30164 0.77497 0.0
C624 C 0.39378 0.29205 0.75328 0.0
C625 C 0.37862 0.30255 0.73392 0.0
C626 C 0.42271 0.29447 0.75064 0.0
C627 C 0.38812 0.26826 0.75628 0.0
C628 C 0.37686 0.26504 0.77646 0.0
C629 C 0.36972 0.24455 0.78303 0.0
C630 C 0.37453 0.22679 0.76875 0.0
C631 C 0.38654 0.22948 0.7481 0.0
C632 C 0.39314 0.25064 0.74178 0.0
H633 H 0.69071 0.93047 0.27926 0.0
H634 H 0.67984 0.86099 0.27773 0.0
H635 H 0.72512 0.85346 0.2659 0.0
H636 H 0.72923 0.93297 0.233 0.0
H637 H 0.75012 0.95244 0.24396 0.0
H638 H 0.71767 0.95215 0.25384 0.0
H639 H 0.73378 0.94698 0.29381 0.0
H640 H 0.76628 0.9479 0.28415 0.0
H641 H 0.75722 0.92485 0.30011 0.0
H642 H 0.77065 0.85455 0.24986 0.0
H643 H 0.81429 0.86338 0.23801 0.0
H644 H 0.79502 0.93188 0.25259 0.0
C645 C 0.69815 0.91363 0.27706 0.0
C646 C 0.68208 0.89626 0.27963 0.0
C647 C 0.69214 0.87444 0.27628 0.0
C648 C 0.7177 0.87008 0.26931 0.0
C649 C 0.73288 0.88772 0.26618 0.0
C650 C 0.72361 0.90901 0.27059 0.0
C651 C 0.74358 0.92514 0.26609 0.0
C652 C 0.7346 0.94164 0.24816 0.0
C653 C 0.75064 0.9369 0.2873 0.0
C654 C 0.76547 0.90973 0.25805 0.0
C655 C 0.75896 0.88823 0.25789 0.0
C656 C 0.77602 0.8713 0.25021 0.0
C657 C 0.80061 0.87646 0.24327 0.0
C658 C 0.80786 0.89828 0.24439 0.0
C659 C 0.78992 0.91505 0.25162 0.0
H660 H 0.81997 0.12589 0.24778 0.0
H661 H 0.85779 0.1822 0.27121 0.0
H662 H 0.84042 0.17637 0.30845 0.0
H663 H 0.76291 0.13707 0.27632 0.0
H664 H 0.75752 0.10881 0.28182 0.0
H665 H 0.77578 0.1158 0.2581 0.0
H666 H 0.81372 0.08947 0.27103 0.0
H667 H 0.7956 0.08242 0.2949 0.0
H668 H 0.82685 0.09269 0.29806 0.0
H669 H 0.81457 0.16649 0.34242 0.0
H670 H 0.78269 0.15405 0.36898 0.0
H671 H 0.76206 0.10454 0.3226 0.0
C672 C 0.82483 0.13694 0.26073 0.0
C673 C 0.84023 0.15458 0.25646 0.0
C674 C 0.8463 0.16844 0.27405 0.0
C675 C 0.83644 0.16527 0.29528 0.0
C676 C 0.82077 0.14802 0.29873 0.0
C677 C 0.81518 0.13403 0.28189 0.0
C678 C 0.79648 0.11769 0.28924 0.0
C679 C 0.77171 0.12 0.27556 0.0
C680 C 0.80891 0.09418 0.28825 0.0
C681 C 0.79173 0.12504 0.31271 0.0
C682 C 0.80611 0.14237 0.31806 0.0
C683 C 0.80355 0.15271 0.33847 0.0
C684 C 0.78545 0.14547 0.35352 0.0
C685 C 0.76996 0.1282 0.348 0.0
C686 C 0.77374 0.11762 0.3275 0.0
H687 H 0.87266 0.22965 0.70187 0.0
H688 H 0.9462 0.25817 0.70219 0.0
H689 H 0.95115 0.24909 0.74163 0.0
H690 H 0.85234 0.24976 0.75408 0.0
H691 H 0.83605 0.22585 0.76159 0.0
H692 H 0.83922 0.23309 0.73311 0.0
H693 H 0.86098 0.19459 0.72492 0.0
H694 H 0.85784 0.1872 0.75338 0.0
H695 H 0.8889 0.18488 0.74032 0.0
H696 H 0.94736 0.23799 0.78123 0.0
H697 H 0.93493 0.22653 0.81831 0.0
H698 H 0.86308 0.20607 0.79262 0.0
C699 C 0.89007 0.23351 0.71012 0.0
C700 C 0.90929 0.24434 0.69889 0.0
C701 C 0.93137 0.2498 0.71048 0.0
C702 C 0.93434 0.24466 0.73284 0.0
C703 C 0.91494 0.23417 0.74346 0.0
C704 C 0.89321 0.22869 0.7325 0.0
C705 C 0.87458 0.21857 0.74802 0.0
C706 C 0.84904 0.23266 0.74927 0.0
C707 C 0.87033 0.1949 0.74125 0.0
C708 C 0.88922 0.21922 0.76945 0.0
C709 C 0.91249 0.2282 0.7664 0.0
C710 C 0.92918 0.23094 0.7838 0.0
C711 C 0.92185 0.22449 0.80487 0.0
C712 C 0.89795 0.21546 0.80855 0.0
C713 C 0.88158 0.21265 0.79043 0.0
H714 H 0.7462 0.36186 0.33424 0.0
H715 H 0.74878 0.43177 0.34337 0.0
H716 H 0.71729 0.43838 0.31327 0.0
H717 H 0.74637 0.36166 0.27912 0.0
H718 H 0.72467 0.3404 0.27512 0.0
H719 H 0.74297 0.34112 0.29996 0.0
H720 H 0.70139 0.34211 0.32319 0.0
H721 H 0.68282 0.341 0.29839 0.0
H722 H 0.67592 0.36283 0.31785 0.0
H723 H 0.6934 0.43692 0.2773 0.0
H724 H 0.67501 0.42761 0.24128 0.0
H725 H 0.68565 0.35867 0.25704 0.0
C726 C 0.73908 0.37852 0.33056 0.0
C727 C 0.74924 0.39635 0.34136 0.0
C728 C 0.74051 0.41797 0.33567 0.0
C729 C 0.7228 0.42181 0.3185 0.0
C730 C 0.71382 0.40381 0.30754 0.0
C731 C 0.7212 0.38256 0.31375 0.0
C732 C 0.71069 0.36606 0.29822 0.0
C733 C 0.73247 0.35147 0.28748 0.0
C734 C 0.69156 0.35219 0.31013 0.0
C735 C 0.69726 0.38129 0.28166 0.0
C736 C 0.6992 0.40302 0.28731 0.0
C737 C 0.69101 0.42 0.27312 0.0
C738 C 0.6807 0.41462 0.2527 0.0
C739 C 0.67835 0.39251 0.24678 0.0
C740 C 0.68639 0.37571 0.26161 0.0
H741 H 0.62265 0.28796 0.70992 0.0
H742 H 0.5788 0.2304 0.70994 0.0
H743 H 0.57243 0.23404 0.74997 0.0
H744 H 0.65539 0.27658 0.75903 0.0
H745 H 0.65462 0.30451 0.76854 0.0
H746 H 0.65377 0.29884 0.73957 0.0
H747 H 0.61161 0.32344 0.73584 0.0
H748 H 0.6125 0.32945 0.76477 0.0
H749 H 0.58458 0.31833 0.75308 0.0
H750 H 0.57384 0.24207 0.79032 0.0
H751 H 0.58081 0.25514 0.82793 0.0
H752 H 0.62287 0.30812 0.80178 0.0
C753 C 0.6111 0.27651 0.71824 0.0
C754 C 0.60115 0.2589 0.70676 0.0
C755 C 0.58668 0.24393 0.71841 0.0
C756 C 0.58293 0.24589 0.74114 0.0
C757 C 0.59365 0.26301 0.75207 0.0
C758 C 0.60718 0.27822 0.741 0.0
C759 C 0.61763 0.29449 0.75685 0.0
C760 C 0.6471 0.29354 0.75594 0.0
C761 C 0.60587 0.31781 0.75237 0.0
C762 C 0.60824 0.28579 0.77853 0.0
C763 C 0.59438 0.26768 0.77538 0.0
C764 C 0.58438 0.25643 0.79296 0.0
C765 C 0.58841 0.26403 0.81432 0.0
C766 C 0.60233 0.28274 0.81804 0.0
C767 C 0.61237 0.29366 0.79974 0.0
H768 H 0.33257 0.75968 0.14463 0.0
H769 H 0.30227 0.71086 0.18737 0.0
H770 H 0.25983 0.73114 0.18667 0.0
H771 H 0.29747 0.80614 0.16975 0.0
H772 H 0.29246 0.82067 0.14421 0.0
H773 H 0.32028 0.80191 0.14764 0.0
H774 H 0.30758 0.7808 0.11292 0.0
H775 H 0.27955 0.79935 0.10955 0.0
H776 H 0.27628 0.77029 0.11146 0.0
H777 H 0.21998 0.75616 0.18028 0.0
H778 H 0.18747 0.78662 0.17257 0.0
H779 H 0.24423 0.81999 0.13578 0.0
C780 C 0.31703 0.7533 0.1539 0.0
C781 C 0.3208 0.73363 0.16601 0.0
C782 C 0.29996 0.72593 0.17804 0.0
C783 C 0.27568 0.73725 0.17762 0.0
C784 C 0.27252 0.75642 0.1653 0.0
C785 C 0.29271 0.76458 0.15395 0.0
C786 C 0.28444 0.78603 0.14275 0.0
C787 C 0.29956 0.8048 0.15163 0.0
C788 C 0.28713 0.78398 0.11768 0.0
C789 C 0.25651 0.78866 0.14964 0.0
C790 C 0.24987 0.77123 0.16234 0.0
C791 C 0.225 0.76994 0.17042 0.0
C792 C 0.20661 0.78721 0.16584 0.0
C793 C 0.21336 0.80563 0.15362 0.0
C794 C 0.23856 0.80613 0.14523 0.0
H795 H 0.31859 0.79329 0.42005 0.0
H796 H 0.34421 0.72432 0.42307 0.0
H797 H 0.29999 0.71435 0.417 0.0
H798 H 0.26051 0.78811 0.44969 0.0
H799 H 0.2419 0.80832 0.4338 0.0
H800 H 0.27593 0.81017 0.43666 0.0
H801 H 0.28094 0.81037 0.39433 0.0
H802 H 0.24689 0.80847 0.39135 0.0
H803 H 0.26898 0.78845 0.37843 0.0
H804 H 0.25284 0.7116 0.41153 0.0
H805 H 0.20553 0.7166 0.40932 0.0
H806 H 0.21019 0.78714 0.41121 0.0
C807 C 0.31486 0.77613 0.4192 0.0
C808 C 0.33482 0.7596 0.42203 0.0
C809 C 0.32918 0.73729 0.42111 0.0
C810 C 0.30414 0.73142 0.41752 0.0
C811 C 0.28482 0.74804 0.41502 0.0
C812 C 0.2898 0.76994 0.41595 0.0
C813 C 0.26524 0.7845 0.41405 0.0
C814 C 0.26063 0.7986 0.43479 0.0
C815 C 0.26554 0.79879 0.3933 0.0
C816 C 0.24579 0.76736 0.41217 0.0
C817 C 0.25749 0.74643 0.41247 0.0
C818 C 0.24342 0.72792 0.41123 0.0
C819 C 0.21658 0.7309 0.40993 0.0
C820 C 0.20417 0.75221 0.41016 0.0
C821 C 0.21909 0.77061 0.41107 0.0
H822 H 0.24206 0.83033 0.89792 0.0
H823 H 0.32009 0.8398 0.87766 0.0
H824 H 0.32947 0.79982 0.87561 0.0
H825 H 0.25818 0.78564 0.93299 0.0
H826 H 0.23054 0.77079 0.92674 0.0
H827 H 0.22878 0.80017 0.92425 0.0
H828 H 0.21445 0.79723 0.88376 0.0
H829 H 0.21598 0.76781 0.88619 0.0
H830 H 0.23386 0.78045 0.86489 0.0
H831 H 0.33152 0.75888 0.87798 0.0
H832 H 0.32576 0.71966 0.88468 0.0
H833 H 0.24696 0.73639 0.90453 0.0
C834 C 0.26087 0.82392 0.89254 0.0
C835 C 0.28029 0.83814 0.88776 0.0
C836 C 0.30493 0.82918 0.88136 0.0
C837 C 0.31045 0.80648 0.8801 0.0
C838 C 0.29118 0.79284 0.88544 0.0
C839 C 0.26686 0.80115 0.8915 0.0
C840 C 0.25026 0.78278 0.89782 0.0
C841 C 0.24143 0.78498 0.92188 0.0
C842 C 0.22728 0.78203 0.88223 0.0
C843 C 0.26914 0.763 0.89463 0.0
C844 C 0.29256 0.76915 0.88729 0.0
C845 C 0.31319 0.75383 0.8836 0.0
C846 C 0.30978 0.73158 0.88749 0.0
C847 C 0.28597 0.72488 0.89515 0.0
C848 C 0.26544 0.74091 0.89867 0.0
H849 H 0.14445 0.77005 0.64273 0.0
H850 H 0.17376 0.74551 0.70511 0.0
H851 H 0.2018 0.77633 0.7074 0.0
H852 H 0.20354 0.78499 0.62219 0.0
H853 H 0.19091 0.8093 0.60809 0.0
H854 H 0.17092 0.78692 0.61249 0.0
H855 H 0.13706 0.81308 0.63208 0.0
H856 H 0.15689 0.83561 0.62762 0.0
H857 H 0.14655 0.82925 0.65499 0.0
H858 H 0.22866 0.80812 0.70176 0.0
H859 H 0.25283 0.83869 0.68863 0.0
H860 H 0.20736 0.84222 0.62909 0.0
C861 C 0.15625 0.77159 0.65713 0.0
C862 C 0.15675 0.7556 0.67393 0.0
C863 C 0.17306 0.75768 0.69218 0.0
C864 C 0.18898 0.77513 0.69362 0.0
C865 C 0.18848 0.79036 0.67658 0.0
C866 C 0.17252 0.78882 0.65869 0.0
C867 C 0.17711 0.80647 0.6419 0.0
C868 C 0.18616 0.79631 0.61987 0.0
C869 C 0.15296 0.82203 0.63898 0.0
C870 C 0.19837 0.81796 0.65302 0.0
C871 C 0.20445 0.80848 0.67308 0.0
C872 C 0.22399 0.81572 0.68611 0.0
C873 C 0.23779 0.83302 0.6784 0.0
C874 C 0.23218 0.84291 0.65775 0.0
C875 C 0.21198 0.83529 0.64505 0.0
H876 H 0.89826 0.81961 0.29248 0.0
H877 H 0.94307 0.82603 0.23306 0.0
H878 H 0.9506 0.78582 0.23107 0.0
H879 H 0.93751 0.77222 0.31517 0.0
H880 H 0.9099 0.7599 0.32616 0.0
H881 H 0.90979 0.78927 0.32385 0.0
H882 H 0.86805 0.78985 0.30097 0.0
H883 H 0.86814 0.7605 0.30306 0.0
H884 H 0.86737 0.77341 0.27646 0.0
H885 H 0.95014 0.74475 0.23376 0.0
H886 H 0.9435 0.70598 0.24209 0.0
H887 H 0.89975 0.72633 0.30006 0.0
C888 C 0.91019 0.81264 0.27936 0.0
C889 C 0.92001 0.82609 0.26288 0.0
C890 C 0.93509 0.81613 0.24574 0.0
C891 C 0.93959 0.79328 0.24452 0.0
C892 C 0.92907 0.78051 0.26069 0.0
C893 C 0.91492 0.78982 0.27792 0.0
C894 C 0.90486 0.77235 0.29264 0.0
C895 C 0.9162 0.77351 0.31583 0.0
C896 C 0.87536 0.77414 0.29331 0.0
C897 C 0.91513 0.75179 0.28075 0.0
C898 C 0.92911 0.75684 0.26239 0.0
C899 C 0.93947 0.7406 0.24824 0.0
C900 C 0.93547 0.71863 0.25301 0.0
C901 C 0.92128 0.71306 0.27179 0.0
C902 C 0.91113 0.72996 0.28583 0.0
H903 H 0.19496 0.44439 0.75824 0.0
H904 H 0.20597 0.39572 0.70679 0.0
H905 H 0.25318 0.39726 0.71026 0.0
H906 H 0.25116 0.47606 0.74492 0.0
H907 H 0.2572 0.48072 0.77359 0.0
H908 H 0.22488 0.47823 0.76421 0.0
H909 H 0.2196 0.44697 0.79227 0.0
H910 H 0.25177 0.44938 0.8017 0.0
H911 H 0.24224 0.42333 0.79203 0.0
H912 H 0.29969 0.40089 0.72358 0.0
H913 H 0.33892 0.40531 0.74556 0.0
H914 H 0.29577 0.45148 0.7878 0.0
C915 C 0.20721 0.43437 0.7473 0.0
C916 C 0.19678 0.41994 0.73223 0.0
C917 C 0.21354 0.40705 0.71832 0.0
C918 C 0.24038 0.40784 0.72021 0.0
C919 C 0.25003 0.42184 0.73583 0.0
C920 C 0.23376 0.43502 0.74895 0.0
C921 C 0.24831 0.44716 0.76588 0.0
C922 C 0.2452 0.47202 0.7619 0.0
C923 C 0.23999 0.44134 0.78934 0.0
C924 C 0.27536 0.43814 0.76099 0.0
C925 C 0.27624 0.42386 0.74337 0.0
C926 C 0.29919 0.41236 0.73712 0.0
C927 C 0.32144 0.41505 0.7496 0.0
C928 C 0.3204 0.42887 0.76827 0.0
C929 C 0.29722 0.44098 0.77347 0.0
H930 H 0.58179 0.82068 0.21842 0.0
H931 H 0.65603 0.83972 0.24012 0.0
H932 H 0.67608 0.80438 0.22736 0.0
H933 H 0.59016 0.76523 0.23385 0.0
H934 H 0.57409 0.75475 0.21038 0.0
H935 H 0.56557 0.78211 0.22002 0.0
H936 H 0.57489 0.79761 0.18145 0.0
H937 H 0.58334 0.77024 0.17167 0.0
H938 H 0.60574 0.79115 0.16883 0.0
H939 H 0.68757 0.76573 0.21552 0.0
H940 H 0.68994 0.72715 0.20285 0.0
H941 H 0.60912 0.73375 0.18683 0.0
C942 C 0.60233 0.81764 0.22007 0.0
C943 C 0.61723 0.83301 0.23051 0.0
C944 C 0.64406 0.82813 0.23259 0.0
C945 C 0.6557 0.80813 0.22525 0.0
C946 C 0.64039 0.79316 0.21556 0.0
C947 C 0.61434 0.79773 0.21269 0.0
C948 C 0.6022 0.77847 0.20229 0.0
C949 C 0.58181 0.76962 0.21755 0.0
C950 C 0.59087 0.78475 0.17971 0.0
C951 C 0.62542 0.7623 0.20011 0.0
C952 C 0.64724 0.77108 0.20793 0.0
C953 C 0.67072 0.75879 0.20898 0.0
C954 C 0.67191 0.73694 0.20185 0.0
C955 C 0.64987 0.7277 0.19354 0.0
C956 C 0.6264 0.74064 0.19255 0.0
H957 H 0.32014 0.16797 0.75893 0.0
H958 H 0.37093 0.11843 0.79036 0.0
H959 H 0.33855 0.11485 0.81986 0.0
H960 H 0.293 0.1933 0.8097 0.0
H961 H 0.26177 0.19817 0.79747 0.0
H962 H 0.29016 0.19832 0.78063 0.0
H963 H 0.27266 0.1687 0.75543 0.0
H964 H 0.24431 0.16847 0.77214 0.0
H965 H 0.26366 0.14336 0.76733 0.0
H966 H 0.2978 0.11385 0.84325 0.0
H967 H 0.25365 0.1156 0.85818 0.0
H968 H 0.23101 0.16679 0.81141 0.0
C969 C 0.32469 0.15654 0.77216 0.0
C970 C 0.34799 0.14336 0.77232 0.0
C971 C 0.35322 0.12872 0.78999 0.0
C972 C 0.33494 0.12662 0.80678 0.0
C973 C 0.31185 0.1396 0.80581 0.0
C974 C 0.30691 0.15445 0.78901 0.0
C975 C 0.28024 0.16562 0.79075 0.0
C976 C 0.28137 0.19032 0.79489 0.0
C977 C 0.26429 0.16126 0.7702 0.0
C978 C 0.27038 0.15416 0.81071 0.0
C979 C 0.2889 0.13936 0.81937 0.0
C980 C 0.28336 0.12567 0.83681 0.0
C981 C 0.2582 0.12679 0.8452 0.0
C982 C 0.23883 0.14145 0.8361 0.0
C983 C 0.24537 0.15566 0.81902 0.0
H984 H 0.30329 0.88783 0.71772 0.0
H985 H 0.3857 0.89202 0.71356 0.0
H986 H 0.38722 0.89789 0.7537 0.0
H987 H 0.29169 0.92997 0.75675 0.0
H988 H 0.26676 0.91671 0.77096 0.0
H989 H 0.27252 0.91134 0.74226 0.0
H990 H 0.27886 0.8697 0.75025 0.0
H991 H 0.27295 0.87492 0.77897 0.0
H992 H 0.30214 0.85988 0.77035 0.0
H993 H 0.37907 0.90501 0.79448 0.0
H994 H 0.36224 0.91175 0.832 0.0
H995 H 0.28515 0.90392 0.80848 0.0
C996 C 0.32177 0.88967 0.72522 0.0
C997 C 0.34442 0.88936 0.71244 0.0
C998 C 0.3681 0.89208 0.72298 0.0
C999 C 0.36915 0.89547 0.74578 0.0
C1000 C 0.34634 0.89608 0.7578 0.0
C1001 C 0.32313 0.89315 0.74784 0.0
C1002 C 0.30123 0.89526 0.76418 0.0
C1003 C 0.28192 0.91446 0.75817 0.0
C1004 C 0.28803 0.87365 0.76605 0.0
C1005 C 0.31568 0.89997 0.78492 0.0
C1006 C 0.34168 0.90033 0.78099 0.0
C1007 C 0.35873 0.9047 0.79771 0.0
C1008 C 0.34895 0.90868 0.81898 0.0
C1009 C 0.32232 0.90832 0.82338 0.0
C1010 C 0.30562 0.90396 0.80594 0.0
H1011 H 0.10136 0.82764 0.33755 0.0
H1012 H 0.16681 0.78001 0.34149 0.0
H1013 H 0.18224 0.79248 0.3058 0.0
H1014 H 0.09069 0.82262 0.28028 0.0
H1015 H 0.08227 0.85136 0.27585 0.0
H1016 H 0.07663 0.83926 0.30221 0.0
H1017 H 0.10347 0.86798 0.32087 0.0
H1018 H 0.10922 0.88016 0.29454 0.0
H1019 H 0.13586 0.87099 0.31171 0.0
H1020 H 0.18968 0.80862 0.26888 0.0
H1021 H 0.1888 0.82803 0.23328 0.0
H1022 H 0.11962 0.86616 0.25332 0.0
C1023 C 0.1191 0.82003 0.33105 0.0
C1024 C 0.13266 0.80264 0.34237 0.0
C1025 C 0.15569 0.793 0.33307 0.0
C1026 C 0.1648 0.80012 0.31283 0.0
C1027 C 0.15083 0.81705 0.30203 0.0
C1028 C 0.12855 0.82699 0.31081 0.0
C1029 C 0.11695 0.84454 0.29548 0.0
C1030 C 0.09004 0.83911 0.28801 0.0
C1031 C 0.11635 0.86727 0.3063 0.0
C1032 C 0.13604 0.84268 0.27664 0.0
C1033 C 0.15544 0.82673 0.28081 0.0
C1034 C 0.17471 0.82129 0.2655 0.0
C1035 C 0.17402 0.83233 0.24532 0.0
C1036 C 0.1543 0.84869 0.2406 0.0
C1037 C 0.13523 0.85405 0.25663 0.0
H1038 H 0.19535 0.66535 0.83221 0.0
H1039 H 0.27068 0.63385 0.81848 0.0
H1040 H 0.26125 0.63525 0.77878 0.0
H1041 H 0.16168 0.63736 0.79021 0.0
H1042 H 0.14047 0.66108 0.78415 0.0
H1043 H 0.15342 0.65727 0.81133 0.0
H1044 H 0.17165 0.69556 0.80926 0.0
H1045 H 0.15894 0.6994 0.78201 0.0
H1046 H 0.19263 0.70169 0.78688 0.0
H1047 H 0.24319 0.64093 0.73984 0.0
H1048 H 0.2176 0.64922 0.70618 0.0
H1049 H 0.15462 0.67622 0.74667 0.0
C1050 C 0.2098 0.65843 0.82099 0.0
C1051 C 0.23381 0.64955 0.82862 0.0
C1052 C 0.25225 0.64103 0.81312 0.0
C1053 C 0.24704 0.64166 0.7905 0.0
C1054 C 0.22325 0.65079 0.78358 0.0
C1055 C 0.20492 0.65889 0.79845 0.0
C1056 C 0.18088 0.66796 0.787 0.0
C1057 C 0.15775 0.65514 0.79356 0.0
C1058 C 0.17574 0.69261 0.79156 0.0
C1059 C 0.1885 0.66375 0.76336 0.0
C1060 C 0.21299 0.65388 0.76156 0.0
C1061 C 0.22395 0.64862 0.74111 0.0
C1062 C 0.20935 0.65343 0.72208 0.0
C1063 C 0.18411 0.66333 0.72375 0.0
C1064 C 0.17382 0.66858 0.74472 0.0
H1065 H 0.44208 0.70582 0.34786 0.0
H1066 H 0.36536 0.72992 0.36749 0.0
H1067 H 0.3476 0.71278 0.3349 0.0
H1068 H 0.43391 0.71447 0.29096 0.0
H1069 H 0.45252 0.68998 0.28253 0.0
H1070 H 0.45927 0.7028 0.30824 0.0
H1071 H 0.4532 0.66636 0.32865 0.0
H1072 H 0.44644 0.65343 0.30294 0.0
H1073 H 0.42377 0.65307 0.32526 0.0
H1074 H 0.33833 0.6961 0.29876 0.0
H1075 H 0.33823 0.67953 0.2617 0.0
H1076 H 0.42032 0.66468 0.26572 0.0
C1077 C 0.42152 0.70711 0.34549 0.0
C1078 C 0.40515 0.71939 0.36017 0.0
C1079 C 0.37835 0.72095 0.35631 0.0
C1080 C 0.36803 0.71112 0.33792 0.0
C1081 C 0.38469 0.69956 0.32353 0.0
C1082 C 0.41084 0.69733 0.32712 0.0
C1083 C 0.4245 0.68475 0.30851 0.0
C1084 C 0.44367 0.69885 0.29688 0.0
C1085 C 0.43776 0.66311 0.31684 0.0
C1086 C 0.40197 0.68064 0.29379 0.0
C1087 C 0.37919 0.68931 0.30281 0.0
C1088 C 0.35597 0.68891 0.29168 0.0
C1089 C 0.35606 0.67953 0.27068 0.0
C1090 C 0.37912 0.67053 0.26111 0.0
C1091 C 0.40231 0.6709 0.27295 0.0
H1092 H 0.70668 0.2999 0.87393 0.0
H1093 H 0.73017 0.36085 0.90108 0.0
H1094 H 0.77457 0.34424 0.90471 0.0
H1095 H 0.7431 0.26504 0.90939 0.0
H1096 H 0.75064 0.24423 0.889 0.0
H1097 H 0.72158 0.26166 0.88678 0.0
H1098 H 0.73479 0.2734 0.8477 0.0
H1099 H 0.76387 0.2559 0.84974 0.0
H1100 H 0.76543 0.28458 0.84356 0.0
H1101 H 0.81675 0.3195 0.90679 0.0
H1102 H 0.8512 0.28934 0.90763 0.0
H1103 H 0.79836 0.24525 0.88008 0.0
C1104 C 0.72117 0.30996 0.88032 0.0
C1105 C 0.71488 0.33177 0.88708 0.0
C1106 C 0.73449 0.34415 0.89566 0.0
C1107 C 0.75979 0.33483 0.89779 0.0
C1108 C 0.7652 0.31311 0.89129 0.0
C1109 C 0.74633 0.30091 0.88269 0.0
C1110 C 0.75644 0.27763 0.87795 0.0
C1111 C 0.74209 0.26118 0.8916 0.0
C1112 C 0.75505 0.27259 0.85327 0.0
C1113 C 0.78389 0.27846 0.88545 0.0
C1114 C 0.78883 0.29904 0.89292 0.0
C1115 C 0.81303 0.30336 0.90089 0.0
C1116 C 0.83249 0.28616 0.90132 0.0
C1117 C 0.82751 0.26489 0.89404 0.0
C1118 C 0.80288 0.26124 0.88591 0.0
H1119 H 0.809 0.30475 0.63669 0.0
H1120 H 0.83162 0.28028 0.70115 0.0
H1121 H 0.79323 0.25902 0.70255 0.0
H1122 H 0.73928 0.30853 0.64666 0.0
H1123 H 0.73262 0.2999 0.61911 0.0
H1124 H 0.76048 0.31475 0.62448 0.0
H1125 H 0.78911 0.28341 0.60639 0.0
H1126 H 0.76145 0.26824 0.60138 0.0
H1127 H 0.78813 0.25586 0.6167 0.0
H1128 H 0.75395 0.23756 0.69516 0.0
H1129 H 0.71526 0.22099 0.6811 0.0
H1130 H 0.71937 0.25966 0.62164 0.0
C1131 C 0.80559 0.29539 0.65137 0.0
C1132 C 0.82332 0.29433 0.66885 0.0
C1133 C 0.81822 0.28159 0.68762 0.0
C1134 C 0.79652 0.26931 0.68852 0.0
C1135 C 0.77998 0.27005 0.67059 0.0
C1136 C 0.78409 0.28307 0.65254 0.0
C1137 C 0.76408 0.28045 0.63505 0.0
C1138 C 0.74817 0.3022 0.6311 0.0
C1139 C 0.77644 0.27145 0.61362 0.0
C1140 C 0.74825 0.26372 0.64592 0.0
C1141 C 0.75764 0.25784 0.6664 0.0
C1142 C 0.74631 0.24221 0.67921 0.0
C1143 C 0.72448 0.23275 0.67104 0.0
C1144 C 0.71426 0.23903 0.6503 0.0
C1145 C 0.72659 0.25454 0.63761 0.0
H1146 H 0.75223 0.32493 0.16754 0.0
H1147 H 0.68051 0.30032 0.14605 0.0
H1148 H 0.70039 0.26282 0.14609 0.0
H1149 H 0.7941 0.2862 0.13563 0.0
H1150 H 0.81808 0.28296 0.15679 0.0
H1151 H 0.79857 0.30833 0.15444 0.0
H1152 H 0.78439 0.30484 0.19499 0.0
H1153 H 0.80374 0.27941 0.19741 0.0
H1154 H 0.77001 0.28039 0.20386 0.0
H1155 H 0.72695 0.22762 0.14971 0.0
H1156 H 0.75967 0.19702 0.15543 0.0
H1157 H 0.81463 0.24357 0.17418 0.0
C1158 C 0.74084 0.31166 0.16264 0.0
C1159 C 0.71473 0.31571 0.15686 0.0
C1160 C 0.70047 0.29779 0.15068 0.0
C1161 C 0.71159 0.27632 0.15061 0.0
C1162 C 0.73712 0.27281 0.1567 0.0
C1163 C 0.75169 0.28992 0.16248 0.0
C1164 C 0.77868 0.28132 0.16865 0.0
C1165 C 0.79853 0.29024 0.15294 0.0
C1166 C 0.78454 0.28682 0.19266 0.0
C1167 C 0.77679 0.25684 0.16552 0.0
C1168 C 0.75262 0.25232 0.15864 0.0
C1169 C 0.74603 0.23092 0.15499 0.0
C1170 C 0.76472 0.21363 0.15834 0.0
C1171 C 0.78974 0.21781 0.16521 0.0
C1172 C 0.79572 0.23977 0.16884 0.0
H1173 H 0.78705 0.28906 0.34566 0.0
H1174 H 0.76402 0.31456 0.40979 0.0
H1175 H 0.73242 0.2869 0.41288 0.0
H1176 H 0.72433 0.27507 0.32775 0.0
H1177 H 0.73596 0.24996 0.31448 0.0
H1178 H 0.75633 0.27244 0.31649 0.0
H1179 H 0.79129 0.24724 0.33581 0.0
H1180 H 0.77122 0.22463 0.33352 0.0
H1181 H 0.78301 0.23226 0.36 0.0
H1182 H 0.70389 0.25646 0.40975 0.0
H1183 H 0.68314 0.22227 0.40204 0.0
H1184 H 0.72496 0.21527 0.34061 0.0
C1185 C 0.77549 0.28874 0.36039 0.0
C1186 C 0.7778 0.30433 0.3773 0.0
C1187 C 0.76223 0.30326 0.39633 0.0
C1188 C 0.74421 0.28754 0.3983 0.0
C1189 C 0.74199 0.2728 0.38117 0.0
C1190 C 0.75739 0.273 0.36271 0.0
C1191 C 0.75181 0.25452 0.34723 0.0
C1192 C 0.74149 0.26354 0.32518 0.0
C1193 C 0.77575 0.23873 0.34396 0.0
C1194 C 0.73114 0.24381 0.36008 0.0
C1195 C 0.7256 0.25484 0.37948 0.0
C1196 C 0.70795 0.24771 0.39457 0.0
C1197 C 0.69623 0.22835 0.39006 0.0
C1198 C 0.70226 0.21627 0.37071 0.0
C1199 C 0.7195 0.22443 0.35528 0.0
H1200 H 0.09248 0.581 0.66756 0.0
H1201 H 0.13006 0.61049 0.72214 0.0
H1202 H 0.13046 0.57546 0.74261 0.0
H1203 H 0.05314 0.54558 0.69874 0.0
H1204 H 0.0576 0.52291 0.67991 0.0
H1205 H 0.059 0.55057 0.67006 0.0
H1206 H 0.10414 0.54058 0.65376 0.0
H1207 H 0.10287 0.5129 0.66357 0.0
H1208 H 0.12916 0.52877 0.67131 0.0
H1209 H 0.12538 0.5377 0.75754 0.0
H1210 H 0.11923 0.49855 0.7646 0.0
H1211 H 0.08869 0.49213 0.69914 0.0
C1212 C 0.10056 0.57998 0.68389 0.0
C1213 C 0.111 0.59837 0.6935 0.0
C1214 C 0.12194 0.59651 0.71467 0.0
C1215 C 0.12216 0.57674 0.72637 0.0
C1216 C 0.1118 0.55884 0.71648 0.0
C1217 C 0.10154 0.56013 0.69559 0.0
C1218 C 0.09298 0.53806 0.68832 0.0
C1219 C 0.06395 0.53937 0.68401 0.0
C1220 C 0.1082 0.52958 0.66804 0.0
C1221 C 0.09985 0.52423 0.70843 0.0
C1222 C 0.11034 0.53665 0.72459 0.0
C1223 C 0.11737 0.52778 0.74495 0.0
C1224 C 0.11373 0.50561 0.74886 0.0
C1225 C 0.10362 0.49243 0.73239 0.0
C1226 C 0.09669 0.50188 0.71189 0.0
H1227 H 0.46159 0.70672 0.21459 0.0
H1228 H 0.4507 0.66418 0.15887 0.0
H1229 H 0.49516 0.64843 0.16263 0.0
H1230 H 0.52853 0.71696 0.20105 0.0
H1231 H 0.53794 0.71751 0.22945 0.0
H1232 H 0.50549 0.72597 0.2218 0.0
H1233 H 0.48886 0.69767 0.24905 0.0
H1234 H 0.52126 0.68876 0.25645 0.0
H1235 H 0.49986 0.66919 0.24648 0.0
H1236 H 0.53938 0.63489 0.17437 0.0
H1237 H 0.58315 0.62892 0.18913 0.0
H1238 H 0.56675 0.68158 0.23594 0.0
C1239 C 0.46871 0.69438 0.20292 0.0
C1240 C 0.45258 0.68672 0.18642 0.0
C1241 C 0.46266 0.67049 0.17154 0.0
C1242 C 0.48786 0.66128 0.17365 0.0
C1243 C 0.50296 0.66868 0.19052 0.0
C1244 C 0.49403 0.68525 0.20456 0.0
C1245 C 0.51447 0.69045 0.22102 0.0
C1246 C 0.52206 0.71412 0.21815 0.0
C1247 C 0.50557 0.68626 0.24465 0.0
C1248 C 0.53612 0.67399 0.21421 0.0
C1249 C 0.52891 0.66142 0.19676 0.0
C1250 C 0.54535 0.64478 0.18788 0.0
C1251 C 0.57013 0.64138 0.19654 0.0
C1252 C 0.57845 0.65476 0.21373 0.0
C1253 C 0.56098 0.67106 0.22284 0.0
H1254 H 0.31131 0.9984 0.63863 0.0
H1255 H 0.36851 0.95517 0.67139 0.0
H1256 H 0.38914 0.98721 0.68561 0.0
H1257 H 0.35406 0.03953 0.62256 0.0
H1258 H 0.33079 0.06221 0.62732 0.0
H1259 H 0.32033 0.03584 0.61967 0.0
H1260 H 0.29155 0.03578 0.65435 0.0
H1261 H 0.30188 0.06215 0.66209 0.0
H1262 H 0.30558 0.03946 0.68096 0.0
H1263 H 0.40393 0.02391 0.6961 0.0
H1264 H 0.41135 0.06265 0.70272 0.0
H1265 H 0.34442 0.08242 0.66356 0.0
C1266 C 0.32827 0.99565 0.64866 0.0
C1267 C 0.33816 0.97414 0.65392 0.0
C1268 C 0.36025 0.97137 0.66736 0.0
C1269 C 0.37226 0.98952 0.67541 0.0
C1270 C 0.362 1.01043 0.66994 0.0
C1271 C 0.34048 1.01363 0.65692 0.0
C1272 C 0.33321 0.03788 0.65374 0.0
C1273 C 0.3347 0.04423 0.62938 0.0
C1274 C 0.30647 0.04418 0.66336 0.0
C1275 C 0.35405 0.0478 0.66696 0.0
C1276 C 0.37045 0.03165 0.67613 0.0
C1277 C 0.39114 0.0367 0.68907 0.0
C1278 C 0.3951 0.05883 0.69285 0.0
C1279 C 0.37845 0.07578 0.68381 0.0
C1280 C 0.3577 0.07001 0.67059 0.0
H1281 H 0.06489 0.90151 0.14797 0.0
H1282 H 0.06854 0.8305 0.15034 0.0
H1283 H 0.02186 0.83204 0.15812 0.0
H1284 H 0.02529 0.90987 0.19271 0.0
H1285 H 1.0079 0.93406 0.18209 0.0
H1286 H 0.04019 0.92705 0.17309 0.0
H1287 H 0.02497 0.92742 0.13263 0.0
H1288 H 0.99251 0.93442 0.14154 0.0
H1289 H 0.99963 0.9106 0.12461 0.0
H1290 H 0.97524 0.84194 0.16963 0.0
H1291 H 0.9351 0.85893 0.18587 0.0
H1292 H 0.96341 0.92322 0.17678 0.0
C1293 C 0.05586 0.88619 0.14954 0.0
C1294 C 0.07042 0.86585 0.14832 0.0
C1295 C 0.05779 0.84628 0.15099 0.0
C1296 C 0.03125 0.84701 0.15537 0.0
C1297 C 0.01761 0.86744 0.15697 0.0
C1298 C 0.02961 0.88666 0.1541 0.0
C1299 C 0.01164 0.90656 0.15892 0.0
C1300 C 0.02186 0.92017 0.17782 0.0
C1301 C 1.00691 0.92057 0.13819 0.0
C1302 C 0.98777 0.89563 0.16563 0.0
C1303 C 0.99129 0.87308 0.16401 0.0
C1304 C 0.97222 0.85959 0.17064 0.0
C1305 C 0.94939 0.86939 0.17974 0.0
C1306 C 0.94605 0.89242 0.18244 0.0
C1307 C 0.96528 0.90559 0.17472 0.0
H1308 H 0.21909 0.95666 0.85275 0.0
H1309 H 0.17235 0.95693 0.91176 0.0
H1310 H 0.15287 0.99353 0.90198 0.0
H1311 H 0.23296 1.01168 0.85518 0.0
H1312 H 0.23155 1.01645 0.82601 0.0
H1313 H 0.23994 0.98933 0.83632 0.0
H1314 H 0.20298 0.97417 0.81406 0.0
H1315 H 0.19459 1.00124 0.80349 0.0
H1316 H 0.17079 0.98636 0.8174 0.0
H1317 H 0.14147 0.03176 0.88761 0.0
H1318 H 0.13721 0.06752 0.86849 0.0
H1319 H 0.19116 0.04232 0.81888 0.0
C1320 C 0.20431 0.96415 0.86336 0.0
C1321 C 0.1972 0.95376 0.88301 0.0
C1322 C 0.17808 0.96442 0.89659 0.0
C1323 C 0.16691 0.98528 0.89118 0.0
C1324 C 0.17489 0.99532 0.87205 0.0
C1325 C 0.19295 0.98501 0.85821 0.0
C1326 C 0.19907 0.99979 0.83919 0.0
C1327 C 0.22757 1.00459 0.83919 0.0
C1328 C 0.19139 0.98979 0.81724 0.0
C1329 C 0.18199 1.02014 0.8447 0.0
C1330 C 0.16817 1.01724 0.8637 0.0
C1331 C 0.152 0.03412 0.87257 0.0
C1332 C 0.14983 0.05444 0.8617 0.0
C1333 C 0.16367 0.05776 0.84209 0.0
C1334 C 0.1799 0.04025 0.83356 0.0
H1335 H 0.94738 0.68378 0.35776 0.0
H1336 H 0.98795 0.61963 0.35279 0.0
H1337 H 0.02658 0.63441 0.36842 0.0
H1338 H 0.9984 0.71347 0.34096 0.0
H1339 H 0.99182 0.73633 0.35927 0.0
H1340 H 0.96614 0.72035 0.35046 0.0
H1341 H 0.95436 0.71267 0.39092 0.0
H1342 H 0.97981 0.7289 0.39989 0.0
H1343 H 0.97867 0.70103 0.40924 0.0
H1344 H 0.06217 0.65675 0.38094 0.0
H1345 H 0.09152 0.68488 0.39147 0.0
H1346 H 0.02821 0.73467 0.38823 0.0
C1347 C 0.96413 0.67273 0.36065 0.0
C1348 C 0.96457 0.65048 0.35428 0.0
C1349 C 0.98713 0.63668 0.35768 0.0
C1350 C 1.00921 0.64493 0.36653 0.0
C1351 C 1.00849 0.66707 0.37193 0.0
C1352 C 0.98649 0.68076 0.36936 0.0
C1353 C 0.99143 0.70421 0.37514 0.0
C1354 C 0.98667 0.71948 0.35527 0.0
C1355 C 0.9751 0.71217 0.39498 0.0
C1356 C 0.01969 0.70157 0.38093 0.0
C1357 C 0.02913 0.68 0.37907 0.0
C1358 C 0.05493 0.67366 0.38272 0.0
C1359 C 0.0715 0.68978 0.3886 0.0
C1360 C 0.06223 0.71199 0.39077 0.0
C1361 C 0.03592 0.71783 0.38688 0.0
H1362 H 0.30867 0.57158 0.9062 0.0
H1363 H 0.34756 0.61294 0.86099 0.0
H1364 H 0.36901 0.57977 0.84367 0.0
H1365 H 0.36135 0.52983 0.91305 0.0
H1366 H 0.34007 0.50795 0.91452 0.0
H1367 H 0.32936 0.535 0.92387 0.0
H1368 H 0.29051 0.53512 0.89753 0.0
H1369 H 0.30119 0.50817 0.88798 0.0
H1370 H 0.29598 0.53033 0.86865 0.0
H1371 H 0.38356 0.5412 0.82962 0.0
H1372 H 0.39195 0.50155 0.82198 0.0
H1373 H 0.34335 0.4865 0.87693 0.0
C1374 C 0.32193 0.57376 0.89282 0.0
C1375 C 0.32644 0.59487 0.88494 0.0
C1376 C 0.34395 0.59693 0.8674 0.0
C1377 C 0.35613 0.57818 0.85742 0.0
C1378 C 0.35075 0.55755 0.86534 0.0
C1379 C 0.33426 0.55534 0.88284 0.0
C1380 C 0.33111 0.53151 0.8881 0.0
C1381 C 0.34107 0.52574 0.91126 0.0
C1382 C 0.30303 0.52597 0.8854 0.0
C1383 C 0.34811 0.52052 0.87064 0.0
C1384 C 0.35929 0.53572 0.8576 0.0
C1385 C 0.37505 0.52922 0.83989 0.0
C1386 C 0.37957 0.50667 0.83557 0.0
C1387 C 0.36848 0.49087 0.84894 0.0
C1388 C 0.35254 0.49807 0.86665 0.0
H1389 H 0.49743 0.80641 0.39252 0.0
H1390 H 0.42421 0.84356 0.38442 0.0
H1391 H 0.44546 0.87084 0.36211 0.0
H1392 H 0.53698 0.85323 0.39585 0.0
H1393 H 0.56308 0.83964 0.38061 0.0
H1394 H 0.54244 0.82383 0.39708 0.0
H1395 H 0.53252 0.80051 0.36309 0.0
H1396 H 0.55312 0.81621 0.34652 0.0
H1397 H 0.52022 0.81397 0.33859 0.0
H1398 H 0.47419 0.89289 0.33915 0.0
H1399 H 0.50793 0.90804 0.31668 0.0
H1400 H 0.56281 0.85655 0.33958 0.0
C1401 C 0.48585 0.8204 0.38629 0.0
C1402 C 0.45909 0.82287 0.39031 0.0
C1403 C 0.44469 0.84133 0.38162 0.0
C1404 C 0.45662 0.85692 0.36897 0.0
C1405 C 0.48298 0.85386 0.36518 0.0
C1406 C 0.49743 0.83607 0.3736 0.0
C1407 C 0.52523 0.83609 0.36633 0.0
C1408 C 0.54298 0.83833 0.38615 0.0
C1409 C 0.53323 0.81548 0.35283 0.0
C1410 C 0.52413 0.85652 0.35219 0.0
C1411 C 0.49958 0.86658 0.35189 0.0
C1412 C 0.4935 0.88524 0.33939 0.0
C1413 C 0.51285 0.89369 0.32663 0.0
C1414 C 0.5381 0.88354 0.32636 0.0
C1415 C 0.54381 0.86484 0.3396 0.0
H1416 H 0.63561 0.18895 0.53794 0.0
H1417 H 0.70554 0.20072 0.57276 0.0
H1418 H 0.73106 0.18785 0.54051 0.0
H1419 H 0.66015 0.13966 0.51028 0.0
H1420 H 0.64288 0.14586 0.48524 0.0
H1421 H 0.63008 0.156 0.51107 0.0
H1422 H 0.62779 0.19565 0.49592 0.0
H1423 H 0.64052 0.18563 0.47003 0.0
H1424 H 0.65628 0.20641 0.4847 0.0
H1425 H 0.74904 0.17468 0.50383 0.0
H1426 H 0.75804 0.16123 0.46616 0.0
H1427 H 0.6765 0.15716 0.45539 0.0
C1428 C 0.65627 0.18895 0.53876 0.0
C1429 C 0.66852 0.19587 0.558 0.0
C1430 C 0.69568 0.19528 0.5584 0.0
C1431 C 0.71035 0.18809 0.54008 0.0
C1432 C 0.69768 0.18137 0.52142 0.0
C1433 C 0.67124 0.18164 0.52066 0.0
C1434 C 0.66237 0.1734 0.49865 0.0
C1435 C 0.64802 0.15249 0.50149 0.0
C1436 C 0.64576 0.19134 0.48662 0.0
C1437 C 0.68791 0.16857 0.48711 0.0
C1438 C 0.70804 0.17337 0.5005 0.0
C1439 C 0.73341 0.17076 0.49327 0.0
C1440 C 0.73834 0.16311 0.4718 0.0
C1441 C 0.71804 0.15797 0.45778 0.0
C1442 C 0.69251 0.16069 0.46571 0.0
H1443 H 0.89011 0.14847 0.07612 0.0
H1444 H 0.83933 0.20406 0.09584 0.0
H1445 H 0.83613 0.21637 0.05719 0.0
H1446 H 0.92385 0.17547 0.03295 0.0
H1447 H 0.92538 0.15207 1.01492 0.0
H1448 H 0.9245 0.14818 0.04421 0.0
H1449 H 0.88465 0.12568 0.04014 0.0
H1450 H 0.88537 0.12953 1.01084 0.0
H1451 H 0.85669 0.1376 0.02616 0.0
H1452 H 0.83938 0.22312 1.01638 0.0
H1453 H 0.84624 0.22229 0.97614 0.0
H1454 H 0.89263 0.16109 0.98243 0.0
C1455 C 0.87853 0.16333 0.07226 0.0
C1456 C 0.86509 0.17544 0.08898 0.0
C1457 C 0.8497 0.19456 0.08327 0.0
C1458 C 0.84787 0.2017 0.06138 0.0
C1459 C 0.86125 0.18937 0.04527 0.0
C1460 C 0.87609 0.17046 0.05039 0.0
C1461 C 0.88763 0.15972 0.02982 0.0
C1462 C 0.91709 0.15881 0.03052 0.0
C1463 C 0.878 0.13677 0.02655 0.0
C1464 C 0.87707 0.17557 1.01237 0.0
C1465 C 0.86214 0.1927 1.02166 0.0
C1466 C 0.85091 0.20971 1.00893 0.0
C1467 C 0.85496 0.20916 0.98612 0.0
C1468 C 0.86978 0.19158 0.97617 0.0
C1469 C 0.8809 0.17456 0.98955 0.0
H1470 H 0.89518 0.31056 0.52911 0.0
H1471 H 0.83418 0.33906 0.57071 0.0
H1472 H 0.81529 0.35923 0.53877 0.0
H1473 H 0.90209 0.35829 0.49545 0.0
H1474 H 0.90832 0.34255 0.47077 0.0
H1475 H 0.91706 0.33087 0.49706 0.0
H1476 H 0.89016 0.29781 0.48901 0.0
H1477 H 0.88139 0.30936 0.46269 0.0
H1478 H 0.8568 0.30264 0.48185 0.0
H1479 H 0.80216 0.37536 0.50101 0.0
H1480 H 0.797 0.38611 0.46189 0.0
H1481 H 0.86715 0.34707 0.44605 0.0
C1482 C 0.87779 0.32095 0.53156 0.0
C1483 C 0.86619 0.32313 0.55252 0.0
C1484 C 0.84362 0.33723 0.55493 0.0
C1485 C 0.83267 0.3487 0.53682 0.0
C1486 C 0.84457 0.34605 0.51636 0.0
C1487 C 0.86673 0.33256 0.51374 0.0
C1488 C 0.87587 0.33235 0.49014 0.0
C1489 C 0.9024 0.34157 0.48825 0.0
C1490 C 0.87605 0.30916 0.48035 0.0
C1491 C 0.85529 0.34764 0.47978 0.0
C1492 C 0.83734 0.35543 0.49507 0.0
C1493 C 0.81625 0.36942 0.48897 0.0
C1494 C 0.81345 0.37547 0.46671 0.0
C1495 C 0.83169 0.36758 0.45083 0.0
C1496 C 0.85289 0.35359 0.45768 0.0
H1497 H 0.60011 0.36182 0.98205 0.0
H1498 H 0.67128 0.32463 0.96529 0.0
H1499 H 0.68678 0.32951 1.00312 0.0
H1500 H 0.62739 0.40078 1.01745 0.0
H1501 H 0.60095 0.40191 0.03657 0.0
H1502 H 0.59567 0.39568 1.00814 0.0
H1503 H 0.57584 0.3597 1.01943 0.0
H1504 H 0.58106 0.36581 0.0479 0.0
H1505 H 0.594 0.34019 0.03647 0.0
H1506 H 0.69412 0.33796 0.04326 0.0
H1507 H 0.69297 0.34943 0.082 0.0
H1508 H 0.61697 0.3813 0.07238 0.0
C1509 C 0.61887 0.35448 0.98627 0.0
C1510 C 0.63441 0.34275 0.97052 0.0
C1511 C 0.65906 0.33386 0.97687 0.0
C1512 C 0.66799 0.33645 0.99839 0.0
C1513 C 0.6521 0.34803 1.01345 0.0
C1514 C 0.62807 0.35693 1.00764 0.0
C1515 C 0.61472 0.36866 0.02688 0.0
C1516 C 0.60938 0.39322 1.02196 0.0
C1517 C 0.58994 0.35795 0.03303 0.0
C1518 C 0.63494 0.3649 0.0445 0.0
C1519 C 0.65636 0.35299 0.03643 0.0
C1520 C 0.67747 0.3474 0.04969 0.0
C1521 C 0.67669 0.35415 0.07173 0.0
C1522 C 0.65493 0.36645 0.08045 0.0
C1523 C 0.63383 0.37181 0.06646 0.0
H1524 H 0.91286 0.53531 0.31234 0.0
H1525 H 0.85043 0.57573 0.3421 0.0
H1526 H 0.83295 0.54282 0.35753 0.0
H1527 H 0.87451 0.49043 0.29748 0.0
H1528 H 0.89961 0.46952 0.30328 0.0
H1529 H 0.90764 0.49635 0.29462 0.0
H1530 H 0.93542 0.49969 0.32941 0.0
H1531 H 0.92739 0.47291 0.33823 0.0
H1532 H 0.92123 0.49619 0.35608 0.0
H1533 H 0.82232 0.50589 0.37033 0.0
H1534 H 0.81849 0.46709 0.37893 0.0
H1535 H 0.88645 0.44966 0.33969 0.0
C1536 C 0.89542 0.53728 0.32195 0.0
C1537 C 0.88328 0.55834 0.32612 0.0
C1538 C 0.86054 0.56001 0.33897 0.0
C1539 C 0.85028 0.54132 0.34772 0.0
C1540 C 0.86282 0.52094 0.34345 0.0
C1541 C 0.8848 0.51873 0.3308 0.0
C1542 C 0.89432 0.49477 0.32867 0.0
C1543 C 0.89399 0.48733 0.30458 0.0
C1544 C 0.92118 0.49066 0.3387 0.0
C1545 C 0.87427 0.48395 0.34218 0.0
C1546 C 0.85634 0.49941 0.35055 0.0
C1547 C 0.83612 0.49359 0.36371 0.0
C1548 C 0.83403 0.47136 0.36838 0.0
C1549 C 0.85197 0.455 0.35985 0.0
C1550 C 0.87243 0.46157 0.3466 0.0
H1551 H 0.46951 0.40383 0.85088 0.0
H1552 H 0.46978 0.40466 0.7797 0.0
H1553 H 0.51717 0.39771 0.77991 0.0
H1554 H 0.52989 0.42987 0.85876 0.0
H1555 H 0.53852 0.41297 0.8822 0.0
H1556 H 0.50523 0.41999 0.87614 0.0
H1557 H 0.49665 0.37876 0.87541 0.0
H1558 H 0.52981 0.37166 0.88154 0.0
H1559 H 0.51552 0.36048 0.85753 0.0
H1560 H 0.56443 0.38675 0.78852 0.0
H1561 H 0.60603 0.37299 0.80433 0.0
H1562 H 0.57377 0.38079 0.86979 0.0
C1563 C 0.47946 0.40285 0.83526 0.0
C1564 C 0.46589 0.40477 0.81524 0.0
C1565 C 0.47977 0.40334 0.79523 0.0
C1566 C 0.50668 0.39941 0.79523 0.0
C1567 C 0.51939 0.39727 0.81536 0.0
C1568 C 0.50612 0.39912 0.83499 0.0
C1569 C 0.52373 0.39505 0.85444 0.0
C1570 C 0.52438 0.41571 0.86872 0.0
C1571 C 0.51597 0.37532 0.86801 0.0
C1572 C 0.54903 0.39002 0.84278 0.0
C1573 C 0.54629 0.3915 0.82025 0.0
C1574 C 0.56681 0.38592 0.80614 0.0
C1575 C 0.59042 0.37817 0.81529 0.0
C1576 C 0.59337 0.37601 0.83834 0.0
C1577 C 0.57245 0.38261 0.85214 0.0
H1578 H 0.66456 0.03798 0.37865 0.0
H1579 H 0.6475 0.09332 0.33514 0.0
H1580 H 0.62737 0.06889 0.30911 0.0
H1581 H 0.67938 0.99793 0.33743 0.0
H1582 H 0.66464 0.97636 0.35188 0.0
H1583 H 0.67773 0.99823 0.36699 0.0
H1584 H 0.63388 1.00684 0.38621 0.0
H1585 H 0.62067 0.98494 0.37122 0.0
H1586 H 0.60552 1.01229 0.36979 0.0
H1587 H 0.60942 0.03785 0.2875 0.0
H1588 H 0.59513 1.00345 0.27249 0.0
H1589 H 0.62224 0.96916 0.33136 0.0
C1590 C 0.65638 0.0452 0.36385 0.0
C1591 C 0.65772 0.06778 0.35914 0.0
C1592 C 0.64707 0.07614 0.33918 0.0
C1593 C 0.63543 0.06237 0.32429 0.0
C1594 C 0.63447 0.04026 0.32956 0.0
C1595 C 0.64461 0.03177 0.34891 0.0
C1596 C 0.64118 1.00746 0.35078 0.0
C1597 C 0.66729 0.99422 0.35183 0.0
C1598 C 0.6243 1.00261 0.37068 0.0
C1599 C 0.62757 1.00352 0.32941 0.0
C1600 C 0.6239 0.02259 0.31736 0.0
C1601 C 0.61208 0.02285 0.2969 0.0
C1602 C 0.60386 1.00313 0.28854 0.0
C1603 C 0.60737 0.98328 0.30062 0.0
C1604 C 0.61935 0.98374 0.32142 0.0
H1605 H 0.06877 0.13254 0.86571 0.0
H1606 H 0.1106 0.19099 0.87068 0.0
H1607 H 0.07149 0.21153 0.88509 0.0
H1608 H 0.01286 0.15739 0.84584 0.0
H1609 H 0.99174 0.14045 0.86053 0.0
H1610 H 0.02377 0.12993 0.85384 0.0
H1611 H 0.03284 0.12143 0.89489 0.0
H1612 H 1.00065 0.1317 0.90171 0.0
H1613 H 0.02756 0.1429 0.91499 0.0
H1614 H 0.02504 0.2267 0.89416 0.0
H1615 H 0.9779 0.23379 0.8989 0.0
H1616 H 0.96858 0.16468 0.88841 0.0
C1617 C 0.06994 0.14951 0.8704 0.0
C1618 C 0.09274 0.16013 0.8672 0.0
C1619 C 0.09341 0.18243 0.87331 0.0
C1620 C 0.07123 0.19425 0.88139 0.0
C1621 C 0.04871 0.18343 0.88358 0.0
C1622 C 0.04818 0.1614 0.87859 0.0
C1623 C 0.02152 0.15365 0.88093 0.0
C1624 C 0.01193 0.14485 0.85898 0.0
C1625 C 0.0206 0.1364 0.89922 0.0
C1626 C 1.00684 0.17484 0.88735 0.0
C1627 C 0.02265 0.19192 0.88896 0.0
C1628 C 0.01262 0.21331 0.8933 0.0
C1629 C 0.98583 0.21722 0.89594 0.0
C1630 C 0.96947 0.19983 0.89414 0.0
C1631 C 0.98041 0.17841 0.89009 0.0
H1632 H 0.85744 0.07045 0.15293 0.0
H1633 H 0.81091 0.10217 0.20445 0.0
H1634 H 0.81423 0.06784 0.22591 0.0
H1635 H 0.83152 1.0154 0.15884 0.0
H1636 H 0.86232 1.00139 0.15316 0.0
H1637 H 0.85393 0.02775 0.14094 0.0
H1638 H 0.895 0.04252 0.15726 0.0
H1639 H 0.90335 1.01635 0.16976 0.0
H1640 H 0.9004 0.04073 0.18644 0.0
H1641 H 0.82805 0.03178 0.24403 0.0
H1642 H 0.84696 0.99527 0.25549 0.0
H1643 H 0.88211 0.98599 0.19146 0.0
C1644 C 0.84734 0.07 0.16845 0.0
C1645 C 0.83376 0.08901 0.17691 0.0
C1646 C 0.82109 0.08779 0.19744 0.0
C1647 C 0.82301 0.06836 0.20982 0.0
C1648 C 0.83725 0.05013 0.2013 0.0
C1649 C 0.84872 0.05063 0.18086 0.0
C1650 C 0.86371 0.02904 0.17581 0.0
C1651 C 0.85217 1.01773 0.15602 0.0
C1652 C 0.8923 0.03237 0.17211 0.0
C1653 C 0.85954 1.01654 0.19686 0.0
C1654 C 0.84431 0.02903 0.2114 0.0
C1655 C 0.83952 1.02169 0.2326 0.0
C1656 C 0.85044 1.00105 0.23903 0.0
C1657 C 0.86569 0.98784 0.22427 0.0
C1658 C 0.87007 0.99564 0.20286 0.0
H1659 H 0.02513 0.38843 0.71214 0.0
H1660 H 0.08511 0.37952 0.66286 0.0
H1661 H 0.05514 0.36135 0.63865 0.0
H1662 H 0.9997 0.33723 0.70508 0.0
H1663 H 0.9668 0.34721 0.70936 0.0
H1664 H 0.99223 0.36104 0.72196 0.0
H1665 H 0.97548 0.39749 0.70367 0.0
H1666 H 0.94992 0.38379 0.69103 0.0
H1667 H 0.97135 0.3986 0.67432 0.0
H1668 H 0.01954 0.34193 0.62105 0.0
H1669 H 0.98126 0.32289 0.61108 0.0
H1670 H 0.94422 0.34465 0.67188 0.0
C1671 C 0.03196 0.38295 0.69614 0.0
C1672 C 0.05753 0.3855 0.68937 0.0
C1673 C 0.06563 0.37787 0.66836 0.0
C1674 C 0.04872 0.36754 0.65451 0.0
C1675 C 0.02376 0.36505 0.66187 0.0
C1676 C 0.01538 0.37263 0.68216 0.0
C1677 C 0.98801 0.36707 0.68663 0.0
C1678 C 0.98662 0.35225 0.70696 0.0
C1679 C 0.97014 0.38799 0.68905 0.0
C1680 C 0.98235 0.35482 0.6658 0.0
C1681 C 1.0032 0.35395 0.6517 0.0
C1682 C 1.00305 0.34269 0.63187 0.0
C1683 C 0.98118 0.33188 0.62639 0.0
C1684 C 0.95964 0.33233 0.64065 0.0
C1685 C 0.9602 0.34423 0.6605 0.0
H1686 H 0.67972 0.46473 0.12972 0.0
H1687 H 0.72142 0.44078 0.18728 0.0
H1688 H 0.72496 0.47904 0.19962 0.0
H1689 H 0.71543 0.51416 0.12132 0.0
H1690 H 0.68707 0.53018 0.11248 0.0
H1691 H 0.69019 0.50109 0.10747 0.0
H1692 H 0.647 0.49702 0.1275 0.0
H1693 H 0.64389 0.52601 0.13285 0.0
H1694 H 0.64291 0.50686 0.15527 0.0
H1695 H 0.71896 0.52024 0.20772 0.0
H1696 H 0.70825 0.5604 0.20869 0.0
H1697 H 0.67188 0.55685 0.14516 0.0
C1698 C 0.69015 0.46751 0.14467 0.0
C1699 C 0.70042 0.44974 0.15747 0.0
C1700 C 0.71372 0.45412 0.17703 0.0
C1701 C 0.71565 0.47582 0.18424 0.0
C1702 C 0.70452 0.49295 0.17154 0.0
C1703 C 0.69247 0.48899 0.15193 0.0
C1704 C 0.68134 0.51007 0.14159 0.0
C1705 C 0.69429 0.51411 0.1194 0.0
C1706 C 0.65205 0.50997 0.13917 0.0
C1707 C 0.68849 0.52656 0.15862 0.0
C1708 C 0.70176 0.51643 0.17585 0.0
C1709 C 0.70895 0.52832 0.19412 0.0
C1710 C 0.70264 0.55108 0.19463 0.0
C1711 C 0.68949 0.56178 0.17691 0.0
C1712 C 0.68242 0.54923 0.15873 0.0
H1713 H 0.48637 0.14669 0.67403 0.0
H1714 H 0.49195 0.13898 0.74467 0.0
H1715 H 0.53874 0.14296 0.74233 0.0
H1716 H 0.54885 0.11843 0.65977 0.0
H1717 H 0.55422 0.13743 0.6379 0.0
H1718 H 0.52201 0.13133 0.64504 0.0
H1719 H 0.50963 0.17272 0.65078 0.0
H1720 H 0.5417 0.17892 0.64363 0.0
H1721 H 0.52804 0.1881 0.66951 0.0
H1722 H 0.58442 0.15177 0.73227 0.0
H1723 H 0.62371 0.16513 0.71583 0.0
H1724 H 0.58745 0.16659 0.65184 0.0
C1725 C 0.49742 0.14539 0.68903 0.0
C1726 C 0.48543 0.14241 0.70955 0.0
C1727 C 0.50068 0.1411 0.72875 0.0
C1728 C 0.52729 0.14332 0.72755 0.0
C1729 C 0.53838 0.14667 0.70704 0.0
C1730 C 0.52384 0.14757 0.68812 0.0
C1731 C 0.53973 0.15295 0.66827 0.0
C1732 C 0.54129 0.13389 0.65177 0.0
C1733 C 0.52915 0.17445 0.65743 0.0
C1734 C 0.56542 0.15551 0.67896 0.0
C1735 C 0.56442 0.15162 0.70129 0.0
C1736 C 0.58546 0.15451 0.71475 0.0
C1737 C 0.60777 0.16207 0.70524 0.0
C1738 C 0.60886 0.16678 0.68247 0.0
C1739 C 0.58752 0.16285 0.66921 0.0
H1740 H 0.3772 0.82315 0.49222 0.0
H1741 H 0.43311 0.77987 0.52652 0.0
H1742 H 0.41891 0.79657 0.56168 0.0
H1743 H 0.38275 0.87046 0.52586 0.0
H1744 H 0.349 0.87875 0.52502 0.0
H1745 H 0.36386 0.86359 0.50248 0.0
H1746 H 0.3309 0.83414 0.50649 0.0
H1747 H 0.31586 0.84925 0.52898 0.0
H1748 H 0.32713 0.82096 0.53266 0.0
H1749 H 0.39836 0.81836 0.59356 0.0
H1750 H 0.37238 0.84246 0.61903 0.0
H1751 H 0.32935 0.87044 0.56376 0.0
C1752 C 0.38641 0.81694 0.50703 0.0
C1753 C 0.40648 0.80012 0.50631 0.0
C1754 C 0.41802 0.79289 0.52635 0.0
C1755 C 0.40998 0.80223 0.54652 0.0
C1756 C 0.39025 0.81879 0.54654 0.0
C1757 C 0.37856 0.82599 0.5273 0.0
C1758 C 0.35759 0.84384 0.53176 0.0
C1759 C 0.36368 0.86543 0.52062 0.0
C1760 C 0.33131 0.83661 0.52455 0.0
C1761 C 0.35926 0.84553 0.55652 0.0
C1762 C 0.37828 0.83103 0.56478 0.0
C1763 C 0.38339 0.82975 0.58724 0.0
C1764 C 0.36856 0.84354 0.6016 0.0
C1765 C 0.34877 0.85835 0.59347 0.0
C1766 C 0.34426 0.8593 0.57058 0.0
H1767 H 0.19005 0.91652 0.07585 0.0
H1768 H 0.19602 0.84538 0.07782 0.0
H1769 H 0.21551 0.84444 0.041 0.0
H1770 H 0.175 0.92208 1.01852 0.0
H1771 H 0.19377 0.94537 1.01453 0.0
H1772 H 0.17983 0.94048 0.04099 0.0
H1773 H 0.2247 0.94062 0.05889 0.0
H1774 H 0.23879 0.94545 0.03247 0.0
H1775 H 0.25052 0.92226 0.04872 0.0
H1776 H 0.23462 0.85113 1.00381 0.0
H1777 H 0.25178 0.86508 0.96911 0.0
H1778 H 0.23424 0.93178 0.9915 0.0
C1779 C 0.19556 0.90072 0.06867 0.0
C1780 C 0.19125 0.88103 0.07991 0.0
C1781 C 0.19859 0.86073 0.0696 0.0
C1782 C 0.2099 0.86001 0.04867 0.0
C1783 C 0.2139 0.8797 0.03815 0.0
C1784 C 0.20696 0.89968 0.04779 0.0
C1785 C 0.21344 0.91845 0.03297 0.0
C1786 C 0.18906 0.93241 0.02636 0.0
C1787 C 0.23303 0.93252 0.04392 0.0
C1788 C 0.22514 0.90589 1.01352 0.0
C1789 C 0.22517 0.88355 1.01682 0.0
C1790 C 0.23468 0.8686 1.00105 0.0
C1791 C 0.2443 0.87668 0.98133 0.0
C1792 C 0.24444 0.89952 0.97751 0.0
C1793 C 0.23479 0.91424 0.99397 0.0
H1794 H 0.10325 0.68674 0.58965 0.0
H1795 H 0.18601 0.67914 0.59634 0.0
H1796 H 0.19059 0.69611 0.55962 0.0
H1797 H 0.09975 0.67657 0.53127 0.0
H1798 H 0.07352 0.69696 0.52754 0.0
H1799 H 0.07733 0.68274 0.55333 0.0
H1800 H 0.07776 0.71998 0.57354 0.0
H1801 H 0.07425 0.73432 0.54781 0.0
H1802 H 0.10079 0.73911 0.56556 0.0
H1803 H 0.18535 0.71505 0.52196 0.0
H1804 H 0.17106 0.73426 0.48785 0.0
H1805 H 0.09186 0.73047 0.50776 0.0
C1806 C 0.12244 0.68826 0.58337 0.0
C1807 C 0.14432 0.68138 0.59586 0.0
C1808 C 0.16898 0.6841 0.58702 0.0
C1809 C 0.17174 0.69377 0.56621 0.0
C1810 C 0.14964 0.70075 0.55457 0.0
C1811 C 0.12549 0.69807 0.56293 0.0
C1812 C 0.10466 0.70777 0.54792 0.0
C1813 C 0.08783 0.68994 0.53951 0.0
C1814 C 0.08842 0.7264 0.55939 0.0
C1815 C 0.12075 0.71647 0.52968 0.0
C1816 C 0.14666 0.71215 0.53364 0.0
C1817 C 0.16511 0.71848 0.51879 0.0
C1818 C 0.15683 0.72935 0.49945 0.0
C1819 C 0.13036 0.73402 0.49521 0.0
C1820 C 0.11221 0.7275 0.51067 0.0
H1821 H 0.32078 0.63243 0.09376 0.0
H1822 H 0.37704 0.68114 0.08895 0.0
H1823 H 0.3672 0.68593 0.04968 0.0
H1824 H 0.33433 0.60756 0.04044 0.0
H1825 H 0.30124 0.6029 0.03521 0.0
H1826 H 0.31289 0.60315 0.06299 0.0
H1827 H 0.27744 0.63328 0.07297 0.0
H1828 H 0.26578 0.63321 0.0452 0.0
H1829 H 0.2748 0.65837 0.05737 0.0
H1830 H 0.35051 0.68618 1.011 0.0
H1831 H 0.32899 0.68123 0.97568 0.0
H1832 H 0.28478 0.63126 1.00515 0.0
C1833 C 0.33129 0.64392 0.08446 0.0
C1834 C 0.34963 0.65649 0.09467 0.0
C1835 C 0.36262 0.67155 0.08176 0.0
C1836 C 0.35727 0.67431 0.05934 0.0
C1837 C 0.33894 0.66185 0.04991 0.0
C1838 C 0.32623 0.64686 0.06201 0.0
C1839 C 0.30725 0.63562 0.04788 0.0
C1840 C 0.31436 0.61084 0.04655 0.0
C1841 C 0.27969 0.64042 0.05637 0.0
C1842 C 0.31121 0.64671 0.02599 0.0
C1843 C 0.32956 0.66178 0.02753 0.0
C1844 C 0.33625 0.67428 1.00956 0.0
C1845 C 0.32396 0.67123 0.98946 0.0
C1846 C 0.30516 0.65574 0.98733 0.0
C1847 C 0.29882 0.64338 1.00602 0.0
loop_
_geom_bond_atom_site_label_1
_geom_bond_atom_site_label_2
_geom_bond_distance
_geom_bond_site_symmetry_2
_ccdc_geom_bond_type
Cu0 N1 1.999 . S
Cu0 O6 1.974 . S
Cu0 N11 1.985 . S
Cu0 O20 1.959 . S
N1 Cu0 1.999 . S
N1 C3 1.263 . S
N1 C5 1.389 . S
N2 C3 1.358 . S
N2 C4 1.400 . S
C3 N1 1.263 . S
C3 N2 1.358 . S
C3 H9 0.930 . S
C4 N2 1.400 . S
C4 C5 1.351 . S
C4 H21 0.930 . S
C5 N1 1.389 . S
C5 C4 1.351 . S
C5 H10 0.930 . S
O6 Cu0 1.974 . S
O6 C16 1.282 . S
C7 O8 1.261 . S
C7 O20 1.251 . S
O8 C7 1.261 . S
H9 C3 0.930 . S
H10 C5 0.930 . S
N11 Cu0 1.985 . S
N11 C13 1.335 . S
N11 C14 1.390 . S
N12 C13 1.345 . S
N12 C15 1.336 . S
C13 N11 1.335 . S
C13 N12 1.345 . S
C13 H18 0.930 . S
C14 N11 1.390 . S
C14 C15 1.346 . S
C14 H19 0.930 . S
C15 N12 1.336 . S
C15 C14 1.346 . S
C15 H22 0.929 . S
C16 O6 1.282 . S
C16 O17 1.216 . S
O17 C16 1.216 . S
H18 C13 0.930 . S
H19 C14 0.930 . S
O20 Cu0 1.959 . S
O20 C7 1.251 . S
H21 C4 0.930 . S
H22 C15 0.929 . S
Cu23 N24 1.999 . S
Cu23 O29 1.974 . S
Cu23 N34 1.985 . S
Cu23 O43 1.959 . S
N24 Cu23 1.999 . S
N24 C26 1.263 . S
N24 C28 1.389 . S
N25 C26 1.358 . S
N25 C27 1.400 . S
C26 N24 1.263 . S
C26 N25 1.358 . S
C26 H32 0.930 . S
C27 N25 1.400 . S
C27 C28 1.351 . S
C27 H44 0.930 . S
C28 N24 1.389 . S
C28 C27 1.351 . S
C28 H33 0.930 . S
O29 Cu23 1.974 . S
O29 C39 1.282 . S
C30 O31 1.261 . S
C30 O43 1.251 . S
O31 C30 1.261 . S
H32 C26 0.930 . S
H33 C28 0.930 . S
N34 Cu23 1.985 . S
N34 C36 1.335 . S
N34 C37 1.390 . S
N35 C36 1.345 . S
N35 C38 1.336 . S
C36 N34 1.335 . S
C36 N35 1.345 . S
C36 H41 0.930 . S
C37 N34 1.390 . S
C37 C38 1.346 . S
C37 H42 0.930 . S
C38 N35 1.336 . S
C38 C37 1.346 . S
C38 H45 0.929 . S
C39 O29 1.282 . S
C39 O40 1.216 . S
O40 C39 1.216 . S
H41 C36 0.930 . S
H42 C37 0.930 . S
O43 Cu23 1.959 . S
O43 C30 1.251 . S
H44 C27 0.930 . S
H45 C38 0.929 . S
Cu46 N47 1.999 . S
Cu46 O52 1.974 . S
Cu46 N57 1.985 . S
Cu46 O66 1.959 . S
N47 Cu46 1.999 . S
N47 C49 1.263 . S
N47 C51 1.389 . S
N48 C49 1.358 . S
N48 C50 1.400 . S
C49 N47 1.263 . S
C49 N48 1.358 . S
C49 H55 0.930 . S
C50 N48 1.400 . S
C50 C51 1.351 . S
C50 H67 0.930 . S
C51 N47 1.389 . S
C51 C50 1.351 . S
C51 H56 0.930 . S
O52 Cu46 1.974 . S
O52 C62 1.282 . S
C53 O54 1.261 . S
C53 O66 1.251 . S
O54 C53 1.261 . S
H55 C49 0.930 . S
H56 C51 0.930 . S
N57 Cu46 1.985 . S
N57 C59 1.335 . S
N57 C60 1.390 . S
N58 C59 1.345 . S
N58 C61 1.336 . S
C59 N57 1.335 . S
C59 N58 1.345 . S
C59 H64 0.930 . S
C60 N57 1.390 . S
C60 C61 1.346 . S
C60 H65 0.930 . S
C61 N58 1.336 . S
C61 C60 1.346 . S
C61 H68 0.929 . S
C62 O52 1.282 . S
C62 O63 1.216 . S
O63 C62 1.216 . S
H64 C59 0.930 . S
H65 C60 0.930 . S
O66 Cu46 1.959 . S
O66 C53 1.251 . S
H67 C50 0.930 . S
H68 C61 0.929 . S
Cu69 N70 1.999 . S
Cu69 O75 1.974 . S
Cu69 N80 1.985 . S
Cu69 O89 1.959 . S
N70 Cu69 1.999 . S
N70 C72 1.263 . S
N70 C74 1.389 . S
N71 C72 1.358 . S
N71 C73 1.400 . S
C72 N70 1.263 . S
C72 N71 1.358 . S
C72 H78 0.930 . S
C73 N71 1.400 . S
C73 C74 1.351 . S
C73 H90 0.930 . S
C74 N70 1.389 . S
C74 C73 1.351 . S
C74 H79 0.930 . S
O75 Cu69 1.974 . S
O75 C85 1.282 . S
C76 O77 1.261 . S
C76 O89 1.251 . S
O77 C76 1.261 . S
H78 C72 0.930 . S
H79 C74 0.930 . S
N80 Cu69 1.985 . S
N80 C82 1.335 . S
N80 C83 1.390 . S
N81 C82 1.345 . S
N81 C84 1.336 . S
C82 N80 1.335 . S
C82 N81 1.345 . S
C82 H87 0.930 . S
C83 N80 1.390 . S
C83 C84 1.346 . S
C83 H88 0.930 . S
C84 N81 1.336 . S
C84 C83 1.346 . S
C84 H91 0.929 . S
C85 O75 1.282 . S
C85 O86 1.216 . S
O86 C85 1.216 . S
H87 C82 0.930 . S
H88 C83 0.930 . S
O89 Cu69 1.959 . S
O89 C76 1.251 . S
H90 C73 0.930 . S
H91 C84 0.929 . S
Cu92 N93 1.999 . S
Cu92 O98 1.974 . S
Cu92 N103 1.985 . S
Cu92 O112 1.959 . S
N93 Cu92 1.999 . S
N93 C95 1.263 . S
N93 C97 1.389 . S
N94 C95 1.358 . S
N94 C96 1.400 . S
C95 N93 1.263 . S
C95 N94 1.358 . S
C95 H101 0.930 . S
C96 N94 1.400 . S
C96 C97 1.351 . S
C96 H113 0.930 . S
C97 N93 1.389 . S
C97 C96 1.351 . S
C97 H102 0.930 . S
O98 Cu92 1.974 . S
O98 C108 1.282 . S
C99 O100 1.261 . S
C99 O112 1.251 . S
O100 C99 1.261 . S
H101 C95 0.930 . S
H102 C97 0.930 . S
N103 Cu92 1.985 . S
N103 C105 1.335 . S
N103 C106 1.390 . S
N104 C105 1.345 . S
N104 C107 1.336 . S
C105 N103 1.335 . S
C105 N104 1.345 . S
C105 H110 0.930 . S
C106 N103 1.390 . S
C106 C107 1.346 . S
C106 H111 0.930 . S
C107 N104 1.336 . S
C107 C106 1.346 . S
C107 H114 0.929 . S
C108 O98 1.282 . S
C108 O109 1.216 . S
O109 C108 1.216 . S
H110 C105 0.930 . S
H111 C106 0.930 . S
O112 Cu92 1.959 . S
O112 C99 1.251 . S
H113 C96 0.930 . S
H114 C107 0.929 . S
Cu115 N116 1.999 . S
Cu115 O121 1.974 . S
Cu115 N126 1.985 . S
Cu115 O135 1.959 . S
N116 Cu115 1.999 . S
N116 C118 1.263 . S
N116 C120 1.389 . S
N117 C118 1.358 . S
N117 C119 1.400 . S
C118 N116 1.263 . S
C118 N117 1.358 . S
C118 H124 0.930 . S
C119 N117 1.400 . S
C119 C120 1.351 . S
C119 H136 0.930 . S
C120 N116 1.389 . S
C120 C119 1.351 . S
C120 H125 0.930 . S
O121 Cu115 1.974 . S
O121 C131 1.282 . S
C122 O123 1.261 . S
C122 O135 1.251 . S
O123 C122 1.261 . S
H124 C118 0.930 . S
H125 C120 0.930 . S
N126 Cu115 1.985 . S
N126 C128 1.335 . S
N126 C129 1.390 . S
N127 C128 1.345 . S
N127 C130 1.336 . S
C128 N126 1.335 . S
C128 N127 1.345 . S
C128 H133 0.930 . S
C129 N126 1.390 . S
C129 C130 1.346 . S
C129 H134 0.930 . S
C130 N127 1.336 . S
C130 C129 1.346 . S
C130 H137 0.929 . S
C131 O121 1.282 . S
C131 O132 1.216 . S
O132 C131 1.216 . S
H133 C128 0.930 . S
H134 C129 0.930 . S
O135 Cu115 1.959 . S
O135 C122 1.251 . S
H136 C119 0.930 . S
H137 C130 0.929 . S
Cu138 N139 1.999 . S
Cu138 O144 1.974 . S
Cu138 N149 1.985 . S
Cu138 O158 1.959 . S
N139 Cu138 1.999 . S
N139 C141 1.263 . S
N139 C143 1.389 . S
N140 C141 1.358 . S
N140 C142 1.400 . S
C141 N139 1.263 . S
C141 N140 1.358 . S
C141 H147 0.930 . S
C142 N140 1.400 . S
C142 C143 1.351 . S
C142 H159 0.930 . S
C143 N139 1.389 . S
C143 C142 1.351 . S
C143 H148 0.930 . S
O144 Cu138 1.974 . S
O144 C154 1.282 . S
C145 O146 1.261 . S
C145 O158 1.251 . S
O146 C145 1.261 . S
H147 C141 0.930 . S
H148 C143 0.930 . S
N149 Cu138 1.985 . S
N149 C151 1.335 . S
N149 C152 1.390 . S
N150 C151 1.345 . S
N150 C153 1.336 . S
C151 N149 1.335 . S
C151 N150 1.345 . S
C151 H156 0.930 . S
C152 N149 1.390 . S
C152 C153 1.346 . S
C152 H157 0.930 . S
C153 N150 1.336 . S
C153 C152 1.346 . S
C153 H160 0.929 . S
C154 O144 1.282 . S
C154 O155 1.216 . S
O155 C154 1.216 . S
H156 C151 0.930 . S
H157 C152 0.930 . S
O158 Cu138 1.959 . S
O158 C145 1.251 . S
H159 C142 0.930 . S
H160 C153 0.929 . S
Cu161 N162 1.999 . S
Cu161 O167 1.974 . S
Cu161 N172 1.985 . S
Cu161 O181 1.959 . S
N162 Cu161 1.999 . S
N162 C164 1.263 . S
N162 C166 1.389 . S
N163 C164 1.358 . S
N163 C165 1.400 . S
C164 N162 1.263 . S
C164 N163 1.358 . S
C164 H170 0.930 . S
C165 N163 1.400 . S
C165 C166 1.351 . S
C165 H182 0.930 . S
C166 N162 1.389 . S
C166 C165 1.351 . S
C166 H171 0.930 . S
O167 Cu161 1.974 . S
O167 C177 1.282 . S
C168 O169 1.261 . S
C168 O181 1.251 . S
O169 C168 1.261 . S
H170 C164 0.930 . S
H171 C166 0.930 . S
N172 Cu161 1.985 . S
N172 C174 1.335 . S
N172 C175 1.390 . S
N173 C174 1.345 . S
N173 C176 1.336 . S
C174 N172 1.335 . S
C174 N173 1.345 . S
C174 H179 0.930 . S
C175 N172 1.390 . S
C175 C176 1.346 . S
C175 H180 0.930 . S
C176 N173 1.336 . S
C176 C175 1.346 . S
C176 H183 0.929 . S
C177 O167 1.282 . S
C177 O178 1.216 . S
O178 C177 1.216 . S
H179 C174 0.930 . S
H180 C175 0.930 . S
O181 Cu161 1.959 . S
O181 C168 1.251 . S
H182 C165 0.930 . S
H183 C176 0.929 . S
Cu184 N185 1.999 . S
Cu184 O190 1.974 . S
Cu184 N195 1.985 . S
Cu184 O204 1.959 . S
N185 Cu184 1.999 . S
N185 C187 1.263 . S
N185 C189 1.389 . S
N186 C187 1.358 . S
N186 C188 1.400 . S
C187 N185 1.263 . S
C187 N186 1.358 . S
C187 H193 0.930 . S
C188 N186 1.400 . S
C188 C189 1.351 . S
C188 H205 0.930 . S
C189 N185 1.389 . S
C189 C188 1.351 . S
C189 H194 0.930 . S
O190 Cu184 1.974 . S
O190 C200 1.282 . S
C191 O192 1.261 . S
C191 O204 1.251 . S
O192 C191 1.261 . S
H193 C187 0.930 . S
H194 C189 0.930 . S
N195 Cu184 1.985 . S
N195 C197 1.335 . S
N195 C198 1.390 . S
N196 C197 1.345 . S
N196 C199 1.336 . S
C197 N195 1.335 . S
C197 N196 1.345 . S
C197 H202 0.930 . S
C198 N195 1.390 . S
C198 C199 1.346 . S
C198 H203 0.930 . S
C199 N196 1.336 . S
C199 C198 1.346 . S
C199 H206 0.929 . S
C200 O190 1.282 . S
C200 O201 1.216 . S
O201 C200 1.216 . S
H202 C197 0.930 . S
H203 C198 0.930 . S
O204 Cu184 1.959 . S
O204 C191 1.251 . S
H205 C188 0.930 . S
H206 C199 0.929 . S
Cu207 N208 1.999 . S
Cu207 O213 1.974 . S
Cu207 N218 1.985 . S
Cu207 O227 1.959 . S
N208 Cu207 1.999 . S
N208 C210 1.263 . S
N208 C212 1.389 . S
N209 C210 1.358 . S
N209 C211 1.400 . S
C210 N208 1.263 . S
C210 N209 1.358 . S
C210 H216 0.930 . S
C211 N209 1.400 . S
C211 C212 1.351 . S
C211 H228 0.930 . S
C212 N208 1.389 . S
C212 C211 1.351 . S
C212 H217 0.930 . S
O213 Cu207 1.974 . S
O213 C223 1.282 . S
C214 O215 1.261 . S
C214 O227 1.251 . S
O215 C214 1.261 . S
H216 C210 0.930 . S
H217 C212 0.930 . S
N218 Cu207 1.985 . S
N218 C220 1.335 . S
N218 C221 1.390 . S
N219 C220 1.345 . S
N219 C222 1.336 . S
C220 N218 1.335 . S
C220 N219 1.345 . S
C220 H225 0.930 . S
C221 N218 1.390 . S
C221 C222 1.346 . S
C221 H226 0.930 . S
C222 N219 1.336 . S
C222 C221 1.346 . S
C222 H229 0.929 . S
C223 O213 1.282 . S
C223 O224 1.216 . S
O224 C223 1.216 . S
H225 C220 0.930 . S
H226 C221 0.930 . S
O227 Cu207 1.959 . S
O227 C214 1.251 . S
H228 C211 0.930 . S
H229 C222 0.929 . S
Cu230 N231 1.999 . S
Cu230 O236 1.974 . S
Cu230 N241 1.985 . S
Cu230 O250 1.959 . S
N231 Cu230 1.999 . S
N231 C233 1.263 . S
N231 C235 1.389 . S
N232 C233 1.358 . S
N232 C234 1.400 . S
C233 N231 1.263 . S
C233 N232 1.358 . S
C233 H239 0.930 . S
C234 N232 1.400 . S
C234 C235 1.351 . S
C234 H251 0.930 . S
C235 N231 1.389 . S
C235 C234 1.351 . S
C235 H240 0.930 . S
O236 Cu230 1.974 . S
O236 C246 1.282 . S
C237 O238 1.261 . S
C237 O250 1.251 . S
O238 C237 1.261 . S
H239 C233 0.930 . S
H240 C235 0.930 . S
N241 Cu230 1.985 . S
N241 C243 1.335 . S
N241 C244 1.390 . S
N242 C243 1.345 . S
N242 C245 1.336 . S
C243 N241 1.335 . S
C243 N242 1.345 . S
C243 H248 0.930 . S
C244 N241 1.390 . S
C244 C245 1.346 . S
C244 H249 0.930 . S
C245 N242 1.336 . S
C245 C244 1.346 . S
C245 H252 0.929 . S
C246 O236 1.282 . S
C246 O247 1.216 . S
O247 C246 1.216 . S
H248 C243 0.930 . S
H249 C244 0.930 . S
O250 Cu230 1.959 . S
O250 C237 1.251 . S
H251 C234 0.930 . S
H252 C245 0.929 . S
Cu253 N254 1.999 . S
Cu253 O259 1.974 . S
Cu253 N264 1.985 . S
Cu253 O273 1.959 . S
N254 Cu253 1.999 . S
N254 C256 1.263 . S
N254 C258 1.389 . S
N255 C256 1.358 . S
N255 C257 1.400 . S
C256 N254 1.263 . S
C256 N255 1.358 . S
C256 H262 0.930 . S
C257 N255 1.400 . S
C257 C258 1.351 . S
C257 H274 0.930 . S
C258 N254 1.389 . S
C258 C257 1.351 . S
C258 H263 0.930 . S
O259 Cu253 1.974 . S
O259 C269 1.282 . S
C260 O261 1.261 . S
C260 O273 1.251 . S
O261 C260 1.261 . S
H262 C256 0.930 . S
H263 C258 0.930 . S
N264 Cu253 1.985 . S
N264 C266 1.335 . S
N264 C267 1.390 . S
N265 C266 1.345 . S
N265 C268 1.336 . S
C266 N264 1.335 . S
C266 N265 1.345 . S
C266 H271 0.930 . S
C267 N264 1.390 . S
C267 C268 1.346 . S
C267 H272 0.930 . S
C268 N265 1.336 . S
C268 C267 1.346 . S
C268 H275 0.929 . S
C269 O259 1.282 . S
C269 O270 1.216 . S
O270 C269 1.216 . S
H271 C266 0.930 . S
H272 C267 0.930 . S
O273 Cu253 1.959 . S
O273 C260 1.251 . S
H274 C257 0.930 . S
H275 C268 0.929 . S
Cu276 N277 1.999 . S
Cu276 O282 1.974 . S
Cu276 N287 1.985 . S
Cu276 O296 1.959 . S
N277 Cu276 1.999 . S
N277 C279 1.263 . S
N277 C281 1.389 . S
N278 C279 1.358 . S
N278 C280 1.400 . S
C279 N277 1.263 . S
C279 N278 1.358 . S
C279 H285 0.930 . S
C280 N278 1.400 . S
C280 C281 1.351 . S
C280 H297 0.930 . S
C281 N277 1.389 . S
C281 C280 1.351 . S
C281 H286 0.930 . S
O282 Cu276 1.974 . S
O282 C292 1.282 . S
C283 O284 1.261 . S
C283 O296 1.251 . S
O284 C283 1.261 . S
H285 C279 0.930 . S
H286 C281 0.930 . S
N287 Cu276 1.985 . S
N287 C289 1.335 . S
N287 C290 1.390 . S
N288 C289 1.345 . S
N288 C291 1.336 . S
C289 N287 1.335 . S
C289 N288 1.345 . S
C289 H294 0.930 . S
C290 N287 1.390 . S
C290 C291 1.346 . S
C290 H295 0.930 . S
C291 N288 1.336 . S
C291 C290 1.346 . S
C291 H298 0.929 . S
C292 O282 1.282 . S
C292 O293 1.216 . S
O293 C292 1.216 . S
H294 C289 0.930 . S
H295 C290 0.930 . S
O296 Cu276 1.959 . S
O296 C283 1.251 . S
H297 C280 0.930 . S
H298 C291 0.929 . S
Cu299 N300 1.999 . S
Cu299 O305 1.974 . S
Cu299 N310 1.985 . S
Cu299 O319 1.959 . S
N300 Cu299 1.999 . S
N300 C302 1.263 . S
N300 C304 1.389 . S
N301 C302 1.358 . S
N301 C303 1.400 . S
C302 N300 1.263 . S
C302 N301 1.358 . S
C302 H308 0.930 . S
C303 N301 1.400 . S
C303 C304 1.351 . S
C303 H320 0.930 . S
C304 N300 1.389 . S
C304 C303 1.351 . S
C304 H309 0.930 . S
O305 Cu299 1.974 . S
O305 C315 1.282 . S
C306 O307 1.261 . S
C306 O319 1.251 . S
O307 C306 1.261 . S
H308 C302 0.930 . S
H309 C304 0.930 . S
N310 Cu299 1.985 . S
N310 C312 1.335 . S
N310 C313 1.390 . S
N311 C312 1.345 . S
N311 C314 1.336 . S
C312 N310 1.335 . S
C312 N311 1.345 . S
C312 H317 0.930 . S
C313 N310 1.390 . S
C313 C314 1.346 . S
C313 H318 0.930 . S
C314 N311 1.336 . S
C314 C313 1.346 . S
C314 H321 0.929 . S
C315 O305 1.282 . S
C315 O316 1.216 . S
O316 C315 1.216 . S
H317 C312 0.930 . S
H318 C313 0.930 . S
O319 Cu299 1.959 . S
O319 C306 1.251 . S
H320 C303 0.930 . S
H321 C314 0.929 . S
Cu322 N323 1.999 . S
Cu322 O328 1.974 . S
Cu322 N333 1.985 . S
Cu322 O342 1.959 . S
N323 Cu322 1.999 . S
N323 C325 1.263 . S
N323 C327 1.389 . S
N324 C325 1.358 . S
N324 C326 1.400 . S
C325 N323 1.263 . S
C325 N324 1.358 . S
C325 H331 0.930 . S
C326 N324 1.400 . S
C326 C327 1.351 . S
C326 H343 0.930 . S
C327 N323 1.389 . S
C327 C326 1.351 . S
C327 H332 0.930 . S
O328 Cu322 1.974 . S
O328 C338 1.282 . S
C329 O330 1.261 . S
C329 O342 1.251 . S
O330 C329 1.261 . S
H331 C325 0.930 . S
H332 C327 0.930 . S
N333 Cu322 1.985 . S
N333 C335 1.335 . S
N333 C336 1.390 . S
N334 C335 1.345 . S
N334 C337 1.336 . S
C335 N333 1.335 . S
C335 N334 1.345 . S
C335 H340 0.930 . S
C336 N333 1.390 . S
C336 C337 1.346 . S
C336 H341 0.930 . S
C337 N334 1.336 . S
C337 C336 1.346 . S
C337 H344 0.929 . S
C338 O328 1.282 . S
C338 O339 1.216 . S
O339 C338 1.216 . S
H340 C335 0.930 . S
H341 C336 0.930 . S
O342 Cu322 1.959 . S
O342 C329 1.251 . S
H343 C326 0.930 . S
H344 C337 0.929 . S
Cu345 N346 1.999 . S
Cu345 O351 1.974 . S
Cu345 N356 1.985 . S
Cu345 O365 1.959 . S
N346 Cu345 1.999 . S
N346 C348 1.263 . S
N346 C350 1.389 . S
N347 C348 1.358 . S
N347 C349 1.400 . S
C348 N346 1.263 . S
C348 N347 1.358 . S
C348 H354 0.930 . S
C349 N347 1.400 . S
C349 C350 1.351 . S
C349 H366 0.930 . S
C350 N346 1.389 . S
C350 C349 1.351 . S
C350 H355 0.930 . S
O351 Cu345 1.974 . S
O351 C361 1.282 . S
C352 O353 1.261 . S
C352 O365 1.251 . S
O353 C352 1.261 . S
H354 C348 0.930 . S
H355 C350 0.930 . S
N356 Cu345 1.985 . S
N356 C358 1.335 . S
N356 C359 1.390 . S
N357 C358 1.345 . S
N357 C360 1.336 . S
C358 N356 1.335 . S
C358 N357 1.345 . S
C358 H363 0.930 . S
C359 N356 1.390 . S
C359 C360 1.346 . S
C359 H364 0.930 . S
C360 N357 1.336 . S
C360 C359 1.346 . S
C360 H367 0.929 . S
C361 O351 1.282 . S
C361 O362 1.216 . S
O362 C361 1.216 . S
H363 C358 0.930 . S
H364 C359 0.930 . S
O365 Cu345 1.959 . S
O365 C352 1.251 . S
H366 C349 0.930 . S
H367 C360 0.929 . S
Cu368 N369 1.999 . S
Cu368 O374 1.974 . S
Cu368 N379 1.985 . S
Cu368 O388 1.959 . S
N369 Cu368 1.999 . S
N369 C371 1.263 . S
N369 C373 1.389 . S
N370 C371 1.358 . S
N370 C372 1.400 . S
C371 N369 1.263 . S
C371 N370 1.358 . S
C371 H377 0.930 . S
C372 N370 1.400 . S
C372 C373 1.351 . S
C372 H389 0.930 . S
C373 N369 1.389 . S
C373 C372 1.351 . S
C373 H378 0.930 . S
O374 Cu368 1.974 . S
O374 C384 1.282 . S
C375 O376 1.261 . S
C375 O388 1.251 . S
O376 C375 1.261 . S
H377 C371 0.930 . S
H378 C373 0.930 . S
N379 Cu368 1.985 . S
N379 C381 1.335 . S
N379 C382 1.390 . S
N380 C381 1.345 . S
N380 C383 1.336 . S
C381 N379 1.335 . S
C381 N380 1.345 . S
C381 H386 0.930 . S
C382 N379 1.390 . S
C382 C383 1.346 . S
C382 H387 0.930 . S
C383 N380 1.336 . S
C383 C382 1.346 . S
C383 H390 0.929 . S
C384 O374 1.282 . S
C384 O385 1.216 . S
O385 C384 1.216 . S
H386 C381 0.930 . S
H387 C382 0.930 . S
O388 Cu368 1.959 . S
O388 C375 1.251 . S
H389 C372 0.930 . S
H390 C383 0.929 . S
Cu391 N392 1.999 . S
Cu391 O397 1.974 . S
Cu391 N402 1.985 . S
Cu391 O411 1.959 . S
N392 Cu391 1.999 . S
N392 C394 1.263 . S
N392 C396 1.389 . S
N393 C394 1.358 . S
N393 C395 1.400 . S
C394 N392 1.263 . S
C394 N393 1.358 . S
C394 H400 0.930 . S
C395 N393 1.400 . S
C395 C396 1.351 . S
C395 H412 0.930 . S
C396 N392 1.389 . S
C396 C395 1.351 . S
C396 H401 0.930 . S
O397 Cu391 1.974 . S
O397 C407 1.282 . S
C398 O399 1.261 . S
C398 O411 1.251 . S
O399 C398 1.261 . S
H400 C394 0.930 . S
H401 C396 0.930 . S
N402 Cu391 1.985 . S
N402 C404 1.335 . S
N402 C405 1.390 . S
N403 C404 1.345 . S
N403 C406 1.336 . S
C404 N402 1.335 . S
C404 N403 1.345 . S
C404 H409 0.930 . S
C405 N402 1.390 . S
C405 C406 1.346 . S
C405 H410 0.930 . S
C406 N403 1.336 . S
C406 C405 1.346 . S
C406 H413 0.929 . S
C407 O397 1.282 . S
C407 O408 1.216 . S
O408 C407 1.216 . S
H409 C404 0.930 . S
H410 C405 0.930 . S
O411 Cu391 1.959 . S
O411 C398 1.251 . S
H412 C395 0.930 . S
H413 C406 0.929 . S
Cu414 N415 1.999 . S
Cu414 O420 1.974 . S
Cu414 N425 1.985 . S
Cu414 O434 1.959 . S
N415 Cu414 1.999 . S
N415 C417 1.263 . S
N415 C419 1.389 . S
N416 C417 1.358 . S
N416 C418 1.400 . S
C417 N415 1.263 . S
C417 N416 1.358 . S
C417 H423 0.930 . S
C418 N416 1.400 . S
C418 C419 1.351 . S
C418 H435 0.930 . S
C419 N415 1.389 . S
C419 C418 1.351 . S
C419 H424 0.930 . S
O420 Cu414 1.974 . S
O420 C430 1.282 . S
C421 O422 1.261 . S
C421 O434 1.251 . S
O422 C421 1.261 . S
H423 C417 0.930 . S
H424 C419 0.930 . S
N425 Cu414 1.985 . S
N425 C427 1.335 . S
N425 C428 1.390 . S
N426 C427 1.345 . S
N426 C429 1.336 . S
C427 N425 1.335 . S
C427 N426 1.345 . S
C427 H432 0.930 . S
C428 N425 1.390 . S
C428 C429 1.346 . S
C428 H433 0.930 . S
C429 N426 1.336 . S
C429 C428 1.346 . S
C429 H436 0.929 . S
C430 O420 1.282 . S
C430 O431 1.216 . S
O431 C430 1.216 . S
H432 C427 0.930 . S
H433 C428 0.930 . S
O434 Cu414 1.959 . S
O434 C421 1.251 . S
H435 C418 0.930 . S
H436 C429 0.929 . S
Cu437 N438 1.999 . S
Cu437 O443 1.974 . S
Cu437 N448 1.985 . S
Cu437 O457 1.959 . S
N438 Cu437 1.999 . S
N438 C440 1.263 . S
N438 C442 1.389 . S
N439 C440 1.358 . S
N439 C441 1.400 . S
C440 N438 1.263 . S
C440 N439 1.358 . S
C440 H446 0.930 . S
C441 N439 1.400 . S
C441 C442 1.351 . S
C441 H458 0.930 . S
C442 N438 1.389 . S
C442 C441 1.351 . S
C442 H447 0.930 . S
O443 Cu437 1.974 . S
O443 C453 1.282 . S
C444 O445 1.261 . S
C444 O457 1.251 . S
O445 C444 1.261 . S
H446 C440 0.930 . S
H447 C442 0.930 . S
N448 Cu437 1.985 . S
N448 C450 1.335 . S
N448 C451 1.390 . S
N449 C450 1.345 . S
N449 C452 1.336 . S
C450 N448 1.335 . S
C450 N449 1.345 . S
C450 H455 0.930 . S
C451 N448 1.390 . S
C451 C452 1.346 . S
C451 H456 0.930 . S
C452 N449 1.336 . S
C452 C451 1.346 . S
C452 H459 0.929 . S
C453 O443 1.282 . S
C453 O454 1.216 . S
O454 C453 1.216 . S
H455 C450 0.930 . S
H456 C451 0.930 . S
O457 Cu437 1.959 . S
O457 C444 1.251 . S
H458 C441 0.930 . S
H459 C452 0.929 . S
Cu460 N461 1.999 . S
Cu460 O466 1.974 . S
Cu460 N471 1.985 . S
Cu460 O480 1.959 . S
N461 Cu460 1.999 . S
N461 C463 1.263 . S
N461 C465 1.389 . S
N462 C463 1.358 . S
N462 C464 1.400 . S
C463 N461 1.263 . S
C463 N462 1.358 . S
C463 H469 0.930 . S
C464 N462 1.400 . S
C464 C465 1.351 . S
C464 H481 0.930 . S
C465 N461 1.389 . S
C465 C464 1.351 . S
C465 H470 0.930 . S
O466 Cu460 1.974 . S
O466 C476 1.282 . S
C467 O468 1.261 . S
C467 O480 1.251 . S
O468 C467 1.261 . S
H469 C463 0.930 . S
H470 C465 0.930 . S
N471 Cu460 1.985 . S
N471 C473 1.335 . S
N471 C474 1.390 . S
N472 C473 1.345 . S
N472 C475 1.336 . S
C473 N471 1.335 . S
C473 N472 1.345 . S
C473 H478 0.930 . S
C474 N471 1.390 . S
C474 C475 1.346 . S
C474 H479 0.930 . S
C475 N472 1.336 . S
C475 C474 1.346 . S
C475 H482 0.929 . S
C476 O466 1.282 . S
C476 O477 1.216 . S
O477 C476 1.216 . S
H478 C473 0.930 . S
H479 C474 0.930 . S
O480 Cu460 1.959 . S
O480 C467 1.251 . S
H481 C464 0.930 . S
H482 C475 0.929 . S
Cu483 N484 1.999 . S
Cu483 O489 1.974 . S
Cu483 N494 1.985 . S
Cu483 O503 1.959 . S
N484 Cu483 1.999 . S
N484 C486 1.263 . S
N484 C488 1.389 . S
N485 C486 1.358 . S
N485 C487 1.400 . S
C486 N484 1.263 . S
C486 N485 1.358 . S
C486 H492 0.930 . S
C487 N485 1.400 . S
C487 C488 1.351 . S
C487 H504 0.930 . S
C488 N484 1.389 . S
C488 C487 1.351 . S
C488 H493 0.930 . S
O489 Cu483 1.974 . S
O489 C499 1.282 . S
C490 O491 1.261 . S
C490 O503 1.251 . S
O491 C490 1.261 . S
H492 C486 0.930 . S
H493 C488 0.930 . S
N494 Cu483 1.985 . S
N494 C496 1.335 . S
N494 C497 1.390 . S
N495 C496 1.345 . S
N495 C498 1.336 . S
C496 N494 1.335 . S
C496 N495 1.345 . S
C496 H501 0.930 . S
C497 N494 1.390 . S
C497 C498 1.346 . S
C497 H502 0.930 . S
C498 N495 1.336 . S
C498 C497 1.346 . S
C498 H505 0.929 . S
C499 O489 1.282 . S
C499 O500 1.216 . S
O500 C499 1.216 . S
H501 C496 0.930 . S
H502 C497 0.930 . S
O503 Cu483 1.959 . S
O503 C490 1.251 . S
H504 C487 0.930 . S
H505 C498 0.929 . S
Cu506 N507 1.999 . S
Cu506 O512 1.974 . S
Cu506 N517 1.985 . S
Cu506 O526 1.959 . S
N507 Cu506 1.999 . S
N507 C509 1.263 . S
N507 C511 1.389 . S
N508 C509 1.358 . S
N508 C510 1.400 . S
C509 N507 1.263 . S
C509 N508 1.358 . S
C509 H515 0.930 . S
C510 N508 1.400 . S
C510 C511 1.351 . S
C510 H527 0.930 . S
C511 N507 1.389 . S
C511 C510 1.351 . S
C511 H516 0.930 . S
O512 Cu506 1.974 . S
O512 C522 1.282 . S
C513 O514 1.261 . S
C513 O526 1.251 . S
O514 C513 1.261 . S
H515 C509 0.930 . S
H516 C511 0.930 . S
N517 Cu506 1.985 . S
N517 C519 1.335 . S
N517 C520 1.390 . S
N518 C519 1.345 . S
N518 C521 1.336 . S
C519 N517 1.335 . S
C519 N518 1.345 . S
C519 H524 0.930 . S
C520 N517 1.390 . S
C520 C521 1.346 . S
C520 H525 0.930 . S
C521 N518 1.336 . S
C521 C520 1.346 . S
C521 H528 0.929 . S
C522 O512 1.282 . S
C522 O523 1.216 . S
O523 C522 1.216 . S
H524 C519 0.930 . S
H525 C520 0.930 . S
O526 Cu506 1.959 . S
O526 C513 1.251 . S
H527 C510 0.930 . S
H528 C521 0.929 . S
Cu529 N530 1.999 . S
Cu529 O535 1.974 . S
Cu529 N540 1.985 . S
Cu529 O549 1.959 . S
N530 Cu529 1.999 . S
N530 C532 1.263 . S
N530 C534 1.389 . S
N531 C532 1.358 . S
N531 C533 1.400 . S
C532 N530 1.263 . S
C532 N531 1.358 . S
C532 H538 0.930 . S
C533 N531 1.400 . S
C533 C534 1.351 . S
C533 H550 0.930 . S
C534 N530 1.389 . S
C534 C533 1.351 . S
C534 H539 0.930 . S
O535 Cu529 1.974 . S
O535 C545 1.282 . S
C536 O537 1.261 . S
C536 O549 1.251 . S
O537 C536 1.261 . S
H538 C532 0.930 . S
H539 C534 0.930 . S
N540 Cu529 1.985 . S
N540 C542 1.335 . S
N540 C543 1.390 . S
N541 C542 1.345 . S
N541 C544 1.336 . S
C542 N540 1.335 . S
C542 N541 1.345 . S
C542 H547 0.930 . S
C543 N540 1.390 . S
C543 C544 1.346 . S
C543 H548 0.930 . S
C544 N541 1.336 . S
C544 C543 1.346 . S
C544 H551 0.929 . S
C545 O535 1.282 . S
C545 O546 1.216 . S
O546 C545 1.216 . S
H547 C542 0.930 . S
H548 C543 0.930 . S
O549 Cu529 1.959 . S
O549 C536 1.251 . S
H550 C533 0.930 . S
H551 C544 0.929 . S
H552 C564 0.930 . S
H553 C566 0.930 . S
H554 C567 0.930 . S
H555 C571 0.959 . S
H556 C571 0.959 . S
H557 C571 0.961 . S
H558 C572 0.960 . S
H559 C572 0.961 . S
H560 C572 0.959 . S
H561 C575 0.929 . S
H562 C576 0.931 . S
H563 C578 0.930 . S
C564 H552 0.930 . S
C564 C565 1.399 . S
C564 C569 1.399 . S
C565 C564 1.399 . S
C565 C566 1.376 . S
C566 H553 0.930 . S
C566 C565 1.376 . S
C566 C567 1.388 . S
C567 H554 0.930 . S
C567 C566 1.388 . S
C567 C568 1.390 . S
C568 C567 1.390 . S
C568 C569 1.394 . S
C568 C574 1.465 . S
C569 C564 1.399 . S
C569 C568 1.394 . S
C569 C570 1.516 . S
C570 C569 1.516 . S
C570 C571 1.502 . S
C570 C572 1.561 . S
C570 C573 1.526 . S
C571 H555 0.959 . S
C571 H556 0.959 . S
C571 H557 0.961 . S
C571 C570 1.502 . S
C572 H558 0.960 . S
C572 H559 0.961 . S
C572 H560 0.959 . S
C572 C570 1.561 . S
C573 C570 1.526 . S
C573 C574 1.396 . S
C573 C578 1.390 . S
C574 C568 1.465 . S
C574 C573 1.396 . S
C574 C575 1.399 . S
C575 H561 0.929 . S
C575 C574 1.399 . S
C575 C576 1.385 . S
C576 H562 0.931 . S
C576 C575 1.385 . S
C576 C577 1.389 . S
C577 C576 1.389 . S
C577 C578 1.387 . S
C578 H563 0.930 . S
C578 C573 1.390 . S
C578 C577 1.387 . S
H579 C591 0.930 . S
H580 C593 0.930 . S
H581 C594 0.930 . S
H582 C598 0.959 . S
H583 C598 0.959 . S
H584 C598 0.961 . S
H585 C599 0.960 . S
H586 C599 0.961 . S
H587 C599 0.959 . S
H588 C602 0.929 . S
H589 C603 0.931 . S
H590 C605 0.930 . S
C591 H579 0.930 . S
C591 C592 1.399 . S
C591 C596 1.399 . S
C592 C591 1.399 . S
C592 C593 1.376 . S
C593 H580 0.930 . S
C593 C592 1.376 . S
C593 C594 1.388 . S
C594 H581 0.930 . S
C594 C593 1.388 . S
C594 C595 1.390 . S
C595 C594 1.390 . S
C595 C596 1.394 . S
C595 C601 1.465 . S
C596 C591 1.399 . S
C596 C595 1.394 . S
C596 C597 1.516 . S
C597 C596 1.516 . S
C597 C598 1.502 . S
C597 C599 1.561 . S
C597 C600 1.526 . S
C598 H582 0.959 . S
C598 H583 0.959 . S
C598 H584 0.961 . S
C598 C597 1.502 . S
C599 H585 0.960 . S
C599 H586 0.961 . S
C599 H587 0.959 . S
C599 C597 1.561 . S
C600 C597 1.526 . S
C600 C601 1.396 . S
C600 C605 1.390 . S
C601 C595 1.465 . S
C601 C600 1.396 . S
C601 C602 1.399 . S
C602 H588 0.929 . S
C602 C601 1.399 . S
C602 C603 1.385 . S
C603 H589 0.931 . S
C603 C602 1.385 . S
C603 C604 1.389 . S
C604 C603 1.389 . S
C604 C605 1.387 . S
C605 H590 0.930 . S
C605 C600 1.390 . S
C605 C604 1.387 . S
H606 C618 0.930 . S
H607 C620 0.930 . S
H608 C621 0.930 . S
H609 C625 0.959 . S
H610 C625 0.959 . S
H611 C625 0.961 . S
H612 C626 0.960 . S
H613 C626 0.961 . S
H614 C626 0.959 . S
H615 C629 0.929 . S
H616 C630 0.931 . S
H617 C632 0.930 . S
C618 H606 0.930 . S
C618 C619 1.399 . S
C618 C623 1.399 . S
C619 C618 1.399 . S
C619 C620 1.376 . S
C620 H607 0.930 . S
C620 C619 1.376 . S
C620 C621 1.388 . S
C621 H608 0.930 . S
C621 C620 1.388 . S
C621 C622 1.390 . S
C622 C621 1.390 . S
C622 C623 1.394 . S
C622 C628 1.465 . S
C623 C618 1.399 . S
C623 C622 1.394 . S
C623 C624 1.516 . S
C624 C623 1.516 . S
C624 C625 1.502 . S
C624 C626 1.561 . S
C624 C627 1.526 . S
C625 H609 0.959 . S
C625 H610 0.959 . S
C625 H611 0.961 . S
C625 C624 1.502 . S
C626 H612 0.960 . S
C626 H613 0.961 . S
C626 H614 0.959 . S
C626 C624 1.561 . S
C627 C624 1.526 . S
C627 C628 1.396 . S
C627 C632 1.390 . S
C628 C622 1.465 . S
C628 C627 1.396 . S
C628 C629 1.399 . S
C629 H615 0.929 . S
C629 C628 1.399 . S
C629 C630 1.385 . S
C630 H616 0.931 . S
C630 C629 1.385 . S
C630 C631 1.389 . S
C631 C630 1.389 . S
C631 C632 1.387 . S
C632 H617 0.930 . S
C632 C627 1.390 . S
C632 C631 1.387 . S
H633 C645 0.930 . S
H634 C647 0.930 . S
H635 C648 0.930 . S
H636 C652 0.959 . S
H637 C652 0.959 . S
H638 C652 0.961 . S
H639 C653 0.960 . S
H640 C653 0.961 . S
H641 C653 0.959 . S
H642 C656 0.929 . S
H643 C657 0.931 . S
H644 C659 0.930 . S
C645 H633 0.930 . S
C645 C646 1.399 . S
C645 C650 1.399 . S
C646 C645 1.399 . S
C646 C647 1.376 . S
C647 H634 0.930 . S
C647 C646 1.376 . S
C647 C648 1.388 . S
C648 H635 0.930 . S
C648 C647 1.388 . S
C648 C649 1.390 . S
C649 C648 1.390 . S
C649 C650 1.394 . S
C649 C655 1.465 . S
C650 C645 1.399 . S
C650 C649 1.394 . S
C650 C651 1.516 . S
C651 C650 1.516 . S
C651 C652 1.502 . S
C651 C653 1.561 . S
C651 C654 1.526 . S
C652 H636 0.959 . S
C652 H637 0.959 . S
C652 H638 0.961 . S
C652 C651 1.502 . S
C653 H639 0.960 . S
C653 H640 0.961 . S
C653 H641 0.959 . S
C653 C651 1.561 . S
C654 C651 1.526 . S
C654 C655 1.396 . S
C654 C659 1.390 . S
C655 C649 1.465 . S
C655 C654 1.396 . S
C655 C656 1.399 . S
C656 H642 0.929 . S
C656 C655 1.399 . S
C656 C657 1.385 . S
C657 H643 0.931 . S
C657 C656 1.385 . S
C657 C658 1.389 . S
C658 C657 1.389 . S
C658 C659 1.387 . S
C659 H644 0.930 . S
C659 C654 1.390 . S
C659 C658 1.387 . S
H660 C672 0.930 . S
H661 C674 0.930 . S
H662 C675 0.930 . S
H663 C679 0.959 . S
H664 C679 0.959 . S
H665 C679 0.961 . S
H666 C680 0.960 . S
H667 C680 0.961 . S
H668 C680 0.959 . S
H669 C683 0.929 . S
H670 C684 0.931 . S
H671 C686 0.930 . S
C672 H660 0.930 . S
C672 C673 1.399 . S
C672 C677 1.399 . S
C673 C672 1.399 . S
C673 C674 1.376 . S
C674 H661 0.930 . S
C674 C673 1.376 . S
C674 C675 1.388 . S
C675 H662 0.930 . S
C675 C674 1.388 . S
C675 C676 1.390 . S
C676 C675 1.390 . S
C676 C677 1.394 . S
C676 C682 1.465 . S
C677 C672 1.399 . S
C677 C676 1.394 . S
C677 C678 1.516 . S
C678 C677 1.516 . S
C678 C679 1.502 . S
C678 C680 1.561 . S
C678 C681 1.526 . S
C679 H663 0.959 . S
C679 H664 0.959 . S
C679 H665 0.961 . S
C679 C678 1.502 . S
C680 H666 0.960 . S
C680 H667 0.961 . S
C680 H668 0.959 . S
C680 C678 1.561 . S
C681 C678 1.526 . S
C681 C682 1.396 . S
C681 C686 1.390 . S
C682 C676 1.465 . S
C682 C681 1.396 . S
C682 C683 1.399 . S
C683 H669 0.929 . S
C683 C682 1.399 . S
C683 C684 1.385 . S
C684 H670 0.931 . S
C684 C683 1.385 . S
C684 C685 1.389 . S
C685 C684 1.389 . S
C685 C686 1.387 . S
C686 H671 0.930 . S
C686 C681 1.390 . S
C686 C685 1.387 . S
H687 C699 0.930 . S
H688 C701 0.930 . S
H689 C702 0.930 . S
H690 C706 0.959 . S
H691 C706 0.959 . S
H692 C706 0.961 . S
H693 C707 0.960 . S
H694 C707 0.961 . S
H695 C707 0.959 . S
H696 C710 0.929 . S
H697 C711 0.931 . S
H698 C713 0.930 . S
C699 H687 0.930 . S
C699 C700 1.399 . S
C699 C704 1.399 . S
C700 C699 1.399 . S
C700 C701 1.376 . S
C701 H688 0.930 . S
C701 C700 1.376 . S
C701 C702 1.388 . S
C702 H689 0.930 . S
C702 C701 1.388 . S
C702 C703 1.390 . S
C703 C702 1.390 . S
C703 C704 1.394 . S
C703 C709 1.465 . S
C704 C699 1.399 . S
C704 C703 1.394 . S
C704 C705 1.516 . S
C705 C704 1.516 . S
C705 C706 1.502 . S
C705 C707 1.561 . S
C705 C708 1.526 . S
C706 H690 0.959 . S
C706 H691 0.959 . S
C706 H692 0.961 . S
C706 C705 1.502 . S
C707 H693 0.960 . S
C707 H694 0.961 . S
C707 H695 0.959 . S
C707 C705 1.561 . S
C708 C705 1.526 . S
C708 C709 1.396 . S
C708 C713 1.390 . S
C709 C703 1.465 . S
C709 C708 1.396 . S
C709 C710 1.399 . S
C710 H696 0.929 . S
C710 C709 1.399 . S
C710 C711 1.385 . S
C711 H697 0.931 . S
C711 C710 1.385 . S
C711 C712 1.389 . S
C712 C711 1.389 . S
C712 C713 1.387 . S
C713 H698 0.930 . S
C713 C708 1.390 . S
C713 C712 1.387 . S
H714 C726 0.930 . S
H715 C728 0.930 . S
H716 C729 0.930 . S
H717 C733 0.959 . S
H718 C733 0.959 . S
H719 C733 0.961 . S
H720 C734 0.960 . S
H721 C734 0.961 . S
H722 C734 0.959 . S
H723 C737 0.929 . S
H724 C738 0.931 . S
H725 C740 0.930 . S
C726 H714 0.930 . S
C726 C727 1.399 . S
C726 C731 1.399 . S
C727 C726 1.399 . S
C727 C728 1.376 . S
C728 H715 0.930 . S
C728 C727 1.376 . S
C728 C729 1.388 . S
C729 H716 0.930 . S
C729 C728 1.388 . S
C729 C730 1.390 . S
C730 C729 1.390 . S
C730 C731 1.394 . S
C730 C736 1.465 . S
C731 C726 1.399 . S
C731 C730 1.394 . S
C731 C732 1.516 . S
C732 C731 1.516 . S
C732 C733 1.502 . S
C732 C734 1.561 . S
C732 C735 1.526 . S
C733 H717 0.959 . S
C733 H718 0.959 . S
C733 H719 0.961 . S
C733 C732 1.502 . S
C734 H720 0.960 . S
C734 H721 0.961 . S
C734 H722 0.959 . S
C734 C732 1.561 . S
C735 C732 1.526 . S
C735 C736 1.396 . S
C735 C740 1.390 . S
C736 C730 1.465 . S
C736 C735 1.396 . S
C736 C737 1.399 . S
C737 H723 0.929 . S
C737 C736 1.399 . S
C737 C738 1.385 . S
C738 H724 0.931 . S
C738 C737 1.385 . S
C738 C739 1.389 . S
C739 C738 1.389 . S
C739 C740 1.387 . S
C740 H725 0.930 . S
C740 C735 1.390 . S
C740 C739 1.387 . S
H741 C753 0.930 . S
H742 C755 0.930 . S
H743 C756 0.930 . S
H744 C760 0.959 . S
H745 C760 0.959 . S
H746 C760 0.961 . S
H747 C761 0.960 . S
H748 C761 0.961 . S
H749 C761 0.959 . S
H750 C764 0.929 . S
H751 C765 0.931 . S
H752 C767 0.930 . S
C753 H741 0.930 . S
C753 C754 1.399 . S
C753 C758 1.399 . S
C754 C753 1.399 . S
C754 C755 1.376 . S
C755 H742 0.930 . S
C755 C754 1.376 . S
C755 C756 1.388 . S
C756 H743 0.930 . S
C756 C755 1.388 . S
C756 C757 1.390 . S
C757 C756 1.390 . S
C757 C758 1.394 . S
C757 C763 1.465 . S
C758 C753 1.399 . S
C758 C757 1.394 . S
C758 C759 1.516 . S
C759 C758 1.516 . S
C759 C760 1.502 . S
C759 C761 1.561 . S
C759 C762 1.526 . S
C760 H744 0.959 . S
C760 H745 0.959 . S
C760 H746 0.961 . S
C760 C759 1.502 . S
C761 H747 0.960 . S
C761 H748 0.961 . S
C761 H749 0.959 . S
C761 C759 1.561 . S
C762 C759 1.526 . S
C762 C763 1.396 . S
C762 C767 1.390 . S
C763 C757 1.465 . S
C763 C762 1.396 . S
C763 C764 1.399 . S
C764 H750 0.929 . S
C764 C763 1.399 . S
C764 C765 1.385 . S
C765 H751 0.931 . S
C765 C764 1.385 . S
C765 C766 1.389 . S
C766 C765 1.389 . S
C766 C767 1.387 . S
C767 H752 0.930 . S
C767 C762 1.390 . S
C767 C766 1.387 . S
H768 C780 0.930 . S
H769 C782 0.930 . S
H770 C783 0.930 . S
H771 C787 0.959 . S
H772 C787 0.959 . S
H773 C787 0.961 . S
H774 C788 0.960 . S
H775 C788 0.961 . S
H776 C788 0.959 . S
H777 C791 0.929 . S
H778 C792 0.931 . S
H779 C794 0.930 . S
C780 H768 0.930 . S
C780 C781 1.399 . S
C780 C785 1.399 . S
C781 C780 1.399 . S
C781 C782 1.376 . S
C782 H769 0.930 . S
C782 C781 1.376 . S
C782 C783 1.388 . S
C783 H770 0.930 . S
C783 C782 1.388 . S
C783 C784 1.390 . S
C784 C783 1.390 . S
C784 C785 1.394 . S
C784 C790 1.465 . S
C785 C780 1.399 . S
C785 C784 1.394 . S
C785 C786 1.516 . S
C786 C785 1.516 . S
C786 C787 1.502 . S
C786 C788 1.561 . S
C786 C789 1.526 . S
C787 H771 0.959 . S
C787 H772 0.959 . S
C787 H773 0.961 . S
C787 C786 1.502 . S
C788 H774 0.960 . S
C788 H775 0.961 . S
C788 H776 0.959 . S
C788 C786 1.561 . S
C789 C786 1.526 . S
C789 C790 1.396 . S
C789 C794 1.390 . S
C790 C784 1.465 . S
C790 C789 1.396 . S
C790 C791 1.399 . S
C791 H777 0.929 . S
C791 C790 1.399 . S
C791 C792 1.385 . S
C792 H778 0.931 . S
C792 C791 1.385 . S
C792 C793 1.389 . S
C793 C792 1.389 . S
C793 C794 1.387 . S
C794 H779 0.930 . S
C794 C789 1.390 . S
C794 C793 1.387 . S
H795 C807 0.930 . S
H796 C809 0.930 . S
H797 C810 0.930 . S
H798 C814 0.959 . S
H799 C814 0.959 . S
H800 C814 0.961 . S
H801 C815 0.960 . S
H802 C815 0.961 . S
H803 C815 0.959 . S
H804 C818 0.929 . S
H805 C819 0.931 . S
H806 C821 0.930 . S
C807 H795 0.930 . S
C807 C808 1.399 . S
C807 C812 1.399 . S
C808 C807 1.399 . S
C808 C809 1.376 . S
C809 H796 0.930 . S
C809 C808 1.376 . S
C809 C810 1.388 . S
C810 H797 0.930 . S
C810 C809 1.388 . S
C810 C811 1.390 . S
C811 C810 1.390 . S
C811 C812 1.394 . S
C811 C817 1.465 . S
C812 C807 1.399 . S
C812 C811 1.394 . S
C812 C813 1.516 . S
C813 C812 1.516 . S
C813 C814 1.502 . S
C813 C815 1.561 . S
C813 C816 1.526 . S
C814 H798 0.959 . S
C814 H799 0.959 . S
C814 H800 0.961 . S
C814 C813 1.502 . S
C815 H801 0.960 . S
C815 H802 0.961 . S
C815 H803 0.959 . S
C815 C813 1.561 . S
C816 C813 1.526 . S
C816 C817 1.396 . S
C816 C821 1.390 . S
C817 C811 1.465 . S
C817 C816 1.396 . S
C817 C818 1.399 . S
C818 H804 0.929 . S
C818 C817 1.399 . S
C818 C819 1.385 . S
C819 H805 0.931 . S
C819 C818 1.385 . S
C819 C820 1.389 . S
C820 C819 1.389 . S
C820 C821 1.387 . S
C821 H806 0.930 . S
C821 C816 1.390 . S
C821 C820 1.387 . S
H822 C834 0.930 . S
H823 C836 0.930 . S
H824 C837 0.930 . S
H825 C841 0.959 . S
H826 C841 0.959 . S
H827 C841 0.961 . S
H828 C842 0.960 . S
H829 C842 0.961 . S
H830 C842 0.959 . S
H831 C845 0.929 . S
H832 C846 0.931 . S
H833 C848 0.930 . S
C834 H822 0.930 . S
C834 C835 1.399 . S
C834 C839 1.399 . S
C835 C834 1.399 . S
C835 C836 1.376 . S
C836 H823 0.930 . S
C836 C835 1.376 . S
C836 C837 1.388 . S
C837 H824 0.930 . S
C837 C836 1.388 . S
C837 C838 1.390 . S
C838 C837 1.390 . S
C838 C839 1.394 . S
C838 C844 1.465 . S
C839 C834 1.399 . S
C839 C838 1.394 . S
C839 C840 1.516 . S
C840 C839 1.516 . S
C840 C841 1.502 . S
C840 C842 1.561 . S
C840 C843 1.526 . S
C841 H825 0.959 . S
C841 H826 0.959 . S
C841 H827 0.961 . S
C841 C840 1.502 . S
C842 H828 0.960 . S
C842 H829 0.961 . S
C842 H830 0.959 . S
C842 C840 1.561 . S
C843 C840 1.526 . S
C843 C844 1.396 . S
C843 C848 1.390 . S
C844 C838 1.465 . S
C844 C843 1.396 . S
C844 C845 1.399 . S
C845 H831 0.929 . S
C845 C844 1.399 . S
C845 C846 1.385 . S
C846 H832 0.931 . S
C846 C845 1.385 . S
C846 C847 1.389 . S
C847 C846 1.389 . S
C847 C848 1.387 . S
C848 H833 0.930 . S
C848 C843 1.390 . S
C848 C847 1.387 . S
H849 C861 0.930 . S
H850 C863 0.930 . S
H851 C864 0.930 . S
H852 C868 0.959 . S
H853 C868 0.959 . S
H854 C868 0.961 . S
H855 C869 0.960 . S
H856 C869 0.961 . S
H857 C869 0.959 . S
H858 C872 0.929 . S
H859 C873 0.931 . S
H860 C875 0.930 . S
C861 H849 0.930 . S
C861 C862 1.399 . S
C861 C866 1.399 . S
C862 C861 1.399 . S
C862 C863 1.376 . S
C863 H850 0.930 . S
C863 C862 1.376 . S
C863 C864 1.388 . S
C864 H851 0.930 . S
C864 C863 1.388 . S
C864 C865 1.390 . S
C865 C864 1.390 . S
C865 C866 1.394 . S
C865 C871 1.465 . S
C866 C861 1.399 . S
C866 C865 1.394 . S
C866 C867 1.516 . S
C867 C866 1.516 . S
C867 C868 1.502 . S
C867 C869 1.561 . S
C867 C870 1.526 . S
C868 H852 0.959 . S
C868 H853 0.959 . S
C868 H854 0.961 . S
C868 C867 1.502 . S
C869 H855 0.960 . S
C869 H856 0.961 . S
C869 H857 0.959 . S
C869 C867 1.561 . S
C870 C867 1.526 . S
C870 C871 1.396 . S
C870 C875 1.390 . S
C871 C865 1.465 . S
C871 C870 1.396 . S
C871 C872 1.399 . S
C872 H858 0.929 . S
C872 C871 1.399 . S
C872 C873 1.385 . S
C873 H859 0.931 . S
C873 C872 1.385 . S
C873 C874 1.389 . S
C874 C873 1.389 . S
C874 C875 1.387 . S
C875 H860 0.930 . S
C875 C870 1.390 . S
C875 C874 1.387 . S
H876 C888 0.930 . S
H877 C890 0.930 . S
H878 C891 0.930 . S
H879 C895 0.959 . S
H880 C895 0.959 . S
H881 C895 0.961 . S
H882 C896 0.960 . S
H883 C896 0.961 . S
H884 C896 0.959 . S
H885 C899 0.929 . S
H886 C900 0.931 . S
H887 C902 0.930 . S
C888 H876 0.930 . S
C888 C889 1.399 . S
C888 C893 1.399 . S
C889 C888 1.399 . S
C889 C890 1.376 . S
C890 H877 0.930 . S
C890 C889 1.376 . S
C890 C891 1.388 . S
C891 H878 0.930 . S
C891 C890 1.388 . S
C891 C892 1.390 . S
C892 C891 1.390 . S
C892 C893 1.394 . S
C892 C898 1.465 . S
C893 C888 1.399 . S
C893 C892 1.394 . S
C893 C894 1.516 . S
C894 C893 1.516 . S
C894 C895 1.502 . S
C894 C896 1.561 . S
C894 C897 1.526 . S
C895 H879 0.959 . S
C895 H880 0.959 . S
C895 H881 0.961 . S
C895 C894 1.502 . S
C896 H882 0.960 . S
C896 H883 0.961 . S
C896 H884 0.959 . S
C896 C894 1.561 . S
C897 C894 1.526 . S
C897 C898 1.396 . S
C897 C902 1.390 . S
C898 C892 1.465 . S
C898 C897 1.396 . S
C898 C899 1.399 . S
C899 H885 0.929 . S
C899 C898 1.399 . S
C899 C900 1.385 . S
C900 H886 0.931 . S
C900 C899 1.385 . S
C900 C901 1.389 . S
C901 C900 1.389 . S
C901 C902 1.387 . S
C902 H887 0.930 . S
C902 C897 1.390 . S
C902 C901 1.387 . S
H903 C915 0.930 . S
H904 C917 0.930 . S
H905 C918 0.930 . S
H906 C922 0.959 . S
H907 C922 0.959 . S
H908 C922 0.961 . S
H909 C923 0.960 . S
H910 C923 0.961 . S
H911 C923 0.959 . S
H912 C926 0.929 . S
H913 C927 0.931 . S
H914 C929 0.930 . S
C915 H903 0.930 . S
C915 C916 1.399 . S
C915 C920 1.399 . S
C916 C915 1.399 . S
C916 C917 1.376 . S
C917 H904 0.930 . S
C917 C916 1.376 . S
C917 C918 1.388 . S
C918 H905 0.930 . S
C918 C917 1.388 . S
C918 C919 1.390 . S
C919 C918 1.390 . S
C919 C920 1.394 . S
C919 C925 1.465 . S
C920 C915 1.399 . S
C920 C919 1.394 . S
C920 C921 1.516 . S
C921 C920 1.516 . S
C921 C922 1.502 . S
C921 C923 1.561 . S
C921 C924 1.526 . S
C922 H906 0.959 . S
C922 H907 0.959 . S
C922 H908 0.961 . S
C922 C921 1.502 . S
C923 H909 0.960 . S
C923 H910 0.961 . S
C923 H911 0.959 . S
C923 C921 1.561 . S
C924 C921 1.526 . S
C924 C925 1.396 . S
C924 C929 1.390 . S
C925 C919 1.465 . S
C925 C924 1.396 . S
C925 C926 1.399 . S
C926 H912 0.929 . S
C926 C925 1.399 . S
C926 C927 1.385 . S
C927 H913 0.931 . S
C927 C926 1.385 . S
C927 C928 1.389 . S
C928 C927 1.389 . S
C928 C929 1.387 . S
C929 H914 0.930 . S
C929 C924 1.390 . S
C929 C928 1.387 . S
H930 C942 0.930 . S
H931 C944 0.930 . S
H932 C945 0.930 . S
H933 C949 0.959 . S
H934 C949 0.959 . S
H935 C949 0.961 . S
H936 C950 0.960 . S
H937 C950 0.961 . S
H938 C950 0.959 . S
H939 C953 0.929 . S
H940 C954 0.931 . S
H941 C956 0.930 . S
C942 H930 0.930 . S
C942 C943 1.399 . S
C942 C947 1.399 . S
C943 C942 1.399 . S
C943 C944 1.376 . S
C944 H931 0.930 . S
C944 C943 1.376 . S
C944 C945 1.388 . S
C945 H932 0.930 . S
C945 C944 1.388 . S
C945 C946 1.390 . S
C946 C945 1.390 . S
C946 C947 1.394 . S
C946 C952 1.465 . S
C947 C942 1.399 . S
C947 C946 1.394 . S
C947 C948 1.516 . S
C948 C947 1.516 . S
C948 C949 1.502 . S
C948 C950 1.561 . S
C948 C951 1.526 . S
C949 H933 0.959 . S
C949 H934 0.959 . S
C949 H935 0.961 . S
C949 C948 1.502 . S
C950 H936 0.960 . S
C950 H937 0.961 . S
C950 H938 0.959 . S
C950 C948 1.561 . S
C951 C948 1.526 . S
C951 C952 1.396 . S
C951 C956 1.390 . S
C952 C946 1.465 . S
C952 C951 1.396 . S
C952 C953 1.399 . S
C953 H939 0.929 . S
C953 C952 1.399 . S
C953 C954 1.385 . S
C954 H940 0.931 . S
C954 C953 1.385 . S
C954 C955 1.389 . S
C955 C954 1.389 . S
C955 C956 1.387 . S
C956 H941 0.930 . S
C956 C951 1.390 . S
C956 C955 1.387 . S
H957 C969 0.930 . S
H958 C971 0.930 . S
H959 C972 0.930 . S
H960 C976 0.959 . S
H961 C976 0.959 . S
H962 C976 0.961 . S
H963 C977 0.960 . S
H964 C977 0.961 . S
H965 C977 0.959 . S
H966 C980 0.929 . S
H967 C981 0.931 . S
H968 C983 0.930 . S
C969 H957 0.930 . S
C969 C970 1.399 . S
C969 C974 1.399 . S
C970 C969 1.399 . S
C970 C971 1.376 . S
C971 H958 0.930 . S
C971 C970 1.376 . S
C971 C972 1.388 . S
C972 H959 0.930 . S
C972 C971 1.388 . S
C972 C973 1.390 . S
C973 C972 1.390 . S
C973 C974 1.394 . S
C973 C979 1.465 . S
C974 C969 1.399 . S
C974 C973 1.394 . S
C974 C975 1.516 . S
C975 C974 1.516 . S
C975 C976 1.502 . S
C975 C977 1.561 . S
C975 C978 1.526 . S
C976 H960 0.959 . S
C976 H961 0.959 . S
C976 H962 0.961 . S
C976 C975 1.502 . S
C977 H963 0.960 . S
C977 H964 0.961 . S
C977 H965 0.959 . S
C977 C975 1.561 . S
C978 C975 1.526 . S
C978 C979 1.396 . S
C978 C983 1.390 . S
C979 C973 1.465 . S
C979 C978 1.396 . S
C979 C980 1.399 . S
C980 H966 0.929 . S
C980 C979 1.399 . S
C980 C981 1.385 . S
C981 H967 0.931 . S
C981 C980 1.385 . S
C981 C982 1.389 . S
C982 C981 1.389 . S
C982 C983 1.387 . S
C983 H968 0.930 . S
C983 C978 1.390 . S
C983 C982 1.387 . S
H984 C996 0.930 . S
H985 C998 0.930 . S
H986 C999 0.930 . S
H987 C1003 0.959 . S
H988 C1003 0.959 . S
H989 C1003 0.961 . S
H990 C1004 0.960 . S
H991 C1004 0.961 . S
H992 C1004 0.959 . S
H993 C1007 0.929 . S
H994 C1008 0.931 . S
H995 C1010 0.930 . S
C996 H984 0.930 . S
C996 C997 1.399 . S
C996 C1001 1.399 . S
C997 C996 1.399 . S
C997 C998 1.376 . S
C998 H985 0.930 . S
C998 C997 1.376 . S
C998 C999 1.388 . S
C999 H986 0.930 . S
C999 C998 1.388 . S
C999 C1000 1.390 . S
C1000 C999 1.390 . S
C1000 C1001 1.394 . S
C1000 C1006 1.465 . S
C1001 C996 1.399 . S
C1001 C1000 1.394 . S
C1001 C1002 1.516 . S
C1002 C1001 1.516 . S
C1002 C1003 1.502 . S
C1002 C1004 1.561 . S
C1002 C1005 1.526 . S
C1003 H987 0.959 . S
C1003 H988 0.959 . S
C1003 H989 0.961 . S
C1003 C1002 1.502 . S
C1004 H990 0.960 . S
C1004 H991 0.961 . S
C1004 H992 0.959 . S
C1004 C1002 1.561 . S
C1005 C1002 1.526 . S
C1005 C1006 1.396 . S
C1005 C1010 1.390 . S
C1006 C1000 1.465 . S
C1006 C1005 1.396 . S
C1006 C1007 1.399 . S
C1007 H993 0.929 . S
C1007 C1006 1.399 . S
C1007 C1008 1.385 . S
C1008 H994 0.931 . S
C1008 C1007 1.385 . S
C1008 C1009 1.389 . S
C1009 C1008 1.389 . S
C1009 C1010 1.387 . S
C1010 H995 0.930 . S
C1010 C1005 1.390 . S
C1010 C1009 1.387 . S
H1011 C1023 0.930 . S
H1012 C1025 0.930 . S
H1013 C1026 0.930 . S
H1014 C1030 0.959 . S
H1015 C1030 0.959 . S
H1016 C1030 0.961 . S
H1017 C1031 0.960 . S
H1018 C1031 0.961 . S
H1019 C1031 0.959 . S
H1020 C1034 0.929 . S
H1021 C1035 0.931 . S
H1022 C1037 0.930 . S
C1023 H1011 0.930 . S
C1023 C1024 1.399 . S
C1023 C1028 1.399 . S
C1024 C1023 1.399 . S
C1024 C1025 1.376 . S
C1025 H1012 0.930 . S
C1025 C1024 1.376 . S
C1025 C1026 1.388 . S
C1026 H1013 0.930 . S
C1026 C1025 1.388 . S
C1026 C1027 1.390 . S
C1027 C1026 1.390 . S
C1027 C1028 1.394 . S
C1027 C1033 1.465 . S
C1028 C1023 1.399 . S
C1028 C1027 1.394 . S
C1028 C1029 1.516 . S
C1029 C1028 1.516 . S
C1029 C1030 1.502 . S
C1029 C1031 1.561 . S
C1029 C1032 1.526 . S
C1030 H1014 0.959 . S
C1030 H1015 0.959 . S
C1030 H1016 0.961 . S
C1030 C1029 1.502 . S
C1031 H1017 0.960 . S
C1031 H1018 0.961 . S
C1031 H1019 0.959 . S
C1031 C1029 1.561 . S
C1032 C1029 1.526 . S
C1032 C1033 1.396 . S
C1032 C1037 1.390 . S
C1033 C1027 1.465 . S
C1033 C1032 1.396 . S
C1033 C1034 1.399 . S
C1034 H1020 0.929 . S
C1034 C1033 1.399 . S
C1034 C1035 1.385 . S
C1035 H1021 0.931 . S
C1035 C1034 1.385 . S
C1035 C1036 1.389 . S
C1036 C1035 1.389 . S
C1036 C1037 1.387 . S
C1037 H1022 0.930 . S
C1037 C1032 1.390 . S
C1037 C1036 1.387 . S
H1038 C1050 0.930 . S
H1039 C1052 0.930 . S
H1040 C1053 0.930 . S
H1041 C1057 0.959 . S
H1042 C1057 0.959 . S
H1043 C1057 0.961 . S
H1044 C1058 0.960 . S
H1045 C1058 0.961 . S
H1046 C1058 0.959 . S
H1047 C1061 0.929 . S
H1048 C1062 0.931 . S
H1049 C1064 0.930 . S
C1050 H1038 0.930 . S
C1050 C1051 1.399 . S
C1050 C1055 1.399 . S
C1051 C1050 1.399 . S
C1051 C1052 1.376 . S
C1052 H1039 0.930 . S
C1052 C1051 1.376 . S
C1052 C1053 1.388 . S
C1053 H1040 0.930 . S
C1053 C1052 1.388 . S
C1053 C1054 1.390 . S
C1054 C1053 1.390 . S
C1054 C1055 1.394 . S
C1054 C1060 1.465 . S
C1055 C1050 1.399 . S
C1055 C1054 1.394 . S
C1055 C1056 1.516 . S
C1056 C1055 1.516 . S
C1056 C1057 1.502 . S
C1056 C1058 1.561 . S
C1056 C1059 1.526 . S
C1057 H1041 0.959 . S
C1057 H1042 0.959 . S
C1057 H1043 0.961 . S
C1057 C1056 1.502 . S
C1058 H1044 0.960 . S
C1058 H1045 0.961 . S
C1058 H1046 0.959 . S
C1058 C1056 1.561 . S
C1059 C1056 1.526 . S
C1059 C1060 1.396 . S
C1059 C1064 1.390 . S
C1060 C1054 1.465 . S
C1060 C1059 1.396 . S
C1060 C1061 1.399 . S
C1061 H1047 0.929 . S
C1061 C1060 1.399 . S
C1061 C1062 1.385 . S
C1062 H1048 0.931 . S
C1062 C1061 1.385 . S
C1062 C1063 1.389 . S
C1063 C1062 1.389 . S
C1063 C1064 1.387 . S
C1064 H1049 0.930 . S
C1064 C1059 1.390 . S
C1064 C1063 1.387 . S
H1065 C1077 0.930 . S
H1066 C1079 0.930 . S
H1067 C1080 0.930 . S
H1068 C1084 0.959 . S
H1069 C1084 0.959 . S
H1070 C1084 0.961 . S
H1071 C1085 0.960 . S
H1072 C1085 0.961 . S
H1073 C1085 0.959 . S
H1074 C1088 0.929 . S
H1075 C1089 0.931 . S
H1076 C1091 0.930 . S
C1077 H1065 0.930 . S
C1077 C1078 1.399 . S
C1077 C1082 1.399 . S
C1078 C1077 1.399 . S
C1078 C1079 1.376 . S
C1079 H1066 0.930 . S
C1079 C1078 1.376 . S
C1079 C1080 1.388 . S
C1080 H1067 0.930 . S
C1080 C1079 1.388 . S
C1080 C1081 1.390 . S
C1081 C1080 1.390 . S
C1081 C1082 1.394 . S
C1081 C1087 1.465 . S
C1082 C1077 1.399 . S
C1082 C1081 1.394 . S
C1082 C1083 1.516 . S
C1083 C1082 1.516 . S
C1083 C1084 1.502 . S
C1083 C1085 1.561 . S
C1083 C1086 1.526 . S
C1084 H1068 0.959 . S
C1084 H1069 0.959 . S
C1084 H1070 0.961 . S
C1084 C1083 1.502 . S
C1085 H1071 0.960 . S
C1085 H1072 0.961 . S
C1085 H1073 0.959 . S
C1085 C1083 1.561 . S
C1086 C1083 1.526 . S
C1086 C1087 1.396 . S
C1086 C1091 1.390 . S
C1087 C1081 1.465 . S
C1087 C1086 1.396 . S
C1087 C1088 1.399 . S
C1088 H1074 0.929 . S
C1088 C1087 1.399 . S
C1088 C1089 1.385 . S
C1089 H1075 0.931 . S
C1089 C1088 1.385 . S
C1089 C1090 1.389 . S
C1090 C1089 1.389 . S
C1090 C1091 1.387 . S
C1091 H1076 0.930 . S
C1091 C1086 1.390 . S
C1091 C1090 1.387 . S
H1092 C1104 0.930 . S
H1093 C1106 0.930 . S
H1094 C1107 0.930 . S
H1095 C1111 0.959 . S
H1096 C1111 0.959 . S
H1097 C1111 0.961 . S
H1098 C1112 0.960 . S
H1099 C1112 0.961 . S
H1100 C1112 0.959 . S
H1101 C1115 0.929 . S
H1102 C1116 0.931 . S
H1103 C1118 0.930 . S
C1104 H1092 0.930 . S
C1104 C1105 1.399 . S
C1104 C1109 1.399 . S
C1105 C1104 1.399 . S
C1105 C1106 1.376 . S
C1106 H1093 0.930 . S
C1106 C1105 1.376 . S
C1106 C1107 1.388 . S
C1107 H1094 0.930 . S
C1107 C1106 1.388 . S
C1107 C1108 1.390 . S
C1108 C1107 1.390 . S
C1108 C1109 1.394 . S
C1108 C1114 1.465 . S
C1109 C1104 1.399 . S
C1109 C1108 1.394 . S
C1109 C1110 1.516 . S
C1110 C1109 1.516 . S
C1110 C1111 1.502 . S
C1110 C1112 1.561 . S
C1110 C1113 1.526 . S
C1111 H1095 0.959 . S
C1111 H1096 0.959 . S
C1111 H1097 0.961 . S
C1111 C1110 1.502 . S
C1112 H1098 0.960 . S
C1112 H1099 0.961 . S
C1112 H1100 0.959 . S
C1112 C1110 1.561 . S
C1113 C1110 1.526 . S
C1113 C1114 1.396 . S
C1113 C1118 1.390 . S
C1114 C1108 1.465 . S
C1114 C1113 1.396 . S
C1114 C1115 1.399 . S
C1115 H1101 0.929 . S
C1115 C1114 1.399 . S
C1115 C1116 1.385 . S
C1116 H1102 0.931 . S
C1116 C1115 1.385 . S
C1116 C1117 1.389 . S
C1117 C1116 1.389 . S
C1117 C1118 1.387 . S
C1118 H1103 0.930 . S
C1118 C1113 1.390 . S
C1118 C1117 1.387 . S
H1119 C1131 0.930 . S
H1120 C1133 0.930 . S
H1121 C1134 0.930 . S
H1122 C1138 0.959 . S
H1123 C1138 0.959 . S
H1124 C1138 0.961 . S
H1125 C1139 0.960 . S
H1126 C1139 0.961 . S
H1127 C1139 0.959 . S
H1128 C1142 0.929 . S
H1129 C1143 0.931 . S
H1130 C1145 0.930 . S
C1131 H1119 0.930 . S
C1131 C1132 1.399 . S
C1131 C1136 1.399 . S
C1132 C1131 1.399 . S
C1132 C1133 1.376 . S
C1133 H1120 0.930 . S
C1133 C1132 1.376 . S
C1133 C1134 1.388 . S
C1134 H1121 0.930 . S
C1134 C1133 1.388 . S
C1134 C1135 1.390 . S
C1135 C1134 1.390 . S
C1135 C1136 1.394 . S
C1135 C1141 1.465 . S
C1136 C1131 1.399 . S
C1136 C1135 1.394 . S
C1136 C1137 1.516 . S
C1137 C1136 1.516 . S
C1137 C1138 1.502 . S
C1137 C1139 1.561 . S
C1137 C1140 1.526 . S
C1138 H1122 0.959 . S
C1138 H1123 0.959 . S
C1138 H1124 0.961 . S
C1138 C1137 1.502 . S
C1139 H1125 0.960 . S
C1139 H1126 0.961 . S
C1139 H1127 0.959 . S
C1139 C1137 1.561 . S
C1140 C1137 1.526 . S
C1140 C1141 1.396 . S
C1140 C1145 1.390 . S
C1141 C1135 1.465 . S
C1141 C1140 1.396 . S
C1141 C1142 1.399 . S
C1142 H1128 0.929 . S
C1142 C1141 1.399 . S
C1142 C1143 1.385 . S
C1143 H1129 0.931 . S
C1143 C1142 1.385 . S
C1143 C1144 1.389 . S
C1144 C1143 1.389 . S
C1144 C1145 1.387 . S
C1145 H1130 0.930 . S
C1145 C1140 1.390 . S
C1145 C1144 1.387 . S
H1146 C1158 0.930 . S
H1147 C1160 0.930 . S
H1148 C1161 0.930 . S
H1149 C1165 0.959 . S
H1150 C1165 0.959 . S
H1151 C1165 0.961 . S
H1152 C1166 0.960 . S
H1153 C1166 0.961 . S
H1154 C1166 0.959 . S
H1155 C1169 0.929 . S
H1156 C1170 0.931 . S
H1157 C1172 0.930 . S
C1158 H1146 0.930 . S
C1158 C1159 1.399 . S
C1158 C1163 1.399 . S
C1159 C1158 1.399 . S
C1159 C1160 1.376 . S
C1160 H1147 0.930 . S
C1160 C1159 1.376 . S
C1160 C1161 1.388 . S
C1161 H1148 0.930 . S
C1161 C1160 1.388 . S
C1161 C1162 1.390 . S
C1162 C1161 1.390 . S
C1162 C1163 1.394 . S
C1162 C1168 1.465 . S
C1163 C1158 1.399 . S
C1163 C1162 1.394 . S
C1163 C1164 1.516 . S
C1164 C1163 1.516 . S
C1164 C1165 1.502 . S
C1164 C1166 1.561 . S
C1164 C1167 1.526 . S
C1165 H1149 0.959 . S
C1165 H1150 0.959 . S
C1165 H1151 0.961 . S
C1165 C1164 1.502 . S
C1166 H1152 0.960 . S
C1166 H1153 0.961 . S
C1166 H1154 0.959 . S
C1166 C1164 1.561 . S
C1167 C1164 1.526 . S
C1167 C1168 1.396 . S
C1167 C1172 1.390 . S
C1168 C1162 1.465 . S
C1168 C1167 1.396 . S
C1168 C1169 1.399 . S
C1169 H1155 0.929 . S
C1169 C1168 1.399 . S
C1169 C1170 1.385 . S
C1170 H1156 0.931 . S
C1170 C1169 1.385 . S
C1170 C1171 1.389 . S
C1171 C1170 1.389 . S
C1171 C1172 1.387 . S
C1172 H1157 0.930 . S
C1172 C1167 1.390 . S
C1172 C1171 1.387 . S
H1173 C1185 0.930 . S
H1174 C1187 0.930 . S
H1175 C1188 0.930 . S
H1176 C1192 0.959 . S
H1177 C1192 0.959 . S
H1178 C1192 0.961 . S
H1179 C1193 0.960 . S
H1180 C1193 0.961 . S
H1181 C1193 0.959 . S
H1182 C1196 0.929 . S
H1183 C1197 0.931 . S
H1184 C1199 0.930 . S
C1185 H1173 0.930 . S
C1185 C1186 1.399 . S
C1185 C1190 1.399 . S
C1186 C1185 1.399 . S
C1186 C1187 1.376 . S
C1187 H1174 0.930 . S
C1187 C1186 1.376 . S
C1187 C1188 1.388 . S
C1188 H1175 0.930 . S
C1188 C1187 1.388 . S
C1188 C1189 1.390 . S
C1189 C1188 1.390 . S
C1189 C1190 1.394 . S
C1189 C1195 1.465 . S
C1190 C1185 1.399 . S
C1190 C1189 1.394 . S
C1190 C1191 1.516 . S
C1191 C1190 1.516 . S
C1191 C1192 1.502 . S
C1191 C1193 1.561 . S
C1191 C1194 1.526 . S
C1192 H1176 0.959 . S
C1192 H1177 0.959 . S
C1192 H1178 0.961 . S
C1192 C1191 1.502 . S
C1193 H1179 0.960 . S
C1193 H1180 0.961 . S
C1193 H1181 0.959 . S
C1193 C1191 1.561 . S
C1194 C1191 1.526 . S
C1194 C1195 1.396 . S
C1194 C1199 1.390 . S
C1195 C1189 1.465 . S
C1195 C1194 1.396 . S
C1195 C1196 1.399 . S
C1196 H1182 0.929 . S
C1196 C1195 1.399 . S
C1196 C1197 1.385 . S
C1197 H1183 0.931 . S
C1197 C1196 1.385 . S
C1197 C1198 1.389 . S
C1198 C1197 1.389 . S
C1198 C1199 1.387 . S
C1199 H1184 0.930 . S
C1199 C1194 1.390 . S
C1199 C1198 1.387 . S
H1200 C1212 0.930 . S
H1201 C1214 0.930 . S
H1202 C1215 0.930 . S
H1203 C1219 0.959 . S
H1204 C1219 0.959 . S
H1205 C1219 0.961 . S
H1206 C1220 0.960 . S
H1207 C1220 0.961 . S
H1208 C1220 0.959 . S
H1209 C1223 0.929 . S
H1210 C1224 0.931 . S
H1211 C1226 0.930 . S
C1212 H1200 0.930 . S
C1212 C1213 1.399 . S
C1212 C1217 1.399 . S
C1213 C1212 1.399 . S
C1213 C1214 1.376 . S
C1214 H1201 0.930 . S
C1214 C1213 1.376 . S
C1214 C1215 1.388 . S
C1215 H1202 0.930 . S
C1215 C1214 1.388 . S
C1215 C1216 1.390 . S
C1216 C1215 1.390 . S
C1216 C1217 1.394 . S
C1216 C1222 1.465 . S
C1217 C1212 1.399 . S
C1217 C1216 1.394 . S
C1217 C1218 1.516 . S
C1218 C1217 1.516 . S
C1218 C1219 1.502 . S
C1218 C1220 1.561 . S
C1218 C1221 1.526 . S
C1219 H1203 0.959 . S
C1219 H1204 0.959 . S
C1219 H1205 0.961 . S
C1219 C1218 1.502 . S
C1220 H1206 0.960 . S
C1220 H1207 0.961 . S
C1220 H1208 0.959 . S
C1220 C1218 1.561 . S
C1221 C1218 1.526 . S
C1221 C1222 1.396 . S
C1221 C1226 1.390 . S
C1222 C1216 1.465 . S
C1222 C1221 1.396 . S
C1222 C1223 1.399 . S
C1223 H1209 0.929 . S
C1223 C1222 1.399 . S
C1223 C1224 1.385 . S
C1224 H1210 0.931 . S
C1224 C1223 1.385 . S
C1224 C1225 1.389 . S
C1225 C1224 1.389 . S
C1225 C1226 1.387 . S
C1226 H1211 0.930 . S
C1226 C1221 1.390 . S
C1226 C1225 1.387 . S
H1227 C1239 0.930 . S
H1228 C1241 0.930 . S
H1229 C1242 0.930 . S
H1230 C1246 0.959 . S
H1231 C1246 0.959 . S
H1232 C1246 0.961 . S
H1233 C1247 0.960 . S
H1234 C1247 0.961 . S
H1235 C1247 0.959 . S
H1236 C1250 0.929 . S
H1237 C1251 0.931 . S
H1238 C1253 0.930 . S
C1239 H1227 0.930 . S
C1239 C1240 1.399 . S
C1239 C1244 1.399 . S
C1240 C1239 1.399 . S
C1240 C1241 1.376 . S
C1241 H1228 0.930 . S
C1241 C1240 1.376 . S
C1241 C1242 1.388 . S
C1242 H1229 0.930 . S
C1242 C1241 1.388 . S
C1242 C1243 1.390 . S
C1243 C1242 1.390 . S
C1243 C1244 1.394 . S
C1243 C1249 1.465 . S
C1244 C1239 1.399 . S
C1244 C1243 1.394 . S
C1244 C1245 1.516 . S
C1245 C1244 1.516 . S
C1245 C1246 1.502 . S
C1245 C1247 1.561 . S
C1245 C1248 1.526 . S
C1246 H1230 0.959 . S
C1246 H1231 0.959 . S
C1246 H1232 0.961 . S
C1246 C1245 1.502 . S
C1247 H1233 0.960 . S
C1247 H1234 0.961 . S
C1247 H1235 0.959 . S
C1247 C1245 1.561 . S
C1248 C1245 1.526 . S
C1248 C1249 1.396 . S
C1248 C1253 1.390 . S
C1249 C1243 1.465 . S
C1249 C1248 1.396 . S
C1249 C1250 1.399 . S
C1250 H1236 0.929 . S
C1250 C1249 1.399 . S
C1250 C1251 1.385 . S
C1251 H1237 0.931 . S
C1251 C1250 1.385 . S
C1251 C1252 1.389 . S
C1252 C1251 1.389 . S
C1252 C1253 1.387 . S
C1253 H1238 0.930 . S
C1253 C1248 1.390 . S
C1253 C1252 1.387 . S
H1254 C1266 0.930 . S
H1255 C1268 0.930 . S
H1256 C1269 0.930 . S
H1257 C1273 0.959 . S
H1258 C1273 0.959 . S
H1259 C1273 0.961 . S
H1260 C1274 0.960 . S
H1261 C1274 0.961 . S
H1262 C1274 0.959 . S
H1263 C1277 0.929 . S
H1264 C1278 0.931 . S
H1265 C1280 0.930 . S
C1266 H1254 0.930 . S
C1266 C1267 1.399 . S
C1266 C1271 1.399 . S
C1267 C1266 1.399 . S
C1267 C1268 1.376 . S
C1268 H1255 0.930 . S
C1268 C1267 1.376 . S
C1268 C1269 1.388 . S
C1269 H1256 0.930 . S
C1269 C1268 1.388 . S
C1269 C1270 1.390 . S
C1270 C1269 1.390 . S
C1270 C1271 1.394 . S
C1270 C1276 1.465 . S
C1271 C1266 1.399 . S
C1271 C1270 1.394 . S
C1271 C1272 1.516 1_565 S
C1272 C1271 1.516 1_545 S
C1272 C1273 1.502 . S
C1272 C1274 1.561 . S
C1272 C1275 1.526 . S
C1273 H1257 0.959 . S
C1273 H1258 0.959 . S
C1273 H1259 0.961 . S
C1273 C1272 1.502 . S
C1274 H1260 0.960 . S
C1274 H1261 0.961 . S
C1274 H1262 0.959 . S
C1274 C1272 1.561 . S
C1275 C1272 1.526 . S
C1275 C1276 1.396 1_545 S
C1275 C1280 1.390 . S
C1276 C1270 1.465 . S
C1276 C1275 1.396 1_565 S
C1276 C1277 1.399 . S
C1277 H1263 0.929 . S
C1277 C1276 1.399 . S
C1277 C1278 1.385 1_565 S
C1278 H1264 0.931 . S
C1278 C1277 1.385 1_545 S
C1278 C1279 1.389 . S
C1279 C1278 1.389 . S
C1279 C1280 1.387 . S
C1280 H1265 0.930 . S
C1280 C1275 1.390 . S
C1280 C1279 1.387 . S
H1281 C1293 0.930 . S
H1282 C1295 0.930 . S
H1283 C1296 0.930 . S
H1284 C1300 0.959 1_455 S
H1285 C1300 0.959 . S
H1286 C1300 0.965 . S
H1287 C1301 0.960 . S
H1288 C1301 0.961 . S
H1289 C1301 0.959 . S
H1290 C1304 0.929 . S
H1291 C1305 0.931 . S
H1292 C1307 0.930 . S
C1293 H1281 0.930 . S
C1293 C1294 1.399 . S
C1293 C1298 1.399 . S
C1294 C1293 1.399 . S
C1294 C1295 1.376 . S
C1295 H1282 0.930 . S
C1295 C1294 1.376 . S
C1295 C1296 1.388 . S
C1296 H1283 0.930 . S
C1296 C1295 1.388 . S
C1296 C1297 1.390 . S
C1297 C1296 1.390 . S
C1297 C1298 1.394 . S
C1297 C1303 1.465 1_455 S
C1298 C1293 1.399 . S
C1298 C1297 1.394 . S
C1298 C1299 1.516 1_455 S
C1299 C1298 1.516 1_655 S
C1299 C1300 1.502 . S
C1299 C1301 1.561 . S
C1299 C1302 1.526 . S
C1300 H1284 0.959 1_655 S
C1300 H1285 0.959 . S
C1300 H1286 0.965 . S
C1300 C1299 1.502 . S
C1301 H1287 0.960 . S
C1301 H1288 0.961 . S
C1301 H1289 0.959 . S
C1301 C1299 1.561 . S
C1302 C1299 1.526 . S
C1302 C1303 1.396 . S
C1302 C1307 1.390 . S
C1303 C1297 1.465 1_655 S
C1303 C1302 1.396 . S
C1303 C1304 1.399 . S
C1304 H1290 0.929 . S
C1304 C1303 1.399 . S
C1304 C1305 1.385 . S
C1305 H1291 0.931 . S
C1305 C1304 1.385 . S
C1305 C1306 1.389 . S
C1306 C1305 1.389 . S
C1306 C1307 1.387 . S
C1307 H1292 0.930 . S
C1307 C1302 1.390 . S
C1307 C1306 1.387 . S
H1308 C1320 0.930 . S
H1309 C1322 0.930 . S
H1310 C1323 0.930 . S
H1311 C1327 0.959 . S
H1312 C1327 0.959 . S
H1313 C1327 0.961 . S
H1314 C1328 0.960 . S
H1315 C1328 0.961 . S
H1316 C1328 0.959 . S
H1317 C1331 0.929 . S
H1318 C1332 0.931 . S
H1319 C1334 0.930 . S
C1320 H1308 0.930 . S
C1320 C1321 1.399 . S
C1320 C1325 1.399 . S
C1321 C1320 1.399 . S
C1321 C1322 1.376 . S
C1322 H1309 0.930 . S
C1322 C1321 1.376 . S
C1322 C1323 1.388 . S
C1323 H1310 0.930 . S
C1323 C1322 1.388 . S
C1323 C1324 1.390 . S
C1324 C1323 1.390 . S
C1324 C1325 1.394 . S
C1324 C1330 1.465 . S
C1325 C1320 1.399 . S
C1325 C1324 1.394 . S
C1325 C1326 1.516 . S
C1326 C1325 1.516 . S
C1326 C1327 1.502 . S
C1326 C1328 1.561 . S
C1326 C1329 1.526 . S
C1327 H1311 0.959 . S
C1327 H1312 0.959 . S
C1327 H1313 0.961 . S
C1327 C1326 1.502 . S
C1328 H1314 0.960 . S
C1328 H1315 0.961 . S
C1328 H1316 0.959 . S
C1328 C1326 1.561 . S
C1329 C1326 1.526 . S
C1329 C1330 1.396 . S
C1329 C1334 1.390 1_565 S
C1330 C1324 1.465 . S
C1330 C1329 1.396 . S
C1330 C1331 1.399 1_565 S
C1331 H1317 0.929 . S
C1331 C1330 1.399 1_545 S
C1331 C1332 1.385 . S
C1332 H1318 0.931 . S
C1332 C1331 1.385 . S
C1332 C1333 1.389 . S
C1333 C1332 1.389 . S
C1333 C1334 1.387 . S
C1334 H1319 0.930 . S
C1334 C1329 1.390 1_545 S
C1334 C1333 1.387 . S
H1335 C1347 0.930 . S
H1336 C1349 0.930 . S
H1337 C1350 0.930 . S
H1338 C1354 0.959 . S
H1339 C1354 0.959 . S
H1340 C1354 0.961 . S
H1341 C1355 0.960 . S
H1342 C1355 0.961 . S
H1343 C1355 0.959 . S
H1344 C1358 0.929 . S
H1345 C1359 0.931 . S
H1346 C1361 0.930 . S
C1347 H1335 0.930 . S
C1347 C1348 1.399 . S
C1347 C1352 1.399 . S
C1348 C1347 1.399 . S
C1348 C1349 1.376 . S
C1349 H1336 0.930 . S
C1349 C1348 1.376 . S
C1349 C1350 1.388 . S
C1350 H1337 0.930 . S
C1350 C1349 1.388 . S
C1350 C1351 1.390 . S
C1351 C1350 1.390 . S
C1351 C1352 1.394 . S
C1351 C1357 1.465 1_655 S
C1352 C1347 1.399 . S
C1352 C1351 1.394 . S
C1352 C1353 1.501 1_655 S
C1353 C1352 1.501 1_455 S
C1353 C1354 1.522 . S
C1353 C1355 1.537 1_455 S
C1353 C1356 1.544 . S
C1354 H1338 0.959 . S
C1354 H1339 0.959 . S
C1354 H1340 0.961 . S
C1354 C1353 1.522 . S
C1355 H1341 0.960 . S
C1355 H1342 0.961 . S
C1355 H1343 0.959 . S
C1355 C1353 1.537 1_655 S
C1356 C1353 1.544 . S
C1356 C1357 1.396 . S
C1356 C1361 1.390 . S
C1357 C1351 1.465 1_455 S
C1357 C1356 1.396 . S
C1357 C1358 1.399 . S
C1358 H1344 0.929 . S
C1358 C1357 1.399 . S
C1358 C1359 1.385 . S
C1359 H1345 0.931 . S
C1359 C1358 1.385 . S
C1359 C1360 1.389 . S
C1360 C1359 1.389 . S
C1360 C1361 1.387 . S
C1361 H1346 0.930 . S
C1361 C1356 1.390 . S
C1361 C1360 1.387 . S
H1362 C1374 0.930 . S
H1363 C1376 0.930 . S
H1364 C1377 0.930 . S
H1365 C1381 0.959 . S
H1366 C1381 0.959 . S
H1367 C1381 0.961 . S
H1368 C1382 0.960 . S
H1369 C1382 0.961 . S
H1370 C1382 0.959 . S
H1371 C1385 0.929 . S
H1372 C1386 0.931 . S
H1373 C1388 0.930 . S
C1374 H1362 0.930 . S
C1374 C1375 1.399 . S
C1374 C1379 1.399 . S
C1375 C1374 1.399 . S
C1375 C1376 1.376 . S
C1376 H1363 0.930 . S
C1376 C1375 1.376 . S
C1376 C1377 1.388 . S
C1377 H1364 0.930 . S
C1377 C1376 1.388 . S
C1377 C1378 1.390 . S
C1378 C1377 1.390 . S
C1378 C1379 1.394 . S
C1378 C1384 1.465 . S
C1379 C1374 1.399 . S
C1379 C1378 1.394 . S
C1379 C1380 1.516 . S
C1380 C1379 1.516 . S
C1380 C1381 1.502 . S
C1380 C1382 1.561 . S
C1380 C1383 1.526 . S
C1381 H1365 0.959 . S
C1381 H1366 0.959 . S
C1381 H1367 0.961 . S
C1381 C1380 1.502 . S
C1382 H1368 0.960 . S
C1382 H1369 0.961 . S
C1382 H1370 0.959 . S
C1382 C1380 1.561 . S
C1383 C1380 1.526 . S
C1383 C1384 1.396 . S
C1383 C1388 1.390 . S
C1384 C1378 1.465 . S
C1384 C1383 1.396 . S
C1384 C1385 1.399 . S
C1385 H1371 0.929 . S
C1385 C1384 1.399 . S
C1385 C1386 1.385 . S
C1386 H1372 0.931 . S
C1386 C1385 1.385 . S
C1386 C1387 1.389 . S
C1387 C1386 1.389 . S
C1387 C1388 1.387 . S
C1388 H1373 0.930 . S
C1388 C1383 1.390 . S
C1388 C1387 1.387 . S
H1389 C1401 0.930 . S
H1390 C1403 0.930 . S
H1391 C1404 0.930 . S
H1392 C1408 0.959 . S
H1393 C1408 0.959 . S
H1394 C1408 0.961 . S
H1395 C1409 0.960 . S
H1396 C1409 0.961 . S
H1397 C1409 0.959 . S
H1398 C1412 0.929 . S
H1399 C1413 0.931 . S
H1400 C1415 0.930 . S
C1401 H1389 0.930 . S
C1401 C1402 1.399 . S
C1401 C1406 1.399 . S
C1402 C1401 1.399 . S
C1402 C1403 1.376 . S
C1403 H1390 0.930 . S
C1403 C1402 1.376 . S
C1403 C1404 1.388 . S
C1404 H1391 0.930 . S
C1404 C1403 1.388 . S
C1404 C1405 1.390 . S
C1405 C1404 1.390 . S
C1405 C1406 1.394 . S
C1405 C1411 1.465 . S
C1406 C1401 1.399 . S
C1406 C1405 1.394 . S
C1406 C1407 1.516 . S
C1407 C1406 1.516 . S
C1407 C1408 1.502 . S
C1407 C1409 1.561 . S
C1407 C1410 1.526 . S
C1408 H1392 0.959 . S
C1408 H1393 0.959 . S
C1408 H1394 0.961 . S
C1408 C1407 1.502 . S
C1409 H1395 0.960 . S
C1409 H1396 0.961 . S
C1409 H1397 0.959 . S
C1409 C1407 1.561 . S
C1410 C1407 1.526 . S
C1410 C1411 1.396 . S
C1410 C1415 1.390 . S
C1411 C1405 1.465 . S
C1411 C1410 1.396 . S
C1411 C1412 1.399 . S
C1412 H1398 0.929 . S
C1412 C1411 1.399 . S
C1412 C1413 1.385 . S
C1413 H1399 0.931 . S
C1413 C1412 1.385 . S
C1413 C1414 1.389 . S
C1414 C1413 1.389 . S
C1414 C1415 1.387 . S
C1415 H1400 0.930 . S
C1415 C1410 1.390 . S
C1415 C1414 1.387 . S
H1416 C1428 0.930 . S
H1417 C1430 0.930 . S
H1418 C1431 0.930 . S
H1419 C1435 0.959 . S
H1420 C1435 0.959 . S
H1421 C1435 0.961 . S
H1422 C1436 0.960 . S
H1423 C1436 0.961 . S
H1424 C1436 0.959 . S
H1425 C1439 0.929 . S
H1426 C1440 0.931 . S
H1427 C1442 0.930 . S
C1428 H1416 0.930 . S
C1428 C1429 1.399 . S
C1428 C1433 1.399 . S
C1429 C1428 1.399 . S
C1429 C1430 1.376 . S
C1430 H1417 0.930 . S
C1430 C1429 1.376 . S
C1430 C1431 1.388 . S
C1431 H1418 0.930 . S
C1431 C1430 1.388 . S
C1431 C1432 1.390 . S
C1432 C1431 1.390 . S
C1432 C1433 1.394 . S
C1432 C1438 1.465 . S
C1433 C1428 1.399 . S
C1433 C1432 1.394 . S
C1433 C1434 1.516 . S
C1434 C1433 1.516 . S
C1434 C1435 1.502 . S
C1434 C1436 1.561 . S
C1434 C1437 1.526 . S
C1435 H1419 0.959 . S
C1435 H1420 0.959 . S
C1435 H1421 0.961 . S
C1435 C1434 1.502 . S
C1436 H1422 0.960 . S
C1436 H1423 0.961 . S
C1436 H1424 0.959 . S
C1436 C1434 1.561 . S
C1437 C1434 1.526 . S
C1437 C1438 1.396 . S
C1437 C1442 1.390 . S
C1438 C1432 1.465 . S
C1438 C1437 1.396 . S
C1438 C1439 1.399 . S
C1439 H1425 0.929 . S
C1439 C1438 1.399 . S
C1439 C1440 1.385 . S
C1440 H1426 0.931 . S
C1440 C1439 1.385 . S
C1440 C1441 1.389 . S
C1441 C1440 1.389 . S
C1441 C1442 1.387 . S
C1442 H1427 0.930 . S
C1442 C1437 1.390 . S
C1442 C1441 1.387 . S
H1443 C1455 0.930 . S
H1444 C1457 0.930 . S
H1445 C1458 0.930 . S
H1446 C1462 0.959 . S
H1447 C1462 0.959 . S
H1448 C1462 0.961 . S
H1449 C1463 0.979 . S
H1450 C1463 0.961 . S
H1451 C1463 0.959 . S
H1452 C1466 0.929 . S
H1453 C1467 0.931 . S
H1454 C1469 0.930 . S
C1455 H1443 0.930 . S
C1455 C1456 1.399 . S
C1455 C1460 1.399 . S
C1456 C1455 1.399 . S
C1456 C1457 1.376 . S
C1457 H1444 0.930 . S
C1457 C1456 1.376 . S
C1457 C1458 1.388 . S
C1458 H1445 0.930 . S
C1458 C1457 1.388 . S
C1458 C1459 1.390 . S
C1459 C1458 1.390 . S
C1459 C1460 1.394 . S
C1459 C1465 1.455 1_554 S
C1460 C1455 1.399 . S
C1460 C1459 1.394 . S
C1460 C1461 1.516 . S
C1461 C1460 1.516 . S
C1461 C1462 1.502 . S
C1461 C1463 1.561 1_554 S
C1461 C1464 1.526 1_554 S
C1462 H1446 0.959 . S
C1462 H1447 0.959 . S
C1462 H1448 0.961 . S
C1462 C1461 1.502 . S
C1463 H1449 0.979 . S
C1463 H1450 0.961 . S
C1463 H1451 0.959 . S
C1463 C1461 1.561 1_556 S
C1464 C1461 1.526 1_556 S
C1464 C1465 1.400 . S
C1464 C1469 1.390 . S
C1465 C1459 1.455 1_556 S
C1465 C1464 1.400 . S
C1465 C1466 1.405 . S
C1466 H1452 0.929 . S
C1466 C1465 1.405 . S
C1466 C1467 1.385 . S
C1467 H1453 0.931 . S
C1467 C1466 1.385 . S
C1467 C1468 1.389 . S
C1468 C1467 1.389 . S
C1468 C1469 1.387 . S
C1469 H1454 0.930 . S
C1469 C1464 1.390 . S
C1469 C1468 1.387 . S
H1470 C1482 0.930 . S
H1471 C1484 0.930 . S
H1472 C1485 0.930 . S
H1473 C1489 0.959 . S
H1474 C1489 0.959 . S
H1475 C1489 0.961 . S
H1476 C1490 0.960 . S
H1477 C1490 0.961 . S
H1478 C1490 0.959 . S
H1479 C1493 0.929 . S
H1480 C1494 0.931 . S
H1481 C1496 0.930 . S
C1482 H1470 0.930 . S
C1482 C1483 1.399 . S
C1482 C1487 1.399 . S
C1483 C1482 1.399 . S
C1483 C1484 1.376 . S
C1484 H1471 0.930 . S
C1484 C1483 1.376 . S
C1484 C1485 1.388 . S
C1485 H1472 0.930 . S
C1485 C1484 1.388 . S
C1485 C1486 1.390 . S
C1486 C1485 1.390 . S
C1486 C1487 1.394 . S
C1486 C1492 1.465 . S
C1487 C1482 1.399 . S
C1487 C1486 1.394 . S
C1487 C1488 1.516 . S
C1488 C1487 1.516 . S
C1488 C1489 1.502 . S
C1488 C1490 1.561 . S
C1488 C1491 1.526 . S
C1489 H1473 0.959 . S
C1489 H1474 0.959 . S
C1489 H1475 0.961 . S
C1489 C1488 1.502 . S
C1490 H1476 0.960 . S
C1490 H1477 0.961 . S
C1490 H1478 0.959 . S
C1490 C1488 1.561 . S
C1491 C1488 1.526 . S
C1491 C1492 1.396 . S
C1491 C1496 1.390 . S
C1492 C1486 1.465 . S
C1492 C1491 1.396 . S
C1492 C1493 1.399 . S
C1493 H1479 0.929 . S
C1493 C1492 1.399 . S
C1493 C1494 1.385 . S
C1494 H1480 0.931 . S
C1494 C1493 1.385 . S
C1494 C1495 1.389 . S
C1495 C1494 1.389 . S
C1495 C1496 1.387 . S
C1496 H1481 0.930 . S
C1496 C1491 1.390 . S
C1496 C1495 1.387 . S
H1497 C1509 0.930 . S
H1498 C1511 0.930 . S
H1499 C1512 0.930 . S
H1500 C1516 0.959 . S
H1501 C1516 0.959 1_554 S
H1502 C1516 0.961 . S
H1503 C1517 0.960 . S
H1504 C1517 0.961 . S
H1505 C1517 0.959 . S
H1506 C1520 0.929 . S
H1507 C1521 0.931 . S
H1508 C1523 0.930 . S
C1509 H1497 0.930 . S
C1509 C1510 1.399 . S
C1509 C1514 1.399 . S
C1510 C1509 1.399 . S
C1510 C1511 1.376 . S
C1511 H1498 0.930 . S
C1511 C1510 1.376 . S
C1511 C1512 1.388 . S
C1512 H1499 0.930 . S
C1512 C1511 1.388 . S
C1512 C1513 1.390 1_556 S
C1513 C1512 1.390 1_554 S
C1513 C1514 1.394 1_554 S
C1513 C1519 1.465 . S
C1514 C1509 1.399 . S
C1514 C1513 1.394 1_556 S
C1514 C1515 1.516 1_556 S
C1515 C1514 1.516 1_554 S
C1515 C1516 1.502 1_554 S
C1515 C1517 1.561 . S
C1515 C1518 1.526 . S
C1516 H1500 0.959 . S
C1516 H1501 0.959 1_556 S
C1516 H1502 0.961 . S
C1516 C1515 1.502 1_556 S
C1517 H1503 0.960 . S
C1517 H1504 0.961 . S
C1517 H1505 0.959 . S
C1517 C1515 1.561 . S
C1518 C1515 1.526 . S
C1518 C1519 1.396 . S
C1518 C1523 1.390 . S
C1519 C1513 1.465 . S
C1519 C1518 1.396 . S
C1519 C1520 1.399 . S
C1520 H1506 0.929 . S
C1520 C1519 1.399 . S
C1520 C1521 1.385 . S
C1521 H1507 0.931 . S
C1521 C1520 1.385 . S
C1521 C1522 1.389 . S
C1522 C1521 1.389 . S
C1522 C1523 1.387 . S
C1523 H1508 0.930 . S
C1523 C1518 1.390 . S
C1523 C1522 1.387 . S
H1524 C1536 0.930 . S
H1525 C1538 0.930 . S
H1526 C1539 0.930 . S
H1527 C1543 0.959 . S
H1528 C1543 0.959 . S
H1529 C1543 0.961 . S
H1530 C1544 0.960 . S
H1531 C1544 0.961 . S
H1532 C1544 0.959 . S
H1533 C1547 0.929 . S
H1534 C1548 0.931 . S
H1535 C1550 0.930 . S
C1536 H1524 0.930 . S
C1536 C1537 1.399 . S
C1536 C1541 1.399 . S
C1537 C1536 1.399 . S
C1537 C1538 1.376 . S
C1538 H1525 0.930 . S
C1538 C1537 1.376 . S
C1538 C1539 1.388 . S
C1539 H1526 0.930 . S
C1539 C1538 1.388 . S
C1539 C1540 1.390 . S
C1540 C1539 1.390 . S
C1540 C1541 1.394 . S
C1540 C1546 1.465 . S
C1541 C1536 1.399 . S
C1541 C1540 1.394 . S
C1541 C1542 1.516 . S
C1542 C1541 1.516 . S
C1542 C1543 1.502 . S
C1542 C1544 1.561 . S
C1542 C1545 1.526 . S
C1543 H1527 0.959 . S
C1543 H1528 0.959 . S
C1543 H1529 0.961 . S
C1543 C1542 1.502 . S
C1544 H1530 0.960 . S
C1544 H1531 0.961 . S
C1544 H1532 0.959 . S
C1544 C1542 1.561 . S
C1545 C1542 1.526 . S
C1545 C1546 1.396 . S
C1545 C1550 1.390 . S
C1546 C1540 1.465 . S
C1546 C1545 1.396 . S
C1546 C1547 1.399 . S
C1547 H1533 0.929 . S
C1547 C1546 1.399 . S
C1547 C1548 1.385 . S
C1548 H1534 0.931 . S
C1548 C1547 1.385 . S
C1548 C1549 1.389 . S
C1549 C1548 1.389 . S
C1549 C1550 1.387 . S
C1550 H1535 0.930 . S
C1550 C1545 1.390 . S
C1550 C1549 1.387 . S
H1551 C1563 0.930 . S
H1552 C1565 0.930 . S
H1553 C1566 0.930 . S
H1554 C1570 0.959 . S
H1555 C1570 0.959 . S
H1556 C1570 0.961 . S
H1557 C1571 0.960 . S
H1558 C1571 0.961 . S
H1559 C1571 0.959 . S
H1560 C1574 0.929 . S
H1561 C1575 0.931 . S
H1562 C1577 0.930 . S
C1563 H1551 0.930 . S
C1563 C1564 1.399 . S
C1563 C1568 1.399 . S
C1564 C1563 1.399 . S
C1564 C1565 1.376 . S
C1565 H1552 0.930 . S
C1565 C1564 1.376 . S
C1565 C1566 1.388 . S
C1566 H1553 0.930 . S
C1566 C1565 1.388 . S
C1566 C1567 1.390 . S
C1567 C1566 1.390 . S
C1567 C1568 1.394 . S
C1567 C1573 1.465 . S
C1568 C1563 1.399 . S
C1568 C1567 1.394 . S
C1568 C1569 1.516 . S
C1569 C1568 1.516 . S
C1569 C1570 1.502 . S
C1569 C1571 1.561 . S
C1569 C1572 1.526 . S
C1570 H1554 0.959 . S
C1570 H1555 0.959 . S
C1570 H1556 0.961 . S
C1570 C1569 1.502 . S
C1571 H1557 0.960 . S
C1571 H1558 0.961 . S
C1571 H1559 0.959 . S
C1571 C1569 1.561 . S
C1572 C1569 1.526 . S
C1572 C1573 1.396 . S
C1572 C1577 1.390 . S
C1573 C1567 1.465 . S
C1573 C1572 1.396 . S
C1573 C1574 1.399 . S
C1574 H1560 0.929 . S
C1574 C1573 1.399 . S
C1574 C1575 1.385 . S
C1575 H1561 0.931 . S
C1575 C1574 1.385 . S
C1575 C1576 1.389 . S
C1576 C1575 1.389 . S
C1576 C1577 1.387 . S
C1577 H1562 0.930 . S
C1577 C1572 1.390 . S
C1577 C1576 1.387 . S
H1578 C1590 0.930 . S
H1579 C1592 0.930 . S
H1580 C1593 0.930 . S
H1581 C1597 0.959 . S
H1582 C1597 0.959 . S
H1583 C1597 0.961 . S
H1584 C1598 0.960 . S
H1585 C1598 0.961 . S
H1586 C1598 0.959 . S
H1587 C1601 0.939 . S
H1588 C1602 0.931 . S
H1589 C1604 0.930 . S
C1590 H1578 0.930 . S
C1590 C1591 1.399 . S
C1590 C1595 1.399 . S
C1591 C1590 1.399 . S
C1591 C1592 1.376 . S
C1592 H1579 0.930 . S
C1592 C1591 1.376 . S
C1592 C1593 1.388 . S
C1593 H1580 0.930 . S
C1593 C1592 1.388 . S
C1593 C1594 1.390 . S
C1594 C1593 1.390 . S
C1594 C1595 1.394 . S
C1594 C1600 1.469 1_545 S
C1595 C1590 1.399 . S
C1595 C1594 1.394 . S
C1595 C1596 1.516 1_545 S
C1596 C1595 1.516 1_565 S
C1596 C1597 1.502 . S
C1596 C1598 1.561 . S
C1596 C1599 1.526 . S
C1597 H1581 0.959 . S
C1597 H1582 0.959 . S
C1597 H1583 0.961 . S
C1597 C1596 1.502 . S
C1598 H1584 0.960 . S
C1598 H1585 0.961 . S
C1598 H1586 0.959 . S
C1598 C1596 1.561 . S
C1599 C1596 1.526 . S
C1599 C1600 1.392 . S
C1599 C1604 1.390 . S
C1600 C1594 1.469 1_565 S
C1600 C1599 1.392 . S
C1600 C1601 1.399 1_565 S
C1601 H1587 0.939 . S
C1601 C1600 1.399 1_545 S
C1601 C1602 1.375 1_545 S
C1602 H1588 0.931 . S
C1602 C1601 1.375 1_565 S
C1602 C1603 1.389 . S
C1603 C1602 1.389 . S
C1603 C1604 1.387 . S
C1604 H1589 0.930 . S
C1604 C1599 1.390 . S
C1604 C1603 1.387 . S
H1605 C1617 0.930 . S
H1606 C1619 0.930 . S
H1607 C1620 0.930 . S
H1608 C1624 0.959 . S
H1609 C1624 0.959 1_655 S
H1610 C1624 0.961 . S
H1611 C1625 0.960 . S
H1612 C1625 0.961 . S
H1613 C1625 0.959 . S
H1614 C1628 0.929 . S
H1615 C1629 0.931 . S
H1616 C1631 0.930 . S
C1617 H1605 0.930 . S
C1617 C1618 1.399 . S
C1617 C1622 1.399 . S
C1618 C1617 1.399 . S
C1618 C1619 1.376 . S
C1619 H1606 0.930 . S
C1619 C1618 1.376 . S
C1619 C1620 1.388 . S
C1620 H1607 0.930 . S
C1620 C1619 1.388 . S
C1620 C1621 1.390 . S
C1621 C1620 1.390 . S
C1621 C1622 1.394 . S
C1621 C1627 1.465 1_455 S
C1622 C1617 1.399 . S
C1622 C1621 1.394 . S
C1622 C1623 1.533 . S
C1623 C1622 1.533 . S
C1623 C1624 1.512 . S
C1623 C1625 1.547 1_455 S
C1623 C1626 1.512 1_455 S
C1624 H1608 0.959 . S
C1624 H1609 0.959 1_455 S
C1624 H1610 0.961 . S
C1624 C1623 1.512 . S
C1625 H1611 0.960 . S
C1625 H1612 0.961 . S
C1625 H1613 0.959 . S
C1625 C1623 1.547 1_655 S
C1626 C1623 1.512 1_655 S
C1626 C1627 1.396 . S
C1626 C1631 1.390 . S
C1627 C1621 1.465 1_655 S
C1627 C1626 1.396 . S
C1627 C1628 1.399 . S
C1628 H1614 0.929 . S
C1628 C1627 1.399 . S
C1628 C1629 1.385 . S
C1629 H1615 0.931 . S
C1629 C1628 1.385 . S
C1629 C1630 1.389 . S
C1630 C1629 1.389 . S
C1630 C1631 1.387 . S
C1631 H1616 0.930 . S
C1631 C1626 1.390 . S
C1631 C1630 1.387 . S
H1632 C1644 0.930 . S
H1633 C1646 0.930 . S
H1634 C1647 0.930 . S
H1635 C1651 0.959 . S
H1636 C1651 0.959 . S
H1637 C1651 0.961 1_545 S
H1638 C1652 0.960 . S
H1639 C1652 0.961 1_565 S
H1640 C1652 0.959 . S
H1641 C1655 0.929 . S
H1642 C1656 0.931 . S
H1643 C1658 0.930 . S
C1644 H1632 0.930 . S
C1644 C1645 1.399 . S
C1644 C1649 1.399 . S
C1645 C1644 1.399 . S
C1645 C1646 1.376 . S
C1646 H1633 0.930 . S
C1646 C1645 1.376 . S
C1646 C1647 1.388 . S
C1647 H1634 0.930 . S
C1647 C1646 1.388 . S
C1647 C1648 1.390 . S
C1648 C1647 1.390 . S
C1648 C1649 1.394 . S
C1648 C1654 1.465 . S
C1649 C1644 1.399 . S
C1649 C1648 1.394 . S
C1649 C1650 1.516 . S
C1650 C1649 1.516 . S
C1650 C1651 1.502 1_545 S
C1650 C1652 1.561 . S
C1650 C1653 1.526 1_545 S
C1651 H1635 0.959 . S
C1651 H1636 0.959 . S
C1651 H1637 0.961 1_565 S
C1651 C1650 1.502 1_565 S
C1652 H1638 0.960 . S
C1652 H1639 0.961 1_545 S
C1652 H1640 0.959 . S
C1652 C1650 1.561 . S
C1653 C1650 1.526 1_565 S
C1653 C1654 1.396 1_565 S
C1653 C1658 1.390 . S
C1654 C1648 1.465 . S
C1654 C1653 1.396 1_545 S
C1654 C1655 1.399 . S
C1655 H1641 0.929 . S
C1655 C1654 1.399 . S
C1655 C1656 1.385 1_545 S
C1656 H1642 0.931 . S
C1656 C1655 1.385 1_565 S
C1656 C1657 1.389 . S
C1657 C1656 1.389 . S
C1657 C1658 1.387 . S
C1658 H1643 0.930 . S
C1658 C1653 1.390 . S
C1658 C1657 1.387 . S
H1659 C1671 0.930 . S
H1660 C1673 0.930 . S
H1661 C1674 0.930 1_655 S
H1662 C1678 0.959 . S
H1663 C1678 0.959 . S
H1664 C1678 0.961 . S
H1665 C1679 0.960 1_455 S
H1666 C1679 0.961 . S
H1667 C1679 0.959 . S
H1668 C1682 0.929 . S
H1669 C1683 0.931 . S
H1670 C1685 0.930 . S
C1671 H1659 0.930 . S
C1671 C1672 1.399 . S
C1671 C1676 1.399 . S
C1672 C1671 1.399 . S
C1672 C1673 1.376 . S
C1673 H1660 0.930 . S
C1673 C1672 1.376 . S
C1673 C1674 1.388 . S
C1674 H1661 0.930 1_455 S
C1674 C1673 1.388 . S
C1674 C1675 1.390 1_455 S
C1675 C1674 1.390 1_655 S
C1675 C1676 1.394 1_655 S
C1675 C1681 1.465 . S
C1676 C1671 1.399 . S
C1676 C1675 1.394 1_455 S
C1676 C1677 1.516 . S
C1677 C1676 1.516 . S
C1677 C1678 1.502 . S
C1677 C1679 1.561 1_455 S
C1677 C1680 1.526 1_455 S
C1678 H1662 0.959 . S
C1678 H1663 0.959 . S
C1678 H1664 0.961 . S
C1678 C1677 1.502 . S
C1679 H1665 0.960 1_655 S
C1679 H1666 0.961 . S
C1679 H1667 0.959 . S
C1679 C1677 1.561 1_655 S
C1680 C1677 1.526 1_655 S
C1680 C1681 1.396 . S
C1680 C1685 1.390 . S
C1681 C1675 1.465 . S
C1681 C1680 1.396 . S
C1681 C1682 1.399 . S
C1682 H1668 0.929 . S
C1682 C1681 1.399 . S
C1682 C1683 1.385 . S
C1683 H1669 0.931 . S
C1683 C1682 1.385 . S
C1683 C1684 1.389 . S
C1684 C1683 1.389 . S
C1684 C1685 1.387 . S
C1685 H1670 0.930 . S
C1685 C1680 1.390 . S
C1685 C1684 1.387 . S
H1686 C1698 0.930 . S
H1687 C1700 0.930 . S
H1688 C1701 0.930 . S
H1689 C1705 0.959 . S
H1690 C1705 0.959 . S
H1691 C1705 0.961 . S
H1692 C1706 0.960 . S
H1693 C1706 0.961 . S
H1694 C1706 0.959 . S
H1695 C1709 0.929 . S
H1696 C1710 0.931 . S
H1697 C1712 0.930 . S
C1698 H1686 0.930 . S
C1698 C1699 1.399 . S
C1698 C1703 1.399 . S
C1699 C1698 1.399 . S
C1699 C1700 1.376 . S
C1700 H1687 0.930 . S
C1700 C1699 1.376 . S
C1700 C1701 1.388 . S
C1701 H1688 0.930 . S
C1701 C1700 1.388 . S
C1701 C1702 1.390 . S
C1702 C1701 1.390 . S
C1702 C1703 1.394 . S
C1702 C1708 1.465 . S
C1703 C1698 1.399 . S
C1703 C1702 1.394 . S
C1703 C1704 1.516 . S
C1704 C1703 1.516 . S
C1704 C1705 1.502 . S
C1704 C1706 1.561 . S
C1704 C1707 1.526 . S
C1705 H1689 0.959 . S
C1705 H1690 0.959 . S
C1705 H1691 0.961 . S
C1705 C1704 1.502 . S
C1706 H1692 0.960 . S
C1706 H1693 0.961 . S
C1706 H1694 0.959 . S
C1706 C1704 1.561 . S
C1707 C1704 1.526 . S
C1707 C1708 1.396 . S
C1707 C1712 1.390 . S
C1708 C1702 1.465 . S
C1708 C1707 1.396 . S
C1708 C1709 1.399 . S
C1709 H1695 0.929 . S
C1709 C1708 1.399 . S
C1709 C1710 1.385 . S
C1710 H1696 0.931 . S
C1710 C1709 1.385 . S
C1710 C1711 1.389 . S
C1711 C1710 1.389 . S
C1711 C1712 1.387 . S
C1712 H1697 0.930 . S
C1712 C1707 1.390 . S
C1712 C1711 1.387 . S
H1713 C1725 0.930 . S
H1714 C1727 0.930 . S
H1715 C1728 0.930 . S
H1716 C1732 0.959 . S
H1717 C1732 0.959 . S
H1718 C1732 0.961 . S
H1719 C1733 0.960 . S
H1720 C1733 0.961 . S
H1721 C1733 0.959 . S
H1722 C1736 0.929 . S
H1723 C1737 0.931 . S
H1724 C1739 0.930 . S
C1725 H1713 0.930 . S
C1725 C1726 1.399 . S
C1725 C1730 1.399 . S
C1726 C1725 1.399 . S
C1726 C1727 1.376 . S
C1727 H1714 0.930 . S
C1727 C1726 1.376 . S
C1727 C1728 1.388 . S
C1728 H1715 0.930 . S
C1728 C1727 1.388 . S
C1728 C1729 1.390 . S
C1729 C1728 1.390 . S
C1729 C1730 1.394 . S
C1729 C1735 1.465 . S
C1730 C1725 1.399 . S
C1730 C1729 1.394 . S
C1730 C1731 1.516 . S
C1731 C1730 1.516 . S
C1731 C1732 1.502 . S
C1731 C1733 1.561 . S
C1731 C1734 1.526 . S
C1732 H1716 0.959 . S
C1732 H1717 0.959 . S
C1732 H1718 0.961 . S
C1732 C1731 1.502 . S
C1733 H1719 0.960 . S
C1733 H1720 0.961 . S
C1733 H1721 0.959 . S
C1733 C1731 1.561 . S
C1734 C1731 1.526 . S
C1734 C1735 1.396 . S
C1734 C1739 1.390 . S
C1735 C1729 1.465 . S
C1735 C1734 1.396 . S
C1735 C1736 1.399 . S
C1736 H1722 0.929 . S
C1736 C1735 1.399 . S
C1736 C1737 1.385 . S
C1737 H1723 0.931 . S
C1737 C1736 1.385 . S
C1737 C1738 1.389 . S
C1738 C1737 1.389 . S
C1738 C1739 1.387 . S
C1739 H1724 0.930 . S
C1739 C1734 1.390 . S
C1739 C1738 1.387 . S
H1740 C1752 0.930 . S
H1741 C1754 0.930 . S
H1742 C1755 0.930 . S
H1743 C1759 0.959 . S
H1744 C1759 0.959 . S
H1745 C1759 0.961 . S
H1746 C1760 0.960 . S
H1747 C1760 0.961 . S
H1748 C1760 0.959 . S
H1749 C1763 0.929 . S
H1750 C1764 0.931 . S
H1751 C1766 0.930 . S
C1752 H1740 0.930 . S
C1752 C1753 1.399 . S
C1752 C1757 1.399 . S
C1753 C1752 1.399 . S
C1753 C1754 1.376 . S
C1754 H1741 0.930 . S
C1754 C1753 1.376 . S
C1754 C1755 1.388 . S
C1755 H1742 0.930 . S
C1755 C1754 1.388 . S
C1755 C1756 1.390 . S
C1756 C1755 1.390 . S
C1756 C1757 1.394 . S
C1756 C1762 1.465 . S
C1757 C1752 1.399 . S
C1757 C1756 1.394 . S
C1757 C1758 1.516 . S
C1758 C1757 1.516 . S
C1758 C1759 1.502 . S
C1758 C1760 1.561 . S
C1758 C1761 1.526 . S
C1759 H1743 0.959 . S
C1759 H1744 0.959 . S
C1759 H1745 0.961 . S
C1759 C1758 1.502 . S
C1760 H1746 0.960 . S
C1760 H1747 0.961 . S
C1760 H1748 0.959 . S
C1760 C1758 1.561 . S
C1761 C1758 1.526 . S
C1761 C1762 1.396 . S
C1761 C1766 1.390 . S
C1762 C1756 1.465 . S
C1762 C1761 1.396 . S
C1762 C1763 1.399 . S
C1763 H1749 0.929 . S
C1763 C1762 1.399 . S
C1763 C1764 1.385 . S
C1764 H1750 0.931 . S
C1764 C1763 1.385 . S
C1764 C1765 1.389 . S
C1765 C1764 1.389 . S
C1765 C1766 1.387 . S
C1766 H1751 0.930 . S
C1766 C1761 1.390 . S
C1766 C1765 1.387 . S
H1767 C1779 0.930 . S
H1768 C1781 0.930 . S
H1769 C1782 0.930 . S
H1770 C1786 0.959 . S
H1771 C1786 0.959 . S
H1772 C1786 0.961 . S
H1773 C1787 0.960 1_554 S
H1774 C1787 0.961 . S
H1775 C1787 0.959 1_554 S
H1776 C1790 0.929 . S
H1777 C1791 0.931 . S
H1778 C1793 0.930 . S
C1779 H1767 0.930 . S
C1779 C1780 1.399 . S
C1779 C1784 1.399 . S
C1780 C1779 1.399 . S
C1780 C1781 1.376 . S
C1781 H1768 0.930 . S
C1781 C1780 1.376 . S
C1781 C1782 1.388 . S
C1782 H1769 0.930 . S
C1782 C1781 1.388 . S
C1782 C1783 1.390 . S
C1783 C1782 1.390 . S
C1783 C1784 1.394 . S
C1783 C1789 1.465 1_554 S
C1784 C1779 1.399 . S
C1784 C1783 1.394 . S
C1784 C1785 1.516 1_554 S
C1785 C1784 1.516 1_556 S
C1785 C1786 1.502 . S
C1785 C1787 1.561 . S
C1785 C1788 1.526 . S
C1786 H1770 0.959 . S
C1786 H1771 0.959 . S
C1786 H1772 0.961 . S
C1786 C1785 1.502 . S
C1787 H1773 0.960 1_556 S
C1787 H1774 0.961 . S
C1787 H1775 0.959 1_556 S
C1787 C1785 1.561 . S
C1788 C1785 1.526 . S
C1788 C1789 1.396 . S
C1788 C1793 1.390 . S
C1789 C1783 1.465 1_556 S
C1789 C1788 1.396 . S
C1789 C1790 1.399 . S
C1790 H1776 0.929 . S
C1790 C1789 1.399 . S
C1790 C1791 1.385 . S
C1791 H1777 0.931 . S
C1791 C1790 1.385 . S
C1791 C1792 1.389 . S
C1792 C1791 1.389 . S
C1792 C1793 1.387 . S
C1793 H1778 0.930 . S
C1793 C1788 1.390 . S
C1793 C1792 1.387 . S
H1794 C1806 0.930 . S
H1795 C1808 0.930 . S
H1796 C1809 0.930 . S
H1797 C1813 0.959 . S
H1798 C1813 0.959 . S
H1799 C1813 0.961 . S
H1800 C1814 0.960 . S
H1801 C1814 0.961 . S
H1802 C1814 0.959 . S
H1803 C1817 0.929 . S
H1804 C1818 0.931 . S
H1805 C1820 0.930 . S
C1806 H1794 0.930 . S
C1806 C1807 1.399 . S
C1806 C1811 1.399 . S
C1807 C1806 1.399 . S
C1807 C1808 1.376 . S
C1808 H1795 0.930 . S
C1808 C1807 1.376 . S
C1808 C1809 1.388 . S
C1809 H1796 0.930 . S
C1809 C1808 1.388 . S
C1809 C1810 1.390 . S
C1810 C1809 1.390 . S
C1810 C1811 1.394 . S
C1810 C1816 1.465 . S
C1811 C1806 1.399 . S
C1811 C1810 1.394 . S
C1811 C1812 1.516 . S
C1812 C1811 1.516 . S
C1812 C1813 1.502 . S
C1812 C1814 1.561 . S
C1812 C1815 1.526 . S
C1813 H1797 0.959 . S
C1813 H1798 0.959 . S
C1813 H1799 0.961 . S
C1813 C1812 1.502 . S
C1814 H1800 0.960 . S
C1814 H1801 0.961 . S
C1814 H1802 0.959 . S
C1814 C1812 1.561 . S
C1815 C1812 1.526 . S
C1815 C1816 1.396 . S
C1815 C1820 1.390 . S
C1816 C1810 1.465 . S
C1816 C1815 1.396 . S
C1816 C1817 1.399 . S
C1817 H1803 0.929 . S
C1817 C1816 1.399 . S
C1817 C1818 1.385 . S
C1818 H1804 0.931 . S
C1818 C1817 1.385 . S
C1818 C1819 1.389 . S
C1819 C1818 1.389 . S
C1819 C1820 1.387 . S
C1820 H1805 0.930 . S
C1820 C1815 1.390 . S
C1820 C1819 1.387 . S
H1821 C1833 0.930 . S
H1822 C1835 0.930 . S
H1823 C1836 0.930 . S
H1824 C1840 0.959 . S
H1825 C1840 0.959 . S
H1826 C1840 0.961 . S
H1827 C1841 0.960 . S
H1828 C1841 0.961 1_556 S
H1829 C1841 0.959 . S
H1830 C1844 0.929 . S
H1831 C1845 0.931 . S
H1832 C1847 0.930 . S
C1833 H1821 0.930 . S
C1833 C1834 1.399 . S
C1833 C1838 1.399 . S
C1834 C1833 1.399 . S
C1834 C1835 1.376 . S
C1835 H1822 0.930 . S
C1835 C1834 1.376 . S
C1835 C1836 1.388 . S
C1836 H1823 0.930 . S
C1836 C1835 1.388 . S
C1836 C1837 1.390 . S
C1837 C1836 1.390 . S
C1837 C1838 1.394 . S
C1837 C1843 1.465 1_554 S
C1838 C1833 1.399 . S
C1838 C1837 1.394 . S
C1838 C1839 1.516 1_554 S
C1839 C1838 1.516 1_556 S
C1839 C1840 1.502 . S
C1839 C1841 1.561 1_556 S
C1839 C1842 1.526 . S
C1840 H1824 0.959 . S
C1840 H1825 0.959 . S
C1840 H1826 0.961 . S
C1840 C1839 1.502 . S
C1841 H1827 0.960 . S
C1841 H1828 0.961 1_554 S
C1841 H1829 0.959 . S
C1841 C1839 1.561 1_554 S
C1842 C1839 1.526 . S
C1842 C1843 1.396 . S
C1842 C1847 1.390 . S
C1843 C1837 1.465 1_556 S
C1843 C1842 1.396 . S
C1843 C1844 1.399 . S
C1844 H1830 0.929 . S
C1844 C1843 1.399 . S
C1844 C1845 1.385 . S
C1845 H1831 0.931 . S
C1845 C1844 1.385 . S
C1845 C1846 1.389 . S
C1846 C1845 1.389 . S
C1846 C1847 1.387 . S
C1847 H1832 0.930 . S
C1847 C1842 1.390 . S
C1847 C1846 1.387 . S
C565 N94 1.584 . S
C577 N2 1.602 . S
C592 C30 1.788 . S
C604 C122 1.780 . S
C619 N140 1.634 . S
C631 N48 1.601 . S
C646 C168 1.748 . S
C658 C76 1.748 . S
C673 N324 1.644 . S
C685 C191 1.644 . S
C700 N347 1.624 . S
C712 N209 1.592 . S
C727 C237 1.672 . S
C739 N278 1.672 . S
C754 N301 1.614 . S
C766 N255 1.573 . S
C781 C375 1.597 . S
C793 C490 1.608 . S
C808 C398 1.940 . S
C820 C444 1.930 . S
C835 C421 1.902 . S
C847 C467 1.890 . S
C862 N508 1.423 . S
C874 N531 1.435 . S
C889 N71 1.418 . S
C901 N117 1.390 . S
C916 C7 1.643 . S
C928 C145 1.645 . S
C943 N163 1.374 . S
C955 N25 1.432 . S
C970 C53 1.650 . S
C982 C99 1.645 . S
C997 C536 1.507 . S
C1009 N416 1.482 . S
C1024 N439 1.389 . S
C1036 N485 1.423 . S
C1051 N462 1.439 . S
C1063 C513 1.512 . S
C1078 N393 1.385 . S
C1090 N370 1.416 . S
C1105 C260 1.481 . S
C1117 C214 1.476 . S
C1132 C352 1.748 . S
C1144 C306 1.756 . S
C1159 C283 1.758 . S
C1171 C329 1.763 . S
C1186 N232 1.240 . S
C1198 N186 1.279 . S
C1213 N518 1.718 . S
C1225 N12 1.745 . S
C1240 C384 1.631 . S
C1252 C39 1.638 . S
C1267 N541 1.711 . S
C1279 N58 1.743 . S
C1294 C499 1.629 . S
C1306 C85 1.629 . S
C1321 C430 1.666 . S
C1333 N104 1.608 . S
C1348 C131 1.777 . S
C1360 C453 1.785 . S
C1375 C476 1.664 . S
C1387 N150 1.610 . S
C1402 C407 1.762 . S
C1414 C177 1.795 . S
C1429 N311 1.654 . S
C1441 C200 1.719 . S
C1456 N334 1.680 . S
C1468 N219 1.681 . S
C1483 N357 1.669 . S
C1495 C246 1.694 . S
C1510 N265 1.689 . S
C1522 N288 1.671 . S
C1537 N127 1.515 . S
C1549 N242 1.530 . S
C1564 C154 1.450 . S
C1576 C269 1.399 . S
C1591 N196 1.534 . S
C1603 N173 1.543 . S
C1618 C108 1.429 . S
C1630 C223 1.419 . S
C1645 C338 1.483 . S
C1657 N81 1.510 . S
C1672 C16 1.540 . S
C1684 C361 1.499 . S
C1699 C292 1.482 . S
C1711 N35 1.501 . S
C1726 C62 1.550 . S
C1738 C315 1.489 . S
C1753 N403 1.514 . S
C1765 C545 1.464 . S
C1780 N495 1.537 . S
C1792 N426 1.532 . S
C1807 C522 1.450 . S
C1819 N449 1.483 . S
C1834 N380 1.540 . S
C1846 N472 1.537 . S
