# Generated by pormake.
# Topology sxe, (6)-cn, num edge types: 1
# Building blocks:
#     Node 0, Type 0, BuildingBlock: IZENUY_clean_sbu_0, # of connection points: 6
#     Node 1, Type 0, BuildingBlock: IZENUY_clean_sbu_0, # of connection points: 6
#     Node 2, Type 0, BuildingBlock: IZENUY_clean_sbu_0, # of connection points: 6
#     Node 3, Type 0, BuildingBlock: IZENUY_clean_sbu_0, # of connection points: 6
#     Node 4, Type 0, BuildingBlock: IZENUY_clean_sbu_0, # of connection points: 6
#     Node 5, Type 0, BuildingBlock: IZENUY_clean_sbu_0, # of connection points: 6
#     Node 6, Type 0, BuildingBlock: IZENUY_clean_sbu_0, # of connection points: 6
#     Node 7, Type 0, BuildingBlock: IZENUY_clean_sbu_0, # of connection points: 6
#     Node 8, Type 0, BuildingBlock: IZENUY_clean_sbu_0, # of connection points: 6
#     Node 9, Type 0, BuildingBlock: IZENUY_clean_sbu_0, # of connection points: 6
#     Node 10, Type 0, BuildingBlock: IZENUY_clean_sbu_0, # of connection points: 6
#     Node 11, Type 0, BuildingBlock: IZENUY_clean_sbu_0, # of connection points: 6
#     Node 12, Type 0, BuildingBlock: IZENUY_clean_sbu_0, # of connection points: 6
#     Node 13, Type 0, BuildingBlock: IZENUY_clean_sbu_0, # of connection points: 6
#     Node 14, Type 0, BuildingBlock: IZENUY_clean_sbu_0, # of connection points: 6
#     Node 15, Type 0, BuildingBlock: IZENUY_clean_sbu_0, # of connection points: 6
#     Node 16, Type 0, BuildingBlock: IZENUY_clean_sbu_0, # of connection points: 6
#     Node 17, Type 0, BuildingBlock: IZENUY_clean_sbu_0, # of connection points: 6
#     Node 18, Type 0, BuildingBlock: IZENUY_clean_sbu_0, # of connection points: 6
#     Node 19, Type 0, BuildingBlock: IZENUY_clean_sbu_0, # of connection points: 6
#     Node 20, Type 0, BuildingBlock: IZENUY_clean_sbu_0, # of connection points: 6
#     Node 21, Type 0, BuildingBlock: IZENUY_clean_sbu_0, # of connection points: 6
#     Node 22, Type 0, BuildingBlock: IZENUY_clean_sbu_0, # of connection points: 6
#     Node 23, Type 0, BuildingBlock: IZENUY_clean_sbu_0, # of connection points: 6
#     Edge 24, Type (0, 0), BuildingBlock: OJICUG_clean_linker_0, # of connection points: 2
#     Edge 25, Type (0, 0), BuildingBlock: OJICUG_clean_linker_0, # of connection points: 2
#     Edge 26, Type (0, 0), BuildingBlock: OJICUG_clean_linker_0, # of connection points: 2
#     Edge 27, Type (0, 0), BuildingBlock: OJICUG_clean_linker_0, # of connection points: 2
#     Edge 28, Type (0, 0), BuildingBlock: OJICUG_clean_linker_0, # of connection points: 2
#     Edge 29, Type (0, 0), BuildingBlock: OJICUG_clean_linker_0, # of connection points: 2
#     Edge 30, Type (0, 0), BuildingBlock: OJICUG_clean_linker_0, # of connection points: 2
#     Edge 31, Type (0, 0), BuildingBlock: OJICUG_clean_linker_0, # of connection points: 2
#     Edge 32, Type (0, 0), BuildingBlock: OJICUG_clean_linker_0, # of connection points: 2
#     Edge 33, Type (0, 0), BuildingBlock: OJICUG_clean_linker_0, # of connection points: 2
#     Edge 34, Type (0, 0), BuildingBlock: OJICUG_clean_linker_0, # of connection points: 2
#     Edge 35, Type (0, 0), BuildingBlock: OJICUG_clean_linker_0, # of connection points: 2
#     Edge 36, Type (0, 0), BuildingBlock: OJICUG_clean_linker_0, # of connection points: 2
#     Edge 37, Type (0, 0), BuildingBlock: OJICUG_clean_linker_0, # of connection points: 2
#     Edge 38, Type (0, 0), BuildingBlock: OJICUG_clean_linker_0, # of connection points: 2
#     Edge 39, Type (0, 0), BuildingBlock: OJICUG_clean_linker_0, # of connection points: 2
#     Edge 40, Type (0, 0), BuildingBlock: OJICUG_clean_linker_0, # of connection points: 2
#     Edge 41, Type (0, 0), BuildingBlock: OJICUG_clean_linker_0, # of connection points: 2
#     Edge 42, Type (0, 0), BuildingBlock: OJICUG_clean_linker_0, # of connection points: 2
#     Edge 43, Type (0, 0), BuildingBlock: OJICUG_clean_linker_0, # of connection points: 2
#     Edge 44, Type (0, 0), BuildingBlock: OJICUG_clean_linker_0, # of connection points: 2
#     Edge 45, Type (0, 0), BuildingBlock: OJICUG_clean_linker_0, # of connection points: 2
#     Edge 46, Type (0, 0), BuildingBlock: OJICUG_clean_linker_0, # of connection points: 2
#     Edge 47, Type (0, 0), BuildingBlock: OJICUG_clean_linker_0, # of connection points: 2
#     Edge 48, Type (0, 0), BuildingBlock: OJICUG_clean_linker_0, # of connection points: 2
#     Edge 49, Type (0, 0), BuildingBlock: OJICUG_clean_linker_0, # of connection points: 2
#     Edge 50, Type (0, 0), BuildingBlock: OJICUG_clean_linker_0, # of connection points: 2
#     Edge 51, Type (0, 0), BuildingBlock: OJICUG_clean_linker_0, # of connection points: 2
#     Edge 52, Type (0, 0), BuildingBlock: OJICUG_clean_linker_0, # of connection points: 2
#     Edge 53, Type (0, 0), BuildingBlock: OJICUG_clean_linker_0, # of connection points: 2
#     Edge 54, Type (0, 0), BuildingBlock: OJICUG_clean_linker_0, # of connection points: 2
#     Edge 55, Type (0, 0), BuildingBlock: OJICUG_clean_linker_0, # of connection points: 2
#     Edge 56, Type (0, 0), BuildingBlock: OJICUG_clean_linker_0, # of connection points: 2
#     Edge 57, Type (0, 0), BuildingBlock: OJICUG_clean_linker_0, # of connection points: 2
#     Edge 58, Type (0, 0), BuildingBlock: OJICUG_clean_linker_0, # of connection points: 2
#     Edge 59, Type (0, 0), BuildingBlock: OJICUG_clean_linker_0, # of connection points: 2
#     Edge 60, Type (0, 0), BuildingBlock: OJICUG_clean_linker_0, # of connection points: 2
#     Edge 61, Type (0, 0), BuildingBlock: OJICUG_clean_linker_0, # of connection points: 2
#     Edge 62, Type (0, 0), BuildingBlock: OJICUG_clean_linker_0, # of connection points: 2
#     Edge 63, Type (0, 0), BuildingBlock: OJICUG_clean_linker_0, # of connection points: 2
#     Edge 64, Type (0, 0), BuildingBlock: OJICUG_clean_linker_0, # of connection points: 2
#     Edge 65, Type (0, 0), BuildingBlock: OJICUG_clean_linker_0, # of connection points: 2
#     Edge 66, Type (0, 0), BuildingBlock: OJICUG_clean_linker_0, # of connection points: 2
#     Edge 67, Type (0, 0), BuildingBlock: OJICUG_clean_linker_0, # of connection points: 2
#     Edge 68, Type (0, 0), BuildingBlock: OJICUG_clean_linker_0, # of connection points: 2
#     Edge 69, Type (0, 0), BuildingBlock: OJICUG_clean_linker_0, # of connection points: 2
#     Edge 70, Type (0, 0), BuildingBlock: OJICUG_clean_linker_0, # of connection points: 2
#     Edge 71, Type (0, 0), BuildingBlock: OJICUG_clean_linker_0, # of connection points: 2
#     Edge 72, Type (0, 0), BuildingBlock: OJICUG_clean_linker_0, # of connection points: 2
#     Edge 73, Type (0, 0), BuildingBlock: OJICUG_clean_linker_0, # of connection points: 2
#     Edge 74, Type (0, 0), BuildingBlock: OJICUG_clean_linker_0, # of connection points: 2
#     Edge 75, Type (0, 0), BuildingBlock: OJICUG_clean_linker_0, # of connection points: 2
#     Edge 76, Type (0, 0), BuildingBlock: OJICUG_clean_linker_0, # of connection points: 2
#     Edge 77, Type (0, 0), BuildingBlock: OJICUG_clean_linker_0, # of connection points: 2
#     Edge 78, Type (0, 0), BuildingBlock: OJICUG_clean_linker_0, # of connection points: 2
#     Edge 79, Type (0, 0), BuildingBlock: OJICUG_clean_linker_0, # of connection points: 2
#     Edge 80, Type (0, 0), BuildingBlock: OJICUG_clean_linker_0, # of connection points: 2
#     Edge 81, Type (0, 0), BuildingBlock: OJICUG_clean_linker_0, # of connection points: 2
#     Edge 82, Type (0, 0), BuildingBlock: OJICUG_clean_linker_0, # of connection points: 2
#     Edge 83, Type (0, 0), BuildingBlock: OJICUG_clean_linker_0, # of connection points: 2
#     Edge 84, Type (0, 0), BuildingBlock: OJICUG_clean_linker_0, # of connection points: 2
#     Edge 85, Type (0, 0), BuildingBlock: OJICUG_clean_linker_0, # of connection points: 2
#     Edge 86, Type (0, 0), BuildingBlock: OJICUG_clean_linker_0, # of connection points: 2
#     Edge 87, Type (0, 0), BuildingBlock: OJICUG_clean_linker_0, # of connection points: 2
#     Edge 88, Type (0, 0), BuildingBlock: OJICUG_clean_linker_0, # of connection points: 2
#     Edge 89, Type (0, 0), BuildingBlock: OJICUG_clean_linker_0, # of connection points: 2
#     Edge 90, Type (0, 0), BuildingBlock: OJICUG_clean_linker_0, # of connection points: 2
#     Edge 91, Type (0, 0), BuildingBlock: OJICUG_clean_linker_0, # of connection points: 2
#     Edge 92, Type (0, 0), BuildingBlock: OJICUG_clean_linker_0, # of connection points: 2
#     Edge 93, Type (0, 0), BuildingBlock: OJICUG_clean_linker_0, # of connection points: 2
#     Edge 94, Type (0, 0), BuildingBlock: OJICUG_clean_linker_0, # of connection points: 2
#     Edge 95, Type (0, 0), BuildingBlock: OJICUG_clean_linker_0, # of connection points: 2
# Relax obj value: 0.306
# Max RMSD: 0.231
# Mean RMSD: 0.230
data_MOF--net-sxe--node1-IZENUY_clean_sbu_0--edge1-OJICUG_clean_linker_0
_symmetry_space_group_name_H-M    P1
_symmetry_Int_Tables_number       1
_symmetry_cell_setting            triclinic
loop_
_symmetry_equiv_pos_as_xyz
'x, y, z'
_cell_length_a     35.152227
_cell_length_b     35.208898
_cell_length_c     35.220872
_cell_angle_alpha  89.823853
_cell_angle_beta   90.129773
_cell_angle_gamma 90.181652
loop_
_atom_site_label
_atom_site_type_symbol
_atom_site_fract_x
_atom_site_fract_y
_atom_site_fract_z
_atom_type_partial_charge
Fe0 Fe 0.16413 0.44773 0.27633 0.0
Fe1 Fe 0.19815 0.38879 0.22231 0.0
O2 O 0.19451 0.43631 0.23783 0.0
Fe3 Fe 0.22201 0.47168 0.2146 0.0
O4 O 0.22913 0.50131 0.25697 0.0
O5 O 0.20244 0.46915 0.30329 0.0
O6 O 0.17463 0.40355 0.30285 0.0
C7 C 0.20218 0.38051 0.29929 0.0
C8 C 0.15431 0.50917 0.22339 0.0
O9 O 0.2175 0.3748 0.26746 0.0
C10 C 0.19602 0.4242 0.1543 0.0
O11 O 0.12247 0.42682 0.25354 0.0
O12 O 0.15027 0.37415 0.2366 0.0
O13 O 0.17996 0.49779 0.2012 0.0
O14 O 0.14961 0.49402 0.25594 0.0
C15 C 0.27362 0.41438 0.21655 0.0
O16 O 0.17913 0.40134 0.17628 0.0
O17 O 0.21931 0.44853 0.16759 0.0
C18 C 0.12038 0.39241 0.2439 0.0
O19 O 0.24723 0.39279 0.20534 0.0
O20 O 0.26654 0.44789 0.22671 0.0
C21 C 0.22463 0.49489 0.29209 0.0
Fe22 Fe 0.34895 0.55804 0.77771 0.0
Fe23 Fe 0.31341 0.62504 0.73391 0.0
O24 O 0.31719 0.57548 0.74229 0.0
Fe25 Fe 0.28853 0.54286 0.71592 0.0
O26 O 0.26554 0.5254 0.7593 0.0
O27 O 0.31911 0.51774 0.79065 0.0
O28 O 0.32528 0.58448 0.81519 0.0
C29 C 0.31736 0.61939 0.81409 0.0
C30 C 0.35932 0.50469 0.72251 0.0
O31 O 0.31919 0.63837 0.78364 0.0
C32 C 0.31077 0.59239 0.65976 0.0
O33 O 0.38455 0.59553 0.77199 0.0
O34 O 0.36406 0.6307 0.72473 0.0
O35 O 0.32369 0.50469 0.71723 0.0
O36 O 0.3749 0.52982 0.74298 0.0
C37 C 0.23844 0.60504 0.72495 0.0
O38 O 0.30687 0.61987 0.68259 0.0
O39 O 0.30902 0.55821 0.67094 0.0
C40 C 0.39022 0.62099 0.74729 0.0
O41 O 0.26249 0.62467 0.74278 0.0
O42 O 0.24817 0.5748 0.70864 0.0
C43 C 0.2836 0.51303 0.7879 0.0
Fe44 Fe 0.72048 0.046 0.79633 0.0
Fe45 Fe 0.65599 0.05746 0.73809 0.0
O46 O 0.6876 0.07636 0.77264 0.0
Fe47 Fe 0.68679 0.12563 0.78205 0.0
O48 O 0.73612 0.13071 0.76932 0.0
O49 O 0.75867 0.08135 0.80015 0.0
O50 O 0.74161 0.03087 0.75128 0.0
C51 C 0.72285 0.01713 0.72391 0.0
C52 C 0.69904 0.09249 0.85505 0.0
O53 O 0.68707 0.01896 0.72362 0.0
C54 C 0.61121 0.11561 0.77191 0.0
O55 O 0.68741 1.00564 0.79714 0.0
O56 O 0.63335 0.02741 0.77357 0.0
O57 O 0.69807 0.12048 0.83245 0.0
O58 O 0.70281 0.05886 0.84317 0.0
C59 C 0.68197 0.12162 0.70265 0.0
O60 O 0.61847 0.09278 0.74527 0.0
O61 O 0.63693 0.12476 0.79512 0.0
C62 C 0.65151 1.0034 0.79342 0.0
O63 O 0.67792 0.08606 0.7008 0.0
O64 O 0.67593 0.13941 0.73313 0.0
C65 C 0.76361 0.11275 0.78342 0.0
Fe66 Fe 0.85735 0.9578 0.23233 0.0
Fe67 Fe 0.82646 0.89117 0.27921 0.0
O68 O 0.82676 0.94037 0.26872 0.0
Fe69 Fe 0.796 0.9719 0.29342 0.0
O70 O 0.77343 0.98789 0.24917 0.0
O71 O 0.82654 0.99671 0.21775 0.0
O72 O 0.83329 0.92867 0.19653 0.0
C73 C 0.82851 0.89322 0.19964 0.0
C74 C 0.86602 0.0126 0.28678 0.0
O75 O 0.83535 0.87626 0.23051 0.0
C76 C 0.81812 0.92502 0.35213 0.0
O77 O 0.89432 0.92184 0.23946 0.0
O78 O 0.87687 0.89083 0.29054 0.0
O79 O 0.83037 0.0111 0.29242 0.0
O80 O 0.88246 0.98842 0.26588 0.0
C81 C 0.75002 0.90634 0.28317 0.0
O82 O 0.81711 0.89706 0.32974 0.0
O83 O 0.81531 0.95871 0.33986 0.0
C84 C 0.90202 0.89936 0.26649 0.0
O85 O 0.77633 0.88739 0.26829 0.0
O86 O 0.75671 0.93774 0.29921 0.0
C87 C 0.79109 1.00104 0.22073 0.0
Fe88 Fe 0.22303 0.21702 0.46972 0.0
Fe89 Fe 0.28312 0.15453 0.4585 0.0
O90 O 0.24811 0.18548 0.43943 0.0
Fe91 Fe 0.23923 0.1852 0.39007 0.0
O92 O 0.2512 0.2348 0.38595 0.0
O93 O 0.21856 0.25562 0.43466 0.0
O94 O 0.26726 0.23926 0.48599 0.0
C95 C 0.29491 0.2213 0.50028 0.0
C96 C 0.16543 0.19439 0.42205 0.0
O97 O 0.29661 0.18562 0.49764 0.0
C98 C 0.2504 0.10983 0.39941 0.0
O99 O 0.22252 0.18346 0.50958 0.0
O100 O 0.24762 0.13056 0.48744 0.0
O101 O 0.18846 0.19525 0.39449 0.0
O102 O 0.17691 0.19778 0.45588 0.0
C103 C 0.31887 0.18187 0.39536 0.0
O104 O 0.27693 0.11733 0.42256 0.0
O105 O 0.22694 0.13518 0.39017 0.0
C106 C 0.22638 0.14762 0.51081 0.0
O107 O 0.32041 0.17757 0.43089 0.0
O108 O 0.28858 0.1756 0.37701 0.0
C109 C 0.23573 0.26154 0.40368 0.0
Fe110 Fe 0.29024 0.81422 0.88886 0.0
Fe111 Fe 0.29866 0.79083 0.97171 0.0
O112 O 0.27506 0.81804 0.93643 0.0
Fe113 Fe 0.23651 0.84831 0.94805 0.0
O114 O 0.20964 0.83787 0.90402 0.0
O115 O 0.24487 0.79498 0.87525 0.0
O116 O 0.30699 0.76519 0.89291 0.0
C117 C 0.29599 0.73901 0.91483 0.0
C118 C 0.26874 0.89191 0.89261 0.0
O119 O 0.28625 0.74623 0.94843 0.0
C120 C 0.29016 0.85857 0.00877 0.0
O121 O 0.33661 0.83315 0.90081 0.0
O122 O 0.34554 0.79317 0.94799 0.0
O123 O 0.25915 0.88999 0.92704 0.0
O124 O 0.27594 0.86198 0.87443 0.0
C125 C 0.22119 0.78815 0.99555 0.0
O126 O 0.3124 0.83307 0.9972 0.0
O127 O 0.25726 0.86285 0.99417 0.0
C128 C 0.35879 0.8161 0.92331 0.0
O129 O 0.25644 0.78402 1.00187 0.0
O130 O 0.20975 0.80994 0.96962 0.0
C131 C 0.21311 0.81056 0.88073 0.0
Fe132 Fe 0.71885 0.29216 0.5455 0.0
Fe133 Fe 0.78069 0.35275 0.56001 0.0
O134 O 0.74517 0.32118 0.57775 0.0
Fe135 Fe 0.7368 0.31776 0.6273 0.0
O136 O 0.74605 0.26695 0.62771 0.0
O137 O 0.71172 0.25226 0.57794 0.0
O138 O 0.76247 0.26913 0.52877 0.0
C139 C 0.7913 0.28694 0.51645 0.0
C140 C 0.66229 0.3141 0.59455 0.0
O141 O 0.79394 0.32249 0.52034 0.0
C142 C 0.7499 0.3944 0.62221 0.0
O143 O 0.7202 0.32682 0.5068 0.0
O144 O 0.74602 0.37836 0.53088 0.0
O145 O 0.68537 0.31068 0.62207 0.0
O146 O 0.6735 0.31248 0.56038 0.0
C147 C 0.81716 0.32219 0.62229 0.0
O148 O 0.77469 0.3887 0.59694 0.0
O149 O 0.72725 0.36828 0.63195 0.0
C150 C 0.72572 0.36236 0.5058 0.0
O151 O 0.81821 0.3294 0.58719 0.0
O152 O 0.78659 0.32425 0.64095 0.0
C153 C 0.72828 0.24276 0.60822 0.0
Fe154 Fe 0.79438 0.72145 0.04352 0.0
Fe155 Fe 0.73474 0.659 0.05993 0.0
O156 O 0.76943 0.692 0.07652 0.0
Fe157 Fe 0.7783 0.69603 0.12588 0.0
O158 O 0.76683 0.74603 0.12536 0.0
O159 O 0.79937 0.76269 0.075 0.0
O160 O 0.74992 0.74198 0.02561 0.0
C161 C 0.72215 0.72275 0.01302 0.0
C162 C 0.85204 0.70226 0.09291 0.0
O163 O 0.72025 0.68741 0.01897 0.0
C164 C 0.76806 0.61927 0.12252 0.0
O165 O 0.79475 0.68541 1.00624 0.0
O166 O 0.77014 0.63383 0.03206 0.0
O167 O 0.8292 0.70527 0.12046 0.0
O168 O 0.84058 0.70357 0.05886 0.0
C169 C 0.69828 0.69003 0.12114 0.0
O170 O 0.74204 0.62431 0.09816 0.0
O171 O 0.79022 0.64608 0.13117 0.0
C172 C 0.79066 0.64964 0.00707 0.0
O173 O 0.69693 0.68227 0.08624 0.0
O174 O 0.72892 0.68778 0.13984 0.0
C175 C 0.78284 0.77122 0.10557 0.0
Fe176 Fe 0.47322 0.21594 0.22247 0.0
Fe177 Fe 0.45679 0.2796 0.16427 0.0
O178 O 0.4401 0.2432 0.19525 0.0
Fe179 Fe 0.39048 0.23469 0.1995 0.0
O180 O 0.3918 0.24338 0.25024 0.0
O181 O 0.44211 0.20904 0.2635 0.0
O182 O 0.49238 0.25845 0.24567 0.0
C183 C 0.50491 0.28731 0.22817 0.0
C184 C 0.42247 0.16028 0.20129 0.0
O185 O 0.49799 0.29203 0.19327 0.0
C186 C 0.39372 0.24901 0.12318 0.0
O187 O 0.51021 0.21723 0.18611 0.0
O188 O 0.48442 0.2458 0.13672 0.0
O189 O 0.39533 0.18333 0.206 0.0
O190 O 0.45676 0.1713 0.20198 0.0
C191 C 0.39555 0.31494 0.19693 0.0
O192 O 0.41843 0.27441 0.12952 0.0
O193 O 0.38451 0.22572 0.14889 0.0
C194 C 0.50931 0.22402 0.1508 0.0
O195 O 0.43064 0.31631 0.18957 0.0
O196 O 0.37681 0.28443 0.19394 0.0
C197 C 0.41228 0.22586 0.27385 0.0
Fe198 Fe 0.97606 0.29828 0.7939 0.0
Fe199 Fe 0.95151 0.23757 0.85306 0.0
O200 O 0.94061 0.27609 0.82211 0.0
Fe201 Fe 0.89337 0.29274 0.81847 0.0
O202 O 0.89715 0.30964 0.76948 0.0
O203 O 0.95121 0.28652 0.7497 0.0
O204 O 1.00476 0.25529 0.787 0.0
C205 C 0.99827 0.22035 0.79269 0.0
C206 C 0.92993 0.36003 0.81903 0.0
O207 O 0.9728 0.20983 0.81545 0.0
C208 C 0.89639 0.27066 0.89621 0.0
O209 O 1.00314 0.3113 0.83545 0.0
O210 O 0.99802 0.25745 0.8676 0.0
O211 O 0.90716 0.3387 0.83695 0.0
O212 O 0.95394 0.34585 0.79615 0.0
C213 C 0.88391 0.21585 0.81482 0.0
O214 O 0.93075 0.26062 0.89453 0.0
O215 O 0.87861 0.27873 0.86617 0.0
C216 C 0.01403 0.28941 0.86175 0.0
O217 O 0.907 0.21178 0.84237 0.0
O218 O 0.87838 0.24785 0.79957 0.0
C219 C 0.91797 0.29808 0.74289 0.0
Fe220 Fe 0.6254 0.72315 0.31624 0.0
Fe221 Fe 0.5423 0.71335 0.29263 0.0
O222 O 0.57735 0.73712 0.32017 0.0
Fe223 Fe 0.56493 0.77479 0.35115 0.0
O224 O 0.60882 0.80231 0.34227 0.0
O225 O 0.63832 0.76945 0.29808 0.0
O226 O 0.62189 0.7074 0.26695 0.0
C227 C 0.5994 0.71739 0.24088 0.0
C228 C 0.62036 0.74226 0.39445 0.0
O229 O 0.56551 0.72617 0.24816 0.0
C230 C 0.50442 0.72085 0.36007 0.0
O231 O 0.61432 0.67605 0.33388 0.0
O232 O 0.56648 0.66676 0.29457 0.0
O233 O 0.58569 0.75122 0.39233 0.0
O234 O 0.63921 0.73646 0.36457 0.0
C235 C 0.51814 0.79067 0.29055 0.0
O236 O 0.51654 0.6989 0.33462 0.0
O237 O 0.51875 0.75371 0.36466 0.0
C238 C 0.59173 0.65375 0.31698 0.0
O239 O 0.51194 0.75545 0.28606 0.0
O240 O 0.54361 0.80205 0.313 0.0
C241 C 0.63204 0.80046 0.31479 0.0
Fe242 Fe 0.04247 0.79436 0.71634 0.0
Fe243 Fe 0.05293 0.73505 0.65294 0.0
O244 O 0.07237 0.77007 0.68374 0.0
Fe245 Fe 0.12184 0.77942 0.68246 0.0
O246 O 0.12722 0.76715 0.73187 0.0
O247 O 0.07822 0.79836 0.75434 0.0
O248 O 0.02682 0.74982 0.73825 0.0
C249 C 0.01237 0.72228 0.72036 0.0
C250 C 0.08953 0.85272 0.6942 0.0
O251 O 0.01462 0.7207 0.68469 0.0
C252 C 0.11128 0.76846 0.60732 0.0
O253 O 1.00182 0.795 0.68352 0.0
O254 O 0.02243 0.77008 0.62986 0.0
O255 O 0.11727 0.82996 0.69313 0.0
O256 O 0.05574 0.84095 0.69793 0.0
C257 C 0.11742 0.69988 0.67871 0.0
O258 O 0.08807 0.742 0.61502 0.0
O259 O 0.12059 0.79201 0.63254 0.0
C260 C 0.99882 0.79041 0.64783 0.0
O261 O 0.08172 0.69805 0.67518 0.0
O262 O 0.13531 0.73036 0.67218 0.0
C263 C 0.10966 0.78168 0.75926 0.0
Fe264 Fe 0.81724 0.62403 0.79186 0.0
Fe265 Fe 0.85051 0.56576 0.73656 0.0
O266 O 0.8213 0.5767 0.77597 0.0
Fe267 Fe 0.79536 0.54059 0.80002 0.0
O268 O 0.75021 0.56279 0.78767 0.0
O269 O 0.76846 0.61858 0.80862 0.0
O270 O 0.79738 0.63872 0.74705 0.0
C271 C 0.81194 0.63361 0.71478 0.0
C272 C 0.82001 0.58877 0.86003 0.0
O273 O 0.83861 0.60974 0.71002 0.0
C274 C 0.86423 0.50608 0.7904 0.0
O275 O 0.86476 0.63926 0.77751 0.0
O276 O 0.8925 0.5874 0.75789 0.0
O277 O 0.79709 0.56419 0.84679 0.0
O278 O 0.83677 0.61149 0.83783 0.0
C279 C 0.79135 0.5163 0.72321 0.0
O280 O 0.86661 0.52008 0.75706 0.0
O281 O 0.83873 0.51669 0.81319 0.0
C282 C 0.89451 0.62137 0.76898 0.0
O283 O 0.81153 0.54333 0.7111 0.0
O284 O 0.78898 0.50976 0.75845 0.0
C285 C 0.74279 0.59659 0.79658 0.0
Fe286 Fe 0.72559 0.47002 0.2986 0.0
Fe287 Fe 0.70294 0.38712 0.28116 0.0
O288 O 0.69784 0.43647 0.27239 0.0
Fe289 Fe 0.66568 0.45266 0.2368 0.0
O290 O 0.69458 0.49364 0.22324 0.0
O291 O 0.7481 0.48803 0.25525 0.0
O292 O 0.76681 0.4391 0.3059 0.0
C293 C 0.77722 0.40922 0.28932 0.0
C294 C 0.6538 0.50605 0.29167 0.0
O295 O 0.75358 0.38901 0.27165 0.0
C296 C 0.62601 0.38906 0.26854 0.0
O297 O 0.70551 0.45447 0.34369 0.0
O298 O 0.70986 0.39292 0.33243 0.0
O299 O 0.63899 0.48055 0.27114 0.0
O300 O 0.68939 0.50713 0.29709 0.0
C301 C 0.69845 0.39168 0.20088 0.0
O302 O 0.65256 0.38019 0.29099 0.0
O303 O 0.63107 0.41421 0.24331 0.0
C304 C 0.70495 0.42038 0.35512 0.0
O305 O 0.69705 0.37301 0.23156 0.0
O306 O 0.68994 0.42643 0.19956 0.0
C307 C 0.72984 0.50008 0.22666 0.0
Fe308 Fe 0.29621 0.97043 0.21696 0.0
Fe309 Fe 0.31981 0.88756 0.2276 0.0
O310 O 0.32461 0.93585 0.24047 0.0
Fe311 Fe 0.35692 0.94867 0.27724 0.0
O312 O 0.3197 0.97069 0.30474 0.0
O313 O 0.29022 1.00097 0.25871 0.0
O314 O 0.25183 0.94685 0.2306 0.0
C315 C 0.24454 0.9128 0.22237 0.0
C316 C 0.36425 0.00902 0.22277 0.0
O317 O 0.27051 0.89058 0.21237 0.0
C318 C 0.39857 0.89219 0.24501 0.0
O319 O 0.29738 0.94576 0.17078 0.0
O320 O 0.33632 0.89756 0.17978 0.0
O321 O 0.37055 0.99428 0.25514 0.0
O322 O 0.33776 0.99692 0.20168 0.0
C323 C 0.31963 0.88317 0.30531 0.0
O324 O 0.36808 0.87384 0.24042 0.0
O325 O 0.39752 0.927 0.25346 0.0
C326 C 0.31876 0.91989 0.15762 0.0
O327 O 0.30241 0.87585 0.27463 0.0
O328 O 0.34795 0.9056 0.30584 0.0
C329 C 0.29612 0.99521 0.29373 0.0
Fe330 Fe 0.19414 0.12161 0.72593 0.0
Fe331 Fe 0.16042 0.06098 0.77914 0.0
O332 O 0.19086 0.07368 0.74078 0.0
Fe333 Fe 0.21898 0.03945 0.71698 0.0
O334 O 0.26338 0.06426 0.72909 0.0
O335 O 0.2427 0.11892 0.70822 0.0
O336 O 0.21381 0.13466 0.77121 0.0
C337 C 0.19913 0.12763 0.80317 0.0
C338 C 0.19201 0.0876 0.65743 0.0
O339 O 0.17167 0.10424 0.8067 0.0
C340 C 0.15092 1.00086 0.72491 0.0
O341 O 0.14677 0.13552 0.7409 0.0
O342 O 0.11848 0.08279 0.75741 0.0
O343 O 0.21547 0.06338 0.67044 0.0
O344 O 0.1749 0.10987 0.67969 0.0
C345 C 0.22149 0.01371 0.79378 0.0
O346 O 0.14534 0.01552 0.75744 0.0
O347 O 0.17734 0.01247 0.7035 0.0
C348 C 0.11677 0.11734 0.74799 0.0
O349 O 0.19852 0.03831 0.80557 0.0
O350 O 0.2269 0.00909 0.75862 0.0
C351 C 0.26961 0.09817 0.71917 0.0
Fe352 Fe 0.77413 0.83028 0.6238 0.0
Fe353 Fe 0.73076 0.86135 0.55515 0.0
O354 O 0.76555 0.83024 0.57433 0.0
Fe355 Fe 0.79068 0.79855 0.54425 0.0
O356 O 0.79484 0.75993 0.57966 0.0
O357 O 0.76122 0.78085 0.62762 0.0
O358 O 0.72485 0.84095 0.63701 0.0
C359 C 0.69435 0.83527 0.61877 0.0
C360 C 0.84808 0.82041 0.59227 0.0
O361 O 0.69323 0.83892 0.58317 0.0
C362 C 0.7866 0.86764 0.50152 0.0
O363 O 0.78744 0.88 0.6238 0.0
O364 O 0.738 0.89882 0.59098 0.0
O365 O 0.83676 0.81776 0.55832 0.0
O366 O 0.8248 0.81928 0.61964 0.0
C367 C 0.71892 0.79419 0.51331 0.0
O368 O 0.766 0.88499 0.52528 0.0
O369 O 0.79141 0.83193 0.50397 0.0
C370 C 0.76463 0.90585 0.61435 0.0
O371 O 0.71659 0.82985 0.51643 0.0
O372 O 0.74657 0.77638 0.52778 0.0
C373 C 0.7773 0.75403 0.61052 0.0
Fe374 Fe 0.72428 0.19864 0.1233 0.0
Fe375 Fe 0.77881 0.16425 0.06476 0.0
O376 O 0.7402 0.19475 0.07587 0.0
Fe377 Fe 0.71703 0.22199 0.04023 0.0
O378 O 0.72919 0.26667 0.06376 0.0
O379 O 0.70774 0.24764 0.11898 0.0
O380 O 0.76956 0.21766 0.13771 0.0
C381 C 0.80146 0.20222 0.13245 0.0
C382 C 0.65613 0.19693 0.08774 0.0
O383 O 0.80536 0.17516 0.1089 0.0
C384 C 0.72573 0.15368 1.00358 0.0
O385 O 0.73801 0.1509 0.13828 0.0
O386 O 0.75589 0.1228 0.08611 0.0
O387 O 0.66974 0.21981 0.06323 0.0
O388 O 0.67802 0.17991 0.11058 0.0
C389 C 0.79475 0.22413 0.01661 0.0
O390 O 0.75835 0.14913 0.0187 0.0
O391 O 0.70366 0.17967 0.01451 0.0
C392 C 0.74531 0.12095 0.12028 0.0
O393 O 0.80602 0.20225 0.04262 0.0
O394 O 0.75954 0.22877 0.01052 0.0
C395 C 0.7191 0.27384 0.09731 0.0
Fe396 Fe 0.2951 0.71823 0.47018 0.0
Fe397 Fe 0.28403 0.69418 0.38754 0.0
O398 O 0.27126 0.68982 0.43588 0.0
Fe399 Fe 0.23427 0.65783 0.44902 0.0
O400 O 0.20692 0.69533 0.47072 0.0
O401 O 0.25324 0.72486 0.50067 0.0
O402 O 0.28191 0.76249 0.44634 0.0
C403 C 0.2902 0.76944 0.41226 0.0
C404 C 0.28883 0.65053 0.50908 0.0
O405 O 0.29976 0.74327 0.39015 0.0
C406 C 0.26666 0.61571 0.39297 0.0
O407 O 0.34133 0.71634 0.44546 0.0
O408 O 0.33181 0.67737 0.39742 0.0
O409 O 0.25626 0.6445 0.49464 0.0
O410 O 0.31007 0.67684 0.49689 0.0
C411 C 0.20621 0.69477 0.38353 0.0
O412 O 0.2708 0.64599 0.37426 0.0
O413 O 0.258 0.61704 0.42771 0.0
C414 C 0.35422 0.69461 0.41974 0.0
O415 O 0.23699 0.71182 0.37598 0.0
O416 O 0.2057 0.66649 0.40594 0.0
C417 C 0.21809 0.71917 0.49491 0.0
Fe418 Fe 0.23866 0.31963 0.88837 0.0
Fe419 Fe 0.28143 0.35518 0.95501 0.0
O420 O 0.247 0.32257 0.93777 0.0
Fe421 Fe 0.22179 0.29242 0.96978 0.0
O422 O 0.21789 0.25204 0.93696 0.0
O423 O 0.25213 0.27036 0.88817 0.0
O424 O 0.28781 0.33023 0.87466 0.0
C425 C 0.31835 0.32646 0.89325 0.0
C426 C 0.16484 0.31128 0.92022 0.0
O427 O 0.31939 0.33219 0.92853 0.0
C428 C 0.22506 0.36362 0.00747 0.0
O429 O 0.22494 0.36907 0.88488 0.0
O430 O 0.27377 0.39058 0.91717 0.0
O431 O 0.1759 0.31047 0.95431 0.0
O432 O 0.18806 0.30827 0.89301 0.0
C433 C 0.29311 0.29056 1.00151 0.0
O434 O 0.24588 0.37975 0.98298 0.0
O435 O 0.22073 0.32783 0.00775 0.0
C436 C 0.24688 0.39597 0.89369 0.0
O437 O 0.29563 0.32594 0.99561 0.0
O438 O 0.26573 0.27157 0.988 0.0
C439 C 0.23614 0.24448 0.90703 0.0
Fe440 Fe 0.56291 0.73296 0.84922 0.0
Fe441 Fe 0.54295 0.79598 0.79097 0.0
O442 O 0.57705 0.7699 0.81774 0.0
Fe443 Fe 0.62602 0.7807 0.8128 0.0
O444 O 0.63527 0.73351 0.79425 0.0
O445 O 0.60449 0.70329 0.83966 0.0
O446 O 0.53886 0.7073 0.81154 0.0
C447 C 0.51403 0.72016 0.78904 0.0
C448 C 0.62132 0.76292 0.89112 0.0
O449 O 0.51037 0.7556 0.78384 0.0
C450 C 0.59618 0.85198 0.8157 0.0
O451 O 0.51869 0.75601 0.86381 0.0
O452 O 0.51807 0.8107 0.83342 0.0
O453 O 0.63991 0.7663 0.86072 0.0
O454 O 0.5862 0.75521 0.89001 0.0
C455 C 0.59915 0.79175 0.73791 0.0
O456 O 0.56952 0.84094 0.79395 0.0
O457 O 0.61874 0.82835 0.83078 0.0
C458 C 0.50591 0.78931 0.85951 0.0
O459 O 0.56499 0.78389 0.74554 0.0
O460 O 0.62283 0.79768 0.76407 0.0
C461 C 0.62708 0.70312 0.81171 0.0
Fe462 Fe 0.04178 0.7175 0.21838 0.0
Fe463 Fe 0.12485 0.72881 0.19516 0.0
O464 O 0.07645 0.74147 0.19039 0.0
Fe465 Fe 0.06349 0.77848 0.15845 0.0
O466 O 0.04144 0.8056 0.19598 0.0
O467 O 0.01088 0.75906 0.22446 0.0
O468 O 0.06499 0.731 0.26285 0.0
C469 C 0.09918 0.72321 0.27016 0.0
C470 C 1.00347 0.72378 0.15048 0.0
O471 O 0.1217 0.71354 0.24432 0.0
C472 C 0.11996 0.74622 0.1166 0.0
O473 O 0.06675 0.67144 0.2172 0.0
O474 O 0.11516 0.68093 0.1786 0.0
O475 O 0.01785 0.75644 0.14483 0.0
O476 O 0.01573 0.70237 0.1766 0.0
C477 C 0.12923 0.80656 0.19538 0.0
O478 O 0.13847 0.74172 0.14697 0.0
O479 O 0.08517 0.75497 0.11774 0.0
C480 C 0.0929 0.65853 0.19599 0.0
O481 O 0.13648 0.77587 0.2126 0.0
O482 O 0.10658 0.80711 0.16729 0.0
C483 C 0.01674 0.7942 0.21927 0.0
Fe484 Fe 0.389 0.2851 0.69758 0.0
Fe485 Fe 0.4511 0.23648 0.66146 0.0
O486 O 0.43768 0.27326 0.69315 0.0
Fe487 Fe 0.47222 0.2978 0.72084 0.0
O488 O 0.44912 0.28514 0.76556 0.0
O489 O 0.39183 0.30062 0.74678 0.0
O490 O 0.37784 0.23765 0.71512 0.0
C491 C 0.38501 0.20743 0.69721 0.0
C492 C 0.4205 0.35596 0.69707 0.0
O493 O 0.40794 0.2077 0.66946 0.0
C494 C 0.51124 0.29102 0.65347 0.0
O495 O 0.3758 0.27223 0.64905 0.0
O496 O 0.4298 0.26042 0.62069 0.0
O497 O 0.4471 0.34379 0.71837 0.0
O498 O 0.39798 0.33305 0.68078 0.0
C499 C 0.49714 0.22095 0.72303 0.0
O500 O 0.497 0.25829 0.64827 0.0
O501 O 0.49856 0.3126 0.67902 0.0
C502 C 0.39491 0.26874 0.61897 0.0
O503 O 0.47275 0.20939 0.69943 0.0
O504 O 0.50298 0.25615 0.72795 0.0
C505 C 0.41502 0.293 0.77294 0.0
Fe506 Fe 0.97204 0.21944 0.29757 0.0
Fe507 Fe 0.89216 0.23392 0.33012 0.0
O508 O 0.94162 0.24325 0.33 0.0
Fe509 Fe 0.96052 0.27764 0.36177 0.0
O510 O 0.99929 0.29282 0.3306 0.0
O511 O 0.98787 0.2643 0.27643 0.0
O512 O 0.93671 0.21557 0.25898 0.0
C513 C 0.90543 0.2325 0.25366 0.0
C514 C 0.01469 0.22247 0.36662 0.0
O515 O 0.88785 0.24726 0.2809 0.0
C516 C 0.90122 0.24295 0.40576 0.0
O517 O 0.95871 0.17271 0.31559 0.0
O518 O 0.89708 0.18361 0.31861 0.0
O519 O 0.99069 0.24226 0.3846 0.0
O520 O 0.0123 0.21862 0.33082 0.0
C521 C 0.89657 0.31334 0.33577 0.0
O522 O 0.89227 0.22016 0.37975 0.0
O523 O 0.92465 0.26961 0.39908 0.0
C524 C 0.92489 0.16087 0.31868 0.0
O525 O 0.87848 0.28274 0.34117 0.0
O526 O 0.93214 0.31502 0.33995 0.0
C527 C 1.00233 0.29153 0.29489 0.0
C528 C 0.26669 0.54997 0.30876 0.0
C529 C 0.24125 0.52145 0.32041 0.0
H530 H 0.29561 0.60141 0.32311 0.0
C531 C 0.22936 0.52078 0.35864 0.0
H532 H 0.27693 0.55108 0.27979 0.0
C533 C 0.24014 0.54983 0.38369 0.0
C534 C 0.26305 0.58001 0.37095 0.0
H535 H 0.21 0.49901 0.36872 0.0
H536 H 0.22847 0.54993 0.41212 0.0
C537 C 0.27751 0.57879 0.33372 0.0
C538 C 0.27127 0.46117 0.8802 0.0
C539 C 0.24769 0.43072 0.86971 0.0
H540 H 0.30034 0.51146 0.86239 0.0
C541 C 0.23004 0.43158 0.83368 0.0
H542 H 0.2849 0.46176 0.90782 0.0
C543 C 0.23891 0.4604 0.80743 0.0
C544 C 0.26555 0.4886 0.81695 0.0
H545 H 0.21158 0.40859 0.82472 0.0
H546 H 0.22731 0.45892 0.77895 0.0
C547 C 0.28013 0.48968 0.85413 0.0
C548 C 0.73411 0.96773 0.63022 0.0
C549 C 0.76175 0.94023 0.63858 0.0
H550 H 0.70065 0.01379 0.65079 0.0
C551 C 0.78159 0.94279 0.6734 0.0
H552 H 0.71858 0.96703 0.60362 0.0
C553 C 0.7713 0.96997 0.70062 0.0
C554 C 0.74095 0.99478 0.69341 0.0
H555 H 0.80319 0.92216 0.68077 0.0
H556 H 0.78506 0.96964 0.72817 0.0
C557 C 0.72375 0.99451 0.65734 0.0
C558 C 0.7443 0.05235 0.2036 0.0
C559 C 0.77237 0.02638 0.19266 0.0
H560 H 0.71348 0.10279 0.18893 0.0
C561 C 0.78665 0.02824 0.15537 0.0
H562 H 0.73285 0.05168 0.23212 0.0
C563 C 0.77528 0.05709 0.13043 0.0
C564 C 0.74981 0.08521 0.14247 0.0
H565 H 0.80814 0.00835 0.14604 0.0
H566 H 0.78855 0.05888 0.10276 0.0
C567 C 0.73335 0.08167 0.17883 0.0
C568 C 0.33728 0.281 0.57887 0.0
C569 C 0.37344 0.26425 0.58298 0.0
H570 H 0.28404 0.28114 0.54876 0.0
C571 C 0.38537 0.2378 0.55579 0.0
H572 H 0.32735 0.30152 0.59942 0.0
C573 C 0.36032 0.22569 0.52737 0.0
C574 C 0.32316 0.24032 0.52503 0.0
H575 H 0.41287 0.2242 0.55824 0.0
H576 H 0.36939 0.20341 0.50828 0.0
C577 C 0.31247 0.26941 0.54989 0.0
C578 C 0.12943 0.77231 0.05056 0.0
C579 C 0.1423 0.74993 0.08104 0.0
H580 H 0.14426 0.80195 0.99944 0.0
C581 C 0.17981 0.73602 0.08013 0.0
H582 H 0.10078 0.78356 0.0504 0.0
C583 C 0.20482 0.74681 0.05127 0.0
C584 C 0.19296 0.77166 0.02238 0.0
H585 H 0.19057 0.71833 0.10296 0.0
H586 H 0.23397 0.73697 0.05259 0.0
C587 C 0.15452 0.78305 0.02148 0.0
C588 C 0.84035 0.22806 0.44095 0.0
C589 C 0.87632 0.24602 0.43972 0.0
H590 H 0.78476 0.22674 0.46656 0.0
C591 C 0.88547 0.2724 0.46814 0.0
H592 H 0.83232 0.20754 0.41952 0.0
C593 C 0.85827 0.28341 0.49465 0.0
C594 C 0.82125 0.26818 0.49373 0.0
H595 H 0.91292 0.28648 0.46845 0.0
H596 H 0.86567 0.30548 0.51477 0.0
C597 C 0.81301 0.23903 0.46784 0.0
C598 C 0.67932 0.77698 0.9303 0.0
C599 C 0.64333 0.75944 0.92702 0.0
H600 H 0.73238 0.77986 0.96064 0.0
C601 C 0.63178 0.73397 0.95549 0.0
H602 H 0.689 0.79682 0.90878 0.0
C603 C 0.6569 0.72383 0.98471 0.0
C604 C 0.69381 0.73947 0.98656 0.0
H605 H 0.60444 0.71981 0.95372 0.0
H606 H 0.64801 0.7024 1.00501 0.0
C607 C 0.70418 0.76739 0.96001 0.0
C608 C 0.53142 0.35248 0.23329 0.0
C609 C 0.53141 0.31471 0.24625 0.0
H610 H 0.56053 0.40571 0.23104 0.0
C611 C 0.55979 0.30323 0.272 0.0
H612 H 0.50963 0.36233 0.21382 0.0
C613 C 0.58947 0.32832 0.28185 0.0
C614 C 0.59102 0.36523 0.26619 0.0
H615 H 0.56051 0.27426 0.28238 0.0
H616 H 0.61238 0.318 0.29967 0.0
C617 C 0.56067 0.37741 0.24321 0.0
C618 C 0.05151 0.20225 0.74913 0.0
C619 C 0.02419 0.19144 0.77613 0.0
H620 H 0.10128 0.18684 0.71821 0.0
C621 C 0.02408 0.15353 0.78927 0.0
H622 H 0.05218 0.23093 0.73792 0.0
C623 C 0.05247 0.128 0.77789 0.0
C624 C 0.08145 0.13988 0.75309 0.0
H625 H 1.00327 0.14409 0.8099 0.0
H626 H 0.05306 0.09986 0.79037 0.0
C627 C 0.07964 0.17682 0.73771 0.0
C628 C 0.49263 0.85734 0.28446 0.0
C629 C 0.49172 0.81888 0.27339 0.0
H630 H 0.46411 0.91121 0.28375 0.0
C631 C 0.46333 0.80703 0.24791 0.0
H632 H 0.51432 0.8676 0.30381 0.0
C633 C 0.43492 0.83212 0.23615 0.0
C634 C 0.43397 0.86971 0.24966 0.0
H635 H 0.46204 0.77787 0.23827 0.0
H636 H 0.41242 0.82139 0.21801 0.0
C637 C 0.46401 0.88252 0.27274 0.0
C638 C 0.93434 0.67947 0.78065 0.0
C639 C 0.9301 0.64349 0.76366 0.0
H640 H 0.96443 0.73271 0.78081 0.0
C641 C 0.95712 0.63185 0.73685 0.0
H642 H 0.91404 0.68918 0.80156 0.0
C643 C 0.98545 0.65696 0.72466 0.0
C644 C 0.98787 0.69394 0.73952 0.0
H645 H 0.95472 0.60443 0.72318 0.0
H646 H 1.00441 0.64808 0.70217 0.0
C647 C 0.96321 0.7044 0.7689 0.0
C648 C 0.74053 0.42948 0.68358 0.0
C649 C 0.75352 0.42915 0.64583 0.0
H650 H 0.74236 0.45714 0.73768 0.0
C651 C 0.77517 0.46019 0.63272 0.0
H652 H 0.72393 0.406 0.6947 0.0
C653 C 0.78563 0.48959 0.65731 0.0
C654 C 0.77507 0.48851 0.6958 0.0
H655 H 0.78552 0.46095 0.60378 0.0
H656 H 0.80363 0.51218 0.64652 0.0
C657 C 0.75135 0.45872 0.70833 0.0
C658 C 0.77392 0.55398 0.20861 0.0
C659 C 0.74741 0.52585 0.19833 0.0
H660 H 0.8017 0.606 0.19238 0.0
C661 C 0.73325 0.52548 0.161 0.0
H662 H 0.78525 0.55494 0.23721 0.0
C663 C 0.74271 0.55426 0.13542 0.0
C664 C 0.76638 0.58448 0.14654 0.0
H665 H 0.71319 0.50381 0.15208 0.0
H666 H 0.72959 0.55395 0.10756 0.0
C667 C 0.78329 0.58319 0.18289 0.0
C668 C 0.24031 0.07596 0.33766 0.0
C669 C 0.25455 0.07589 0.37503 0.0
H670 H 0.24251 0.05068 0.28245 0.0
C671 C 0.27854 0.04616 0.38653 0.0
H672 H 0.22184 0.09852 0.32782 0.0
C673 C 0.29036 0.01875 0.36056 0.0
C674 C 0.27875 0.02065 0.32234 0.0
H675 H 0.28984 0.04519 0.41517 0.0
H676 H 0.31017 0.99722 0.37011 0.0
C677 C 0.25245 0.04871 0.31151 0.0
C678 C 0.23992 0.9569 0.88409 0.0
C679 C 0.26305 0.92745 0.87044 0.0
H680 H 0.20861 0.00737 0.87066 0.0
C681 C 0.2762 0.92956 0.83277 0.0
H682 H 0.22922 0.95617 0.9129 0.0
C683 C 0.26425 0.95867 0.80852 0.0
C684 C 0.23884 0.98657 0.82125 0.0
H685 H 0.29436 0.90758 0.82136 0.0
H686 H 0.27373 0.95831 0.77928 0.0
C687 C 0.22793 0.98616 0.85975 0.0
C688 C 0.65409 0.78915 0.48469 0.0
C689 C 0.69129 0.77485 0.48803 0.0
H690 H 0.60186 0.78908 0.45328 0.0
C691 C 0.70256 0.74519 0.46406 0.0
H692 H 0.64453 0.81183 0.50305 0.0
C693 C 0.67822 0.73247 0.43514 0.0
C694 C 0.64189 0.7486 0.43019 0.0
H695 H 0.73104 0.73367 0.46596 0.0
H696 H 0.68857 0.71137 0.4154 0.0
C697 C 0.6295 0.77589 0.45636 0.0
C698 C 0.8864 0.24119 0.96106 0.0
C699 C 0.87357 0.26479 0.93141 0.0
H700 H 0.8717 0.20983 0.01132 0.0
C701 C 0.83594 0.27835 0.93284 0.0
H702 H 0.91509 0.23008 0.96085 0.0
C703 C 0.81102 0.26654 0.96147 0.0
C704 C 0.82296 0.24089 0.98969 0.0
H705 H 0.82506 0.29682 0.91071 0.0
H706 H 0.78189 0.27645 0.96057 0.0
C707 C 0.86137 0.2294 0.9899 0.0
C708 C 0.12461 0.73945 0.54413 0.0
C709 C 0.1361 0.76362 0.5737 0.0
H710 H 0.14124 0.70674 0.49601 0.0
C711 C 0.17388 0.77698 0.57421 0.0
H712 H 0.0957 0.72875 0.54284 0.0
C713 C 0.20031 0.76385 0.54763 0.0
C714 C 0.1894 0.73739 0.51978 0.0
H715 H 0.18377 0.79551 0.59669 0.0
H716 H 0.22961 0.77316 0.54997 0.0
C717 C 0.15088 0.72663 0.5174 0.0
C718 C 0.35757 0.28853 0.0303 0.0
C719 C 0.3207 0.27327 0.02824 0.0
H720 H 0.40982 0.29184 0.06096 0.0
C721 C 0.30994 0.24511 0.05455 0.0
H722 H 0.36687 0.30988 0.01009 0.0
C723 C 0.33466 0.23487 0.08432 0.0
C724 C 0.37057 0.25245 0.08793 0.0
H725 H 0.28165 0.23287 0.05359 0.0
H726 H 0.32477 0.21496 0.10565 0.0
C727 C 0.38223 0.2781 0.05953 0.0
C728 C 0.48621 0.65474 0.78232 0.0
C729 C 0.48555 0.69349 0.7725 0.0
H730 H 0.45695 0.60139 0.78148 0.0
C731 C 0.4557 0.70677 0.7493 0.0
H732 H 0.50887 0.6433 0.79977 0.0
C733 C 0.42594 0.68246 0.73841 0.0
C734 C 0.42527 0.64442 0.75074 0.0
H735 H 0.45441 0.73636 0.74089 0.0
H736 H 0.40237 0.69408 0.72234 0.0
C737 C 0.45641 0.6306 0.77172 0.0
C738 C 0.9935 0.86104 0.2267 0.0
C739 C 0.99122 0.82251 0.23716 0.0
H740 H 0.96738 0.91581 0.22852 0.0
C741 C 0.96275 0.81116 0.26287 0.0
H742 H 0.01532 0.871 0.20739 0.0
C743 C 0.93551 0.83716 0.27551 0.0
C744 C 0.93599 0.87493 0.26237 0.0
H745 H 0.96046 0.78182 0.27194 0.0
H746 H 0.91259 0.82696 0.29338 0.0
C747 C 0.96612 0.88687 0.23901 0.0
C748 C 0.551 0.20407 0.76714 0.0
C749 C 0.52239 0.19266 0.74158 0.0
H750 H 0.60117 0.18823 0.79789 0.0
C751 C 0.51972 0.15401 0.73182 0.0
H752 H 0.55358 0.2335 0.77567 0.0
C753 C 0.54692 0.12811 0.74458 0.0
C754 C 0.57727 0.1401 0.76768 0.0
H755 H 0.49773 0.144 0.71268 0.0
H756 H 0.54541 0.09907 0.73457 0.0
C757 C 0.57808 0.178 0.78021 0.0
C758 C 0.05918 0.38159 0.27877 0.0
C759 C 0.08488 0.37034 0.2505 0.0
H760 H 0.0131 0.36516 0.31505 0.0
C761 C 0.07973 0.33458 0.2333 0.0
H762 H 0.06243 0.40875 0.29281 0.0
C763 C 0.05104 0.30972 0.24574 0.0
C764 C 0.0275 0.31983 0.2762 0.0
H765 H 0.0991 0.32508 0.21144 0.0
H766 H 0.04897 0.28171 0.23324 0.0
C767 C 0.03109 0.35646 0.29173 0.0
C768 C 0.18251 0.36971 0.06346 0.0
C769 C 0.21153 0.38509 0.04074 0.0
H770 H 0.154 0.37072 0.11686 0.0
C771 C 0.23056 0.41801 0.05298 0.0
H772 H 0.16689 0.34472 0.05443 0.0
C773 C 0.22333 0.43289 0.08904 0.0
C774 C 0.19684 0.41516 0.11327 0.0
H775 H 0.25293 0.43062 0.03596 0.0
H776 H 0.24032 0.45665 0.09881 0.0
C777 C 0.17509 0.38469 0.09926 0.0
C778 C 0.32664 0.64732 0.56934 0.0
C779 C 0.29956 0.63083 0.54489 0.0
H780 H 0.35125 0.64787 0.62504 0.0
C781 C 0.28021 0.59789 0.55703 0.0
H782 H 0.34207 0.67269 0.56105 0.0
C783 C 0.28627 0.58313 0.59359 0.0
C784 C 0.31119 0.60151 0.61882 0.0
H785 H 0.25927 0.58445 0.53885 0.0
H786 H 0.26952 0.559 0.60298 0.0
C787 C 0.33199 0.63312 0.60603 0.0
C788 C 0.73797 0.10268 0.95465 0.0
C789 C 0.71522 0.13239 0.9686 0.0
H790 H 0.74992 0.0657 0.90764 0.0
C791 C 0.68378 0.14428 0.94679 0.0
H792 H 0.76228 0.09272 0.97073 0.0
C793 C 0.6771 0.12916 0.9108 0.0
C794 C 0.70102 0.10111 0.896 0.0
H795 H 0.66542 0.16689 0.9565 0.0
H796 H 0.65413 0.14066 0.89374 0.0
C797 C 0.73073 0.08696 0.91871 0.0
C798 C 0.78546 0.92255 0.45475 0.0
C799 C 0.80033 0.8873 0.46661 0.0
H800 H 0.77988 0.96279 0.40891 0.0
C801 C 0.82599 0.86854 0.44258 0.0
H802 H 0.76572 0.93783 0.4726 0.0
C803 C 0.83401 0.88277 0.40646 0.0
C804 C 0.81688 0.91633 0.39334 0.0
H805 H 0.83855 0.84171 0.4509 0.0
H806 H 0.85221 0.86636 0.38795 0.0
C807 C 0.79372 0.93699 0.41836 0.0
C808 C 0.0985 0.21615 0.43486 0.0
C809 C 0.12432 0.19504 0.41302 0.0
H810 H 0.04309 0.24164 0.43735 0.0
C811 C 0.11168 0.17864 0.37898 0.0
H812 H 0.10755 0.22921 0.4612 0.0
C813 C 0.07504 0.18549 0.36551 0.0
C814 C 0.05012 0.2093 0.38551 0.0
H815 H 0.1308 0.16185 0.36178 0.0
H816 H 0.06697 0.1736 0.33831 0.0
C817 C 0.06164 0.22334 0.42114 0.0
C818 C 0.41478 0.83944 0.88597 0.0
C819 C 0.39968 0.81454 0.9134 0.0
H820 H 0.46048 0.85136 0.84773 0.0
C821 C 0.4225 0.78472 0.92703 0.0
H822 H 0.39809 0.86293 0.87515 0.0
C823 C 0.45819 0.77789 0.91108 0.0
C824 C 0.47194 0.80091 0.88141 0.0
H825 H 0.41187 0.7651 0.94827 0.0
H826 H 0.47413 0.7534 0.92074 0.0
C827 C 0.4506 0.83278 0.87024 0.0
C828 C 0.55955 0.28196 0.6012 0.0
C829 C 0.54723 0.30165 0.6337 0.0
H830 H 0.60549 0.27138 0.5624 0.0
C831 C 0.57159 0.32919 0.64955 0.0
H832 H 0.54153 0.26061 0.58823 0.0
C833 C 0.60824 0.33486 0.63511 0.0
C834 C 0.62117 0.31394 0.60382 0.0
H835 H 0.56325 0.34487 0.67458 0.0
H836 H 0.62712 0.35458 0.64943 0.0
C837 C 0.59605 0.28833 0.58618 0.0
C838 C 0.95507 0.73311 0.09827 0.0
C839 C 0.96747 0.7133 0.13082 0.0
H840 H 0.90876 0.74429 0.05984 0.0
C841 C 0.94303 0.68607 0.1471 0.0
H842 H 0.97322 0.7542 0.08499 0.0
C843 C 0.90616 0.68096 0.13311 0.0
C844 C 0.89312 0.70215 0.10191 0.0
H845 H 0.95148 0.67029 0.17218 0.0
H846 H 0.88722 0.66146 0.1477 0.0
C847 C 0.91831 0.72729 0.08369 0.0
C848 C 0.41713 0.05703 0.231 0.0
C849 C 0.38376 0.04511 0.21222 0.0
H850 H 0.45643 0.10283 0.24131 0.0
C851 C 0.36668 0.07001 0.18595 0.0
H852 H 0.43102 0.03855 0.25136 0.0
C853 C 0.38083 0.10681 0.18078 0.0
C854 C 0.413 0.11932 0.20089 0.0
H855 H 0.34094 0.06196 0.17101 0.0
H856 H 0.36567 0.12608 0.16211 0.0
C857 C 0.43186 0.0937 0.22507 0.0
C858 C 0.93006 0.4214 0.78285 0.0
C859 C 0.92032 0.40081 0.81577 0.0
H860 H 0.91986 0.47088 0.7488 0.0
C861 C 0.89635 0.41775 0.84261 0.0
H862 H 0.94845 0.40915 0.76154 0.0
C863 C 0.88014 0.45319 0.83539 0.0
C864 C 0.88717 0.47233 0.80092 0.0
H865 H 0.88857 0.40275 0.86837 0.0
H866 H 0.86043 0.46454 0.85602 0.0
C867 C 0.91348 0.45674 0.77541 0.0
C868 C 0.59992 0.5521 0.28257 0.0
C869 C 0.63151 0.53956 0.3036 0.0
H870 H 0.56222 0.59832 0.27041 0.0
C871 C 0.64544 0.56248 0.33316 0.0
H872 H 0.58856 0.53505 0.25962 0.0
C873 C 0.63042 0.59854 0.33943 0.0
C874 C 0.6012 0.61269 0.31612 0.0
H875 H 0.66944 0.55335 0.35023 0.0
H876 H 0.64327 0.61614 0.36117 0.0
C877 C 0.58492 0.58842 0.28874 0.0
C878 C 0.09926 0.95158 0.73485 0.0
C879 C 0.1299 0.96594 0.71339 0.0
H880 H 0.06143 0.90444 0.74478 0.0
C881 C 0.14281 0.94465 0.68219 0.0
H882 H 0.0885 0.96724 0.75894 0.0
C883 C 0.12766 0.90881 0.67448 0.0
C884 C 0.09856 0.89362 0.6971 0.0
H885 H 0.16618 0.95468 0.66481 0.0
H886 H 0.13988 0.89217 0.65174 0.0
C887 C 0.08351 0.91581 0.72656 0.0
C888 C 0.79224 0.5804 0.92527 0.0
C889 C 0.81884 0.59808 0.90106 0.0
H890 H 0.76255 0.58266 0.97839 0.0
C891 C 0.84056 0.62852 0.91516 0.0
H892 H 0.77523 0.55667 0.91544 0.0
C893 C 0.83318 0.64337 0.95105 0.0
C894 C 0.80412 0.628 0.97381 0.0
H895 H 0.86168 0.64247 0.89759 0.0
H896 H 0.84886 0.66829 0.96013 0.0
C897 C 0.78499 0.59521 0.96141 0.0
C898 C 0.68982 0.36432 0.44472 0.0
C899 C 0.71427 0.38274 0.47053 0.0
H900 H 0.66773 0.36205 0.38815 0.0
C901 C 0.73082 0.4176 0.45969 0.0
H902 H 0.67604 0.33776 0.45216 0.0
C903 C 0.72539 0.43192 0.42273 0.0
C904 C 0.70364 0.41141 0.39615 0.0
H905 H 0.74975 0.43254 0.47885 0.0
H906 H 0.74036 0.45748 0.41419 0.0
C907 C 0.68489 0.37826 0.40797 0.0
C908 C 0.3406 0.88357 0.10064 0.0
C909 C 0.31536 0.90963 0.11693 0.0
H910 H 0.35293 0.84765 0.05356 0.0
C911 C 0.28406 0.92226 0.0953 0.0
H912 H 0.36508 0.87345 0.1164 0.0
C913 C 0.27671 0.90709 0.05931 0.0
C914 C 0.30074 0.87929 0.04397 0.0
H915 H 0.26396 0.9423 0.10699 0.0
H916 H 0.25139 0.91604 0.04422 0.0
C917 C 0.33354 0.86877 0.06452 0.0
C918 C 0.21856 0.07793 0.5922 0.0
C919 C 0.19361 0.09737 0.61654 0.0
H920 H 0.24848 0.07846 0.53927 0.0
C921 C 0.17482 0.1298 0.60284 0.0
H922 H 0.23321 0.05258 0.60169 0.0
C923 C 0.18375 0.14465 0.5672 0.0
C924 C 0.21143 0.12728 0.5444 0.0
H925 H 0.15503 0.1452 0.62055 0.0
H926 H 0.17036 0.17092 0.55835 0.0
C927 C 0.22736 0.09273 0.55638 0.0
C928 C 0.93835 0.82733 0.64946 0.0
C929 C 0.96324 0.80368 0.62918 0.0
H930 H 0.88277 0.85138 0.65335 0.0
C931 C 0.95165 0.7902 0.59335 0.0
H932 H 0.9464 0.83881 0.67684 0.0
C933 C 0.91489 0.79791 0.57959 0.0
C934 C 0.88916 0.81899 0.60159 0.0
H935 H 0.97014 0.77205 0.5769 0.0
H936 H 0.90584 0.78536 0.55301 0.0
C937 C 0.9018 0.83467 0.63597 0.0
C938 C 0.55524 0.23327 0.09691 0.0
C939 C 0.54233 0.21174 0.12798 0.0
H940 H 0.60167 0.24532 0.05936 0.0
C941 C 0.56446 0.18109 0.14082 0.0
H942 H 0.53877 0.25702 0.08634 0.0
C943 C 0.60028 0.17426 0.12539 0.0
C944 C 0.61497 0.19811 0.09688 0.0
H945 H 0.55497 0.16358 0.16435 0.0
H946 H 0.61739 0.15172 0.1375 0.0
C947 C 0.59134 0.22655 0.0815 0.0
C948 C 0.41083 0.67222 0.38288 0.0
C949 C 0.39515 0.69701 0.40977 0.0
H950 H 0.45781 0.65983 0.34664 0.0
C951 C 0.41776 0.72703 0.42364 0.0
H952 H 0.39431 0.64868 0.3718 0.0
C953 C 0.4541 0.73373 0.4089 0.0
C954 C 0.46884 0.71033 0.38026 0.0
H955 H 0.40663 0.7467 0.44439 0.0
H956 H 0.46998 0.75817 0.41887 0.0
C957 C 0.44732 0.67866 0.36847 0.0
C958 C 0.09942 0.284 0.92808 0.0
C959 C 0.12398 0.31053 0.91099 0.0
H960 H 0.04505 0.25604 0.92563 0.0
C961 C 0.11064 0.33273 0.88074 0.0
H962 H 0.10936 0.26625 0.95121 0.0
C963 C 0.07396 0.32744 0.86656 0.0
C964 C 0.05005 0.29904 0.88167 0.0
H965 H 0.12917 0.35327 0.86708 0.0
H966 H 0.06524 0.34428 0.84229 0.0
C967 C 0.06279 0.27802 0.91327 0.0
C968 C 0.59799 0.95626 0.78957 0.0
C969 C 0.63275 0.96775 0.80562 0.0
H970 H 0.55891 0.91053 0.78044 0.0
C971 C 0.65213 0.94254 0.8299 0.0
H972 H 0.58224 0.97506 0.77093 0.0
C973 C 0.63883 0.90555 0.83535 0.0
C974 C 0.60588 0.89293 0.81656 0.0
H975 H 0.67871 0.95074 0.84321 0.0
H976 H 0.65556 0.8863 0.85263 0.0
C977 C 0.5847 0.91917 0.79497 0.0
C978 C 0.14453 0.56562 0.18077 0.0
C979 C 0.13372 0.54462 0.21316 0.0
H980 H 0.14004 0.61788 0.14982 0.0
C981 C 0.1057 0.55971 0.23714 0.0
H982 H 0.16583 0.55489 0.16144 0.0
C983 C 0.09054 0.59581 0.2301 0.0
C984 C 0.10337 0.61782 0.19916 0.0
H985 H 0.09653 0.5443 0.26218 0.0
H986 H 0.07028 0.60724 0.25014 0.0
C987 C 0.12973 0.60183 0.17401 0.0
C988 C 0.37975 0.41046 0.67621 0.0
C989 C 0.41037 0.39692 0.69802 0.0
H990 H 0.34017 0.4554 0.66648 0.0
C991 C 0.42797 0.42182 0.72403 0.0
H992 H 0.36577 0.39236 0.6556 0.0
C993 C 0.41324 0.45827 0.73022 0.0
C994 C 0.3806 0.47041 0.71062 0.0
H995 H 0.45175 0.41243 0.74121 0.0
H996 H 0.42591 0.47586 0.75206 0.0
C997 C 0.36504 0.44668 0.68248 0.0
C998 C 0.88327 0.10639 0.33524 0.0
C999 C 0.91599 0.11984 0.31684 0.0
H1000 H 0.84262 0.06174 0.34094 0.0
C1001 C 0.93578 0.09535 0.2924 0.0
H1002 H 0.86765 0.12453 0.35448 0.0
C1003 C 0.92107 0.0591 0.28411 0.0
C1004 C 0.88652 0.04696 0.30034 0.0
H1005 H 0.96099 0.10516 0.27765 0.0
H1006 H 0.93546 0.04168 0.26335 0.0
C1007 C 0.86886 0.07039 0.3273 0.0
C1008 C 0.19003 0.34927 0.36245 0.0
C1009 C 0.21382 0.35576 0.33105 0.0
H1010 H 0.17869 0.31407 0.411 0.0
C1011 C 0.248 0.33547 0.32814 0.0
H1012 H 0.16363 0.36473 0.36554 0.0
C1013 C 0.25653 0.30682 0.35388 0.0
C1014 C 0.23127 0.29788 0.38336 0.0
H1015 H 0.26734 0.34029 0.3047 0.0
H1016 H 0.28186 0.29016 0.34922 0.0
C1017 C 0.19875 0.32045 0.38855 0.0
C1018 C 0.26728 0.68601 0.87924 0.0
C1019 C 0.29794 0.7 0.90058 0.0
H1020 H 0.24967 0.64844 0.83468 0.0
C1021 C 0.33341 0.68193 0.8983 0.0
H1022 H 0.24 0.70021 0.87994 0.0
C1023 C 0.33884 0.65199 0.8728 0.0
C1024 C 0.30898 0.64034 0.84901 0.0
H1025 H 0.35768 0.69314 0.91369 0.0
H1026 H 0.36715 0.64051 0.86911 0.0
C1027 C 0.27283 0.65652 0.85339 0.0
C1028 C 0.6818 0.19102 0.62222 0.0
C1029 C 0.71899 0.2057 0.62545 0.0
H1030 H 0.6405 0.15198 0.64487 0.0
C1031 C 0.74529 0.18718 0.64899 0.0
H1032 H 0.66086 0.20503 0.60447 0.0
C1033 C 0.73386 0.15599 0.6708 0.0
C1034 C 0.69586 0.14374 0.67029 0.0
H1035 H 0.77411 0.19782 0.65178 0.0
H1036 H 0.75398 0.143 0.69008 0.0
C1037 C 0.67013 0.16055 0.64501 0.0
C1038 C 0.81923 0.83285 0.11172 0.0
C1039 C 0.78884 0.80904 0.12291 0.0
H1040 H 0.85584 0.87955 0.12746 0.0
C1041 C 0.76794 0.81854 0.15534 0.0
H1042 H 0.83598 0.82618 0.08686 0.0
C1043 C 0.77964 0.84834 0.17831 0.0
C1044 C 0.81169 0.87018 0.16912 0.0
H1045 H 0.74428 0.80111 0.16471 0.0
H1046 H 0.76533 0.85244 0.20496 0.0
C1047 C 0.83061 0.86342 0.1348 0.0
C1048 C 0.3727 0.24414 0.3294 0.0
C1049 C 0.39642 0.21766 0.31166 0.0
H1050 H 0.33098 0.25338 0.37258 0.0
C1051 C 0.40017 0.18109 0.32749 0.0
H1052 H 0.36949 0.27252 0.31784 0.0
C1053 C 0.3774 0.16999 0.35812 0.0
C1054 C 0.35159 0.19572 0.37381 0.0
H1055 H 0.41807 0.16003 0.3141 0.0
H1056 H 0.37777 0.14065 0.3675 0.0
C1057 C 0.35078 0.23329 0.36059 0.0
C1058 C 0.18533 0.76704 0.83284 0.0
C1059 C 0.18165 0.79986 0.85507 0.0
H1060 H 0.16541 0.73565 0.78536 0.0
C1061 C 0.14995 0.82351 0.84948 0.0
H1062 H 0.20904 0.74784 0.83676 0.0
C1063 C 0.12425 0.81602 0.81993 0.0
C1064 C 0.13017 0.78494 0.79565 0.0
H1065 H 0.14627 0.84889 0.86636 0.0
H1066 H 0.10145 0.83595 0.8145 0.0
C1067 C 0.16007 0.75983 0.8034 0.0
C1068 C 0.86341 0.27895 0.65372 0.0
C1069 C 0.85244 0.31603 0.64385 0.0
H1070 H 0.8947 0.24405 0.69297 0.0
C1071 C 0.86955 0.34694 0.66222 0.0
H1072 H 0.84971 0.25474 0.6405 0.0
C1073 C 0.89501 0.34086 0.69215 0.0
C1074 C 0.90389 0.30378 0.70396 0.0
H1075 H 0.8607 0.37569 0.65567 0.0
H1076 H 0.90521 0.36508 0.70819 0.0
C1077 C 0.8892 0.27284 0.68355 0.0
C1078 C 0.61395 0.67811 0.18465 0.0
C1079 C 0.61301 0.71407 0.20178 0.0
H1080 H 0.64186 0.64236 0.14404 0.0
C1081 C 0.6352 0.74361 0.18678 0.0
H1082 H 0.59787 0.65469 0.19666 0.0
C1083 C 0.66056 0.73647 0.15722 0.0
C1084 C 0.66373 0.6998 0.14211 0.0
H1085 H 0.63554 0.77122 0.20025 0.0
H1086 H 0.67989 0.7588 0.14828 0.0
C1087 C 0.63911 0.67104 0.15474 0.0
C1088 C 0.35998 0.37086 0.17315 0.0
C1089 C 0.37389 0.3498 0.20404 0.0
H1090 H 0.31672 0.40902 0.15327 0.0
C1091 C 0.35896 0.35621 0.24038 0.0
H1092 H 0.37038 0.36547 0.14473 0.0
C1093 C 0.32874 0.3815 0.24535 0.0
C1094 C 0.31275 0.40016 0.21394 0.0
H1095 H 0.36864 0.33946 0.26437 0.0
H1096 H 0.31566 0.38379 0.27307 0.0
C1097 C 0.32939 0.39572 0.17803 0.0
C1098 C 0.8532 0.15251 0.82656 0.0
C1099 C 0.85876 0.1845 0.80327 0.0
H1100 H 0.81838 0.10374 0.83807 0.0
C1101 C 0.83721 0.18836 0.76988 0.0
H1102 H 0.86972 0.14867 0.85228 0.0
C1103 C 0.80801 0.16303 0.76196 0.0
C1104 C 0.80006 0.13295 0.78689 0.0
H1105 H 0.84144 0.21223 0.75083 0.0
H1106 H 0.79024 0.16848 0.73749 0.0
C1107 C 0.82399 0.12673 0.81833 0.0
C1108 C 0.69875 0.86359 0.26013 0.0
C1109 C 0.71329 0.88698 0.28885 0.0
H1110 H 0.66156 0.81765 0.24599 0.0
C1111 C 0.69644 0.88599 0.32499 0.0
H1112 H 0.71014 0.86489 0.23173 0.0
C1113 C 0.66787 0.85936 0.33308 0.0
C1114 C 0.65624 0.83331 0.30517 0.0
H1115 H 0.7073 0.9037 0.3477 0.0
H1116 H 0.65692 0.85739 0.36175 0.0
C1117 C 0.67076 0.83675 0.26826 0.0
C1118 C 0.18292 0.64571 0.74186 0.0
C1119 C 0.20127 0.62214 0.71566 0.0
H1120 H 0.1392 0.68707 0.75054 0.0
C1121 C 0.18656 0.6192 0.67854 0.0
H1122 H 0.19362 0.64838 0.77061 0.0
C1123 C 0.15626 0.64222 0.66689 0.0
C1124 C 0.13961 0.66748 0.69256 0.0
H1125 H 0.20046 0.60152 0.65765 0.0
H1126 H 0.14766 0.64223 0.63733 0.0
C1127 C 0.15194 0.66777 0.73045 0.0
C1128 C 0.8222 0.66484 0.6509 0.0
C1129 C 0.80007 0.65957 0.68374 0.0
H1130 H 0.83218 0.69907 0.60127 0.0
C1131 C 0.76736 0.6819 0.68853 0.0
H1132 H 0.8475 0.648 0.64631 0.0
C1133 C 0.75833 0.71045 0.66272 0.0
C1134 C 0.78203 0.71791 0.63156 0.0
H1135 H 0.7495 0.67866 0.7133 0.0
H1136 H 0.73382 0.72813 0.66842 0.0
C1137 C 0.81329 0.69391 0.625 0.0
C1138 C 0.74824 0.32529 0.13473 0.0
C1139 C 0.7178 0.31269 0.11222 0.0
H1140 H 0.76569 0.36082 0.18103 0.0
C1141 C 0.68265 0.33141 0.11455 0.0
H1142 H 0.77527 0.31063 0.13399 0.0
C1143 C 0.6773 0.36054 0.14104 0.0
C1144 C 0.70685 0.37064 0.16591 0.0
H1145 H 0.65846 0.32126 0.09832 0.0
H1146 H 0.6492 0.37261 0.14445 0.0
C1147 C 0.74272 0.35382 0.16167 0.0
C1148 C 0.26445 0.82007 0.37219 0.0
C1149 C 0.29306 0.80806 0.39717 0.0
H1150 H 0.25068 0.85309 0.32312 0.0
C1151 C 0.32899 0.82551 0.3956 0.0
H1152 H 0.23684 0.80639 0.37245 0.0
C1153 C 0.33706 0.85235 0.36728 0.0
C1154 C 0.30948 0.86127 0.33971 0.0
H1155 H 0.35183 0.81572 0.41385 0.0
H1156 H 0.36569 0.86358 0.36509 0.0
C1157 C 0.27262 0.84628 0.34356 0.0
C1158 C 0.25672 0.19753 0.85945 0.0
C1159 C 0.23115 0.20763 0.88812 0.0
H1160 H 0.26619 0.16458 0.81001 0.0
C1161 C 0.19745 0.18646 0.89277 0.0
H1162 H 0.28307 0.2131 0.85547 0.0
C1163 C 0.18779 0.15817 0.86655 0.0
C1164 C 0.2117 0.15106 0.83547 0.0
H1165 H 0.17716 0.19381 0.91464 0.0
H1166 H 0.16053 0.14396 0.86905 0.0
C1167 C 0.24697 0.16974 0.8333 0.0
C1168 C 0.64711 0.78845 0.64322 0.0
C1169 C 0.65985 0.82626 0.64057 0.0
H1170 H 0.61638 0.74746 0.67677 0.0
C1171 C 0.64536 0.85339 0.66562 0.0
H1172 H 0.65877 0.76695 0.62467 0.0
C1173 C 0.62077 0.84242 0.69477 0.0
C1174 C 0.61073 0.80405 0.69969 0.0
H1175 H 0.65542 0.88251 0.6645 0.0
H1176 H 0.61258 0.86334 0.71572 0.0
C1177 C 0.62277 0.77733 0.67283 0.0
C1178 C 0.85449 0.25361 0.20965 0.0
C1179 C 0.88479 0.22889 0.21728 0.0
H1180 H 0.80497 0.26478 0.17683 0.0
C1181 C 0.89076 0.19774 0.19309 0.0
H1182 H 0.84909 0.27786 0.22758 0.0
C1183 C 0.86487 0.18986 0.16374 0.0
C1184 C 0.83284 0.21312 0.15828 0.0
H1185 H 0.9138 0.17807 0.19843 0.0
H1186 H 0.86874 0.1645 0.14688 0.0
C1187 C 0.82896 0.24591 0.18053 0.0
C1188 C 0.14383 0.67739 0.35346 0.0
C1189 C 0.17167 0.70488 0.36185 0.0
H1190 H 0.09694 0.66241 0.31728 0.0
C1191 C 0.1679 0.74156 0.34658 0.0
H1192 H 0.14593 0.64891 0.36497 0.0
C1193 C 0.13911 0.74955 0.32049 0.0
C1194 C 0.11395 0.72092 0.30889 0.0
H1195 H 0.18854 0.76346 0.35306 0.0
H1196 H 0.13894 0.77696 0.3065 0.0
C1197 C 0.11535 0.68527 0.32675 0.0
C1198 C 0.363 0.28053 0.86439 0.0
C1199 C 0.35316 0.3184 0.87188 0.0
H1200 H 0.39207 0.24251 0.82675 0.0
C1201 C 0.37055 0.3477 0.8512 0.0
H1202 H 0.34901 0.25753 0.87943 0.0
C1203 C 0.39522 0.33915 0.8214 0.0
C1204 C 0.40266 0.3012 0.81182 0.0
H1205 H 0.36253 0.37701 0.85593 0.0
H1206 H 0.40564 0.36208 0.80357 0.0
C1207 C 0.38767 0.27195 0.83444 0.0
C1208 C 0.69376 0.63422 0.76467 0.0
C1209 C 0.7042 0.61154 0.79573 0.0
H1210 H 0.66131 0.68207 0.74553 0.0
C1211 C 0.68447 0.61488 0.83002 0.0
H1212 H 0.70897 0.632 0.73808 0.0
C1213 C 0.65689 0.64296 0.83423 0.0
C1214 C 0.64961 0.6687 0.80447 0.0
H1215 H 0.69288 0.59823 0.85457 0.0
H1216 H 0.64382 0.64656 0.8618 0.0
C1217 C 0.66692 0.66301 0.76908 0.0
C1218 C 0.19373 0.87334 0.24907 0.0
C1219 C 0.20572 0.89791 0.22011 0.0
H1220 H 0.16028 0.8247 0.26375 0.0
C1221 C 0.18785 0.89614 0.18447 0.0
H1222 H 0.20767 0.8738 0.27648 0.0
C1223 C 0.16057 0.86804 0.17706 0.0
C1224 C 0.15162 0.84083 0.20498 0.0
H1225 H 0.1976 0.91407 0.16136 0.0
H1226 H 0.14899 0.86569 0.14863 0.0
C1227 C 0.16709 0.84487 0.24154 0.0
C1228 C 0.32178 0.13583 0.74723 0.0
C1229 C 0.308 0.11455 0.71651 0.0
H1230 H 0.35642 0.18286 0.76512 0.0
C1231 C 0.32373 0.12054 0.68038 0.0
H1232 H 0.30985 0.13178 0.77522 0.0
C1233 C 0.3509 0.14913 0.67462 0.0
C1234 C 0.3618 0.17304 0.70468 0.0
H1235 H 0.3127 0.10525 0.65605 0.0
H1236 H 0.36104 0.15444 0.64606 0.0
C1237 C 0.34806 0.16524 0.74133 0.0
C1238 C 0.83261 0.36877 0.27237 0.0
C1239 C 0.81456 0.39262 0.29851 0.0
H1240 H 0.87524 0.32632 0.26394 0.0
C1241 C 0.82917 0.3954 0.33567 0.0
H1242 H 0.82192 0.3662 0.2436 0.0
C1243 C 0.85892 0.37178 0.34747 0.0
C1244 C 0.87495 0.34603 0.32191 0.0
H1245 H 0.81545 0.41329 0.3565 0.0
H1246 H 0.86742 0.37164 0.37705 0.0
C1247 C 0.86292 0.34599 0.28395 0.0
loop_
_geom_bond_atom_site_label_1
_geom_bond_atom_site_label_2
_geom_bond_distance
_geom_bond_site_symmetry_2
_ccdc_geom_bond_type
Fe0 O2 1.918 . S
Fe0 O5 1.997 . S
Fe0 O6 2.002 . S
Fe0 O11 1.976 . S
Fe0 O14 1.996 . S
Fe1 O2 1.918 . S
Fe1 O9 1.997 . S
Fe1 O12 1.996 . S
Fe1 O16 1.976 . S
Fe1 O19 2.002 . S
O2 Fe0 1.918 . S
O2 Fe1 1.918 . S
O2 Fe3 1.918 . S
Fe3 O2 1.918 . S
Fe3 O4 2.002 . S
Fe3 O13 1.976 . S
Fe3 O17 1.996 . S
Fe3 O20 1.997 . S
O4 Fe3 2.002 . S
O4 C21 1.295 . S
O5 Fe0 1.997 . S
O5 C21 1.235 . S
O6 Fe0 2.002 . S
O6 C7 1.295 . S
C7 O6 1.295 . S
C7 O9 1.235 . S
C8 O13 1.287 . S
C8 O14 1.255 . S
O9 Fe1 1.997 . S
O9 C7 1.235 . S
C10 O16 1.287 . S
C10 O17 1.255 . S
O11 Fe0 1.976 . S
O11 C18 1.287 . S
O12 Fe1 1.996 . S
O12 C18 1.255 . S
O13 Fe3 1.976 . S
O13 C8 1.287 . S
O14 Fe0 1.996 . S
O14 C8 1.255 . S
C15 O19 1.295 . S
C15 O20 1.235 . S
O16 Fe1 1.976 . S
O16 C10 1.287 . S
O17 Fe3 1.996 . S
O17 C10 1.255 . S
C18 O11 1.287 . S
C18 O12 1.255 . S
O19 Fe1 2.002 . S
O19 C15 1.295 . S
O20 Fe3 1.997 . S
O20 C15 1.235 . S
C21 O4 1.295 . S
C21 O5 1.235 . S
Fe22 O24 1.918 . S
Fe22 O27 1.997 . S
Fe22 O28 2.002 . S
Fe22 O33 1.976 . S
Fe22 O36 1.996 . S
Fe23 O24 1.918 . S
Fe23 O31 1.997 . S
Fe23 O34 1.996 . S
Fe23 O38 1.976 . S
Fe23 O41 2.002 . S
O24 Fe22 1.918 . S
O24 Fe23 1.918 . S
O24 Fe25 1.918 . S
Fe25 O24 1.918 . S
Fe25 O26 2.002 . S
Fe25 O35 1.976 . S
Fe25 O39 1.996 . S
Fe25 O42 1.997 . S
O26 Fe25 2.002 . S
O26 C43 1.295 . S
O27 Fe22 1.997 . S
O27 C43 1.235 . S
O28 Fe22 2.002 . S
O28 C29 1.295 . S
C29 O28 1.295 . S
C29 O31 1.235 . S
C30 O35 1.287 . S
C30 O36 1.255 . S
O31 Fe23 1.997 . S
O31 C29 1.235 . S
C32 O38 1.287 . S
C32 O39 1.255 . S
O33 Fe22 1.976 . S
O33 C40 1.287 . S
O34 Fe23 1.996 . S
O34 C40 1.255 . S
O35 Fe25 1.976 . S
O35 C30 1.287 . S
O36 Fe22 1.996 . S
O36 C30 1.255 . S
C37 O41 1.295 . S
C37 O42 1.235 . S
O38 Fe23 1.976 . S
O38 C32 1.287 . S
O39 Fe25 1.996 . S
O39 C32 1.255 . S
C40 O33 1.287 . S
C40 O34 1.255 . S
O41 Fe23 2.002 . S
O41 C37 1.295 . S
O42 Fe25 1.997 . S
O42 C37 1.235 . S
C43 O26 1.295 . S
C43 O27 1.235 . S
Fe44 O46 1.918 . S
Fe44 O49 1.997 . S
Fe44 O50 2.002 . S
Fe44 O55 1.976 . S
Fe44 O58 1.996 . S
Fe45 O46 1.918 . S
Fe45 O53 1.997 . S
Fe45 O56 1.996 . S
Fe45 O60 1.976 . S
Fe45 O63 2.002 . S
O46 Fe44 1.918 . S
O46 Fe45 1.918 . S
O46 Fe47 1.918 . S
Fe47 O46 1.918 . S
Fe47 O48 2.002 . S
Fe47 O57 1.976 . S
Fe47 O61 1.996 . S
Fe47 O64 1.997 . S
O48 Fe47 2.002 . S
O48 C65 1.295 . S
O49 Fe44 1.997 . S
O49 C65 1.235 . S
O50 Fe44 2.002 . S
O50 C51 1.295 . S
C51 O50 1.295 . S
C51 O53 1.235 . S
C52 O57 1.287 . S
C52 O58 1.255 . S
O53 Fe45 1.997 . S
O53 C51 1.235 . S
C54 O60 1.287 . S
C54 O61 1.255 . S
O55 Fe44 1.976 . S
O55 C62 1.287 . S
O56 Fe45 1.996 . S
O56 C62 1.255 . S
O57 Fe47 1.976 . S
O57 C52 1.287 . S
O58 Fe44 1.996 . S
O58 C52 1.255 . S
C59 O63 1.295 . S
C59 O64 1.235 . S
O60 Fe45 1.976 . S
O60 C54 1.287 . S
O61 Fe47 1.996 . S
O61 C54 1.255 . S
C62 O55 1.287 . S
C62 O56 1.255 . S
O63 Fe45 2.002 . S
O63 C59 1.295 . S
O64 Fe47 1.997 . S
O64 C59 1.235 . S
C65 O48 1.295 . S
C65 O49 1.235 . S
Fe66 O68 1.918 . S
Fe66 O71 1.997 . S
Fe66 O72 2.002 . S
Fe66 O77 1.976 . S
Fe66 O80 1.996 . S
Fe67 O68 1.918 . S
Fe67 O75 1.997 . S
Fe67 O78 1.996 . S
Fe67 O82 1.976 . S
Fe67 O85 2.002 . S
O68 Fe66 1.918 . S
O68 Fe67 1.918 . S
O68 Fe69 1.918 . S
Fe69 O68 1.918 . S
Fe69 O70 2.002 . S
Fe69 O79 1.976 . S
Fe69 O83 1.996 . S
Fe69 O86 1.997 . S
O70 Fe69 2.002 . S
O70 C87 1.295 . S
O71 Fe66 1.997 . S
O71 C87 1.235 . S
O72 Fe66 2.002 . S
O72 C73 1.295 . S
C73 O72 1.295 . S
C73 O75 1.235 . S
C74 O79 1.287 . S
C74 O80 1.255 . S
O75 Fe67 1.997 . S
O75 C73 1.235 . S
C76 O82 1.287 . S
C76 O83 1.255 . S
O77 Fe66 1.976 . S
O77 C84 1.287 . S
O78 Fe67 1.996 . S
O78 C84 1.255 . S
O79 Fe69 1.976 . S
O79 C74 1.287 . S
O80 Fe66 1.996 . S
O80 C74 1.255 . S
C81 O85 1.295 . S
C81 O86 1.235 . S
O82 Fe67 1.976 . S
O82 C76 1.287 . S
O83 Fe69 1.996 . S
O83 C76 1.255 . S
C84 O77 1.287 . S
C84 O78 1.255 . S
O85 Fe67 2.002 . S
O85 C81 1.295 . S
O86 Fe69 1.997 . S
O86 C81 1.235 . S
C87 O70 1.295 . S
C87 O71 1.235 . S
Fe88 O90 1.918 . S
Fe88 O93 1.997 . S
Fe88 O94 2.002 . S
Fe88 O99 1.976 . S
Fe88 O102 1.996 . S
Fe89 O90 1.918 . S
Fe89 O97 1.997 . S
Fe89 O100 1.996 . S
Fe89 O104 1.976 . S
Fe89 O107 2.002 . S
O90 Fe88 1.918 . S
O90 Fe89 1.918 . S
O90 Fe91 1.918 . S
Fe91 O90 1.918 . S
Fe91 O92 2.002 . S
Fe91 O101 1.976 . S
Fe91 O105 1.996 . S
Fe91 O108 1.997 . S
O92 Fe91 2.002 . S
O92 C109 1.295 . S
O93 Fe88 1.997 . S
O93 C109 1.235 . S
O94 Fe88 2.002 . S
O94 C95 1.295 . S
C95 O94 1.295 . S
C95 O97 1.235 . S
C96 O101 1.287 . S
C96 O102 1.255 . S
O97 Fe89 1.997 . S
O97 C95 1.235 . S
C98 O104 1.287 . S
C98 O105 1.255 . S
O99 Fe88 1.976 . S
O99 C106 1.287 . S
O100 Fe89 1.996 . S
O100 C106 1.255 . S
O101 Fe91 1.976 . S
O101 C96 1.287 . S
O102 Fe88 1.996 . S
O102 C96 1.255 . S
C103 O107 1.295 . S
C103 O108 1.235 . S
O104 Fe89 1.976 . S
O104 C98 1.287 . S
O105 Fe91 1.996 . S
O105 C98 1.255 . S
C106 O99 1.287 . S
C106 O100 1.255 . S
O107 Fe89 2.002 . S
O107 C103 1.295 . S
O108 Fe91 1.997 . S
O108 C103 1.235 . S
C109 O92 1.295 . S
C109 O93 1.235 . S
Fe110 O112 1.918 . S
Fe110 O115 1.997 . S
Fe110 O116 2.002 . S
Fe110 O121 1.976 . S
Fe110 O124 1.996 . S
Fe111 O112 1.918 . S
Fe111 O119 1.997 . S
Fe111 O122 1.996 . S
Fe111 O126 1.976 . S
Fe111 O129 2.002 . S
O112 Fe110 1.918 . S
O112 Fe111 1.918 . S
O112 Fe113 1.918 . S
Fe113 O112 1.918 . S
Fe113 O114 2.002 . S
Fe113 O123 1.976 . S
Fe113 O127 1.996 . S
Fe113 O130 1.997 . S
O114 Fe113 2.002 . S
O114 C131 1.295 . S
O115 Fe110 1.997 . S
O115 C131 1.235 . S
O116 Fe110 2.002 . S
O116 C117 1.295 . S
C117 O116 1.295 . S
C117 O119 1.235 . S
C118 O123 1.287 . S
C118 O124 1.255 . S
O119 Fe111 1.997 . S
O119 C117 1.235 . S
C120 O126 1.287 . S
C120 O127 1.255 . S
O121 Fe110 1.976 . S
O121 C128 1.287 . S
O122 Fe111 1.996 . S
O122 C128 1.255 . S
O123 Fe113 1.976 . S
O123 C118 1.287 . S
O124 Fe110 1.996 . S
O124 C118 1.255 . S
C125 O129 1.295 . S
C125 O130 1.235 . S
O126 Fe111 1.976 . S
O126 C120 1.287 . S
O127 Fe113 1.996 . S
O127 C120 1.255 . S
C128 O121 1.287 . S
C128 O122 1.255 . S
O129 Fe111 2.002 . S
O129 C125 1.295 . S
O130 Fe113 1.997 . S
O130 C125 1.235 . S
C131 O114 1.295 . S
C131 O115 1.235 . S
Fe132 O134 1.918 . S
Fe132 O137 1.997 . S
Fe132 O138 2.002 . S
Fe132 O143 1.976 . S
Fe132 O146 1.996 . S
Fe133 O134 1.918 . S
Fe133 O141 1.997 . S
Fe133 O144 1.996 . S
Fe133 O148 1.976 . S
Fe133 O151 2.002 . S
O134 Fe132 1.918 . S
O134 Fe133 1.918 . S
O134 Fe135 1.918 . S
Fe135 O134 1.918 . S
Fe135 O136 2.002 . S
Fe135 O145 1.976 . S
Fe135 O149 1.996 . S
Fe135 O152 1.997 . S
O136 Fe135 2.002 . S
O136 C153 1.295 . S
O137 Fe132 1.997 . S
O137 C153 1.235 . S
O138 Fe132 2.002 . S
O138 C139 1.295 . S
C139 O138 1.295 . S
C139 O141 1.235 . S
C140 O145 1.287 . S
C140 O146 1.255 . S
O141 Fe133 1.997 . S
O141 C139 1.235 . S
C142 O148 1.287 . S
C142 O149 1.255 . S
O143 Fe132 1.976 . S
O143 C150 1.287 . S
O144 Fe133 1.996 . S
O144 C150 1.255 . S
O145 Fe135 1.976 . S
O145 C140 1.287 . S
O146 Fe132 1.996 . S
O146 C140 1.255 . S
C147 O151 1.295 . S
C147 O152 1.235 . S
O148 Fe133 1.976 . S
O148 C142 1.287 . S
O149 Fe135 1.996 . S
O149 C142 1.255 . S
C150 O143 1.287 . S
C150 O144 1.255 . S
O151 Fe133 2.002 . S
O151 C147 1.295 . S
O152 Fe135 1.997 . S
O152 C147 1.235 . S
C153 O136 1.295 . S
C153 O137 1.235 . S
Fe154 O156 1.918 . S
Fe154 O159 1.997 . S
Fe154 O160 2.002 . S
Fe154 O165 1.976 . S
Fe154 O168 1.996 . S
Fe155 O156 1.918 . S
Fe155 O163 1.997 . S
Fe155 O166 1.996 . S
Fe155 O170 1.976 . S
Fe155 O173 2.002 . S
O156 Fe154 1.918 . S
O156 Fe155 1.918 . S
O156 Fe157 1.918 . S
Fe157 O156 1.918 . S
Fe157 O158 2.002 . S
Fe157 O167 1.976 . S
Fe157 O171 1.996 . S
Fe157 O174 1.997 . S
O158 Fe157 2.002 . S
O158 C175 1.295 . S
O159 Fe154 1.997 . S
O159 C175 1.235 . S
O160 Fe154 2.002 . S
O160 C161 1.295 . S
C161 O160 1.295 . S
C161 O163 1.235 . S
C162 O167 1.287 . S
C162 O168 1.255 . S
O163 Fe155 1.997 . S
O163 C161 1.235 . S
C164 O170 1.287 . S
C164 O171 1.255 . S
O165 Fe154 1.976 . S
O165 C172 1.287 . S
O166 Fe155 1.996 . S
O166 C172 1.255 . S
O167 Fe157 1.976 . S
O167 C162 1.287 . S
O168 Fe154 1.996 . S
O168 C162 1.255 . S
C169 O173 1.295 . S
C169 O174 1.235 . S
O170 Fe155 1.976 . S
O170 C164 1.287 . S
O171 Fe157 1.996 . S
O171 C164 1.255 . S
C172 O165 1.287 . S
C172 O166 1.255 . S
O173 Fe155 2.002 . S
O173 C169 1.295 . S
O174 Fe157 1.997 . S
O174 C169 1.235 . S
C175 O158 1.295 . S
C175 O159 1.235 . S
Fe176 O178 1.918 . S
Fe176 O181 1.997 . S
Fe176 O182 2.002 . S
Fe176 O187 1.976 . S
Fe176 O190 1.996 . S
Fe177 O178 1.918 . S
Fe177 O185 1.997 . S
Fe177 O188 1.996 . S
Fe177 O192 1.976 . S
Fe177 O195 2.002 . S
O178 Fe176 1.918 . S
O178 Fe177 1.918 . S
O178 Fe179 1.918 . S
Fe179 O178 1.918 . S
Fe179 O180 2.002 . S
Fe179 O189 1.976 . S
Fe179 O193 1.996 . S
Fe179 O196 1.997 . S
O180 Fe179 2.002 . S
O180 C197 1.295 . S
O181 Fe176 1.997 . S
O181 C197 1.235 . S
O182 Fe176 2.002 . S
O182 C183 1.295 . S
C183 O182 1.295 . S
C183 O185 1.235 . S
C184 O189 1.287 . S
C184 O190 1.255 . S
O185 Fe177 1.997 . S
O185 C183 1.235 . S
C186 O192 1.287 . S
C186 O193 1.255 . S
O187 Fe176 1.976 . S
O187 C194 1.287 . S
O188 Fe177 1.996 . S
O188 C194 1.255 . S
O189 Fe179 1.976 . S
O189 C184 1.287 . S
O190 Fe176 1.996 . S
O190 C184 1.255 . S
C191 O195 1.295 . S
C191 O196 1.235 . S
O192 Fe177 1.976 . S
O192 C186 1.287 . S
O193 Fe179 1.996 . S
O193 C186 1.255 . S
C194 O187 1.287 . S
C194 O188 1.255 . S
O195 Fe177 2.002 . S
O195 C191 1.295 . S
O196 Fe179 1.997 . S
O196 C191 1.235 . S
C197 O180 1.295 . S
C197 O181 1.235 . S
Fe198 O200 1.918 . S
Fe198 O203 1.997 . S
Fe198 O204 2.002 . S
Fe198 O209 1.976 . S
Fe198 O212 1.996 . S
Fe199 O200 1.918 . S
Fe199 O207 1.997 . S
Fe199 O210 1.996 . S
Fe199 O214 1.976 . S
Fe199 O217 2.002 . S
O200 Fe198 1.918 . S
O200 Fe199 1.918 . S
O200 Fe201 1.918 . S
Fe201 O200 1.918 . S
Fe201 O202 2.002 . S
Fe201 O211 1.976 . S
Fe201 O215 1.996 . S
Fe201 O218 1.997 . S
O202 Fe201 2.002 . S
O202 C219 1.295 . S
O203 Fe198 1.997 . S
O203 C219 1.235 . S
O204 Fe198 2.002 . S
O204 C205 1.295 . S
C205 O204 1.295 . S
C205 O207 1.235 . S
C206 O211 1.287 . S
C206 O212 1.255 . S
O207 Fe199 1.997 . S
O207 C205 1.235 . S
C208 O214 1.287 . S
C208 O215 1.255 . S
O209 Fe198 1.976 . S
O209 C216 1.287 . S
O210 Fe199 1.996 . S
O210 C216 1.255 . S
O211 Fe201 1.976 . S
O211 C206 1.287 . S
O212 Fe198 1.996 . S
O212 C206 1.255 . S
C213 O217 1.295 . S
C213 O218 1.235 . S
O214 Fe199 1.976 . S
O214 C208 1.287 . S
O215 Fe201 1.996 . S
O215 C208 1.255 . S
C216 O209 1.287 . S
C216 O210 1.255 . S
O217 Fe199 2.002 . S
O217 C213 1.295 . S
O218 Fe201 1.997 . S
O218 C213 1.235 . S
C219 O202 1.295 . S
C219 O203 1.235 . S
Fe220 O222 1.918 . S
Fe220 O225 1.997 . S
Fe220 O226 2.002 . S
Fe220 O231 1.976 . S
Fe220 O234 1.996 . S
Fe221 O222 1.918 . S
Fe221 O229 1.997 . S
Fe221 O232 1.996 . S
Fe221 O236 1.976 . S
Fe221 O239 2.002 . S
O222 Fe220 1.918 . S
O222 Fe221 1.918 . S
O222 Fe223 1.918 . S
Fe223 O222 1.918 . S
Fe223 O224 2.002 . S
Fe223 O233 1.976 . S
Fe223 O237 1.996 . S
Fe223 O240 1.997 . S
O224 Fe223 2.002 . S
O224 C241 1.295 . S
O225 Fe220 1.997 . S
O225 C241 1.235 . S
O226 Fe220 2.002 . S
O226 C227 1.295 . S
C227 O226 1.295 . S
C227 O229 1.235 . S
C228 O233 1.287 . S
C228 O234 1.255 . S
O229 Fe221 1.997 . S
O229 C227 1.235 . S
C230 O236 1.287 . S
C230 O237 1.255 . S
O231 Fe220 1.976 . S
O231 C238 1.287 . S
O232 Fe221 1.996 . S
O232 C238 1.255 . S
O233 Fe223 1.976 . S
O233 C228 1.287 . S
O234 Fe220 1.996 . S
O234 C228 1.255 . S
C235 O239 1.295 . S
C235 O240 1.235 . S
O236 Fe221 1.976 . S
O236 C230 1.287 . S
O237 Fe223 1.996 . S
O237 C230 1.255 . S
C238 O231 1.287 . S
C238 O232 1.255 . S
O239 Fe221 2.002 . S
O239 C235 1.295 . S
O240 Fe223 1.997 . S
O240 C235 1.235 . S
C241 O224 1.295 . S
C241 O225 1.235 . S
Fe242 O244 1.918 . S
Fe242 O247 1.997 . S
Fe242 O248 2.002 . S
Fe242 O253 1.976 . S
Fe242 O256 1.996 . S
Fe243 O244 1.918 . S
Fe243 O251 1.997 . S
Fe243 O254 1.996 . S
Fe243 O258 1.976 . S
Fe243 O261 2.002 . S
O244 Fe242 1.918 . S
O244 Fe243 1.918 . S
O244 Fe245 1.918 . S
Fe245 O244 1.918 . S
Fe245 O246 2.002 . S
Fe245 O255 1.976 . S
Fe245 O259 1.996 . S
Fe245 O262 1.997 . S
O246 Fe245 2.002 . S
O246 C263 1.295 . S
O247 Fe242 1.997 . S
O247 C263 1.235 . S
O248 Fe242 2.002 . S
O248 C249 1.295 . S
C249 O248 1.295 . S
C249 O251 1.235 . S
C250 O255 1.287 . S
C250 O256 1.255 . S
O251 Fe243 1.997 . S
O251 C249 1.235 . S
C252 O258 1.287 . S
C252 O259 1.255 . S
O253 Fe242 1.976 . S
O253 C260 1.287 . S
O254 Fe243 1.996 . S
O254 C260 1.255 . S
O255 Fe245 1.976 . S
O255 C250 1.287 . S
O256 Fe242 1.996 . S
O256 C250 1.255 . S
C257 O261 1.295 . S
C257 O262 1.235 . S
O258 Fe243 1.976 . S
O258 C252 1.287 . S
O259 Fe245 1.996 . S
O259 C252 1.255 . S
C260 O253 1.287 . S
C260 O254 1.255 . S
O261 Fe243 2.002 . S
O261 C257 1.295 . S
O262 Fe245 1.997 . S
O262 C257 1.235 . S
C263 O246 1.295 . S
C263 O247 1.235 . S
Fe264 O266 1.918 . S
Fe264 O269 1.997 . S
Fe264 O270 2.002 . S
Fe264 O275 1.976 . S
Fe264 O278 1.996 . S
Fe265 O266 1.918 . S
Fe265 O273 1.997 . S
Fe265 O276 1.996 . S
Fe265 O280 1.976 . S
Fe265 O283 2.002 . S
O266 Fe264 1.918 . S
O266 Fe265 1.918 . S
O266 Fe267 1.918 . S
Fe267 O266 1.918 . S
Fe267 O268 2.002 . S
Fe267 O277 1.976 . S
Fe267 O281 1.996 . S
Fe267 O284 1.997 . S
O268 Fe267 2.002 . S
O268 C285 1.295 . S
O269 Fe264 1.997 . S
O269 C285 1.235 . S
O270 Fe264 2.002 . S
O270 C271 1.295 . S
C271 O270 1.295 . S
C271 O273 1.235 . S
C272 O277 1.287 . S
C272 O278 1.255 . S
O273 Fe265 1.997 . S
O273 C271 1.235 . S
C274 O280 1.287 . S
C274 O281 1.255 . S
O275 Fe264 1.976 . S
O275 C282 1.287 . S
O276 Fe265 1.996 . S
O276 C282 1.255 . S
O277 Fe267 1.976 . S
O277 C272 1.287 . S
O278 Fe264 1.996 . S
O278 C272 1.255 . S
C279 O283 1.295 . S
C279 O284 1.235 . S
O280 Fe265 1.976 . S
O280 C274 1.287 . S
O281 Fe267 1.996 . S
O281 C274 1.255 . S
C282 O275 1.287 . S
C282 O276 1.255 . S
O283 Fe265 2.002 . S
O283 C279 1.295 . S
O284 Fe267 1.997 . S
O284 C279 1.235 . S
C285 O268 1.295 . S
C285 O269 1.235 . S
Fe286 O288 1.918 . S
Fe286 O291 1.997 . S
Fe286 O292 2.002 . S
Fe286 O297 1.976 . S
Fe286 O300 1.996 . S
Fe287 O288 1.918 . S
Fe287 O295 1.997 . S
Fe287 O298 1.996 . S
Fe287 O302 1.976 . S
Fe287 O305 2.002 . S
O288 Fe286 1.918 . S
O288 Fe287 1.918 . S
O288 Fe289 1.918 . S
Fe289 O288 1.918 . S
Fe289 O290 2.002 . S
Fe289 O299 1.976 . S
Fe289 O303 1.996 . S
Fe289 O306 1.997 . S
O290 Fe289 2.002 . S
O290 C307 1.295 . S
O291 Fe286 1.997 . S
O291 C307 1.235 . S
O292 Fe286 2.002 . S
O292 C293 1.295 . S
C293 O292 1.295 . S
C293 O295 1.235 . S
C294 O299 1.287 . S
C294 O300 1.255 . S
O295 Fe287 1.997 . S
O295 C293 1.235 . S
C296 O302 1.287 . S
C296 O303 1.255 . S
O297 Fe286 1.976 . S
O297 C304 1.287 . S
O298 Fe287 1.996 . S
O298 C304 1.255 . S
O299 Fe289 1.976 . S
O299 C294 1.287 . S
O300 Fe286 1.996 . S
O300 C294 1.255 . S
C301 O305 1.295 . S
C301 O306 1.235 . S
O302 Fe287 1.976 . S
O302 C296 1.287 . S
O303 Fe289 1.996 . S
O303 C296 1.255 . S
C304 O297 1.287 . S
C304 O298 1.255 . S
O305 Fe287 2.002 . S
O305 C301 1.295 . S
O306 Fe289 1.997 . S
O306 C301 1.235 . S
C307 O290 1.295 . S
C307 O291 1.235 . S
Fe308 O310 1.918 . S
Fe308 O313 1.997 . S
Fe308 O314 2.002 . S
Fe308 O319 1.976 . S
Fe308 O322 1.996 . S
Fe309 O310 1.918 . S
Fe309 O317 1.997 . S
Fe309 O320 1.996 . S
Fe309 O324 1.976 . S
Fe309 O327 2.002 . S
O310 Fe308 1.918 . S
O310 Fe309 1.918 . S
O310 Fe311 1.918 . S
Fe311 O310 1.918 . S
Fe311 O312 2.002 . S
Fe311 O321 1.976 . S
Fe311 O325 1.996 . S
Fe311 O328 1.997 . S
O312 Fe311 2.002 . S
O312 C329 1.295 . S
O313 Fe308 1.997 . S
O313 C329 1.235 . S
O314 Fe308 2.002 . S
O314 C315 1.295 . S
C315 O314 1.295 . S
C315 O317 1.235 . S
C316 O321 1.287 . S
C316 O322 1.255 . S
O317 Fe309 1.997 . S
O317 C315 1.235 . S
C318 O324 1.287 . S
C318 O325 1.255 . S
O319 Fe308 1.976 . S
O319 C326 1.287 . S
O320 Fe309 1.996 . S
O320 C326 1.255 . S
O321 Fe311 1.976 . S
O321 C316 1.287 . S
O322 Fe308 1.996 . S
O322 C316 1.255 . S
C323 O327 1.295 . S
C323 O328 1.235 . S
O324 Fe309 1.976 . S
O324 C318 1.287 . S
O325 Fe311 1.996 . S
O325 C318 1.255 . S
C326 O319 1.287 . S
C326 O320 1.255 . S
O327 Fe309 2.002 . S
O327 C323 1.295 . S
O328 Fe311 1.997 . S
O328 C323 1.235 . S
C329 O312 1.295 . S
C329 O313 1.235 . S
Fe330 O332 1.918 . S
Fe330 O335 1.997 . S
Fe330 O336 2.002 . S
Fe330 O341 1.976 . S
Fe330 O344 1.996 . S
Fe331 O332 1.918 . S
Fe331 O339 1.997 . S
Fe331 O342 1.996 . S
Fe331 O346 1.976 . S
Fe331 O349 2.002 . S
O332 Fe330 1.918 . S
O332 Fe331 1.918 . S
O332 Fe333 1.918 . S
Fe333 O332 1.918 . S
Fe333 O334 2.002 . S
Fe333 O343 1.976 . S
Fe333 O347 1.996 . S
Fe333 O350 1.997 . S
O334 Fe333 2.002 . S
O334 C351 1.295 . S
O335 Fe330 1.997 . S
O335 C351 1.235 . S
O336 Fe330 2.002 . S
O336 C337 1.295 . S
C337 O336 1.295 . S
C337 O339 1.235 . S
C338 O343 1.287 . S
C338 O344 1.255 . S
O339 Fe331 1.997 . S
O339 C337 1.235 . S
C340 O346 1.287 . S
C340 O347 1.255 . S
O341 Fe330 1.976 . S
O341 C348 1.287 . S
O342 Fe331 1.996 . S
O342 C348 1.255 . S
O343 Fe333 1.976 . S
O343 C338 1.287 . S
O344 Fe330 1.996 . S
O344 C338 1.255 . S
C345 O349 1.295 . S
C345 O350 1.235 . S
O346 Fe331 1.976 . S
O346 C340 1.287 . S
O347 Fe333 1.996 . S
O347 C340 1.255 . S
C348 O341 1.287 . S
C348 O342 1.255 . S
O349 Fe331 2.002 . S
O349 C345 1.295 . S
O350 Fe333 1.997 . S
O350 C345 1.235 . S
C351 O334 1.295 . S
C351 O335 1.235 . S
Fe352 O354 1.918 . S
Fe352 O357 1.997 . S
Fe352 O358 2.002 . S
Fe352 O363 1.976 . S
Fe352 O366 1.996 . S
Fe353 O354 1.918 . S
Fe353 O361 1.997 . S
Fe353 O364 1.996 . S
Fe353 O368 1.976 . S
Fe353 O371 2.002 . S
O354 Fe352 1.918 . S
O354 Fe353 1.918 . S
O354 Fe355 1.918 . S
Fe355 O354 1.918 . S
Fe355 O356 2.002 . S
Fe355 O365 1.976 . S
Fe355 O369 1.996 . S
Fe355 O372 1.997 . S
O356 Fe355 2.002 . S
O356 C373 1.295 . S
O357 Fe352 1.997 . S
O357 C373 1.235 . S
O358 Fe352 2.002 . S
O358 C359 1.295 . S
C359 O358 1.295 . S
C359 O361 1.235 . S
C360 O365 1.287 . S
C360 O366 1.255 . S
O361 Fe353 1.997 . S
O361 C359 1.235 . S
C362 O368 1.287 . S
C362 O369 1.255 . S
O363 Fe352 1.976 . S
O363 C370 1.287 . S
O364 Fe353 1.996 . S
O364 C370 1.255 . S
O365 Fe355 1.976 . S
O365 C360 1.287 . S
O366 Fe352 1.996 . S
O366 C360 1.255 . S
C367 O371 1.295 . S
C367 O372 1.235 . S
O368 Fe353 1.976 . S
O368 C362 1.287 . S
O369 Fe355 1.996 . S
O369 C362 1.255 . S
C370 O363 1.287 . S
C370 O364 1.255 . S
O371 Fe353 2.002 . S
O371 C367 1.295 . S
O372 Fe355 1.997 . S
O372 C367 1.235 . S
C373 O356 1.295 . S
C373 O357 1.235 . S
Fe374 O376 1.918 . S
Fe374 O379 1.997 . S
Fe374 O380 2.002 . S
Fe374 O385 1.976 . S
Fe374 O388 1.996 . S
Fe375 O376 1.918 . S
Fe375 O383 1.997 . S
Fe375 O386 1.996 . S
Fe375 O390 1.976 . S
Fe375 O393 2.002 . S
O376 Fe374 1.918 . S
O376 Fe375 1.918 . S
O376 Fe377 1.918 . S
Fe377 O376 1.918 . S
Fe377 O378 2.002 . S
Fe377 O387 1.976 . S
Fe377 O391 1.996 . S
Fe377 O394 1.997 . S
O378 Fe377 2.002 . S
O378 C395 1.295 . S
O379 Fe374 1.997 . S
O379 C395 1.235 . S
O380 Fe374 2.002 . S
O380 C381 1.295 . S
C381 O380 1.295 . S
C381 O383 1.235 . S
C382 O387 1.287 . S
C382 O388 1.255 . S
O383 Fe375 1.997 . S
O383 C381 1.235 . S
C384 O390 1.287 . S
C384 O391 1.255 . S
O385 Fe374 1.976 . S
O385 C392 1.287 . S
O386 Fe375 1.996 . S
O386 C392 1.255 . S
O387 Fe377 1.976 . S
O387 C382 1.287 . S
O388 Fe374 1.996 . S
O388 C382 1.255 . S
C389 O393 1.295 . S
C389 O394 1.235 . S
O390 Fe375 1.976 . S
O390 C384 1.287 . S
O391 Fe377 1.996 . S
O391 C384 1.255 . S
C392 O385 1.287 . S
C392 O386 1.255 . S
O393 Fe375 2.002 . S
O393 C389 1.295 . S
O394 Fe377 1.997 . S
O394 C389 1.235 . S
C395 O378 1.295 . S
C395 O379 1.235 . S
Fe396 O398 1.918 . S
Fe396 O401 1.997 . S
Fe396 O402 2.002 . S
Fe396 O407 1.976 . S
Fe396 O410 1.996 . S
Fe397 O398 1.918 . S
Fe397 O405 1.997 . S
Fe397 O408 1.996 . S
Fe397 O412 1.976 . S
Fe397 O415 2.002 . S
O398 Fe396 1.918 . S
O398 Fe397 1.918 . S
O398 Fe399 1.918 . S
Fe399 O398 1.918 . S
Fe399 O400 2.002 . S
Fe399 O409 1.976 . S
Fe399 O413 1.996 . S
Fe399 O416 1.997 . S
O400 Fe399 2.002 . S
O400 C417 1.295 . S
O401 Fe396 1.997 . S
O401 C417 1.235 . S
O402 Fe396 2.002 . S
O402 C403 1.295 . S
C403 O402 1.295 . S
C403 O405 1.235 . S
C404 O409 1.287 . S
C404 O410 1.255 . S
O405 Fe397 1.997 . S
O405 C403 1.235 . S
C406 O412 1.287 . S
C406 O413 1.255 . S
O407 Fe396 1.976 . S
O407 C414 1.287 . S
O408 Fe397 1.996 . S
O408 C414 1.255 . S
O409 Fe399 1.976 . S
O409 C404 1.287 . S
O410 Fe396 1.996 . S
O410 C404 1.255 . S
C411 O415 1.295 . S
C411 O416 1.235 . S
O412 Fe397 1.976 . S
O412 C406 1.287 . S
O413 Fe399 1.996 . S
O413 C406 1.255 . S
C414 O407 1.287 . S
C414 O408 1.255 . S
O415 Fe397 2.002 . S
O415 C411 1.295 . S
O416 Fe399 1.997 . S
O416 C411 1.235 . S
C417 O400 1.295 . S
C417 O401 1.235 . S
Fe418 O420 1.918 . S
Fe418 O423 1.997 . S
Fe418 O424 2.002 . S
Fe418 O429 1.976 . S
Fe418 O432 1.996 . S
Fe419 O420 1.918 . S
Fe419 O427 1.997 . S
Fe419 O430 1.996 . S
Fe419 O434 1.976 . S
Fe419 O437 2.002 . S
O420 Fe418 1.918 . S
O420 Fe419 1.918 . S
O420 Fe421 1.918 . S
Fe421 O420 1.918 . S
Fe421 O422 2.002 . S
Fe421 O431 1.976 . S
Fe421 O435 1.996 . S
Fe421 O438 1.997 . S
O422 Fe421 2.002 . S
O422 C439 1.295 . S
O423 Fe418 1.997 . S
O423 C439 1.235 . S
O424 Fe418 2.002 . S
O424 C425 1.295 . S
C425 O424 1.295 . S
C425 O427 1.235 . S
C426 O431 1.287 . S
C426 O432 1.255 . S
O427 Fe419 1.997 . S
O427 C425 1.235 . S
C428 O434 1.287 . S
C428 O435 1.255 . S
O429 Fe418 1.976 . S
O429 C436 1.287 . S
O430 Fe419 1.996 . S
O430 C436 1.255 . S
O431 Fe421 1.976 . S
O431 C426 1.287 . S
O432 Fe418 1.996 . S
O432 C426 1.255 . S
C433 O437 1.295 . S
C433 O438 1.235 . S
O434 Fe419 1.976 . S
O434 C428 1.287 . S
O435 Fe421 1.996 . S
O435 C428 1.255 . S
C436 O429 1.287 . S
C436 O430 1.255 . S
O437 Fe419 2.002 . S
O437 C433 1.295 . S
O438 Fe421 1.997 . S
O438 C433 1.235 . S
C439 O422 1.295 . S
C439 O423 1.235 . S
Fe440 O442 1.918 . S
Fe440 O445 1.997 . S
Fe440 O446 2.002 . S
Fe440 O451 1.976 . S
Fe440 O454 1.996 . S
Fe441 O442 1.918 . S
Fe441 O449 1.997 . S
Fe441 O452 1.996 . S
Fe441 O456 1.976 . S
Fe441 O459 2.002 . S
O442 Fe440 1.918 . S
O442 Fe441 1.918 . S
O442 Fe443 1.918 . S
Fe443 O442 1.918 . S
Fe443 O444 2.002 . S
Fe443 O453 1.976 . S
Fe443 O457 1.996 . S
Fe443 O460 1.997 . S
O444 Fe443 2.002 . S
O444 C461 1.295 . S
O445 Fe440 1.997 . S
O445 C461 1.235 . S
O446 Fe440 2.002 . S
O446 C447 1.295 . S
C447 O446 1.295 . S
C447 O449 1.235 . S
C448 O453 1.287 . S
C448 O454 1.255 . S
O449 Fe441 1.997 . S
O449 C447 1.235 . S
C450 O456 1.287 . S
C450 O457 1.255 . S
O451 Fe440 1.976 . S
O451 C458 1.287 . S
O452 Fe441 1.996 . S
O452 C458 1.255 . S
O453 Fe443 1.976 . S
O453 C448 1.287 . S
O454 Fe440 1.996 . S
O454 C448 1.255 . S
C455 O459 1.295 . S
C455 O460 1.235 . S
O456 Fe441 1.976 . S
O456 C450 1.287 . S
O457 Fe443 1.996 . S
O457 C450 1.255 . S
C458 O451 1.287 . S
C458 O452 1.255 . S
O459 Fe441 2.002 . S
O459 C455 1.295 . S
O460 Fe443 1.997 . S
O460 C455 1.235 . S
C461 O444 1.295 . S
C461 O445 1.235 . S
Fe462 O464 1.918 . S
Fe462 O467 1.997 . S
Fe462 O468 2.002 . S
Fe462 O473 1.976 . S
Fe462 O476 1.996 . S
Fe463 O464 1.918 . S
Fe463 O471 1.997 . S
Fe463 O474 1.996 . S
Fe463 O478 1.976 . S
Fe463 O481 2.002 . S
O464 Fe462 1.918 . S
O464 Fe463 1.918 . S
O464 Fe465 1.918 . S
Fe465 O464 1.918 . S
Fe465 O466 2.002 . S
Fe465 O475 1.976 . S
Fe465 O479 1.996 . S
Fe465 O482 1.997 . S
O466 Fe465 2.002 . S
O466 C483 1.295 . S
O467 Fe462 1.997 . S
O467 C483 1.235 . S
O468 Fe462 2.002 . S
O468 C469 1.295 . S
C469 O468 1.295 . S
C469 O471 1.235 . S
C470 O475 1.287 . S
C470 O476 1.255 . S
O471 Fe463 1.997 . S
O471 C469 1.235 . S
C472 O478 1.287 . S
C472 O479 1.255 . S
O473 Fe462 1.976 . S
O473 C480 1.287 . S
O474 Fe463 1.996 . S
O474 C480 1.255 . S
O475 Fe465 1.976 . S
O475 C470 1.287 . S
O476 Fe462 1.996 . S
O476 C470 1.255 . S
C477 O481 1.295 . S
C477 O482 1.235 . S
O478 Fe463 1.976 . S
O478 C472 1.287 . S
O479 Fe465 1.996 . S
O479 C472 1.255 . S
C480 O473 1.287 . S
C480 O474 1.255 . S
O481 Fe463 2.002 . S
O481 C477 1.295 . S
O482 Fe465 1.997 . S
O482 C477 1.235 . S
C483 O466 1.295 . S
C483 O467 1.235 . S
Fe484 O486 1.918 . S
Fe484 O489 1.997 . S
Fe484 O490 2.002 . S
Fe484 O495 1.976 . S
Fe484 O498 1.996 . S
Fe485 O486 1.918 . S
Fe485 O493 1.997 . S
Fe485 O496 1.996 . S
Fe485 O500 1.976 . S
Fe485 O503 2.002 . S
O486 Fe484 1.918 . S
O486 Fe485 1.918 . S
O486 Fe487 1.918 . S
Fe487 O486 1.918 . S
Fe487 O488 2.002 . S
Fe487 O497 1.976 . S
Fe487 O501 1.996 . S
Fe487 O504 1.997 . S
O488 Fe487 2.002 . S
O488 C505 1.295 . S
O489 Fe484 1.997 . S
O489 C505 1.235 . S
O490 Fe484 2.002 . S
O490 C491 1.295 . S
C491 O490 1.295 . S
C491 O493 1.235 . S
C492 O497 1.287 . S
C492 O498 1.255 . S
O493 Fe485 1.997 . S
O493 C491 1.235 . S
C494 O500 1.287 . S
C494 O501 1.255 . S
O495 Fe484 1.976 . S
O495 C502 1.287 . S
O496 Fe485 1.996 . S
O496 C502 1.255 . S
O497 Fe487 1.976 . S
O497 C492 1.287 . S
O498 Fe484 1.996 . S
O498 C492 1.255 . S
C499 O503 1.295 . S
C499 O504 1.235 . S
O500 Fe485 1.976 . S
O500 C494 1.287 . S
O501 Fe487 1.996 . S
O501 C494 1.255 . S
C502 O495 1.287 . S
C502 O496 1.255 . S
O503 Fe485 2.002 . S
O503 C499 1.295 . S
O504 Fe487 1.997 . S
O504 C499 1.235 . S
C505 O488 1.295 . S
C505 O489 1.235 . S
Fe506 O508 1.918 . S
Fe506 O511 1.997 . S
Fe506 O512 2.002 . S
Fe506 O517 1.976 . S
Fe506 O520 1.996 . S
Fe507 O508 1.918 . S
Fe507 O515 1.997 . S
Fe507 O518 1.996 . S
Fe507 O522 1.976 . S
Fe507 O525 2.002 . S
O508 Fe506 1.918 . S
O508 Fe507 1.918 . S
O508 Fe509 1.918 . S
Fe509 O508 1.918 . S
Fe509 O510 2.002 . S
Fe509 O519 1.976 . S
Fe509 O523 1.996 . S
Fe509 O526 1.997 . S
O510 Fe509 2.002 . S
O510 C527 1.295 . S
O511 Fe506 1.997 . S
O511 C527 1.235 . S
O512 Fe506 2.002 . S
O512 C513 1.295 . S
C513 O512 1.295 . S
C513 O515 1.235 . S
C514 O519 1.287 . S
C514 O520 1.255 . S
O515 Fe507 1.997 . S
O515 C513 1.235 . S
C516 O522 1.287 . S
C516 O523 1.255 . S
O517 Fe506 1.976 . S
O517 C524 1.287 . S
O518 Fe507 1.996 . S
O518 C524 1.255 . S
O519 Fe509 1.976 . S
O519 C514 1.287 . S
O520 Fe506 1.996 . S
O520 C514 1.255 . S
C521 O525 1.295 . S
C521 O526 1.235 . S
O522 Fe507 1.976 . S
O522 C516 1.287 . S
O523 Fe509 1.996 . S
O523 C516 1.255 . S
C524 O517 1.287 . S
C524 O518 1.255 . S
O525 Fe507 2.002 . S
O525 C521 1.295 . S
O526 Fe509 1.997 . S
O526 C521 1.235 . S
C527 O510 1.295 . S
C527 O511 1.235 . S
C528 C529 1.387 . S
C528 H532 0.950 . S
C528 C537 1.390 . S
C529 C528 1.387 . S
C529 C531 1.387 . S
H530 C537 0.950 . S
C531 C529 1.387 . S
C531 C533 1.390 . S
C531 H535 0.950 . S
H532 C528 0.950 . S
C533 C531 1.390 . S
C533 C534 1.387 . S
C533 H536 0.950 . S
C534 C533 1.387 . S
C534 C537 1.387 . S
H535 C531 0.950 . S
H536 C533 0.950 . S
C537 C528 1.390 . S
C537 H530 0.950 . S
C537 C534 1.387 . S
C538 C539 1.387 . S
C538 H542 0.950 . S
C538 C547 1.390 . S
C539 C538 1.387 . S
C539 C541 1.387 . S
H540 C547 0.950 . S
C541 C539 1.387 . S
C541 C543 1.390 . S
C541 H545 0.950 . S
H542 C538 0.950 . S
C543 C541 1.390 . S
C543 C544 1.387 . S
C543 H546 0.950 . S
C544 C543 1.387 . S
C544 C547 1.387 . S
H545 C541 0.950 . S
H546 C543 0.950 . S
C547 C538 1.390 . S
C547 H540 0.950 . S
C547 C544 1.387 . S
C548 C549 1.387 . S
C548 H552 0.950 . S
C548 C557 1.390 1_565 S
C549 C548 1.387 . S
C549 C551 1.387 . S
H550 C557 0.950 . S
C551 C549 1.387 . S
C551 C553 1.390 . S
C551 H555 0.950 . S
H552 C548 0.950 . S
C553 C551 1.390 . S
C553 C554 1.387 . S
C553 H556 0.950 . S
C554 C553 1.387 . S
C554 C557 1.387 1_565 S
H555 C551 0.950 . S
H556 C553 0.950 . S
C557 C548 1.390 1_545 S
C557 H550 0.950 . S
C557 C554 1.387 1_545 S
C558 C559 1.387 . S
C558 H562 0.950 . S
C558 C567 1.390 . S
C559 C558 1.387 . S
C559 C561 1.387 . S
H560 C567 0.950 . S
C561 C559 1.387 . S
C561 C563 1.390 . S
C561 H565 0.950 1_545 S
H562 C558 0.950 . S
C563 C561 1.390 . S
C563 C564 1.387 . S
C563 H566 0.950 . S
C564 C563 1.387 . S
C564 C567 1.387 . S
H565 C561 0.950 1_565 S
H566 C563 0.950 . S
C567 C558 1.390 . S
C567 H560 0.950 . S
C567 C564 1.387 . S
C568 C569 1.387 . S
C568 H572 0.950 . S
C568 C577 1.390 . S
C569 C568 1.387 . S
C569 C571 1.387 . S
H570 C577 0.950 . S
C571 C569 1.387 . S
C571 C573 1.390 . S
C571 H575 0.950 . S
H572 C568 0.950 . S
C573 C571 1.390 . S
C573 C574 1.387 . S
C573 H576 0.950 . S
C574 C573 1.387 . S
C574 C577 1.387 . S
H575 C571 0.950 . S
H576 C573 0.950 . S
C577 C568 1.390 . S
C577 H570 0.950 . S
C577 C574 1.387 . S
C578 C579 1.387 . S
C578 H582 0.950 . S
C578 C587 1.390 1_554 S
C579 C578 1.387 . S
C579 C581 1.387 . S
H580 C587 0.950 . S
C581 C579 1.387 . S
C581 C583 1.390 . S
C581 H585 0.950 . S
H582 C578 0.950 . S
C583 C581 1.390 . S
C583 C584 1.387 . S
C583 H586 0.950 . S
C584 C583 1.387 . S
C584 C587 1.387 1_554 S
H585 C581 0.950 . S
H586 C583 0.950 . S
C587 C578 1.390 1_556 S
C587 H580 0.950 . S
C587 C584 1.387 1_556 S
C588 C589 1.387 . S
C588 H592 0.950 . S
C588 C597 1.390 . S
C589 C588 1.387 . S
C589 C591 1.387 . S
H590 C597 0.950 . S
C591 C589 1.387 . S
C591 C593 1.390 . S
C591 H595 0.950 . S
H592 C588 0.950 . S
C593 C591 1.390 . S
C593 C594 1.387 . S
C593 H596 0.950 . S
C594 C593 1.387 . S
C594 C597 1.387 . S
H595 C591 0.950 . S
H596 C593 0.950 . S
C597 C588 1.390 . S
C597 H590 0.950 . S
C597 C594 1.387 . S
C598 C599 1.387 . S
C598 H602 0.950 . S
C598 C607 1.390 . S
C599 C598 1.387 . S
C599 C601 1.387 . S
H600 C607 0.950 . S
C601 C599 1.387 . S
C601 C603 1.390 . S
C601 H605 0.950 . S
H602 C598 0.950 . S
C603 C601 1.390 . S
C603 C604 1.387 . S
C603 H606 0.950 . S
C604 C603 1.387 . S
C604 C607 1.387 . S
H605 C601 0.950 . S
H606 C603 0.950 . S
C607 C598 1.390 . S
C607 H600 0.950 . S
C607 C604 1.387 . S
C608 C609 1.387 . S
C608 H612 0.950 . S
C608 C617 1.390 . S
C609 C608 1.387 . S
C609 C611 1.387 . S
H610 C617 0.950 . S
C611 C609 1.387 . S
C611 C613 1.390 . S
C611 H615 0.950 . S
H612 C608 0.950 . S
C613 C611 1.390 . S
C613 C614 1.387 . S
C613 H616 0.950 . S
C614 C613 1.387 . S
C614 C617 1.387 . S
H615 C611 0.950 . S
H616 C613 0.950 . S
C617 C608 1.390 . S
C617 H610 0.950 . S
C617 C614 1.387 . S
C618 C619 1.387 . S
C618 H622 0.950 . S
C618 C627 1.390 . S
C619 C618 1.387 . S
C619 C621 1.387 . S
H620 C627 0.950 . S
C621 C619 1.387 . S
C621 C623 1.390 . S
C621 H625 0.950 1_455 S
H622 C618 0.950 . S
C623 C621 1.390 . S
C623 C624 1.387 . S
C623 H626 0.950 . S
C624 C623 1.387 . S
C624 C627 1.387 . S
H625 C621 0.950 1_655 S
H626 C623 0.950 . S
C627 C618 1.390 . S
C627 H620 0.950 . S
C627 C624 1.387 . S
C628 C629 1.387 . S
C628 H632 0.950 . S
C628 C637 1.390 . S
C629 C628 1.387 . S
C629 C631 1.387 . S
H630 C637 0.950 . S
C631 C629 1.387 . S
C631 C633 1.390 . S
C631 H635 0.950 . S
H632 C628 0.950 . S
C633 C631 1.390 . S
C633 C634 1.387 . S
C633 H636 0.950 . S
C634 C633 1.387 . S
C634 C637 1.387 . S
H635 C631 0.950 . S
H636 C633 0.950 . S
C637 C628 1.390 . S
C637 H630 0.950 . S
C637 C634 1.387 . S
C638 C639 1.387 . S
C638 H642 0.950 . S
C638 C647 1.390 . S
C639 C638 1.387 . S
C639 C641 1.387 . S
H640 C647 0.950 1_455 S
C641 C639 1.387 . S
C641 C643 1.390 . S
C641 H645 0.950 . S
H642 C638 0.950 . S
C643 C641 1.390 . S
C643 C644 1.387 . S
C643 H646 0.950 . S
C644 C643 1.387 . S
C644 C647 1.387 . S
H645 C641 0.950 . S
H646 C643 0.950 . S
C647 C638 1.390 . S
C647 H640 0.950 1_655 S
C647 C644 1.387 . S
C648 C649 1.387 . S
C648 H652 0.950 . S
C648 C657 1.390 . S
C649 C648 1.387 . S
C649 C651 1.387 . S
H650 C657 0.950 . S
C651 C649 1.387 . S
C651 C653 1.390 . S
C651 H655 0.950 . S
H652 C648 0.950 . S
C653 C651 1.390 . S
C653 C654 1.387 . S
C653 H656 0.950 . S
C654 C653 1.387 . S
C654 C657 1.387 . S
H655 C651 0.950 . S
H656 C653 0.950 . S
C657 C648 1.390 . S
C657 H650 0.950 . S
C657 C654 1.387 . S
C658 C659 1.387 . S
C658 H662 0.950 . S
C658 C667 1.390 . S
C659 C658 1.387 . S
C659 C661 1.387 . S
H660 C667 0.950 . S
C661 C659 1.387 . S
C661 C663 1.390 . S
C661 H665 0.950 . S
H662 C658 0.950 . S
C663 C661 1.390 . S
C663 C664 1.387 . S
C663 H666 0.950 . S
C664 C663 1.387 . S
C664 C667 1.387 . S
H665 C661 0.950 . S
H666 C663 0.950 . S
C667 C658 1.390 . S
C667 H660 0.950 . S
C667 C664 1.387 . S
C668 C669 1.387 . S
C668 H672 0.950 . S
C668 C677 1.380 1_545 S
C669 C668 1.387 . S
C669 C671 1.387 . S
H670 C677 0.962 . S
C671 C669 1.387 . S
C671 C673 1.390 . S
C671 H675 0.950 . S
H672 C668 0.950 . S
C673 C671 1.390 . S
C673 C674 1.387 . S
C673 H676 0.950 . S
C674 C673 1.387 . S
C674 C677 1.386 1_545 S
H675 C671 0.950 . S
H676 C673 0.950 . S
C677 C668 1.380 1_565 S
C677 H670 0.962 . S
C677 C674 1.386 1_565 S
C678 C679 1.387 . S
C678 H682 0.950 . S
C678 C687 1.390 1_565 S
C679 C678 1.387 . S
C679 C681 1.387 . S
H680 C687 0.950 . S
C681 C679 1.387 . S
C681 C683 1.390 . S
C681 H685 0.950 . S
H682 C678 0.950 . S
C683 C681 1.390 . S
C683 C684 1.387 . S
C683 H686 0.950 . S
C684 C683 1.387 . S
C684 C687 1.387 1_565 S
H685 C681 0.950 . S
H686 C683 0.950 . S
C687 C678 1.390 1_545 S
C687 H680 0.950 . S
C687 C684 1.387 1_545 S
C688 C689 1.387 . S
C688 H692 0.950 . S
C688 C697 1.390 . S
C689 C688 1.387 . S
C689 C691 1.387 . S
H690 C697 0.950 . S
C691 C689 1.387 . S
C691 C693 1.390 . S
C691 H695 0.950 . S
H692 C688 0.950 . S
C693 C691 1.390 . S
C693 C694 1.387 . S
C693 H696 0.950 . S
C694 C693 1.387 . S
C694 C697 1.387 . S
H695 C691 0.950 . S
H696 C693 0.950 . S
C697 C688 1.390 . S
C697 H690 0.950 . S
C697 C694 1.387 . S
C698 C699 1.387 . S
C698 H702 0.950 . S
C698 C707 1.390 . S
C699 C698 1.387 . S
C699 C701 1.387 . S
H700 C707 0.950 . S
C701 C699 1.387 . S
C701 C703 1.390 . S
C701 H705 0.950 . S
H702 C698 0.950 . S
C703 C701 1.390 . S
C703 C704 1.387 . S
C703 H706 0.950 1_556 S
C704 C703 1.387 . S
C704 C707 1.387 . S
H705 C701 0.950 . S
H706 C703 0.950 1_554 S
C707 C698 1.390 . S
C707 H700 0.950 . S
C707 C704 1.387 . S
C708 C709 1.387 . S
C708 H712 0.950 . S
C708 C717 1.390 . S
C709 C708 1.387 . S
C709 C711 1.387 . S
H710 C717 0.950 . S
C711 C709 1.387 . S
C711 C713 1.390 . S
C711 H715 0.950 . S
H712 C708 0.950 . S
C713 C711 1.390 . S
C713 C714 1.387 . S
C713 H716 0.950 . S
C714 C713 1.387 . S
C714 C717 1.387 . S
H715 C711 0.950 . S
H716 C713 0.950 . S
C717 C708 1.390 . S
C717 H710 0.950 . S
C717 C714 1.387 . S
C718 C719 1.387 . S
C718 H722 0.950 . S
C718 C727 1.390 . S
C719 C718 1.387 . S
C719 C721 1.390 . S
H720 C727 0.950 . S
C721 C719 1.390 . S
C721 C723 1.407 . S
C721 H725 0.931 1_554 S
H722 C718 0.950 . S
C723 C721 1.407 . S
C723 C724 1.387 . S
C723 H726 0.950 . S
C724 C723 1.387 . S
C724 C727 1.387 . S
H725 C721 0.931 1_556 S
H726 C723 0.950 . S
C727 C718 1.390 . S
C727 H720 0.950 . S
C727 C724 1.387 . S
C728 C729 1.387 . S
C728 H732 0.950 . S
C728 C737 1.390 . S
C729 C728 1.387 . S
C729 C731 1.387 . S
H730 C737 0.950 . S
C731 C729 1.387 . S
C731 C733 1.390 . S
C731 H735 0.950 . S
H732 C728 0.950 . S
C733 C731 1.390 . S
C733 C734 1.387 . S
C733 H736 0.950 . S
C734 C733 1.387 . S
C734 C737 1.387 . S
H735 C731 0.950 . S
H736 C733 0.950 . S
C737 C728 1.390 . S
C737 H730 0.950 . S
C737 C734 1.387 . S
C738 C739 1.387 . S
C738 H742 0.950 1_655 S
C738 C747 1.390 . S
C739 C738 1.387 . S
C739 C741 1.387 . S
H740 C747 0.950 . S
C741 C739 1.387 . S
C741 C743 1.390 . S
C741 H745 0.950 . S
H742 C738 0.950 1_455 S
C743 C741 1.390 . S
C743 C744 1.387 . S
C743 H746 0.950 . S
C744 C743 1.387 . S
C744 C747 1.387 . S
H745 C741 0.950 . S
H746 C743 0.950 . S
C747 C738 1.390 . S
C747 H740 0.950 . S
C747 C744 1.387 . S
C748 C749 1.387 . S
C748 H752 0.950 . S
C748 C757 1.390 . S
C749 C748 1.387 . S
C749 C751 1.387 . S
H750 C757 0.950 . S
C751 C749 1.387 . S
C751 C753 1.390 . S
C751 H755 0.950 . S
H752 C748 0.950 . S
C753 C751 1.390 . S
C753 C754 1.387 . S
C753 H756 0.950 . S
C754 C753 1.387 . S
C754 C757 1.387 . S
H755 C751 0.950 . S
H756 C753 0.950 . S
C757 C748 1.390 . S
C757 H750 0.950 . S
C757 C754 1.387 . S
C758 C759 1.387 . S
C758 H762 0.950 . S
C758 C767 1.390 . S
C759 C758 1.387 . S
C759 C761 1.387 . S
H760 C767 0.950 . S
C761 C759 1.387 . S
C761 C763 1.390 . S
C761 H765 0.950 . S
H762 C758 0.950 . S
C763 C761 1.390 . S
C763 C764 1.387 . S
C763 H766 0.950 . S
C764 C763 1.387 . S
C764 C767 1.387 . S
H765 C761 0.950 . S
H766 C763 0.950 . S
C767 C758 1.390 . S
C767 H760 0.950 . S
C767 C764 1.387 . S
C768 C769 1.387 . S
C768 H772 0.950 . S
C768 C777 1.390 . S
C769 C768 1.387 . S
C769 C771 1.387 . S
H770 C777 0.950 . S
C771 C769 1.387 . S
C771 C773 1.390 . S
C771 H775 0.950 . S
H772 C768 0.950 . S
C773 C771 1.390 . S
C773 C774 1.387 . S
C773 H776 0.950 . S
C774 C773 1.387 . S
C774 C777 1.387 . S
H775 C771 0.950 . S
H776 C773 0.950 . S
C777 C768 1.390 . S
C777 H770 0.950 . S
C777 C774 1.387 . S
C778 C779 1.387 . S
C778 H782 0.950 . S
C778 C787 1.390 . S
C779 C778 1.387 . S
C779 C781 1.387 . S
H780 C787 0.950 . S
C781 C779 1.387 . S
C781 C783 1.390 . S
C781 H785 0.950 . S
H782 C778 0.950 . S
C783 C781 1.390 . S
C783 C784 1.387 . S
C783 H786 0.950 . S
C784 C783 1.387 . S
C784 C787 1.387 . S
H785 C781 0.950 . S
H786 C783 0.950 . S
C787 C778 1.390 . S
C787 H780 0.950 . S
C787 C784 1.387 . S
C788 C789 1.387 . S
C788 H792 0.950 . S
C788 C797 1.390 . S
C789 C788 1.387 . S
C789 C791 1.387 . S
H790 C797 0.950 . S
C791 C789 1.387 . S
C791 C793 1.390 . S
C791 H795 0.950 . S
H792 C788 0.950 . S
C793 C791 1.390 . S
C793 C794 1.387 . S
C793 H796 0.950 . S
C794 C793 1.387 . S
C794 C797 1.387 . S
H795 C791 0.950 . S
H796 C793 0.950 . S
C797 C788 1.390 . S
C797 H790 0.950 . S
C797 C794 1.387 . S
C798 C799 1.387 . S
C798 H802 0.950 . S
C798 C807 1.390 . S
C799 C798 1.387 . S
C799 C801 1.387 . S
H800 C807 0.950 . S
C801 C799 1.387 . S
C801 C803 1.390 . S
C801 H805 0.950 . S
H802 C798 0.950 . S
C803 C801 1.390 . S
C803 C804 1.387 . S
C803 H806 0.950 . S
C804 C803 1.387 . S
C804 C807 1.387 . S
H805 C801 0.950 . S
H806 C803 0.950 . S
C807 C798 1.390 . S
C807 H800 0.950 . S
C807 C804 1.387 . S
C808 C809 1.387 . S
C808 H812 0.950 . S
C808 C817 1.390 . S
C809 C808 1.387 . S
C809 C811 1.387 . S
H810 C817 0.950 . S
C811 C809 1.387 . S
C811 C813 1.390 . S
C811 H815 0.950 . S
H812 C808 0.950 . S
C813 C811 1.390 . S
C813 C814 1.387 . S
C813 H816 0.950 . S
C814 C813 1.387 . S
C814 C817 1.387 . S
H815 C811 0.950 . S
H816 C813 0.950 . S
C817 C808 1.390 . S
C817 H810 0.950 . S
C817 C814 1.387 . S
C818 C819 1.387 . S
C818 H822 0.950 . S
C818 C827 1.390 . S
C819 C818 1.387 . S
C819 C821 1.387 . S
H820 C827 0.950 . S
C821 C819 1.387 . S
C821 C823 1.390 . S
C821 H825 0.950 . S
H822 C818 0.950 . S
C823 C821 1.390 . S
C823 C824 1.387 . S
C823 H826 0.950 . S
C824 C823 1.387 . S
C824 C827 1.387 . S
H825 C821 0.950 . S
H826 C823 0.950 . S
C827 C818 1.390 . S
C827 H820 0.950 . S
C827 C824 1.387 . S
C828 C829 1.387 . S
C828 H832 0.950 . S
C828 C837 1.390 . S
C829 C828 1.387 . S
C829 C831 1.387 . S
H830 C837 0.950 . S
C831 C829 1.387 . S
C831 C833 1.390 . S
C831 H835 0.950 . S
H832 C828 0.950 . S
C833 C831 1.390 . S
C833 C834 1.387 . S
C833 H836 0.950 . S
C834 C833 1.387 . S
C834 C837 1.387 . S
H835 C831 0.950 . S
H836 C833 0.950 . S
C837 C828 1.390 . S
C837 H830 0.950 . S
C837 C834 1.387 . S
C838 C839 1.387 . S
C838 H842 0.950 . S
C838 C847 1.390 . S
C839 C838 1.387 . S
C839 C841 1.387 . S
H840 C847 0.950 . S
C841 C839 1.387 . S
C841 C843 1.390 . S
C841 H845 0.950 . S
H842 C838 0.950 . S
C843 C841 1.390 . S
C843 C844 1.387 . S
C843 H846 0.950 . S
C844 C843 1.387 . S
C844 C847 1.387 . S
H845 C841 0.950 . S
H846 C843 0.950 . S
C847 C838 1.390 . S
C847 H840 0.950 . S
C847 C844 1.387 . S
C848 C849 1.387 . S
C848 H852 0.950 . S
C848 C857 1.390 . S
C849 C848 1.387 . S
C849 C851 1.387 . S
H850 C857 0.950 . S
C851 C849 1.387 . S
C851 C853 1.390 . S
C851 H855 0.950 . S
H852 C848 0.950 . S
C853 C851 1.390 . S
C853 C854 1.387 . S
C853 H856 0.950 . S
C854 C853 1.387 . S
C854 C857 1.387 . S
H855 C851 0.950 . S
H856 C853 0.950 . S
C857 C848 1.390 . S
C857 H850 0.950 . S
C857 C854 1.387 . S
C858 C859 1.387 . S
C858 H862 0.950 . S
C858 C867 1.390 . S
C859 C858 1.387 . S
C859 C861 1.387 . S
H860 C867 0.950 . S
C861 C859 1.387 . S
C861 C863 1.390 . S
C861 H865 0.950 . S
H862 C858 0.950 . S
C863 C861 1.390 . S
C863 C864 1.387 . S
C863 H866 0.950 . S
C864 C863 1.387 . S
C864 C867 1.387 . S
H865 C861 0.950 . S
H866 C863 0.950 . S
C867 C858 1.390 . S
C867 H860 0.950 . S
C867 C864 1.387 . S
C868 C869 1.387 . S
C868 H872 0.950 . S
C868 C877 1.390 . S
C869 C868 1.387 . S
C869 C871 1.387 . S
H870 C877 0.950 . S
C871 C869 1.387 . S
C871 C873 1.390 . S
C871 H875 0.950 . S
H872 C868 0.950 . S
C873 C871 1.390 . S
C873 C874 1.387 . S
C873 H876 0.950 . S
C874 C873 1.387 . S
C874 C877 1.387 . S
H875 C871 0.950 . S
H876 C873 0.950 . S
C877 C868 1.390 . S
C877 H870 0.950 . S
C877 C874 1.387 . S
C878 C879 1.387 . S
C878 H882 0.950 . S
C878 C887 1.390 . S
C879 C878 1.387 . S
C879 C881 1.387 . S
H880 C887 0.950 . S
C881 C879 1.387 . S
C881 C883 1.390 . S
C881 H885 0.950 . S
H882 C878 0.950 . S
C883 C881 1.390 . S
C883 C884 1.387 . S
C883 H886 0.950 . S
C884 C883 1.387 . S
C884 C887 1.387 . S
H885 C881 0.950 . S
H886 C883 0.950 . S
C887 C878 1.390 . S
C887 H880 0.950 . S
C887 C884 1.387 . S
C888 C889 1.387 . S
C888 H892 0.950 . S
C888 C897 1.390 . S
C889 C888 1.387 . S
C889 C891 1.387 . S
H890 C897 0.950 . S
C891 C889 1.387 . S
C891 C893 1.390 . S
C891 H895 0.950 . S
H892 C888 0.950 . S
C893 C891 1.390 . S
C893 C894 1.387 . S
C893 H896 0.950 . S
C894 C893 1.387 . S
C894 C897 1.387 . S
H895 C891 0.950 . S
H896 C893 0.950 . S
C897 C888 1.390 . S
C897 H890 0.950 . S
C897 C894 1.387 . S
C898 C899 1.387 . S
C898 H902 0.950 . S
C898 C907 1.390 . S
C899 C898 1.387 . S
C899 C901 1.387 . S
H900 C907 0.950 . S
C901 C899 1.387 . S
C901 C903 1.390 . S
C901 H905 0.950 . S
H902 C898 0.950 . S
C903 C901 1.390 . S
C903 C904 1.387 . S
C903 H906 0.950 . S
C904 C903 1.387 . S
C904 C907 1.387 . S
H905 C901 0.950 . S
H906 C903 0.950 . S
C907 C898 1.390 . S
C907 H900 0.950 . S
C907 C904 1.387 . S
C908 C909 1.387 . S
C908 H912 0.950 . S
C908 C917 1.390 . S
C909 C908 1.387 . S
C909 C911 1.387 . S
H910 C917 0.950 . S
C911 C909 1.387 . S
C911 C913 1.390 . S
C911 H915 0.950 . S
H912 C908 0.950 . S
C913 C911 1.390 . S
C913 C914 1.387 . S
C913 H916 0.950 . S
C914 C913 1.387 . S
C914 C917 1.387 . S
H915 C911 0.950 . S
H916 C913 0.950 . S
C917 C908 1.390 . S
C917 H910 0.950 . S
C917 C914 1.387 . S
C918 C919 1.387 . S
C918 H922 0.950 . S
C918 C927 1.390 . S
C919 C918 1.387 . S
C919 C921 1.387 . S
H920 C927 0.950 . S
C921 C919 1.387 . S
C921 C923 1.390 . S
C921 H925 0.950 . S
H922 C918 0.950 . S
C923 C921 1.390 . S
C923 C924 1.387 . S
C923 H926 0.950 . S
C924 C923 1.387 . S
C924 C927 1.387 . S
H925 C921 0.950 . S
H926 C923 0.950 . S
C927 C918 1.390 . S
C927 H920 0.950 . S
C927 C924 1.387 . S
C928 C929 1.387 . S
C928 H932 0.950 . S
C928 C937 1.390 . S
C929 C928 1.387 . S
C929 C931 1.387 . S
H930 C937 0.950 . S
C931 C929 1.387 . S
C931 C933 1.390 . S
C931 H935 0.950 . S
H932 C928 0.950 . S
C933 C931 1.390 . S
C933 C934 1.387 . S
C933 H936 0.950 . S
C934 C933 1.387 . S
C934 C937 1.387 . S
H935 C931 0.950 . S
H936 C933 0.950 . S
C937 C928 1.390 . S
C937 H930 0.950 . S
C937 C934 1.387 . S
C938 C939 1.387 . S
C938 H942 0.950 . S
C938 C947 1.390 . S
C939 C938 1.387 . S
C939 C941 1.387 . S
H940 C947 0.950 . S
C941 C939 1.387 . S
C941 C943 1.390 . S
C941 H945 0.950 . S
H942 C938 0.950 . S
C943 C941 1.390 . S
C943 C944 1.387 . S
C943 H946 0.950 . S
C944 C943 1.387 . S
C944 C947 1.387 . S
H945 C941 0.950 . S
H946 C943 0.950 . S
C947 C938 1.390 . S
C947 H940 0.950 . S
C947 C944 1.387 . S
C948 C949 1.387 . S
C948 H952 0.950 . S
C948 C957 1.390 . S
C949 C948 1.387 . S
C949 C951 1.387 . S
H950 C957 0.950 . S
C951 C949 1.387 . S
C951 C953 1.390 . S
C951 H955 0.950 . S
H952 C948 0.950 . S
C953 C951 1.390 . S
C953 C954 1.387 . S
C953 H956 0.950 . S
C954 C953 1.387 . S
C954 C957 1.387 . S
H955 C951 0.950 . S
H956 C953 0.950 . S
C957 C948 1.390 . S
C957 H950 0.950 . S
C957 C954 1.387 . S
C958 C959 1.387 . S
C958 H962 0.950 . S
C958 C967 1.390 . S
C959 C958 1.387 . S
C959 C961 1.387 . S
H960 C967 0.950 . S
C961 C959 1.387 . S
C961 C963 1.390 . S
C961 H965 0.950 . S
H962 C958 0.950 . S
C963 C961 1.390 . S
C963 C964 1.387 . S
C963 H966 0.950 . S
C964 C963 1.387 . S
C964 C967 1.387 . S
H965 C961 0.950 . S
H966 C963 0.950 . S
C967 C958 1.390 . S
C967 H960 0.950 . S
C967 C964 1.387 . S
C968 C969 1.387 . S
C968 H972 0.950 . S
C968 C977 1.390 . S
C969 C968 1.387 . S
C969 C971 1.387 . S
H970 C977 0.950 . S
C971 C969 1.387 . S
C971 C973 1.390 . S
C971 H975 0.950 . S
H972 C968 0.950 . S
C973 C971 1.390 . S
C973 C974 1.387 . S
C973 H976 0.950 . S
C974 C973 1.387 . S
C974 C977 1.387 . S
H975 C971 0.950 . S
H976 C973 0.950 . S
C977 C968 1.390 . S
C977 H970 0.950 . S
C977 C974 1.387 . S
C978 C979 1.387 . S
C978 H982 0.950 . S
C978 C987 1.390 . S
C979 C978 1.387 . S
C979 C981 1.387 . S
H980 C987 0.950 . S
C981 C979 1.387 . S
C981 C983 1.390 . S
C981 H985 0.950 . S
H982 C978 0.950 . S
C983 C981 1.390 . S
C983 C984 1.387 . S
C983 H986 0.950 . S
C984 C983 1.387 . S
C984 C987 1.387 . S
H985 C981 0.950 . S
H986 C983 0.950 . S
C987 C978 1.390 . S
C987 H980 0.950 . S
C987 C984 1.387 . S
C988 C989 1.387 . S
C988 H992 0.950 . S
C988 C997 1.390 . S
C989 C988 1.387 . S
C989 C991 1.387 . S
H990 C997 0.950 . S
C991 C989 1.387 . S
C991 C993 1.390 . S
C991 H995 0.950 . S
H992 C988 0.950 . S
C993 C991 1.390 . S
C993 C994 1.387 . S
C993 H996 0.950 . S
C994 C993 1.387 . S
C994 C997 1.387 . S
H995 C991 0.950 . S
H996 C993 0.950 . S
C997 C988 1.390 . S
C997 H990 0.950 . S
C997 C994 1.387 . S
C998 C999 1.387 . S
C998 H1002 0.950 . S
C998 C1007 1.390 . S
C999 C998 1.387 . S
C999 C1001 1.387 . S
H1000 C1007 0.950 . S
C1001 C999 1.387 . S
C1001 C1003 1.390 . S
C1001 H1005 0.950 . S
H1002 C998 0.950 . S
C1003 C1001 1.390 . S
C1003 C1004 1.387 . S
C1003 H1006 0.950 . S
C1004 C1003 1.387 . S
C1004 C1007 1.387 . S
H1005 C1001 0.950 . S
H1006 C1003 0.950 . S
C1007 C998 1.390 . S
C1007 H1000 0.950 . S
C1007 C1004 1.387 . S
C1008 C1009 1.387 . S
C1008 H1012 0.950 . S
C1008 C1017 1.390 . S
C1009 C1008 1.387 . S
C1009 C1011 1.387 . S
H1010 C1017 0.950 . S
C1011 C1009 1.387 . S
C1011 C1013 1.390 . S
C1011 H1015 0.950 . S
H1012 C1008 0.950 . S
C1013 C1011 1.390 . S
C1013 C1014 1.387 . S
C1013 H1016 0.950 . S
C1014 C1013 1.387 . S
C1014 C1017 1.387 . S
H1015 C1011 0.950 . S
H1016 C1013 0.950 . S
C1017 C1008 1.390 . S
C1017 H1010 0.950 . S
C1017 C1014 1.387 . S
C1018 C1019 1.387 . S
C1018 H1022 0.950 . S
C1018 C1027 1.390 . S
C1019 C1018 1.387 . S
C1019 C1021 1.387 . S
H1020 C1027 0.950 . S
C1021 C1019 1.387 . S
C1021 C1023 1.390 . S
C1021 H1025 0.950 . S
H1022 C1018 0.950 . S
C1023 C1021 1.390 . S
C1023 C1024 1.387 . S
C1023 H1026 0.950 . S
C1024 C1023 1.387 . S
C1024 C1027 1.387 . S
H1025 C1021 0.950 . S
H1026 C1023 0.950 . S
C1027 C1018 1.390 . S
C1027 H1020 0.950 . S
C1027 C1024 1.387 . S
C1028 C1029 1.387 . S
C1028 H1032 0.950 . S
C1028 C1037 1.390 . S
C1029 C1028 1.387 . S
C1029 C1031 1.387 . S
H1030 C1037 0.950 . S
C1031 C1029 1.387 . S
C1031 C1033 1.390 . S
C1031 H1035 0.950 . S
H1032 C1028 0.950 . S
C1033 C1031 1.390 . S
C1033 C1034 1.387 . S
C1033 H1036 0.950 . S
C1034 C1033 1.387 . S
C1034 C1037 1.387 . S
H1035 C1031 0.950 . S
H1036 C1033 0.950 . S
C1037 C1028 1.390 . S
C1037 H1030 0.950 . S
C1037 C1034 1.387 . S
C1038 C1039 1.387 . S
C1038 H1042 0.950 . S
C1038 C1047 1.390 . S
C1039 C1038 1.387 . S
C1039 C1041 1.387 . S
H1040 C1047 0.950 . S
C1041 C1039 1.387 . S
C1041 C1043 1.390 . S
C1041 H1045 0.950 . S
H1042 C1038 0.950 . S
C1043 C1041 1.390 . S
C1043 C1044 1.387 . S
C1043 H1046 0.950 . S
C1044 C1043 1.387 . S
C1044 C1047 1.387 . S
H1045 C1041 0.950 . S
H1046 C1043 0.950 . S
C1047 C1038 1.390 . S
C1047 H1040 0.950 . S
C1047 C1044 1.387 . S
C1048 C1049 1.387 . S
C1048 H1052 0.950 . S
C1048 C1057 1.390 . S
C1049 C1048 1.387 . S
C1049 C1051 1.387 . S
H1050 C1057 0.950 . S
C1051 C1049 1.387 . S
C1051 C1053 1.390 . S
C1051 H1055 0.950 . S
H1052 C1048 0.950 . S
C1053 C1051 1.390 . S
C1053 C1054 1.387 . S
C1053 H1056 0.950 . S
C1054 C1053 1.387 . S
C1054 C1057 1.387 . S
H1055 C1051 0.950 . S
H1056 C1053 0.950 . S
C1057 C1048 1.390 . S
C1057 H1050 0.950 . S
C1057 C1054 1.387 . S
C1058 C1059 1.387 . S
C1058 H1062 0.950 . S
C1058 C1067 1.390 . S
C1059 C1058 1.387 . S
C1059 C1061 1.387 . S
H1060 C1067 0.950 . S
C1061 C1059 1.387 . S
C1061 C1063 1.390 . S
C1061 H1065 0.950 . S
H1062 C1058 0.950 . S
C1063 C1061 1.390 . S
C1063 C1064 1.387 . S
C1063 H1066 0.950 . S
C1064 C1063 1.387 . S
C1064 C1067 1.387 . S
H1065 C1061 0.950 . S
H1066 C1063 0.950 . S
C1067 C1058 1.390 . S
C1067 H1060 0.950 . S
C1067 C1064 1.387 . S
C1068 C1069 1.387 . S
C1068 H1072 0.950 . S
C1068 C1077 1.390 . S
C1069 C1068 1.387 . S
C1069 C1071 1.387 . S
H1070 C1077 0.950 . S
C1071 C1069 1.387 . S
C1071 C1073 1.390 . S
C1071 H1075 0.950 . S
H1072 C1068 0.950 . S
C1073 C1071 1.390 . S
C1073 C1074 1.387 . S
C1073 H1076 0.950 . S
C1074 C1073 1.387 . S
C1074 C1077 1.387 . S
H1075 C1071 0.950 . S
H1076 C1073 0.950 . S
C1077 C1068 1.390 . S
C1077 H1070 0.950 . S
C1077 C1074 1.387 . S
C1078 C1079 1.387 . S
C1078 H1082 0.950 . S
C1078 C1087 1.390 . S
C1079 C1078 1.387 . S
C1079 C1081 1.387 . S
H1080 C1087 0.950 . S
C1081 C1079 1.387 . S
C1081 C1083 1.390 . S
C1081 H1085 0.950 . S
H1082 C1078 0.950 . S
C1083 C1081 1.390 . S
C1083 C1084 1.387 . S
C1083 H1086 0.950 . S
C1084 C1083 1.387 . S
C1084 C1087 1.387 . S
H1085 C1081 0.950 . S
H1086 C1083 0.950 . S
C1087 C1078 1.390 . S
C1087 H1080 0.950 . S
C1087 C1084 1.387 . S
C1088 C1089 1.387 . S
C1088 H1092 0.950 . S
C1088 C1097 1.390 . S
C1089 C1088 1.387 . S
C1089 C1091 1.387 . S
H1090 C1097 0.950 . S
C1091 C1089 1.387 . S
C1091 C1093 1.390 . S
C1091 H1095 0.950 . S
H1092 C1088 0.950 . S
C1093 C1091 1.390 . S
C1093 C1094 1.387 . S
C1093 H1096 0.950 . S
C1094 C1093 1.387 . S
C1094 C1097 1.387 . S
H1095 C1091 0.950 . S
H1096 C1093 0.950 . S
C1097 C1088 1.390 . S
C1097 H1090 0.950 . S
C1097 C1094 1.387 . S
C1098 C1099 1.387 . S
C1098 H1102 0.950 . S
C1098 C1107 1.390 . S
C1099 C1098 1.387 . S
C1099 C1101 1.387 . S
H1100 C1107 0.950 . S
C1101 C1099 1.387 . S
C1101 C1103 1.390 . S
C1101 H1105 0.950 . S
H1102 C1098 0.950 . S
C1103 C1101 1.390 . S
C1103 C1104 1.387 . S
C1103 H1106 0.950 . S
C1104 C1103 1.387 . S
C1104 C1107 1.387 . S
H1105 C1101 0.950 . S
H1106 C1103 0.950 . S
C1107 C1098 1.390 . S
C1107 H1100 0.950 . S
C1107 C1104 1.387 . S
C1108 C1109 1.387 . S
C1108 H1112 0.950 . S
C1108 C1117 1.390 . S
C1109 C1108 1.387 . S
C1109 C1111 1.387 . S
H1110 C1117 0.950 . S
C1111 C1109 1.387 . S
C1111 C1113 1.390 . S
C1111 H1115 0.950 . S
H1112 C1108 0.950 . S
C1113 C1111 1.390 . S
C1113 C1114 1.387 . S
C1113 H1116 0.950 . S
C1114 C1113 1.387 . S
C1114 C1117 1.387 . S
H1115 C1111 0.950 . S
H1116 C1113 0.950 . S
C1117 C1108 1.390 . S
C1117 H1110 0.950 . S
C1117 C1114 1.387 . S
C1118 C1119 1.387 . S
C1118 H1122 0.950 . S
C1118 C1127 1.390 . S
C1119 C1118 1.387 . S
C1119 C1121 1.387 . S
H1120 C1127 0.950 . S
C1121 C1119 1.387 . S
C1121 C1123 1.390 . S
C1121 H1125 0.950 . S
H1122 C1118 0.950 . S
C1123 C1121 1.390 . S
C1123 C1124 1.387 . S
C1123 H1126 0.950 . S
C1124 C1123 1.387 . S
C1124 C1127 1.387 . S
H1125 C1121 0.950 . S
H1126 C1123 0.950 . S
C1127 C1118 1.390 . S
C1127 H1120 0.950 . S
C1127 C1124 1.387 . S
C1128 C1129 1.387 . S
C1128 H1132 0.950 . S
C1128 C1137 1.390 . S
C1129 C1128 1.387 . S
C1129 C1131 1.387 . S
H1130 C1137 0.950 . S
C1131 C1129 1.387 . S
C1131 C1133 1.390 . S
C1131 H1135 0.950 . S
H1132 C1128 0.950 . S
C1133 C1131 1.390 . S
C1133 C1134 1.387 . S
C1133 H1136 0.950 . S
C1134 C1133 1.387 . S
C1134 C1137 1.387 . S
H1135 C1131 0.950 . S
H1136 C1133 0.950 . S
C1137 C1128 1.390 . S
C1137 H1130 0.950 . S
C1137 C1134 1.387 . S
C1138 C1139 1.387 . S
C1138 H1142 0.950 . S
C1138 C1147 1.390 . S
C1139 C1138 1.387 . S
C1139 C1141 1.387 . S
H1140 C1147 0.950 . S
C1141 C1139 1.387 . S
C1141 C1143 1.390 . S
C1141 H1145 0.950 . S
H1142 C1138 0.950 . S
C1143 C1141 1.390 . S
C1143 C1144 1.387 . S
C1143 H1146 0.950 . S
C1144 C1143 1.387 . S
C1144 C1147 1.387 . S
H1145 C1141 0.950 . S
H1146 C1143 0.950 . S
C1147 C1138 1.390 . S
C1147 H1140 0.950 . S
C1147 C1144 1.387 . S
C1148 C1149 1.387 . S
C1148 H1152 0.950 . S
C1148 C1157 1.390 . S
C1149 C1148 1.387 . S
C1149 C1151 1.387 . S
H1150 C1157 0.950 . S
C1151 C1149 1.387 . S
C1151 C1153 1.390 . S
C1151 H1155 0.950 . S
H1152 C1148 0.950 . S
C1153 C1151 1.390 . S
C1153 C1154 1.387 . S
C1153 H1156 0.950 . S
C1154 C1153 1.387 . S
C1154 C1157 1.387 . S
H1155 C1151 0.950 . S
H1156 C1153 0.950 . S
C1157 C1148 1.390 . S
C1157 H1150 0.950 . S
C1157 C1154 1.387 . S
C1158 C1159 1.387 . S
C1158 H1162 0.950 . S
C1158 C1167 1.390 . S
C1159 C1158 1.387 . S
C1159 C1161 1.387 . S
H1160 C1167 0.950 . S
C1161 C1159 1.387 . S
C1161 C1163 1.390 . S
C1161 H1165 0.950 . S
H1162 C1158 0.950 . S
C1163 C1161 1.390 . S
C1163 C1164 1.387 . S
C1163 H1166 0.950 . S
C1164 C1163 1.387 . S
C1164 C1167 1.387 . S
H1165 C1161 0.950 . S
H1166 C1163 0.950 . S
C1167 C1158 1.390 . S
C1167 H1160 0.950 . S
C1167 C1164 1.387 . S
C1168 C1169 1.387 . S
C1168 H1172 0.950 . S
C1168 C1177 1.390 . S
C1169 C1168 1.387 . S
C1169 C1171 1.387 . S
H1170 C1177 0.950 . S
C1171 C1169 1.387 . S
C1171 C1173 1.390 . S
C1171 H1175 0.950 . S
H1172 C1168 0.950 . S
C1173 C1171 1.390 . S
C1173 C1174 1.387 . S
C1173 H1176 0.950 . S
C1174 C1173 1.387 . S
C1174 C1177 1.387 . S
H1175 C1171 0.950 . S
H1176 C1173 0.950 . S
C1177 C1168 1.390 . S
C1177 H1170 0.950 . S
C1177 C1174 1.387 . S
C1178 C1179 1.387 . S
C1178 H1182 0.950 . S
C1178 C1187 1.390 . S
C1179 C1178 1.387 . S
C1179 C1181 1.387 . S
H1180 C1187 0.950 . S
C1181 C1179 1.387 . S
C1181 C1183 1.390 . S
C1181 H1185 0.950 . S
H1182 C1178 0.950 . S
C1183 C1181 1.390 . S
C1183 C1184 1.387 . S
C1183 H1186 0.950 . S
C1184 C1183 1.387 . S
C1184 C1187 1.387 . S
H1185 C1181 0.950 . S
H1186 C1183 0.950 . S
C1187 C1178 1.390 . S
C1187 H1180 0.950 . S
C1187 C1184 1.387 . S
C1188 C1189 1.387 . S
C1188 H1192 0.950 . S
C1188 C1197 1.390 . S
C1189 C1188 1.387 . S
C1189 C1191 1.387 . S
H1190 C1197 0.950 . S
C1191 C1189 1.387 . S
C1191 C1193 1.390 . S
C1191 H1195 0.950 . S
H1192 C1188 0.950 . S
C1193 C1191 1.390 . S
C1193 C1194 1.387 . S
C1193 H1196 0.950 . S
C1194 C1193 1.387 . S
C1194 C1197 1.387 . S
H1195 C1191 0.950 . S
H1196 C1193 0.950 . S
C1197 C1188 1.390 . S
C1197 H1190 0.950 . S
C1197 C1194 1.387 . S
C1198 C1199 1.387 . S
C1198 H1202 0.950 . S
C1198 C1207 1.390 . S
C1199 C1198 1.387 . S
C1199 C1201 1.387 . S
H1200 C1207 0.950 . S
C1201 C1199 1.387 . S
C1201 C1203 1.390 . S
C1201 H1205 0.950 . S
H1202 C1198 0.950 . S
C1203 C1201 1.390 . S
C1203 C1204 1.387 . S
C1203 H1206 0.950 . S
C1204 C1203 1.387 . S
C1204 C1207 1.387 . S
H1205 C1201 0.950 . S
H1206 C1203 0.950 . S
C1207 C1198 1.390 . S
C1207 H1200 0.950 . S
C1207 C1204 1.387 . S
C1208 C1209 1.387 . S
C1208 H1212 0.950 . S
C1208 C1217 1.390 . S
C1209 C1208 1.387 . S
C1209 C1211 1.387 . S
H1210 C1217 0.950 . S
C1211 C1209 1.387 . S
C1211 C1213 1.390 . S
C1211 H1215 0.950 . S
H1212 C1208 0.950 . S
C1213 C1211 1.390 . S
C1213 C1214 1.387 . S
C1213 H1216 0.950 . S
C1214 C1213 1.387 . S
C1214 C1217 1.387 . S
H1215 C1211 0.950 . S
H1216 C1213 0.950 . S
C1217 C1208 1.390 . S
C1217 H1210 0.950 . S
C1217 C1214 1.387 . S
C1218 C1219 1.387 . S
C1218 H1222 0.950 . S
C1218 C1227 1.390 . S
C1219 C1218 1.387 . S
C1219 C1221 1.387 . S
H1220 C1227 0.950 . S
C1221 C1219 1.387 . S
C1221 C1223 1.390 . S
C1221 H1225 0.950 . S
H1222 C1218 0.950 . S
C1223 C1221 1.390 . S
C1223 C1224 1.387 . S
C1223 H1226 0.950 . S
C1224 C1223 1.387 . S
C1224 C1227 1.387 . S
H1225 C1221 0.950 . S
H1226 C1223 0.950 . S
C1227 C1218 1.390 . S
C1227 H1220 0.950 . S
C1227 C1224 1.387 . S
C1228 C1229 1.387 . S
C1228 H1232 0.950 . S
C1228 C1237 1.390 . S
C1229 C1228 1.387 . S
C1229 C1231 1.387 . S
H1230 C1237 0.950 . S
C1231 C1229 1.387 . S
C1231 C1233 1.390 . S
C1231 H1235 0.950 . S
H1232 C1228 0.950 . S
C1233 C1231 1.390 . S
C1233 C1234 1.387 . S
C1233 H1236 0.950 . S
C1234 C1233 1.387 . S
C1234 C1237 1.387 . S
H1235 C1231 0.950 . S
H1236 C1233 0.950 . S
C1237 C1228 1.390 . S
C1237 H1230 0.950 . S
C1237 C1234 1.387 . S
C1238 C1239 1.387 . S
C1238 H1242 0.950 . S
C1238 C1247 1.390 . S
C1239 C1238 1.387 . S
C1239 C1241 1.387 . S
H1240 C1247 0.950 . S
C1241 C1239 1.387 . S
C1241 C1243 1.390 . S
C1241 H1245 0.950 . S
H1242 C1238 0.950 . S
C1243 C1241 1.390 . S
C1243 C1244 1.387 . S
C1243 H1246 0.950 . S
C1244 C1243 1.387 . S
C1244 C1247 1.387 . S
H1245 C1241 0.950 . S
H1246 C1243 0.950 . S
C1247 C1238 1.390 . S
C1247 H1240 0.950 . S
C1247 C1244 1.387 . S
C529 C21 1.561 . S
C534 C406 1.535 . S
C539 C436 1.537 . S
C544 C43 1.560 . S
C549 C370 1.536 . S
C554 C51 1.560 1_565 S
C559 C87 1.561 1_545 S
C564 C392 1.535 . S
C569 C502 1.535 . S
C574 C95 1.561 . S
C579 C472 1.536 . S
C584 C125 1.560 1_554 S
C589 C516 1.536 . S
C594 C139 1.560 . S
C599 C448 1.535 . S
C604 C161 1.561 1_556 S
C609 C183 1.560 . S
C614 C296 1.537 . S
C619 C205 1.561 1_455 S
C624 C348 1.535 . S
C629 C235 1.560 . S
C634 C318 1.538 . S
C639 C282 1.535 . S
C644 C249 1.561 1_655 S
C649 C142 1.532 . S
C654 C279 1.555 . S
C659 C307 1.555 . S
C664 C164 1.534 . S
C669 C98 1.533 . S
C674 C329 1.556 1_545 S
C679 C118 1.532 . S
C684 C345 1.557 1_565 S
C689 C367 1.556 . S
C694 C228 1.531 . S
C699 C208 1.531 . S
C704 C389 1.556 1_556 S
C709 C252 1.532 . S
C714 C417 1.556 . S
C719 C433 1.555 1_554 S
C724 C186 1.532 . S
C729 C447 1.556 . S
C734 C40 1.531 . S
C739 C483 1.557 1_655 S
C744 C84 1.531 . S
C749 C499 1.555 . S
C754 C54 1.534 . S
C759 C18 1.531 . S
C764 C527 1.556 1_455 S
C769 C428 1.270 1_554 S
C774 C10 1.262 . S
C779 C404 1.270 . S
C784 C32 1.261 . S
C789 C384 1.270 1_556 S
C794 C52 1.264 . S
C799 C362 1.270 . S
C804 C76 1.264 . S
C809 C96 1.264 . S
C814 C514 1.270 1_455 S
C819 C128 1.261 . S
C824 C458 1.270 . S
C829 C494 1.269 . S
C834 C140 1.264 . S
C839 C470 1.269 1_655 S
C844 C162 1.264 . S
C849 C316 1.268 1_545 S
C854 C184 1.263 . S
C859 C206 1.264 . S
C864 C274 1.268 . S
C869 C294 1.268 . S
C874 C238 1.263 . S
C879 C340 1.268 1_565 S
C884 C250 1.263 . S
C889 C272 1.268 . S
C894 C172 1.279 1_556 S
C899 C150 1.279 . S
C904 C304 1.269 . S
C909 C326 1.270 . S
C914 C120 1.278 1_554 S
C919 C338 1.267 . S
C924 C106 1.278 . S
C929 C260 1.279 1_655 S
C934 C360 1.269 . S
C939 C194 1.279 . S
C944 C382 1.267 . S
C949 C414 1.269 . S
C954 C230 1.278 . S
C959 C426 1.267 . S
C964 C216 1.279 1_455 S
C969 C62 1.279 1_565 S
C974 C450 1.267 . S
C979 C8 1.277 . S
C984 C480 1.269 . S
C989 C492 1.269 . S
C994 C30 1.277 . S
C999 C524 1.268 . S
C1004 C74 1.279 1_545 S
C1009 C7 1.129 . S
C1014 C109 1.118 . S
C1019 C117 1.119 . S
C1024 C29 1.129 . S
C1029 C153 1.116 . S
C1034 C59 1.131 . S
C1039 C175 1.116 . S
C1044 C73 1.131 . S
C1049 C197 1.119 . S
C1054 C103 1.129 . S
C1059 C131 1.129 . S
C1064 C263 1.119 . S
C1069 C147 1.129 . S
C1074 C219 1.119 . S
C1079 C227 1.116 . S
C1084 C169 1.131 . S
C1089 C191 1.131 . S
C1094 C15 1.116 . S
C1099 C213 1.131 . S
C1104 C65 1.116 . S
C1109 C81 1.119 . S
C1114 C241 1.128 . S
C1119 C37 1.118 . S
C1124 C257 1.129 . S
C1129 C271 1.128 . S
C1134 C373 1.123 . S
C1139 C395 1.121 . S
C1144 C301 1.129 . S
C1149 C403 1.122 . S
C1154 C323 1.128 . S
C1159 C439 1.122 . S
C1164 C337 1.129 . S
C1169 C359 1.129 . S
C1174 C455 1.122 . S
C1179 C513 1.122 . S
C1184 C381 1.129 . S
C1189 C411 1.127 . S
C1194 C469 1.124 . S
C1199 C425 1.129 . S
C1204 C505 1.122 . S
C1209 C285 1.121 . S
C1214 C461 1.129 . S
C1219 C315 1.121 . S
C1224 C477 1.129 . S
C1229 C351 1.121 . S
C1234 C491 1.129 . S
C1239 C293 1.122 . S
C1244 C521 1.128 . S
