# Generated by pormake.
# Topology fcp, (5)-cn, num edge types: 1
# Building blocks:
#     Node 0, Type 0, BuildingBlock: XOMCOT_clean_sbu_1, # of connection points: 5
#     Node 1, Type 0, BuildingBlock: XOMCOT_clean_sbu_1, # of connection points: 5
#     Node 2, Type 0, BuildingBlock: XOMCOT_clean_sbu_1, # of connection points: 5
#     Node 3, Type 0, BuildingBlock: XOMCOT_clean_sbu_1, # of connection points: 5
#     Node 4, Type 0, BuildingBlock: XOMCOT_clean_sbu_1, # of connection points: 5
#     Node 5, Type 0, BuildingBlock: XOMCOT_clean_sbu_1, # of connection points: 5
#     Node 6, Type 0, BuildingBlock: XOMCOT_clean_sbu_1, # of connection points: 5
#     Node 7, Type 0, BuildingBlock: XOMCOT_clean_sbu_1, # of connection points: 5
#     Node 8, Type 0, BuildingBlock: XOMCOT_clean_sbu_1, # of connection points: 5
#     Node 9, Type 0, BuildingBlock: XOMCOT_clean_sbu_1, # of connection points: 5
#     Node 10, Type 0, BuildingBlock: XOMCOT_clean_sbu_1, # of connection points: 5
#     Node 11, Type 0, BuildingBlock: XOMCOT_clean_sbu_1, # of connection points: 5
#     Node 12, Type 0, BuildingBlock: XOMCOT_clean_sbu_1, # of connection points: 5
#     Node 13, Type 0, BuildingBlock: XOMCOT_clean_sbu_1, # of connection points: 5
#     Node 14, Type 0, BuildingBlock: XOMCOT_clean_sbu_1, # of connection points: 5
#     Node 15, Type 0, BuildingBlock: XOMCOT_clean_sbu_1, # of connection points: 5
#     Node 16, Type 0, BuildingBlock: XOMCOT_clean_sbu_1, # of connection points: 5
#     Node 17, Type 0, BuildingBlock: XOMCOT_clean_sbu_1, # of connection points: 5
#     Node 18, Type 0, BuildingBlock: XOMCOT_clean_sbu_1, # of connection points: 5
#     Node 19, Type 0, BuildingBlock: XOMCOT_clean_sbu_1, # of connection points: 5
#     Node 20, Type 0, BuildingBlock: XOMCOT_clean_sbu_1, # of connection points: 5
#     Node 21, Type 0, BuildingBlock: XOMCOT_clean_sbu_1, # of connection points: 5
#     Node 22, Type 0, BuildingBlock: XOMCOT_clean_sbu_1, # of connection points: 5
#     Node 23, Type 0, BuildingBlock: XOMCOT_clean_sbu_1, # of connection points: 5
#     Edge 24, Type (0, 0), BuildingBlock: XIVTED_clean_linker_0, # of connection points: 2
#     Edge 25, Type (0, 0), BuildingBlock: XIVTED_clean_linker_0, # of connection points: 2
#     Edge 26, Type (0, 0), BuildingBlock: XIVTED_clean_linker_0, # of connection points: 2
#     Edge 27, Type (0, 0), BuildingBlock: XIVTED_clean_linker_0, # of connection points: 2
#     Edge 28, Type (0, 0), BuildingBlock: XIVTED_clean_linker_0, # of connection points: 2
#     Edge 29, Type (0, 0), BuildingBlock: XIVTED_clean_linker_0, # of connection points: 2
#     Edge 30, Type (0, 0), BuildingBlock: XIVTED_clean_linker_0, # of connection points: 2
#     Edge 31, Type (0, 0), BuildingBlock: XIVTED_clean_linker_0, # of connection points: 2
#     Edge 32, Type (0, 0), BuildingBlock: XIVTED_clean_linker_0, # of connection points: 2
#     Edge 33, Type (0, 0), BuildingBlock: XIVTED_clean_linker_0, # of connection points: 2
#     Edge 34, Type (0, 0), BuildingBlock: XIVTED_clean_linker_0, # of connection points: 2
#     Edge 35, Type (0, 0), BuildingBlock: XIVTED_clean_linker_0, # of connection points: 2
#     Edge 36, Type (0, 0), BuildingBlock: XIVTED_clean_linker_0, # of connection points: 2
#     Edge 37, Type (0, 0), BuildingBlock: XIVTED_clean_linker_0, # of connection points: 2
#     Edge 38, Type (0, 0), BuildingBlock: XIVTED_clean_linker_0, # of connection points: 2
#     Edge 39, Type (0, 0), BuildingBlock: XIVTED_clean_linker_0, # of connection points: 2
#     Edge 40, Type (0, 0), BuildingBlock: XIVTED_clean_linker_0, # of connection points: 2
#     Edge 41, Type (0, 0), BuildingBlock: XIVTED_clean_linker_0, # of connection points: 2
#     Edge 42, Type (0, 0), BuildingBlock: XIVTED_clean_linker_0, # of connection points: 2
#     Edge 43, Type (0, 0), BuildingBlock: XIVTED_clean_linker_0, # of connection points: 2
#     Edge 44, Type (0, 0), BuildingBlock: XIVTED_clean_linker_0, # of connection points: 2
#     Edge 45, Type (0, 0), BuildingBlock: XIVTED_clean_linker_0, # of connection points: 2
#     Edge 46, Type (0, 0), BuildingBlock: XIVTED_clean_linker_0, # of connection points: 2
#     Edge 47, Type (0, 0), BuildingBlock: XIVTED_clean_linker_0, # of connection points: 2
#     Edge 48, Type (0, 0), BuildingBlock: XIVTED_clean_linker_0, # of connection points: 2
#     Edge 49, Type (0, 0), BuildingBlock: XIVTED_clean_linker_0, # of connection points: 2
#     Edge 50, Type (0, 0), BuildingBlock: XIVTED_clean_linker_0, # of connection points: 2
#     Edge 51, Type (0, 0), BuildingBlock: XIVTED_clean_linker_0, # of connection points: 2
#     Edge 52, Type (0, 0), BuildingBlock: XIVTED_clean_linker_0, # of connection points: 2
#     Edge 53, Type (0, 0), BuildingBlock: XIVTED_clean_linker_0, # of connection points: 2
#     Edge 54, Type (0, 0), BuildingBlock: XIVTED_clean_linker_0, # of connection points: 2
#     Edge 55, Type (0, 0), BuildingBlock: XIVTED_clean_linker_0, # of connection points: 2
#     Edge 56, Type (0, 0), BuildingBlock: XIVTED_clean_linker_0, # of connection points: 2
#     Edge 57, Type (0, 0), BuildingBlock: XIVTED_clean_linker_0, # of connection points: 2
#     Edge 58, Type (0, 0), BuildingBlock: XIVTED_clean_linker_0, # of connection points: 2
#     Edge 59, Type (0, 0), BuildingBlock: XIVTED_clean_linker_0, # of connection points: 2
#     Edge 60, Type (0, 0), BuildingBlock: XIVTED_clean_linker_0, # of connection points: 2
#     Edge 61, Type (0, 0), BuildingBlock: XIVTED_clean_linker_0, # of connection points: 2
#     Edge 62, Type (0, 0), BuildingBlock: XIVTED_clean_linker_0, # of connection points: 2
#     Edge 63, Type (0, 0), BuildingBlock: XIVTED_clean_linker_0, # of connection points: 2
#     Edge 64, Type (0, 0), BuildingBlock: XIVTED_clean_linker_0, # of connection points: 2
#     Edge 65, Type (0, 0), BuildingBlock: XIVTED_clean_linker_0, # of connection points: 2
#     Edge 66, Type (0, 0), BuildingBlock: XIVTED_clean_linker_0, # of connection points: 2
#     Edge 67, Type (0, 0), BuildingBlock: XIVTED_clean_linker_0, # of connection points: 2
#     Edge 68, Type (0, 0), BuildingBlock: XIVTED_clean_linker_0, # of connection points: 2
#     Edge 69, Type (0, 0), BuildingBlock: XIVTED_clean_linker_0, # of connection points: 2
#     Edge 70, Type (0, 0), BuildingBlock: XIVTED_clean_linker_0, # of connection points: 2
#     Edge 71, Type (0, 0), BuildingBlock: XIVTED_clean_linker_0, # of connection points: 2
#     Edge 72, Type (0, 0), BuildingBlock: XIVTED_clean_linker_0, # of connection points: 2
#     Edge 73, Type (0, 0), BuildingBlock: XIVTED_clean_linker_0, # of connection points: 2
#     Edge 74, Type (0, 0), BuildingBlock: XIVTED_clean_linker_0, # of connection points: 2
#     Edge 75, Type (0, 0), BuildingBlock: XIVTED_clean_linker_0, # of connection points: 2
#     Edge 76, Type (0, 0), BuildingBlock: XIVTED_clean_linker_0, # of connection points: 2
#     Edge 77, Type (0, 0), BuildingBlock: XIVTED_clean_linker_0, # of connection points: 2
#     Edge 78, Type (0, 0), BuildingBlock: XIVTED_clean_linker_0, # of connection points: 2
#     Edge 79, Type (0, 0), BuildingBlock: XIVTED_clean_linker_0, # of connection points: 2
#     Edge 80, Type (0, 0), BuildingBlock: XIVTED_clean_linker_0, # of connection points: 2
#     Edge 81, Type (0, 0), BuildingBlock: XIVTED_clean_linker_0, # of connection points: 2
#     Edge 82, Type (0, 0), BuildingBlock: XIVTED_clean_linker_0, # of connection points: 2
#     Edge 83, Type (0, 0), BuildingBlock: XIVTED_clean_linker_0, # of connection points: 2
# Relax obj value: 0.100
# Max RMSD: 0.138
# Mean RMSD: 0.138
data_MOF--net-fcp--node1-XOMCOT_clean_sbu_1--edge1-XIVTED_clean_linker_0
_symmetry_space_group_name_H-M    P1
_symmetry_Int_Tables_number       1
_symmetry_cell_setting            triclinic
loop_
_symmetry_equiv_pos_as_xyz
'x, y, z'
_cell_length_a     51.831764
_cell_length_b     51.885777
_cell_length_c     51.824039
_cell_angle_alpha  89.945601
_cell_angle_beta   89.975214
_cell_angle_gamma 90.050437
loop_
_atom_site_label
_atom_site_type_symbol
_atom_site_fract_x
_atom_site_fract_y
_atom_site_fract_z
_atom_type_partial_charge
C0 C 0.03776 0.32737 0.1623 0.0
C1 C 0.01519 0.33235 0.17533 0.0
N2 N 0.02071 0.34722 0.19592 0.0
N3 N 0.05746 0.33919 0.17447 0.0
C4 C 0.04654 0.35093 0.19502 0.0
H5 H 0.03975 0.31597 0.14494 0.0
Co6 Co 0.09188 0.33828 0.16375 0.0
C7 C 0.10272 0.39441 0.17688 0.0
O8 O 0.10268 0.40249 0.15286 0.0
N9 N 0.1266 0.33641 0.1534 0.0
C10 C 0.16688 0.34351 0.14029 0.0
C11 C 0.14369 0.35482 0.14642 0.0
C12 C 0.13987 0.31411 0.15112 0.0
N13 N 0.16446 0.31785 0.14324 0.0
O14 O 0.10076 0.31969 0.19449 0.0
H15 H 0.13979 0.37511 0.14518 0.0
H16 H 0.13154 0.29543 0.15516 0.0
O17 O 0.09881 0.37062 0.18206 0.0
C18 C 0.09277 0.29647 0.19518 0.0
O19 O 0.07917 0.28755 0.17576 0.0
N20 N 0.08234 0.35455 0.13235 0.0
C21 C 0.05945 0.36577 0.08474 0.0
C22 C 0.05234 0.37939 0.10699 0.0
C23 C 0.06382 0.37329 0.13068 0.0
C24 C 0.09009 0.3419 0.11061 0.0
C25 C 0.07928 0.34752 0.08666 0.0
H26 H 0.0566 0.38249 0.14795 0.0
H27 H 0.10343 0.32599 0.11189 0.0
H28 H 0.05729 0.36226 0.20884 0.0
H29 H 0.99624 0.32524 0.17018 0.0
H30 H 0.18396 0.35341 0.13345 0.0
H31 H 0.03677 0.39329 0.1065 0.0
H32 H 0.08545 0.33657 0.06998 0.0
C33 C 0.82895 0.46964 0.34513 0.0
C34 C 0.83367 0.49174 0.33126 0.0
N35 N 0.84864 0.48568 0.31088 0.0
N36 N 0.84101 0.44969 0.33369 0.0
C37 C 0.85263 0.45997 0.31271 0.0
H38 H 0.81766 0.46815 0.36263 0.0
Co39 Co 0.8406 0.41589 0.34614 0.0
C40 C 0.89654 0.40442 0.33239 0.0
O41 O 0.90472 0.40536 0.35634 0.0
N42 N 0.83909 0.38171 0.35834 0.0
C43 C 0.8467 0.34212 0.37311 0.0
C44 C 0.85768 0.36528 0.36629 0.0
C45 C 0.81697 0.36809 0.36088 0.0
N46 N 0.82104 0.3439 0.36967 0.0
O47 O 0.82101 0.40553 0.31629 0.0
H48 H 0.8779 0.36958 0.36767 0.0
H49 H 0.79817 0.37579 0.35619 0.0
O50 O 0.87268 0.40815 0.32719 0.0
C51 C 0.79761 0.4131 0.31646 0.0
O52 O 0.78931 0.42661 0.33621 0.0
N53 N 0.85791 0.4271 0.37654 0.0
C54 C 0.87347 0.45093 0.42254 0.0
C55 C 0.88502 0.45745 0.39893 0.0
C56 C 0.87677 0.44558 0.37617 0.0
C57 C 0.8467 0.42035 0.39942 0.0
C58 C 0.85443 0.43171 0.42262 0.0
H59 H 0.88496 0.45196 0.35807 0.0
H60 H 0.83057 0.40714 0.39971 0.0
H61 H 0.86421 0.44892 0.29933 0.0
H62 H 0.82641 0.51076 0.33577 0.0
H63 H 0.85681 0.32548 0.3806 0.0
H64 H 0.89977 0.47221 0.39788 0.0
H65 H 0.84441 0.42656 0.44023 0.0
C66 C 0.96592 0.68791 0.17118 0.0
C67 C 0.98756 0.68487 0.18624 0.0
N68 N 0.98334 0.66513 0.20258 0.0
N69 N 0.94806 0.67036 0.17821 0.0
C70 C 0.95928 0.65664 0.19738 0.0
H71 H 0.9632 0.70221 0.15624 0.0
Co72 Co 0.91495 0.66868 0.16427 0.0
C73 C 0.90562 0.61186 0.17606 0.0
O74 O 0.90704 0.60397 0.15206 0.0
N75 N 0.88101 0.66759 0.15026 0.0
C76 C 0.84653 0.65765 0.12648 0.0
C77 C 0.87052 0.64967 0.13447 0.0
C78 C 0.86273 0.68622 0.15158 0.0
N79 N 0.84166 0.68064 0.13733 0.0
O80 O 0.90221 0.68614 0.19423 0.0
H81 H 0.88021 0.63271 0.1275 0.0
H82 H 0.8652 0.70432 0.1615 0.0
O83 O 0.90872 0.63568 0.18156 0.0
C84 C 0.90502 0.71046 0.19199 0.0
O85 O 0.91458 0.71958 0.17033 0.0
N86 N 0.92887 0.65417 0.13397 0.0
C87 C 0.9562 0.64574 0.08824 0.0
C88 C 0.96102 0.6306 0.11018 0.0
C89 C 0.94743 0.63547 0.13309 0.0
C90 C 0.92386 0.66875 0.11266 0.0
C91 C 0.93688 0.66454 0.08957 0.0
H92 H 0.95283 0.62521 0.15043 0.0
H93 H 0.91057 0.68475 0.11387 0.0
H94 H 0.94985 0.64124 0.20786 0.0
H95 H 0.00506 0.69625 0.1853 0.0
H96 H 0.83403 0.64774 0.11301 0.0
H97 H 0.97625 0.61631 0.11011 0.0
H98 H 0.9326 0.67676 0.07315 0.0
C99 C 0.17629 0.5367 0.34744 0.0
C100 C 0.17172 0.5141 0.33428 0.0
N101 N 0.15783 0.51966 0.31299 0.0
N102 N 0.1651 0.55635 0.33465 0.0
C103 C 0.15424 0.54544 0.31366 0.0
H104 H 0.18704 0.53874 0.36521 0.0
Co105 Co 0.16561 0.5909 0.34406 0.0
C106 C 0.11161 0.60694 0.33369 0.0
O107 O 0.11013 0.61615 0.35726 0.0
N108 N 0.16736 0.62643 0.35273 0.0
C109 C 0.16635 0.66913 0.34768 0.0
C110 C 0.156 0.64612 0.33991 0.0
C111 C 0.18567 0.63828 0.36718 0.0
N112 N 0.1852 0.66428 0.3648 0.0
O113 O 0.18442 0.59878 0.31329 0.0
H114 H 0.14297 0.64419 0.32381 0.0
H115 H 0.2005 0.62797 0.37752 0.0
O116 O 0.13255 0.59634 0.32601 0.0
C117 C 0.20857 0.59659 0.31732 0.0
O118 O 0.21624 0.58922 0.34035 0.0
N119 N 0.14896 0.58191 0.37558 0.0
C120 C 0.13418 0.55832 0.42205 0.0
C121 C 0.11994 0.55437 0.39937 0.0
C122 C 0.12773 0.56618 0.37632 0.0
C123 C 0.16282 0.58599 0.39756 0.0
C124 C 0.15552 0.57487 0.42099 0.0
H125 H 0.11769 0.5612 0.35875 0.0
H126 H 0.1809 0.59608 0.3968 0.0
H127 H 0.14371 0.55622 0.29924 0.0
H128 H 0.17849 0.49515 0.33976 0.0
H129 H 0.16194 0.68777 0.33941 0.0
H130 H 0.10351 0.54145 0.3992 0.0
H131 H 0.16769 0.57773 0.43774 0.0
C132 C 0.03758 0.68188 0.84174 0.0
C133 C 0.01516 0.67831 0.82797 0.0
N134 N 0.01971 0.66064 0.80954 0.0
N135 N 0.05624 0.66674 0.8318 0.0
C136 C 0.04472 0.65392 0.8122 0.0
H137 H 0.04033 0.69506 0.85765 0.0
Co138 Co 0.09067 0.66702 0.84262 0.0
C139 C 0.09928 0.60994 0.83183 0.0
O140 O 0.09848 0.60253 0.85605 0.0
N141 N 0.12548 0.66822 0.85292 0.0
C142 C 0.16551 0.66009 0.86614 0.0
C143 C 0.14198 0.6494 0.86011 0.0
C144 C 0.13946 0.69015 0.85491 0.0
N145 N 0.1639 0.68578 0.86291 0.0
O146 O 0.10022 0.68379 0.811 0.0
H147 H 0.1374 0.62924 0.86157 0.0
H148 H 0.13172 0.70903 0.85066 0.0
O149 O 0.09652 0.63371 0.82594 0.0
C150 C 0.09352 0.70736 0.80944 0.0
O151 O 0.08098 0.71791 0.82874 0.0
N152 N 0.08056 0.65262 0.8748 0.0
C153 C 0.05875 0.6434 0.92344 0.0
C154 C 0.05033 0.62964 0.90171 0.0
C155 C 0.06129 0.63475 0.8775 0.0
C156 C 0.08929 0.66563 0.89594 0.0
C157 C 0.0791 0.66094 0.92037 0.0
H158 H 0.05334 0.62526 0.86072 0.0
H159 H 0.10317 0.68101 0.89389 0.0
H160 H 0.05462 0.64064 0.79952 0.0
H161 H 0.99696 0.68805 0.8311 0.0
H162 H 0.18224 0.64978 0.87315 0.0
H163 H 0.03434 0.61627 0.90306 0.0
H164 H 0.08634 0.67197 0.93656 0.0
C165 C 0.18042 0.47129 0.66228 0.0
C166 C 0.1754 0.49333 0.67607 0.0
N167 N 0.16013 0.48713 0.69621 0.0
N168 N 0.16826 0.45125 0.67354 0.0
C169 C 0.15628 0.46142 0.69434 0.0
H170 H 0.19192 0.46992 0.64491 0.0
Co171 Co 0.16866 0.41762 0.66085 0.0
C172 C 0.11267 0.40572 0.67481 0.0
O173 O 0.10405 0.40688 0.65104 0.0
N174 N 0.17001 0.3836 0.64831 0.0
C175 C 0.16195 0.34493 0.63156 0.0
C176 C 0.15151 0.3684 0.63806 0.0
C177 C 0.1916 0.369 0.64742 0.0
N178 N 0.18722 0.34532 0.63748 0.0
O179 O 0.18793 0.4069 0.69081 0.0
H180 H 0.13185 0.37397 0.63457 0.0
H181 H 0.21024 0.37566 0.65398 0.0
O182 O 0.13658 0.40965 0.67963 0.0
C183 C 0.21116 0.41494 0.69201 0.0
O184 O 0.22016 0.42935 0.67319 0.0
N185 N 0.15156 0.42923 0.6305 0.0
C186 C 0.13691 0.45436 0.58485 0.0
C187 C 0.12474 0.46002 0.60835 0.0
C188 C 0.13248 0.44745 0.63094 0.0
C189 C 0.16337 0.4233 0.60771 0.0
C190 C 0.15608 0.43529 0.58467 0.0
H191 H 0.12391 0.45327 0.64904 0.0
H192 H 0.17961 0.41026 0.60747 0.0
H193 H 0.14444 0.45031 0.70747 0.0
H194 H 0.18257 0.51243 0.67164 0.0
H195 H 0.15186 0.32912 0.6224 0.0
H196 H 0.10989 0.47466 0.60945 0.0
H197 H 0.16653 0.43077 0.56715 0.0
C198 C 0.97131 0.33044 0.84591 0.0
C199 C 0.99368 0.33501 0.83231 0.0
N200 N 0.98793 0.34989 0.81176 0.0
N201 N 0.95157 0.34258 0.83416 0.0
C202 C 0.96222 0.35404 0.81328 0.0
H203 H 0.9695 0.31906 0.86332 0.0
Co204 Co 0.91719 0.34212 0.84509 0.0
C205 C 0.90743 0.39842 0.832 0.0
O206 O 0.90787 0.40643 0.85602 0.0
N207 N 0.88229 0.34071 0.85556 0.0
C208 C 0.84187 0.34858 0.86787 0.0
C209 C 0.86522 0.35948 0.86143 0.0
C210 C 0.8688 0.31861 0.85882 0.0
N211 N 0.84415 0.3228 0.86624 0.0
O212 O 0.90819 0.32349 0.81455 0.0
H213 H 0.86917 0.37981 0.86153 0.0
H214 H 0.87698 0.29971 0.85581 0.0
O215 O 0.91069 0.37456 0.82678 0.0
C216 C 0.914 0.2997 0.8165 0.0
O217 O 0.92515 0.29175 0.83785 0.0
N218 N 0.92704 0.3582 0.87647 0.0
C219 C 0.9508 0.36785 0.92399 0.0
C220 C 0.95812 0.38166 0.90189 0.0
C221 C 0.94617 0.37636 0.87822 0.0
C222 C 0.91901 0.34555 0.89814 0.0
C223 C 0.93023 0.35043 0.92205 0.0
H224 H 0.95356 0.38556 0.86101 0.0
H225 H 0.90521 0.33003 0.89683 0.0
H226 H 0.95133 0.36541 0.79959 0.0
H227 H 0.0126 0.32757 0.83701 0.0
H228 H 0.82476 0.35888 0.8739 0.0
H229 H 0.9742 0.39498 0.90242 0.0
H230 H 0.92387 0.33939 0.93862 0.0
C231 C 0.82658 0.53817 0.66335 0.0
C232 C 0.8313 0.51631 0.67759 0.0
N233 N 0.8474 0.5225 0.69704 0.0
N234 N 0.83972 0.55806 0.67365 0.0
C235 C 0.85206 0.54801 0.6943 0.0
H236 H 0.81461 0.53948 0.64631 0.0
Co237 Co 0.84017 0.59105 0.65961 0.0
C238 C 0.89406 0.60857 0.67319 0.0
O239 O 0.9001 0.61346 0.64913 0.0
N240 N 0.83986 0.62493 0.64488 0.0
C241 C 0.84631 0.65826 0.61833 0.0
C242 C 0.85481 0.63434 0.62558 0.0
C243 C 0.82227 0.64393 0.64882 0.0
N244 N 0.82574 0.66426 0.63287 0.0
O245 O 0.82019 0.60294 0.68844 0.0
H246 H 0.8699 0.62396 0.61574 0.0
H247 H 0.80614 0.6424 0.66192 0.0
O248 O 0.87192 0.59926 0.67889 0.0
C249 C 0.79623 0.59794 0.68594 0.0
O250 O 0.78846 0.58679 0.66454 0.0
N251 N 0.85744 0.57769 0.63068 0.0
C252 C 0.87312 0.55194 0.58606 0.0
C253 C 0.88766 0.55014 0.60886 0.0
C254 C 0.8794 0.56313 0.63112 0.0
C255 C 0.84273 0.57884 0.60892 0.0
C256 C 0.85049 0.56667 0.5863 0.0
H257 H 0.88994 0.56056 0.64893 0.0
H258 H 0.82446 0.58891 0.60933 0.0
H259 H 0.86466 0.55901 0.70672 0.0
H260 H 0.82336 0.49737 0.67393 0.0
H261 H 0.85396 0.66984 0.60271 0.0
H262 H 0.90495 0.53846 0.60959 0.0
H263 H 0.83822 0.56785 0.56942 0.0
C264 C 0.1665 0.03435 0.32344 0.0
C265 C 0.18031 0.01229 0.32829 0.0
N266 N 0.19972 0.01815 0.34457 0.0
N267 N 0.17703 0.05409 0.33665 0.0
C268 C 0.19741 0.04371 0.34917 0.0
H269 H 0.14951 0.03591 0.31143 0.0
Co270 Co 0.16335 0.08733 0.33723 0.0
C271 C 0.17584 0.09898 0.39343 0.0
O272 O 0.15179 0.0981 0.40127 0.0
N273 N 0.14955 0.12108 0.33718 0.0
C274 C 0.12646 0.15616 0.34607 0.0
C275 C 0.13414 0.13245 0.35489 0.0
C276 C 0.15093 0.13851 0.31774 0.0
N277 N 0.13703 0.15996 0.3227 0.0
O278 O 0.19313 0.09961 0.31866 0.0
H279 H 0.12713 0.12356 0.37229 0.0
H280 H 0.16073 0.13503 0.29965 0.0
O281 O 0.18144 0.0948 0.36975 0.0
C282 C 0.19415 0.09253 0.29513 0.0
O283 O 0.17524 0.07855 0.28571 0.0
N284 N 0.13336 0.07406 0.35338 0.0
C285 C 0.08776 0.04921 0.36824 0.0
C286 C 0.11112 0.04395 0.38087 0.0
C287 C 0.13377 0.05634 0.37294 0.0
C288 C 0.11092 0.07883 0.34049 0.0
C289 C 0.08788 0.06706 0.34791 0.0
H290 H 0.1518 0.05111 0.38201 0.0
H291 H 0.11099 0.09124 0.32372 0.0
H292 H 0.20982 0.05448 0.36201 0.0
H293 H 0.17634 0.9934 0.3204 0.0
H294 H 0.11333 0.16922 0.35569 0.0
H295 H 0.11199 0.03002 0.39642 0.0
H296 H 0.07053 0.07102 0.33696 0.0
C297 C 0.53559 0.34349 0.18075 0.0
C298 C 0.51378 0.32932 0.1756 0.0
N299 N 0.52028 0.30971 0.15985 0.0
N300 N 0.5558 0.33301 0.16824 0.0
C301 C 0.54596 0.3123 0.15584 0.0
H302 H 0.53666 0.36059 0.19262 0.0
Co303 Co 0.5889 0.34707 0.16879 0.0
C304 C 0.60805 0.33353 0.11545 0.0
O305 O 0.6135 0.35749 0.10961 0.0
N306 N 0.62283 0.36186 0.17021 0.0
C307 C 0.65619 0.38864 0.16493 0.0
C308 C 0.63265 0.38116 0.15554 0.0
C309 C 0.6412 0.35818 0.18857 0.0
N310 N 0.66154 0.37429 0.18581 0.0
O311 O 0.60032 0.31828 0.18886 0.0
H312 H 0.62275 0.39089 0.14005 0.0
H313 H 0.63913 0.34519 0.20473 0.0
O314 O 0.59796 0.32793 0.13726 0.0
C315 C 0.59454 0.32018 0.21269 0.0
O316 O 0.58269 0.34112 0.22057 0.0
N317 N 0.57605 0.37594 0.15115 0.0
C318 C 0.55116 0.42052 0.13423 0.0
C319 C 0.54975 0.39768 0.11976 0.0
C320 C 0.5623 0.37544 0.12866 0.0
C321 C 0.57675 0.39773 0.16579 0.0
C322 C 0.565 0.42034 0.15743 0.0
H323 H 0.56005 0.35762 0.11812 0.0
H324 H 0.58617 0.39737 0.18441 0.0
H325 H 0.55726 0.29969 0.14371 0.0
H326 H 0.49466 0.33311 0.18306 0.0
H327 H 0.66791 0.40434 0.15766 0.0
H328 H 0.53872 0.39692 0.10204 0.0
H329 H 0.56581 0.43727 0.16962 0.0
C330 C 0.84498 0.97178 0.32826 0.0
C331 C 0.83162 0.9943 0.33246 0.0
N332 N 0.81114 0.98899 0.34761 0.0
N333 N 0.83314 0.95238 0.34088 0.0
C334 C 0.81243 0.96337 0.35224 0.0
H335 H 0.86243 0.96966 0.31699 0.0
Co336 Co 0.84439 0.91824 0.34177 0.0
C337 C 0.82986 0.90893 0.39775 0.0
O338 O 0.85389 0.90866 0.40575 0.0
N339 N 0.8553 0.88351 0.34152 0.0
C340 C 0.86438 0.84237 0.34971 0.0
C341 C 0.85821 0.86579 0.36041 0.0
C342 C 0.86016 0.87028 0.31958 0.0
N343 N 0.86548 0.84512 0.3239 0.0
O344 O 0.81468 0.90839 0.32196 0.0
H345 H 0.85548 0.86896 0.38069 0.0
H346 H 0.85969 0.87909 0.30071 0.0
O347 O 0.82476 0.91221 0.3738 0.0
C348 C 0.8174 0.91309 0.29796 0.0
O349 O 0.83883 0.92424 0.29021 0.0
N350 N 0.87486 0.9289 0.35914 0.0
C351 C 0.92149 0.95203 0.37382 0.0
C352 C 0.89808 0.95962 0.38509 0.0
C353 C 0.875 0.94806 0.37728 0.0
C354 C 0.89755 0.92104 0.34833 0.0
C355 C 0.92103 0.93205 0.35563 0.0
H356 H 0.85708 0.95526 0.38514 0.0
H357 H 0.89752 0.9073 0.3327 0.0
H358 H 0.79885 0.95288 0.36413 0.0
H359 H 0.83654 0.01307 0.32477 0.0
H360 H 0.86699 0.82455 0.36025 0.0
H361 H 0.89747 0.97499 0.39921 0.0
H362 H 0.93847 0.92606 0.34581 0.0
C363 C 0.46978 0.66097 0.17883 0.0
C364 C 0.49192 0.67493 0.17441 0.0
N365 N 0.48597 0.69521 0.15925 0.0
N366 N 0.44996 0.67222 0.16636 0.0
C367 C 0.46033 0.69321 0.15483 0.0
H368 H 0.4682 0.64354 0.19018 0.0
Co369 Co 0.41618 0.65969 0.16623 0.0
C370 C 0.4051 0.67414 0.11041 0.0
O371 O 0.40632 0.65034 0.10197 0.0
N372 N 0.38184 0.64734 0.16723 0.0
C373 C 0.34245 0.63231 0.15879 0.0
C374 C 0.36579 0.63937 0.1483 0.0
C375 C 0.36777 0.64453 0.18906 0.0
N376 N 0.34369 0.6356 0.1845 0.0
O377 O 0.40576 0.6891 0.18615 0.0
H378 H 0.37049 0.63809 0.12817 0.0
H379 H 0.37504 0.64906 0.20805 0.0
O380 O 0.40859 0.67909 0.13436 0.0
C381 C 0.41147 0.68724 0.21001 0.0
O382 O 0.42336 0.66632 0.21796 0.0
N383 N 0.4276 0.62967 0.14857 0.0
C384 C 0.45137 0.58399 0.13228 0.0
C385 C 0.45815 0.60777 0.12131 0.0
C386 C 0.44631 0.63037 0.12994 0.0
C387 C 0.42066 0.60663 0.15928 0.0
C388 C 0.43198 0.58359 0.15116 0.0
H389 H 0.45283 0.64858 0.12216 0.0
H390 H 0.40731 0.60606 0.17528 0.0
H391 H 0.44938 0.70646 0.14302 0.0
H392 H 0.51086 0.67058 0.18201 0.0
H393 H 0.32605 0.62478 0.14829 0.0
H394 H 0.47306 0.60906 0.10672 0.0
H395 H 0.42667 0.56582 0.16078 0.0
C396 C 0.16276 0.968 0.68241 0.0
C397 C 0.1761 0.99053 0.67804 0.0
N398 N 0.19555 0.98552 0.66152 0.0
N399 N 0.17364 0.94889 0.6686 0.0
C400 C 0.19372 0.96006 0.65627 0.0
H401 H 0.14593 0.96571 0.69455 0.0
Co402 Co 0.1614 0.91511 0.66719 0.0
C403 C 0.1754 0.90607 0.61077 0.0
O404 O 0.15168 0.90736 0.60204 0.0
N405 N 0.1492 0.88071 0.66627 0.0
C406 C 0.12838 0.84466 0.6556 0.0
C407 C 0.1355 0.86885 0.64751 0.0
C408 C 0.15016 0.8631 0.68557 0.0
N409 N 0.13767 0.84107 0.67954 0.0
O410 O 0.19135 0.90404 0.68585 0.0
H411 H 0.12943 0.87761 0.6297 0.0
H412 H 0.15861 0.86674 0.70427 0.0
O413 O 0.18005 0.90912 0.6348 0.0
C414 C 0.1892 0.90853 0.70994 0.0
O415 O 0.16763 0.91888 0.71834 0.0
N416 N 0.1309 0.92725 0.6513 0.0
C417 C 0.08462 0.95308 0.64137 0.0
C418 C 0.10696 0.95896 0.62723 0.0
C419 C 0.13007 0.94607 0.63279 0.0
C420 C 0.10912 0.92101 0.6647 0.0
C421 C 0.08577 0.93326 0.65971 0.0
H422 H 0.14761 0.95239 0.62342 0.0
H423 H 0.11009 0.90751 0.68056 0.0
H424 H 0.20636 0.94987 0.64319 0.0
H425 H 0.17182 0.00911 0.68649 0.0
H426 H 0.11658 0.83106 0.64503 0.0
H427 H 0.10705 0.97457 0.61335 0.0
H428 H 0.06902 0.92814 0.67113 0.0
C429 C 0.46886 0.33617 0.81959 0.0
C430 C 0.49048 0.32137 0.82375 0.0
N431 N 0.48577 0.30576 0.84394 0.0
N432 N 0.45049 0.32961 0.83683 0.0
C433 C 0.46144 0.31103 0.85153 0.0
H434 H 0.46661 0.35079 0.80488 0.0
Co435 Co 0.41753 0.34407 0.83754 0.0
C436 C 0.40412 0.33063 0.89303 0.0
O437 O 0.40401 0.35463 0.90096 0.0
N438 N 0.38375 0.35875 0.83754 0.0
C439 C 0.34946 0.38335 0.84607 0.0
C440 C 0.3732 0.37537 0.85469 0.0
C441 C 0.36566 0.35699 0.81868 0.0
N442 N 0.34474 0.37176 0.8234 0.0
O443 O 0.40512 0.31517 0.81804 0.0
H444 H 0.38272 0.38295 0.87152 0.0
H445 H 0.36819 0.3463 0.80102 0.0
O446 O 0.40933 0.32533 0.8695 0.0
C447 C 0.40941 0.31782 0.79395 0.0
O448 O 0.41978 0.33951 0.78589 0.0
N449 N 0.43132 0.37321 0.85437 0.0
C450 C 0.4568 0.41807 0.86998 0.0
C451 C 0.46104 0.39464 0.88285 0.0
C452 C 0.44826 0.37232 0.87458 0.0
C453 C 0.42776 0.39567 0.84117 0.0
C454 C 0.43979 0.41838 0.84898 0.0
H455 H 0.45257 0.35421 0.88393 0.0
H456 H 0.41598 0.39586 0.82395 0.0
H457 H 0.45178 0.30124 0.86725 0.0
H458 H 0.50837 0.32215 0.81298 0.0
H459 H 0.33705 0.39736 0.8553 0.0
H460 H 0.47442 0.39348 0.89886 0.0
H461 H 0.43669 0.43582 0.83789 0.0
C462 C 0.84596 0.03981 0.68197 0.0
C463 C 0.83276 0.01715 0.67788 0.0
N464 N 0.81216 0.02224 0.66285 0.0
N465 N 0.8339 0.05906 0.66935 0.0
C466 C 0.81323 0.04784 0.65813 0.0
H467 H 0.86336 0.04216 0.69324 0.0
Co468 Co 0.84423 0.0935 0.66856 0.0
C469 C 0.83063 0.10137 0.6121 0.0
O470 O 0.85471 0.10119 0.60421 0.0
N471 N 0.85408 0.1285 0.66868 0.0
C472 C 0.86478 0.16908 0.65956 0.0
C473 C 0.85817 0.14553 0.64936 0.0
C474 C 0.85848 0.14224 0.69039 0.0
N475 N 0.865 0.16697 0.68542 0.0
O476 O 0.81375 0.1025 0.68756 0.0
H477 H 0.85682 0.14151 0.62907 0.0
H478 H 0.85693 0.13418 0.70957 0.0
O479 O 0.82536 0.09875 0.63608 0.0
C480 C 0.81612 0.09751 0.71154 0.0
O481 O 0.83783 0.08718 0.71958 0.0
N482 N 0.87561 0.08369 0.65221 0.0
C483 C 0.92355 0.06104 0.6418 0.0
C484 C 0.90123 0.05255 0.62908 0.0
C485 C 0.87739 0.06396 0.63475 0.0
C486 C 0.89741 0.09274 0.66387 0.0
C487 C 0.92149 0.0821 0.65857 0.0
H488 H 0.86015 0.05582 0.62628 0.0
H489 H 0.89621 0.10704 0.67891 0.0
H490 H 0.79942 0.0582 0.64642 0.0
H491 H 0.8378 0.99845 0.68565 0.0
H492 H 0.86961 0.18626 0.64871 0.0
H493 H 0.90182 0.03606 0.61629 0.0
H494 H 0.93821 0.0894 0.66877 0.0
C495 C 0.53715 0.65797 0.82985 0.0
C496 C 0.51474 0.67132 0.83463 0.0
N497 N 0.52041 0.69177 0.84963 0.0
N498 N 0.55689 0.66978 0.84194 0.0
C499 C 0.54618 0.69047 0.8536 0.0
H500 H 0.539 0.64061 0.81845 0.0
Co501 Co 0.59106 0.65841 0.84137 0.0
C502 C 0.60249 0.67283 0.89715 0.0
O503 O 0.60238 0.64898 0.90561 0.0
N504 N 0.62574 0.6473 0.83963 0.0
C505 C 0.66615 0.63468 0.847 0.0
C506 C 0.6429 0.6409 0.85817 0.0
C507 C 0.63907 0.64442 0.81735 0.0
N508 N 0.66374 0.63694 0.82125 0.0
O509 O 0.60026 0.68833 0.82172 0.0
H510 H 0.63912 0.64038 0.87854 0.0
H511 H 0.63085 0.64798 0.79854 0.0
O512 O 0.59845 0.67765 0.87326 0.0
C513 C 0.59433 0.6867 0.79792 0.0
O514 O 0.58266 0.66572 0.78981 0.0
N515 N 0.58096 0.62782 0.85884 0.0
C516 C 0.55841 0.58118 0.87426 0.0
C517 C 0.5513 0.60448 0.88597 0.0
C518 C 0.56257 0.62758 0.8778 0.0
C519 C 0.58832 0.60524 0.84753 0.0
C520 C 0.57761 0.58174 0.85519 0.0
H521 H 0.55571 0.64543 0.88605 0.0
H522 H 0.60142 0.60541 0.83132 0.0
H523 H 0.557 0.70407 0.86512 0.0
H524 H 0.49579 0.66647 0.82732 0.0
H525 H 0.68335 0.62853 0.85709 0.0
H526 H 0.53651 0.605 0.90072 0.0
H527 H 0.58317 0.56437 0.84504 0.0
C528 C 0.32722 0.16188 0.03556 0.0
C529 C 0.33158 0.17585 0.01342 0.0
N530 N 0.34739 0.19567 0.01918 0.0
N531 N 0.34033 0.17269 0.05521 0.0
C532 C 0.35225 0.1934 0.04474 0.0
H533 H 0.31552 0.1447 0.03723 0.0
Co534 Co 0.34105 0.15949 0.08869 0.0
C535 C 0.3968 0.17353 0.10071 0.0
O536 O 0.40512 0.14966 0.10064 0.0
N537 N 0.34102 0.14617 0.12289 0.0
C538 C 0.34988 0.12378 0.15857 0.0
C539 C 0.35875 0.13107 0.13466 0.0
C540 C 0.32156 0.14774 0.14031 0.0
N541 N 0.32649 0.13434 0.16211 0.0
O542 O 0.32172 0.1888 0.10015 0.0
H543 H 0.37626 0.12408 0.12597 0.0
H544 H 0.30343 0.15731 0.1367 0.0
O545 O 0.37307 0.17847 0.09607 0.0
C546 C 0.29772 0.18695 0.09513 0.0
O547 O 0.28941 0.16599 0.08356 0.0
N548 N 0.35791 0.12974 0.07605 0.0
C549 C 0.37285 0.08422 0.05127 0.0
C550 C 0.38544 0.10759 0.04594 0.0
C551 C 0.37752 0.13021 0.05837 0.0
C552 C 0.34519 0.10724 0.08098 0.0
C553 C 0.35266 0.08425 0.06927 0.0
H554 H 0.38645 0.14828 0.05303 0.0
H555 H 0.32839 0.10725 0.09336 0.0
H556 H 0.3647 0.20622 0.05549 0.0
H557 H 0.32356 0.1718 0.99458 0.0
H558 H 0.35952 0.11099 0.17196 0.0
H559 H 0.40087 0.10851 0.03187 0.0
H560 H 0.34176 0.06687 0.07329 0.0
C561 C 0.32824 0.84452 0.96929 0.0
C562 C 0.33245 0.83121 0.99187 0.0
N563 N 0.3476 0.81076 0.98662 0.0
N564 N 0.34084 0.83267 0.9499 0.0
C565 C 0.35222 0.81201 0.96096 0.0
H566 H 0.31695 0.86191 0.96711 0.0
Co567 Co 0.34139 0.84408 0.91576 0.0
C568 C 0.39725 0.82942 0.90568 0.0
O569 O 0.40541 0.85338 0.90553 0.0
N570 N 0.3407 0.85528 0.88108 0.0
C571 C 0.34849 0.86622 0.84022 0.0
C572 C 0.35944 0.8592 0.86335 0.0
C573 C 0.3186 0.86031 0.86816 0.0
N574 N 0.32273 0.86687 0.84326 0.0
O575 O 0.32144 0.81445 0.90596 0.0
H576 H 0.37981 0.85708 0.86647 0.0
H577 H 0.29971 0.85878 0.87684 0.0
O578 O 0.37331 0.82442 0.90924 0.0
C579 C 0.29749 0.81679 0.91111 0.0
O580 O 0.28968 0.83799 0.92256 0.0
N581 N 0.359 0.87445 0.9264 0.0
C582 C 0.37434 0.92083 0.94955 0.0
C583 C 0.38551 0.89733 0.95693 0.0
C584 C 0.37739 0.87438 0.94535 0.0
C585 C 0.34824 0.89723 0.91877 0.0
C586 C 0.35587 0.92059 0.92979 0.0
H587 H 0.38523 0.8564 0.95237 0.0
H588 H 0.33244 0.89737 0.90521 0.0
H589 H 0.36408 0.79844 0.95049 0.0
H590 H 0.32472 0.83612 0.01063 0.0
H591 H 0.35879 0.87068 0.8226 0.0
H592 H 0.39982 0.89654 0.97213 0.0
H593 H 0.34613 0.93811 0.92397 0.0
C594 C 0.34373 0.17912 0.53553 0.0
C595 C 0.33045 0.17469 0.51299 0.0
N596 N 0.31028 0.15914 0.5183 0.0
N597 N 0.33214 0.16629 0.55495 0.0
C598 C 0.31163 0.15453 0.54395 0.0
H599 H 0.36099 0.19066 0.53764 0.0
Co600 Co 0.34395 0.16573 0.58895 0.0
C601 C 0.32947 0.10991 0.59911 0.0
O602 O 0.35344 0.10177 0.59835 0.0
N603 N 0.35556 0.16635 0.62353 0.0
C604 C 0.36775 0.158 0.66391 0.0
C605 C 0.36078 0.14737 0.64064 0.0
C606 C 0.35986 0.18829 0.63694 0.0
N607 N 0.36712 0.18381 0.66158 0.0
O608 O 0.31444 0.18568 0.59904 0.0
H609 H 0.35978 0.12704 0.63692 0.0
H610 H 0.3574 0.2073 0.62883 0.0
O611 O 0.32434 0.13383 0.59584 0.0
C612 C 0.31717 0.20956 0.59389 0.0
O613 O 0.33858 0.21708 0.58252 0.0
N614 N 0.3742 0.1482 0.57792 0.0
C615 C 0.42038 0.13299 0.5543 0.0
C616 C 0.39679 0.12195 0.54699 0.0
C617 C 0.37394 0.13002 0.55879 0.0
C618 C 0.39707 0.15888 0.58542 0.0
C619 C 0.42034 0.15131 0.57418 0.0
H620 H 0.35587 0.12223 0.55187 0.0
H621 H 0.39735 0.17457 0.5991 0.0
H622 H 0.29833 0.14232 0.55443 0.0
H623 H 0.33524 0.18246 0.49421 0.0
H624 H 0.37316 0.14748 0.68112 0.0
H625 H 0.39586 0.10776 0.5317 0.0
H626 H 0.43796 0.16095 0.57993 0.0
C627 C 0.68421 0.16653 0.97171 0.0
C628 C 0.68148 0.18074 0.99394 0.0
N629 N 0.66341 0.19886 0.98974 0.0
N630 N 0.66814 0.17586 0.95351 0.0
C631 C 0.65565 0.1956 0.9651 0.0
H632 H 0.69733 0.1506 0.9688 0.0
Co633 Co 0.66693 0.16379 0.9196 0.0
C634 C 0.61063 0.17544 0.91003 0.0
O635 O 0.60436 0.15092 0.90921 0.0
N636 N 0.66711 0.15197 0.8849 0.0
C637 C 0.65918 0.14254 0.84367 0.0
C638 C 0.64847 0.14999 0.86673 0.0
C639 C 0.68898 0.14555 0.8721 0.0
N640 N 0.68475 0.13987 0.84699 0.0
O641 O 0.68566 0.19386 0.90867 0.0
H642 H 0.6284 0.15429 0.86915 0.0
H643 H 0.70784 0.14572 0.88095 0.0
O644 O 0.6341 0.18218 0.91382 0.0
C645 C 0.70985 0.19163 0.91255 0.0
O646 O 0.71837 0.1703 0.92326 0.0
N647 N 0.6507 0.13306 0.9314 0.0
C648 C 0.63702 0.08664 0.95561 0.0
C649 C 0.62547 0.10996 0.96293 0.0
C650 C 0.63273 0.13295 0.95078 0.0
C651 C 0.66193 0.11047 0.92396 0.0
C652 C 0.65512 0.08709 0.9355 0.0
H653 H 0.62445 0.15081 0.95755 0.0
H654 H 0.67743 0.11052 0.91007 0.0
H655 H 0.64169 0.20781 0.95557 0.0
H656 H 0.69193 0.17801 0.01182 0.0
H657 H 0.64883 0.13957 0.82579 0.0
H658 H 0.61141 0.11058 0.97838 0.0
H659 H 0.66514 0.06972 0.9297 0.0
C660 C 0.66302 0.83012 0.54138 0.0
C661 C 0.67617 0.83532 0.51892 0.0
N662 N 0.69634 0.85074 0.52457 0.0
N663 N 0.67468 0.84235 0.56113 0.0
C664 C 0.69507 0.85454 0.55036 0.0
H665 H 0.6459 0.81833 0.54327 0.0
Co666 Co 0.66368 0.8415 0.59546 0.0
C667 C 0.67591 0.89791 0.60581 0.0
O668 O 0.65177 0.90556 0.60544 0.0
N669 N 0.65306 0.83969 0.63012 0.0
C670 C 0.64014 0.84692 0.67043 0.0
C671 C 0.64657 0.85818 0.64727 0.0
C672 C 0.6502 0.81739 0.64333 0.0
N673 N 0.6424 0.82122 0.66791 0.0
O674 O 0.69458 0.82334 0.60465 0.0
H675 H 0.64598 0.87853 0.64349 0.0
H676 H 0.65378 0.79864 0.63497 0.0
O677 O 0.6815 0.87417 0.60228 0.0
C678 C 0.69475 0.79996 0.59716 0.0
O679 O 0.67472 0.79103 0.58444 0.0
N680 N 0.63214 0.85723 0.58551 0.0
C681 C 0.58472 0.86713 0.56165 0.0
C682 C 0.60681 0.88115 0.55473 0.0
C683 C 0.63041 0.8757 0.56669 0.0
C684 C 0.61051 0.84426 0.59311 0.0
C685 C 0.58664 0.84922 0.58181 0.0
H686 H 0.64761 0.88515 0.55959 0.0
H687 H 0.61185 0.82854 0.60669 0.0
H688 H 0.70849 0.86629 0.56117 0.0
H689 H 0.6714 0.82802 0.49996 0.0
H690 H 0.63362 0.8569 0.68756 0.0
H691 H 0.60632 0.89483 0.53894 0.0
H692 H 0.57008 0.83798 0.58784 0.0
C693 C 0.67856 0.84381 0.03696 0.0
C694 C 0.67363 0.83003 0.01485 0.0
N695 N 0.65872 0.80964 0.02106 0.0
N696 N 0.66667 0.83231 0.05704 0.0
C697 C 0.65494 0.81141 0.04683 0.0
H698 H 0.68995 0.86123 0.03837 0.0
Co699 Co 0.66741 0.84427 0.09101 0.0
C700 C 0.61103 0.83117 0.1023 0.0
O701 O 0.60272 0.85504 0.10137 0.0
N702 N 0.66909 0.85597 0.12533 0.0
C703 C 0.66129 0.87146 0.1646 0.0
C704 C 0.65056 0.8651 0.14119 0.0
C705 C 0.69096 0.8573 0.13951 0.0
N706 N 0.68675 0.86654 0.16353 0.0
O707 O 0.68593 0.81374 0.10112 0.0
H708 H 0.63064 0.86783 0.13618 0.0
H709 H 0.70966 0.85158 0.13226 0.0
O710 O 0.63491 0.82612 0.09855 0.0
C711 C 0.70905 0.81198 0.09292 0.0
O712 O 0.71847 0.83059 0.07851 0.0
N713 N 0.65108 0.87523 0.08014 0.0
C714 C 0.63732 0.92203 0.05682 0.0
C715 C 0.62473 0.89903 0.05017 0.0
C716 C 0.63204 0.87583 0.06185 0.0
C717 C 0.66337 0.8975 0.08691 0.0
C718 C 0.65654 0.92107 0.07584 0.0
H719 H 0.62313 0.85815 0.05534 0.0
H720 H 0.67963 0.89694 0.09993 0.0
H721 H 0.64353 0.79797 0.05802 0.0
H722 H 0.68078 0.83453 0.99575 0.0
H723 H 0.65121 0.87984 0.18084 0.0
H724 H 0.60985 0.89879 0.03551 0.0
H725 H 0.66736 0.93816 0.08105 0.0
C726 C 0.34635 0.82707 0.47202 0.0
C727 C 0.33263 0.83215 0.49418 0.0
N728 N 0.31243 0.84731 0.48802 0.0
N729 N 0.33503 0.83918 0.452 0.0
C730 C 0.31428 0.85112 0.46227 0.0
H731 H 0.36356 0.81539 0.47053 0.0
Co732 Co 0.34619 0.83823 0.41776 0.0
C733 C 0.33395 0.89461 0.40718 0.0
O734 O 0.35811 0.90222 0.40778 0.0
N735 N 0.35687 0.83632 0.38295 0.0
C736 C 0.36943 0.84383 0.34252 0.0
C737 C 0.36315 0.85492 0.36578 0.0
C738 C 0.35978 0.81411 0.3696 0.0
N739 N 0.3673 0.8181 0.34494 0.0
O740 O 0.31547 0.81972 0.40888 0.0
H741 H 0.36362 0.87526 0.36959 0.0
H742 H 0.35637 0.79528 0.37786 0.0
O743 O 0.32825 0.87085 0.41064 0.0
C744 C 0.31699 0.79595 0.41495 0.0
O745 O 0.33825 0.78768 0.42602 0.0
N746 N 0.37767 0.8542 0.42763 0.0
C747 C 0.42515 0.86441 0.45127 0.0
C748 C 0.40297 0.87813 0.45842 0.0
C749 C 0.37935 0.87253 0.44656 0.0
C750 C 0.39937 0.84151 0.41983 0.0
C751 C 0.42326 0.84665 0.431 0.0
H752 H 0.36212 0.88178 0.45378 0.0
H753 H 0.3981 0.82586 0.40619 0.0
H754 H 0.30092 0.8626 0.4511 0.0
H755 H 0.337 0.82488 0.51326 0.0
H756 H 0.37566 0.85396 0.32534 0.0
H757 H 0.40344 0.89168 0.47429 0.0
H758 H 0.43989 0.83565 0.42478 0.0
C759 C 0.6607 0.17984 0.4719 0.0
C760 C 0.67415 0.1751 0.49428 0.0
N761 N 0.69438 0.15979 0.4886 0.0
N762 N 0.67223 0.16742 0.45221 0.0
C763 C 0.69287 0.15562 0.46289 0.0
H764 H 0.6434 0.19133 0.47007 0.0
Co765 Co 0.66039 0.16751 0.41825 0.0
C766 C 0.67475 0.11187 0.40713 0.0
O767 O 0.65077 0.1037 0.40746 0.0
N768 N 0.64876 0.16881 0.38374 0.0
C769 C 0.6369 0.16144 0.34308 0.0
C770 C 0.644 0.15025 0.36607 0.0
C771 C 0.6441 0.19106 0.37094 0.0
N772 N 0.63702 0.18717 0.34616 0.0
O773 O 0.68998 0.18744 0.40844 0.0
H774 H 0.64547 0.12985 0.36917 0.0
H775 H 0.64623 0.20987 0.37959 0.0
O776 O 0.67985 0.13572 0.4109 0.0
C777 C 0.68777 0.21127 0.414 0.0
O778 O 0.66659 0.219 0.42561 0.0
N779 N 0.6301 0.14984 0.429 0.0
C780 C 0.58392 0.13411 0.45235 0.0
C781 C 0.60749 0.12288 0.45938 0.0
C782 C 0.63035 0.13119 0.44771 0.0
C783 C 0.60724 0.16072 0.42177 0.0
C784 C 0.58397 0.1529 0.43289 0.0
H785 H 0.6484 0.12324 0.45443 0.0
H786 H 0.60699 0.17672 0.40844 0.0
H787 H 0.7062 0.14374 0.45212 0.0
H788 H 0.66947 0.18254 0.5132 0.0
H789 H 0.63181 0.15133 0.32555 0.0
H790 H 0.6084 0.10833 0.47435 0.0
H791 H 0.56637 0.1627 0.42737 0.0
H792 H 0.14684 0.53025 0.26279 0.0
H793 H 0.10832 0.38456 0.22872 0.0
H794 H 0.1483 0.46836 0.31847 0.0
H795 H 0.1117 0.44621 0.17278 0.0
H796 H 0.1208 0.41517 0.26241 0.0
H797 H 0.13181 0.49997 0.23016 0.0
C798 C 0.14385 0.51034 0.26825 0.0
C799 C 0.14889 0.5019 0.2935 0.0
C800 C 0.11875 0.42199 0.24277 0.0
C801 C 0.13184 0.46692 0.25599 0.0
C802 C 0.11158 0.40453 0.22352 0.0
C803 C 0.10907 0.41277 0.19782 0.0
C804 C 0.12339 0.4479 0.2363 0.0
C805 C 0.1135 0.4389 0.19227 0.0
C806 C 0.13539 0.49299 0.24952 0.0
C807 C 0.14501 0.4757 0.29922 0.0
N808 N 0.12048 0.45547 0.21131 0.0
N809 N 0.13671 0.45916 0.28063 0.0
H810 H 0.96937 0.35606 0.1896 0.0
H811 H 0.9486 0.39756 0.33682 0.0
H812 H 0.03076 0.36074 0.24563 0.0
H813 H 0.88703 0.3962 0.28073 0.0
H814 H 0.97894 0.385 0.30325 0.0
H815 H 0.93902 0.37129 0.22225 0.0
C816 C 0.9765 0.36019 0.20877 0.0
C817 C 1.00273 0.35694 0.21484 0.0
C818 C 0.95882 0.3875 0.2982 0.0
C819 C 0.96799 0.37467 0.25235 0.0
C820 C 0.94141 0.39468 0.31741 0.0
C821 C 0.91513 0.39783 0.31166 0.0
C822 C 0.94999 0.38331 0.27296 0.0
C823 C 0.90709 0.39393 0.28608 0.0
C824 C 0.95914 0.36905 0.22738 0.0
C825 C 0.01084 0.36312 0.23994 0.0
N826 N 0.92444 0.38676 0.2677 0.0
N827 N 0.99354 0.37156 0.25775 0.0
H828 H 0.86232 0.47453 0.26141 0.0
H829 H 0.89871 0.62108 0.22778 0.0
H830 H 0.8577 0.53699 0.31613 0.0
H831 H 0.898 0.55978 0.1715 0.0
H832 H 0.88628 0.59 0.26104 0.0
H833 H 0.87808 0.50489 0.22886 0.0
C834 C 0.86476 0.49457 0.26666 0.0
C835 C 0.8585 0.50319 0.29156 0.0
C836 C 0.8889 0.58333 0.24142 0.0
C837 C 0.87641 0.53815 0.2543 0.0
C838 C 0.89604 0.60108 0.22241 0.0
C839 C 0.89929 0.59309 0.19673 0.0
C840 C 0.88501 0.55736 0.23478 0.0
C841 C 0.89563 0.56688 0.19098 0.0
C842 C 0.87364 0.51194 0.24801 0.0
C843 C 0.86183 0.52949 0.29711 0.0
N844 N 0.88863 0.55 0.20982 0.0
N845 N 0.87052 0.54599 0.27867 0.0
H846 H 0.09952 0.58211 0.28837 0.0
H847 H 0.01141 0.69403 0.23535 0.0
H848 H 0.07711 0.64635 0.3362 0.0
H849 H 0.99473 0.6155 0.21425 0.0
H850 H 0.04165 0.67838 0.26823 0.0
H851 H 0.06659 0.59511 0.25662 0.0
C852 C 0.08761 0.59882 0.29223 0.0
C853 C 0.09098 0.61314 0.31496 0.0
C854 C 0.03132 0.66457 0.25644 0.0
C855 C 0.05399 0.62831 0.27869 0.0
C856 C 0.01423 0.67348 0.23768 0.0
C857 C 1.00064 0.65598 0.22223 0.0
C858 C 0.03537 0.63798 0.25931 0.0
C859 C 0.00479 0.62951 0.226 0.0
C860 C 0.06885 0.60614 0.27421 0.0
C861 C 0.07506 0.63464 0.31904 0.0
N862 N 0.02207 0.62124 0.24401 0.0
N863 N 0.05752 0.64176 0.30094 0.0
H864 H 0.15019 0.53814 0.69026 0.0
H865 H 0.10691 0.55792 0.83713 0.0
H866 H 0.1459 0.47606 0.74555 0.0
H867 H 0.10663 0.61865 0.78012 0.0
H868 H 0.12015 0.52743 0.80378 0.0
H869 H 0.13365 0.56768 0.72285 0.0
C870 C 0.14589 0.53071 0.70929 0.0
C871 C 0.14966 0.50456 0.71519 0.0
C872 C 0.11709 0.5474 0.79854 0.0
C873 C 0.1304 0.53836 0.75268 0.0
C874 C 0.10951 0.56485 0.81759 0.0
C875 C 0.10578 0.59096 0.81149 0.0
C876 C 0.12107 0.55609 0.77317 0.0
C877 C 0.10936 0.59875 0.78577 0.0
C878 C 0.13625 0.54759 0.72788 0.0
C879 C 0.14317 0.49599 0.74008 0.0
N880 N 0.11693 0.58143 0.76762 0.0
N881 N 0.134 0.51287 0.75794 0.0
H882 H 0.97671 0.36323 0.76223 0.0
H883 H 0.12322 0.39823 0.72635 0.0
H884 H 0.03963 0.35784 0.81647 0.0
H885 H 0.06061 0.39781 0.67142 0.0
H886 H 0.09274 0.38564 0.76027 0.0
H887 H 0.00695 0.37827 0.7294 0.0
C888 C 0.99683 0.36536 0.76733 0.0
C889 C 0.00556 0.35916 0.79222 0.0
C890 C 0.08569 0.38835 0.74079 0.0
C891 C 0.0405 0.37623 0.7545 0.0
C892 C 0.10309 0.39557 0.72141 0.0
C893 C 0.09453 0.39898 0.69593 0.0
C894 C 0.05953 0.38459 0.73467 0.0
C895 C 0.06818 0.39531 0.69072 0.0
C896 C 0.01417 0.37382 0.74849 0.0
C897 C 0.03203 0.36201 0.7975 0.0
N898 N 0.05168 0.3883 0.70987 0.0
N899 N 0.04853 0.37032 0.77883 0.0
H900 H 0.90003 0.38846 0.7805 0.0
H901 H 0.8636 0.53454 0.74547 0.0
H902 H 0.90007 0.45052 0.83595 0.0
H903 H 0.8553 0.47096 0.69249 0.0
H904 H 0.88041 0.50468 0.77789 0.0
H905 H 0.88703 0.41906 0.74703 0.0
C906 C 0.89743 0.40853 0.78563 0.0
C907 C 0.90099 0.41688 0.81115 0.0
C908 C 0.87493 0.49727 0.75915 0.0
C909 C 0.88608 0.45202 0.77289 0.0
C910 C 0.86545 0.51435 0.74058 0.0
C911 C 0.85785 0.50526 0.71623 0.0
C912 C 0.87697 0.4709 0.75333 0.0
C913 C 0.86047 0.4788 0.71111 0.0
C914 C 0.88995 0.42599 0.76651 0.0
C915 C 0.89741 0.44315 0.8166 0.0
N916 N 0.86979 0.46259 0.72948 0.0
N917 N 0.8901 0.45975 0.79767 0.0
H918 H 0.00987 0.61157 0.79481 0.0
H919 H 0.92682 0.64932 0.67334 0.0
H920 H 0.98906 0.69055 0.78014 0.0
H921 H 0.90352 0.58408 0.71944 0.0
H922 H 0.95752 0.66163 0.70708 0.0
H923 H 0.97827 0.59772 0.76191 0.0
C924 C 0.99872 0.62591 0.78452 0.0
C925 C 1.00188 0.65217 0.79006 0.0
C926 C 0.94568 0.64461 0.70975 0.0
C927 C 0.96645 0.6367 0.75249 0.0
C928 C 0.92828 0.63751 0.69053 0.0
C929 C 0.91258 0.61569 0.69368 0.0
C930 C 0.94798 0.62939 0.73199 0.0
C931 C 0.91515 0.60114 0.71639 0.0
C932 C 0.98068 0.61805 0.766 0.0
C933 C 0.98698 0.67013 0.77643 0.0
N934 N 0.93278 0.60808 0.73464 0.0
N935 N 0.97011 0.6621 0.75804 0.0
H936 H 0.17084 0.1058 0.44547 0.0
H937 H 0.31676 0.15135 0.46682 0.0
H938 H 0.22743 0.1079 0.38434 0.0
H939 H 0.26104 0.14395 0.52827 0.0
H940 H 0.28462 0.13531 0.43635 0.0
H941 H 0.20393 0.11915 0.47602 0.0
C942 C 0.19026 0.10899 0.43844 0.0
C943 C 0.19629 0.10582 0.41221 0.0
C944 C 0.27943 0.13713 0.45651 0.0
C945 C 0.23442 0.12129 0.44728 0.0
C946 C 0.29775 0.14647 0.47393 0.0
C947 C 0.2916 0.14917 0.5002 0.0
C948 C 0.25469 0.1305 0.46535 0.0
C949 C 0.26675 0.14203 0.5083 0.0
C950 C 0.20918 0.11662 0.45596 0.0
C951 C 0.22187 0.11014 0.40435 0.0
N952 N 0.24921 0.13314 0.49094 0.0
N953 N 0.23996 0.11778 0.42179 0.0
H954 H 0.58346 0.28737 0.10631 0.0
H955 H 0.69379 0.22862 0.01954 0.0
H956 H 0.64885 0.33312 0.08265 0.0
H957 H 0.61438 0.2131 1.00068 0.0
H958 H 0.67956 0.26156 0.05046 0.0
H959 H 0.59622 0.25411 0.07486 0.0
C960 C 0.60051 0.29034 0.09462 0.0
C961 C 0.61511 0.31301 0.097 0.0
C962 C 0.66528 0.25092 0.03955 0.0
C963 C 0.62995 0.27511 0.06165 0.0
C964 C 0.67336 0.23216 0.02206 0.0
C965 C 0.65517 0.21835 0.00761 0.0
C966 C 0.63882 0.25535 0.04313 0.0
C967 C 0.62889 0.2236 0.0114 0.0
C968 C 0.60766 0.2715 0.07664 0.0
C969 C 0.63698 0.316 0.08129 0.0
N970 N 0.62141 0.24155 0.02905 0.0
N971 N 0.64391 0.29715 0.0645 0.0
H972 H 0.74553 0.86563 0.53515 0.0
H973 H 0.77814 0.90151 0.38813 0.0
H974 H 0.69038 0.85931 0.47312 0.0
H975 H 0.834 0.9025 0.44991 0.0
H976 H 0.74485 0.88891 0.41927 0.0
H977 H 0.77732 0.88206 0.50452 0.0
C978 C 0.74001 0.86785 0.51515 0.0
C979 C 0.7152 0.86094 0.50676 0.0
C980 C 0.76439 0.89198 0.426 0.0
C981 C 0.7517 0.87959 0.47139 0.0
C982 C 0.7834 0.89923 0.40823 0.0
C983 C 0.80897 0.90291 0.41636 0.0
C984 C 0.77099 0.88846 0.45208 0.0
C985 C 0.81461 0.89972 0.44268 0.0
C986 C 0.75825 0.87712 0.49759 0.0
C987 C 0.70934 0.86398 0.48044 0.0
N988 N 0.79583 0.89262 0.45953 0.0
N989 N 0.72744 0.87304 0.46372 0.0
H990 H 0.35489 0.81662 0.03829 0.0
H991 H 0.39917 0.67026 0.05823 0.0
H992 H 0.36203 0.76142 0.97646 0.0
H993 H 0.39567 0.72545 0.12044 0.0
H994 H 0.38632 0.70387 0.0281 0.0
H995 H 0.37009 0.78395 0.06866 0.0
C996 C 0.35953 0.79762 0.03107 0.0
C997 C 0.35703 0.79179 0.0047 0.0
C998 C 0.38841 0.70871 0.04831 0.0
C999 C 0.37473 0.7543 0.03945 0.0
C1000 C 0.39576 0.68949 0.0656 0.0
C1001 C 0.39839 0.69496 0.092 0.0
C1002 C 0.38352 0.73372 0.05738 0.0
C1003 C 0.39382 0.72032 0.10028 0.0
C1004 C 0.36839 0.77901 0.04844 0.0
C1005 C 0.36384 0.76693 0.99649 0.0
N1006 N 0.38649 0.73874 0.08304 0.0
N1007 N 0.37227 0.74913 0.01379 0.0
H1008 H 0.26335 0.86149 0.47603 0.0
H1009 H 0.22668 0.89814 0.62178 0.0
H1010 H 0.3168 0.85588 0.53962 0.0
H1011 H 0.1725 0.899 0.55853 0.0
H1012 H 0.26068 0.8851 0.59171 0.0
H1013 H 0.23059 0.87771 0.50566 0.0
C1014 C 0.2683 0.86382 0.49617 0.0
C1015 C 0.29293 0.85721 0.50529 0.0
C1016 C 0.24135 0.88822 0.58442 0.0
C1017 C 0.25529 0.87563 0.5395 0.0
C1018 C 0.22193 0.89571 0.60158 0.0
C1019 C 0.19662 0.89955 0.59273 0.0
C1020 C 0.23546 0.88458 0.55819 0.0
C1021 C 0.19166 0.89616 0.5663 0.0
C1022 C 0.2495 0.87297 0.51315 0.0
C1023 C 0.29801 0.86035 0.53175 0.0
N1024 N 0.21086 0.88882 0.55003 0.0
N1025 N 0.27938 0.86931 0.54789 0.0
H1026 H 0.39778 0.27885 0.8835 0.0
H1027 H 0.36253 0.24461 0.03039 0.0
H1028 H 0.39579 0.33491 0.94498 0.0
H1029 H 0.35494 0.19067 0.96753 0.0
H1030 H 0.3782 0.27704 0.9999 0.0
H1031 H 0.38539 0.24539 0.9145 0.0
C1032 C 0.39484 0.28413 0.9035 0.0
C1033 C 0.3977 0.30979 0.91158 0.0
C1034 C 0.37312 0.25809 0.99277 0.0
C1035 C 0.38355 0.27157 0.94719 0.0
C1036 C 0.3643 0.23951 0.01022 0.0
C1037 C 0.35724 0.21487 1.00154 0.0
C1038 C 0.37506 0.25201 0.96641 0.0
C1039 C 0.35973 0.2095 0.97507 0.0
C1040 C 0.38772 0.26502 0.92119 0.0
C1041 C 0.39369 0.31544 0.93779 0.0
N1042 N 0.36841 0.22788 0.95848 0.0
N1043 N 0.3868 0.29653 0.9546 0.0
H1044 H 0.83493 0.107 0.5598 0.0
H1045 H 0.68843 0.15128 0.54002 0.0
H1046 H 0.77907 0.10954 0.62157 0.0
H1047 H 0.74362 0.14511 0.47797 0.0
H1048 H 0.72099 0.13523 0.57002 0.0
H1049 H 0.80133 0.11964 0.52943 0.0
C1050 C 0.81557 0.11011 0.567 0.0
C1051 C 0.80989 0.10735 0.59336 0.0
C1052 C 0.72597 0.13732 0.54983 0.0
C1053 C 0.77122 0.12199 0.55855 0.0
C1054 C 0.70742 0.14666 0.53268 0.0
C1055 C 0.71329 0.14973 0.50639 0.0
C1056 C 0.75068 0.13105 0.5407 0.0
C1057 C 0.73812 0.1429 0.49798 0.0
C1058 C 0.79636 0.11734 0.5496 0.0
C1059 C 0.78437 0.11152 0.60146 0.0
N1060 N 0.7559 0.13401 0.51509 0.0
N1061 N 0.76603 0.11877 0.58414 0.0
H1062 H 0.64536 0.76027 0.03272 0.0
H1063 H 0.60877 0.72447 0.88669 0.0
H1064 H 0.64961 0.81443 0.96961 0.0
H1065 H 0.61055 0.66938 0.94917 0.0
H1066 H 0.62104 0.75841 0.91713 0.0
H1067 H 0.62977 0.72746 1.00278 0.0
C1068 C 0.64286 0.76535 0.01262 0.0
C1069 C 0.64895 0.79018 1.00371 0.0
C1070 C 0.61868 0.73889 0.92416 0.0
C1071 C 0.63126 0.75255 0.96917 0.0
C1072 C 0.61164 0.71951 0.90679 0.0
C1073 C 0.60876 0.69397 0.91532 0.0
C1074 C 0.6228 0.73273 0.95027 0.0
C1075 C 0.61267 0.68873 0.94164 0.0
C1076 C 0.63408 0.74654 0.99547 0.0
C1077 C 0.64558 0.79548 0.97732 0.0
N1078 N 0.61952 0.70789 0.95811 0.0
N1079 N 0.63699 0.77685 0.96101 0.0
H1080 H 0.53247 0.2611 0.14439 0.0
H1081 H 0.3865 0.22513 0.10725 0.0
H1082 H 0.46877 0.31416 0.15107 0.0
H1083 H 0.44884 0.17002 0.10886 0.0
H1084 H 0.41693 0.25893 0.11997 0.0
H1085 H 0.50272 0.22843 0.12787 0.0
C1086 C 0.51229 0.26596 0.14224 0.0
C1087 C 0.50314 0.29041 0.14934 0.0
C1088 C 0.42395 0.23945 0.11746 0.0
C1089 C 0.46886 0.253 0.13054 0.0
C1090 C 0.40658 0.22013 0.11015 0.0
C1091 C 0.41505 0.19462 0.10712 0.0
C1092 C 0.45002 0.23325 0.12168 0.0
C1093 C 0.44135 0.18935 0.1111 0.0
C1094 C 0.49526 0.24724 0.13293 0.0
C1095 C 0.47667 0.29548 0.14631 0.0
N1096 N 0.45784 0.20845 0.11821 0.0
N1097 N 0.4605 0.27697 0.13718 0.0
H1098 H 0.44946 0.83333 0.89947 0.0
H1099 H 0.46891 0.68607 0.85806 0.0
H1100 H 0.38741 0.77778 0.89808 0.0
H1101 H 0.53102 0.74124 0.86352 0.0
H1102 H 0.43888 0.71897 0.87326 0.0
H1103 H 0.4796 0.79945 0.88732 0.0
C1104 C 0.44213 0.81397 0.89669 0.0
C1105 C 0.41576 0.80848 0.89967 0.0
C1106 C 0.45909 0.72386 0.87121 0.0
C1107 C 0.45038 0.76943 0.8856 0.0
C1108 C 0.47626 0.70511 0.86235 0.0
C1109 C 0.5026 0.71086 0.85932 0.0
C1110 C 0.46822 0.74867 0.87703 0.0
C1111 C 0.511 0.73579 0.86571 0.0
C1112 C 0.45943 0.7946 0.88974 0.0
C1113 C 0.40753 0.78295 0.89593 0.0
N1114 N 0.49386 0.75376 0.87413 0.0
N1115 N 0.42476 0.76441 0.88896 0.0
H1116 H 0.18955 0.03729 0.65558 0.0
H1117 H 0.33346 0.05765 0.60354 0.0
H1118 H 0.24386 0.97542 0.64375 0.0
H1119 H 0.27845 0.1197 0.61039 0.0
H1120 H 0.30037 0.02733 0.61738 0.0
H1121 H 0.22138 0.06776 0.63878 0.0
C1122 C 0.20818 0.03008 0.64957 0.0
C1123 C 0.21402 0.00368 0.65123 0.0
C1124 C 0.29544 0.04754 0.61579 0.0
C1125 C 0.25053 0.03853 0.63169 0.0
C1126 C 0.31437 0.06494 0.60787 0.0
C1127 C 0.30881 0.09135 0.60593 0.0
C1128 C 0.27067 0.05653 0.62199 0.0
C1129 C 0.28363 0.09953 0.61166 0.0
C1130 C 0.2263 0.0475 0.63979 0.0
C1131 C 0.23836 0.99549 0.64265 0.0
N1132 N 0.26552 0.0822 0.61958 0.0
N1133 N 0.25571 0.01284 0.63337 0.0
H1134 H 0.49859 0.29966 0.89414 0.0
H1135 H 0.57265 0.16887 0.87465 0.0
H1136 H 0.51239 0.26961 0.81798 0.0
H1137 H 0.60517 0.22576 0.92587 0.0
H1138 H 0.54183 0.20105 0.85908 0.0
H1139 H 0.52967 0.26809 0.91172 0.0
C1140 C 0.50807 0.28626 0.88125 0.0
C1141 C 0.50311 0.28705 0.85467 0.0
C1142 C 0.55564 0.20639 0.87382 0.0
C1143 C 0.53787 0.25102 0.87443 0.0
C1144 C 0.57311 0.18808 0.88282 0.0
C1145 C 0.59145 0.19472 0.90158 0.0
C1146 C 0.55601 0.23133 0.88414 0.0
C1147 C 0.59136 0.21996 0.91132 0.0
C1148 C 0.5258 0.2685 0.89119 0.0
C1149 C 0.51589 0.26954 0.83856 0.0
N1150 N 0.57369 0.23738 0.90266 0.0
N1151 N 0.53247 0.25199 0.84873 0.0
H1152 H 0.81819 0.97076 0.65513 0.0
H1153 H 0.67109 0.9499 0.613 0.0
H1154 H 0.76247 0.03225 0.64936 0.0
H1155 H 0.72758 0.88879 0.6136 0.0
H1156 H 0.70457 0.98031 0.62583 0.0
H1157 H 0.78548 0.94041 0.63996 0.0
C1158 C 0.79907 0.9779 0.6508 0.0
C1159 C 0.79311 0.00415 0.65363 0.0
C1160 C 0.7097 0.96028 0.62309 0.0
C1161 C 0.75556 0.96947 0.63599 0.0
C1162 C 0.69056 0.94285 0.61575 0.0
C1163 C 0.69646 0.91667 0.61232 0.0
C1164 C 0.735 0.95153 0.62718 0.0
C1165 C 0.7221 0.90876 0.61607 0.0
C1166 C 0.78043 0.96056 0.64195 0.0
C1167 C 0.76807 0.01229 0.64725 0.0
N1168 N 0.74039 0.9261 0.62342 0.0
N1169 N 0.75024 0.99502 0.63883 0.0
H1170 H 0.47457 0.74442 0.14513 0.0
H1171 H 0.62113 0.77964 0.10964 0.0
H1172 H 0.5376 0.69048 0.15118 0.0
H1173 H 0.55895 0.83496 0.11011 0.0
H1174 H 0.59045 0.74601 0.12229 0.0
H1175 H 0.50479 0.77712 0.12959 0.0
C1176 C 0.49471 0.73937 0.14306 0.0
C1177 C 0.5035 0.71463 0.14962 0.0
C1178 C 0.58353 0.76551 0.11957 0.0
C1179 C 0.53836 0.75211 0.13196 0.0
C1180 C 0.60104 0.78472 0.11231 0.0
C1181 C 0.59267 0.81024 0.10892 0.0
C1182 C 0.55742 0.7718 0.12341 0.0
C1183 C 0.56636 0.81562 0.1126 0.0
C1184 C 0.51202 0.75811 0.1343 0.0
C1185 C 0.52996 0.70936 0.14677 0.0
N1186 N 0.54973 0.79661 0.11968 0.0
N1187 N 0.54641 0.72791 0.13818 0.0
H1188 H 0.19365 0.96682 0.35287 0.0
H1189 H 0.33901 0.94668 0.40042 0.0
H1190 H 0.24831 0.02901 0.36115 0.0
H1191 H 0.28244 0.88559 0.39829 0.0
H1192 H 0.3059 0.97718 0.38683 0.0
H1193 H 0.22574 0.93692 0.36984 0.0
C1194 C 0.21244 0.9742 0.35814 0.0
C1195 C 0.21833 1.00049 0.35535 0.0
C1196 C 0.30067 0.95714 0.38944 0.0
C1197 C 0.25521 0.96628 0.3751 0.0
C1198 C 0.3196 0.93966 0.3972 0.0
C1199 C 0.31357 0.91345 0.40037 0.0
C1200 C 0.27548 0.9484 0.38466 0.0
C1201 C 0.28801 0.90558 0.39602 0.0
C1202 C 0.23073 0.95711 0.36802 0.0
C1203 C 0.24286 0.00898 0.36308 0.0
N1204 N 0.26996 0.92295 0.38825 0.0
N1205 N 0.26044 0.9919 0.37245 0.0
H1206 H 0.81701 0.04055 0.35522 0.0
H1207 H 0.67067 0.05982 0.40054 0.0
H1208 H 0.76177 0.97863 0.36207 0.0
H1209 H 0.72618 0.12188 0.39809 0.0
H1210 H 0.70422 0.02989 0.38712 0.0
H1211 H 0.7844 0.07066 0.37102 0.0
C1212 C 0.79801 0.03326 0.35992 0.0
C1213 C 0.79216 0.00695 0.35719 0.0
C1214 C 0.70915 0.05002 0.38957 0.0
C1215 C 0.75474 0.04137 0.37558 0.0
C1216 C 0.68996 0.06719 0.39725 0.0
C1217 C 0.69554 0.09349 0.40033 0.0
C1218 C 0.73421 0.05912 0.38479 0.0
C1219 C 0.72097 0.10179 0.39591 0.0
C1220 C 0.77944 0.05047 0.36912 0.0
C1221 C 0.7673 0.99863 0.36406 0.0
N1222 N 0.73934 0.08468 0.38823 0.0
N1223 N 0.74953 0.01577 0.37283 0.0
H1224 H 0.96645 0.32724 0.9532 0.0
H1225 H 0.04039 0.40952 0.06084 0.0
H1226 H 0.97168 0.41016 0.94899 0.0
H1227 H 0.04302 0.32668 0.05385 0.0
H1228 H 0.01376 0.41131 0.02153 0.0
H1229 H 0.99266 0.3278 0.99191 0.0
C1230 C 0.97286 0.34568 0.96062 0.0
C1231 C 0.9665 0.36873 0.94798 0.0
C1232 C 0.02037 0.39281 0.02859 0.0
C1233 C 0.99726 0.36949 0.9924 0.0
C1234 C 0.03548 0.39177 0.05102 0.0
C1235 C 0.04422 0.36793 0.06051 0.0
C1236 C 0.01375 0.36983 0.01585 0.0
C1237 C 0.03726 0.34554 0.04703 0.0
C1238 C 0.98811 0.34596 0.98267 0.0
C1239 C 0.97611 0.39194 0.95816 0.0
N1240 N 0.02245 0.34706 0.02554 0.0
N1241 N 0.99096 0.39176 0.97989 0.0
H1242 H 0.88106 0.50297 0.42744 0.0
H1243 H 0.88661 0.50095 0.58196 0.0
H1244 H 0.87865 0.43289 0.47232 0.0
H1245 H 0.87458 0.56944 0.53636 0.0
H1246 H 0.89149 0.47596 0.54204 0.0
H1247 H 0.88645 0.5276 0.46712 0.0
C1248 C 0.8821 0.49267 0.44559 0.0
C1249 C 0.87931 0.46576 0.44647 0.0
C1250 C 0.88808 0.49651 0.5408 0.0
C1251 C 0.88508 0.49404 0.49222 0.0
C1252 C 0.88551 0.5108 0.56356 0.0
C1253 C 0.88002 0.53727 0.56244 0.0
C1254 C 0.88532 0.50884 0.51678 0.0
C1255 C 0.8785 0.54902 0.53808 0.0
C1256 C 0.88497 0.50681 0.46831 0.0
C1257 C 0.88038 0.45362 0.47072 0.0
N1258 N 0.88099 0.53473 0.51626 0.0
N1259 N 0.88305 0.46785 0.49262 0.0
H1260 H 0.03879 0.60052 0.94834 0.0
H1261 H 0.97805 0.68554 0.06212 0.0
H1262 H 0.04604 0.68309 0.95542 0.0
H1263 H 0.97246 0.60259 0.06148 0.0
H1264 H 1.00355 0.68395 0.02288 0.0
H1265 H 0.01475 0.59976 0.98931 0.0
C1266 C 0.03542 0.61843 0.95849 0.0
C1267 C 0.04474 0.64187 0.9485 0.0
C1268 C 0.99683 0.66599 0.03119 0.0
C1269 C 0.01734 0.64113 0.99522 0.0
C1270 C 0.9821 0.66692 0.05359 0.0
C1271 C 0.97277 0.64418 0.06489 0.0
C1272 C 1.00239 0.64213 0.01972 0.0
C1273 C 0.97924 0.62058 0.05331 0.0
C1274 C 0.02181 0.61796 0.9819 0.0
C1275 C 0.03983 0.66448 0.96253 0.0
N1276 N 0.99353 0.62014 0.03119 0.0
N1277 N 0.0265 0.66351 0.98502 0.0
H1278 H 0.1297 0.50658 0.58091 0.0
H1279 H 0.12257 0.50689 0.42642 0.0
H1280 H 0.13227 0.43747 0.53472 0.0
H1281 H 0.13436 0.57526 0.47224 0.0
H1282 H 0.11916 0.4815 0.4661 0.0
H1283 H 0.12461 0.53208 0.54159 0.0
C1284 C 0.12878 0.49669 0.56254 0.0
C1285 C 0.13147 0.46978 0.56117 0.0
C1286 C 0.12226 0.50209 0.46748 0.0
C1287 C 0.12596 0.49903 0.51591 0.0
C1288 C 0.12396 0.51666 0.44482 0.0
C1289 C 0.12883 0.54328 0.44597 0.0
C1290 C 0.1253 0.5142 0.49153 0.0
C1291 C 0.13088 0.55477 0.47042 0.0
C1292 C 0.12608 0.51132 0.54005 0.0
C1293 C 0.13057 0.45817 0.5367 0.0
N1294 N 0.12921 0.54018 0.49218 0.0
N1295 N 0.12797 0.47284 0.51506 0.0
H1296 H 0.92781 0.00422 0.37923 0.0
H1297 H 0.08208 0.99765 0.3788 0.0
H1298 H 0.97073 0.93296 0.37929 0.0
H1299 H 0.03854 0.06818 0.37204 0.0
H1300 H 0.04173 0.97393 0.38497 0.0
H1301 H 0.96825 0.02802 0.3827 0.0
C1302 C 0.9457 0.99351 0.38044 0.0
C1303 C 0.9458 0.96648 0.37886 0.0
C1304 C 0.04101 0.99463 0.38236 0.0
C1305 C 0.99238 0.99378 0.38233 0.0
C1306 C 0.06407 0.00822 0.37902 0.0
C1307 C 0.0637 0.03495 0.37472 0.0
C1308 C 0.01738 0.00784 0.38144 0.0
C1309 C 0.03973 0.04754 0.37488 0.0
C1310 C 0.96884 0.00717 0.38219 0.0
C1311 C 0.96971 0.95378 0.38006 0.0
N1312 N 0.01756 0.03388 0.37803 0.0
N1313 N 0.99202 0.96753 0.38157 0.0
H1314 H 0.50065 0.42482 0.11905 0.0
H1315 H 0.5035 0.57901 0.12515 0.0
H1316 H 0.56916 0.46995 0.1328 0.0
H1317 H 0.43309 0.53453 0.12588 0.0
H1318 H 0.52802 0.53933 0.11962 0.0
H1319 H 0.47606 0.46482 0.11323 0.0
C1320 C 0.5106 0.44314 0.12031 0.0
C1321 C 0.53692 0.44412 0.1266 0.0
C1322 C 0.50719 0.53824 0.12074 0.0
C1323 C 0.50896 0.48985 0.12023 0.0
C1324 C 0.49311 0.56095 0.12369 0.0
C1325 C 0.46613 0.56016 0.12611 0.0
C1326 C 0.49428 0.51443 0.12021 0.0
C1327 C 0.45387 0.53604 0.12448 0.0
C1328 C 0.49654 0.46594 0.1172 0.0
C1329 C 0.54883 0.46836 0.12827 0.0
N1330 N 0.46804 0.51413 0.12179 0.0
N1331 N 0.53475 0.49023 0.12528 0.0
H1332 H 0.05983 0.97154 0.59784 0.0
H1333 H 0.95536 0.04844 0.68161 0.0
H1334 H 0.05626 0.97234 0.68102 0.0
H1335 H 0.94725 0.03903 0.59926 0.0
H1336 H 0.99473 0.02334 0.68033 0.0
H1337 H 0.02081 0.99864 0.59658 0.0
C1338 C 0.05086 0.97739 0.61578 0.0
C1339 C 0.06111 0.96938 0.63956 0.0
C1340 C 0.98449 0.02676 0.66245 0.0
C1341 C 0.01684 1.00036 0.63828 0.0
C1342 C 0.96205 0.04138 0.66312 0.0
C1343 C 0.94806 0.04619 0.64044 0.0
C1344 C 0.99327 0.01663 0.63892 0.0
C1345 C 0.95742 0.03577 0.61721 0.0
C1346 C 0.0286 0.99274 0.61504 0.0
C1347 C 0.04877 0.97754 0.66223 0.0
N1348 N 0.97952 0.0215 0.61701 0.0
N1349 N 0.02742 0.99253 0.66099 0.0
H1350 H 0.57766 0.532 0.87919 0.0
H1351 H 0.43804 0.46706 0.87486 0.0
H1352 H 0.50639 0.57491 0.88121 0.0
H1353 H 0.50848 0.42321 0.88032 0.0
H1354 H 0.46282 0.50669 0.88071 0.0
H1355 H 0.55294 0.49194 0.88296 0.0
C1356 C 0.55684 0.53302 0.88065 0.0
C1357 C 0.54411 0.5569 0.87975 0.0
C1358 C 0.47288 0.48842 0.88092 0.0
C1359 C 0.51567 0.51109 0.88402 0.0
C1360 C 0.45873 0.46579 0.87752 0.0
C1361 C 0.47124 0.44182 0.87691 0.0
C1362 C 0.49984 0.48718 0.88345 0.0
C1363 C 0.49805 0.44127 0.88078 0.0
C1364 C 0.54274 0.51014 0.88289 0.0
C1365 C 0.5171 0.55703 0.88206 0.0
N1366 N 0.5115 0.46363 0.88357 0.0
N1367 N 0.50381 0.53451 0.88381 0.0
H1368 H 0.37737 0.03509 0.07014 0.0
H1369 H 0.38032 0.96997 0.9304 0.0
H1370 H 0.38184 0.07868 0.99935 0.0
H1371 H 0.38033 0.927 1.00175 0.0
H1372 H 0.38441 0.00993 0.95513 0.0
H1373 H 0.38213 0.99532 0.04539 0.0
C1374 C 0.37956 0.03629 0.04939 0.0
C1375 C 0.37902 0.06025 0.0368 0.0
C1376 C 0.3838 0.99174 0.96536 0.0
C1377 C 0.38438 0.01471 0.00823 0.0
C1378 C 0.38137 0.96891 0.95125 0.0
C1379 C 0.37985 0.94503 0.96398 0.0
C1380 C 0.38452 0.99077 0.99245 0.0
C1381 C 0.38167 0.94486 0.99103 0.0
C1382 C 0.38234 0.01357 0.03525 0.0
C1383 C 0.3823 0.06066 0.00989 0.0
N1384 N 0.38366 0.96734 0.00433 0.0
N1385 N 0.38455 0.03823 0.99648 0.0
H1386 H 0.46949 0.12658 0.57324 0.0
H1387 H 0.5348 0.12814 0.4333 0.0
H1388 H 0.42636 0.12736 0.50203 0.0
H1389 H 0.57796 0.12728 0.5045 0.0
H1390 H 0.49489 0.12352 0.45807 0.0
H1391 H 0.5094 0.1225 0.5484 0.0
C1392 C 0.46839 0.12571 0.55239 0.0
C1393 C 0.4445 0.12747 0.53974 0.0
C1394 C 0.51311 0.12408 0.46827 0.0
C1395 C 0.49016 0.12279 0.51111 0.0
C1396 C 0.5359 0.1268 0.45413 0.0
C1397 C 0.5598 0.12825 0.46681 0.0
C1398 C 0.51413 0.12296 0.49534 0.0
C1399 C 0.56005 0.12602 0.49384 0.0
C1400 C 0.49118 0.1233 0.53821 0.0
C1401 C 0.44426 0.12585 0.51267 0.0
N1402 N 0.53758 0.12373 0.50719 0.0
N1403 N 0.46672 0.12385 0.49928 0.0
H1404 H 0.63124 0.03753 0.93658 0.0
H1405 H 0.634 0.97126 0.07611 0.0
H1406 H 0.63198 0.08027 0.00796 0.0
H1407 H 0.62963 0.92856 0.00483 0.0
H1408 H 0.63022 0.0114 0.05163 0.0
H1409 H 0.62759 0.99749 0.96127 0.0
C1410 C 0.63049 0.03852 0.95744 0.0
C1411 C 0.63204 0.06235 0.97018 0.0
C1412 C 0.62985 0.99324 0.04135 0.0
C1413 C 0.62788 0.01649 0.99864 0.0
C1414 C 0.63209 0.9703 0.05532 0.0
C1415 C 0.63225 0.94645 0.04254 0.0
C1416 C 0.62794 0.99242 0.01431 0.0
C1417 C 0.62936 0.94644 0.01557 0.0
C1418 C 0.62831 0.01564 0.97154 0.0
C1419 C 0.63061 0.06242 0.99726 0.0
N1420 N 0.62755 0.96904 1.00237 0.0
N1421 N 0.62884 0.03987 0.01056 0.0
H1422 H 0.45538 0.82458 0.46714 0.0
H1423 H 0.56023 0.91007 0.54158 0.0
H1424 H 0.44933 0.90742 0.47163 0.0
H1425 H 0.55508 0.82711 0.54511 0.0
H1426 H 0.5214 0.91062 0.51422 0.0
H1427 H 0.49396 0.82627 0.49354 0.0
C1428 C 0.46237 0.84323 0.47341 0.0
C1429 C 0.44921 0.86593 0.46684 0.0
C1430 C 0.52875 0.89237 0.52118 0.0
C1431 C 0.49345 0.86797 0.49782 0.0
C1432 C 0.55091 0.89203 0.5367 0.0
C1433 C 0.56076 0.86853 0.54593 0.0
C1434 C 0.51666 0.86901 0.51461 0.0
C1435 C 0.54793 0.84574 0.53898 0.0
C1436 C 0.48433 0.84416 0.48876 0.0
C1437 C 0.45887 0.88945 0.47625 0.0
N1438 N 0.52669 0.84658 0.52377 0.0
N1439 N 0.48049 0.88989 0.49124 0.0
H1440 H 0.06159 0.26055 0.21657 0.0
H1441 H 0.17031 0.18365 0.2899 0.0
H1442 H 0.13834 0.2922 0.22183 0.0
H1443 H 0.09142 0.1841 0.31619 0.0
H1444 H 0.16011 0.21963 0.26045 0.0
H1445 H 0.07298 0.22842 0.24919 0.0
C1446 C 0.0808 0.26082 0.22483 0.0
C1447 C 0.09903 0.27906 0.21674 0.0
C1448 C 0.14517 0.2119 0.27286 0.0
C1449 C 0.11239 0.24199 0.25343 0.0
C1450 C 0.15091 0.19135 0.28943 0.0
C1451 C 0.13168 0.18104 0.30547 0.0
C1452 C 0.11989 0.22161 0.27196 0.0
C1453 C 0.10684 0.19169 0.30432 0.0
C1454 C 0.08727 0.24254 0.2434 0.0
C1455 C 0.1237 0.27858 0.22788 0.0
N1456 N 0.10159 0.21119 0.28766 0.0
N1457 N 0.12984 0.26003 0.24548 0.0
H1458 H 0.75882 0.44327 0.29923 0.0
H1459 H 0.68832 0.33854 0.21337 0.0
H1460 H 0.79491 0.36962 0.28595 0.0
H1461 H 0.68205 0.42017 0.19926 0.0
H1462 H 0.72375 0.34723 0.24406 0.0
H1463 H 0.72662 0.43306 0.26647 0.0
C1464 C 0.76001 0.42495 0.28928 0.0
C1465 C 0.77958 0.4073 0.29518 0.0
C1466 C 0.71467 0.36313 0.23402 0.0
C1467 C 0.74242 0.39525 0.25797 0.0
C1468 C 0.69443 0.35821 0.21673 0.0
C1469 C 0.68238 0.37866 0.2037 0.0
C1470 C 0.72234 0.3887 0.23867 0.0
C1471 C 0.691 0.40383 0.20862 0.0
C1472 C 0.74166 0.41916 0.27056 0.0
C1473 C 0.78022 0.38383 0.28171 0.0
N1474 N 0.71023 0.40813 0.22584 0.0
N1475 N 0.76166 0.3783 0.26387 0.0
H1476 H 0.85486 0.8468 0.27232 0.0
H1477 H 0.8984 0.70169 0.24406 0.0
H1478 H 0.88585 0.79715 0.33172 0.0
H1479 H 0.89273 0.76083 0.18575 0.0
H1480 H 0.88735 0.73404 0.27703 0.0
H1481 H 0.86261 0.81307 0.24079 0.0
C1482 C 0.86345 0.82898 0.27886 0.0
C1483 C 0.8699 0.82515 0.30493 0.0
C1484 C 0.88846 0.7398 0.25698 0.0
C1485 C 0.8783 0.78597 0.26863 0.0
C1486 C 0.89461 0.72137 0.23821 0.0
C1487 C 0.89664 0.72866 0.21221 0.0
C1488 C 0.88394 0.76548 0.24952 0.0
C1489 C 0.89163 0.75441 0.20561 0.0
C1490 C 0.86772 0.80959 0.26076 0.0
C1491 C 0.88038 0.80111 0.312 0.0
N1492 N 0.8855 0.77184 0.22409 0.0
N1493 N 0.88424 0.78246 0.29398 0.0
H1494 H 0.29177 0.63521 0.17646 0.0
H1495 H 0.26076 0.59587 0.32257 0.0
H1496 H 0.34955 0.62398 0.23533 0.0
H1497 H 0.20109 0.61092 0.26646 0.0
H1498 H 0.29322 0.60561 0.29021 0.0
H1499 H 0.2582 0.62579 0.20833 0.0
C1500 C 0.29745 0.63066 0.19603 0.0
C1501 C 0.32363 0.63038 0.20315 0.0
C1502 C 0.27307 0.60682 0.28486 0.0
C1503 C 0.28519 0.61977 0.23981 0.0
C1504 C 0.25442 0.60121 0.30338 0.0
C1505 C 0.22807 0.60253 0.29725 0.0
C1506 C 0.26549 0.61381 0.25983 0.0
C1507 C 0.22117 0.60964 0.27203 0.0
C1508 C 0.27823 0.62543 0.21425 0.0
C1509 C 0.32971 0.62475 0.22894 0.0
N1510 N 0.23979 0.61499 0.2542 0.0
N1511 N 0.31068 0.61963 0.24624 0.0
H1512 H 0.06167 0.74016 0.78456 0.0
H1513 H 0.17016 0.81923 0.71423 0.0
H1514 H 0.13971 0.71157 0.78397 0.0
H1515 H 0.09323 0.81407 0.68312 0.0
H1516 H 0.16005 0.78322 0.74361 0.0
H1517 H 0.07308 0.77087 0.75051 0.0
C1518 C 0.08115 0.7402 0.77696 0.0
C1519 C 0.09976 0.7233 0.7868 0.0
C1520 C 0.14554 0.78987 0.73013 0.0
C1521 C 0.11314 0.75881 0.74858 0.0
C1522 C 0.15121 0.81045 0.71358 0.0
C1523 C 0.13249 0.81953 0.69628 0.0
C1524 C 0.12078 0.77887 0.72975 0.0
C1525 C 0.10825 0.80747 0.69601 0.0
C1526 C 0.08764 0.75767 0.75759 0.0
C1527 C 0.12479 0.72415 0.77654 0.0
N1528 N 0.10297 0.78799 0.71273 0.0
N1529 N 0.13093 0.74199 0.7582 0.0
H1530 H 0.32038 0.33787 0.79177 0.0
H1531 H 0.24706 0.44588 0.71375 0.0
H1532 H 0.32095 0.41745 0.81555 0.0
H1533 H 0.2145 0.3696 0.71944 0.0
H1534 H 0.27802 0.43482 0.74756 0.0
H1535 H 0.28512 0.34778 0.76143 0.0
C1536 C 0.31302 0.35736 0.79062 0.0
C1537 C 0.32351 0.37687 0.80618 0.0
C1538 C 0.26398 0.42054 0.74159 0.0
C1539 C 0.28368 0.38833 0.77155 0.0
C1540 C 0.24637 0.42681 0.72228 0.0
C1541 C 0.2282 0.40863 0.71393 0.0
C1542 C 0.26394 0.39566 0.75218 0.0
C1543 C 0.22811 0.3842 0.72558 0.0
C1544 C 0.29286 0.36295 0.77351 0.0
C1545 C 0.31325 0.40181 0.80411 0.0
N1546 N 0.24601 0.37824 0.74393 0.0
N1547 N 0.29415 0.40688 0.7869 0.0
H1548 H 0.92266 0.24807 0.81756 0.0
H1549 H 0.85997 0.21885 0.67969 0.0
H1550 H 0.88986 0.30775 0.76965 0.0
H1551 H 0.88531 0.16038 0.73322 0.0
H1552 H 0.87216 0.25202 0.711 0.0
H1553 H 0.91065 0.2162 0.7855 0.0
C1554 C 0.91295 0.25454 0.80023 0.0
C1555 C 0.90723 0.28069 0.79634 0.0
C1556 C 0.87498 0.23192 0.71588 0.0
C1557 C 0.89329 0.24398 0.75932 0.0
C1558 C 0.86816 0.21297 0.69797 0.0
C1559 C 0.87161 0.18674 0.70382 0.0
C1560 C 0.88548 0.2246 0.73974 0.0
C1561 C 0.88198 0.18027 0.72796 0.0
C1562 C 0.90603 0.23623 0.7819 0.0
C1563 C 0.89463 0.2878 0.77344 0.0
N1564 N 0.8886 0.19905 0.74495 0.0
N1565 N 0.88806 0.26951 0.75574 0.0
H1566 H 0.71584 0.64019 0.82715 0.0
H1567 H 0.74397 0.59421 0.68253 0.0
H1568 H 0.65667 0.62307 0.77117 0.0
H1569 H 0.80442 0.61749 0.73484 0.0
H1570 H 0.71205 0.6045 0.71528 0.0
H1571 H 0.74869 0.63157 0.79434 0.0
C1572 C 0.70971 0.63452 0.80802 0.0
C1573 C 0.68336 0.6323 0.80199 0.0
C1574 C 0.73226 0.60745 0.71968 0.0
C1575 C 0.72095 0.6226 0.76425 0.0
C1576 C 0.75059 0.60153 0.70094 0.0
C1577 C 0.777 0.60493 0.70592 0.0
C1578 C 0.74024 0.61676 0.7438 0.0
C1579 C 0.78428 0.61458 0.73016 0.0
C1580 C 0.72851 0.62977 0.78925 0.0
C1581 C 0.67665 0.62531 0.77671 0.0
N1582 N 0.76599 0.62007 0.74826 0.0
N1583 N 0.69529 0.62063 0.75886 0.0
H1584 H 0.21734 0.06098 0.26087 0.0
H1585 H 0.29299 0.16802 0.18406 0.0
H1586 H 0.2205 0.13841 0.29078 0.0
H1587 H 0.32016 0.08964 0.18818 0.0
H1588 H 0.26246 0.15864 0.21935 0.0
H1589 H 0.25145 0.07185 0.2301 0.0
C1590 C 0.22541 0.08026 0.26102 0.0
C1591 C 0.21628 0.09882 0.27838 0.0
C1592 C 0.27532 0.14364 0.21263 0.0
C1593 C 0.2548 0.11156 0.24285 0.0
C1594 C 0.29253 0.14891 0.19245 0.0
C1595 C 0.30909 0.12957 0.18328 0.0
C1596 C 0.27426 0.1187 0.22313 0.0
C1597 C 0.3079 0.10514 0.19485 0.0
C1598 C 0.24487 0.08642 0.24353 0.0
C1599 C 0.22729 0.12353 0.27782 0.0
N1600 N 0.29058 0.10031 0.21393 0.0
N1601 N 0.24579 0.12936 0.26 0.0
H1602 H 0.6191 0.23568 0.3542 0.0
H1603 H 0.61721 0.27292 0.20394 0.0
H1604 H 0.64171 0.18288 0.29403 0.0
H1605 H 0.58798 0.32159 0.2648 0.0
H1606 H 0.62811 0.24016 0.23637 0.0
H1607 H 0.60957 0.26806 0.32145 0.0
C1608 C 0.62221 0.23091 0.33412 0.0
C1609 C 0.63122 0.20646 0.32693 0.0
C1610 C 0.61931 0.25804 0.24257 0.0
C1611 C 0.62011 0.24349 0.28913 0.0
C1612 C 0.61312 0.27673 0.22407 0.0
C1613 C 0.60163 0.30002 0.23164 0.0
C1614 C 0.61406 0.26275 0.26878 0.0
C1615 C 0.59676 0.30393 0.25801 0.0
C1616 C 0.61661 0.24938 0.31537 0.0
C1617 C 0.63449 0.20132 0.30049 0.0
N1618 N 0.603 0.28554 0.27555 0.0
N1619 N 0.62898 0.21968 0.28256 0.0
H1620 H 0.82226 0.91453 0.24573 0.0
H1621 H 0.67875 0.86705 0.21539 0.0
H1622 H 0.76838 0.89354 0.30573 0.0
H1623 H 0.73772 0.87728 0.15751 0.0
H1624 H 0.71043 0.87741 0.24884 0.0
H1625 H 0.79077 0.90184 0.21342 0.0
C1626 C 0.80374 0.90727 0.25217 0.0
C1627 C 0.79795 0.90519 0.27856 0.0
C1628 C 0.71645 0.87727 0.22883 0.0
C1629 C 0.76157 0.89053 0.24135 0.0
C1630 C 0.69834 0.8715 0.20969 0.0
C1631 C 0.70552 0.8714 0.18353 0.0
C1632 C 0.74192 0.88319 0.22177 0.0
C1633 C 0.73131 0.8769 0.17736 0.0
C1634 C 0.78576 0.89993 0.23362 0.0
C1635 C 0.77365 0.89549 0.28561 0.0
N1636 N 0.74849 0.88271 0.1963 0.0
N1637 N 0.75628 0.88861 0.26709 0.0
H1638 H 0.38919 0.73482 0.20144 0.0
H1639 H 0.38264 0.7686 0.35238 0.0
H1640 H 0.41681 0.68501 0.26219 0.0
H1641 H 0.36422 0.82374 0.29282 0.0
H1642 H 0.39235 0.73679 0.31918 0.0
H1643 H 0.37742 0.76698 0.2342 0.0
C1644 C 0.39276 0.73064 0.2216 0.0
C1645 C 0.40406 0.7072 0.22905 0.0
C1646 C 0.38617 0.75585 0.31332 0.0
C1647 C 0.39057 0.74373 0.26654 0.0
C1648 C 0.38044 0.77399 0.33233 0.0
C1649 C 0.37263 0.79895 0.32545 0.0
C1650 C 0.384 0.76257 0.28713 0.0
C1651 C 0.37051 0.80487 0.29904 0.0
C1652 C 0.38607 0.74898 0.24028 0.0
C1653 C 0.40823 0.7028 0.25547 0.0
N1654 N 0.37614 0.78682 0.28085 0.0
N1655 N 0.40148 0.72083 0.27317 0.0
H1656 H 0.2744 0.8855 0.85103 0.0
H1657 H 0.23734 0.88762 0.70069 0.0
H1658 H 0.32715 0.86188 0.79111 0.0
H1659 H 0.18769 0.91412 0.76207 0.0
H1660 H 0.27045 0.87715 0.733 0.0
H1661 H 0.24216 0.89501 0.81822 0.0
C1662 C 0.2792 0.88217 0.83099 0.0
C1663 C 0.30358 0.87283 0.82391 0.0
C1664 C 0.25228 0.88526 0.73932 0.0
C1665 C 0.26667 0.88397 0.78598 0.0
C1666 C 0.2334 0.89122 0.7209 0.0
C1667 C 0.20971 0.90178 0.72866 0.0
C1668 C 0.24735 0.88987 0.76562 0.0
C1669 C 0.20563 0.90604 0.75511 0.0
C1670 C 0.26079 0.88776 0.81218 0.0
C1671 C 0.30875 0.86933 0.79749 0.0
N1672 N 0.2242 0.90007 0.77254 0.0
N1673 N 0.29044 0.87486 0.77949 0.0
H1674 H 0.41286 0.3212 0.74173 0.0
H1675 H 0.36351 0.17781 0.71368 0.0
H1676 H 0.38979 0.26898 0.80241 0.0
H1677 H 0.38357 0.23306 0.65468 0.0
H1678 H 0.37326 0.21015 0.74662 0.0
H1679 H 0.40218 0.2886 0.70994 0.0
C1680 C 0.4055 0.30283 0.74843 0.0
C1681 C 0.40226 0.29784 0.77486 0.0
C1682 C 0.37548 0.21517 0.72646 0.0
C1683 C 0.38995 0.26012 0.73823 0.0
C1684 C 0.37008 0.19667 0.70761 0.0
C1685 C 0.37273 0.20266 0.68128 0.0
C1686 C 0.38369 0.23986 0.71895 0.0
C1687 C 0.38092 0.22759 0.67464 0.0
C1688 C 0.39937 0.28417 0.73017 0.0
C1689 C 0.39258 0.27365 0.78224 0.0
N1690 N 0.38614 0.24518 0.69331 0.0
N1691 N 0.38681 0.25562 0.764 0.0
H1692 H 0.76828 0.11951 0.70335 0.0
H1693 H 0.73224 0.11875 0.85408 0.0
H1694 H 0.81764 0.08974 0.76344 0.0
H1695 H 0.68063 0.14666 0.795 0.0
H1696 H 0.7639 0.10858 0.82079 0.0
H1697 H 0.73576 0.12991 0.73625 0.0
C1698 C 0.77227 0.11513 0.72339 0.0
C1699 C 0.79573 0.10374 0.73061 0.0
C1700 C 0.74562 0.1169 0.81507 0.0
C1701 C 0.75876 0.1156 0.76829 0.0
C1702 C 0.72756 0.12285 0.83415 0.0
C1703 C 0.70363 0.13357 0.82745 0.0
C1704 C 0.73985 0.12172 0.789 0.0
C1705 C 0.69861 0.1381 0.80114 0.0
C1706 C 0.75373 0.12107 0.74216 0.0
C1707 C 0.79987 0.0985 0.75689 0.0
N1708 N 0.71655 0.13219 0.78292 0.0
N1709 N 0.78164 0.10449 0.7747 0.0
H1710 H 0.58842 0.68529 0.74576 0.0
H1711 H 0.64508 0.82636 0.72004 0.0
H1712 H 0.61697 0.73401 0.80693 0.0
H1713 H 0.6264 0.77202 0.65991 0.0
H1714 H 0.63369 0.79384 0.75236 0.0
H1715 H 0.60086 0.71787 0.7144 0.0
C1716 C 0.59728 0.7029 0.75266 0.0
C1717 C 0.60163 0.70691 0.77908 0.0
C1718 C 0.63218 0.78903 0.73209 0.0
C1719 C 0.61602 0.74449 0.74301 0.0
C1720 C 0.63854 0.80762 0.71362 0.0
C1721 C 0.63664 0.80196 0.68717 0.0
C1722 C 0.62367 0.76462 0.72408 0.0
C1723 C 0.62843 0.7772 0.68001 0.0
C1724 C 0.60446 0.72151 0.73465 0.0
C1725 C 0.61326 0.73012 0.78675 0.0
N1726 N 0.62214 0.75954 0.69833 0.0
N1727 N 0.62001 0.74809 0.76878 0.0
H1728 H 0.30703 0.23439 0.11731 0.0
H1729 H 0.15647 0.26807 0.12915 0.0
H1730 H 0.24539 0.18457 0.09179 0.0
H1731 H 0.21663 0.32339 0.14492 0.0
H1732 H 0.18931 0.23612 0.11878 0.0
H1733 H 0.2747 0.26643 0.13045 0.0
C1734 C 0.28676 0.23018 0.11449 0.0
C1735 C 0.27893 0.2068 0.10336 0.0
C1736 C 0.19537 0.25524 0.12453 0.0
C1737 C 0.24194 0.24317 0.11842 0.0
C1738 C 0.17658 0.27347 0.13066 0.0
C1739 C 0.18374 0.29853 0.13786 0.0
C1740 C 0.22162 0.26199 0.12569 0.0
C1741 C 0.21019 0.30444 0.1391 0.0
C1742 C 0.26833 0.24845 0.12197 0.0
C1743 C 0.25239 0.20234 0.10019 0.0
N1744 N 0.22817 0.28632 0.13307 0.0
N1745 N 0.23493 0.2203 0.10768 0.0
H1746 H 0.24527 0.82021 0.91502 0.0
H1747 H 0.2159 0.6788 0.86129 0.0
H1748 H 0.30549 0.76875 0.88949 0.0
H1749 H 0.15741 0.73578 0.877 0.0
H1750 H 0.24913 0.71048 0.87239 0.0
H1751 H 0.21316 0.78858 0.90224 0.0
C1752 C 0.25181 0.80219 0.90674 0.0
C1753 C 0.27821 0.79715 0.90338 0.0
C1754 C 0.22902 0.71606 0.87329 0.0
C1755 C 0.24121 0.7606 0.8886 0.0
C1756 C 0.21002 0.69795 0.86709 0.0
C1757 C 0.18375 0.70458 0.86827 0.0
C1758 C 0.22174 0.74096 0.88093 0.0
C1759 C 0.17734 0.72982 0.87554 0.0
C1760 C 0.23336 0.78413 0.89936 0.0
C1761 C 0.28536 0.77345 0.89245 0.0
N1762 N 0.19616 0.74699 0.88171 0.0
N1763 N 0.26695 0.75599 0.8855 0.0
H1764 H 0.32259 0.26164 0.59253 0.0
H1765 H 0.17825 0.2937 0.63582 0.0
H1766 H 0.26776 0.20225 0.61265 0.0
H1767 H 0.23861 0.35055 0.62866 0.0
H1768 H 0.20974 0.25984 0.62629 0.0
H1769 H 0.29117 0.29422 0.60447 0.0
C1770 C 0.30388 0.2554 0.59945 0.0
C1771 C 0.2978 0.2291 0.6015 0.0
C1772 C 0.21609 0.27972 0.62693 0.0
C1773 C 0.26149 0.26662 0.61528 0.0
C1774 C 0.1981 0.29908 0.63222 0.0
C1775 C 0.20575 0.32507 0.63295 0.0
C1776 C 0.2419 0.28639 0.62211 0.0
C1777 C 0.23184 0.33084 0.62854 0.0
C1778 C 0.28593 0.2741 0.60638 0.0
C1779 C 0.27325 0.2223 0.61076 0.0
N1780 N 0.24889 0.3117 0.62316 0.0
N1781 N 0.25591 0.24097 0.61721 0.0
H1782 H 0.85154 0.27336 0.88186 0.0
H1783 H 0.70062 0.23991 0.89181 0.0
H1784 H 0.79196 0.32859 0.86395 0.0
H1785 H 0.76212 0.18916 0.91567 0.0
H1786 H 0.73313 0.27231 0.87961 0.0
H1787 H 0.81841 0.24168 0.89209 0.0
C1788 C 0.8315 0.27882 0.87987 0.0
C1789 C 0.82462 0.30376 0.87201 0.0
C1790 C 0.73941 0.25405 0.88753 0.0
C1791 C 0.78631 0.26746 0.88405 0.0
C1792 C 0.72088 0.23557 0.89447 0.0
C1793 C 0.72862 0.21179 0.90483 0.0
C1794 C 0.7658 0.24858 0.8909 0.0
C1795 C 0.75515 0.2072 0.90784 0.0
C1796 C 0.81251 0.26072 0.88591 0.0
C1797 C 0.7982 0.30972 0.87023 0.0
N1798 N 0.77268 0.22535 0.90092 0.0
N1799 N 0.78001 0.29172 0.87619 0.0
H1800 H 0.71292 0.76275 0.56568 0.0
H1801 H 0.79859 0.6908 0.66905 0.0
H1802 H 0.7257 0.79726 0.64025 0.0
H1803 H 0.81344 0.68636 0.58732 0.0
H1804 H 0.76836 0.72662 0.66091 0.0
H1805 H 0.7465 0.73113 0.57497 0.0
C1806 C 0.72299 0.76373 0.58398 0.0
C1807 C 0.71669 0.78263 0.6022 0.0
C1808 C 0.77851 0.71789 0.64488 0.0
C1809 C 0.75474 0.74617 0.61321 0.0
C1810 C 0.79554 0.69743 0.64948 0.0
C1811 C 0.80857 0.68571 0.62884 0.0
C1812 C 0.77412 0.72614 0.61942 0.0
C1813 C 0.80407 0.69503 0.60381 0.0
C1814 C 0.74216 0.74573 0.58925 0.0
C1815 C 0.73026 0.78308 0.62563 0.0
N1816 N 0.78705 0.71447 0.5998 0.0
N1817 N 0.7485 0.76482 0.63067 0.0
H1818 H 0.81743 0.71278 0.1707 0.0
H1819 H 0.7442 0.78917 0.06185 0.0
H1820 H 0.81719 0.68695 0.09169 0.0
H1821 H 0.71198 0.78489 0.13844 0.0
H1822 H 0.77459 0.75493 0.07313 0.0
H1823 H 0.78209 0.74279 0.16037 0.0
C1824 C 0.80984 0.71339 0.15125 0.0
C1825 C 0.82015 0.69739 0.13201 0.0
C1826 C 0.76072 0.76128 0.08741 0.0
C1827 C 0.78025 0.73168 0.12005 0.0
C1828 C 0.74344 0.78083 0.08101 0.0
C1829 C 0.72557 0.78973 0.09924 0.0
C1830 C 0.76064 0.75102 0.11246 0.0
C1831 C 0.72536 0.77833 0.12381 0.0
C1832 C 0.78964 0.73032 0.14542 0.0
C1833 C 0.80961 0.69877 0.10711 0.0
N1834 N 0.74296 0.75977 0.12988 0.0
N1835 N 0.79049 0.71585 0.10176 0.0
H1836 H 0.23424 0.65556 0.38206 0.0
H1837 H 0.26868 0.80535 0.3947 0.0
H1838 H 0.17817 0.71594 0.37014 0.0
H1839 H 0.31814 0.74389 0.42124 0.0
H1840 H 0.23549 0.7732 0.3842 0.0
H1841 H 0.26541 0.6879 0.39572 0.0
C1842 C 0.22829 0.67552 0.38254 0.0
C1843 C 0.20343 0.68291 0.37471 0.0
C1844 C 0.2536 0.76683 0.39243 0.0
C1845 C 0.23943 0.72029 0.38996 0.0
C1846 C 0.27254 0.78516 0.39835 0.0
C1847 C 0.29623 0.77732 0.40882 0.0
C1848 C 0.25852 0.74052 0.39681 0.0
C1849 C 0.30018 0.75089 0.4132 0.0
C1850 C 0.24623 0.69407 0.39022 0.0
C1851 C 0.19719 0.7093 0.3755 0.0
N1852 N 0.28162 0.73349 0.40709 0.0
N1853 N 0.21509 0.72702 0.3828 0.0
H1854 H 0.68451 0.26342 0.41813 0.0
H1855 H 0.82776 0.29194 0.36854 0.0
H1856 H 0.73621 0.20313 0.39335 0.0
H1857 H 0.77078 0.35081 0.38277 0.0
H1858 H 0.79549 0.25899 0.37869 0.0
H1859 H 0.71677 0.29538 0.40648 0.0
C1860 C 0.7027 0.25684 0.41025 0.0
C1861 C 0.70765 0.23048 0.40677 0.0
C1862 C 0.79005 0.27911 0.3795 0.0
C1863 C 0.74491 0.26726 0.39332 0.0
C1864 C 0.8085 0.29796 0.37386 0.0
C1865 C 0.80202 0.32424 0.37487 0.0
C1866 C 0.76495 0.28658 0.3864 0.0
C1867 C 0.77662 0.33085 0.38148 0.0
C1868 C 0.72113 0.27519 0.40351 0.0
C1869 C 0.73158 0.22324 0.39635 0.0
N1870 N 0.7591 0.31217 0.3871 0.0
N1871 N 0.74939 0.24155 0.39007 0.0
loop_
_geom_bond_atom_site_label_1
_geom_bond_atom_site_label_2
_geom_bond_distance
_geom_bond_site_symmetry_2
_ccdc_geom_bond_type
C0 C1 1.351 . S
C0 N3 1.368 . S
C0 H5 0.931 . S
C1 C0 1.351 . S
C1 N2 1.373 . S
C1 H29 0.930 1_455 S
N2 C1 1.373 . S
N2 C4 1.340 . S
N3 C0 1.368 . S
N3 C4 1.321 . S
N3 Co6 2.135 . S
C4 N2 1.340 . S
C4 N3 1.321 . S
C4 H28 0.930 . S
H5 C0 0.931 . S
Co6 N3 2.135 . S
Co6 N9 2.121 . S
Co6 O14 2.055 . S
Co6 O17 2.039 . S
Co6 N20 2.140 . S
C7 O8 1.227 . S
C7 O17 1.265 . S
O8 C7 1.227 . S
N9 Co6 2.121 . S
N9 C11 1.375 . S
N9 C12 1.313 . S
C10 C11 1.338 . S
C10 N13 1.377 . S
C10 H30 0.930 . S
C11 N9 1.375 . S
C11 C10 1.338 . S
C11 H15 0.931 . S
C12 N9 1.313 . S
C12 N13 1.344 . S
C12 H16 0.930 . S
N13 C10 1.377 . S
N13 C12 1.344 . S
O14 Co6 2.055 . S
O14 C18 1.253 . S
H15 C11 0.931 . S
H16 C12 0.930 . S
O17 Co6 2.039 . S
O17 C7 1.265 . S
C18 O14 1.253 . S
C18 O19 1.227 . S
O19 C18 1.227 . S
N20 Co6 2.140 . S
N20 C23 1.346 . S
N20 C24 1.345 . S
C21 C22 1.387 . S
C21 C25 1.391 . S
C22 C21 1.387 . S
C22 C23 1.369 . S
C22 H31 0.929 . S
C23 N20 1.346 . S
C23 C22 1.369 . S
C23 H26 0.928 . S
C24 N20 1.345 . S
C24 C25 1.371 . S
C24 H27 0.931 . S
C25 C21 1.391 . S
C25 C24 1.371 . S
C25 H32 0.930 . S
H26 C23 0.928 . S
H27 C24 0.931 . S
H28 C4 0.930 . S
H29 C1 0.930 1_655 S
H30 C10 0.930 . S
H31 C22 0.929 . S
H32 C25 0.930 . S
C33 C34 1.351 . S
C33 N36 1.368 . S
C33 H38 0.931 . S
C34 C33 1.351 . S
C34 N35 1.373 . S
C34 H62 0.930 . S
N35 C34 1.373 . S
N35 C37 1.340 . S
N36 C33 1.368 . S
N36 C37 1.321 . S
N36 Co39 2.135 . S
C37 N35 1.340 . S
C37 N36 1.321 . S
C37 H61 0.930 . S
H38 C33 0.931 . S
Co39 N36 2.135 . S
Co39 N42 2.121 . S
Co39 O47 2.055 . S
Co39 O50 2.039 . S
Co39 N53 2.140 . S
C40 O41 1.227 . S
C40 O50 1.265 . S
O41 C40 1.227 . S
N42 Co39 2.121 . S
N42 C44 1.375 . S
N42 C45 1.313 . S
C43 C44 1.338 . S
C43 N46 1.377 . S
C43 H63 0.930 . S
C44 N42 1.375 . S
C44 C43 1.338 . S
C44 H48 0.931 . S
C45 N42 1.313 . S
C45 N46 1.344 . S
C45 H49 0.930 . S
N46 C43 1.377 . S
N46 C45 1.344 . S
O47 Co39 2.055 . S
O47 C51 1.253 . S
H48 C44 0.931 . S
H49 C45 0.930 . S
O50 Co39 2.039 . S
O50 C40 1.265 . S
C51 O47 1.253 . S
C51 O52 1.227 . S
O52 C51 1.227 . S
N53 Co39 2.140 . S
N53 C56 1.346 . S
N53 C57 1.345 . S
C54 C55 1.387 . S
C54 C58 1.391 . S
C55 C54 1.387 . S
C55 C56 1.369 . S
C55 H64 0.929 . S
C56 N53 1.346 . S
C56 C55 1.369 . S
C56 H59 0.928 . S
C57 N53 1.345 . S
C57 C58 1.371 . S
C57 H60 0.931 . S
C58 C54 1.391 . S
C58 C57 1.371 . S
C58 H65 0.930 . S
H59 C56 0.928 . S
H60 C57 0.931 . S
H61 C37 0.930 . S
H62 C34 0.930 . S
H63 C43 0.930 . S
H64 C55 0.929 . S
H65 C58 0.930 . S
C66 C67 1.351 . S
C66 N69 1.368 . S
C66 H71 0.931 . S
C67 C66 1.351 . S
C67 N68 1.373 . S
C67 H95 0.930 1_655 S
N68 C67 1.373 . S
N68 C70 1.340 . S
N69 C66 1.368 . S
N69 C70 1.321 . S
N69 Co72 2.135 . S
C70 N68 1.340 . S
C70 N69 1.321 . S
C70 H94 0.930 . S
H71 C66 0.931 . S
Co72 N69 2.135 . S
Co72 N75 2.121 . S
Co72 O80 2.055 . S
Co72 O83 2.039 . S
Co72 N86 2.140 . S
C73 O74 1.227 . S
C73 O83 1.265 . S
O74 C73 1.227 . S
N75 Co72 2.121 . S
N75 C77 1.375 . S
N75 C78 1.313 . S
C76 C77 1.338 . S
C76 N79 1.377 . S
C76 H96 0.930 . S
C77 N75 1.375 . S
C77 C76 1.338 . S
C77 H81 0.931 . S
C78 N75 1.313 . S
C78 N79 1.344 . S
C78 H82 0.930 . S
N79 C76 1.377 . S
N79 C78 1.344 . S
O80 Co72 2.055 . S
O80 C84 1.253 . S
H81 C77 0.931 . S
H82 C78 0.930 . S
O83 Co72 2.039 . S
O83 C73 1.265 . S
C84 O80 1.253 . S
C84 O85 1.227 . S
O85 C84 1.227 . S
N86 Co72 2.140 . S
N86 C89 1.346 . S
N86 C90 1.345 . S
C87 C88 1.387 . S
C87 C91 1.391 . S
C88 C87 1.387 . S
C88 C89 1.369 . S
C88 H97 0.929 . S
C89 N86 1.346 . S
C89 C88 1.369 . S
C89 H92 0.928 . S
C90 N86 1.345 . S
C90 C91 1.371 . S
C90 H93 0.931 . S
C91 C87 1.391 . S
C91 C90 1.371 . S
C91 H98 0.930 . S
H92 C89 0.928 . S
H93 C90 0.931 . S
H94 C70 0.930 . S
H95 C67 0.930 1_455 S
H96 C76 0.930 . S
H97 C88 0.929 . S
H98 C91 0.930 . S
C99 C100 1.351 . S
C99 N102 1.368 . S
C99 H104 0.931 . S
C100 C99 1.351 . S
C100 N101 1.373 . S
C100 H128 0.930 . S
N101 C100 1.373 . S
N101 C103 1.340 . S
N102 C99 1.368 . S
N102 C103 1.321 . S
N102 Co105 2.135 . S
C103 N101 1.340 . S
C103 N102 1.321 . S
C103 H127 0.930 . S
H104 C99 0.931 . S
Co105 N102 2.135 . S
Co105 N108 2.121 . S
Co105 O113 2.055 . S
Co105 O116 2.039 . S
Co105 N119 2.140 . S
C106 O107 1.227 . S
C106 O116 1.265 . S
O107 C106 1.227 . S
N108 Co105 2.121 . S
N108 C110 1.375 . S
N108 C111 1.313 . S
C109 C110 1.338 . S
C109 N112 1.377 . S
C109 H129 0.930 . S
C110 N108 1.375 . S
C110 C109 1.338 . S
C110 H114 0.931 . S
C111 N108 1.313 . S
C111 N112 1.344 . S
C111 H115 0.930 . S
N112 C109 1.377 . S
N112 C111 1.344 . S
O113 Co105 2.055 . S
O113 C117 1.253 . S
H114 C110 0.931 . S
H115 C111 0.930 . S
O116 Co105 2.039 . S
O116 C106 1.265 . S
C117 O113 1.253 . S
C117 O118 1.227 . S
O118 C117 1.227 . S
N119 Co105 2.140 . S
N119 C122 1.346 . S
N119 C123 1.345 . S
C120 C121 1.387 . S
C120 C124 1.391 . S
C121 C120 1.387 . S
C121 C122 1.369 . S
C121 H130 0.929 . S
C122 N119 1.346 . S
C122 C121 1.369 . S
C122 H125 0.928 . S
C123 N119 1.345 . S
C123 C124 1.371 . S
C123 H126 0.931 . S
C124 C120 1.391 . S
C124 C123 1.371 . S
C124 H131 0.930 . S
H125 C122 0.928 . S
H126 C123 0.931 . S
H127 C103 0.930 . S
H128 C100 0.930 . S
H129 C109 0.930 . S
H130 C121 0.929 . S
H131 C124 0.930 . S
C132 C133 1.351 . S
C132 N135 1.368 . S
C132 H137 0.931 . S
C133 C132 1.351 . S
C133 N134 1.373 . S
C133 H161 0.930 1_455 S
N134 C133 1.373 . S
N134 C136 1.340 . S
N135 C132 1.368 . S
N135 C136 1.321 . S
N135 Co138 2.135 . S
C136 N134 1.340 . S
C136 N135 1.321 . S
C136 H160 0.930 . S
H137 C132 0.931 . S
Co138 N135 2.135 . S
Co138 N141 2.121 . S
Co138 O146 2.055 . S
Co138 O149 2.039 . S
Co138 N152 2.140 . S
C139 O140 1.227 . S
C139 O149 1.265 . S
O140 C139 1.227 . S
N141 Co138 2.121 . S
N141 C143 1.375 . S
N141 C144 1.313 . S
C142 C143 1.338 . S
C142 N145 1.377 . S
C142 H162 0.930 . S
C143 N141 1.375 . S
C143 C142 1.338 . S
C143 H147 0.931 . S
C144 N141 1.313 . S
C144 N145 1.344 . S
C144 H148 0.930 . S
N145 C142 1.377 . S
N145 C144 1.344 . S
O146 Co138 2.055 . S
O146 C150 1.253 . S
H147 C143 0.931 . S
H148 C144 0.930 . S
O149 Co138 2.039 . S
O149 C139 1.265 . S
C150 O146 1.253 . S
C150 O151 1.227 . S
O151 C150 1.227 . S
N152 Co138 2.140 . S
N152 C155 1.346 . S
N152 C156 1.345 . S
C153 C154 1.387 . S
C153 C157 1.391 . S
C154 C153 1.387 . S
C154 C155 1.369 . S
C154 H163 0.929 . S
C155 N152 1.346 . S
C155 C154 1.369 . S
C155 H158 0.928 . S
C156 N152 1.345 . S
C156 C157 1.371 . S
C156 H159 0.931 . S
C157 C153 1.391 . S
C157 C156 1.371 . S
C157 H164 0.930 . S
H158 C155 0.928 . S
H159 C156 0.931 . S
H160 C136 0.930 . S
H161 C133 0.930 1_655 S
H162 C142 0.930 . S
H163 C154 0.929 . S
H164 C157 0.930 . S
C165 C166 1.351 . S
C165 N168 1.368 . S
C165 H170 0.931 . S
C166 C165 1.351 . S
C166 N167 1.373 . S
C166 H194 0.930 . S
N167 C166 1.373 . S
N167 C169 1.340 . S
N168 C165 1.368 . S
N168 C169 1.321 . S
N168 Co171 2.135 . S
C169 N167 1.340 . S
C169 N168 1.321 . S
C169 H193 0.930 . S
H170 C165 0.931 . S
Co171 N168 2.135 . S
Co171 N174 2.121 . S
Co171 O179 2.055 . S
Co171 O182 2.039 . S
Co171 N185 2.140 . S
C172 O173 1.227 . S
C172 O182 1.265 . S
O173 C172 1.227 . S
N174 Co171 2.121 . S
N174 C176 1.375 . S
N174 C177 1.313 . S
C175 C176 1.338 . S
C175 N178 1.377 . S
C175 H195 0.930 . S
C176 N174 1.375 . S
C176 C175 1.338 . S
C176 H180 0.931 . S
C177 N174 1.313 . S
C177 N178 1.344 . S
C177 H181 0.930 . S
N178 C175 1.377 . S
N178 C177 1.344 . S
O179 Co171 2.055 . S
O179 C183 1.253 . S
H180 C176 0.931 . S
H181 C177 0.930 . S
O182 Co171 2.039 . S
O182 C172 1.265 . S
C183 O179 1.253 . S
C183 O184 1.227 . S
O184 C183 1.227 . S
N185 Co171 2.140 . S
N185 C188 1.346 . S
N185 C189 1.345 . S
C186 C187 1.387 . S
C186 C190 1.391 . S
C187 C186 1.387 . S
C187 C188 1.369 . S
C187 H196 0.929 . S
C188 N185 1.346 . S
C188 C187 1.369 . S
C188 H191 0.928 . S
C189 N185 1.345 . S
C189 C190 1.371 . S
C189 H192 0.931 . S
C190 C186 1.391 . S
C190 C189 1.371 . S
C190 H197 0.930 . S
H191 C188 0.928 . S
H192 C189 0.931 . S
H193 C169 0.930 . S
H194 C166 0.930 . S
H195 C175 0.930 . S
H196 C187 0.929 . S
H197 C190 0.930 . S
C198 C199 1.351 . S
C198 N201 1.368 . S
C198 H203 0.931 . S
C199 C198 1.351 . S
C199 N200 1.373 . S
C199 H227 0.930 1_655 S
N200 C199 1.373 . S
N200 C202 1.340 . S
N201 C198 1.368 . S
N201 C202 1.321 . S
N201 Co204 2.135 . S
C202 N200 1.340 . S
C202 N201 1.321 . S
C202 H226 0.930 . S
H203 C198 0.931 . S
Co204 N201 2.135 . S
Co204 N207 2.121 . S
Co204 O212 2.055 . S
Co204 O215 2.039 . S
Co204 N218 2.140 . S
C205 O206 1.227 . S
C205 O215 1.265 . S
O206 C205 1.227 . S
N207 Co204 2.121 . S
N207 C209 1.375 . S
N207 C210 1.313 . S
C208 C209 1.338 . S
C208 N211 1.377 . S
C208 H228 0.930 . S
C209 N207 1.375 . S
C209 C208 1.338 . S
C209 H213 0.931 . S
C210 N207 1.313 . S
C210 N211 1.344 . S
C210 H214 0.930 . S
N211 C208 1.377 . S
N211 C210 1.344 . S
O212 Co204 2.055 . S
O212 C216 1.253 . S
H213 C209 0.931 . S
H214 C210 0.930 . S
O215 Co204 2.039 . S
O215 C205 1.265 . S
C216 O212 1.253 . S
C216 O217 1.227 . S
O217 C216 1.227 . S
N218 Co204 2.140 . S
N218 C221 1.346 . S
N218 C222 1.345 . S
C219 C220 1.387 . S
C219 C223 1.391 . S
C220 C219 1.387 . S
C220 C221 1.369 . S
C220 H229 0.929 . S
C221 N218 1.346 . S
C221 C220 1.369 . S
C221 H224 0.928 . S
C222 N218 1.345 . S
C222 C223 1.371 . S
C222 H225 0.931 . S
C223 C219 1.391 . S
C223 C222 1.371 . S
C223 H230 0.930 . S
H224 C221 0.928 . S
H225 C222 0.931 . S
H226 C202 0.930 . S
H227 C199 0.930 1_455 S
H228 C208 0.930 . S
H229 C220 0.929 . S
H230 C223 0.930 . S
C231 C232 1.351 . S
C231 N234 1.368 . S
C231 H236 0.931 . S
C232 C231 1.351 . S
C232 N233 1.373 . S
C232 H260 0.930 . S
N233 C232 1.373 . S
N233 C235 1.340 . S
N234 C231 1.368 . S
N234 C235 1.321 . S
N234 Co237 2.135 . S
C235 N233 1.340 . S
C235 N234 1.321 . S
C235 H259 0.930 . S
H236 C231 0.931 . S
Co237 N234 2.135 . S
Co237 N240 2.121 . S
Co237 O245 2.055 . S
Co237 O248 2.039 . S
Co237 N251 2.140 . S
C238 O239 1.227 . S
C238 O248 1.265 . S
O239 C238 1.227 . S
N240 Co237 2.121 . S
N240 C242 1.375 . S
N240 C243 1.313 . S
C241 C242 1.338 . S
C241 N244 1.377 . S
C241 H261 0.930 . S
C242 N240 1.375 . S
C242 C241 1.338 . S
C242 H246 0.931 . S
C243 N240 1.313 . S
C243 N244 1.344 . S
C243 H247 0.930 . S
N244 C241 1.377 . S
N244 C243 1.344 . S
O245 Co237 2.055 . S
O245 C249 1.253 . S
H246 C242 0.931 . S
H247 C243 0.930 . S
O248 Co237 2.039 . S
O248 C238 1.265 . S
C249 O245 1.253 . S
C249 O250 1.227 . S
O250 C249 1.227 . S
N251 Co237 2.140 . S
N251 C254 1.346 . S
N251 C255 1.345 . S
C252 C253 1.387 . S
C252 C256 1.391 . S
C253 C252 1.387 . S
C253 C254 1.369 . S
C253 H262 0.929 . S
C254 N251 1.346 . S
C254 C253 1.369 . S
C254 H257 0.928 . S
C255 N251 1.345 . S
C255 C256 1.371 . S
C255 H258 0.931 . S
C256 C252 1.391 . S
C256 C255 1.371 . S
C256 H263 0.930 . S
H257 C254 0.928 . S
H258 C255 0.931 . S
H259 C235 0.930 . S
H260 C232 0.930 . S
H261 C241 0.930 . S
H262 C253 0.929 . S
H263 C256 0.930 . S
C264 C265 1.351 . S
C264 N267 1.368 . S
C264 H269 0.931 . S
C265 C264 1.351 . S
C265 N266 1.373 . S
C265 H293 0.930 1_545 S
N266 C265 1.373 . S
N266 C268 1.340 . S
N267 C264 1.368 . S
N267 C268 1.321 . S
N267 Co270 2.135 . S
C268 N266 1.340 . S
C268 N267 1.321 . S
C268 H292 0.930 . S
H269 C264 0.931 . S
Co270 N267 2.135 . S
Co270 N273 2.121 . S
Co270 O278 2.055 . S
Co270 O281 2.039 . S
Co270 N284 2.140 . S
C271 O272 1.227 . S
C271 O281 1.265 . S
O272 C271 1.227 . S
N273 Co270 2.121 . S
N273 C275 1.375 . S
N273 C276 1.313 . S
C274 C275 1.338 . S
C274 N277 1.377 . S
C274 H294 0.930 . S
C275 N273 1.375 . S
C275 C274 1.338 . S
C275 H279 0.931 . S
C276 N273 1.313 . S
C276 N277 1.344 . S
C276 H280 0.930 . S
N277 C274 1.377 . S
N277 C276 1.344 . S
O278 Co270 2.055 . S
O278 C282 1.253 . S
H279 C275 0.931 . S
H280 C276 0.930 . S
O281 Co270 2.039 . S
O281 C271 1.265 . S
C282 O278 1.253 . S
C282 O283 1.227 . S
O283 C282 1.227 . S
N284 Co270 2.140 . S
N284 C287 1.346 . S
N284 C288 1.345 . S
C285 C286 1.387 . S
C285 C289 1.391 . S
C286 C285 1.387 . S
C286 C287 1.369 . S
C286 H295 0.929 . S
C287 N284 1.346 . S
C287 C286 1.369 . S
C287 H290 0.928 . S
C288 N284 1.345 . S
C288 C289 1.371 . S
C288 H291 0.931 . S
C289 C285 1.391 . S
C289 C288 1.371 . S
C289 H296 0.930 . S
H290 C287 0.928 . S
H291 C288 0.931 . S
H292 C268 0.930 . S
H293 C265 0.930 1_565 S
H294 C274 0.930 . S
H295 C286 0.929 . S
H296 C289 0.930 . S
C297 C298 1.351 . S
C297 N300 1.368 . S
C297 H302 0.931 . S
C298 C297 1.351 . S
C298 N299 1.373 . S
C298 H326 0.930 . S
N299 C298 1.373 . S
N299 C301 1.340 . S
N300 C297 1.368 . S
N300 C301 1.321 . S
N300 Co303 2.135 . S
C301 N299 1.340 . S
C301 N300 1.321 . S
C301 H325 0.930 . S
H302 C297 0.931 . S
Co303 N300 2.135 . S
Co303 N306 2.121 . S
Co303 O311 2.055 . S
Co303 O314 2.039 . S
Co303 N317 2.140 . S
C304 O305 1.227 . S
C304 O314 1.265 . S
O305 C304 1.227 . S
N306 Co303 2.121 . S
N306 C308 1.375 . S
N306 C309 1.313 . S
C307 C308 1.338 . S
C307 N310 1.377 . S
C307 H327 0.930 . S
C308 N306 1.375 . S
C308 C307 1.338 . S
C308 H312 0.931 . S
C309 N306 1.313 . S
C309 N310 1.344 . S
C309 H313 0.930 . S
N310 C307 1.377 . S
N310 C309 1.344 . S
O311 Co303 2.055 . S
O311 C315 1.253 . S
H312 C308 0.931 . S
H313 C309 0.930 . S
O314 Co303 2.039 . S
O314 C304 1.265 . S
C315 O311 1.253 . S
C315 O316 1.227 . S
O316 C315 1.227 . S
N317 Co303 2.140 . S
N317 C320 1.346 . S
N317 C321 1.345 . S
C318 C319 1.387 . S
C318 C322 1.391 . S
C319 C318 1.387 . S
C319 C320 1.369 . S
C319 H328 0.929 . S
C320 N317 1.346 . S
C320 C319 1.369 . S
C320 H323 0.928 . S
C321 N317 1.345 . S
C321 C322 1.371 . S
C321 H324 0.931 . S
C322 C318 1.391 . S
C322 C321 1.371 . S
C322 H329 0.930 . S
H323 C320 0.928 . S
H324 C321 0.931 . S
H325 C301 0.930 . S
H326 C298 0.930 . S
H327 C307 0.930 . S
H328 C319 0.929 . S
H329 C322 0.930 . S
C330 C331 1.351 . S
C330 N333 1.368 . S
C330 H335 0.931 . S
C331 C330 1.351 . S
C331 N332 1.373 . S
C331 H359 0.930 1_565 S
N332 C331 1.373 . S
N332 C334 1.340 . S
N333 C330 1.368 . S
N333 C334 1.321 . S
N333 Co336 2.135 . S
C334 N332 1.340 . S
C334 N333 1.321 . S
C334 H358 0.930 . S
H335 C330 0.931 . S
Co336 N333 2.135 . S
Co336 N339 2.121 . S
Co336 O344 2.055 . S
Co336 O347 2.039 . S
Co336 N350 2.140 . S
C337 O338 1.227 . S
C337 O347 1.265 . S
O338 C337 1.227 . S
N339 Co336 2.121 . S
N339 C341 1.375 . S
N339 C342 1.313 . S
C340 C341 1.338 . S
C340 N343 1.377 . S
C340 H360 0.930 . S
C341 N339 1.375 . S
C341 C340 1.338 . S
C341 H345 0.931 . S
C342 N339 1.313 . S
C342 N343 1.344 . S
C342 H346 0.930 . S
N343 C340 1.377 . S
N343 C342 1.344 . S
O344 Co336 2.055 . S
O344 C348 1.253 . S
H345 C341 0.931 . S
H346 C342 0.930 . S
O347 Co336 2.039 . S
O347 C337 1.265 . S
C348 O344 1.253 . S
C348 O349 1.227 . S
O349 C348 1.227 . S
N350 Co336 2.140 . S
N350 C353 1.346 . S
N350 C354 1.345 . S
C351 C352 1.387 . S
C351 C355 1.391 . S
C352 C351 1.387 . S
C352 C353 1.369 . S
C352 H361 0.929 . S
C353 N350 1.346 . S
C353 C352 1.369 . S
C353 H356 0.928 . S
C354 N350 1.345 . S
C354 C355 1.371 . S
C354 H357 0.931 . S
C355 C351 1.391 . S
C355 C354 1.371 . S
C355 H362 0.930 . S
H356 C353 0.928 . S
H357 C354 0.931 . S
H358 C334 0.930 . S
H359 C331 0.930 1_545 S
H360 C340 0.930 . S
H361 C352 0.929 . S
H362 C355 0.930 . S
C363 C364 1.351 . S
C363 N366 1.368 . S
C363 H368 0.931 . S
C364 C363 1.351 . S
C364 N365 1.373 . S
C364 H392 0.930 . S
N365 C364 1.373 . S
N365 C367 1.340 . S
N366 C363 1.368 . S
N366 C367 1.321 . S
N366 Co369 2.135 . S
C367 N365 1.340 . S
C367 N366 1.321 . S
C367 H391 0.930 . S
H368 C363 0.931 . S
Co369 N366 2.135 . S
Co369 N372 2.121 . S
Co369 O377 2.055 . S
Co369 O380 2.039 . S
Co369 N383 2.140 . S
C370 O371 1.227 . S
C370 O380 1.265 . S
O371 C370 1.227 . S
N372 Co369 2.121 . S
N372 C374 1.375 . S
N372 C375 1.313 . S
C373 C374 1.338 . S
C373 N376 1.377 . S
C373 H393 0.930 . S
C374 N372 1.375 . S
C374 C373 1.338 . S
C374 H378 0.931 . S
C375 N372 1.313 . S
C375 N376 1.344 . S
C375 H379 0.930 . S
N376 C373 1.377 . S
N376 C375 1.344 . S
O377 Co369 2.055 . S
O377 C381 1.253 . S
H378 C374 0.931 . S
H379 C375 0.930 . S
O380 Co369 2.039 . S
O380 C370 1.265 . S
C381 O377 1.253 . S
C381 O382 1.227 . S
O382 C381 1.227 . S
N383 Co369 2.140 . S
N383 C386 1.346 . S
N383 C387 1.345 . S
C384 C385 1.387 . S
C384 C388 1.391 . S
C385 C384 1.387 . S
C385 C386 1.369 . S
C385 H394 0.929 . S
C386 N383 1.346 . S
C386 C385 1.369 . S
C386 H389 0.928 . S
C387 N383 1.345 . S
C387 C388 1.371 . S
C387 H390 0.931 . S
C388 C384 1.391 . S
C388 C387 1.371 . S
C388 H395 0.930 . S
H389 C386 0.928 . S
H390 C387 0.931 . S
H391 C367 0.930 . S
H392 C364 0.930 . S
H393 C373 0.930 . S
H394 C385 0.929 . S
H395 C388 0.930 . S
C396 C397 1.351 . S
C396 N399 1.368 . S
C396 H401 0.931 . S
C397 C396 1.351 . S
C397 N398 1.373 . S
C397 H425 0.930 1_565 S
N398 C397 1.373 . S
N398 C400 1.340 . S
N399 C396 1.368 . S
N399 C400 1.321 . S
N399 Co402 2.135 . S
C400 N398 1.340 . S
C400 N399 1.321 . S
C400 H424 0.930 . S
H401 C396 0.931 . S
Co402 N399 2.135 . S
Co402 N405 2.121 . S
Co402 O410 2.055 . S
Co402 O413 2.039 . S
Co402 N416 2.140 . S
C403 O404 1.227 . S
C403 O413 1.265 . S
O404 C403 1.227 . S
N405 Co402 2.121 . S
N405 C407 1.375 . S
N405 C408 1.313 . S
C406 C407 1.338 . S
C406 N409 1.377 . S
C406 H426 0.930 . S
C407 N405 1.375 . S
C407 C406 1.338 . S
C407 H411 0.931 . S
C408 N405 1.313 . S
C408 N409 1.344 . S
C408 H412 0.930 . S
N409 C406 1.377 . S
N409 C408 1.344 . S
O410 Co402 2.055 . S
O410 C414 1.253 . S
H411 C407 0.931 . S
H412 C408 0.930 . S
O413 Co402 2.039 . S
O413 C403 1.265 . S
C414 O410 1.253 . S
C414 O415 1.227 . S
O415 C414 1.227 . S
N416 Co402 2.140 . S
N416 C419 1.346 . S
N416 C420 1.345 . S
C417 C418 1.387 . S
C417 C421 1.391 . S
C418 C417 1.387 . S
C418 C419 1.369 . S
C418 H427 0.929 . S
C419 N416 1.346 . S
C419 C418 1.369 . S
C419 H422 0.928 . S
C420 N416 1.345 . S
C420 C421 1.371 . S
C420 H423 0.931 . S
C421 C417 1.391 . S
C421 C420 1.371 . S
C421 H428 0.930 . S
H422 C419 0.928 . S
H423 C420 0.931 . S
H424 C400 0.930 . S
H425 C397 0.930 1_545 S
H426 C406 0.930 . S
H427 C418 0.929 . S
H428 C421 0.930 . S
C429 C430 1.351 . S
C429 N432 1.368 . S
C429 H434 0.931 . S
C430 C429 1.351 . S
C430 N431 1.373 . S
C430 H458 0.930 . S
N431 C430 1.373 . S
N431 C433 1.340 . S
N432 C429 1.368 . S
N432 C433 1.321 . S
N432 Co435 2.135 . S
C433 N431 1.340 . S
C433 N432 1.321 . S
C433 H457 0.930 . S
H434 C429 0.931 . S
Co435 N432 2.135 . S
Co435 N438 2.121 . S
Co435 O443 2.055 . S
Co435 O446 2.039 . S
Co435 N449 2.140 . S
C436 O437 1.227 . S
C436 O446 1.265 . S
O437 C436 1.227 . S
N438 Co435 2.121 . S
N438 C440 1.375 . S
N438 C441 1.313 . S
C439 C440 1.338 . S
C439 N442 1.377 . S
C439 H459 0.930 . S
C440 N438 1.375 . S
C440 C439 1.338 . S
C440 H444 0.931 . S
C441 N438 1.313 . S
C441 N442 1.344 . S
C441 H445 0.930 . S
N442 C439 1.377 . S
N442 C441 1.344 . S
O443 Co435 2.055 . S
O443 C447 1.253 . S
H444 C440 0.931 . S
H445 C441 0.930 . S
O446 Co435 2.039 . S
O446 C436 1.265 . S
C447 O443 1.253 . S
C447 O448 1.227 . S
O448 C447 1.227 . S
N449 Co435 2.140 . S
N449 C452 1.346 . S
N449 C453 1.345 . S
C450 C451 1.387 . S
C450 C454 1.391 . S
C451 C450 1.387 . S
C451 C452 1.369 . S
C451 H460 0.929 . S
C452 N449 1.346 . S
C452 C451 1.369 . S
C452 H455 0.928 . S
C453 N449 1.345 . S
C453 C454 1.371 . S
C453 H456 0.931 . S
C454 C450 1.391 . S
C454 C453 1.371 . S
C454 H461 0.930 . S
H455 C452 0.928 . S
H456 C453 0.931 . S
H457 C433 0.930 . S
H458 C430 0.930 . S
H459 C439 0.930 . S
H460 C451 0.929 . S
H461 C454 0.930 . S
C462 C463 1.351 . S
C462 N465 1.368 . S
C462 H467 0.931 . S
C463 C462 1.351 . S
C463 N464 1.373 . S
C463 H491 0.930 1_545 S
N464 C463 1.373 . S
N464 C466 1.340 . S
N465 C462 1.368 . S
N465 C466 1.321 . S
N465 Co468 2.135 . S
C466 N464 1.340 . S
C466 N465 1.321 . S
C466 H490 0.930 . S
H467 C462 0.931 . S
Co468 N465 2.135 . S
Co468 N471 2.121 . S
Co468 O476 2.055 . S
Co468 O479 2.039 . S
Co468 N482 2.140 . S
C469 O470 1.227 . S
C469 O479 1.265 . S
O470 C469 1.227 . S
N471 Co468 2.121 . S
N471 C473 1.375 . S
N471 C474 1.313 . S
C472 C473 1.338 . S
C472 N475 1.377 . S
C472 H492 0.930 . S
C473 N471 1.375 . S
C473 C472 1.338 . S
C473 H477 0.931 . S
C474 N471 1.313 . S
C474 N475 1.344 . S
C474 H478 0.930 . S
N475 C472 1.377 . S
N475 C474 1.344 . S
O476 Co468 2.055 . S
O476 C480 1.253 . S
H477 C473 0.931 . S
H478 C474 0.930 . S
O479 Co468 2.039 . S
O479 C469 1.265 . S
C480 O476 1.253 . S
C480 O481 1.227 . S
O481 C480 1.227 . S
N482 Co468 2.140 . S
N482 C485 1.346 . S
N482 C486 1.345 . S
C483 C484 1.387 . S
C483 C487 1.391 . S
C484 C483 1.387 . S
C484 C485 1.369 . S
C484 H493 0.929 . S
C485 N482 1.346 . S
C485 C484 1.369 . S
C485 H488 0.928 . S
C486 N482 1.345 . S
C486 C487 1.371 . S
C486 H489 0.931 . S
C487 C483 1.391 . S
C487 C486 1.371 . S
C487 H494 0.930 . S
H488 C485 0.928 . S
H489 C486 0.931 . S
H490 C466 0.930 . S
H491 C463 0.930 1_565 S
H492 C472 0.930 . S
H493 C484 0.929 . S
H494 C487 0.930 . S
C495 C496 1.351 . S
C495 N498 1.368 . S
C495 H500 0.931 . S
C496 C495 1.351 . S
C496 N497 1.373 . S
C496 H524 0.930 . S
N497 C496 1.373 . S
N497 C499 1.340 . S
N498 C495 1.368 . S
N498 C499 1.321 . S
N498 Co501 2.135 . S
C499 N497 1.340 . S
C499 N498 1.321 . S
C499 H523 0.930 . S
H500 C495 0.931 . S
Co501 N498 2.135 . S
Co501 N504 2.121 . S
Co501 O509 2.055 . S
Co501 O512 2.039 . S
Co501 N515 2.140 . S
C502 O503 1.227 . S
C502 O512 1.265 . S
O503 C502 1.227 . S
N504 Co501 2.121 . S
N504 C506 1.375 . S
N504 C507 1.313 . S
C505 C506 1.338 . S
C505 N508 1.377 . S
C505 H525 0.930 . S
C506 N504 1.375 . S
C506 C505 1.338 . S
C506 H510 0.931 . S
C507 N504 1.313 . S
C507 N508 1.344 . S
C507 H511 0.930 . S
N508 C505 1.377 . S
N508 C507 1.344 . S
O509 Co501 2.055 . S
O509 C513 1.253 . S
H510 C506 0.931 . S
H511 C507 0.930 . S
O512 Co501 2.039 . S
O512 C502 1.265 . S
C513 O509 1.253 . S
C513 O514 1.227 . S
O514 C513 1.227 . S
N515 Co501 2.140 . S
N515 C518 1.346 . S
N515 C519 1.345 . S
C516 C517 1.387 . S
C516 C520 1.391 . S
C517 C516 1.387 . S
C517 C518 1.369 . S
C517 H526 0.929 . S
C518 N515 1.346 . S
C518 C517 1.369 . S
C518 H521 0.928 . S
C519 N515 1.345 . S
C519 C520 1.371 . S
C519 H522 0.931 . S
C520 C516 1.391 . S
C520 C519 1.371 . S
C520 H527 0.930 . S
H521 C518 0.928 . S
H522 C519 0.931 . S
H523 C499 0.930 . S
H524 C496 0.930 . S
H525 C505 0.930 . S
H526 C517 0.929 . S
H527 C520 0.930 . S
C528 C529 1.351 . S
C528 N531 1.368 . S
C528 H533 0.931 . S
C529 C528 1.351 . S
C529 N530 1.373 . S
C529 H557 0.930 1_554 S
N530 C529 1.373 . S
N530 C532 1.340 . S
N531 C528 1.368 . S
N531 C532 1.321 . S
N531 Co534 2.135 . S
C532 N530 1.340 . S
C532 N531 1.321 . S
C532 H556 0.930 . S
H533 C528 0.931 . S
Co534 N531 2.135 . S
Co534 N537 2.121 . S
Co534 O542 2.055 . S
Co534 O545 2.039 . S
Co534 N548 2.140 . S
C535 O536 1.227 . S
C535 O545 1.265 . S
O536 C535 1.227 . S
N537 Co534 2.121 . S
N537 C539 1.375 . S
N537 C540 1.313 . S
C538 C539 1.338 . S
C538 N541 1.377 . S
C538 H558 0.930 . S
C539 N537 1.375 . S
C539 C538 1.338 . S
C539 H543 0.931 . S
C540 N537 1.313 . S
C540 N541 1.344 . S
C540 H544 0.930 . S
N541 C538 1.377 . S
N541 C540 1.344 . S
O542 Co534 2.055 . S
O542 C546 1.253 . S
H543 C539 0.931 . S
H544 C540 0.930 . S
O545 Co534 2.039 . S
O545 C535 1.265 . S
C546 O542 1.253 . S
C546 O547 1.227 . S
O547 C546 1.227 . S
N548 Co534 2.140 . S
N548 C551 1.346 . S
N548 C552 1.345 . S
C549 C550 1.387 . S
C549 C553 1.391 . S
C550 C549 1.387 . S
C550 C551 1.369 . S
C550 H559 0.929 . S
C551 N548 1.346 . S
C551 C550 1.369 . S
C551 H554 0.928 . S
C552 N548 1.345 . S
C552 C553 1.371 . S
C552 H555 0.931 . S
C553 C549 1.391 . S
C553 C552 1.371 . S
C553 H560 0.930 . S
H554 C551 0.928 . S
H555 C552 0.931 . S
H556 C532 0.930 . S
H557 C529 0.930 1_556 S
H558 C538 0.930 . S
H559 C550 0.929 . S
H560 C553 0.930 . S
C561 C562 1.351 . S
C561 N564 1.368 . S
C561 H566 0.931 . S
C562 C561 1.351 . S
C562 N563 1.373 . S
C562 H590 0.930 1_556 S
N563 C562 1.373 . S
N563 C565 1.340 . S
N564 C561 1.368 . S
N564 C565 1.321 . S
N564 Co567 2.135 . S
C565 N563 1.340 . S
C565 N564 1.321 . S
C565 H589 0.930 . S
H566 C561 0.931 . S
Co567 N564 2.135 . S
Co567 N570 2.121 . S
Co567 O575 2.055 . S
Co567 O578 2.039 . S
Co567 N581 2.140 . S
C568 O569 1.227 . S
C568 O578 1.265 . S
O569 C568 1.227 . S
N570 Co567 2.121 . S
N570 C572 1.375 . S
N570 C573 1.313 . S
C571 C572 1.338 . S
C571 N574 1.377 . S
C571 H591 0.930 . S
C572 N570 1.375 . S
C572 C571 1.338 . S
C572 H576 0.931 . S
C573 N570 1.313 . S
C573 N574 1.344 . S
C573 H577 0.930 . S
N574 C571 1.377 . S
N574 C573 1.344 . S
O575 Co567 2.055 . S
O575 C579 1.253 . S
H576 C572 0.931 . S
H577 C573 0.930 . S
O578 Co567 2.039 . S
O578 C568 1.265 . S
C579 O575 1.253 . S
C579 O580 1.227 . S
O580 C579 1.227 . S
N581 Co567 2.140 . S
N581 C584 1.346 . S
N581 C585 1.345 . S
C582 C583 1.387 . S
C582 C586 1.391 . S
C583 C582 1.387 . S
C583 C584 1.369 . S
C583 H592 0.929 . S
C584 N581 1.346 . S
C584 C583 1.369 . S
C584 H587 0.928 . S
C585 N581 1.345 . S
C585 C586 1.371 . S
C585 H588 0.931 . S
C586 C582 1.391 . S
C586 C585 1.371 . S
C586 H593 0.930 . S
H587 C584 0.928 . S
H588 C585 0.931 . S
H589 C565 0.930 . S
H590 C562 0.930 1_554 S
H591 C571 0.930 . S
H592 C583 0.929 . S
H593 C586 0.930 . S
C594 C595 1.351 . S
C594 N597 1.368 . S
C594 H599 0.931 . S
C595 C594 1.351 . S
C595 N596 1.373 . S
C595 H623 0.930 . S
N596 C595 1.373 . S
N596 C598 1.340 . S
N597 C594 1.368 . S
N597 C598 1.321 . S
N597 Co600 2.135 . S
C598 N596 1.340 . S
C598 N597 1.321 . S
C598 H622 0.930 . S
H599 C594 0.931 . S
Co600 N597 2.135 . S
Co600 N603 2.121 . S
Co600 O608 2.055 . S
Co600 O611 2.039 . S
Co600 N614 2.140 . S
C601 O602 1.227 . S
C601 O611 1.265 . S
O602 C601 1.227 . S
N603 Co600 2.121 . S
N603 C605 1.375 . S
N603 C606 1.313 . S
C604 C605 1.338 . S
C604 N607 1.377 . S
C604 H624 0.930 . S
C605 N603 1.375 . S
C605 C604 1.338 . S
C605 H609 0.931 . S
C606 N603 1.313 . S
C606 N607 1.344 . S
C606 H610 0.930 . S
N607 C604 1.377 . S
N607 C606 1.344 . S
O608 Co600 2.055 . S
O608 C612 1.253 . S
H609 C605 0.931 . S
H610 C606 0.930 . S
O611 Co600 2.039 . S
O611 C601 1.265 . S
C612 O608 1.253 . S
C612 O613 1.227 . S
O613 C612 1.227 . S
N614 Co600 2.140 . S
N614 C617 1.346 . S
N614 C618 1.345 . S
C615 C616 1.387 . S
C615 C619 1.391 . S
C616 C615 1.387 . S
C616 C617 1.369 . S
C616 H625 0.929 . S
C617 N614 1.346 . S
C617 C616 1.369 . S
C617 H620 0.928 . S
C618 N614 1.345 . S
C618 C619 1.371 . S
C618 H621 0.931 . S
C619 C615 1.391 . S
C619 C618 1.371 . S
C619 H626 0.930 . S
H620 C617 0.928 . S
H621 C618 0.931 . S
H622 C598 0.930 . S
H623 C595 0.930 . S
H624 C604 0.930 . S
H625 C616 0.929 . S
H626 C619 0.930 . S
C627 C628 1.351 . S
C627 N630 1.368 . S
C627 H632 0.931 . S
C628 C627 1.351 . S
C628 N629 1.373 . S
C628 H656 0.930 1_556 S
N629 C628 1.373 . S
N629 C631 1.340 . S
N630 C627 1.368 . S
N630 C631 1.321 . S
N630 Co633 2.135 . S
C631 N629 1.340 . S
C631 N630 1.321 . S
C631 H655 0.930 . S
H632 C627 0.931 . S
Co633 N630 2.135 . S
Co633 N636 2.121 . S
Co633 O641 2.055 . S
Co633 O644 2.039 . S
Co633 N647 2.140 . S
C634 O635 1.227 . S
C634 O644 1.265 . S
O635 C634 1.227 . S
N636 Co633 2.121 . S
N636 C638 1.375 . S
N636 C639 1.313 . S
C637 C638 1.338 . S
C637 N640 1.377 . S
C637 H657 0.930 . S
C638 N636 1.375 . S
C638 C637 1.338 . S
C638 H642 0.931 . S
C639 N636 1.313 . S
C639 N640 1.344 . S
C639 H643 0.930 . S
N640 C637 1.377 . S
N640 C639 1.344 . S
O641 Co633 2.055 . S
O641 C645 1.253 . S
H642 C638 0.931 . S
H643 C639 0.930 . S
O644 Co633 2.039 . S
O644 C634 1.265 . S
C645 O641 1.253 . S
C645 O646 1.227 . S
O646 C645 1.227 . S
N647 Co633 2.140 . S
N647 C650 1.346 . S
N647 C651 1.345 . S
C648 C649 1.387 . S
C648 C652 1.391 . S
C649 C648 1.387 . S
C649 C650 1.369 . S
C649 H658 0.929 . S
C650 N647 1.346 . S
C650 C649 1.369 . S
C650 H653 0.928 . S
C651 N647 1.345 . S
C651 C652 1.371 . S
C651 H654 0.931 . S
C652 C648 1.391 . S
C652 C651 1.371 . S
C652 H659 0.930 . S
H653 C650 0.928 . S
H654 C651 0.931 . S
H655 C631 0.930 . S
H656 C628 0.930 1_554 S
H657 C637 0.930 . S
H658 C649 0.929 . S
H659 C652 0.930 . S
C660 C661 1.351 . S
C660 N663 1.368 . S
C660 H665 0.931 . S
C661 C660 1.351 . S
C661 N662 1.373 . S
C661 H689 0.930 . S
N662 C661 1.373 . S
N662 C664 1.340 . S
N663 C660 1.368 . S
N663 C664 1.321 . S
N663 Co666 2.135 . S
C664 N662 1.340 . S
C664 N663 1.321 . S
C664 H688 0.930 . S
H665 C660 0.931 . S
Co666 N663 2.135 . S
Co666 N669 2.121 . S
Co666 O674 2.055 . S
Co666 O677 2.039 . S
Co666 N680 2.140 . S
C667 O668 1.227 . S
C667 O677 1.265 . S
O668 C667 1.227 . S
N669 Co666 2.121 . S
N669 C671 1.375 . S
N669 C672 1.313 . S
C670 C671 1.338 . S
C670 N673 1.377 . S
C670 H690 0.930 . S
C671 N669 1.375 . S
C671 C670 1.338 . S
C671 H675 0.931 . S
C672 N669 1.313 . S
C672 N673 1.344 . S
C672 H676 0.930 . S
N673 C670 1.377 . S
N673 C672 1.344 . S
O674 Co666 2.055 . S
O674 C678 1.253 . S
H675 C671 0.931 . S
H676 C672 0.930 . S
O677 Co666 2.039 . S
O677 C667 1.265 . S
C678 O674 1.253 . S
C678 O679 1.227 . S
O679 C678 1.227 . S
N680 Co666 2.140 . S
N680 C683 1.346 . S
N680 C684 1.345 . S
C681 C682 1.387 . S
C681 C685 1.391 . S
C682 C681 1.387 . S
C682 C683 1.369 . S
C682 H691 0.929 . S
C683 N680 1.346 . S
C683 C682 1.369 . S
C683 H686 0.928 . S
C684 N680 1.345 . S
C684 C685 1.371 . S
C684 H687 0.931 . S
C685 C681 1.391 . S
C685 C684 1.371 . S
C685 H692 0.930 . S
H686 C683 0.928 . S
H687 C684 0.931 . S
H688 C664 0.930 . S
H689 C661 0.930 . S
H690 C670 0.930 . S
H691 C682 0.929 . S
H692 C685 0.930 . S
C693 C694 1.351 . S
C693 N696 1.368 . S
C693 H698 0.931 . S
C694 C693 1.351 . S
C694 N695 1.373 . S
C694 H722 0.930 1_554 S
N695 C694 1.373 . S
N695 C697 1.340 . S
N696 C693 1.368 . S
N696 C697 1.321 . S
N696 Co699 2.135 . S
C697 N695 1.340 . S
C697 N696 1.321 . S
C697 H721 0.930 . S
H698 C693 0.931 . S
Co699 N696 2.135 . S
Co699 N702 2.121 . S
Co699 O707 2.055 . S
Co699 O710 2.039 . S
Co699 N713 2.140 . S
C700 O701 1.227 . S
C700 O710 1.265 . S
O701 C700 1.227 . S
N702 Co699 2.121 . S
N702 C704 1.375 . S
N702 C705 1.313 . S
C703 C704 1.338 . S
C703 N706 1.377 . S
C703 H723 0.930 . S
C704 N702 1.375 . S
C704 C703 1.338 . S
C704 H708 0.931 . S
C705 N702 1.313 . S
C705 N706 1.344 . S
C705 H709 0.930 . S
N706 C703 1.377 . S
N706 C705 1.344 . S
O707 Co699 2.055 . S
O707 C711 1.253 . S
H708 C704 0.931 . S
H709 C705 0.930 . S
O710 Co699 2.039 . S
O710 C700 1.265 . S
C711 O707 1.253 . S
C711 O712 1.227 . S
O712 C711 1.227 . S
N713 Co699 2.140 . S
N713 C716 1.346 . S
N713 C717 1.345 . S
C714 C715 1.387 . S
C714 C718 1.391 . S
C715 C714 1.387 . S
C715 C716 1.369 . S
C715 H724 0.929 . S
C716 N713 1.346 . S
C716 C715 1.369 . S
C716 H719 0.928 . S
C717 N713 1.345 . S
C717 C718 1.371 . S
C717 H720 0.931 . S
C718 C714 1.391 . S
C718 C717 1.371 . S
C718 H725 0.930 . S
H719 C716 0.928 . S
H720 C717 0.931 . S
H721 C697 0.930 . S
H722 C694 0.930 1_556 S
H723 C703 0.930 . S
H724 C715 0.929 . S
H725 C718 0.930 . S
C726 C727 1.351 . S
C726 N729 1.368 . S
C726 H731 0.931 . S
C727 C726 1.351 . S
C727 N728 1.373 . S
C727 H755 0.930 . S
N728 C727 1.373 . S
N728 C730 1.340 . S
N729 C726 1.368 . S
N729 C730 1.321 . S
N729 Co732 2.135 . S
C730 N728 1.340 . S
C730 N729 1.321 . S
C730 H754 0.930 . S
H731 C726 0.931 . S
Co732 N729 2.135 . S
Co732 N735 2.121 . S
Co732 O740 2.055 . S
Co732 O743 2.039 . S
Co732 N746 2.140 . S
C733 O734 1.227 . S
C733 O743 1.265 . S
O734 C733 1.227 . S
N735 Co732 2.121 . S
N735 C737 1.375 . S
N735 C738 1.313 . S
C736 C737 1.338 . S
C736 N739 1.377 . S
C736 H756 0.930 . S
C737 N735 1.375 . S
C737 C736 1.338 . S
C737 H741 0.931 . S
C738 N735 1.313 . S
C738 N739 1.344 . S
C738 H742 0.930 . S
N739 C736 1.377 . S
N739 C738 1.344 . S
O740 Co732 2.055 . S
O740 C744 1.253 . S
H741 C737 0.931 . S
H742 C738 0.930 . S
O743 Co732 2.039 . S
O743 C733 1.265 . S
C744 O740 1.253 . S
C744 O745 1.227 . S
O745 C744 1.227 . S
N746 Co732 2.140 . S
N746 C749 1.346 . S
N746 C750 1.345 . S
C747 C748 1.387 . S
C747 C751 1.391 . S
C748 C747 1.387 . S
C748 C749 1.369 . S
C748 H757 0.929 . S
C749 N746 1.346 . S
C749 C748 1.369 . S
C749 H752 0.928 . S
C750 N746 1.345 . S
C750 C751 1.371 . S
C750 H753 0.931 . S
C751 C747 1.391 . S
C751 C750 1.371 . S
C751 H758 0.930 . S
H752 C749 0.928 . S
H753 C750 0.931 . S
H754 C730 0.930 . S
H755 C727 0.930 . S
H756 C736 0.930 . S
H757 C748 0.929 . S
H758 C751 0.930 . S
C759 C760 1.351 . S
C759 N762 1.368 . S
C759 H764 0.931 . S
C760 C759 1.351 . S
C760 N761 1.373 . S
C760 H788 0.930 . S
N761 C760 1.373 . S
N761 C763 1.340 . S
N762 C759 1.368 . S
N762 C763 1.321 . S
N762 Co765 2.135 . S
C763 N761 1.340 . S
C763 N762 1.321 . S
C763 H787 0.930 . S
H764 C759 0.931 . S
Co765 N762 2.135 . S
Co765 N768 2.121 . S
Co765 O773 2.055 . S
Co765 O776 2.039 . S
Co765 N779 2.140 . S
C766 O767 1.227 . S
C766 O776 1.265 . S
O767 C766 1.227 . S
N768 Co765 2.121 . S
N768 C770 1.375 . S
N768 C771 1.313 . S
C769 C770 1.338 . S
C769 N772 1.377 . S
C769 H789 0.930 . S
C770 N768 1.375 . S
C770 C769 1.338 . S
C770 H774 0.931 . S
C771 N768 1.313 . S
C771 N772 1.344 . S
C771 H775 0.930 . S
N772 C769 1.377 . S
N772 C771 1.344 . S
O773 Co765 2.055 . S
O773 C777 1.253 . S
H774 C770 0.931 . S
H775 C771 0.930 . S
O776 Co765 2.039 . S
O776 C766 1.265 . S
C777 O773 1.253 . S
C777 O778 1.227 . S
O778 C777 1.227 . S
N779 Co765 2.140 . S
N779 C782 1.346 . S
N779 C783 1.345 . S
C780 C781 1.387 . S
C780 C784 1.391 . S
C781 C780 1.387 . S
C781 C782 1.369 . S
C781 H790 0.929 . S
C782 N779 1.346 . S
C782 C781 1.369 . S
C782 H785 0.928 . S
C783 N779 1.345 . S
C783 C784 1.371 . S
C783 H786 0.931 . S
C784 C780 1.391 . S
C784 C783 1.371 . S
C784 H791 0.930 . S
H785 C782 0.928 . S
H786 C783 0.931 . S
H787 C763 0.930 . S
H788 C760 0.930 . S
H789 C769 0.930 . S
H790 C781 0.929 . S
H791 C784 0.930 . S
H792 C798 0.930 . S
H793 C802 0.930 . S
H794 C807 0.929 . S
H795 C805 0.929 . S
H796 C800 0.929 . S
H797 C806 0.929 . S
C798 H792 0.930 . S
C798 C799 1.367 . S
C798 C806 1.378 . S
C799 C798 1.367 . S
C799 C807 1.433 . S
C800 H796 0.929 . S
C800 C802 1.378 . S
C800 C804 1.350 . S
C801 C804 1.463 . S
C801 C806 1.350 . S
C801 N809 1.427 . S
C802 H793 0.930 . S
C802 C800 1.378 . S
C802 C803 1.367 . S
C803 C802 1.367 . S
C803 C805 1.433 . S
C804 C800 1.350 . S
C804 C801 1.463 . S
C804 N808 1.427 . S
C805 H795 0.929 . S
C805 C803 1.433 . S
C805 N808 1.384 . S
C806 H797 0.929 . S
C806 C798 1.378 . S
C806 C801 1.350 . S
C807 H794 0.929 . S
C807 C799 1.433 . S
C807 N809 1.384 . S
N808 C804 1.427 . S
N808 C805 1.384 . S
N809 C801 1.427 . S
N809 C807 1.384 . S
H810 C816 0.930 . S
H811 C820 0.930 . S
H812 C825 0.929 1_455 S
H813 C823 0.929 . S
H814 C818 0.929 . S
H815 C824 0.929 . S
C816 H810 0.930 . S
C816 C817 1.367 . S
C816 C824 1.378 . S
C817 C816 1.367 . S
C817 C825 1.433 . S
C818 H814 0.929 . S
C818 C820 1.378 . S
C818 C822 1.350 . S
C819 C822 1.463 . S
C819 C824 1.350 . S
C819 N827 1.427 . S
C820 H811 0.930 . S
C820 C818 1.378 . S
C820 C821 1.367 . S
C821 C820 1.367 . S
C821 C823 1.433 . S
C822 C818 1.350 . S
C822 C819 1.463 . S
C822 N826 1.427 . S
C823 H813 0.929 . S
C823 C821 1.433 . S
C823 N826 1.384 . S
C824 H815 0.929 . S
C824 C816 1.378 . S
C824 C819 1.350 . S
C825 H812 0.929 1_655 S
C825 C817 1.433 . S
C825 N827 1.384 . S
N826 C822 1.427 . S
N826 C823 1.384 . S
N827 C819 1.427 . S
N827 C825 1.384 . S
H828 C834 0.930 . S
H829 C838 0.930 . S
H830 C843 0.929 . S
H831 C841 0.929 . S
H832 C836 0.929 . S
H833 C842 0.929 . S
C834 H828 0.930 . S
C834 C835 1.367 . S
C834 C842 1.378 . S
C835 C834 1.367 . S
C835 C843 1.433 . S
C836 H832 0.929 . S
C836 C838 1.378 . S
C836 C840 1.350 . S
C837 C840 1.463 . S
C837 C842 1.350 . S
C837 N845 1.427 . S
C838 H829 0.930 . S
C838 C836 1.378 . S
C838 C839 1.367 . S
C839 C838 1.367 . S
C839 C841 1.433 . S
C840 C836 1.350 . S
C840 C837 1.463 . S
C840 N844 1.427 . S
C841 H831 0.929 . S
C841 C839 1.433 . S
C841 N844 1.384 . S
C842 H833 0.929 . S
C842 C834 1.378 . S
C842 C837 1.350 . S
C843 H830 0.929 . S
C843 C835 1.433 . S
C843 N845 1.384 . S
N844 C840 1.427 . S
N844 C841 1.384 . S
N845 C837 1.427 . S
N845 C843 1.384 . S
H846 C852 0.930 . S
H847 C856 0.930 . S
H848 C861 0.929 . S
H849 C859 0.929 . S
H850 C854 0.929 . S
H851 C860 0.929 . S
C852 H846 0.930 . S
C852 C853 1.367 . S
C852 C860 1.378 . S
C853 C852 1.367 . S
C853 C861 1.433 . S
C854 H850 0.929 . S
C854 C856 1.378 . S
C854 C858 1.350 . S
C855 C858 1.463 . S
C855 C860 1.350 . S
C855 N863 1.427 . S
C856 H847 0.930 . S
C856 C854 1.378 . S
C856 C857 1.367 . S
C857 C856 1.367 . S
C857 C859 1.433 . S
C858 C854 1.350 . S
C858 C855 1.463 . S
C858 N862 1.427 . S
C859 H849 0.929 . S
C859 C857 1.433 . S
C859 N862 1.384 . S
C860 H851 0.929 . S
C860 C852 1.378 . S
C860 C855 1.350 . S
C861 H848 0.929 . S
C861 C853 1.433 . S
C861 N863 1.384 . S
N862 C858 1.427 . S
N862 C859 1.384 . S
N863 C855 1.427 . S
N863 C861 1.384 . S
H864 C870 0.930 . S
H865 C874 0.930 . S
H866 C879 0.929 . S
H867 C877 0.929 . S
H868 C872 0.929 . S
H869 C878 0.929 . S
C870 H864 0.930 . S
C870 C871 1.367 . S
C870 C878 1.378 . S
C871 C870 1.367 . S
C871 C879 1.433 . S
C872 H868 0.929 . S
C872 C874 1.378 . S
C872 C876 1.350 . S
C873 C876 1.463 . S
C873 C878 1.350 . S
C873 N881 1.427 . S
C874 H865 0.930 . S
C874 C872 1.378 . S
C874 C875 1.367 . S
C875 C874 1.367 . S
C875 C877 1.433 . S
C876 C872 1.350 . S
C876 C873 1.463 . S
C876 N880 1.427 . S
C877 H867 0.929 . S
C877 C875 1.433 . S
C877 N880 1.384 . S
C878 H869 0.929 . S
C878 C870 1.378 . S
C878 C873 1.350 . S
C879 H866 0.929 . S
C879 C871 1.433 . S
C879 N881 1.384 . S
N880 C876 1.427 . S
N880 C877 1.384 . S
N881 C873 1.427 . S
N881 C879 1.384 . S
H882 C888 0.930 . S
H883 C892 0.930 . S
H884 C897 0.929 . S
H885 C895 0.929 . S
H886 C890 0.929 . S
H887 C896 0.929 . S
C888 H882 0.930 . S
C888 C889 1.367 . S
C888 C896 1.378 . S
C889 C888 1.367 . S
C889 C897 1.433 . S
C890 H886 0.929 . S
C890 C892 1.378 . S
C890 C894 1.350 . S
C891 C894 1.463 . S
C891 C896 1.350 . S
C891 N899 1.427 . S
C892 H883 0.930 . S
C892 C890 1.378 . S
C892 C893 1.367 . S
C893 C892 1.367 . S
C893 C895 1.433 . S
C894 C890 1.350 . S
C894 C891 1.463 . S
C894 N898 1.427 . S
C895 H885 0.929 . S
C895 C893 1.433 . S
C895 N898 1.384 . S
C896 H887 0.929 . S
C896 C888 1.378 . S
C896 C891 1.350 . S
C897 H884 0.929 . S
C897 C889 1.433 . S
C897 N899 1.384 . S
N898 C894 1.427 . S
N898 C895 1.384 . S
N899 C891 1.427 . S
N899 C897 1.384 . S
H900 C906 0.930 . S
H901 C910 0.930 . S
H902 C915 0.929 . S
H903 C913 0.929 . S
H904 C908 0.929 . S
H905 C914 0.929 . S
C906 H900 0.930 . S
C906 C907 1.367 . S
C906 C914 1.378 . S
C907 C906 1.367 . S
C907 C915 1.433 . S
C908 H904 0.929 . S
C908 C910 1.378 . S
C908 C912 1.350 . S
C909 C912 1.463 . S
C909 C914 1.350 . S
C909 N917 1.427 . S
C910 H901 0.930 . S
C910 C908 1.378 . S
C910 C911 1.367 . S
C911 C910 1.367 . S
C911 C913 1.433 . S
C912 C908 1.350 . S
C912 C909 1.463 . S
C912 N916 1.427 . S
C913 H903 0.929 . S
C913 C911 1.433 . S
C913 N916 1.384 . S
C914 H905 0.929 . S
C914 C906 1.378 . S
C914 C909 1.350 . S
C915 H902 0.929 . S
C915 C907 1.433 . S
C915 N917 1.384 . S
N916 C912 1.427 . S
N916 C913 1.384 . S
N917 C909 1.427 . S
N917 C915 1.384 . S
H918 C924 0.930 . S
H919 C928 0.930 . S
H920 C933 0.929 . S
H921 C931 0.929 . S
H922 C926 0.929 . S
H923 C932 0.929 . S
C924 H918 0.930 . S
C924 C925 1.367 . S
C924 C932 1.378 . S
C925 C924 1.367 . S
C925 C933 1.433 . S
C926 H922 0.929 . S
C926 C928 1.378 . S
C926 C930 1.350 . S
C927 C930 1.463 . S
C927 C932 1.350 . S
C927 N935 1.427 . S
C928 H919 0.930 . S
C928 C926 1.378 . S
C928 C929 1.367 . S
C929 C928 1.367 . S
C929 C931 1.433 . S
C930 C926 1.350 . S
C930 C927 1.463 . S
C930 N934 1.427 . S
C931 H921 0.929 . S
C931 C929 1.433 . S
C931 N934 1.384 . S
C932 H923 0.929 . S
C932 C924 1.378 . S
C932 C927 1.350 . S
C933 H920 0.929 . S
C933 C925 1.433 . S
C933 N935 1.384 . S
N934 C930 1.427 . S
N934 C931 1.384 . S
N935 C927 1.427 . S
N935 C933 1.384 . S
H936 C942 0.930 . S
H937 C946 0.930 . S
H938 C951 0.929 . S
H939 C949 0.929 . S
H940 C944 0.929 . S
H941 C950 0.929 . S
C942 H936 0.930 . S
C942 C943 1.367 . S
C942 C950 1.378 . S
C943 C942 1.367 . S
C943 C951 1.433 . S
C944 H940 0.929 . S
C944 C946 1.378 . S
C944 C948 1.350 . S
C945 C948 1.463 . S
C945 C950 1.350 . S
C945 N953 1.427 . S
C946 H937 0.930 . S
C946 C944 1.378 . S
C946 C947 1.367 . S
C947 C946 1.367 . S
C947 C949 1.433 . S
C948 C944 1.350 . S
C948 C945 1.463 . S
C948 N952 1.427 . S
C949 H939 0.929 . S
C949 C947 1.433 . S
C949 N952 1.384 . S
C950 H941 0.929 . S
C950 C942 1.378 . S
C950 C945 1.350 . S
C951 H938 0.929 . S
C951 C943 1.433 . S
C951 N953 1.384 . S
N952 C948 1.427 . S
N952 C949 1.384 . S
N953 C945 1.427 . S
N953 C951 1.384 . S
H954 C960 0.930 . S
H955 C964 0.930 . S
H956 C969 0.929 . S
H957 C967 0.929 . S
H958 C962 0.929 . S
H959 C968 0.929 . S
C960 H954 0.930 . S
C960 C961 1.367 . S
C960 C968 1.378 . S
C961 C960 1.367 . S
C961 C969 1.433 . S
C962 H958 0.929 . S
C962 C964 1.378 . S
C962 C966 1.350 . S
C963 C966 1.463 . S
C963 C968 1.350 . S
C963 N971 1.427 . S
C964 H955 0.930 . S
C964 C962 1.378 . S
C964 C965 1.367 . S
C965 C964 1.367 . S
C965 C967 1.433 . S
C966 C962 1.350 . S
C966 C963 1.463 . S
C966 N970 1.427 . S
C967 H957 0.929 . S
C967 C965 1.433 . S
C967 N970 1.384 . S
C968 H959 0.929 . S
C968 C960 1.378 . S
C968 C963 1.350 . S
C969 H956 0.929 . S
C969 C961 1.433 . S
C969 N971 1.384 . S
N970 C966 1.427 . S
N970 C967 1.384 . S
N971 C963 1.427 . S
N971 C969 1.384 . S
H972 C978 0.930 . S
H973 C982 0.930 . S
H974 C987 0.929 . S
H975 C985 0.929 . S
H976 C980 0.929 . S
H977 C986 0.929 . S
C978 H972 0.930 . S
C978 C979 1.367 . S
C978 C986 1.378 . S
C979 C978 1.367 . S
C979 C987 1.433 . S
C980 H976 0.929 . S
C980 C982 1.378 . S
C980 C984 1.350 . S
C981 C984 1.463 . S
C981 C986 1.350 . S
C981 N989 1.427 . S
C982 H973 0.930 . S
C982 C980 1.378 . S
C982 C983 1.367 . S
C983 C982 1.367 . S
C983 C985 1.433 . S
C984 C980 1.350 . S
C984 C981 1.463 . S
C984 N988 1.427 . S
C985 H975 0.929 . S
C985 C983 1.433 . S
C985 N988 1.384 . S
C986 H977 0.929 . S
C986 C978 1.378 . S
C986 C981 1.350 . S
C987 H974 0.929 . S
C987 C979 1.433 . S
C987 N989 1.384 . S
N988 C984 1.427 . S
N988 C985 1.384 . S
N989 C981 1.427 . S
N989 C987 1.384 . S
H990 C996 0.930 . S
H991 C1000 0.930 . S
H992 C1005 0.929 1_556 S
H993 C1003 0.929 . S
H994 C998 0.929 . S
H995 C1004 0.929 . S
C996 H990 0.930 . S
C996 C997 1.367 . S
C996 C1004 1.378 . S
C997 C996 1.367 . S
C997 C1005 1.433 . S
C998 H994 0.929 . S
C998 C1000 1.378 . S
C998 C1002 1.350 . S
C999 C1002 1.463 . S
C999 C1004 1.350 . S
C999 N1007 1.427 . S
C1000 H991 0.930 . S
C1000 C998 1.378 . S
C1000 C1001 1.367 . S
C1001 C1000 1.367 . S
C1001 C1003 1.433 . S
C1002 C998 1.350 . S
C1002 C999 1.463 . S
C1002 N1006 1.427 . S
C1003 H993 0.929 . S
C1003 C1001 1.433 . S
C1003 N1006 1.384 . S
C1004 H995 0.929 . S
C1004 C996 1.378 . S
C1004 C999 1.350 . S
C1005 H992 0.929 1_554 S
C1005 C997 1.433 . S
C1005 N1007 1.384 . S
N1006 C1002 1.427 . S
N1006 C1003 1.384 . S
N1007 C999 1.427 . S
N1007 C1005 1.384 . S
H1008 C1014 0.930 . S
H1009 C1018 0.930 . S
H1010 C1023 0.929 . S
H1011 C1021 0.929 . S
H1012 C1016 0.929 . S
H1013 C1022 0.929 . S
C1014 H1008 0.930 . S
C1014 C1015 1.367 . S
C1014 C1022 1.378 . S
C1015 C1014 1.367 . S
C1015 C1023 1.433 . S
C1016 H1012 0.929 . S
C1016 C1018 1.378 . S
C1016 C1020 1.350 . S
C1017 C1020 1.463 . S
C1017 C1022 1.350 . S
C1017 N1025 1.427 . S
C1018 H1009 0.930 . S
C1018 C1016 1.378 . S
C1018 C1019 1.367 . S
C1019 C1018 1.367 . S
C1019 C1021 1.433 . S
C1020 C1016 1.350 . S
C1020 C1017 1.463 . S
C1020 N1024 1.427 . S
C1021 H1011 0.929 . S
C1021 C1019 1.433 . S
C1021 N1024 1.384 . S
C1022 H1013 0.929 . S
C1022 C1014 1.378 . S
C1022 C1017 1.350 . S
C1023 H1010 0.929 . S
C1023 C1015 1.433 . S
C1023 N1025 1.384 . S
N1024 C1020 1.427 . S
N1024 C1021 1.384 . S
N1025 C1017 1.427 . S
N1025 C1023 1.384 . S
H1026 C1032 0.930 . S
H1027 C1036 0.930 1_554 S
H1028 C1041 0.929 . S
H1029 C1039 0.929 . S
H1030 C1034 0.929 . S
H1031 C1040 0.929 . S
C1032 H1026 0.930 . S
C1032 C1033 1.367 . S
C1032 C1040 1.378 . S
C1033 C1032 1.367 . S
C1033 C1041 1.433 . S
C1034 H1030 0.929 . S
C1034 C1036 1.378 . S
C1034 C1038 1.350 . S
C1035 C1038 1.463 . S
C1035 C1040 1.350 . S
C1035 N1043 1.427 . S
C1036 H1027 0.930 1_556 S
C1036 C1034 1.378 . S
C1036 C1037 1.367 . S
C1037 C1036 1.367 . S
C1037 C1039 1.433 . S
C1038 C1034 1.350 . S
C1038 C1035 1.463 . S
C1038 N1042 1.427 . S
C1039 H1029 0.929 . S
C1039 C1037 1.433 . S
C1039 N1042 1.384 . S
C1040 H1031 0.929 . S
C1040 C1032 1.378 . S
C1040 C1035 1.350 . S
C1041 H1028 0.929 . S
C1041 C1033 1.433 . S
C1041 N1043 1.384 . S
N1042 C1038 1.427 . S
N1042 C1039 1.384 . S
N1043 C1035 1.427 . S
N1043 C1041 1.384 . S
H1044 C1050 0.930 . S
H1045 C1054 0.930 . S
H1046 C1059 0.929 . S
H1047 C1057 0.929 . S
H1048 C1052 0.929 . S
H1049 C1058 0.929 . S
C1050 H1044 0.930 . S
C1050 C1051 1.367 . S
C1050 C1058 1.378 . S
C1051 C1050 1.367 . S
C1051 C1059 1.433 . S
C1052 H1048 0.929 . S
C1052 C1054 1.378 . S
C1052 C1056 1.350 . S
C1053 C1056 1.463 . S
C1053 C1058 1.350 . S
C1053 N1061 1.427 . S
C1054 H1045 0.930 . S
C1054 C1052 1.378 . S
C1054 C1055 1.367 . S
C1055 C1054 1.367 . S
C1055 C1057 1.433 . S
C1056 C1052 1.350 . S
C1056 C1053 1.463 . S
C1056 N1060 1.427 . S
C1057 H1047 0.929 . S
C1057 C1055 1.433 . S
C1057 N1060 1.384 . S
C1058 H1049 0.929 . S
C1058 C1050 1.378 . S
C1058 C1053 1.350 . S
C1059 H1046 0.929 . S
C1059 C1051 1.433 . S
C1059 N1061 1.384 . S
N1060 C1056 1.427 . S
N1060 C1057 1.384 . S
N1061 C1053 1.427 . S
N1061 C1059 1.384 . S
H1062 C1068 0.930 1_554 S
H1063 C1072 0.930 . S
H1064 C1077 0.929 . S
H1065 C1075 0.929 . S
H1066 C1070 0.929 . S
H1067 C1076 0.929 . S
C1068 H1062 0.930 1_556 S
C1068 C1069 1.367 . S
C1068 C1076 1.378 . S
C1069 C1068 1.367 . S
C1069 C1077 1.433 . S
C1070 H1066 0.929 . S
C1070 C1072 1.378 . S
C1070 C1074 1.350 . S
C1071 C1074 1.463 . S
C1071 C1076 1.350 . S
C1071 N1079 1.427 . S
C1072 H1063 0.930 . S
C1072 C1070 1.378 . S
C1072 C1073 1.367 . S
C1073 C1072 1.367 . S
C1073 C1075 1.433 . S
C1074 C1070 1.350 . S
C1074 C1071 1.463 . S
C1074 N1078 1.427 . S
C1075 H1065 0.929 . S
C1075 C1073 1.433 . S
C1075 N1078 1.384 . S
C1076 H1067 0.929 . S
C1076 C1068 1.378 . S
C1076 C1071 1.350 . S
C1077 H1064 0.929 . S
C1077 C1069 1.433 . S
C1077 N1079 1.384 . S
N1078 C1074 1.427 . S
N1078 C1075 1.384 . S
N1079 C1071 1.427 . S
N1079 C1077 1.384 . S
H1080 C1086 0.930 . S
H1081 C1090 0.930 . S
H1082 C1095 0.929 . S
H1083 C1093 0.929 . S
H1084 C1088 0.929 . S
H1085 C1094 0.929 . S
C1086 H1080 0.930 . S
C1086 C1087 1.367 . S
C1086 C1094 1.378 . S
C1087 C1086 1.367 . S
C1087 C1095 1.433 . S
C1088 H1084 0.929 . S
C1088 C1090 1.378 . S
C1088 C1092 1.350 . S
C1089 C1092 1.463 . S
C1089 C1094 1.350 . S
C1089 N1097 1.427 . S
C1090 H1081 0.930 . S
C1090 C1088 1.378 . S
C1090 C1091 1.367 . S
C1091 C1090 1.367 . S
C1091 C1093 1.433 . S
C1092 C1088 1.350 . S
C1092 C1089 1.463 . S
C1092 N1096 1.427 . S
C1093 H1083 0.929 . S
C1093 C1091 1.433 . S
C1093 N1096 1.384 . S
C1094 H1085 0.929 . S
C1094 C1086 1.378 . S
C1094 C1089 1.350 . S
C1095 H1082 0.929 . S
C1095 C1087 1.433 . S
C1095 N1097 1.384 . S
N1096 C1092 1.427 . S
N1096 C1093 1.384 . S
N1097 C1089 1.427 . S
N1097 C1095 1.384 . S
H1098 C1104 0.930 . S
H1099 C1108 0.930 . S
H1100 C1113 0.929 . S
H1101 C1111 0.929 . S
H1102 C1106 0.929 . S
H1103 C1112 0.929 . S
C1104 H1098 0.930 . S
C1104 C1105 1.367 . S
C1104 C1112 1.378 . S
C1105 C1104 1.367 . S
C1105 C1113 1.433 . S
C1106 H1102 0.929 . S
C1106 C1108 1.378 . S
C1106 C1110 1.350 . S
C1107 C1110 1.463 . S
C1107 C1112 1.350 . S
C1107 N1115 1.427 . S
C1108 H1099 0.930 . S
C1108 C1106 1.378 . S
C1108 C1109 1.367 . S
C1109 C1108 1.367 . S
C1109 C1111 1.433 . S
C1110 C1106 1.350 . S
C1110 C1107 1.463 . S
C1110 N1114 1.427 . S
C1111 H1101 0.929 . S
C1111 C1109 1.433 . S
C1111 N1114 1.384 . S
C1112 H1103 0.929 . S
C1112 C1104 1.378 . S
C1112 C1107 1.350 . S
C1113 H1100 0.929 . S
C1113 C1105 1.433 . S
C1113 N1115 1.384 . S
N1114 C1110 1.427 . S
N1114 C1111 1.384 . S
N1115 C1107 1.427 . S
N1115 C1113 1.384 . S
H1116 C1122 0.930 . S
H1117 C1126 0.930 . S
H1118 C1131 0.929 1_565 S
H1119 C1129 0.929 . S
H1120 C1124 0.929 . S
H1121 C1130 0.929 . S
C1122 H1116 0.930 . S
C1122 C1123 1.367 . S
C1122 C1130 1.378 . S
C1123 C1122 1.367 . S
C1123 C1131 1.433 . S
C1124 H1120 0.929 . S
C1124 C1126 1.378 . S
C1124 C1128 1.350 . S
C1125 C1128 1.463 . S
C1125 C1130 1.350 . S
C1125 N1133 1.427 . S
C1126 H1117 0.930 . S
C1126 C1124 1.378 . S
C1126 C1127 1.367 . S
C1127 C1126 1.367 . S
C1127 C1129 1.433 . S
C1128 C1124 1.350 . S
C1128 C1125 1.463 . S
C1128 N1132 1.427 . S
C1129 H1119 0.929 . S
C1129 C1127 1.433 . S
C1129 N1132 1.384 . S
C1130 H1121 0.929 . S
C1130 C1122 1.378 . S
C1130 C1125 1.350 . S
C1131 H1118 0.929 1_545 S
C1131 C1123 1.433 . S
C1131 N1133 1.384 . S
N1132 C1128 1.427 . S
N1132 C1129 1.384 . S
N1133 C1125 1.427 . S
N1133 C1131 1.384 . S
H1134 C1140 0.930 . S
H1135 C1144 0.930 . S
H1136 C1149 0.929 . S
H1137 C1147 0.929 . S
H1138 C1142 0.929 . S
H1139 C1148 0.929 . S
C1140 H1134 0.930 . S
C1140 C1141 1.367 . S
C1140 C1148 1.378 . S
C1141 C1140 1.367 . S
C1141 C1149 1.433 . S
C1142 H1138 0.929 . S
C1142 C1144 1.378 . S
C1142 C1146 1.350 . S
C1143 C1146 1.463 . S
C1143 C1148 1.350 . S
C1143 N1151 1.427 . S
C1144 H1135 0.930 . S
C1144 C1142 1.378 . S
C1144 C1145 1.367 . S
C1145 C1144 1.367 . S
C1145 C1147 1.433 . S
C1146 C1142 1.350 . S
C1146 C1143 1.463 . S
C1146 N1150 1.427 . S
C1147 H1137 0.929 . S
C1147 C1145 1.433 . S
C1147 N1150 1.384 . S
C1148 H1139 0.929 . S
C1148 C1140 1.378 . S
C1148 C1143 1.350 . S
C1149 H1136 0.929 . S
C1149 C1141 1.433 . S
C1149 N1151 1.384 . S
N1150 C1146 1.427 . S
N1150 C1147 1.384 . S
N1151 C1143 1.427 . S
N1151 C1149 1.384 . S
H1152 C1158 0.930 . S
H1153 C1162 0.930 . S
H1154 C1167 0.929 1_545 S
H1155 C1165 0.929 . S
H1156 C1160 0.929 . S
H1157 C1166 0.929 . S
C1158 H1152 0.930 . S
C1158 C1159 1.367 . S
C1158 C1166 1.378 . S
C1159 C1158 1.367 . S
C1159 C1167 1.433 . S
C1160 H1156 0.929 . S
C1160 C1162 1.378 . S
C1160 C1164 1.350 . S
C1161 C1164 1.463 . S
C1161 C1166 1.350 . S
C1161 N1169 1.427 . S
C1162 H1153 0.930 . S
C1162 C1160 1.378 . S
C1162 C1163 1.367 . S
C1163 C1162 1.367 . S
C1163 C1165 1.433 . S
C1164 C1160 1.350 . S
C1164 C1161 1.463 . S
C1164 N1168 1.427 . S
C1165 H1155 0.929 . S
C1165 C1163 1.433 . S
C1165 N1168 1.384 . S
C1166 H1157 0.929 . S
C1166 C1158 1.378 . S
C1166 C1161 1.350 . S
C1167 H1154 0.929 1_565 S
C1167 C1159 1.433 . S
C1167 N1169 1.384 . S
N1168 C1164 1.427 . S
N1168 C1165 1.384 . S
N1169 C1161 1.427 . S
N1169 C1167 1.384 . S
H1170 C1176 0.930 . S
H1171 C1180 0.930 . S
H1172 C1185 0.929 . S
H1173 C1183 0.929 . S
H1174 C1178 0.929 . S
H1175 C1184 0.929 . S
C1176 H1170 0.930 . S
C1176 C1177 1.367 . S
C1176 C1184 1.378 . S
C1177 C1176 1.367 . S
C1177 C1185 1.433 . S
C1178 H1174 0.929 . S
C1178 C1180 1.378 . S
C1178 C1182 1.350 . S
C1179 C1182 1.463 . S
C1179 C1184 1.350 . S
C1179 N1187 1.427 . S
C1180 H1171 0.930 . S
C1180 C1178 1.378 . S
C1180 C1181 1.367 . S
C1181 C1180 1.367 . S
C1181 C1183 1.433 . S
C1182 C1178 1.350 . S
C1182 C1179 1.463 . S
C1182 N1186 1.427 . S
C1183 H1173 0.929 . S
C1183 C1181 1.433 . S
C1183 N1186 1.384 . S
C1184 H1175 0.929 . S
C1184 C1176 1.378 . S
C1184 C1179 1.350 . S
C1185 H1172 0.929 . S
C1185 C1177 1.433 . S
C1185 N1187 1.384 . S
N1186 C1182 1.427 . S
N1186 C1183 1.384 . S
N1187 C1179 1.427 . S
N1187 C1185 1.384 . S
H1188 C1194 0.930 . S
H1189 C1198 0.930 . S
H1190 C1203 0.929 . S
H1191 C1201 0.929 . S
H1192 C1196 0.929 . S
H1193 C1202 0.929 . S
C1194 H1188 0.930 . S
C1194 C1195 1.367 . S
C1194 C1202 1.378 . S
C1195 C1194 1.367 . S
C1195 C1203 1.433 . S
C1196 H1192 0.929 . S
C1196 C1198 1.378 . S
C1196 C1200 1.350 . S
C1197 C1200 1.463 . S
C1197 C1202 1.350 . S
C1197 N1205 1.427 . S
C1198 H1189 0.930 . S
C1198 C1196 1.378 . S
C1198 C1199 1.367 . S
C1199 C1198 1.367 . S
C1199 C1201 1.433 . S
C1200 C1196 1.350 . S
C1200 C1197 1.463 . S
C1200 N1204 1.427 . S
C1201 H1191 0.929 . S
C1201 C1199 1.433 . S
C1201 N1204 1.384 . S
C1202 H1193 0.929 . S
C1202 C1194 1.378 . S
C1202 C1197 1.350 . S
C1203 H1190 0.929 . S
C1203 C1195 1.433 . S
C1203 N1205 1.384 . S
N1204 C1200 1.427 . S
N1204 C1201 1.384 . S
N1205 C1197 1.427 . S
N1205 C1203 1.384 . S
H1206 C1212 0.930 . S
H1207 C1216 0.930 . S
H1208 C1221 0.929 1_565 S
H1209 C1219 0.929 . S
H1210 C1214 0.929 . S
H1211 C1220 0.929 . S
C1212 H1206 0.930 . S
C1212 C1213 1.367 . S
C1212 C1220 1.378 . S
C1213 C1212 1.367 . S
C1213 C1221 1.433 . S
C1214 H1210 0.929 . S
C1214 C1216 1.378 . S
C1214 C1218 1.350 . S
C1215 C1218 1.463 . S
C1215 C1220 1.350 . S
C1215 N1223 1.427 . S
C1216 H1207 0.930 . S
C1216 C1214 1.378 . S
C1216 C1217 1.367 . S
C1217 C1216 1.367 . S
C1217 C1219 1.433 . S
C1218 C1214 1.350 . S
C1218 C1215 1.463 . S
C1218 N1222 1.427 . S
C1219 H1209 0.929 . S
C1219 C1217 1.433 . S
C1219 N1222 1.384 . S
C1220 H1211 0.929 . S
C1220 C1212 1.378 . S
C1220 C1215 1.350 . S
C1221 H1208 0.929 1_545 S
C1221 C1213 1.433 . S
C1221 N1223 1.384 . S
N1222 C1218 1.427 . S
N1222 C1219 1.384 . S
N1223 C1215 1.427 . S
N1223 C1221 1.384 . S
H1224 C1230 0.930 . S
H1225 C1234 0.930 . S
H1226 C1239 0.929 . S
H1227 C1237 0.929 . S
H1228 C1232 0.929 . S
H1229 C1238 0.929 . S
C1230 H1224 0.930 . S
C1230 C1231 1.367 . S
C1230 C1238 1.378 . S
C1231 C1230 1.367 . S
C1231 C1239 1.433 . S
C1232 H1228 0.929 . S
C1232 C1234 1.378 . S
C1232 C1236 1.350 . S
C1233 C1236 1.463 1_656 S
C1233 C1238 1.350 . S
C1233 N1241 1.427 . S
C1234 H1225 0.930 . S
C1234 C1232 1.378 . S
C1234 C1235 1.367 . S
C1235 C1234 1.367 . S
C1235 C1237 1.433 . S
C1236 C1232 1.350 . S
C1236 C1233 1.463 1_454 S
C1236 N1240 1.427 . S
C1237 H1227 0.929 . S
C1237 C1235 1.433 . S
C1237 N1240 1.384 . S
C1238 H1229 0.929 . S
C1238 C1230 1.378 . S
C1238 C1233 1.350 . S
C1239 H1226 0.929 . S
C1239 C1231 1.433 . S
C1239 N1241 1.384 . S
N1240 C1236 1.427 . S
N1240 C1237 1.384 . S
N1241 C1233 1.427 . S
N1241 C1239 1.384 . S
H1242 C1248 0.930 . S
H1243 C1252 0.930 . S
H1244 C1257 0.929 . S
H1245 C1255 0.929 . S
H1246 C1250 0.929 . S
H1247 C1256 0.929 . S
C1248 H1242 0.930 . S
C1248 C1249 1.367 . S
C1248 C1256 1.378 . S
C1249 C1248 1.367 . S
C1249 C1257 1.433 . S
C1250 H1246 0.929 . S
C1250 C1252 1.378 . S
C1250 C1254 1.350 . S
C1251 C1254 1.463 . S
C1251 C1256 1.350 . S
C1251 N1259 1.427 . S
C1252 H1243 0.930 . S
C1252 C1250 1.378 . S
C1252 C1253 1.367 . S
C1253 C1252 1.367 . S
C1253 C1255 1.433 . S
C1254 C1250 1.350 . S
C1254 C1251 1.463 . S
C1254 N1258 1.427 . S
C1255 H1245 0.929 . S
C1255 C1253 1.433 . S
C1255 N1258 1.384 . S
C1256 H1247 0.929 . S
C1256 C1248 1.378 . S
C1256 C1251 1.350 . S
C1257 H1244 0.929 . S
C1257 C1249 1.433 . S
C1257 N1259 1.384 . S
N1258 C1254 1.427 . S
N1258 C1255 1.384 . S
N1259 C1251 1.427 . S
N1259 C1257 1.384 . S
H1260 C1266 0.930 . S
H1261 C1270 0.930 . S
H1262 C1275 0.929 . S
H1263 C1273 0.929 . S
H1264 C1268 0.929 . S
H1265 C1274 0.929 . S
C1266 H1260 0.930 . S
C1266 C1267 1.367 . S
C1266 C1274 1.378 . S
C1267 C1266 1.367 . S
C1267 C1275 1.433 . S
C1268 H1264 0.929 . S
C1268 C1270 1.378 . S
C1268 C1272 1.350 . S
C1269 C1272 1.463 1_456 S
C1269 C1274 1.350 . S
C1269 N1277 1.435 . S
C1270 H1261 0.930 . S
C1270 C1268 1.378 . S
C1270 C1271 1.367 . S
C1271 C1270 1.367 . S
C1271 C1273 1.433 . S
C1272 C1268 1.350 . S
C1272 C1269 1.463 1_654 S
C1272 N1276 1.435 . S
C1273 H1263 0.929 . S
C1273 C1271 1.433 . S
C1273 N1276 1.401 . S
C1274 H1265 0.929 . S
C1274 C1266 1.378 . S
C1274 C1269 1.350 . S
C1275 H1262 0.929 . S
C1275 C1267 1.433 . S
C1275 N1277 1.401 . S
N1276 C1272 1.435 . S
N1276 C1273 1.401 . S
N1277 C1269 1.435 . S
N1277 C1275 1.401 . S
H1278 C1284 0.930 . S
H1279 C1288 0.930 . S
H1280 C1293 0.929 . S
H1281 C1291 0.929 . S
H1282 C1286 0.929 . S
H1283 C1292 0.929 . S
C1284 H1278 0.930 . S
C1284 C1285 1.367 . S
C1284 C1292 1.378 . S
C1285 C1284 1.367 . S
C1285 C1293 1.433 . S
C1286 H1282 0.929 . S
C1286 C1288 1.378 . S
C1286 C1290 1.350 . S
C1287 C1290 1.463 . S
C1287 C1292 1.350 . S
C1287 N1295 1.427 . S
C1288 H1279 0.930 . S
C1288 C1286 1.378 . S
C1288 C1289 1.367 . S
C1289 C1288 1.367 . S
C1289 C1291 1.433 . S
C1290 C1286 1.350 . S
C1290 C1287 1.463 . S
C1290 N1294 1.427 . S
C1291 H1281 0.929 . S
C1291 C1289 1.433 . S
C1291 N1294 1.384 . S
C1292 H1283 0.929 . S
C1292 C1284 1.378 . S
C1292 C1287 1.350 . S
C1293 H1280 0.929 . S
C1293 C1285 1.433 . S
C1293 N1295 1.384 . S
N1294 C1290 1.427 . S
N1294 C1291 1.384 . S
N1295 C1287 1.427 . S
N1295 C1293 1.384 . S
H1296 C1302 0.945 . S
H1297 C1306 0.945 . S
H1298 C1311 0.929 . S
H1299 C1309 0.929 . S
H1300 C1304 0.929 . S
H1301 C1310 0.929 . S
C1302 H1296 0.945 . S
C1302 C1303 1.342 1_545 S
C1302 C1310 1.388 . S
C1303 C1302 1.342 1_565 S
C1303 C1311 1.433 . S
C1304 H1300 0.929 . S
C1304 C1306 1.388 . S
C1304 C1308 1.350 1_565 S
C1305 C1308 1.463 1_665 S
C1305 C1310 1.350 1_565 S
C1305 N1313 1.427 . S
C1306 H1297 0.945 . S
C1306 C1304 1.388 . S
C1306 C1307 1.342 1_565 S
C1307 C1306 1.342 1_545 S
C1307 C1309 1.433 . S
C1308 C1304 1.350 1_545 S
C1308 C1305 1.463 1_445 S
C1308 N1312 1.427 . S
C1309 H1299 0.929 . S
C1309 C1307 1.433 . S
C1309 N1312 1.384 . S
C1310 H1301 0.929 . S
C1310 C1302 1.388 . S
C1310 C1305 1.350 1_545 S
C1311 H1298 0.929 . S
C1311 C1303 1.433 . S
C1311 N1313 1.384 . S
N1312 C1308 1.427 . S
N1312 C1309 1.384 . S
N1313 C1305 1.427 . S
N1313 C1311 1.384 . S
H1314 C1320 0.930 . S
H1315 C1324 0.930 . S
H1316 C1329 0.929 . S
H1317 C1327 0.929 . S
H1318 C1322 0.929 . S
H1319 C1328 0.929 . S
C1320 H1314 0.930 . S
C1320 C1321 1.367 . S
C1320 C1328 1.378 . S
C1321 C1320 1.367 . S
C1321 C1329 1.433 . S
C1322 H1318 0.929 . S
C1322 C1324 1.378 . S
C1322 C1326 1.350 . S
C1323 C1326 1.463 . S
C1323 C1328 1.350 . S
C1323 N1331 1.427 . S
C1324 H1315 0.930 . S
C1324 C1322 1.378 . S
C1324 C1325 1.367 . S
C1325 C1324 1.367 . S
C1325 C1327 1.433 . S
C1326 C1322 1.350 . S
C1326 C1323 1.463 . S
C1326 N1330 1.427 . S
C1327 H1317 0.929 . S
C1327 C1325 1.433 . S
C1327 N1330 1.384 . S
C1328 H1319 0.929 . S
C1328 C1320 1.378 . S
C1328 C1323 1.350 . S
C1329 H1316 0.929 . S
C1329 C1321 1.433 . S
C1329 N1331 1.384 . S
N1330 C1326 1.427 . S
N1330 C1327 1.384 . S
N1331 C1323 1.427 . S
N1331 C1329 1.384 . S
H1332 C1338 0.930 . S
H1333 C1342 0.930 . S
H1334 C1347 0.929 . S
H1335 C1345 0.929 . S
H1336 C1340 0.929 . S
H1337 C1346 0.929 . S
C1338 H1332 0.930 . S
C1338 C1339 1.367 . S
C1338 C1346 1.378 . S
C1339 C1338 1.367 . S
C1339 C1347 1.433 . S
C1340 H1336 0.929 . S
C1340 C1342 1.378 . S
C1340 C1344 1.350 . S
C1341 C1344 1.463 1_465 S
C1341 C1346 1.350 . S
C1341 N1349 1.427 . S
C1342 H1333 0.930 . S
C1342 C1340 1.378 . S
C1342 C1343 1.367 . S
C1343 C1342 1.367 . S
C1343 C1345 1.433 . S
C1344 C1340 1.350 . S
C1344 C1341 1.463 1_645 S
C1344 N1348 1.427 . S
C1345 H1335 0.929 . S
C1345 C1343 1.433 . S
C1345 N1348 1.384 . S
C1346 H1337 0.929 . S
C1346 C1338 1.378 . S
C1346 C1341 1.350 . S
C1347 H1334 0.929 . S
C1347 C1339 1.433 . S
C1347 N1349 1.384 . S
N1348 C1344 1.427 . S
N1348 C1345 1.384 . S
N1349 C1341 1.427 . S
N1349 C1347 1.384 . S
H1350 C1356 0.930 . S
H1351 C1360 0.930 . S
H1352 C1365 0.929 . S
H1353 C1363 0.929 . S
H1354 C1358 0.929 . S
H1355 C1364 0.929 . S
C1356 H1350 0.930 . S
C1356 C1357 1.367 . S
C1356 C1364 1.378 . S
C1357 C1356 1.367 . S
C1357 C1365 1.433 . S
C1358 H1354 0.929 . S
C1358 C1360 1.378 . S
C1358 C1362 1.350 . S
C1359 C1362 1.463 . S
C1359 C1364 1.350 . S
C1359 N1367 1.427 . S
C1360 H1351 0.930 . S
C1360 C1358 1.378 . S
C1360 C1361 1.367 . S
C1361 C1360 1.367 . S
C1361 C1363 1.433 . S
C1362 C1358 1.350 . S
C1362 C1359 1.463 . S
C1362 N1366 1.427 . S
C1363 H1353 0.929 . S
C1363 C1361 1.433 . S
C1363 N1366 1.384 . S
C1364 H1355 0.929 . S
C1364 C1356 1.378 . S
C1364 C1359 1.350 . S
C1365 H1352 0.929 . S
C1365 C1357 1.433 . S
C1365 N1367 1.384 . S
N1366 C1362 1.427 . S
N1366 C1363 1.384 . S
N1367 C1359 1.427 . S
N1367 C1365 1.384 . S
H1368 C1374 0.930 . S
H1369 C1378 0.930 . S
H1370 C1383 0.929 1_556 S
H1371 C1381 0.929 1_554 S
H1372 C1376 0.929 . S
H1373 C1382 0.929 . S
C1374 H1368 0.930 . S
C1374 C1375 1.367 . S
C1374 C1382 1.378 . S
C1375 C1374 1.367 . S
C1375 C1383 1.433 . S
C1376 H1372 0.929 . S
C1376 C1378 1.378 . S
C1376 C1380 1.350 . S
C1377 C1380 1.463 1_544 S
C1377 C1382 1.350 . S
C1377 N1385 1.427 1_554 S
C1378 H1369 0.930 . S
C1378 C1376 1.378 . S
C1378 C1379 1.367 . S
C1379 C1378 1.367 . S
C1379 C1381 1.433 . S
C1380 C1376 1.350 . S
C1380 C1377 1.463 1_566 S
C1380 N1384 1.427 1_556 S
C1381 H1371 0.929 1_556 S
C1381 C1379 1.433 . S
C1381 N1384 1.384 1_556 S
C1382 H1373 0.929 . S
C1382 C1374 1.378 . S
C1382 C1377 1.350 . S
C1383 H1370 0.929 1_554 S
C1383 C1375 1.433 . S
C1383 N1385 1.384 1_554 S
N1384 C1380 1.427 1_554 S
N1384 C1381 1.384 1_554 S
N1385 C1377 1.427 1_556 S
N1385 C1383 1.384 1_556 S
H1386 C1392 0.930 . S
H1387 C1396 0.930 . S
H1388 C1401 0.929 . S
H1389 C1399 0.929 . S
H1390 C1394 0.929 . S
H1391 C1400 0.929 . S
C1392 H1386 0.930 . S
C1392 C1393 1.367 . S
C1392 C1400 1.378 . S
C1393 C1392 1.367 . S
C1393 C1401 1.433 . S
C1394 H1390 0.929 . S
C1394 C1396 1.378 . S
C1394 C1398 1.350 . S
C1395 C1398 1.463 . S
C1395 C1400 1.350 . S
C1395 N1403 1.427 . S
C1396 H1387 0.930 . S
C1396 C1394 1.378 . S
C1396 C1397 1.367 . S
C1397 C1396 1.367 . S
C1397 C1399 1.433 . S
C1398 C1394 1.350 . S
C1398 C1395 1.463 . S
C1398 N1402 1.427 . S
C1399 H1389 0.929 . S
C1399 C1397 1.433 . S
C1399 N1402 1.384 . S
C1400 H1391 0.929 . S
C1400 C1392 1.378 . S
C1400 C1395 1.350 . S
C1401 H1388 0.929 . S
C1401 C1393 1.433 . S
C1401 N1403 1.384 . S
N1402 C1398 1.427 . S
N1402 C1399 1.384 . S
N1403 C1395 1.427 . S
N1403 C1401 1.384 . S
H1404 C1410 0.930 . S
H1405 C1414 0.930 . S
H1406 C1419 0.930 1_554 S
H1407 C1417 0.930 1_556 S
H1408 C1412 0.929 . S
H1409 C1418 0.929 . S
C1410 H1404 0.930 . S
C1410 C1411 1.367 . S
C1410 C1418 1.378 . S
C1411 C1410 1.367 . S
C1411 C1419 1.433 . S
C1412 H1408 0.929 . S
C1412 C1414 1.378 . S
C1412 C1416 1.350 . S
C1413 C1416 1.463 1_546 S
C1413 C1418 1.350 . S
C1413 N1421 1.427 1_556 S
C1414 H1405 0.930 . S
C1414 C1412 1.378 . S
C1414 C1415 1.367 . S
C1415 C1414 1.367 . S
C1415 C1417 1.433 . S
C1416 C1412 1.350 . S
C1416 C1413 1.463 1_564 S
C1416 N1420 1.427 1_554 S
C1417 H1407 0.930 1_554 S
C1417 C1415 1.433 . S
C1417 N1420 1.384 1_554 S
C1418 H1409 0.929 . S
C1418 C1410 1.378 . S
C1418 C1413 1.350 . S
C1419 H1406 0.930 1_556 S
C1419 C1411 1.433 . S
C1419 N1421 1.384 1_556 S
N1420 C1416 1.427 1_556 S
N1420 C1417 1.384 1_556 S
N1421 C1413 1.427 1_554 S
N1421 C1419 1.384 1_554 S
H1422 C1428 0.930 . S
H1423 C1432 0.930 . S
H1424 C1437 0.929 . S
H1425 C1435 0.929 . S
H1426 C1430 0.929 . S
H1427 C1436 0.929 . S
C1428 H1422 0.930 . S
C1428 C1429 1.367 . S
C1428 C1436 1.378 . S
C1429 C1428 1.367 . S
C1429 C1437 1.433 . S
C1430 H1426 0.929 . S
C1430 C1432 1.378 . S
C1430 C1434 1.350 . S
C1431 C1434 1.463 . S
C1431 C1436 1.350 . S
C1431 N1439 1.427 . S
C1432 H1423 0.930 . S
C1432 C1430 1.378 . S
C1432 C1433 1.367 . S
C1433 C1432 1.367 . S
C1433 C1435 1.433 . S
C1434 C1430 1.350 . S
C1434 C1431 1.463 . S
C1434 N1438 1.427 . S
C1435 H1425 0.929 . S
C1435 C1433 1.433 . S
C1435 N1438 1.384 . S
C1436 H1427 0.929 . S
C1436 C1428 1.378 . S
C1436 C1431 1.350 . S
C1437 H1424 0.929 . S
C1437 C1429 1.433 . S
C1437 N1439 1.384 . S
N1438 C1434 1.427 . S
N1438 C1435 1.384 . S
N1439 C1431 1.427 . S
N1439 C1437 1.384 . S
H1440 C1446 0.930 . S
H1441 C1450 0.930 . S
H1442 C1455 0.929 . S
H1443 C1453 0.929 . S
H1444 C1448 0.929 . S
H1445 C1454 0.929 . S
C1446 H1440 0.930 . S
C1446 C1447 1.367 . S
C1446 C1454 1.378 . S
C1447 C1446 1.367 . S
C1447 C1455 1.433 . S
C1448 H1444 0.929 . S
C1448 C1450 1.378 . S
C1448 C1452 1.350 . S
C1449 C1452 1.463 . S
C1449 C1454 1.350 . S
C1449 N1457 1.427 . S
C1450 H1441 0.930 . S
C1450 C1448 1.378 . S
C1450 C1451 1.367 . S
C1451 C1450 1.367 . S
C1451 C1453 1.433 . S
C1452 C1448 1.350 . S
C1452 C1449 1.463 . S
C1452 N1456 1.427 . S
C1453 H1443 0.929 . S
C1453 C1451 1.433 . S
C1453 N1456 1.384 . S
C1454 H1445 0.929 . S
C1454 C1446 1.378 . S
C1454 C1449 1.350 . S
C1455 H1442 0.929 . S
C1455 C1447 1.433 . S
C1455 N1457 1.384 . S
N1456 C1452 1.427 . S
N1456 C1453 1.384 . S
N1457 C1449 1.427 . S
N1457 C1455 1.384 . S
H1458 C1464 0.930 . S
H1459 C1468 0.930 . S
H1460 C1473 0.929 . S
H1461 C1471 0.929 . S
H1462 C1466 0.929 . S
H1463 C1472 0.929 . S
C1464 H1458 0.930 . S
C1464 C1465 1.367 . S
C1464 C1472 1.378 . S
C1465 C1464 1.367 . S
C1465 C1473 1.433 . S
C1466 H1462 0.929 . S
C1466 C1468 1.378 . S
C1466 C1470 1.350 . S
C1467 C1470 1.463 . S
C1467 C1472 1.350 . S
C1467 N1475 1.427 . S
C1468 H1459 0.930 . S
C1468 C1466 1.378 . S
C1468 C1469 1.367 . S
C1469 C1468 1.367 . S
C1469 C1471 1.433 . S
C1470 C1466 1.350 . S
C1470 C1467 1.463 . S
C1470 N1474 1.427 . S
C1471 H1461 0.929 . S
C1471 C1469 1.433 . S
C1471 N1474 1.384 . S
C1472 H1463 0.929 . S
C1472 C1464 1.378 . S
C1472 C1467 1.350 . S
C1473 H1460 0.929 . S
C1473 C1465 1.433 . S
C1473 N1475 1.384 . S
N1474 C1470 1.427 . S
N1474 C1471 1.384 . S
N1475 C1467 1.427 . S
N1475 C1473 1.384 . S
H1476 C1482 0.930 . S
H1477 C1486 0.930 . S
H1478 C1491 0.929 . S
H1479 C1489 0.929 . S
H1480 C1484 0.929 . S
H1481 C1490 0.929 . S
C1482 H1476 0.930 . S
C1482 C1483 1.367 . S
C1482 C1490 1.378 . S
C1483 C1482 1.367 . S
C1483 C1491 1.433 . S
C1484 H1480 0.929 . S
C1484 C1486 1.378 . S
C1484 C1488 1.350 . S
C1485 C1488 1.463 . S
C1485 C1490 1.350 . S
C1485 N1493 1.427 . S
C1486 H1477 0.930 . S
C1486 C1484 1.378 . S
C1486 C1487 1.367 . S
C1487 C1486 1.367 . S
C1487 C1489 1.433 . S
C1488 C1484 1.350 . S
C1488 C1485 1.463 . S
C1488 N1492 1.427 . S
C1489 H1479 0.929 . S
C1489 C1487 1.433 . S
C1489 N1492 1.384 . S
C1490 H1481 0.929 . S
C1490 C1482 1.378 . S
C1490 C1485 1.350 . S
C1491 H1478 0.929 . S
C1491 C1483 1.433 . S
C1491 N1493 1.384 . S
N1492 C1488 1.427 . S
N1492 C1489 1.384 . S
N1493 C1485 1.427 . S
N1493 C1491 1.384 . S
H1494 C1500 0.930 . S
H1495 C1504 0.930 . S
H1496 C1509 0.929 . S
H1497 C1507 0.929 . S
H1498 C1502 0.929 . S
H1499 C1508 0.929 . S
C1500 H1494 0.930 . S
C1500 C1501 1.367 . S
C1500 C1508 1.378 . S
C1501 C1500 1.367 . S
C1501 C1509 1.433 . S
C1502 H1498 0.929 . S
C1502 C1504 1.378 . S
C1502 C1506 1.350 . S
C1503 C1506 1.463 . S
C1503 C1508 1.350 . S
C1503 N1511 1.427 . S
C1504 H1495 0.930 . S
C1504 C1502 1.378 . S
C1504 C1505 1.367 . S
C1505 C1504 1.367 . S
C1505 C1507 1.433 . S
C1506 C1502 1.350 . S
C1506 C1503 1.463 . S
C1506 N1510 1.427 . S
C1507 H1497 0.929 . S
C1507 C1505 1.433 . S
C1507 N1510 1.384 . S
C1508 H1499 0.929 . S
C1508 C1500 1.378 . S
C1508 C1503 1.350 . S
C1509 H1496 0.929 . S
C1509 C1501 1.433 . S
C1509 N1511 1.384 . S
N1510 C1506 1.427 . S
N1510 C1507 1.384 . S
N1511 C1503 1.427 . S
N1511 C1509 1.384 . S
H1512 C1518 0.930 . S
H1513 C1522 0.930 . S
H1514 C1527 0.929 . S
H1515 C1525 0.929 . S
H1516 C1520 0.929 . S
H1517 C1526 0.929 . S
C1518 H1512 0.930 . S
C1518 C1519 1.367 . S
C1518 C1526 1.378 . S
C1519 C1518 1.367 . S
C1519 C1527 1.433 . S
C1520 H1516 0.929 . S
C1520 C1522 1.378 . S
C1520 C1524 1.350 . S
C1521 C1524 1.463 . S
C1521 C1526 1.350 . S
C1521 N1529 1.427 . S
C1522 H1513 0.930 . S
C1522 C1520 1.378 . S
C1522 C1523 1.367 . S
C1523 C1522 1.367 . S
C1523 C1525 1.433 . S
C1524 C1520 1.350 . S
C1524 C1521 1.463 . S
C1524 N1528 1.427 . S
C1525 H1515 0.929 . S
C1525 C1523 1.433 . S
C1525 N1528 1.384 . S
C1526 H1517 0.929 . S
C1526 C1518 1.378 . S
C1526 C1521 1.350 . S
C1527 H1514 0.929 . S
C1527 C1519 1.433 . S
C1527 N1529 1.384 . S
N1528 C1524 1.427 . S
N1528 C1525 1.384 . S
N1529 C1521 1.427 . S
N1529 C1527 1.384 . S
H1530 C1536 0.930 . S
H1531 C1540 0.930 . S
H1532 C1545 0.929 . S
H1533 C1543 0.929 . S
H1534 C1538 0.929 . S
H1535 C1544 0.929 . S
C1536 H1530 0.930 . S
C1536 C1537 1.367 . S
C1536 C1544 1.378 . S
C1537 C1536 1.367 . S
C1537 C1545 1.433 . S
C1538 H1534 0.929 . S
C1538 C1540 1.378 . S
C1538 C1542 1.350 . S
C1539 C1542 1.463 . S
C1539 C1544 1.350 . S
C1539 N1547 1.427 . S
C1540 H1531 0.930 . S
C1540 C1538 1.378 . S
C1540 C1541 1.367 . S
C1541 C1540 1.367 . S
C1541 C1543 1.433 . S
C1542 C1538 1.350 . S
C1542 C1539 1.463 . S
C1542 N1546 1.427 . S
C1543 H1533 0.929 . S
C1543 C1541 1.433 . S
C1543 N1546 1.384 . S
C1544 H1535 0.929 . S
C1544 C1536 1.378 . S
C1544 C1539 1.350 . S
C1545 H1532 0.929 . S
C1545 C1537 1.433 . S
C1545 N1547 1.384 . S
N1546 C1542 1.427 . S
N1546 C1543 1.384 . S
N1547 C1539 1.427 . S
N1547 C1545 1.384 . S
H1548 C1554 0.930 . S
H1549 C1558 0.930 . S
H1550 C1563 0.929 . S
H1551 C1561 0.929 . S
H1552 C1556 0.929 . S
H1553 C1562 0.929 . S
C1554 H1548 0.930 . S
C1554 C1555 1.367 . S
C1554 C1562 1.378 . S
C1555 C1554 1.367 . S
C1555 C1563 1.433 . S
C1556 H1552 0.929 . S
C1556 C1558 1.378 . S
C1556 C1560 1.350 . S
C1557 C1560 1.463 . S
C1557 C1562 1.350 . S
C1557 N1565 1.427 . S
C1558 H1549 0.930 . S
C1558 C1556 1.378 . S
C1558 C1559 1.367 . S
C1559 C1558 1.367 . S
C1559 C1561 1.433 . S
C1560 C1556 1.350 . S
C1560 C1557 1.463 . S
C1560 N1564 1.427 . S
C1561 H1551 0.929 . S
C1561 C1559 1.433 . S
C1561 N1564 1.384 . S
C1562 H1553 0.929 . S
C1562 C1554 1.378 . S
C1562 C1557 1.350 . S
C1563 H1550 0.929 . S
C1563 C1555 1.433 . S
C1563 N1565 1.384 . S
N1564 C1560 1.427 . S
N1564 C1561 1.384 . S
N1565 C1557 1.427 . S
N1565 C1563 1.384 . S
H1566 C1572 0.930 . S
H1567 C1576 0.930 . S
H1568 C1581 0.929 . S
H1569 C1579 0.929 . S
H1570 C1574 0.929 . S
H1571 C1580 0.929 . S
C1572 H1566 0.930 . S
C1572 C1573 1.367 . S
C1572 C1580 1.378 . S
C1573 C1572 1.367 . S
C1573 C1581 1.433 . S
C1574 H1570 0.929 . S
C1574 C1576 1.378 . S
C1574 C1578 1.350 . S
C1575 C1578 1.463 . S
C1575 C1580 1.350 . S
C1575 N1583 1.427 . S
C1576 H1567 0.930 . S
C1576 C1574 1.378 . S
C1576 C1577 1.367 . S
C1577 C1576 1.367 . S
C1577 C1579 1.433 . S
C1578 C1574 1.350 . S
C1578 C1575 1.463 . S
C1578 N1582 1.427 . S
C1579 H1569 0.929 . S
C1579 C1577 1.433 . S
C1579 N1582 1.384 . S
C1580 H1571 0.929 . S
C1580 C1572 1.378 . S
C1580 C1575 1.350 . S
C1581 H1568 0.929 . S
C1581 C1573 1.433 . S
C1581 N1583 1.384 . S
N1582 C1578 1.427 . S
N1582 C1579 1.384 . S
N1583 C1575 1.427 . S
N1583 C1581 1.384 . S
H1584 C1590 0.930 . S
H1585 C1594 0.930 . S
H1586 C1599 0.929 . S
H1587 C1597 0.929 . S
H1588 C1592 0.929 . S
H1589 C1598 0.929 . S
C1590 H1584 0.930 . S
C1590 C1591 1.367 . S
C1590 C1598 1.378 . S
C1591 C1590 1.367 . S
C1591 C1599 1.433 . S
C1592 H1588 0.929 . S
C1592 C1594 1.378 . S
C1592 C1596 1.350 . S
C1593 C1596 1.463 . S
C1593 C1598 1.350 . S
C1593 N1601 1.427 . S
C1594 H1585 0.930 . S
C1594 C1592 1.378 . S
C1594 C1595 1.367 . S
C1595 C1594 1.367 . S
C1595 C1597 1.433 . S
C1596 C1592 1.350 . S
C1596 C1593 1.463 . S
C1596 N1600 1.427 . S
C1597 H1587 0.929 . S
C1597 C1595 1.433 . S
C1597 N1600 1.384 . S
C1598 H1589 0.929 . S
C1598 C1590 1.378 . S
C1598 C1593 1.350 . S
C1599 H1586 0.929 . S
C1599 C1591 1.433 . S
C1599 N1601 1.384 . S
N1600 C1596 1.427 . S
N1600 C1597 1.384 . S
N1601 C1593 1.427 . S
N1601 C1599 1.384 . S
H1602 C1608 0.930 . S
H1603 C1612 0.930 . S
H1604 C1617 0.929 . S
H1605 C1615 0.929 . S
H1606 C1610 0.929 . S
H1607 C1616 0.929 . S
C1608 H1602 0.930 . S
C1608 C1609 1.367 . S
C1608 C1616 1.378 . S
C1609 C1608 1.367 . S
C1609 C1617 1.433 . S
C1610 H1606 0.929 . S
C1610 C1612 1.378 . S
C1610 C1614 1.350 . S
C1611 C1614 1.463 . S
C1611 C1616 1.350 . S
C1611 N1619 1.427 . S
C1612 H1603 0.930 . S
C1612 C1610 1.378 . S
C1612 C1613 1.367 . S
C1613 C1612 1.367 . S
C1613 C1615 1.433 . S
C1614 C1610 1.350 . S
C1614 C1611 1.463 . S
C1614 N1618 1.427 . S
C1615 H1605 0.929 . S
C1615 C1613 1.433 . S
C1615 N1618 1.384 . S
C1616 H1607 0.929 . S
C1616 C1608 1.378 . S
C1616 C1611 1.350 . S
C1617 H1604 0.929 . S
C1617 C1609 1.433 . S
C1617 N1619 1.384 . S
N1618 C1614 1.427 . S
N1618 C1615 1.384 . S
N1619 C1611 1.427 . S
N1619 C1617 1.384 . S
H1620 C1626 0.930 . S
H1621 C1630 0.930 . S
H1622 C1635 0.929 . S
H1623 C1633 0.929 . S
H1624 C1628 0.929 . S
H1625 C1634 0.929 . S
C1626 H1620 0.930 . S
C1626 C1627 1.367 . S
C1626 C1634 1.378 . S
C1627 C1626 1.367 . S
C1627 C1635 1.433 . S
C1628 H1624 0.929 . S
C1628 C1630 1.378 . S
C1628 C1632 1.350 . S
C1629 C1632 1.463 . S
C1629 C1634 1.350 . S
C1629 N1637 1.427 . S
C1630 H1621 0.930 . S
C1630 C1628 1.378 . S
C1630 C1631 1.367 . S
C1631 C1630 1.367 . S
C1631 C1633 1.433 . S
C1632 C1628 1.350 . S
C1632 C1629 1.463 . S
C1632 N1636 1.427 . S
C1633 H1623 0.929 . S
C1633 C1631 1.433 . S
C1633 N1636 1.384 . S
C1634 H1625 0.929 . S
C1634 C1626 1.378 . S
C1634 C1629 1.350 . S
C1635 H1622 0.929 . S
C1635 C1627 1.433 . S
C1635 N1637 1.384 . S
N1636 C1632 1.427 . S
N1636 C1633 1.384 . S
N1637 C1629 1.427 . S
N1637 C1635 1.384 . S
H1638 C1644 0.930 . S
H1639 C1648 0.930 . S
H1640 C1653 0.929 . S
H1641 C1651 0.929 . S
H1642 C1646 0.929 . S
H1643 C1652 0.929 . S
C1644 H1638 0.930 . S
C1644 C1645 1.367 . S
C1644 C1652 1.378 . S
C1645 C1644 1.367 . S
C1645 C1653 1.433 . S
C1646 H1642 0.929 . S
C1646 C1648 1.378 . S
C1646 C1650 1.350 . S
C1647 C1650 1.463 . S
C1647 C1652 1.350 . S
C1647 N1655 1.427 . S
C1648 H1639 0.930 . S
C1648 C1646 1.378 . S
C1648 C1649 1.367 . S
C1649 C1648 1.367 . S
C1649 C1651 1.433 . S
C1650 C1646 1.350 . S
C1650 C1647 1.463 . S
C1650 N1654 1.427 . S
C1651 H1641 0.929 . S
C1651 C1649 1.433 . S
C1651 N1654 1.384 . S
C1652 H1643 0.929 . S
C1652 C1644 1.378 . S
C1652 C1647 1.350 . S
C1653 H1640 0.929 . S
C1653 C1645 1.433 . S
C1653 N1655 1.384 . S
N1654 C1650 1.427 . S
N1654 C1651 1.384 . S
N1655 C1647 1.427 . S
N1655 C1653 1.384 . S
H1656 C1662 0.930 . S
H1657 C1666 0.930 . S
H1658 C1671 0.929 . S
H1659 C1669 0.929 . S
H1660 C1664 0.929 . S
H1661 C1670 0.929 . S
C1662 H1656 0.930 . S
C1662 C1663 1.367 . S
C1662 C1670 1.378 . S
C1663 C1662 1.367 . S
C1663 C1671 1.433 . S
C1664 H1660 0.929 . S
C1664 C1666 1.378 . S
C1664 C1668 1.350 . S
C1665 C1668 1.463 . S
C1665 C1670 1.350 . S
C1665 N1673 1.427 . S
C1666 H1657 0.930 . S
C1666 C1664 1.378 . S
C1666 C1667 1.367 . S
C1667 C1666 1.367 . S
C1667 C1669 1.433 . S
C1668 C1664 1.350 . S
C1668 C1665 1.463 . S
C1668 N1672 1.427 . S
C1669 H1659 0.929 . S
C1669 C1667 1.433 . S
C1669 N1672 1.384 . S
C1670 H1661 0.929 . S
C1670 C1662 1.378 . S
C1670 C1665 1.350 . S
C1671 H1658 0.929 . S
C1671 C1663 1.433 . S
C1671 N1673 1.384 . S
N1672 C1668 1.427 . S
N1672 C1669 1.384 . S
N1673 C1665 1.427 . S
N1673 C1671 1.384 . S
H1674 C1680 0.930 . S
H1675 C1684 0.930 . S
H1676 C1689 0.929 . S
H1677 C1687 0.929 . S
H1678 C1682 0.929 . S
H1679 C1688 0.929 . S
C1680 H1674 0.930 . S
C1680 C1681 1.367 . S
C1680 C1688 1.378 . S
C1681 C1680 1.367 . S
C1681 C1689 1.433 . S
C1682 H1678 0.929 . S
C1682 C1684 1.378 . S
C1682 C1686 1.350 . S
C1683 C1686 1.463 . S
C1683 C1688 1.350 . S
C1683 N1691 1.427 . S
C1684 H1675 0.930 . S
C1684 C1682 1.378 . S
C1684 C1685 1.367 . S
C1685 C1684 1.367 . S
C1685 C1687 1.433 . S
C1686 C1682 1.350 . S
C1686 C1683 1.463 . S
C1686 N1690 1.427 . S
C1687 H1677 0.929 . S
C1687 C1685 1.433 . S
C1687 N1690 1.384 . S
C1688 H1679 0.929 . S
C1688 C1680 1.378 . S
C1688 C1683 1.350 . S
C1689 H1676 0.929 . S
C1689 C1681 1.433 . S
C1689 N1691 1.384 . S
N1690 C1686 1.427 . S
N1690 C1687 1.384 . S
N1691 C1683 1.427 . S
N1691 C1689 1.384 . S
H1692 C1698 0.930 . S
H1693 C1702 0.930 . S
H1694 C1707 0.929 . S
H1695 C1705 0.929 . S
H1696 C1700 0.929 . S
H1697 C1706 0.929 . S
C1698 H1692 0.930 . S
C1698 C1699 1.367 . S
C1698 C1706 1.378 . S
C1699 C1698 1.367 . S
C1699 C1707 1.433 . S
C1700 H1696 0.929 . S
C1700 C1702 1.378 . S
C1700 C1704 1.350 . S
C1701 C1704 1.463 . S
C1701 C1706 1.350 . S
C1701 N1709 1.427 . S
C1702 H1693 0.930 . S
C1702 C1700 1.378 . S
C1702 C1703 1.367 . S
C1703 C1702 1.367 . S
C1703 C1705 1.433 . S
C1704 C1700 1.350 . S
C1704 C1701 1.463 . S
C1704 N1708 1.427 . S
C1705 H1695 0.929 . S
C1705 C1703 1.433 . S
C1705 N1708 1.384 . S
C1706 H1697 0.929 . S
C1706 C1698 1.378 . S
C1706 C1701 1.350 . S
C1707 H1694 0.929 . S
C1707 C1699 1.433 . S
C1707 N1709 1.384 . S
N1708 C1704 1.427 . S
N1708 C1705 1.384 . S
N1709 C1701 1.427 . S
N1709 C1707 1.384 . S
H1710 C1716 0.930 . S
H1711 C1720 0.930 . S
H1712 C1725 0.929 . S
H1713 C1723 0.929 . S
H1714 C1718 0.929 . S
H1715 C1724 0.929 . S
C1716 H1710 0.930 . S
C1716 C1717 1.367 . S
C1716 C1724 1.378 . S
C1717 C1716 1.367 . S
C1717 C1725 1.433 . S
C1718 H1714 0.929 . S
C1718 C1720 1.378 . S
C1718 C1722 1.350 . S
C1719 C1722 1.463 . S
C1719 C1724 1.350 . S
C1719 N1727 1.427 . S
C1720 H1711 0.930 . S
C1720 C1718 1.378 . S
C1720 C1721 1.367 . S
C1721 C1720 1.367 . S
C1721 C1723 1.433 . S
C1722 C1718 1.350 . S
C1722 C1719 1.463 . S
C1722 N1726 1.427 . S
C1723 H1713 0.929 . S
C1723 C1721 1.433 . S
C1723 N1726 1.384 . S
C1724 H1715 0.929 . S
C1724 C1716 1.378 . S
C1724 C1719 1.350 . S
C1725 H1712 0.929 . S
C1725 C1717 1.433 . S
C1725 N1727 1.384 . S
N1726 C1722 1.427 . S
N1726 C1723 1.384 . S
N1727 C1719 1.427 . S
N1727 C1725 1.384 . S
H1728 C1734 0.930 . S
H1729 C1738 0.930 . S
H1730 C1743 0.929 . S
H1731 C1741 0.929 . S
H1732 C1736 0.929 . S
H1733 C1742 0.929 . S
C1734 H1728 0.930 . S
C1734 C1735 1.367 . S
C1734 C1742 1.378 . S
C1735 C1734 1.367 . S
C1735 C1743 1.433 . S
C1736 H1732 0.929 . S
C1736 C1738 1.378 . S
C1736 C1740 1.350 . S
C1737 C1740 1.463 . S
C1737 C1742 1.350 . S
C1737 N1745 1.427 . S
C1738 H1729 0.930 . S
C1738 C1736 1.378 . S
C1738 C1739 1.367 . S
C1739 C1738 1.367 . S
C1739 C1741 1.433 . S
C1740 C1736 1.350 . S
C1740 C1737 1.463 . S
C1740 N1744 1.427 . S
C1741 H1731 0.929 . S
C1741 C1739 1.433 . S
C1741 N1744 1.384 . S
C1742 H1733 0.929 . S
C1742 C1734 1.378 . S
C1742 C1737 1.350 . S
C1743 H1730 0.929 . S
C1743 C1735 1.433 . S
C1743 N1745 1.384 . S
N1744 C1740 1.427 . S
N1744 C1741 1.384 . S
N1745 C1737 1.427 . S
N1745 C1743 1.384 . S
H1746 C1752 0.930 . S
H1747 C1756 0.930 . S
H1748 C1761 0.929 . S
H1749 C1759 0.929 . S
H1750 C1754 0.929 . S
H1751 C1760 0.929 . S
C1752 H1746 0.930 . S
C1752 C1753 1.367 . S
C1752 C1760 1.378 . S
C1753 C1752 1.367 . S
C1753 C1761 1.433 . S
C1754 H1750 0.929 . S
C1754 C1756 1.378 . S
C1754 C1758 1.350 . S
C1755 C1758 1.463 . S
C1755 C1760 1.350 . S
C1755 N1763 1.427 . S
C1756 H1747 0.930 . S
C1756 C1754 1.378 . S
C1756 C1757 1.367 . S
C1757 C1756 1.367 . S
C1757 C1759 1.433 . S
C1758 C1754 1.350 . S
C1758 C1755 1.463 . S
C1758 N1762 1.427 . S
C1759 H1749 0.929 . S
C1759 C1757 1.433 . S
C1759 N1762 1.384 . S
C1760 H1751 0.929 . S
C1760 C1752 1.378 . S
C1760 C1755 1.350 . S
C1761 H1748 0.929 . S
C1761 C1753 1.433 . S
C1761 N1763 1.384 . S
N1762 C1758 1.427 . S
N1762 C1759 1.384 . S
N1763 C1755 1.427 . S
N1763 C1761 1.384 . S
H1764 C1770 0.930 . S
H1765 C1774 0.930 . S
H1766 C1779 0.929 . S
H1767 C1777 0.929 . S
H1768 C1772 0.929 . S
H1769 C1778 0.929 . S
C1770 H1764 0.930 . S
C1770 C1771 1.367 . S
C1770 C1778 1.378 . S
C1771 C1770 1.367 . S
C1771 C1779 1.433 . S
C1772 H1768 0.929 . S
C1772 C1774 1.378 . S
C1772 C1776 1.350 . S
C1773 C1776 1.463 . S
C1773 C1778 1.350 . S
C1773 N1781 1.427 . S
C1774 H1765 0.930 . S
C1774 C1772 1.378 . S
C1774 C1775 1.367 . S
C1775 C1774 1.367 . S
C1775 C1777 1.433 . S
C1776 C1772 1.350 . S
C1776 C1773 1.463 . S
C1776 N1780 1.427 . S
C1777 H1767 0.929 . S
C1777 C1775 1.433 . S
C1777 N1780 1.384 . S
C1778 H1769 0.929 . S
C1778 C1770 1.378 . S
C1778 C1773 1.350 . S
C1779 H1766 0.929 . S
C1779 C1771 1.433 . S
C1779 N1781 1.384 . S
N1780 C1776 1.427 . S
N1780 C1777 1.384 . S
N1781 C1773 1.427 . S
N1781 C1779 1.384 . S
H1782 C1788 0.930 . S
H1783 C1792 0.930 . S
H1784 C1797 0.929 . S
H1785 C1795 0.929 . S
H1786 C1790 0.929 . S
H1787 C1796 0.929 . S
C1788 H1782 0.930 . S
C1788 C1789 1.367 . S
C1788 C1796 1.378 . S
C1789 C1788 1.367 . S
C1789 C1797 1.433 . S
C1790 H1786 0.929 . S
C1790 C1792 1.378 . S
C1790 C1794 1.350 . S
C1791 C1794 1.463 . S
C1791 C1796 1.350 . S
C1791 N1799 1.427 . S
C1792 H1783 0.930 . S
C1792 C1790 1.378 . S
C1792 C1793 1.367 . S
C1793 C1792 1.367 . S
C1793 C1795 1.433 . S
C1794 C1790 1.350 . S
C1794 C1791 1.463 . S
C1794 N1798 1.427 . S
C1795 H1785 0.929 . S
C1795 C1793 1.433 . S
C1795 N1798 1.384 . S
C1796 H1787 0.929 . S
C1796 C1788 1.378 . S
C1796 C1791 1.350 . S
C1797 H1784 0.929 . S
C1797 C1789 1.433 . S
C1797 N1799 1.384 . S
N1798 C1794 1.427 . S
N1798 C1795 1.384 . S
N1799 C1791 1.427 . S
N1799 C1797 1.384 . S
H1800 C1806 0.930 . S
H1801 C1810 0.930 . S
H1802 C1815 0.929 . S
H1803 C1813 0.929 . S
H1804 C1808 0.929 . S
H1805 C1814 0.929 . S
C1806 H1800 0.930 . S
C1806 C1807 1.367 . S
C1806 C1814 1.378 . S
C1807 C1806 1.367 . S
C1807 C1815 1.433 . S
C1808 H1804 0.929 . S
C1808 C1810 1.378 . S
C1808 C1812 1.350 . S
C1809 C1812 1.463 . S
C1809 C1814 1.350 . S
C1809 N1817 1.427 . S
C1810 H1801 0.930 . S
C1810 C1808 1.378 . S
C1810 C1811 1.367 . S
C1811 C1810 1.367 . S
C1811 C1813 1.433 . S
C1812 C1808 1.350 . S
C1812 C1809 1.463 . S
C1812 N1816 1.427 . S
C1813 H1803 0.929 . S
C1813 C1811 1.433 . S
C1813 N1816 1.384 . S
C1814 H1805 0.929 . S
C1814 C1806 1.378 . S
C1814 C1809 1.350 . S
C1815 H1802 0.929 . S
C1815 C1807 1.433 . S
C1815 N1817 1.384 . S
N1816 C1812 1.427 . S
N1816 C1813 1.384 . S
N1817 C1809 1.427 . S
N1817 C1815 1.384 . S
H1818 C1824 0.930 . S
H1819 C1828 0.930 . S
H1820 C1833 0.929 . S
H1821 C1831 0.929 . S
H1822 C1826 0.929 . S
H1823 C1832 0.929 . S
C1824 H1818 0.930 . S
C1824 C1825 1.367 . S
C1824 C1832 1.378 . S
C1825 C1824 1.367 . S
C1825 C1833 1.433 . S
C1826 H1822 0.929 . S
C1826 C1828 1.378 . S
C1826 C1830 1.350 . S
C1827 C1830 1.463 . S
C1827 C1832 1.350 . S
C1827 N1835 1.427 . S
C1828 H1819 0.930 . S
C1828 C1826 1.378 . S
C1828 C1829 1.367 . S
C1829 C1828 1.367 . S
C1829 C1831 1.433 . S
C1830 C1826 1.350 . S
C1830 C1827 1.463 . S
C1830 N1834 1.427 . S
C1831 H1821 0.929 . S
C1831 C1829 1.433 . S
C1831 N1834 1.384 . S
C1832 H1823 0.929 . S
C1832 C1824 1.378 . S
C1832 C1827 1.350 . S
C1833 H1820 0.929 . S
C1833 C1825 1.433 . S
C1833 N1835 1.384 . S
N1834 C1830 1.427 . S
N1834 C1831 1.384 . S
N1835 C1827 1.427 . S
N1835 C1833 1.384 . S
H1836 C1842 0.930 . S
H1837 C1846 0.930 . S
H1838 C1851 0.929 . S
H1839 C1849 0.929 . S
H1840 C1844 0.929 . S
H1841 C1850 0.929 . S
C1842 H1836 0.930 . S
C1842 C1843 1.367 . S
C1842 C1850 1.378 . S
C1843 C1842 1.367 . S
C1843 C1851 1.433 . S
C1844 H1840 0.929 . S
C1844 C1846 1.378 . S
C1844 C1848 1.350 . S
C1845 C1848 1.463 . S
C1845 C1850 1.350 . S
C1845 N1853 1.427 . S
C1846 H1837 0.930 . S
C1846 C1844 1.378 . S
C1846 C1847 1.367 . S
C1847 C1846 1.367 . S
C1847 C1849 1.433 . S
C1848 C1844 1.350 . S
C1848 C1845 1.463 . S
C1848 N1852 1.427 . S
C1849 H1839 0.929 . S
C1849 C1847 1.433 . S
C1849 N1852 1.384 . S
C1850 H1841 0.929 . S
C1850 C1842 1.378 . S
C1850 C1845 1.350 . S
C1851 H1838 0.929 . S
C1851 C1843 1.433 . S
C1851 N1853 1.384 . S
N1852 C1848 1.427 . S
N1852 C1849 1.384 . S
N1853 C1845 1.427 . S
N1853 C1851 1.384 . S
H1854 C1860 0.930 . S
H1855 C1864 0.930 . S
H1856 C1869 0.929 . S
H1857 C1867 0.929 . S
H1858 C1862 0.929 . S
H1859 C1868 0.929 . S
C1860 H1854 0.930 . S
C1860 C1861 1.367 . S
C1860 C1868 1.378 . S
C1861 C1860 1.367 . S
C1861 C1869 1.433 . S
C1862 H1858 0.929 . S
C1862 C1864 1.378 . S
C1862 C1866 1.350 . S
C1863 C1866 1.463 . S
C1863 C1868 1.350 . S
C1863 N1871 1.427 . S
C1864 H1855 0.930 . S
C1864 C1862 1.378 . S
C1864 C1865 1.367 . S
C1865 C1864 1.367 . S
C1865 C1867 1.433 . S
C1866 C1862 1.350 . S
C1866 C1863 1.463 . S
C1866 N1870 1.427 . S
C1867 H1857 0.929 . S
C1867 C1865 1.433 . S
C1867 N1870 1.384 . S
C1868 H1859 0.929 . S
C1868 C1860 1.378 . S
C1868 C1863 1.350 . S
C1869 H1856 0.929 . S
C1869 C1861 1.433 . S
C1869 N1871 1.384 . S
N1870 C1866 1.427 . S
N1870 C1867 1.384 . S
N1871 C1863 1.427 . S
N1871 C1869 1.384 . S
C799 N101 1.276 . S
C803 C7 1.306 . S
C817 N2 1.287 1_655 S
C821 C40 1.315 . S
C835 N35 1.274 . S
C839 C73 1.305 . S
C853 C106 1.305 . S
C857 N68 1.274 1_455 S
C871 N167 1.281 . S
C875 C139 1.312 . S
C889 N200 1.290 1_455 S
C893 C172 1.315 . S
C907 C205 1.309 . S
C911 N233 1.282 . S
C925 N134 1.291 1_655 S
C929 C238 1.316 . S
C943 C271 1.307 . S
C947 N596 1.275 . S
C961 C304 1.306 . S
C965 N629 1.274 1_554 S
C979 N662 1.288 . S
C983 C337 1.313 . S
C997 N563 1.282 1_554 S
C1001 C370 1.312 . S
C1015 N728 1.287 . S
C1019 C403 1.312 . S
C1033 C436 1.311 . S
C1037 N530 1.286 1_556 S
C1051 C469 1.316 . S
C1055 N761 1.290 . S
C1069 N695 1.284 1_556 S
C1073 C502 1.310 . S
C1087 N299 1.275 . S
C1091 C535 1.305 . S
C1105 C568 1.310 . S
C1109 N497 1.279 . S
C1123 N398 1.281 1_545 S
C1127 C601 1.312 . S
C1141 N431 1.291 . S
C1145 C634 1.316 . S
C1159 N464 1.277 1_565 S
C1163 C667 1.309 . S
C1177 N365 1.286 . S
C1181 C700 1.312 . S
C1195 N266 1.275 1_565 S
C1199 C733 1.307 . S
C1213 N332 1.277 1_545 S
C1217 C766 1.308 . S
C1231 C219 1.816 . S
C1235 C21 1.817 . S
C1249 C54 1.818 . S
C1253 C252 1.818 . S
C1267 C153 1.817 . S
C1271 C87 1.816 . S
C1285 C186 1.817 . S
C1289 C120 1.818 . S
C1303 C351 1.818 . S
C1307 C285 1.818 . S
C1321 C318 1.818 . S
C1325 C384 1.818 . S
C1339 C417 1.817 . S
C1343 C483 1.816 . S
C1357 C516 1.816 . S
C1361 C450 1.817 . S
C1375 C549 1.816 . S
C1379 C582 1.817 . S
C1393 C615 1.816 . S
C1397 C780 1.816 . S
C1411 C648 1.816 . S
C1415 C714 1.817 . S
C1429 C747 1.816 . S
C1433 C681 1.817 . S
C1447 C18 1.155 . S
C1451 N277 1.168 . S
C1465 C51 1.154 . S
C1469 N310 1.168 . S
C1483 N343 1.168 . S
C1487 C84 1.150 . S
C1501 N376 1.165 . S
C1505 C117 1.147 . S
C1519 C150 1.156 . S
C1523 N409 1.167 . S
C1537 N442 1.168 . S
C1541 C183 1.155 . S
C1555 C216 1.149 . S
C1559 N475 1.165 . S
C1573 N508 1.167 . S
C1577 C249 1.157 . S
C1591 C282 1.156 . S
C1595 N541 1.168 . S
C1609 N772 1.168 . S
C1613 C315 1.153 . S
C1627 C348 1.155 . S
C1631 N706 1.166 . S
C1645 C381 1.144 . S
C1649 N739 1.165 . S
C1663 N574 1.167 . S
C1667 C414 1.147 . S
C1681 C447 1.157 . S
C1685 N607 1.167 . S
C1699 C480 1.147 . S
C1703 N640 1.167 . S
C1717 C513 1.150 . S
C1721 N673 1.165 . S
C1735 C546 1.152 . S
C1739 N13 1.168 . S
C1753 C579 1.156 . S
C1757 N145 1.166 . S
C1771 C612 1.150 . S
C1775 N178 1.165 . S
C1789 N211 1.166 . S
C1793 C645 1.145 . S
C1807 C678 1.155 . S
C1811 N244 1.168 . S
C1825 N79 1.168 . S
C1829 C711 1.156 . S
C1843 N112 1.168 . S
C1847 C744 1.151 . S
C1861 C777 1.148 . S
C1865 N46 1.165 . S
