# Generated by pormake.
# Topology dft, (4)-cn, num edge types: 1
# Building blocks:
#     Node 0, Type 0, BuildingBlock: NAHDIM_clean_sbu_0, # of connection points: 4
#     Node 1, Type 0, BuildingBlock: NAHDIM_clean_sbu_0, # of connection points: 4
#     Node 2, Type 0, BuildingBlock: NAHDIM_clean_sbu_0, # of connection points: 4
#     Node 3, Type 0, BuildingBlock: NAHDIM_clean_sbu_0, # of connection points: 4
#     Node 4, Type 0, BuildingBlock: NAHDIM_clean_sbu_0, # of connection points: 4
#     Node 5, Type 0, BuildingBlock: NAHDIM_clean_sbu_0, # of connection points: 4
#     Node 6, Type 0, BuildingBlock: NAHDIM_clean_sbu_0, # of connection points: 4
#     Node 7, Type 0, BuildingBlock: NAHDIM_clean_sbu_0, # of connection points: 4
#     Edge 8, Type (0, 0), BuildingBlock: ZUJKAS_clean_linker_0, # of connection points: 2
#     Edge 9, Type (0, 0), BuildingBlock: ZUJKAS_clean_linker_0, # of connection points: 2
#     Edge 10, Type (0, 0), BuildingBlock: ZUJKAS_clean_linker_0, # of connection points: 2
#     Edge 11, Type (0, 0), BuildingBlock: ZUJKAS_clean_linker_0, # of connection points: 2
#     Edge 12, Type (0, 0), BuildingBlock: ZUJKAS_clean_linker_0, # of connection points: 2
#     Edge 13, Type (0, 0), BuildingBlock: ZUJKAS_clean_linker_0, # of connection points: 2
#     Edge 14, Type (0, 0), BuildingBlock: ZUJKAS_clean_linker_0, # of connection points: 2
#     Edge 15, Type (0, 0), BuildingBlock: ZUJKAS_clean_linker_0, # of connection points: 2
#     Edge 16, Type (0, 0), BuildingBlock: ZUJKAS_clean_linker_0, # of connection points: 2
#     Edge 17, Type (0, 0), BuildingBlock: ZUJKAS_clean_linker_0, # of connection points: 2
#     Edge 18, Type (0, 0), BuildingBlock: ZUJKAS_clean_linker_0, # of connection points: 2
#     Edge 19, Type (0, 0), BuildingBlock: ZUJKAS_clean_linker_0, # of connection points: 2
#     Edge 20, Type (0, 0), BuildingBlock: ZUJKAS_clean_linker_0, # of connection points: 2
#     Edge 21, Type (0, 0), BuildingBlock: ZUJKAS_clean_linker_0, # of connection points: 2
#     Edge 22, Type (0, 0), BuildingBlock: ZUJKAS_clean_linker_0, # of connection points: 2
#     Edge 23, Type (0, 0), BuildingBlock: ZUJKAS_clean_linker_0, # of connection points: 2
# Relax obj value: 0.138
# Max RMSD: 0.138
# Mean RMSD: 0.138
data_MOF--net-dft--node1-NAHDIM_clean_sbu_0--edge1-ZUJKAS_clean_linker_0
_symmetry_space_group_name_H-M    P1
_symmetry_Int_Tables_number       1
_symmetry_cell_setting            triclinic
loop_
_symmetry_equiv_pos_as_xyz
'x, y, z'
_cell_length_a     45.145284
_cell_length_b     45.188891
_cell_length_c     50.244991
_cell_angle_alpha  89.965488
_cell_angle_beta   90.078273
_cell_angle_gamma 89.939786
loop_
_atom_site_label
_atom_site_type_symbol
_atom_site_fract_x
_atom_site_fract_y
_atom_site_fract_z
_atom_type_partial_charge
C0 C 0.36044 0.01709 0.209 0.0
O1 O 0.35063 0.03858 0.19372 0.0
O2 O 0.28213 0.03391 0.21279 0.0
Zn3 Zn 0.3021 -0.00321 0.20014 0.0
O4 O 0.30265 -0.00448 0.16019 0.0
C5 C 0.26644 0.96244 0.23584 0.0
O6 O 0.26968 0.98579 0.25114 0.0
O7 O 0.34331 -0.00426 0.21461 0.0
C8 C 0.27834 0.99111 0.14804 0.0
O9 O 0.25399 0.98769 0.16201 0.0
C10 C 0.27701 0.05628 0.19816 0.0
O11 O 0.2852 0.05593 0.17309 0.0
O12 O 0.27909 0.96188 0.21329 0.0
C13 C 0.00293 0.34891 0.68994 0.0
O14 O 0.99044 0.34194 0.66717 0.0
O15 O 0.98069 0.26583 0.70197 0.0
Zn16 Zn 0.01684 0.28739 0.68937 0.0
O17 O 0.01766 0.28854 0.64939 0.0
C18 C 0.06135 0.27047 0.72697 0.0
O19 O 0.04607 0.28826 0.74243 0.0
O20 O 0.01586 0.32888 0.70337 0.0
C21 C 0.00975 0.26667 0.6352 0.0
O22 O 0.00158 0.24199 0.64689 0.0
C23 C 0.95544 0.27009 0.69142 0.0
O24 O 0.95286 0.28907 0.67174 0.0
O25 O 0.05301 0.26666 0.70305 0.0
C26 C 0.66893 0.00436 0.22159 0.0
O27 O 0.68687 0.98656 0.23458 0.0
O28 O 0.73052 0.96695 0.19466 0.0
Zn29 Zn 0.71732 0.0078 0.18427 0.0
O30 O 0.71448 0.01082 0.14438 0.0
C31 C 0.76035 0.03327 0.21979 0.0
O32 O 0.75552 0.00893 0.2334 0.0
O33 O 0.67745 0.01597 0.19987 0.0
C34 C 0.73514 0.02216 0.13059 0.0
O35 O 0.75898 0.03211 0.14263 0.0
C36 C 0.75431 0.9563 0.18521 0.0
O37 O 0.7696 0.97202 0.16806 0.0
O38 O 0.74629 0.03762 0.19822 0.0
C39 C 0.02911 0.65607 0.7019 0.0
O40 O 0.04839 0.66548 0.68426 0.0
O41 O 0.04591 0.73621 0.70784 0.0
Zn42 Zn 0.00935 0.71488 0.69578 0.0
O43 O 0.00749 0.71345 0.65588 0.0
C44 C 0.97395 0.74966 0.73136 0.0
O45 O -0.00266 0.747 0.74678 0.0
O46 O 0.00949 0.67382 0.7104 0.0
C47 C 0.00239 0.73716 0.64306 0.0
O48 O -0.00105 0.76201 0.65628 0.0
C49 C 0.06878 0.73982 0.6935 0.0
O50 O 0.0693 0.72892 0.66928 0.0
O51 O 0.97382 0.73701 0.7088 0.0
C52 C 0.34768 0.00105 0.77398 0.0
O53 O 0.32686 -0.00234 0.75594 0.0
O54 O 0.27733 0.97008 0.79233 0.0
Zn55 Zn 0.29844 0.00343 0.8103 0.0
O56 O 0.29761 -0.00195 0.84993 0.0
C57 C 0.27685 0.06347 0.81582 0.0
O58 O 0.28985 0.06211 0.8392 0.0
O59 O 0.34047 0.00417 0.79825 0.0
C60 C 0.27346 0.99399 0.86232 0.0
O61 O 0.24853 0.99293 0.84882 0.0
C62 C 0.27979 0.94339 0.79993 0.0
O63 O 0.29677 0.93712 0.82044 0.0
O64 O 0.27815 0.0413 0.80033 0.0
C65 C 0.02934 0.35537 0.28571 0.0
O66 O 0.05287 0.34852 0.29985 0.0
O67 O 0.05471 0.27887 0.28519 0.0
Zn68 Zn 0.01607 0.29586 0.29786 0.0
O69 O 0.01618 0.29915 0.33777 0.0
C70 C 0.98293 0.24274 0.29753 0.0
O71 O 0.00313 0.23576 0.31532 0.0
O72 O 0.0097 0.33578 0.28175 0.0
C73 C 0.99231 0.29916 0.35112 0.0
O74 O 0.96681 0.29824 0.3385 0.0
C75 C 0.07342 0.26787 0.30133 0.0
O76 O 0.06784 0.26852 0.32697 0.0
O77 O 0.9837 0.26819 0.28679 0.0
C78 C 0.65407 0.02852 0.7741 0.0
O79 O 0.66195 0.05416 0.78414 0.0
O80 O 0.73021 0.05009 0.77549 0.0
Zn81 Zn 0.71201 0.01359 0.79145 0.0
O82 O 0.70796 0.01755 0.83122 0.0
C83 C 0.76582 0.9824 0.7799 0.0
O84 O 0.77667 0.00936 0.78017 0.0
O85 O 0.6722 0.00704 0.77497 0.0
C86 C 0.7309 0.0223 0.84526 0.0
O87 O 0.75664 0.02522 0.8334 0.0
C88 C 0.73136 0.07518 0.78684 0.0
O89 O 0.71931 0.07862 0.81042 0.0
O90 O 0.73828 0.97864 0.78388 0.0
C91 C 0.98319 0.662 0.27235 0.0
O92 O 0.96185 0.67742 0.26118 0.0
O93 O 0.95649 0.7332 0.28808 0.0
Zn94 Zn 0.99249 0.7147 0.30462 0.0
O95 O 0.98874 0.71325 0.34444 0.0
C96 C 0.02582 0.76659 0.29064 0.0
O97 O -0.00052 0.77895 0.29112 0.0
O98 O -0.00144 0.67355 0.29083 0.0
C99 C 0.98326 0.73656 0.35768 0.0
O100 O 0.97906 0.76161 0.34494 0.0
C101 C 0.93041 0.7309 0.29729 0.0
O102 O 0.92584 0.71515 0.31888 0.0
O103 O 0.02825 0.73911 0.29556 0.0
H104 H 0.32444 -0.00218 0.11327 0.0
H105 H 0.32242 -0.00296 0.0646 0.0
H106 H 0.22827 0.98146 0.06765 0.0
H107 H 0.22996 0.98247 0.11627 0.0
H108 H 0.30209 0.95079 0.03086 0.0
H109 H 0.23625 0.05386 0.01827 0.0
H110 H 0.25468 0.04453 0.04907 0.0
H111 H 0.22034 0.02694 0.04034 0.0
C112 C 0.30328 -0.0057 0.1036 0.0
C113 C 0.27732 0.99035 0.11864 0.0
C114 C 0.30219 0.99382 0.07582 0.0
C115 C 0.27514 0.98959 0.0626 0.0
C116 C 0.24927 0.98529 0.07751 0.0
H117 H 0.22594 0.98534 0.89519 0.0
H118 H 0.22615 0.98241 0.94385 0.0
C119 C 0.25032 0.98574 0.10529 0.0
C120 C 0.27409 0.98929 0.03318 0.0
H121 H 0.24547 0.02571 0.97946 0.0
C122 C 0.28978 0.96718 0.01958 0.0
C123 C 0.2579 0.01067 0.01862 0.0
C124 C 0.24151 0.03552 0.03224 0.0
C125 C 0.28948 0.96569 0.99169 0.0
C126 C 0.27349 0.98722 0.97711 0.0
C127 C 0.25763 0.0092 0.99073 0.0
C128 C 0.27357 0.98787 0.94766 0.0
C129 C 0.30591 0.94084 0.9781 0.0
C130 C 0.30014 0.99212 0.93377 0.0
C131 C 0.30012 0.99376 0.90602 0.0
C132 C 0.27346 0.99141 0.89166 0.0
C133 C 0.24685 0.98717 0.90565 0.0
C134 C 0.24691 0.98551 0.93344 0.0
H135 H 0.3099 0.92197 0.99184 0.0
H136 H 0.29348 0.93269 0.96049 0.0
H137 H 0.32775 0.94907 0.97124 0.0
H138 H 0.32087 -0.00536 0.94441 0.0
H139 H 0.32099 -0.00279 0.89588 0.0
H140 H 0.02684 0.31398 0.60504 0.0
H141 H 0.02292 0.31959 0.55682 0.0
H142 H 0.98492 0.23232 0.55085 0.0
H143 H 0.98923 0.22625 0.5991 0.0
H144 H 0.02815 0.24258 0.51337 0.0
H145 H 0.94702 0.33481 0.51497 0.0
H146 H 0.97981 0.34203 0.53413 0.0
H147 H 0.95525 0.3127 0.54399 0.0
C148 C 0.01765 0.29594 0.5935 0.0
C149 C 0.00822 0.26969 0.60592 0.0
C150 C 0.01524 0.29929 0.56596 0.0
C151 C 0.00309 0.27661 0.55035 0.0
C152 C 0.99416 0.25017 0.5626 0.0
H153 H 0.94599 0.29226 0.38561 0.0
H154 H 0.94844 0.28655 0.434 0.0
C155 C -0.00334 0.24674 0.59016 0.0
C156 C 0.00026 0.28025 0.52118 0.0
H157 H 0.96934 0.324 0.47316 0.0
C158 C 0.01519 0.26029 0.50455 0.0
C159 C 0.98299 0.30314 0.50976 0.0
C160 C 0.9651 0.32423 0.52661 0.0
C161 C 0.01382 0.26294 0.47676 0.0
C162 C -0.00245 0.28655 0.46537 0.0
C163 C 0.98209 0.30614 0.48198 0.0
C164 C -0.00392 0.2911 0.43622 0.0
C165 C 0.02946 0.24018 0.45987 0.0
C166 C 0.02199 0.29627 0.42157 0.0
C167 C 0.0207 0.29943 0.39395 0.0
C168 C 0.9934 0.29778 0.38051 0.0
C169 C 0.96737 0.29359 0.39535 0.0
C170 C 0.96871 0.2903 0.42299 0.0
H171 H 0.03386 0.21948 0.47116 0.0
H172 H 0.01623 0.23464 0.4419 0.0
H173 H 0.05108 0.24923 0.45326 0.0
H174 H 0.04326 0.29768 0.43149 0.0
H175 H 0.04114 0.30287 0.38312 0.0
H176 H 0.77505 0.03573 0.88036 0.0
H177 H 0.77216 0.03713 0.92892 0.0
H178 H 0.67949 0.01453 0.92518 0.0
H179 H 0.68211 0.01297 0.87651 0.0
H180 H 0.73252 0.07264 0.96191 0.0
H181 H 0.71793 0.95119 0.97519 0.0
H182 H 0.73194 0.96712 0.94474 0.0
H183 H 0.69314 0.96919 0.95225 0.0
C184 C 0.75402 0.03107 0.88982 0.0
C185 C 0.72884 0.02407 0.87458 0.0
C186 C 0.75242 0.03195 0.91755 0.0
C187 C 0.72571 0.02562 0.93054 0.0
C188 C 0.70039 0.01909 0.91546 0.0
H189 H 0.68766 0.00662 0.09972 0.0
H190 H 0.68366 0.00915 0.05121 0.0
C191 C 0.70192 0.01833 0.88768 0.0
C192 C 0.72456 0.02574 0.95993 0.0
H193 H 0.71747 0.98051 0.01393 0.0
C194 C 0.72915 0.05255 0.97335 0.0
C195 C 0.72001 -0.00052 0.97464 0.0
C196 C 0.71567 0.97001 0.96109 0.0
C197 C 0.72936 0.05381 0.00124 0.0
C198 C 0.72556 0.02742 0.016 0.0
C199 C 0.72042 0.00069 0.00254 0.0
C200 C 0.7277 0.02683 0.0454 0.0
C201 C 0.73331 0.08344 0.01462 0.0
C202 C 0.7539 0.03566 0.05817 0.0
C203 C 0.75624 0.03436 0.08586 0.0
C204 C 0.7325 0.02388 0.10129 0.0
C205 C 0.70634 0.01484 0.08842 0.0
C206 C 0.704 0.01626 0.06072 0.0
H207 H 0.72703 0.10195 0.00119 0.0
H208 H 0.71985 0.08496 0.03305 0.0
H209 H 0.75696 0.08631 0.02008 0.0
H210 H 0.77273 0.04319 0.04668 0.0
H211 H 0.77676 0.04128 0.09513 0.0
H212 H 0.97475 0.78278 0.39192 0.0
H213 H 0.97727 0.78183 0.44055 0.0
H214 H 0.99368 0.68783 0.43866 0.0
H215 H 0.99156 0.68856 0.39004 0.0
H216 H 0.94342 0.74896 0.47742 0.0
H217 H 0.06301 0.72035 0.48295 0.0
H218 H 0.04568 0.73349 0.45277 0.0
H219 H 0.04105 0.69568 0.46305 0.0
C220 C 0.97885 0.76188 0.40183 0.0
C221 C 0.98319 0.73578 0.38711 0.0
C222 C 0.98026 0.76139 0.42961 0.0
C223 C 0.98616 0.73486 0.44312 0.0
C224 C 0.98971 0.70864 0.42855 0.0
H225 H 0.00838 0.68961 0.60983 0.0
H226 H 0.00347 0.68892 0.56134 0.0
C227 C 0.98833 0.70909 0.40078 0.0
C228 C 0.98858 0.73467 0.47248 0.0
H229 H 0.03654 0.72087 0.52359 0.0
C230 C 0.96377 0.74291 0.48756 0.0
C231 C 0.01519 0.72672 0.48556 0.0
C232 C 0.04286 0.7188 0.47031 0.0
C233 C 0.96474 0.74302 0.51547 0.0
C234 C 0.99139 0.73518 0.52854 0.0
C235 C 0.01615 0.72683 0.51346 0.0
C236 C 0.99413 0.73573 0.55787 0.0
C237 C 0.93711 0.75102 0.53074 0.0
C238 C 0.99092 0.76237 0.57189 0.0
C239 C 0.9937 0.76286 0.59958 0.0
C240 C -9e-05 0.73672 0.61372 0.0
C241 C 0.0035 0.71012 0.59955 0.0
C242 C 0.00072 0.70967 0.57186 0.0
H243 H 0.91691 0.74902 0.51822 0.0
H244 H 0.93453 0.73668 0.54854 0.0
H245 H 0.93876 0.7743 0.53757 0.0
H246 H 0.98644 0.78284 0.56138 0.0
H247 H 0.99097 0.78374 0.60987 0.0
H248 H 0.40498 0.05434 0.19425 0.0
H249 H 0.45686 0.05231 0.20791 0.0
H250 H 0.43749 0.97895 0.26001 0.0
H251 H 0.3856 0.98029 0.24591 0.0
H252 H 0.48509 0.05666 0.25696 0.0
H253 H 0.50134 0.94532 0.21171 0.0
H254 H 0.46861 0.9672 0.20562 0.0
H255 H 0.47294 0.94777 0.2366 0.0
C256 C 0.4117 0.03784 0.2087 0.0
C257 C 0.39131 0.0172 0.21871 0.0
C258 C 0.44132 0.0368 0.21656 0.0
C259 C 0.45105 0.01519 0.23464 0.0
C260 C 0.43051 -0.00461 0.24561 0.0
H261 H 0.63876 0.97324 0.25963 0.0
H262 H 0.58587 0.97688 0.27011 0.0
C263 C 0.40089 -0.00376 0.23757 0.0
C264 C 0.48301 0.01261 0.24066 0.0
H265 H 0.54305 0.9683 0.23007 0.0
C266 C 0.49775 0.0372 0.25142 0.0
C267 C 0.4994 0.98712 0.23351 0.0
C268 C 0.4849 0.9604 0.22103 0.0
C269 C 0.52866 0.03741 0.25424 0.0
C270 C 0.5451 0.01249 0.24588 0.0
C271 C 0.53025 0.98731 0.23655 0.0
C272 C 0.57764 0.01334 0.24317 0.0
C273 C 0.54354 0.06453 0.26548 0.0
C274 C 0.59043 0.03281 0.22476 0.0
C275 C 0.62042 0.03063 0.21856 0.0
C276 C 0.63818 0.00887 0.23065 0.0
C277 C 0.62563 0.99024 0.25001 0.0
C278 C 0.59548 0.9923 0.25605 0.0
H279 H 0.52824 0.07727 0.27846 0.0
H280 H 0.5636 0.05852 0.27711 0.0
H281 H 0.55038 0.07918 0.24887 0.0
H282 H 0.57689 0.04879 0.21419 0.0
H283 H 0.62946 0.04538 0.20364 0.0
H284 H 0.0232 0.3704 0.73754 0.0
H285 H 0.02534 0.42222 0.75166 0.0
H286 H 0.98616 0.44897 0.67705 0.0
H287 H 0.98325 0.39747 0.66312 0.0
H288 H 0.05594 0.46606 0.72931 0.0
H289 H 0.93769 0.49639 0.72869 0.0
H290 H 0.94996 0.45836 0.72779 0.0
H291 H 0.94758 0.47978 0.69757 0.0
C292 C 0.01469 0.38733 0.7243 0.0
C293 C 0.00301 0.37988 0.69922 0.0
C294 C 0.0159 0.41688 0.73242 0.0
C295 C 0.00538 0.43938 0.71563 0.0
C296 C 0.99357 0.43192 0.69067 0.0
H297 H 0.06055 0.61054 0.68038 0.0
H298 H 0.05614 0.55809 0.69069 0.0
C299 C 0.99217 0.40245 0.68262 0.0
C300 C 0.00894 0.47088 0.72289 0.0
H301 H 0.97236 0.53681 0.72116 0.0
C302 C 0.03757 0.48149 0.72814 0.0
C303 C 0.9849 0.49094 0.72211 0.0
C304 C 0.95329 0.48068 0.71904 0.0
C305 C 0.04312 0.5119 0.7304 0.0
C306 C 0.01955 0.53211 0.72658 0.0
C307 C 0.99057 0.52136 0.72359 0.0
C308 C 0.02468 0.56417 0.72276 0.0
C309 C 0.07429 0.52202 0.73623 0.0
C310 C 0.0081 0.58508 0.73705 0.0
C311 C 0.01014 0.61514 0.7308 0.0
C312 C 0.02882 0.62474 0.71016 0.0
C313 C 0.0461 0.60387 0.69648 0.0
C314 C 0.04382 0.57385 0.70255 0.0
H315 H 0.08628 0.50544 0.74855 0.0
H316 H 0.08657 0.52438 0.71724 0.0
H317 H 0.07454 0.54361 0.74677 0.0
H318 H 0.99304 0.57807 0.75258 0.0
H319 H -0.00337 0.63075 0.74176 0.0
H320 H 0.63227 0.98027 0.7477 0.0
H321 H 0.58101 0.97154 0.73397 0.0
H322 H 0.55639 0.05761 0.76386 0.0
H323 H 0.60752 0.06682 0.77687 0.0
H324 H 0.53637 0.96728 0.76689 0.0
H325 H 0.51012 0.05649 0.69594 0.0
H326 H 0.54776 0.04732 0.705 0.0
H327 H 0.52612 0.07199 0.72544 0.0
C328 C 0.61601 -0.00244 0.75088 0.0
C329 C 0.62387 0.02418 0.76351 0.0
C330 C 0.58678 0.99257 0.74293 0.0
C331 C 0.56494 0.0141 0.74748 0.0
C332 C 0.57297 0.04102 0.75939 0.0
H333 H 0.3952 0.00592 0.80703 0.0
H334 H 0.44742 0.00494 0.79522 0.0
C335 C 0.6022 0.04613 0.76711 0.0
C336 C 0.53323 0.00712 0.74335 0.0
H337 H 0.46826 0.03781 0.72217 0.0
C338 C 0.52159 0.9823 0.75648 0.0
C339 C 0.51392 0.0263 0.72935 0.0
C340 C 0.52524 0.0518 0.7129 0.0
C341 C 0.491 0.97766 0.75798 0.0
C342 C 0.47162 -0.00129 0.74656 0.0
C343 C 0.48322 0.02202 0.73137 0.0
C344 C 0.43975 -0.00108 0.75304 0.0
C345 C 0.47965 0.95091 0.77276 0.0
C346 C 0.41812 -0.00328 0.73307 0.0
C347 C 0.38804 -0.00258 0.73976 0.0
C348 C 0.37929 0.00062 0.76648 0.0
C349 C 0.40113 0.00326 0.78628 0.0
C350 C 0.43102 0.0025 0.7796 0.0
H351 H 0.496 0.93252 0.77226 0.0
H352 H 0.47593 0.95686 0.79392 0.0
H353 H 0.45839 0.94297 0.76424 0.0
H354 H 0.42452 0.99427 0.71242 0.0
H355 H 0.37171 -0.00455 0.72406 0.0
H356 H 0.06345 0.40379 0.29614 0.0
H357 H 0.05369 0.455 0.28331 0.0
H358 H 0.97597 0.42732 0.24 0.0
H359 H 0.98517 0.37599 0.25324 0.0
H360 H 0.04733 0.48314 0.23395 0.0
H361 H 0.94312 0.48726 0.29311 0.0
H362 H 0.9694 0.45738 0.29626 0.0
H363 H 0.94499 0.45902 0.26803 0.0
C364 C 0.04437 0.40852 0.28375 0.0
C365 C 0.02486 0.38591 0.27601 0.0
C366 C 0.03889 0.43779 0.27637 0.0
C367 C 0.01387 0.44494 0.26108 0.0
C368 C -0.00492 0.42228 0.25226 0.0
H369 H 0.94855 0.62672 0.24079 0.0
H370 H 0.95548 0.57388 0.23159 0.0
C371 C 0.00043 0.39298 0.25978 0.0
C372 C 0.00686 0.47635 0.25578 0.0
H373 H 0.95833 0.53118 0.27249 0.0
C374 C 0.02769 0.49362 0.24207 0.0
C375 C 0.98113 0.48987 0.26631 0.0
C376 C 0.95843 0.47257 0.28193 0.0
C377 C 0.02399 0.52429 0.23946 0.0
C378 C -0.00098 0.53795 0.25111 0.0
C379 C 0.97741 0.52052 0.26355 0.0
C380 C -0.00343 0.57042 0.25358 0.0
C381 C 0.04716 0.54194 0.2248 0.0
C382 C 0.01741 0.58582 0.26894 0.0
C383 C 0.01342 0.61579 0.2744 0.0
C384 C 0.98845 0.63092 0.26464 0.0
C385 C 0.96803 0.61566 0.24856 0.0
C386 C 0.97195 0.58554 0.24325 0.0
H387 H 0.05935 0.52797 0.21027 0.0
H388 H 0.03707 0.56096 0.2141 0.0
H389 H 0.06347 0.55069 0.23934 0.0
H390 H 0.03621 0.57438 0.27757 0.0
H391 H 0.02959 0.62691 0.2868 0.0
H392 H 0.11352 0.23563 0.32994 0.0
H393 H 0.15322 0.20431 0.31259 0.0
H394 H 0.13197 0.23188 0.23265 0.0
H395 H 0.09217 0.26331 0.24974 0.0
H396 H 0.1397 0.15787 0.27437 0.0
H397 H 0.22461 0.23704 0.23758 0.0
H398 H 0.19747 0.24696 0.26245 0.0
H399 H 0.18686 0.24442 0.2281 0.0
C400 C 0.11758 0.23546 0.30871 0.0
C401 C 0.09957 0.25179 0.29119 0.0
C402 C 0.14029 0.21758 0.29886 0.0
C403 C 0.14558 0.21603 0.27141 0.0
C404 C 0.12845 0.23317 0.25394 0.0
H405 H 0.25234 0.1026 0.17087 0.0
H406 H 0.22154 0.1424 0.18902 0.0
C407 C 0.10563 0.25095 0.26374 0.0
C408 C 0.16674 0.19407 0.2609 0.0
H409 H 0.23164 0.18641 0.22685 0.0
C410 C 0.15993 0.16404 0.26414 0.0
C411 C 0.1928 0.20238 0.2473 0.0
C412 C 0.20113 0.23444 0.24373 0.0
C413 C 0.17835 0.14193 0.25381 0.0
C414 C 0.20471 0.15014 0.24052 0.0
C415 C 0.21149 0.18023 0.23718 0.0
C416 C 0.2253 0.12763 0.22986 0.0
C417 C 0.16895 0.11001 0.2566 0.0
C418 C 0.23824 0.10672 0.24693 0.0
C419 C 0.25552 0.08385 0.23664 0.0
C420 C 0.26055 0.08175 0.2091 0.0
C421 C 0.24875 0.10357 0.19216 0.0
C422 C 0.23121 0.12633 0.20248 0.0
H423 H 0.14481 0.10803 0.26048 0.0
H424 H 0.17436 0.09717 0.23841 0.0
H425 H 0.18087 0.09988 0.27366 0.0
H426 H 0.23451 0.10779 0.26821 0.0
H427 H 0.26464 0.06762 0.25026 0.0
H428 H 0.95241 0.2328 0.73405 0.0
H429 H 0.91031 0.2028 0.7481 0.0
H430 H 0.85795 0.23811 0.6836 0.0
H431 H 0.89988 0.26872 0.66961 0.0
H432 H 0.82712 0.23481 0.73185 0.0
H433 H 0.88318 0.12886 0.70813 0.0
H434 H 0.9042 0.15189 0.73026 0.0
H435 H 0.89695 0.16416 0.6968 0.0
C436 C 0.93194 0.23427 0.72286 0.0
C437 C 0.92956 0.25292 0.70056 0.0
C438 C 0.90795 0.21703 0.73086 0.0
C439 C 0.88126 0.21786 0.71657 0.0
C440 C 0.87847 0.23707 0.69477 0.0
H441 H 0.75126 0.07831 0.73575 0.0
H442 H 0.78415 0.11549 0.71661 0.0
C443 C 0.90245 0.25448 0.6868 0.0
C444 C 0.85652 0.19824 0.72419 0.0
H445 H 0.839 0.12568 0.73374 0.0
C446 C 0.82954 0.21092 0.73208 0.0
C447 C 0.85965 0.16711 0.72398 0.0
C448 C 0.88745 0.15215 0.71408 0.0
C449 C 0.80584 0.19323 0.74065 0.0
C450 C 0.80955 0.16217 0.74175 0.0
C451 C 0.83625 0.14952 0.73308 0.0
C452 C 0.78648 0.14214 0.75234 0.0
C453 C 0.77706 0.20795 0.74824 0.0
C454 C 0.77648 0.14505 0.77865 0.0
C455 C 0.75744 0.12394 0.78959 0.0
C456 C 0.74852 0.09933 0.7745 0.0
C457 C 0.75787 0.09695 0.74792 0.0
C458 C 0.77663 0.11819 0.73694 0.0
H459 H 0.7747 0.22996 0.73858 0.0
H460 H 0.75776 0.19406 0.74264 0.0
H461 H 0.77663 0.21137 0.7701 0.0
H462 H 0.78435 0.16295 0.7911 0.0
H463 H 0.75076 0.12626 0.81018 0.0
H464 H 0.87336 0.73766 0.31497 0.0
H465 H 0.83437 0.7684 0.29508 0.0
H466 H 0.89348 0.79233 0.23125 0.0
H467 H 0.93227 0.76167 0.2507 0.0
H468 H 0.83941 0.829 0.28705 0.0
H469 H 0.81719 0.77254 0.19148 0.0
H470 H 0.83584 0.75452 0.21891 0.0
H471 H 0.856 0.7786 0.19689 0.0
C472 C 0.87786 0.74909 0.29647 0.0
C473 C 0.90592 0.74729 0.28444 0.0
C474 C 0.85558 0.7666 0.28515 0.0
C475 C 0.86092 0.78222 0.26149 0.0
C476 C 0.88867 0.77989 0.24917 0.0
H477 H 0.80537 0.9284 0.17048 0.0
H478 H 0.82655 0.88333 0.18951 0.0
C479 C 0.91092 0.76255 0.26047 0.0
C480 C 0.83885 0.80341 0.25093 0.0
H481 H 0.80389 0.82427 0.19365 0.0
C482 C 0.83105 0.8277 0.26683 0.0
C483 C 0.82807 0.80158 0.22455 0.0
C484 C 0.83447 0.77523 0.20706 0.0
C485 C 0.81432 0.85121 0.25648 0.0
C486 C 0.8048 0.85006 0.22967 0.0
C487 C 0.81136 0.8251 0.21417 0.0
C488 C 0.79031 0.87568 0.21678 0.0
C489 C 0.80846 0.87785 0.27382 0.0
C490 C 0.7626 0.88585 0.22542 0.0
C491 C 0.75046 0.91169 0.21467 0.0
C492 C 0.76583 0.92767 0.19501 0.0
C493 C 0.79304 0.91671 0.18568 0.0
C494 C 0.80514 0.89092 0.19646 0.0
H495 H 0.82184 0.87745 0.2924 0.0
H496 H 0.81341 0.89862 0.26287 0.0
H497 H 0.78471 0.87828 0.27946 0.0
H498 H 0.75063 0.8741 0.24082 0.0
H499 H 0.72935 0.91944 0.22215 0.0
H500 H 0.07585 0.76197 0.74358 0.0
H501 H 0.11543 0.79405 0.75973 0.0
H502 H 0.15773 0.7903 0.68291 0.0
H503 H 0.11835 0.75772 0.66657 0.0
H504 H 0.19744 0.78545 0.72683 0.0
H505 H 0.12107 0.88116 0.73651 0.0
H506 H 0.10894 0.84867 0.75393 0.0
H507 H 0.11142 0.84818 0.71822 0.0
C508 C 0.09363 0.76781 0.73011 0.0
C509 C 0.0938 0.75757 0.70369 0.0
C510 C 0.11617 0.7862 0.73937 0.0
C511 C 0.13913 0.79492 0.72235 0.0
C512 C 0.14005 0.78389 0.69627 0.0
H513 H 0.24871 0.94804 0.75359 0.0
H514 H 0.21737 0.91064 0.7328 0.0
C515 C 0.11752 0.76535 0.68698 0.0
C516 C 0.16154 0.8164 0.73159 0.0
H517 H 0.16891 0.88657 0.75552 0.0
C518 C 0.19133 0.80763 0.73298 0.0
C519 C 0.15345 0.84542 0.73917 0.0
C520 C 0.12203 0.85659 0.73667 0.0
C521 C 0.21323 0.82702 0.74245 0.0
C522 C 0.2049 0.85563 0.75108 0.0
C523 C 0.1752 0.86453 0.74909 0.0
C524 C 0.22642 0.87691 0.76232 0.0
C525 C 0.24506 0.81683 0.74286 0.0
C526 C 0.24211 0.87025 0.78571 0.0
C527 C 0.2602 0.89158 0.79761 0.0
C528 C 0.26255 0.92002 0.78647 0.0
C529 C 0.24725 0.92639 0.76275 0.0
C530 C 0.22937 0.90503 0.75081 0.0
H531 H 0.24879 0.79813 0.72891 0.0
H532 H 0.2603 0.83517 0.73755 0.0
H533 H 0.25077 0.80911 0.7632 0.0
H534 H 0.23962 0.8489 0.79524 0.0
H535 H 0.27161 0.88606 0.81593 0.0
H536 H 0.75064 0.92385 0.77655 0.0
H537 H 0.78382 0.88168 0.76972 0.0
H538 H 0.85874 0.94075 0.7674 0.0
H539 H 0.82582 0.98303 0.77379 0.0
H540 H 0.85818 0.90034 0.72623 0.0
H541 H 0.84118 0.84474 0.82368 0.0
H542 H 0.8078 0.85224 0.80535 0.0
H543 H 0.82985 0.88246 0.81748 0.0
C544 C 0.77419 0.92786 0.77465 0.0
C545 C 0.78561 0.95678 0.77574 0.0
C546 C 0.79311 0.90372 0.77093 0.0
C547 C 0.82374 0.90811 0.76847 0.0
C548 C 0.83516 0.93693 0.7694 0.0
H549 H 0.97035 0.78587 0.77484 0.0
H550 H 0.93215 0.82286 0.7842 0.0
C551 C 0.8163 0.96105 0.77303 0.0
C552 C 0.84395 0.88285 0.76397 0.0
H553 H 0.87012 0.81902 0.79181 0.0
C554 C 0.86079 0.88253 0.74054 0.0
C555 C 0.84744 0.85987 0.78284 0.0
C556 C 0.83083 0.85984 0.80888 0.0
C557 C 0.88109 0.85978 0.73541 0.0
C558 C 0.88415 0.83646 0.754 0.0
C559 C 0.86741 0.83681 0.7775 0.0
C560 C 0.90551 0.81215 0.74971 0.0
C561 C 0.89961 0.86131 0.71045 0.0
C562 C 0.9026 0.79333 0.72769 0.0
C563 C 0.92441 0.77231 0.72221 0.0
C564 C 0.94939 0.7696 0.7388 0.0
C565 C 0.95145 0.78749 0.76161 0.0
C566 C 0.92965 0.8086 0.76702 0.0
H567 H 0.89964 0.88389 0.70167 0.0
H568 H 0.92286 0.85468 0.71457 0.0
H569 H 0.89041 0.84587 0.69541 0.0
H570 H 0.88379 0.79538 0.71441 0.0
H571 H 0.92201 0.75867 0.70462 0.0
H572 H 0.23049 0.95983 0.27952 0.0
H573 H 0.19308 0.92242 0.28953 0.0
H574 H 0.2187 0.87332 0.21964 0.0
H575 H 0.25582 0.91086 0.2092 0.0
H576 H 0.15922 0.88353 0.22198 0.0
H577 H 0.19923 0.83831 0.3181 0.0
H578 H 0.1961 0.87791 0.31803 0.0
H579 H 0.22241 0.86017 0.29642 0.0
C580 C 0.22849 0.94085 0.2665 0.0
C581 C 0.24605 0.93836 0.24352 0.0
C582 C 0.20722 0.91939 0.27234 0.0
C583 C 0.20338 0.89494 0.25549 0.0
C584 C 0.22143 0.89198 0.23295 0.0
H585 H 0.08343 0.74795 0.28773 0.0
H586 H 0.12725 0.77799 0.27823 0.0
C587 C 0.24262 0.91346 0.22703 0.0
C588 C 0.1789 0.87384 0.2601 0.0
H589 H 0.14915 0.82702 0.30616 0.0
C590 C 0.15716 0.87095 0.24028 0.0
C591 C 0.17645 0.85725 0.28386 0.0
C592 C 0.19994 0.85829 0.30522 0.0
C593 C 0.13254 0.85254 0.2439 0.0
C594 C 0.12935 0.83707 0.26818 0.0
C595 C 0.15153 0.83921 0.28768 0.0
C596 C 0.10287 0.81895 0.27386 0.0
C597 C 0.11021 0.84975 0.22166 0.0
C598 C 0.07477 0.83216 0.27482 0.0
C599 C 0.04972 0.81511 0.28016 0.0
C600 C 0.05237 0.78455 0.28482 0.0
C601 C 0.08063 0.77143 0.28413 0.0
C602 C 0.10569 0.78853 0.27876 0.0
H603 H 0.11983 0.85623 0.20216 0.0
H604 H 0.10173 0.82676 0.22014 0.0
H605 H 0.09118 0.86463 0.22573 0.0
H606 H 0.07224 0.85574 0.27161 0.0
H607 H 0.02831 0.82594 0.28073 0.0
H608 H 0.08499 0.27325 0.77709 0.0
H609 H 0.12675 0.2447 0.79475 0.0
H610 H 0.13753 0.20211 0.71857 0.0
H611 H 0.09625 0.23076 0.70065 0.0
H612 H 0.1301 0.1842 0.79839 0.0
H613 H 0.22191 0.2265 0.73625 0.0
H614 H 0.18674 0.24535 0.73888 0.0
H615 H 0.19095 0.21435 0.71671 0.0
C616 C 0.09647 0.25804 0.76401 0.0
C617 C 0.08733 0.25429 0.73745 0.0
C618 C 0.12032 0.24179 0.77413 0.0
C619 C 0.13553 0.22169 0.75784 0.0
C620 C 0.12658 0.21806 0.7313 0.0
H621 H 0.25084 0.07457 0.76781 0.0
H622 H 0.21873 0.11607 0.756 0.0
C623 C 0.1028 0.23429 0.72115 0.0
C624 C 0.1593 0.20281 0.76897 0.0
H625 H 0.23031 0.17984 0.75815 0.0
C626 C 0.15219 0.18359 0.78995 0.0
C627 C 0.18809 0.20216 0.75791 0.0
C628 C 0.1975 0.22342 0.73637 0.0
C629 C 0.17265 0.16261 0.79924 0.0
C630 C 0.20098 0.16112 0.78739 0.0
C631 C 0.20849 0.18105 0.7671 0.0
C632 C 0.2222 0.13746 0.79436 0.0
C633 C 0.16336 0.14122 0.82075 0.0
C634 C 0.23521 0.13618 0.8197 0.0
C635 C 0.25364 0.11247 0.82655 0.0
C636 C 0.25924 0.08971 0.80814 0.0
C637 C 0.24684 0.09164 0.78251 0.0
C638 C 0.22856 0.11536 0.77568 0.0
H639 H 0.13922 0.14239 0.82489 0.0
H640 H 0.16908 0.11818 0.81502 0.0
H641 H 0.17544 0.14646 0.8394 0.0
H642 H 0.23076 0.15328 0.83426 0.0
H643 H 0.26294 0.11167 0.84641 0.0
H644 H 0.97304 0.18812 0.31906 0.0
H645 H 0.93489 0.15237 0.30635 0.0
H646 H 0.9021 0.21296 0.24687 0.0
H647 H 0.94018 0.24885 0.25933 0.0
H648 H 0.87109 0.16151 0.30555 0.0
H649 H 0.91779 0.13409 0.20622 0.0
H650 H 0.93933 0.15173 0.23204 0.0
H651 H 0.91313 0.17288 0.21296 0.0
C652 C 0.95776 0.19384 0.30324 0.0
C653 C 0.95972 0.22126 0.2901 0.0
C654 C 0.93598 0.17341 0.29606 0.0
C655 C 0.916 0.17996 0.2755 0.0
C656 C 0.91765 0.20739 0.26253 0.0
H657 H 0.77317 0.087 0.19776 0.0
H658 H 0.81033 0.12268 0.21252 0.0
C659 C 0.93934 0.22789 0.26976 0.0
C660 C 0.89321 0.1582 0.26775 0.0
H661 H 0.87062 0.11434 0.2164 0.0
C662 C 0.87098 0.15105 0.28612 0.0
C663 C 0.89326 0.14474 0.24238 0.0
C664 C 0.91725 0.15099 0.22227 0.0
C665 C 0.84827 0.13117 0.27955 0.0
C666 C 0.84829 0.1177 0.25414 0.0
C667 C 0.87067 0.12476 0.23584 0.0
C668 C 0.8252 0.09635 0.24596 0.0
C669 C 0.82409 0.12535 0.29958 0.0
C670 C 0.8214 0.06966 0.25981 0.0
C671 C 0.80007 0.04926 0.25151 0.0
C672 C 0.78241 0.05511 0.22904 0.0
C673 C 0.78638 0.08184 0.21517 0.0
C674 C 0.80761 0.10225 0.22355 0.0
H675 H 0.82298 0.14303 0.31491 0.0
H676 H 0.80216 0.12364 0.28968 0.0
H677 H 0.82864 0.1041 0.30988 0.0
H678 H 0.83522 0.0644 0.27681 0.0
H679 H 0.7977 0.02878 0.26251 0.0
loop_
_geom_bond_atom_site_label_1
_geom_bond_atom_site_label_2
_geom_bond_distance
_geom_bond_site_symmetry_2
_ccdc_geom_bond_type
C0 O1 1.160 . S
C0 O7 1.185 . S
O1 C0 1.160 . S
O2 Zn3 1.899 . S
O2 C10 1.284 . S
Zn3 O2 1.899 . S
Zn3 O4 2.032 . S
Zn3 O7 2.086 . S
Zn3 O12 1.977 1_545 S
O4 Zn3 2.032 . S
O4 C8 1.278 . S
C5 O6 1.203 . S
C5 O12 1.267 . S
O6 C5 1.203 . S
O7 C0 1.185 . S
O7 Zn3 2.086 . S
C8 O4 1.278 . S
C8 O9 1.206 1_545 S
O9 C8 1.206 1_565 S
C10 O2 1.284 . S
C10 O11 1.273 . S
O11 C10 1.273 . S
O12 Zn3 1.977 1_565 S
O12 C5 1.267 . S
C13 O14 1.160 1_455 S
C13 O20 1.185 . S
O14 C13 1.160 1_655 S
O15 Zn16 1.899 1_655 S
O15 C23 1.284 . S
Zn16 O15 1.899 1_455 S
Zn16 O17 2.032 . S
Zn16 O20 2.086 . S
Zn16 O25 1.977 . S
O17 Zn16 2.032 . S
O17 C21 1.278 . S
C18 O19 1.203 . S
C18 O25 1.267 . S
O19 C18 1.203 . S
O20 C13 1.185 . S
O20 Zn16 2.086 . S
C21 O17 1.278 . S
C21 O22 1.211 . S
O22 C21 1.211 . S
C23 O15 1.284 . S
C23 O24 1.273 . S
O24 C23 1.273 . S
O25 Zn16 1.977 . S
O25 C18 1.267 . S
C26 O27 1.160 1_545 S
C26 O33 1.185 . S
O27 C26 1.160 1_565 S
O28 Zn29 1.899 1_565 S
O28 C36 1.284 . S
Zn29 O28 1.899 1_545 S
Zn29 O30 2.032 . S
Zn29 O33 2.086 . S
Zn29 O38 1.977 . S
O30 Zn29 2.032 . S
O30 C34 1.278 . S
C31 O32 1.203 . S
C31 O38 1.267 . S
O32 C31 1.203 . S
O33 C26 1.185 . S
O33 Zn29 2.086 . S
C34 O30 1.278 . S
C34 O35 1.211 . S
O35 C34 1.211 . S
C36 O28 1.284 . S
C36 O37 1.273 . S
O37 C36 1.273 . S
O38 Zn29 1.977 . S
O38 C31 1.267 . S
C39 O40 1.160 . S
C39 O46 1.185 . S
O40 C39 1.160 . S
O41 Zn42 1.899 . S
O41 C49 1.284 . S
Zn42 O41 1.899 . S
Zn42 O43 2.032 . S
Zn42 O46 2.086 . S
Zn42 O51 1.977 1_455 S
O43 Zn42 2.032 . S
O43 C47 1.278 . S
C44 O45 1.203 . S
C44 O51 1.267 . S
O45 C44 1.203 . S
O46 C39 1.185 . S
O46 Zn42 2.086 . S
C47 O43 1.278 . S
C47 O48 1.206 1_455 S
O48 C47 1.206 1_655 S
C49 O41 1.284 . S
C49 O50 1.273 . S
O50 C49 1.273 . S
O51 Zn42 1.977 1_655 S
O51 C44 1.267 . S
C52 O53 1.160 1_545 S
C52 O59 1.185 . S
O53 C52 1.160 1_565 S
O54 Zn55 1.899 1_565 S
O54 C62 1.284 . S
Zn55 O54 1.899 1_545 S
Zn55 O56 2.032 . S
Zn55 O59 2.086 . S
Zn55 O64 1.977 . S
O56 Zn55 2.032 . S
O56 C60 1.278 . S
C57 O58 1.203 . S
C57 O64 1.267 . S
O58 C57 1.203 . S
O59 C52 1.185 . S
O59 Zn55 2.086 . S
C60 O56 1.278 . S
C60 O61 1.211 . S
O61 C60 1.211 . S
C62 O54 1.284 . S
C62 O63 1.273 . S
O63 C62 1.273 . S
O64 Zn55 1.977 . S
O64 C57 1.267 . S
C65 O66 1.160 . S
C65 O72 1.185 . S
O66 C65 1.160 . S
O67 Zn68 1.899 . S
O67 C75 1.284 . S
Zn68 O67 1.899 . S
Zn68 O69 2.032 . S
Zn68 O72 2.086 . S
Zn68 O77 1.977 1_455 S
O69 Zn68 2.032 . S
O69 C73 1.278 . S
C70 O71 1.203 . S
C70 O77 1.267 . S
O71 C70 1.203 . S
O72 C65 1.185 . S
O72 Zn68 2.086 . S
C73 O69 1.278 . S
C73 O74 1.206 1_455 S
O74 C73 1.206 1_655 S
C75 O67 1.284 . S
C75 O76 1.273 . S
O76 C75 1.273 . S
O77 Zn68 1.977 1_655 S
O77 C70 1.267 . S
C78 O79 1.160 . S
C78 O85 1.185 . S
O79 C78 1.160 . S
O80 Zn81 1.899 . S
O80 C88 1.284 . S
Zn81 O80 1.899 . S
Zn81 O82 2.032 . S
Zn81 O85 2.086 . S
Zn81 O90 1.977 1_545 S
O82 Zn81 2.032 . S
O82 C86 1.278 . S
C83 O84 1.203 . S
C83 O90 1.267 . S
O84 C83 1.203 . S
O85 C78 1.185 . S
O85 Zn81 2.086 . S
C86 O82 1.278 . S
C86 O87 1.206 1_545 S
O87 C86 1.206 1_565 S
C88 O80 1.284 . S
C88 O89 1.273 . S
O89 C88 1.273 . S
O90 Zn81 1.977 1_565 S
O90 C83 1.267 . S
C91 O92 1.160 1_455 S
C91 O98 1.185 . S
O92 C91 1.160 1_655 S
O93 Zn94 1.899 1_655 S
O93 C101 1.284 . S
Zn94 O93 1.899 1_455 S
Zn94 O95 2.032 . S
Zn94 O98 2.086 . S
Zn94 O103 1.977 . S
O95 Zn94 2.032 . S
O95 C99 1.278 . S
C96 O97 1.203 . S
C96 O103 1.267 . S
O97 C96 1.203 . S
O98 C91 1.185 . S
O98 Zn94 2.086 . S
C99 O95 1.278 . S
C99 O100 1.211 . S
O100 C99 1.211 . S
C101 O93 1.284 . S
C101 O102 1.273 . S
O102 C101 1.273 . S
O103 Zn94 1.977 . S
O103 C96 1.267 . S
H104 C112 0.929 . S
H105 C114 0.930 . S
H106 C116 0.930 . S
H107 C119 0.929 . S
H108 C122 0.930 . S
H109 C124 0.960 . S
H110 C124 0.960 . S
H111 C124 0.960 . S
C112 H104 0.929 . S
C112 C113 1.377 . S
C112 C114 1.384 . S
C113 C112 1.377 . S
C113 C119 1.390 1_545 S
C114 H105 0.930 . S
C114 C112 1.384 . S
C114 C115 1.372 . S
C115 C114 1.372 . S
C115 C116 1.400 1_545 S
C115 C120 1.490 . S
C116 H106 0.930 . S
C116 C115 1.400 1_565 S
C116 C119 1.386 . S
H117 C133 0.930 . S
H118 C134 0.931 . S
C119 H107 0.929 . S
C119 C113 1.390 1_565 S
C119 C116 1.386 . S
C120 C115 1.490 . S
C120 C122 1.395 . S
C120 C123 1.403 . S
H121 C127 0.930 . S
C122 H108 0.930 . S
C122 C120 1.395 . S
C122 C125 1.403 1_554 S
C123 C120 1.403 . S
C123 C124 1.524 . S
C123 C127 1.400 1_554 S
C124 H109 0.960 . S
C124 H110 0.960 . S
C124 H111 0.960 . S
C124 C123 1.524 . S
C125 C122 1.403 1_556 S
C125 C126 1.392 . S
C125 C129 1.495 1_545 S
C126 C125 1.392 . S
C126 C127 1.385 . S
C126 C128 1.478 . S
C127 H121 0.930 . S
C127 C123 1.400 1_556 S
C127 C126 1.385 . S
C128 C126 1.478 . S
C128 C130 1.381 . S
C128 C134 1.383 1_545 S
C129 C125 1.495 1_565 S
C129 H135 0.959 . S
C129 H136 0.961 . S
C129 H137 0.960 1_565 S
C130 C128 1.381 . S
C130 C131 1.394 . S
C130 H138 0.930 . S
C131 C130 1.394 . S
C131 C132 1.383 . S
C131 H139 0.929 . S
C132 C131 1.383 . S
C132 C133 1.377 1_545 S
C133 H117 0.930 . S
C133 C132 1.377 1_565 S
C133 C134 1.379 . S
C134 H118 0.931 . S
C134 C128 1.383 1_565 S
C134 C133 1.379 . S
H135 C129 0.959 . S
H136 C129 0.961 . S
H137 C129 0.960 1_545 S
H138 C130 0.930 . S
H139 C131 0.929 . S
H140 C148 0.929 . S
H141 C150 0.930 . S
H142 C152 0.930 . S
H143 C155 0.929 . S
H144 C158 0.930 . S
H145 C160 0.960 . S
H146 C160 0.960 . S
H147 C160 0.960 . S
C148 H140 0.929 . S
C148 C149 1.377 . S
C148 C150 1.384 . S
C149 C148 1.377 . S
C149 C155 1.390 1_455 S
C150 H141 0.930 . S
C150 C148 1.384 . S
C150 C151 1.372 . S
C151 C150 1.372 . S
C151 C152 1.400 1_455 S
C151 C156 1.490 . S
C152 H142 0.930 . S
C152 C151 1.400 1_655 S
C152 C155 1.386 . S
H153 C169 0.930 . S
H154 C170 0.931 . S
C155 H143 0.929 . S
C155 C149 1.390 1_655 S
C155 C152 1.386 . S
C156 C151 1.490 . S
C156 C158 1.395 . S
C156 C159 1.403 1_455 S
H157 C163 0.930 . S
C158 H144 0.930 . S
C158 C156 1.395 . S
C158 C161 1.403 . S
C159 C156 1.403 1_655 S
C159 C160 1.524 . S
C159 C163 1.400 . S
C160 H145 0.960 . S
C160 H146 0.960 . S
C160 H147 0.960 . S
C160 C159 1.524 . S
C161 C158 1.403 . S
C161 C162 1.392 . S
C161 C165 1.495 . S
C162 C161 1.392 . S
C162 C163 1.385 1_455 S
C162 C164 1.478 . S
C163 H157 0.930 . S
C163 C159 1.400 . S
C163 C162 1.385 1_655 S
C164 C162 1.478 . S
C164 C166 1.381 . S
C164 C170 1.383 1_455 S
C165 C161 1.495 . S
C165 H171 0.959 . S
C165 H172 0.961 . S
C165 H173 0.960 . S
C166 C164 1.381 . S
C166 C167 1.394 . S
C166 H174 0.930 . S
C167 C166 1.394 . S
C167 C168 1.383 . S
C167 H175 0.929 . S
C168 C167 1.383 . S
C168 C169 1.377 1_455 S
C169 H153 0.930 . S
C169 C168 1.377 1_655 S
C169 C170 1.379 . S
C170 H154 0.931 . S
C170 C164 1.383 1_655 S
C170 C169 1.379 . S
H171 C165 0.959 . S
H172 C165 0.961 . S
H173 C165 0.960 . S
H174 C166 0.930 . S
H175 C167 0.929 . S
H176 C184 0.929 . S
H177 C186 0.930 . S
H178 C188 0.930 . S
H179 C191 0.929 . S
H180 C194 0.930 . S
H181 C196 0.960 . S
H182 C196 0.960 . S
H183 C196 0.960 . S
C184 H176 0.929 . S
C184 C185 1.377 . S
C184 C186 1.384 . S
C185 C184 1.377 . S
C185 C191 1.390 1_545 S
C186 H177 0.930 . S
C186 C184 1.384 . S
C186 C187 1.372 . S
C187 C186 1.372 . S
C187 C188 1.400 1_545 S
C187 C192 1.490 . S
C188 H178 0.930 . S
C188 C187 1.400 1_565 S
C188 C191 1.386 . S
H189 C205 0.930 . S
H190 C206 0.930 . S
C191 H179 0.929 . S
C191 C185 1.390 1_565 S
C191 C188 1.386 . S
C192 C187 1.490 . S
C192 C194 1.395 . S
C192 C195 1.403 1_545 S
H193 C199 0.930 . S
C194 H180 0.930 . S
C194 C192 1.395 . S
C194 C197 1.403 1_556 S
C195 C192 1.403 1_565 S
C195 C196 1.524 . S
C195 C199 1.400 1_556 S
C196 H181 0.960 . S
C196 H182 0.960 . S
C196 H183 0.960 . S
C196 C195 1.524 . S
C197 C194 1.403 1_554 S
C197 C198 1.392 . S
C197 C201 1.495 . S
C198 C197 1.392 . S
C198 C199 1.385 1_545 S
C198 C200 1.478 . S
C199 H193 0.930 . S
C199 C195 1.400 1_554 S
C199 C198 1.385 1_565 S
C200 C198 1.478 . S
C200 C202 1.381 . S
C200 C206 1.384 1_545 S
C201 C197 1.495 . S
C201 H207 0.959 . S
C201 H208 0.961 . S
C201 H209 0.960 . S
C202 C200 1.381 . S
C202 C203 1.394 . S
C202 H210 0.930 . S
C203 C202 1.394 . S
C203 C204 1.383 . S
C203 H211 0.929 . S
C204 C203 1.383 . S
C204 C205 1.377 1_545 S
C205 H189 0.930 . S
C205 C204 1.377 1_565 S
C205 C206 1.379 . S
C206 H190 0.930 . S
C206 C200 1.384 1_565 S
C206 C205 1.379 . S
H207 C201 0.959 . S
H208 C201 0.961 . S
H209 C201 0.960 . S
H210 C202 0.930 . S
H211 C203 0.929 . S
H212 C220 0.929 . S
H213 C222 0.930 . S
H214 C224 0.930 . S
H215 C227 0.929 . S
H216 C230 0.930 . S
H217 C232 0.960 . S
H218 C232 0.960 . S
H219 C232 0.960 . S
C220 H212 0.929 . S
C220 C221 1.377 . S
C220 C222 1.384 . S
C221 C220 1.377 . S
C221 C227 1.390 . S
C222 H213 0.930 . S
C222 C220 1.384 . S
C222 C223 1.372 . S
C223 C222 1.372 . S
C223 C224 1.400 . S
C223 C228 1.490 . S
C224 H214 0.930 . S
C224 C223 1.400 . S
C224 C227 1.386 . S
H225 C241 0.930 . S
H226 C242 0.938 . S
C227 H215 0.929 . S
C227 C221 1.390 . S
C227 C224 1.386 . S
C228 C223 1.490 . S
C228 C230 1.395 1_455 S
C228 C231 1.403 . S
H229 C235 0.930 . S
C230 H216 0.930 . S
C230 C228 1.395 1_655 S
C230 C233 1.403 . S
C231 C228 1.403 . S
C231 C232 1.524 . S
C231 C235 1.400 . S
C232 H217 0.960 . S
C232 H218 0.960 . S
C232 H219 0.960 . S
C232 C231 1.524 . S
C233 C230 1.403 . S
C233 C234 1.392 1_655 S
C233 C237 1.495 . S
C234 C233 1.392 1_455 S
C234 C235 1.385 . S
C234 C236 1.478 . S
C235 H229 0.930 . S
C235 C231 1.400 . S
C235 C234 1.385 . S
C236 C234 1.478 . S
C236 C238 1.381 . S
C236 C242 1.383 . S
C237 C233 1.495 . S
C237 H243 0.959 . S
C237 H244 0.961 . S
C237 H245 0.960 . S
C238 C236 1.381 . S
C238 C239 1.394 . S
C238 H246 0.930 . S
C239 C238 1.394 . S
C239 C240 1.383 . S
C239 H247 0.929 . S
C240 C239 1.383 . S
C240 C241 1.377 . S
C241 H225 0.930 . S
C241 C240 1.377 . S
C241 C242 1.379 . S
C242 H226 0.938 . S
C242 C236 1.383 . S
C242 C241 1.379 . S
H243 C237 0.959 . S
H244 C237 0.961 . S
H245 C237 0.960 . S
H246 C238 0.930 . S
H247 C239 0.929 . S
H248 C256 0.929 . S
H249 C258 0.930 . S
H250 C260 0.930 . S
H251 C263 0.929 . S
H252 C266 0.930 . S
H253 C268 0.960 . S
H254 C268 0.960 . S
H255 C268 0.960 . S
C256 H248 0.929 . S
C256 C257 1.377 . S
C256 C258 1.384 . S
C257 C256 1.377 . S
C257 C263 1.390 1_545 S
C258 H249 0.930 . S
C258 C256 1.384 . S
C258 C259 1.372 . S
C259 C258 1.372 . S
C259 C260 1.400 1_545 S
C259 C264 1.490 . S
C260 H250 0.930 . S
C260 C259 1.400 1_565 S
C260 C263 1.386 . S
H261 C277 0.930 . S
H262 C278 0.931 . S
C263 H251 0.929 . S
C263 C257 1.390 1_565 S
C263 C260 1.386 . S
C264 C259 1.490 . S
C264 C266 1.395 . S
C264 C267 1.403 1_545 S
H265 C271 0.930 . S
C266 H252 0.930 . S
C266 C264 1.395 . S
C266 C269 1.403 . S
C267 C264 1.403 1_565 S
C267 C268 1.524 . S
C267 C271 1.400 . S
C268 H253 0.960 . S
C268 H254 0.960 . S
C268 H255 0.960 . S
C268 C267 1.524 . S
C269 C266 1.403 . S
C269 C270 1.392 . S
C269 C273 1.495 . S
C270 C269 1.392 . S
C270 C271 1.385 1_545 S
C270 C272 1.478 . S
C271 H265 0.930 . S
C271 C267 1.400 . S
C271 C270 1.385 1_565 S
C272 C270 1.478 . S
C272 C274 1.381 . S
C272 C278 1.383 1_545 S
C273 C269 1.495 . S
C273 H279 0.959 . S
C273 H280 0.961 . S
C273 H281 0.960 . S
C274 C272 1.381 . S
C274 C275 1.394 . S
C274 H282 0.930 . S
C275 C274 1.394 . S
C275 C276 1.383 . S
C275 H283 0.929 . S
C276 C275 1.383 . S
C276 C277 1.377 1_545 S
C277 H261 0.930 . S
C277 C276 1.377 1_565 S
C277 C278 1.379 . S
C278 H262 0.931 . S
C278 C272 1.383 1_565 S
C278 C277 1.379 . S
H279 C273 0.959 . S
H280 C273 0.961 . S
H281 C273 0.960 . S
H282 C274 0.930 . S
H283 C275 0.929 . S
H284 C292 0.929 . S
H285 C294 0.930 . S
H286 C296 0.930 . S
H287 C299 0.929 . S
H288 C302 0.930 . S
H289 C304 0.960 . S
H290 C304 0.960 . S
H291 C304 0.960 . S
C292 H284 0.929 . S
C292 C293 1.377 . S
C292 C294 1.384 . S
C293 C292 1.377 . S
C293 C299 1.390 1_455 S
C294 H285 0.930 . S
C294 C292 1.384 . S
C294 C295 1.372 . S
C295 C294 1.372 . S
C295 C296 1.400 1_455 S
C295 C300 1.490 . S
C296 H286 0.930 . S
C296 C295 1.400 1_655 S
C296 C299 1.386 . S
H297 C313 0.930 . S
H298 C314 0.931 . S
C299 H287 0.929 . S
C299 C293 1.390 1_655 S
C299 C296 1.386 . S
C300 C295 1.490 . S
C300 C302 1.395 . S
C300 C303 1.403 1_455 S
H301 C307 0.930 . S
C302 H288 0.930 . S
C302 C300 1.395 . S
C302 C305 1.403 . S
C303 C300 1.403 1_655 S
C303 C304 1.524 . S
C303 C307 1.400 . S
C304 H289 0.960 . S
C304 H290 0.960 . S
C304 H291 0.960 . S
C304 C303 1.524 . S
C305 C302 1.403 . S
C305 C306 1.392 . S
C305 C309 1.495 . S
C306 C305 1.392 . S
C306 C307 1.385 1_455 S
C306 C308 1.478 . S
C307 H301 0.930 . S
C307 C303 1.400 . S
C307 C306 1.385 1_655 S
C308 C306 1.478 . S
C308 C310 1.381 . S
C308 C314 1.383 . S
C309 C305 1.495 . S
C309 H315 0.959 . S
C309 H316 0.961 . S
C309 H317 0.960 . S
C310 C308 1.381 . S
C310 C311 1.394 . S
C310 H318 0.930 . S
C311 C310 1.394 . S
C311 C312 1.383 . S
C311 H319 0.929 . S
C312 C311 1.383 . S
C312 C313 1.377 . S
C313 H297 0.930 . S
C313 C312 1.377 . S
C313 C314 1.379 . S
C314 H298 0.931 . S
C314 C308 1.383 . S
C314 C313 1.379 . S
H315 C309 0.959 . S
H316 C309 0.961 . S
H317 C309 0.960 . S
H318 C310 0.930 . S
H319 C311 0.929 . S
H320 C328 0.929 1_565 S
H321 C330 0.930 1_565 S
H322 C332 0.930 . S
H323 C335 0.929 . S
H324 C338 0.930 . S
H325 C340 0.960 . S
H326 C340 0.960 . S
H327 C340 0.960 . S
C328 H320 0.929 1_545 S
C328 C329 1.377 . S
C328 C330 1.384 . S
C329 C328 1.377 . S
C329 C335 1.390 . S
C330 H321 0.930 1_545 S
C330 C328 1.384 . S
C330 C331 1.372 . S
C331 C330 1.372 . S
C331 C332 1.400 . S
C331 C336 1.490 . S
C332 H322 0.930 . S
C332 C331 1.400 . S
C332 C335 1.386 . S
H333 C349 0.930 . S
H334 C350 0.931 . S
C335 H323 0.929 . S
C335 C329 1.390 . S
C335 C332 1.386 . S
C336 C331 1.490 . S
C336 C338 1.395 1_545 S
C336 C339 1.403 . S
H337 C343 0.930 . S
C338 H324 0.930 . S
C338 C336 1.395 1_565 S
C338 C341 1.403 . S
C339 C336 1.403 . S
C339 C340 1.524 . S
C339 C343 1.400 . S
C340 H325 0.960 . S
C340 H326 0.960 . S
C340 H327 0.960 . S
C340 C339 1.524 . S
C341 C338 1.403 . S
C341 C342 1.392 1_565 S
C341 C345 1.495 . S
C342 C341 1.392 1_545 S
C342 C343 1.385 . S
C342 C344 1.478 . S
C343 H337 0.930 . S
C343 C339 1.400 . S
C343 C342 1.385 . S
C344 C342 1.478 . S
C344 C346 1.381 1_545 S
C344 C350 1.383 . S
C345 C341 1.495 . S
C345 H351 0.959 . S
C345 H352 0.961 . S
C345 H353 0.960 . S
C346 C344 1.381 1_565 S
C346 C347 1.394 . S
C346 H354 0.930 . S
C347 C346 1.394 . S
C347 C348 1.383 1_565 S
C347 H355 0.929 . S
C348 C347 1.383 1_545 S
C348 C349 1.377 . S
C349 H333 0.930 . S
C349 C348 1.377 . S
C349 C350 1.379 . S
C350 H334 0.931 . S
C350 C344 1.383 . S
C350 C349 1.379 . S
H351 C345 0.959 . S
H352 C345 0.961 . S
H353 C345 0.960 . S
H354 C346 0.930 . S
H355 C347 0.929 . S
H356 C364 0.929 . S
H357 C366 0.930 . S
H358 C368 0.930 . S
H359 C371 0.929 . S
H360 C374 0.930 . S
H361 C376 0.960 . S
H362 C376 0.960 1_455 S
H363 C376 0.960 . S
C364 H356 0.929 . S
C364 C365 1.377 . S
C364 C366 1.384 . S
C365 C364 1.377 . S
C365 C371 1.390 1_455 S
C366 H357 0.930 . S
C366 C364 1.384 . S
C366 C367 1.372 . S
C367 C366 1.372 . S
C367 C368 1.400 1_455 S
C367 C372 1.490 . S
C368 H358 0.930 . S
C368 C367 1.400 1_655 S
C368 C371 1.386 . S
H369 C385 0.930 . S
H370 C386 0.931 . S
C371 H359 0.929 . S
C371 C365 1.390 1_655 S
C371 C368 1.386 . S
C372 C367 1.490 . S
C372 C374 1.395 . S
C372 C375 1.403 . S
H373 C379 0.930 1_655 S
C374 H360 0.930 . S
C374 C372 1.395 . S
C374 C377 1.403 . S
C375 C372 1.403 . S
C375 C376 1.524 1_455 S
C375 C379 1.400 . S
C376 H361 0.960 . S
C376 H362 0.960 1_655 S
C376 H363 0.960 . S
C376 C375 1.524 1_655 S
C377 C374 1.403 . S
C377 C378 1.392 . S
C377 C381 1.495 . S
C378 C377 1.392 . S
C378 C379 1.385 . S
C378 C380 1.478 . S
C379 H373 0.930 1_455 S
C379 C375 1.400 . S
C379 C378 1.385 . S
C380 C378 1.478 . S
C380 C382 1.381 . S
C380 C386 1.383 1_455 S
C381 C377 1.495 . S
C381 H387 0.959 . S
C381 H388 0.961 . S
C381 H389 0.960 . S
C382 C380 1.381 . S
C382 C383 1.394 . S
C382 H390 0.930 . S
C383 C382 1.394 . S
C383 C384 1.383 . S
C383 H391 0.929 . S
C384 C383 1.383 . S
C384 C385 1.377 1_455 S
C385 H369 0.930 . S
C385 C384 1.377 1_655 S
C385 C386 1.379 . S
C386 H370 0.931 . S
C386 C380 1.383 1_655 S
C386 C385 1.379 . S
H387 C381 0.959 . S
H388 C381 0.961 . S
H389 C381 0.960 . S
H390 C382 0.930 . S
H391 C383 0.929 . S
H392 C400 0.929 . S
H393 C402 0.930 . S
H394 C404 0.930 . S
H395 C407 0.929 . S
H396 C410 0.930 . S
H397 C412 0.960 . S
H398 C412 0.960 . S
H399 C412 0.960 . S
C400 H392 0.929 . S
C400 C401 1.377 . S
C400 C402 1.384 . S
C401 C400 1.377 . S
C401 C407 1.390 . S
C402 H393 0.930 . S
C402 C400 1.384 . S
C402 C403 1.372 . S
C403 C402 1.372 . S
C403 C404 1.400 . S
C403 C408 1.490 . S
C404 H394 0.930 . S
C404 C403 1.400 . S
C404 C407 1.386 . S
H405 C421 0.930 . S
H406 C422 0.931 . S
C407 H395 0.929 . S
C407 C401 1.390 . S
C407 C404 1.386 . S
C408 C403 1.490 . S
C408 C410 1.395 . S
C408 C411 1.403 . S
H409 C415 0.930 . S
C410 H396 0.930 . S
C410 C408 1.395 . S
C410 C413 1.403 . S
C411 C408 1.403 . S
C411 C412 1.524 . S
C411 C415 1.400 . S
C412 H397 0.960 . S
C412 H398 0.960 . S
C412 H399 0.960 . S
C412 C411 1.524 . S
C413 C410 1.403 . S
C413 C414 1.392 . S
C413 C417 1.495 . S
C414 C413 1.392 . S
C414 C415 1.385 . S
C414 C416 1.478 . S
C415 H409 0.930 . S
C415 C411 1.400 . S
C415 C414 1.385 . S
C416 C414 1.478 . S
C416 C418 1.381 . S
C416 C422 1.383 . S
C417 C413 1.495 . S
C417 H423 0.959 . S
C417 H424 0.961 . S
C417 H425 0.960 . S
C418 C416 1.381 . S
C418 C419 1.394 . S
C418 H426 0.930 . S
C419 C418 1.394 . S
C419 C420 1.383 . S
C419 H427 0.929 . S
C420 C419 1.383 . S
C420 C421 1.377 . S
C421 H405 0.930 . S
C421 C420 1.377 . S
C421 C422 1.379 . S
C422 H406 0.931 . S
C422 C416 1.383 . S
C422 C421 1.379 . S
H423 C417 0.959 . S
H424 C417 0.961 . S
H425 C417 0.960 . S
H426 C418 0.930 . S
H427 C419 0.929 . S
H428 C436 0.929 . S
H429 C438 0.930 . S
H430 C440 0.930 . S
H431 C443 0.929 . S
H432 C446 0.930 . S
H433 C448 0.960 . S
H434 C448 0.960 . S
H435 C448 0.960 . S
C436 H428 0.929 . S
C436 C437 1.377 . S
C436 C438 1.384 . S
C437 C436 1.377 . S
C437 C443 1.390 . S
C438 H429 0.930 . S
C438 C436 1.384 . S
C438 C439 1.372 . S
C439 C438 1.372 . S
C439 C440 1.400 . S
C439 C444 1.490 . S
C440 H430 0.930 . S
C440 C439 1.400 . S
C440 C443 1.386 . S
H441 C457 0.930 . S
H442 C458 0.931 . S
C443 H431 0.929 . S
C443 C437 1.390 . S
C443 C440 1.386 . S
C444 C439 1.490 . S
C444 C446 1.395 . S
C444 C447 1.403 . S
H445 C451 0.930 . S
C446 H432 0.930 . S
C446 C444 1.395 . S
C446 C449 1.403 . S
C447 C444 1.403 . S
C447 C448 1.524 . S
C447 C451 1.400 . S
C448 H433 0.960 . S
C448 H434 0.960 . S
C448 H435 0.960 . S
C448 C447 1.524 . S
C449 C446 1.403 . S
C449 C450 1.392 . S
C449 C453 1.495 . S
C450 C449 1.392 . S
C450 C451 1.385 . S
C450 C452 1.478 . S
C451 H445 0.930 . S
C451 C447 1.400 . S
C451 C450 1.385 . S
C452 C450 1.478 . S
C452 C454 1.381 . S
C452 C458 1.383 . S
C453 C449 1.495 . S
C453 H459 0.959 . S
C453 H460 0.961 . S
C453 H461 0.960 . S
C454 C452 1.381 . S
C454 C455 1.394 . S
C454 H462 0.930 . S
C455 C454 1.394 . S
C455 C456 1.383 . S
C455 H463 0.929 . S
C456 C455 1.383 . S
C456 C457 1.377 . S
C457 H441 0.930 . S
C457 C456 1.377 . S
C457 C458 1.379 . S
C458 H442 0.931 . S
C458 C452 1.383 . S
C458 C457 1.379 . S
H459 C453 0.959 . S
H460 C453 0.961 . S
H461 C453 0.960 . S
H462 C454 0.930 . S
H463 C455 0.929 . S
H464 C472 0.929 . S
H465 C474 0.930 . S
H466 C476 0.930 . S
H467 C479 0.929 . S
H468 C482 0.930 . S
H469 C484 0.960 . S
H470 C484 0.960 . S
H471 C484 0.960 . S
C472 H464 0.929 . S
C472 C473 1.377 . S
C472 C474 1.384 . S
C473 C472 1.377 . S
C473 C479 1.390 . S
C474 H465 0.930 . S
C474 C472 1.384 . S
C474 C475 1.372 . S
C475 C474 1.372 . S
C475 C476 1.400 . S
C475 C480 1.490 . S
C476 H466 0.930 . S
C476 C475 1.400 . S
C476 C479 1.386 . S
H477 C493 0.930 . S
H478 C494 0.931 . S
C479 H467 0.929 . S
C479 C473 1.390 . S
C479 C476 1.386 . S
C480 C475 1.490 . S
C480 C482 1.395 . S
C480 C483 1.403 . S
H481 C487 0.930 . S
C482 H468 0.930 . S
C482 C480 1.395 . S
C482 C485 1.403 . S
C483 C480 1.403 . S
C483 C484 1.524 . S
C483 C487 1.400 . S
C484 H469 0.960 . S
C484 H470 0.960 . S
C484 H471 0.960 . S
C484 C483 1.524 . S
C485 C482 1.403 . S
C485 C486 1.392 . S
C485 C489 1.495 . S
C486 C485 1.392 . S
C486 C487 1.385 . S
C486 C488 1.478 . S
C487 H481 0.930 . S
C487 C483 1.400 . S
C487 C486 1.385 . S
C488 C486 1.478 . S
C488 C490 1.381 . S
C488 C494 1.383 . S
C489 C485 1.495 . S
C489 H495 0.959 . S
C489 H496 0.961 . S
C489 H497 0.960 . S
C490 C488 1.381 . S
C490 C491 1.394 . S
C490 H498 0.930 . S
C491 C490 1.394 . S
C491 C492 1.383 . S
C491 H499 0.929 . S
C492 C491 1.383 . S
C492 C493 1.377 . S
C493 H477 0.930 . S
C493 C492 1.377 . S
C493 C494 1.379 . S
C494 H478 0.931 . S
C494 C488 1.383 . S
C494 C493 1.379 . S
H495 C489 0.959 . S
H496 C489 0.961 . S
H497 C489 0.960 . S
H498 C490 0.930 . S
H499 C491 0.929 . S
H500 C508 0.929 . S
H501 C510 0.930 . S
H502 C512 0.930 . S
H503 C515 0.929 . S
H504 C518 0.930 . S
H505 C520 0.960 . S
H506 C520 0.960 . S
H507 C520 0.960 . S
C508 H500 0.929 . S
C508 C509 1.377 . S
C508 C510 1.384 . S
C509 C508 1.377 . S
C509 C515 1.390 . S
C510 H501 0.930 . S
C510 C508 1.384 . S
C510 C511 1.372 . S
C511 C510 1.372 . S
C511 C512 1.400 . S
C511 C516 1.490 . S
C512 H502 0.930 . S
C512 C511 1.400 . S
C512 C515 1.386 . S
H513 C529 0.930 . S
H514 C530 0.931 . S
C515 H503 0.929 . S
C515 C509 1.390 . S
C515 C512 1.386 . S
C516 C511 1.490 . S
C516 C518 1.395 . S
C516 C519 1.403 . S
H517 C523 0.930 . S
C518 H504 0.930 . S
C518 C516 1.395 . S
C518 C521 1.403 . S
C519 C516 1.403 . S
C519 C520 1.524 . S
C519 C523 1.400 . S
C520 H505 0.960 . S
C520 H506 0.960 . S
C520 H507 0.960 . S
C520 C519 1.524 . S
C521 C518 1.403 . S
C521 C522 1.392 . S
C521 C525 1.495 . S
C522 C521 1.392 . S
C522 C523 1.385 . S
C522 C524 1.478 . S
C523 H517 0.930 . S
C523 C519 1.400 . S
C523 C522 1.385 . S
C524 C522 1.478 . S
C524 C526 1.381 . S
C524 C530 1.383 . S
C525 C521 1.495 . S
C525 H531 0.959 . S
C525 H532 0.961 . S
C525 H533 0.960 . S
C526 C524 1.381 . S
C526 C527 1.394 . S
C526 H534 0.930 . S
C527 C526 1.394 . S
C527 C528 1.383 . S
C527 H535 0.929 . S
C528 C527 1.383 . S
C528 C529 1.377 . S
C529 H513 0.930 . S
C529 C528 1.377 . S
C529 C530 1.379 . S
C530 H514 0.931 . S
C530 C524 1.383 . S
C530 C529 1.379 . S
H531 C525 0.959 . S
H532 C525 0.961 . S
H533 C525 0.960 . S
H534 C526 0.930 . S
H535 C527 0.929 . S
H536 C544 0.929 . S
H537 C546 0.930 . S
H538 C548 0.930 . S
H539 C551 0.929 . S
H540 C554 0.930 . S
H541 C556 0.960 . S
H542 C556 0.960 . S
H543 C556 0.960 . S
C544 H536 0.929 . S
C544 C545 1.377 . S
C544 C546 1.384 . S
C545 C544 1.377 . S
C545 C551 1.390 . S
C546 H537 0.930 . S
C546 C544 1.384 . S
C546 C547 1.372 . S
C547 C546 1.372 . S
C547 C548 1.400 . S
C547 C552 1.490 . S
C548 H538 0.930 . S
C548 C547 1.400 . S
C548 C551 1.386 . S
H549 C565 0.930 . S
H550 C566 0.931 . S
C551 H539 0.929 . S
C551 C545 1.390 . S
C551 C548 1.386 . S
C552 C547 1.490 . S
C552 C554 1.395 . S
C552 C555 1.403 . S
H553 C559 0.930 . S
C554 H540 0.930 . S
C554 C552 1.395 . S
C554 C557 1.403 . S
C555 C552 1.403 . S
C555 C556 1.524 . S
C555 C559 1.400 . S
C556 H541 0.960 . S
C556 H542 0.960 . S
C556 H543 0.960 . S
C556 C555 1.524 . S
C557 C554 1.403 . S
C557 C558 1.392 . S
C557 C561 1.495 . S
C558 C557 1.392 . S
C558 C559 1.385 . S
C558 C560 1.478 . S
C559 H553 0.930 . S
C559 C555 1.400 . S
C559 C558 1.385 . S
C560 C558 1.478 . S
C560 C562 1.381 . S
C560 C566 1.383 . S
C561 C557 1.495 . S
C561 H567 0.959 . S
C561 H568 0.961 . S
C561 H569 0.960 . S
C562 C560 1.381 . S
C562 C563 1.394 . S
C562 H570 0.930 . S
C563 C562 1.394 . S
C563 C564 1.383 . S
C563 H571 0.929 . S
C564 C563 1.383 . S
C564 C565 1.377 . S
C565 H549 0.930 . S
C565 C564 1.377 . S
C565 C566 1.379 . S
C566 H550 0.931 . S
C566 C560 1.383 . S
C566 C565 1.379 . S
H567 C561 0.959 . S
H568 C561 0.961 . S
H569 C561 0.960 . S
H570 C562 0.930 . S
H571 C563 0.929 . S
H572 C580 0.929 . S
H573 C582 0.930 . S
H574 C584 0.930 . S
H575 C587 0.929 . S
H576 C590 0.930 . S
H577 C592 0.960 . S
H578 C592 0.960 . S
H579 C592 0.960 . S
C580 H572 0.929 . S
C580 C581 1.377 . S
C580 C582 1.384 . S
C581 C580 1.377 . S
C581 C587 1.390 . S
C582 H573 0.930 . S
C582 C580 1.384 . S
C582 C583 1.372 . S
C583 C582 1.372 . S
C583 C584 1.400 . S
C583 C588 1.490 . S
C584 H574 0.930 . S
C584 C583 1.400 . S
C584 C587 1.386 . S
H585 C601 0.930 . S
H586 C602 0.931 . S
C587 H575 0.929 . S
C587 C581 1.390 . S
C587 C584 1.386 . S
C588 C583 1.490 . S
C588 C590 1.395 . S
C588 C591 1.403 . S
H589 C595 0.930 . S
C590 H576 0.930 . S
C590 C588 1.395 . S
C590 C593 1.403 . S
C591 C588 1.403 . S
C591 C592 1.524 . S
C591 C595 1.400 . S
C592 H577 0.960 . S
C592 H578 0.960 . S
C592 H579 0.960 . S
C592 C591 1.524 . S
C593 C590 1.403 . S
C593 C594 1.392 . S
C593 C597 1.495 . S
C594 C593 1.392 . S
C594 C595 1.385 . S
C594 C596 1.478 . S
C595 H589 0.930 . S
C595 C591 1.400 . S
C595 C594 1.385 . S
C596 C594 1.478 . S
C596 C598 1.381 . S
C596 C602 1.383 . S
C597 C593 1.495 . S
C597 H603 0.959 . S
C597 H604 0.961 . S
C597 H605 0.960 . S
C598 C596 1.381 . S
C598 C599 1.394 . S
C598 H606 0.930 . S
C599 C598 1.394 . S
C599 C600 1.383 . S
C599 H607 0.929 . S
C600 C599 1.383 . S
C600 C601 1.377 . S
C601 H585 0.930 . S
C601 C600 1.377 . S
C601 C602 1.379 . S
C602 H586 0.931 . S
C602 C596 1.383 . S
C602 C601 1.379 . S
H603 C597 0.959 . S
H604 C597 0.961 . S
H605 C597 0.960 . S
H606 C598 0.930 . S
H607 C599 0.929 . S
H608 C616 0.929 . S
H609 C618 0.930 . S
H610 C620 0.930 . S
H611 C623 0.929 . S
H612 C626 0.930 . S
H613 C628 0.960 . S
H614 C628 0.960 . S
H615 C628 0.960 . S
C616 H608 0.929 . S
C616 C617 1.377 . S
C616 C618 1.384 . S
C617 C616 1.377 . S
C617 C623 1.390 . S
C618 H609 0.930 . S
C618 C616 1.384 . S
C618 C619 1.372 . S
C619 C618 1.372 . S
C619 C620 1.400 . S
C619 C624 1.490 . S
C620 H610 0.930 . S
C620 C619 1.400 . S
C620 C623 1.386 . S
H621 C637 0.930 . S
H622 C638 0.931 . S
C623 H611 0.929 . S
C623 C617 1.390 . S
C623 C620 1.386 . S
C624 C619 1.490 . S
C624 C626 1.395 . S
C624 C627 1.403 . S
H625 C631 0.930 . S
C626 H612 0.930 . S
C626 C624 1.395 . S
C626 C629 1.403 . S
C627 C624 1.403 . S
C627 C628 1.524 . S
C627 C631 1.400 . S
C628 H613 0.960 . S
C628 H614 0.960 . S
C628 H615 0.960 . S
C628 C627 1.524 . S
C629 C626 1.403 . S
C629 C630 1.392 . S
C629 C633 1.495 . S
C630 C629 1.392 . S
C630 C631 1.385 . S
C630 C632 1.478 . S
C631 H625 0.930 . S
C631 C627 1.400 . S
C631 C630 1.385 . S
C632 C630 1.478 . S
C632 C634 1.381 . S
C632 C638 1.383 . S
C633 C629 1.495 . S
C633 H639 0.959 . S
C633 H640 0.961 . S
C633 H641 0.960 . S
C634 C632 1.381 . S
C634 C635 1.394 . S
C634 H642 0.930 . S
C635 C634 1.394 . S
C635 C636 1.383 . S
C635 H643 0.929 . S
C636 C635 1.383 . S
C636 C637 1.377 . S
C637 H621 0.930 . S
C637 C636 1.377 . S
C637 C638 1.379 . S
C638 H622 0.931 . S
C638 C632 1.383 . S
C638 C637 1.379 . S
H639 C633 0.959 . S
H640 C633 0.961 . S
H641 C633 0.960 . S
H642 C634 0.930 . S
H643 C635 0.929 . S
H644 C652 0.929 . S
H645 C654 0.930 . S
H646 C656 0.930 . S
H647 C659 0.929 . S
H648 C662 0.930 . S
H649 C664 0.960 . S
H650 C664 0.960 . S
H651 C664 0.960 . S
C652 H644 0.929 . S
C652 C653 1.377 . S
C652 C654 1.384 . S
C653 C652 1.377 . S
C653 C659 1.390 . S
C654 H645 0.930 . S
C654 C652 1.384 . S
C654 C655 1.372 . S
C655 C654 1.372 . S
C655 C656 1.400 . S
C655 C660 1.490 . S
C656 H646 0.930 . S
C656 C655 1.400 . S
C656 C659 1.386 . S
H657 C673 0.930 . S
H658 C674 0.931 . S
C659 H647 0.929 . S
C659 C653 1.390 . S
C659 C656 1.386 . S
C660 C655 1.490 . S
C660 C662 1.395 . S
C660 C663 1.403 . S
H661 C667 0.930 . S
C662 H648 0.930 . S
C662 C660 1.395 . S
C662 C665 1.403 . S
C663 C660 1.403 . S
C663 C664 1.524 . S
C663 C667 1.400 . S
C664 H649 0.960 . S
C664 H650 0.960 . S
C664 H651 0.960 . S
C664 C663 1.524 . S
C665 C662 1.403 . S
C665 C666 1.392 . S
C665 C669 1.495 . S
C666 C665 1.392 . S
C666 C667 1.385 . S
C666 C668 1.478 . S
C667 H661 0.930 . S
C667 C663 1.400 . S
C667 C666 1.385 . S
C668 C666 1.478 . S
C668 C670 1.381 . S
C668 C674 1.383 . S
C669 C665 1.495 . S
C669 H675 0.959 . S
C669 H676 0.961 . S
C669 H677 0.960 . S
C670 C668 1.381 . S
C670 C671 1.394 . S
C670 H678 0.930 . S
C671 C670 1.394 . S
C671 C672 1.383 . S
C671 H679 0.929 . S
C672 C671 1.383 . S
C672 C673 1.377 . S
C673 H657 0.930 . S
C673 C672 1.377 . S
C673 C674 1.379 . S
C674 H658 0.931 . S
C674 C668 1.383 . S
C674 C673 1.379 . S
H675 C669 0.959 . S
H676 C669 0.961 . S
H677 C669 0.960 . S
H678 C670 0.930 . S
H679 C671 0.929 . S
C113 C8 1.545 . S
C132 C60 1.554 . S
C149 C21 1.544 . S
C168 C73 1.544 . S
C185 C86 1.540 . S
C204 C34 1.530 . S
C221 C99 1.539 . S
C240 C47 1.522 . S
C257 C0 0.960 . S
C276 C26 0.976 . S
C293 C13 0.958 . S
C312 C39 0.939 . S
C329 C78 0.959 . S
C348 C52 0.939 . S
C365 C65 0.957 . S
C384 C91 0.966 . S
C401 C75 1.212 . S
C420 C10 1.207 . S
C437 C23 1.217 . S
C456 C88 1.229 . S
C473 C101 1.213 . S
C492 C36 1.212 . S
C509 C49 1.217 . S
C528 C62 1.232 . S
C545 C83 1.148 . S
C564 C44 1.120 . S
C581 C5 1.142 . S
C600 C96 1.117 . S
C617 C18 1.148 . S
C636 C57 1.105 . S
C653 C70 1.136 . S
C672 C31 1.147 . S
