# Generated by pormake.
# Topology utp, (3)-cn, num edge types: 1
# Building blocks:
#     Node 0, Type 0, BuildingBlock: WUSLED_clean_sbu_0, # of connection points: 3
#     Node 1, Type 0, BuildingBlock: WUSLED_clean_sbu_0, # of connection points: 3
#     Node 2, Type 0, BuildingBlock: WUSLED_clean_sbu_0, # of connection points: 3
#     Node 3, Type 0, BuildingBlock: WUSLED_clean_sbu_0, # of connection points: 3
#     Node 4, Type 0, BuildingBlock: WUSLED_clean_sbu_0, # of connection points: 3
#     Node 5, Type 0, BuildingBlock: WUSLED_clean_sbu_0, # of connection points: 3
#     Node 6, Type 0, BuildingBlock: WUSLED_clean_sbu_0, # of connection points: 3
#     Node 7, Type 0, BuildingBlock: WUSLED_clean_sbu_0, # of connection points: 3
#     Edge 8, Type (0, 0), BuildingBlock: ZUJKAS_clean_linker_0, # of connection points: 2
#     Edge 9, Type (0, 0), BuildingBlock: ZUJKAS_clean_linker_0, # of connection points: 2
#     Edge 10, Type (0, 0), BuildingBlock: ZUJKAS_clean_linker_0, # of connection points: 2
#     Edge 11, Type (0, 0), BuildingBlock: ZUJKAS_clean_linker_0, # of connection points: 2
#     Edge 12, Type (0, 0), BuildingBlock: ZUJKAS_clean_linker_0, # of connection points: 2
#     Edge 13, Type (0, 0), BuildingBlock: ZUJKAS_clean_linker_0, # of connection points: 2
#     Edge 14, Type (0, 0), BuildingBlock: ZUJKAS_clean_linker_0, # of connection points: 2
#     Edge 15, Type (0, 0), BuildingBlock: ZUJKAS_clean_linker_0, # of connection points: 2
#     Edge 16, Type (0, 0), BuildingBlock: ZUJKAS_clean_linker_0, # of connection points: 2
#     Edge 17, Type (0, 0), BuildingBlock: ZUJKAS_clean_linker_0, # of connection points: 2
#     Edge 18, Type (0, 0), BuildingBlock: ZUJKAS_clean_linker_0, # of connection points: 2
#     Edge 19, Type (0, 0), BuildingBlock: ZUJKAS_clean_linker_0, # of connection points: 2
# Relax obj value: 0.000
# Max RMSD: 0.004
# Mean RMSD: 0.004
data_MOF--net-utp--node1-WUSLED_clean_sbu_0--edge1-ZUJKAS_clean_linker_0
_symmetry_space_group_name_H-M    P1
_symmetry_Int_Tables_number       1
_symmetry_cell_setting            triclinic
loop_
_symmetry_equiv_pos_as_xyz
'x, y, z'
_cell_length_a     93.114863
_cell_length_b     81.6022
_cell_length_c     22.444288
_cell_angle_alpha  90.646044
_cell_angle_beta   90.307983
_cell_angle_gamma 89.848637
loop_
_atom_site_label
_atom_site_type_symbol
_atom_site_fract_x
_atom_site_fract_y
_atom_site_fract_z
_atom_type_partial_charge
C0 C 0.10037 0.09344 0.08082 0.0
C1 C 0.10274 0.07647 0.0768 0.0
C2 C 0.07743 0.072 0.0523 0.0
C3 C 0.09137 0.06584 0.06264 0.0
C4 C 0.07523 0.08906 0.0558 0.0
C5 C 0.08657 0.09963 0.06994 0.0
U6 U 0.1401 0.10435 0.10999 0.0
O7 O 0.15194 0.12661 0.08626 0.0
O8 O 0.14938 0.12025 0.18035 0.0
C9 C 0.15375 0.13124 0.14212 0.0
C10 C 0.112 0.10492 0.09709 0.0
C11 C 0.15044 0.14857 0.15708 0.0
C12 C 0.13922 0.17484 0.13466 0.0
C13 C 0.14136 0.15817 0.1213 0.0
C14 C 0.15488 0.17246 0.22053 0.0
C15 C 0.14603 0.18222 0.18426 0.0
C16 C 0.15708 0.15586 0.20696 0.0
C17 C 0.16928 0.07077 0.09149 0.0
C18 C 0.19357 0.0704 0.1324 0.0
C19 C 0.18692 0.05123 0.05395 0.0
C20 C 0.17306 0.05787 0.05283 0.0
C21 C 0.19736 0.05733 0.09394 0.0
C22 C 0.17967 0.07709 0.13107 0.0
C23 C 0.15435 0.07694 0.09056 0.0
O24 O 0.11848 0.10224 0.14823 0.0
O25 O 0.12093 0.10867 0.05424 0.0
O26 O 0.15115 0.08736 0.04827 0.0
O27 O 0.14869 0.08091 0.14231 0.0
H28 H 0.11334 0.07145 0.08508 0.0
H29 H 0.09346 0.05278 0.06088 0.0
H30 H 0.06473 0.09429 0.04712 0.0
H31 H 0.08454 0.1127 0.07257 0.0
H32 H 0.1322 0.18194 0.10618 0.0
H33 H 0.13603 0.15288 0.08265 0.0
H34 H 0.16045 0.17774 0.2586 0.0
H35 H 0.16419 0.14874 0.23504 0.0
H36 H 0.20138 0.07551 0.16329 0.0
H37 H 0.18936 0.04105 0.02429 0.0
H38 H 0.1652 0.05277 0.02212 0.0
H39 H 0.17702 0.0871 0.16118 0.0
C40 C 0.43409 0.94482 0.08665 0.0
C41 C 0.43232 0.95672 0.04236 0.0
C42 C 0.45672 0.96665 0.05991 0.0
C43 C 0.44354 0.96747 0.02898 0.0
C44 C 0.45834 0.95488 0.10483 0.0
C45 C 0.44716 0.94408 0.11788 0.0
U46 U 0.39459 0.93245 0.11004 0.0
O47 O 0.38314 0.91018 0.08025 0.0
O48 O 0.38527 0.91577 0.17574 0.0
C49 C 0.38093 0.90519 0.13489 0.0
C50 C 0.42272 0.93277 0.09996 0.0
C51 C 0.38394 0.88772 0.14632 0.0
C52 C 0.39954 0.86564 0.18017 0.0
C53 C 0.39729 0.88231 0.16807 0.0
C54 C 0.37523 0.85965 0.14817 0.0
C55 C 0.38851 0.85409 0.17044 0.0
C56 C 0.37299 0.87625 0.13629 0.0
C57 C 0.36495 0.96559 0.09456 0.0
C58 C 0.34086 0.96629 0.13639 0.0
C59 C 0.34692 0.9843 0.05539 0.0
C60 C 0.36084 0.97782 0.05449 0.0
C61 C 0.33675 0.97872 0.09662 0.0
C62 C 0.35481 0.95975 0.13527 0.0
C63 C 0.37999 0.95972 0.09419 0.0
O64 O 0.41609 0.93477 0.1511 0.0
O65 O 0.41398 0.92882 0.05589 0.0
O66 O 0.38354 0.94974 0.05029 0.0
O67 O 0.38553 0.95544 0.14576 0.0
H68 H 0.42231 0.95764 0.0178 0.0
H69 H 0.44187 0.97651 -0.00535 0.0
H70 H 0.46837 0.95377 0.12909 0.0
H71 H 0.44879 0.93498 0.15207 0.0
H72 H 0.40995 0.86179 0.1967 0.0
H73 H 0.40592 0.89095 0.17593 0.0
H74 H 0.36641 0.85122 0.14099 0.0
H75 H 0.36259 0.88018 0.11977 0.0
H76 H 0.33326 0.96156 0.16824 0.0
H77 H 0.34423 0.99398 0.02464 0.0
H78 H 0.3685 0.98256 0.0229 0.0
H79 H 0.35769 0.95025 0.16651 0.0
C80 C 0.1007 0.44478 0.4047 0.0
C81 C 0.10329 0.45962 0.43509 0.0
C82 C 0.07767 0.46619 0.43266 0.0
C83 C 0.09187 0.47021 0.44912 0.0
C84 C 0.07521 0.45133 0.40186 0.0
C85 C 0.08661 0.44076 0.38811 0.0
U86 U 0.14053 0.43407 0.37875 0.0
O87 O 0.15269 0.41208 0.40442 0.0
O88 O 0.15011 0.41802 0.30985 0.0
C89 C 0.1547 0.40731 0.34892 0.0
C90 C 0.11244 0.43324 0.39008 0.0
C91 C 0.15168 0.38991 0.33483 0.0
C92 C 0.13824 0.36469 0.3494 0.0
C93 C 0.14039 0.3814 0.3619 0.0
C94 C 0.15839 0.3649 0.28174 0.0
C95 C 0.14726 0.35621 0.30929 0.0
C96 C 0.16057 0.38153 0.29446 0.0
C97 C 0.16901 0.46831 0.39477 0.0
C98 C 0.19467 0.46489 0.37812 0.0
C99 C 0.18517 0.4915 0.40629 0.0
C100 C 0.17133 0.48491 0.40808 0.0
C101 C 0.19703 0.48162 0.39106 0.0
C102 C 0.18076 0.4583 0.37987 0.0
C103 C 0.15423 0.4619 0.39634 0.0
O104 O 0.11889 0.43562 0.33898 0.0
O105 O 0.12142 0.42981 0.43362 0.0
O106 O 0.15137 0.45159 0.43922 0.0
O107 O 0.14865 0.45747 0.34474 0.0
H108 H 0.11412 0.463 0.44802 0.0
H109 H 0.09418 0.48162 0.47225 0.0
H110 H 0.06443 0.44771 0.38919 0.0
H111 H 0.08438 0.42935 0.36471 0.0
H112 H 0.12946 0.35844 0.3709 0.0
H113 H 0.13332 0.38762 0.39299 0.0
H114 H 0.16567 0.35875 0.25129 0.0
H115 H 0.16937 0.38784 0.27322 0.0
H116 H 0.20352 0.45694 0.36573 0.0
H117 H 0.18657 0.50434 0.41753 0.0
H118 H 0.1624 0.49282 0.4199 0.0
H119 H 0.17917 0.44544 0.36933 0.0
C120 C 0.43383 0.59412 0.40876 0.0
C121 C 0.43211 0.57707 0.4036 0.0
C122 C 0.45687 0.57277 0.43681 0.0
C123 C 0.44352 0.5665 0.41745 0.0
C124 C 0.4584 0.58988 0.44262 0.0
C125 C 0.44702 0.60041 0.42869 0.0
U126 U 0.39417 0.60454 0.37732 0.0
O127 O 0.38183 0.62662 0.40202 0.0
O128 O 0.38484 0.62021 0.30774 0.0
C129 C 0.37991 0.63103 0.34638 0.0
C130 C 0.42218 0.60558 0.39275 0.0
C131 C 0.38279 0.64837 0.33289 0.0
C132 C 0.39835 0.67232 0.33306 0.0
C133 C 0.39604 0.65576 0.34625 0.0
C134 C 0.37423 0.67421 0.29282 0.0
C135 C 0.38747 0.68176 0.30599 0.0
C136 C 0.37194 0.65772 0.30613 0.0
C137 C 0.36572 0.57017 0.38874 0.0
C138 C 0.33979 0.57321 0.39822 0.0
C139 C 0.35004 0.54662 0.37501 0.0
C140 C 0.3638 0.55346 0.37617 0.0
C141 C 0.33784 0.55634 0.38658 0.0
C142 C 0.3536 0.58006 0.39927 0.0
C143 C 0.38047 0.57674 0.39224 0.0
O144 O 0.416 0.60302 0.34068 0.0
O145 O 0.41298 0.60913 0.43519 0.0
O146 O 0.38316 0.58721 0.43582 0.0
O147 O 0.38632 0.58091 0.34149 0.0
H148 H 0.42199 0.57196 0.38834 0.0
H149 H 0.44196 0.55342 0.41188 0.0
H150 H 0.4684 0.59517 0.4584 0.0
H151 H 0.44854 0.61353 0.43327 0.0
H152 H 0.40871 0.67768 0.34334 0.0
H153 H 0.40458 0.64872 0.36677 0.0
H154 H 0.36552 0.68111 0.27294 0.0
H155 H 0.36162 0.65227 0.29566 0.0
H156 H 0.33068 0.58106 0.40781 0.0
H157 H 0.34898 0.53368 0.36474 0.0
H158 H 0.37299 0.54562 0.36767 0.0
H159 H 0.35483 0.59302 0.40901 0.0
C160 C 0.93413 0.94417 0.89 0.0
C161 C 0.93172 0.96114 0.8935 0.0
C162 C 0.95715 0.96579 0.91536 0.0
C163 C 0.94313 0.97186 0.90608 0.0
C164 C 0.9594 0.94873 0.91212 0.0
C165 C 0.94801 0.93807 0.89955 0.0
U166 U 0.89426 0.93342 0.86517 0.0
O167 O 0.88444 0.91675 0.79889 0.0
O168 O 0.88232 0.91167 0.89418 0.0
C169 C 0.8799 0.9065 0.83939 0.0
C170 C 0.92239 0.93259 0.87633 0.0
C171 C 0.88266 0.88896 0.82752 0.0
C172 C 0.89879 0.86603 0.80748 0.0
C173 C 0.89662 0.88275 0.81997 0.0
C174 C 0.87311 0.8616 0.81061 0.0
C175 C 0.88703 0.85525 0.80219 0.0
C176 C 0.87097 0.87825 0.82307 0.0
C177 C 0.8653 0.96726 0.87932 0.0
C178 C 0.84124 0.96796 0.83611 0.0
C179 C 0.84726 0.98605 0.9187 0.0
C180 C 0.86118 0.97956 0.91993 0.0
C181 C 0.83712 0.98041 0.87658 0.0
C182 C 0.85518 0.9614 0.8376 0.0
C183 C 0.88028 0.96119 0.88056 0.0
O184 O 0.91358 0.92953 0.92034 0.0
O185 O 0.91575 0.93466 0.82513 0.0
O186 O 0.8858 0.95651 0.82929 0.0
O187 O 0.88364 0.95138 0.92458 0.0
H188 H 0.92105 0.96609 0.88625 0.0
H189 H 0.94101 0.98491 0.90764 0.0
H190 H 0.96996 0.94356 0.92 0.0
H191 H 0.95007 0.925 0.89733 0.0
H192 H 0.90965 0.8616 0.80087 0.0
H193 H 0.9058 0.89085 0.82328 0.0
H194 H 0.86381 0.85366 0.80804 0.0
H195 H 0.86012 0.88278 0.82909 0.0
H196 H 0.83366 0.9632 0.80356 0.0
H197 H 0.84454 0.99575 0.95002 0.0
H198 H 0.86882 0.9843 0.95234 0.0
H199 H 0.85806 0.95184 0.80595 0.0
C200 C 0.60016 0.09218 0.8941 0.0
C201 C 0.59925 0.07664 0.86661 0.0
C202 C 0.57746 0.07055 0.92227 0.0
C203 C 0.58799 0.06597 0.88039 0.0
C204 C 0.57855 0.08603 0.95024 0.0
C205 C 0.58974 0.09671 0.93615 0.0
U206 U 0.63959 0.10401 0.86564 0.0
O207 O 0.64879 0.12003 0.79734 0.0
O208 O 0.6513 0.12635 0.89209 0.0
C209 C 0.65343 0.13083 0.83677 0.0
C210 C 0.61154 0.10405 0.87862 0.0
C211 C 0.65065 0.14821 0.82319 0.0
C212 C 0.63541 0.17253 0.82363 0.0
C213 C 0.63748 0.15585 0.83613 0.0
C214 C 0.65959 0.17397 0.78488 0.0
C215 C 0.64646 0.18181 0.79774 0.0
C216 C 0.66163 0.15739 0.79743 0.0
C217 C 0.669 0.07068 0.88109 0.0
C218 C 0.69331 0.07103 0.84156 0.0
C219 C 0.68686 0.05118 0.91609 0.0
C220 C 0.67291 0.05756 0.91757 0.0
C221 C 0.69725 0.05776 0.8779 0.0
C222 C 0.67933 0.07747 0.84327 0.0
C223 C 0.65402 0.07667 0.8825 0.0
O224 O 0.6205 0.10809 0.92176 0.0
O225 O 0.61791 0.10189 0.82694 0.0
O226 O 0.64823 0.08067 0.8311 0.0
O227 O 0.65083 0.087 0.92579 0.0
H228 H 0.60717 0.07274 0.83423 0.0
H229 H 0.58758 0.05408 0.85855 0.0
H230 H 0.57056 0.09004 0.98217 0.0
H231 H 0.59017 0.10865 0.95775 0.0
H232 H 0.62513 0.17811 0.83368 0.0
H233 H 0.62885 0.14895 0.85598 0.0
H234 H 0.66843 0.18073 0.76601 0.0
H235 H 0.6719 0.15174 0.7874 0.0
H236 H 0.70107 0.07652 0.81211 0.0
H237 H 0.68942 0.04083 0.94406 0.0
H238 H 0.6651 0.0521 0.94689 0.0
H239 H 0.67657 0.08767 0.81488 0.0
C240 C 0.93346 0.59162 0.60609 0.0
C241 C 0.93088 0.57665 0.57645 0.0
C242 C 0.95648 0.57002 0.57982 0.0
C243 C 0.94229 0.56598 0.56327 0.0
C244 C 0.95892 0.58497 0.61006 0.0
C245 C 0.94754 0.59564 0.62296 0.0
U246 U 0.8937 0.60264 0.63211 0.0
O247 O 0.88427 0.61978 0.69763 0.0
O248 O 0.8814 0.62414 0.60206 0.0
C249 C 0.87937 0.62972 0.65654 0.0
C250 C 0.92175 0.60333 0.61916 0.0
C251 C 0.88218 0.64732 0.66645 0.0
C252 C 0.89838 0.67063 0.67473 0.0
C253 C 0.89613 0.65379 0.66522 0.0
C254 C 0.87278 0.67462 0.68682 0.0
C255 C 0.8867 0.68128 0.68541 0.0
C256 C 0.87056 0.65785 0.67741 0.0
C257 C 0.86504 0.56848 0.62466 0.0
C258 C 0.83915 0.57227 0.61674 0.0
C259 C 0.8489 0.54548 0.63895 0.0
C260 C 0.86281 0.55188 0.63692 0.0
C261 C 0.83687 0.55556 0.62866 0.0
C262 C 0.85311 0.57869 0.61493 0.0
C263 C 0.8799 0.57465 0.62119 0.0
O264 O 0.91263 0.60611 0.57547 0.0
O265 O 0.91547 0.60174 0.67106 0.0
O266 O 0.88565 0.57983 0.67157 0.0
O267 O 0.88282 0.58416 0.57594 0.0
H268 H 0.92006 0.57327 0.56332 0.0
H269 H 0.93998 0.55449 0.54059 0.0
H270 H 0.9697 0.5886 0.6228 0.0
H271 H 0.94976 0.60714 0.64576 0.0
H272 H 0.90923 0.67534 0.67284 0.0
H273 H 0.90525 0.64583 0.65674 0.0
H274 H 0.86356 0.68234 0.69594 0.0
H275 H 0.85972 0.65307 0.67882 0.0
H276 H 0.83015 0.58043 0.60927 0.0
H277 H 0.8476 0.53253 0.64742 0.0
H278 H 0.87187 0.54378 0.64438 0.0
H279 H 0.85459 0.59157 0.60567 0.0
C280 C 0.59975 0.44412 0.59558 0.0
C281 C 0.60153 0.46115 0.6013 0.0
C282 C 0.57666 0.46561 0.56984 0.0
C283 C 0.59009 0.4718 0.58859 0.0
C284 C 0.57506 0.44852 0.56363 0.0
C285 C 0.58647 0.43792 0.57642 0.0
U286 U 0.63955 0.4336 0.62363 0.0
O287 O 0.64915 0.41698 0.68944 0.0
O288 O 0.65194 0.41197 0.59396 0.0
C289 C 0.65398 0.40674 0.64853 0.0
C290 C 0.61149 0.43258 0.60963 0.0
C291 C 0.65123 0.38916 0.65831 0.0
C292 C 0.63563 0.36662 0.68629 0.0
C293 C 0.63773 0.38339 0.67603 0.0
C294 C 0.66043 0.36125 0.66054 0.0
C295 C 0.64698 0.35533 0.67864 0.0
C296 C 0.66252 0.37796 0.65053 0.0
C297 C 0.66788 0.46804 0.61404 0.0
C298 C 0.6936 0.46448 0.62913 0.0
C299 C 0.68407 0.49114 0.60355 0.0
C300 C 0.67019 0.48464 0.60216 0.0
C301 C 0.69599 0.48116 0.61684 0.0
C302 C 0.67966 0.45797 0.62764 0.0
C303 C 0.65309 0.46162 0.61144 0.0
O304 O 0.62058 0.42951 0.56629 0.0
O305 O 0.61783 0.43468 0.66165 0.0
O306 O 0.64764 0.45677 0.66214 0.0
O307 O 0.65017 0.45164 0.56666 0.0
H308 H 0.61173 0.46619 0.61595 0.0
H309 H 0.5917 0.48485 0.59443 0.0
H310 H 0.565 0.4433 0.54829 0.0
H311 H 0.58491 0.42482 0.57139 0.0
H312 H 0.6251 0.36248 0.69964 0.0
H313 H 0.62884 0.39183 0.68208 0.0
H314 H 0.66947 0.35301 0.65509 0.0
H315 H 0.67303 0.38217 0.63711 0.0
H316 H 0.70252 0.4564 0.639 0.0
H317 H 0.68543 0.50407 0.59486 0.0
H318 H 0.66122 0.49262 0.59178 0.0
H319 H 0.67808 0.44509 0.63681 0.0
H320 H 0.14235 0.19734 0.29301 0.0
H321 H 0.14074 0.22675 0.31479 0.0
H322 H 0.1445 0.23702 0.12751 0.0
H323 H 0.14603 0.20766 0.10538 0.0
H324 H 0.16046 0.25031 0.29462 0.0
H325 H 0.11046 0.26531 0.17171 0.0
H326 H 0.11579 0.24449 0.18708 0.0
H327 H 0.12364 0.2553 0.12592 0.0
C328 C 0.14279 0.20586 0.25639 0.0
C329 C 0.14428 0.2001 0.19738 0.0
C330 C 0.14181 0.22268 0.26892 0.0
C331 C 0.14228 0.23415 0.22278 0.0
C332 C 0.14373 0.22845 0.1638 0.0
H333 H 0.14912 0.3399 0.20197 0.0
H334 H 0.14751 0.31035 0.183 0.0
C335 C 0.14463 0.21162 0.1512 0.0
C336 C 0.14202 0.25207 0.23672 0.0
H337 H 0.12465 0.28797 0.20517 0.0
C338 C 0.15254 0.2585 0.27546 0.0
C339 C 0.13171 0.26282 0.2117 0.0
C340 C 0.11968 0.25663 0.17226 0.0
C341 C 0.15326 0.27537 0.28867 0.0
C342 C 0.14306 0.28613 0.2631 0.0
C343 C 0.13247 0.27972 0.22468 0.0
C344 C 0.14342 0.30413 0.27475 0.0
C345 C 0.16518 0.28161 0.32862 0.0
C346 C 0.14139 0.31051 0.33248 0.0
C347 C 0.14234 0.32741 0.34354 0.0
C348 C 0.14536 0.3383 0.29705 0.0
C349 C 0.14702 0.33187 0.239 0.0
C350 C 0.14601 0.31498 0.22798 0.0
H351 H 0.17394 0.27245 0.33355 0.0
H352 H 0.1698 0.2931 0.31098 0.0
H353 H 0.16079 0.28432 0.37354 0.0
H354 H 0.13916 0.3024 0.36914 0.0
H355 H 0.14108 0.3319 0.38881 0.0
H356 H 0.37927 0.82736 0.10577 0.0
H357 H 0.38125 0.79842 0.13158 0.0
H358 H 0.40491 0.81147 0.2907 0.0
H359 H 0.40259 0.84054 0.26617 0.0
H360 H 0.4053 0.77856 0.1503 0.0
H361 H 0.37226 0.7834 0.35527 0.0
H362 H 0.37284 0.79946 0.3007 0.0
H363 H 0.38737 0.79701 0.35287 0.0
C364 C 0.38481 0.82412 0.14654 0.0
C365 C 0.39063 0.83636 0.1842 0.0
C366 C 0.38602 0.80753 0.16101 0.0
C367 C 0.39301 0.80275 0.2136 0.0
C368 C 0.39922 0.81486 0.25046 0.0
H369 H 0.40116 0.7054 0.37354 0.0
H370 H 0.40396 0.73455 0.35115 0.0
C371 C 0.39803 0.83149 0.23598 0.0
C372 C 0.39364 0.78509 0.22969 0.0
H373 H 0.38245 0.75755 0.33328 0.0
C374 C 0.40033 0.77398 0.19038 0.0
C375 C 0.3872 0.77908 0.28211 0.0
C376 C 0.3794 0.7903 0.32503 0.0
C377 C 0.40074 0.75707 0.20196 0.0
C378 C 0.39403 0.75102 0.25373 0.0
C379 C 0.3876 0.76217 0.29365 0.0
C380 C 0.39301 0.73315 0.26601 0.0
C381 C 0.40846 0.74585 0.15884 0.0
C382 C 0.38588 0.72263 0.22579 0.0
C383 C 0.38432 0.70597 0.23831 0.0
C384 C 0.38976 0.6994 0.29165 0.0
C385 C 0.39699 0.70996 0.33174 0.0
C386 C 0.39852 0.72666 0.31918 0.0
H387 H 0.41653 0.75261 0.13239 0.0
H388 H 0.41397 0.73572 0.18249 0.0
H389 H 0.40055 0.74042 0.12725 0.0
H390 H 0.38128 0.72736 0.18501 0.0
H391 H 0.37881 0.69822 0.2061 0.0
H392 H 0.90783 0.83421 0.8442 0.0
H393 H 0.9106 0.80488 0.82185 0.0
H394 H 0.87344 0.80666 0.70664 0.0
H395 H 0.87088 0.83594 0.72712 0.0
H396 H 0.89128 0.77983 0.84294 0.0
H397 H 0.90259 0.78329 0.60157 0.0
H398 H 0.90365 0.80094 0.6506 0.0
H399 H 0.88654 0.7941 0.62225 0.0
C400 C 0.90039 0.82842 0.81333 0.0
C401 C 0.88912 0.83749 0.7875 0.0
C402 C 0.90194 0.81162 0.80089 0.0
C403 C 0.89235 0.80358 0.76188 0.0
C404 C 0.88115 0.81261 0.73594 0.0
H405 H 0.87032 0.70657 0.64279 0.0
H406 H 0.873 0.73588 0.66295 0.0
C407 C 0.87959 0.82936 0.74835 0.0
C408 C 0.89358 0.78561 0.75017 0.0
H409 H 0.89568 0.75701 0.63803 0.0
C410 C 0.89244 0.77483 0.79824 0.0
C411 C 0.89512 0.77907 0.69184 0.0
C412 C 0.89719 0.78995 0.63868 0.0
C413 C 0.89213 0.75773 0.7893 0.0
C414 C 0.89323 0.75121 0.73074 0.0
C415 C 0.89477 0.76199 0.68287 0.0
C416 C 0.89202 0.73331 0.71781 0.0
C417 C 0.89003 0.74681 0.84236 0.0
C418 C 0.90197 0.72206 0.74108 0.0
C419 C 0.90042 0.70521 0.72993 0.0
C420 C 0.88888 0.69926 0.69514 0.0
C421 C 0.87917 0.71064 0.67071 0.0
C422 C 0.88075 0.72745 0.68182 0.0
H423 H 0.88622 0.7538 0.88204 0.0
H424 H 0.88217 0.73696 0.83195 0.0
H425 H 0.90041 0.74094 0.85406 0.0
H426 H 0.91092 0.72631 0.76807 0.0
H427 H 0.90807 0.69682 0.74964 0.0
H428 H 0.65739 0.32929 0.61367 0.0
H429 H 0.65545 0.30012 0.63548 0.0
H430 H 0.63023 0.31154 0.79109 0.0
H431 H 0.63216 0.34083 0.76965 0.0
H432 H 0.66526 0.28447 0.73581 0.0
H433 H 0.60642 0.27556 0.71101 0.0
H434 H 0.61548 0.2935 0.68381 0.0
H435 H 0.61154 0.29172 0.76176 0.0
C436 C 0.65141 0.32563 0.65255 0.0
C437 C 0.64496 0.33747 0.68998 0.0
C438 C 0.65025 0.30892 0.66481 0.0
C439 C 0.64257 0.30357 0.71458 0.0
C440 C 0.63596 0.31531 0.7517 0.0
H441 H 0.6329 0.20548 0.86569 0.0
H442 H 0.63138 0.23499 0.84671 0.0
C443 C 0.63708 0.33207 0.73939 0.0
C444 C 0.64222 0.28578 0.72902 0.0
H445 H 0.61985 0.25304 0.74765 0.0
C446 C 0.65532 0.27761 0.73824 0.0
C447 C 0.62925 0.27682 0.73268 0.0
C448 C 0.61486 0.28478 0.72132 0.0
C449 C 0.65583 0.2608 0.75098 0.0
C450 C 0.64289 0.25177 0.75365 0.0
C451 C 0.62976 0.25996 0.74547 0.0
C452 C 0.64292 0.23375 0.76339 0.0
C453 C 0.67024 0.25287 0.76221 0.0
C454 C 0.64953 0.22317 0.72207 0.0
C455 C 0.65036 0.20633 0.73258 0.0
C456 C 0.64454 0.19962 0.78468 0.0
C457 C 0.63743 0.21018 0.82498 0.0
C458 C 0.63661 0.22707 0.81434 0.0
H459 H 0.67858 0.26207 0.77404 0.0
H460 H 0.66957 0.24381 0.79866 0.0
H461 H 0.67375 0.24632 0.72118 0.0
H462 H 0.65419 0.22798 0.68177 0.0
H463 H 0.65561 0.19857 0.69985 0.0
H464 H 0.31938 0.98709 0.00261 0.0
H465 H 0.29585 1.00049 0.0058 0.0
H466 H 0.2971 1.00017 0.1978 0.0
H467 H 0.32082 0.98713 0.19506 0.0
H468 H 0.27011 0.98981 0.05815 0.0
H469 H 0.28868 0.04846 0.15994 0.0
H470 H 0.30091 0.0337 0.12743 0.0
H471 H 0.2936 0.03036 0.2002 0.0
C472 C 0.31472 0.98998 0.04558 0.0
C473 C 0.32207 0.98612 0.09859 0.0
C474 C 0.30122 0.99756 0.0473 0.0
C475 C 0.29479 1.00158 0.10201 0.0
C476 C 0.30195 0.99746 0.15505 0.0
H477 H 0.21389 0.05031 0.19231 0.0
H478 H 0.23738 0.03674 0.19514 0.0
C479 C 0.31545 0.98982 0.15338 0.0
C480 C 0.28056 1.00993 0.10328 0.0
H481 H 0.26362 0.0453 0.14672 0.0
C482 C 0.26869 1.00196 0.07743 0.0
C483 C 0.2787 0.02576 0.12866 0.0
C484 C 0.29115 0.03518 0.15523 0.0
C485 C 0.255 1.00928 0.07671 0.0
C486 C 0.25317 0.0252 0.10137 0.0
C487 C 0.26502 0.03312 0.12777 0.0
C488 C 0.23909 0.03391 0.09948 0.0
C489 C 0.24257 0.99976 0.0505 0.0
C490 C 0.23237 0.03722 0.04475 0.0
C491 C 0.21896 0.04501 0.04298 0.0
C492 C 0.212 0.04981 0.09592 0.0
C493 C 0.21896 0.04691 0.15066 0.0
C494 C 0.23237 0.03906 0.15238 0.0
H495 H 0.24482 0.98638 0.04929 0.0
H496 H 0.2326 1.00193 0.07633 0.0
H497 H 0.24066 1.00377 0.00406 0.0
H498 H 0.2375 0.03378 0.00326 0.0
H499 H 0.21408 0.04734 -0.0 0.0
H500 H 0.33 0.52649 0.43102 0.0
H501 H 0.30628 0.51376 0.42936 0.0
H502 H 0.28861 0.55651 0.34457 0.0
H503 H 0.31243 0.56912 0.34398 0.0
H504 H 0.28104 0.52397 0.4809 0.0
H505 H 0.27448 0.51977 0.23536 0.0
H506 H 0.29152 0.52423 0.27057 0.0
H507 H 0.27821 0.54008 0.26271 0.0
C508 C 0.32113 0.53313 0.41119 0.0
C509 C 0.32322 0.5488 0.38705 0.0
C510 C 0.30753 0.52586 0.41072 0.0
C511 C 0.29568 0.53403 0.38593 0.0
C512 C 0.29763 0.54979 0.36281 0.0
H513 H 0.20495 0.51149 0.34721 0.0
H514 H 0.22883 0.52388 0.34737 0.0
C515 C 0.31125 0.55708 0.36319 0.0
C516 C 0.28126 0.52613 0.38541 0.0
H517 H 0.2541 0.51317 0.29334 0.0
C518 C 0.27518 0.52154 0.43986 0.0
C519 C 0.2736 0.52294 0.33186 0.0
C520 C 0.27982 0.52686 0.27174 0.0
C521 C 0.26156 0.51416 0.44234 0.0
C522 C 0.25389 0.51101 0.38881 0.0
C523 C 0.25997 0.51558 0.33435 0.0
C524 C 0.23943 0.50323 0.38841 0.0
C525 C 0.25535 0.51017 0.50241 0.0
C526 C 0.23744 0.48736 0.41054 0.0
C527 C 0.22375 0.48025 0.41084 0.0
C528 C 0.21175 0.48885 0.38882 0.0
C529 C 0.21387 0.50461 0.36553 0.0
C530 C 0.22755 0.51169 0.36519 0.0
H531 H 0.26084 0.51701 0.53902 0.0
H532 H 0.2437 0.51305 0.50387 0.0
H533 H 0.25672 0.49688 0.51075 0.0
H534 H 0.24648 0.48046 0.42765 0.0
H535 H 0.22253 0.46814 0.42935 0.0
H536 H 0.71398 0.04744 0.97123 0.0
H537 H 0.73767 0.03448 0.96729 0.0
H538 H 0.73764 0.03861 0.77595 0.0
H539 H 0.71392 0.05159 0.7795 0.0
H540 H 0.74547 1.00573 0.91137 0.0
H541 H 0.77666 0.05749 0.82004 0.0
H542 H 0.75881 0.06008 0.84968 0.0
H543 H 0.7613 0.05177 0.77591 0.0
C544 C 0.719 0.0456 0.92824 0.0
C545 C 0.71201 0.05059 0.87566 0.0
C546 C 0.73258 0.03824 0.9261 0.0
C547 C 0.73955 0.03573 0.87142 0.0
C548 C 0.73265 0.04073 0.81882 0.0
H549 H 0.82122 0.98898 0.77824 0.0
H550 H 0.79733 1.00166 0.77564 0.0
C551 C 0.71907 0.04816 0.82092 0.0
C552 C 0.75378 0.02733 0.86959 0.0
H553 H 0.78878 0.032 0.82768 0.0
C554 C 0.75494 1.0115 0.89322 0.0
C555 C 0.76615 0.03481 0.84567 0.0
C556 C 0.76576 0.05203 0.82185 0.0
C557 C 0.76807 1.00294 0.89324 0.0
C558 C 0.78045 1.01048 0.8698 0.0
C559 C 0.77928 0.02622 0.84556 0.0
C560 C 0.7948 1.00238 0.87137 0.0
C561 C 0.76852 0.98579 0.91761 0.0
C562 C 0.80136 0.99864 0.92603 0.0
C563 C 0.81498 0.99136 0.92767 0.0
C564 C 0.82239 0.98769 0.87463 0.0
C565 C 0.81576 0.99142 0.81989 0.0
C566 C 0.80214 0.99878 0.81832 0.0
H567 H 0.75765 0.98022 0.91907 0.0
H568 H 0.77562 0.97776 0.89034 0.0
H569 H 0.77286 0.9862 0.96373 0.0
H570 H 0.796 1.00152 0.96757 0.0
H571 H 0.8197 0.98855 0.97058 0.0
H572 H 0.70756 0.50341 0.54002 0.0
H573 H 0.73143 0.51576 0.54355 0.0
H574 H 0.74189 0.48745 0.69894 0.0
H575 H 0.71796 0.47509 0.69602 0.0
H576 H 0.74389 0.53442 0.63437 0.0
H577 H 0.77607 0.47828 0.59003 0.0
H578 H 0.75693 0.47917 0.57716 0.0
H579 H 0.76388 0.47667 0.65139 0.0
C580 C 0.7149 0.49982 0.57514 0.0
C581 C 0.71079 0.48822 0.61777 0.0
C582 C 0.72859 0.50686 0.57691 0.0
C583 C 0.73855 0.50241 0.62105 0.0
C584 C 0.73452 0.49083 0.66366 0.0
H585 H 0.82588 0.53311 0.70625 0.0
H586 H 0.80197 0.52076 0.70518 0.0
C587 C 0.72081 0.48376 0.66191 0.0
C588 C 0.75296 0.51029 0.62335 0.0
H589 H 0.78898 0.50227 0.61684 0.0
C590 C 0.75375 0.5274 0.63033 0.0
C591 C 0.76583 0.50113 0.61822 0.0
C592 C 0.7657 0.48282 0.60824 0.0
C593 C 0.76703 0.53556 0.63321 0.0
C594 C 0.77991 0.52641 0.62784 0.0
C595 C 0.77912 0.50929 0.62103 0.0
C596 C 0.79432 0.53432 0.62902 0.0
C597 C 0.76714 0.55387 0.64335 0.0
C598 C 0.79805 0.54602 0.58636 0.0
C599 C 0.81175 0.55311 0.5868 0.0
C600 C 0.82207 0.54853 0.62958 0.0
C601 C 0.81827 0.53681 0.67224 0.0
C602 C 0.80458 0.52976 0.67185 0.0
H603 H 0.75687 0.5583 0.66283 0.0
H604 H 0.77609 0.55757 0.67343 0.0
H605 H 0.76861 0.56005 0.60004 0.0
H606 H 0.79046 0.54946 0.55197 0.0
H607 H 0.81436 0.56186 0.55265 0.0
H608 H 0.98479 0.96379 0.87389 0.0
H609 H 1.00507 0.98165 0.89825 0.0
H610 H 0.97759 1.01167 0.00861 0.0
H611 H 0.95733 0.99353 0.98617 0.0
H612 H 1.00872 1.01481 0.87901 0.0
H613 H 1.01094 1.00172 0.12097 0.0
H614 H 1.00069 0.98936 0.06898 0.0
H615 H 0.99372 1.00869 0.09518 0.0
C616 C 0.98307 0.97407 0.90396 0.0
C617 C 0.9694 0.97709 0.92849 0.0
C618 C 0.99467 0.98435 0.91749 0.0
C619 C 0.99294 0.99786 0.95608 0.0
C620 C 0.97927 1.00113 0.97969 0.0
H621 H 0.04968 0.07407 0.09234 0.0
H622 H 0.02944 0.05624 0.06717 0.0
C623 C 0.96764 0.99085 0.9662 0.0
C624 C 1.00541 1.00859 0.97086 0.0
H625 H 0.02595 0.02304 0.08668 0.0
C626 C 1.01252 1.01656 0.92439 0.0
C627 C 1.01039 1.01088 0.03009 0.0
C628 C 1.00364 1.00211 0.08168 0.0
C629 C 0.02428 0.02696 0.9356 0.0
C630 C 0.02925 0.02926 -0.00516 0.0
C631 C 0.02214 0.02129 0.0413 0.0
C632 C 0.04168 0.04004 0.00972 0.0
C633 C 0.03105 0.03572 0.88403 0.0
C634 C 0.05539 0.03677 0.98649 0.0
C635 C 0.067 0.04704 0.00048 0.0
C636 C 0.06518 0.06077 0.03826 0.0
C637 C 0.05146 0.06381 0.06224 0.0
C638 C 0.03988 0.05355 0.04824 0.0
H639 H 0.02379 0.03604 0.8446 0.0
H640 H 0.03394 0.04849 0.89666 0.0
H641 H 0.04101 0.02918 0.8708 0.0
H642 H 0.05712 0.02624 0.95761 0.0
H643 H 0.07736 0.04435 0.98094 0.0
H644 H 0.475 0.9828 0.13668 0.0
H645 H 0.49522 1.00051 0.11195 0.0
H646 H 0.48635 0.99321 0.92478 0.0
H647 H 0.46603 0.97561 0.9492 0.0
H648 H 0.51946 0.99365 0.05053 0.0
H649 H 0.48921 0.04246 0.93409 0.0
H650 H 0.48044 0.02703 0.97778 0.0
H651 H 0.48618 0.02241 0.903 0.0
C652 C 0.47734 0.98497 0.09022 0.0
C653 C 0.46882 0.97782 0.04494 0.0
C654 C 0.48889 0.99515 0.07614 0.0
C655 C 0.49221 0.99845 0.01649 0.0
C656 C 0.4838 0.99124 0.97116 0.0
H657 H 0.56124 0.05207 0.84445 0.0
H658 H 0.54094 0.0342 0.8674 0.0
C659 C 0.47218 0.98114 0.98521 0.0
C660 C 0.50476 1.00898 0.00189 0.0
H661 H 0.51467 0.04345 0.92721 0.0
C662 C 0.51838 1.00458 0.02383 0.0
C663 C 0.5034 0.02327 0.96695 0.0
C664 C 0.489 0.02919 0.94455 0.0
C665 C 0.53066 1.0139 0.01116 0.0
C666 C 0.52929 0.02811 0.97607 0.0
C667 C 0.51571 0.03251 0.95392 0.0
C668 C 0.54182 0.03871 0.96248 0.0
C669 C 0.54506 1.00831 0.03456 0.0
C670 C 0.54901 0.04727 0.00825 0.0
C671 C 0.56061 0.0575 -0.00471 0.0
C672 C 0.56529 0.05938 0.93622 0.0
C673 C 0.55806 0.05075 0.89048 0.0
C674 C 0.54639 0.0406 0.90346 0.0
H675 H 0.54483 0.99531 0.0487 0.0
H676 H 0.55351 1.00973 0.00028 0.0
H677 H 0.54808 1.01597 0.0738 0.0
H678 H 0.54556 0.04617 0.05403 0.0
H679 H 0.56598 0.06387 0.03164 0.0
H680 H 0.97967 0.56216 0.64997 0.0
H681 H 1.00025 0.5448 0.6242 0.0
H682 H 0.98152 0.53486 0.45153 0.0
H683 H 0.96107 0.55254 0.47631 0.0
H684 H 1.00109 0.51155 0.5912 0.0
H685 H 0.02205 0.55062 0.41058 0.0
H686 H 1.0089 0.55786 0.46357 0.0
H687 H 1.00352 0.54495 0.40205 0.0
C688 C 0.97997 0.55641 0.60627 0.0
C689 C 0.96873 0.55887 0.56507 0.0
C690 C 0.99171 0.5464 0.59175 0.0
C691 C 0.99256 0.53873 0.53559 0.0
C692 C 0.98124 0.54089 0.49474 0.0
H693 H 0.05445 0.47418 0.36292 0.0
H694 H 0.0339 0.49151 0.38917 0.0
C695 C 0.96947 0.55086 0.50927 0.0
C696 C 1.0052 0.52835 0.5201 0.0
H697 H 0.03312 0.52465 0.42246 0.0
C698 C 1.00813 0.51444 0.55448 0.0
C699 C 1.01439 0.53213 0.47215 0.0
C700 C 1.01218 0.54727 0.4352 0.0
C701 C 0.01982 0.50406 0.54152 0.0
C702 C 0.02901 0.50784 0.49354 0.0
C703 C 0.02608 0.52175 0.4592 0.0
C704 C 0.04162 0.49743 0.47788 0.0
C705 C 0.02203 0.48891 0.57843 0.0
C706 C 0.05294 0.49518 0.51862 0.0
C707 C 0.0647 0.48521 0.50382 0.0
C708 C 0.06542 0.4773 0.44784 0.0
C709 C 0.05416 0.47985 0.40676 0.0
C710 C 0.04244 0.48984 0.42155 0.0
H711 H 1.01216 0.48558 0.60307 0.0
H712 H 0.02529 0.47833 0.55003 0.0
H713 H 0.03069 0.49122 0.61157 0.0
H714 H 0.05269 0.50114 0.56196 0.0
H715 H 0.07311 0.48347 0.53668 0.0
H716 H 0.45635 0.54292 0.49272 0.0
H717 H 0.47669 0.52491 0.51561 0.0
H718 H 0.5056 0.55923 0.43494 0.0
H719 H 0.48539 0.57719 0.41124 0.0
H720 H 0.49671 0.51013 0.43856 0.0
H721 H 0.52381 0.55214 0.59924 0.0
H722 H 0.50545 0.55508 0.57534 0.0
H723 H 0.52001 0.56108 0.5281 0.0
C724 C 0.46702 0.54661 0.47945 0.0
C725 C 0.46919 0.56161 0.45046 0.0
C726 C 0.47865 0.53633 0.49287 0.0
C727 C 0.49271 0.54084 0.47798 0.0
C728 C 0.4949 0.55566 0.44823 0.0
H729 H 0.57713 0.49553 0.51442 0.0
H730 H 0.55678 0.51357 0.49217 0.0
C731 C 0.4833 0.56594 0.43474 0.0
C732 C 0.50506 0.52993 0.49245 0.0
H733 H 0.53679 0.52835 0.5697 0.0
C734 C 0.50543 0.51408 0.46749 0.0
C735 C 0.51648 0.5351 0.53007 0.0
C736 C 0.51641 0.55172 0.56023 0.0
C737 C 0.51701 0.50338 0.47822 0.0
C738 C 0.52843 0.50856 0.51581 0.0
C739 C 0.52806 0.52441 0.54078 0.0
C740 C 0.5408 0.49765 0.53014 0.0
C741 C 0.51708 0.48676 0.44806 0.0
C742 C 0.53864 0.48283 0.55991 0.0
C743 C 0.55025 0.47254 0.57304 0.0
C744 C 0.56434 0.47684 0.55692 0.0
C745 C 0.56648 0.49185 0.528 0.0
C746 C 0.55485 0.50216 0.51494 0.0
H747 H 0.50966 0.48632 0.40915 0.0
H748 H 0.52804 0.48342 0.4328 0.0
H749 H 0.51353 0.4774 0.48024 0.0
H750 H 0.52796 0.47927 0.57343 0.0
H751 H 0.54819 0.46127 0.5965 0.0
loop_
_geom_bond_atom_site_label_1
_geom_bond_atom_site_label_2
_geom_bond_distance
_geom_bond_site_symmetry_2
_ccdc_geom_bond_type
C0 C1 1.264 . S
C0 C5 1.479 . S
C0 C10 1.465 . S
C1 C0 1.264 . S
C1 C3 1.339 . S
C1 H28 0.931 . S
C2 C3 1.395 . S
C2 C4 1.320 . S
C3 C1 1.339 . S
C3 C2 1.395 . S
C3 H29 0.929 . S
C4 C2 1.320 . S
C4 C5 1.405 . S
C4 H30 0.930 . S
C5 C0 1.479 . S
C5 C4 1.405 . S
C5 H31 0.931 . S
U6 O7 2.454 . S
U6 O8 2.458 . S
U6 C9 2.984 . S
U6 C10 2.847 . S
U6 C23 2.882 . S
U6 O24 2.441 . S
U6 O25 2.420 . S
U6 O26 2.455 . S
U6 O27 2.449 . S
O7 U6 2.454 . S
O7 C9 1.353 . S
O8 U6 2.458 . S
O8 C9 1.286 . S
C9 U6 2.984 . S
C9 O7 1.353 . S
C9 O8 1.286 . S
C9 C11 1.363 . S
C10 C0 1.465 . S
C10 U6 2.847 . S
C10 O24 1.249 . S
C10 O25 1.202 . S
C11 C9 1.363 . S
C11 C13 1.408 . S
C11 C16 1.342 . S
C12 C13 1.310 . S
C12 C15 1.461 . S
C12 H32 0.932 . S
C13 C11 1.408 . S
C13 C12 1.310 . S
C13 H33 0.930 . S
C14 C15 1.474 . S
C14 C16 1.285 . S
C14 H34 0.929 . S
C15 C12 1.461 . S
C15 C14 1.474 . S
C16 C11 1.342 . S
C16 C14 1.285 . S
C16 H35 0.930 . S
C17 C20 1.424 . S
C17 C22 1.245 . S
C17 C23 1.428 . S
C18 C21 1.260 . S
C18 C22 1.477 . S
C18 H36 0.932 . S
C19 C20 1.384 . S
C19 C21 1.479 . S
C19 H37 0.929 . S
C20 C17 1.424 . S
C20 C19 1.384 . S
C20 H38 0.928 . S
C21 C18 1.260 . S
C21 C19 1.479 . S
C22 C17 1.245 . S
C22 C18 1.477 . S
C22 H39 0.932 . S
C23 U6 2.882 . S
C23 C17 1.428 . S
C23 O26 1.301 . S
C23 O27 1.282 . S
O24 U6 2.441 . S
O24 C10 1.249 . S
O25 U6 2.420 . S
O25 C10 1.202 . S
O26 U6 2.455 . S
O26 C23 1.301 . S
O27 U6 2.449 . S
O27 C23 1.282 . S
H28 C1 0.931 . S
H29 C3 0.929 . S
H30 C4 0.930 . S
H31 C5 0.931 . S
H32 C12 0.932 . S
H33 C13 0.930 . S
H34 C14 0.929 . S
H35 C16 0.930 . S
H36 C18 0.932 . S
H37 C19 0.929 . S
H38 C20 0.928 . S
H39 C22 0.932 . S
C40 C41 1.264 . S
C40 C45 1.479 . S
C40 C50 1.465 . S
C41 C40 1.264 . S
C41 C43 1.339 . S
C41 H68 0.931 . S
C42 C43 1.395 . S
C42 C44 1.320 . S
C43 C41 1.339 . S
C43 C42 1.395 . S
C43 H69 0.929 . S
C44 C42 1.320 . S
C44 C45 1.405 . S
C44 H70 0.930 . S
C45 C40 1.479 . S
C45 C44 1.405 . S
C45 H71 0.931 . S
U46 O47 2.454 . S
U46 O48 2.458 . S
U46 C49 2.984 . S
U46 C50 2.847 . S
U46 C63 2.882 . S
U46 O64 2.441 . S
U46 O65 2.420 . S
U46 O66 2.455 . S
U46 O67 2.449 . S
O47 U46 2.454 . S
O47 C49 1.353 . S
O48 U46 2.458 . S
O48 C49 1.286 . S
C49 U46 2.984 . S
C49 O47 1.353 . S
C49 O48 1.286 . S
C49 C51 1.363 . S
C50 C40 1.465 . S
C50 U46 2.847 . S
C50 O64 1.249 . S
C50 O65 1.202 . S
C51 C49 1.363 . S
C51 C53 1.408 . S
C51 C56 1.342 . S
C52 C53 1.310 . S
C52 C55 1.461 . S
C52 H72 0.932 . S
C53 C51 1.408 . S
C53 C52 1.310 . S
C53 H73 0.930 . S
C54 C55 1.474 . S
C54 C56 1.285 . S
C54 H74 0.929 . S
C55 C52 1.461 . S
C55 C54 1.474 . S
C56 C51 1.342 . S
C56 C54 1.285 . S
C56 H75 0.930 . S
C57 C60 1.424 . S
C57 C62 1.245 . S
C57 C63 1.428 . S
C58 C61 1.260 . S
C58 C62 1.477 . S
C58 H76 0.932 . S
C59 C60 1.384 . S
C59 C61 1.479 . S
C59 H77 0.929 . S
C60 C57 1.424 . S
C60 C59 1.384 . S
C60 H78 0.928 . S
C61 C58 1.260 . S
C61 C59 1.479 . S
C62 C57 1.245 . S
C62 C58 1.477 . S
C62 H79 0.932 . S
C63 U46 2.882 . S
C63 C57 1.428 . S
C63 O66 1.301 . S
C63 O67 1.282 . S
O64 U46 2.441 . S
O64 C50 1.249 . S
O65 U46 2.420 . S
O65 C50 1.202 . S
O66 U46 2.455 . S
O66 C63 1.301 . S
O67 U46 2.449 . S
O67 C63 1.282 . S
H68 C41 0.931 . S
H69 C43 0.929 . S
H70 C44 0.930 . S
H71 C45 0.931 . S
H72 C52 0.932 . S
H73 C53 0.930 . S
H74 C54 0.929 . S
H75 C56 0.930 . S
H76 C58 0.932 . S
H77 C59 0.929 . S
H78 C60 0.928 . S
H79 C62 0.932 . S
C80 C81 1.264 . S
C80 C85 1.479 . S
C80 C90 1.465 . S
C81 C80 1.264 . S
C81 C83 1.339 . S
C81 H108 0.931 . S
C82 C83 1.395 . S
C82 C84 1.320 . S
C83 C81 1.339 . S
C83 C82 1.395 . S
C83 H109 0.929 . S
C84 C82 1.320 . S
C84 C85 1.405 . S
C84 H110 0.930 . S
C85 C80 1.479 . S
C85 C84 1.405 . S
C85 H111 0.931 . S
U86 O87 2.454 . S
U86 O88 2.458 . S
U86 C89 2.984 . S
U86 C90 2.847 . S
U86 C103 2.882 . S
U86 O104 2.441 . S
U86 O105 2.420 . S
U86 O106 2.455 . S
U86 O107 2.449 . S
O87 U86 2.454 . S
O87 C89 1.353 . S
O88 U86 2.458 . S
O88 C89 1.286 . S
C89 U86 2.984 . S
C89 O87 1.353 . S
C89 O88 1.286 . S
C89 C91 1.363 . S
C90 C80 1.465 . S
C90 U86 2.847 . S
C90 O104 1.249 . S
C90 O105 1.202 . S
C91 C89 1.363 . S
C91 C93 1.408 . S
C91 C96 1.342 . S
C92 C93 1.310 . S
C92 C95 1.461 . S
C92 H112 0.932 . S
C93 C91 1.408 . S
C93 C92 1.310 . S
C93 H113 0.930 . S
C94 C95 1.474 . S
C94 C96 1.285 . S
C94 H114 0.929 . S
C95 C92 1.461 . S
C95 C94 1.474 . S
C96 C91 1.342 . S
C96 C94 1.285 . S
C96 H115 0.930 . S
C97 C100 1.424 . S
C97 C102 1.245 . S
C97 C103 1.428 . S
C98 C101 1.260 . S
C98 C102 1.477 . S
C98 H116 0.932 . S
C99 C100 1.384 . S
C99 C101 1.479 . S
C99 H117 0.929 . S
C100 C97 1.424 . S
C100 C99 1.384 . S
C100 H118 0.928 . S
C101 C98 1.260 . S
C101 C99 1.479 . S
C102 C97 1.245 . S
C102 C98 1.477 . S
C102 H119 0.932 . S
C103 U86 2.882 . S
C103 C97 1.428 . S
C103 O106 1.301 . S
C103 O107 1.282 . S
O104 U86 2.441 . S
O104 C90 1.249 . S
O105 U86 2.420 . S
O105 C90 1.202 . S
O106 U86 2.455 . S
O106 C103 1.301 . S
O107 U86 2.449 . S
O107 C103 1.282 . S
H108 C81 0.931 . S
H109 C83 0.929 . S
H110 C84 0.930 . S
H111 C85 0.931 . S
H112 C92 0.932 . S
H113 C93 0.930 . S
H114 C94 0.929 . S
H115 C96 0.930 . S
H116 C98 0.932 . S
H117 C99 0.929 . S
H118 C100 0.928 . S
H119 C102 0.932 . S
C120 C121 1.264 . S
C120 C125 1.479 . S
C120 C130 1.465 . S
C121 C120 1.264 . S
C121 C123 1.339 . S
C121 H148 0.931 . S
C122 C123 1.395 . S
C122 C124 1.320 . S
C123 C121 1.339 . S
C123 C122 1.395 . S
C123 H149 0.929 . S
C124 C122 1.320 . S
C124 C125 1.405 . S
C124 H150 0.930 . S
C125 C120 1.479 . S
C125 C124 1.405 . S
C125 H151 0.931 . S
U126 O127 2.454 . S
U126 O128 2.458 . S
U126 C129 2.984 . S
U126 C130 2.847 . S
U126 C143 2.882 . S
U126 O144 2.441 . S
U126 O145 2.420 . S
U126 O146 2.455 . S
U126 O147 2.449 . S
O127 U126 2.454 . S
O127 C129 1.353 . S
O128 U126 2.458 . S
O128 C129 1.286 . S
C129 U126 2.984 . S
C129 O127 1.353 . S
C129 O128 1.286 . S
C129 C131 1.363 . S
C130 C120 1.465 . S
C130 U126 2.847 . S
C130 O144 1.249 . S
C130 O145 1.202 . S
C131 C129 1.363 . S
C131 C133 1.408 . S
C131 C136 1.342 . S
C132 C133 1.310 . S
C132 C135 1.461 . S
C132 H152 0.932 . S
C133 C131 1.408 . S
C133 C132 1.310 . S
C133 H153 0.930 . S
C134 C135 1.474 . S
C134 C136 1.285 . S
C134 H154 0.929 . S
C135 C132 1.461 . S
C135 C134 1.474 . S
C136 C131 1.342 . S
C136 C134 1.285 . S
C136 H155 0.930 . S
C137 C140 1.424 . S
C137 C142 1.245 . S
C137 C143 1.428 . S
C138 C141 1.260 . S
C138 C142 1.477 . S
C138 H156 0.932 . S
C139 C140 1.384 . S
C139 C141 1.479 . S
C139 H157 0.929 . S
C140 C137 1.424 . S
C140 C139 1.384 . S
C140 H158 0.928 . S
C141 C138 1.260 . S
C141 C139 1.479 . S
C142 C137 1.245 . S
C142 C138 1.477 . S
C142 H159 0.932 . S
C143 U126 2.882 . S
C143 C137 1.428 . S
C143 O146 1.301 . S
C143 O147 1.282 . S
O144 U126 2.441 . S
O144 C130 1.249 . S
O145 U126 2.420 . S
O145 C130 1.202 . S
O146 U126 2.455 . S
O146 C143 1.301 . S
O147 U126 2.449 . S
O147 C143 1.282 . S
H148 C121 0.931 . S
H149 C123 0.929 . S
H150 C124 0.930 . S
H151 C125 0.931 . S
H152 C132 0.932 . S
H153 C133 0.930 . S
H154 C134 0.929 . S
H155 C136 0.930 . S
H156 C138 0.932 . S
H157 C139 0.929 . S
H158 C140 0.928 . S
H159 C142 0.932 . S
C160 C161 1.264 . S
C160 C165 1.479 . S
C160 C170 1.465 . S
C161 C160 1.264 . S
C161 C163 1.339 . S
C161 H188 0.931 . S
C162 C163 1.395 . S
C162 C164 1.320 . S
C163 C161 1.339 . S
C163 C162 1.395 . S
C163 H189 0.929 . S
C164 C162 1.320 . S
C164 C165 1.405 . S
C164 H190 0.930 . S
C165 C160 1.479 . S
C165 C164 1.405 . S
C165 H191 0.931 . S
U166 O167 2.454 . S
U166 O168 2.458 . S
U166 C169 2.984 . S
U166 C170 2.847 . S
U166 C183 2.882 . S
U166 O184 2.441 . S
U166 O185 2.420 . S
U166 O186 2.455 . S
U166 O187 2.449 . S
O167 U166 2.454 . S
O167 C169 1.353 . S
O168 U166 2.458 . S
O168 C169 1.286 . S
C169 U166 2.984 . S
C169 O167 1.353 . S
C169 O168 1.286 . S
C169 C171 1.363 . S
C170 C160 1.465 . S
C170 U166 2.847 . S
C170 O184 1.249 . S
C170 O185 1.202 . S
C171 C169 1.363 . S
C171 C173 1.408 . S
C171 C176 1.342 . S
C172 C173 1.310 . S
C172 C175 1.461 . S
C172 H192 0.932 . S
C173 C171 1.408 . S
C173 C172 1.310 . S
C173 H193 0.930 . S
C174 C175 1.474 . S
C174 C176 1.285 . S
C174 H194 0.929 . S
C175 C172 1.461 . S
C175 C174 1.474 . S
C176 C171 1.342 . S
C176 C174 1.285 . S
C176 H195 0.930 . S
C177 C180 1.424 . S
C177 C182 1.245 . S
C177 C183 1.428 . S
C178 C181 1.260 . S
C178 C182 1.477 . S
C178 H196 0.932 . S
C179 C180 1.384 . S
C179 C181 1.479 . S
C179 H197 0.929 . S
C180 C177 1.424 . S
C180 C179 1.384 . S
C180 H198 0.928 . S
C181 C178 1.260 . S
C181 C179 1.479 . S
C182 C177 1.245 . S
C182 C178 1.477 . S
C182 H199 0.932 . S
C183 U166 2.882 . S
C183 C177 1.428 . S
C183 O186 1.301 . S
C183 O187 1.282 . S
O184 U166 2.441 . S
O184 C170 1.249 . S
O185 U166 2.420 . S
O185 C170 1.202 . S
O186 U166 2.455 . S
O186 C183 1.301 . S
O187 U166 2.449 . S
O187 C183 1.282 . S
H188 C161 0.931 . S
H189 C163 0.929 . S
H190 C164 0.930 . S
H191 C165 0.931 . S
H192 C172 0.932 . S
H193 C173 0.930 . S
H194 C174 0.929 . S
H195 C176 0.930 . S
H196 C178 0.932 . S
H197 C179 0.929 . S
H198 C180 0.928 . S
H199 C182 0.932 . S
C200 C201 1.264 . S
C200 C205 1.479 . S
C200 C210 1.465 . S
C201 C200 1.264 . S
C201 C203 1.339 . S
C201 H228 0.931 . S
C202 C203 1.395 . S
C202 C204 1.320 . S
C203 C201 1.339 . S
C203 C202 1.395 . S
C203 H229 0.929 . S
C204 C202 1.320 . S
C204 C205 1.405 . S
C204 H230 0.930 . S
C205 C200 1.479 . S
C205 C204 1.405 . S
C205 H231 0.931 . S
U206 O207 2.454 . S
U206 O208 2.458 . S
U206 C209 2.984 . S
U206 C210 2.847 . S
U206 C223 2.882 . S
U206 O224 2.441 . S
U206 O225 2.420 . S
U206 O226 2.455 . S
U206 O227 2.449 . S
O207 U206 2.454 . S
O207 C209 1.353 . S
O208 U206 2.458 . S
O208 C209 1.286 . S
C209 U206 2.984 . S
C209 O207 1.353 . S
C209 O208 1.286 . S
C209 C211 1.363 . S
C210 C200 1.465 . S
C210 U206 2.847 . S
C210 O224 1.249 . S
C210 O225 1.202 . S
C211 C209 1.363 . S
C211 C213 1.408 . S
C211 C216 1.342 . S
C212 C213 1.310 . S
C212 C215 1.461 . S
C212 H232 0.932 . S
C213 C211 1.408 . S
C213 C212 1.310 . S
C213 H233 0.930 . S
C214 C215 1.474 . S
C214 C216 1.285 . S
C214 H234 0.929 . S
C215 C212 1.461 . S
C215 C214 1.474 . S
C216 C211 1.342 . S
C216 C214 1.285 . S
C216 H235 0.930 . S
C217 C220 1.424 . S
C217 C222 1.245 . S
C217 C223 1.428 . S
C218 C221 1.260 . S
C218 C222 1.477 . S
C218 H236 0.932 . S
C219 C220 1.384 . S
C219 C221 1.479 . S
C219 H237 0.929 . S
C220 C217 1.424 . S
C220 C219 1.384 . S
C220 H238 0.928 . S
C221 C218 1.260 . S
C221 C219 1.479 . S
C222 C217 1.245 . S
C222 C218 1.477 . S
C222 H239 0.932 . S
C223 U206 2.882 . S
C223 C217 1.428 . S
C223 O226 1.301 . S
C223 O227 1.282 . S
O224 U206 2.441 . S
O224 C210 1.249 . S
O225 U206 2.420 . S
O225 C210 1.202 . S
O226 U206 2.455 . S
O226 C223 1.301 . S
O227 U206 2.449 . S
O227 C223 1.282 . S
H228 C201 0.931 . S
H229 C203 0.929 . S
H230 C204 0.930 . S
H231 C205 0.931 . S
H232 C212 0.932 . S
H233 C213 0.930 . S
H234 C214 0.929 . S
H235 C216 0.930 . S
H236 C218 0.932 . S
H237 C219 0.929 . S
H238 C220 0.928 . S
H239 C222 0.932 . S
C240 C241 1.264 . S
C240 C245 1.479 . S
C240 C250 1.465 . S
C241 C240 1.264 . S
C241 C243 1.339 . S
C241 H268 0.931 . S
C242 C243 1.395 . S
C242 C244 1.320 . S
C243 C241 1.339 . S
C243 C242 1.395 . S
C243 H269 0.929 . S
C244 C242 1.320 . S
C244 C245 1.405 . S
C244 H270 0.930 . S
C245 C240 1.479 . S
C245 C244 1.405 . S
C245 H271 0.931 . S
U246 O247 2.454 . S
U246 O248 2.458 . S
U246 C249 2.984 . S
U246 C250 2.847 . S
U246 C263 2.882 . S
U246 O264 2.441 . S
U246 O265 2.420 . S
U246 O266 2.455 . S
U246 O267 2.449 . S
O247 U246 2.454 . S
O247 C249 1.353 . S
O248 U246 2.458 . S
O248 C249 1.286 . S
C249 U246 2.984 . S
C249 O247 1.353 . S
C249 O248 1.286 . S
C249 C251 1.363 . S
C250 C240 1.465 . S
C250 U246 2.847 . S
C250 O264 1.249 . S
C250 O265 1.202 . S
C251 C249 1.363 . S
C251 C253 1.408 . S
C251 C256 1.342 . S
C252 C253 1.310 . S
C252 C255 1.461 . S
C252 H272 0.932 . S
C253 C251 1.408 . S
C253 C252 1.310 . S
C253 H273 0.930 . S
C254 C255 1.474 . S
C254 C256 1.285 . S
C254 H274 0.929 . S
C255 C252 1.461 . S
C255 C254 1.474 . S
C256 C251 1.342 . S
C256 C254 1.285 . S
C256 H275 0.930 . S
C257 C260 1.424 . S
C257 C262 1.245 . S
C257 C263 1.428 . S
C258 C261 1.260 . S
C258 C262 1.477 . S
C258 H276 0.932 . S
C259 C260 1.384 . S
C259 C261 1.479 . S
C259 H277 0.929 . S
C260 C257 1.424 . S
C260 C259 1.384 . S
C260 H278 0.928 . S
C261 C258 1.260 . S
C261 C259 1.479 . S
C262 C257 1.245 . S
C262 C258 1.477 . S
C262 H279 0.932 . S
C263 U246 2.882 . S
C263 C257 1.428 . S
C263 O266 1.301 . S
C263 O267 1.282 . S
O264 U246 2.441 . S
O264 C250 1.249 . S
O265 U246 2.420 . S
O265 C250 1.202 . S
O266 U246 2.455 . S
O266 C263 1.301 . S
O267 U246 2.449 . S
O267 C263 1.282 . S
H268 C241 0.931 . S
H269 C243 0.929 . S
H270 C244 0.930 . S
H271 C245 0.931 . S
H272 C252 0.932 . S
H273 C253 0.930 . S
H274 C254 0.929 . S
H275 C256 0.930 . S
H276 C258 0.932 . S
H277 C259 0.929 . S
H278 C260 0.928 . S
H279 C262 0.932 . S
C280 C281 1.264 . S
C280 C285 1.479 . S
C280 C290 1.465 . S
C281 C280 1.264 . S
C281 C283 1.339 . S
C281 H308 0.931 . S
C282 C283 1.395 . S
C282 C284 1.320 . S
C283 C281 1.339 . S
C283 C282 1.395 . S
C283 H309 0.929 . S
C284 C282 1.320 . S
C284 C285 1.405 . S
C284 H310 0.930 . S
C285 C280 1.479 . S
C285 C284 1.405 . S
C285 H311 0.931 . S
U286 O287 2.454 . S
U286 O288 2.458 . S
U286 C289 2.984 . S
U286 C290 2.847 . S
U286 C303 2.882 . S
U286 O304 2.441 . S
U286 O305 2.420 . S
U286 O306 2.455 . S
U286 O307 2.449 . S
O287 U286 2.454 . S
O287 C289 1.353 . S
O288 U286 2.458 . S
O288 C289 1.286 . S
C289 U286 2.984 . S
C289 O287 1.353 . S
C289 O288 1.286 . S
C289 C291 1.363 . S
C290 C280 1.465 . S
C290 U286 2.847 . S
C290 O304 1.249 . S
C290 O305 1.202 . S
C291 C289 1.363 . S
C291 C293 1.408 . S
C291 C296 1.342 . S
C292 C293 1.310 . S
C292 C295 1.461 . S
C292 H312 0.932 . S
C293 C291 1.408 . S
C293 C292 1.310 . S
C293 H313 0.930 . S
C294 C295 1.474 . S
C294 C296 1.285 . S
C294 H314 0.929 . S
C295 C292 1.461 . S
C295 C294 1.474 . S
C296 C291 1.342 . S
C296 C294 1.285 . S
C296 H315 0.930 . S
C297 C300 1.424 . S
C297 C302 1.245 . S
C297 C303 1.428 . S
C298 C301 1.260 . S
C298 C302 1.477 . S
C298 H316 0.932 . S
C299 C300 1.384 . S
C299 C301 1.479 . S
C299 H317 0.929 . S
C300 C297 1.424 . S
C300 C299 1.384 . S
C300 H318 0.928 . S
C301 C298 1.260 . S
C301 C299 1.479 . S
C302 C297 1.245 . S
C302 C298 1.477 . S
C302 H319 0.932 . S
C303 U286 2.882 . S
C303 C297 1.428 . S
C303 O306 1.301 . S
C303 O307 1.282 . S
O304 U286 2.441 . S
O304 C290 1.249 . S
O305 U286 2.420 . S
O305 C290 1.202 . S
O306 U286 2.455 . S
O306 C303 1.301 . S
O307 U286 2.449 . S
O307 C303 1.282 . S
H308 C281 0.931 . S
H309 C283 0.929 . S
H310 C284 0.930 . S
H311 C285 0.931 . S
H312 C292 0.932 . S
H313 C293 0.930 . S
H314 C294 0.929 . S
H315 C296 0.930 . S
H316 C298 0.932 . S
H317 C299 0.929 . S
H318 C300 0.928 . S
H319 C302 0.932 . S
H320 C328 0.929 . S
H321 C330 0.930 . S
H322 C332 0.930 . S
H323 C335 0.929 . S
H324 C338 0.930 . S
H325 C340 0.960 . S
H326 C340 0.960 . S
H327 C340 0.960 . S
C328 H320 0.929 . S
C328 C329 1.377 . S
C328 C330 1.384 . S
C329 C328 1.377 . S
C329 C335 1.390 . S
C330 H321 0.930 . S
C330 C328 1.384 . S
C330 C331 1.372 . S
C331 C330 1.372 . S
C331 C332 1.400 . S
C331 C336 1.490 . S
C332 H322 0.930 . S
C332 C331 1.400 . S
C332 C335 1.386 . S
H333 C349 0.930 . S
H334 C350 0.931 . S
C335 H323 0.929 . S
C335 C329 1.390 . S
C335 C332 1.386 . S
C336 C331 1.490 . S
C336 C338 1.395 . S
C336 C339 1.403 . S
H337 C343 0.930 . S
C338 H324 0.930 . S
C338 C336 1.395 . S
C338 C341 1.403 . S
C339 C336 1.403 . S
C339 C340 1.524 . S
C339 C343 1.400 . S
C340 H325 0.960 . S
C340 H326 0.960 . S
C340 H327 0.960 . S
C340 C339 1.524 . S
C341 C338 1.403 . S
C341 C342 1.392 . S
C341 C345 1.495 . S
C342 C341 1.392 . S
C342 C343 1.385 . S
C342 C344 1.478 . S
C343 H337 0.930 . S
C343 C339 1.400 . S
C343 C342 1.385 . S
C344 C342 1.478 . S
C344 C346 1.381 . S
C344 C350 1.383 . S
C345 C341 1.495 . S
C345 H351 0.959 . S
C345 H352 0.961 . S
C345 H353 0.960 . S
C346 C344 1.381 . S
C346 C347 1.394 . S
C346 H354 0.930 . S
C347 C346 1.394 . S
C347 C348 1.383 . S
C347 H355 0.929 . S
C348 C347 1.383 . S
C348 C349 1.377 . S
C349 H333 0.930 . S
C349 C348 1.377 . S
C349 C350 1.379 . S
C350 H334 0.931 . S
C350 C344 1.383 . S
C350 C349 1.379 . S
H351 C345 0.959 . S
H352 C345 0.961 . S
H353 C345 0.960 . S
H354 C346 0.930 . S
H355 C347 0.929 . S
H356 C364 0.929 . S
H357 C366 0.930 . S
H358 C368 0.930 . S
H359 C371 0.929 . S
H360 C374 0.930 . S
H361 C376 0.960 . S
H362 C376 0.960 . S
H363 C376 0.960 . S
C364 H356 0.929 . S
C364 C365 1.377 . S
C364 C366 1.384 . S
C365 C364 1.377 . S
C365 C371 1.390 . S
C366 H357 0.930 . S
C366 C364 1.384 . S
C366 C367 1.372 . S
C367 C366 1.372 . S
C367 C368 1.400 . S
C367 C372 1.490 . S
C368 H358 0.930 . S
C368 C367 1.400 . S
C368 C371 1.386 . S
H369 C385 0.930 . S
H370 C386 0.931 . S
C371 H359 0.929 . S
C371 C365 1.390 . S
C371 C368 1.386 . S
C372 C367 1.490 . S
C372 C374 1.395 . S
C372 C375 1.403 . S
H373 C379 0.930 . S
C374 H360 0.930 . S
C374 C372 1.395 . S
C374 C377 1.403 . S
C375 C372 1.403 . S
C375 C376 1.524 . S
C375 C379 1.400 . S
C376 H361 0.960 . S
C376 H362 0.960 . S
C376 H363 0.960 . S
C376 C375 1.524 . S
C377 C374 1.403 . S
C377 C378 1.392 . S
C377 C381 1.495 . S
C378 C377 1.392 . S
C378 C379 1.385 . S
C378 C380 1.478 . S
C379 H373 0.930 . S
C379 C375 1.400 . S
C379 C378 1.385 . S
C380 C378 1.478 . S
C380 C382 1.381 . S
C380 C386 1.383 . S
C381 C377 1.495 . S
C381 H387 0.959 . S
C381 H388 0.961 . S
C381 H389 0.960 . S
C382 C380 1.381 . S
C382 C383 1.394 . S
C382 H390 0.930 . S
C383 C382 1.394 . S
C383 C384 1.383 . S
C383 H391 0.929 . S
C384 C383 1.383 . S
C384 C385 1.377 . S
C385 H369 0.930 . S
C385 C384 1.377 . S
C385 C386 1.379 . S
C386 H370 0.931 . S
C386 C380 1.383 . S
C386 C385 1.379 . S
H387 C381 0.959 . S
H388 C381 0.961 . S
H389 C381 0.960 . S
H390 C382 0.930 . S
H391 C383 0.929 . S
H392 C400 0.929 . S
H393 C402 0.930 . S
H394 C404 0.930 . S
H395 C407 0.929 . S
H396 C410 0.930 . S
H397 C412 0.960 . S
H398 C412 0.960 . S
H399 C412 0.960 . S
C400 H392 0.929 . S
C400 C401 1.377 . S
C400 C402 1.384 . S
C401 C400 1.377 . S
C401 C407 1.390 . S
C402 H393 0.930 . S
C402 C400 1.384 . S
C402 C403 1.372 . S
C403 C402 1.372 . S
C403 C404 1.400 . S
C403 C408 1.490 . S
C404 H394 0.930 . S
C404 C403 1.400 . S
C404 C407 1.386 . S
H405 C421 0.930 . S
H406 C422 0.931 . S
C407 H395 0.929 . S
C407 C401 1.390 . S
C407 C404 1.386 . S
C408 C403 1.490 . S
C408 C410 1.395 . S
C408 C411 1.403 . S
H409 C415 0.930 . S
C410 H396 0.930 . S
C410 C408 1.395 . S
C410 C413 1.403 . S
C411 C408 1.403 . S
C411 C412 1.524 . S
C411 C415 1.400 . S
C412 H397 0.960 . S
C412 H398 0.960 . S
C412 H399 0.960 . S
C412 C411 1.524 . S
C413 C410 1.403 . S
C413 C414 1.392 . S
C413 C417 1.495 . S
C414 C413 1.392 . S
C414 C415 1.385 . S
C414 C416 1.478 . S
C415 H409 0.930 . S
C415 C411 1.400 . S
C415 C414 1.385 . S
C416 C414 1.478 . S
C416 C418 1.381 . S
C416 C422 1.383 . S
C417 C413 1.495 . S
C417 H423 0.959 . S
C417 H424 0.961 . S
C417 H425 0.960 . S
C418 C416 1.381 . S
C418 C419 1.394 . S
C418 H426 0.930 . S
C419 C418 1.394 . S
C419 C420 1.383 . S
C419 H427 0.929 . S
C420 C419 1.383 . S
C420 C421 1.377 . S
C421 H405 0.930 . S
C421 C420 1.377 . S
C421 C422 1.379 . S
C422 H406 0.931 . S
C422 C416 1.383 . S
C422 C421 1.379 . S
H423 C417 0.959 . S
H424 C417 0.961 . S
H425 C417 0.960 . S
H426 C418 0.930 . S
H427 C419 0.929 . S
H428 C436 0.929 . S
H429 C438 0.930 . S
H430 C440 0.930 . S
H431 C443 0.929 . S
H432 C446 0.930 . S
H433 C448 0.960 . S
H434 C448 0.960 . S
H435 C448 0.960 . S
C436 H428 0.929 . S
C436 C437 1.377 . S
C436 C438 1.384 . S
C437 C436 1.377 . S
C437 C443 1.390 . S
C438 H429 0.930 . S
C438 C436 1.384 . S
C438 C439 1.372 . S
C439 C438 1.372 . S
C439 C440 1.400 . S
C439 C444 1.490 . S
C440 H430 0.930 . S
C440 C439 1.400 . S
C440 C443 1.386 . S
H441 C457 0.930 . S
H442 C458 0.931 . S
C443 H431 0.929 . S
C443 C437 1.390 . S
C443 C440 1.386 . S
C444 C439 1.490 . S
C444 C446 1.395 . S
C444 C447 1.403 . S
H445 C451 0.930 . S
C446 H432 0.930 . S
C446 C444 1.395 . S
C446 C449 1.403 . S
C447 C444 1.403 . S
C447 C448 1.524 . S
C447 C451 1.400 . S
C448 H433 0.960 . S
C448 H434 0.960 . S
C448 H435 0.960 . S
C448 C447 1.524 . S
C449 C446 1.403 . S
C449 C450 1.392 . S
C449 C453 1.495 . S
C450 C449 1.392 . S
C450 C451 1.385 . S
C450 C452 1.478 . S
C451 H445 0.930 . S
C451 C447 1.400 . S
C451 C450 1.385 . S
C452 C450 1.478 . S
C452 C454 1.381 . S
C452 C458 1.383 . S
C453 C449 1.495 . S
C453 H459 0.959 . S
C453 H460 0.961 . S
C453 H461 0.960 . S
C454 C452 1.381 . S
C454 C455 1.394 . S
C454 H462 0.930 . S
C455 C454 1.394 . S
C455 C456 1.383 . S
C455 H463 0.929 . S
C456 C455 1.383 . S
C456 C457 1.377 . S
C457 H441 0.930 . S
C457 C456 1.377 . S
C457 C458 1.379 . S
C458 H442 0.931 . S
C458 C452 1.383 . S
C458 C457 1.379 . S
H459 C453 0.959 . S
H460 C453 0.961 . S
H461 C453 0.960 . S
H462 C454 0.930 . S
H463 C455 0.929 . S
H464 C472 0.929 . S
H465 C474 0.930 . S
H466 C476 0.930 . S
H467 C479 0.929 . S
H468 C482 0.930 . S
H469 C484 0.960 . S
H470 C484 0.960 . S
H471 C484 0.960 . S
C472 H464 0.929 . S
C472 C473 1.377 . S
C472 C474 1.384 . S
C473 C472 1.377 . S
C473 C479 1.390 . S
C474 H465 0.930 . S
C474 C472 1.384 . S
C474 C475 1.372 . S
C475 C474 1.372 . S
C475 C476 1.400 . S
C475 C480 1.490 . S
C476 H466 0.930 . S
C476 C475 1.400 . S
C476 C479 1.386 . S
H477 C493 0.930 . S
H478 C494 0.931 . S
C479 H467 0.929 . S
C479 C473 1.390 . S
C479 C476 1.386 . S
C480 C475 1.490 . S
C480 C482 1.395 . S
C480 C483 1.403 1_565 S
H481 C487 0.930 . S
C482 H468 0.930 . S
C482 C480 1.395 . S
C482 C485 1.403 . S
C483 C480 1.403 1_545 S
C483 C484 1.524 . S
C483 C487 1.400 . S
C484 H469 0.960 . S
C484 H470 0.960 . S
C484 H471 0.960 . S
C484 C483 1.524 . S
C485 C482 1.403 . S
C485 C486 1.392 1_565 S
C485 C489 1.495 . S
C486 C485 1.392 1_545 S
C486 C487 1.385 . S
C486 C488 1.478 . S
C487 H481 0.930 . S
C487 C483 1.400 . S
C487 C486 1.385 . S
C488 C486 1.478 . S
C488 C490 1.381 . S
C488 C494 1.383 . S
C489 C485 1.495 . S
C489 H495 0.959 . S
C489 H496 0.961 . S
C489 H497 0.960 . S
C490 C488 1.381 . S
C490 C491 1.394 . S
C490 H498 0.930 . S
C491 C490 1.394 . S
C491 C492 1.383 . S
C491 H499 0.929 . S
C492 C491 1.383 . S
C492 C493 1.377 . S
C493 H477 0.930 . S
C493 C492 1.377 . S
C493 C494 1.379 . S
C494 H478 0.931 . S
C494 C488 1.383 . S
C494 C493 1.379 . S
H495 C489 0.959 . S
H496 C489 0.961 . S
H497 C489 0.960 . S
H498 C490 0.930 . S
H499 C491 0.929 . S
H500 C508 0.929 . S
H501 C510 0.930 . S
H502 C512 0.930 . S
H503 C515 0.929 . S
H504 C518 0.930 . S
H505 C520 0.960 . S
H506 C520 0.960 . S
H507 C520 0.960 . S
C508 H500 0.929 . S
C508 C509 1.377 . S
C508 C510 1.384 . S
C509 C508 1.377 . S
C509 C515 1.390 . S
C510 H501 0.930 . S
C510 C508 1.384 . S
C510 C511 1.372 . S
C511 C510 1.372 . S
C511 C512 1.400 . S
C511 C516 1.490 . S
C512 H502 0.930 . S
C512 C511 1.400 . S
C512 C515 1.386 . S
H513 C529 0.930 . S
H514 C530 0.931 . S
C515 H503 0.929 . S
C515 C509 1.390 . S
C515 C512 1.386 . S
C516 C511 1.490 . S
C516 C518 1.395 . S
C516 C519 1.403 . S
H517 C523 0.930 . S
C518 H504 0.930 . S
C518 C516 1.395 . S
C518 C521 1.403 . S
C519 C516 1.403 . S
C519 C520 1.524 . S
C519 C523 1.400 . S
C520 H505 0.960 . S
C520 H506 0.960 . S
C520 H507 0.960 . S
C520 C519 1.524 . S
C521 C518 1.403 . S
C521 C522 1.392 . S
C521 C525 1.495 . S
C522 C521 1.392 . S
C522 C523 1.385 . S
C522 C524 1.478 . S
C523 H517 0.930 . S
C523 C519 1.400 . S
C523 C522 1.385 . S
C524 C522 1.478 . S
C524 C526 1.381 . S
C524 C530 1.383 . S
C525 C521 1.495 . S
C525 H531 0.959 . S
C525 H532 0.961 . S
C525 H533 0.960 . S
C526 C524 1.381 . S
C526 C527 1.394 . S
C526 H534 0.930 . S
C527 C526 1.394 . S
C527 C528 1.383 . S
C527 H535 0.929 . S
C528 C527 1.383 . S
C528 C529 1.377 . S
C529 H513 0.930 . S
C529 C528 1.377 . S
C529 C530 1.379 . S
C530 H514 0.931 . S
C530 C524 1.383 . S
C530 C529 1.379 . S
H531 C525 0.959 . S
H532 C525 0.961 . S
H533 C525 0.960 . S
H534 C526 0.930 . S
H535 C527 0.929 . S
H536 C544 0.929 . S
H537 C546 0.930 . S
H538 C548 0.930 . S
H539 C551 0.929 . S
H540 C554 0.930 . S
H541 C556 0.960 . S
H542 C556 0.960 . S
H543 C556 0.960 . S
C544 H536 0.929 . S
C544 C545 1.377 . S
C544 C546 1.384 . S
C545 C544 1.377 . S
C545 C551 1.390 . S
C546 H537 0.930 . S
C546 C544 1.384 . S
C546 C547 1.372 . S
C547 C546 1.372 . S
C547 C548 1.400 . S
C547 C552 1.490 . S
C548 H538 0.930 . S
C548 C547 1.400 . S
C548 C551 1.386 . S
H549 C565 0.930 . S
H550 C566 0.931 . S
C551 H539 0.929 . S
C551 C545 1.390 . S
C551 C548 1.386 . S
C552 C547 1.490 . S
C552 C554 1.395 1_545 S
C552 C555 1.403 . S
H553 C559 0.930 . S
C554 H540 0.930 . S
C554 C552 1.395 1_565 S
C554 C557 1.403 . S
C555 C552 1.403 . S
C555 C556 1.524 . S
C555 C559 1.400 . S
C556 H541 0.960 . S
C556 H542 0.960 . S
C556 H543 0.960 . S
C556 C555 1.524 . S
C557 C554 1.403 . S
C557 C558 1.392 . S
C557 C561 1.495 . S
C558 C557 1.392 . S
C558 C559 1.385 1_565 S
C558 C560 1.478 . S
C559 H553 0.930 . S
C559 C555 1.400 . S
C559 C558 1.385 1_545 S
C560 C558 1.478 . S
C560 C562 1.381 . S
C560 C566 1.383 . S
C561 C557 1.495 . S
C561 H567 0.959 . S
C561 H568 0.961 . S
C561 H569 0.960 . S
C562 C560 1.381 . S
C562 C563 1.394 . S
C562 H570 0.930 . S
C563 C562 1.394 . S
C563 C564 1.383 . S
C563 H571 0.929 . S
C564 C563 1.383 . S
C564 C565 1.377 . S
C565 H549 0.930 . S
C565 C564 1.377 . S
C565 C566 1.379 . S
C566 H550 0.931 . S
C566 C560 1.383 . S
C566 C565 1.379 . S
H567 C561 0.959 . S
H568 C561 0.961 . S
H569 C561 0.960 . S
H570 C562 0.930 . S
H571 C563 0.929 . S
H572 C580 0.929 . S
H573 C582 0.930 . S
H574 C584 0.930 . S
H575 C587 0.929 . S
H576 C590 0.930 . S
H577 C592 0.960 . S
H578 C592 0.960 . S
H579 C592 0.960 . S
C580 H572 0.929 . S
C580 C581 1.377 . S
C580 C582 1.384 . S
C581 C580 1.377 . S
C581 C587 1.390 . S
C582 H573 0.930 . S
C582 C580 1.384 . S
C582 C583 1.372 . S
C583 C582 1.372 . S
C583 C584 1.400 . S
C583 C588 1.490 . S
C584 H574 0.930 . S
C584 C583 1.400 . S
C584 C587 1.386 . S
H585 C601 0.930 . S
H586 C602 0.931 . S
C587 H575 0.929 . S
C587 C581 1.390 . S
C587 C584 1.386 . S
C588 C583 1.490 . S
C588 C590 1.395 . S
C588 C591 1.403 . S
H589 C595 0.930 . S
C590 H576 0.930 . S
C590 C588 1.395 . S
C590 C593 1.403 . S
C591 C588 1.403 . S
C591 C592 1.524 . S
C591 C595 1.400 . S
C592 H577 0.960 . S
C592 H578 0.960 . S
C592 H579 0.960 . S
C592 C591 1.524 . S
C593 C590 1.403 . S
C593 C594 1.392 . S
C593 C597 1.495 . S
C594 C593 1.392 . S
C594 C595 1.385 . S
C594 C596 1.478 . S
C595 H589 0.930 . S
C595 C591 1.400 . S
C595 C594 1.385 . S
C596 C594 1.478 . S
C596 C598 1.381 . S
C596 C602 1.383 . S
C597 C593 1.495 . S
C597 H603 0.959 . S
C597 H604 0.961 . S
C597 H605 0.960 . S
C598 C596 1.381 . S
C598 C599 1.394 . S
C598 H606 0.930 . S
C599 C598 1.394 . S
C599 C600 1.383 . S
C599 H607 0.929 . S
C600 C599 1.383 . S
C600 C601 1.377 . S
C601 H585 0.930 . S
C601 C600 1.377 . S
C601 C602 1.379 . S
C602 H586 0.931 . S
C602 C596 1.383 . S
C602 C601 1.379 . S
H603 C597 0.959 . S
H604 C597 0.961 . S
H605 C597 0.960 . S
H606 C598 0.930 . S
H607 C599 0.929 . S
H608 C616 0.929 . S
H609 C618 0.930 . S
H610 C620 0.937 . S
H611 C623 0.929 1_554 S
H612 C626 0.930 . S
H613 C628 0.960 . S
H614 C628 0.960 . S
H615 C628 0.960 . S
C616 H608 0.929 . S
C616 C617 1.377 . S
C616 C618 1.384 . S
C617 C616 1.377 . S
C617 C623 1.390 . S
C618 H609 0.930 . S
C618 C616 1.384 . S
C618 C619 1.372 . S
C619 C618 1.372 . S
C619 C620 1.395 1_556 S
C619 C624 1.490 . S
C620 H610 0.937 . S
C620 C619 1.395 1_554 S
C620 C623 1.384 1_554 S
H621 C637 0.930 . S
H622 C638 0.931 . S
C623 H611 0.929 1_556 S
C623 C617 1.390 . S
C623 C620 1.384 1_556 S
C624 C619 1.490 . S
C624 C626 1.395 . S
C624 C627 1.403 1_556 S
H625 C631 0.930 . S
C626 H612 0.930 . S
C626 C624 1.395 . S
C626 C629 1.403 1_665 S
C627 C624 1.403 1_554 S
C627 C628 1.524 . S
C627 C631 1.400 1_665 S
C628 H613 0.960 . S
C628 H614 0.960 . S
C628 H615 0.960 . S
C628 C627 1.524 . S
C629 C626 1.403 1_445 S
C629 C630 1.401 . S
C629 C633 1.495 . S
C630 C629 1.401 . S
C630 C631 1.378 1_556 S
C630 C632 1.476 1_556 S
C631 H625 0.930 . S
C631 C627 1.400 1_445 S
C631 C630 1.378 1_554 S
C632 C630 1.476 1_554 S
C632 C634 1.381 1_554 S
C632 C638 1.383 . S
C633 C629 1.495 . S
C633 H639 0.959 . S
C633 H640 0.961 . S
C633 H641 0.960 . S
C634 C632 1.381 1_556 S
C634 C635 1.394 1_556 S
C634 H642 0.930 . S
C635 C634 1.394 1_554 S
C635 C636 1.383 . S
C635 H643 0.929 1_554 S
C636 C635 1.383 . S
C636 C637 1.377 . S
C637 H621 0.930 . S
C637 C636 1.377 . S
C637 C638 1.379 . S
C638 H622 0.931 . S
C638 C632 1.383 . S
C638 C637 1.379 . S
H639 C633 0.959 . S
H640 C633 0.961 . S
H641 C633 0.960 . S
H642 C634 0.930 . S
H643 C635 0.929 1_556 S
H644 C652 0.929 . S
H645 C654 0.930 . S
H646 C656 0.930 . S
H647 C659 0.929 . S
H648 C662 0.930 . S
H649 C664 0.960 . S
H650 C664 0.960 . S
H651 C664 0.960 . S
C652 H644 0.929 . S
C652 C653 1.377 . S
C652 C654 1.384 . S
C653 C652 1.377 . S
C653 C659 1.390 1_554 S
C654 H645 0.930 . S
C654 C652 1.384 . S
C654 C655 1.372 . S
C655 C654 1.372 . S
C655 C656 1.400 1_554 S
C655 C660 1.490 . S
C656 H646 0.930 . S
C656 C655 1.400 1_556 S
C656 C659 1.386 . S
H657 C673 0.930 . S
H658 C674 0.931 . S
C659 H647 0.929 . S
C659 C653 1.390 1_556 S
C659 C656 1.386 . S
C660 C655 1.490 . S
C660 C662 1.395 . S
C660 C663 1.403 1_564 S
H661 C667 0.930 . S
C662 H648 0.930 . S
C662 C660 1.395 . S
C662 C665 1.403 . S
C663 C660 1.403 1_546 S
C663 C664 1.524 . S
C663 C667 1.400 . S
C664 H649 0.960 . S
C664 H650 0.960 . S
C664 H651 0.960 . S
C664 C663 1.524 . S
C665 C662 1.403 . S
C665 C666 1.392 1_564 S
C665 C669 1.495 . S
C666 C665 1.392 1_546 S
C666 C667 1.385 . S
C666 C668 1.478 . S
C667 H661 0.930 . S
C667 C663 1.400 . S
C667 C666 1.385 . S
C668 C666 1.478 . S
C668 C670 1.381 1_556 S
C668 C674 1.383 . S
C669 C665 1.495 . S
C669 H675 0.959 . S
C669 H676 0.961 . S
C669 H677 0.960 . S
C670 C668 1.381 1_554 S
C670 C671 1.394 . S
C670 H678 0.930 . S
C671 C670 1.394 . S
C671 C672 1.383 1_554 S
C671 H679 0.929 . S
C672 C671 1.383 1_556 S
C672 C673 1.377 . S
C673 H657 0.930 . S
C673 C672 1.377 . S
C673 C674 1.379 . S
C674 H658 0.931 . S
C674 C668 1.383 . S
C674 C673 1.379 . S
H675 C669 0.959 . S
H676 C669 0.961 . S
H677 C669 0.960 . S
H678 C670 0.930 . S
H679 C671 0.929 . S
H680 C688 0.929 . S
H681 C690 0.930 . S
H682 C692 0.930 . S
H683 C695 0.929 . S
H684 C698 0.930 . S
H685 C700 0.960 1_455 S
H686 C700 0.960 . S
H687 C700 0.960 . S
C688 H680 0.929 . S
C688 C689 1.377 . S
C688 C690 1.384 . S
C689 C688 1.377 . S
C689 C695 1.390 . S
C690 H681 0.930 . S
C690 C688 1.384 . S
C690 C691 1.372 . S
C691 C690 1.372 . S
C691 C692 1.400 . S
C691 C696 1.490 . S
C692 H682 0.930 . S
C692 C691 1.400 . S
C692 C695 1.386 . S
H693 C709 0.930 . S
H694 C710 0.931 . S
C695 H683 0.929 . S
C695 C689 1.390 . S
C695 C692 1.386 . S
C696 C691 1.490 . S
C696 C698 1.395 . S
C696 C699 1.403 . S
H697 C703 0.930 . S
C698 H684 0.930 . S
C698 C696 1.395 . S
C698 C701 1.336 1_655 S
C699 C696 1.403 . S
C699 C700 1.524 . S
C699 C703 1.400 1_655 S
C700 H685 0.960 1_655 S
C700 H686 0.960 . S
C700 H687 0.960 . S
C700 C699 1.524 . S
C701 C698 1.336 1_455 S
C701 C702 1.455 . S
C701 C705 1.501 . S
C702 C701 1.455 . S
C702 C703 1.385 . S
C702 C704 1.478 . S
C703 H697 0.930 . S
C703 C699 1.400 1_455 S
C703 C702 1.385 . S
C704 C702 1.478 . S
C704 C706 1.381 . S
C704 C710 1.383 . S
C705 C701 1.501 . S
C705 H711 0.959 1_455 S
C705 H712 0.961 . S
C705 H713 0.960 . S
C706 C704 1.381 . S
C706 C707 1.394 . S
C706 H714 0.930 . S
C707 C706 1.394 . S
C707 C708 1.383 . S
C707 H715 0.929 . S
C708 C707 1.383 . S
C708 C709 1.377 . S
C709 H693 0.930 . S
C709 C708 1.377 . S
C709 C710 1.379 . S
C710 H694 0.931 . S
C710 C704 1.383 . S
C710 C709 1.379 . S
H711 C705 0.959 1_655 S
H712 C705 0.961 . S
H713 C705 0.960 . S
H714 C706 0.930 . S
H715 C707 0.929 . S
H716 C724 0.929 . S
H717 C726 0.930 . S
H718 C728 0.930 . S
H719 C731 0.929 . S
H720 C734 0.930 . S
H721 C736 0.960 . S
H722 C736 0.960 . S
H723 C736 0.960 . S
C724 H716 0.929 . S
C724 C725 1.377 . S
C724 C726 1.384 . S
C725 C724 1.377 . S
C725 C731 1.390 . S
C726 H717 0.930 . S
C726 C724 1.384 . S
C726 C727 1.372 . S
C727 C726 1.372 . S
C727 C728 1.400 . S
C727 C732 1.490 . S
C728 H718 0.930 . S
C728 C727 1.400 . S
C728 C731 1.386 . S
H729 C745 0.930 . S
H730 C746 0.931 . S
C731 H719 0.929 . S
C731 C725 1.390 . S
C731 C728 1.386 . S
C732 C727 1.490 . S
C732 C734 1.395 . S
C732 C735 1.403 . S
H733 C739 0.930 . S
C734 H720 0.930 . S
C734 C732 1.395 . S
C734 C737 1.403 . S
C735 C732 1.403 . S
C735 C736 1.524 . S
C735 C739 1.400 . S
C736 H721 0.960 . S
C736 H722 0.960 . S
C736 H723 0.960 . S
C736 C735 1.524 . S
C737 C734 1.403 . S
C737 C738 1.392 . S
C737 C741 1.495 . S
C738 C737 1.392 . S
C738 C739 1.385 . S
C738 C740 1.478 . S
C739 H733 0.930 . S
C739 C735 1.400 . S
C739 C738 1.385 . S
C740 C738 1.478 . S
C740 C742 1.381 . S
C740 C746 1.383 . S
C741 C737 1.495 . S
C741 H747 0.959 . S
C741 H748 0.961 . S
C741 H749 0.960 . S
C742 C740 1.381 . S
C742 C743 1.394 . S
C742 H750 0.930 . S
C743 C742 1.394 . S
C743 C744 1.383 . S
C743 H751 0.929 . S
C744 C743 1.383 . S
C744 C745 1.377 . S
C745 H729 0.930 . S
C745 C744 1.377 . S
C745 C746 1.379 . S
C746 H730 0.931 . S
C746 C740 1.383 . S
C746 C745 1.379 . S
H747 C741 0.959 . S
H748 C741 0.961 . S
H749 C741 0.960 . S
H750 C742 0.930 . S
H751 C743 0.929 . S
C329 C15 1.500 . S
C348 C95 1.497 . S
C365 C55 1.500 . S
C384 C135 1.497 . S
C401 C175 1.500 . S
C420 C255 1.495 . S
C437 C295 1.500 . S
C456 C215 1.497 . S
C473 C61 1.487 . S
C492 C21 1.483 . S
C509 C141 1.491 . S
C528 C101 1.474 . S
C545 C221 1.490 . S
C564 C181 1.492 . S
C581 C301 1.491 . S
C600 C261 1.487 . S
C617 C162 1.486 . S
C636 C2 1.474 . S
C653 C42 1.491 . S
C672 C202 1.493 . S
C689 C242 1.484 . S
C708 C82 1.474 . S
C725 C122 1.487 . S
C744 C282 1.490 . S
