# Generated by pormake.
# Topology uoc, (4)-cn, num edge types: 1
# Building blocks:
#     Node 0, Type 0, BuildingBlock: QUQFOY_clean_sbu_3, # of connection points: 4
#     Node 1, Type 0, BuildingBlock: QUQFOY_clean_sbu_3, # of connection points: 4
#     Node 2, Type 0, BuildingBlock: QUQFOY_clean_sbu_3, # of connection points: 4
#     Node 3, Type 0, BuildingBlock: QUQFOY_clean_sbu_3, # of connection points: 4
#     Node 4, Type 0, BuildingBlock: QUQFOY_clean_sbu_3, # of connection points: 4
#     Node 5, Type 0, BuildingBlock: QUQFOY_clean_sbu_3, # of connection points: 4
#     Node 6, Type 0, BuildingBlock: QUQFOY_clean_sbu_3, # of connection points: 4
#     Node 7, Type 0, BuildingBlock: QUQFOY_clean_sbu_3, # of connection points: 4
#     Edge 8, Type (0, 0), BuildingBlock: EZIPEK_clean_linker_0, # of connection points: 2
#     Edge 9, Type (0, 0), BuildingBlock: EZIPEK_clean_linker_0, # of connection points: 2
#     Edge 10, Type (0, 0), BuildingBlock: EZIPEK_clean_linker_0, # of connection points: 2
#     Edge 11, Type (0, 0), BuildingBlock: EZIPEK_clean_linker_0, # of connection points: 2
#     Edge 12, Type (0, 0), BuildingBlock: EZIPEK_clean_linker_0, # of connection points: 2
#     Edge 13, Type (0, 0), BuildingBlock: EZIPEK_clean_linker_0, # of connection points: 2
#     Edge 14, Type (0, 0), BuildingBlock: EZIPEK_clean_linker_0, # of connection points: 2
#     Edge 15, Type (0, 0), BuildingBlock: EZIPEK_clean_linker_0, # of connection points: 2
#     Edge 16, Type (0, 0), BuildingBlock: EZIPEK_clean_linker_0, # of connection points: 2
#     Edge 17, Type (0, 0), BuildingBlock: EZIPEK_clean_linker_0, # of connection points: 2
#     Edge 18, Type (0, 0), BuildingBlock: EZIPEK_clean_linker_0, # of connection points: 2
#     Edge 19, Type (0, 0), BuildingBlock: EZIPEK_clean_linker_0, # of connection points: 2
#     Edge 20, Type (0, 0), BuildingBlock: EZIPEK_clean_linker_0, # of connection points: 2
#     Edge 21, Type (0, 0), BuildingBlock: EZIPEK_clean_linker_0, # of connection points: 2
#     Edge 22, Type (0, 0), BuildingBlock: EZIPEK_clean_linker_0, # of connection points: 2
#     Edge 23, Type (0, 0), BuildingBlock: EZIPEK_clean_linker_0, # of connection points: 2
# Relax obj value: 0.101
# Max RMSD: 0.112
# Mean RMSD: 0.112
data_MOF--net-uoc--node1-QUQFOY_clean_sbu_3--edge1-EZIPEK_clean_linker_0
_symmetry_space_group_name_H-M    P1
_symmetry_Int_Tables_number       1
_symmetry_cell_setting            triclinic
loop_
_symmetry_equiv_pos_as_xyz
'x, y, z'
_cell_length_a     20.546455
_cell_length_b     20.584685
_cell_length_c     43.788804
_cell_angle_alpha  90.430834
_cell_angle_beta   89.911648
_cell_angle_gamma 95.696628
loop_
_atom_site_label
_atom_site_type_symbol
_atom_site_fract_x
_atom_site_fract_y
_atom_site_fract_z
_atom_type_partial_charge
C0 C 0.23313 0.25155 0.0233 0.0
O1 O 0.28023 0.24244 0.0408 0.0
Cd2 Cd 0.24407 0.19522 0.08896 0.0
O3 O 0.17628 0.25301 0.03452 0.0
Cd4 Cd 0.13169 0.26434 0.08612 0.0
C5 C 0.09361 0.108 0.07903 0.0
O6 O 0.21815 0.27558 0.12556 0.0
O7 O 0.12167 0.2312 0.13852 0.0
O8 O 0.12764 0.38048 0.07874 0.0
C9 C 0.17829 0.25534 0.14648 0.0
O10 O 0.15464 0.10622 0.08369 0.0
C11 C 0.06636 0.3788 0.08283 0.0
O12 O 0.06911 0.16201 0.07698 0.0
O13 O 0.03496 0.32368 0.08806 0.0
C14 C 0.73934 0.69418 0.39378 0.0
O15 O 0.69893 0.7224 0.37802 0.0
Cd16 Cd 0.67977 0.6933 0.32513 0.0
O17 O 0.77318 0.65266 0.38151 0.0
Cd18 Cd 0.78284 0.60132 0.33116 0.0
C19 C 0.62876 0.53349 0.33617 0.0
O20 O 0.7763 0.68931 0.29355 0.0
O21 O 0.75655 0.58934 0.27758 0.0
O22 O 0.90147 0.60933 0.33775 0.0
C23 C 0.7683 0.64934 0.27125 0.0
O24 O 0.61313 0.58863 0.32741 0.0
C25 C 0.90526 0.54848 0.33464 0.0
O26 O 0.68785 0.52455 0.34184 0.0
O27 O 0.85245 0.51231 0.33003 0.0
C28 C 0.22817 0.2395 0.52551 0.0
O29 O 0.18528 0.25966 0.54311 0.0
Cd30 Cd 0.21876 0.3028 0.59293 0.0
O31 O 0.28467 0.23176 0.53576 0.0
Cd32 Cd 0.34595 0.23388 0.58346 0.0
C33 C 0.36354 0.39725 0.57974 0.0
O34 O 0.25921 0.21762 0.62239 0.0
O35 O 0.35801 0.24665 0.63768 0.0
O36 O 0.36517 0.12122 0.57392 0.0
C37 C 0.29885 0.2295 0.64447 0.0
O38 O 0.30318 0.39504 0.58681 0.0
C39 C 0.42707 0.13165 0.57456 0.0
O40 O 0.39142 0.34544 0.57555 0.0
O41 O 0.45176 0.19019 0.57854 0.0
C42 C 0.74003 0.75167 0.89137 0.0
O43 O 0.76577 0.71318 0.87328 0.0
Cd44 Cd 0.78821 0.74628 0.82123 0.0
O45 O 0.71985 0.80398 0.8816 0.0
Cd46 Cd 0.70887 0.8585 0.83252 0.0
C47 C 0.86982 0.89669 0.8331 0.0
O48 O 0.69411 0.77271 0.79256 0.0
O49 O 0.72813 0.87137 0.77866 0.0
O50 O 0.59406 0.87169 0.84138 0.0
C51 C 0.70627 0.81375 0.7712 0.0
O52 O 0.87345 0.83825 0.82401 0.0
C53 C 0.60153 0.93355 0.83992 0.0
O54 O 0.81524 0.917 0.83996 0.0
O55 O 0.65915 0.96063 0.83599 0.0
C56 C 0.71963 0.72516 0.52446 0.0
O57 O 0.74986 0.69383 0.54378 0.0
Cd58 Cd 0.70761 0.67996 0.59475 0.0
O59 O 0.67141 0.75539 0.5326 0.0
Cd60 Cd 0.6144 0.77858 0.58048 0.0
C61 C 0.54847 0.625 0.57917 0.0
O62 O 0.69579 0.77985 0.62217 0.0
O63 O 0.59346 0.75933 0.63415 0.0
O64 O 0.62373 0.89558 0.56978 0.0
C65 C 0.65203 0.77317 0.6428 0.0
O66 O 0.60308 0.61243 0.59019 0.0
C67 C 0.5628 0.90034 0.57223 0.0
O68 O 0.53881 0.68243 0.57111 0.0
O69 O 0.52592 0.84837 0.57735 0.0
C70 C 0.22567 0.24337 0.89212 0.0
O71 O 0.20107 0.2822 0.87412 0.0
Cd72 Cd 0.16592 0.24233 0.82413 0.0
O73 O 0.24258 0.18949 0.88203 0.0
Cd74 Cd 0.25498 0.13319 0.8333 0.0
C75 C 0.09624 0.08538 0.83592 0.0
O76 O 0.25937 0.22026 0.79467 0.0
O77 O 0.2412 0.12004 0.77912 0.0
O78 O 0.37119 0.13265 0.84332 0.0
C79 C 0.25254 0.17991 0.77251 0.0
O80 O 0.08842 0.14382 0.82854 0.0
C81 C 0.37071 0.07116 0.84069 0.0
O82 O 0.15268 0.06757 0.84086 0.0
O83 O 0.31619 0.03828 0.83553 0.0
C84 C 0.76044 0.74827 0.02267 0.0
O85 O 0.72394 0.78151 0.03855 0.0
Cd86 Cd 0.75293 0.80659 0.09119 0.0
O87 O 0.80875 0.72449 0.03484 0.0
Cd88 Cd 0.85907 0.72159 0.08536 0.0
C89 C 0.90626 0.88063 0.08177 0.0
O90 O 0.76896 0.71351 0.12319 0.0
O91 O 0.86705 0.74534 0.13911 0.0
O92 O 0.86845 0.60533 0.07955 0.0
C93 C 0.80842 0.72486 0.14542 0.0
O94 O 0.848 0.88838 0.08981 0.0
C95 C 0.93027 0.61066 0.08209 0.0
O96 O 0.92361 0.8242 0.07632 0.0
O97 O 0.95915 0.66766 0.08555 0.0
C98 C 0.23795 0.2233 0.39544 0.0
O99 O 0.25121 0.17696 0.37806 0.0
Cd100 Cd 0.29861 0.20907 0.32924 0.0
O101 O 0.23714 0.28029 0.38464 0.0
Cd102 Cd 0.24086 0.3326 0.3346 0.0
C103 C 0.40134 0.34896 0.34061 0.0
O104 O 0.21913 0.24715 0.29516 0.0
O105 O 0.27003 0.34024 0.28166 0.0
O106 O 0.12756 0.35271 0.34062 0.0
C107 C 0.2407 0.28554 0.27403 0.0
O108 O 0.39655 0.28796 0.3347 0.0
C109 C 0.13776 0.41423 0.33822 0.0
O110 O 0.35073 0.37905 0.34397 0.0
O111 O 0.19658 0.4387 0.33491 0.0
C112 C 0.20097 0.30115 -0.02575 0.0
C113 C 0.24222 0.26085 -0.01021 0.0
C114 C 0.28923 0.23518 0.94041 0.0
C115 C 0.23553 0.25904 0.92517 0.0
N116 N 0.13246 0.30732 0.93015 0.0
N117 N 0.32057 0.17987 -0.01461 0.0
C118 C 0.18943 0.29089 0.94262 0.0
C119 C 0.28582 0.22568 -0.0276 0.0
N120 N 0.17324 0.34957 -0.0105 0.0
N121 N 0.34369 0.22206 0.9245 0.0
H122 H 0.3166 0.16624 0.00817 0.0
H123 H 0.34805 0.14974 -0.02755 0.0
H124 H 0.34975 0.23264 0.90134 0.0
H125 H 0.38569 0.2088 0.9352 0.0
H126 H 0.14639 0.3828 -0.02157 0.0
H127 H 0.18427 0.36155 0.01224 0.0
H128 H 0.09578 0.32528 0.94332 0.0
H129 H 0.11794 0.29645 0.90782 0.0
C130 C 0.73864 0.71653 0.22624 0.0
C131 C 0.7773 0.67004 0.23905 0.0
C132 C 0.82414 0.65092 0.18875 0.0
C133 C 0.79193 0.70283 0.17677 0.0
N134 N 0.72344 0.79001 0.18424 0.0
N135 N 0.86667 0.60271 0.23367 0.0
C136 C 0.75028 0.737 0.19551 0.0
C137 C 0.82267 0.63976 0.22061 0.0
N138 N 0.68924 0.73909 0.24295 0.0
N139 N 0.85471 0.61101 0.16951 0.0
H140 H 0.86897 0.59491 0.25712 0.0
H141 H 0.9053 0.58536 0.22168 0.0
H142 H 0.85523 0.61665 0.14585 0.0
H143 H 0.87346 0.56844 0.17665 0.0
H144 H 0.65516 0.76776 0.23383 0.0
H145 H 0.67878 0.72466 0.26534 0.0
H146 H 0.69873 0.82145 0.19773 0.0
H147 H 0.72967 0.80509 0.16163 0.0
C148 C 0.24543 0.17231 0.47909 0.0
C149 C 0.21463 0.22413 0.4927 0.0
C150 C 0.17597 0.25101 0.44205 0.0
C151 C 0.22255 0.21323 0.42841 0.0
N152 N 0.30841 0.14154 0.43593 0.0
N153 N 0.15478 0.31904 0.4851 0.0
C154 C 0.25854 0.17376 0.4473 0.0
C155 C 0.17989 0.26473 0.4738 0.0
N156 N 0.26228 0.1218 0.49649 0.0
N157 N 0.12798 0.27376 0.42473 0.0
H158 H 0.15888 0.33439 0.50773 0.0
H159 H 0.13524 0.35286 0.47104 0.0
H160 H 0.12172 0.26166 0.40166 0.0
H161 H 0.09009 0.29753 0.43416 0.0
H162 H 0.28067 0.08062 0.48713 0.0
H163 H 0.25027 0.11766 0.51962 0.0
H164 H 0.33951 0.11798 0.44995 0.0
H165 H 0.32349 0.14341 0.41327 0.0
C166 C 0.64114 0.83178 0.72474 0.0
C167 C 0.68969 0.79822 0.73898 0.0
C168 C 0.71028 0.74333 0.69056 0.0
C169 C 0.66722 0.78277 0.67567 0.0
N170 N 0.60064 0.87312 0.67765 0.0
N171 N 0.77668 0.72814 0.73524 0.0
C172 C 0.63498 0.82932 0.69252 0.0
C173 C 0.72594 0.75544 0.72188 0.0
N174 N 0.59947 0.86441 0.74216 0.0
N175 N 0.734 0.69263 0.67522 0.0
H176 H 0.7888 0.73507 0.75824 0.0
H177 H 0.80966 0.70263 0.72306 0.0
H178 H 0.72292 0.68162 0.65244 0.0
H179 H 0.75988 0.65802 0.68576 0.0
H180 H 0.55897 0.88445 0.73329 0.0
H181 H 0.60137 0.86561 0.76597 0.0
H182 H 0.58219 0.91258 0.68853 0.0
H183 H 0.59597 0.87405 0.65396 0.0
C184 C 0.26289 0.23823 0.22277 0.0
C185 C 0.22269 0.27308 0.24191 0.0
C186 C 0.15792 0.30117 0.19806 0.0
C187 C 0.19513 0.26252 0.17912 0.0
N188 N 0.27571 0.18553 0.1737 0.0
N189 N 0.1259 0.3286 0.24947 0.0
C190 C 0.24582 0.22869 0.19149 0.0
C191 C 0.16827 0.30173 0.23005 0.0
N192 N 0.3181 0.21566 0.23435 0.0
N193 N 0.11475 0.33964 0.18533 0.0
H194 H 0.13229 0.33045 0.2731 0.0
H195 H 0.08155 0.34408 0.24253 0.0
H196 H 0.10605 0.34111 0.16191 0.0
H197 H 0.09179 0.37448 0.19755 0.0
H198 H 0.35349 0.19653 0.22088 0.0
H199 H 0.3307 0.21991 0.25741 0.0
H200 H 0.30806 0.15427 0.18221 0.0
H201 H 0.26426 0.17704 0.15073 0.0
C202 C 0.75877 0.76935 0.47368 0.0
C203 C 0.7317 0.7161 0.49149 0.0
C204 C 0.71746 0.64688 0.44571 0.0
C205 C 0.73967 0.70164 0.42748 0.0
N206 N 0.77898 0.81548 0.42319 0.0
N207 N 0.67794 0.60663 0.49484 0.0
C208 C 0.75964 0.76312 0.44123 0.0
C209 C 0.70989 0.65525 0.47767 0.0
N210 N 0.78511 0.82511 0.488 0.0
N211 N 0.70264 0.58673 0.4325 0.0
H212 H 0.67209 0.60977 0.51843 0.0
H213 H 0.65269 0.56471 0.48562 0.0
H214 H 0.69994 0.57868 0.40902 0.0
H215 H 0.69607 0.54353 0.44483 0.0
H216 H 0.81106 0.86394 0.47686 0.0
H217 H 0.78506 0.83074 0.51171 0.0
H218 H 0.78718 0.86325 0.43125 0.0
H219 H 0.7842 0.81167 0.39956 0.0
C220 C 0.23322 0.17041 0.68691 0.0
C221 C 0.2787 0.22257 0.67701 0.0
C222 C 0.3072 0.24878 0.73024 0.0
C223 C 0.25775 0.20041 0.74011 0.0
N224 N 0.15829 0.13322 0.72707 0.0
N225 N 0.33969 0.32547 0.69039 0.0
C226 C 0.21566 0.16705 0.71819 0.0
C227 C 0.30949 0.26639 0.69904 0.0
N228 N 0.20984 0.12155 0.66738 0.0
N229 N 0.35462 0.2752 0.74976 0.0
H230 H 0.33841 0.34209 0.668 0.0
H231 H 0.3584 0.36085 0.70607 0.0
H232 H 0.35853 0.26086 0.77237 0.0
H233 H 0.39469 0.3062 0.74238 0.0
H234 H 0.18116 0.08 0.67478 0.0
H235 H 0.22486 0.11813 0.64478 0.0
H236 H 0.1239 0.11218 0.71151 0.0
H237 H 0.14156 0.13355 0.74957 0.0
C238 C 0.80725 0.77518 -0.02884 0.0
C239 C 0.75434 0.74634 -0.01102 0.0
C240 C 0.69095 0.71931 0.94234 0.0
C241 C 0.74584 0.74365 0.92469 0.0
N242 N 0.85994 0.78463 0.92175 0.0
N243 N 0.64958 0.68275 -0.00802 0.0
C244 C 0.80525 0.76802 0.93897 0.0
C245 C 0.69704 0.71613 -0.02529 0.0
N246 N 0.85771 0.81299 -0.01515 0.0
N247 N 0.63288 0.70035 0.92816 0.0
H248 H 0.6527 0.67956 0.01569 0.0
H249 H 0.60967 0.65416 -0.01724 0.0
H250 H 0.6278 0.69954 0.90444 0.0
H251 H 0.58906 0.68902 0.93981 0.0
H252 H 0.89352 0.84154 -0.02725 0.0
H253 H 0.86064 0.82137 0.00833 0.0
H254 H 0.90638 0.79538 0.9311 0.0
H255 H 0.86029 0.78261 0.89795 0.0
C256 C 0.04253 0.00844 0.10557 0.0
C257 C 0.04929 0.04702 0.07878 0.0
C258 C 0.95913 0.97862 0.05457 0.0
C259 C 0.95568 0.93752 0.08049 0.0
N260 N -3e-05 0.90634 0.12862 0.0
N261 N 0.02277 0.06324 0.02597 0.0
C262 C -0.0005 0.95011 0.10529 0.0
C263 C 0.00998 0.03054 0.05272 0.0
N264 N 0.07404 0.02952 0.13187 0.0
N265 N 0.91321 0.96861 0.03202 0.0
H266 H 0.06032 0.10095 0.02377 0.0
H267 H 0.00028 0.04943 0.00531 0.0
H268 H 0.87611 0.93018 0.03235 0.0
H269 H 0.90885 0.00092 0.01413 0.0
H270 H 0.06497 0.00741 0.15297 0.0
H271 H 0.10515 0.07261 0.13342 0.0
H272 H 0.03604 0.90893 0.1454 0.0
H273 H 0.96701 0.86455 0.1301 0.0
C274 C 0.04085 0.45328 0.36452 0.0
C275 C 0.08255 0.45501 0.33863 0.0
C276 C 0.01437 0.52892 0.31283 0.0
C277 C 0.96837 0.52025 0.33701 0.0
N278 N 0.93496 0.47235 0.38538 0.0
N279 N 0.10538 0.48718 0.28647 0.0
C280 C 0.98082 0.48189 0.36275 0.0
C281 C 0.06887 0.49149 0.31243 0.0
N282 N 0.05987 0.42622 0.3911 0.0
N283 N 0.0059 0.57267 0.2902 0.0
H284 H 0.14546 0.45999 0.28501 0.0
H285 H 0.09286 0.50608 0.26553 0.0
H286 H 0.96564 0.59962 0.2892 0.0
H287 H 0.0413 0.5863 0.2738 0.0
H288 H 0.0349 0.42892 0.41169 0.0
H289 H 0.10422 0.40602 0.39333 0.0
H290 H 0.93734 0.43847 0.40277 0.0
H291 H 0.89232 0.49594 0.38593 0.0
C292 C 0.43277 0.48217 0.55047 0.0
C293 C 0.40359 0.46085 0.57851 0.0
C294 C 0.45851 0.55637 0.60487 0.0
C295 C 0.49421 0.5726 0.57785 0.0
N296 N 0.51734 0.5527 0.52488 0.0
N297 N 0.39181 0.47387 0.63306 0.0
C298 C 0.48151 0.53631 0.5505 0.0
C299 C 0.41656 0.49738 0.60585 0.0
N300 N 0.41255 0.45146 0.52384 0.0
N301 N 0.46423 0.59793 0.62946 0.0
H302 H 0.36009 0.43138 0.63483 0.0
H303 H 0.40617 0.49382 0.6542 0.0
H304 H 0.49513 0.64134 0.62958 0.0
H305 H 0.43435 0.59254 0.64868 0.0
H306 H 0.42732 0.46797 0.50227 0.0
H307 H 0.37649 0.41202 0.52314 0.0
H308 H 0.51637 0.52394 0.5052 0.0
H309 H 0.55074 0.59421 0.52378 0.0
C310 C 0.50414 0.96946 0.86734 0.0
C311 C 0.54476 0.97219 0.84106 0.0
C312 C 0.47584 0.04722 0.81656 0.0
C313 C 0.43183 0.03931 0.84157 0.0
N314 N 0.39993 -0.01017 0.88974 0.0
N315 N 0.56514 0.00568 0.78886 0.0
C316 C 0.44472 -0.0006 0.86667 0.0
C317 C 0.52994 0.00945 0.81527 0.0
N318 N 0.52381 0.9405 0.89331 0.0
N319 N 0.46574 0.09054 0.79391 0.0
H320 H 0.60516 0.9786 0.78675 0.0
H321 H 0.55168 0.02497 0.76816 0.0
H322 H 0.4245 0.11613 0.7928 0.0
H323 H 0.50034 0.10458 0.77722 0.0
H324 H 0.49992 0.94257 0.91422 0.0
H325 H 0.56756 0.91895 0.89473 0.0
H326 H 0.40255 0.95528 0.90682 0.0
H327 H 0.35768 0.01399 0.89092 0.0
C328 C 0.0054 0.53911 0.10746 0.0
C329 C 0.96696 0.5525 0.08177 0.0
C330 C -0.00873 0.4501 0.05737 0.0
C331 C 0.03309 0.43901 0.08213 0.0
N332 N 0.08866 0.47701 0.12844 0.0
N333 N 0.93269 0.528 0.02994 0.0
C334 C 0.04306 0.48495 0.1064 0.0
C335 C 0.96221 0.50985 0.05609 0.0
N336 N 0.00328 0.57601 0.1335 0.0
N337 N 0.9794 0.40356 0.03507 0.0
H338 H 0.91216 0.57211 0.02788 0.0
H339 H 0.93361 0.50239 0.00938 0.0
H340 H 0.00293 0.36095 0.03416 0.0
H341 H 0.94337 0.40517 0.01848 0.0
H342 H 0.02373 0.56376 0.15415 0.0
H343 H 0.97625 0.61608 0.13541 0.0
H344 H 0.10364 0.51276 0.14459 0.0
H345 H 0.11539 0.43662 0.12932 0.0
C346 C 0.50508 0.3928 0.31444 0.0
C347 C 0.46609 0.38722 0.34131 0.0
C348 C 0.5375 0.4745 0.36595 0.0
C349 C 0.57704 0.47901 0.33935 0.0
N350 N 0.6082 0.43361 0.29123 0.0
N351 N 0.45305 0.41086 0.3948 0.0
C352 C 0.56419 0.43486 0.31464 0.0
C353 C 0.48488 0.42442 0.3678 0.0
N354 N 0.48348 0.3618 0.28806 0.0
N355 N 0.54911 0.51926 0.38903 0.0
H356 H 0.41495 0.37365 0.39689 0.0
H357 H 0.46813 0.43202 0.41561 0.0
H358 H 0.58841 0.55544 0.38879 0.0
H359 H 0.51768 0.5232 0.40747 0.0
H360 H 0.50594 0.37042 0.26695 0.0
H361 H 0.43996 0.33134 0.28652 0.0
H362 H 0.60497 0.39781 0.27422 0.0
H363 H 0.65117 0.4651 0.29023 0.0
C364 C 0.50903 0.0633 0.59702 0.0
C365 C 0.46826 0.07689 0.5722 0.0
C366 C 0.49312 0.97639 0.54618 0.0
C367 C 0.53551 0.964 0.57055 0.0
N368 N 0.59451 0.00155 0.61608 0.0
N369 N 0.43151 0.05473 0.52058 0.0
C370 C 0.54732 0.00969 0.59484 0.0
C371 C 0.4632 0.0358 0.54598 0.0
N372 N 0.50774 0.09867 0.62357 0.0
N373 N 0.48101 0.93102 0.5234 0.0
H374 H 0.41003 0.09852 0.51953 0.0
H375 H 0.4313 0.03025 0.49969 0.0
H376 H 0.50549 0.8891 0.52165 0.0
H377 H 0.44454 0.93315 0.50706 0.0
H378 H 0.53011 0.08599 0.64369 0.0
H379 H 0.4795 0.13759 0.62654 0.0
H380 H 0.61041 0.03709 0.63218 0.0
H381 H 0.62187 0.96159 0.6162 0.0
C382 C 0.95046 0.97195 0.86251 0.0
C383 C 0.9294 0.94295 0.83423 0.0
C384 C 0.02237 0.00194 0.80811 0.0
C385 C 0.03953 0.03574 0.83571 0.0
N386 N 0.01766 0.05896 0.88853 0.0
N387 N 0.9381 0.93804 0.77925 0.0
C388 C 0.00292 0.02248 0.86278 0.0
C389 C 0.96356 0.95972 0.80677 0.0
N390 N 0.92182 0.94952 0.88913 0.0
N391 N 0.06289 0.00942 0.7833 0.0
H392 H 0.89453 0.90774 0.77713 0.0
H393 H 0.95694 0.95468 0.75832 0.0
H394 H 0.106 0.04075 0.78324 0.0
H395 H 0.05674 0.98062 0.76366 0.0
H396 H 0.93931 0.96381 0.9107 0.0
H397 H 0.88354 0.91227 0.88977 0.0
H398 H 0.98851 0.05663 0.90803 0.0
H399 H 0.05701 0.09507 0.8897 0.0
loop_
_geom_bond_atom_site_label_1
_geom_bond_atom_site_label_2
_geom_bond_distance
_geom_bond_site_symmetry_2
_ccdc_geom_bond_type
C0 O1 1.306 . S
C0 O3 1.160 . S
O1 C0 1.306 . S
O1 Cd2 2.228 . S
Cd2 O1 2.228 . S
Cd2 O6 2.273 . S
Cd2 O10 2.277 . S
O3 C0 1.160 . S
O3 Cd4 2.203 . S
Cd4 O3 2.203 . S
Cd4 O6 2.411 . S
Cd4 O7 2.333 . S
Cd4 O8 2.352 . S
Cd4 O12 2.277 . S
Cd4 O13 2.356 . S
C5 O10 1.209 . S
C5 O12 1.226 . S
O6 Cd2 2.273 . S
O6 Cd4 2.411 . S
O6 C9 1.320 . S
O7 Cd4 2.333 . S
O7 C9 1.214 . S
O8 Cd4 2.352 . S
O8 C11 1.258 . S
C9 O6 1.320 . S
C9 O7 1.214 . S
O10 Cd2 2.277 . S
O10 C5 1.209 . S
C11 O8 1.258 . S
C11 O13 1.282 . S
O12 Cd4 2.277 . S
O12 C5 1.226 . S
O13 Cd4 2.356 . S
O13 C11 1.282 . S
C14 O15 1.306 . S
C14 O17 1.160 . S
O15 C14 1.306 . S
O15 Cd16 2.228 . S
Cd16 O15 2.228 . S
Cd16 O20 2.273 . S
Cd16 O24 2.277 . S
O17 C14 1.160 . S
O17 Cd18 2.203 . S
Cd18 O17 2.203 . S
Cd18 O20 2.411 . S
Cd18 O21 2.333 . S
Cd18 O22 2.352 . S
Cd18 O26 2.277 . S
Cd18 O27 2.356 . S
C19 O24 1.209 . S
C19 O26 1.226 . S
O20 Cd16 2.273 . S
O20 Cd18 2.411 . S
O20 C23 1.320 . S
O21 Cd18 2.333 . S
O21 C23 1.214 . S
O22 Cd18 2.352 . S
O22 C25 1.258 . S
C23 O20 1.320 . S
C23 O21 1.214 . S
O24 Cd16 2.277 . S
O24 C19 1.209 . S
C25 O22 1.258 . S
C25 O27 1.282 . S
O26 Cd18 2.277 . S
O26 C19 1.226 . S
O27 Cd18 2.356 . S
O27 C25 1.282 . S
C28 O29 1.306 . S
C28 O31 1.160 . S
O29 C28 1.306 . S
O29 Cd30 2.228 . S
Cd30 O29 2.228 . S
Cd30 O34 2.273 . S
Cd30 O38 2.277 . S
O31 C28 1.160 . S
O31 Cd32 2.203 . S
Cd32 O31 2.203 . S
Cd32 O34 2.411 . S
Cd32 O35 2.333 . S
Cd32 O36 2.352 . S
Cd32 O40 2.277 . S
Cd32 O41 2.356 . S
C33 O38 1.209 . S
C33 O40 1.226 . S
O34 Cd30 2.273 . S
O34 Cd32 2.411 . S
O34 C37 1.320 . S
O35 Cd32 2.333 . S
O35 C37 1.214 . S
O36 Cd32 2.352 . S
O36 C39 1.258 . S
C37 O34 1.320 . S
C37 O35 1.214 . S
O38 Cd30 2.277 . S
O38 C33 1.209 . S
C39 O36 1.258 . S
C39 O41 1.282 . S
O40 Cd32 2.277 . S
O40 C33 1.226 . S
O41 Cd32 2.356 . S
O41 C39 1.282 . S
C42 O43 1.306 . S
C42 O45 1.160 . S
O43 C42 1.306 . S
O43 Cd44 2.228 . S
Cd44 O43 2.228 . S
Cd44 O48 2.273 . S
Cd44 O52 2.277 . S
O45 C42 1.160 . S
O45 Cd46 2.203 . S
Cd46 O45 2.203 . S
Cd46 O48 2.411 . S
Cd46 O49 2.333 . S
Cd46 O50 2.352 . S
Cd46 O54 2.277 . S
Cd46 O55 2.356 . S
C47 O52 1.209 . S
C47 O54 1.226 . S
O48 Cd44 2.273 . S
O48 Cd46 2.411 . S
O48 C51 1.320 . S
O49 Cd46 2.333 . S
O49 C51 1.214 . S
O50 Cd46 2.352 . S
O50 C53 1.258 . S
C51 O48 1.320 . S
C51 O49 1.214 . S
O52 Cd44 2.277 . S
O52 C47 1.209 . S
C53 O50 1.258 . S
C53 O55 1.282 . S
O54 Cd46 2.277 . S
O54 C47 1.226 . S
O55 Cd46 2.356 . S
O55 C53 1.282 . S
C56 O57 1.306 . S
C56 O59 1.160 . S
O57 C56 1.306 . S
O57 Cd58 2.228 . S
Cd58 O57 2.228 . S
Cd58 O62 2.273 . S
Cd58 O66 2.277 . S
O59 C56 1.160 . S
O59 Cd60 2.203 . S
Cd60 O59 2.203 . S
Cd60 O62 2.411 . S
Cd60 O63 2.333 . S
Cd60 O64 2.352 . S
Cd60 O68 2.277 . S
Cd60 O69 2.356 . S
C61 O66 1.209 . S
C61 O68 1.226 . S
O62 Cd58 2.273 . S
O62 Cd60 2.411 . S
O62 C65 1.320 . S
O63 Cd60 2.333 . S
O63 C65 1.214 . S
O64 Cd60 2.352 . S
O64 C67 1.258 . S
C65 O62 1.320 . S
C65 O63 1.214 . S
O66 Cd58 2.277 . S
O66 C61 1.209 . S
C67 O64 1.258 . S
C67 O69 1.282 . S
O68 Cd60 2.277 . S
O68 C61 1.226 . S
O69 Cd60 2.356 . S
O69 C67 1.282 . S
C70 O71 1.306 . S
C70 O73 1.160 . S
O71 C70 1.306 . S
O71 Cd72 2.228 . S
Cd72 O71 2.228 . S
Cd72 O76 2.273 . S
Cd72 O80 2.277 . S
O73 C70 1.160 . S
O73 Cd74 2.203 . S
Cd74 O73 2.203 . S
Cd74 O76 2.411 . S
Cd74 O77 2.333 . S
Cd74 O78 2.352 . S
Cd74 O82 2.277 . S
Cd74 O83 2.356 . S
C75 O80 1.209 . S
C75 O82 1.226 . S
O76 Cd72 2.273 . S
O76 Cd74 2.411 . S
O76 C79 1.320 . S
O77 Cd74 2.333 . S
O77 C79 1.214 . S
O78 Cd74 2.352 . S
O78 C81 1.258 . S
C79 O76 1.320 . S
C79 O77 1.214 . S
O80 Cd72 2.277 . S
O80 C75 1.209 . S
C81 O78 1.258 . S
C81 O83 1.282 . S
O82 Cd74 2.277 . S
O82 C75 1.226 . S
O83 Cd74 2.356 . S
O83 C81 1.282 . S
C84 O85 1.306 . S
C84 O87 1.160 . S
O85 C84 1.306 . S
O85 Cd86 2.228 . S
Cd86 O85 2.228 . S
Cd86 O90 2.273 . S
Cd86 O94 2.277 . S
O87 C84 1.160 . S
O87 Cd88 2.203 . S
Cd88 O87 2.203 . S
Cd88 O90 2.411 . S
Cd88 O91 2.333 . S
Cd88 O92 2.352 . S
Cd88 O96 2.277 . S
Cd88 O97 2.356 . S
C89 O94 1.209 . S
C89 O96 1.226 . S
O90 Cd86 2.273 . S
O90 Cd88 2.411 . S
O90 C93 1.320 . S
O91 Cd88 2.333 . S
O91 C93 1.214 . S
O92 Cd88 2.352 . S
O92 C95 1.258 . S
C93 O90 1.320 . S
C93 O91 1.214 . S
O94 Cd86 2.277 . S
O94 C89 1.209 . S
C95 O92 1.258 . S
C95 O97 1.282 . S
O96 Cd88 2.277 . S
O96 C89 1.226 . S
O97 Cd88 2.356 . S
O97 C95 1.282 . S
C98 O99 1.306 . S
C98 O101 1.160 . S
O99 C98 1.306 . S
O99 Cd100 2.228 . S
Cd100 O99 2.228 . S
Cd100 O104 2.273 . S
Cd100 O108 2.277 . S
O101 C98 1.160 . S
O101 Cd102 2.203 . S
Cd102 O101 2.203 . S
Cd102 O104 2.411 . S
Cd102 O105 2.333 . S
Cd102 O106 2.352 . S
Cd102 O110 2.277 . S
Cd102 O111 2.356 . S
C103 O108 1.209 . S
C103 O110 1.226 . S
O104 Cd100 2.273 . S
O104 Cd102 2.411 . S
O104 C107 1.320 . S
O105 Cd102 2.333 . S
O105 C107 1.214 . S
O106 Cd102 2.352 . S
O106 C109 1.258 . S
C107 O104 1.320 . S
C107 O105 1.214 . S
O108 Cd100 2.277 . S
O108 C103 1.209 . S
C109 O106 1.258 . S
C109 O111 1.282 . S
O110 Cd102 2.277 . S
O110 C103 1.226 . S
O111 Cd102 2.356 . S
O111 C109 1.282 . S
C112 C113 1.363 . S
C112 C118 1.379 1_554 S
C112 N120 1.356 . S
C113 C112 1.363 . S
C113 C119 1.363 . S
C114 C115 1.363 . S
C114 C119 1.379 1_556 S
C114 N121 1.356 . S
C115 C114 1.363 . S
C115 C118 1.363 . S
N116 C118 1.356 . S
N116 H128 0.984 . S
N116 H129 0.985 . S
N117 C119 1.356 . S
N117 H122 0.984 . S
N117 H123 0.985 . S
C118 C112 1.379 1_556 S
C118 C115 1.363 . S
C118 N116 1.356 . S
C119 C113 1.363 . S
C119 C114 1.379 1_554 S
C119 N117 1.356 . S
N120 C112 1.356 . S
N120 H126 0.984 . S
N120 H127 0.984 . S
N121 C114 1.356 . S
N121 H124 0.984 . S
N121 H125 0.985 . S
H122 N117 0.984 . S
H123 N117 0.985 . S
H124 N121 0.984 . S
H125 N121 0.985 . S
H126 N120 0.984 . S
H127 N120 0.984 . S
H128 N116 0.984 . S
H129 N116 0.985 . S
C130 C131 1.363 . S
C130 C136 1.379 . S
C130 N138 1.356 . S
C131 C130 1.363 . S
C131 C137 1.363 . S
C132 C133 1.363 . S
C132 C137 1.379 . S
C132 N139 1.356 . S
C133 C132 1.363 . S
C133 C136 1.363 . S
N134 C136 1.356 . S
N134 H146 0.984 . S
N134 H147 0.985 . S
N135 C137 1.356 . S
N135 H140 0.984 . S
N135 H141 0.985 . S
C136 C130 1.379 . S
C136 C133 1.363 . S
C136 N134 1.356 . S
C137 C131 1.363 . S
C137 C132 1.379 . S
C137 N135 1.356 . S
N138 C130 1.356 . S
N138 H144 0.984 . S
N138 H145 0.984 . S
N139 C132 1.356 . S
N139 H142 0.984 . S
N139 H143 0.985 . S
H140 N135 0.984 . S
H141 N135 0.985 . S
H142 N139 0.984 . S
H143 N139 0.985 . S
H144 N138 0.984 . S
H145 N138 0.984 . S
H146 N134 0.984 . S
H147 N134 0.985 . S
C148 C149 1.363 . S
C148 C154 1.379 . S
C148 N156 1.356 . S
C149 C148 1.363 . S
C149 C155 1.363 . S
C150 C151 1.363 . S
C150 C155 1.379 . S
C150 N157 1.356 . S
C151 C150 1.363 . S
C151 C154 1.363 . S
N152 C154 1.356 . S
N152 H164 0.984 . S
N152 H165 0.985 . S
N153 C155 1.356 . S
N153 H158 0.984 . S
N153 H159 0.985 . S
C154 C148 1.379 . S
C154 C151 1.363 . S
C154 N152 1.356 . S
C155 C149 1.363 . S
C155 C150 1.379 . S
C155 N153 1.356 . S
N156 C148 1.356 . S
N156 H162 0.984 . S
N156 H163 0.984 . S
N157 C150 1.356 . S
N157 H160 0.984 . S
N157 H161 0.985 . S
H158 N153 0.984 . S
H159 N153 0.985 . S
H160 N157 0.984 . S
H161 N157 0.985 . S
H162 N156 0.984 . S
H163 N156 0.984 . S
H164 N152 0.984 . S
H165 N152 0.985 . S
C166 C167 1.363 . S
C166 C172 1.379 . S
C166 N174 1.356 . S
C167 C166 1.363 . S
C167 C173 1.363 . S
C168 C169 1.363 . S
C168 C173 1.379 . S
C168 N175 1.356 . S
C169 C168 1.363 . S
C169 C172 1.363 . S
N170 C172 1.356 . S
N170 H182 0.984 . S
N170 H183 0.985 . S
N171 C173 1.356 . S
N171 H176 0.984 . S
N171 H177 0.985 . S
C172 C166 1.379 . S
C172 C169 1.363 . S
C172 N170 1.356 . S
C173 C167 1.363 . S
C173 C168 1.379 . S
C173 N171 1.356 . S
N174 C166 1.356 . S
N174 H180 0.984 . S
N174 H181 0.984 . S
N175 C168 1.356 . S
N175 H178 0.984 . S
N175 H179 0.985 . S
H176 N171 0.984 . S
H177 N171 0.985 . S
H178 N175 0.984 . S
H179 N175 0.985 . S
H180 N174 0.984 . S
H181 N174 0.984 . S
H182 N170 0.984 . S
H183 N170 0.985 . S
C184 C185 1.363 . S
C184 C190 1.379 . S
C184 N192 1.356 . S
C185 C184 1.363 . S
C185 C191 1.363 . S
C186 C187 1.363 . S
C186 C191 1.379 . S
C186 N193 1.356 . S
C187 C186 1.363 . S
C187 C190 1.363 . S
N188 C190 1.356 . S
N188 H200 0.984 . S
N188 H201 0.985 . S
N189 C191 1.356 . S
N189 H194 0.984 . S
N189 H195 0.985 . S
C190 C184 1.379 . S
C190 C187 1.363 . S
C190 N188 1.356 . S
C191 C185 1.363 . S
C191 C186 1.379 . S
C191 N189 1.356 . S
N192 C184 1.356 . S
N192 H198 0.984 . S
N192 H199 0.984 . S
N193 C186 1.356 . S
N193 H196 0.984 . S
N193 H197 0.985 . S
H194 N189 0.984 . S
H195 N189 0.985 . S
H196 N193 0.984 . S
H197 N193 0.985 . S
H198 N192 0.984 . S
H199 N192 0.984 . S
H200 N188 0.984 . S
H201 N188 0.985 . S
C202 C203 1.363 . S
C202 C208 1.379 . S
C202 N210 1.356 . S
C203 C202 1.363 . S
C203 C209 1.363 . S
C204 C205 1.363 . S
C204 C209 1.379 . S
C204 N211 1.356 . S
C205 C204 1.363 . S
C205 C208 1.363 . S
N206 C208 1.356 . S
N206 H218 0.984 . S
N206 H219 0.985 . S
N207 C209 1.356 . S
N207 H212 0.984 . S
N207 H213 0.985 . S
C208 C202 1.379 . S
C208 C205 1.363 . S
C208 N206 1.356 . S
C209 C203 1.363 . S
C209 C204 1.379 . S
C209 N207 1.356 . S
N210 C202 1.356 . S
N210 H216 0.984 . S
N210 H217 0.984 . S
N211 C204 1.356 . S
N211 H214 0.984 . S
N211 H215 0.985 . S
H212 N207 0.984 . S
H213 N207 0.985 . S
H214 N211 0.984 . S
H215 N211 0.985 . S
H216 N210 0.984 . S
H217 N210 0.984 . S
H218 N206 0.984 . S
H219 N206 0.985 . S
C220 C221 1.363 . S
C220 C226 1.379 . S
C220 N228 1.356 . S
C221 C220 1.363 . S
C221 C227 1.363 . S
C222 C223 1.363 . S
C222 C227 1.379 . S
C222 N229 1.356 . S
C223 C222 1.363 . S
C223 C226 1.363 . S
N224 C226 1.356 . S
N224 H236 0.984 . S
N224 H237 0.985 . S
N225 C227 1.356 . S
N225 H230 0.984 . S
N225 H231 0.985 . S
C226 C220 1.379 . S
C226 C223 1.363 . S
C226 N224 1.356 . S
C227 C221 1.363 . S
C227 C222 1.379 . S
C227 N225 1.356 . S
N228 C220 1.356 . S
N228 H234 0.984 . S
N228 H235 0.984 . S
N229 C222 1.356 . S
N229 H232 0.984 . S
N229 H233 0.985 . S
H230 N225 0.984 . S
H231 N225 0.985 . S
H232 N229 0.984 . S
H233 N229 0.985 . S
H234 N228 0.984 . S
H235 N228 0.984 . S
H236 N224 0.984 . S
H237 N224 0.985 . S
C238 C239 1.363 . S
C238 C244 1.379 1_554 S
C238 N246 1.356 . S
C239 C238 1.363 . S
C239 C245 1.363 . S
C240 C241 1.363 . S
C240 C245 1.379 1_556 S
C240 N247 1.356 . S
C241 C240 1.363 . S
C241 C244 1.363 . S
N242 C244 1.356 . S
N242 H254 0.984 . S
N242 H255 0.985 . S
N243 C245 1.356 . S
N243 H248 0.984 . S
N243 H249 0.985 . S
C244 C238 1.379 1_556 S
C244 C241 1.363 . S
C244 N242 1.356 . S
C245 C239 1.363 . S
C245 C240 1.379 1_554 S
C245 N243 1.356 . S
N246 C238 1.356 . S
N246 H252 0.984 . S
N246 H253 0.984 . S
N247 C240 1.356 . S
N247 H250 0.984 . S
N247 H251 0.985 . S
H248 N243 0.984 . S
H249 N243 0.985 . S
H250 N247 0.984 . S
H251 N247 0.985 . S
H252 N246 0.984 . S
H253 N246 0.984 . S
H254 N242 0.984 . S
H255 N242 0.985 . S
C256 C257 1.363 . S
C256 C262 1.379 1_545 S
C256 N264 1.356 . S
C257 C256 1.363 . S
C257 C263 1.363 1_455 S
C258 C259 1.363 . S
C258 C263 1.379 1_565 S
C258 N265 1.356 . S
C259 C258 1.363 . S
C259 C262 1.363 1_655 S
N260 C262 1.356 1_655 S
N260 H272 0.984 1_655 S
N260 H273 0.985 . S
N261 C263 1.356 1_455 S
N261 H266 0.984 . S
N261 H267 0.985 1_455 S
C262 C256 1.379 1_565 S
C262 C259 1.363 1_455 S
C262 N260 1.356 1_455 S
C263 C257 1.363 1_655 S
C263 C258 1.379 1_545 S
C263 N261 1.356 1_655 S
N264 C256 1.356 . S
N264 H270 0.984 . S
N264 H271 0.984 . S
N265 C258 1.356 . S
N265 H268 0.984 . S
N265 H269 0.985 . S
H266 N261 0.984 . S
H267 N261 0.985 1_655 S
H268 N265 0.984 . S
H269 N265 0.985 . S
H270 N264 0.984 . S
H271 N264 0.984 . S
H272 N260 0.984 1_455 S
H273 N260 0.985 . S
C274 C275 1.363 . S
C274 C280 1.379 1_455 S
C274 N282 1.356 . S
C275 C274 1.363 . S
C275 C281 1.363 . S
C276 C277 1.363 . S
C276 C281 1.379 1_655 S
C276 N283 1.356 . S
C277 C276 1.363 . S
C277 C280 1.363 . S
N278 C280 1.356 . S
N278 H290 0.984 . S
N278 H291 0.985 . S
N279 C281 1.356 . S
N279 H284 0.984 . S
N279 H285 0.985 . S
C280 C274 1.379 1_655 S
C280 C277 1.363 . S
C280 N278 1.356 . S
C281 C275 1.363 . S
C281 C276 1.379 1_455 S
C281 N279 1.356 . S
N282 C274 1.356 . S
N282 H288 0.984 1_455 S
N282 H289 0.984 . S
N283 C276 1.356 . S
N283 H286 0.984 . S
N283 H287 0.985 1_655 S
H284 N279 0.984 . S
H285 N279 0.985 . S
H286 N283 0.984 . S
H287 N283 0.985 1_455 S
H288 N282 0.984 1_655 S
H289 N282 0.984 . S
H290 N278 0.984 . S
H291 N278 0.985 . S
C292 C293 1.363 . S
C292 C298 1.379 . S
C292 N300 1.356 . S
C293 C292 1.363 . S
C293 C299 1.363 . S
C294 C295 1.363 . S
C294 C299 1.379 . S
C294 N301 1.356 . S
C295 C294 1.363 . S
C295 C298 1.363 . S
N296 C298 1.356 . S
N296 H308 0.984 . S
N296 H309 0.985 . S
N297 C299 1.356 . S
N297 H302 0.984 . S
N297 H303 0.985 . S
C298 C292 1.379 . S
C298 C295 1.363 . S
C298 N296 1.356 . S
C299 C293 1.363 . S
C299 C294 1.379 . S
C299 N297 1.356 . S
N300 C292 1.356 . S
N300 H306 0.984 . S
N300 H307 0.984 . S
N301 C294 1.356 . S
N301 H304 0.984 . S
N301 H305 0.985 . S
H302 N297 0.984 . S
H303 N297 0.985 . S
H304 N301 0.984 . S
H305 N301 0.985 . S
H306 N300 0.984 . S
H307 N300 0.984 . S
H308 N296 0.984 . S
H309 N296 0.985 . S
C310 C311 1.363 . S
C310 C316 1.379 . S
C310 N318 1.356 . S
C311 C310 1.363 . S
C311 C317 1.363 1_565 S
C312 C313 1.363 . S
C312 C317 1.379 . S
C312 N319 1.356 . S
C313 C312 1.363 . S
C313 C316 1.363 1_545 S
N314 C316 1.356 1_545 S
N314 H326 0.984 1_545 S
N314 H327 0.985 . S
N315 C317 1.356 1_565 S
N315 H320 0.984 . S
N315 H321 0.985 1_565 S
C316 C310 1.379 . S
C316 C313 1.363 1_565 S
C316 N314 1.356 1_565 S
C317 C311 1.363 1_545 S
C317 C312 1.379 . S
C317 N315 1.356 1_545 S
N318 C310 1.356 . S
N318 H324 0.984 . S
N318 H325 0.984 . S
N319 C312 1.356 . S
N319 H322 0.984 . S
N319 H323 0.985 . S
H320 N315 0.984 . S
H321 N315 0.985 1_545 S
H322 N319 0.984 . S
H323 N319 0.985 . S
H324 N318 0.984 . S
H325 N318 0.984 . S
H326 N314 0.984 1_565 S
H327 N314 0.985 . S
C328 C329 1.363 1_455 S
C328 C334 1.379 . S
C328 N336 1.356 1_455 S
C329 C328 1.363 1_655 S
C329 C335 1.363 . S
C330 C331 1.363 1_655 S
C330 C335 1.379 . S
C330 N337 1.356 1_655 S
C331 C330 1.363 1_455 S
C331 C334 1.363 . S
N332 C334 1.356 . S
N332 H344 0.984 . S
N332 H345 0.985 . S
N333 C335 1.356 . S
N333 H338 0.984 . S
N333 H339 0.985 . S
C334 C328 1.379 . S
C334 C331 1.363 . S
C334 N332 1.356 . S
C335 C329 1.363 . S
C335 C330 1.379 . S
C335 N333 1.356 . S
N336 C328 1.356 1_655 S
N336 H342 0.984 1_655 S
N336 H343 0.984 . S
N337 C330 1.356 1_455 S
N337 H340 0.984 . S
N337 H341 0.985 1_455 S
H338 N333 0.984 . S
H339 N333 0.985 . S
H340 N337 0.984 . S
H341 N337 0.985 1_655 S
H342 N336 0.984 1_455 S
H343 N336 0.984 . S
H344 N332 0.984 . S
H345 N332 0.985 . S
C346 C347 1.363 . S
C346 C352 1.379 . S
C346 N354 1.356 . S
C347 C346 1.363 . S
C347 C353 1.363 . S
C348 C349 1.363 . S
C348 C353 1.379 . S
C348 N355 1.356 . S
C349 C348 1.363 . S
C349 C352 1.363 . S
N350 C352 1.356 . S
N350 H362 0.984 . S
N350 H363 0.985 . S
N351 C353 1.356 . S
N351 H356 0.984 . S
N351 H357 0.985 . S
C352 C346 1.379 . S
C352 C349 1.363 . S
C352 N350 1.356 . S
C353 C347 1.363 . S
C353 C348 1.379 . S
C353 N351 1.356 . S
N354 C346 1.356 . S
N354 H360 0.984 . S
N354 H361 0.984 . S
N355 C348 1.356 . S
N355 H358 0.984 . S
N355 H359 0.985 . S
H356 N351 0.984 . S
H357 N351 0.985 . S
H358 N355 0.984 . S
H359 N355 0.985 . S
H360 N354 0.984 . S
H361 N354 0.984 . S
H362 N350 0.984 . S
H363 N350 0.985 . S
C364 C365 1.363 . S
C364 C370 1.379 1_545 S
C364 N372 1.356 . S
C365 C364 1.363 . S
C365 C371 1.363 . S
C366 C367 1.363 . S
C366 C371 1.379 1_565 S
C366 N373 1.356 . S
C367 C366 1.363 . S
C367 C370 1.363 . S
N368 C370 1.356 . S
N368 H380 0.984 1_565 S
N368 H381 0.985 . S
N369 C371 1.356 . S
N369 H374 0.984 . S
N369 H375 0.985 1_545 S
C370 C364 1.379 1_565 S
C370 C367 1.363 . S
C370 N368 1.356 . S
C371 C365 1.363 . S
C371 C366 1.379 1_545 S
C371 N369 1.356 . S
N372 C364 1.356 . S
N372 H378 0.984 . S
N372 H379 0.984 . S
N373 C366 1.356 . S
N373 H376 0.984 . S
N373 H377 0.985 . S
H374 N369 0.984 . S
H375 N369 0.985 1_565 S
H376 N373 0.984 . S
H377 N373 0.985 . S
H378 N372 0.984 . S
H379 N372 0.984 . S
H380 N368 0.984 1_545 S
H381 N368 0.985 . S
C382 C383 1.363 1_545 S
C382 C388 1.379 1_655 S
C382 N390 1.356 1_545 S
C383 C382 1.363 1_565 S
C383 C389 1.363 . S
C384 C385 1.363 1_565 S
C384 C389 1.379 1_455 S
C384 N391 1.356 1_565 S
C385 C384 1.363 1_545 S
C385 C388 1.363 . S
N386 C388 1.356 . S
N386 H398 0.984 . S
N386 H399 0.985 . S
N387 C389 1.356 . S
N387 H392 0.984 . S
N387 H393 0.985 . S
C388 C382 1.379 1_455 S
C388 C385 1.363 . S
C388 N386 1.356 . S
C389 C383 1.363 . S
C389 C384 1.379 1_655 S
C389 N387 1.356 . S
N390 C382 1.356 1_565 S
N390 H396 0.984 1_565 S
N390 H397 0.984 . S
N391 C384 1.356 1_545 S
N391 H394 0.984 . S
N391 H395 0.985 1_545 S
H392 N387 0.984 . S
H393 N387 0.985 . S
H394 N391 0.984 . S
H395 N391 0.985 1_565 S
H396 N390 0.984 1_545 S
H397 N390 0.984 . S
H398 N386 0.984 . S
H399 N386 0.985 . S
C113 C0 1.340 . S
C115 C70 1.340 . S
C131 C23 1.318 . S
C133 C93 1.318 . S
C149 C28 1.340 . S
C151 C98 1.340 . S
C167 C51 1.318 . S
C169 C65 1.318 . S
C185 C107 1.318 . S
C187 C9 1.318 . S
C203 C56 1.340 . S
C205 C14 1.340 . S
C221 C37 1.318 . S
C223 C79 1.318 . S
C239 C84 1.340 . S
C241 C42 1.340 . S
C257 C5 1.574 . S
C259 C89 1.574 . S
C275 C109 1.565 . S
C277 C25 1.565 . S
C293 C33 1.574 . S
C295 C61 1.574 . S
C311 C53 1.565 . S
C313 C81 1.565 . S
C329 C95 1.565 . S
C331 C11 1.565 . S
C347 C103 1.574 . S
C349 C19 1.574 . S
C365 C39 1.565 . S
C367 C67 1.565 . S
C383 C47 1.574 . S
C385 C75 1.574 . S
