# Generated by pormake.
# Topology uol, (4)-cn, num edge types: 1
# Building blocks:
#     Node 0, Type 0, BuildingBlock: QUQFOY_clean_sbu_1, # of connection points: 4
#     Node 1, Type 0, BuildingBlock: QUQFOY_clean_sbu_1, # of connection points: 4
#     Node 2, Type 0, BuildingBlock: QUQFOY_clean_sbu_1, # of connection points: 4
#     Node 3, Type 0, BuildingBlock: QUQFOY_clean_sbu_1, # of connection points: 4
#     Node 4, Type 0, BuildingBlock: QUQFOY_clean_sbu_1, # of connection points: 4
#     Node 5, Type 0, BuildingBlock: QUQFOY_clean_sbu_1, # of connection points: 4
#     Node 6, Type 0, BuildingBlock: QUQFOY_clean_sbu_1, # of connection points: 4
#     Node 7, Type 0, BuildingBlock: QUQFOY_clean_sbu_1, # of connection points: 4
#     Node 8, Type 0, BuildingBlock: QUQFOY_clean_sbu_1, # of connection points: 4
#     Node 9, Type 0, BuildingBlock: QUQFOY_clean_sbu_1, # of connection points: 4
#     Node 10, Type 0, BuildingBlock: QUQFOY_clean_sbu_1, # of connection points: 4
#     Node 11, Type 0, BuildingBlock: QUQFOY_clean_sbu_1, # of connection points: 4
#     Edge 12, Type (0, 0), BuildingBlock: XIVTED_clean_linker_0, # of connection points: 2
#     Edge 13, Type (0, 0), BuildingBlock: XIVTED_clean_linker_0, # of connection points: 2
#     Edge 14, Type (0, 0), BuildingBlock: XIVTED_clean_linker_0, # of connection points: 2
#     Edge 15, Type (0, 0), BuildingBlock: XIVTED_clean_linker_0, # of connection points: 2
#     Edge 16, Type (0, 0), BuildingBlock: XIVTED_clean_linker_0, # of connection points: 2
#     Edge 17, Type (0, 0), BuildingBlock: XIVTED_clean_linker_0, # of connection points: 2
#     Edge 18, Type (0, 0), BuildingBlock: XIVTED_clean_linker_0, # of connection points: 2
#     Edge 19, Type (0, 0), BuildingBlock: XIVTED_clean_linker_0, # of connection points: 2
#     Edge 20, Type (0, 0), BuildingBlock: XIVTED_clean_linker_0, # of connection points: 2
#     Edge 21, Type (0, 0), BuildingBlock: XIVTED_clean_linker_0, # of connection points: 2
#     Edge 22, Type (0, 0), BuildingBlock: XIVTED_clean_linker_0, # of connection points: 2
#     Edge 23, Type (0, 0), BuildingBlock: XIVTED_clean_linker_0, # of connection points: 2
#     Edge 24, Type (0, 0), BuildingBlock: XIVTED_clean_linker_0, # of connection points: 2
#     Edge 25, Type (0, 0), BuildingBlock: XIVTED_clean_linker_0, # of connection points: 2
#     Edge 26, Type (0, 0), BuildingBlock: XIVTED_clean_linker_0, # of connection points: 2
#     Edge 27, Type (0, 0), BuildingBlock: XIVTED_clean_linker_0, # of connection points: 2
#     Edge 28, Type (0, 0), BuildingBlock: XIVTED_clean_linker_0, # of connection points: 2
#     Edge 29, Type (0, 0), BuildingBlock: XIVTED_clean_linker_0, # of connection points: 2
#     Edge 30, Type (0, 0), BuildingBlock: XIVTED_clean_linker_0, # of connection points: 2
#     Edge 31, Type (0, 0), BuildingBlock: XIVTED_clean_linker_0, # of connection points: 2
#     Edge 32, Type (0, 0), BuildingBlock: XIVTED_clean_linker_0, # of connection points: 2
#     Edge 33, Type (0, 0), BuildingBlock: XIVTED_clean_linker_0, # of connection points: 2
#     Edge 34, Type (0, 0), BuildingBlock: XIVTED_clean_linker_0, # of connection points: 2
#     Edge 35, Type (0, 0), BuildingBlock: XIVTED_clean_linker_0, # of connection points: 2
# Relax obj value: 0.041
# Max RMSD: 0.148
# Mean RMSD: 0.148
data_MOF--net-uol--node1-QUQFOY_clean_sbu_1--edge1-XIVTED_clean_linker_0
_symmetry_space_group_name_H-M    P1
_symmetry_Int_Tables_number       1
_symmetry_cell_setting            triclinic
loop_
_symmetry_equiv_pos_as_xyz
'x, y, z'
_cell_length_a     32.980819
_cell_length_b     32.969388
_cell_length_c     71.955623
_cell_angle_alpha  90.00042
_cell_angle_beta   89.962644
_cell_angle_gamma 120.11173
loop_
_atom_site_label
_atom_site_type_symbol
_atom_site_fract_x
_atom_site_fract_y
_atom_site_fract_z
_atom_type_partial_charge
O0 O 0.20971 0.35166 0.08305 0.0
Cd1 Cd 0.20376 0.37361 0.10935 0.0
Cd2 Cd 0.12928 0.28752 0.11013 0.0
O3 O 0.13963 0.28843 0.08161 0.0
O4 O 0.23986 0.4435 0.10892 0.0
O5 O 0.16283 0.40236 0.11239 0.0
C6 C 0.20055 0.44272 0.11078 0.0
C7 C 0.05856 0.26439 0.12549 0.0
C8 C 0.17833 0.31721 0.07386 0.0
C9 C 0.20936 0.30751 0.13559 0.0
O10 O 0.17349 0.27682 0.12691 0.0
O11 O 0.22629 0.35075 0.13188 0.0
O12 O 0.0662 0.23429 0.11709 0.0
O13 O 0.0893 0.30833 0.12356 0.0
O14 O 0.86312 0.20115 0.25086 0.0
Cd15 Cd 0.83235 0.19218 0.27695 0.0
Cd16 Cd 0.8595 0.12894 0.27862 0.0
O17 O 0.86596 0.1358 0.25005 0.0
O18 O 0.79833 0.22789 0.27568 0.0
O19 O 0.76202 0.15094 0.27907 0.0
C20 C 0.75958 0.18865 0.27727 0.0
C21 C 0.81453 0.05962 0.29521 0.0
C22 C 0.87097 0.17238 0.24197 0.0
C23 C 0.90909 0.21064 0.3034 0.0
O24 O 0.9133 0.18028 0.29407 0.0
O25 O 0.87488 0.21727 0.30037 0.0
O26 O 0.85338 0.06861 0.28733 0.0
O27 O 0.79936 0.08847 0.29238 0.0
O28 O 0.67412 0.85112 0.41724 0.0
Cd29 Cd 0.6503 0.81928 0.44312 0.0
Cd30 Cd 0.74103 0.84712 0.44595 0.0
O31 O 0.74294 0.85528 0.41749 0.0
O32 O 0.58049 0.78402 0.44118 0.0
O33 O 0.62197 0.74899 0.44529 0.0
C34 C 0.58153 0.74569 0.44313 0.0
C35 C 0.76635 0.80287 0.46233 0.0
C36 C 0.7119 0.86017 0.40895 0.0
C37 C 0.70635 0.89523 0.47033 0.0
O38 O 0.74185 0.89974 0.46162 0.0
O39 O 0.66569 0.86125 0.46666 0.0
O40 O 0.79587 0.8425 0.45486 0.0
O41 O 0.7222 0.78667 0.45928 0.0
O42 O 0.82519 0.65754 0.58444 0.0
Cd43 Cd 0.83074 0.63412 0.61052 0.0
Cd44 Cd 0.90514 0.72119 0.61218 0.0
O45 O 0.89399 0.72261 0.58388 0.0
O46 O 0.79516 0.56426 0.60954 0.0
O47 O 0.87201 0.60564 0.61346 0.0
C48 C 0.8345 0.56521 0.6116 0.0
C49 C 0.97742 0.74645 0.62648 0.0
C50 C 0.856 0.69359 0.57579 0.0
C51 C 0.82429 0.69765 0.638 0.0
O52 O 0.86087 0.72922 0.62995 0.0
O53 O 0.8069 0.65495 0.63327 0.0
O54 O 0.96748 0.77579 0.61884 0.0
O55 O 0.94797 0.70222 0.6244 0.0
O56 O 0.17268 0.8107 0.75077 0.0
Cd57 Cd 0.20055 0.81752 0.77711 0.0
Cd58 Cd 0.18773 0.8914 0.77742 0.0
O59 O 0.17803 0.88001 0.74899 0.0
O60 O 0.23399 0.78123 0.77686 0.0
O61 O 0.27042 0.85836 0.78004 0.0
C62 C 0.27275 0.82051 0.77856 0.0
C63 C 0.23528 0.96288 0.79223 0.0
C64 C 0.16893 0.8414 0.74142 0.0
C65 C 0.12864 0.8118 0.80336 0.0
O66 O 0.13341 0.84733 0.79455 0.0
O67 O 0.15512 0.79514 0.79966 0.0
O68 O 0.19706 0.95438 0.78399 0.0
O69 O 0.24888 0.93249 0.79043 0.0
O70 O 0.36277 0.15839 0.91666 0.0
Cd71 Cd 0.38467 0.18648 0.94294 0.0
Cd72 Cd 0.29798 0.17398 0.94367 0.0
O73 O 0.29886 0.16382 0.91521 0.0
O74 O 0.45448 0.21928 0.94247 0.0
O75 O 0.41473 0.25648 0.94587 0.0
C76 C 0.45465 0.2583 0.94428 0.0
C77 C 0.27475 0.2219 0.95858 0.0
C78 C 0.32804 0.15454 0.90749 0.0
C79 C 0.31874 0.11499 0.96947 0.0
O80 O 0.28783 0.11983 0.96085 0.0
O81 O 0.36186 0.14124 0.96553 0.0
O82 O 0.24465 0.18358 0.95046 0.0
O83 O 0.3187 0.23537 0.95661 0.0
O84 O 0.66579 0.80909 0.79788 0.0
Cd85 Cd 0.64538 0.81582 0.77139 0.0
Cd86 Cd 0.73268 0.8889 0.77126 0.0
O87 O 0.7312 0.87739 0.7997 0.0
O88 O 0.57553 0.77897 0.77147 0.0
O89 O 0.61585 0.85609 0.76826 0.0
C90 C 0.57574 0.81802 0.76969 0.0
C91 C 0.75531 0.95966 0.75607 0.0
C92 C 0.70075 0.83913 0.80725 0.0
C93 C 0.71191 0.8094 0.74543 0.0
O94 O 0.74284 0.8447 0.7543 0.0
O95 O 0.66869 0.79322 0.74896 0.0
O96 O 0.78565 0.95214 0.76434 0.0
O97 O 0.71144 0.9288 0.7581 0.0
O98 O 0.86026 0.65436 0.96355 0.0
Cd99 Cd 0.83183 0.63276 0.93732 0.0
Cd100 Cd 0.84592 0.72014 0.93665 0.0
O101 O 0.85682 0.7194 0.96507 0.0
O102 O 0.79785 0.56285 0.93779 0.0
O103 O 0.76197 0.60388 0.93449 0.0
C104 C 0.75927 0.56355 0.93605 0.0
C105 C 0.79678 0.74193 0.92188 0.0
C106 C 0.86523 0.68956 0.97274 0.0
C107 C 0.90341 0.69803 0.91059 0.0
O108 O 0.89923 0.72941 0.91917 0.0
O109 O 0.87689 0.65502 0.91466 0.0
O110 O 0.83527 0.77278 0.92968 0.0
O111 O 0.78396 0.69819 0.92411 0.0
O112 O 0.20906 0.84739 0.12992 0.0
Cd113 Cd 0.20326 0.81933 0.10366 0.0
Cd114 Cd 0.12885 0.83176 0.10267 0.0
O115 O 0.13962 0.84184 0.13112 0.0
O116 O 0.24023 0.78662 0.10429 0.0
O117 O 0.16321 0.74931 0.10073 0.0
C118 C 0.20133 0.74756 0.10243 0.0
C119 C 0.0571 0.78505 0.08789 0.0
C120 C 0.17793 0.85111 0.13897 0.0
C121 C 0.20922 0.89052 0.07694 0.0
O122 O 0.17328 0.88566 0.08544 0.0
O123 O 0.22611 0.86446 0.08104 0.0
O124 O 0.06637 0.82358 0.09607 0.0
O125 O 0.08686 0.77067 0.0897 0.0
O126 O 0.36041 0.19379 0.2965 0.0
Cd127 Cd 0.38406 0.18826 0.27047 0.0
Cd128 Cd 0.29715 0.1139 0.26879 0.0
O129 O 0.29543 0.12492 0.2971 0.0
O130 O 0.45389 0.22429 0.27156 0.0
O131 O 0.41305 0.14739 0.26766 0.0
C132 C 0.45329 0.1851 0.26957 0.0
C133 C 0.27323 0.04209 0.25428 0.0
C134 C 0.32439 0.16299 0.30517 0.0
C135 C 0.32061 0.19459 0.24295 0.0
O136 O 0.28901 0.15813 0.25104 0.0
O137 O 0.3633 0.2119 0.24764 0.0
O138 O 0.2433 0.05131 0.26186 0.0
O139 O 0.31727 0.07195 0.25659 0.0
O140 O 0.17072 0.3478 0.46403 0.0
Cd141 Cd 0.20224 0.3713 0.43808 0.0
Cd142 Cd 0.17351 0.28009 0.43542 0.0
O143 O 0.16568 0.27855 0.4639 0.0
O144 O 0.23664 0.44113 0.43995 0.0
O145 O 0.27266 0.40059 0.43584 0.0
C146 C 0.2753 0.44076 0.43798 0.0
C147 C 0.21712 0.25419 0.41892 0.0
C148 C 0.16132 0.31 0.47239 0.0
C149 C 0.12571 0.31509 0.41109 0.0
O150 O 0.12093 0.27959 0.41988 0.0
O151 O 0.16002 0.35566 0.41462 0.0
O152 O 0.17755 0.22491 0.42649 0.0
O153 O 0.23367 0.29842 0.42196 0.0
O154 O 0.82184 0.15635 0.63117 0.0
Cd155 Cd 0.83012 0.18716 0.60512 0.0
Cd156 Cd 0.8937 0.16027 0.60301 0.0
O157 O 0.88731 0.15376 0.63158 0.0
O158 O 0.79416 0.22089 0.60664 0.0
O159 O 0.87101 0.25756 0.60294 0.0
C160 C 0.83322 0.25977 0.6049 0.0
C161 C 0.96314 0.20456 0.58638 0.0
C162 C 0.85091 0.14861 0.63986 0.0
C163 C 0.81149 0.11064 0.57846 0.0
O164 O 0.84215 0.10652 0.58758 0.0
O165 O 0.80471 0.14469 0.58168 0.0
O166 O 0.95367 0.16559 0.59428 0.0
O167 O 0.9347 0.22023 0.58918 0.0
H168 H 0.27636 0.734 0.10397 0.0
H169 H 0.12326 0.45387 0.11131 0.0
H170 H 0.12513 0.65807 0.10234 0.0
H171 H 0.27441 0.53232 0.10894 0.0
H172 H 0.12238 0.52764 0.10897 0.0
H173 H 0.2755 0.65989 0.10635 0.0
C174 C 0.2429 0.70169 0.10405 0.0
C175 C 0.20074 0.70233 0.10295 0.0
C176 C 0.1557 0.52864 0.10899 0.0
C177 C 0.19948 0.61691 0.10581 0.0
C178 C 0.15625 0.48657 0.1104 0.0
C179 C 0.19899 0.48687 0.11032 0.0
C180 C 0.19821 0.57132 0.10754 0.0
C181 C 0.24062 0.53028 0.10904 0.0
C182 C 0.24243 0.65928 0.10543 0.0
C183 C 0.15848 0.65924 0.10312 0.0
N184 N 0.23915 0.57062 0.1077 0.0
N185 N 0.15891 0.61825 0.10458 0.0
H186 H 0.74497 0.26298 0.27559 0.0
H187 H 0.46499 0.10807 0.26872 0.0
H188 H 0.67042 0.1117 0.27718 0.0
H189 H 0.54261 0.2592 0.27171 0.0
H190 H 0.53908 0.10768 0.27077 0.0
H191 H 0.67051 0.26129 0.27338 0.0
C192 C 0.71289 0.22931 0.27552 0.0
C193 C 0.71404 0.1874 0.27658 0.0
C194 C 0.53981 0.14088 0.27095 0.0
C195 C 0.62814 0.1852 0.27396 0.0
C196 C 0.49756 0.14115 0.26973 0.0
C197 C 0.49754 0.18375 0.27005 0.0
C198 C 0.58232 0.18353 0.27246 0.0
C199 C 0.5408 0.22551 0.27143 0.0
C200 C 0.67026 0.22838 0.27425 0.0
C201 C 0.67119 0.14487 0.27643 0.0
N202 N 0.58128 0.22431 0.27258 0.0
N203 N 0.62995 0.14484 0.27509 0.0
H204 H 0.57042 0.65704 0.44419 0.0
H205 H 0.28999 0.52973 0.43995 0.0
H206 H 0.49202 0.72941 0.44088 0.0
H207 H 0.36459 0.45345 0.43717 0.0
H208 H 0.36449 0.60289 0.44134 0.0
H209 H 0.49641 0.58193 0.44276 0.0
C210 C 0.53772 0.65718 0.44321 0.0
C211 C 0.53749 0.69966 0.44265 0.0
C212 C 0.36476 0.57025 0.4404 0.0
C213 C 0.45281 0.61397 0.44102 0.0
C214 C 0.32209 0.52832 0.43961 0.0
C215 C 0.32092 0.48526 0.43843 0.0
C216 C 0.40695 0.56947 0.44009 0.0
C217 C 0.36382 0.48583 0.43803 0.0
C218 C 0.49552 0.6143 0.44235 0.0
C219 C 0.49405 0.69767 0.44133 0.0
N220 N 0.40512 0.52728 0.4389 0.0
N221 N 0.45365 0.65568 0.44058 0.0
H222 H 0.91191 0.55418 0.61253 0.0
H223 H 0.75858 0.27381 0.60687 0.0
H224 H 0.76083 0.47557 0.60978 0.0
H225 H 0.90976 0.34923 0.60461 0.0
H226 H 0.75973 0.34807 0.60887 0.0
H227 H 0.91287 0.48031 0.61079 0.0
C228 C 0.87896 0.52144 0.61164 0.0
C229 C 0.83621 0.52111 0.61129 0.0
C230 C 0.79274 0.34856 0.60791 0.0
C231 C 0.83708 0.43658 0.60925 0.0
C232 C 0.79211 0.30604 0.60676 0.0
C233 C 0.83415 0.30519 0.60556 0.0
C234 C 0.83575 0.39087 0.60794 0.0
C235 C 0.8765 0.34822 0.60547 0.0
C236 C 0.87956 0.47931 0.61059 0.0
C237 C 0.79463 0.47765 0.61008 0.0
N238 N 0.87624 0.38935 0.60669 0.0
N239 N 0.79614 0.43729 0.6091 0.0
H240 H 0.48666 0.74322 0.77088 0.0
H241 H 0.36162 0.89758 0.77885 0.0
H242 H 0.56325 0.89454 0.76978 0.0
H243 H 0.28775 0.74635 0.77675 0.0
H244 H 0.43602 0.89804 0.77628 0.0
H245 H 0.41367 0.74451 0.77335 0.0
C246 C 0.48815 0.77679 0.77107 0.0
C247 C 0.53123 0.81884 0.77012 0.0
C248 C 0.4035 0.8648 0.77642 0.0
C249 C 0.44738 0.8206 0.77309 0.0
C250 C 0.36103 0.86449 0.77795 0.0
C251 C 0.31833 0.82185 0.77802 0.0
C252 C 0.40325 0.82215 0.77497 0.0
C253 C 0.31972 0.78007 0.77675 0.0
C254 C 0.44636 0.77751 0.77252 0.0
C255 C 0.53084 0.86126 0.77044 0.0
N256 N 0.36137 0.78131 0.77526 0.0
N257 N 0.48957 0.86107 0.77196 0.0
H258 H 0.54341 0.27209 0.94288 0.0
H259 H 0.67073 0.5522 0.9356 0.0
H260 H 0.468 0.3477 0.94435 0.0
H261 H 0.74347 0.47404 0.9379 0.0
H262 H 0.59593 0.47833 0.93795 0.0
H263 H 0.6168 0.34631 0.94057 0.0
C264 C 0.54226 0.30435 0.94279 0.0
C265 C 0.49939 0.30359 0.94381 0.0
C266 C 0.62829 0.47741 0.93791 0.0
C267 C 0.58371 0.38913 0.94105 0.0
C268 C 0.67099 0.51955 0.9365 0.0
C269 C 0.71349 0.51935 0.93655 0.0
C270 C 0.62811 0.43479 0.93933 0.0
C271 C 0.71168 0.47599 0.93782 0.0
C272 C 0.58428 0.34683 0.94145 0.0
C273 C 0.50023 0.34662 0.94363 0.0
N274 N 0.6698 0.4356 0.93916 0.0
N275 N 0.54172 0.38767 0.94222 0.0
H276 H 0.37438 0.27819 0.22421 0.0
H277 H 0.17437 0.21901 0.14909 0.0
H278 H 0.23561 0.15633 0.22596 0.0
H279 H 0.28903 0.36048 0.15666 0.0
H280 H 0.20341 0.1936 0.17494 0.0
H281 H 0.34986 0.30767 0.19757 0.0
C282 C 0.33885 0.25774 0.21907 0.0
C283 C 0.30702 0.21471 0.22737 0.0
C284 C 0.22234 0.23024 0.17098 0.0
C285 C 0.27918 0.24783 0.1969 0.0
C286 C 0.20588 0.24483 0.15612 0.0
C287 C 0.22914 0.2921 0.15069 0.0
C288 C 0.26267 0.26292 0.18056 0.0
C289 C 0.26989 0.32374 0.16041 0.0
C290 C 0.32493 0.2746 0.2039 0.0
C291 C 0.26142 0.1897 0.22011 0.0
N292 N 0.28544 0.30858 0.17491 0.0
N293 N 0.24906 0.20648 0.20529 0.0
H294 H 1.00306 0.24306 0.3038 0.0
H295 H 0.03142 0.25517 0.41053 0.0
H296 H 0.89056 0.23362 0.33757 0.0
H297 H 0.1454 0.35806 0.37717 0.0
H298 H 0.9783 0.23774 0.38401 0.0
H299 H 0.05651 0.27705 0.33035 0.0
C300 C 0.98982 0.24863 0.31676 0.0
C301 C 0.94249 0.23569 0.31856 0.0
C302 C 0.01481 0.26458 0.38263 0.0
C303 C 1.0028 0.27309 0.34891 0.0
C304 C 0.04506 0.2744 0.39767 0.0
C305 C 0.09268 0.30814 0.39597 0.0
C306 C 0.03275 0.2875 0.36564 0.0
C307 C 0.10878 0.33205 0.37903 0.0
C308 C 0.02027 0.26812 0.33181 0.0
C309 C 0.92693 0.24349 0.33563 0.0
N310 N 0.07902 0.32058 0.36434 0.0
N311 N 0.95683 0.26083 0.35031 0.0
H312 H 0.77919 0.01666 0.5778 0.0
H313 H 0.76653 0.98948 0.47108 0.0
H314 H 0.78814 0.12955 0.54445 0.0
H315 H 0.66332 0.87525 0.50424 0.0
H316 H 0.78413 0.04231 0.49773 0.0
H317 H 0.74501 0.96351 0.55116 0.0
C318 C 0.77346 0.03005 0.56492 0.0
C319 C 0.78631 0.0774 0.56326 0.0
C320 C 0.75718 1.00581 0.49904 0.0
C321 C 0.74873 0.01745 0.5328 0.0
C322 C 0.74727 0.97573 0.48392 0.0
C323 C 0.71338 0.92812 0.48553 0.0
C324 C 0.73423 0.98771 0.51601 0.0
C325 C 0.68944 0.91187 0.50246 0.0
C326 C 0.75387 0.99977 0.54981 0.0
C327 C 0.77834 0.09315 0.54628 0.0
N328 N 0.70101 0.94145 0.51722 0.0
N329 N 0.76091 0.06343 0.53154 0.0
H330 H 0.74041 0.6441 0.65659 0.0
H331 H 0.80043 0.84341 0.73215 0.0
H332 H 0.86274 0.78258 0.65507 0.0
H333 H 0.6584 0.73038 0.72405 0.0
H334 H 0.8256 0.81422 0.70626 0.0
H335 H 0.71093 0.66872 0.68322 0.0
C336 C 0.76096 0.67959 0.66178 0.0
C337 C 0.80413 0.7113 0.65356 0.0
C338 C 0.78889 0.79569 0.71011 0.0
C339 C 0.77101 0.73924 0.68401 0.0
C340 C 0.77443 0.81222 0.725 0.0
C341 C 0.72709 0.78947 0.73029 0.0
C342 C 0.756 0.75578 0.70037 0.0
C343 C 0.69521 0.74912 0.7204 0.0
C344 C 0.74409 0.69356 0.67693 0.0
C345 C 0.82927 0.75686 0.66086 0.0
N346 N 0.71025 0.73347 0.70588 0.0
N347 N 0.81249 0.76926 0.67568 0.0
H348 H 0.93178 0.64437 0.89105 0.0
H349 H 0.0771 0.848 0.81769 0.0
H350 H 0.95282 0.7844 0.89472 0.0
H351 H 0.10067 0.73113 0.8239 0.0
H352 H 0.02275 0.81865 0.84364 0.0
H353 H 0.98639 0.66984 0.86456 0.0
C354 C 0.94792 0.68039 0.88636 0.0
C355 C 0.93765 0.71228 0.89515 0.0
C356 C 0.03974 0.79932 0.83936 0.0
C357 C 0.99933 0.74123 0.86485 0.0
C358 C 0.0707 0.81594 0.82444 0.0
C359 C 0.09373 0.7921 0.81859 0.0
C360 C 0.03115 0.75823 0.84855 0.0
C361 C 0.08383 0.75071 0.82798 0.0
C362 C 0.97905 0.69485 0.87129 0.0
C363 C 0.95961 0.75852 0.88848 0.0
N364 N 0.05315 0.73497 0.84252 0.0
N365 N 0.98906 0.77142 0.87371 0.0
H366 H 0.29115 0.91927 0.0572 0.0
H367 H 0.23128 0.06381 0.98426 0.0
H368 H 0.17202 0.93981 0.06133 0.0
H369 H 0.37182 0.08711 0.98969 0.0
H370 H 0.20681 0.00979 0.0103 0.0
H371 H 0.31982 0.97376 0.03067 0.0
C372 C 0.27116 0.93529 0.05261 0.0
C373 C 0.22908 0.92489 0.06153 0.0
C374 C 0.24304 0.02666 1.00584 0.0
C375 C 0.26127 0.98644 0.03118 0.0
C376 C 0.25707 0.05742 0.99086 0.0
C377 C 0.3038 0.08027 0.98476 0.0
C378 C 0.27574 0.01809 0.01484 0.0
C379 C 0.33548 0.0704 0.99397 0.0
C380 C 0.28755 0.96635 0.03751 0.0
C381 C 0.20464 0.9467 0.05498 0.0
N382 N 0.32085 0.03992 1.00857 0.0
N383 N 0.22091 0.97607 0.04019 0.0
H384 H 0.12078 0.24773 0.0494 0.0
H385 H 0.32856 0.30205 0.9788 0.0
H386 H 0.25993 0.3679 0.05426 0.0
H387 H 0.18496 0.19432 0.96943 0.0
H388 H 0.30276 0.33083 1.00498 0.0
H389 H 0.142 0.23099 0.01892 0.0
C390 C 0.15562 0.27088 0.04401 0.0
C391 C 0.18869 0.30906 0.05455 0.0
C392 C 0.27677 0.30131 0.99703 0.0
C393 C 0.21339 0.28988 0.01964 0.0
C394 C 0.2915 0.28497 0.98201 0.0
C395 C 0.25897 0.24546 0.97195 0.0
C396 C 0.22921 0.27768 1.0022 0.0
C397 C 0.21137 0.22477 0.97681 0.0
C398 C 0.16773 0.26132 0.02657 0.0
C399 C 0.23328 0.33789 0.04674 0.0
N400 N 0.19804 0.24069 0.99172 0.0
N401 N 0.24443 0.32744 0.0299 0.0
H402 H 0.89782 0.25316 0.22224 0.0
H403 H 0.99504 0.17438 0.13572 0.0
H404 H 0.88647 0.11729 0.21758 0.0
H405 H 0.03435 0.31816 0.14685 0.0
H406 H 0.94177 0.14968 0.1623 0.0
H407 H 0.935 0.27386 0.19163 0.0
C408 C 0.90264 0.22743 0.21472 0.0
C409 C 0.88929 0.18349 0.22264 0.0
C410 C 0.96159 0.18657 0.15879 0.0
C411 C 0.93192 0.20713 0.18747 0.0
C412 C 0.99184 0.20075 0.14351 0.0
C413 C 0.01962 0.24855 0.1391 0.0
C414 C 0.95884 0.22035 0.16975 0.0
C415 C 0.01385 0.28099 0.14977 0.0
C416 C 0.92401 0.23938 0.19724 0.0
C417 C 0.89646 0.15168 0.21214 0.0
N418 N 0.98444 0.26634 0.16468 0.0
N419 N 0.91745 0.1642 0.19517 0.0
H420 H 0.73316 0.03162 0.31482 0.0
H421 H 0.78508 0.87739 0.38579 0.0
H422 H 0.84389 0.99964 0.30704 0.0
H423 H 0.66091 0.88962 0.38868 0.0
H424 H 0.80451 0.91825 0.35594 0.0
H425 H 0.70303 0.97579 0.34066 0.0
C426 C 0.75072 0.01234 0.31834 0.0
C427 C 0.79133 0.02063 0.30879 0.0
C428 C 0.77274 0.91159 0.36299 0.0
C429 C 0.75744 0.95714 0.33859 0.0
C430 C 0.76162 0.88824 0.38008 0.0
C431 C 0.72144 0.88028 0.38988 0.0
C432 C 0.7438 0.92765 0.35568 0.0
C433 C 0.69233 0.89506 0.38169 0.0
C434 C 0.73356 0.98052 0.33314 0.0
C435 C 0.8126 0.99459 0.31402 0.0
N436 N 0.70434 0.91845 0.3652 0.0
N437 N 0.79576 0.96451 0.32867 0.0
H438 H 0.77576 0.6426 0.55542 0.0
H439 H 0.85611 0.83276 0.47387 0.0
H440 H 0.91237 0.7672 0.5527 0.0
H441 H 0.71347 0.7211 0.48178 0.0
H442 H 0.88061 0.80147 0.49954 0.0
H443 H 0.75609 0.66353 0.52557 0.0
C444 C 0.80188 0.67414 0.54848 0.0
C445 C 0.84572 0.70341 0.55674 0.0
C446 C 0.84403 0.78349 0.49553 0.0
C447 C 0.82317 0.72762 0.52245 0.0
C448 C 0.82999 0.8012 0.48079 0.0
C449 C 0.78252 0.77976 0.47573 0.0
C450 C 0.81043 0.74396 0.50531 0.0
C451 C 0.75037 0.73894 0.48524 0.0
C452 C 0.79051 0.6861 0.53142 0.0
C453 C 0.87806 0.74371 0.54697 0.0
N454 N 0.76485 0.72261 0.49967 0.0
N455 N 0.86603 0.75477 0.53043 0.0
H456 H 0.14122 0.76028 0.72193 0.0
H457 H 0.04008 0.83702 0.63631 0.0
H458 H 0.15461 0.89696 0.71679 0.0
H459 H 1.00511 0.69424 0.64696 0.0
H460 H 0.09503 0.86291 0.66231 0.0
H461 H 0.10385 0.73936 0.69145 0.0
C462 C 0.13676 0.78614 0.71434 0.0
C463 C 0.15071 0.83037 0.7221 0.0
C464 C 0.07582 0.82599 0.65881 0.0
C465 C 0.10773 0.8064 0.68705 0.0
C466 C 0.0446 0.81114 0.64386 0.0
C467 C 0.0175 0.76324 0.63952 0.0
C468 C 0.08014 0.79276 0.66951 0.0
C469 C 0.02501 0.73146 0.64984 0.0
C470 C 0.11531 0.77407 0.69691 0.0
C471 C 0.14415 0.86237 0.71147 0.0
N472 N 0.05525 0.74672 0.66447 0.0
N473 N 0.12285 0.84964 0.69457 0.0
H474 H 0.25842 0.14159 0.88297 0.0
H475 H 0.31532 0.99 0.81256 0.0
H476 H 0.37957 0.12469 0.88796 0.0
H477 H 0.20709 0.02465 0.80288 0.0
H478 H 0.34348 0.04466 0.83873 0.0
H479 H 0.24234 0.10379 0.85247 0.0
C480 C 0.28191 0.13038 0.87761 0.0
C481 C 0.32017 0.13602 0.88819 0.0
C482 C 0.31399 0.04085 0.83072 0.0
C483 C 0.30177 0.09235 0.85326 0.0
C484 C 0.29801 0.00974 0.8157 0.0
C485 C 0.25853 1.00238 0.80556 0.0
C486 C 0.29001 0.06441 0.8358 0.0
C487 C 0.23752 0.02899 0.81032 0.0
C488 C 0.27273 0.10881 0.86016 0.0
C489 C 0.34947 0.12089 0.88041 0.0
N490 N 0.25308 0.05826 0.82524 0.0
N491 N 0.33938 0.09937 0.86356 0.0
H492 H 0.63888 0.76462 0.82849 0.0
H493 H 0.71652 0.68608 0.9022 0.0
H494 H 0.77735 0.88668 0.83018 0.0
H495 H 0.82218 0.83094 0.91052 0.0
H496 H 0.68593 0.70937 0.87609 0.0
H497 H 0.6527 0.74096 0.85876 0.0
C498 C 0.67231 0.78651 0.83522 0.0
C499 C 0.70729 0.82738 0.82656 0.0
C500 C 0.71486 0.73645 0.88389 0.0
C501 C 0.72411 0.7995 0.86121 0.0
C502 C 0.73251 0.72299 0.89885 0.0
C503 C 0.77206 0.75651 0.90859 0.0
C504 C 0.73695 0.78393 0.87855 0.0
C505 C 0.7916 0.80382 0.90344 0.0
C506 C 0.68039 0.77263 0.85251 0.0
C507 C 0.7495 0.85468 0.8362 0.0
N508 N 0.7743 0.81599 0.88863 0.0
N509 N 0.75684 0.84004 0.85292 0.0
H510 H 0.89232 0.63577 0.99225 0.0
H511 H 0.99509 0.81354 0.07802 0.0
H512 H 0.88141 0.76047 0.9972 0.0
H513 H 0.02969 0.70578 0.06693 0.0
H514 H 0.94056 0.78519 0.05186 0.0
H515 H 0.93023 0.65236 0.02261 0.0
C516 C 0.89745 0.66645 0.99977 0.0
C517 C 0.88398 0.69704 0.99199 0.0
C518 C 0.95962 0.76736 0.05529 0.0
C519 C 0.92758 0.71619 0.02692 0.0
C520 C 0.99059 0.78331 0.07033 0.0
C521 C 0.01742 0.76228 0.07462 0.0
C522 C 0.95523 0.72996 0.04445 0.0
C523 C 1.00998 0.72325 0.0641 0.0
C524 C 0.91922 0.6759 0.01713 0.0
C525 C 0.89145 0.73607 1.00253 0.0
N526 N 0.97993 0.70864 0.04942 0.0
N527 N 0.913 0.74467 0.01939 0.0
H528 H 0.12033 0.86318 0.16327 0.0
H529 H 0.32682 0.01472 0.23458 0.0
H530 H 0.25902 0.88129 0.1588 0.0
H531 H 0.1835 0.98022 0.24325 0.0
H532 H 0.30116 0.96003 0.20841 0.0
H533 H 0.14108 0.90057 0.19385 0.0
C534 C 0.15498 0.87459 0.16876 0.0
C535 C 0.18807 0.86941 0.15831 0.0
C536 C 0.2752 0.96388 0.21621 0.0
C537 C 0.21222 0.91261 0.19333 0.0
C538 C 0.28984 0.99499 0.23123 0.0
C539 C 0.25737 1.00245 0.24106 0.0
C540 C 0.22781 0.94039 0.21084 0.0
C541 C 0.20987 0.97585 0.23603 0.0
C542 C 0.16682 0.89592 0.18626 0.0
C543 C 0.23239 0.88475 0.16625 0.0
N544 N 0.19665 0.94656 0.22114 0.0
N545 N 0.24328 0.90603 0.18315 0.0
H546 H 0.37585 0.2431 0.32557 0.0
H547 H 0.18623 0.16425 0.40728 0.0
H548 H 0.25049 0.10704 0.32824 0.0
H549 H 0.29884 0.30647 0.39936 0.0
H550 H 0.21683 0.13929 0.38149 0.0
H551 H 0.35526 0.26305 0.35543 0.0
C552 C 0.3442 0.21716 0.33249 0.0
C553 C 0.31464 0.17339 0.32422 0.0
C554 C 0.23516 0.17587 0.38552 0.0
C555 C 0.29081 0.19627 0.35854 0.0
C556 C 0.21785 0.19017 0.40033 0.0
C557 C 0.23977 0.23767 0.40543 0.0
C558 C 0.27478 0.20924 0.37572 0.0
C559 C 0.28063 0.26956 0.39588 0.0
C560 C 0.33243 0.22869 0.34956 0.0
C561 C 0.27421 0.14129 0.33398 0.0
N562 N 0.29658 0.25483 0.3814 0.0
N563 N 0.26335 0.15348 0.35055 0.0
H564 H 0.13449 0.36298 0.49278 0.0
H565 H 0.02338 0.17496 0.57515 0.0
H566 H 0.14199 0.23611 0.49553 0.0
H567 H 0.99127 0.28528 0.56625 0.0
H568 H 0.07889 0.20543 0.54932 0.0
H569 H 0.0938 0.34303 0.52271 0.0
C570 C 0.12812 0.3312 0.49976 0.0
C571 C 0.14141 0.30098 0.49149 0.0
C572 C 0.06009 0.2233 0.55313 0.0
C573 C 0.09467 0.27794 0.52583 0.0
C574 C 0.02851 0.20606 0.56797 0.0
C575 C 1.00225 0.22735 0.57282 0.0
C576 C 0.06568 0.26224 0.54304 0.0
C577 C 0.01054 0.26758 0.56296 0.0
C578 C 0.10472 0.31978 0.51684 0.0
C579 C 0.13216 0.26032 0.50126 0.0
N580 N 0.04123 0.28349 0.54846 0.0
N581 N 0.10919 0.2499 0.51784 0.0
H582 H 0.701 0.9846 0.73551 0.0
H583 H 0.90732 0.13445 0.66395 0.0
H584 H 0.84488 0.02222 0.74502 0.0
H585 H 0.77017 0.12016 0.65986 0.0
H586 H 0.88618 0.09711 0.69453 0.0
H587 H 0.72641 0.0383 0.70897 0.0
C588 C 0.73803 1.0048 0.73226 0.0
C589 C 0.77077 0.99856 0.74247 0.0
C590 C 0.86086 0.10258 0.68703 0.0
C591 C 0.80004 0.05947 0.71183 0.0
C592 C 0.87291 0.12386 0.66953 0.0
C593 C 0.8404 0.13021 0.65919 0.0
C594 C 0.81575 0.08696 0.69423 0.0
C595 C 0.79637 0.11589 0.66724 0.0
C596 C 0.75252 0.03535 0.71704 0.0
C597 C 0.81831 0.02568 0.73754 0.0
N598 N 0.78519 0.09451 0.68415 0.0
N599 N 0.83139 0.05438 0.72245 0.0
loop_
_geom_bond_atom_site_label_1
_geom_bond_atom_site_label_2
_geom_bond_distance
_geom_bond_site_symmetry_2
_ccdc_geom_bond_type
O0 Cd1 2.223 . S
O0 C8 1.315 . S
Cd1 O0 2.223 . S
Cd1 O4 2.297 . S
Cd1 O5 2.439 . S
Cd1 O11 2.240 . S
Cd2 O3 2.240 . S
Cd2 O10 2.223 . S
Cd2 O12 2.297 . S
Cd2 O13 2.439 . S
O3 Cd2 2.240 . S
O3 C8 1.279 . S
O4 Cd1 2.297 . S
O4 C6 1.247 . S
O5 Cd1 2.439 . S
O5 C6 1.208 . S
C6 O4 1.247 . S
C6 O5 1.208 . S
C7 O12 1.247 . S
C7 O13 1.208 . S
C8 O0 1.315 . S
C8 O3 1.279 . S
C9 O10 1.315 . S
C9 O11 1.279 . S
O10 Cd2 2.223 . S
O10 C9 1.315 . S
O11 Cd1 2.240 . S
O11 C9 1.279 . S
O12 Cd2 2.297 . S
O12 C7 1.247 . S
O13 Cd2 2.439 . S
O13 C7 1.208 . S
O14 Cd15 2.223 . S
O14 C22 1.315 . S
Cd15 O14 2.223 . S
Cd15 O18 2.297 . S
Cd15 O19 2.439 . S
Cd15 O25 2.240 . S
Cd16 O17 2.240 . S
Cd16 O24 2.223 . S
Cd16 O26 2.297 . S
Cd16 O27 2.439 . S
O17 Cd16 2.240 . S
O17 C22 1.279 . S
O18 Cd15 2.297 . S
O18 C20 1.247 . S
O19 Cd15 2.439 . S
O19 C20 1.208 . S
C20 O18 1.247 . S
C20 O19 1.208 . S
C21 O26 1.247 . S
C21 O27 1.208 . S
C22 O14 1.315 . S
C22 O17 1.279 . S
C23 O24 1.315 . S
C23 O25 1.279 . S
O24 Cd16 2.223 . S
O24 C23 1.315 . S
O25 Cd15 2.240 . S
O25 C23 1.279 . S
O26 Cd16 2.297 . S
O26 C21 1.247 . S
O27 Cd16 2.439 . S
O27 C21 1.208 . S
O28 Cd29 2.223 . S
O28 C36 1.315 . S
Cd29 O28 2.223 . S
Cd29 O32 2.297 . S
Cd29 O33 2.439 . S
Cd29 O39 2.240 . S
Cd30 O31 2.240 . S
Cd30 O38 2.223 . S
Cd30 O40 2.297 . S
Cd30 O41 2.439 . S
O31 Cd30 2.240 . S
O31 C36 1.279 . S
O32 Cd29 2.297 . S
O32 C34 1.247 . S
O33 Cd29 2.439 . S
O33 C34 1.208 . S
C34 O32 1.247 . S
C34 O33 1.208 . S
C35 O40 1.247 . S
C35 O41 1.208 . S
C36 O28 1.315 . S
C36 O31 1.279 . S
C37 O38 1.315 . S
C37 O39 1.279 . S
O38 Cd30 2.223 . S
O38 C37 1.315 . S
O39 Cd29 2.240 . S
O39 C37 1.279 . S
O40 Cd30 2.297 . S
O40 C35 1.247 . S
O41 Cd30 2.439 . S
O41 C35 1.208 . S
O42 Cd43 2.223 . S
O42 C50 1.315 . S
Cd43 O42 2.223 . S
Cd43 O46 2.297 . S
Cd43 O47 2.439 . S
Cd43 O53 2.240 . S
Cd44 O45 2.240 . S
Cd44 O52 2.223 . S
Cd44 O54 2.297 . S
Cd44 O55 2.439 . S
O45 Cd44 2.240 . S
O45 C50 1.279 . S
O46 Cd43 2.297 . S
O46 C48 1.247 . S
O47 Cd43 2.439 . S
O47 C48 1.208 . S
C48 O46 1.247 . S
C48 O47 1.208 . S
C49 O54 1.247 . S
C49 O55 1.208 . S
C50 O42 1.315 . S
C50 O45 1.279 . S
C51 O52 1.315 . S
C51 O53 1.279 . S
O52 Cd44 2.223 . S
O52 C51 1.315 . S
O53 Cd43 2.240 . S
O53 C51 1.279 . S
O54 Cd44 2.297 . S
O54 C49 1.247 . S
O55 Cd44 2.439 . S
O55 C49 1.208 . S
O56 Cd57 2.223 . S
O56 C64 1.315 . S
Cd57 O56 2.223 . S
Cd57 O60 2.297 . S
Cd57 O61 2.439 . S
Cd57 O67 2.240 . S
Cd58 O59 2.240 . S
Cd58 O66 2.223 . S
Cd58 O68 2.297 . S
Cd58 O69 2.439 . S
O59 Cd58 2.240 . S
O59 C64 1.279 . S
O60 Cd57 2.297 . S
O60 C62 1.247 . S
O61 Cd57 2.439 . S
O61 C62 1.208 . S
C62 O60 1.247 . S
C62 O61 1.208 . S
C63 O68 1.247 . S
C63 O69 1.208 . S
C64 O56 1.315 . S
C64 O59 1.279 . S
C65 O66 1.315 . S
C65 O67 1.279 . S
O66 Cd58 2.223 . S
O66 C65 1.315 . S
O67 Cd57 2.240 . S
O67 C65 1.279 . S
O68 Cd58 2.297 . S
O68 C63 1.247 . S
O69 Cd58 2.439 . S
O69 C63 1.208 . S
O70 Cd71 2.223 . S
O70 C78 1.315 . S
Cd71 O70 2.223 . S
Cd71 O74 2.297 . S
Cd71 O75 2.439 . S
Cd71 O81 2.240 . S
Cd72 O73 2.240 . S
Cd72 O80 2.223 . S
Cd72 O82 2.297 1_556 S
Cd72 O83 2.439 . S
O73 Cd72 2.240 . S
O73 C78 1.279 . S
O74 Cd71 2.297 . S
O74 C76 1.247 . S
O75 Cd71 2.439 . S
O75 C76 1.208 . S
C76 O74 1.247 . S
C76 O75 1.208 . S
C77 O82 1.247 . S
C77 O83 1.208 1_554 S
C78 O70 1.315 . S
C78 O73 1.279 . S
C79 O80 1.315 . S
C79 O81 1.279 . S
O80 Cd72 2.223 . S
O80 C79 1.315 . S
O81 Cd71 2.240 . S
O81 C79 1.279 . S
O82 Cd72 2.297 1_554 S
O82 C77 1.247 . S
O83 Cd72 2.439 . S
O83 C77 1.208 1_556 S
O84 Cd85 2.223 . S
O84 C92 1.315 . S
Cd85 O84 2.223 . S
Cd85 O88 2.297 . S
Cd85 O89 2.439 . S
Cd85 O95 2.240 . S
Cd86 O87 2.240 . S
Cd86 O94 2.223 . S
Cd86 O96 2.297 . S
Cd86 O97 2.439 . S
O87 Cd86 2.240 . S
O87 C92 1.279 . S
O88 Cd85 2.297 . S
O88 C90 1.247 . S
O89 Cd85 2.439 . S
O89 C90 1.208 . S
C90 O88 1.247 . S
C90 O89 1.208 . S
C91 O96 1.247 . S
C91 O97 1.208 . S
C92 O84 1.315 . S
C92 O87 1.279 . S
C93 O94 1.315 . S
C93 O95 1.279 . S
O94 Cd86 2.223 . S
O94 C93 1.315 . S
O95 Cd85 2.240 . S
O95 C93 1.279 . S
O96 Cd86 2.297 . S
O96 C91 1.247 . S
O97 Cd86 2.439 . S
O97 C91 1.208 . S
O98 Cd99 2.223 . S
O98 C106 1.315 . S
Cd99 O98 2.223 . S
Cd99 O102 2.297 . S
Cd99 O103 2.439 . S
Cd99 O109 2.240 . S
Cd100 O101 2.240 . S
Cd100 O108 2.223 . S
Cd100 O110 2.297 . S
Cd100 O111 2.439 . S
O101 Cd100 2.240 . S
O101 C106 1.279 . S
O102 Cd99 2.297 . S
O102 C104 1.247 . S
O103 Cd99 2.439 . S
O103 C104 1.208 . S
C104 O102 1.247 . S
C104 O103 1.208 . S
C105 O110 1.247 . S
C105 O111 1.208 . S
C106 O98 1.315 . S
C106 O101 1.279 . S
C107 O108 1.315 . S
C107 O109 1.279 . S
O108 Cd100 2.223 . S
O108 C107 1.315 . S
O109 Cd99 2.240 . S
O109 C107 1.279 . S
O110 Cd100 2.297 . S
O110 C105 1.247 . S
O111 Cd100 2.439 . S
O111 C105 1.208 . S
O112 Cd113 2.223 . S
O112 C120 1.315 . S
Cd113 O112 2.223 . S
Cd113 O116 2.297 . S
Cd113 O117 2.439 . S
Cd113 O123 2.240 . S
Cd114 O115 2.240 . S
Cd114 O122 2.223 . S
Cd114 O124 2.297 . S
Cd114 O125 2.439 . S
O115 Cd114 2.240 . S
O115 C120 1.279 . S
O116 Cd113 2.297 . S
O116 C118 1.247 . S
O117 Cd113 2.439 . S
O117 C118 1.208 . S
C118 O116 1.247 . S
C118 O117 1.208 . S
C119 O124 1.247 . S
C119 O125 1.208 . S
C120 O112 1.315 . S
C120 O115 1.279 . S
C121 O122 1.315 . S
C121 O123 1.279 . S
O122 Cd114 2.223 . S
O122 C121 1.315 . S
O123 Cd113 2.240 . S
O123 C121 1.279 . S
O124 Cd114 2.297 . S
O124 C119 1.247 . S
O125 Cd114 2.439 . S
O125 C119 1.208 . S
O126 Cd127 2.223 . S
O126 C134 1.315 . S
Cd127 O126 2.223 . S
Cd127 O130 2.297 . S
Cd127 O131 2.439 . S
Cd127 O137 2.240 . S
Cd128 O129 2.240 . S
Cd128 O136 2.223 . S
Cd128 O138 2.297 . S
Cd128 O139 2.439 . S
O129 Cd128 2.240 . S
O129 C134 1.279 . S
O130 Cd127 2.297 . S
O130 C132 1.247 . S
O131 Cd127 2.439 . S
O131 C132 1.208 . S
C132 O130 1.247 . S
C132 O131 1.208 . S
C133 O138 1.247 . S
C133 O139 1.208 . S
C134 O126 1.315 . S
C134 O129 1.279 . S
C135 O136 1.315 . S
C135 O137 1.279 . S
O136 Cd128 2.223 . S
O136 C135 1.315 . S
O137 Cd127 2.240 . S
O137 C135 1.279 . S
O138 Cd128 2.297 . S
O138 C133 1.247 . S
O139 Cd128 2.439 . S
O139 C133 1.208 . S
O140 Cd141 2.223 . S
O140 C148 1.315 . S
Cd141 O140 2.223 . S
Cd141 O144 2.297 . S
Cd141 O145 2.439 . S
Cd141 O151 2.240 . S
Cd142 O143 2.240 . S
Cd142 O150 2.223 . S
Cd142 O152 2.297 . S
Cd142 O153 2.439 . S
O143 Cd142 2.240 . S
O143 C148 1.279 . S
O144 Cd141 2.297 . S
O144 C146 1.247 . S
O145 Cd141 2.439 . S
O145 C146 1.208 . S
C146 O144 1.247 . S
C146 O145 1.208 . S
C147 O152 1.247 . S
C147 O153 1.208 . S
C148 O140 1.315 . S
C148 O143 1.279 . S
C149 O150 1.315 . S
C149 O151 1.279 . S
O150 Cd142 2.223 . S
O150 C149 1.315 . S
O151 Cd141 2.240 . S
O151 C149 1.279 . S
O152 Cd142 2.297 . S
O152 C147 1.247 . S
O153 Cd142 2.439 . S
O153 C147 1.208 . S
O154 Cd155 2.223 . S
O154 C162 1.315 . S
Cd155 O154 2.223 . S
Cd155 O158 2.297 . S
Cd155 O159 2.439 . S
Cd155 O165 2.240 . S
Cd156 O157 2.240 . S
Cd156 O164 2.223 . S
Cd156 O166 2.297 . S
Cd156 O167 2.439 . S
O157 Cd156 2.240 . S
O157 C162 1.279 . S
O158 Cd155 2.297 . S
O158 C160 1.247 . S
O159 Cd155 2.439 . S
O159 C160 1.208 . S
C160 O158 1.247 . S
C160 O159 1.208 . S
C161 O166 1.247 . S
C161 O167 1.208 . S
C162 O154 1.315 . S
C162 O157 1.279 . S
C163 O164 1.315 . S
C163 O165 1.279 . S
O164 Cd156 2.223 . S
O164 C163 1.315 . S
O165 Cd155 2.240 . S
O165 C163 1.279 . S
O166 Cd156 2.297 . S
O166 C161 1.247 . S
O167 Cd156 2.439 . S
O167 C161 1.208 . S
H168 C174 0.930 . S
H169 C178 0.930 . S
H170 C183 0.929 . S
H171 C181 0.929 . S
H172 C176 0.929 . S
H173 C182 0.929 . S
C174 H168 0.930 . S
C174 C175 1.367 . S
C174 C182 1.378 . S
C175 C174 1.367 . S
C175 C183 1.433 . S
C176 H172 0.929 . S
C176 C178 1.378 . S
C176 C180 1.350 . S
C177 C180 1.463 . S
C177 C182 1.350 . S
C177 N185 1.427 . S
C178 H169 0.930 . S
C178 C176 1.378 . S
C178 C179 1.367 . S
C179 C178 1.367 . S
C179 C181 1.433 . S
C180 C176 1.350 . S
C180 C177 1.463 . S
C180 N184 1.427 . S
C181 H171 0.929 . S
C181 C179 1.433 . S
C181 N184 1.384 . S
C182 H173 0.929 . S
C182 C174 1.378 . S
C182 C177 1.350 . S
C183 H170 0.929 . S
C183 C175 1.433 . S
C183 N185 1.384 . S
N184 C180 1.427 . S
N184 C181 1.384 . S
N185 C177 1.427 . S
N185 C183 1.384 . S
H186 C192 0.930 . S
H187 C196 0.930 . S
H188 C201 0.929 . S
H189 C199 0.929 . S
H190 C194 0.929 . S
H191 C200 0.929 . S
C192 H186 0.930 . S
C192 C193 1.367 . S
C192 C200 1.378 . S
C193 C192 1.367 . S
C193 C201 1.433 . S
C194 H190 0.929 . S
C194 C196 1.378 . S
C194 C198 1.350 . S
C195 C198 1.463 . S
C195 C200 1.350 . S
C195 N203 1.427 . S
C196 H187 0.930 . S
C196 C194 1.378 . S
C196 C197 1.367 . S
C197 C196 1.367 . S
C197 C199 1.433 . S
C198 C194 1.350 . S
C198 C195 1.463 . S
C198 N202 1.427 . S
C199 H189 0.929 . S
C199 C197 1.433 . S
C199 N202 1.384 . S
C200 H191 0.929 . S
C200 C192 1.378 . S
C200 C195 1.350 . S
C201 H188 0.929 . S
C201 C193 1.433 . S
C201 N203 1.384 . S
N202 C198 1.427 . S
N202 C199 1.384 . S
N203 C195 1.427 . S
N203 C201 1.384 . S
H204 C210 0.930 . S
H205 C214 0.930 . S
H206 C219 0.929 . S
H207 C217 0.929 . S
H208 C212 0.929 . S
H209 C218 0.929 . S
C210 H204 0.930 . S
C210 C211 1.367 . S
C210 C218 1.378 . S
C211 C210 1.367 . S
C211 C219 1.433 . S
C212 H208 0.929 . S
C212 C214 1.378 . S
C212 C216 1.350 . S
C213 C216 1.463 . S
C213 C218 1.350 . S
C213 N221 1.427 . S
C214 H205 0.930 . S
C214 C212 1.378 . S
C214 C215 1.367 . S
C215 C214 1.367 . S
C215 C217 1.433 . S
C216 C212 1.350 . S
C216 C213 1.463 . S
C216 N220 1.427 . S
C217 H207 0.929 . S
C217 C215 1.433 . S
C217 N220 1.384 . S
C218 H209 0.929 . S
C218 C210 1.378 . S
C218 C213 1.350 . S
C219 H206 0.929 . S
C219 C211 1.433 . S
C219 N221 1.384 . S
N220 C216 1.427 . S
N220 C217 1.384 . S
N221 C213 1.427 . S
N221 C219 1.384 . S
H222 C228 0.930 . S
H223 C232 0.930 . S
H224 C237 0.929 . S
H225 C235 0.929 . S
H226 C230 0.929 . S
H227 C236 0.929 . S
C228 H222 0.930 . S
C228 C229 1.367 . S
C228 C236 1.378 . S
C229 C228 1.367 . S
C229 C237 1.433 . S
C230 H226 0.929 . S
C230 C232 1.378 . S
C230 C234 1.350 . S
C231 C234 1.463 . S
C231 C236 1.350 . S
C231 N239 1.427 . S
C232 H223 0.930 . S
C232 C230 1.378 . S
C232 C233 1.367 . S
C233 C232 1.367 . S
C233 C235 1.433 . S
C234 C230 1.350 . S
C234 C231 1.463 . S
C234 N238 1.427 . S
C235 H225 0.929 . S
C235 C233 1.433 . S
C235 N238 1.384 . S
C236 H227 0.929 . S
C236 C228 1.378 . S
C236 C231 1.350 . S
C237 H224 0.929 . S
C237 C229 1.433 . S
C237 N239 1.384 . S
N238 C234 1.427 . S
N238 C235 1.384 . S
N239 C231 1.427 . S
N239 C237 1.384 . S
H240 C246 0.930 . S
H241 C250 0.930 . S
H242 C255 0.929 . S
H243 C253 0.929 . S
H244 C248 0.929 . S
H245 C254 0.929 . S
C246 H240 0.930 . S
C246 C247 1.367 . S
C246 C254 1.378 . S
C247 C246 1.367 . S
C247 C255 1.433 . S
C248 H244 0.929 . S
C248 C250 1.378 . S
C248 C252 1.350 . S
C249 C252 1.463 . S
C249 C254 1.350 . S
C249 N257 1.427 . S
C250 H241 0.930 . S
C250 C248 1.378 . S
C250 C251 1.367 . S
C251 C250 1.367 . S
C251 C253 1.433 . S
C252 C248 1.350 . S
C252 C249 1.463 . S
C252 N256 1.427 . S
C253 H243 0.929 . S
C253 C251 1.433 . S
C253 N256 1.384 . S
C254 H245 0.929 . S
C254 C246 1.378 . S
C254 C249 1.350 . S
C255 H242 0.929 . S
C255 C247 1.433 . S
C255 N257 1.384 . S
N256 C252 1.427 . S
N256 C253 1.384 . S
N257 C249 1.427 . S
N257 C255 1.384 . S
H258 C264 0.930 . S
H259 C268 0.930 . S
H260 C273 0.929 . S
H261 C271 0.929 . S
H262 C266 0.929 . S
H263 C272 0.929 . S
C264 H258 0.930 . S
C264 C265 1.367 . S
C264 C272 1.378 . S
C265 C264 1.367 . S
C265 C273 1.433 . S
C266 H262 0.929 . S
C266 C268 1.378 . S
C266 C270 1.350 . S
C267 C270 1.463 . S
C267 C272 1.350 . S
C267 N275 1.427 . S
C268 H259 0.930 . S
C268 C266 1.378 . S
C268 C269 1.367 . S
C269 C268 1.367 . S
C269 C271 1.433 . S
C270 C266 1.350 . S
C270 C267 1.463 . S
C270 N274 1.427 . S
C271 H261 0.929 . S
C271 C269 1.433 . S
C271 N274 1.384 . S
C272 H263 0.929 . S
C272 C264 1.378 . S
C272 C267 1.350 . S
C273 H260 0.929 . S
C273 C265 1.433 . S
C273 N275 1.384 . S
N274 C270 1.427 . S
N274 C271 1.384 . S
N275 C267 1.427 . S
N275 C273 1.384 . S
H276 C282 0.930 . S
H277 C286 0.930 . S
H278 C291 0.929 . S
H279 C289 0.929 . S
H280 C284 0.929 . S
H281 C290 0.929 . S
C282 H276 0.930 . S
C282 C283 1.367 . S
C282 C290 1.378 . S
C283 C282 1.367 . S
C283 C291 1.433 . S
C284 H280 0.929 . S
C284 C286 1.378 . S
C284 C288 1.350 . S
C285 C288 1.463 . S
C285 C290 1.350 . S
C285 N293 1.427 . S
C286 H277 0.930 . S
C286 C284 1.378 . S
C286 C287 1.367 . S
C287 C286 1.367 . S
C287 C289 1.433 . S
C288 C284 1.350 . S
C288 C285 1.463 . S
C288 N292 1.427 . S
C289 H279 0.929 . S
C289 C287 1.433 . S
C289 N292 1.384 . S
C290 H281 0.929 . S
C290 C282 1.378 . S
C290 C285 1.350 . S
C291 H278 0.929 . S
C291 C283 1.433 . S
C291 N293 1.384 . S
N292 C288 1.427 . S
N292 C289 1.384 . S
N293 C285 1.427 . S
N293 C291 1.384 . S
H294 C300 0.930 . S
H295 C304 0.930 . S
H296 C309 0.929 . S
H297 C307 0.929 . S
H298 C302 0.929 . S
H299 C308 0.928 1_455 S
C300 H294 0.930 . S
C300 C301 1.367 . S
C300 C308 1.378 . S
C301 C300 1.367 . S
C301 C309 1.433 . S
C302 H298 0.929 . S
C302 C304 1.378 . S
C302 C306 1.350 . S
C303 C306 1.463 1_655 S
C303 C308 1.350 . S
C303 N311 1.427 . S
C304 H295 0.930 . S
C304 C302 1.378 . S
C304 C305 1.367 . S
C305 C304 1.367 . S
C305 C307 1.433 . S
C306 C302 1.350 . S
C306 C303 1.463 1_455 S
C306 N310 1.427 . S
C307 H297 0.929 . S
C307 C305 1.433 . S
C307 N310 1.384 . S
C308 H299 0.928 1_655 S
C308 C300 1.378 . S
C308 C303 1.350 . S
C309 H296 0.929 . S
C309 C301 1.433 . S
C309 N311 1.384 . S
N310 C306 1.427 . S
N310 C307 1.384 . S
N311 C303 1.427 . S
N311 C309 1.384 . S
H312 C318 0.930 . S
H313 C322 0.930 . S
H314 C327 0.929 . S
H315 C325 0.929 . S
H316 C320 0.929 . S
H317 C326 0.936 . S
C318 H312 0.930 . S
C318 C319 1.367 . S
C318 C326 1.378 . S
C319 C318 1.367 . S
C319 C327 1.433 . S
C320 H316 0.929 . S
C320 C322 1.378 . S
C320 C324 1.350 . S
C321 C324 1.463 1_545 S
C321 C326 1.350 . S
C321 N329 1.427 . S
C322 H313 0.930 . S
C322 C320 1.378 . S
C322 C323 1.367 . S
C323 C322 1.367 . S
C323 C325 1.433 . S
C324 C320 1.350 . S
C324 C321 1.463 1_565 S
C324 N328 1.427 . S
C325 H315 0.929 . S
C325 C323 1.433 . S
C325 N328 1.384 . S
C326 H317 0.936 . S
C326 C318 1.378 . S
C326 C321 1.350 . S
C327 H314 0.929 . S
C327 C319 1.433 . S
C327 N329 1.384 . S
N328 C324 1.427 . S
N328 C325 1.384 . S
N329 C321 1.427 . S
N329 C327 1.384 . S
H330 C336 0.930 . S
H331 C340 0.930 . S
H332 C345 0.929 . S
H333 C343 0.929 . S
H334 C338 0.929 . S
H335 C344 0.929 . S
C336 H330 0.930 . S
C336 C337 1.367 . S
C336 C344 1.378 . S
C337 C336 1.367 . S
C337 C345 1.433 . S
C338 H334 0.929 . S
C338 C340 1.378 . S
C338 C342 1.350 . S
C339 C342 1.463 . S
C339 C344 1.350 . S
C339 N347 1.427 . S
C340 H331 0.930 . S
C340 C338 1.378 . S
C340 C341 1.367 . S
C341 C340 1.367 . S
C341 C343 1.433 . S
C342 C338 1.350 . S
C342 C339 1.463 . S
C342 N346 1.427 . S
C343 H333 0.929 . S
C343 C341 1.433 . S
C343 N346 1.384 . S
C344 H335 0.929 . S
C344 C336 1.378 . S
C344 C339 1.350 . S
C345 H332 0.929 . S
C345 C337 1.433 . S
C345 N347 1.384 . S
N346 C342 1.427 . S
N346 C343 1.384 . S
N347 C339 1.427 . S
N347 C345 1.384 . S
H348 C354 0.930 . S
H349 C358 0.930 . S
H350 C363 0.929 . S
H351 C361 0.929 . S
H352 C356 0.929 . S
H353 C362 0.929 . S
C354 H348 0.930 . S
C354 C355 1.367 . S
C354 C362 1.378 . S
C355 C354 1.367 . S
C355 C363 1.433 . S
C356 H352 0.929 . S
C356 C358 1.378 . S
C356 C360 1.350 . S
C357 C360 1.463 1_655 S
C357 C362 1.350 . S
C357 N365 1.427 . S
C358 H349 0.930 . S
C358 C356 1.378 . S
C358 C359 1.367 . S
C359 C358 1.367 . S
C359 C361 1.433 . S
C360 C356 1.350 . S
C360 C357 1.463 1_455 S
C360 N364 1.427 . S
C361 H351 0.929 . S
C361 C359 1.433 . S
C361 N364 1.384 . S
C362 H353 0.929 . S
C362 C354 1.378 . S
C362 C357 1.350 . S
C363 H350 0.929 . S
C363 C355 1.433 . S
C363 N365 1.384 . S
N364 C360 1.427 . S
N364 C361 1.384 . S
N365 C357 1.427 . S
N365 C363 1.384 . S
H366 C372 0.930 . S
H367 C376 0.930 . S
H368 C381 0.929 . S
H369 C379 0.929 . S
H370 C374 0.929 . S
H371 C380 0.929 . S
C372 H366 0.930 . S
C372 C373 1.367 . S
C372 C380 1.378 . S
C373 C372 1.367 . S
C373 C381 1.433 . S
C374 H370 0.929 . S
C374 C376 1.378 . S
C374 C378 1.350 1_556 S
C375 C378 1.463 1_565 S
C375 C380 1.350 . S
C375 N383 1.427 . S
C376 H367 0.930 . S
C376 C374 1.378 . S
C376 C377 1.367 . S
C377 C376 1.367 . S
C377 C379 1.433 1_556 S
C378 C374 1.350 1_554 S
C378 C375 1.463 1_545 S
C378 N382 1.427 . S
C379 H369 0.929 . S
C379 C377 1.433 1_554 S
C379 N382 1.384 . S
C380 H371 0.929 . S
C380 C372 1.378 . S
C380 C375 1.350 . S
C381 H368 0.929 . S
C381 C373 1.433 . S
C381 N383 1.384 . S
N382 C378 1.427 . S
N382 C379 1.384 . S
N383 C375 1.427 . S
N383 C381 1.384 . S
H384 C390 0.930 . S
H385 C394 0.930 . S
H386 C399 0.929 . S
H387 C397 0.929 . S
H388 C392 0.929 . S
H389 C398 0.929 . S
C390 H384 0.930 . S
C390 C391 1.367 . S
C390 C398 1.378 . S
C391 C390 1.367 . S
C391 C399 1.433 . S
C392 H388 0.929 . S
C392 C394 1.378 . S
C392 C396 1.350 . S
C393 C396 1.463 . S
C393 C398 1.350 . S
C393 N401 1.427 . S
C394 H385 0.930 . S
C394 C392 1.378 . S
C394 C395 1.367 . S
C395 C394 1.367 . S
C395 C397 1.433 . S
C396 C392 1.350 . S
C396 C393 1.463 . S
C396 N400 1.427 . S
C397 H387 0.929 . S
C397 C395 1.433 . S
C397 N400 1.384 . S
C398 H389 0.929 . S
C398 C390 1.378 . S
C398 C393 1.350 . S
C399 H386 0.929 . S
C399 C391 1.433 . S
C399 N401 1.384 . S
N400 C396 1.427 . S
N400 C397 1.384 . S
N401 C393 1.427 . S
N401 C399 1.384 . S
H402 C408 0.930 . S
H403 C412 0.930 . S
H404 C417 0.929 . S
H405 C415 0.929 . S
H406 C410 0.929 . S
H407 C416 0.929 . S
C408 H402 0.930 . S
C408 C409 1.367 . S
C408 C416 1.378 . S
C409 C408 1.367 . S
C409 C417 1.433 . S
C410 H406 0.929 . S
C410 C412 1.378 . S
C410 C414 1.350 . S
C411 C414 1.463 . S
C411 C416 1.350 . S
C411 N419 1.427 . S
C412 H403 0.930 . S
C412 C410 1.378 . S
C412 C413 1.367 . S
C413 C412 1.367 . S
C413 C415 1.433 1_655 S
C414 C410 1.350 . S
C414 C411 1.463 . S
C414 N418 1.427 . S
C415 H405 0.929 . S
C415 C413 1.433 1_455 S
C415 N418 1.384 1_455 S
C416 H407 0.929 . S
C416 C408 1.378 . S
C416 C411 1.350 . S
C417 H404 0.929 . S
C417 C409 1.433 . S
C417 N419 1.384 . S
N418 C414 1.427 . S
N418 C415 1.384 1_655 S
N419 C411 1.427 . S
N419 C417 1.384 . S
H420 C426 0.930 . S
H421 C430 0.930 . S
H422 C435 0.929 . S
H423 C433 0.929 . S
H424 C428 0.929 . S
H425 C434 0.929 . S
C426 H420 0.930 . S
C426 C427 1.367 1_545 S
C426 C434 1.378 1_545 S
C427 C426 1.367 1_565 S
C427 C435 1.433 . S
C428 H424 0.929 . S
C428 C430 1.378 . S
C428 C432 1.350 . S
C429 C432 1.463 . S
C429 C434 1.350 . S
C429 N437 1.427 . S
C430 H421 0.930 . S
C430 C428 1.378 . S
C430 C431 1.367 . S
C431 C430 1.367 . S
C431 C433 1.433 . S
C432 C428 1.350 . S
C432 C429 1.463 . S
C432 N436 1.427 . S
C433 H423 0.929 . S
C433 C431 1.433 . S
C433 N436 1.384 . S
C434 H425 0.929 . S
C434 C426 1.378 1_565 S
C434 C429 1.350 . S
C435 H422 0.929 . S
C435 C427 1.433 . S
C435 N437 1.384 . S
N436 C432 1.427 . S
N436 C433 1.384 . S
N437 C429 1.427 . S
N437 C435 1.384 . S
H438 C444 0.930 . S
H439 C448 0.930 . S
H440 C453 0.929 . S
H441 C451 0.929 . S
H442 C446 0.929 . S
H443 C452 0.929 . S
C444 H438 0.930 . S
C444 C445 1.367 . S
C444 C452 1.378 . S
C445 C444 1.367 . S
C445 C453 1.433 . S
C446 H442 0.929 . S
C446 C448 1.378 . S
C446 C450 1.350 . S
C447 C450 1.463 . S
C447 C452 1.350 . S
C447 N455 1.427 . S
C448 H439 0.930 . S
C448 C446 1.378 . S
C448 C449 1.367 . S
C449 C448 1.367 . S
C449 C451 1.433 . S
C450 C446 1.350 . S
C450 C447 1.463 . S
C450 N454 1.427 . S
C451 H441 0.929 . S
C451 C449 1.433 . S
C451 N454 1.384 . S
C452 H443 0.929 . S
C452 C444 1.378 . S
C452 C447 1.350 . S
C453 H440 0.929 . S
C453 C445 1.433 . S
C453 N455 1.384 . S
N454 C450 1.427 . S
N454 C451 1.384 . S
N455 C447 1.427 . S
N455 C453 1.384 . S
H456 C462 0.930 . S
H457 C466 0.930 . S
H458 C471 0.929 . S
H459 C469 0.929 . S
H460 C464 0.929 . S
H461 C470 0.929 . S
C462 H456 0.930 . S
C462 C463 1.367 . S
C462 C470 1.378 . S
C463 C462 1.367 . S
C463 C471 1.433 . S
C464 H460 0.929 . S
C464 C466 1.378 . S
C464 C468 1.350 . S
C465 C468 1.463 . S
C465 C470 1.350 . S
C465 N473 1.427 . S
C466 H457 0.930 . S
C466 C464 1.378 . S
C466 C467 1.367 . S
C467 C466 1.367 . S
C467 C469 1.433 1_455 S
C468 C464 1.350 . S
C468 C465 1.463 . S
C468 N472 1.427 . S
C469 H459 0.929 . S
C469 C467 1.433 1_655 S
C469 N472 1.384 1_655 S
C470 H461 0.929 . S
C470 C462 1.378 . S
C470 C465 1.350 . S
C471 H458 0.929 . S
C471 C463 1.433 . S
C471 N473 1.384 . S
N472 C468 1.427 . S
N472 C469 1.384 1_455 S
N473 C465 1.427 . S
N473 C471 1.384 . S
H474 C480 0.930 . S
H475 C484 0.930 . S
H476 C489 0.929 . S
H477 C487 0.929 . S
H478 C482 0.929 . S
H479 C488 0.929 . S
C480 H474 0.930 . S
C480 C481 1.367 . S
C480 C488 1.378 . S
C481 C480 1.367 . S
C481 C489 1.433 . S
C482 H478 0.929 . S
C482 C484 1.378 . S
C482 C486 1.350 . S
C483 C486 1.463 . S
C483 C488 1.350 . S
C483 N491 1.427 . S
C484 H475 0.930 . S
C484 C482 1.378 . S
C484 C485 1.367 . S
C485 C484 1.367 . S
C485 C487 1.433 1_545 S
C486 C482 1.350 . S
C486 C483 1.463 . S
C486 N490 1.427 . S
C487 H477 0.929 . S
C487 C485 1.433 1_565 S
C487 N490 1.384 1_565 S
C488 H479 0.929 . S
C488 C480 1.378 . S
C488 C483 1.350 . S
C489 H476 0.929 . S
C489 C481 1.433 . S
C489 N491 1.384 . S
N490 C486 1.427 . S
N490 C487 1.384 1_545 S
N491 C483 1.427 . S
N491 C489 1.384 . S
H492 C498 0.930 . S
H493 C502 0.930 . S
H494 C507 0.929 . S
H495 C505 0.929 . S
H496 C500 0.929 . S
H497 C506 0.929 . S
C498 H492 0.930 . S
C498 C499 1.367 . S
C498 C506 1.378 . S
C499 C498 1.367 . S
C499 C507 1.433 . S
C500 H496 0.929 . S
C500 C502 1.378 . S
C500 C504 1.350 . S
C501 C504 1.463 . S
C501 C506 1.350 . S
C501 N509 1.427 . S
C502 H493 0.930 . S
C502 C500 1.378 . S
C502 C503 1.367 . S
C503 C502 1.367 . S
C503 C505 1.433 . S
C504 C500 1.350 . S
C504 C501 1.463 . S
C504 N508 1.427 . S
C505 H495 0.929 . S
C505 C503 1.433 . S
C505 N508 1.384 . S
C506 H497 0.929 . S
C506 C498 1.378 . S
C506 C501 1.350 . S
C507 H494 0.929 . S
C507 C499 1.433 . S
C507 N509 1.384 . S
N508 C504 1.427 . S
N508 C505 1.384 . S
N509 C501 1.427 . S
N509 C507 1.384 . S
H510 C516 0.930 . S
H511 C520 0.926 1_454 S
H512 C525 0.929 . S
H513 C523 0.933 . S
H514 C518 0.929 . S
H515 C524 0.929 . S
C516 H510 0.930 . S
C516 C517 1.367 . S
C516 C524 1.378 . S
C517 C516 1.367 . S
C517 C525 1.433 . S
C518 H514 0.929 . S
C518 C520 1.387 . S
C518 C522 1.350 . S
C519 C522 1.463 . S
C519 C524 1.350 . S
C519 N527 1.427 . S
C520 H511 0.926 1_656 S
C520 C518 1.387 . S
C520 C521 1.362 1_556 S
C521 C520 1.362 1_554 S
C521 C523 1.437 . S
C522 C518 1.350 . S
C522 C519 1.463 . S
C522 N526 1.427 . S
C523 H513 0.933 . S
C523 C521 1.437 . S
C523 N526 1.376 1_554 S
C524 H515 0.929 . S
C524 C516 1.378 . S
C524 C519 1.350 . S
C525 H512 0.929 . S
C525 C517 1.433 . S
C525 N527 1.384 . S
N526 C522 1.427 . S
N526 C523 1.376 1_556 S
N527 C519 1.427 . S
N527 C525 1.384 . S
H528 C534 0.930 . S
H529 C538 0.930 . S
H530 C543 0.929 . S
H531 C541 0.929 1_545 S
H532 C536 0.929 . S
H533 C542 0.929 . S
C534 H528 0.930 . S
C534 C535 1.367 . S
C534 C542 1.378 . S
C535 C534 1.367 . S
C535 C543 1.433 . S
C536 H532 0.929 . S
C536 C538 1.378 . S
C536 C540 1.350 . S
C537 C540 1.463 . S
C537 C542 1.350 . S
C537 N545 1.427 . S
C538 H529 0.930 . S
C538 C536 1.378 . S
C538 C539 1.367 . S
C539 C538 1.367 . S
C539 C541 1.433 . S
C540 C536 1.350 . S
C540 C537 1.463 . S
C540 N544 1.427 . S
C541 H531 0.929 1_565 S
C541 C539 1.433 . S
C541 N544 1.384 . S
C542 H533 0.929 . S
C542 C534 1.378 . S
C542 C537 1.350 . S
C543 H530 0.929 . S
C543 C535 1.433 . S
C543 N545 1.384 . S
N544 C540 1.427 . S
N544 C541 1.384 . S
N545 C537 1.427 . S
N545 C543 1.384 . S
H546 C552 0.930 . S
H547 C556 0.930 . S
H548 C561 0.929 . S
H549 C559 0.929 . S
H550 C554 0.929 . S
H551 C560 0.929 . S
C552 H546 0.930 . S
C552 C553 1.367 . S
C552 C560 1.378 . S
C553 C552 1.367 . S
C553 C561 1.433 . S
C554 H550 0.929 . S
C554 C556 1.378 . S
C554 C558 1.350 . S
C555 C558 1.463 . S
C555 C560 1.350 . S
C555 N563 1.427 . S
C556 H547 0.930 . S
C556 C554 1.378 . S
C556 C557 1.367 . S
C557 C556 1.367 . S
C557 C559 1.433 . S
C558 C554 1.350 . S
C558 C555 1.463 . S
C558 N562 1.427 . S
C559 H549 0.929 . S
C559 C557 1.433 . S
C559 N562 1.384 . S
C560 H551 0.929 . S
C560 C552 1.378 . S
C560 C555 1.350 . S
C561 H548 0.929 . S
C561 C553 1.433 . S
C561 N563 1.384 . S
N562 C558 1.427 . S
N562 C559 1.384 . S
N563 C555 1.427 . S
N563 C561 1.384 . S
H564 C570 0.930 . S
H565 C574 0.930 1_655 S
H566 C579 0.929 . S
H567 C577 0.929 . S
H568 C572 0.929 . S
H569 C578 0.929 . S
C570 H564 0.930 . S
C570 C571 1.367 . S
C570 C578 1.378 . S
C571 C570 1.367 . S
C571 C579 1.433 . S
C572 H568 0.929 . S
C572 C574 1.378 . S
C572 C576 1.350 . S
C573 C576 1.463 . S
C573 C578 1.350 . S
C573 N581 1.427 . S
C574 H565 0.930 1_455 S
C574 C572 1.378 . S
C574 C575 1.367 . S
C575 C574 1.367 . S
C575 C577 1.433 . S
C576 C572 1.350 . S
C576 C573 1.463 . S
C576 N580 1.427 . S
C577 H567 0.929 . S
C577 C575 1.433 . S
C577 N580 1.384 . S
C578 H569 0.929 . S
C578 C570 1.378 . S
C578 C573 1.350 . S
C579 H566 0.929 . S
C579 C571 1.433 . S
C579 N581 1.384 . S
N580 C576 1.427 . S
N580 C577 1.384 . S
N581 C573 1.427 . S
N581 C579 1.384 . S
H582 C588 0.930 . S
H583 C592 0.930 . S
H584 C597 0.929 . S
H585 C595 0.929 . S
H586 C590 0.929 . S
H587 C596 0.929 . S
C588 H582 0.930 . S
C588 C589 1.367 . S
C588 C596 1.378 . S
C589 C588 1.367 . S
C589 C597 1.433 . S
C590 H586 0.929 . S
C590 C592 1.378 . S
C590 C594 1.350 . S
C591 C594 1.463 . S
C591 C596 1.350 . S
C591 N599 1.427 . S
C592 H583 0.930 . S
C592 C590 1.378 . S
C592 C593 1.367 . S
C593 C592 1.367 . S
C593 C595 1.433 . S
C594 C590 1.350 . S
C594 C591 1.463 . S
C594 N598 1.427 . S
C595 H585 0.929 . S
C595 C593 1.433 . S
C595 N598 1.384 . S
C596 H587 0.929 . S
C596 C588 1.378 . S
C596 C591 1.350 . S
C597 H584 0.929 . S
C597 C589 1.433 . S
C597 N599 1.384 . S
N598 C594 1.427 . S
N598 C595 1.384 . S
N599 C591 1.427 . S
N599 C597 1.384 . S
C175 C118 1.355 . S
C179 C6 1.356 . S
C193 C20 1.349 . S
C197 C132 1.357 . S
C211 C34 1.358 . S
C215 C146 1.350 . S
C229 C48 1.358 . S
C233 C160 1.350 . S
C247 C90 1.349 . S
C251 C62 1.358 . S
C265 C76 1.355 . S
C269 C104 1.356 . S
C283 C135 1.021 . S
C287 C9 1.001 . S
C301 C23 1.013 . S
C305 C149 1.008 . S
C319 C163 1.010 . S
C323 C37 1.010 . S
C337 C51 1.023 . S
C341 C93 1.003 . S
C355 C107 1.018 . S
C359 C65 1.003 . S
C373 C121 1.016 . S
C377 C79 1.005 . S
C391 C8 1.436 . S
C395 C77 1.449 . S
C409 C22 1.425 . S
C413 C7 1.441 1_655 S
C427 C21 1.445 1_565 S
C431 C36 1.431 . S
C445 C50 1.425 . S
C449 C35 1.441 . S
C463 C64 1.427 . S
C467 C49 1.442 1_455 S
C481 C78 1.432 . S
C485 C63 1.447 1_545 S
C499 C92 1.428 . S
C503 C105 1.442 . S
C517 C106 1.422 . S
C521 C119 1.437 1_655 S
C535 C120 1.436 . S
C539 C133 1.450 1_565 S
C553 C134 1.426 . S
C557 C147 1.442 . S
C571 C148 1.422 . S
C575 C161 1.437 1_455 S
C589 C91 1.449 1_545 S
C593 C162 1.436 . S
