# Generated by pormake.
# Topology wmy, (6)-cn, num edge types: 1
# Building blocks:
#     Node 0, Type 0, BuildingBlock: IZENUY_clean_sbu_0, # of connection points: 6
#     Node 1, Type 0, BuildingBlock: IZENUY_clean_sbu_0, # of connection points: 6
#     Node 2, Type 0, BuildingBlock: IZENUY_clean_sbu_0, # of connection points: 6
#     Node 3, Type 0, BuildingBlock: IZENUY_clean_sbu_0, # of connection points: 6
#     Node 4, Type 0, BuildingBlock: IZENUY_clean_sbu_0, # of connection points: 6
#     Node 5, Type 0, BuildingBlock: IZENUY_clean_sbu_0, # of connection points: 6
#     Node 6, Type 0, BuildingBlock: IZENUY_clean_sbu_0, # of connection points: 6
#     Node 7, Type 0, BuildingBlock: IZENUY_clean_sbu_0, # of connection points: 6
#     Node 8, Type 0, BuildingBlock: IZENUY_clean_sbu_0, # of connection points: 6
#     Node 9, Type 0, BuildingBlock: IZENUY_clean_sbu_0, # of connection points: 6
#     Node 10, Type 0, BuildingBlock: IZENUY_clean_sbu_0, # of connection points: 6
#     Node 11, Type 0, BuildingBlock: IZENUY_clean_sbu_0, # of connection points: 6
#     Node 12, Type 0, BuildingBlock: IZENUY_clean_sbu_0, # of connection points: 6
#     Node 13, Type 0, BuildingBlock: IZENUY_clean_sbu_0, # of connection points: 6
#     Node 14, Type 0, BuildingBlock: IZENUY_clean_sbu_0, # of connection points: 6
#     Node 15, Type 0, BuildingBlock: IZENUY_clean_sbu_0, # of connection points: 6
#     Node 16, Type 0, BuildingBlock: IZENUY_clean_sbu_0, # of connection points: 6
#     Node 17, Type 0, BuildingBlock: IZENUY_clean_sbu_0, # of connection points: 6
#     Node 18, Type 0, BuildingBlock: IZENUY_clean_sbu_0, # of connection points: 6
#     Node 19, Type 0, BuildingBlock: IZENUY_clean_sbu_0, # of connection points: 6
#     Node 20, Type 0, BuildingBlock: IZENUY_clean_sbu_0, # of connection points: 6
#     Node 21, Type 0, BuildingBlock: IZENUY_clean_sbu_0, # of connection points: 6
#     Node 22, Type 0, BuildingBlock: IZENUY_clean_sbu_0, # of connection points: 6
#     Node 23, Type 0, BuildingBlock: IZENUY_clean_sbu_0, # of connection points: 6
#     Node 24, Type 0, BuildingBlock: IZENUY_clean_sbu_0, # of connection points: 6
#     Node 25, Type 0, BuildingBlock: IZENUY_clean_sbu_0, # of connection points: 6
#     Node 26, Type 0, BuildingBlock: IZENUY_clean_sbu_0, # of connection points: 6
#     Node 27, Type 0, BuildingBlock: IZENUY_clean_sbu_0, # of connection points: 6
#     Node 28, Type 0, BuildingBlock: IZENUY_clean_sbu_0, # of connection points: 6
#     Node 29, Type 0, BuildingBlock: IZENUY_clean_sbu_0, # of connection points: 6
#     Node 30, Type 0, BuildingBlock: IZENUY_clean_sbu_0, # of connection points: 6
#     Node 31, Type 0, BuildingBlock: IZENUY_clean_sbu_0, # of connection points: 6
#     Node 32, Type 0, BuildingBlock: IZENUY_clean_sbu_0, # of connection points: 6
#     Node 33, Type 0, BuildingBlock: IZENUY_clean_sbu_0, # of connection points: 6
#     Node 34, Type 0, BuildingBlock: IZENUY_clean_sbu_0, # of connection points: 6
#     Node 35, Type 0, BuildingBlock: IZENUY_clean_sbu_0, # of connection points: 6
#     Edge 36, Type (0, 0), None
#     Edge 37, Type (0, 0), None
#     Edge 38, Type (0, 0), None
#     Edge 39, Type (0, 0), None
#     Edge 40, Type (0, 0), None
#     Edge 41, Type (0, 0), None
#     Edge 42, Type (0, 0), None
#     Edge 43, Type (0, 0), None
#     Edge 44, Type (0, 0), None
#     Edge 45, Type (0, 0), None
#     Edge 46, Type (0, 0), None
#     Edge 47, Type (0, 0), None
#     Edge 48, Type (0, 0), None
#     Edge 49, Type (0, 0), None
#     Edge 50, Type (0, 0), None
#     Edge 51, Type (0, 0), None
#     Edge 52, Type (0, 0), None
#     Edge 53, Type (0, 0), None
#     Edge 54, Type (0, 0), None
#     Edge 55, Type (0, 0), None
#     Edge 56, Type (0, 0), None
#     Edge 57, Type (0, 0), None
#     Edge 58, Type (0, 0), None
#     Edge 59, Type (0, 0), None
#     Edge 60, Type (0, 0), None
#     Edge 61, Type (0, 0), None
#     Edge 62, Type (0, 0), None
#     Edge 63, Type (0, 0), None
#     Edge 64, Type (0, 0), None
#     Edge 65, Type (0, 0), None
#     Edge 66, Type (0, 0), None
#     Edge 67, Type (0, 0), None
#     Edge 68, Type (0, 0), None
#     Edge 69, Type (0, 0), None
#     Edge 70, Type (0, 0), None
#     Edge 71, Type (0, 0), None
#     Edge 72, Type (0, 0), None
#     Edge 73, Type (0, 0), None
#     Edge 74, Type (0, 0), None
#     Edge 75, Type (0, 0), None
#     Edge 76, Type (0, 0), None
#     Edge 77, Type (0, 0), None
#     Edge 78, Type (0, 0), None
#     Edge 79, Type (0, 0), None
#     Edge 80, Type (0, 0), None
#     Edge 81, Type (0, 0), None
#     Edge 82, Type (0, 0), None
#     Edge 83, Type (0, 0), None
#     Edge 84, Type (0, 0), None
#     Edge 85, Type (0, 0), None
#     Edge 86, Type (0, 0), None
#     Edge 87, Type (0, 0), None
#     Edge 88, Type (0, 0), None
#     Edge 89, Type (0, 0), None
#     Edge 90, Type (0, 0), None
#     Edge 91, Type (0, 0), None
#     Edge 92, Type (0, 0), None
#     Edge 93, Type (0, 0), None
#     Edge 94, Type (0, 0), None
#     Edge 95, Type (0, 0), None
#     Edge 96, Type (0, 0), None
#     Edge 97, Type (0, 0), None
#     Edge 98, Type (0, 0), None
#     Edge 99, Type (0, 0), None
#     Edge 100, Type (0, 0), None
#     Edge 101, Type (0, 0), None
#     Edge 102, Type (0, 0), None
#     Edge 103, Type (0, 0), None
#     Edge 104, Type (0, 0), None
#     Edge 105, Type (0, 0), None
#     Edge 106, Type (0, 0), None
#     Edge 107, Type (0, 0), None
#     Edge 108, Type (0, 0), None
#     Edge 109, Type (0, 0), None
#     Edge 110, Type (0, 0), None
#     Edge 111, Type (0, 0), None
#     Edge 112, Type (0, 0), None
#     Edge 113, Type (0, 0), None
#     Edge 114, Type (0, 0), None
#     Edge 115, Type (0, 0), None
#     Edge 116, Type (0, 0), None
#     Edge 117, Type (0, 0), None
#     Edge 118, Type (0, 0), None
#     Edge 119, Type (0, 0), None
#     Edge 120, Type (0, 0), None
#     Edge 121, Type (0, 0), None
#     Edge 122, Type (0, 0), None
#     Edge 123, Type (0, 0), None
#     Edge 124, Type (0, 0), None
#     Edge 125, Type (0, 0), None
#     Edge 126, Type (0, 0), None
#     Edge 127, Type (0, 0), None
#     Edge 128, Type (0, 0), None
#     Edge 129, Type (0, 0), None
#     Edge 130, Type (0, 0), None
#     Edge 131, Type (0, 0), None
#     Edge 132, Type (0, 0), None
#     Edge 133, Type (0, 0), None
#     Edge 134, Type (0, 0), None
#     Edge 135, Type (0, 0), None
#     Edge 136, Type (0, 0), None
#     Edge 137, Type (0, 0), None
#     Edge 138, Type (0, 0), None
#     Edge 139, Type (0, 0), None
#     Edge 140, Type (0, 0), None
#     Edge 141, Type (0, 0), None
#     Edge 142, Type (0, 0), None
#     Edge 143, Type (0, 0), None
# Relax obj value: 0.472
# Max RMSD: 0.184
# Mean RMSD: 0.184
data_MOF--net-wmy--node1-IZENUY_clean_sbu_0--edge1-none
_symmetry_space_group_name_H-M    P1
_symmetry_Int_Tables_number       1
_symmetry_cell_setting            triclinic
loop_
_symmetry_equiv_pos_as_xyz
'x, y, z'
_cell_length_a     23.626579
_cell_length_b     23.62802
_cell_length_c     25.153245
_cell_angle_alpha  89.999588
_cell_angle_beta   90.000978
_cell_angle_gamma 120.00613
loop_
_atom_site_label
_atom_site_type_symbol
_atom_site_fract_x
_atom_site_fract_y
_atom_site_fract_z
_atom_type_partial_charge
Fe0 Fe 0.08845 0.16042 0.1196 0.0
Fe1 Fe 1.01214 0.22306 0.15958 0.0
O2 O 0.08779 0.22473 0.15105 0.0
Fe3 Fe 0.16467 0.28964 0.17188 0.0
O4 O 0.20327 0.23781 0.18651 0.0
O5 O 0.11604 0.14181 0.18234 0.0
O6 O 1.00631 0.10273 0.13287 0.0
C7 C 0.9789 0.0941 0.17627 0.0
C8 C 0.1939 0.25792 0.07418 0.0
O9 O 0.9737 0.14127 0.19481 0.0
C10 C 0.09913 0.3544 0.13656 0.0
O11 O 1.06241 0.18244 0.05931 0.0
O12 O 0.97825 0.18694 0.09241 0.0
O13 O 0.19444 0.30517 0.09944 0.0
O14 O 0.17044 0.20566 0.09791 0.0
C15 C 0.08099 0.26681 0.25695 0.0
O16 O 1.04555 0.30308 0.12594 0.0
O17 O 0.1409 0.35164 0.16574 0.0
C18 C 1.01114 0.18674 0.05222 0.0
O19 O 1.03537 0.25942 0.22586 0.0
O20 O 0.13596 0.27585 0.24043 0.0
C21 C 0.17649 0.17618 0.19457 0.0
Fe22 Fe 0.96353 0.95278 0.11959 0.0
Fe23 Fe 0.90084 0.81383 0.15958 0.0
O24 O 0.8992 0.88782 0.15105 0.0
Fe25 Fe 0.8343 0.8998 0.17188 0.0
O26 O 0.88615 0.99024 0.1865 0.0
O27 O 0.98221 0.99903 0.18231 0.0
O28 O 1.02119 0.9283 0.13286 0.0
C29 C 1.02982 0.90954 0.17627 0.0
C30 C 0.86604 0.96075 0.07417 0.0
O31 O 0.98263 0.85717 0.19482 0.0
C32 C 0.7695 0.76948 0.13656 0.0
O33 O 0.94147 0.9047 0.05931 0.0
O34 O 0.93697 0.81604 0.09241 0.0
O35 O 0.81878 0.91405 0.09944 0.0
O36 O 0.91832 0.98955 0.0979 0.0
C37 C 0.85711 0.83894 0.25695 0.0
O38 O 0.82081 0.76721 0.12594 0.0
O39 O 0.77228 0.81402 0.16573 0.0
C40 C 0.93716 0.84913 0.05222 0.0
O41 O 0.86447 0.8007 0.22586 0.0
O42 O 0.84808 0.88487 0.24042 0.0
C43 C 0.94778 1.02501 0.19459 0.0
Fe44 Fe 0.22412 0.95925 0.17188 0.0
Fe45 Fe 0.17114 1.0355 0.11959 0.0
O46 O 0.2361 1.03613 0.15105 0.0
Fe47 Fe 0.3101 0.11177 0.15957 0.0
O48 O 0.32323 0.08853 0.22585 0.0
O49 O 0.23904 0.98795 0.24042 0.0
O50 O 0.13367 0.92065 0.18651 0.0
C51 C 0.0989 0.94751 0.1946 0.0
C52 C 0.35444 1.02478 0.13655 0.0
O53 O 0.12489 1.00792 0.18232 0.0
C54 C 0.27478 0.11279 0.05221 0.0
O55 O 0.20986 0.92949 0.09943 0.0
O56 O 0.13436 0.9535 0.09791 0.0
O57 O 0.35671 0.07836 0.12594 0.0
O58 O 0.30989 0.98301 0.16573 0.0
C59 C 0.21443 0.14506 0.17624 0.0
O60 O 0.2192 0.06151 0.05931 0.0
O61 O 0.30788 0.14567 0.0924 0.0
C62 C 0.16316 0.93004 0.07418 0.0
O63 O 0.19561 0.11763 0.13286 0.0
O64 O 0.26677 0.15021 0.19481 0.0
C65 C 0.28498 1.04292 0.25695 0.0
Fe66 Fe 0.18521 0.06363 0.45135 0.0
Fe67 Fe 0.24787 0.98735 0.41137 0.0
O68 O 0.24953 0.06299 0.41991 0.0
Fe69 Fe 0.31444 0.13987 0.39908 0.0
O70 O 0.2626 0.17846 0.38445 0.0
O71 O 0.1666 0.09123 0.38862 0.0
O72 O 0.12753 0.9815 0.43808 0.0
C73 C 0.1189 0.9541 0.39468 0.0
C74 C 0.28272 0.16909 0.49678 0.0
O75 O 0.16608 0.9489 0.37614 0.0
C76 C 0.37922 0.07434 0.43439 0.0
O77 O 0.20724 1.0376 0.51164 0.0
O78 O 0.21175 0.95345 0.47854 0.0
O79 O 0.32997 0.16964 0.47152 0.0
O80 O 0.23044 0.14562 0.47305 0.0
C81 C 0.29162 0.0562 0.314 0.0
O82 O 0.3279 1.02076 0.44501 0.0
O83 O 0.37645 0.11611 0.40522 0.0
C84 C 0.21155 0.98633 0.51873 0.0
O85 O 0.28424 1.01058 0.34509 0.0
O86 O 0.30065 0.11116 0.33053 0.0
C87 C 0.20097 0.15167 0.37639 0.0
Fe88 Fe 1.06026 0.14634 0.45135 0.0
Fe89 Fe 0.13656 0.2853 0.41138 0.0
O90 O 1.06092 0.21131 0.41991 0.0
Fe91 Fe 0.98404 0.19933 0.39908 0.0
O92 O 0.94543 0.10889 0.38445 0.0
O93 O 1.03267 0.10013 0.38861 0.0
O94 O 0.14239 0.17078 0.43808 0.0
C95 C 0.16984 0.18961 0.3947 0.0
C96 C 0.95482 0.13838 0.49678 0.0
O97 O 0.175 0.24196 0.37615 0.0
C98 C 1.04958 0.32964 0.4344 0.0
O99 O 0.0863 0.19438 0.51164 0.0
O100 O 0.17046 0.28307 0.47855 0.0
O101 O 0.95427 0.18508 0.47152 0.0
O102 O 0.97827 0.10957 0.47304 0.0
C103 C 1.06771 0.26019 0.31401 0.0
O104 O 0.10316 0.33191 0.44501 0.0
O105 O 1.00781 0.2851 0.40522 0.0
C106 C 0.13757 0.24997 0.51874 0.0
O107 O 0.11333 0.29843 0.3451 0.0
O108 O 1.01274 0.21425 0.33053 0.0
C109 C 0.97222 0.07406 0.37638 0.0
Fe110 Fe 0.83861 0.87601 0.41138 0.0
Fe111 Fe 0.9246 0.80949 0.39908 0.0
O112 O 0.91261 0.87439 0.41991 0.0
Fe113 Fe 0.97757 0.93872 0.45136 0.0
O114 O 0.95309 0.99638 0.43809 0.0
O115 O 0.88194 0.95779 0.37614 0.0
O116 O 0.82548 0.83964 0.34509 0.0
C117 C 0.86373 0.83228 0.31401 0.0
C118 C 0.87392 0.91235 0.51874 0.0
O119 O 0.90967 0.82326 0.33054 0.0
C120 C 0.98556 0.84124 0.49678 0.0
O121 O 0.792 0.79599 0.44501 0.0
O122 O 0.83882 0.74746 0.40523 0.0
O123 O 0.9295 0.91666 0.51164 0.0
O124 O 0.84082 0.91214 0.47854 0.0
C125 C 1.04981 0.92297 0.37636 0.0
O126 O 0.93885 0.79398 0.47152 0.0
O127 O 1.01435 0.89351 0.47305 0.0
C128 C 0.79427 0.74468 0.4344 0.0
O129 O 1.01504 0.86134 0.38445 0.0
O130 O 1.02382 0.9574 0.38864 0.0
C131 C 0.93428 1.00499 0.39471 0.0
Fe132 Fe 1.06028 0.93872 0.95135 0.0
Fe133 Fe 0.13659 0.87608 0.91138 0.0
O134 O 1.06093 0.8744 0.91991 0.0
Fe135 Fe 0.98405 0.80949 0.89907 0.0
O136 O 0.94544 0.86131 0.88444 0.0
O137 O 1.03268 0.95732 0.8886 0.0
O138 O 0.14241 0.99641 0.93807 0.0
C139 C 0.16982 1.00504 0.89468 0.0
C140 C 0.95484 0.84121 0.99678 0.0
O141 O 0.17503 0.95787 0.87615 0.0
C142 C 1.04959 0.74473 0.93439 0.0
O143 O 0.08631 0.91672 1.01164 0.0
O144 O 0.17048 0.91219 0.97855 0.0
O145 O 0.95427 0.79396 0.97151 0.0
O146 O 0.97828 0.89347 0.97304 0.0
C147 C 1.06774 0.83233 0.814 0.0
O148 O 0.10318 0.79605 0.94501 0.0
O149 O 1.00783 0.74749 0.90522 0.0
C150 C 0.13758 0.91241 1.01873 0.0
O151 O 0.11335 0.83971 0.8451 0.0
O152 O 1.01277 0.82329 0.83053 0.0
C153 C 0.97223 0.92294 0.87638 0.0
Fe154 Fe 0.18518 0.14635 0.95136 0.0
Fe155 Fe 0.24788 0.28531 0.91138 0.0
O156 O 0.24952 0.21131 0.91991 0.0
Fe157 Fe 0.31443 0.19933 0.89907 0.0
O158 O 0.26258 0.1089 0.88445 0.0
O159 O 0.16652 0.1001 0.88863 0.0
O160 O 0.12753 0.17082 0.93808 0.0
C161 C 0.1189 0.1896 0.89468 0.0
C162 C 0.28268 0.1384 0.99678 0.0
O163 O 0.16609 0.24197 0.87614 0.0
C164 C 0.37923 0.32965 0.9344 0.0
O165 O 0.20723 0.19441 1.01164 0.0
O166 O 0.21176 0.2831 0.97855 0.0
O167 O 0.32995 0.18508 0.97151 0.0
O168 O 0.23041 0.10958 0.97305 0.0
C169 C 0.29162 0.2602 0.814 0.0
O170 O 0.32791 0.33192 0.94501 0.0
O171 O 0.37645 0.28511 0.90523 0.0
C172 C 0.21154 0.24999 1.01873 0.0
O173 O 0.28425 0.29843 0.8451 0.0
O174 O 0.30064 0.21426 0.83053 0.0
C175 C 0.20095 0.07412 0.87636 0.0
Fe176 Fe 0.83862 0.98736 0.91138 0.0
Fe177 Fe 0.92461 0.13989 0.89907 0.0
O178 O 0.91262 0.063 0.91991 0.0
Fe179 Fe 0.97759 0.06364 0.95135 0.0
O180 O 0.95312 0.98151 0.93809 0.0
O181 O 0.88195 0.94892 0.87615 0.0
O182 O 0.82549 1.0106 0.8451 0.0
C183 C 0.86374 0.05621 0.81401 0.0
C184 C 0.87396 0.98635 1.01873 0.0
O185 O 0.90968 0.11118 0.83053 0.0
C186 C 0.98555 0.16908 0.99678 0.0
O187 O 0.79201 1.02078 0.94502 0.0
O188 O 0.83883 0.11612 0.90523 0.0
O189 O 0.92954 1.03762 1.01164 0.0
O190 O 0.84083 0.95346 0.97856 0.0
C191 C 1.04982 0.15163 0.87635 0.0
O192 O 0.93886 0.16966 0.97151 0.0
O193 O 1.01436 0.14563 0.97304 0.0
C194 C 0.79429 0.07436 0.9344 0.0
O195 O 1.01505 0.17849 0.88444 0.0
O196 O 1.02383 0.09122 0.88862 0.0
C197 C 0.93429 0.95407 0.89471 0.0
Fe198 Fe 0.83428 0.95926 0.67188 0.0
Fe199 Fe 0.96352 1.0355 0.61961 0.0
O200 O 0.89919 1.03614 0.65104 0.0
Fe201 Fe 0.90085 0.11179 0.65958 0.0
O202 O 0.86449 0.08855 0.72586 0.0
O203 O 0.84807 0.98797 0.74042 0.0
O204 O 0.88612 0.92066 0.6865 0.0
C205 C 0.94775 0.94746 0.69457 0.0
C206 C 0.7695 1.02479 0.63656 0.0
O207 O 0.98212 1.0079 0.68235 0.0
C208 C 0.93719 0.1128 0.55223 0.0
O209 O 0.81875 0.92948 0.59944 0.0
O210 O 0.91828 0.95351 0.5979 0.0
O211 O 0.82082 0.07838 0.62595 0.0
O212 O 0.77227 0.98302 0.66573 0.0
C213 C 1.02982 0.14503 0.67628 0.0
O214 O 0.94151 0.06153 0.55932 0.0
O215 O 0.93697 0.14569 0.59241 0.0
C216 C 0.86601 0.93006 0.57417 0.0
O217 O 1.0212 0.11762 0.63289 0.0
O218 O 0.98265 0.15024 0.69481 0.0
C219 C 0.8571 1.04293 0.75695 0.0
Fe220 Fe 0.16469 0.89981 0.67188 0.0
Fe221 Fe 0.08846 0.9528 0.61961 0.0
O222 O 0.08781 0.88782 0.65104 0.0
Fe223 Fe 1.01216 0.81383 0.65957 0.0
O224 O 1.03539 0.80071 0.72586 0.0
O225 O 0.13598 0.88489 0.74042 0.0
O226 O 0.2033 0.99024 0.68651 0.0
C227 C 0.17651 1.02507 0.69458 0.0
C228 C 0.09915 0.76949 0.63656 0.0
O229 O 0.11606 0.999 0.68236 0.0
C230 C 1.01115 0.84919 0.55222 0.0
O231 O 0.19446 0.91405 0.59944 0.0
O232 O 0.17046 0.98956 0.59791 0.0
O233 O 1.04557 0.76722 0.62594 0.0
O234 O 0.14092 0.81403 0.66573 0.0
C235 C 0.97889 0.90952 0.67626 0.0
O236 O 1.06242 0.90477 0.55931 0.0
O237 O 0.97826 0.81605 0.5924 0.0
C238 C 0.19389 0.96074 0.57417 0.0
O239 O 1.00633 0.92836 0.63288 0.0
O240 O 0.97371 0.85717 0.6948 0.0
C241 C 0.08101 0.83895 0.75695 0.0
Fe242 Fe 0.22412 0.28965 0.67188 0.0
Fe243 Fe 0.17115 0.16041 0.6196 0.0
O244 O 0.23611 0.22475 0.65104 0.0
Fe245 Fe 0.31012 0.22312 0.65957 0.0
O246 O 0.32324 0.25949 0.72586 0.0
O247 O 0.23905 0.27587 0.74042 0.0
O248 O 0.13368 0.23779 0.6865 0.0
C249 C 0.09892 0.17617 0.6946 0.0
C250 C 0.35445 0.35445 0.63656 0.0
O251 O 0.12491 0.14174 0.68233 0.0
C252 C 0.27479 0.18676 0.55222 0.0
O253 O 0.20986 0.30516 0.59944 0.0
O254 O 0.13437 0.20562 0.5979 0.0
O255 O 0.35672 0.30315 0.62594 0.0
O256 O 0.3099 0.35167 0.66572 0.0
C257 C 0.21444 0.09415 0.67625 0.0
O258 O 0.2192 0.18245 0.55931 0.0
O259 O 0.30791 0.187 0.5924 0.0
C260 C 0.16318 0.25788 0.57417 0.0
O261 O 0.19562 0.10275 0.63287 0.0
O262 O 0.26679 0.14135 0.69481 0.0
C263 C 0.28499 0.26685 0.75695 0.0
Fe264 Fe 0.67882 0.5564 0.49291 0.0
Fe265 Fe 0.83135 0.62298 0.50522 0.0
O266 O 0.75447 0.55807 0.48438 0.0
Fe267 Fe 0.75512 0.49376 0.45293 0.0
O268 O 0.67298 0.43608 0.4662 0.0
O269 O 0.64037 0.47461 0.52814 0.0
O270 O 0.70205 0.59276 0.55919 0.0
C271 C 0.74766 0.60014 0.59029 0.0
C272 C 0.67782 0.52009 0.38555 0.0
O273 O 0.80263 0.60918 0.57376 0.0
C274 C 0.86058 0.59126 0.40751 0.0
O275 O 0.71223 0.63643 0.45928 0.0
O276 O 0.8076 0.68499 0.49907 0.0
O277 O 0.72909 0.51579 0.39264 0.0
O278 O 0.64492 0.52029 0.42574 0.0
C279 C 0.84315 0.50951 0.5279 0.0
O280 O 0.86113 0.63851 0.43278 0.0
O281 O 0.83712 0.53899 0.43124 0.0
C282 C 0.7658 0.68775 0.46994 0.0
O283 O 0.86994 0.57114 0.51985 0.0
O284 O 0.78271 0.47514 0.51567 0.0
C285 C 0.64558 0.42744 0.5096 0.0
Fe286 Fe 0.63019 0.28611 0.45292 0.0
Fe287 Fe 0.5675 0.14716 0.49291 0.0
O288 O 0.56586 0.22116 0.48438 0.0
Fe289 Fe 0.50096 0.23315 0.50522 0.0
O290 O 0.55283 0.32358 0.51984 0.0
O291 O 0.64889 0.33237 0.51564 0.0
O292 O 0.68785 0.26163 0.46619 0.0
C293 C 0.69648 0.24287 0.50959 0.0
C294 C 0.5327 0.2941 0.40751 0.0
O295 O 0.64929 0.19051 0.52814 0.0
C296 C 0.43616 0.10281 0.46994 0.0
O297 O 0.60812 0.23803 0.39264 0.0
O298 O 0.60362 0.14937 0.42574 0.0
O299 O 0.48544 0.2474 0.43278 0.0
O300 O 0.58498 0.32289 0.43123 0.0
C301 C 0.52377 0.17228 0.59029 0.0
O302 O 0.48746 0.10055 0.45928 0.0
O303 O 0.43893 0.14738 0.49906 0.0
C304 C 0.60382 0.18246 0.38555 0.0
O305 O 0.53114 0.13404 0.55919 0.0
O306 O 0.51475 0.21822 0.57376 0.0
C307 C 0.61446 0.35835 0.52792 0.0
Fe308 Fe 0.83781 0.36882 0.45292 0.0
Fe309 Fe 0.97677 0.44509 0.49291 0.0
O310 O 0.90276 0.36945 0.48438 0.0
Fe311 Fe 0.89077 0.29256 0.50522 0.0
O312 O 0.80033 0.25398 0.51985 0.0
O313 O 0.79155 0.34126 0.51565 0.0
O314 O 0.86228 0.45096 0.46619 0.0
C315 C 0.8811 0.47839 0.50957 0.0
C316 C 0.82982 0.26336 0.40751 0.0
O317 O 0.93344 0.48353 0.52814 0.0
C318 C 1.02111 0.35811 0.46994 0.0
O319 O 0.88587 0.39483 0.39264 0.0
O320 O 0.97455 0.47899 0.42574 0.0
O321 O 0.87651 0.2628 0.43277 0.0
O322 O 0.80102 0.28683 0.43125 0.0
C323 C 0.95164 0.37625 0.59028 0.0
O324 O 1.02338 0.41167 0.45928 0.0
O325 O 0.97654 0.3163 0.49906 0.0
C326 C 0.94145 0.44611 0.38554 0.0
O327 O 0.98989 0.42185 0.55919 0.0
O328 O 0.9057 0.32128 0.57376 0.0
C329 C 0.76556 0.28084 0.52793 0.0
Fe330 Fe 0.85188 0.39697 0.78469 0.0
Fe331 Fe 0.91454 0.32068 0.74471 0.0
O332 O 0.9162 0.39632 0.75324 0.0
Fe333 Fe 0.98111 0.4732 0.73241 0.0
O334 O 0.92927 0.5118 0.71778 0.0
O335 O 0.83326 0.42456 0.72195 0.0
O336 O 0.7942 0.31484 0.77141 0.0
C337 C 0.78557 0.28744 0.72802 0.0
C338 C 0.94938 0.50243 0.83012 0.0
O339 O 0.83274 0.28224 0.70948 0.0
C340 C 1.04589 0.40768 0.76773 0.0
O341 O 0.87391 0.37094 0.84497 0.0
O342 O 0.87842 0.28678 0.81188 0.0
O343 O 0.99663 0.50298 0.80485 0.0
O344 O 0.89711 0.47896 0.80639 0.0
C345 C 0.95829 0.38953 0.64734 0.0
O346 O 0.99457 0.35409 0.77834 0.0
O347 O 1.04312 0.44944 0.73856 0.0
C348 C 0.87822 0.31967 0.85207 0.0
O349 O 0.9509 0.34392 0.67843 0.0
O350 O 0.96731 0.44449 0.66386 0.0
C351 C 0.86763 0.485 0.70972 0.0
Fe352 Fe 0.80323 0.61863 0.74472 0.0
Fe353 Fe 0.6507 0.53266 0.73241 0.0
O354 O 0.72758 0.54464 0.75324 0.0
Fe355 Fe 0.72693 0.47967 0.78468 0.0
O356 O 0.80906 0.50412 0.77142 0.0
O357 O 0.84167 0.57529 0.70948 0.0
O358 O 0.78 0.63176 0.67843 0.0
C359 C 0.73438 0.59352 0.64734 0.0
C360 C 0.80423 0.5833 0.85207 0.0
O361 O 0.67941 0.54758 0.66387 0.0
C362 C 0.62147 0.4717 0.83011 0.0
O363 O 0.76982 0.66524 0.77835 0.0
O364 O 0.67447 0.61843 0.73856 0.0
O365 O 0.75296 0.52772 0.84498 0.0
O366 O 0.83712 0.6164 0.81188 0.0
C367 C 0.63889 0.40739 0.70971 0.0
O368 O 0.62093 0.51841 0.80485 0.0
O369 O 0.64493 0.4429 0.80638 0.0
C370 C 0.71624 0.66297 0.76773 0.0
O371 O 0.6121 0.44222 0.71778 0.0
O372 O 0.69933 0.43346 0.72194 0.0
C373 C 0.8365 0.52294 0.72804 0.0
Fe374 Fe 0.64423 0.27205 0.7847 0.0
Fe375 Fe 0.50527 0.20934 0.74471 0.0
O376 O 0.57928 0.20772 0.75324 0.0
Fe377 Fe 0.59127 0.14282 0.73241 0.0
O378 O 0.68171 0.19468 0.71778 0.0
O379 O 0.69049 0.29073 0.72197 0.0
O380 O 0.61976 0.32971 0.77143 0.0
C381 C 0.60095 0.33832 0.72804 0.0
C382 C 0.65223 0.17458 0.83012 0.0
O383 O 0.54861 0.29112 0.70948 0.0
C384 C 0.46094 0.07801 0.76773 0.0
O385 O 0.59616 0.24998 0.84498 0.0
O386 O 0.50749 0.24546 0.81188 0.0
O387 O 0.60553 0.12732 0.80486 0.0
O388 O 0.68102 0.22685 0.80639 0.0
C389 C 0.5304 0.16562 0.64734 0.0
O390 O 0.45867 0.12932 0.77835 0.0
O391 O 0.50549 0.0808 0.73857 0.0
C392 C 0.54058 0.24568 0.85207 0.0
O393 O 0.49215 0.17298 0.67843 0.0
O394 O 0.57634 0.1566 0.66387 0.0
C395 C 0.71648 0.25631 0.7097 0.0
Fe396 Fe 0.72694 0.27205 0.28468 0.0
Fe397 Fe 0.80325 0.20941 0.24472 0.0
O398 O 0.7276 0.20774 0.25325 0.0
Fe399 Fe 0.65072 0.14283 0.2324 0.0
O400 O 0.61211 0.19465 0.21778 0.0
O401 O 0.69934 0.29065 0.22194 0.0
O402 O 0.80907 0.32974 0.27141 0.0
C403 C 0.83649 0.33837 0.22802 0.0
C404 C 0.6215 0.17454 0.33011 0.0
O405 O 0.8417 0.2912 0.20949 0.0
C406 C 0.71626 0.07806 0.26773 0.0
O407 O 0.75297 0.25005 0.34497 0.0
O408 O 0.83714 0.24552 0.31189 0.0
O409 O 0.62093 0.12729 0.30484 0.0
O410 O 0.64495 0.22681 0.30638 0.0
C411 C 0.73441 0.16567 0.14734 0.0
O412 O 0.76984 0.12938 0.27835 0.0
O413 O 0.67449 0.08083 0.23855 0.0
C414 C 0.80424 0.24573 0.35206 0.0
O415 O 0.78002 0.17305 0.17843 0.0
O416 O 0.67944 0.15662 0.16386 0.0
C417 C 0.6389 0.25628 0.20971 0.0
Fe418 Fe 0.85185 0.47968 0.2847 0.0
Fe419 Fe 0.91455 0.61864 0.24471 0.0
O420 O 0.91619 0.54464 0.25324 0.0
Fe421 Fe 0.98109 0.53266 0.23241 0.0
O422 O 0.92924 0.44223 0.21778 0.0
O423 O 0.83318 0.43344 0.22197 0.0
O424 O 0.7942 0.50416 0.27142 0.0
C425 C 0.78557 0.52293 0.22802 0.0
C426 C 0.94935 0.47173 0.33012 0.0
O427 O 0.83276 0.5753 0.20948 0.0
C428 C 1.04589 0.66298 0.26773 0.0
O429 O 0.87391 0.52774 0.34498 0.0
O430 O 0.87843 0.61643 0.31189 0.0
O431 O 0.99662 0.51841 0.30484 0.0
O432 O 0.89707 0.44291 0.30639 0.0
C433 C 0.95828 0.59353 0.14734 0.0
O434 O 0.99458 0.66525 0.27835 0.0
O435 O 1.04311 0.61844 0.23856 0.0
C436 C 0.87822 0.58332 0.35207 0.0
O437 O 0.95091 0.63177 0.17843 0.0
O438 O 0.9673 0.54759 0.16386 0.0
C439 C 0.86761 0.40745 0.2097 0.0
Fe440 Fe 0.64426 0.39697 0.28469 0.0
Fe441 Fe 0.50529 0.3207 0.24472 0.0
O442 O 0.57929 0.39634 0.25324 0.0
Fe443 Fe 0.59128 0.47322 0.23241 0.0
O444 O 0.68172 0.51182 0.21778 0.0
O445 O 0.6905 0.42455 0.22196 0.0
O446 O 0.61979 0.31484 0.27142 0.0
C447 C 0.60096 0.2874 0.22804 0.0
C448 C 0.65222 0.50242 0.33011 0.0
O449 O 0.54861 0.28225 0.20949 0.0
C450 C 0.46096 0.40769 0.26773 0.0
O451 O 0.59621 0.37096 0.34498 0.0
O452 O 0.5075 0.2868 0.31189 0.0
O453 O 0.60554 0.503 0.30484 0.0
O454 O 0.68103 0.47897 0.30638 0.0
C455 C 0.53041 0.38954 0.14734 0.0
O456 O 0.45868 0.35411 0.27835 0.0
O457 O 0.5055 0.44946 0.23856 0.0
C458 C 0.54062 0.31969 0.35207 0.0
O459 O 0.49216 0.34393 0.17844 0.0
O460 O 0.57635 0.44451 0.16386 0.0
C461 C 0.71649 0.48497 0.20969 0.0
Fe462 Fe 0.56751 0.44511 0.99291 0.0
Fe463 Fe 0.50095 0.29258 1.00522 0.0
O464 O 0.56585 0.36947 0.98437 0.0
Fe465 Fe 0.63018 0.36883 0.95294 0.0
O466 O 0.68785 0.45095 0.96621 0.0
O467 O 0.64931 0.48356 1.02814 0.0
O468 O 0.53116 0.42187 0.0592 0.0
C469 C 0.52377 0.37626 0.09029 0.0
C470 C 0.60384 0.44612 0.88556 0.0
O471 O 0.51474 0.3213 0.07376 0.0
C472 C 0.53268 0.26338 0.9075 0.0
O473 O 0.48747 0.41169 0.95929 0.0
O474 O 0.43892 0.31632 0.99907 0.0
O475 O 0.60816 0.39486 0.89265 0.0
O476 O 0.60362 0.47901 0.92574 0.0
C477 C 0.61442 0.28079 1.0279 0.0
O478 O 0.48541 0.26279 0.93278 0.0
O479 O 0.58495 0.28684 0.93123 0.0
C480 C 0.43616 0.35812 0.96994 0.0
O481 O 0.55279 0.25399 1.01984 0.0
O482 O 0.64879 0.34123 1.01567 0.0
C483 C 0.69648 0.47836 1.00961 0.0
Fe484 Fe 0.67884 0.14717 0.9929 0.0
Fe485 Fe 0.83137 0.23315 1.00522 0.0
O486 O 0.75448 0.22116 0.98437 0.0
Fe487 Fe 0.75514 0.28614 0.95294 0.0
O488 O 0.67301 0.26169 0.96621 0.0
O489 O 0.64039 0.1905 1.02813 0.0
O490 O 0.70207 0.13405 0.05919 0.0
C491 C 0.74769 0.17229 0.09028 0.0
C492 C 0.67783 0.18251 0.88556 0.0
O493 O 0.80266 0.21823 0.07376 0.0
C494 C 0.86057 0.29408 0.90751 0.0
O495 O 0.71225 0.10056 0.95928 0.0
O496 O 0.80763 0.14739 0.99907 0.0
O497 O 0.7291 0.2381 0.89264 0.0
O498 O 0.64494 0.14938 0.92573 0.0
C499 C 0.84317 0.35842 1.02791 0.0
O500 O 0.86115 0.2474 0.93278 0.0
O501 O 0.83713 0.3229 0.93125 0.0
C502 C 0.76582 0.10282 0.96994 0.0
O503 O 0.86997 0.32359 1.01985 0.0
O504 O 0.78273 0.33234 1.01568 0.0
C505 C 0.64556 0.24286 1.00958 0.0
Fe506 Fe 0.97678 0.55647 0.99291 0.0
Fe507 Fe 0.89078 0.62298 1.00521 0.0
O508 O 0.90278 0.55809 0.98438 0.0
Fe509 Fe 0.83781 0.49375 0.95293 0.0
O510 O 0.86229 0.43609 0.9662 0.0
O511 O 0.93346 0.47469 1.02814 0.0
O512 O 0.9899 0.59282 0.05919 0.0
C513 C 0.95165 0.60018 0.09028 0.0
C514 C 0.94146 0.52011 0.88555 0.0
O515 O 0.90571 0.6092 0.07376 0.0
C516 C 0.82984 0.59122 0.9075 0.0
O517 O 1.02339 0.6365 0.95928 0.0
O518 O 0.97655 0.68502 0.99906 0.0
O519 O 0.88587 0.5158 0.89264 0.0
O520 O 0.97458 0.52036 0.92574 0.0
C521 C 0.76557 0.50949 1.02793 0.0
O522 O 0.87651 0.63849 0.93278 0.0
O523 O 0.80103 0.53895 0.93124 0.0
C524 C 1.02112 0.6878 0.96994 0.0
O525 O 0.80034 0.57112 1.01984 0.0
O526 O 0.79157 0.47507 1.01565 0.0
C527 C 0.88111 0.42749 1.00958 0.0
Fe528 Fe 0.42179 0.82709 0.78626 0.0
Fe529 Fe 0.34549 0.88974 0.82624 0.0
O530 O 0.42114 0.89141 0.81771 0.0
Fe531 Fe 0.49802 0.95631 0.83856 0.0
O532 O 0.53661 0.90447 0.85318 0.0
O533 O 0.44938 0.80847 0.849 0.0
O534 O 0.33965 0.76941 0.79953 0.0
C535 C 0.31225 0.76078 0.84293 0.0
C536 C 0.52725 0.9246 0.74085 0.0
O537 O 0.30704 0.80794 0.86147 0.0
C538 C 0.43247 1.02108 0.80327 0.0
O539 O 0.39577 0.84913 0.72597 0.0
O540 O 0.3116 0.85362 0.75907 0.0
O541 O 0.5278 0.97184 0.76611 0.0
O542 O 0.50379 0.87233 0.76457 0.0
C543 C 0.41432 0.93347 0.92362 0.0
O544 O 0.3789 0.96977 0.79262 0.0
O545 O 0.47427 1.01832 0.83241 0.0
C546 C 0.34449 0.85343 0.71888 0.0
O547 O 0.36871 0.92609 0.89252 0.0
O548 O 0.4693 0.94251 0.9071 0.0
C549 C 0.50982 0.84284 0.86123 0.0
Fe550 Fe 0.23416 0.4805 0.82624 0.0
Fe551 Fe 0.16763 0.56648 0.83855 0.0
O552 O 0.23253 0.55449 0.81771 0.0
Fe553 Fe 0.29686 0.61944 0.78625 0.0
O554 O 0.35451 0.59496 0.79952 0.0
O555 O 0.31596 0.52384 0.86148 0.0
O556 O 0.1978 0.46737 0.89252 0.0
C557 C 0.19045 0.50561 0.92362 0.0
C558 C 0.27047 0.51579 0.71888 0.0
O559 O 0.18142 0.55155 0.9071 0.0
C560 C 0.19937 0.62743 0.74084 0.0
O561 O 0.15413 0.43388 0.79262 0.0
O562 O 0.10559 0.48072 0.8324 0.0
O563 O 0.27477 0.57136 0.72597 0.0
O564 O 0.27028 0.48271 0.75907 0.0
C565 C 0.28113 0.69169 0.86125 0.0
O566 O 0.15211 0.58074 0.76611 0.0
O567 O 0.25165 0.65623 0.76456 0.0
C568 C 0.10282 0.43615 0.80327 0.0
O569 O 0.2195 0.65692 0.85318 0.0
O570 O 0.31556 0.66571 0.84897 0.0
C571 C 0.36314 0.5762 0.84292 0.0
Fe572 Fe 0.50447 0.70216 0.78625 0.0
Fe573 Fe 0.64343 0.77842 0.82624 0.0
O574 O 0.56943 0.70278 0.81771 0.0
Fe575 Fe 0.55743 0.6259 0.83855 0.0
O576 O 0.46699 0.58732 0.85318 0.0
O577 O 0.45822 0.67459 0.84898 0.0
O578 O 0.52895 0.78429 0.79951 0.0
C579 C 0.54776 0.81172 0.8429 0.0
C580 C 0.49648 0.59668 0.74085 0.0
O581 O 0.6001 0.81687 0.86147 0.0
C582 C 0.68777 0.69144 0.80327 0.0
O583 O 0.55254 0.72815 0.72597 0.0
O584 O 0.64122 0.81232 0.75907 0.0
O585 O 0.54317 0.59612 0.76611 0.0
O586 O 0.46768 0.62016 0.76458 0.0
C587 C 0.6183 0.70959 0.92362 0.0
O588 O 0.69004 0.745 0.79261 0.0
O589 O 0.6432 0.64963 0.8324 0.0
C590 C 0.60812 0.77943 0.71888 0.0
O591 O 0.65656 0.75519 0.89252 0.0
O592 O 0.57237 0.65462 0.90709 0.0
C593 C 0.43223 0.61417 0.86126 0.0
Fe594 Fe 0.64778 0.80655 0.06574 0.0
Fe595 Fe 0.51855 0.73031 0.11803 0.0
O596 O 0.58288 0.72967 0.08658 0.0
Fe597 Fe 0.58122 0.65403 0.07804 0.0
O598 O 0.61757 0.67726 1.01176 0.0
O599 O 0.63398 0.77783 0.99719 0.0
O600 O 0.59592 0.84513 0.05111 0.0
C601 C 0.53429 0.81833 0.04306 0.0
C602 C 0.71256 0.74101 0.10101 0.0
O603 O 0.49992 0.7579 0.05529 0.0
C604 C 0.54491 0.65302 0.1854 0.0
O605 O 0.6633 0.83633 0.13818 0.0
O606 O 0.56377 0.8123 0.13972 0.0
O607 O 0.66125 0.68744 0.11167 0.0
O608 O 0.7098 0.78282 0.07189 0.0
C609 C 0.45225 0.62078 0.06135 0.0
O610 O 0.54059 0.70429 0.17831 0.0
O611 O 0.5451 0.62013 0.14521 0.0
C612 C 0.61605 0.83578 0.16345 0.0
O613 O 0.46088 0.64818 0.10475 0.0
O614 O 0.49942 0.61558 0.04281 0.0
C615 C 0.62495 0.72287 0.98067 0.0
Fe616 Fe 0.46988 0.95196 0.07805 0.0
Fe617 Fe 0.31735 0.86598 0.06574 0.0
O618 O 0.39424 0.87797 0.08658 0.0
Fe619 Fe 0.39359 0.81301 0.11802 0.0
O620 O 0.47572 0.83746 0.10476 0.0
O621 O 0.50833 0.90863 0.04282 0.0
O622 O 0.44665 0.96509 1.01176 0.0
C623 C 0.40104 0.92684 0.98067 0.0
C624 C 0.47089 0.91664 0.18541 0.0
O625 O 0.34607 0.8809 0.9972 0.0
C626 C 0.28813 0.80503 0.16344 0.0
O627 O 0.43647 0.99858 0.11167 0.0
O628 O 0.3411 0.95174 0.07189 0.0
O629 O 0.41961 0.86106 0.17831 0.0
O630 O 0.50378 0.94974 0.14522 0.0
C631 C 0.30556 0.74071 0.04305 0.0
O632 O 0.28758 0.85173 0.13818 0.0
O633 O 0.31159 0.77623 0.13971 0.0
C634 C 0.3829 0.99631 0.10102 0.0
O635 O 0.27876 0.77554 0.05111 0.0
O636 O 0.366 0.76679 0.05528 0.0
C637 C 0.50316 0.85628 0.06138 0.0
Fe638 Fe 0.17194 0.54266 0.07805 0.0
Fe639 Fe 0.25795 0.47615 0.06574 0.0
O640 O 0.24595 0.54104 0.08658 0.0
Fe641 Fe 0.3109 0.60538 0.11804 0.0
O642 O 0.28642 0.66303 0.10477 0.0
O643 O 0.21527 0.62444 0.04281 0.0
O644 O 0.15882 0.50631 1.01176 0.0
C645 C 0.19707 0.49896 0.98067 0.0
C646 C 0.20725 0.579 0.18541 0.0
O647 O 0.24301 0.48994 0.9972 0.0
C648 C 0.31891 0.50791 0.16345 0.0
O649 O 0.12533 0.46264 0.11167 0.0
O650 O 0.17218 0.41411 0.0719 0.0
O651 O 0.26283 0.5833 0.17832 0.0
O652 O 0.17415 0.57878 0.14522 0.0
C653 C 0.38315 0.58965 0.04303 0.0
O654 O 0.27221 0.46064 0.13818 0.0
O655 O 0.3477 0.56018 0.13972 0.0
C656 C 0.1276 0.41134 0.10102 0.0
O657 O 0.34839 0.52802 0.05111 0.0
O658 O 0.35716 0.62407 0.05531 0.0
C659 C 0.26761 0.67164 0.06138 0.0
Fe660 Fe 0.46991 0.54273 0.57805 0.0
Fe661 Fe 0.31737 0.47616 0.56573 0.0
O662 O 0.39425 0.54106 0.58658 0.0
Fe663 Fe 0.3936 0.60538 0.61802 0.0
O664 O 0.47574 0.66306 0.60475 0.0
O665 O 0.50836 0.62452 0.54282 0.0
O666 O 0.44668 0.50638 0.51176 0.0
C667 C 0.40107 0.499 0.48067 0.0
C668 C 0.47089 0.57905 0.6854 0.0
O669 O 0.34609 0.48996 0.49719 0.0
C670 C 0.28816 0.50787 0.66344 0.0
O671 O 0.43649 0.4627 0.61167 0.0
O672 O 0.34112 0.41414 0.57188 0.0
O673 O 0.41963 0.58337 0.67831 0.0
O674 O 0.5038 0.57884 0.64523 0.0
C675 C 0.30557 0.58962 0.54305 0.0
O676 O 0.28758 0.46062 0.63817 0.0
O677 O 0.31161 0.56014 0.63971 0.0
C678 C 0.38292 0.41139 0.60101 0.0
O679 O 0.27877 0.52799 0.55111 0.0
O680 O 0.36601 0.62399 0.55528 0.0
C681 C 0.50314 0.67169 0.56136 0.0
Fe682 Fe 0.58123 0.95197 0.57805 0.0
Fe683 Fe 0.64776 0.86598 0.56573 0.0
O684 O 0.58286 0.87797 0.58658 0.0
Fe685 Fe 0.51853 0.81302 0.61803 0.0
O686 O 0.46087 0.8375 0.60476 0.0
O687 O 0.49943 0.90863 0.54282 0.0
O688 O 0.61758 0.96509 0.51176 0.0
C689 C 0.62494 0.92685 0.48067 0.0
C690 C 0.5449 0.91666 0.6854 0.0
O691 O 0.63397 0.88092 0.49719 0.0
C692 C 0.61602 0.80505 0.66345 0.0
O693 O 0.66126 0.99858 0.61167 0.0
O694 O 0.7098 0.95175 0.57189 0.0
O695 O 0.54059 0.86108 0.67832 0.0
O696 O 0.54512 0.94977 0.64522 0.0
C697 C 0.53427 0.74078 0.54303 0.0
O698 O 0.66329 0.85172 0.63817 0.0
O699 O 0.56374 0.77624 0.63972 0.0
C700 C 0.71257 0.99632 0.60102 0.0
O701 O 0.5959 0.77555 0.55111 0.0
O702 O 0.49984 0.76676 0.55531 0.0
C703 C 0.45225 0.85626 0.56136 0.0
Fe704 Fe 0.31092 0.73031 0.61803 0.0
Fe705 Fe 0.17195 0.65404 0.57805 0.0
O706 O 0.24596 0.72968 0.58658 0.0
Fe707 Fe 0.25796 0.80657 0.56574 0.0
O708 O 0.3484 0.84516 0.55111 0.0
O709 O 0.35717 0.75788 0.5553 0.0
O710 O 0.28645 0.64818 0.60477 0.0
C711 C 0.26763 0.62075 0.56138 0.0
C712 C 0.3189 0.83576 0.66344 0.0
O713 O 0.21528 0.61559 0.54282 0.0
C714 C 0.12762 0.74103 0.60102 0.0
O715 O 0.26287 0.70431 0.67832 0.0
O716 O 0.17416 0.62014 0.64523 0.0
O717 O 0.27222 0.83635 0.63817 0.0
O718 O 0.3477 0.81231 0.63971 0.0
C719 C 0.19709 0.72288 0.48067 0.0
O720 O 0.12535 0.68746 0.61168 0.0
O721 O 0.17219 0.78283 0.57189 0.0
C722 C 0.20729 0.65304 0.68541 0.0
O723 O 0.15883 0.67728 0.51177 0.0
O724 O 0.24302 0.77785 0.49719 0.0
C725 C 0.38316 0.8183 0.54303 0.0
Fe726 Fe 0.23418 0.77844 0.32624 0.0
Fe727 Fe 0.16761 0.62591 0.33855 0.0
O728 O 0.23252 0.7028 0.31771 0.0
Fe729 Fe 0.29684 0.70216 0.28627 0.0
O730 O 0.35452 0.78429 0.29954 0.0
O731 O 0.31597 0.81689 0.36147 0.0
O732 O 0.19782 0.75521 0.39253 0.0
C733 C 0.19044 0.7096 0.42362 0.0
C734 C 0.2705 0.77945 0.21889 0.0
O735 O 0.18141 0.65463 0.40709 0.0
C736 C 0.19934 0.59671 0.24084 0.0
O737 O 0.15414 0.74502 0.29262 0.0
O738 O 0.10559 0.64965 0.3324 0.0
O739 O 0.27482 0.72818 0.22598 0.0
O740 O 0.27028 0.81234 0.25907 0.0
C741 C 0.2811 0.61413 0.36123 0.0
O742 O 0.15208 0.59612 0.26612 0.0
O743 O 0.25162 0.62017 0.26457 0.0
C744 C 0.10283 0.69145 0.30327 0.0
O745 O 0.21946 0.58733 0.35317 0.0
O746 O 0.31546 0.67457 0.349 0.0
C747 C 0.36315 0.81169 0.34294 0.0
Fe748 Fe 0.49804 0.56649 0.33855 0.0
Fe749 Fe 0.4218 0.61947 0.28627 0.0
O750 O 0.42115 0.5545 0.31771 0.0
Fe751 Fe 0.34551 0.4805 0.32624 0.0
O752 O 0.36874 0.46738 0.39252 0.0
O753 O 0.46932 0.55156 0.40709 0.0
O754 O 0.53663 0.65692 0.35318 0.0
C755 C 0.50984 0.69175 0.36124 0.0
C756 C 0.43249 0.43616 0.30327 0.0
O757 O 0.44939 0.66567 0.34901 0.0
C758 C 0.3445 0.51584 0.21889 0.0
O759 O 0.52782 0.58074 0.26611 0.0
O760 O 0.5038 0.65624 0.26458 0.0
O761 O 0.37892 0.43389 0.29261 0.0
O762 O 0.47429 0.48073 0.3324 0.0
C763 C 0.31223 0.57619 0.34291 0.0
O764 O 0.39577 0.57143 0.22598 0.0
O765 O 0.31161 0.48272 0.25906 0.0
C766 C 0.52724 0.62742 0.24084 0.0
O767 O 0.33967 0.59502 0.29954 0.0
O768 O 0.30706 0.52383 0.36146 0.0
C769 C 0.41435 0.50563 0.42362 0.0
Fe770 Fe 0.55744 0.95631 0.33855 0.0
Fe771 Fe 0.50448 0.82708 0.28626 0.0
O772 O 0.56944 0.89142 0.31771 0.0
Fe773 Fe 0.64345 0.8898 0.32624 0.0
O774 O 0.65657 0.92616 0.39252 0.0
O775 O 0.57237 0.94253 0.40709 0.0
O776 O 0.467 0.90445 0.35318 0.0
C777 C 0.43224 0.84282 0.36126 0.0
C778 C 0.68779 1.02113 0.30327 0.0
O779 O 0.45823 0.8084 0.34898 0.0
C780 C 0.60813 0.85346 0.21889 0.0
O781 O 0.54317 0.97183 0.26611 0.0
O782 O 0.4677 0.87229 0.26457 0.0
O783 O 0.69006 0.96983 0.29261 0.0
O784 O 0.64321 1.01835 0.33239 0.0
C785 C 0.54778 0.76082 0.34291 0.0
O786 O 0.55254 0.84914 0.22597 0.0
O787 O 0.64125 0.85369 0.25907 0.0
C788 C 0.4965 0.92456 0.24084 0.0
O789 O 0.52896 0.76943 0.29953 0.0
O790 O 0.60012 0.80802 0.36147 0.0
C791 C 0.61832 0.93351 0.42362 0.0
loop_
_geom_bond_atom_site_label_1
_geom_bond_atom_site_label_2
_geom_bond_distance
_geom_bond_site_symmetry_2
_ccdc_geom_bond_type
Fe0 O2 1.918 . S
Fe0 O5 1.997 . S
Fe0 O6 2.002 1_455 S
Fe0 O11 1.976 1_455 S
Fe0 O14 1.996 . S
Fe1 O2 1.918 1_655 S
Fe1 O9 1.997 . S
Fe1 O12 1.996 . S
Fe1 O16 1.976 . S
Fe1 O19 2.002 . S
O2 Fe0 1.918 . S
O2 Fe1 1.918 1_455 S
O2 Fe3 1.918 . S
Fe3 O2 1.918 . S
Fe3 O4 2.002 . S
Fe3 O13 1.976 . S
Fe3 O17 1.996 . S
Fe3 O20 1.997 . S
O4 Fe3 2.002 . S
O4 C21 1.295 . S
O5 Fe0 1.997 . S
O5 C21 1.235 . S
O6 Fe0 2.002 1_655 S
O6 C7 1.295 . S
C7 O6 1.295 . S
C7 O9 1.235 . S
C8 O13 1.287 . S
C8 O14 1.255 . S
O9 Fe1 1.997 . S
O9 C7 1.235 . S
C10 O16 1.287 1_455 S
C10 O17 1.255 . S
O11 Fe0 1.976 1_655 S
O11 C18 1.287 . S
O12 Fe1 1.996 . S
O12 C18 1.255 . S
O13 Fe3 1.976 . S
O13 C8 1.287 . S
O14 Fe0 1.996 . S
O14 C8 1.255 . S
C15 O19 1.295 1_455 S
C15 O20 1.235 . S
O16 Fe1 1.976 . S
O16 C10 1.287 1_655 S
O17 Fe3 1.996 . S
O17 C10 1.255 . S
C18 O11 1.287 . S
C18 O12 1.255 . S
O19 Fe1 2.002 . S
O19 C15 1.295 1_655 S
O20 Fe3 1.997 . S
O20 C15 1.235 . S
C21 O4 1.295 . S
C21 O5 1.235 . S
Fe22 O24 1.918 . S
Fe22 O27 1.997 . S
Fe22 O28 2.002 . S
Fe22 O33 1.976 . S
Fe22 O36 1.996 . S
Fe23 O24 1.918 . S
Fe23 O31 1.997 . S
Fe23 O34 1.996 . S
Fe23 O38 1.976 . S
Fe23 O41 2.002 . S
O24 Fe22 1.918 . S
O24 Fe23 1.918 . S
O24 Fe25 1.918 . S
Fe25 O24 1.918 . S
Fe25 O26 2.002 . S
Fe25 O35 1.976 . S
Fe25 O39 1.996 . S
Fe25 O42 1.997 . S
O26 Fe25 2.002 . S
O26 C43 1.295 . S
O27 Fe22 1.997 . S
O27 C43 1.235 . S
O28 Fe22 2.002 . S
O28 C29 1.295 . S
C29 O28 1.295 . S
C29 O31 1.235 . S
C30 O35 1.287 . S
C30 O36 1.255 . S
O31 Fe23 1.997 . S
O31 C29 1.235 . S
C32 O38 1.287 . S
C32 O39 1.255 . S
O33 Fe22 1.976 . S
O33 C40 1.287 . S
O34 Fe23 1.996 . S
O34 C40 1.255 . S
O35 Fe25 1.976 . S
O35 C30 1.287 . S
O36 Fe22 1.996 . S
O36 C30 1.255 . S
C37 O41 1.295 . S
C37 O42 1.235 . S
O38 Fe23 1.976 . S
O38 C32 1.287 . S
O39 Fe25 1.996 . S
O39 C32 1.255 . S
C40 O33 1.287 . S
C40 O34 1.255 . S
O41 Fe23 2.002 . S
O41 C37 1.295 . S
O42 Fe25 1.997 . S
O42 C37 1.235 . S
C43 O26 1.295 . S
C43 O27 1.235 . S
Fe44 O46 1.918 . S
Fe44 O49 1.997 . S
Fe44 O50 2.002 . S
Fe44 O55 1.976 . S
Fe44 O58 1.996 . S
Fe45 O46 1.918 . S
Fe45 O53 1.997 . S
Fe45 O56 1.996 . S
Fe45 O60 1.976 1_565 S
Fe45 O63 2.002 1_565 S
O46 Fe44 1.918 . S
O46 Fe45 1.918 . S
O46 Fe47 1.918 1_565 S
Fe47 O46 1.918 1_545 S
Fe47 O48 2.002 . S
Fe47 O57 1.976 . S
Fe47 O61 1.996 . S
Fe47 O64 1.997 . S
O48 Fe47 2.002 . S
O48 C65 1.295 1_545 S
O49 Fe44 1.997 . S
O49 C65 1.235 . S
O50 Fe44 2.002 . S
O50 C51 1.295 . S
C51 O50 1.295 . S
C51 O53 1.235 . S
C52 O57 1.287 1_565 S
C52 O58 1.255 . S
O53 Fe45 1.997 . S
O53 C51 1.235 . S
C54 O60 1.287 . S
C54 O61 1.255 . S
O55 Fe44 1.976 . S
O55 C62 1.287 . S
O56 Fe45 1.996 . S
O56 C62 1.255 . S
O57 Fe47 1.976 . S
O57 C52 1.287 1_545 S
O58 Fe44 1.996 . S
O58 C52 1.255 . S
C59 O63 1.295 . S
C59 O64 1.235 . S
O60 Fe45 1.976 1_545 S
O60 C54 1.287 . S
O61 Fe47 1.996 . S
O61 C54 1.255 . S
C62 O55 1.287 . S
C62 O56 1.255 . S
O63 Fe45 2.002 1_545 S
O63 C59 1.295 . S
O64 Fe47 1.997 . S
O64 C59 1.235 . S
C65 O48 1.295 1_565 S
C65 O49 1.235 . S
Fe66 O68 1.918 . S
Fe66 O71 1.997 . S
Fe66 O72 2.002 1_545 S
Fe66 O77 1.976 1_545 S
Fe66 O80 1.996 . S
Fe67 O68 1.918 1_565 S
Fe67 O75 1.997 . S
Fe67 O78 1.996 . S
Fe67 O82 1.976 . S
Fe67 O85 2.002 . S
O68 Fe66 1.918 . S
O68 Fe67 1.918 1_545 S
O68 Fe69 1.918 . S
Fe69 O68 1.918 . S
Fe69 O70 2.002 . S
Fe69 O79 1.976 . S
Fe69 O83 1.996 . S
Fe69 O86 1.997 . S
O70 Fe69 2.002 . S
O70 C87 1.295 . S
O71 Fe66 1.997 . S
O71 C87 1.235 . S
O72 Fe66 2.002 1_565 S
O72 C73 1.295 . S
C73 O72 1.295 . S
C73 O75 1.235 . S
C74 O79 1.287 . S
C74 O80 1.255 . S
O75 Fe67 1.997 . S
O75 C73 1.235 . S
C76 O82 1.287 1_545 S
C76 O83 1.255 . S
O77 Fe66 1.976 1_565 S
O77 C84 1.287 . S
O78 Fe67 1.996 . S
O78 C84 1.255 . S
O79 Fe69 1.976 . S
O79 C74 1.287 . S
O80 Fe66 1.996 . S
O80 C74 1.255 . S
C81 O85 1.295 1_545 S
C81 O86 1.235 . S
O82 Fe67 1.976 . S
O82 C76 1.287 1_565 S
O83 Fe69 1.996 . S
O83 C76 1.255 . S
C84 O77 1.287 . S
C84 O78 1.255 . S
O85 Fe67 2.002 . S
O85 C81 1.295 1_565 S
O86 Fe69 1.997 . S
O86 C81 1.235 . S
C87 O70 1.295 . S
C87 O71 1.235 . S
Fe88 O90 1.918 . S
Fe88 O93 1.997 . S
Fe88 O94 2.002 1_655 S
Fe88 O99 1.976 1_655 S
Fe88 O102 1.996 . S
Fe89 O90 1.918 1_455 S
Fe89 O97 1.997 . S
Fe89 O100 1.996 . S
Fe89 O104 1.976 . S
Fe89 O107 2.002 . S
O90 Fe88 1.918 . S
O90 Fe89 1.918 1_655 S
O90 Fe91 1.918 . S
Fe91 O90 1.918 . S
Fe91 O92 2.002 . S
Fe91 O101 1.976 . S
Fe91 O105 1.996 . S
Fe91 O108 1.997 . S
O92 Fe91 2.002 . S
O92 C109 1.295 . S
O93 Fe88 1.997 . S
O93 C109 1.235 . S
O94 Fe88 2.002 1_455 S
O94 C95 1.295 . S
C95 O94 1.295 . S
C95 O97 1.235 . S
C96 O101 1.287 . S
C96 O102 1.255 . S
O97 Fe89 1.997 . S
O97 C95 1.235 . S
C98 O104 1.287 1_655 S
C98 O105 1.255 . S
O99 Fe88 1.976 1_455 S
O99 C106 1.287 . S
O100 Fe89 1.996 . S
O100 C106 1.255 . S
O101 Fe91 1.976 . S
O101 C96 1.287 . S
O102 Fe88 1.996 . S
O102 C96 1.255 . S
C103 O107 1.295 1_655 S
C103 O108 1.235 . S
O104 Fe89 1.976 . S
O104 C98 1.287 1_455 S
O105 Fe91 1.996 . S
O105 C98 1.255 . S
C106 O99 1.287 . S
C106 O100 1.255 . S
O107 Fe89 2.002 . S
O107 C103 1.295 1_455 S
O108 Fe91 1.997 . S
O108 C103 1.235 . S
C109 O92 1.295 . S
C109 O93 1.235 . S
Fe110 O112 1.918 . S
Fe110 O115 1.997 . S
Fe110 O116 2.002 . S
Fe110 O121 1.976 . S
Fe110 O124 1.996 . S
Fe111 O112 1.918 . S
Fe111 O119 1.997 . S
Fe111 O122 1.996 . S
Fe111 O126 1.976 . S
Fe111 O129 2.002 . S
O112 Fe110 1.918 . S
O112 Fe111 1.918 . S
O112 Fe113 1.918 . S
Fe113 O112 1.918 . S
Fe113 O114 2.002 . S
Fe113 O123 1.976 . S
Fe113 O127 1.996 . S
Fe113 O130 1.997 . S
O114 Fe113 2.002 . S
O114 C131 1.295 . S
O115 Fe110 1.997 . S
O115 C131 1.235 . S
O116 Fe110 2.002 . S
O116 C117 1.295 . S
C117 O116 1.295 . S
C117 O119 1.235 . S
C118 O123 1.287 . S
C118 O124 1.255 . S
O119 Fe111 1.997 . S
O119 C117 1.235 . S
C120 O126 1.287 . S
C120 O127 1.255 . S
O121 Fe110 1.976 . S
O121 C128 1.287 . S
O122 Fe111 1.996 . S
O122 C128 1.255 . S
O123 Fe113 1.976 . S
O123 C118 1.287 . S
O124 Fe110 1.996 . S
O124 C118 1.255 . S
C125 O129 1.295 . S
C125 O130 1.235 . S
O126 Fe111 1.976 . S
O126 C120 1.287 . S
O127 Fe113 1.996 . S
O127 C120 1.255 . S
C128 O121 1.287 . S
C128 O122 1.255 . S
O129 Fe111 2.002 . S
O129 C125 1.295 . S
O130 Fe113 1.997 . S
O130 C125 1.235 . S
C131 O114 1.295 . S
C131 O115 1.235 . S
Fe132 O134 1.918 . S
Fe132 O137 1.997 . S
Fe132 O138 2.002 1_655 S
Fe132 O143 1.976 1_655 S
Fe132 O146 1.996 . S
Fe133 O134 1.918 1_455 S
Fe133 O141 1.997 . S
Fe133 O144 1.996 . S
Fe133 O148 1.976 . S
Fe133 O151 2.002 . S
O134 Fe132 1.918 . S
O134 Fe133 1.918 1_655 S
O134 Fe135 1.918 . S
Fe135 O134 1.918 . S
Fe135 O136 2.002 . S
Fe135 O145 1.976 . S
Fe135 O149 1.996 . S
Fe135 O152 1.997 . S
O136 Fe135 2.002 . S
O136 C153 1.295 . S
O137 Fe132 1.997 . S
O137 C153 1.235 . S
O138 Fe132 2.002 1_455 S
O138 C139 1.295 . S
C139 O138 1.295 . S
C139 O141 1.235 . S
C140 O145 1.287 . S
C140 O146 1.255 . S
O141 Fe133 1.997 . S
O141 C139 1.235 . S
C142 O148 1.287 1_655 S
C142 O149 1.255 . S
O143 Fe132 1.976 1_455 S
O143 C150 1.287 . S
O144 Fe133 1.996 . S
O144 C150 1.255 . S
O145 Fe135 1.976 . S
O145 C140 1.287 . S
O146 Fe132 1.996 . S
O146 C140 1.255 . S
C147 O151 1.295 1_655 S
C147 O152 1.235 . S
O148 Fe133 1.976 . S
O148 C142 1.287 1_455 S
O149 Fe135 1.996 . S
O149 C142 1.255 . S
C150 O143 1.287 . S
C150 O144 1.255 . S
O151 Fe133 2.002 . S
O151 C147 1.295 1_455 S
O152 Fe135 1.997 . S
O152 C147 1.235 . S
C153 O136 1.295 . S
C153 O137 1.235 . S
Fe154 O156 1.918 . S
Fe154 O159 1.997 . S
Fe154 O160 2.002 . S
Fe154 O165 1.976 . S
Fe154 O168 1.996 . S
Fe155 O156 1.918 . S
Fe155 O163 1.997 . S
Fe155 O166 1.996 . S
Fe155 O170 1.976 . S
Fe155 O173 2.002 . S
O156 Fe154 1.918 . S
O156 Fe155 1.918 . S
O156 Fe157 1.918 . S
Fe157 O156 1.918 . S
Fe157 O158 2.002 . S
Fe157 O167 1.976 . S
Fe157 O171 1.996 . S
Fe157 O174 1.997 . S
O158 Fe157 2.002 . S
O158 C175 1.295 . S
O159 Fe154 1.997 . S
O159 C175 1.235 . S
O160 Fe154 2.002 . S
O160 C161 1.295 . S
C161 O160 1.295 . S
C161 O163 1.235 . S
C162 O167 1.287 . S
C162 O168 1.255 . S
O163 Fe155 1.997 . S
O163 C161 1.235 . S
C164 O170 1.287 . S
C164 O171 1.255 . S
O165 Fe154 1.976 . S
O165 C172 1.287 . S
O166 Fe155 1.996 . S
O166 C172 1.255 . S
O167 Fe157 1.976 . S
O167 C162 1.287 . S
O168 Fe154 1.996 . S
O168 C162 1.255 . S
C169 O173 1.295 . S
C169 O174 1.235 . S
O170 Fe155 1.976 . S
O170 C164 1.287 . S
O171 Fe157 1.996 . S
O171 C164 1.255 . S
C172 O165 1.287 . S
C172 O166 1.255 . S
O173 Fe155 2.002 . S
O173 C169 1.295 . S
O174 Fe157 1.997 . S
O174 C169 1.235 . S
C175 O158 1.295 . S
C175 O159 1.235 . S
Fe176 O178 1.918 1_565 S
Fe176 O181 1.997 . S
Fe176 O182 2.002 . S
Fe176 O187 1.976 . S
Fe176 O190 1.996 . S
Fe177 O178 1.918 . S
Fe177 O185 1.997 . S
Fe177 O188 1.996 . S
Fe177 O192 1.976 . S
Fe177 O195 2.002 . S
O178 Fe176 1.918 1_545 S
O178 Fe177 1.918 . S
O178 Fe179 1.918 . S
Fe179 O178 1.918 . S
Fe179 O180 2.002 1_545 S
Fe179 O189 1.976 1_545 S
Fe179 O193 1.996 . S
Fe179 O196 1.997 . S
O180 Fe179 2.002 1_565 S
O180 C197 1.295 . S
O181 Fe176 1.997 . S
O181 C197 1.235 . S
O182 Fe176 2.002 . S
O182 C183 1.295 1_565 S
C183 O182 1.295 1_545 S
C183 O185 1.235 . S
C184 O189 1.287 . S
C184 O190 1.255 . S
O185 Fe177 1.997 . S
O185 C183 1.235 . S
C186 O192 1.287 . S
C186 O193 1.255 . S
O187 Fe176 1.976 . S
O187 C194 1.287 1_565 S
O188 Fe177 1.996 . S
O188 C194 1.255 . S
O189 Fe179 1.976 1_565 S
O189 C184 1.287 . S
O190 Fe176 1.996 . S
O190 C184 1.255 . S
C191 O195 1.295 . S
C191 O196 1.235 . S
O192 Fe177 1.976 . S
O192 C186 1.287 . S
O193 Fe179 1.996 . S
O193 C186 1.255 . S
C194 O187 1.287 1_545 S
C194 O188 1.255 . S
O195 Fe177 2.002 . S
O195 C191 1.295 . S
O196 Fe179 1.997 . S
O196 C191 1.235 . S
C197 O180 1.295 . S
C197 O181 1.235 . S
Fe198 O200 1.918 . S
Fe198 O203 1.997 . S
Fe198 O204 2.002 . S
Fe198 O209 1.976 . S
Fe198 O212 1.996 . S
Fe199 O200 1.918 . S
Fe199 O207 1.997 . S
Fe199 O210 1.996 . S
Fe199 O214 1.976 1_565 S
Fe199 O217 2.002 1_565 S
O200 Fe198 1.918 . S
O200 Fe199 1.918 . S
O200 Fe201 1.918 1_565 S
Fe201 O200 1.918 1_545 S
Fe201 O202 2.002 . S
Fe201 O211 1.976 . S
Fe201 O215 1.996 . S
Fe201 O218 1.997 . S
O202 Fe201 2.002 . S
O202 C219 1.295 1_545 S
O203 Fe198 1.997 . S
O203 C219 1.235 . S
O204 Fe198 2.002 . S
O204 C205 1.295 . S
C205 O204 1.295 . S
C205 O207 1.235 . S
C206 O211 1.287 1_565 S
C206 O212 1.255 . S
O207 Fe199 1.997 . S
O207 C205 1.235 . S
C208 O214 1.287 . S
C208 O215 1.255 . S
O209 Fe198 1.976 . S
O209 C216 1.287 . S
O210 Fe199 1.996 . S
O210 C216 1.255 . S
O211 Fe201 1.976 . S
O211 C206 1.287 1_545 S
O212 Fe198 1.996 . S
O212 C206 1.255 . S
C213 O217 1.295 . S
C213 O218 1.235 . S
O214 Fe199 1.976 1_545 S
O214 C208 1.287 . S
O215 Fe201 1.996 . S
O215 C208 1.255 . S
C216 O209 1.287 . S
C216 O210 1.255 . S
O217 Fe199 2.002 1_545 S
O217 C213 1.295 . S
O218 Fe201 1.997 . S
O218 C213 1.235 . S
C219 O202 1.295 1_565 S
C219 O203 1.235 . S
Fe220 O222 1.918 . S
Fe220 O225 1.997 . S
Fe220 O226 2.002 . S
Fe220 O231 1.976 . S
Fe220 O234 1.996 . S
Fe221 O222 1.918 . S
Fe221 O229 1.997 . S
Fe221 O232 1.996 . S
Fe221 O236 1.976 1_455 S
Fe221 O239 2.002 1_455 S
O222 Fe220 1.918 . S
O222 Fe221 1.918 . S
O222 Fe223 1.918 1_455 S
Fe223 O222 1.918 1_655 S
Fe223 O224 2.002 . S
Fe223 O233 1.976 . S
Fe223 O237 1.996 . S
Fe223 O240 1.997 . S
O224 Fe223 2.002 . S
O224 C241 1.295 1_655 S
O225 Fe220 1.997 . S
O225 C241 1.235 . S
O226 Fe220 2.002 . S
O226 C227 1.295 . S
C227 O226 1.295 . S
C227 O229 1.235 . S
C228 O233 1.287 1_455 S
C228 O234 1.255 . S
O229 Fe221 1.997 . S
O229 C227 1.235 . S
C230 O236 1.287 . S
C230 O237 1.255 . S
O231 Fe220 1.976 . S
O231 C238 1.287 . S
O232 Fe221 1.996 . S
O232 C238 1.255 . S
O233 Fe223 1.976 . S
O233 C228 1.287 1_655 S
O234 Fe220 1.996 . S
O234 C228 1.255 . S
C235 O239 1.295 . S
C235 O240 1.235 . S
O236 Fe221 1.976 1_655 S
O236 C230 1.287 . S
O237 Fe223 1.996 . S
O237 C230 1.255 . S
C238 O231 1.287 . S
C238 O232 1.255 . S
O239 Fe221 2.002 1_655 S
O239 C235 1.295 . S
O240 Fe223 1.997 . S
O240 C235 1.235 . S
C241 O224 1.295 1_455 S
C241 O225 1.235 . S
Fe242 O244 1.918 . S
Fe242 O247 1.997 . S
Fe242 O248 2.002 . S
Fe242 O253 1.976 . S
Fe242 O256 1.996 . S
Fe243 O244 1.918 . S
Fe243 O251 1.997 . S
Fe243 O254 1.996 . S
Fe243 O258 1.976 . S
Fe243 O261 2.002 . S
O244 Fe242 1.918 . S
O244 Fe243 1.918 . S
O244 Fe245 1.918 . S
Fe245 O244 1.918 . S
Fe245 O246 2.002 . S
Fe245 O255 1.976 . S
Fe245 O259 1.996 . S
Fe245 O262 1.997 . S
O246 Fe245 2.002 . S
O246 C263 1.295 . S
O247 Fe242 1.997 . S
O247 C263 1.235 . S
O248 Fe242 2.002 . S
O248 C249 1.295 . S
C249 O248 1.295 . S
C249 O251 1.235 . S
C250 O255 1.287 . S
C250 O256 1.255 . S
O251 Fe243 1.997 . S
O251 C249 1.235 . S
C252 O258 1.287 . S
C252 O259 1.255 . S
O253 Fe242 1.976 . S
O253 C260 1.287 . S
O254 Fe243 1.996 . S
O254 C260 1.255 . S
O255 Fe245 1.976 . S
O255 C250 1.287 . S
O256 Fe242 1.996 . S
O256 C250 1.255 . S
C257 O261 1.295 . S
C257 O262 1.235 . S
O258 Fe243 1.976 . S
O258 C252 1.287 . S
O259 Fe245 1.996 . S
O259 C252 1.255 . S
C260 O253 1.287 . S
C260 O254 1.255 . S
O261 Fe243 2.002 . S
O261 C257 1.295 . S
O262 Fe245 1.997 . S
O262 C257 1.235 . S
C263 O246 1.295 . S
C263 O247 1.235 . S
Fe264 O266 1.918 . S
Fe264 O269 1.997 . S
Fe264 O270 2.002 . S
Fe264 O275 1.976 . S
Fe264 O278 1.996 . S
Fe265 O266 1.918 . S
Fe265 O273 1.997 . S
Fe265 O276 1.996 . S
Fe265 O280 1.976 . S
Fe265 O283 2.002 . S
O266 Fe264 1.918 . S
O266 Fe265 1.918 . S
O266 Fe267 1.918 . S
Fe267 O266 1.918 . S
Fe267 O268 2.002 . S
Fe267 O277 1.976 . S
Fe267 O281 1.996 . S
Fe267 O284 1.997 . S
O268 Fe267 2.002 . S
O268 C285 1.295 . S
O269 Fe264 1.997 . S
O269 C285 1.235 . S
O270 Fe264 2.002 . S
O270 C271 1.295 . S
C271 O270 1.295 . S
C271 O273 1.235 . S
C272 O277 1.287 . S
C272 O278 1.255 . S
O273 Fe265 1.997 . S
O273 C271 1.235 . S
C274 O280 1.287 . S
C274 O281 1.255 . S
O275 Fe264 1.976 . S
O275 C282 1.287 . S
O276 Fe265 1.996 . S
O276 C282 1.255 . S
O277 Fe267 1.976 . S
O277 C272 1.287 . S
O278 Fe264 1.996 . S
O278 C272 1.255 . S
C279 O283 1.295 . S
C279 O284 1.235 . S
O280 Fe265 1.976 . S
O280 C274 1.287 . S
O281 Fe267 1.996 . S
O281 C274 1.255 . S
C282 O275 1.287 . S
C282 O276 1.255 . S
O283 Fe265 2.002 . S
O283 C279 1.295 . S
O284 Fe267 1.997 . S
O284 C279 1.235 . S
C285 O268 1.295 . S
C285 O269 1.235 . S
Fe286 O288 1.918 . S
Fe286 O291 1.997 . S
Fe286 O292 2.002 . S
Fe286 O297 1.976 . S
Fe286 O300 1.996 . S
Fe287 O288 1.918 . S
Fe287 O295 1.997 . S
Fe287 O298 1.996 . S
Fe287 O302 1.976 . S
Fe287 O305 2.002 . S
O288 Fe286 1.918 . S
O288 Fe287 1.918 . S
O288 Fe289 1.918 . S
Fe289 O288 1.918 . S
Fe289 O290 2.002 . S
Fe289 O299 1.976 . S
Fe289 O303 1.996 . S
Fe289 O306 1.997 . S
O290 Fe289 2.002 . S
O290 C307 1.295 . S
O291 Fe286 1.997 . S
O291 C307 1.235 . S
O292 Fe286 2.002 . S
O292 C293 1.295 . S
C293 O292 1.295 . S
C293 O295 1.235 . S
C294 O299 1.287 . S
C294 O300 1.255 . S
O295 Fe287 1.997 . S
O295 C293 1.235 . S
C296 O302 1.287 . S
C296 O303 1.255 . S
O297 Fe286 1.976 . S
O297 C304 1.287 . S
O298 Fe287 1.996 . S
O298 C304 1.255 . S
O299 Fe289 1.976 . S
O299 C294 1.287 . S
O300 Fe286 1.996 . S
O300 C294 1.255 . S
C301 O305 1.295 . S
C301 O306 1.235 . S
O302 Fe287 1.976 . S
O302 C296 1.287 . S
O303 Fe289 1.996 . S
O303 C296 1.255 . S
C304 O297 1.287 . S
C304 O298 1.255 . S
O305 Fe287 2.002 . S
O305 C301 1.295 . S
O306 Fe289 1.997 . S
O306 C301 1.235 . S
C307 O290 1.295 . S
C307 O291 1.235 . S
Fe308 O310 1.918 . S
Fe308 O313 1.997 . S
Fe308 O314 2.002 . S
Fe308 O319 1.976 . S
Fe308 O322 1.996 . S
Fe309 O310 1.918 . S
Fe309 O317 1.997 . S
Fe309 O320 1.996 . S
Fe309 O324 1.976 . S
Fe309 O327 2.002 . S
O310 Fe308 1.918 . S
O310 Fe309 1.918 . S
O310 Fe311 1.918 . S
Fe311 O310 1.918 . S
Fe311 O312 2.002 . S
Fe311 O321 1.976 . S
Fe311 O325 1.996 . S
Fe311 O328 1.997 . S
O312 Fe311 2.002 . S
O312 C329 1.295 . S
O313 Fe308 1.997 . S
O313 C329 1.235 . S
O314 Fe308 2.002 . S
O314 C315 1.295 . S
C315 O314 1.295 . S
C315 O317 1.235 . S
C316 O321 1.287 . S
C316 O322 1.255 . S
O317 Fe309 1.997 . S
O317 C315 1.235 . S
C318 O324 1.287 . S
C318 O325 1.255 . S
O319 Fe308 1.976 . S
O319 C326 1.287 . S
O320 Fe309 1.996 . S
O320 C326 1.255 . S
O321 Fe311 1.976 . S
O321 C316 1.287 . S
O322 Fe308 1.996 . S
O322 C316 1.255 . S
C323 O327 1.295 . S
C323 O328 1.235 . S
O324 Fe309 1.976 . S
O324 C318 1.287 . S
O325 Fe311 1.996 . S
O325 C318 1.255 . S
C326 O319 1.287 . S
C326 O320 1.255 . S
O327 Fe309 2.002 . S
O327 C323 1.295 . S
O328 Fe311 1.997 . S
O328 C323 1.235 . S
C329 O312 1.295 . S
C329 O313 1.235 . S
Fe330 O332 1.918 . S
Fe330 O335 1.997 . S
Fe330 O336 2.002 . S
Fe330 O341 1.976 . S
Fe330 O344 1.996 . S
Fe331 O332 1.918 . S
Fe331 O339 1.997 . S
Fe331 O342 1.996 . S
Fe331 O346 1.976 . S
Fe331 O349 2.002 . S
O332 Fe330 1.918 . S
O332 Fe331 1.918 . S
O332 Fe333 1.918 . S
Fe333 O332 1.918 . S
Fe333 O334 2.002 . S
Fe333 O343 1.976 . S
Fe333 O347 1.996 . S
Fe333 O350 1.997 . S
O334 Fe333 2.002 . S
O334 C351 1.295 . S
O335 Fe330 1.997 . S
O335 C351 1.235 . S
O336 Fe330 2.002 . S
O336 C337 1.295 . S
C337 O336 1.295 . S
C337 O339 1.235 . S
C338 O343 1.287 . S
C338 O344 1.255 . S
O339 Fe331 1.997 . S
O339 C337 1.235 . S
C340 O346 1.287 . S
C340 O347 1.255 . S
O341 Fe330 1.976 . S
O341 C348 1.287 . S
O342 Fe331 1.996 . S
O342 C348 1.255 . S
O343 Fe333 1.976 . S
O343 C338 1.287 . S
O344 Fe330 1.996 . S
O344 C338 1.255 . S
C345 O349 1.295 . S
C345 O350 1.235 . S
O346 Fe331 1.976 . S
O346 C340 1.287 . S
O347 Fe333 1.996 . S
O347 C340 1.255 . S
C348 O341 1.287 . S
C348 O342 1.255 . S
O349 Fe331 2.002 . S
O349 C345 1.295 . S
O350 Fe333 1.997 . S
O350 C345 1.235 . S
C351 O334 1.295 . S
C351 O335 1.235 . S
Fe352 O354 1.918 . S
Fe352 O357 1.997 . S
Fe352 O358 2.002 . S
Fe352 O363 1.976 . S
Fe352 O366 1.996 . S
Fe353 O354 1.918 . S
Fe353 O361 1.997 . S
Fe353 O364 1.996 . S
Fe353 O368 1.976 . S
Fe353 O371 2.002 . S
O354 Fe352 1.918 . S
O354 Fe353 1.918 . S
O354 Fe355 1.918 . S
Fe355 O354 1.918 . S
Fe355 O356 2.002 . S
Fe355 O365 1.976 . S
Fe355 O369 1.996 . S
Fe355 O372 1.997 . S
O356 Fe355 2.002 . S
O356 C373 1.295 . S
O357 Fe352 1.997 . S
O357 C373 1.235 . S
O358 Fe352 2.002 . S
O358 C359 1.295 . S
C359 O358 1.295 . S
C359 O361 1.235 . S
C360 O365 1.287 . S
C360 O366 1.255 . S
O361 Fe353 1.997 . S
O361 C359 1.235 . S
C362 O368 1.287 . S
C362 O369 1.255 . S
O363 Fe352 1.976 . S
O363 C370 1.287 . S
O364 Fe353 1.996 . S
O364 C370 1.255 . S
O365 Fe355 1.976 . S
O365 C360 1.287 . S
O366 Fe352 1.996 . S
O366 C360 1.255 . S
C367 O371 1.295 . S
C367 O372 1.235 . S
O368 Fe353 1.976 . S
O368 C362 1.287 . S
O369 Fe355 1.996 . S
O369 C362 1.255 . S
C370 O363 1.287 . S
C370 O364 1.255 . S
O371 Fe353 2.002 . S
O371 C367 1.295 . S
O372 Fe355 1.997 . S
O372 C367 1.235 . S
C373 O356 1.295 . S
C373 O357 1.235 . S
Fe374 O376 1.918 . S
Fe374 O379 1.997 . S
Fe374 O380 2.002 . S
Fe374 O385 1.976 . S
Fe374 O388 1.996 . S
Fe375 O376 1.918 . S
Fe375 O383 1.997 . S
Fe375 O386 1.996 . S
Fe375 O390 1.976 . S
Fe375 O393 2.002 . S
O376 Fe374 1.918 . S
O376 Fe375 1.918 . S
O376 Fe377 1.918 . S
Fe377 O376 1.918 . S
Fe377 O378 2.002 . S
Fe377 O387 1.976 . S
Fe377 O391 1.996 . S
Fe377 O394 1.997 . S
O378 Fe377 2.002 . S
O378 C395 1.295 . S
O379 Fe374 1.997 . S
O379 C395 1.235 . S
O380 Fe374 2.002 . S
O380 C381 1.295 . S
C381 O380 1.295 . S
C381 O383 1.235 . S
C382 O387 1.287 . S
C382 O388 1.255 . S
O383 Fe375 1.997 . S
O383 C381 1.235 . S
C384 O390 1.287 . S
C384 O391 1.255 . S
O385 Fe374 1.976 . S
O385 C392 1.287 . S
O386 Fe375 1.996 . S
O386 C392 1.255 . S
O387 Fe377 1.976 . S
O387 C382 1.287 . S
O388 Fe374 1.996 . S
O388 C382 1.255 . S
C389 O393 1.295 . S
C389 O394 1.235 . S
O390 Fe375 1.976 . S
O390 C384 1.287 . S
O391 Fe377 1.996 . S
O391 C384 1.255 . S
C392 O385 1.287 . S
C392 O386 1.255 . S
O393 Fe375 2.002 . S
O393 C389 1.295 . S
O394 Fe377 1.997 . S
O394 C389 1.235 . S
C395 O378 1.295 . S
C395 O379 1.235 . S
Fe396 O398 1.918 . S
Fe396 O401 1.997 . S
Fe396 O402 2.002 . S
Fe396 O407 1.976 . S
Fe396 O410 1.996 . S
Fe397 O398 1.918 . S
Fe397 O405 1.997 . S
Fe397 O408 1.996 . S
Fe397 O412 1.976 . S
Fe397 O415 2.002 . S
O398 Fe396 1.918 . S
O398 Fe397 1.918 . S
O398 Fe399 1.918 . S
Fe399 O398 1.918 . S
Fe399 O400 2.002 . S
Fe399 O409 1.976 . S
Fe399 O413 1.996 . S
Fe399 O416 1.997 . S
O400 Fe399 2.002 . S
O400 C417 1.295 . S
O401 Fe396 1.997 . S
O401 C417 1.235 . S
O402 Fe396 2.002 . S
O402 C403 1.295 . S
C403 O402 1.295 . S
C403 O405 1.235 . S
C404 O409 1.287 . S
C404 O410 1.255 . S
O405 Fe397 1.997 . S
O405 C403 1.235 . S
C406 O412 1.287 . S
C406 O413 1.255 . S
O407 Fe396 1.976 . S
O407 C414 1.287 . S
O408 Fe397 1.996 . S
O408 C414 1.255 . S
O409 Fe399 1.976 . S
O409 C404 1.287 . S
O410 Fe396 1.996 . S
O410 C404 1.255 . S
C411 O415 1.295 . S
C411 O416 1.235 . S
O412 Fe397 1.976 . S
O412 C406 1.287 . S
O413 Fe399 1.996 . S
O413 C406 1.255 . S
C414 O407 1.287 . S
C414 O408 1.255 . S
O415 Fe397 2.002 . S
O415 C411 1.295 . S
O416 Fe399 1.997 . S
O416 C411 1.235 . S
C417 O400 1.295 . S
C417 O401 1.235 . S
Fe418 O420 1.918 . S
Fe418 O423 1.997 . S
Fe418 O424 2.002 . S
Fe418 O429 1.976 . S
Fe418 O432 1.996 . S
Fe419 O420 1.918 . S
Fe419 O427 1.997 . S
Fe419 O430 1.996 . S
Fe419 O434 1.976 . S
Fe419 O437 2.002 . S
O420 Fe418 1.918 . S
O420 Fe419 1.918 . S
O420 Fe421 1.918 . S
Fe421 O420 1.918 . S
Fe421 O422 2.002 . S
Fe421 O431 1.976 . S
Fe421 O435 1.996 . S
Fe421 O438 1.997 . S
O422 Fe421 2.002 . S
O422 C439 1.295 . S
O423 Fe418 1.997 . S
O423 C439 1.235 . S
O424 Fe418 2.002 . S
O424 C425 1.295 . S
C425 O424 1.295 . S
C425 O427 1.235 . S
C426 O431 1.287 . S
C426 O432 1.255 . S
O427 Fe419 1.997 . S
O427 C425 1.235 . S
C428 O434 1.287 . S
C428 O435 1.255 . S
O429 Fe418 1.976 . S
O429 C436 1.287 . S
O430 Fe419 1.996 . S
O430 C436 1.255 . S
O431 Fe421 1.976 . S
O431 C426 1.287 . S
O432 Fe418 1.996 . S
O432 C426 1.255 . S
C433 O437 1.295 . S
C433 O438 1.235 . S
O434 Fe419 1.976 . S
O434 C428 1.287 . S
O435 Fe421 1.996 . S
O435 C428 1.255 . S
C436 O429 1.287 . S
C436 O430 1.255 . S
O437 Fe419 2.002 . S
O437 C433 1.295 . S
O438 Fe421 1.997 . S
O438 C433 1.235 . S
C439 O422 1.295 . S
C439 O423 1.235 . S
Fe440 O442 1.918 . S
Fe440 O445 1.997 . S
Fe440 O446 2.002 . S
Fe440 O451 1.976 . S
Fe440 O454 1.996 . S
Fe441 O442 1.918 . S
Fe441 O449 1.997 . S
Fe441 O452 1.996 . S
Fe441 O456 1.976 . S
Fe441 O459 2.002 . S
O442 Fe440 1.918 . S
O442 Fe441 1.918 . S
O442 Fe443 1.918 . S
Fe443 O442 1.918 . S
Fe443 O444 2.002 . S
Fe443 O453 1.976 . S
Fe443 O457 1.996 . S
Fe443 O460 1.997 . S
O444 Fe443 2.002 . S
O444 C461 1.295 . S
O445 Fe440 1.997 . S
O445 C461 1.235 . S
O446 Fe440 2.002 . S
O446 C447 1.295 . S
C447 O446 1.295 . S
C447 O449 1.235 . S
C448 O453 1.287 . S
C448 O454 1.255 . S
O449 Fe441 1.997 . S
O449 C447 1.235 . S
C450 O456 1.287 . S
C450 O457 1.255 . S
O451 Fe440 1.976 . S
O451 C458 1.287 . S
O452 Fe441 1.996 . S
O452 C458 1.255 . S
O453 Fe443 1.976 . S
O453 C448 1.287 . S
O454 Fe440 1.996 . S
O454 C448 1.255 . S
C455 O459 1.295 . S
C455 O460 1.235 . S
O456 Fe441 1.976 . S
O456 C450 1.287 . S
O457 Fe443 1.996 . S
O457 C450 1.255 . S
C458 O451 1.287 . S
C458 O452 1.255 . S
O459 Fe441 2.002 . S
O459 C455 1.295 . S
O460 Fe443 1.997 . S
O460 C455 1.235 . S
C461 O444 1.295 . S
C461 O445 1.235 . S
Fe462 O464 1.918 . S
Fe462 O467 1.997 . S
Fe462 O468 2.002 1_556 S
Fe462 O473 1.976 . S
Fe462 O476 1.996 . S
Fe463 O464 1.918 . S
Fe463 O471 1.997 1_556 S
Fe463 O474 1.996 . S
Fe463 O478 1.976 . S
Fe463 O481 2.002 . S
O464 Fe462 1.918 . S
O464 Fe463 1.918 . S
O464 Fe465 1.918 . S
Fe465 O464 1.918 . S
Fe465 O466 2.002 . S
Fe465 O475 1.976 . S
Fe465 O479 1.996 . S
Fe465 O482 1.997 . S
O466 Fe465 2.002 . S
O466 C483 1.295 . S
O467 Fe462 1.997 . S
O467 C483 1.235 . S
O468 Fe462 2.002 1_554 S
O468 C469 1.295 . S
C469 O468 1.295 . S
C469 O471 1.235 . S
C470 O475 1.287 . S
C470 O476 1.255 . S
O471 Fe463 1.997 1_554 S
O471 C469 1.235 . S
C472 O478 1.287 . S
C472 O479 1.255 . S
O473 Fe462 1.976 . S
O473 C480 1.287 . S
O474 Fe463 1.996 . S
O474 C480 1.255 . S
O475 Fe465 1.976 . S
O475 C470 1.287 . S
O476 Fe462 1.996 . S
O476 C470 1.255 . S
C477 O481 1.295 . S
C477 O482 1.235 . S
O478 Fe463 1.976 . S
O478 C472 1.287 . S
O479 Fe465 1.996 . S
O479 C472 1.255 . S
C480 O473 1.287 . S
C480 O474 1.255 . S
O481 Fe463 2.002 . S
O481 C477 1.295 . S
O482 Fe465 1.997 . S
O482 C477 1.235 . S
C483 O466 1.295 . S
C483 O467 1.235 . S
Fe484 O486 1.918 . S
Fe484 O489 1.997 . S
Fe484 O490 2.002 1_556 S
Fe484 O495 1.976 . S
Fe484 O498 1.996 . S
Fe485 O486 1.918 . S
Fe485 O493 1.997 1_556 S
Fe485 O496 1.996 . S
Fe485 O500 1.976 . S
Fe485 O503 2.002 . S
O486 Fe484 1.918 . S
O486 Fe485 1.918 . S
O486 Fe487 1.918 . S
Fe487 O486 1.918 . S
Fe487 O488 2.002 . S
Fe487 O497 1.976 . S
Fe487 O501 1.996 . S
Fe487 O504 1.997 . S
O488 Fe487 2.002 . S
O488 C505 1.295 . S
O489 Fe484 1.997 . S
O489 C505 1.235 . S
O490 Fe484 2.002 1_554 S
O490 C491 1.295 . S
C491 O490 1.295 . S
C491 O493 1.235 . S
C492 O497 1.287 . S
C492 O498 1.255 . S
O493 Fe485 1.997 1_554 S
O493 C491 1.235 . S
C494 O500 1.287 . S
C494 O501 1.255 . S
O495 Fe484 1.976 . S
O495 C502 1.287 . S
O496 Fe485 1.996 . S
O496 C502 1.255 . S
O497 Fe487 1.976 . S
O497 C492 1.287 . S
O498 Fe484 1.996 . S
O498 C492 1.255 . S
C499 O503 1.295 . S
C499 O504 1.235 . S
O500 Fe485 1.976 . S
O500 C494 1.287 . S
O501 Fe487 1.996 . S
O501 C494 1.255 . S
C502 O495 1.287 . S
C502 O496 1.255 . S
O503 Fe485 2.002 . S
O503 C499 1.295 . S
O504 Fe487 1.997 . S
O504 C499 1.235 . S
C505 O488 1.295 . S
C505 O489 1.235 . S
Fe506 O508 1.918 . S
Fe506 O511 1.997 . S
Fe506 O512 2.002 1_556 S
Fe506 O517 1.976 . S
Fe506 O520 1.996 . S
Fe507 O508 1.918 . S
Fe507 O515 1.997 1_556 S
Fe507 O518 1.996 . S
Fe507 O522 1.976 . S
Fe507 O525 2.002 . S
O508 Fe506 1.918 . S
O508 Fe507 1.918 . S
O508 Fe509 1.918 . S
Fe509 O508 1.918 . S
Fe509 O510 2.002 . S
Fe509 O519 1.976 . S
Fe509 O523 1.996 . S
Fe509 O526 1.997 . S
O510 Fe509 2.002 . S
O510 C527 1.295 . S
O511 Fe506 1.997 . S
O511 C527 1.235 . S
O512 Fe506 2.002 1_554 S
O512 C513 1.295 . S
C513 O512 1.295 . S
C513 O515 1.235 . S
C514 O519 1.287 . S
C514 O520 1.255 . S
O515 Fe507 1.997 1_554 S
O515 C513 1.235 . S
C516 O522 1.287 . S
C516 O523 1.255 . S
O517 Fe506 1.976 . S
O517 C524 1.287 . S
O518 Fe507 1.996 . S
O518 C524 1.255 . S
O519 Fe509 1.976 . S
O519 C514 1.287 . S
O520 Fe506 1.996 . S
O520 C514 1.255 . S
C521 O525 1.295 . S
C521 O526 1.235 . S
O522 Fe507 1.976 . S
O522 C516 1.287 . S
O523 Fe509 1.996 . S
O523 C516 1.255 . S
C524 O517 1.287 . S
C524 O518 1.255 . S
O525 Fe507 2.002 . S
O525 C521 1.295 . S
O526 Fe509 1.997 . S
O526 C521 1.235 . S
C527 O510 1.295 . S
C527 O511 1.235 . S
Fe528 O530 1.918 . S
Fe528 O533 1.997 . S
Fe528 O534 2.002 . S
Fe528 O539 1.976 . S
Fe528 O542 1.996 . S
Fe529 O530 1.918 . S
Fe529 O537 1.997 . S
Fe529 O540 1.996 . S
Fe529 O544 1.976 . S
Fe529 O547 2.002 . S
O530 Fe528 1.918 . S
O530 Fe529 1.918 . S
O530 Fe531 1.918 . S
Fe531 O530 1.918 . S
Fe531 O532 2.002 . S
Fe531 O541 1.976 . S
Fe531 O545 1.996 . S
Fe531 O548 1.997 . S
O532 Fe531 2.002 . S
O532 C549 1.295 . S
O533 Fe528 1.997 . S
O533 C549 1.235 . S
O534 Fe528 2.002 . S
O534 C535 1.295 . S
C535 O534 1.295 . S
C535 O537 1.235 . S
C536 O541 1.287 . S
C536 O542 1.255 . S
O537 Fe529 1.997 . S
O537 C535 1.235 . S
C538 O544 1.287 . S
C538 O545 1.255 . S
O539 Fe528 1.976 . S
O539 C546 1.287 . S
O540 Fe529 1.996 . S
O540 C546 1.255 . S
O541 Fe531 1.976 . S
O541 C536 1.287 . S
O542 Fe528 1.996 . S
O542 C536 1.255 . S
C543 O547 1.295 . S
C543 O548 1.235 . S
O544 Fe529 1.976 . S
O544 C538 1.287 . S
O545 Fe531 1.996 . S
O545 C538 1.255 . S
C546 O539 1.287 . S
C546 O540 1.255 . S
O547 Fe529 2.002 . S
O547 C543 1.295 . S
O548 Fe531 1.997 . S
O548 C543 1.235 . S
C549 O532 1.295 . S
C549 O533 1.235 . S
Fe550 O552 1.918 . S
Fe550 O555 1.997 . S
Fe550 O556 2.002 . S
Fe550 O561 1.976 . S
Fe550 O564 1.996 . S
Fe551 O552 1.918 . S
Fe551 O559 1.997 . S
Fe551 O562 1.996 . S
Fe551 O566 1.976 . S
Fe551 O569 2.002 . S
O552 Fe550 1.918 . S
O552 Fe551 1.918 . S
O552 Fe553 1.918 . S
Fe553 O552 1.918 . S
Fe553 O554 2.002 . S
Fe553 O563 1.976 . S
Fe553 O567 1.996 . S
Fe553 O570 1.997 . S
O554 Fe553 2.002 . S
O554 C571 1.295 . S
O555 Fe550 1.997 . S
O555 C571 1.235 . S
O556 Fe550 2.002 . S
O556 C557 1.295 . S
C557 O556 1.295 . S
C557 O559 1.235 . S
C558 O563 1.287 . S
C558 O564 1.255 . S
O559 Fe551 1.997 . S
O559 C557 1.235 . S
C560 O566 1.287 . S
C560 O567 1.255 . S
O561 Fe550 1.976 . S
O561 C568 1.287 . S
O562 Fe551 1.996 . S
O562 C568 1.255 . S
O563 Fe553 1.976 . S
O563 C558 1.287 . S
O564 Fe550 1.996 . S
O564 C558 1.255 . S
C565 O569 1.295 . S
C565 O570 1.235 . S
O566 Fe551 1.976 . S
O566 C560 1.287 . S
O567 Fe553 1.996 . S
O567 C560 1.255 . S
C568 O561 1.287 . S
C568 O562 1.255 . S
O569 Fe551 2.002 . S
O569 C565 1.295 . S
O570 Fe553 1.997 . S
O570 C565 1.235 . S
C571 O554 1.295 . S
C571 O555 1.235 . S
Fe572 O574 1.918 . S
Fe572 O577 1.997 . S
Fe572 O578 2.002 . S
Fe572 O583 1.976 . S
Fe572 O586 1.996 . S
Fe573 O574 1.918 . S
Fe573 O581 1.997 . S
Fe573 O584 1.996 . S
Fe573 O588 1.976 . S
Fe573 O591 2.002 . S
O574 Fe572 1.918 . S
O574 Fe573 1.918 . S
O574 Fe575 1.918 . S
Fe575 O574 1.918 . S
Fe575 O576 2.002 . S
Fe575 O585 1.976 . S
Fe575 O589 1.996 . S
Fe575 O592 1.997 . S
O576 Fe575 2.002 . S
O576 C593 1.295 . S
O577 Fe572 1.997 . S
O577 C593 1.235 . S
O578 Fe572 2.002 . S
O578 C579 1.295 . S
C579 O578 1.295 . S
C579 O581 1.235 . S
C580 O585 1.287 . S
C580 O586 1.255 . S
O581 Fe573 1.997 . S
O581 C579 1.235 . S
C582 O588 1.287 . S
C582 O589 1.255 . S
O583 Fe572 1.976 . S
O583 C590 1.287 . S
O584 Fe573 1.996 . S
O584 C590 1.255 . S
O585 Fe575 1.976 . S
O585 C580 1.287 . S
O586 Fe572 1.996 . S
O586 C580 1.255 . S
C587 O591 1.295 . S
C587 O592 1.235 . S
O588 Fe573 1.976 . S
O588 C582 1.287 . S
O589 Fe575 1.996 . S
O589 C582 1.255 . S
C590 O583 1.287 . S
C590 O584 1.255 . S
O591 Fe573 2.002 . S
O591 C587 1.295 . S
O592 Fe575 1.997 . S
O592 C587 1.235 . S
C593 O576 1.295 . S
C593 O577 1.235 . S
Fe594 O596 1.918 . S
Fe594 O599 1.997 1_554 S
Fe594 O600 2.002 . S
Fe594 O605 1.976 . S
Fe594 O608 1.996 . S
Fe595 O596 1.918 . S
Fe595 O603 1.997 . S
Fe595 O606 1.996 . S
Fe595 O610 1.976 . S
Fe595 O613 2.002 . S
O596 Fe594 1.918 . S
O596 Fe595 1.918 . S
O596 Fe597 1.918 . S
Fe597 O596 1.918 . S
Fe597 O598 2.002 1_554 S
Fe597 O607 1.976 . S
Fe597 O611 1.996 . S
Fe597 O614 1.997 . S
O598 Fe597 2.002 1_556 S
O598 C615 1.295 . S
O599 Fe594 1.997 1_556 S
O599 C615 1.235 . S
O600 Fe594 2.002 . S
O600 C601 1.295 . S
C601 O600 1.295 . S
C601 O603 1.235 . S
C602 O607 1.287 . S
C602 O608 1.255 . S
O603 Fe595 1.997 . S
O603 C601 1.235 . S
C604 O610 1.287 . S
C604 O611 1.255 . S
O605 Fe594 1.976 . S
O605 C612 1.287 . S
O606 Fe595 1.996 . S
O606 C612 1.255 . S
O607 Fe597 1.976 . S
O607 C602 1.287 . S
O608 Fe594 1.996 . S
O608 C602 1.255 . S
C609 O613 1.295 . S
C609 O614 1.235 . S
O610 Fe595 1.976 . S
O610 C604 1.287 . S
O611 Fe597 1.996 . S
O611 C604 1.255 . S
C612 O605 1.287 . S
C612 O606 1.255 . S
O613 Fe595 2.002 . S
O613 C609 1.295 . S
O614 Fe597 1.997 . S
O614 C609 1.235 . S
C615 O598 1.295 . S
C615 O599 1.235 . S
Fe616 O618 1.918 . S
Fe616 O621 1.997 . S
Fe616 O622 2.002 1_554 S
Fe616 O627 1.976 . S
Fe616 O630 1.996 . S
Fe617 O618 1.918 . S
Fe617 O625 1.997 1_554 S
Fe617 O628 1.996 . S
Fe617 O632 1.976 . S
Fe617 O635 2.002 . S
O618 Fe616 1.918 . S
O618 Fe617 1.918 . S
O618 Fe619 1.918 . S
Fe619 O618 1.918 . S
Fe619 O620 2.002 . S
Fe619 O629 1.976 . S
Fe619 O633 1.996 . S
Fe619 O636 1.997 . S
O620 Fe619 2.002 . S
O620 C637 1.295 . S
O621 Fe616 1.997 . S
O621 C637 1.235 . S
O622 Fe616 2.002 1_556 S
O622 C623 1.295 . S
C623 O622 1.295 . S
C623 O625 1.235 . S
C624 O629 1.287 . S
C624 O630 1.255 . S
O625 Fe617 1.997 1_556 S
O625 C623 1.235 . S
C626 O632 1.287 . S
C626 O633 1.255 . S
O627 Fe616 1.976 . S
O627 C634 1.287 . S
O628 Fe617 1.996 . S
O628 C634 1.255 . S
O629 Fe619 1.976 . S
O629 C624 1.287 . S
O630 Fe616 1.996 . S
O630 C624 1.255 . S
C631 O635 1.295 . S
C631 O636 1.235 . S
O632 Fe617 1.976 . S
O632 C626 1.287 . S
O633 Fe619 1.996 . S
O633 C626 1.255 . S
C634 O627 1.287 . S
C634 O628 1.255 . S
O635 Fe617 2.002 . S
O635 C631 1.295 . S
O636 Fe619 1.997 . S
O636 C631 1.235 . S
C637 O620 1.295 . S
C637 O621 1.235 . S
Fe638 O640 1.918 . S
Fe638 O643 1.997 . S
Fe638 O644 2.002 1_554 S
Fe638 O649 1.976 . S
Fe638 O652 1.996 . S
Fe639 O640 1.918 . S
Fe639 O647 1.997 1_554 S
Fe639 O650 1.996 . S
Fe639 O654 1.976 . S
Fe639 O657 2.002 . S
O640 Fe638 1.918 . S
O640 Fe639 1.918 . S
O640 Fe641 1.918 . S
Fe641 O640 1.918 . S
Fe641 O642 2.002 . S
Fe641 O651 1.976 . S
Fe641 O655 1.996 . S
Fe641 O658 1.997 . S
O642 Fe641 2.002 . S
O642 C659 1.295 . S
O643 Fe638 1.997 . S
O643 C659 1.235 . S
O644 Fe638 2.002 1_556 S
O644 C645 1.295 . S
C645 O644 1.295 . S
C645 O647 1.235 . S
C646 O651 1.287 . S
C646 O652 1.255 . S
O647 Fe639 1.997 1_556 S
O647 C645 1.235 . S
C648 O654 1.287 . S
C648 O655 1.255 . S
O649 Fe638 1.976 . S
O649 C656 1.287 . S
O650 Fe639 1.996 . S
O650 C656 1.255 . S
O651 Fe641 1.976 . S
O651 C646 1.287 . S
O652 Fe638 1.996 . S
O652 C646 1.255 . S
C653 O657 1.295 . S
C653 O658 1.235 . S
O654 Fe639 1.976 . S
O654 C648 1.287 . S
O655 Fe641 1.996 . S
O655 C648 1.255 . S
C656 O649 1.287 . S
C656 O650 1.255 . S
O657 Fe639 2.002 . S
O657 C653 1.295 . S
O658 Fe641 1.997 . S
O658 C653 1.235 . S
C659 O642 1.295 . S
C659 O643 1.235 . S
Fe660 O662 1.918 . S
Fe660 O665 1.997 . S
Fe660 O666 2.002 . S
Fe660 O671 1.976 . S
Fe660 O674 1.996 . S
Fe661 O662 1.918 . S
Fe661 O669 1.997 . S
Fe661 O672 1.996 . S
Fe661 O676 1.976 . S
Fe661 O679 2.002 . S
O662 Fe660 1.918 . S
O662 Fe661 1.918 . S
O662 Fe663 1.918 . S
Fe663 O662 1.918 . S
Fe663 O664 2.002 . S
Fe663 O673 1.976 . S
Fe663 O677 1.996 . S
Fe663 O680 1.997 . S
O664 Fe663 2.002 . S
O664 C681 1.295 . S
O665 Fe660 1.997 . S
O665 C681 1.235 . S
O666 Fe660 2.002 . S
O666 C667 1.295 . S
C667 O666 1.295 . S
C667 O669 1.235 . S
C668 O673 1.287 . S
C668 O674 1.255 . S
O669 Fe661 1.997 . S
O669 C667 1.235 . S
C670 O676 1.287 . S
C670 O677 1.255 . S
O671 Fe660 1.976 . S
O671 C678 1.287 . S
O672 Fe661 1.996 . S
O672 C678 1.255 . S
O673 Fe663 1.976 . S
O673 C668 1.287 . S
O674 Fe660 1.996 . S
O674 C668 1.255 . S
C675 O679 1.295 . S
C675 O680 1.235 . S
O676 Fe661 1.976 . S
O676 C670 1.287 . S
O677 Fe663 1.996 . S
O677 C670 1.255 . S
C678 O671 1.287 . S
C678 O672 1.255 . S
O679 Fe661 2.002 . S
O679 C675 1.295 . S
O680 Fe663 1.997 . S
O680 C675 1.235 . S
C681 O664 1.295 . S
C681 O665 1.235 . S
Fe682 O684 1.918 . S
Fe682 O687 1.997 . S
Fe682 O688 2.002 . S
Fe682 O693 1.976 . S
Fe682 O696 1.996 . S
Fe683 O684 1.918 . S
Fe683 O691 1.997 . S
Fe683 O694 1.996 . S
Fe683 O698 1.976 . S
Fe683 O701 2.002 . S
O684 Fe682 1.918 . S
O684 Fe683 1.918 . S
O684 Fe685 1.918 . S
Fe685 O684 1.918 . S
Fe685 O686 2.002 . S
Fe685 O695 1.976 . S
Fe685 O699 1.996 . S
Fe685 O702 1.997 . S
O686 Fe685 2.002 . S
O686 C703 1.295 . S
O687 Fe682 1.997 . S
O687 C703 1.235 . S
O688 Fe682 2.002 . S
O688 C689 1.295 . S
C689 O688 1.295 . S
C689 O691 1.235 . S
C690 O695 1.287 . S
C690 O696 1.255 . S
O691 Fe683 1.997 . S
O691 C689 1.235 . S
C692 O698 1.287 . S
C692 O699 1.255 . S
O693 Fe682 1.976 . S
O693 C700 1.287 . S
O694 Fe683 1.996 . S
O694 C700 1.255 . S
O695 Fe685 1.976 . S
O695 C690 1.287 . S
O696 Fe682 1.996 . S
O696 C690 1.255 . S
C697 O701 1.295 . S
C697 O702 1.235 . S
O698 Fe683 1.976 . S
O698 C692 1.287 . S
O699 Fe685 1.996 . S
O699 C692 1.255 . S
C700 O693 1.287 . S
C700 O694 1.255 . S
O701 Fe683 2.002 . S
O701 C697 1.295 . S
O702 Fe685 1.997 . S
O702 C697 1.235 . S
C703 O686 1.295 . S
C703 O687 1.235 . S
Fe704 O706 1.918 . S
Fe704 O709 1.997 . S
Fe704 O710 2.002 . S
Fe704 O715 1.976 . S
Fe704 O718 1.996 . S
Fe705 O706 1.918 . S
Fe705 O713 1.997 . S
Fe705 O716 1.996 . S
Fe705 O720 1.976 . S
Fe705 O723 2.002 . S
O706 Fe704 1.918 . S
O706 Fe705 1.918 . S
O706 Fe707 1.918 . S
Fe707 O706 1.918 . S
Fe707 O708 2.002 . S
Fe707 O717 1.976 . S
Fe707 O721 1.996 . S
Fe707 O724 1.997 . S
O708 Fe707 2.002 . S
O708 C725 1.295 . S
O709 Fe704 1.997 . S
O709 C725 1.235 . S
O710 Fe704 2.002 . S
O710 C711 1.295 . S
C711 O710 1.295 . S
C711 O713 1.235 . S
C712 O717 1.287 . S
C712 O718 1.255 . S
O713 Fe705 1.997 . S
O713 C711 1.235 . S
C714 O720 1.287 . S
C714 O721 1.255 . S
O715 Fe704 1.976 . S
O715 C722 1.287 . S
O716 Fe705 1.996 . S
O716 C722 1.255 . S
O717 Fe707 1.976 . S
O717 C712 1.287 . S
O718 Fe704 1.996 . S
O718 C712 1.255 . S
C719 O723 1.295 . S
C719 O724 1.235 . S
O720 Fe705 1.976 . S
O720 C714 1.287 . S
O721 Fe707 1.996 . S
O721 C714 1.255 . S
C722 O715 1.287 . S
C722 O716 1.255 . S
O723 Fe705 2.002 . S
O723 C719 1.295 . S
O724 Fe707 1.997 . S
O724 C719 1.235 . S
C725 O708 1.295 . S
C725 O709 1.235 . S
Fe726 O728 1.918 . S
Fe726 O731 1.997 . S
Fe726 O732 2.002 . S
Fe726 O737 1.976 . S
Fe726 O740 1.996 . S
Fe727 O728 1.918 . S
Fe727 O735 1.997 . S
Fe727 O738 1.996 . S
Fe727 O742 1.976 . S
Fe727 O745 2.002 . S
O728 Fe726 1.918 . S
O728 Fe727 1.918 . S
O728 Fe729 1.918 . S
Fe729 O728 1.918 . S
Fe729 O730 2.002 . S
Fe729 O739 1.976 . S
Fe729 O743 1.996 . S
Fe729 O746 1.997 . S
O730 Fe729 2.002 . S
O730 C747 1.295 . S
O731 Fe726 1.997 . S
O731 C747 1.235 . S
O732 Fe726 2.002 . S
O732 C733 1.295 . S
C733 O732 1.295 . S
C733 O735 1.235 . S
C734 O739 1.287 . S
C734 O740 1.255 . S
O735 Fe727 1.997 . S
O735 C733 1.235 . S
C736 O742 1.287 . S
C736 O743 1.255 . S
O737 Fe726 1.976 . S
O737 C744 1.287 . S
O738 Fe727 1.996 . S
O738 C744 1.255 . S
O739 Fe729 1.976 . S
O739 C734 1.287 . S
O740 Fe726 1.996 . S
O740 C734 1.255 . S
C741 O745 1.295 . S
C741 O746 1.235 . S
O742 Fe727 1.976 . S
O742 C736 1.287 . S
O743 Fe729 1.996 . S
O743 C736 1.255 . S
C744 O737 1.287 . S
C744 O738 1.255 . S
O745 Fe727 2.002 . S
O745 C741 1.295 . S
O746 Fe729 1.997 . S
O746 C741 1.235 . S
C747 O730 1.295 . S
C747 O731 1.235 . S
Fe748 O750 1.918 . S
Fe748 O753 1.997 . S
Fe748 O754 2.002 . S
Fe748 O759 1.976 . S
Fe748 O762 1.996 . S
Fe749 O750 1.918 . S
Fe749 O757 1.997 . S
Fe749 O760 1.996 . S
Fe749 O764 1.976 . S
Fe749 O767 2.002 . S
O750 Fe748 1.918 . S
O750 Fe749 1.918 . S
O750 Fe751 1.918 . S
Fe751 O750 1.918 . S
Fe751 O752 2.002 . S
Fe751 O761 1.976 . S
Fe751 O765 1.996 . S
Fe751 O768 1.997 . S
O752 Fe751 2.002 . S
O752 C769 1.295 . S
O753 Fe748 1.997 . S
O753 C769 1.235 . S
O754 Fe748 2.002 . S
O754 C755 1.295 . S
C755 O754 1.295 . S
C755 O757 1.235 . S
C756 O761 1.287 . S
C756 O762 1.255 . S
O757 Fe749 1.997 . S
O757 C755 1.235 . S
C758 O764 1.287 . S
C758 O765 1.255 . S
O759 Fe748 1.976 . S
O759 C766 1.287 . S
O760 Fe749 1.996 . S
O760 C766 1.255 . S
O761 Fe751 1.976 . S
O761 C756 1.287 . S
O762 Fe748 1.996 . S
O762 C756 1.255 . S
C763 O767 1.295 . S
C763 O768 1.235 . S
O764 Fe749 1.976 . S
O764 C758 1.287 . S
O765 Fe751 1.996 . S
O765 C758 1.255 . S
C766 O759 1.287 . S
C766 O760 1.255 . S
O767 Fe749 2.002 . S
O767 C763 1.295 . S
O768 Fe751 1.997 . S
O768 C763 1.235 . S
C769 O752 1.295 . S
C769 O753 1.235 . S
Fe770 O772 1.918 . S
Fe770 O775 1.997 . S
Fe770 O776 2.002 . S
Fe770 O781 1.976 . S
Fe770 O784 1.996 . S
Fe771 O772 1.918 . S
Fe771 O779 1.997 . S
Fe771 O782 1.996 . S
Fe771 O786 1.976 . S
Fe771 O789 2.002 . S
O772 Fe770 1.918 . S
O772 Fe771 1.918 . S
O772 Fe773 1.918 . S
Fe773 O772 1.918 . S
Fe773 O774 2.002 . S
Fe773 O783 1.976 . S
Fe773 O787 1.996 . S
Fe773 O790 1.997 . S
O774 Fe773 2.002 . S
O774 C791 1.295 . S
O775 Fe770 1.997 . S
O775 C791 1.235 . S
O776 Fe770 2.002 . S
O776 C777 1.295 . S
C777 O776 1.295 . S
C777 O779 1.235 . S
C778 O783 1.287 . S
C778 O784 1.255 . S
O779 Fe771 1.997 . S
O779 C777 1.235 . S
C780 O786 1.287 . S
C780 O787 1.255 . S
O781 Fe770 1.976 . S
O781 C788 1.287 . S
O782 Fe771 1.996 . S
O782 C788 1.255 . S
O783 Fe773 1.976 . S
O783 C778 1.287 . S
O784 Fe770 1.996 . S
O784 C778 1.255 . S
C785 O789 1.295 . S
C785 O790 1.235 . S
O786 Fe771 1.976 . S
O786 C780 1.287 . S
O787 Fe773 1.996 . S
O787 C780 1.255 . S
C788 O781 1.287 . S
C788 O782 1.255 . S
O789 Fe771 2.002 . S
O789 C785 1.295 . S
O790 Fe773 1.997 . S
O790 C785 1.235 . S
C791 O774 1.295 . S
C791 O775 1.235 . S
C8 C172 1.288 1_554 S
C30 C184 1.288 1_554 S
C62 C150 1.288 1_554 S
C74 C252 1.288 . S
C208 C96 1.288 . S
C230 C120 1.288 . S
C40 C140 1.288 1_554 S
C162 C54 1.288 1_556 S
C186 C18 1.288 1_556 S
C118 C216 1.288 . S
C238 C84 1.288 . S
C260 C106 1.288 . S
C274 C436 1.288 . S
C294 C458 1.288 . S
C414 C316 1.288 . S
C514 C338 1.288 . S
C470 C362 1.288 . S
C382 C492 1.288 . S
C304 C404 1.288 . S
C326 C426 1.288 . S
C272 C448 1.288 . S
C392 C472 1.288 . S
C494 C348 1.288 . S
C360 C516 1.288 . S
C536 C690 1.288 . S
C722 C560 1.288 . S
C580 C668 1.288 . S
C612 C780 1.288 . S
C734 C626 1.288 . S
C758 C648 1.288 . S
C670 C558 1.288 . S
C692 C590 1.288 . S
C712 C546 1.288 . S
C646 C736 1.288 . S
C604 C766 1.288 . S
C624 C788 1.288 . S
C21 C59 1.439 . S
C43 C7 1.439 1_565 S
C29 C51 1.439 1_655 S
C95 C87 1.439 . S
C109 C131 1.439 1_545 S
C73 C125 1.439 1_455 S
C153 C197 1.439 . S
C175 C139 1.439 1_545 S
C191 C161 1.439 1_655 S
C235 C205 1.439 . S
C227 C257 1.439 1_565 S
C213 C249 1.439 1_655 S
C315 C279 1.439 . S
C307 C285 1.439 . S
C329 C293 1.439 . S
C351 C373 1.439 . S
C381 C367 1.439 . S
C395 C337 1.439 . S
C417 C447 1.439 . S
C439 C403 1.439 . S
C425 C461 1.439 . S
C505 C477 1.439 . S
C499 C527 1.439 . S
C521 C483 1.439 . S
C579 C549 1.439 . S
C565 C535 1.439 . S
C593 C571 1.439 . S
C637 C601 1.439 . S
C631 C659 1.439 . S
C653 C609 1.439 . S
C675 C711 1.439 . S
C697 C681 1.439 . S
C703 C725 1.439 . S
C763 C741 1.439 . S
C785 C755 1.439 . S
C747 C777 1.439 . S
C103 C15 1.820 1_655 S
C117 C37 1.820 . S
C81 C65 1.820 1_545 S
C241 C147 1.820 1_455 S
C263 C169 1.820 . S
C183 C219 1.820 1_545 S
C359 C271 1.820 . S
C389 C301 1.820 . S
C323 C345 1.820 . S
C491 C411 1.820 . S
C433 C513 1.820 . S
C469 C455 1.820 . S
C543 C623 1.820 . S
C645 C557 1.820 . S
C615 C587 1.820 . S
C769 C667 1.820 . S
C791 C689 1.820 . S
C733 C719 1.820 . S
C656 C10 2.007 . S
C32 C602 2.007 . S
C52 C634 2.007 . S
C76 C296 2.007 . S
C98 C318 2.007 . S
C128 C282 2.007 . S
C524 C142 2.007 . S
C480 C164 2.007 . S
C502 C194 2.007 . S
C206 C700 2.007 . S
C228 C714 2.007 . S
C678 C250 2.007 . S
C568 C340 2.007 1_455 S
C582 C370 2.007 . S
C384 C538 2.007 1_545 S
C406 C778 2.007 1_545 S
C744 C428 2.007 1_455 S
C756 C450 2.007 . S
