# Generated by pormake.
# Topology wgw, (6)-cn, num edge types: 1
# Building blocks:
#     Node 0, Type 0, BuildingBlock: IZENUY_clean_sbu_0, # of connection points: 6
#     Node 1, Type 0, BuildingBlock: IZENUY_clean_sbu_0, # of connection points: 6
#     Node 2, Type 0, BuildingBlock: IZENUY_clean_sbu_0, # of connection points: 6
#     Node 3, Type 0, BuildingBlock: IZENUY_clean_sbu_0, # of connection points: 6
#     Node 4, Type 0, BuildingBlock: IZENUY_clean_sbu_0, # of connection points: 6
#     Node 5, Type 0, BuildingBlock: IZENUY_clean_sbu_0, # of connection points: 6
#     Node 6, Type 0, BuildingBlock: IZENUY_clean_sbu_0, # of connection points: 6
#     Node 7, Type 0, BuildingBlock: IZENUY_clean_sbu_0, # of connection points: 6
#     Edge 8, Type (0, 0), BuildingBlock: EYOCIG_clean_linker_4, # of connection points: 2
#     Edge 9, Type (0, 0), BuildingBlock: EYOCIG_clean_linker_4, # of connection points: 2
#     Edge 10, Type (0, 0), BuildingBlock: EYOCIG_clean_linker_4, # of connection points: 2
#     Edge 11, Type (0, 0), BuildingBlock: EYOCIG_clean_linker_4, # of connection points: 2
#     Edge 12, Type (0, 0), BuildingBlock: EYOCIG_clean_linker_4, # of connection points: 2
#     Edge 13, Type (0, 0), BuildingBlock: EYOCIG_clean_linker_4, # of connection points: 2
#     Edge 14, Type (0, 0), BuildingBlock: EYOCIG_clean_linker_4, # of connection points: 2
#     Edge 15, Type (0, 0), BuildingBlock: EYOCIG_clean_linker_4, # of connection points: 2
#     Edge 16, Type (0, 0), BuildingBlock: EYOCIG_clean_linker_4, # of connection points: 2
#     Edge 17, Type (0, 0), BuildingBlock: EYOCIG_clean_linker_4, # of connection points: 2
#     Edge 18, Type (0, 0), BuildingBlock: EYOCIG_clean_linker_4, # of connection points: 2
#     Edge 19, Type (0, 0), BuildingBlock: EYOCIG_clean_linker_4, # of connection points: 2
#     Edge 20, Type (0, 0), BuildingBlock: EYOCIG_clean_linker_4, # of connection points: 2
#     Edge 21, Type (0, 0), BuildingBlock: EYOCIG_clean_linker_4, # of connection points: 2
#     Edge 22, Type (0, 0), BuildingBlock: EYOCIG_clean_linker_4, # of connection points: 2
#     Edge 23, Type (0, 0), BuildingBlock: EYOCIG_clean_linker_4, # of connection points: 2
#     Edge 24, Type (0, 0), BuildingBlock: EYOCIG_clean_linker_4, # of connection points: 2
#     Edge 25, Type (0, 0), BuildingBlock: EYOCIG_clean_linker_4, # of connection points: 2
#     Edge 26, Type (0, 0), BuildingBlock: EYOCIG_clean_linker_4, # of connection points: 2
#     Edge 27, Type (0, 0), BuildingBlock: EYOCIG_clean_linker_4, # of connection points: 2
#     Edge 28, Type (0, 0), BuildingBlock: EYOCIG_clean_linker_4, # of connection points: 2
#     Edge 29, Type (0, 0), BuildingBlock: EYOCIG_clean_linker_4, # of connection points: 2
#     Edge 30, Type (0, 0), BuildingBlock: EYOCIG_clean_linker_4, # of connection points: 2
#     Edge 31, Type (0, 0), BuildingBlock: EYOCIG_clean_linker_4, # of connection points: 2
# Relax obj value: 0.277
# Max RMSD: 0.289
# Mean RMSD: 0.289
data_MOF--net-wgw--node1-IZENUY_clean_sbu_0--edge1-EYOCIG_clean_linker_4
_symmetry_space_group_name_H-M    P1
_symmetry_Int_Tables_number       1
_symmetry_cell_setting            triclinic
loop_
_symmetry_equiv_pos_as_xyz
'x, y, z'
_cell_length_a     21.927214
_cell_length_b     21.933889
_cell_length_c     35.115125
_cell_angle_alpha  90.042201
_cell_angle_beta   89.999453
_cell_angle_gamma 90.015485
loop_
_atom_site_label
_atom_site_type_symbol
_atom_site_fract_x
_atom_site_fract_y
_atom_site_fract_z
_atom_type_partial_charge
Fe0 Fe 0.02343 0.39545 0.15952 0.0
Fe1 Fe 0.12531 0.49666 0.15937 0.0
O2 O 0.06516 0.45547 0.18413 0.0
Fe3 Fe 0.04693 0.47403 0.23357 0.0
O4 O 0.04481 0.39697 0.25023 0.0
O5 O 0.02107 0.34394 0.19933 0.0
O6 O 0.09343 0.35499 0.14452 0.0
C7 C 0.14874 0.37091 0.14025 0.0
C8 C 0.93109 0.45678 0.20066 0.0
O9 O 0.16502 0.42621 0.14421 0.0
C10 C 0.06466 0.58969 0.20055 0.0
O11 O 0.01528 0.43452 0.11438 0.0
O12 O 0.08561 0.50506 0.11431 0.0
O13 O 0.96631 0.47532 0.22614 0.0
O14 O 0.94873 0.42693 0.17194 0.0
C15 C 0.17301 0.48918 0.23414 0.0
O16 O 0.0946 0.57176 0.17191 0.0
O17 O 0.04575 0.55462 0.22597 0.0
C18 C 0.04201 0.47808 0.0987 0.0
O19 O 0.17734 0.49851 0.19911 0.0
O20 O 0.12401 0.47611 0.25011 0.0
C21 C 0.03089 0.34815 0.23428 0.0
Fe22 Fe 0.02364 0.12484 0.65901 0.0
Fe23 Fe 0.0462 0.04644 0.73325 0.0
O24 O 0.06506 0.06493 0.68388 0.0
Fe25 Fe 0.12559 0.02375 0.65945 0.0
O26 O 0.16559 0.0939 0.64447 0.0
O27 O 0.09385 0.1648 0.64354 0.0
O28 O 0.02227 0.17703 0.69867 0.0
C29 C 0.03184 0.1728 0.73369 0.0
C30 C 0.04273 0.04147 0.59852 0.0
O31 O 0.044 0.12364 0.74978 0.0
C32 C 0.06493 0.93072 0.70037 0.0
O33 O 0.9485 0.09409 0.67165 0.0
O34 O 0.96561 0.04496 0.72555 0.0
O35 O 0.08665 0.01529 0.61422 0.0
O36 O 0.01516 0.0847 0.61413 0.0
C37 C 0.17225 0.03105 0.73439 0.0
O38 O 0.04522 0.96573 0.72566 0.0
O39 O 0.09492 0.94879 0.67184 0.0
C40 C 0.93054 0.0638 0.70012 0.0
O41 O 0.12314 0.04435 0.7502 0.0
O42 O 0.17695 0.02197 0.69938 0.0
C43 C 0.14929 0.14893 0.63975 0.0
Fe44 Fe 0.4741 0.04577 0.23337 0.0
Fe45 Fe 0.49597 0.12561 0.15976 0.0
O46 O 0.45536 0.06461 0.18404 0.0
Fe47 Fe 0.39573 0.0228 0.1591 0.0
O48 O 0.34332 0.02206 0.19854 0.0
O49 O 0.39687 0.04297 0.24981 0.0
O50 O 0.47542 0.12253 0.25049 0.0
C51 C 0.48827 0.17183 0.23489 0.0
C52 C 0.45655 0.9301 0.20051 0.0
O53 O 0.49817 0.17664 0.19997 0.0
C54 C 0.47882 0.04243 0.09872 0.0
O55 O 0.5549 0.04534 0.22561 0.0
O56 O 0.5712 0.09467 0.17158 0.0
O57 O 0.42607 0.94784 0.17212 0.0
O58 O 0.47608 0.96532 0.22564 0.0
C59 C 0.37061 0.14836 0.14025 0.0
O60 O 0.50376 0.08739 0.11417 0.0
O61 O 0.43656 0.01376 0.11455 0.0
C62 C 0.58961 0.06449 0.19998 0.0
O63 O 0.42531 0.16545 0.14553 0.0
O64 O 0.35566 0.09256 0.14314 0.0
C65 C 0.34764 0.03134 0.23358 0.0
Fe66 Fe 0.39525 0.49597 0.65956 0.0
Fe67 Fe 0.49718 0.39485 0.65924 0.0
O68 O 0.45572 0.4548 0.68405 0.0
Fe69 Fe 0.47437 0.47331 0.73346 0.0
O70 O 0.39736 0.47484 0.75025 0.0
O71 O 0.34368 0.49731 0.69942 0.0
O72 O 0.35539 0.42577 0.64436 0.0
C73 C 0.3717 0.37065 0.63986 0.0
C74 C 0.45589 0.58898 0.70072 0.0
O75 O 0.42706 0.35475 0.64392 0.0
C76 C 0.59004 0.45555 0.7005 0.0
O77 O 0.43434 0.5045 0.61439 0.0
O78 O 0.50544 0.43468 0.61428 0.0
O79 O 0.47516 0.5539 0.72602 0.0
O80 O 0.42589 0.57105 0.67212 0.0
C81 C 0.49012 0.34738 0.73399 0.0
O82 O 0.57215 0.42561 0.67187 0.0
O83 O 0.55494 0.47493 0.72578 0.0
C84 C 0.47798 0.47789 0.59863 0.0
O85 O 0.49907 0.34292 0.69893 0.0
O86 O 0.47704 0.39634 0.75 0.0
C87 C 0.34814 0.48736 0.73435 0.0
Fe88 Fe 0.6248 0.52268 0.35525 0.0
Fe89 Fe 0.54658 0.54561 0.28095 0.0
O90 O 0.56512 0.56433 0.33034 0.0
Fe91 Fe 0.52426 0.62503 0.35476 0.0
O92 O 0.5948 0.66487 0.36935 0.0
O93 O 0.66514 0.59259 0.37063 0.0
O94 O 0.67694 0.52106 0.31574 0.0
C95 C 0.67286 0.53059 0.28076 0.0
C96 C 0.54147 0.54199 0.4156 0.0
O97 O 0.62382 0.54287 0.26452 0.0
C98 C 0.43091 0.56418 0.31411 0.0
O99 O 0.5938 0.44788 0.34264 0.0
O100 O 0.54459 0.46495 0.28873 0.0
O101 O 0.51591 0.58638 0.40004 0.0
O102 O 0.58456 0.51425 0.40003 0.0
C103 C 0.5325 0.67186 0.27995 0.0
O104 O 0.46575 0.54515 0.28851 0.0
O105 O 0.44916 0.59419 0.34263 0.0
C106 C 0.5634 0.42994 0.31424 0.0
O107 O 0.54533 0.62266 0.26407 0.0
O108 O 0.52242 0.67629 0.31484 0.0
C109 C 0.64979 0.64821 0.37393 0.0
Fe110 Fe 0.99762 0.62465 0.85482 0.0
Fe111 Fe 0.9743 0.54655 0.78058 0.0
O112 O 0.95599 0.56484 0.83004 0.0
Fe113 Fe 0.8958 0.52353 0.85466 0.0
O114 O 0.85562 0.59393 0.86928 0.0
O115 O 0.9274 0.66505 0.86961 0.0
O116 O 1.00037 0.6764 0.8151 0.0
C117 C 0.99066 0.67237 0.78013 0.0
C118 C 0.97821 0.54204 0.91562 0.0
O119 O 0.97666 0.62367 0.76408 0.0
C120 C 0.95724 0.43081 0.81382 0.0
O121 O 0.07235 0.59301 0.84254 0.0
O122 O 0.05498 0.54504 0.78815 0.0
O123 O 0.93451 0.51554 0.89993 0.0
O124 O 1.00548 0.58531 0.89996 0.0
C125 C 0.84831 0.53134 0.78 0.0
O126 O 0.97524 0.46583 0.78807 0.0
O127 O 0.92738 0.44867 0.84251 0.0
C128 C 0.0901 0.56324 0.8138 0.0
O129 O 0.89714 0.54496 0.76399 0.0
O130 O 0.84433 0.52101 0.81487 0.0
C131 C 0.87192 0.6492 0.87333 0.0
Fe132 Fe 0.97372 0.97444 0.28058 0.0
Fe133 Fe 0.99716 0.89565 0.35449 0.0
O134 O 0.95532 0.95562 0.32994 0.0
Fe135 Fe 0.89484 0.99638 0.35467 0.0
O136 O 0.84288 0.99789 0.3149 0.0
O137 O 0.89671 0.97676 0.26389 0.0
O138 O 0.97556 0.89732 0.26381 0.0
C139 C 0.98871 0.84829 0.27976 0.0
C140 C 0.95492 0.08996 0.31371 0.0
O141 O 0.99919 0.84415 0.31464 0.0
C142 C 0.97827 0.97823 0.41535 0.0
O143 O 0.05437 0.9757 0.28806 0.0
O144 O 0.07187 0.92724 0.34215 0.0
O145 O 0.92489 0.07168 0.3422 0.0
O146 O 0.97487 0.05507 0.28844 0.0
C147 C 0.87195 0.87059 0.37362 0.0
O148 O 1.00527 0.9348 0.39965 0.0
O149 O 0.93453 1.00495 0.39973 0.0
C150 C 0.08955 0.95733 0.31358 0.0
O151 O 0.92734 0.85496 0.36949 0.0
O152 O 0.85546 0.92578 0.36969 0.0
C153 C 0.84751 0.98922 0.27982 0.0
Fe154 Fe 0.62559 0.99671 0.85436 0.0
Fe155 Fe 0.52396 0.89529 0.85525 0.0
O156 O 0.56486 0.95536 0.83019 0.0
Fe157 Fe 0.54558 0.97373 0.78089 0.0
O158 O 0.62254 0.97472 0.76371 0.0
O159 O 0.67652 0.99858 0.81418 0.0
O160 O 0.66604 0.92672 0.86893 0.0
C161 C 0.64988 0.87167 0.87361 0.0
C162 C 0.56462 0.08961 0.81374 0.0
O163 O 0.59437 0.85582 0.87052 0.0
C164 C 0.43021 0.95531 0.81423 0.0
O165 O 0.58716 1.00491 0.89977 0.0
O166 O 0.51542 0.93571 0.90004 0.0
O167 O 0.54541 0.05461 0.78828 0.0
O168 O 0.59446 0.07153 0.8423 0.0
C169 C 0.53084 0.8473 0.78073 0.0
O170 O 0.44858 0.92501 0.84257 0.0
O171 O 0.46505 0.9757 0.78908 0.0
C172 C 0.5432 0.97888 0.91557 0.0
O173 O 0.52272 0.84297 0.81584 0.0
O174 O 0.54225 0.89649 0.76444 0.0
C175 C 0.67188 0.98788 0.77934 0.0
C176 C 0.31952 0.53485 0.29634 0.0
C177 C 0.36776 0.55159 0.30864 0.0
C178 C 0.26765 0.51513 0.27655 0.0
C179 C 0.2239 0.50305 0.25758 0.0
C180 C 0.98905 0.32031 0.79572 0.0
C181 C 0.97123 0.36798 0.80831 0.0
C182 C 1.00877 0.26857 0.77577 0.0
C183 C 0.01952 0.2243 0.75695 0.0
C184 C 0.25159 1.00847 0.27528 0.0
C185 C 0.29603 0.01914 0.25666 0.0
C186 C 0.19989 0.98876 0.29515 0.0
C187 C 0.15233 0.97105 0.30788 0.0
C188 C 0.51716 0.25305 0.77613 0.0
C189 C 0.50456 0.29673 0.75733 0.0
C190 C 0.53676 0.20112 0.79573 0.0
C191 C 0.55279 0.15274 0.80803 0.0
C192 C 0.769 0.50663 0.23945 0.0
C193 C 0.72443 0.51786 0.25779 0.0
C194 C 0.82074 0.48689 0.21967 0.0
C195 C 0.8683 0.46976 0.20668 0.0
C196 C 0.03791 0.81927 0.71901 0.0
C197 C 0.05365 0.86756 0.7064 0.0
C198 C 0.01824 0.76723 0.73852 0.0
C199 C 1.00531 0.7232 0.75694 0.0
C200 C 0.70107 0.03512 0.21761 0.0
C201 C 0.65282 0.05192 0.20534 0.0
C202 C 0.75295 0.01532 0.23737 0.0
C203 C 0.79668 1.00318 0.25635 0.0
C204 C 0.48519 0.6996 0.71982 0.0
C205 C 0.46831 0.65193 0.7068 0.0
C206 C 0.50524 0.75135 0.73954 0.0
C207 C 0.51719 0.79584 0.75782 0.0
C208 C 0.75267 0.50493 0.73885 0.0
C209 C 0.79722 0.51742 0.75689 0.0
C210 C 0.70079 0.48452 0.71947 0.0
C211 C 0.65301 0.46779 0.70658 0.0
C212 C 0.03377 0.70018 0.21912 0.0
C213 C 0.05134 0.65256 0.20636 0.0
C214 C 0.01329 0.75214 0.23849 0.0
C215 C 1.00163 0.79694 0.25656 0.0
C216 C 0.81991 0.03191 0.71816 0.0
C217 C 0.86762 0.0499 0.70567 0.0
C218 C 0.76779 0.01154 0.73751 0.0
C219 C 0.72306 1.00028 0.7558 0.0
C220 C 0.487 0.8196 0.21922 0.0
C221 C 0.46956 0.86722 0.20644 0.0
C222 C 0.50749 0.76771 0.23859 0.0
C223 C 0.51934 0.72303 0.25669 0.0
C224 C 0.25245 0.51144 0.77612 0.0
C225 C 0.29694 0.50009 0.75769 0.0
C226 C 0.20057 0.53169 0.79563 0.0
C227 C 0.15289 0.54941 0.80819 0.0
C228 C 1.00286 0.25327 0.27574 0.0
C229 C 0.01607 0.29744 0.25753 0.0
C230 C 0.98253 0.20129 0.29509 0.0
C231 C 0.9664 0.15315 0.30777 0.0
C232 C 0.31865 0.98234 0.79564 0.0
C233 C 0.36692 0.96644 0.80827 0.0
C234 C 0.26667 1.00258 0.77622 0.0
C235 C 0.22271 0.01596 0.75782 0.0
C236 C 0.53239 0.31886 0.29685 0.0
C237 C 0.54983 0.367 0.3089 0.0
C238 C 0.51253 0.26672 0.27741 0.0
C239 C 0.50111 0.22263 0.25861 0.0
C240 C 0.23556 0.28281 0.1311 0.0
C241 C 0.19627 0.32291 0.13525 0.0
C242 C 0.28249 0.23512 0.13111 0.0
C243 C 0.3221 0.19535 0.13524 0.0
C244 C 0.23722 0.23577 0.63006 0.0
C245 C 0.19708 0.19659 0.63445 0.0
C246 C 0.28469 0.28293 0.63007 0.0
C247 C 0.32414 0.32279 0.63452 0.0
C248 C 0.785 0.78262 0.38249 0.0
C249 C 0.82455 0.82247 0.37846 0.0
C250 C 0.73779 0.73523 0.38254 0.0
C251 C 0.69806 0.69552 0.37864 0.0
C252 C 0.73721 0.78404 0.88187 0.0
C253 C 0.6976 0.82385 0.87812 0.0
C254 C 0.78445 0.73672 0.8818 0.0
C255 C 0.82427 0.69711 0.87795 0.0
C256 C 1.00346 0.51528 0.98762 0.0
C257 C 0.9921 0.52764 0.95477 0.0
C258 C 0.01512 0.50353 0.02672 0.0
C259 C 0.0275 0.49204 0.05955 0.0
C260 C 0.01716 0.01498 0.52648 0.0
C261 C 0.02894 0.02696 0.55934 0.0
C262 C 1.00508 1.00369 0.48736 0.0
C263 C 0.99263 0.9923 0.45452 0.0
C264 C 0.51781 1.00529 0.98765 0.0
C265 C 0.52962 0.99347 0.95477 0.0
C266 C 0.50586 0.01675 0.02677 0.0
C267 C 0.4935 0.02843 0.05959 0.0
C268 C 0.51385 0.51567 0.4873 0.0
C269 C 0.52637 0.52776 0.45459 0.0
C270 C 0.50243 0.50378 0.5264 0.0
C271 C 0.49142 0.49183 0.55935 0.0
loop_
_geom_bond_atom_site_label_1
_geom_bond_atom_site_label_2
_geom_bond_distance
_geom_bond_site_symmetry_2
_ccdc_geom_bond_type
Fe0 O2 1.918 . S
Fe0 O5 1.997 . S
Fe0 O6 2.002 . S
Fe0 O11 1.975 1_455 S
Fe0 O14 1.996 1_455 S
Fe1 O2 1.918 . S
Fe1 O9 1.997 . S
Fe1 O12 1.996 . S
Fe1 O16 1.976 . S
Fe1 O19 2.002 . S
O2 Fe0 1.918 . S
O2 Fe1 1.918 . S
O2 Fe3 1.918 . S
Fe3 O2 1.918 . S
Fe3 O4 2.002 . S
Fe3 O13 1.976 1_455 S
Fe3 O17 1.996 . S
Fe3 O20 1.997 . S
O4 Fe3 2.002 . S
O4 C21 1.295 . S
O5 Fe0 1.997 . S
O5 C21 1.235 . S
O6 Fe0 2.002 . S
O6 C7 1.295 . S
C7 O6 1.295 . S
C7 O9 1.235 . S
C8 O13 1.287 . S
C8 O14 1.255 . S
O9 Fe1 1.997 . S
O9 C7 1.235 . S
C10 O16 1.287 . S
C10 O17 1.255 . S
O11 Fe0 1.975 1_655 S
O11 C18 1.283 1_655 S
O12 Fe1 1.996 . S
O12 C18 1.255 . S
O13 Fe3 1.976 1_655 S
O13 C8 1.287 . S
O14 Fe0 1.996 1_655 S
O14 C8 1.255 . S
C15 O19 1.295 . S
C15 O20 1.235 . S
O16 Fe1 1.976 . S
O16 C10 1.287 . S
O17 Fe3 1.996 . S
O17 C10 1.255 . S
C18 O11 1.283 1_455 S
C18 O12 1.255 . S
O19 Fe1 2.002 . S
O19 C15 1.295 . S
O20 Fe3 1.997 . S
O20 C15 1.235 . S
C21 O4 1.295 . S
C21 O5 1.235 . S
Fe22 O24 1.918 . S
Fe22 O27 1.997 . S
Fe22 O28 2.002 . S
Fe22 O33 1.976 1_455 S
Fe22 O36 1.996 1_455 S
Fe23 O24 1.918 . S
Fe23 O31 1.997 . S
Fe23 O34 1.996 1_455 S
Fe23 O38 1.976 1_545 S
Fe23 O41 2.002 . S
O24 Fe22 1.918 . S
O24 Fe23 1.918 . S
O24 Fe25 1.918 . S
Fe25 O24 1.918 . S
Fe25 O26 2.002 . S
Fe25 O35 1.975 1_545 S
Fe25 O39 1.996 1_545 S
Fe25 O42 1.997 . S
O26 Fe25 2.002 . S
O26 C43 1.295 . S
O27 Fe22 1.997 . S
O27 C43 1.235 . S
O28 Fe22 2.002 . S
O28 C29 1.295 . S
C29 O28 1.295 . S
C29 O31 1.235 . S
C30 O35 1.283 1_545 S
C30 O36 1.255 1_455 S
O31 Fe23 1.997 . S
O31 C29 1.235 . S
C32 O38 1.287 . S
C32 O39 1.255 . S
O33 Fe22 1.976 1_655 S
O33 C40 1.287 . S
O34 Fe23 1.996 1_655 S
O34 C40 1.255 . S
O35 Fe25 1.975 1_565 S
O35 C30 1.283 1_565 S
O36 Fe22 1.996 1_655 S
O36 C30 1.255 1_655 S
C37 O41 1.295 . S
C37 O42 1.235 . S
O38 Fe23 1.976 1_565 S
O38 C32 1.287 . S
O39 Fe25 1.996 1_565 S
O39 C32 1.255 . S
C40 O33 1.287 . S
C40 O34 1.255 . S
O41 Fe23 2.002 . S
O41 C37 1.295 . S
O42 Fe25 1.997 . S
O42 C37 1.235 . S
C43 O26 1.295 . S
C43 O27 1.235 . S
Fe44 O46 1.918 . S
Fe44 O49 1.997 . S
Fe44 O50 2.002 . S
Fe44 O55 1.976 . S
Fe44 O58 1.996 1_545 S
Fe45 O46 1.918 . S
Fe45 O53 1.997 . S
Fe45 O56 1.996 . S
Fe45 O60 1.976 . S
Fe45 O63 2.002 . S
O46 Fe44 1.918 . S
O46 Fe45 1.918 . S
O46 Fe47 1.918 . S
Fe47 O46 1.918 . S
Fe47 O48 2.002 . S
Fe47 O57 1.976 1_545 S
Fe47 O61 1.996 1_545 S
Fe47 O64 1.997 . S
O48 Fe47 2.002 . S
O48 C65 1.295 . S
O49 Fe44 1.997 . S
O49 C65 1.235 . S
O50 Fe44 2.002 . S
O50 C51 1.295 . S
C51 O50 1.295 . S
C51 O53 1.235 . S
C52 O57 1.287 . S
C52 O58 1.255 . S
O53 Fe45 1.997 . S
O53 C51 1.235 . S
C54 O60 1.287 . S
C54 O61 1.255 1_545 S
O55 Fe44 1.976 . S
O55 C62 1.287 . S
O56 Fe45 1.996 . S
O56 C62 1.255 . S
O57 Fe47 1.976 1_565 S
O57 C52 1.287 . S
O58 Fe44 1.996 1_565 S
O58 C52 1.255 . S
C59 O63 1.295 . S
C59 O64 1.235 . S
O60 Fe45 1.976 . S
O60 C54 1.287 . S
O61 Fe47 1.996 1_565 S
O61 C54 1.255 1_565 S
C62 O55 1.287 . S
C62 O56 1.255 . S
O63 Fe45 2.002 . S
O63 C59 1.295 . S
O64 Fe47 1.997 . S
O64 C59 1.235 . S
C65 O48 1.295 . S
C65 O49 1.235 . S
Fe66 O68 1.918 . S
Fe66 O71 1.997 . S
Fe66 O72 2.002 . S
Fe66 O77 1.976 . S
Fe66 O80 1.996 . S
Fe67 O68 1.918 . S
Fe67 O75 1.997 . S
Fe67 O78 1.996 . S
Fe67 O82 1.976 . S
Fe67 O85 2.002 . S
O68 Fe66 1.918 . S
O68 Fe67 1.918 . S
O68 Fe69 1.918 . S
Fe69 O68 1.918 . S
Fe69 O70 2.002 . S
Fe69 O79 1.976 . S
Fe69 O83 1.996 . S
Fe69 O86 1.997 . S
O70 Fe69 2.002 . S
O70 C87 1.295 . S
O71 Fe66 1.997 . S
O71 C87 1.235 . S
O72 Fe66 2.002 . S
O72 C73 1.295 . S
C73 O72 1.295 . S
C73 O75 1.235 . S
C74 O79 1.287 . S
C74 O80 1.255 . S
O75 Fe67 1.997 . S
O75 C73 1.235 . S
C76 O82 1.287 . S
C76 O83 1.255 . S
O77 Fe66 1.976 . S
O77 C84 1.287 . S
O78 Fe67 1.996 . S
O78 C84 1.255 . S
O79 Fe69 1.976 . S
O79 C74 1.287 . S
O80 Fe66 1.996 . S
O80 C74 1.255 . S
C81 O85 1.295 . S
C81 O86 1.235 . S
O82 Fe67 1.976 . S
O82 C76 1.287 . S
O83 Fe69 1.996 . S
O83 C76 1.255 . S
C84 O77 1.287 . S
C84 O78 1.255 . S
O85 Fe67 2.002 . S
O85 C81 1.295 . S
O86 Fe69 1.997 . S
O86 C81 1.235 . S
C87 O70 1.295 . S
C87 O71 1.235 . S
Fe88 O90 1.918 . S
Fe88 O93 1.997 . S
Fe88 O94 2.002 . S
Fe88 O99 1.976 . S
Fe88 O102 1.996 . S
Fe89 O90 1.918 . S
Fe89 O97 1.997 . S
Fe89 O100 1.996 . S
Fe89 O104 1.976 . S
Fe89 O107 2.002 . S
O90 Fe88 1.918 . S
O90 Fe89 1.918 . S
O90 Fe91 1.918 . S
Fe91 O90 1.918 . S
Fe91 O92 2.002 . S
Fe91 O101 1.976 . S
Fe91 O105 1.996 . S
Fe91 O108 1.997 . S
O92 Fe91 2.002 . S
O92 C109 1.295 . S
O93 Fe88 1.997 . S
O93 C109 1.235 . S
O94 Fe88 2.002 . S
O94 C95 1.295 . S
C95 O94 1.295 . S
C95 O97 1.235 . S
C96 O101 1.287 . S
C96 O102 1.255 . S
O97 Fe89 1.997 . S
O97 C95 1.235 . S
C98 O104 1.287 . S
C98 O105 1.255 . S
O99 Fe88 1.976 . S
O99 C106 1.287 . S
O100 Fe89 1.996 . S
O100 C106 1.255 . S
O101 Fe91 1.976 . S
O101 C96 1.287 . S
O102 Fe88 1.996 . S
O102 C96 1.255 . S
C103 O107 1.295 . S
C103 O108 1.235 . S
O104 Fe89 1.976 . S
O104 C98 1.287 . S
O105 Fe91 1.996 . S
O105 C98 1.255 . S
C106 O99 1.287 . S
C106 O100 1.255 . S
O107 Fe89 2.002 . S
O107 C103 1.295 . S
O108 Fe91 1.997 . S
O108 C103 1.235 . S
C109 O92 1.295 . S
C109 O93 1.235 . S
Fe110 O112 1.918 . S
Fe110 O115 1.997 . S
Fe110 O116 2.002 . S
Fe110 O121 1.976 1_655 S
Fe110 O124 1.996 1_655 S
Fe111 O112 1.918 . S
Fe111 O119 1.997 . S
Fe111 O122 1.996 1_655 S
Fe111 O126 1.976 . S
Fe111 O129 2.002 . S
O112 Fe110 1.918 . S
O112 Fe111 1.918 . S
O112 Fe113 1.918 . S
Fe113 O112 1.918 . S
Fe113 O114 2.002 . S
Fe113 O123 1.976 . S
Fe113 O127 1.996 . S
Fe113 O130 1.997 . S
O114 Fe113 2.002 . S
O114 C131 1.295 . S
O115 Fe110 1.997 . S
O115 C131 1.235 . S
O116 Fe110 2.002 . S
O116 C117 1.295 . S
C117 O116 1.295 . S
C117 O119 1.235 . S
C118 O123 1.287 . S
C118 O124 1.255 1_655 S
O119 Fe111 1.997 . S
O119 C117 1.235 . S
C120 O126 1.287 . S
C120 O127 1.255 . S
O121 Fe110 1.976 1_455 S
O121 C128 1.287 . S
O122 Fe111 1.996 1_455 S
O122 C128 1.255 . S
O123 Fe113 1.976 . S
O123 C118 1.287 . S
O124 Fe110 1.996 1_455 S
O124 C118 1.255 1_455 S
C125 O129 1.295 . S
C125 O130 1.235 . S
O126 Fe111 1.976 . S
O126 C120 1.287 . S
O127 Fe113 1.996 . S
O127 C120 1.255 . S
C128 O121 1.287 . S
C128 O122 1.255 . S
O129 Fe111 2.002 . S
O129 C125 1.295 . S
O130 Fe113 1.997 . S
O130 C125 1.235 . S
C131 O114 1.295 . S
C131 O115 1.235 . S
Fe132 O134 1.918 . S
Fe132 O137 1.997 . S
Fe132 O138 2.002 . S
Fe132 O143 1.976 1_655 S
Fe132 O146 1.996 1_565 S
Fe133 O134 1.918 . S
Fe133 O141 1.997 . S
Fe133 O144 1.996 1_655 S
Fe133 O148 1.975 1_655 S
Fe133 O151 2.002 . S
O134 Fe132 1.918 . S
O134 Fe133 1.918 . S
O134 Fe135 1.918 . S
Fe135 O134 1.918 . S
Fe135 O136 2.002 . S
Fe135 O145 1.976 1_565 S
Fe135 O149 1.996 1_565 S
Fe135 O152 1.997 . S
O136 Fe135 2.002 . S
O136 C153 1.295 . S
O137 Fe132 1.997 . S
O137 C153 1.235 . S
O138 Fe132 2.002 . S
O138 C139 1.295 . S
C139 O138 1.295 . S
C139 O141 1.235 . S
C140 O145 1.287 . S
C140 O146 1.255 . S
O141 Fe133 1.997 . S
O141 C139 1.235 . S
C142 O148 1.283 1_655 S
C142 O149 1.255 1_565 S
O143 Fe132 1.976 1_455 S
O143 C150 1.287 . S
O144 Fe133 1.996 1_455 S
O144 C150 1.255 . S
O145 Fe135 1.976 1_545 S
O145 C140 1.287 . S
O146 Fe132 1.996 1_545 S
O146 C140 1.255 . S
C147 O151 1.295 . S
C147 O152 1.235 . S
O148 Fe133 1.975 1_455 S
O148 C142 1.283 1_455 S
O149 Fe135 1.996 1_545 S
O149 C142 1.255 1_545 S
C150 O143 1.287 . S
C150 O144 1.255 . S
O151 Fe133 2.002 . S
O151 C147 1.295 . S
O152 Fe135 1.997 . S
O152 C147 1.235 . S
C153 O136 1.295 . S
C153 O137 1.235 . S
Fe154 O156 1.918 . S
Fe154 O159 1.997 . S
Fe154 O160 2.002 . S
Fe154 O165 1.975 1_565 S
Fe154 O168 1.996 1_565 S
Fe155 O156 1.918 . S
Fe155 O163 1.997 . S
Fe155 O166 1.996 . S
Fe155 O170 1.976 . S
Fe155 O173 2.002 . S
O156 Fe154 1.918 . S
O156 Fe155 1.918 . S
O156 Fe157 1.918 . S
Fe157 O156 1.918 . S
Fe157 O158 2.002 . S
Fe157 O167 1.976 1_565 S
Fe157 O171 1.996 . S
Fe157 O174 1.997 . S
O158 Fe157 2.002 . S
O158 C175 1.295 . S
O159 Fe154 1.997 . S
O159 C175 1.235 . S
O160 Fe154 2.002 . S
O160 C161 1.295 . S
C161 O160 1.295 . S
C161 O163 1.235 . S
C162 O167 1.287 . S
C162 O168 1.255 . S
O163 Fe155 1.997 . S
O163 C161 1.235 . S
C164 O170 1.287 . S
C164 O171 1.255 . S
O165 Fe154 1.975 1_545 S
O165 C172 1.283 1_545 S
O166 Fe155 1.996 . S
O166 C172 1.255 . S
O167 Fe157 1.976 1_545 S
O167 C162 1.287 . S
O168 Fe154 1.996 1_545 S
O168 C162 1.255 . S
C169 O173 1.295 . S
C169 O174 1.235 . S
O170 Fe155 1.976 . S
O170 C164 1.287 . S
O171 Fe157 1.996 . S
O171 C164 1.255 . S
C172 O165 1.283 1_565 S
C172 O166 1.255 . S
O173 Fe155 2.002 . S
O173 C169 1.295 . S
O174 Fe157 1.997 . S
O174 C169 1.235 . S
C175 O158 1.295 . S
C175 O159 1.235 . S
C176 C177 1.170 . S
C176 C178 1.380 . S
C177 C176 1.170 . S
C178 C176 1.380 . S
C178 C179 1.170 . S
C179 C178 1.170 . S
C180 C181 1.170 . S
C180 C182 1.380 1_655 S
C181 C180 1.170 . S
C182 C180 1.380 1_455 S
C182 C183 1.170 . S
C183 C182 1.170 . S
C184 C185 1.170 . S
C184 C186 1.380 1_545 S
C185 C184 1.170 . S
C186 C184 1.380 1_565 S
C186 C187 1.170 . S
C187 C186 1.170 . S
C188 C189 1.170 . S
C188 C190 1.380 . S
C189 C188 1.170 . S
C190 C188 1.380 . S
C190 C191 1.170 . S
C191 C190 1.170 . S
C192 C193 1.170 . S
C192 C194 1.380 . S
C193 C192 1.170 . S
C194 C192 1.380 . S
C194 C195 1.170 . S
C195 C194 1.170 . S
C196 C197 1.170 . S
C196 C198 1.380 . S
C197 C196 1.170 . S
C198 C196 1.380 . S
C198 C199 1.170 1_455 S
C199 C198 1.170 1_655 S
C200 C201 1.170 . S
C200 C202 1.380 . S
C201 C200 1.170 . S
C202 C200 1.380 . S
C202 C203 1.170 1_545 S
C203 C202 1.170 1_565 S
C204 C205 1.170 . S
C204 C206 1.380 . S
C205 C204 1.170 . S
C206 C204 1.380 . S
C206 C207 1.170 . S
C207 C206 1.170 . S
C208 C209 1.170 . S
C208 C210 1.380 . S
C209 C208 1.170 . S
C210 C208 1.380 . S
C210 C211 1.170 . S
C211 C210 1.170 . S
C212 C213 1.170 . S
C212 C214 1.386 . S
C213 C212 1.170 . S
C214 C212 1.386 . S
C214 C215 1.164 1_455 S
C215 C214 1.164 1_655 S
C216 C217 1.170 . S
C216 C218 1.380 1_545 S
C217 C216 1.170 . S
C218 C216 1.380 1_565 S
C218 C219 1.170 . S
C219 C218 1.170 . S
C220 C221 1.170 . S
C220 C222 1.380 . S
C221 C220 1.170 . S
C222 C220 1.380 . S
C222 C223 1.170 . S
C223 C222 1.170 . S
C224 C225 1.170 . S
C224 C226 1.380 . S
C225 C224 1.170 . S
C226 C224 1.380 . S
C226 C227 1.170 . S
C227 C226 1.170 . S
C228 C229 1.170 1_655 S
C228 C230 1.380 . S
C229 C228 1.170 1_455 S
C230 C228 1.380 . S
C230 C231 1.170 . S
C231 C230 1.170 . S
C232 C233 1.170 . S
C232 C234 1.380 . S
C233 C232 1.170 . S
C234 C232 1.380 . S
C234 C235 1.170 1_565 S
C235 C234 1.170 1_545 S
C236 C237 1.170 . S
C236 C238 1.380 . S
C237 C236 1.170 . S
C238 C236 1.380 . S
C238 C239 1.170 . S
C239 C238 1.170 . S
C240 C241 1.170 . S
C240 C242 1.380 . S
C241 C240 1.170 . S
C242 C240 1.380 . S
C242 C243 1.170 . S
C243 C242 1.170 . S
C244 C245 1.170 . S
C244 C246 1.380 . S
C245 C244 1.170 . S
C246 C244 1.380 . S
C246 C247 1.170 . S
C247 C246 1.170 . S
C248 C249 1.170 . S
C248 C250 1.380 . S
C249 C248 1.170 . S
C250 C248 1.380 . S
C250 C251 1.170 . S
C251 C250 1.170 . S
C252 C253 1.170 . S
C252 C254 1.380 . S
C253 C252 1.170 . S
C254 C252 1.380 . S
C254 C255 1.170 . S
C255 C254 1.170 . S
C256 C257 1.170 . S
C256 C258 1.380 1_656 S
C257 C256 1.170 . S
C258 C256 1.380 1_454 S
C258 C259 1.170 . S
C259 C258 1.170 . S
C260 C261 1.170 . S
C260 C262 1.380 1_445 S
C261 C260 1.170 . S
C262 C260 1.380 1_665 S
C262 C263 1.170 . S
C263 C262 1.170 . S
C264 C265 1.170 . S
C264 C266 1.380 1_566 S
C265 C264 1.170 . S
C266 C264 1.380 1_544 S
C266 C267 1.170 . S
C267 C266 1.170 . S
C268 C269 1.170 . S
C268 C270 1.380 . S
C269 C268 1.170 . S
C270 C268 1.380 . S
C270 C271 1.170 . S
C271 C270 1.170 . S
C177 C98 1.359 . S
C179 C15 1.348 . S
C181 C120 1.341 . S
C183 C29 1.354 . S
C185 C65 1.348 . S
C187 C150 1.333 . S
C189 C81 1.336 . S
C191 C162 1.357 . S
C193 C95 1.334 . S
C195 C8 1.326 . S
C197 C32 1.348 . S
C199 C117 1.325 . S
C201 C62 1.359 . S
C203 C153 1.347 . S
C205 C74 1.326 . S
C207 C169 1.327 . S
C209 C125 1.339 . S
C211 C76 1.328 . S
C213 C10 1.318 . S
C215 C139 1.351 . S
C217 C40 1.318 . S
C219 C175 1.360 . S
C221 C52 1.318 . S
C223 C103 1.352 . S
C225 C87 1.360 . S
C227 C128 1.317 . S
C229 C21 1.327 . S
C231 C140 1.345 . S
C233 C164 1.350 . S
C235 C37 1.326 . S
C237 C106 1.336 . S
C239 C51 1.354 . S
C241 C7 1.775 . S
C243 C59 1.771 . S
C245 C43 1.782 . S
C247 C73 1.780 . S
C249 C147 1.772 . S
C251 C109 1.768 . S
C253 C161 1.766 . S
C255 C131 1.764 . S
C257 C118 1.450 . S
C259 C18 1.451 . S
C261 C30 1.450 . S
C263 C142 1.451 . S
C265 C172 1.449 . S
C267 C54 1.452 . S
C269 C96 1.454 . S
C271 C84 1.446 . S
