# Generated by pormake.
# Topology wkj, (6)-cn, num edge types: 1
# Building blocks:
#     Node 0, Type 0, BuildingBlock: JUFBIX_clean_sbu_0, # of connection points: 6
#     Node 1, Type 0, BuildingBlock: JUFBIX_clean_sbu_0, # of connection points: 6
#     Node 2, Type 0, BuildingBlock: JUFBIX_clean_sbu_0, # of connection points: 6
#     Node 3, Type 0, BuildingBlock: JUFBIX_clean_sbu_0, # of connection points: 6
#     Node 4, Type 0, BuildingBlock: JUFBIX_clean_sbu_0, # of connection points: 6
#     Node 5, Type 0, BuildingBlock: JUFBIX_clean_sbu_0, # of connection points: 6
#     Node 6, Type 0, BuildingBlock: JUFBIX_clean_sbu_0, # of connection points: 6
#     Node 7, Type 0, BuildingBlock: JUFBIX_clean_sbu_0, # of connection points: 6
#     Node 8, Type 0, BuildingBlock: JUFBIX_clean_sbu_0, # of connection points: 6
#     Node 9, Type 0, BuildingBlock: JUFBIX_clean_sbu_0, # of connection points: 6
#     Node 10, Type 0, BuildingBlock: JUFBIX_clean_sbu_0, # of connection points: 6
#     Node 11, Type 0, BuildingBlock: JUFBIX_clean_sbu_0, # of connection points: 6
#     Edge 12, Type (0, 0), BuildingBlock: XIVTED_clean_linker_0, # of connection points: 2
#     Edge 13, Type (0, 0), BuildingBlock: XIVTED_clean_linker_0, # of connection points: 2
#     Edge 14, Type (0, 0), BuildingBlock: XIVTED_clean_linker_0, # of connection points: 2
#     Edge 15, Type (0, 0), BuildingBlock: XIVTED_clean_linker_0, # of connection points: 2
#     Edge 16, Type (0, 0), BuildingBlock: XIVTED_clean_linker_0, # of connection points: 2
#     Edge 17, Type (0, 0), BuildingBlock: XIVTED_clean_linker_0, # of connection points: 2
#     Edge 18, Type (0, 0), BuildingBlock: XIVTED_clean_linker_0, # of connection points: 2
#     Edge 19, Type (0, 0), BuildingBlock: XIVTED_clean_linker_0, # of connection points: 2
#     Edge 20, Type (0, 0), BuildingBlock: XIVTED_clean_linker_0, # of connection points: 2
#     Edge 21, Type (0, 0), BuildingBlock: XIVTED_clean_linker_0, # of connection points: 2
#     Edge 22, Type (0, 0), BuildingBlock: XIVTED_clean_linker_0, # of connection points: 2
#     Edge 23, Type (0, 0), BuildingBlock: XIVTED_clean_linker_0, # of connection points: 2
#     Edge 24, Type (0, 0), BuildingBlock: XIVTED_clean_linker_0, # of connection points: 2
#     Edge 25, Type (0, 0), BuildingBlock: XIVTED_clean_linker_0, # of connection points: 2
#     Edge 26, Type (0, 0), BuildingBlock: XIVTED_clean_linker_0, # of connection points: 2
#     Edge 27, Type (0, 0), BuildingBlock: XIVTED_clean_linker_0, # of connection points: 2
#     Edge 28, Type (0, 0), BuildingBlock: XIVTED_clean_linker_0, # of connection points: 2
#     Edge 29, Type (0, 0), BuildingBlock: XIVTED_clean_linker_0, # of connection points: 2
#     Edge 30, Type (0, 0), BuildingBlock: XIVTED_clean_linker_0, # of connection points: 2
#     Edge 31, Type (0, 0), BuildingBlock: XIVTED_clean_linker_0, # of connection points: 2
#     Edge 32, Type (0, 0), BuildingBlock: XIVTED_clean_linker_0, # of connection points: 2
#     Edge 33, Type (0, 0), BuildingBlock: XIVTED_clean_linker_0, # of connection points: 2
#     Edge 34, Type (0, 0), BuildingBlock: XIVTED_clean_linker_0, # of connection points: 2
#     Edge 35, Type (0, 0), BuildingBlock: XIVTED_clean_linker_0, # of connection points: 2
#     Edge 36, Type (0, 0), BuildingBlock: XIVTED_clean_linker_0, # of connection points: 2
#     Edge 37, Type (0, 0), BuildingBlock: XIVTED_clean_linker_0, # of connection points: 2
#     Edge 38, Type (0, 0), BuildingBlock: XIVTED_clean_linker_0, # of connection points: 2
#     Edge 39, Type (0, 0), BuildingBlock: XIVTED_clean_linker_0, # of connection points: 2
#     Edge 40, Type (0, 0), BuildingBlock: XIVTED_clean_linker_0, # of connection points: 2
#     Edge 41, Type (0, 0), BuildingBlock: XIVTED_clean_linker_0, # of connection points: 2
#     Edge 42, Type (0, 0), BuildingBlock: XIVTED_clean_linker_0, # of connection points: 2
#     Edge 43, Type (0, 0), BuildingBlock: XIVTED_clean_linker_0, # of connection points: 2
#     Edge 44, Type (0, 0), BuildingBlock: XIVTED_clean_linker_0, # of connection points: 2
#     Edge 45, Type (0, 0), BuildingBlock: XIVTED_clean_linker_0, # of connection points: 2
#     Edge 46, Type (0, 0), BuildingBlock: XIVTED_clean_linker_0, # of connection points: 2
#     Edge 47, Type (0, 0), BuildingBlock: XIVTED_clean_linker_0, # of connection points: 2
# Relax obj value: 0.815
# Max RMSD: 0.260
# Mean RMSD: 0.258
data_MOF--net-wkj--node1-JUFBIX_clean_sbu_0--edge1-XIVTED_clean_linker_0
_symmetry_space_group_name_H-M    P1
_symmetry_Int_Tables_number       1
_symmetry_cell_setting            triclinic
loop_
_symmetry_equiv_pos_as_xyz
'x, y, z'
_cell_length_a     51.983313
_cell_length_b     51.784085
_cell_length_c     26.106167
_cell_angle_alpha  89.923413
_cell_angle_beta   89.949277
_cell_angle_gamma 120.28902
loop_
_atom_site_label
_atom_site_type_symbol
_atom_site_fract_x
_atom_site_fract_y
_atom_site_fract_z
_atom_type_partial_charge
Co0 Co 0.42402 0.07312 0.21901 0.0
C1 C 0.45907 0.05574 0.2702 0.0
Co2 Co 0.4635 0.10921 0.25616 0.0
C3 C 0.37723 0.0401 0.14464 0.0
C4 C 0.37306 0.01514 0.21265 0.0
N5 N 0.39069 0.04169 0.18963 0.0
N6 N 0.35178 0.01353 0.13878 0.0
C7 C 0.3493 -0.00218 0.18157 0.0
H8 H 0.38586 0.05821 0.11712 0.0
H9 H 0.37713 0.00881 0.24996 0.0
C10 C 0.42798 0.12777 0.20914 0.0
N11 N 0.49619 0.14016 0.28807 0.0
C12 C 0.50911 0.13746 0.33075 0.0
C13 C 0.513 0.16919 0.27435 0.0
N14 N 0.53345 0.16332 0.34393 0.0
C15 C 0.53599 0.18362 0.30904 0.0
C16 C 0.47484 0.1001 0.15454 0.0
O17 O 0.41271 0.10082 0.19415 0.0
O18 O 0.45025 0.13544 0.23803 0.0
O19 O 0.48578 0.11794 0.19245 0.0
O20 O 0.4478 0.07876 0.15759 0.0
O21 O 0.4766 0.08353 0.27422 0.0
H22 H 0.50917 0.17906 0.24079 0.0
H23 H 0.50093 0.11675 0.35183 0.0
O24 O 0.43508 0.04611 0.24517 0.0
O25 O 0.40116 0.06666 0.2802 0.0
O26 O 0.44123 0.09874 0.32113 0.0
C27 C 0.41394 0.07799 0.32246 0.0
H28 H 0.33202 0.97505 0.18949 0.0
H29 H 0.55367 0.20677 0.30777 0.0
Co30 Co 0.33863 0.43546 0.6469 0.0
C31 C 0.39028 0.47616 0.69795 0.0
Co32 Co 0.33925 0.4751 0.6781 0.0
C33 C 0.32762 0.38819 0.57873 0.0
C34 C 0.35008 0.38648 0.64611 0.0
N35 N 0.33972 0.40269 0.62272 0.0
N36 N 0.32964 0.36338 0.57371 0.0
C37 C 0.34408 0.36232 0.61577 0.0
H38 H 0.31771 0.39591 0.55062 0.0
H39 H 0.3608 0.39162 0.68319 0.0
C40 C 0.28693 0.43484 0.62743 0.0
N41 N 0.33742 0.50765 0.70281 0.0
C42 C 0.34631 0.52118 0.74874 0.0
C43 C 0.32902 0.52456 0.67628 0.0
N44 N 0.34414 0.54603 0.75158 0.0
C45 C 0.33342 0.54838 0.70603 0.0
C46 C 0.35956 0.48267 0.57572 0.0
O47 O 0.30008 0.42024 0.6195 0.0
O48 O 0.29946 0.4581 0.6552 0.0
O49 O 0.3534 0.49523 0.6119 0.0
O50 O 0.35525 0.45648 0.58341 0.0
O51 O 0.37822 0.49207 0.70046 0.0
H52 H 0.32107 0.52037 0.63718 0.0
H53 H 0.35565 0.51383 0.77857 0.0
O54 O 0.37714 0.45113 0.67493 0.0
O55 O 0.3228 0.41459 0.70896 0.0
O56 O 0.32698 0.45476 0.74451 0.0
C57 C 0.32229 0.42812 0.74897 0.0
H58 H 0.34958 0.34521 0.62422 0.0
H59 H 0.32966 0.56634 0.69481 0.0
Co60 Co 0.89506 0.34273 0.87271 0.0
C61 C 0.90391 0.39292 0.9229 0.0
Co62 Co 0.85511 0.3384 0.90921 0.0
C63 C 0.93102 0.33043 0.80421 0.0
C64 C 0.95655 0.36052 0.86437 0.0
N65 N 0.92898 0.34596 0.84389 0.0
N66 N 0.9586 0.33429 0.79978 0.0
C67 C -0.0252 0.35345 0.83729 0.0
H68 H 0.91232 0.31561 0.78038 0.0
H69 H 0.96276 0.37444 0.89813 0.0
C70 C 0.84577 0.28617 0.86548 0.0
N71 N 0.82163 0.3349 0.94084 0.0
C72 C 0.8223 0.35057 0.98239 0.0
C73 C 0.79243 0.31801 0.92901 0.0
N74 N 0.79502 0.34464 0.99659 0.0
C75 C 0.77589 0.32388 0.96369 0.0
C76 C 0.86298 0.35938 0.80717 0.0
O77 O 0.87221 0.30235 0.84912 0.0
O78 O 0.83402 0.29775 0.89263 0.0
O79 O 0.84418 0.34955 0.84415 0.0
O80 O 0.88648 0.35758 0.81134 0.0
O81 O 0.87594 0.37823 0.92661 0.0
H82 H 0.7838 0.3028 0.8969 0.0
H83 H 0.84254 0.36629 1.00209 0.0
O84 O 0.91726 0.38209 0.89809 0.0
O85 O 0.90456 0.32958 0.9339 0.0
O86 O 0.8677 0.32915 0.97478 0.0
C87 C 0.89136 0.32744 0.97591 0.0
H88 H -0.00183 0.36178 0.84468 0.0
H89 H 0.75197 0.31445 0.9638 0.0
Co90 Co 0.54162 0.90299 0.31424 0.0
C91 C 0.5047 0.91763 0.36594 0.0
Co92 Co 0.50447 0.86578 0.35471 0.0
C93 C 0.58818 0.93378 0.24122 0.0
C94 C 0.59058 0.96277 0.30159 0.0
N95 N 0.5735 0.9349 0.28278 0.0
N96 N 0.6141 0.95953 0.23383 0.0
C97 C 0.61553 0.97805 0.27134 0.0
H98 H 0.58009 0.91421 0.21719 0.0
H99 H 0.58591 0.97097 0.3364 0.0
C100 C 0.54186 0.85009 0.30591 0.0
N101 N 0.47356 0.83437 0.38949 0.0
C102 C 0.46606 0.8358 0.43835 0.0
C103 C 0.45208 0.80744 0.37251 0.0
N104 N 0.44069 0.81116 0.45265 0.0
C105 C 0.43155 0.7932 0.41127 0.0
C106 C 0.49081 0.87277 0.2522 0.0
O107 O 0.55475 0.87695 0.29031 0.0
O108 O 0.51974 0.84081 0.33603 0.0
O109 O 0.48078 0.85545 0.29128 0.0
O110 O 0.51734 0.89495 0.2541 0.0
O111 O 0.48927 0.88985 0.37384 0.0
H112 H 0.45065 0.79934 0.33385 0.0
H113 H 0.47776 0.8556 0.46191 0.0
O114 O 0.52831 0.92825 0.33924 0.0
O115 O 0.56555 0.91211 0.37308 0.0
O116 O 0.52829 0.8783 0.41758 0.0
C117 C 0.55455 0.90095 0.4163 0.0
H118 H 0.63359 0.0007 0.27728 0.0
H119 H 0.41094 0.772 0.40861 0.0
Co120 Co 0.62535 0.56602 0.52698 0.0
C121 C 0.57257 0.53052 0.57584 0.0
Co122 Co 0.62219 0.52672 0.56291 0.0
C123 C 0.63253 0.60414 0.4438 0.0
C124 C 0.62342 0.62032 0.51278 0.0
N125 N 0.62777 0.59854 0.49424 0.0
N126 N 0.63051 0.62801 0.42937 0.0
C127 C 0.62493 0.63843 0.47282 0.0
H128 H 0.63514 0.5895 0.41745 0.0
H129 H 0.61803 0.62201 0.55222 0.0
C130 C 0.67683 0.56365 0.5193 0.0
N131 N 0.62017 0.49419 0.59552 0.0
C132 C 0.60305 0.47996 0.63635 0.0
C133 C 0.63453 0.47922 0.58449 0.0
N134 N 0.60593 0.45668 0.6511 0.0
C135 C 0.62597 0.45616 0.61917 0.0
C136 C 0.60179 0.51479 0.46318 0.0
O137 O 0.66408 0.57717 0.50173 0.0
O138 O 0.66249 0.54127 0.54843 0.0
O139 O 0.61012 0.50433 0.4996 0.0
O140 O 0.60657 0.54134 0.46734 0.0
O141 O 0.58254 0.51277 0.57816 0.0
H142 H 0.65011 0.48464 0.55323 0.0
H143 H 0.58899 0.48679 0.65557 0.0
O144 O 0.58757 0.55546 0.55312 0.0
O145 O 0.64202 0.58962 0.58718 0.0
O146 O 0.63235 0.54859 0.62722 0.0
C147 C 0.63923 0.57596 0.62916 0.0
H148 H 0.6205 0.65669 0.47517 0.0
H149 H 0.63347 0.4401 0.62046 0.0
Co150 Co 0.05221 0.62026 0.97775 0.0
C151 C 0.03283 0.56949 0.03594 0.0
Co152 Co 0.08769 0.61661 1.01624 0.0
C153 C 0.02289 0.63546 0.90118 0.0
C154 C -0.00443 0.61658 0.96763 0.0
N155 N 0.02193 0.62299 0.94684 0.0
N156 N -0.00162 0.63748 0.89272 0.0
C157 C -0.01906 0.62533 0.93425 0.0
H158 H 0.04132 0.6429 0.87467 0.0
H159 H -0.01211 0.60696 1.00528 0.0
C160 C 0.10802 0.66849 0.95942 0.0
N161 N 0.11761 0.61429 0.05015 0.0
C162 C 0.1162 0.60644 0.0997 0.0
C163 C 0.14296 0.61639 1.03225 0.0
N164 N 0.13929 0.60318 0.1136 0.0
C165 C 0.15621 0.60917 0.07123 0.0
C166 C 0.07636 0.5924 0.91691 0.0
O167 O 0.08065 0.65745 0.9488 0.0
O168 O 0.11573 0.65492 0.99095 0.0
O169 O 0.09358 0.59865 0.95549 0.0
O170 O 0.05627 0.59968 0.91851 0.0
O171 O 0.0603 0.57888 0.04136 0.0
H172 H 0.15052 0.6214 0.99295 0.0
H173 H 0.09733 0.60095 0.12427 0.0
O174 O 0.02438 0.58359 1.00727 0.0
O175 O 0.04725 0.63937 0.036 0.0
O176 O 0.07999 0.63288 0.07716 0.0
C177 C 0.05914 0.63898 0.07809 0.0
H178 H 0.95941 0.62332 0.94043 0.0
H179 H 0.17595 0.60726 0.06816 0.0
Co180 Co 0.89955 0.54269 0.46121 0.0
C181 C 0.90993 0.49743 0.43427 0.0
Co182 Co 0.86357 0.50568 0.41841 0.0
C183 C 0.92933 0.58812 0.53648 0.0
C184 C 0.95933 0.58991 0.47862 0.0
N185 N 0.93077 0.57401 0.49435 0.0
N186 N 0.95582 0.61249 0.54773 0.0
C187 C -0.02521 0.61357 0.51132 0.0
H188 H 0.90908 0.58035 0.55841 0.0
H189 H 0.96818 0.58495 0.44491 0.0
C190 C 0.85135 0.54992 0.44714 0.0
N191 N 0.83214 0.47492 0.3836 0.0
C192 C 0.83266 0.46536 0.33589 0.0
C193 C 0.80352 0.45822 0.39896 0.0
N194 N 0.80553 0.44359 0.32055 0.0
C195 C 0.7871 0.43878 0.36026 0.0
C196 C 0.86237 0.49498 0.52527 0.0
O197 O 0.8765 0.56154 0.4691 0.0
O198 O 0.84174 0.52554 0.42303 0.0
O199 O 0.8475 0.48465 0.4839 0.0
O200 O 0.88482 0.52138 0.5245 0.0
O201 O 0.88453 0.48607 0.41371 0.0
H202 H 0.79501 0.46048 0.43548 0.0
H203 H 0.85262 0.47425 0.31271 0.0
O204 O 0.92177 0.52335 0.45407 0.0
O205 O 0.9153 0.56358 0.39855 0.0
O206 O 0.88152 0.52622 0.354 0.0
C207 C 0.90508 0.55187 0.35534 0.0
H208 H -0.00183 0.6302 0.50817 0.0
H209 H 0.76337 0.42304 0.36068 0.0
Co210 Co 0.31373 0.89153 0.75276 0.0
C211 C 0.27265 0.83312 0.77396 0.0
Co212 Co 0.32717 0.87291 0.81959 0.0
C213 C 0.32749 0.92934 0.66077 0.0
C214 C 0.28112 0.9074 0.67934 0.0
N215 N 0.30692 0.90975 0.69479 0.0
N216 N 0.3156 0.93933 0.62482 0.0
C217 C 0.2863 0.92531 0.63677 0.0
H218 H 0.35086 0.93614 0.66248 0.0
H219 H 0.25991 0.89388 0.69831 0.0
C220 C 0.36572 0.93134 0.80234 0.0
N221 N 0.33714 0.8562 0.87724 0.0
C222 C 0.35717 0.86926 0.9163 0.0
C223 C 0.32551 0.82665 0.88567 0.0
N224 N 0.35805 0.84895 0.94855 0.0
C225 C 0.33799 0.8222 0.92882 0.0
C226 C 0.34662 0.8643 0.72663 0.0
O227 O 0.34948 0.9273 0.76356 0.0
O228 O 0.3608 0.90958 0.83109 0.0
O229 O 0.34847 0.86133 0.77473 0.0
O230 O 0.33271 0.87692 0.70986 0.0
O231 O 0.29227 0.83671 0.80677 0.0
H232 H 0.30928 0.80908 0.86143 0.0
H233 H 0.37088 0.89321 0.92106 0.0
O234 O 0.27678 0.85472 0.7448 0.0
O235 O 0.29501 0.90564 0.79748 0.0
O236 O 0.30548 0.8848 0.86216 0.0
C237 C 0.29381 0.8997 0.84514 0.0
H238 H 0.26966 0.92821 0.61698 0.0
H239 H 0.33314 0.80068 0.94364 0.0
Co240 Co 0.40717 0.35527 0.12737 0.0
C241 C 0.43489 0.41145 0.08347 0.0
Co242 Co 0.4479 0.36757 0.08458 0.0
C243 C 0.36546 0.33384 0.20972 0.0
C244 C 0.34946 0.34811 0.14661 0.0
N245 N 0.37297 0.34601 0.16267 0.0
N246 N 0.33813 0.32815 0.22402 0.0
C247 C 0.328 0.33719 0.1843 0.0
H248 H 0.38022 0.32989 0.23336 0.0
H249 H 0.34799 0.35695 0.10985 0.0
C250 C 0.41856 0.3092 0.12147 0.0
N251 N 0.48166 0.37527 0.04898 0.0
C252 C 0.4883 0.38317 0.9995 0.0
C253 C 0.50314 0.36995 0.0656 0.0
N254 N 0.51278 0.38252 0.98431 0.0
C255 C 0.52237 0.37449 1.02596 0.0
C256 C 0.4591 0.3818 0.18829 0.0
O257 O 0.40105 0.31634 0.1427 0.0
O258 O 0.43978 0.32841 0.09427 0.0
O259 O 0.47078 0.38013 0.1466 0.0
O260 O 0.43111 0.37193 0.18914 0.0
O261 O 0.45565 0.40614 0.07336 0.0
H262 H 0.50394 0.36182 0.10341 0.0
H263 H 0.47495 0.38854 0.97478 0.0
O264 O 0.41281 0.39306 0.11046 0.0
O265 O 0.38393 0.34065 0.06593 0.0
O266 O 0.42499 0.3567 1.02212 0.0
C267 C 0.39716 0.34732 1.02288 0.0
H268 H 0.30676 0.33626 0.18256 0.0
H269 H 0.54102 0.3707 1.02709 0.0
Co270 Co 0.06126 0.39763 0.41952 0.0
C271 C 0.12045 0.4186 0.43471 0.0
Co272 Co 0.07995 0.43 0.48564 0.0
C273 C 0.02786 0.37699 0.32376 0.0
C274 C 0.0367 0.34405 0.35499 0.0
N275 N 0.04274 0.37236 0.36229 0.0
N276 N 0.01258 0.3527 0.29339 0.0
C277 C 0.01815 0.33194 0.31308 0.0
H278 H 0.02685 0.39727 0.31974 0.0
H279 H 0.04422 0.33245 0.3798 0.0
C280 C 0.02074 0.40689 0.47311 0.0
N281 N 0.0965 0.45662 0.54331 0.0
C282 C 0.0831 0.46453 0.58028 0.0
C283 C 0.12572 0.47277 0.55519 0.0
N284 N 0.10279 0.4846 0.61451 0.0
C285 C 0.12957 0.48965 0.59827 0.0
C286 C 0.0847 0.45807 0.39422 0.0
O287 O 0.02479 0.39529 0.43345 0.0
O288 O 0.04263 0.42414 0.50108 0.0
O289 O 0.08834 0.46279 0.44224 0.0
O290 O 0.07333 0.43151 0.37728 0.0
O291 O 0.11677 0.43419 0.46842 0.0
H292 H 0.1435 0.47274 0.53377 0.0
H293 H 0.05931 0.45561 0.58241 0.0
O294 O 0.09853 0.3998 0.40764 0.0
O295 O 0.04994 0.36464 0.46383 0.0
O296 O 0.07164 0.3968 0.52704 0.0
C297 C 0.05789 0.36996 0.51058 0.0
H298 H 0.00909 0.30942 0.29863 0.0
H299 H 0.15078 0.50501 0.61563 0.0
Co300 Co 0.61654 0.05415 0.81786 0.0
C301 C 0.56251 0.04699 0.7888 0.0
Co302 Co 0.61871 0.08997 0.76998 0.0
C303 C 0.63269 0.02451 0.8915 0.0
C304 C 0.59813 -0.00672 0.84233 0.0
N305 N 0.61429 0.0226 0.85368 0.0
N306 N 0.62926 -0.00237 0.90379 0.0
C307 C 0.60724 0.97784 0.87311 0.0
H308 H 0.64851 0.04549 0.90909 0.0
H309 H 0.58162 0.9839 0.81226 0.0
C310 C 0.67383 0.09974 0.80012 0.0
N311 N 0.62193 0.12172 0.73262 0.0
C312 C 0.61301 0.12105 0.68403 0.0
C313 C 0.63506 0.15072 0.74654 0.0
N314 N 0.62024 0.14844 0.66677 0.0
C315 C 0.63391 0.16724 0.70609 0.0
C316 C 0.60945 0.09412 0.87725 0.0
O317 O 0.65906 0.07469 0.82255 0.0
O318 O 0.66016 0.1105 0.77635 0.0
O319 O 0.61349 0.10748 0.83412 0.0
O320 O 0.61356 0.07192 0.87938 0.0
O321 O 0.5783 0.07049 0.76312 0.0
H322 H 0.64536 0.15939 0.78333 0.0
H323 H 0.60134 0.10077 0.66167 0.0
O324 O 0.57467 0.03485 0.8137 0.0
O325 O 0.6178 0.03506 0.75726 0.0
O326 O 0.62145 0.07046 0.70717 0.0
C327 C 0.61892 0.04477 0.71237 0.0
H328 H 0.59848 0.95396 0.87219 0.0
H329 H 0.64309 0.19121 0.7052 0.0
Co330 Co 0.51606 0.64284 0.03917 0.0
C331 C 0.52692 0.68099 0.12051 0.0
Co332 Co 0.48185 0.62276 0.10197 0.0
C333 C 0.55378 0.64113 0.95846 0.0
C334 C 0.55601 0.68348 0.95988 0.0
N335 N 0.54387 0.65711 0.9847 0.0
N336 N 0.57138 0.65624 0.91788 0.0
C337 C 0.57281 0.68305 0.91915 0.0
H338 H 0.54756 0.61847 0.96864 0.0
H339 H 0.55213 0.70153 0.96974 0.0
C340 C 0.4698 0.58573 1.01981 0.0
N341 N 0.45333 0.60524 0.15605 0.0
C342 C 0.45619 0.59932 0.20605 0.0
C343 C 0.42361 0.59137 0.14875 0.0
N344 N 0.4294 0.58204 0.22944 0.0
C345 C 0.40903 0.57717 0.19319 0.0
C346 C 0.46721 0.65024 1.02566 0.0
O347 O 0.49486 0.60633 1.00386 0.0
O348 O 0.46048 0.58783 0.06365 0.0
O349 O 0.45952 0.63788 0.06965 0.0
O350 O 0.49193 0.65557 1.00613 0.0
O351 O 0.50368 0.65839 0.13865 0.0
H352 H 0.41309 0.59035 0.11251 0.0
H353 H 0.4774 0.60608 0.22406 0.0
O354 O 0.53645 0.67978 0.07592 0.0
O355 O 0.5395 0.62974 0.07343 0.0
O356 O 0.50462 0.60798 0.13202 0.0
C357 C 0.53002 0.61456 0.11445 0.0
H358 H 0.58432 0.70096 0.8917 0.0
H359 H 0.38514 0.56355 0.19812 0.0
H360 H 0.37421 0.12548 0.19477 0.0
H361 H 0.45391 0.29005 0.08066 0.0
H362 H 0.46936 0.18329 0.18132 0.0
H363 H 0.37632 0.26049 0.177 0.0
H364 H 0.45205 0.24298 0.09587 0.0
H365 H 0.36772 0.16793 0.1689 0.0
C366 C 0.39357 0.14693 0.18582 0.0
C367 C 0.42235 0.15116 0.19027 0.0
C368 C 0.4353 0.2467 0.11344 0.0
C369 C 0.41516 0.19879 0.16035 0.0
C370 C 0.4363 0.27359 0.10487 0.0
C371 C 0.4155 0.27947 0.12835 0.0
C372 C 0.41332 0.22526 0.14557 0.0
C373 C 0.39299 0.25696 0.15872 0.0
C374 C 0.38989 0.171 0.17152 0.0
C375 C 0.44683 0.17925 0.1787 0.0
N376 N 0.39257 0.23072 0.16686 0.0
N377 N 0.44267 0.20191 0.16404 0.0
H378 H 0.26111 0.46909 0.62086 0.0
H379 H 0.12945 0.37112 0.4387 0.0
H380 H 0.25408 0.38783 0.5619 0.0
H381 H 0.17524 0.46745 0.43873 0.0
H382 H 0.17258 0.37323 0.4815 0.0
H383 H 0.22451 0.46466 0.55854 0.0
C384 C 0.25153 0.45001 0.59536 0.0
C385 C 0.26072 0.42881 0.59661 0.0
C386 C 0.17355 0.39385 0.47033 0.0
C387 C 0.21905 0.42394 0.52435 0.0
C388 C 0.1492 0.39268 0.44523 0.0
C389 C 0.14889 0.41919 0.4358 0.0
C390 C 0.19712 0.42167 0.4862 0.0
C391 C 0.17468 0.44655 0.44583 0.0
C392 C 0.23097 0.44778 0.55918 0.0
C393 C 0.24753 0.40464 0.56225 0.0
N394 N 0.19748 0.4471 0.47174 0.0
N395 N 0.22716 0.40275 0.52742 0.0
H396 H 0.81161 0.24329 0.93356 0.0
H397 H 0.71252 0.1357 0.72739 0.0
H398 H 0.84196 0.256 0.77692 0.0
H399 H 0.70853 0.10583 0.88294 0.0
H400 H 0.76343 0.17618 0.74201 0.0
H401 H 0.77759 0.19049 0.91616 0.0
C402 C 0.81129 0.23472 0.89557 0.0
C403 C 0.82897 0.25388 0.85622 0.0
C404 C 0.75185 0.16027 0.77253 0.0
C405 C 0.78989 0.19373 0.83578 0.0
C406 C 0.72279 0.13724 0.76424 0.0
C407 C 0.70633 0.11794 0.80442 0.0
C408 C 0.76404 0.1645 0.8218 0.0
C409 C 0.72053 0.12053 0.85122 0.0
C410 C 0.79211 0.20456 0.88576 0.0
C411 C 0.8283 0.24181 0.80797 0.0
N412 N 0.7484 0.14406 0.85919 0.0
N413 N 0.80836 0.21251 0.79861 0.0
H414 H 0.56018 0.73909 0.08663 0.0
H415 H 0.52997 0.79698 0.34753 0.0
H416 H 0.52541 0.68573 0.2236 0.0
H417 H 0.57296 0.85501 0.21812 0.0
H418 H 0.53674 0.75852 0.307 0.0
H419 H 0.57376 0.78408 0.13738 0.0
C420 C 0.55607 0.73696 0.12753 0.0
C421 C 0.54107 0.7087 0.15086 0.0
C422 C 0.54512 0.77978 0.28761 0.0
C423 C 0.55623 0.75966 0.20878 0.0
C424 C 0.5412 0.80173 0.3108 0.0
C425 C 0.55046 0.82896 0.28572 0.0
C426 C 0.5578 0.78481 0.23842 0.0
C427 C 0.56526 0.83415 0.23852 0.0
C428 C 0.56371 0.76257 0.15644 0.0
C429 C 0.53633 0.70707 0.20393 0.0
N430 N 0.56795 0.812 0.21582 0.0
N431 N 0.54349 0.73212 0.23091 0.0
H432 H 0.70662 0.5881 0.42943 0.0
H433 H 0.81161 0.54735 0.37712 0.0
H434 H 0.71725 0.56075 0.58033 0.0
H435 H 0.84798 0.58257 0.52622 0.0
H436 H 0.77426 0.56212 0.38992 0.0
H437 H 0.75595 0.59593 0.40582 0.0
C438 C 0.7196 0.58431 0.45773 0.0
C439 C 0.70783 0.57317 0.50641 0.0
C440 C 0.791 0.56754 0.41912 0.0
C441 C 0.76359 0.58207 0.48012 0.0
C442 C 0.81207 0.55881 0.4121 0.0
C443 C 0.83254 0.56349 0.45099 0.0
C444 C 0.79005 0.58036 0.46587 0.0
C445 C 0.83243 0.57853 0.49547 0.0
C446 C 0.74752 0.5886 0.44424 0.0
C447 C 0.72541 0.56875 0.54201 0.0
N448 N 0.81087 0.58569 0.50237 0.0
N449 N 0.7524 0.57306 0.52806 0.0
H450 H 0.21679 0.82602 0.7736 0.0
H451 H 0.1675 0.6888 0.95685 0.0
H452 H 0.26387 0.77763 0.787 0.0
H453 H 0.10056 0.70502 0.89174 0.0
H454 H 0.20408 0.72548 0.89835 0.0
H455 H 0.17316 0.78381 0.81464 0.0
C456 C 0.21743 0.80597 0.783 0.0
C457 C 0.24389 0.80521 0.77741 0.0
C458 C 0.18138 0.72103 0.89675 0.0
C459 C 0.19506 0.75793 0.8258 0.0
C460 C 0.16055 0.70038 0.93071 0.0
C461 C 0.13092 0.69387 0.92931 0.0
C462 C 0.17276 0.73569 0.86142 0.0
C463 C 0.12323 0.70947 0.89416 0.0
C464 C 0.19275 0.78213 0.80705 0.0
C465 C 0.24389 0.77906 0.79106 0.0
N466 N 0.14411 0.72986 0.86161 0.0
N467 N 0.2201 0.75672 0.81564 0.0
H468 H 0.57878 0.05524 0.95491 0.0
H469 H 0.52632 0.14942 0.11765 0.0
H470 H 0.60068 0.14231 0.8984 0.0
H471 H 0.46892 0.05505 0.09116 0.0
H472 H 0.56011 0.15052 0.04994 0.0
H473 H 0.54601 0.05808 1.01869 0.0
C474 C 0.57732 0.07536 0.9564 0.0
C475 C 0.59309 0.09873 0.92092 0.0
C476 C 0.53998 0.12967 0.05872 0.0
C477 C 0.55494 0.102 0.99533 0.0
C478 C 0.52063 0.12898 0.09741 0.0
C479 C 0.49442 0.10211 0.11021 0.0
C480 C 0.53375 0.10311 0.03364 0.0
C481 C 0.48855 0.07636 0.0826 0.0
C482 C 0.55819 0.07674 0.99275 0.0
C483 C 0.58936 0.12383 0.92494 0.0
N484 N 0.50815 0.07742 0.04652 0.0
N485 N 0.57093 0.12493 0.96162 0.0
H486 H 0.45323 0.60845 0.32155 0.0
H487 H 0.35904 0.45699 0.4836 0.0
H488 H 0.3897 0.5245 0.25336 0.0
H489 H 0.38714 0.54307 0.55133 0.0
H490 H 0.37788 0.48147 0.40057 0.0
H491 H 0.43734 0.58517 0.40735 0.0
C492 C 0.43627 0.58507 0.32461 0.0
C493 C 0.42277 0.56843 0.28012 0.0
C494 C 0.38001 0.49507 0.43356 0.0
C495 C 0.4046 0.54155 0.37802 0.0
C496 C 0.36928 0.48108 0.48118 0.0
C497 C 0.37129 0.49786 0.5249 0.0
C498 C 0.39357 0.52633 0.42913 0.0
C499 C 0.38486 0.52911 0.51882 0.0
C500 C 0.42702 0.57186 0.37353 0.0
C501 C 0.40062 0.53823 0.28648 0.0
N502 N 0.39562 0.54231 0.4721 0.0
N503 N 0.39243 0.52583 0.33412 0.0
H504 H 0.90676 0.39786 0.74159 0.0
H505 H 0.81346 0.43949 0.55189 0.0
H506 H 0.81319 0.36153 0.7722 0.0
H507 H 0.90271 0.50343 0.6 0.0
H508 H 0.81124 0.40511 0.62003 0.0
H509 H 0.90432 0.43008 0.67565 0.0
C510 C 0.8855 0.39623 0.73409 0.0
C511 C 0.86013 0.37664 0.76298 0.0
C512 C 0.83112 0.42683 0.61586 0.0
C513 C 0.85723 0.41396 0.68615 0.0
C514 C 0.83239 0.44656 0.57705 0.0
C515 C 0.85816 0.47481 0.57021 0.0
C516 C 0.85616 0.43489 0.64703 0.0
C517 C 0.88214 0.48226 0.60381 0.0
C518 C 0.88423 0.41494 0.69649 0.0
C519 C 0.83336 0.37613 0.75114 0.0
N520 N 0.88069 0.46244 0.63984 0.0
N521 N 0.83256 0.3943 0.71355 0.0
H522 H 0.34501 0.81171 1.03061 0.0
H523 H 0.50484 0.90864 0.16651 0.0
H524 H 0.41365 0.89643 0.97108 0.0
H525 H 0.43238 0.82842 0.23239 0.0
H526 H 0.47282 0.90397 0.09409 0.0
H527 H 0.37703 0.81718 0.10306 0.0
C528 C 0.36686 0.83152 0.03251 0.0
C529 C 0.37648 0.85351 0.99379 0.0
C530 C 0.46387 0.88732 0.12424 0.0
C531 C 0.41381 0.85999 0.07822 0.0
C532 C 0.48225 0.88986 0.16579 0.0
C533 C 0.47156 0.86883 0.20615 0.0
C534 C 0.43429 0.86345 0.12225 0.0
C535 C 0.44186 0.84518 0.20249 0.0
C536 C 0.38519 0.83467 0.07435 0.0
C537 C 0.40503 0.87891 0.99971 0.0
N538 N 0.42445 0.84316 0.16156 0.0
N539 N 0.42263 0.88132 0.04069 0.0
H540 H 0.44973 0.41316 0.26379 0.0
H541 H 0.59765 0.46287 0.42526 0.0
H542 H 0.51382 0.38908 0.21333 0.0
H543 H 0.56139 0.52092 0.40495 0.0
H544 H 0.56266 0.429 0.3599 0.0
H545 H 0.48514 0.44544 0.32969 0.0
C546 C 0.47099 0.41418 0.26713 0.0
C547 C 0.47868 0.39822 0.23288 0.0
C548 C 0.56255 0.44926 0.36968 0.0
C549 C 0.51938 0.43515 0.30869 0.0
C550 C 0.58255 0.46864 0.40688 0.0
C551 C 0.58282 0.49507 0.42043 0.0
C552 C 0.54189 0.45574 0.34699 0.0
C553 C 0.56238 0.5011 0.39548 0.0
C554 C 0.49132 0.43286 0.30446 0.0
C555 C 0.50687 0.4009 0.23883 0.0
N556 N 0.54262 0.48151 0.36066 0.0
N557 N 0.52606 0.41879 0.27605 0.0
H558 H 0.04104 0.57166 0.83005 0.0
H559 H 0.13712 0.50642 0.70002 0.0
H560 H 0.11835 0.57581 0.89913 0.0
H561 H 0.05635 0.49471 0.63214 0.0
H562 H 0.13028 0.53223 0.772 0.0
H563 H 0.04603 0.54445 0.75711 0.0
C564 C 0.05913 0.56697 0.83 0.0
C565 C 0.07931 0.57625 0.87127 0.0
C566 C 0.11394 0.52406 0.74154 0.0
C567 C 0.08515 0.54482 0.78715 0.0
C568 C 0.11792 0.50932 0.69993 0.0
C569 C 0.09748 0.4984 0.65904 0.0
C570 C 0.0893 0.52831 0.74309 0.0
C571 C 0.0727 0.50253 0.6625 0.0
C572 C 0.0619 0.55131 0.78821 0.0
C573 C 0.10219 0.56927 0.86856 0.0
N574 N 0.06943 0.51724 0.70343 0.0
N575 N 0.10446 0.55416 0.82754 0.0
H576 H 0.26768 0.87951 0.93826 0.0
H577 H 0.3652 0.03458 0.04082 0.0
H578 H 0.30174 0.95556 0.8368 0.0
H579 H 0.29461 0.96723 0.13444 0.0
H580 H 0.33722 0.00866 0.96465 0.0
H581 H 0.27017 0.91134 1.00915 0.0
C582 C 0.27465 0.90271 0.93067 0.0
C583 C 0.28501 0.91514 0.8821 0.0
C584 C 0.3275 -4e-05 1.00192 0.0
C585 C 0.28909 0.95185 0.96296 0.0
C586 C 0.34356 0.01477 0.04561 0.0
C587 C 0.33288 0.00245 0.0943 0.0
C588 C 0.30093 0.97241 1.00702 0.0
C589 C 0.30444 0.9768 0.09772 0.0
C590 C 0.27612 0.92092 0.97108 0.0
C591 C 0.29377 0.94525 0.87396 0.0
N592 N 0.28981 0.96216 0.05465 0.0
N593 N 0.29661 0.96292 0.91447 0.0
H594 H 0.29468 0.33584 0.26695 0.0
H595 H 0.35423 0.33164 0.53728 0.0
H596 H 0.35081 0.29813 0.2961 0.0
H597 H 0.28345 0.3505 0.51059 0.0
H598 H 0.34506 0.30832 0.45299 0.0
H599 H 0.28137 0.33009 0.35698 0.0
C600 C 0.30382 0.3258 0.2919 0.0
C601 C 0.32497 0.31869 0.27408 0.0
C602 C 0.33107 0.31697 0.46597 0.0
C603 C 0.31027 0.31266 0.37784 0.0
C604 C 0.33629 0.33023 0.51418 0.0
C605 C 0.3203 0.34396 0.53001 0.0
C606 C 0.30998 0.31786 0.43343 0.0
C607 C 0.29711 0.34125 0.49882 0.0
C608 C 0.29622 0.32256 0.34361 0.0
C609 C 0.33559 0.30533 0.30849 0.0
N610 N 0.29307 0.3291 0.4515 0.0
N611 N 0.32873 0.30346 0.359 0.0
H612 H 0.0848 0.3677 0.59811 0.0
H613 H 0.00381 0.32263 0.80885 0.0
H614 H 0.00453 0.31795 0.5097 0.0
H615 H 0.93693 0.31649 0.70386 0.0
H616 H 0.0278 0.31173 0.73839 0.0
H617 H 0.05815 0.34055 0.67419 0.0
C618 C 0.06179 0.34998 0.59445 0.0
C619 C 0.04649 0.34565 0.54828 0.0
C620 C 0.00776 0.31255 0.73083 0.0
C621 C 0.01542 0.31486 0.6353 0.0
C622 C -0.0059 0.31884 0.771 0.0
C623 C 0.96917 0.32187 0.76162 0.0
C624 C -0.00329 0.31001 0.6809 0.0
C625 C 0.95655 0.31515 0.71257 0.0
C626 C 0.04643 0.33428 0.63804 0.0
C627 C 0.0169 0.32229 0.54508 0.0
N628 N 0.97089 0.31023 0.67374 0.0
N629 N 0.00191 0.30851 0.58861 0.0
H630 H 0.62274 0.92005 0.17877 0.0
H631 H 0.67916 0.03757 0.95646 0.0
H632 H 0.65274 0.01405 0.19353 0.0
H633 H 0.61461 0.94325 0.94444 0.0
H634 H 0.6936 0.02848 0.04011 0.0
H635 H 0.64493 0.92958 0.09345 0.0
C636 C 0.63447 0.94279 0.16452 0.0
C637 C 0.63438 0.96606 0.1919 0.0
C638 C 0.67689 0.00973 1.01827 0.0
C639 C 0.66027 0.97705 0.09534 0.0
C640 C 0.66818 0.01489 0.97077 0.0
C641 C 0.644 -0.00854 0.94472 0.0
C642 C 0.66145 0.98097 0.03949 0.0
C643 C 0.63234 0.96231 0.96388 0.0
C644 C 0.64746 0.94822 0.11617 0.0
C645 C 0.65139 -0.00471 0.173 0.0
N646 N 0.64065 0.958 1.01082 0.0
N647 N 0.663 -0.00011 0.12509 0.0
H648 H 0.59446 0.64854 0.39771 0.0
H649 H 0.51544 0.57516 0.19302 0.0
H650 H 0.6543 0.61972 0.34262 0.0
H651 H 0.59095 0.64658 0.11406 0.0
H652 H 0.54766 0.58194 0.26601 0.0
H653 H 0.57525 0.64389 0.31097 0.0
C654 C 0.60429 0.64221 0.36726 0.0
C655 C 0.62554 0.63384 0.3776 0.0
C656 C 0.5572 0.59542 0.23189 0.0
C657 C 0.6033 0.62808 0.27914 0.0
C658 C 0.53899 0.59149 0.19027 0.0
C659 C 0.55049 0.61075 0.14805 0.0
C660 C 0.58688 0.6187 0.23103 0.0
C661 C 0.58124 0.63147 0.14624 0.0
C662 C 0.59309 0.63928 0.31802 0.0
C663 C 0.63732 0.62561 0.33629 0.0
N664 N 0.59842 0.63553 0.18807 0.0
N665 N 0.62557 0.62229 0.28863 0.0
H666 H 0.94364 0.62126 0.85489 0.0
H667 H 0.01092 0.65176 0.58565 0.0
H668 H 0.03763 0.67852 0.82564 0.0
H669 H 0.91704 0.61692 0.61281 0.0
H670 H 0.02145 0.67299 0.67075 0.0
H671 H 0.93317 0.63026 0.76798 0.0
C672 C 0.96206 0.6363 0.83062 0.0
C673 C -0.00838 0.64809 0.84671 0.0
C674 C -0.00146 0.66116 0.65782 0.0
C675 C -0.02013 0.65803 0.74694 0.0
C676 C -0.00755 0.64889 0.60889 0.0
C677 C 0.96284 0.63098 0.59265 0.0
C678 C -0.02514 0.65494 0.69109 0.0
C679 C 0.9401 0.62899 0.62455 0.0
C680 C 0.95609 0.64146 0.78085 0.0
C681 C 0.01457 0.66779 0.81385 0.0
N682 N 0.94651 0.64004 0.67284 0.0
N683 N 0.00827 0.67154 0.76501 0.0
H684 H 0.5052 0.0712 0.33553 0.0
H685 H 0.44799 0.9037 0.38805 0.0
H686 H 0.42093 -0.00368 0.28738 0.0
H687 H 0.5394 0.97557 0.39338 0.0
H688 H 0.43166 0.94016 0.39798 0.0
H689 H 0.51018 0.03917 0.39775 0.0
C690 C 0.48781 0.04794 0.33775 0.0
C691 C 0.46324 0.03597 0.30462 0.0
C692 C 0.45528 0.9478 0.39881 0.0
C693 C 0.46881 -0.00053 0.37603 0.0
C694 C 0.46457 0.92711 0.39277 0.0
C695 C 0.49494 0.93728 0.38642 0.0
C696 C 0.47668 0.97837 0.39764 0.0
C697 C 0.51569 0.96736 0.39495 0.0
C698 C 0.49041 0.02989 0.37403 0.0
C699 C 0.44088 0.00606 0.31062 0.0
N700 N 0.50614 -0.01285 0.39895 0.0
N701 N 0.4445 -0.0114 0.34504 0.0
H702 H 0.41542 0.4442 0.73107 0.0
H703 H 0.55828 0.57145 0.60993 0.0
H704 H 0.43316 0.5344 0.71055 0.0
H705 H 0.53508 0.4791 0.62585 0.0
H706 H 0.52203 0.56365 0.67642 0.0
H707 H 0.4688 0.46298 0.73222 0.0
C708 C 0.4307 0.46808 0.72796 0.0
C709 C 0.42036 0.48771 0.71714 0.0
C710 C 0.52511 0.54519 0.66564 0.0
C711 C 0.48064 0.50894 0.71593 0.0
C712 C 0.54518 0.54941 0.62681 0.0
C713 C 0.54858 0.52548 0.61082 0.0
C714 C 0.50806 0.51673 0.68781 0.0
C715 C 0.53233 0.49787 0.63577 0.0
C716 C 0.46111 0.47884 0.7288 0.0
C717 C 0.4406 0.51848 0.71627 0.0
N718 N 0.51248 0.49416 0.67257 0.0
N719 N 0.47008 0.5282 0.71347 0.0
H720 H 0.88274 0.42351 0.97571 0.0
H721 H 0.04142 0.52571 0.07603 0.0
H722 H 0.95995 0.41351 0.95863 0.0
H723 H -0.02542 0.55079 0.05512 0.0
H724 H 0.00203 0.4737 0.08512 0.0
H725 H 0.90744 0.4582 0.0462 0.0
C726 C 0.90506 0.42894 0.98638 0.0
C727 C 0.92002 0.41689 0.95974 0.0
C728 C -0.00404 0.49074 0.08046 0.0
C729 C 0.94773 0.4555 0.04113 0.0
C730 C 0.01841 0.52034 0.07483 0.0
C731 C 0.01087 0.5417 0.06026 0.0
C732 C 0.96652 0.4831 0.06942 0.0
C733 C -0.01898 0.53422 0.06228 0.0
C734 C 0.91874 0.44805 1.02738 0.0
C735 C 0.94826 0.42352 0.97645 0.0
N736 N 0.95963 0.5051 0.06499 0.0
N737 N 0.96139 0.44275 1.01572 0.0
H738 H 0.00101 0.41739 0.56304 0.0
H739 H 0.94997 0.50556 0.5081 0.0
H740 H 0.97315 0.38549 0.40888 0.0
H741 H 0.89282 0.44298 0.39306 0.0
H742 H 0.96247 0.46904 0.5379 0.0
H743 H 0.95992 0.42718 0.57012 0.0
C744 C -0.01406 0.41207 0.53098 0.0
C745 C -0.00851 0.40283 0.48394 0.0
C746 C 0.94654 0.4628 0.50708 0.0
C747 C 0.94623 0.41535 0.4908 0.0
C748 C 0.94027 0.48415 0.48884 0.0
C749 C 0.9211 0.47752 0.44714 0.0
C750 C 0.93375 0.43475 0.48297 0.0
C751 C 0.90831 0.44914 0.42465 0.0
C752 C 0.96265 0.41775 0.53495 0.0
C753 C 0.97045 0.39432 0.44478 0.0
N754 N 0.91524 0.42887 0.44243 0.0
N755 N 0.94912 0.40183 0.44837 0.0
H756 H 0.39372 0.95091 0.89385 0.0
H757 H 0.52868 0.06381 0.73504 0.0
H758 H 0.39033 0.98057 0.74067 0.0
H759 H 0.52867 0.01546 0.87005 0.0
H760 H 0.47893 0.05376 0.75755 0.0
H761 H 0.44103 -0.00323 0.90729 0.0
C762 C 0.40286 0.96728 0.86324 0.0
C763 C 0.38972 0.96122 0.81469 0.0
C764 C 0.49005 0.04575 0.78257 0.0
C765 C 0.44336 0.01277 0.82945 0.0
C766 C 0.51803 0.05083 0.76917 0.0
C767 C 0.53189 0.03892 0.7993 0.0
C768 C 0.47579 0.02825 0.8258 0.0
C769 C 0.51796 0.02356 0.84429 0.0
C770 C 0.42953 -0.0064 0.87119 0.0
C771 C 0.40102 0.98379 0.77758 0.0
N772 N 0.49038 0.01826 0.8558 0.0
N773 N 0.42795 0.0084 0.78511 0.0
H774 H 0.48915 0.56538 0.94041 0.0
H775 H 0.38632 0.41819 0.07376 0.0
H776 H 0.41073 0.5446 1.02836 0.0
H777 H 0.47536 0.45102 1.01554 0.0
H778 H 0.38084 0.45194 1.01546 0.0
H779 H 0.46657 0.51271 0.91785 0.0
C780 C 0.46679 0.54986 0.9537 0.0
C781 C 0.45269 0.55845 0.98996 0.0
C782 C 0.40141 0.4514 1.01503 0.0
C783 C 0.42763 0.49891 0.96601 0.0
C784 C 0.40489 0.43281 0.04928 0.0
C785 C 0.43208 0.43325 0.05178 0.0
C786 C 0.42553 0.47107 0.98412 0.0
C787 C 0.45461 0.45115 1.01689 0.0
C788 C 0.45379 0.51983 0.94051 0.0
C789 C 0.42318 0.53809 1.00353 0.0
N790 N 0.45103 0.46976 0.98517 0.0
N791 N 0.41181 0.50879 0.99283 0.0
H792 H 0.37511 0.98143 0.615 0.0
H793 H 0.35444 0.03873 0.33903 0.0
H794 H 0.29076 0.94684 0.53776 0.0
H795 H 0.43892 0.0794 0.41714 0.0
H796 H 0.33106 0.00626 0.41316 0.0
H797 H 0.39909 0.01748 0.54469 0.0
C798 C 0.36154 0.98119 0.58342 0.0
C799 C 0.33059 0.96073 0.58308 0.0
C800 C 0.35465 0.02249 0.4146 0.0
C801 C 0.35822 0.0026 0.50183 0.0
C802 C 0.36806 0.04133 0.37218 0.0
C803 C 0.39879 0.06235 0.37157 0.0
C804 C 0.37192 0.02408 0.45728 0.0
C805 C 0.41512 0.06403 0.41584 0.0
C806 C 0.37531 0.00205 0.54325 0.0
C807 C 0.31446 0.96213 0.54075 0.0
N808 N 0.40161 0.04509 0.45648 0.0
N809 N 0.32837 0.98245 0.50227 0.0
H810 H 0.33741 0.32205 0.99866 0.0
H811 H 0.36242 0.45882 0.82458 0.0
H812 H 0.42488 0.39055 0.9498 0.0
H813 H 0.29337 0.36999 0.78338 0.0
H814 H 0.37941 0.43718 0.89103 0.0
H815 H 0.31542 0.34138 0.93646 0.0
C816 C 0.35199 0.34068 0.97419 0.0
C817 C 0.38312 0.35416 0.97884 0.0
C818 C 0.36007 0.42251 0.86824 0.0
C819 C 0.35804 0.37751 0.91003 0.0
C820 C 0.34998 0.43487 0.83095 0.0
C821 C 0.32602 0.41627 0.79882 0.0
C822 C 0.34578 0.3913 0.87442 0.0
C823 C 0.31158 0.38521 0.80777 0.0
C824 C 0.33941 0.35187 0.93915 0.0
C825 C 0.40083 0.37886 0.94693 0.0
N826 N 0.3216 0.3737 0.84469 0.0
N827 N 0.38811 0.38997 0.9147 0.0
H828 H 0.95114 0.3553 0.9897 0.0
H829 H 0.95846 0.30434 0.27145 0.0
H830 H 0.86903 0.30567 0.0742 0.0
H831 H 0.02232 0.39239 0.21703 0.0
H832 H 0.92678 0.29776 0.19654 0.0
H833 H -0.0209 0.36216 0.0684 0.0
C834 C 0.93886 0.34541 1.0247 0.0
C835 C 0.90748 0.32953 1.02481 0.0
C836 C 0.94763 0.31856 0.20123 0.0
C837 C 0.93992 0.3373 0.11595 0.0
C838 C 0.9658 0.32228 0.24374 0.0
C839 C -0.00684 0.34898 0.25054 0.0
C840 C 0.95725 0.34131 0.16419 0.0
C841 C 0.00142 0.37155 0.21351 0.0
C842 C 0.95498 0.34965 0.06982 0.0
C843 C 0.89311 0.31789 0.07203 0.0
N844 N -0.01615 0.36703 0.17169 0.0
N845 N 0.90942 0.32163 0.11557 0.0
H846 H 0.59732 0.98476 0.71756 0.0
H847 H 0.60503 0.95608 0.42049 0.0
H848 H 0.62639 0.05629 0.60714 0.0
H849 H 0.53619 0.88976 0.51795 0.0
H850 H 0.62218 -0.00851 0.4915 0.0
H851 H 0.58388 0.94904 0.64785 0.0
C852 C 0.60128 -0.00683 0.67864 0.0
C853 C 0.6132 0.0239 0.66855 0.0
C854 C 0.60356 0.96909 0.49749 0.0
C855 C 0.59785 0.98245 0.58796 0.0
C856 C 0.59383 0.94858 0.4571 0.0
C857 C 0.56896 0.91956 0.46287 0.0
C858 C 0.5889 0.96059 0.54483 0.0
C859 C 0.55551 0.91164 0.51152 0.0
C860 C 0.59335 0.97254 0.63882 0.0
C861 C 0.6174 0.03297 0.61696 0.0
N862 N 0.56567 0.93199 0.55054 0.0
N863 N 0.60992 0.01238 0.57862 0.0
H864 H 0.61311 0.6889 0.8443 0.0
H865 H 0.61421 0.54736 0.72031 0.0
H866 H 0.55993 0.5988 0.9022 0.0
H867 H 0.65466 0.6343 0.64881 0.0
H868 H 0.59957 0.56708 0.793 0.0
H869 H 0.63287 0.67039 0.77831 0.0
C870 C 0.6054 0.66523 0.84349 0.0
C871 C 0.58436 0.64557 0.87952 0.0
C872 C 0.61204 0.58198 0.76179 0.0
C873 C 0.60771 0.62409 0.80316 0.0
C874 C 0.62078 0.57081 0.72038 0.0
C875 C 0.63605 0.58919 0.67818 0.0
C876 C 0.61867 0.6119 0.76154 0.0
C877 C 0.64318 0.61926 0.6804 0.0
C878 C 0.61692 0.65466 0.80556 0.0
C879 C 0.57603 0.61511 0.87601 0.0
N880 N 0.63438 0.62956 0.72104 0.0
N881 N 0.58762 0.60542 0.83869 0.0
H882 H 0.02449 0.66302 0.10694 0.0
H883 H 0.91663 0.5245 0.27631 0.0
H884 H 0.04965 0.59898 0.15398 0.0
H885 H 0.93822 0.61153 0.33159 0.0
H886 H 0.95627 0.5488 0.21147 0.0
H887 H -0.01483 0.64296 0.17325 0.0
C888 C 0.02236 0.6454 0.13211 0.0
C889 C 0.04103 0.63326 0.12559 0.0
C890 C 0.95191 0.5625 0.23731 0.0
C891 C -0.00516 0.60894 0.19886 0.0
C892 C 0.92904 0.54869 0.27377 0.0
C893 C 0.92386 0.566 0.3091 0.0
C894 C 0.96924 0.59387 0.23514 0.0
C895 C 0.94129 0.59735 0.30482 0.0
C896 C -0.00028 0.63376 0.16943 0.0
C897 C 0.03647 0.60968 0.15833 0.0
N898 N 0.96305 0.6103 0.26839 0.0
N899 N 0.01356 0.59794 0.19266 0.0
H900 H 0.55928 0.20912 0.41158 0.0
H901 H 0.61911 0.12078 0.57859 0.0
H902 H 0.55246 0.12554 0.36914 0.0
H903 H 0.60951 0.19282 0.63968 0.0
H904 H 0.60476 0.12955 0.49453 0.0
H905 H 0.58759 0.21065 0.4884 0.0
C906 C 0.56426 0.19145 0.41813 0.0
C907 C 0.55332 0.16696 0.38486 0.0
C908 C 0.60594 0.14361 0.52618 0.0
C909 C 0.58534 0.16847 0.47144 0.0
C910 C 0.61396 0.13848 0.57422 0.0
C911 C 0.61481 0.15566 0.61628 0.0
C912 C 0.59848 0.16598 0.52006 0.0
C913 C 0.60891 0.17898 0.60817 0.0
C914 C 0.58019 0.19221 0.46184 0.0
C915 C 0.56013 0.14449 0.39459 0.0
N916 N 0.60056 0.18324 0.561 0.0
N917 N 0.57555 0.1457 0.43712 0.0
H918 H 0.37702 0.60619 0.74262 0.0
H919 H 0.40716 0.62277 0.04267 0.0
H920 H 0.33624 0.53461 0.85285 0.0
H921 H 0.47445 0.67474 0.92971 0.0
H922 H 0.36986 0.60299 0.97493 0.0
H923 H 0.40167 0.64183 0.81302 0.0
C924 C 0.37269 0.59818 0.78178 0.0
C925 C 0.35497 0.56752 0.7923 0.0
C926 C 0.39264 0.61951 0.96533 0.0
C927 C 0.3824 0.60787 0.87233 0.0
C928 C 0.41398 0.63105 1.00402 0.0
C929 C 0.44421 0.64959 0.99153 0.0
C930 C 0.40159 0.62696 0.91418 0.0
C931 C 0.45151 0.65986 0.94082 0.0
C932 C 0.38671 0.61843 0.82172 0.0
C933 C 0.35011 0.55807 0.84344 0.0
N934 N 0.43043 0.6478 0.90363 0.0
N935 N 0.36392 0.57816 0.88164 0.0
H936 H 0.82277 0.40371 1.01168 0.0
H937 H 0.76282 0.38659 0.29794 0.0
H938 H 0.75456 0.31958 0.07328 0.0
H939 H 0.83096 0.46892 0.23012 0.0
H940 H 0.7536 0.36249 0.21364 0.0
H941 H 0.81974 0.42904 0.08801 0.0
C942 C 0.80679 0.39073 0.04129 0.0
C943 C 0.78907 0.35965 0.03683 0.0
C944 C 0.77035 0.3859 0.21723 0.0
C945 C 0.78585 0.38816 0.12496 0.0
C946 C 0.77557 0.39963 0.26521 0.0
C947 C 0.79806 0.42961 0.27105 0.0
C948 C 0.78769 0.40241 0.17503 0.0
C949 C 0.81396 0.44557 0.22756 0.0
C950 C 0.80507 0.40509 0.08491 0.0
C951 C 0.76852 0.34364 0.07571 0.0
N952 N 0.8086 0.43173 0.18157 0.0
N953 N 0.76779 0.35804 0.11883 0.0
H954 H 0.46276 0.82756 0.54799 0.0
H955 H 0.32953 0.849 0.62791 0.0
H956 H 0.38169 0.79099 0.46041 0.0
H957 H 0.39017 0.84968 0.74148 0.0
H958 H 0.3491 0.82812 0.56604 0.0
H959 H 0.43716 0.83487 0.6206 0.0
C960 C 0.43933 0.82042 0.54467 0.0
C961 C 0.42427 0.80886 0.4983 0.0
C962 C 0.35798 0.83256 0.60459 0.0
C963 C 0.39517 0.81776 0.5802 0.0
C964 C 0.34705 0.8448 0.63981 0.0
C965 C 0.35853 0.85142 0.68973 0.0
C966 C 0.381 0.82742 0.61892 0.0
C967 C 0.38087 0.84505 0.70325 0.0
C968 C 0.42478 0.8246 0.58594 0.0
C969 C 0.39399 0.79987 0.49561 0.0
N970 N 0.39174 0.83377 0.66773 0.0
N971 N 0.38055 0.80508 0.53569 0.0
H972 H 0.62933 0.43679 0.72283 0.0
H973 H 0.48283 0.37421 0.89523 0.0
H974 H 0.54829 0.43335 0.67557 0.0
H975 H 0.56968 0.40029 0.95659 0.0
H976 H 0.50391 0.38464 0.80931 0.0
H977 H 0.60476 0.41145 0.80323 0.0
C978 C 0.60617 0.43001 0.72906 0.0
C979 C 0.59076 0.43735 0.6934 0.0
C980 C 0.51833 0.38792 0.84158 0.0
C981 C 0.56281 0.40885 0.78418 0.0
C982 C 0.50637 0.38225 0.89071 0.0
C983 C 0.52467 0.38703 0.93328 0.0
C984 C 0.54882 0.39848 0.83488 0.0
C985 C 0.55482 0.39643 0.92486 0.0
C986 C 0.59227 0.41584 0.77482 0.0
C987 C 0.5609 0.42839 0.70281 0.0
N988 N 0.56606 0.40215 0.87654 0.0
N989 N 0.54793 0.41481 0.74754 0.0
H990 H 0.1058 0.51766 0.41393 0.0
H991 H 0.12596 0.61357 0.20827 0.0
H992 H 0.09009 0.4557 0.29095 0.0
H993 H 0.15398 0.56031 0.12471 0.0
H994 H 0.11659 0.58183 0.28354 0.0
H995 H 0.12628 0.5587 0.35139 0.0
C996 C 0.10642 0.51267 0.37382 0.0
C997 C 0.09583 0.48318 0.35754 0.0
C998 C 0.12574 0.57763 0.24941 0.0
C999 C 0.11927 0.52981 0.28615 0.0
C1000 C 0.13095 0.59566 0.20646 0.0
C1001 C 0.14067 0.58941 0.16044 0.0
C1002 C 0.12994 0.55297 0.24589 0.0
C1003 C 0.14671 0.56595 0.15963 0.0
C1004 C 0.11805 0.53607 0.33819 0.0
C1005 C 0.0976 0.47801 0.30522 0.0
N1006 N 0.14062 0.54814 0.20145 0.0
N1007 N 0.10918 0.50109 0.27151 0.0
loop_
_geom_bond_atom_site_label_1
_geom_bond_atom_site_label_2
_geom_bond_distance
_geom_bond_site_symmetry_2
_ccdc_geom_bond_type
Co0 N5 2.057 . S
Co0 O17 2.021 . S
Co0 O20 2.062 . S
Co0 O24 2.117 . S
Co0 O25 2.020 . S
C1 O21 1.259 . S
C1 O24 1.258 . S
Co2 N11 2.057 . S
Co2 O18 2.117 . S
Co2 O19 2.020 . S
Co2 O21 2.021 . S
Co2 O26 2.062 . S
C3 N5 1.316 . S
C3 N6 1.347 . S
C3 H8 0.931 . S
C4 N5 1.375 . S
C4 C7 1.350 . S
C4 H9 0.930 . S
N5 Co0 2.057 . S
N5 C3 1.316 . S
N5 C4 1.375 . S
N6 C3 1.347 . S
N6 C7 1.373 . S
C7 C4 1.350 . S
C7 N6 1.373 . S
C7 H28 0.931 1_545 S
H8 C3 0.931 . S
H9 C4 0.930 . S
C10 O17 1.259 . S
C10 O18 1.258 . S
N11 Co2 2.057 . S
N11 C12 1.316 . S
N11 C13 1.375 . S
C12 N11 1.316 . S
C12 N14 1.347 . S
C12 H23 0.931 . S
C13 N11 1.375 . S
C13 C15 1.350 . S
C13 H22 0.930 . S
N14 C12 1.347 . S
N14 C15 1.373 . S
C15 C13 1.350 . S
C15 N14 1.373 . S
C15 H29 0.931 . S
C16 O19 1.256 . S
C16 O20 1.255 . S
O17 Co0 2.021 . S
O17 C10 1.259 . S
O18 Co2 2.117 . S
O18 C10 1.258 . S
O19 Co2 2.020 . S
O19 C16 1.256 . S
O20 Co0 2.062 . S
O20 C16 1.255 . S
O21 C1 1.259 . S
O21 Co2 2.021 . S
H22 C13 0.930 . S
H23 C12 0.931 . S
O24 Co0 2.117 . S
O24 C1 1.258 . S
O25 Co0 2.020 . S
O25 C27 1.256 . S
O26 Co2 2.062 . S
O26 C27 1.255 . S
C27 O25 1.256 . S
C27 O26 1.255 . S
H28 C7 0.931 1_565 S
H29 C15 0.931 . S
Co30 N35 2.057 . S
Co30 O47 2.021 . S
Co30 O50 2.062 . S
Co30 O54 2.117 . S
Co30 O55 2.020 . S
C31 O51 1.259 . S
C31 O54 1.258 . S
Co32 N41 2.057 . S
Co32 O48 2.117 . S
Co32 O49 2.020 . S
Co32 O51 2.021 . S
Co32 O56 2.062 . S
C33 N35 1.316 . S
C33 N36 1.347 . S
C33 H38 0.931 . S
C34 N35 1.375 . S
C34 C37 1.350 . S
C34 H39 0.930 . S
N35 Co30 2.057 . S
N35 C33 1.316 . S
N35 C34 1.375 . S
N36 C33 1.347 . S
N36 C37 1.373 . S
C37 C34 1.350 . S
C37 N36 1.373 . S
C37 H58 0.931 . S
H38 C33 0.931 . S
H39 C34 0.930 . S
C40 O47 1.259 . S
C40 O48 1.258 . S
N41 Co32 2.057 . S
N41 C42 1.316 . S
N41 C43 1.375 . S
C42 N41 1.316 . S
C42 N44 1.347 . S
C42 H53 0.931 . S
C43 N41 1.375 . S
C43 C45 1.350 . S
C43 H52 0.930 . S
N44 C42 1.347 . S
N44 C45 1.373 . S
C45 C43 1.350 . S
C45 N44 1.373 . S
C45 H59 0.931 . S
C46 O49 1.256 . S
C46 O50 1.255 . S
O47 Co30 2.021 . S
O47 C40 1.259 . S
O48 Co32 2.117 . S
O48 C40 1.258 . S
O49 Co32 2.020 . S
O49 C46 1.256 . S
O50 Co30 2.062 . S
O50 C46 1.255 . S
O51 C31 1.259 . S
O51 Co32 2.021 . S
H52 C43 0.930 . S
H53 C42 0.931 . S
O54 Co30 2.117 . S
O54 C31 1.258 . S
O55 Co30 2.020 . S
O55 C57 1.256 . S
O56 Co32 2.062 . S
O56 C57 1.255 . S
C57 O55 1.256 . S
C57 O56 1.255 . S
H58 C37 0.931 . S
H59 C45 0.931 . S
Co60 N65 2.057 . S
Co60 O77 2.021 . S
Co60 O80 2.062 . S
Co60 O84 2.117 . S
Co60 O85 2.020 . S
C61 O81 1.259 . S
C61 O84 1.258 . S
Co62 N71 2.057 . S
Co62 O78 2.117 . S
Co62 O79 2.020 . S
Co62 O81 2.021 . S
Co62 O86 2.062 . S
C63 N65 1.316 . S
C63 N66 1.347 . S
C63 H68 0.931 . S
C64 N65 1.375 . S
C64 C67 1.350 . S
C64 H69 0.930 . S
N65 Co60 2.057 . S
N65 C63 1.316 . S
N65 C64 1.375 . S
N66 C63 1.347 . S
N66 C67 1.373 . S
C67 C64 1.350 . S
C67 N66 1.373 . S
C67 H88 0.931 1_655 S
H68 C63 0.931 . S
H69 C64 0.930 . S
C70 O77 1.259 . S
C70 O78 1.258 . S
N71 Co62 2.057 . S
N71 C72 1.316 . S
N71 C73 1.375 . S
C72 N71 1.316 . S
C72 N74 1.347 1_556 S
C72 H83 0.931 . S
C73 N71 1.375 . S
C73 C75 1.348 1_556 S
C73 H82 0.930 . S
N74 C72 1.347 1_554 S
N74 C75 1.374 . S
C75 C73 1.348 1_554 S
C75 N74 1.374 . S
C75 H89 0.932 . S
C76 O79 1.256 . S
C76 O80 1.255 . S
O77 Co60 2.021 . S
O77 C70 1.259 . S
O78 Co62 2.117 . S
O78 C70 1.258 . S
O79 Co62 2.020 . S
O79 C76 1.256 . S
O80 Co60 2.062 . S
O80 C76 1.255 . S
O81 C61 1.259 . S
O81 Co62 2.021 . S
H82 C73 0.930 . S
H83 C72 0.931 . S
O84 Co60 2.117 . S
O84 C61 1.258 . S
O85 Co60 2.020 . S
O85 C87 1.256 . S
O86 Co62 2.062 . S
O86 C87 1.255 . S
C87 O85 1.256 . S
C87 O86 1.255 . S
H88 C67 0.931 1_455 S
H89 C75 0.932 . S
Co90 N95 2.057 . S
Co90 O107 2.021 . S
Co90 O110 2.062 . S
Co90 O114 2.117 . S
Co90 O115 2.020 . S
C91 O111 1.259 . S
C91 O114 1.258 . S
Co92 N101 2.057 . S
Co92 O108 2.117 . S
Co92 O109 2.020 . S
Co92 O111 2.021 . S
Co92 O116 2.062 . S
C93 N95 1.316 . S
C93 N96 1.347 . S
C93 H98 0.931 . S
C94 N95 1.375 . S
C94 C97 1.350 . S
C94 H99 0.930 . S
N95 Co90 2.057 . S
N95 C93 1.316 . S
N95 C94 1.375 . S
N96 C93 1.347 . S
N96 C97 1.373 . S
C97 C94 1.350 . S
C97 N96 1.373 . S
C97 H118 0.946 . S
H98 C93 0.931 . S
H99 C94 0.930 . S
C100 O107 1.259 . S
C100 O108 1.258 . S
N101 Co92 2.057 . S
N101 C102 1.316 . S
N101 C103 1.375 . S
C102 N101 1.316 . S
C102 N104 1.347 . S
C102 H113 0.931 . S
C103 N101 1.375 . S
C103 C105 1.350 . S
C103 H112 0.930 . S
N104 C102 1.347 . S
N104 C105 1.373 . S
C105 C103 1.350 . S
C105 N104 1.373 . S
C105 H119 0.931 . S
C106 O109 1.256 . S
C106 O110 1.255 . S
O107 Co90 2.021 . S
O107 C100 1.259 . S
O108 Co92 2.117 . S
O108 C100 1.258 . S
O109 Co92 2.020 . S
O109 C106 1.256 . S
O110 Co90 2.062 . S
O110 C106 1.255 . S
O111 C91 1.259 . S
O111 Co92 2.021 . S
H112 C103 0.930 . S
H113 C102 0.931 . S
O114 Co90 2.117 . S
O114 C91 1.258 . S
O115 Co90 2.020 . S
O115 C117 1.256 . S
O116 Co92 2.062 . S
O116 C117 1.255 . S
C117 O115 1.256 . S
C117 O116 1.255 . S
H118 C97 0.946 . S
H119 C105 0.931 . S
Co120 N125 2.057 . S
Co120 O137 2.021 . S
Co120 O140 2.062 . S
Co120 O144 2.117 . S
Co120 O145 2.020 . S
C121 O141 1.259 . S
C121 O144 1.258 . S
Co122 N131 2.057 . S
Co122 O138 2.117 . S
Co122 O139 2.020 . S
Co122 O141 2.021 . S
Co122 O146 2.062 . S
C123 N125 1.316 . S
C123 N126 1.347 . S
C123 H128 0.931 . S
C124 N125 1.375 . S
C124 C127 1.350 . S
C124 H129 0.930 . S
N125 Co120 2.057 . S
N125 C123 1.316 . S
N125 C124 1.375 . S
N126 C123 1.347 . S
N126 C127 1.373 . S
C127 C124 1.350 . S
C127 N126 1.373 . S
C127 H148 0.931 . S
H128 C123 0.931 . S
H129 C124 0.930 . S
C130 O137 1.259 . S
C130 O138 1.258 . S
N131 Co122 2.057 . S
N131 C132 1.316 . S
N131 C133 1.375 . S
C132 N131 1.316 . S
C132 N134 1.347 . S
C132 H143 0.931 . S
C133 N131 1.375 . S
C133 C135 1.350 . S
C133 H142 0.930 . S
N134 C132 1.347 . S
N134 C135 1.373 . S
C135 C133 1.350 . S
C135 N134 1.373 . S
C135 H149 0.931 . S
C136 O139 1.256 . S
C136 O140 1.255 . S
O137 Co120 2.021 . S
O137 C130 1.259 . S
O138 Co122 2.117 . S
O138 C130 1.258 . S
O139 Co122 2.020 . S
O139 C136 1.256 . S
O140 Co120 2.062 . S
O140 C136 1.255 . S
O141 C121 1.259 . S
O141 Co122 2.021 . S
H142 C133 0.930 . S
H143 C132 0.931 . S
O144 Co120 2.117 . S
O144 C121 1.258 . S
O145 Co120 2.020 . S
O145 C147 1.256 . S
O146 Co122 2.062 . S
O146 C147 1.255 . S
C147 O145 1.256 . S
C147 O146 1.255 . S
H148 C127 0.931 . S
H149 C135 0.931 . S
Co150 N155 2.057 . S
Co150 O167 2.021 . S
Co150 O170 2.062 . S
Co150 O174 2.117 . S
Co150 O175 2.020 . S
C151 O171 1.259 . S
C151 O174 1.258 . S
Co152 N161 2.057 1_556 S
Co152 O168 2.117 . S
Co152 O169 2.020 . S
Co152 O171 2.021 . S
Co152 O176 2.062 1_556 S
C153 N155 1.316 . S
C153 N156 1.347 . S
C153 H158 0.931 . S
C154 N155 1.375 . S
C154 C157 1.350 . S
C154 H159 0.930 . S
N155 Co150 2.057 . S
N155 C153 1.316 . S
N155 C154 1.375 . S
N156 C153 1.347 . S
N156 C157 1.373 . S
C157 C154 1.350 . S
C157 N156 1.373 . S
C157 H178 0.943 . S
H158 C153 0.931 . S
H159 C154 0.930 . S
C160 O167 1.259 . S
C160 O168 1.258 . S
N161 Co152 2.057 1_554 S
N161 C162 1.316 . S
N161 C163 1.375 . S
C162 N161 1.316 . S
C162 N164 1.347 . S
C162 H173 0.931 . S
C163 N161 1.375 . S
C163 C165 1.350 . S
C163 H172 0.930 . S
N164 C162 1.347 . S
N164 C165 1.373 . S
C165 C163 1.350 . S
C165 N164 1.373 . S
C165 H179 0.931 . S
C166 O169 1.256 . S
C166 O170 1.255 . S
O167 Co150 2.021 . S
O167 C160 1.259 . S
O168 Co152 2.117 . S
O168 C160 1.258 . S
O169 Co152 2.020 . S
O169 C166 1.256 . S
O170 Co150 2.062 . S
O170 C166 1.255 . S
O171 C151 1.259 . S
O171 Co152 2.021 . S
H172 C163 0.930 . S
H173 C162 0.931 . S
O174 Co150 2.117 . S
O174 C151 1.258 . S
O175 Co150 2.020 . S
O175 C177 1.256 1_556 S
O176 Co152 2.062 1_554 S
O176 C177 1.255 . S
C177 O175 1.256 1_554 S
C177 O176 1.255 . S
H178 C157 0.943 . S
H179 C165 0.931 . S
Co180 N185 2.057 . S
Co180 O197 2.021 . S
Co180 O200 2.062 . S
Co180 O204 2.117 . S
Co180 O205 2.020 . S
C181 O201 1.259 . S
C181 O204 1.258 . S
Co182 N191 2.057 . S
Co182 O198 2.117 . S
Co182 O199 2.020 . S
Co182 O201 2.021 . S
Co182 O206 2.062 . S
C183 N185 1.316 . S
C183 N186 1.347 . S
C183 H188 0.931 . S
C184 N185 1.375 . S
C184 C187 1.350 . S
C184 H189 0.930 . S
N185 Co180 2.057 . S
N185 C183 1.316 . S
N185 C184 1.375 . S
N186 C183 1.347 . S
N186 C187 1.373 . S
C187 C184 1.350 . S
C187 N186 1.373 . S
C187 H208 0.931 1_655 S
H188 C183 0.931 . S
H189 C184 0.930 . S
C190 O197 1.259 . S
C190 O198 1.258 . S
N191 Co182 2.057 . S
N191 C192 1.316 . S
N191 C193 1.375 . S
C192 N191 1.316 . S
C192 N194 1.347 . S
C192 H203 0.931 . S
C193 N191 1.375 . S
C193 C195 1.350 . S
C193 H202 0.930 . S
N194 C192 1.347 . S
N194 C195 1.373 . S
C195 C193 1.350 . S
C195 N194 1.373 . S
C195 H209 0.931 . S
C196 O199 1.256 . S
C196 O200 1.255 . S
O197 Co180 2.021 . S
O197 C190 1.259 . S
O198 Co182 2.117 . S
O198 C190 1.258 . S
O199 Co182 2.020 . S
O199 C196 1.256 . S
O200 Co180 2.062 . S
O200 C196 1.255 . S
O201 C181 1.259 . S
O201 Co182 2.021 . S
H202 C193 0.930 . S
H203 C192 0.931 . S
O204 Co180 2.117 . S
O204 C181 1.258 . S
O205 Co180 2.020 . S
O205 C207 1.256 . S
O206 Co182 2.062 . S
O206 C207 1.255 . S
C207 O205 1.256 . S
C207 O206 1.255 . S
H208 C187 0.931 1_455 S
H209 C195 0.931 . S
Co210 N215 2.057 . S
Co210 O227 2.021 . S
Co210 O230 2.062 . S
Co210 O234 2.117 . S
Co210 O235 2.020 . S
C211 O231 1.259 . S
C211 O234 1.258 . S
Co212 N221 2.057 . S
Co212 O228 2.117 . S
Co212 O229 2.020 . S
Co212 O231 2.021 . S
Co212 O236 2.062 . S
C213 N215 1.316 . S
C213 N216 1.347 . S
C213 H218 0.931 . S
C214 N215 1.375 . S
C214 C217 1.350 . S
C214 H219 0.930 . S
N215 Co210 2.057 . S
N215 C213 1.316 . S
N215 C214 1.375 . S
N216 C213 1.347 . S
N216 C217 1.373 . S
C217 C214 1.350 . S
C217 N216 1.373 . S
C217 H238 0.931 . S
H218 C213 0.931 . S
H219 C214 0.930 . S
C220 O227 1.259 . S
C220 O228 1.258 . S
N221 Co212 2.057 . S
N221 C222 1.316 . S
N221 C223 1.375 . S
C222 N221 1.316 . S
C222 N224 1.347 . S
C222 H233 0.931 . S
C223 N221 1.375 . S
C223 C225 1.350 . S
C223 H232 0.930 . S
N224 C222 1.347 . S
N224 C225 1.373 . S
C225 C223 1.350 . S
C225 N224 1.373 . S
C225 H239 0.931 . S
C226 O229 1.256 . S
C226 O230 1.255 . S
O227 Co210 2.021 . S
O227 C220 1.259 . S
O228 Co212 2.117 . S
O228 C220 1.258 . S
O229 Co212 2.020 . S
O229 C226 1.256 . S
O230 Co210 2.062 . S
O230 C226 1.255 . S
O231 C211 1.259 . S
O231 Co212 2.021 . S
H232 C223 0.930 . S
H233 C222 0.931 . S
O234 Co210 2.117 . S
O234 C211 1.258 . S
O235 Co210 2.020 . S
O235 C237 1.256 . S
O236 Co212 2.062 . S
O236 C237 1.255 . S
C237 O235 1.256 . S
C237 O236 1.255 . S
H238 C217 0.931 . S
H239 C225 0.931 . S
Co240 N245 2.057 . S
Co240 O257 2.021 . S
Co240 O260 2.062 . S
Co240 O264 2.117 . S
Co240 O265 2.020 . S
C241 O261 1.259 . S
C241 O264 1.258 . S
Co242 N251 2.057 1_554 S
Co242 O258 2.117 . S
Co242 O259 2.020 . S
Co242 O261 2.021 . S
Co242 O266 2.049 1_554 S
C243 N245 1.316 . S
C243 N246 1.347 . S
C243 H248 0.931 . S
C244 N245 1.375 . S
C244 C247 1.350 . S
C244 H249 0.930 . S
N245 Co240 2.057 . S
N245 C243 1.316 . S
N245 C244 1.375 . S
N246 C243 1.347 . S
N246 C247 1.373 . S
C247 C244 1.350 . S
C247 N246 1.373 . S
C247 H268 0.931 . S
H248 C243 0.931 . S
H249 C244 0.930 . S
C250 O257 1.259 . S
C250 O258 1.258 . S
N251 Co242 2.057 1_556 S
N251 C252 1.316 . S
N251 C253 1.375 . S
C252 N251 1.316 . S
C252 N254 1.347 . S
C252 H263 0.931 . S
C253 N251 1.375 . S
C253 C255 1.350 . S
C253 H262 0.930 . S
N254 C252 1.347 . S
N254 C255 1.373 . S
C255 C253 1.350 . S
C255 N254 1.373 . S
C255 H269 0.931 . S
C256 O259 1.256 . S
C256 O260 1.255 . S
O257 Co240 2.021 . S
O257 C250 1.259 . S
O258 Co242 2.117 . S
O258 C250 1.258 . S
O259 Co242 2.020 . S
O259 C256 1.256 . S
O260 Co240 2.062 . S
O260 C256 1.255 . S
O261 C241 1.259 . S
O261 Co242 2.021 . S
H262 C253 0.930 . S
H263 C252 0.931 . S
O264 Co240 2.117 . S
O264 C241 1.258 . S
O265 Co240 2.020 . S
O265 C267 1.256 . S
O266 Co242 2.049 1_556 S
O266 C267 1.250 1_556 S
C267 O265 1.256 . S
C267 O266 1.250 1_554 S
H268 C247 0.931 . S
H269 C255 0.931 . S
Co270 N275 2.057 . S
Co270 O287 2.021 . S
Co270 O290 2.062 . S
Co270 O294 2.117 . S
Co270 O295 2.020 . S
C271 O291 1.259 . S
C271 O294 1.258 . S
Co272 N281 2.057 . S
Co272 O288 2.117 . S
Co272 O289 2.020 . S
Co272 O291 2.021 . S
Co272 O296 2.062 . S
C273 N275 1.316 . S
C273 N276 1.347 . S
C273 H278 0.931 . S
C274 N275 1.375 . S
C274 C277 1.350 . S
C274 H279 0.930 . S
N275 Co270 2.057 . S
N275 C273 1.316 . S
N275 C274 1.375 . S
N276 C273 1.347 . S
N276 C277 1.373 . S
C277 C274 1.350 . S
C277 N276 1.373 . S
C277 H298 0.931 . S
H278 C273 0.931 . S
H279 C274 0.930 . S
C280 O287 1.259 . S
C280 O288 1.258 . S
N281 Co272 2.057 . S
N281 C282 1.316 . S
N281 C283 1.375 . S
C282 N281 1.316 . S
C282 N284 1.347 . S
C282 H293 0.931 . S
C283 N281 1.375 . S
C283 C285 1.350 . S
C283 H292 0.930 . S
N284 C282 1.347 . S
N284 C285 1.373 . S
C285 C283 1.350 . S
C285 N284 1.373 . S
C285 H299 0.931 . S
C286 O289 1.256 . S
C286 O290 1.255 . S
O287 Co270 2.021 . S
O287 C280 1.259 . S
O288 Co272 2.117 . S
O288 C280 1.258 . S
O289 Co272 2.020 . S
O289 C286 1.256 . S
O290 Co270 2.062 . S
O290 C286 1.255 . S
O291 C271 1.259 . S
O291 Co272 2.021 . S
H292 C283 0.930 . S
H293 C282 0.931 . S
O294 Co270 2.117 . S
O294 C271 1.258 . S
O295 Co270 2.020 . S
O295 C297 1.256 . S
O296 Co272 2.062 . S
O296 C297 1.255 . S
C297 O295 1.256 . S
C297 O296 1.255 . S
H298 C277 0.931 . S
H299 C285 0.931 . S
Co300 N305 2.057 . S
Co300 O317 2.021 . S
Co300 O320 2.062 . S
Co300 O324 2.117 . S
Co300 O325 2.020 . S
C301 O321 1.259 . S
C301 O324 1.258 . S
Co302 N311 2.057 . S
Co302 O318 2.117 . S
Co302 O319 2.020 . S
Co302 O321 2.021 . S
Co302 O326 2.062 . S
C303 N305 1.316 . S
C303 N306 1.347 . S
C303 H308 0.931 . S
C304 N305 1.375 . S
C304 C307 1.350 . S
C304 H309 0.930 . S
N305 Co300 2.057 . S
N305 C303 1.316 . S
N305 C304 1.375 . S
N306 C303 1.347 . S
N306 C307 1.373 . S
C307 C304 1.350 . S
C307 N306 1.373 . S
C307 H328 0.931 1_545 S
H308 C303 0.931 . S
H309 C304 0.930 . S
C310 O317 1.259 . S
C310 O318 1.258 . S
N311 Co302 2.057 . S
N311 C312 1.316 . S
N311 C313 1.375 . S
C312 N311 1.316 . S
C312 N314 1.347 . S
C312 H323 0.931 . S
C313 N311 1.375 . S
C313 C315 1.350 . S
C313 H322 0.930 . S
N314 C312 1.347 . S
N314 C315 1.373 . S
C315 C313 1.350 . S
C315 N314 1.373 . S
C315 H329 0.931 . S
C316 O319 1.256 . S
C316 O320 1.255 . S
O317 Co300 2.021 . S
O317 C310 1.259 . S
O318 Co302 2.117 . S
O318 C310 1.258 . S
O319 Co302 2.020 . S
O319 C316 1.256 . S
O320 Co300 2.062 . S
O320 C316 1.255 . S
O321 C301 1.259 . S
O321 Co302 2.021 . S
H322 C313 0.930 . S
H323 C312 0.931 . S
O324 Co300 2.117 . S
O324 C301 1.258 . S
O325 Co300 2.020 . S
O325 C327 1.256 . S
O326 Co302 2.062 . S
O326 C327 1.255 . S
C327 O325 1.256 . S
C327 O326 1.255 . S
H328 C307 0.931 1_565 S
H329 C315 0.931 . S
Co330 N335 2.057 . S
Co330 O347 2.021 . S
Co330 O350 2.062 . S
Co330 O354 2.117 . S
Co330 O355 2.020 . S
C331 O351 1.259 . S
C331 O354 1.258 . S
Co332 N341 2.057 . S
Co332 O348 2.117 . S
Co332 O349 2.020 . S
Co332 O351 2.021 . S
Co332 O356 2.062 . S
C333 N335 1.316 1_556 S
C333 N336 1.347 . S
C333 H338 0.931 . S
C334 N335 1.375 1_556 S
C334 C337 1.350 . S
C334 H339 0.930 1_556 S
N335 Co330 2.057 . S
N335 C333 1.316 1_554 S
N335 C334 1.375 1_554 S
N336 C333 1.347 . S
N336 C337 1.373 . S
C337 C334 1.350 . S
C337 N336 1.373 . S
C337 H358 0.931 . S
H338 C333 0.931 . S
H339 C334 0.930 1_554 S
C340 O347 1.259 . S
C340 O348 1.258 . S
N341 Co332 2.057 . S
N341 C342 1.316 . S
N341 C343 1.375 . S
C342 N341 1.316 . S
C342 N344 1.347 . S
C342 H353 0.931 . S
C343 N341 1.375 . S
C343 C345 1.350 . S
C343 H352 0.930 . S
N344 C342 1.347 . S
N344 C345 1.373 . S
C345 C343 1.350 . S
C345 N344 1.373 . S
C345 H359 0.931 . S
C346 O349 1.256 . S
C346 O350 1.255 . S
O347 Co330 2.021 . S
O347 C340 1.259 . S
O348 Co332 2.117 . S
O348 C340 1.258 . S
O349 Co332 2.020 . S
O349 C346 1.256 . S
O350 Co330 2.062 . S
O350 C346 1.255 . S
O351 C331 1.259 . S
O351 Co332 2.021 . S
H352 C343 0.930 . S
H353 C342 0.931 . S
O354 Co330 2.117 . S
O354 C331 1.258 . S
O355 Co330 2.020 . S
O355 C357 1.256 . S
O356 Co332 2.062 . S
O356 C357 1.255 . S
C357 O355 1.256 . S
C357 O356 1.255 . S
H358 C337 0.931 . S
H359 C345 0.931 . S
H360 C366 0.930 . S
H361 C370 0.930 . S
H362 C375 0.929 . S
H363 C373 0.929 . S
H364 C368 0.929 . S
H365 C374 0.929 . S
C366 H360 0.930 . S
C366 C367 1.367 . S
C366 C374 1.378 . S
C367 C366 1.367 . S
C367 C375 1.433 . S
C368 H364 0.929 . S
C368 C370 1.378 . S
C368 C372 1.350 . S
C369 C372 1.463 . S
C369 C374 1.350 . S
C369 N377 1.427 . S
C370 H361 0.930 . S
C370 C368 1.378 . S
C370 C371 1.367 . S
C371 C370 1.367 . S
C371 C373 1.433 . S
C372 C368 1.350 . S
C372 C369 1.463 . S
C372 N376 1.427 . S
C373 H363 0.929 . S
C373 C371 1.433 . S
C373 N376 1.384 . S
C374 H365 0.929 . S
C374 C366 1.378 . S
C374 C369 1.350 . S
C375 H362 0.929 . S
C375 C367 1.433 . S
C375 N377 1.384 . S
N376 C372 1.427 . S
N376 C373 1.384 . S
N377 C369 1.427 . S
N377 C375 1.384 . S
H378 C384 0.930 . S
H379 C388 0.930 . S
H380 C393 0.929 . S
H381 C391 0.929 . S
H382 C386 0.929 . S
H383 C392 0.929 . S
C384 H378 0.930 . S
C384 C385 1.367 . S
C384 C392 1.378 . S
C385 C384 1.367 . S
C385 C393 1.433 . S
C386 H382 0.929 . S
C386 C388 1.378 . S
C386 C390 1.350 . S
C387 C390 1.463 . S
C387 C392 1.350 . S
C387 N395 1.427 . S
C388 H379 0.930 . S
C388 C386 1.378 . S
C388 C389 1.367 . S
C389 C388 1.367 . S
C389 C391 1.433 . S
C390 C386 1.350 . S
C390 C387 1.463 . S
C390 N394 1.427 . S
C391 H381 0.929 . S
C391 C389 1.433 . S
C391 N394 1.384 . S
C392 H383 0.929 . S
C392 C384 1.378 . S
C392 C387 1.350 . S
C393 H380 0.929 . S
C393 C385 1.433 . S
C393 N395 1.384 . S
N394 C390 1.427 . S
N394 C391 1.384 . S
N395 C387 1.427 . S
N395 C393 1.384 . S
H396 C402 0.930 . S
H397 C406 0.930 . S
H398 C411 0.929 . S
H399 C409 0.929 . S
H400 C404 0.929 . S
H401 C410 0.929 . S
C402 H396 0.930 . S
C402 C403 1.367 . S
C402 C410 1.378 . S
C403 C402 1.367 . S
C403 C411 1.433 . S
C404 H400 0.929 . S
C404 C406 1.378 . S
C404 C408 1.350 . S
C405 C408 1.463 . S
C405 C410 1.350 . S
C405 N413 1.427 . S
C406 H397 0.930 . S
C406 C404 1.378 . S
C406 C407 1.367 . S
C407 C406 1.367 . S
C407 C409 1.433 . S
C408 C404 1.350 . S
C408 C405 1.463 . S
C408 N412 1.427 . S
C409 H399 0.929 . S
C409 C407 1.433 . S
C409 N412 1.384 . S
C410 H401 0.929 . S
C410 C402 1.378 . S
C410 C405 1.350 . S
C411 H398 0.929 . S
C411 C403 1.433 . S
C411 N413 1.384 . S
N412 C408 1.427 . S
N412 C409 1.384 . S
N413 C405 1.427 . S
N413 C411 1.384 . S
H414 C420 0.930 . S
H415 C424 0.930 . S
H416 C429 0.929 . S
H417 C427 0.929 . S
H418 C422 0.929 . S
H419 C428 0.929 . S
C420 H414 0.930 . S
C420 C421 1.367 . S
C420 C428 1.378 . S
C421 C420 1.367 . S
C421 C429 1.433 . S
C422 H418 0.929 . S
C422 C424 1.378 . S
C422 C426 1.350 . S
C423 C426 1.463 . S
C423 C428 1.350 . S
C423 N431 1.427 . S
C424 H415 0.930 . S
C424 C422 1.378 . S
C424 C425 1.367 . S
C425 C424 1.367 . S
C425 C427 1.433 . S
C426 C422 1.350 . S
C426 C423 1.463 . S
C426 N430 1.427 . S
C427 H417 0.929 . S
C427 C425 1.433 . S
C427 N430 1.384 . S
C428 H419 0.929 . S
C428 C420 1.378 . S
C428 C423 1.350 . S
C429 H416 0.929 . S
C429 C421 1.433 . S
C429 N431 1.384 . S
N430 C426 1.427 . S
N430 C427 1.384 . S
N431 C423 1.427 . S
N431 C429 1.384 . S
H432 C438 0.930 . S
H433 C442 0.930 . S
H434 C447 0.929 . S
H435 C445 0.929 . S
H436 C440 0.929 . S
H437 C446 0.929 . S
C438 H432 0.930 . S
C438 C439 1.367 . S
C438 C446 1.378 . S
C439 C438 1.367 . S
C439 C447 1.433 . S
C440 H436 0.929 . S
C440 C442 1.378 . S
C440 C444 1.350 . S
C441 C444 1.463 . S
C441 C446 1.350 . S
C441 N449 1.427 . S
C442 H433 0.930 . S
C442 C440 1.378 . S
C442 C443 1.367 . S
C443 C442 1.367 . S
C443 C445 1.433 . S
C444 C440 1.350 . S
C444 C441 1.463 . S
C444 N448 1.427 . S
C445 H435 0.929 . S
C445 C443 1.433 . S
C445 N448 1.384 . S
C446 H437 0.929 . S
C446 C438 1.378 . S
C446 C441 1.350 . S
C447 H434 0.929 . S
C447 C439 1.433 . S
C447 N449 1.384 . S
N448 C444 1.427 . S
N448 C445 1.384 . S
N449 C441 1.427 . S
N449 C447 1.384 . S
H450 C456 0.930 . S
H451 C460 0.930 . S
H452 C465 0.929 . S
H453 C463 0.929 . S
H454 C458 0.929 . S
H455 C464 0.929 . S
C456 H450 0.930 . S
C456 C457 1.367 . S
C456 C464 1.378 . S
C457 C456 1.367 . S
C457 C465 1.433 . S
C458 H454 0.929 . S
C458 C460 1.378 . S
C458 C462 1.350 . S
C459 C462 1.463 . S
C459 C464 1.350 . S
C459 N467 1.427 . S
C460 H451 0.930 . S
C460 C458 1.378 . S
C460 C461 1.367 . S
C461 C460 1.367 . S
C461 C463 1.433 . S
C462 C458 1.350 . S
C462 C459 1.463 . S
C462 N466 1.427 . S
C463 H453 0.929 . S
C463 C461 1.433 . S
C463 N466 1.384 . S
C464 H455 0.929 . S
C464 C456 1.378 . S
C464 C459 1.350 . S
C465 H452 0.929 . S
C465 C457 1.433 . S
C465 N467 1.384 . S
N466 C462 1.427 . S
N466 C463 1.384 . S
N467 C459 1.427 . S
N467 C465 1.384 . S
H468 C474 0.930 . S
H469 C478 0.930 . S
H470 C483 0.929 . S
H471 C481 0.929 . S
H472 C476 0.929 . S
H473 C482 0.929 . S
C474 H468 0.930 . S
C474 C475 1.367 . S
C474 C482 1.378 . S
C475 C474 1.367 . S
C475 C483 1.433 . S
C476 H472 0.929 . S
C476 C478 1.378 . S
C476 C480 1.350 1_554 S
C477 C480 1.463 . S
C477 C482 1.350 . S
C477 N485 1.427 . S
C478 H469 0.930 . S
C478 C476 1.378 . S
C478 C479 1.367 . S
C479 C478 1.367 . S
C479 C481 1.433 . S
C480 C476 1.350 1_556 S
C480 C477 1.463 . S
C480 N484 1.427 1_556 S
C481 H471 0.929 . S
C481 C479 1.433 . S
C481 N484 1.384 . S
C482 H473 0.929 . S
C482 C474 1.378 . S
C482 C477 1.350 . S
C483 H470 0.929 . S
C483 C475 1.433 . S
C483 N485 1.384 . S
N484 C480 1.427 1_554 S
N484 C481 1.384 . S
N485 C477 1.427 . S
N485 C483 1.384 . S
H486 C492 0.930 . S
H487 C496 0.930 . S
H488 C501 0.929 . S
H489 C499 0.929 . S
H490 C494 0.929 . S
H491 C500 0.929 . S
C492 H486 0.930 . S
C492 C493 1.367 . S
C492 C500 1.378 . S
C493 C492 1.367 . S
C493 C501 1.433 . S
C494 H490 0.929 . S
C494 C496 1.378 . S
C494 C498 1.350 . S
C495 C498 1.463 . S
C495 C500 1.350 . S
C495 N503 1.427 . S
C496 H487 0.930 . S
C496 C494 1.378 . S
C496 C497 1.367 . S
C497 C496 1.367 . S
C497 C499 1.433 . S
C498 C494 1.350 . S
C498 C495 1.463 . S
C498 N502 1.427 . S
C499 H489 0.929 . S
C499 C497 1.433 . S
C499 N502 1.384 . S
C500 H491 0.929 . S
C500 C492 1.378 . S
C500 C495 1.350 . S
C501 H488 0.929 . S
C501 C493 1.433 . S
C501 N503 1.384 . S
N502 C498 1.427 . S
N502 C499 1.384 . S
N503 C495 1.427 . S
N503 C501 1.384 . S
H504 C510 0.930 . S
H505 C514 0.930 . S
H506 C519 0.929 . S
H507 C517 0.929 . S
H508 C512 0.929 . S
H509 C518 0.929 . S
C510 H504 0.930 . S
C510 C511 1.367 . S
C510 C518 1.378 . S
C511 C510 1.367 . S
C511 C519 1.433 . S
C512 H508 0.929 . S
C512 C514 1.378 . S
C512 C516 1.350 . S
C513 C516 1.463 . S
C513 C518 1.350 . S
C513 N521 1.427 . S
C514 H505 0.930 . S
C514 C512 1.378 . S
C514 C515 1.367 . S
C515 C514 1.367 . S
C515 C517 1.433 . S
C516 C512 1.350 . S
C516 C513 1.463 . S
C516 N520 1.427 . S
C517 H507 0.929 . S
C517 C515 1.433 . S
C517 N520 1.384 . S
C518 H509 0.929 . S
C518 C510 1.378 . S
C518 C513 1.350 . S
C519 H506 0.929 . S
C519 C511 1.433 . S
C519 N521 1.384 . S
N520 C516 1.427 . S
N520 C517 1.384 . S
N521 C513 1.427 . S
N521 C519 1.384 . S
H522 C528 0.930 . S
H523 C532 0.930 . S
H524 C537 0.929 . S
H525 C535 0.929 . S
H526 C530 0.929 . S
H527 C536 0.929 . S
C528 H522 0.930 . S
C528 C529 1.367 . S
C528 C536 1.378 1_556 S
C529 C528 1.367 . S
C529 C537 1.433 . S
C530 H526 0.929 . S
C530 C532 1.378 . S
C530 C534 1.350 . S
C531 C534 1.463 . S
C531 C536 1.350 . S
C531 N539 1.427 . S
C532 H523 0.930 . S
C532 C530 1.378 . S
C532 C533 1.367 . S
C533 C532 1.367 . S
C533 C535 1.433 . S
C534 C530 1.350 . S
C534 C531 1.463 . S
C534 N538 1.427 . S
C535 H525 0.929 . S
C535 C533 1.433 . S
C535 N538 1.384 . S
C536 H527 0.929 . S
C536 C528 1.378 1_554 S
C536 C531 1.350 . S
C537 H524 0.929 . S
C537 C529 1.433 . S
C537 N539 1.384 1_556 S
N538 C534 1.427 . S
N538 C535 1.384 . S
N539 C531 1.427 . S
N539 C537 1.384 1_554 S
H540 C546 0.930 . S
H541 C550 0.930 . S
H542 C555 0.929 . S
H543 C553 0.929 . S
H544 C548 0.929 . S
H545 C554 0.929 . S
C546 H540 0.930 . S
C546 C547 1.367 . S
C546 C554 1.378 . S
C547 C546 1.367 . S
C547 C555 1.433 . S
C548 H544 0.929 . S
C548 C550 1.378 . S
C548 C552 1.350 . S
C549 C552 1.463 . S
C549 C554 1.350 . S
C549 N557 1.427 . S
C550 H541 0.930 . S
C550 C548 1.378 . S
C550 C551 1.367 . S
C551 C550 1.367 . S
C551 C553 1.433 . S
C552 C548 1.350 . S
C552 C549 1.463 . S
C552 N556 1.427 . S
C553 H543 0.929 . S
C553 C551 1.433 . S
C553 N556 1.384 . S
C554 H545 0.929 . S
C554 C546 1.378 . S
C554 C549 1.350 . S
C555 H542 0.929 . S
C555 C547 1.433 . S
C555 N557 1.384 . S
N556 C552 1.427 . S
N556 C553 1.384 . S
N557 C549 1.427 . S
N557 C555 1.384 . S
H558 C564 0.930 . S
H559 C568 0.930 . S
H560 C573 0.929 . S
H561 C571 0.929 . S
H562 C566 0.929 . S
H563 C572 0.929 . S
C564 H558 0.930 . S
C564 C565 1.367 . S
C564 C572 1.378 . S
C565 C564 1.367 . S
C565 C573 1.433 . S
C566 H562 0.929 . S
C566 C568 1.378 . S
C566 C570 1.350 . S
C567 C570 1.463 . S
C567 C572 1.350 . S
C567 N575 1.427 . S
C568 H559 0.930 . S
C568 C566 1.378 . S
C568 C569 1.367 . S
C569 C568 1.367 . S
C569 C571 1.433 . S
C570 C566 1.350 . S
C570 C567 1.463 . S
C570 N574 1.427 . S
C571 H561 0.929 . S
C571 C569 1.433 . S
C571 N574 1.384 . S
C572 H563 0.929 . S
C572 C564 1.378 . S
C572 C567 1.350 . S
C573 H560 0.929 . S
C573 C565 1.433 . S
C573 N575 1.384 . S
N574 C570 1.427 . S
N574 C571 1.384 . S
N575 C567 1.427 . S
N575 C573 1.384 . S
H576 C582 0.930 . S
H577 C586 0.930 . S
H578 C591 0.929 . S
H579 C589 0.938 . S
H580 C584 0.929 . S
H581 C590 0.929 . S
C582 H576 0.930 . S
C582 C583 1.367 . S
C582 C590 1.378 . S
C583 C582 1.367 . S
C583 C591 1.433 . S
C584 H580 0.929 . S
C584 C586 1.378 . S
C584 C588 1.350 1_545 S
C585 C588 1.463 . S
C585 C590 1.350 . S
C585 N593 1.427 . S
C586 H577 0.930 . S
C586 C584 1.378 . S
C586 C587 1.367 1_556 S
C587 C586 1.367 1_554 S
C587 C589 1.433 . S
C588 C584 1.350 1_565 S
C588 C585 1.463 . S
C588 N592 1.427 1_556 S
C589 H579 0.938 . S
C589 C587 1.433 . S
C589 N592 1.384 1_545 S
C590 H581 0.929 . S
C590 C582 1.378 . S
C590 C585 1.350 . S
C591 H578 0.929 . S
C591 C583 1.433 . S
C591 N593 1.384 . S
N592 C588 1.427 1_554 S
N592 C589 1.384 1_565 S
N593 C585 1.427 . S
N593 C591 1.384 . S
H594 C600 0.930 . S
H595 C604 0.930 . S
H596 C609 0.929 . S
H597 C607 0.929 . S
H598 C602 0.929 . S
H599 C608 0.929 . S
C600 H594 0.930 . S
C600 C601 1.367 . S
C600 C608 1.378 . S
C601 C600 1.367 . S
C601 C609 1.433 . S
C602 H598 0.929 . S
C602 C604 1.378 . S
C602 C606 1.350 . S
C603 C606 1.463 . S
C603 C608 1.350 . S
C603 N611 1.427 . S
C604 H595 0.930 . S
C604 C602 1.378 . S
C604 C605 1.367 . S
C605 C604 1.367 . S
C605 C607 1.433 . S
C606 C602 1.350 . S
C606 C603 1.463 . S
C606 N610 1.427 . S
C607 H597 0.929 . S
C607 C605 1.433 . S
C607 N610 1.384 . S
C608 H599 0.929 . S
C608 C600 1.378 . S
C608 C603 1.350 . S
C609 H596 0.929 . S
C609 C601 1.433 . S
C609 N611 1.384 . S
N610 C606 1.427 . S
N610 C607 1.384 . S
N611 C603 1.427 . S
N611 C609 1.384 . S
H612 C618 0.930 . S
H613 C622 0.930 . S
H614 C627 0.929 . S
H615 C625 0.929 . S
H616 C620 0.929 . S
H617 C626 0.929 . S
C618 H612 0.930 . S
C618 C619 1.367 . S
C618 C626 1.378 . S
C619 C618 1.367 . S
C619 C627 1.433 . S
C620 H616 0.929 . S
C620 C622 1.378 . S
C620 C624 1.350 1_655 S
C621 C624 1.463 . S
C621 C626 1.350 . S
C621 N629 1.427 . S
C622 H613 0.930 . S
C622 C620 1.378 . S
C622 C623 1.367 . S
C623 C622 1.367 . S
C623 C625 1.433 . S
C624 C620 1.350 1_455 S
C624 C621 1.463 . S
C624 N628 1.427 . S
C625 H615 0.929 . S
C625 C623 1.433 . S
C625 N628 1.384 1_655 S
C626 H617 0.929 . S
C626 C618 1.378 . S
C626 C621 1.350 . S
C627 H614 0.929 . S
C627 C619 1.433 . S
C627 N629 1.384 . S
N628 C624 1.427 . S
N628 C625 1.384 1_455 S
N629 C621 1.427 . S
N629 C627 1.384 . S
H630 C636 0.930 . S
H631 C640 0.930 . S
H632 C645 0.929 . S
H633 C643 0.929 . S
H634 C638 0.929 1_554 S
H635 C644 0.929 . S
C636 H630 0.930 . S
C636 C637 1.367 . S
C636 C644 1.378 . S
C637 C636 1.367 . S
C637 C645 1.433 . S
C638 H634 0.929 1_556 S
C638 C640 1.378 . S
C638 C642 1.350 . S
C639 C642 1.463 1_564 S
C639 C644 1.350 . S
C639 N647 1.427 1_565 S
C640 H631 0.930 . S
C640 C638 1.378 . S
C640 C641 1.367 . S
C641 C640 1.367 . S
C641 C643 1.433 . S
C642 C638 1.350 . S
C642 C639 1.463 1_546 S
C642 N646 1.427 1_545 S
C643 H633 0.929 . S
C643 C641 1.433 . S
C643 N646 1.384 1_545 S
C644 H635 0.929 . S
C644 C636 1.378 . S
C644 C639 1.350 . S
C645 H632 0.929 . S
C645 C637 1.433 . S
C645 N647 1.384 1_565 S
N646 C642 1.427 1_565 S
N646 C643 1.384 1_565 S
N647 C639 1.427 1_545 S
N647 C645 1.384 1_545 S
H648 C654 0.930 . S
H649 C658 0.930 . S
H650 C663 0.929 . S
H651 C661 0.929 . S
H652 C656 0.929 . S
H653 C662 0.929 . S
C654 H648 0.930 . S
C654 C655 1.367 . S
C654 C662 1.378 . S
C655 C654 1.367 . S
C655 C663 1.433 . S
C656 H652 0.929 . S
C656 C658 1.378 . S
C656 C660 1.350 . S
C657 C660 1.463 . S
C657 C662 1.350 . S
C657 N665 1.427 . S
C658 H649 0.930 . S
C658 C656 1.378 . S
C658 C659 1.367 . S
C659 C658 1.367 . S
C659 C661 1.433 . S
C660 C656 1.350 . S
C660 C657 1.463 . S
C660 N664 1.427 . S
C661 H651 0.929 . S
C661 C659 1.433 . S
C661 N664 1.384 . S
C662 H653 0.929 . S
C662 C654 1.378 . S
C662 C657 1.350 . S
C663 H650 0.929 . S
C663 C655 1.433 . S
C663 N665 1.384 . S
N664 C660 1.427 . S
N664 C661 1.384 . S
N665 C657 1.427 . S
N665 C663 1.384 . S
H666 C672 0.930 . S
H667 C676 0.930 . S
H668 C681 0.929 . S
H669 C679 0.929 . S
H670 C674 0.929 . S
H671 C680 0.929 . S
C672 H666 0.930 . S
C672 C673 1.367 . S
C672 C680 1.378 1_455 S
C673 C672 1.367 . S
C673 C681 1.433 . S
C674 H670 0.929 . S
C674 C676 1.378 1_455 S
C674 C678 1.350 1_455 S
C675 C678 1.463 1_455 S
C675 C680 1.350 1_455 S
C675 N683 1.427 . S
C676 H667 0.930 . S
C676 C674 1.378 1_655 S
C676 C677 1.367 . S
C677 C676 1.367 . S
C677 C679 1.433 . S
C678 C674 1.350 1_655 S
C678 C675 1.463 1_655 S
C678 N682 1.427 . S
C679 H669 0.929 . S
C679 C677 1.433 . S
C679 N682 1.384 . S
C680 H671 0.929 . S
C680 C672 1.378 1_655 S
C680 C675 1.350 1_655 S
C681 H668 0.929 . S
C681 C673 1.433 . S
C681 N683 1.384 . S
N682 C678 1.427 . S
N682 C679 1.384 . S
N683 C675 1.427 . S
N683 C681 1.384 . S
H684 C690 0.930 . S
H685 C694 0.930 . S
H686 C699 0.929 . S
H687 C697 0.929 . S
H688 C692 0.929 . S
H689 C698 0.929 . S
C690 H684 0.930 . S
C690 C691 1.367 . S
C690 C698 1.378 . S
C691 C690 1.367 . S
C691 C699 1.433 . S
C692 H688 0.929 . S
C692 C694 1.378 . S
C692 C696 1.350 . S
C693 C696 1.463 1_545 S
C693 C698 1.350 . S
C693 N701 1.427 . S
C694 H685 0.930 . S
C694 C692 1.378 . S
C694 C695 1.367 . S
C695 C694 1.367 . S
C695 C697 1.433 . S
C696 C692 1.350 . S
C696 C693 1.463 1_565 S
C696 N700 1.427 . S
C697 H687 0.929 . S
C697 C695 1.433 . S
C697 N700 1.384 . S
C698 H689 0.929 . S
C698 C690 1.378 . S
C698 C693 1.350 . S
C699 H686 0.929 . S
C699 C691 1.433 . S
C699 N701 1.384 . S
N700 C696 1.427 . S
N700 C697 1.384 . S
N701 C693 1.427 . S
N701 C699 1.384 . S
H702 C708 0.930 . S
H703 C712 0.930 . S
H704 C717 0.929 . S
H705 C715 0.929 . S
H706 C710 0.929 . S
H707 C716 0.929 . S
C708 H702 0.930 . S
C708 C709 1.367 . S
C708 C716 1.378 . S
C709 C708 1.367 . S
C709 C717 1.433 . S
C710 H706 0.929 . S
C710 C712 1.378 . S
C710 C714 1.350 . S
C711 C714 1.463 . S
C711 C716 1.350 . S
C711 N719 1.427 . S
C712 H703 0.930 . S
C712 C710 1.378 . S
C712 C713 1.367 . S
C713 C712 1.367 . S
C713 C715 1.433 . S
C714 C710 1.350 . S
C714 C711 1.463 . S
C714 N718 1.427 . S
C715 H705 0.929 . S
C715 C713 1.433 . S
C715 N718 1.384 . S
C716 H707 0.929 . S
C716 C708 1.378 . S
C716 C711 1.350 . S
C717 H704 0.929 . S
C717 C709 1.433 . S
C717 N719 1.384 . S
N718 C714 1.427 . S
N718 C715 1.384 . S
N719 C711 1.427 . S
N719 C717 1.384 . S
H720 C726 0.930 . S
H721 C730 0.930 . S
H722 C735 0.929 . S
H723 C733 0.929 1_554 S
H724 C728 0.929 . S
H725 C734 0.929 . S
C726 H720 0.930 . S
C726 C727 1.367 . S
C726 C734 1.378 . S
C727 C726 1.367 . S
C727 C735 1.433 . S
C728 H724 0.929 . S
C728 C730 1.378 . S
C728 C732 1.350 . S
C729 C732 1.463 1_655 S
C729 C734 1.350 . S
C729 N737 1.427 . S
C730 H721 0.930 . S
C730 C728 1.378 . S
C730 C731 1.367 . S
C731 C730 1.367 . S
C731 C733 1.433 . S
C732 C728 1.350 . S
C732 C729 1.463 1_455 S
C732 N736 1.427 . S
C733 H723 0.929 1_556 S
C733 C731 1.433 . S
C733 N736 1.384 . S
C734 H725 0.929 . S
C734 C726 1.378 . S
C734 C729 1.350 . S
C735 H722 0.929 . S
C735 C727 1.433 . S
C735 N737 1.384 . S
N736 C732 1.427 . S
N736 C733 1.384 . S
N737 C729 1.427 . S
N737 C735 1.384 . S
H738 C744 0.930 . S
H739 C748 0.930 . S
H740 C753 0.929 . S
H741 C751 0.929 . S
H742 C746 0.908 1_455 S
H743 C752 0.929 1_655 S
C744 H738 0.930 . S
C744 C745 1.367 . S
C744 C752 1.378 . S
C745 C744 1.367 . S
C745 C753 1.433 . S
C746 H742 0.908 1_655 S
C746 C748 1.404 . S
C746 C750 1.345 . S
C747 C750 1.463 1_455 S
C747 C752 1.350 . S
C747 N755 1.427 . S
C748 H739 0.930 . S
C748 C746 1.404 . S
C748 C749 1.367 . S
C749 C748 1.367 . S
C749 C751 1.433 . S
C750 C746 1.345 . S
C750 C747 1.463 1_655 S
C750 N754 1.427 . S
C751 H741 0.929 . S
C751 C749 1.433 . S
C751 N754 1.384 . S
C752 H743 0.929 1_455 S
C752 C744 1.378 . S
C752 C747 1.350 . S
C753 H740 0.929 . S
C753 C745 1.433 . S
C753 N755 1.384 . S
N754 C750 1.427 . S
N754 C751 1.384 . S
N755 C747 1.427 . S
N755 C753 1.384 . S
H756 C762 0.930 . S
H757 C766 0.930 . S
H758 C771 0.929 . S
H759 C769 0.929 . S
H760 C764 0.929 . S
H761 C770 0.929 . S
C762 H756 0.930 . S
C762 C763 1.367 . S
C762 C770 1.378 . S
C763 C762 1.367 . S
C763 C771 1.433 . S
C764 H760 0.929 . S
C764 C766 1.378 . S
C764 C768 1.350 . S
C765 C768 1.463 1_565 S
C765 C770 1.350 . S
C765 N773 1.399 1_565 S
C766 H757 0.930 . S
C766 C764 1.378 . S
C766 C767 1.367 . S
C767 C766 1.367 . S
C767 C769 1.433 . S
C768 C764 1.350 . S
C768 C765 1.463 1_545 S
C768 N772 1.427 1_545 S
C769 H759 0.929 . S
C769 C767 1.433 . S
C769 N772 1.384 1_545 S
C770 H761 0.929 . S
C770 C762 1.378 . S
C770 C765 1.350 . S
C771 H758 0.929 . S
C771 C763 1.433 . S
C771 N773 1.381 1_565 S
N772 C768 1.427 1_565 S
N772 C769 1.384 1_565 S
N773 C765 1.399 1_545 S
N773 C771 1.381 1_545 S
H774 C780 0.930 . S
H775 C784 0.930 . S
H776 C789 0.929 . S
H777 C787 0.929 . S
H778 C782 0.929 . S
H779 C788 0.929 . S
C780 H774 0.930 . S
C780 C781 1.367 . S
C780 C788 1.378 . S
C781 C780 1.367 . S
C781 C789 1.433 . S
C782 H778 0.929 . S
C782 C784 1.378 . S
C782 C786 1.350 . S
C783 C786 1.463 . S
C783 C788 1.350 . S
C783 N791 1.427 . S
C784 H775 0.930 . S
C784 C782 1.378 . S
C784 C785 1.367 . S
C785 C784 1.367 . S
C785 C787 1.433 . S
C786 C782 1.350 . S
C786 C783 1.463 . S
C786 N790 1.427 . S
C787 H777 0.929 . S
C787 C785 1.433 . S
C787 N790 1.384 . S
C788 H779 0.929 . S
C788 C780 1.378 . S
C788 C783 1.350 . S
C789 H776 0.929 . S
C789 C781 1.433 . S
C789 N791 1.384 . S
N790 C786 1.427 . S
N790 C787 1.384 . S
N791 C783 1.427 . S
N791 C789 1.384 . S
H792 C798 0.930 . S
H793 C802 0.930 . S
H794 C807 0.929 . S
H795 C805 0.929 . S
H796 C800 0.929 1_565 S
H797 C806 0.929 . S
C798 H792 0.930 . S
C798 C799 1.367 . S
C798 C806 1.378 1_565 S
C799 C798 1.367 . S
C799 C807 1.433 . S
C800 H796 0.929 1_545 S
C800 C802 1.378 . S
C800 C804 1.350 . S
C801 C804 1.463 . S
C801 C806 1.350 . S
C801 N809 1.427 1_545 S
C802 H793 0.930 . S
C802 C800 1.378 . S
C802 C803 1.367 . S
C803 C802 1.367 . S
C803 C805 1.433 . S
C804 C800 1.350 . S
C804 C801 1.463 . S
C804 N808 1.427 . S
C805 H795 0.929 . S
C805 C803 1.433 . S
C805 N808 1.384 . S
C806 H797 0.929 . S
C806 C798 1.378 1_545 S
C806 C801 1.350 . S
C807 H794 0.929 . S
C807 C799 1.433 . S
C807 N809 1.384 . S
N808 C804 1.427 . S
N808 C805 1.384 . S
N809 C801 1.427 1_565 S
N809 C807 1.384 . S
H810 C816 0.930 . S
H811 C820 0.930 . S
H812 C825 0.929 . S
H813 C823 0.929 . S
H814 C818 0.929 . S
H815 C824 0.929 . S
C816 H810 0.930 . S
C816 C817 1.367 . S
C816 C824 1.378 . S
C817 C816 1.367 . S
C817 C825 1.433 . S
C818 H814 0.929 . S
C818 C820 1.378 . S
C818 C822 1.350 . S
C819 C822 1.463 . S
C819 C824 1.350 . S
C819 N827 1.427 . S
C820 H811 0.930 . S
C820 C818 1.378 . S
C820 C821 1.367 . S
C821 C820 1.367 . S
C821 C823 1.433 . S
C822 C818 1.350 . S
C822 C819 1.463 . S
C822 N826 1.427 . S
C823 H813 0.929 . S
C823 C821 1.433 . S
C823 N826 1.384 . S
C824 H815 0.929 . S
C824 C816 1.378 . S
C824 C819 1.350 . S
C825 H812 0.929 . S
C825 C817 1.433 . S
C825 N827 1.384 . S
N826 C822 1.427 . S
N826 C823 1.384 . S
N827 C819 1.427 . S
N827 C825 1.384 . S
H828 C834 0.930 1_556 S
H829 C838 0.930 . S
H830 C843 0.929 . S
H831 C841 0.929 . S
H832 C836 0.929 . S
H833 C842 0.929 1_455 S
C834 H828 0.930 1_554 S
C834 C835 1.362 1_554 S
C834 C842 1.378 . S
C835 C834 1.362 1_556 S
C835 C843 1.420 1_556 S
C836 H832 0.929 . S
C836 C838 1.378 1_655 S
C836 C840 1.350 . S
C837 C840 1.463 . S
C837 C842 1.350 . S
C837 N845 1.427 . S
C838 H829 0.930 . S
C838 C836 1.378 1_455 S
C838 C839 1.367 . S
C839 C838 1.367 . S
C839 C841 1.433 . S
C840 C836 1.350 . S
C840 C837 1.463 . S
C840 N844 1.427 1_655 S
C841 H831 0.929 . S
C841 C839 1.433 . S
C841 N844 1.384 . S
C842 H833 0.929 1_655 S
C842 C834 1.378 . S
C842 C837 1.350 . S
C843 H830 0.929 . S
C843 C835 1.420 1_554 S
C843 N845 1.384 . S
N844 C840 1.427 1_455 S
N844 C841 1.384 . S
N845 C837 1.427 . S
N845 C843 1.384 . S
H846 C852 0.930 . S
H847 C856 0.930 . S
H848 C861 0.929 . S
H849 C859 0.929 . S
H850 C854 0.929 1_545 S
H851 C860 0.929 1_565 S
C852 H846 0.930 . S
C852 C853 1.367 . S
C852 C860 1.378 . S
C853 C852 1.367 . S
C853 C861 1.433 . S
C854 H850 0.929 1_565 S
C854 C856 1.378 . S
C854 C858 1.350 . S
C855 C858 1.463 1_545 S
C855 C860 1.350 . S
C855 N863 1.427 . S
C856 H847 0.930 . S
C856 C854 1.378 . S
C856 C857 1.367 . S
C857 C856 1.367 . S
C857 C859 1.433 . S
C858 C854 1.350 . S
C858 C855 1.463 1_565 S
C858 N862 1.427 . S
C859 H849 0.929 . S
C859 C857 1.433 . S
C859 N862 1.384 . S
C860 H851 0.929 1_545 S
C860 C852 1.378 . S
C860 C855 1.350 . S
C861 H848 0.929 . S
C861 C853 1.433 . S
C861 N863 1.384 . S
N862 C858 1.427 . S
N862 C859 1.384 . S
N863 C855 1.427 . S
N863 C861 1.384 . S
H864 C870 0.930 . S
H865 C874 0.930 . S
H866 C879 0.929 . S
H867 C877 0.929 . S
H868 C872 0.929 . S
H869 C878 0.929 . S
C870 H864 0.930 . S
C870 C871 1.367 . S
C870 C878 1.378 . S
C871 C870 1.367 . S
C871 C879 1.433 . S
C872 H868 0.929 . S
C872 C874 1.378 . S
C872 C876 1.350 . S
C873 C876 1.463 . S
C873 C878 1.350 . S
C873 N881 1.427 . S
C874 H865 0.930 . S
C874 C872 1.378 . S
C874 C875 1.367 . S
C875 C874 1.367 . S
C875 C877 1.433 . S
C876 C872 1.350 . S
C876 C873 1.463 . S
C876 N880 1.427 . S
C877 H867 0.929 . S
C877 C875 1.433 . S
C877 N880 1.384 . S
C878 H869 0.929 . S
C878 C870 1.378 . S
C878 C873 1.350 . S
C879 H866 0.929 . S
C879 C871 1.433 . S
C879 N881 1.384 . S
N880 C876 1.427 . S
N880 C877 1.384 . S
N881 C873 1.427 . S
N881 C879 1.384 . S
H882 C888 0.930 . S
H883 C892 0.930 . S
H884 C897 0.929 . S
H885 C895 0.929 . S
H886 C890 0.929 1_455 S
H887 C896 0.929 1_655 S
C888 H882 0.930 . S
C888 C889 1.367 . S
C888 C896 1.378 . S
C889 C888 1.367 . S
C889 C897 1.433 . S
C890 H886 0.929 1_655 S
C890 C892 1.378 . S
C890 C894 1.350 . S
C891 C894 1.463 1_455 S
C891 C896 1.350 . S
C891 N899 1.427 . S
C892 H883 0.930 . S
C892 C890 1.378 . S
C892 C893 1.367 . S
C893 C892 1.367 . S
C893 C895 1.433 . S
C894 C890 1.350 . S
C894 C891 1.463 1_655 S
C894 N898 1.427 . S
C895 H885 0.929 . S
C895 C893 1.433 . S
C895 N898 1.384 . S
C896 H887 0.929 1_455 S
C896 C888 1.378 . S
C896 C891 1.350 . S
C897 H884 0.929 . S
C897 C889 1.433 . S
C897 N899 1.384 . S
N898 C894 1.427 . S
N898 C895 1.384 . S
N899 C891 1.427 . S
N899 C897 1.384 . S
H900 C906 0.930 . S
H901 C910 0.930 . S
H902 C915 0.929 . S
H903 C913 0.929 . S
H904 C908 0.929 . S
H905 C914 0.929 . S
C906 H900 0.930 . S
C906 C907 1.367 . S
C906 C914 1.378 . S
C907 C906 1.367 . S
C907 C915 1.433 . S
C908 H904 0.929 . S
C908 C910 1.378 . S
C908 C912 1.350 . S
C909 C912 1.463 . S
C909 C914 1.350 . S
C909 N917 1.427 . S
C910 H901 0.930 . S
C910 C908 1.378 . S
C910 C911 1.367 . S
C911 C910 1.367 . S
C911 C913 1.433 . S
C912 C908 1.350 . S
C912 C909 1.463 . S
C912 N916 1.427 . S
C913 H903 0.929 . S
C913 C911 1.433 . S
C913 N916 1.384 . S
C914 H905 0.929 . S
C914 C906 1.378 . S
C914 C909 1.350 . S
C915 H902 0.929 . S
C915 C907 1.433 . S
C915 N917 1.384 . S
N916 C912 1.427 . S
N916 C913 1.384 . S
N917 C909 1.427 . S
N917 C915 1.384 . S
H918 C924 0.930 . S
H919 C928 0.930 1_554 S
H920 C933 0.929 . S
H921 C931 0.929 . S
H922 C926 0.929 . S
H923 C932 0.929 . S
C924 H918 0.930 . S
C924 C925 1.367 . S
C924 C932 1.378 . S
C925 C924 1.367 . S
C925 C933 1.433 . S
C926 H922 0.929 . S
C926 C928 1.378 . S
C926 C930 1.350 . S
C927 C930 1.463 . S
C927 C932 1.350 . S
C927 N935 1.427 . S
C928 H919 0.930 1_556 S
C928 C926 1.378 . S
C928 C929 1.367 . S
C929 C928 1.367 . S
C929 C931 1.433 . S
C930 C926 1.350 . S
C930 C927 1.463 . S
C930 N934 1.427 . S
C931 H921 0.929 . S
C931 C929 1.433 . S
C931 N934 1.384 . S
C932 H923 0.929 . S
C932 C924 1.378 . S
C932 C927 1.350 . S
C933 H920 0.929 . S
C933 C925 1.433 . S
C933 N935 1.384 . S
N934 C930 1.427 . S
N934 C931 1.384 . S
N935 C927 1.427 . S
N935 C933 1.384 . S
H936 C942 0.930 . S
H937 C946 0.930 . S
H938 C951 0.929 . S
H939 C949 0.929 . S
H940 C944 0.929 . S
H941 C950 0.929 . S
C942 H936 0.930 . S
C942 C943 1.367 . S
C942 C950 1.378 . S
C943 C942 1.367 . S
C943 C951 1.433 . S
C944 H940 0.929 . S
C944 C946 1.378 . S
C944 C948 1.350 . S
C945 C948 1.463 . S
C945 C950 1.350 . S
C945 N953 1.427 . S
C946 H937 0.930 . S
C946 C944 1.378 . S
C946 C947 1.367 . S
C947 C946 1.367 . S
C947 C949 1.433 . S
C948 C944 1.350 . S
C948 C945 1.463 . S
C948 N952 1.427 . S
C949 H939 0.929 . S
C949 C947 1.433 . S
C949 N952 1.384 . S
C950 H941 0.929 . S
C950 C942 1.378 . S
C950 C945 1.350 . S
C951 H938 0.929 . S
C951 C943 1.433 . S
C951 N953 1.384 . S
N952 C948 1.427 . S
N952 C949 1.384 . S
N953 C945 1.427 . S
N953 C951 1.384 . S
H954 C960 0.930 . S
H955 C964 0.930 . S
H956 C969 0.929 . S
H957 C967 0.929 . S
H958 C962 0.929 . S
H959 C968 0.929 . S
C960 H954 0.930 . S
C960 C961 1.367 . S
C960 C968 1.378 . S
C961 C960 1.367 . S
C961 C969 1.433 . S
C962 H958 0.929 . S
C962 C964 1.378 . S
C962 C966 1.350 . S
C963 C966 1.463 . S
C963 C968 1.350 . S
C963 N971 1.427 . S
C964 H955 0.930 . S
C964 C962 1.378 . S
C964 C965 1.367 . S
C965 C964 1.367 . S
C965 C967 1.433 . S
C966 C962 1.350 . S
C966 C963 1.463 . S
C966 N970 1.427 . S
C967 H957 0.929 . S
C967 C965 1.433 . S
C967 N970 1.384 . S
C968 H959 0.929 . S
C968 C960 1.378 . S
C968 C963 1.350 . S
C969 H956 0.929 . S
C969 C961 1.433 . S
C969 N971 1.384 . S
N970 C966 1.427 . S
N970 C967 1.384 . S
N971 C963 1.427 . S
N971 C969 1.384 . S
H972 C978 0.930 . S
H973 C982 0.930 . S
H974 C987 0.929 . S
H975 C985 0.929 . S
H976 C980 0.929 . S
H977 C986 0.929 . S
C978 H972 0.930 . S
C978 C979 1.367 . S
C978 C986 1.378 . S
C979 C978 1.367 . S
C979 C987 1.433 . S
C980 H976 0.929 . S
C980 C982 1.378 . S
C980 C984 1.350 . S
C981 C984 1.463 . S
C981 C986 1.350 . S
C981 N989 1.427 . S
C982 H973 0.930 . S
C982 C980 1.378 . S
C982 C983 1.367 . S
C983 C982 1.367 . S
C983 C985 1.433 . S
C984 C980 1.350 . S
C984 C981 1.463 . S
C984 N988 1.427 . S
C985 H975 0.929 . S
C985 C983 1.433 . S
C985 N988 1.384 . S
C986 H977 0.929 . S
C986 C978 1.378 . S
C986 C981 1.350 . S
C987 H974 0.929 . S
C987 C979 1.433 . S
C987 N989 1.384 . S
N988 C984 1.427 . S
N988 C985 1.384 . S
N989 C981 1.427 . S
N989 C987 1.384 . S
H990 C996 0.930 . S
H991 C1000 0.930 . S
H992 C1005 0.929 . S
H993 C1003 0.929 . S
H994 C998 0.929 . S
H995 C1004 0.929 . S
C996 H990 0.930 . S
C996 C997 1.367 . S
C996 C1004 1.378 . S
C997 C996 1.367 . S
C997 C1005 1.433 . S
C998 H994 0.929 . S
C998 C1000 1.378 . S
C998 C1002 1.350 . S
C999 C1002 1.463 . S
C999 C1004 1.350 . S
C999 N1007 1.427 . S
C1000 H991 0.930 . S
C1000 C998 1.378 . S
C1000 C1001 1.367 . S
C1001 C1000 1.367 . S
C1001 C1003 1.433 . S
C1002 C998 1.350 . S
C1002 C999 1.463 . S
C1002 N1006 1.427 . S
C1003 H993 0.929 . S
C1003 C1001 1.433 . S
C1003 N1006 1.384 . S
C1004 H995 0.929 . S
C1004 C996 1.378 . S
C1004 C999 1.350 . S
C1005 H992 0.929 . S
C1005 C997 1.433 . S
C1005 N1007 1.384 . S
N1006 C1002 1.427 . S
N1006 C1003 1.384 . S
N1007 C999 1.427 . S
N1007 C1005 1.384 . S
C367 C10 0.732 . S
C371 C250 0.729 . S
C385 C40 1.067 . S
C389 C271 1.070 . S
C403 C70 0.747 . S
C407 C310 0.749 . S
C421 C331 1.085 . S
C425 C100 1.088 . S
C439 C130 0.746 . S
C443 C190 0.745 . S
C457 C211 1.074 . S
C461 C160 1.070 . S
C475 C316 2.152 . S
C479 C16 2.178 . S
C493 N344 1.553 . S
C497 C46 1.645 . S
C511 C76 2.172 . S
C515 C196 2.160 . S
C529 N224 1.554 . S
C533 C106 1.642 . S
C547 C256 2.152 . S
C551 C136 2.178 . S
C565 C166 1.641 . S
C569 N284 1.557 . S
C583 C237 0.708 . S
C587 N6 0.749 . S
C601 N246 0.580 . S
C605 N36 0.577 . S
C619 C297 0.707 . S
C623 N66 0.750 . S
C637 N96 0.602 . S
C641 N306 0.615 . S
C655 N126 0.745 . S
C659 C357 0.703 . S
C673 N156 0.585 . S
C677 N186 0.572 . S
C691 C1 0.646 . S
C695 C91 0.647 . S
C709 C31 0.658 . S
C713 C121 0.657 . S
C727 C61 0.648 . S
C731 C151 0.649 . S
C745 C280 0.525 . S
C749 C181 0.557 . S
C763 C220 0.520 . S
C767 C301 0.533 . S
C781 C340 0.527 . S
C785 C241 0.550 . S
C799 N216 2.043 . S
C803 C27 2.021 . S
C817 C267 2.167 1_556 S
C821 C57 2.168 . S
C835 C87 2.033 . S
C839 N276 2.047 . S
C853 C327 2.165 . S
C857 C117 2.167 . S
C871 N336 2.048 . S
C875 C147 2.016 . S
C889 C177 2.176 . S
C893 C207 2.156 . S
C907 N14 0.612 . S
C911 N314 0.610 . S
C925 N44 1.141 . S
C929 C346 1.137 1_556 S
C943 N74 0.606 . S
C947 N194 0.607 . S
C961 N104 1.143 . S
C965 C226 1.138 . S
C979 N134 0.612 . S
C983 N254 0.610 . S
C997 C286 1.137 . S
C1001 N164 1.141 . S
