# Generated by pormake.
# Topology lcy-e, (6)-cn, num edge types: 1
# Building blocks:
#     Node 0, Type 0, BuildingBlock: BETFEN_clean_sbu_0, # of connection points: 6
#     Node 1, Type 0, BuildingBlock: BETFEN_clean_sbu_0, # of connection points: 6
#     Node 2, Type 0, BuildingBlock: BETFEN_clean_sbu_0, # of connection points: 6
#     Node 3, Type 0, BuildingBlock: BETFEN_clean_sbu_0, # of connection points: 6
#     Node 4, Type 0, BuildingBlock: BETFEN_clean_sbu_0, # of connection points: 6
#     Node 5, Type 0, BuildingBlock: BETFEN_clean_sbu_0, # of connection points: 6
#     Node 6, Type 0, BuildingBlock: BETFEN_clean_sbu_0, # of connection points: 6
#     Node 7, Type 0, BuildingBlock: BETFEN_clean_sbu_0, # of connection points: 6
#     Node 8, Type 0, BuildingBlock: BETFEN_clean_sbu_0, # of connection points: 6
#     Node 9, Type 0, BuildingBlock: BETFEN_clean_sbu_0, # of connection points: 6
#     Node 10, Type 0, BuildingBlock: BETFEN_clean_sbu_0, # of connection points: 6
#     Node 11, Type 0, BuildingBlock: BETFEN_clean_sbu_0, # of connection points: 6
#     Edge 12, Type (0, 0), BuildingBlock: KIFKEQ_clean_linker_1, # of connection points: 2
#     Edge 13, Type (0, 0), BuildingBlock: KIFKEQ_clean_linker_1, # of connection points: 2
#     Edge 14, Type (0, 0), BuildingBlock: KIFKEQ_clean_linker_1, # of connection points: 2
#     Edge 15, Type (0, 0), BuildingBlock: KIFKEQ_clean_linker_1, # of connection points: 2
#     Edge 16, Type (0, 0), BuildingBlock: KIFKEQ_clean_linker_1, # of connection points: 2
#     Edge 17, Type (0, 0), BuildingBlock: KIFKEQ_clean_linker_1, # of connection points: 2
#     Edge 18, Type (0, 0), BuildingBlock: KIFKEQ_clean_linker_1, # of connection points: 2
#     Edge 19, Type (0, 0), BuildingBlock: KIFKEQ_clean_linker_1, # of connection points: 2
#     Edge 20, Type (0, 0), BuildingBlock: KIFKEQ_clean_linker_1, # of connection points: 2
#     Edge 21, Type (0, 0), BuildingBlock: KIFKEQ_clean_linker_1, # of connection points: 2
#     Edge 22, Type (0, 0), BuildingBlock: KIFKEQ_clean_linker_1, # of connection points: 2
#     Edge 23, Type (0, 0), BuildingBlock: KIFKEQ_clean_linker_1, # of connection points: 2
#     Edge 24, Type (0, 0), BuildingBlock: KIFKEQ_clean_linker_1, # of connection points: 2
#     Edge 25, Type (0, 0), BuildingBlock: KIFKEQ_clean_linker_1, # of connection points: 2
#     Edge 26, Type (0, 0), BuildingBlock: KIFKEQ_clean_linker_1, # of connection points: 2
#     Edge 27, Type (0, 0), BuildingBlock: KIFKEQ_clean_linker_1, # of connection points: 2
#     Edge 28, Type (0, 0), BuildingBlock: KIFKEQ_clean_linker_1, # of connection points: 2
#     Edge 29, Type (0, 0), BuildingBlock: KIFKEQ_clean_linker_1, # of connection points: 2
#     Edge 30, Type (0, 0), BuildingBlock: KIFKEQ_clean_linker_1, # of connection points: 2
#     Edge 31, Type (0, 0), BuildingBlock: KIFKEQ_clean_linker_1, # of connection points: 2
#     Edge 32, Type (0, 0), BuildingBlock: KIFKEQ_clean_linker_1, # of connection points: 2
#     Edge 33, Type (0, 0), BuildingBlock: KIFKEQ_clean_linker_1, # of connection points: 2
#     Edge 34, Type (0, 0), BuildingBlock: KIFKEQ_clean_linker_1, # of connection points: 2
#     Edge 35, Type (0, 0), BuildingBlock: KIFKEQ_clean_linker_1, # of connection points: 2
#     Edge 36, Type (0, 0), BuildingBlock: KIFKEQ_clean_linker_1, # of connection points: 2
#     Edge 37, Type (0, 0), BuildingBlock: KIFKEQ_clean_linker_1, # of connection points: 2
#     Edge 38, Type (0, 0), BuildingBlock: KIFKEQ_clean_linker_1, # of connection points: 2
#     Edge 39, Type (0, 0), BuildingBlock: KIFKEQ_clean_linker_1, # of connection points: 2
#     Edge 40, Type (0, 0), BuildingBlock: KIFKEQ_clean_linker_1, # of connection points: 2
#     Edge 41, Type (0, 0), BuildingBlock: KIFKEQ_clean_linker_1, # of connection points: 2
#     Edge 42, Type (0, 0), BuildingBlock: KIFKEQ_clean_linker_1, # of connection points: 2
#     Edge 43, Type (0, 0), BuildingBlock: KIFKEQ_clean_linker_1, # of connection points: 2
#     Edge 44, Type (0, 0), BuildingBlock: KIFKEQ_clean_linker_1, # of connection points: 2
#     Edge 45, Type (0, 0), BuildingBlock: KIFKEQ_clean_linker_1, # of connection points: 2
#     Edge 46, Type (0, 0), BuildingBlock: KIFKEQ_clean_linker_1, # of connection points: 2
#     Edge 47, Type (0, 0), BuildingBlock: KIFKEQ_clean_linker_1, # of connection points: 2
# Relax obj value: 0.212
# Max RMSD: 0.305
# Mean RMSD: 0.292
data_MOF--net-lcy-e--node1-BETFEN_clean_sbu_0--edge1-KIFKEQ_clean_linker_1
_symmetry_space_group_name_H-M    P1
_symmetry_Int_Tables_number       1
_symmetry_cell_setting            triclinic
loop_
_symmetry_equiv_pos_as_xyz
'x, y, z'
_cell_length_a     45.310202
_cell_length_b     44.007539
_cell_length_c     46.443154
_cell_angle_alpha  89.875585
_cell_angle_beta   88.275521
_cell_angle_gamma 88.328342
loop_
_atom_site_label
_atom_site_type_symbol
_atom_site_fract_x
_atom_site_fract_y
_atom_site_fract_z
_atom_type_partial_charge
Pr0 Pr 0.12437 0.24183 0.50927 0.0
Pr1 Pr 0.10861 0.28427 0.46088 0.0
C2 C 0.13487 0.21138 0.55853 0.0
C3 C 0.12134 0.18546 0.57326 0.0
C4 C 0.13719 0.16892 0.59376 0.0
C5 C 0.12517 0.14313 0.60661 0.0
C6 C 0.09708 0.13341 0.5991 0.0
C7 C 0.08111 0.15037 0.57878 0.0
C8 C 0.09318 0.17613 0.5659 0.0
C9 C 0.15751 0.23096 0.45824 0.0
C10 C 0.07283 0.21928 0.46802 0.0
C11 C 0.09869 0.31019 0.40913 0.0
C12 C 0.11343 0.32472 0.38388 0.0
C13 C 0.11971 0.35583 0.38378 0.0
C14 C 0.13129 0.36968 0.35887 0.0
C15 C 0.13665 0.35279 0.33344 0.0
C16 C 0.1309 0.32156 0.33379 0.0
C17 C 0.11935 0.30775 0.35864 0.0
C18 C 0.07712 0.29609 0.51281 0.0
C19 C 0.15639 0.30909 0.5032 0.0
O20 O 0.11879 0.23648 0.5576 0.0
O21 O 0.14874 0.20512 0.53412 0.0
O22 O 0.15165 0.25692 0.46882 0.0
O23 O 0.14574 0.20972 0.47382 0.0
O24 O 0.08224 0.24071 0.45043 0.0
O25 O 0.08279 0.21673 0.4943 0.0
O26 O 0.10373 0.28104 0.41275 0.0
O27 O 0.09624 0.32522 0.43343 0.0
O28 O 0.08241 0.27017 0.50207 0.0
O29 O 0.08596 0.31722 0.49529 0.0
O30 O 0.14689 0.28786 0.52114 0.0
O31 O 0.14982 0.30873 0.47581 0.0
H32 H 0.15898 0.17578 0.59961 0.0
H33 H 0.13786 0.13082 0.62248 0.0
H34 H 0.05958 0.14333 0.57231 0.0
H35 H 0.08072 0.18851 0.5499 0.0
H36 H 0.11512 0.36967 0.40274 0.0
H37 H 0.13513 0.39384 0.35927 0.0
H38 H 0.13513 0.30777 0.31475 0.0
H39 H 0.11455 0.2838 0.35788 0.0
Pr40 Pr 0.97307 0.89647 0.7222 0.0
Pr41 Pr 0.02368 0.9071 0.76333 0.0
C42 C 0.92377 0.89098 0.69147 0.0
C43 C 0.91348 0.90226 0.66333 0.0
C44 C 0.89421 0.88492 0.6475 0.0
C45 C 0.88454 0.89511 0.62067 0.0
C46 C 0.89388 0.92297 0.60907 0.0
C47 C 0.91317 0.94035 0.62508 0.0
C48 C 0.92298 0.93004 0.65185 0.0
C49 C 0.02553 0.86347 0.70885 0.0
C50 C 0.0186 0.95031 0.70443 0.0
C51 C 0.07538 0.91199 0.7903 0.0
C52 C 0.09714 0.89571 0.80835 0.0
C53 C 0.10984 0.91143 0.83086 0.0
C54 C 0.13176 0.89748 0.84734 0.0
C55 C 0.14159 0.86736 0.84174 0.0
C56 C 0.12856 0.85147 0.81931 0.0
C57 C 0.10651 0.86548 0.8028 0.0
C58 C 0.96994 0.93713 0.77842 0.0
C59 C 0.97835 0.85727 0.78361 0.0
O60 O 0.92634 0.91125 0.7117 0.0
O61 O 0.9455 0.87077 0.69075 0.0
O62 O 0.0142 0.867 0.73379 0.0
O63 O 0.00972 0.87738 0.68973 0.0
O64 O 0.0355 0.93936 0.72486 0.0
O65 O 0.99199 0.93999 0.70042 0.0
O66 O 0.07358 0.90355 0.7634 0.0
O67 O 0.04982 0.91991 0.80229 0.0
O68 O 0.98119 0.93515 0.75326 0.0
O69 O 0.98783 0.92542 0.79707 0.0
O70 O 0.95968 0.87045 0.76558 0.0
O71 O 1.00686 0.86174 0.78099 0.0
H72 H 0.88661 0.86344 0.6559 0.0
H73 H 0.8694 0.8813 0.60917 0.0
H74 H 0.92108 0.96172 0.61671 0.0
H75 H 0.93807 0.94375 0.66355 0.0
H76 H 0.10315 0.93481 0.8354 0.0
H77 H 0.14153 0.91066 0.86406 0.0
H78 H 0.13531 0.82817 0.81456 0.0
H79 H 0.09702 0.85279 0.78557 0.0
Pr80 Pr 0.37123 0.74865 0.97624 0.0
Pr81 Pr 0.34931 0.79645 0.01876 0.0
C82 C 0.38513 0.70041 0.94242 0.0
C83 C 0.37854 0.69294 0.91246 0.0
C84 C 0.39215 0.66757 0.89892 0.0
C85 C 0.38333 0.65853 0.87165 0.0
C86 C 0.36053 0.6746 0.85768 0.0
C87 C 0.34758 0.70055 0.87103 0.0
C88 C 0.3566 0.70971 0.8981 0.0
C89 C 0.39454 0.80627 0.96493 0.0
C90 C 0.31407 0.79122 0.95939 0.0
C91 C 0.33928 0.84369 0.05486 0.0
C92 C 0.35582 0.86602 0.07083 0.0
C93 C 0.34181 0.88165 0.09388 0.0
C94 C 0.35654 0.90418 0.10837 0.0
C95 C 0.38558 0.91154 0.10002 0.0
C96 C 0.39973 0.89544 0.07711 0.0
C97 C 0.38498 0.87278 0.06267 0.0
C98 C 0.31958 0.74097 0.02237 0.0
C99 C 0.40473 0.75292 0.03893 0.0
O100 O 0.362 0.70187 0.95993 0.0
O101 O 0.40345 0.7224 0.94637 0.0
O102 O 0.39161 0.79425 0.98951 0.0
O103 O 0.38392 0.78892 0.94545 0.0
O104 O 0.32495 0.81095 0.97717 0.0
O105 O 0.32464 0.76298 0.9586 0.0
O106 O 0.34022 0.84638 0.02677 0.0
O107 O 0.34099 0.81547 0.06373 0.0
O108 O 0.34669 0.74469 0.01917 0.0
O109 O 0.3058 0.76713 0.0252 0.0
O110 O 0.39931 0.73514 0.0168 0.0
O111 O 0.39175 0.77996 0.0419 0.0
H112 H 0.40897 0.65425 0.90975 0.0
H113 H 0.39356 0.63831 0.862 0.0
H114 H 0.33022 0.71358 0.86067 0.0
H115 H 0.34583 0.72941 0.90822 0.0
H116 H 0.31926 0.87677 0.10037 0.0
H117 H 0.34487 0.9164 0.12566 0.0
H118 H 0.42219 0.90033 0.07037 0.0
H119 H 0.39618 0.8608 0.04494 0.0
Pr120 Pr 0.51757 0.14247 0.21609 0.0
Pr121 Pr 0.46565 0.13585 0.26038 0.0
C122 C 0.56635 0.14491 0.18125 0.0
C123 C 0.57457 0.13696 0.151 0.0
C124 C 0.59307 0.15586 0.13471 0.0
C125 C 0.60215 0.14788 0.10654 0.0
C126 C 0.59305 0.12067 0.09407 0.0
C127 C 0.57417 0.10196 0.11032 0.0
C128 C 0.5649 0.11008 0.1384 0.0
C129 C 0.4664 0.17677 0.20403 0.0
C130 C 0.47 0.09009 0.20261 0.0
C131 C 0.41189 0.13452 0.28709 0.0
C132 C 0.38727 0.15173 0.30201 0.0
C133 C 0.38835 0.15918 0.33139 0.0
C134 C 0.3634 0.17167 0.34609 0.0
C135 C 0.33673 0.17678 0.33182 0.0
C136 C 0.33603 0.17027 0.30222 0.0
C137 C 0.36094 0.15784 0.28754 0.0
C138 C 0.51627 0.10148 0.27352 0.0
C139 C 0.51571 0.18113 0.27806 0.0
O140 O 0.5608 0.1222 0.19853 0.0
O141 O 0.54828 0.1683 0.1856 0.0
O142 O 0.47732 0.17409 0.22862 0.0
O143 O 0.48195 0.16145 0.18483 0.0
O144 O 0.45355 0.10192 0.22393 0.0
O145 O 0.49676 0.09963 0.19647 0.0
O146 O 0.41573 0.1384 0.25927 0.0
O147 O 0.43664 0.12972 0.30048 0.0
O148 O 0.50638 0.1054 0.24863 0.0
O149 O 0.49804 0.11261 0.29315 0.0
O150 O 0.53295 0.1665 0.25872 0.0
O151 O 0.48676 0.17907 0.27784 0.0
H152 H 0.60087 0.17664 0.14394 0.0
H153 H 0.61694 0.16267 0.09478 0.0
H154 H 0.56647 0.08105 0.1013 0.0
H155 H 0.55039 0.09515 0.15035 0.0
H156 H 0.40816 0.15448 0.34331 0.0
H157 H 0.36467 0.17611 0.36894 0.0
H158 H 0.31601 0.1743 0.29044 0.0
H159 H 0.35927 0.15212 0.26498 0.0
Pr160 Pr 0.62884 0.24718 0.52889 0.0
Pr161 Pr 0.63484 0.30888 0.48918 0.0
C162 C 0.63809 0.19289 0.5546 0.0
C163 C 0.6445 0.18136 0.58378 0.0
C164 C 0.62801 0.15768 0.59563 0.0
C165 C 0.63442 0.14582 0.6228 0.0
C166 C 0.65767 0.15725 0.63869 0.0
C167 C 0.6739 0.1813 0.62686 0.0
C168 C 0.66734 0.19329 0.59979 0.0
C169 C 0.58489 0.291 0.54491 0.0
C170 C 0.67345 0.30139 0.55001 0.0
C171 C 0.63454 0.36602 0.46808 0.0
C172 C 0.6216 0.38738 0.44701 0.0
C173 C 0.64028 0.40704 0.43186 0.0
C174 C 0.62862 0.42953 0.41381 0.0
C175 C 0.59793 0.43292 0.4105 0.0
C176 C 0.57923 0.41274 0.42528 0.0
C177 C 0.59095 0.39016 0.44336 0.0
C178 C 0.6683 0.25729 0.47204 0.0
C179 C 0.59399 0.25534 0.46625 0.0
O180 O 0.65893 0.20795 0.54133 0.0
O181 O 0.61159 0.2045 0.55055 0.0
O182 O 0.60477 0.2931 0.52561 0.0
O183 O 0.58804 0.265 0.55791 0.0
O184 O 0.66646 0.31783 0.52713 0.0
O185 O 0.66212 0.27453 0.55572 0.0
O186 O 0.6176 0.35745 0.48978 0.0
O187 O 0.65297 0.34461 0.4585 0.0
O188 O 0.66339 0.26634 0.49752 0.0
O189 O 0.6571 0.27657 0.45368 0.0
O190 O 0.60781 0.23612 0.48391 0.0
O191 O 0.5954 0.2852 0.46889 0.0
H192 H 0.61022 0.14821 0.58377 0.0
H193 H 0.62104 0.12773 0.63138 0.0
H194 H 0.69216 0.19049 0.63821 0.0
H195 H 0.68041 0.21167 0.59128 0.0
H196 H 0.66395 0.40552 0.43457 0.0
H197 H 0.64369 0.44488 0.40315 0.0
H198 H 0.55553 0.41445 0.42296 0.0
H199 H 0.57602 0.37525 0.45482 0.0
Pr200 Pr 0.97079 0.39727 0.72451 0.0
Pr201 Pr 0.01625 0.37999 0.77386 0.0
C202 C 0.9421 0.39394 0.67477 0.0
C203 C 0.91253 0.38784 0.66413 0.0
C204 C 0.88659 0.39711 0.67939 0.0
C205 C 0.85891 0.38875 0.66977 0.0
C206 C 0.8568 0.37067 0.64497 0.0
C207 C 0.88288 0.36187 0.62963 0.0
C208 C 0.91041 0.3704 0.6391 0.0
C209 C 0.95401 0.43136 0.77357 0.0
C210 C 0.95576 0.34094 0.77166 0.0
C211 C 0.05312 0.37487 0.81823 0.0
C212 C 0.0678 0.39106 0.84124 0.0
C213 C 0.09352 0.37802 0.85253 0.0
C214 C 0.10659 0.39111 0.87617 0.0
C215 C 0.09421 0.41766 0.88905 0.0
C216 C 0.0687 0.43111 0.87721 0.0
C217 C 0.0556 0.41792 0.85348 0.0
C218 C 0.02396 0.35006 0.72032 0.0
C219 C 0.03162 0.43721 0.73121 0.0
O220 O 0.95583 0.37064 0.68649 0.0
O221 O 0.94595 0.41976 0.68811 0.0
O222 O 0.97561 0.41242 0.77184 0.0
O223 O 0.94002 0.43225 0.74955 0.0
O224 O 0.97686 0.35034 0.78807 0.0
O225 O 0.95128 0.35274 0.74581 0.0
O226 O 0.02447 0.37231 0.82097 0.0
O227 O 0.06248 0.37903 0.79162 0.0
O228 O 0.01718 0.37728 0.72513 0.0
O229 O 0.02881 0.33612 0.74452 0.0
O230 O 0.01247 0.42669 0.71279 0.0
O231 O 0.03192 0.42768 0.75824 0.0
H232 H 0.88774 0.41027 0.69899 0.0
H233 H 0.83925 0.39572 0.68215 0.0
H234 H 0.88202 0.34835 0.61023 0.0
H235 H 0.93017 0.36289 0.62711 0.0
H236 H 0.10311 0.35715 0.84351 0.0
H237 H 0.12589 0.37979 0.88492 0.0
H238 H 0.05878 0.45174 0.88636 0.0
H239 H 0.0357 0.42834 0.84505 0.0
Pr240 Pr 0.8735 0.77591 0.03757 0.0
Pr241 Pr 0.85715 0.72398 0.99623 0.0
C242 C 0.87574 0.82256 0.07528 0.0
C243 C 0.86297 0.83348 0.10347 0.0
C244 C 0.87518 0.82413 0.1297 0.0
C245 C 0.86443 0.83643 0.15598 0.0
C246 C 0.84136 0.85856 0.15668 0.0
C247 C 0.82876 0.86732 0.13046 0.0
C248 C 0.83948 0.85507 0.10426 0.0
C249 C 0.91307 0.72691 0.03674 0.0
C250 C 0.81868 0.72855 0.05608 0.0
C251 C 0.85569 0.67482 0.96138 0.0
C252 C 0.87243 0.65268 0.9426 0.0
C253 C 0.86155 0.64606 0.91544 0.0
C254 C 0.87467 0.62291 0.89839 0.0
C255 C 0.89915 0.60564 0.90801 0.0
C256 C 0.91044 0.61271 0.93506 0.0
C257 C 0.89724 0.63598 0.95217 0.0
C258 C 0.82334 0.77868 0.99202 0.0
C259 C 0.90619 0.77254 0.9737 0.0
O260 O 0.85839 0.82275 0.05325 0.0
O261 O 0.89419 0.79913 0.07525 0.0
O262 O 0.88523 0.7242 0.0372 0.0
O263 O 0.92077 0.75505 0.03772 0.0
O264 O 0.82682 0.71065 0.0345 0.0
O265 O 0.83119 0.75492 0.06029 0.0
O266 O 0.85932 0.67318 0.98918 0.0
O267 O 0.85134 0.70265 0.9521 0.0
O268 O 0.85052 0.7756 0.99519 0.0
O269 O 0.81179 0.75218 0.98881 0.0
O270 O 0.89567 0.79184 0.99368 0.0
O271 O 0.90015 0.74339 0.97508 0.0
H272 H 0.89349 0.80776 0.12993 0.0
H273 H 0.87489 0.82933 0.17564 0.0
H274 H 0.81066 0.88393 0.13012 0.0
H275 H 0.82964 0.86296 0.08453 0.0
H276 H 0.84223 0.65827 0.9077 0.0
H277 H 0.86492 0.61792 0.878 0.0
H278 H 0.92941 0.60019 0.94309 0.0
H279 H 0.90613 0.64049 0.97308 0.0
Pr280 Pr 0.51521 0.64235 0.23781 0.0
Pr281 Pr 0.47267 0.6546 0.28789 0.0
C282 C 0.54632 0.63395 0.18795 0.0
C283 C 0.57469 0.64495 0.17649 0.0
C284 C 0.59145 0.62731 0.15659 0.0
C285 C 0.61897 0.63703 0.14644 0.0
C286 C 0.63018 0.66462 0.15601 0.0
C287 C 0.61318 0.68234 0.17587 0.0
C288 C 0.58574 0.67251 0.18613 0.0
C289 C 0.52889 0.60961 0.28759 0.0
C290 C 0.53327 0.69656 0.28053 0.0
C291 C 0.44582 0.6627 0.34016 0.0
C292 C 0.43021 0.6478 0.36471 0.0
C293 C 0.39924 0.6498 0.36743 0.0
C294 C 0.38459 0.6391 0.39224 0.0
C295 C 0.40054 0.62636 0.41508 0.0
C296 C 0.43148 0.6236 0.41198 0.0
C297 C 0.44614 0.63424 0.38716 0.0
C298 C 0.45925 0.68637 0.2373 0.0
C299 C 0.45228 0.60535 0.2433 0.0
O300 O 0.52494 0.65437 0.1912 0.0
O301 O 0.54786 0.61501 0.20958 0.0
O302 O 0.50322 0.61303 0.27795 0.0
O303 O 0.54821 0.62373 0.27173 0.0
O304 O 0.51196 0.6866 0.29782 0.0
O305 O 0.53775 0.68541 0.25444 0.0
O306 O 0.47417 0.65688 0.33639 0.0
O307 O 0.43205 0.66636 0.31596 0.0
O308 O 0.48448 0.68303 0.2477 0.0
O309 O 0.43928 0.67469 0.25426 0.0
O310 O 0.47144 0.6183 0.22546 0.0
O311 O 0.45285 0.61025 0.27122 0.0
H312 H 0.58331 0.60593 0.14901 0.0
H313 H 0.63139 0.62306 0.13089 0.0
H314 H 0.62133 0.70352 0.18387 0.0
H315 H 0.57325 0.68633 0.20175 0.0
H316 H 0.38632 0.66036 0.35069 0.0
H317 H 0.36071 0.64118 0.39365 0.0
H318 H 0.44455 0.61427 0.42922 0.0
H319 H 0.47004 0.63267 0.386 0.0
Pr320 Pr 0.20641 0.52549 0.12551 0.0
Pr321 Pr 0.25041 0.47489 0.11208 0.0
C322 C 0.17299 0.57626 0.13548 0.0
C323 C 0.1449 0.5891 0.12442 0.0
C324 C 0.11745 0.58007 0.13599 0.0
C325 C 0.09106 0.59176 0.12493 0.0
C326 C 0.09152 0.61286 0.10217 0.0
C327 C 0.11899 0.62193 0.0907 0.0
C328 C 0.14533 0.6103 0.10176 0.0
C329 C 0.1954 0.47164 0.15564 0.0
C330 C 0.19047 0.48232 0.07181 0.0
C331 C 0.27933 0.4212 0.10257 0.0
C332 C 0.2986 0.3979 0.11573 0.0
C333 C 0.31431 0.37731 0.09771 0.0
C334 C 0.33227 0.35439 0.10936 0.0
C335 C 0.33499 0.3516 0.13937 0.0
C336 C 0.31915 0.37239 0.15745 0.0
C337 C 0.30111 0.39542 0.14571 0.0
C338 C 0.26304 0.52969 0.08435 0.0
C339 C 0.26945 0.52079 0.16059 0.0
O340 O 0.1958 0.57534 0.11753 0.0
O341 O 0.17143 0.55197 0.15162 0.0
O342 O 0.22041 0.48319 0.15217 0.0
O343 O 0.17523 0.48742 0.14247 0.0
O344 O 0.21187 0.46418 0.08112 0.0
O345 O 0.18504 0.50923 0.08345 0.0
O346 O 0.25199 0.42352 0.11239 0.0
O347 O 0.29086 0.44742 0.09645 0.0
O348 O 0.23779 0.5184 0.08663 0.0
O349 O 0.28311 0.51159 0.09496 0.0
O350 O 0.24943 0.5394 0.14932 0.0
O351 O 0.27032 0.49164 0.15432 0.0
H352 H 0.11628 0.56395 0.15361 0.0
H353 H 0.07029 0.58465 0.13452 0.0
H354 H 0.12018 0.63787 0.07294 0.0
H355 H 0.16607 0.6178 0.0924 0.0
H356 H 0.31248 0.37878 0.07454 0.0
H357 H 0.34366 0.33851 0.09479 0.0
H358 H 0.32093 0.37105 0.18062 0.0
H359 H 0.28911 0.4112 0.15996 0.0
Pr360 Pr 0.75859 0.04397 0.88167 0.0
Pr361 Pr 0.70339 0.99902 0.87087 0.0
C362 C 0.81131 0.07025 0.87392 0.0
C363 C 0.82444 0.09945 0.86559 0.0
C364 C 0.80724 0.1264 0.86361 0.0
C365 C 0.82004 0.15338 0.85379 0.0
C366 C 0.85028 0.1539 0.84566 0.0
C367 C 0.86726 0.12669 0.84773 0.0
C368 C 0.85449 0.09986 0.85757 0.0
C369 C 0.7086 0.06523 0.91345 0.0
C370 C 0.71153 0.05766 0.82765 0.0
C371 C 0.65415 0.96573 0.87189 0.0
C372 C 0.62965 0.95075 0.88799 0.0
C373 C 0.62781 0.91895 0.88719 0.0
C374 C 0.60265 0.90457 0.89812 0.0
C375 C 0.57846 0.9216 0.91001 0.0
C376 C 0.58083 0.95338 0.91188 0.0
C377 C 0.60606 0.96778 0.90095 0.0
C378 C 0.75769 0.98688 0.84102 0.0
C379 C 0.7481 0.98301 0.92375 0.0
O380 O 0.79795 0.05606 0.85347 0.0
O381 O 0.79768 0.06844 0.89922 0.0
O382 O 0.71 0.04236 0.89697 0.0
O383 O 0.73382 0.07863 0.91292 0.0
O384 O 0.69306 0.03761 0.83832 0.0
O385 O 0.73776 0.06203 0.83859 0.0
O386 O 0.65379 0.99549 0.87032 0.0
O387 O 0.68086 0.9534 0.87196 0.0
O388 O 0.75334 0.99579 0.86632 0.0
O389 O 0.73248 0.98167 0.82944 0.0
O390 O 0.76782 1.00167 0.91211 0.0
O391 O 0.72026 0.98345 0.91584 0.0
H392 H 0.7839 0.1265 0.86941 0.0
H393 H 0.80628 0.17387 0.85277 0.0
H394 H 0.89041 0.1259 0.84118 0.0
H395 H 0.86805 0.07921 0.85849 0.0
H396 H 0.64546 0.90519 0.87716 0.0
H397 H 0.60196 0.88004 0.89677 0.0
H398 H 0.56266 0.96734 0.92065 0.0
H399 H 0.60656 0.99235 0.90174 0.0
Pr400 Pr 0.77974 0.03264 0.3671 0.0
Pr401 Pr 0.73772 0.98538 0.38774 0.0
C402 C 0.8172 0.07884 0.35995 0.0
C403 C 0.84438 0.08957 0.37264 0.0
C404 C 0.86328 0.10779 0.35616 0.0
C405 C 0.88929 0.11813 0.36771 0.0
C406 C 0.8969 0.11043 0.39602 0.0
C407 C 0.87783 0.09212 0.41252 0.0
C408 C 0.85183 0.08169 0.40089 0.0
C409 C 0.78119 0.98235 0.33113 0.0
C410 C 0.7971 0.98866 0.42414 0.0
C411 C 0.69976 0.93957 0.39491 0.0
C412 C 0.68409 0.91638 0.37863 0.0
C413 C 0.65834 0.92385 0.36366 0.0
C414 C 0.64273 0.90116 0.35017 0.0
C415 C 0.65253 0.87056 0.35134 0.0
C416 C 0.67856 0.86325 0.36589 0.0
C417 C 0.69406 0.88586 0.37947 0.0
C418 C 0.73092 0.04242 0.41554 0.0
C419 C 0.71718 0.02828 0.33452 0.0
O420 O 0.79311 0.08071 0.37615 0.0
O421 O 0.81967 0.0536 0.3452 0.0
O422 O 0.78036 0.98032 0.35852 0.0
O423 O 0.78209 0.01026 0.32224 0.0
O424 O 0.77555 0.97105 0.41732 0.0
O425 O 0.80164 0.0144 0.41012 0.0
O426 O 0.7284 0.93597 0.39649 0.0
O427 O 0.69118 0.96807 0.39245 0.0
O428 O 0.73495 0.03734 0.3893 0.0
O429 O 0.72904 0.0169 0.42953 0.0
O430 O 0.73624 0.04807 0.34375 0.0
O431 O 0.7188 0.9998 0.34331 0.0
H432 H 0.85787 0.11412 0.33435 0.0
H433 H 0.90322 0.13256 0.35457 0.0
H434 H 0.88318 0.08556 0.43429 0.0
H435 H 0.83757 0.06748 0.41391 0.0
H436 H 0.64998 0.94713 0.36266 0.0
H437 H 0.62289 0.90756 0.33892 0.0
H438 H 0.68647 0.83987 0.36758 0.0
H439 H 0.7136 0.87933 0.39114 0.0
Pr440 Pr 0.23679 0.55768 0.63091 0.0
Pr441 Pr 0.28819 0.51227 0.63885 0.0
C442 C 0.18509 0.5892 0.62617 0.0
C443 C 0.17161 0.61863 0.63545 0.0
C444 C 0.18848 0.64479 0.63746 0.0
C445 C 0.17516 0.67247 0.64637 0.0
C446 C 0.14478 0.67443 0.65369 0.0
C447 C 0.12808 0.64808 0.65181 0.0
C448 C 0.14137 0.6205 0.64276 0.0
C449 C 0.28752 0.57041 0.59773 0.0
C450 C 0.28301 0.57447 0.68069 0.0
C451 C 0.34149 0.48369 0.64262 0.0
C452 C 0.36502 0.46634 0.6265 0.0
C453 C 0.35887 0.44137 0.6091 0.0
C454 C 0.38197 0.42401 0.596 0.0
C455 C 0.41165 0.43131 0.59999 0.0
C456 C 0.41757 0.4569 0.61674 0.0
C457 C 0.39451 0.47415 0.62985 0.0
C458 C 0.23598 0.49818 0.66925 0.0
C459 C 0.24214 0.49338 0.59248 0.0
O460 O 0.18982 0.56912 0.6464 0.0
O461 O 0.20651 0.58985 0.6067 0.0
O462 O 0.2771 0.54435 0.60133 0.0
O463 O 0.2717 0.59098 0.61168 0.0
O464 O 0.29947 0.5516 0.67024 0.0
O465 O 0.25644 0.58082 0.67104 0.0
O466 O 0.33825 0.51267 0.63674 0.0
O467 O 0.31648 0.47042 0.64833 0.0
O468 O 0.24676 0.52423 0.66712 0.0
O469 O 0.25361 0.47779 0.65723 0.0
O470 O 0.22386 0.51319 0.60581 0.0
O471 O 0.27072 0.49354 0.5966 0.0
H472 H 0.21195 0.64382 0.63222 0.0
H473 H 0.1887 0.69224 0.64789 0.0
H474 H 0.1046 0.64885 0.65695 0.0
H475 H 0.12798 0.60057 0.6414 0.0
H476 H 0.33628 0.43496 0.60598 0.0
H477 H 0.37659 0.40469 0.58294 0.0
H478 H 0.44008 0.463 0.62063 0.0
H479 H 0.39979 0.49326 0.64326 0.0
H480 H 0.18586 0.3136 0.55357 0.0
H481 H 0.1602 0.36501 0.47849 0.0
H482 H 0.20728 0.35929 0.57347 0.0
H483 H 0.18094 0.41058 0.49879 0.0
H484 H 0.18659 0.48776 0.57125 0.0
H485 H 0.16689 0.44284 0.54808 0.0
H486 H 0.25133 0.39599 0.55503 0.0
H487 H 0.27129 0.44065 0.57737 0.0
C488 C 0.18498 0.33453 0.54127 0.0
C489 C 0.17158 0.33565 0.5144 0.0
C490 C 0.19717 0.3606 0.55264 0.0
C491 C 0.19552 0.38834 0.53764 0.0
C492 C 0.18226 0.38946 0.51078 0.0
C493 C 0.17068 0.3633 0.49912 0.0
C494 C 0.20102 0.46804 0.56743 0.0
C495 C 0.2305 0.46786 0.57601 0.0
C496 C 0.18977 0.44241 0.55424 0.0
C497 C 0.20765 0.41605 0.55004 0.0
C498 C 0.23713 0.41601 0.55825 0.0
C499 C 0.24853 0.44172 0.57083 0.0
H500 H 0.80888 0.99482 0.86778 0.0
H501 H 0.77546 0.96489 0.78684 0.0
H502 H 0.85887 0.98398 0.85066 0.0
H503 H 0.82656 0.95301 0.76959 0.0
H504 H 0.92813 0.96393 0.74373 0.0
H505 H 0.87593 0.97577 0.7563 0.0
H506 H 0.88873 0.93888 0.84142 0.0
H507 H 0.94032 0.92756 0.82904 0.0
C508 C 0.81217 0.98589 0.84618 0.0
C509 C 0.788 0.98069 0.82872 0.0
C510 C 0.84104 0.97941 0.83642 0.0
C511 C 0.8469 0.96714 0.80889 0.0
C512 C 0.82284 0.9625 0.79093 0.0
C513 C 0.79359 0.96915 0.80081 0.0
C514 C 0.91965 0.95838 0.76509 0.0
C515 C 0.93843 0.94507 0.78547 0.0
C516 C 0.88973 0.965 0.77224 0.0
C517 C 0.87808 0.95856 0.79998 0.0
C518 C 0.89695 0.94477 0.82005 0.0
C519 C 0.92663 0.93824 0.81295 0.0
H520 H 0.34818 0.68703 0.01453 0.0
H521 H 0.2643 0.72594 0.0445 0.0
H522 H 0.33224 0.6368 0.02767 0.0
H523 H 0.24841 0.67492 0.05901 0.0
H524 H 0.22487 0.57122 0.05947 0.0
H525 H 0.2358 0.62297 0.04315 0.0
H526 H 0.32514 0.61053 0.07199 0.0
H527 H 0.31445 0.55918 0.08739 0.0
C528 C 0.32613 0.68482 0.02379 0.0
C529 C 0.30754 0.71055 0.0285 0.0
C530 C 0.31708 0.65592 0.03167 0.0
C531 C 0.28925 0.65173 0.045 0.0
C532 C 0.27001 0.67731 0.04878 0.0
C533 C 0.27908 0.70652 0.04056 0.0
C534 C 0.24684 0.57964 0.06212 0.0
C535 C 0.26895 0.56099 0.07429 0.0
C536 C 0.25305 0.60933 0.05298 0.0
C537 C 0.28149 0.62087 0.05585 0.0
C538 C 0.30322 0.60225 0.06869 0.0
C539 C 0.29708 0.57275 0.07764 0.0
H540 H 0.53175 0.05822 0.3126 0.0
H541 H 0.56836 0.11986 0.24995 0.0
H542 H 0.58177 0.04001 0.32396 0.0
H543 H 0.6182 0.10158 0.26064 0.0
H544 H 0.70034 0.08654 0.31942 0.0
H545 H 0.65197 0.10378 0.30266 0.0
H546 H 0.62445 0.01078 0.29972 0.0
H547 H 0.67255 0.99348 0.31621 0.0
C548 C 0.55051 0.06752 0.30095 0.0
C549 C 0.54624 0.08966 0.27962 0.0
C550 C 0.57908 0.05707 0.30733 0.0
C551 C 0.60393 0.06913 0.29293 0.0
C552 C 0.59954 0.09171 0.27197 0.0
C553 C 0.57098 0.10177 0.26538 0.0
C554 C 0.68422 0.06973 0.31458 0.0
C555 C 0.69036 0.03865 0.3193 0.0
C556 C 0.65648 0.07961 0.30506 0.0
C557 C 0.63428 0.05863 0.3003 0.0
C558 C 0.64092 0.02751 0.30371 0.0
C559 C 0.66865 0.01762 0.31293 0.0
H560 H 0.70196 0.21823 0.50407 0.0
H561 H 0.65799 0.2257 0.42318 0.0
H562 H 0.71693 0.1655 0.49274 0.0
H563 H 0.67291 0.17329 0.41172 0.0
H564 H 0.73271 0.09437 0.38478 0.0
H565 H 0.71848 0.14549 0.39947 0.0
H566 H 0.69733 0.11323 0.48531 0.0
H567 H 0.71227 0.06113 0.47041 0.0
C568 C 0.6953 0.20847 0.48398 0.0
C569 C 0.67869 0.22598 0.46458 0.0
C570 C 0.70383 0.17828 0.47752 0.0
C571 C 0.69617 0.16509 0.45132 0.0
C572 C 0.67957 0.1828 0.43193 0.0
C573 C 0.67104 0.21288 0.43843 0.0
C574 C 0.7252 0.09797 0.40689 0.0
C575 C 0.72352 0.07353 0.42641 0.0
C576 C 0.71678 0.12741 0.41525 0.0
C577 C 0.70631 0.13351 0.44344 0.0
C578 C 0.70534 0.10928 0.46339 0.0
C579 C 0.71381 0.07947 0.45491 0.0
H580 H 0.05328 0.44127 0.67568 0.0
H581 H 0.06952 0.47063 0.76231 0.0
H582 H 0.10166 0.45919 0.6598 0.0
H583 H 0.11782 0.48862 0.74634 0.0
H584 H 0.19732 0.5351 0.70069 0.0
H585 H 0.14555 0.52555 0.71406 0.0
H586 H 0.15279 0.43897 0.67052 0.0
H587 H 0.20428 0.4484 0.65741 0.0
C588 C 0.06675 0.45234 0.69119 0.0
C589 C 0.05746 0.45443 0.72031 0.0
C590 C 0.09466 0.46229 0.68214 0.0
C591 C 0.11379 0.47497 0.70188 0.0
C592 C 0.10364 0.47903 0.73056 0.0
C593 C 0.07591 0.4687 0.73971 0.0
C594 C 0.18779 0.51403 0.69407 0.0
C595 C 0.2049 0.49242 0.67817 0.0
C596 C 0.15818 0.50856 0.70171 0.0
C597 C 0.14495 0.48159 0.69318 0.0
C598 C 0.16212 0.46016 0.67709 0.0
C599 C 0.19175 0.46541 0.66985 0.0
H600 H 0.71455 0.94269 0.95467 0.0
H601 H 0.80485 0.96197 0.93031 0.0
H602 H 0.73073 0.89382 0.97453 0.0
H603 H 0.82086 0.91299 0.94914 0.0
H604 H 0.84785 0.83293 1.0001 0.0
H605 H 0.82838 0.88319 0.98969 0.0
H606 H 0.74856 0.84438 0.95916 0.0
H607 H 0.76773 0.79338 0.9717 0.0
C608 C 0.73793 0.93675 0.95395 0.0
C609 C 0.75841 0.95644 0.94096 0.0
C610 C 0.74716 0.90849 0.96503 0.0
C611 C 0.77709 0.89911 0.96332 0.0
C612 C 0.79766 0.91941 0.95135 0.0
C613 C 0.78848 0.94771 0.94052 0.0
C614 C 0.82582 0.83498 0.99185 0.0
C615 C 0.80927 0.80905 0.98697 0.0
C616 C 0.81478 0.86398 0.9854 0.0
C617 C 0.78704 0.86811 0.97308 0.0
C618 C 0.76995 0.84221 0.96884 0.0
C619 C 0.78093 0.81293 0.97586 0.0
H620 H 0.43256 0.60766 0.18845 0.0
H621 H 0.41423 0.56785 0.272 0.0
H622 H 0.3871 0.58714 0.17074 0.0
H623 H 0.36872 0.54716 0.25409 0.0
H624 H 0.30737 0.48999 0.19567 0.0
H625 H 0.35218 0.50897 0.21654 0.0
H626 H 0.33233 0.5982 0.18214 0.0
H627 H 0.28749 0.57938 0.16137 0.0
C628 C 0.41912 0.59408 0.2029 0.0
C629 C 0.42704 0.5893 0.23162 0.0
C630 C 0.39291 0.58265 0.19284 0.0
C631 C 0.37425 0.56588 0.21116 0.0
C632 C 0.38272 0.56002 0.23953 0.0
C633 C 0.40876 0.57183 0.24974 0.0
C634 C 0.31233 0.51378 0.19296 0.0
C635 C 0.2939 0.5332 0.17689 0.0
C636 C 0.33796 0.52461 0.20492 0.0
C637 C 0.34587 0.55494 0.20064 0.0
C638 C 0.32693 0.5746 0.18542 0.0
C639 C 0.3011 0.5639 0.17382 0.0
H640 H 0.57211 0.17432 0.29771 0.0
H641 H 0.48793 0.21961 0.31675 0.0
H642 H 0.59034 0.19188 0.34369 0.0
H643 H 0.50585 0.23653 0.36267 0.0
H644 H 0.55715 0.28631 0.43037 0.0
H645 H 0.53985 0.27019 0.38398 0.0
H646 H 0.58235 0.18205 0.39552 0.0
H647 H 0.60029 0.19847 0.44199 0.0
C648 C 0.55767 0.18847 0.31142 0.0
C649 C 0.5286 0.19569 0.30343 0.0
C650 C 0.56797 0.19813 0.33799 0.0
C651 C 0.54949 0.2154 0.35706 0.0
C652 C 0.5208 0.22348 0.34851 0.0
C653 C 0.5105 0.21374 0.32211 0.0
C654 C 0.56259 0.26335 0.42325 0.0
C655 C 0.58005 0.24367 0.44006 0.0
C656 C 0.5526 0.25408 0.39657 0.0
C657 C 0.55982 0.22487 0.38584 0.0
C658 C 0.57674 0.20487 0.40292 0.0
C659 C 0.58666 0.21413 0.42977 0.0
H660 H 0.07822 0.34959 0.5415 0.0
H661 H 0.05655 0.25547 0.55342 0.0
H662 H 0.06567 0.35973 0.59177 0.0
H663 H 0.04289 0.26582 0.60414 0.0
H664 H 0.04858 0.29451 0.70191 0.0
H665 H 0.06104 0.27942 0.65182 0.0
H666 H 0.02333 0.36469 0.62196 0.0
H667 H 0.01253 0.37998 0.67105 0.0
C668 C 0.07035 0.33109 0.55483 0.0
C669 C 0.06805 0.30183 0.54336 0.0
C670 C 0.06303 0.33691 0.58376 0.0
C671 C 0.05278 0.31372 0.60214 0.0
C672 C 0.05079 0.28422 0.59074 0.0
C673 C 0.05836 0.27834 0.56163 0.0
C674 C 0.0429 0.30981 0.68452 0.0
C675 C 0.0296 0.33845 0.69054 0.0
C676 C 0.04992 0.30118 0.65581 0.0
C677 C 0.04366 0.32104 0.6327 0.0
C678 C 0.02931 0.34907 0.63901 0.0
C679 C 0.02272 0.35772 0.66736 0.0
H680 H 0.01018 0.84333 0.83072 0.0
H681 H 0.92236 0.83756 0.79743 0.0
H682 H 0.99264 0.8237 0.87683 0.0
H683 H 0.90511 0.81667 0.84401 0.0
H684 H 0.90986 0.74335 0.9221 0.0
H685 H 0.92573 0.76362 0.8755 0.0
H686 H 0.94764 0.84782 0.91585 0.0
H687 H 0.93075 0.828 0.96288 0.0
C688 C 0.98718 0.83744 0.83299 0.0
C689 C 0.96765 0.84189 0.81019 0.0
C690 C 0.97719 0.82645 0.85958 0.0
C691 C 0.94761 0.81902 0.86389 0.0
C692 C 0.92809 0.82244 0.84104 0.0
C693 C 0.93795 0.83419 0.81445 0.0
C694 C 0.91829 0.76613 0.92126 0.0
C695 C 0.91928 0.78403 0.94633 0.0
C696 C 0.92701 0.77775 0.89447 0.0
C697 C 0.93752 0.80726 0.8922 0.0
C698 C 0.93938 0.82499 0.9172 0.0
C699 C 0.92995 0.81361 0.94404 0.0
H700 H 0.41161 0.67464 0.20508 0.0
H701 H 0.49581 0.7181 0.20118 0.0
H702 H 0.40382 0.68822 0.15474 0.0
H703 H 0.48785 0.73207 0.15077 0.0
H704 H 0.43492 0.78502 0.07798 0.0
H705 H 0.45134 0.76741 0.12494 0.0
H706 H 0.42601 0.67637 0.10444 0.0
H707 H 0.40985 0.69394 0.05721 0.0
C708 C 0.42837 0.68727 0.19349 0.0
C709 C 0.45418 0.6956 0.20712 0.0
C710 C 0.42407 0.69473 0.16457 0.0
C711 C 0.44529 0.71108 0.14873 0.0
C712 C 0.47108 0.71952 0.16243 0.0
C713 C 0.4756 0.7116 0.19126 0.0
C714 C 0.43366 0.76107 0.08315 0.0
C715 C 0.42115 0.74086 0.06384 0.0
C716 C 0.44304 0.75099 0.11008 0.0
C717 C 0.43963 0.72058 0.11853 0.0
C718 C 0.42862 0.70001 0.09862 0.0
C719 C 0.41972 0.70999 0.07144 0.0
H720 H 0.17851 0.39637 0.32675 0.0
H721 H 0.11814 0.34343 0.27867 0.0
H722 H 0.19375 0.42244 0.28251 0.0
H723 H 0.13404 0.36874 0.2344 0.0
H724 H 0.1415 0.44968 0.17088 0.0
H725 H 0.12863 0.41914 0.21306 0.0
H726 H 0.22034 0.41451 0.23605 0.0
H727 H 0.23314 0.44542 0.19392 0.0
C728 C 0.16857 0.39021 0.30675 0.0
C729 C 0.14705 0.36783 0.30633 0.0
C730 C 0.17756 0.4049 0.28132 0.0
C731 C 0.16513 0.39768 0.25487 0.0
C732 C 0.14388 0.37505 0.25441 0.0
C733 C 0.13499 0.3603 0.27979 0.0
C734 C 0.15896 0.44184 0.18475 0.0
C735 C 0.18828 0.4501 0.17919 0.0
C736 C 0.15161 0.42424 0.2089 0.0
C737 C 0.17342 0.41453 0.22809 0.0
C738 C 0.20294 0.422 0.22196 0.0
C739 C 0.21031 0.4395 0.19771 0.0
H740 H 0.88822 0.8895 0.56001 0.0
H741 H 0.8761 0.98077 0.59305 0.0
H742 H 0.86868 0.90597 0.51409 0.0
H743 H 0.85615 0.99729 0.54706 0.0
H744 H 0.83875 0.02148 0.45229 0.0
H745 H 0.86526 1.00644 0.49562 0.0
H746 H 0.82165 0.92045 0.49636 0.0
H747 H 0.79604 0.93496 0.4533 0.0
C748 C 0.88125 0.91309 0.55753 0.0
C749 C 0.88344 0.93368 0.58042 0.0
C750 C 0.87003 0.92259 0.53113 0.0
C751 C 0.86046 0.95295 0.52683 0.0
C752 C 0.86353 0.97381 0.54941 0.0
C753 C 0.87491 0.96431 0.57585 0.0
C754 C 0.83515 0.99924 0.46155 0.0
C755 C 0.8152 0.9795 0.44919 0.0
C756 C 0.85017 0.99069 0.48654 0.0
C757 C 0.84571 0.96214 0.49958 0.0
C758 C 0.82614 0.94236 0.4868 0.0
C759 C 0.8112 0.95086 0.46206 0.0
H760 H 0.2586 0.6256 0.70729 0.0
H761 H 0.33392 0.56313 0.70909 0.0
H762 H 0.27774 0.65296 0.74821 0.0
H763 H 0.35232 0.58954 0.75017 0.0
H764 H 0.39262 0.65509 0.81005 0.0
H765 H 0.3742 0.63436 0.76559 0.0
H766 H 0.28455 0.6473 0.79877 0.0
H767 H 0.30309 0.66879 0.84281 0.0
C768 C 0.2792 0.61771 0.71635 0.0
C769 C 0.29467 0.59216 0.70483 0.0
C770 C 0.29011 0.63328 0.73993 0.0
C771 C 0.31666 0.62355 0.75258 0.0
C772 C 0.33216 0.59816 0.74077 0.0
C773 C 0.32141 0.5828 0.71721 0.0
C774 C 0.36899 0.65358 0.80775 0.0
C775 C 0.34933 0.66347 0.82996 0.0
C776 C 0.35838 0.64162 0.7823 0.0
C777 C 0.32783 0.63887 0.77858 0.0
C778 C 0.30817 0.64943 0.80061 0.0
C779 C 0.3188 0.66167 0.82594 0.0
H780 H 0.61286 0.06429 0.07541 0.0
H781 H 0.59792 0.15636 0.04584 0.0
H782 H 0.63497 0.05059 0.02845 0.0
H783 H 0.6195 0.14262 0.99878 0.0
H784 H 0.70066 0.11909 0.94018 0.0
H785 H 0.66835 0.13165 0.98117 0.0
H786 H 0.63013 0.043 0.9767 0.0
H787 H 0.66341 0.0302 0.93536 0.0
C788 C 0.61376 0.08148 0.0587 0.0
C789 C 0.60396 0.11155 0.06456 0.0
C790 C 0.62635 0.07358 0.03168 0.0
C791 C 0.62934 0.09552 1.00976 0.0
C792 C 0.61818 0.12523 0.01526 0.0
C793 C 0.60581 0.13316 0.04229 0.0
C794 C 0.68497 0.10243 0.94754 0.0
C795 C 0.68461 0.07365 0.93457 0.0
C796 C 0.66624 0.10971 0.97105 0.0
C797 C 0.64655 0.08838 0.98246 0.0
C798 C 0.64523 0.0599 0.96868 0.0
C799 C 0.66402 0.05264 0.94483 0.0
H800 H 0.67617 0.18638 0.68714 0.0
H801 H 0.65689 0.09728 0.65485 0.0
H802 H 0.68928 0.1638 0.73329 0.0
H803 H 0.66929 0.07503 0.7011 0.0
H804 H 0.66229 0.05039 0.79607 0.0
H805 H 0.64925 0.0755 0.75139 0.0
H806 H 0.72785 0.1284 0.75426 0.0
H807 H 0.74107 0.10328 0.79934 0.0
C808 C 0.67486 0.16199 0.68974 0.0
C809 C 0.66532 0.14372 0.66715 0.0
C810 C 0.68234 0.14909 0.71625 0.0
C811 C 0.68019 0.11766 0.72091 0.0
C812 C 0.67071 0.09941 0.69837 0.0
C813 C 0.66348 0.11223 0.67184 0.0
C814 C 0.67681 0.06749 0.7874 0.0
C815 C 0.70286 0.07466 0.80136 0.0
C816 C 0.66937 0.08176 0.76162 0.0
C817 C 0.68763 0.10375 0.74913 0.0
C818 C 0.71325 0.11163 0.76342 0.0
C819 C 0.72087 0.09714 0.7892 0.0
H820 H 0.20013 0.43142 0.03895 0.0
H821 H 0.14382 0.51219 0.04647 0.0
H822 H 0.17605 0.41775 0.99493 0.0
H823 H 0.11972 0.49838 1.00208 0.0
H824 H 0.06561 0.44172 0.93721 0.0
H825 H 0.08752 0.45834 0.98178 0.0
H826 H 0.17457 0.43826 0.94513 0.0
H827 H 0.15286 0.42219 0.90053 0.0
C828 C 0.18249 0.44622 0.03135 0.0
C829 C 0.17403 0.47301 0.04625 0.0
C830 C 0.16883 0.43846 1.00594 0.0
C831 C 0.14622 0.45716 0.99483 0.0
C832 C 0.13705 0.48348 1.01014 0.0
C833 C 0.15091 0.4914 0.03553 0.0
C834 C 0.08944 0.44137 0.93845 0.0
C835 C 0.10744 0.43032 0.91531 0.0
C836 C 0.10197 0.4508 0.96405 0.0
C837 C 0.13275 0.44922 0.96711 0.0
C838 C 0.15075 0.43912 0.94367 0.0
C839 C 0.13828 0.4299 0.91809 0.0
H840 H 0.75388 0.97881 0.28109 0.0
H841 H 0.81664 0.93016 0.33329 0.0
H842 H 0.76653 0.94558 0.24058 0.0
H843 H 0.83023 0.89693 0.29205 0.0
H844 H 0.83335 0.83294 0.21072 0.0
H845 H 0.81617 0.85838 0.25539 0.0
H846 H 0.81018 0.94371 0.20958 0.0
H847 H 0.82723 0.91862 0.16547 0.0
C848 C 0.77003 0.96048 0.28401 0.0
C849 C 0.78434 0.95708 0.31024 0.0
C850 C 0.77754 0.94163 0.26068 0.0
C851 C 0.80001 0.91909 0.26272 0.0
C852 C 0.81288 0.91412 0.2897 0.0
C853 C 0.80504 0.933 0.31336 0.0
C854 C 0.82847 0.85716 0.21027 0.0
C855 C 0.83129 0.8736 0.18428 0.0
C856 C 0.81861 0.87172 0.23589 0.0
C857 C 0.81127 0.90302 0.23605 0.0
C858 C 0.81475 0.91942 0.21018 0.0
C859 C 0.82456 0.90498 0.18476 0.0
H860 H 0.3071 0.62627 0.58201 0.0
H861 H 0.31369 0.53147 0.55827 0.0
H862 H 0.33619 0.63938 0.53894 0.0
H863 H 0.34212 0.54458 0.51475 0.0
H864 H 0.41223 0.57669 0.44944 0.0
H865 H 0.38799 0.56329 0.49518 0.0
H866 H 0.32905 0.64172 0.48804 0.0
H867 H 0.35408 0.65583 0.44317 0.0
C868 C 0.31494 0.60821 0.56766 0.0
C869 C 0.30793 0.57788 0.57341 0.0
C870 C 0.33141 0.61573 0.54282 0.0
C871 C 0.3412 0.5931 0.52308 0.0
C872 C 0.33514 0.5626 0.5295 0.0
C873 C 0.31874 0.55507 0.55441 0.0
C874 C 0.39427 0.59123 0.45777 0.0
C875 C 0.38512 0.61734 0.4425 0.0
C876 C 0.38017 0.58337 0.48389 0.0
C877 C 0.35659 0.60146 0.49544 0.0
C878 C 0.34741 0.62748 0.48009 0.0
C879 C 0.36149 0.63533 0.45405 0.0
H880 H 0.1751 0.17613 0.43566 0.0
H881 H 0.1945 0.27155 0.43218 0.0
H882 H 0.21749 0.16472 0.40352 0.0
H883 H 0.23695 0.26018 0.39969 0.0
H884 H 0.33065 0.22024 0.37423 0.0
H885 H 0.28613 0.23461 0.40262 0.0
H886 H 0.23616 0.17136 0.35414 0.0
H887 H 0.28068 0.15639 0.3264 0.0
C888 C 0.18825 0.19472 0.42774 0.0
C889 C 0.18154 0.22471 0.43654 0.0
C890 C 0.2125 0.18821 0.4092 0.0
C891 C 0.23073 0.21152 0.39908 0.0
C892 C 0.22359 0.24165 0.40737 0.0
C893 C 0.19916 0.2482 0.42581 0.0
C894 C 0.31016 0.20939 0.36966 0.0
C895 C 0.30932 0.18711 0.34804 0.0
C896 C 0.28456 0.21786 0.38572 0.0
C897 C 0.25754 0.2041 0.38071 0.0
C898 C 0.25663 0.18221 0.35877 0.0
C899 C 0.28214 0.17386 0.34264 0.0
H900 H 0.12591 0.07911 0.6086 0.0
H901 H 0.04036 0.12435 0.61887 0.0
H902 H 0.10644 0.03375 0.63149 0.0
H903 H 0.02086 0.07891 0.64197 0.0
H904 H 0.99005 0.98239 0.66204 0.0
H905 H 0.00849 0.0256 0.63432 0.0
H906 H 0.09045 0.01917 0.67943 0.0
H907 H 0.07249 0.97601 0.70651 0.0
C908 C 0.10297 0.07942 0.61591 0.0
C909 C 0.08477 0.10545 0.61218 0.0
C910 C 0.09179 0.0534 0.62899 0.0
C911 C 0.06213 0.05276 0.63875 0.0
C912 C 0.04371 0.07853 0.6344 0.0
C913 C 0.0549 0.10459 0.62124 0.0
C914 C 0.01207 0.9901 0.66587 0.0
C915 C 0.02975 0.9757 0.68654 0.0
C916 C 0.02257 0.01496 0.65011 0.0
C917 C 0.05097 0.02582 0.65462 0.0
C918 C 0.06867 0.01114 0.67505 0.0
C919 C 0.05823 0.98643 0.69076 0.0
H920 H 0.14988 0.87225 0.89977 0.0
H921 H 0.18814 0.83009 0.82292 0.0
H922 H 0.19107 0.85253 0.92737 0.0
H923 H 0.22942 0.81014 0.85073 0.0
H924 H 0.28634 0.75834 0.91812 0.0
H925 H 0.24402 0.77462 0.88964 0.0
H926 H 0.24327 0.86259 0.93069 0.0
H927 H 0.28498 0.84641 0.95917 0.0
C928 C 0.16712 0.85884 0.88869 0.0
C929 C 0.16574 0.85311 0.85897 0.0
C930 C 0.19079 0.8475 0.90457 0.0
C931 C 0.21382 0.83002 0.89125 0.0
C932 C 0.212 0.82335 0.86174 0.0
C933 C 0.18828 0.83478 0.8458 0.0
C934 C 0.27714 0.78116 0.92102 0.0
C935 C 0.28907 0.80098 0.94108 0.0
C936 C 0.25295 0.79053 0.9046 0.0
C937 C 0.24 0.81985 0.90802 0.0
C938 C 0.25225 0.83968 0.92783 0.0
C939 C 0.2764 0.83042 0.94406 0.0
H940 H 0.41619 0.06431 0.20968 0.0
H941 H 0.49741 0.0575 0.15849 0.0
H942 H 0.39754 0.02091 0.18449 0.0
H943 H 0.47875 0.0135 0.13351 0.0
H944 H 0.41922 0.95613 0.07567 0.0
H945 H 0.4407 0.99919 0.09972 0.0
H946 H 0.40719 0.96635 0.18174 0.0
H947 H 0.38573 0.92344 0.15775 0.0
C948 C 0.43013 0.05357 0.19306 0.0
C949 C 0.45838 0.06438 0.18622 0.0
C950 C 0.41948 0.02849 0.17874 0.0
C951 C 0.43677 0.01352 0.1572 0.0
C952 C 0.46482 0.02463 0.14992 0.0
C953 C 0.47554 0.04978 0.16431 0.0
C954 C 0.41682 0.95789 0.09888 0.0
C955 C 0.40056 0.93649 0.11477 0.0
C956 C 0.42911 0.98257 0.11265 0.0
C957 C 0.42539 0.98638 0.14261 0.0
C958 C 0.4099 0.96446 0.15856 0.0
C959 C 0.39763 0.93984 0.14482 0.0
H960 H 0.84267 0.31415 0.62657 0.0
H961 H 0.8051 0.4043 0.64112 0.0
H962 H 0.79616 0.29818 0.60728 0.0
H963 H 0.75818 0.38811 0.62238 0.0
H964 H 0.69806 0.35745 0.54874 0.0
H965 H 0.74025 0.37423 0.57499 0.0
H966 H 0.74432 0.28825 0.6199 0.0
H967 H 0.7022 0.27115 0.5933 0.0
C968 C 0.8244 0.33053 0.62577 0.0
C969 C 0.82768 0.36059 0.63513 0.0
C970 C 0.7976 0.32127 0.61503 0.0
C971 C 0.77341 0.34186 0.61324 0.0
C972 C 0.77646 0.37175 0.62323 0.0
C973 C 0.80326 0.38097 0.63417 0.0
C974 C 0.70767 0.34217 0.56443 0.0
C975 C 0.69679 0.31281 0.56868 0.0
C976 C 0.73181 0.35191 0.57964 0.0
C977 C 0.74581 0.33254 0.59944 0.0
C978 C 0.73428 0.3036 0.60452 0.0
C979 C 0.70999 0.29387 0.58939 0.0
H980 H 0.98593 0.444 0.8221 0.0
H981 H 0.90656 0.46952 0.77776 0.0
H982 H 0.97575 0.48594 0.85659 0.0
H983 H 0.89668 0.51076 0.81151 0.0
H984 H 0.90721 0.60341 0.84931 0.0
H985 H 0.9223 0.55996 0.81953 0.0
H986 H 0.93609 0.50575 0.8957 0.0
H987 H 0.92028 0.5493 0.92585 0.0
C988 C 0.96621 0.45821 0.81996 0.0
C989 C 0.94718 0.45356 0.79708 0.0
C990 C 0.9604 0.48222 0.83961 0.0
C991 C 0.93568 0.50205 0.83643 0.0
C992 C 0.91623 0.4964 0.81423 0.0
C993 C 0.92185 0.47255 0.79495 0.0
C994 C 0.91335 0.58229 0.85986 0.0
C995 C 0.91192 0.57989 0.89008 0.0
C996 C 0.92214 0.55736 0.84273 0.0
C997 C 0.93 0.52923 0.85522 0.0
C998 C 0.93022 0.52711 0.88543 0.0
C999 C 0.92119 0.55213 0.90268 0.0
H1000 H 0.78877 0.76136 0.0988 0.0
H1001 H 0.79129 0.67432 0.05566 0.0
H1002 H 0.74476 0.74635 0.1266 0.0
H1003 H 0.74739 0.65985 0.08262 0.0
H1004 H 0.68129 0.63059 0.14955 0.0
H1005 H 0.72875 0.64641 0.12954 0.0
H1006 H 0.69278 0.73749 0.11798 0.0
H1007 H 0.64536 0.72168 0.13842 0.0
C1008 C 0.78014 0.739 0.09539 0.0
C1009 C 0.79355 0.71912 0.07491 0.0
C1010 C 0.75481 0.73049 0.11116 0.0
C1011 C 0.7425 0.70189 0.10684 0.0
C1012 C 0.75645 0.68184 0.08688 0.0
C1013 C 0.78161 0.6903 0.0712 0.0
C1014 C 0.68353 0.65399 0.14274 0.0
C1015 C 0.65949 0.6748 0.14527 0.0
C1016 C 0.71073 0.66308 0.13129 0.0
C1017 C 0.71454 0.69317 0.12191 0.0
C1018 C 0.69075 0.71424 0.12529 0.0
C1019 C 0.66353 0.70516 0.1369 0.0
H1020 H 0.54877 0.46965 0.42149 0.0
H1021 H 0.61938 0.4532 0.35837 0.0
H1022 H 0.53086 0.5129 0.39317 0.0
H1023 H 0.60163 0.4964 0.3303 0.0
H1024 H 0.58423 0.59434 0.30466 0.0
H1025 H 0.59947 0.55167 0.33479 0.0
H1026 H 0.50836 0.52698 0.3469 0.0
H1027 H 0.49304 0.57015 0.31687 0.0
C1028 C 0.56026 0.47498 0.40141 0.0
C1029 C 0.58568 0.45802 0.39235 0.0
C1030 C 0.55002 0.49984 0.38522 0.0
C1031 C 0.56501 0.50837 0.35964 0.0
C1032 C 0.58994 0.49091 0.35024 0.0
C1033 C 0.60011 0.46609 0.36634 0.0
C1034 C 0.56741 0.57997 0.31393 0.0
C1035 C 0.53746 0.58545 0.30821 0.0
C1036 C 0.57616 0.55535 0.33102 0.0
C1037 C 0.55519 0.5356 0.34292 0.0
C1038 C 0.52507 0.54177 0.33811 0.0
C1039 C 0.5163 0.56644 0.32087 0.0
H1040 H 0.38936 0.3316 0.1191 0.0
H1041 H 0.32426 0.31563 0.1869 0.0
H1042 H 0.41924 0.28876 0.13604 0.0
H1043 H 0.35455 0.27273 0.20413 0.0
H1044 H 0.4359 0.21675 0.24 0.0
H1045 H 0.4034 0.25949 0.22604 0.0
H1046 H 0.41483 0.23308 0.13679 0.0
H1047 H 0.44727 0.1908 0.15065 0.0
C1048 C 0.38134 0.31888 0.13757 0.0
C1049 C 0.35418 0.32687 0.15138 0.0
C1050 C 0.3985 0.29429 0.1473 0.0
C1051 C 0.38907 0.27705 0.17118 0.0
C1052 C 0.36245 0.28562 0.18571 0.0
C1053 C 0.34514 0.31025 0.17587 0.0
C1054 C 0.4312 0.22 0.21745 0.0
C1055 C 0.44435 0.20065 0.19637 0.0
C1056 C 0.41255 0.24439 0.20947 0.0
C1057 C 0.40689 0.24994 0.18026 0.0
C1058 C 0.41923 0.22982 0.15941 0.0
C1059 C 0.43766 0.20545 0.16737 0.0
H1060 H 0.9547 0.31636 0.82571 0.0
H1061 H 0.9155 0.30737 0.74263 0.0
H1062 H 0.92787 0.27294 0.84345 0.0
H1063 H 0.88893 0.26307 0.76036 0.0
H1064 H 0.82691 0.19856 0.81044 0.0
H1065 H 0.85029 0.24472 0.79289 0.0
H1066 H 0.92921 0.2193 0.83809 0.0
H1067 H 0.90551 0.1742 0.85659 0.0
C1068 C 0.94035 0.30513 0.81112 0.0
C1069 C 0.93752 0.3154 0.78258 0.0
C1070 C 0.92503 0.27996 0.82132 0.0
C1071 C 0.90645 0.26405 0.80331 0.0
C1072 C 0.90289 0.27479 0.77496 0.0
C1073 C 0.91823 0.30017 0.76472 0.0
C1074 C 0.84911 0.20303 0.81695 0.0
C1075 C 0.86423 0.18247 0.83501 0.0
C1076 C 0.86268 0.22936 0.80656 0.0
C1077 C 0.8917 0.23595 0.81404 0.0
C1078 C 0.90672 0.21538 0.83212 0.0
C1079 C 0.8932 0.18916 0.84249 0.0
H1080 H 0.0398 0.58396 0.0917 0.0
H1081 H 0.07986 0.67181 0.08735 0.0
H1082 H 0.99439 0.60628 0.07212 0.0
H1083 H 0.03503 0.69381 0.06781 0.0
H1084 H 0.9661 0.72333 1.00995 0.0
H1085 H 0.00828 0.69133 0.02312 0.0
H1086 H 0.95315 0.64416 0.08506 0.0
H1087 H 0.91039 0.67594 0.07095 0.0
C1088 C 0.03889 0.60801 0.08669 0.0
C1089 C 0.0636 0.62605 0.09078 0.0
C1090 C 0.01294 0.62072 0.07543 0.0
C1091 C 0.01129 0.65167 0.06793 0.0
C1092 C 0.03583 0.66969 0.07256 0.0
C1093 C 0.06159 0.65708 0.0838 0.0
C1094 C 0.96283 0.70547 0.02575 0.0
C1095 C 0.93522 0.70213 0.03962 0.0
C1096 C 0.987 0.68736 0.0335 0.0
C1097 C 0.98423 0.66584 0.05573 0.0
C1098 C 0.95597 0.66064 0.06792 0.0
C1099 C 0.9315 0.67868 0.05982 0.0
H1100 H 0.59263 0.86448 0.35421 0.0
H1101 H 0.67295 0.82108 0.32014 0.0
H1102 H 0.56416 0.82289 0.33594 0.0
H1103 H 0.64453 0.77899 0.30258 0.0
H1104 H 0.57908 0.72355 0.25132 0.0
H1105 H 0.60773 0.76632 0.26694 0.0
H1106 H 0.55763 0.7692 0.34754 0.0
H1107 H 0.52875 0.72684 0.33189 0.0
C1108 C 0.60419 0.8462 0.34258 0.0
C1109 C 0.63507 0.84608 0.33867 0.0
C1110 C 0.58791 0.82217 0.33242 0.0
C1111 C 0.60209 0.79749 0.318 0.0
C1112 C 0.6329 0.79772 0.31346 0.0
C1113 C 0.64921 0.82171 0.32374 0.0
C1114 C 0.5742 0.73325 0.2724 0.0
C1115 C 0.55153 0.72176 0.29031 0.0
C1116 C 0.59071 0.75771 0.28138 0.0
C1117 C 0.58485 0.77129 0.30841 0.0
C1118 C 0.56238 0.75959 0.32639 0.0
C1119 C 0.54595 0.73513 0.31747 0.0
H1120 H 0.54673 0.28991 0.59069 0.0
H1121 H 0.56781 0.34201 0.51441 0.0
H1122 H 0.50495 0.32423 0.60177 0.0
H1123 H 0.52558 0.37668 0.52542 0.0
H1124 H 0.46473 0.44828 0.57543 0.0
H1125 H 0.50697 0.41539 0.56088 0.0
H1126 H 0.45662 0.33641 0.58303 0.0
H1127 H 0.41491 0.36915 0.59842 0.0
C1128 C 0.54247 0.30883 0.57629 0.0
C1129 C 0.56068 0.31338 0.55176 0.0
C1130 C 0.51834 0.3284 0.58253 0.0
C1131 C 0.51166 0.35307 0.56435 0.0
C1132 C 0.53021 0.35801 0.53999 0.0
C1133 C 0.55446 0.33826 0.5337 0.0
C1134 C 0.46269 0.42388 0.57719 0.0
C1135 C 0.43642 0.41141 0.58831 0.0
C1136 C 0.48682 0.40503 0.56858 0.0
C1137 C 0.48533 0.37326 0.57105 0.0
C1138 C 0.45873 0.3608 0.58126 0.0
C1139 C 0.43463 0.3796 0.58977 0.0
H1140 H 0.10424 0.6841 0.69783 0.0
H1141 H 0.15275 0.73124 0.63082 0.0
H1142 H 0.07867 0.73158 0.71167 0.0
H1143 H 0.12766 0.77901 0.64517 0.0
H1144 H 0.04613 0.84604 0.65538 0.0
H1145 H 0.07764 0.80174 0.64299 0.0
H1146 H 0.08633 0.78131 0.73342 0.0
H1147 H 0.05451 0.82544 0.74575 0.0
C1148 C 0.10952 0.70463 0.68611 0.0
C1149 C 0.13042 0.7038 0.6631 0.0
C1150 C 0.09511 0.73195 0.69427 0.0
C1151 C 0.10112 0.75915 0.67955 0.0
C1152 C 0.12235 0.75843 0.65681 0.0
C1153 C 0.13691 0.73111 0.64875 0.0
C1154 C 0.05508 0.8323 0.6726 0.0
C1155 C 0.04761 0.83903 0.70151 0.0
C1156 C 0.07325 0.80697 0.66552 0.0
C1157 C 0.0843 0.78777 0.6872 0.0
C1158 C 0.07778 0.79531 0.71618 0.0
C1159 C 0.0597 0.82069 0.72325 0.0
H1160 H 0.41106 0.82776 0.91182 0.0
H1161 H 0.43169 0.83384 1.00171 0.0
H1162 H 0.45399 0.8577 0.89906 0.0
H1163 H 0.47511 0.86327 0.98895 0.0
H1164 H 0.541 0.93431 0.95672 0.0
H1165 H 0.49463 0.91015 0.97005 0.0
H1166 H 0.50646 0.84975 0.89718 0.0
H1167 H 0.55191 0.87458 0.88328 0.0
C1168 C 0.42461 0.83576 0.92891 0.0
C1169 C 0.41804 0.8282 0.95776 0.0
C1170 C 0.44945 0.85271 0.92157 0.0
C1171 C 0.46846 0.86256 0.94289 0.0
C1172 C 0.46102 0.85624 0.97192 0.0
C1173 C 0.43611 0.83928 0.97926 0.0
C1174 C 0.53358 0.91605 0.9434 0.0
C1175 C 0.55043 0.90642 0.91893 0.0
C1176 C 0.50706 0.90198 0.95121 0.0
C1177 C 0.49656 0.878 0.93467 0.0
C1178 C 0.51346 0.86841 0.91025 0.0
C1179 C 0.53991 0.8824 0.9025 0.0
H1180 H 0.9515 0.11321 0.36963 0.0
H1181 H 0.90473 0.13356 0.44999 0.0
H1182 H 0.9957 0.13565 0.38797 0.0
H1183 H 0.94899 0.15623 0.46835 0.0
H1184 H 0.04124 0.17749 0.49949 0.0
H1185 H 1.00024 0.14745 0.48321 0.0
H1186 H 0.01005 0.18676 0.39827 0.0
H1187 H 0.05095 0.21608 0.41418 0.0
C1188 C 0.95065 0.1225 0.39123 0.0
C1189 C 0.92447 0.12191 0.40821 0.0
C1190 C 0.97601 0.13535 0.40176 0.0
C1191 C 0.97584 0.14804 0.42954 0.0
C1192 C 0.94999 0.14641 0.44697 0.0
C1193 C 0.92459 0.13346 0.43642 0.0
C1194 C 0.03481 0.17942 0.47727 0.0
C1195 C 0.04937 0.19926 0.45818 0.0
C1196 C 0.0112 0.16237 0.468 0.0
C1197 C 1.00185 0.16467 0.43942 0.0
C1198 C 0.0169 0.18403 0.42029 0.0
C1199 C 0.0403 0.20106 0.42952 0.0
loop_
_geom_bond_atom_site_label_1
_geom_bond_atom_site_label_2
_geom_bond_distance
_geom_bond_site_symmetry_2
_ccdc_geom_bond_type
Pr0 C2 2.880 . S
Pr0 O20 2.562 . S
Pr0 O21 2.490 . S
Pr0 O22 2.695 . S
Pr0 O23 2.512 . S
Pr0 O25 2.437 . S
Pr0 O28 2.436 . S
Pr0 O30 2.438 . S
Pr1 C11 2.880 . S
Pr1 O22 2.436 . S
Pr1 O24 2.438 . S
Pr1 O26 2.562 . S
Pr1 O27 2.490 . S
Pr1 O28 2.695 . S
Pr1 O29 2.512 . S
Pr1 O31 2.437 . S
C2 Pr0 2.880 . S
C2 C3 1.491 . S
C2 O20 1.254 . S
C2 O21 1.225 . S
C3 C2 1.491 . S
C3 C4 1.392 . S
C3 C8 1.356 . S
C4 C3 1.392 . S
C4 C5 1.368 . S
C4 H32 0.929 . S
C5 C4 1.368 . S
C5 C6 1.386 . S
C5 H33 0.929 . S
C6 C5 1.386 . S
C6 C7 1.373 . S
C7 C6 1.373 . S
C7 C8 1.409 . S
C7 H34 0.931 . S
C8 C3 1.356 . S
C8 C7 1.409 . S
C8 H35 0.930 . S
C9 O22 1.270 . S
C9 O23 1.248 . S
C10 O24 1.267 . S
C10 O25 1.278 . S
C11 Pr1 2.880 . S
C11 C12 1.491 . S
C11 O26 1.254 . S
C11 O27 1.225 . S
C12 C11 1.491 . S
C12 C13 1.392 . S
C12 C17 1.356 . S
C13 C12 1.392 . S
C13 C14 1.368 . S
C13 H36 0.929 . S
C14 C13 1.368 . S
C14 C15 1.386 . S
C14 H37 0.929 . S
C15 C14 1.386 . S
C15 C16 1.373 . S
C16 C15 1.373 . S
C16 C17 1.409 . S
C16 H38 0.931 . S
C17 C12 1.356 . S
C17 C16 1.409 . S
C17 H39 0.930 . S
C18 O28 1.270 . S
C18 O29 1.248 . S
C19 O30 1.267 . S
C19 O31 1.278 . S
O20 Pr0 2.562 . S
O20 C2 1.254 . S
O21 Pr0 2.490 . S
O21 C2 1.225 . S
O22 Pr0 2.695 . S
O22 Pr1 2.436 . S
O22 C9 1.270 . S
O23 Pr0 2.512 . S
O23 C9 1.248 . S
O24 Pr1 2.438 . S
O24 C10 1.267 . S
O25 Pr0 2.437 . S
O25 C10 1.278 . S
O26 Pr1 2.562 . S
O26 C11 1.254 . S
O27 Pr1 2.490 . S
O27 C11 1.225 . S
O28 Pr0 2.436 . S
O28 Pr1 2.695 . S
O28 C18 1.270 . S
O29 Pr1 2.512 . S
O29 C18 1.248 . S
O30 Pr0 2.438 . S
O30 C19 1.267 . S
O31 Pr1 2.437 . S
O31 C19 1.278 . S
H32 C4 0.929 . S
H33 C5 0.929 . S
H34 C7 0.931 . S
H35 C8 0.930 . S
H36 C13 0.929 . S
H37 C14 0.929 . S
H38 C16 0.931 . S
H39 C17 0.930 . S
Pr40 C42 2.880 . S
Pr40 O60 2.562 . S
Pr40 O61 2.490 . S
Pr40 O62 2.695 1_655 S
Pr40 O63 2.512 1_655 S
Pr40 O65 2.437 1_655 S
Pr40 O68 2.436 . S
Pr40 O70 2.438 . S
Pr41 C51 2.880 . S
Pr41 O62 2.436 . S
Pr41 O64 2.438 . S
Pr41 O66 2.562 . S
Pr41 O67 2.490 . S
Pr41 O68 2.695 1_455 S
Pr41 O69 2.512 1_455 S
Pr41 O71 2.437 1_455 S
C42 Pr40 2.880 . S
C42 C43 1.491 . S
C42 O60 1.254 . S
C42 O61 1.225 . S
C43 C42 1.491 . S
C43 C44 1.392 . S
C43 C48 1.356 . S
C44 C43 1.392 . S
C44 C45 1.368 . S
C44 H72 0.929 . S
C45 C44 1.368 . S
C45 C46 1.386 . S
C45 H73 0.929 . S
C46 C45 1.386 . S
C46 C47 1.373 . S
C47 C46 1.373 . S
C47 C48 1.409 . S
C47 H74 0.931 . S
C48 C43 1.356 . S
C48 C47 1.409 . S
C48 H75 0.930 . S
C49 O62 1.270 . S
C49 O63 1.248 . S
C50 O64 1.267 . S
C50 O65 1.278 . S
C51 Pr41 2.880 . S
C51 C52 1.491 . S
C51 O66 1.254 . S
C51 O67 1.225 . S
C52 C51 1.491 . S
C52 C53 1.392 . S
C52 C57 1.356 . S
C53 C52 1.392 . S
C53 C54 1.368 . S
C53 H76 0.929 . S
C54 C53 1.368 . S
C54 C55 1.386 . S
C54 H77 0.929 . S
C55 C54 1.386 . S
C55 C56 1.373 . S
C56 C55 1.373 . S
C56 C57 1.409 . S
C56 H78 0.931 . S
C57 C52 1.356 . S
C57 C56 1.409 . S
C57 H79 0.930 . S
C58 O68 1.270 . S
C58 O69 1.248 . S
C59 O70 1.267 . S
C59 O71 1.278 . S
O60 Pr40 2.562 . S
O60 C42 1.254 . S
O61 Pr40 2.490 . S
O61 C42 1.225 . S
O62 Pr40 2.695 1_455 S
O62 Pr41 2.436 . S
O62 C49 1.270 . S
O63 Pr40 2.512 1_455 S
O63 C49 1.248 . S
O64 Pr41 2.438 . S
O64 C50 1.267 . S
O65 Pr40 2.437 1_455 S
O65 C50 1.278 . S
O66 Pr41 2.562 . S
O66 C51 1.254 . S
O67 Pr41 2.490 . S
O67 C51 1.225 . S
O68 Pr40 2.436 . S
O68 Pr41 2.695 1_655 S
O68 C58 1.270 . S
O69 Pr41 2.512 1_655 S
O69 C58 1.248 . S
O70 Pr40 2.438 . S
O70 C59 1.267 . S
O71 Pr41 2.437 1_655 S
O71 C59 1.278 . S
H72 C44 0.929 . S
H73 C45 0.929 . S
H74 C47 0.931 . S
H75 C48 0.930 . S
H76 C53 0.929 . S
H77 C54 0.929 . S
H78 C56 0.931 . S
H79 C57 0.930 . S
Pr80 C82 2.880 . S
Pr80 O100 2.562 . S
Pr80 O101 2.490 . S
Pr80 O102 2.695 . S
Pr80 O103 2.512 . S
Pr80 O105 2.437 . S
Pr80 O108 2.411 1_556 S
Pr80 O110 2.438 1_556 S
Pr81 C91 2.880 . S
Pr81 O102 2.436 1_554 S
Pr81 O104 2.438 1_554 S
Pr81 O106 2.562 . S
Pr81 O107 2.490 . S
Pr81 O108 2.707 . S
Pr81 O109 2.512 . S
Pr81 O111 2.437 . S
C82 Pr80 2.880 . S
C82 C83 1.491 . S
C82 O100 1.254 . S
C82 O101 1.225 . S
C83 C82 1.491 . S
C83 C84 1.392 . S
C83 C88 1.356 . S
C84 C83 1.392 . S
C84 C85 1.368 . S
C84 H112 0.929 . S
C85 C84 1.368 . S
C85 C86 1.386 . S
C85 H113 0.929 . S
C86 C85 1.386 . S
C86 C87 1.373 . S
C87 C86 1.373 . S
C87 C88 1.409 . S
C87 H114 0.931 . S
C88 C83 1.356 . S
C88 C87 1.409 . S
C88 H115 0.930 . S
C89 O102 1.270 . S
C89 O103 1.248 . S
C90 O104 1.267 . S
C90 O105 1.278 . S
C91 Pr81 2.880 . S
C91 C92 1.491 . S
C91 O106 1.254 . S
C91 O107 1.225 . S
C92 C91 1.491 . S
C92 C93 1.392 . S
C92 C97 1.356 . S
C93 C92 1.392 . S
C93 C94 1.368 . S
C93 H116 0.929 . S
C94 C93 1.368 . S
C94 C95 1.386 . S
C94 H117 0.929 . S
C95 C94 1.386 . S
C95 C96 1.373 . S
C96 C95 1.373 . S
C96 C97 1.409 . S
C96 H118 0.931 . S
C97 C92 1.356 . S
C97 C96 1.409 . S
C97 H119 0.930 . S
C98 O108 1.301 . S
C98 O109 1.248 . S
C99 O110 1.267 . S
C99 O111 1.278 . S
O100 Pr80 2.562 . S
O100 C82 1.254 . S
O101 Pr80 2.490 . S
O101 C82 1.225 . S
O102 Pr80 2.695 . S
O102 Pr81 2.436 1_556 S
O102 C89 1.270 . S
O103 Pr80 2.512 . S
O103 C89 1.248 . S
O104 Pr81 2.438 1_556 S
O104 C90 1.267 . S
O105 Pr80 2.437 . S
O105 C90 1.278 . S
O106 Pr81 2.562 . S
O106 C91 1.254 . S
O107 Pr81 2.490 . S
O107 C91 1.225 . S
O108 Pr80 2.411 1_554 S
O108 Pr81 2.707 . S
O108 C98 1.301 . S
O109 Pr81 2.512 . S
O109 C98 1.248 . S
O110 Pr80 2.438 1_554 S
O110 C99 1.267 . S
O111 Pr81 2.437 . S
O111 C99 1.278 . S
H112 C84 0.929 . S
H113 C85 0.929 . S
H114 C87 0.931 . S
H115 C88 0.930 . S
H116 C93 0.929 . S
H117 C94 0.929 . S
H118 C96 0.931 . S
H119 C97 0.930 . S
Pr120 C122 2.880 . S
Pr120 O140 2.562 . S
Pr120 O141 2.490 . S
Pr120 O142 2.695 . S
Pr120 O143 2.512 . S
Pr120 O145 2.437 . S
Pr120 O148 2.436 . S
Pr120 O150 2.438 . S
Pr121 C131 2.880 . S
Pr121 O142 2.436 . S
Pr121 O144 2.438 . S
Pr121 O146 2.562 . S
Pr121 O147 2.490 . S
Pr121 O148 2.695 . S
Pr121 O149 2.512 . S
Pr121 O151 2.437 . S
C122 Pr120 2.880 . S
C122 C123 1.491 . S
C122 O140 1.254 . S
C122 O141 1.225 . S
C123 C122 1.491 . S
C123 C124 1.392 . S
C123 C128 1.356 . S
C124 C123 1.392 . S
C124 C125 1.368 . S
C124 H152 0.929 . S
C125 C124 1.368 . S
C125 C126 1.386 . S
C125 H153 0.929 . S
C126 C125 1.386 . S
C126 C127 1.373 . S
C127 C126 1.373 . S
C127 C128 1.409 . S
C127 H154 0.931 . S
C128 C123 1.356 . S
C128 C127 1.409 . S
C128 H155 0.930 . S
C129 O142 1.270 . S
C129 O143 1.248 . S
C130 O144 1.267 . S
C130 O145 1.278 . S
C131 Pr121 2.880 . S
C131 C132 1.491 . S
C131 O146 1.254 . S
C131 O147 1.225 . S
C132 C131 1.491 . S
C132 C133 1.392 . S
C132 C137 1.356 . S
C133 C132 1.392 . S
C133 C134 1.368 . S
C133 H156 0.929 . S
C134 C133 1.368 . S
C134 C135 1.386 . S
C134 H157 0.929 . S
C135 C134 1.386 . S
C135 C136 1.373 . S
C136 C135 1.373 . S
C136 C137 1.409 . S
C136 H158 0.931 . S
C137 C132 1.356 . S
C137 C136 1.409 . S
C137 H159 0.930 . S
C138 O148 1.270 . S
C138 O149 1.248 . S
C139 O150 1.267 . S
C139 O151 1.278 . S
O140 Pr120 2.562 . S
O140 C122 1.254 . S
O141 Pr120 2.490 . S
O141 C122 1.225 . S
O142 Pr120 2.695 . S
O142 Pr121 2.436 . S
O142 C129 1.270 . S
O143 Pr120 2.512 . S
O143 C129 1.248 . S
O144 Pr121 2.438 . S
O144 C130 1.267 . S
O145 Pr120 2.437 . S
O145 C130 1.278 . S
O146 Pr121 2.562 . S
O146 C131 1.254 . S
O147 Pr121 2.490 . S
O147 C131 1.225 . S
O148 Pr120 2.436 . S
O148 Pr121 2.695 . S
O148 C138 1.270 . S
O149 Pr121 2.512 . S
O149 C138 1.248 . S
O150 Pr120 2.438 . S
O150 C139 1.267 . S
O151 Pr121 2.437 . S
O151 C139 1.278 . S
H152 C124 0.929 . S
H153 C125 0.929 . S
H154 C127 0.931 . S
H155 C128 0.930 . S
H156 C133 0.929 . S
H157 C134 0.929 . S
H158 C136 0.931 . S
H159 C137 0.930 . S
Pr160 C162 2.880 . S
Pr160 O180 2.562 . S
Pr160 O181 2.490 . S
Pr160 O182 2.695 . S
Pr160 O183 2.512 . S
Pr160 O185 2.437 . S
Pr160 O188 2.436 . S
Pr160 O190 2.438 . S
Pr161 C171 2.880 . S
Pr161 O182 2.436 . S
Pr161 O184 2.438 . S
Pr161 O186 2.562 . S
Pr161 O187 2.490 . S
Pr161 O188 2.695 . S
Pr161 O189 2.512 . S
Pr161 O191 2.437 . S
C162 Pr160 2.880 . S
C162 C163 1.491 . S
C162 O180 1.254 . S
C162 O181 1.225 . S
C163 C162 1.491 . S
C163 C164 1.392 . S
C163 C168 1.356 . S
C164 C163 1.392 . S
C164 C165 1.368 . S
C164 H192 0.929 . S
C165 C164 1.368 . S
C165 C166 1.386 . S
C165 H193 0.929 . S
C166 C165 1.386 . S
C166 C167 1.373 . S
C167 C166 1.373 . S
C167 C168 1.409 . S
C167 H194 0.931 . S
C168 C163 1.356 . S
C168 C167 1.409 . S
C168 H195 0.930 . S
C169 O182 1.270 . S
C169 O183 1.248 . S
C170 O184 1.267 . S
C170 O185 1.278 . S
C171 Pr161 2.880 . S
C171 C172 1.491 . S
C171 O186 1.254 . S
C171 O187 1.225 . S
C172 C171 1.491 . S
C172 C173 1.392 . S
C172 C177 1.356 . S
C173 C172 1.392 . S
C173 C174 1.368 . S
C173 H196 0.929 . S
C174 C173 1.368 . S
C174 C175 1.386 . S
C174 H197 0.929 . S
C175 C174 1.386 . S
C175 C176 1.373 . S
C176 C175 1.373 . S
C176 C177 1.409 . S
C176 H198 0.931 . S
C177 C172 1.356 . S
C177 C176 1.409 . S
C177 H199 0.930 . S
C178 O188 1.270 . S
C178 O189 1.248 . S
C179 O190 1.267 . S
C179 O191 1.278 . S
O180 Pr160 2.562 . S
O180 C162 1.254 . S
O181 Pr160 2.490 . S
O181 C162 1.225 . S
O182 Pr160 2.695 . S
O182 Pr161 2.436 . S
O182 C169 1.270 . S
O183 Pr160 2.512 . S
O183 C169 1.248 . S
O184 Pr161 2.438 . S
O184 C170 1.267 . S
O185 Pr160 2.437 . S
O185 C170 1.278 . S
O186 Pr161 2.562 . S
O186 C171 1.254 . S
O187 Pr161 2.490 . S
O187 C171 1.225 . S
O188 Pr160 2.436 . S
O188 Pr161 2.695 . S
O188 C178 1.270 . S
O189 Pr161 2.512 . S
O189 C178 1.248 . S
O190 Pr160 2.438 . S
O190 C179 1.267 . S
O191 Pr161 2.437 . S
O191 C179 1.278 . S
H192 C164 0.929 . S
H193 C165 0.929 . S
H194 C167 0.931 . S
H195 C168 0.930 . S
H196 C173 0.929 . S
H197 C174 0.929 . S
H198 C176 0.931 . S
H199 C177 0.930 . S
Pr200 C202 2.880 . S
Pr200 O220 2.562 . S
Pr200 O221 2.490 . S
Pr200 O222 2.695 . S
Pr200 O223 2.512 . S
Pr200 O225 2.437 . S
Pr200 O228 2.436 . S
Pr200 O230 2.438 . S
Pr201 C211 2.880 . S
Pr201 O222 2.436 1_455 S
Pr201 O224 2.438 1_455 S
Pr201 O226 2.562 . S
Pr201 O227 2.490 . S
Pr201 O228 2.695 1_455 S
Pr201 O229 2.512 . S
Pr201 O231 2.437 . S
C202 Pr200 2.880 . S
C202 C203 1.491 . S
C202 O220 1.254 . S
C202 O221 1.225 . S
C203 C202 1.491 . S
C203 C204 1.392 . S
C203 C208 1.356 . S
C204 C203 1.392 . S
C204 C205 1.368 . S
C204 H232 0.929 . S
C205 C204 1.368 . S
C205 C206 1.386 . S
C205 H233 0.929 . S
C206 C205 1.386 . S
C206 C207 1.373 . S
C207 C206 1.373 . S
C207 C208 1.409 . S
C207 H234 0.931 . S
C208 C203 1.356 . S
C208 C207 1.409 . S
C208 H235 0.930 . S
C209 O222 1.270 . S
C209 O223 1.248 . S
C210 O224 1.267 . S
C210 O225 1.278 . S
C211 Pr201 2.880 . S
C211 C212 1.491 . S
C211 O226 1.254 . S
C211 O227 1.225 . S
C212 C211 1.491 . S
C212 C213 1.392 . S
C212 C217 1.356 . S
C213 C212 1.392 . S
C213 C214 1.368 . S
C213 H236 0.929 . S
C214 C213 1.368 . S
C214 C215 1.386 . S
C214 H237 0.929 . S
C215 C214 1.386 . S
C215 C216 1.373 . S
C216 C215 1.373 . S
C216 C217 1.409 . S
C216 H238 0.931 . S
C217 C212 1.356 . S
C217 C216 1.409 . S
C217 H239 0.930 . S
C218 O228 1.270 1_455 S
C218 O229 1.248 . S
C219 O230 1.267 1_455 S
C219 O231 1.278 . S
O220 Pr200 2.562 . S
O220 C202 1.254 . S
O221 Pr200 2.490 . S
O221 C202 1.225 . S
O222 Pr200 2.695 . S
O222 Pr201 2.436 1_655 S
O222 C209 1.270 . S
O223 Pr200 2.512 . S
O223 C209 1.248 . S
O224 Pr201 2.438 1_655 S
O224 C210 1.267 . S
O225 Pr200 2.437 . S
O225 C210 1.278 . S
O226 Pr201 2.562 . S
O226 C211 1.254 . S
O227 Pr201 2.490 . S
O227 C211 1.225 . S
O228 Pr200 2.436 . S
O228 Pr201 2.695 1_655 S
O228 C218 1.270 1_655 S
O229 Pr201 2.512 . S
O229 C218 1.248 . S
O230 Pr200 2.438 . S
O230 C219 1.267 1_655 S
O231 Pr201 2.437 . S
O231 C219 1.278 . S
H232 C204 0.929 . S
H233 C205 0.929 . S
H234 C207 0.931 . S
H235 C208 0.930 . S
H236 C213 0.929 . S
H237 C214 0.929 . S
H238 C216 0.931 . S
H239 C217 0.930 . S
Pr240 C242 2.880 . S
Pr240 O260 2.562 . S
Pr240 O261 2.490 . S
Pr240 O262 2.695 . S
Pr240 O263 2.512 . S
Pr240 O265 2.437 . S
Pr240 O268 2.436 1_554 S
Pr240 O270 2.438 1_554 S
Pr241 C251 2.880 . S
Pr241 O262 2.436 1_556 S
Pr241 O264 2.438 1_556 S
Pr241 O266 2.562 . S
Pr241 O267 2.490 . S
Pr241 O268 2.695 . S
Pr241 O269 2.512 . S
Pr241 O271 2.437 . S
C242 Pr240 2.880 . S
C242 C243 1.491 . S
C242 O260 1.254 . S
C242 O261 1.225 . S
C243 C242 1.491 . S
C243 C244 1.392 . S
C243 C248 1.356 . S
C244 C243 1.392 . S
C244 C245 1.368 . S
C244 H272 0.929 . S
C245 C244 1.368 . S
C245 C246 1.386 . S
C245 H273 0.929 . S
C246 C245 1.386 . S
C246 C247 1.373 . S
C247 C246 1.373 . S
C247 C248 1.409 . S
C247 H274 0.931 . S
C248 C243 1.356 . S
C248 C247 1.409 . S
C248 H275 0.930 . S
C249 O262 1.270 . S
C249 O263 1.248 . S
C250 O264 1.267 . S
C250 O265 1.278 . S
C251 Pr241 2.880 . S
C251 C252 1.491 . S
C251 O266 1.254 . S
C251 O267 1.225 . S
C252 C251 1.491 . S
C252 C253 1.392 . S
C252 C257 1.356 . S
C253 C252 1.392 . S
C253 C254 1.368 . S
C253 H276 0.929 . S
C254 C253 1.368 . S
C254 C255 1.386 . S
C254 H277 0.929 . S
C255 C254 1.386 . S
C255 C256 1.373 . S
C256 C255 1.373 . S
C256 C257 1.409 . S
C256 H278 0.931 . S
C257 C252 1.356 . S
C257 C256 1.409 . S
C257 H279 0.930 . S
C258 O268 1.270 . S
C258 O269 1.248 . S
C259 O270 1.267 . S
C259 O271 1.278 . S
O260 Pr240 2.562 . S
O260 C242 1.254 . S
O261 Pr240 2.490 . S
O261 C242 1.225 . S
O262 Pr240 2.695 . S
O262 Pr241 2.436 1_554 S
O262 C249 1.270 . S
O263 Pr240 2.512 . S
O263 C249 1.248 . S
O264 Pr241 2.438 1_554 S
O264 C250 1.267 . S
O265 Pr240 2.437 . S
O265 C250 1.278 . S
O266 Pr241 2.562 . S
O266 C251 1.254 . S
O267 Pr241 2.490 . S
O267 C251 1.225 . S
O268 Pr240 2.436 1_556 S
O268 Pr241 2.695 . S
O268 C258 1.270 . S
O269 Pr241 2.512 . S
O269 C258 1.248 . S
O270 Pr240 2.438 1_556 S
O270 C259 1.267 . S
O271 Pr241 2.437 . S
O271 C259 1.278 . S
H272 C244 0.929 . S
H273 C245 0.929 . S
H274 C247 0.931 . S
H275 C248 0.930 . S
H276 C253 0.929 . S
H277 C254 0.929 . S
H278 C256 0.931 . S
H279 C257 0.930 . S
Pr280 C282 2.880 . S
Pr280 O300 2.562 . S
Pr280 O301 2.490 . S
Pr280 O302 2.695 . S
Pr280 O303 2.512 . S
Pr280 O305 2.437 . S
Pr280 O308 2.436 . S
Pr280 O310 2.438 . S
Pr281 C291 2.880 . S
Pr281 O302 2.436 . S
Pr281 O304 2.438 . S
Pr281 O306 2.562 . S
Pr281 O307 2.490 . S
Pr281 O308 2.695 . S
Pr281 O309 2.512 . S
Pr281 O311 2.437 . S
C282 Pr280 2.880 . S
C282 C283 1.491 . S
C282 O300 1.254 . S
C282 O301 1.225 . S
C283 C282 1.491 . S
C283 C284 1.392 . S
C283 C288 1.356 . S
C284 C283 1.392 . S
C284 C285 1.368 . S
C284 H312 0.929 . S
C285 C284 1.368 . S
C285 C286 1.386 . S
C285 H313 0.929 . S
C286 C285 1.386 . S
C286 C287 1.373 . S
C287 C286 1.373 . S
C287 C288 1.409 . S
C287 H314 0.931 . S
C288 C283 1.356 . S
C288 C287 1.409 . S
C288 H315 0.930 . S
C289 O302 1.270 . S
C289 O303 1.248 . S
C290 O304 1.267 . S
C290 O305 1.278 . S
C291 Pr281 2.880 . S
C291 C292 1.491 . S
C291 O306 1.254 . S
C291 O307 1.225 . S
C292 C291 1.491 . S
C292 C293 1.392 . S
C292 C297 1.356 . S
C293 C292 1.392 . S
C293 C294 1.368 . S
C293 H316 0.929 . S
C294 C293 1.368 . S
C294 C295 1.386 . S
C294 H317 0.929 . S
C295 C294 1.386 . S
C295 C296 1.373 . S
C296 C295 1.373 . S
C296 C297 1.409 . S
C296 H318 0.931 . S
C297 C292 1.356 . S
C297 C296 1.409 . S
C297 H319 0.930 . S
C298 O308 1.270 . S
C298 O309 1.248 . S
C299 O310 1.267 . S
C299 O311 1.278 . S
O300 Pr280 2.562 . S
O300 C282 1.254 . S
O301 Pr280 2.490 . S
O301 C282 1.225 . S
O302 Pr280 2.695 . S
O302 Pr281 2.436 . S
O302 C289 1.270 . S
O303 Pr280 2.512 . S
O303 C289 1.248 . S
O304 Pr281 2.438 . S
O304 C290 1.267 . S
O305 Pr280 2.437 . S
O305 C290 1.278 . S
O306 Pr281 2.562 . S
O306 C291 1.254 . S
O307 Pr281 2.490 . S
O307 C291 1.225 . S
O308 Pr280 2.436 . S
O308 Pr281 2.695 . S
O308 C298 1.270 . S
O309 Pr281 2.512 . S
O309 C298 1.248 . S
O310 Pr280 2.438 . S
O310 C299 1.267 . S
O311 Pr281 2.437 . S
O311 C299 1.278 . S
H312 C284 0.929 . S
H313 C285 0.929 . S
H314 C287 0.931 . S
H315 C288 0.930 . S
H316 C293 0.929 . S
H317 C294 0.929 . S
H318 C296 0.931 . S
H319 C297 0.930 . S
Pr320 C322 2.880 . S
Pr320 O340 2.562 . S
Pr320 O341 2.490 . S
Pr320 O342 2.695 . S
Pr320 O343 2.512 . S
Pr320 O345 2.437 . S
Pr320 O348 2.436 . S
Pr320 O350 2.438 . S
Pr321 C331 2.880 . S
Pr321 O342 2.436 . S
Pr321 O344 2.438 . S
Pr321 O346 2.562 . S
Pr321 O347 2.490 . S
Pr321 O348 2.695 . S
Pr321 O349 2.512 . S
Pr321 O351 2.437 . S
C322 Pr320 2.880 . S
C322 C323 1.491 . S
C322 O340 1.254 . S
C322 O341 1.225 . S
C323 C322 1.491 . S
C323 C324 1.392 . S
C323 C328 1.356 . S
C324 C323 1.392 . S
C324 C325 1.368 . S
C324 H352 0.929 . S
C325 C324 1.368 . S
C325 C326 1.386 . S
C325 H353 0.929 . S
C326 C325 1.386 . S
C326 C327 1.373 . S
C327 C326 1.373 . S
C327 C328 1.409 . S
C327 H354 0.931 . S
C328 C323 1.356 . S
C328 C327 1.409 . S
C328 H355 0.930 . S
C329 O342 1.270 . S
C329 O343 1.248 . S
C330 O344 1.267 . S
C330 O345 1.278 . S
C331 Pr321 2.880 . S
C331 C332 1.491 . S
C331 O346 1.254 . S
C331 O347 1.225 . S
C332 C331 1.491 . S
C332 C333 1.392 . S
C332 C337 1.356 . S
C333 C332 1.392 . S
C333 C334 1.368 . S
C333 H356 0.929 . S
C334 C333 1.368 . S
C334 C335 1.386 . S
C334 H357 0.929 . S
C335 C334 1.386 . S
C335 C336 1.373 . S
C336 C335 1.373 . S
C336 C337 1.409 . S
C336 H358 0.931 . S
C337 C332 1.356 . S
C337 C336 1.409 . S
C337 H359 0.930 . S
C338 O348 1.270 . S
C338 O349 1.248 . S
C339 O350 1.267 . S
C339 O351 1.278 . S
O340 Pr320 2.562 . S
O340 C322 1.254 . S
O341 Pr320 2.490 . S
O341 C322 1.225 . S
O342 Pr320 2.695 . S
O342 Pr321 2.436 . S
O342 C329 1.270 . S
O343 Pr320 2.512 . S
O343 C329 1.248 . S
O344 Pr321 2.438 . S
O344 C330 1.267 . S
O345 Pr320 2.437 . S
O345 C330 1.278 . S
O346 Pr321 2.562 . S
O346 C331 1.254 . S
O347 Pr321 2.490 . S
O347 C331 1.225 . S
O348 Pr320 2.436 . S
O348 Pr321 2.695 . S
O348 C338 1.270 . S
O349 Pr321 2.512 . S
O349 C338 1.248 . S
O350 Pr320 2.438 . S
O350 C339 1.267 . S
O351 Pr321 2.437 . S
O351 C339 1.278 . S
H352 C324 0.929 . S
H353 C325 0.929 . S
H354 C327 0.931 . S
H355 C328 0.930 . S
H356 C333 0.929 . S
H357 C334 0.929 . S
H358 C336 0.931 . S
H359 C337 0.930 . S
Pr360 C362 2.880 . S
Pr360 O380 2.562 . S
Pr360 O381 2.490 . S
Pr360 O382 2.695 . S
Pr360 O383 2.512 . S
Pr360 O385 2.437 . S
Pr360 O388 2.436 1_545 S
Pr360 O390 2.438 1_545 S
Pr361 C371 2.880 . S
Pr361 O382 2.436 1_565 S
Pr361 O384 2.438 1_565 S
Pr361 O386 2.562 . S
Pr361 O387 2.490 . S
Pr361 O388 2.695 . S
Pr361 O389 2.512 . S
Pr361 O391 2.437 . S
C362 Pr360 2.880 . S
C362 C363 1.491 . S
C362 O380 1.254 . S
C362 O381 1.225 . S
C363 C362 1.491 . S
C363 C364 1.392 . S
C363 C368 1.356 . S
C364 C363 1.392 . S
C364 C365 1.368 . S
C364 H392 0.929 . S
C365 C364 1.368 . S
C365 C366 1.386 . S
C365 H393 0.929 . S
C366 C365 1.386 . S
C366 C367 1.373 . S
C367 C366 1.373 . S
C367 C368 1.409 . S
C367 H394 0.931 . S
C368 C363 1.356 . S
C368 C367 1.409 . S
C368 H395 0.930 . S
C369 O382 1.270 . S
C369 O383 1.248 . S
C370 O384 1.267 . S
C370 O385 1.278 . S
C371 Pr361 2.880 . S
C371 C372 1.491 . S
C371 O386 1.254 . S
C371 O387 1.225 . S
C372 C371 1.491 . S
C372 C373 1.392 . S
C372 C377 1.356 . S
C373 C372 1.392 . S
C373 C374 1.368 . S
C373 H396 0.929 . S
C374 C373 1.368 . S
C374 C375 1.386 . S
C374 H397 0.929 . S
C375 C374 1.386 . S
C375 C376 1.373 . S
C376 C375 1.373 . S
C376 C377 1.409 . S
C376 H398 0.931 . S
C377 C372 1.356 . S
C377 C376 1.409 . S
C377 H399 0.930 . S
C378 O388 1.270 . S
C378 O389 1.248 . S
C379 O390 1.267 . S
C379 O391 1.278 . S
O380 Pr360 2.562 . S
O380 C362 1.254 . S
O381 Pr360 2.490 . S
O381 C362 1.225 . S
O382 Pr360 2.695 . S
O382 Pr361 2.436 1_545 S
O382 C369 1.270 . S
O383 Pr360 2.512 . S
O383 C369 1.248 . S
O384 Pr361 2.438 1_545 S
O384 C370 1.267 . S
O385 Pr360 2.437 . S
O385 C370 1.278 . S
O386 Pr361 2.562 . S
O386 C371 1.254 . S
O387 Pr361 2.490 . S
O387 C371 1.225 . S
O388 Pr360 2.436 1_565 S
O388 Pr361 2.695 . S
O388 C378 1.270 . S
O389 Pr361 2.512 . S
O389 C378 1.248 . S
O390 Pr360 2.438 1_565 S
O390 C379 1.267 . S
O391 Pr361 2.437 . S
O391 C379 1.278 . S
H392 C364 0.929 . S
H393 C365 0.929 . S
H394 C367 0.931 . S
H395 C368 0.930 . S
H396 C373 0.929 . S
H397 C374 0.929 . S
H398 C376 0.931 . S
H399 C377 0.930 . S
Pr400 C402 2.880 . S
Pr400 O420 2.562 . S
Pr400 O421 2.490 . S
Pr400 O422 2.695 1_545 S
Pr400 O423 2.512 1_545 S
Pr400 O425 2.437 1_545 S
Pr400 O428 2.436 . S
Pr400 O430 2.438 . S
Pr401 C411 2.880 . S
Pr401 O422 2.436 . S
Pr401 O424 2.438 . S
Pr401 O426 2.562 . S
Pr401 O427 2.490 . S
Pr401 O428 2.695 1_565 S
Pr401 O429 2.512 1_565 S
Pr401 O431 2.437 1_565 S
C402 Pr400 2.880 . S
C402 C403 1.491 . S
C402 O420 1.254 . S
C402 O421 1.225 . S
C403 C402 1.491 . S
C403 C404 1.392 . S
C403 C408 1.356 . S
C404 C403 1.392 . S
C404 C405 1.368 . S
C404 H432 0.929 . S
C405 C404 1.368 . S
C405 C406 1.386 . S
C405 H433 0.929 . S
C406 C405 1.386 . S
C406 C407 1.373 . S
C407 C406 1.373 . S
C407 C408 1.409 . S
C407 H434 0.931 . S
C408 C403 1.356 . S
C408 C407 1.409 . S
C408 H435 0.930 . S
C409 O422 1.270 . S
C409 O423 1.248 . S
C410 O424 1.267 . S
C410 O425 1.278 . S
C411 Pr401 2.880 . S
C411 C412 1.491 . S
C411 O426 1.254 . S
C411 O427 1.225 . S
C412 C411 1.491 . S
C412 C413 1.392 . S
C412 C417 1.356 . S
C413 C412 1.392 . S
C413 C414 1.368 . S
C413 H436 0.929 . S
C414 C413 1.368 . S
C414 C415 1.386 . S
C414 H437 0.929 . S
C415 C414 1.386 . S
C415 C416 1.373 . S
C416 C415 1.373 . S
C416 C417 1.409 . S
C416 H438 0.931 . S
C417 C412 1.356 . S
C417 C416 1.409 . S
C417 H439 0.930 . S
C418 O428 1.270 . S
C418 O429 1.248 . S
C419 O430 1.267 . S
C419 O431 1.278 . S
O420 Pr400 2.562 . S
O420 C402 1.254 . S
O421 Pr400 2.490 . S
O421 C402 1.225 . S
O422 Pr400 2.695 1_565 S
O422 Pr401 2.436 . S
O422 C409 1.270 . S
O423 Pr400 2.512 1_565 S
O423 C409 1.248 . S
O424 Pr401 2.438 . S
O424 C410 1.267 . S
O425 Pr400 2.437 1_565 S
O425 C410 1.278 . S
O426 Pr401 2.562 . S
O426 C411 1.254 . S
O427 Pr401 2.490 . S
O427 C411 1.225 . S
O428 Pr400 2.436 . S
O428 Pr401 2.695 1_545 S
O428 C418 1.270 . S
O429 Pr401 2.512 1_545 S
O429 C418 1.248 . S
O430 Pr400 2.438 . S
O430 C419 1.267 . S
O431 Pr401 2.437 1_545 S
O431 C419 1.278 . S
H432 C404 0.929 . S
H433 C405 0.929 . S
H434 C407 0.931 . S
H435 C408 0.930 . S
H436 C413 0.929 . S
H437 C414 0.929 . S
H438 C416 0.931 . S
H439 C417 0.930 . S
Pr440 C442 2.880 . S
Pr440 O460 2.562 . S
Pr440 O461 2.490 . S
Pr440 O462 2.695 . S
Pr440 O463 2.512 . S
Pr440 O465 2.437 . S
Pr440 O468 2.436 . S
Pr440 O470 2.438 . S
Pr441 C451 2.880 . S
Pr441 O462 2.436 . S
Pr441 O464 2.438 . S
Pr441 O466 2.562 . S
Pr441 O467 2.490 . S
Pr441 O468 2.695 . S
Pr441 O469 2.512 . S
Pr441 O471 2.437 . S
C442 Pr440 2.880 . S
C442 C443 1.491 . S
C442 O460 1.254 . S
C442 O461 1.225 . S
C443 C442 1.491 . S
C443 C444 1.392 . S
C443 C448 1.356 . S
C444 C443 1.392 . S
C444 C445 1.368 . S
C444 H472 0.929 . S
C445 C444 1.368 . S
C445 C446 1.386 . S
C445 H473 0.929 . S
C446 C445 1.386 . S
C446 C447 1.373 . S
C447 C446 1.373 . S
C447 C448 1.409 . S
C447 H474 0.931 . S
C448 C443 1.356 . S
C448 C447 1.409 . S
C448 H475 0.930 . S
C449 O462 1.270 . S
C449 O463 1.248 . S
C450 O464 1.267 . S
C450 O465 1.278 . S
C451 Pr441 2.880 . S
C451 C452 1.491 . S
C451 O466 1.254 . S
C451 O467 1.225 . S
C452 C451 1.491 . S
C452 C453 1.392 . S
C452 C457 1.356 . S
C453 C452 1.392 . S
C453 C454 1.368 . S
C453 H476 0.929 . S
C454 C453 1.368 . S
C454 C455 1.386 . S
C454 H477 0.929 . S
C455 C454 1.386 . S
C455 C456 1.373 . S
C456 C455 1.373 . S
C456 C457 1.409 . S
C456 H478 0.931 . S
C457 C452 1.356 . S
C457 C456 1.409 . S
C457 H479 0.930 . S
C458 O468 1.270 . S
C458 O469 1.248 . S
C459 O470 1.267 . S
C459 O471 1.278 . S
O460 Pr440 2.562 . S
O460 C442 1.254 . S
O461 Pr440 2.490 . S
O461 C442 1.225 . S
O462 Pr440 2.695 . S
O462 Pr441 2.436 . S
O462 C449 1.270 . S
O463 Pr440 2.512 . S
O463 C449 1.248 . S
O464 Pr441 2.438 . S
O464 C450 1.267 . S
O465 Pr440 2.437 . S
O465 C450 1.278 . S
O466 Pr441 2.562 . S
O466 C451 1.254 . S
O467 Pr441 2.490 . S
O467 C451 1.225 . S
O468 Pr440 2.436 . S
O468 Pr441 2.695 . S
O468 C458 1.270 . S
O469 Pr441 2.512 . S
O469 C458 1.248 . S
O470 Pr440 2.438 . S
O470 C459 1.267 . S
O471 Pr441 2.437 . S
O471 C459 1.278 . S
H472 C444 0.929 . S
H473 C445 0.929 . S
H474 C447 0.931 . S
H475 C448 0.930 . S
H476 C453 0.929 . S
H477 C454 0.929 . S
H478 C456 0.931 . S
H479 C457 0.930 . S
H480 C488 0.950 . S
H481 C493 0.950 . S
H482 C490 0.950 . S
H483 C492 0.950 . S
H484 C494 0.950 . S
H485 C496 0.950 . S
H486 C498 0.950 . S
H487 C499 0.950 . S
C488 H480 0.950 . S
C488 C489 1.386 . S
C488 C490 1.391 . S
C489 C488 1.386 . S
C489 C493 1.393 . S
C490 H482 0.950 . S
C490 C488 1.391 . S
C490 C491 1.400 . S
C491 C490 1.400 . S
C491 C492 1.398 . S
C491 C497 1.491 . S
C492 H483 0.950 . S
C492 C491 1.398 . S
C492 C493 1.391 . S
C493 H481 0.950 . S
C493 C489 1.393 . S
C493 C492 1.391 . S
C494 H484 0.950 . S
C494 C495 1.386 . S
C494 C496 1.391 . S
C495 C494 1.386 . S
C495 C499 1.393 . S
C496 H485 0.950 . S
C496 C494 1.391 . S
C496 C497 1.400 . S
C497 C491 1.491 . S
C497 C496 1.400 . S
C497 C498 1.398 . S
C498 H486 0.950 . S
C498 C497 1.398 . S
C498 C499 1.391 . S
C499 H487 0.950 . S
C499 C495 1.393 . S
C499 C498 1.391 . S
H500 C508 0.950 . S
H501 C513 0.950 . S
H502 C510 0.950 . S
H503 C512 0.950 . S
H504 C514 0.950 . S
H505 C516 0.950 . S
H506 C518 0.950 . S
H507 C519 0.950 . S
C508 H500 0.950 . S
C508 C509 1.386 . S
C508 C510 1.391 . S
C509 C508 1.386 . S
C509 C513 1.393 . S
C510 H502 0.950 . S
C510 C508 1.391 . S
C510 C511 1.400 . S
C511 C510 1.400 . S
C511 C512 1.398 . S
C511 C517 1.491 . S
C512 H503 0.950 . S
C512 C511 1.398 . S
C512 C513 1.391 . S
C513 H501 0.950 . S
C513 C509 1.393 . S
C513 C512 1.391 . S
C514 H504 0.950 . S
C514 C515 1.386 . S
C514 C516 1.391 . S
C515 C514 1.386 . S
C515 C519 1.393 . S
C516 H505 0.950 . S
C516 C514 1.391 . S
C516 C517 1.400 . S
C517 C511 1.491 . S
C517 C516 1.400 . S
C517 C518 1.398 . S
C518 H506 0.950 . S
C518 C517 1.398 . S
C518 C519 1.391 . S
C519 H507 0.950 . S
C519 C515 1.393 . S
C519 C518 1.391 . S
H520 C528 0.950 . S
H521 C533 0.950 . S
H522 C530 0.950 . S
H523 C532 0.950 . S
H524 C534 0.950 . S
H525 C536 0.950 . S
H526 C538 0.950 . S
H527 C539 0.950 . S
C528 H520 0.950 . S
C528 C529 1.386 . S
C528 C530 1.391 . S
C529 C528 1.386 . S
C529 C533 1.393 . S
C530 H522 0.950 . S
C530 C528 1.391 . S
C530 C531 1.400 . S
C531 C530 1.400 . S
C531 C532 1.398 . S
C531 C537 1.491 . S
C532 H523 0.950 . S
C532 C531 1.398 . S
C532 C533 1.391 . S
C533 H521 0.950 . S
C533 C529 1.393 . S
C533 C532 1.391 . S
C534 H524 0.950 . S
C534 C535 1.386 . S
C534 C536 1.391 . S
C535 C534 1.386 . S
C535 C539 1.393 . S
C536 H525 0.950 . S
C536 C534 1.391 . S
C536 C537 1.400 . S
C537 C531 1.491 . S
C537 C536 1.400 . S
C537 C538 1.398 . S
C538 H526 0.950 . S
C538 C537 1.398 . S
C538 C539 1.391 . S
C539 H527 0.950 . S
C539 C535 1.393 . S
C539 C538 1.391 . S
H540 C548 0.950 . S
H541 C553 0.950 . S
H542 C550 0.950 . S
H543 C552 0.950 . S
H544 C554 0.950 . S
H545 C556 0.950 . S
H546 C558 0.950 . S
H547 C559 0.950 1_565 S
C548 H540 0.950 . S
C548 C549 1.386 . S
C548 C550 1.391 . S
C549 C548 1.386 . S
C549 C553 1.393 . S
C550 H542 0.950 . S
C550 C548 1.391 . S
C550 C551 1.400 . S
C551 C550 1.400 . S
C551 C552 1.398 . S
C551 C557 1.491 . S
C552 H543 0.950 . S
C552 C551 1.398 . S
C552 C553 1.391 . S
C553 H541 0.950 . S
C553 C549 1.393 . S
C553 C552 1.391 . S
C554 H544 0.950 . S
C554 C555 1.386 . S
C554 C556 1.391 . S
C555 C554 1.386 . S
C555 C559 1.393 . S
C556 H545 0.950 . S
C556 C554 1.391 . S
C556 C557 1.400 . S
C557 C551 1.491 . S
C557 C556 1.400 . S
C557 C558 1.398 . S
C558 H546 0.950 . S
C558 C557 1.398 . S
C558 C559 1.391 . S
C559 H547 0.950 1_545 S
C559 C555 1.393 . S
C559 C558 1.391 . S
H560 C568 0.950 . S
H561 C573 0.950 . S
H562 C570 0.950 . S
H563 C572 0.950 . S
H564 C574 0.950 . S
H565 C576 0.950 . S
H566 C578 0.950 . S
H567 C579 0.950 . S
C568 H560 0.950 . S
C568 C569 1.386 . S
C568 C570 1.391 . S
C569 C568 1.386 . S
C569 C573 1.393 . S
C570 H562 0.950 . S
C570 C568 1.391 . S
C570 C571 1.400 . S
C571 C570 1.400 . S
C571 C572 1.398 . S
C571 C577 1.491 . S
C572 H563 0.950 . S
C572 C571 1.398 . S
C572 C573 1.391 . S
C573 H561 0.950 . S
C573 C569 1.393 . S
C573 C572 1.391 . S
C574 H564 0.950 . S
C574 C575 1.386 . S
C574 C576 1.391 . S
C575 C574 1.386 . S
C575 C579 1.393 . S
C576 H565 0.950 . S
C576 C574 1.391 . S
C576 C577 1.400 . S
C577 C571 1.491 . S
C577 C576 1.400 . S
C577 C578 1.398 . S
C578 H566 0.950 . S
C578 C577 1.398 . S
C578 C579 1.391 . S
C579 H567 0.950 . S
C579 C575 1.393 . S
C579 C578 1.391 . S
H580 C588 0.950 . S
H581 C593 0.950 . S
H582 C590 0.950 . S
H583 C592 0.950 . S
H584 C594 0.950 . S
H585 C596 0.950 . S
H586 C598 0.950 . S
H587 C599 0.950 . S
C588 H580 0.950 . S
C588 C589 1.386 . S
C588 C590 1.391 . S
C589 C588 1.386 . S
C589 C593 1.393 . S
C590 H582 0.950 . S
C590 C588 1.391 . S
C590 C591 1.400 . S
C591 C590 1.400 . S
C591 C592 1.398 . S
C591 C597 1.491 . S
C592 H583 0.950 . S
C592 C591 1.398 . S
C592 C593 1.391 . S
C593 H581 0.950 . S
C593 C589 1.393 . S
C593 C592 1.391 . S
C594 H584 0.950 . S
C594 C595 1.386 . S
C594 C596 1.391 . S
C595 C594 1.386 . S
C595 C599 1.393 . S
C596 H585 0.950 . S
C596 C594 1.391 . S
C596 C597 1.400 . S
C597 C591 1.491 . S
C597 C596 1.400 . S
C597 C598 1.398 . S
C598 H586 0.950 . S
C598 C597 1.398 . S
C598 C599 1.391 . S
C599 H587 0.950 . S
C599 C595 1.393 . S
C599 C598 1.391 . S
H600 C608 0.950 . S
H601 C613 0.950 . S
H602 C610 0.950 . S
H603 C612 0.950 . S
H604 C614 0.950 . S
H605 C616 0.950 . S
H606 C618 0.950 . S
H607 C619 0.950 . S
C608 H600 0.950 . S
C608 C609 1.386 . S
C608 C610 1.391 . S
C609 C608 1.386 . S
C609 C613 1.393 . S
C610 H602 0.950 . S
C610 C608 1.391 . S
C610 C611 1.400 . S
C611 C610 1.400 . S
C611 C612 1.398 . S
C611 C617 1.491 . S
C612 H603 0.950 . S
C612 C611 1.398 . S
C612 C613 1.391 . S
C613 H601 0.950 . S
C613 C609 1.393 . S
C613 C612 1.391 . S
C614 H604 0.950 . S
C614 C615 1.386 . S
C614 C616 1.391 . S
C615 C614 1.386 . S
C615 C619 1.393 . S
C616 H605 0.950 . S
C616 C614 1.391 . S
C616 C617 1.400 . S
C617 C611 1.491 . S
C617 C616 1.400 . S
C617 C618 1.398 . S
C618 H606 0.950 . S
C618 C617 1.398 . S
C618 C619 1.391 . S
C619 H607 0.950 . S
C619 C615 1.393 . S
C619 C618 1.391 . S
H620 C628 0.950 . S
H621 C633 0.950 . S
H622 C630 0.950 . S
H623 C632 0.950 . S
H624 C634 0.950 . S
H625 C636 0.950 . S
H626 C638 0.950 . S
H627 C639 0.950 . S
C628 H620 0.950 . S
C628 C629 1.386 . S
C628 C630 1.391 . S
C629 C628 1.386 . S
C629 C633 1.393 . S
C630 H622 0.950 . S
C630 C628 1.391 . S
C630 C631 1.400 . S
C631 C630 1.400 . S
C631 C632 1.398 . S
C631 C637 1.491 . S
C632 H623 0.950 . S
C632 C631 1.398 . S
C632 C633 1.391 . S
C633 H621 0.950 . S
C633 C629 1.393 . S
C633 C632 1.391 . S
C634 H624 0.950 . S
C634 C635 1.386 . S
C634 C636 1.391 . S
C635 C634 1.386 . S
C635 C639 1.393 . S
C636 H625 0.950 . S
C636 C634 1.391 . S
C636 C637 1.400 . S
C637 C631 1.491 . S
C637 C636 1.400 . S
C637 C638 1.398 . S
C638 H626 0.950 . S
C638 C637 1.398 . S
C638 C639 1.391 . S
C639 H627 0.950 . S
C639 C635 1.393 . S
C639 C638 1.391 . S
H640 C648 0.950 . S
H641 C653 0.950 . S
H642 C650 0.950 . S
H643 C652 0.950 . S
H644 C654 0.950 . S
H645 C656 0.950 . S
H646 C658 0.950 . S
H647 C659 0.950 . S
C648 H640 0.950 . S
C648 C649 1.386 . S
C648 C650 1.391 . S
C649 C648 1.386 . S
C649 C653 1.393 . S
C650 H642 0.950 . S
C650 C648 1.391 . S
C650 C651 1.400 . S
C651 C650 1.400 . S
C651 C652 1.398 . S
C651 C657 1.491 . S
C652 H643 0.950 . S
C652 C651 1.398 . S
C652 C653 1.391 . S
C653 H641 0.950 . S
C653 C649 1.393 . S
C653 C652 1.391 . S
C654 H644 0.950 . S
C654 C655 1.386 . S
C654 C656 1.391 . S
C655 C654 1.386 . S
C655 C659 1.393 . S
C656 H645 0.950 . S
C656 C654 1.391 . S
C656 C657 1.400 . S
C657 C651 1.491 . S
C657 C656 1.400 . S
C657 C658 1.398 . S
C658 H646 0.950 . S
C658 C657 1.398 . S
C658 C659 1.391 . S
C659 H647 0.950 . S
C659 C655 1.393 . S
C659 C658 1.391 . S
H660 C668 0.950 . S
H661 C673 0.950 . S
H662 C670 0.950 . S
H663 C672 0.950 . S
H664 C674 0.950 . S
H665 C676 0.950 . S
H666 C678 0.950 . S
H667 C679 0.950 . S
C668 H660 0.950 . S
C668 C669 1.386 . S
C668 C670 1.391 . S
C669 C668 1.386 . S
C669 C673 1.393 . S
C670 H662 0.950 . S
C670 C668 1.391 . S
C670 C671 1.400 . S
C671 C670 1.400 . S
C671 C672 1.398 . S
C671 C677 1.491 . S
C672 H663 0.950 . S
C672 C671 1.398 . S
C672 C673 1.391 . S
C673 H661 0.950 . S
C673 C669 1.393 . S
C673 C672 1.391 . S
C674 H664 0.950 . S
C674 C675 1.386 . S
C674 C676 1.391 . S
C675 C674 1.386 . S
C675 C679 1.393 . S
C676 H665 0.950 . S
C676 C674 1.391 . S
C676 C677 1.400 . S
C677 C671 1.491 . S
C677 C676 1.400 . S
C677 C678 1.398 . S
C678 H666 0.950 . S
C678 C677 1.398 . S
C678 C679 1.391 . S
C679 H667 0.950 . S
C679 C675 1.393 . S
C679 C678 1.391 . S
H680 C688 0.950 1_455 S
H681 C693 0.950 . S
H682 C690 0.950 . S
H683 C692 0.950 . S
H684 C694 0.950 . S
H685 C696 0.950 . S
H686 C698 0.950 . S
H687 C699 0.950 . S
C688 H680 0.950 1_655 S
C688 C689 1.386 . S
C688 C690 1.391 . S
C689 C688 1.386 . S
C689 C693 1.393 . S
C690 H682 0.950 . S
C690 C688 1.391 . S
C690 C691 1.400 . S
C691 C690 1.400 . S
C691 C692 1.398 . S
C691 C697 1.491 . S
C692 H683 0.950 . S
C692 C691 1.398 . S
C692 C693 1.391 . S
C693 H681 0.950 . S
C693 C689 1.393 . S
C693 C692 1.391 . S
C694 H684 0.950 . S
C694 C695 1.386 . S
C694 C696 1.391 . S
C695 C694 1.386 . S
C695 C699 1.393 . S
C696 H685 0.950 . S
C696 C694 1.391 . S
C696 C697 1.400 . S
C697 C691 1.491 . S
C697 C696 1.400 . S
C697 C698 1.398 . S
C698 H686 0.950 . S
C698 C697 1.398 . S
C698 C699 1.391 . S
C699 H687 0.950 . S
C699 C695 1.393 . S
C699 C698 1.391 . S
H700 C708 0.950 . S
H701 C713 0.950 . S
H702 C710 0.950 . S
H703 C712 0.950 . S
H704 C714 0.950 . S
H705 C716 0.950 . S
H706 C718 0.950 . S
H707 C719 0.950 . S
C708 H700 0.950 . S
C708 C709 1.386 . S
C708 C710 1.391 . S
C709 C708 1.386 . S
C709 C713 1.393 . S
C710 H702 0.950 . S
C710 C708 1.391 . S
C710 C711 1.400 . S
C711 C710 1.400 . S
C711 C712 1.398 . S
C711 C717 1.491 . S
C712 H703 0.950 . S
C712 C711 1.398 . S
C712 C713 1.391 . S
C713 H701 0.950 . S
C713 C709 1.393 . S
C713 C712 1.391 . S
C714 H704 0.950 . S
C714 C715 1.386 . S
C714 C716 1.391 . S
C715 C714 1.386 . S
C715 C719 1.393 . S
C716 H705 0.950 . S
C716 C714 1.391 . S
C716 C717 1.400 . S
C717 C711 1.491 . S
C717 C716 1.400 . S
C717 C718 1.398 . S
C718 H706 0.950 . S
C718 C717 1.398 . S
C718 C719 1.391 . S
C719 H707 0.950 . S
C719 C715 1.393 . S
C719 C718 1.391 . S
H720 C728 0.950 . S
H721 C733 0.950 . S
H722 C730 0.950 . S
H723 C732 0.950 . S
H724 C734 0.950 . S
H725 C736 0.950 . S
H726 C738 0.950 . S
H727 C739 0.950 . S
C728 H720 0.950 . S
C728 C729 1.386 . S
C728 C730 1.391 . S
C729 C728 1.386 . S
C729 C733 1.393 . S
C730 H722 0.950 . S
C730 C728 1.391 . S
C730 C731 1.400 . S
C731 C730 1.400 . S
C731 C732 1.398 . S
C731 C737 1.491 . S
C732 H723 0.950 . S
C732 C731 1.398 . S
C732 C733 1.391 . S
C733 H721 0.950 . S
C733 C729 1.393 . S
C733 C732 1.391 . S
C734 H724 0.950 . S
C734 C735 1.386 . S
C734 C736 1.391 . S
C735 C734 1.386 . S
C735 C739 1.393 . S
C736 H725 0.950 . S
C736 C734 1.391 . S
C736 C737 1.400 . S
C737 C731 1.491 . S
C737 C736 1.400 . S
C737 C738 1.398 . S
C738 H726 0.950 . S
C738 C737 1.398 . S
C738 C739 1.391 . S
C739 H727 0.950 . S
C739 C735 1.393 . S
C739 C738 1.391 . S
H740 C748 0.950 . S
H741 C753 0.950 . S
H742 C750 0.950 . S
H743 C752 0.950 . S
H744 C754 0.950 . S
H745 C756 0.950 . S
H746 C758 0.950 . S
H747 C759 0.950 . S
C748 H740 0.950 . S
C748 C749 1.386 . S
C748 C750 1.391 . S
C749 C748 1.386 . S
C749 C753 1.393 . S
C750 H742 0.950 . S
C750 C748 1.391 . S
C750 C751 1.400 . S
C751 C750 1.400 . S
C751 C752 1.398 . S
C751 C757 1.491 . S
C752 H743 0.950 . S
C752 C751 1.398 . S
C752 C753 1.391 . S
C753 H741 0.950 . S
C753 C749 1.393 . S
C753 C752 1.391 . S
C754 H744 0.950 . S
C754 C755 1.386 . S
C754 C756 1.391 . S
C755 C754 1.386 . S
C755 C759 1.393 . S
C756 H745 0.950 . S
C756 C754 1.391 . S
C756 C757 1.400 . S
C757 C751 1.491 . S
C757 C756 1.400 . S
C757 C758 1.398 . S
C758 H746 0.950 . S
C758 C757 1.398 . S
C758 C759 1.391 . S
C759 H747 0.950 . S
C759 C755 1.393 . S
C759 C758 1.391 . S
H760 C768 0.950 . S
H761 C773 0.950 . S
H762 C770 0.950 . S
H763 C772 0.950 . S
H764 C774 0.950 . S
H765 C776 0.950 . S
H766 C778 0.950 . S
H767 C779 0.950 . S
C768 H760 0.950 . S
C768 C769 1.386 . S
C768 C770 1.391 . S
C769 C768 1.386 . S
C769 C773 1.393 . S
C770 H762 0.950 . S
C770 C768 1.391 . S
C770 C771 1.400 . S
C771 C770 1.400 . S
C771 C772 1.398 . S
C771 C777 1.491 . S
C772 H763 0.950 . S
C772 C771 1.398 . S
C772 C773 1.391 . S
C773 H761 0.950 . S
C773 C769 1.393 . S
C773 C772 1.391 . S
C774 H764 0.950 . S
C774 C775 1.386 . S
C774 C776 1.391 . S
C775 C774 1.386 . S
C775 C779 1.393 . S
C776 H765 0.950 . S
C776 C774 1.391 . S
C776 C777 1.400 . S
C777 C771 1.491 . S
C777 C776 1.400 . S
C777 C778 1.398 . S
C778 H766 0.950 . S
C778 C777 1.398 . S
C778 C779 1.391 . S
C779 H767 0.950 . S
C779 C775 1.393 . S
C779 C778 1.391 . S
H780 C788 0.950 . S
H781 C793 0.950 . S
H782 C790 0.950 . S
H783 C792 0.950 . S
H784 C794 0.950 . S
H785 C796 0.950 . S
H786 C798 0.950 . S
H787 C799 0.950 . S
C788 H780 0.950 . S
C788 C789 1.386 . S
C788 C790 1.391 . S
C789 C788 1.386 . S
C789 C793 1.393 . S
C790 H782 0.950 . S
C790 C788 1.391 . S
C790 C791 1.400 1_554 S
C791 C790 1.400 1_556 S
C791 C792 1.398 . S
C791 C797 1.491 . S
C792 H783 0.950 . S
C792 C791 1.398 . S
C792 C793 1.391 1_556 S
C793 H781 0.950 . S
C793 C789 1.393 . S
C793 C792 1.391 1_554 S
C794 H784 0.950 . S
C794 C795 1.386 . S
C794 C796 1.391 . S
C795 C794 1.386 . S
C795 C799 1.393 . S
C796 H785 0.950 . S
C796 C794 1.391 . S
C796 C797 1.400 . S
C797 C791 1.491 . S
C797 C796 1.400 . S
C797 C798 1.398 . S
C798 H786 0.950 . S
C798 C797 1.398 . S
C798 C799 1.391 . S
C799 H787 0.950 . S
C799 C795 1.393 . S
C799 C798 1.391 . S
H800 C808 0.950 . S
H801 C813 0.950 . S
H802 C810 0.950 . S
H803 C812 0.950 . S
H804 C814 0.950 . S
H805 C816 0.950 . S
H806 C818 0.950 . S
H807 C819 0.950 . S
C808 H800 0.950 . S
C808 C809 1.386 . S
C808 C810 1.391 . S
C809 C808 1.386 . S
C809 C813 1.393 . S
C810 H802 0.950 . S
C810 C808 1.391 . S
C810 C811 1.400 . S
C811 C810 1.400 . S
C811 C812 1.398 . S
C811 C817 1.491 . S
C812 H803 0.950 . S
C812 C811 1.398 . S
C812 C813 1.391 . S
C813 H801 0.950 . S
C813 C809 1.393 . S
C813 C812 1.391 . S
C814 H804 0.950 . S
C814 C815 1.386 . S
C814 C816 1.391 . S
C815 C814 1.386 . S
C815 C819 1.393 . S
C816 H805 0.950 . S
C816 C814 1.391 . S
C816 C817 1.400 . S
C817 C811 1.491 . S
C817 C816 1.400 . S
C817 C818 1.398 . S
C818 H806 0.950 . S
C818 C817 1.398 . S
C818 C819 1.391 . S
C819 H807 0.950 . S
C819 C815 1.393 . S
C819 C818 1.391 . S
H820 C828 0.950 . S
H821 C833 0.950 . S
H822 C830 0.950 . S
H823 C832 0.950 . S
H824 C834 0.950 . S
H825 C836 0.950 . S
H826 C838 0.950 . S
H827 C839 0.950 . S
C828 H820 0.950 . S
C828 C829 1.386 . S
C828 C830 1.391 1_554 S
C829 C828 1.386 . S
C829 C833 1.393 . S
C830 H822 0.950 . S
C830 C828 1.391 1_556 S
C830 C831 1.400 . S
C831 C830 1.400 . S
C831 C832 1.398 . S
C831 C837 1.491 . S
C832 H823 0.950 . S
C832 C831 1.398 . S
C832 C833 1.391 1_556 S
C833 H821 0.950 . S
C833 C829 1.393 . S
C833 C832 1.391 1_554 S
C834 H824 0.950 . S
C834 C835 1.386 . S
C834 C836 1.391 . S
C835 C834 1.386 . S
C835 C839 1.393 . S
C836 H825 0.950 . S
C836 C834 1.391 . S
C836 C837 1.400 . S
C837 C831 1.491 . S
C837 C836 1.400 . S
C837 C838 1.398 . S
C838 H826 0.950 . S
C838 C837 1.398 . S
C838 C839 1.391 . S
C839 H827 0.950 . S
C839 C835 1.393 . S
C839 C838 1.391 . S
H840 C848 0.950 . S
H841 C853 0.950 . S
H842 C850 0.950 . S
H843 C852 0.950 . S
H844 C854 0.950 . S
H845 C856 0.950 . S
H846 C858 0.950 . S
H847 C859 0.950 . S
C848 H840 0.950 . S
C848 C849 1.386 . S
C848 C850 1.391 . S
C849 C848 1.386 . S
C849 C853 1.393 . S
C850 H842 0.950 . S
C850 C848 1.391 . S
C850 C851 1.400 . S
C851 C850 1.400 . S
C851 C852 1.398 . S
C851 C857 1.491 . S
C852 H843 0.950 . S
C852 C851 1.398 . S
C852 C853 1.391 . S
C853 H841 0.950 . S
C853 C849 1.393 . S
C853 C852 1.391 . S
C854 H844 0.950 . S
C854 C855 1.386 . S
C854 C856 1.391 . S
C855 C854 1.386 . S
C855 C859 1.393 . S
C856 H845 0.950 . S
C856 C854 1.391 . S
C856 C857 1.400 . S
C857 C851 1.491 . S
C857 C856 1.400 . S
C857 C858 1.398 . S
C858 H846 0.950 . S
C858 C857 1.398 . S
C858 C859 1.391 . S
C859 H847 0.950 . S
C859 C855 1.393 . S
C859 C858 1.391 . S
H860 C868 0.950 . S
H861 C873 0.950 . S
H862 C870 0.950 . S
H863 C872 0.950 . S
H864 C874 0.950 . S
H865 C876 0.950 . S
H866 C878 0.950 . S
H867 C879 0.950 . S
C868 H860 0.950 . S
C868 C869 1.386 . S
C868 C870 1.391 . S
C869 C868 1.386 . S
C869 C873 1.393 . S
C870 H862 0.950 . S
C870 C868 1.391 . S
C870 C871 1.400 . S
C871 C870 1.400 . S
C871 C872 1.398 . S
C871 C877 1.491 . S
C872 H863 0.950 . S
C872 C871 1.398 . S
C872 C873 1.391 . S
C873 H861 0.950 . S
C873 C869 1.393 . S
C873 C872 1.391 . S
C874 H864 0.950 . S
C874 C875 1.386 . S
C874 C876 1.391 . S
C875 C874 1.386 . S
C875 C879 1.393 . S
C876 H865 0.950 . S
C876 C874 1.391 . S
C876 C877 1.400 . S
C877 C871 1.491 . S
C877 C876 1.400 . S
C877 C878 1.398 . S
C878 H866 0.950 . S
C878 C877 1.398 . S
C878 C879 1.391 . S
C879 H867 0.950 . S
C879 C875 1.393 . S
C879 C878 1.391 . S
H880 C888 0.950 . S
H881 C893 0.950 . S
H882 C890 0.950 . S
H883 C892 0.950 . S
H884 C894 0.950 . S
H885 C896 0.950 . S
H886 C898 0.950 . S
H887 C899 0.950 . S
C888 H880 0.950 . S
C888 C889 1.386 . S
C888 C890 1.391 . S
C889 C888 1.386 . S
C889 C893 1.393 . S
C890 H882 0.950 . S
C890 C888 1.391 . S
C890 C891 1.400 . S
C891 C890 1.400 . S
C891 C892 1.398 . S
C891 C897 1.491 . S
C892 H883 0.950 . S
C892 C891 1.398 . S
C892 C893 1.391 . S
C893 H881 0.950 . S
C893 C889 1.393 . S
C893 C892 1.391 . S
C894 H884 0.950 . S
C894 C895 1.386 . S
C894 C896 1.391 . S
C895 C894 1.386 . S
C895 C899 1.393 . S
C896 H885 0.950 . S
C896 C894 1.391 . S
C896 C897 1.400 . S
C897 C891 1.491 . S
C897 C896 1.400 . S
C897 C898 1.398 . S
C898 H886 0.950 . S
C898 C897 1.398 . S
C898 C899 1.391 . S
C899 H887 0.950 . S
C899 C895 1.393 . S
C899 C898 1.391 . S
H900 C908 0.950 . S
H901 C913 0.950 . S
H902 C910 0.950 1_565 S
H903 C912 0.950 . S
H904 C914 0.950 1_655 S
H905 C916 0.950 1_545 S
H906 C918 0.950 . S
H907 C919 0.950 . S
C908 H900 0.950 . S
C908 C909 1.386 . S
C908 C910 1.391 . S
C909 C908 1.386 . S
C909 C913 1.393 . S
C910 H902 0.950 1_545 S
C910 C908 1.391 . S
C910 C911 1.400 . S
C911 C910 1.400 . S
C911 C912 1.398 . S
C911 C917 1.491 1_545 S
C912 H903 0.950 . S
C912 C911 1.398 . S
C912 C913 1.391 . S
C913 H901 0.950 . S
C913 C909 1.393 . S
C913 C912 1.391 . S
C914 H904 0.950 1_455 S
C914 C915 1.386 . S
C914 C916 1.391 . S
C915 C914 1.386 . S
C915 C919 1.393 . S
C916 H905 0.950 1_565 S
C916 C914 1.391 . S
C916 C917 1.400 . S
C917 C911 1.491 1_565 S
C917 C916 1.400 . S
C917 C918 1.398 . S
C918 H906 0.950 . S
C918 C917 1.398 . S
C918 C919 1.391 . S
C919 H907 0.950 . S
C919 C915 1.393 . S
C919 C918 1.391 . S
H920 C928 0.950 . S
H921 C933 0.950 . S
H922 C930 0.950 . S
H923 C932 0.950 . S
H924 C934 0.950 . S
H925 C936 0.950 . S
H926 C938 0.950 . S
H927 C939 0.950 . S
C928 H920 0.950 . S
C928 C929 1.386 . S
C928 C930 1.391 . S
C929 C928 1.386 . S
C929 C933 1.393 . S
C930 H922 0.950 . S
C930 C928 1.391 . S
C930 C931 1.400 . S
C931 C930 1.400 . S
C931 C932 1.398 . S
C931 C937 1.491 . S
C932 H923 0.950 . S
C932 C931 1.398 . S
C932 C933 1.391 . S
C933 H921 0.950 . S
C933 C929 1.393 . S
C933 C932 1.391 . S
C934 H924 0.950 . S
C934 C935 1.386 . S
C934 C936 1.391 . S
C935 C934 1.386 . S
C935 C939 1.393 . S
C936 H925 0.950 . S
C936 C934 1.391 . S
C936 C937 1.400 . S
C937 C931 1.491 . S
C937 C936 1.400 . S
C937 C938 1.398 . S
C938 H926 0.950 . S
C938 C937 1.398 . S
C938 C939 1.391 . S
C939 H927 0.950 . S
C939 C935 1.393 . S
C939 C938 1.391 . S
H940 C948 0.950 . S
H941 C953 0.950 . S
H942 C950 0.950 1_565 S
H943 C952 0.950 . S
H944 C954 0.950 . S
H945 C956 0.950 . S
H946 C958 0.950 . S
H947 C959 0.950 . S
C948 H940 0.950 . S
C948 C949 1.386 . S
C948 C950 1.391 . S
C949 C948 1.386 . S
C949 C953 1.393 . S
C950 H942 0.950 1_545 S
C950 C948 1.391 . S
C950 C951 1.391 1_545 S
C951 C950 1.391 1_565 S
C951 C952 1.380 1_565 S
C951 C957 1.517 . S
C952 H943 0.950 . S
C952 C951 1.380 1_545 S
C952 C953 1.391 . S
C953 H941 0.950 . S
C953 C949 1.393 . S
C953 C952 1.391 . S
C954 H944 0.950 . S
C954 C955 1.386 . S
C954 C956 1.391 . S
C955 C954 1.386 . S
C955 C959 1.393 . S
C956 H945 0.950 . S
C956 C954 1.391 . S
C956 C957 1.400 . S
C957 C951 1.517 . S
C957 C956 1.400 . S
C957 C958 1.398 . S
C958 H946 0.950 . S
C958 C957 1.398 . S
C958 C959 1.391 . S
C959 H947 0.950 . S
C959 C955 1.393 . S
C959 C958 1.391 . S
H960 C968 0.950 . S
H961 C973 0.950 . S
H962 C970 0.950 . S
H963 C972 0.950 . S
H964 C974 0.950 . S
H965 C976 0.950 . S
H966 C978 0.950 . S
H967 C979 0.950 . S
C968 H960 0.950 . S
C968 C969 1.386 . S
C968 C970 1.391 . S
C969 C968 1.386 . S
C969 C973 1.393 . S
C970 H962 0.950 . S
C970 C968 1.391 . S
C970 C971 1.400 . S
C971 C970 1.400 . S
C971 C972 1.398 . S
C971 C977 1.491 . S
C972 H963 0.950 . S
C972 C971 1.398 . S
C972 C973 1.391 . S
C973 H961 0.950 . S
C973 C969 1.393 . S
C973 C972 1.391 . S
C974 H964 0.950 . S
C974 C975 1.386 . S
C974 C976 1.391 . S
C975 C974 1.386 . S
C975 C979 1.393 . S
C976 H965 0.950 . S
C976 C974 1.391 . S
C976 C977 1.400 . S
C977 C971 1.491 . S
C977 C976 1.400 . S
C977 C978 1.398 . S
C978 H966 0.950 . S
C978 C977 1.398 . S
C978 C979 1.391 . S
C979 H967 0.950 . S
C979 C975 1.393 . S
C979 C978 1.391 . S
H980 C988 0.950 . S
H981 C993 0.950 . S
H982 C990 0.950 . S
H983 C992 0.950 . S
H984 C994 0.950 . S
H985 C996 0.950 . S
H986 C998 0.950 . S
H987 C999 0.950 . S
C988 H980 0.950 . S
C988 C989 1.386 . S
C988 C990 1.391 . S
C989 C988 1.386 . S
C989 C993 1.393 . S
C990 H982 0.950 . S
C990 C988 1.391 . S
C990 C991 1.400 . S
C991 C990 1.400 . S
C991 C992 1.398 . S
C991 C997 1.491 . S
C992 H983 0.950 . S
C992 C991 1.398 . S
C992 C993 1.391 . S
C993 H981 0.950 . S
C993 C989 1.393 . S
C993 C992 1.391 . S
C994 H984 0.950 . S
C994 C995 1.386 . S
C994 C996 1.391 . S
C995 C994 1.386 . S
C995 C999 1.393 . S
C996 H985 0.950 . S
C996 C994 1.391 . S
C996 C997 1.400 . S
C997 C991 1.491 . S
C997 C996 1.400 . S
C997 C998 1.398 . S
C998 H986 0.950 . S
C998 C997 1.398 . S
C998 C999 1.391 . S
C999 H987 0.950 . S
C999 C995 1.393 . S
C999 C998 1.391 . S
H1000 C1008 0.950 . S
H1001 C1013 0.950 . S
H1002 C1010 0.950 . S
H1003 C1012 0.950 . S
H1004 C1014 0.950 . S
H1005 C1016 0.950 . S
H1006 C1018 0.950 . S
H1007 C1019 0.950 . S
C1008 H1000 0.950 . S
C1008 C1009 1.386 . S
C1008 C1010 1.391 . S
C1009 C1008 1.386 . S
C1009 C1013 1.393 . S
C1010 H1002 0.950 . S
C1010 C1008 1.391 . S
C1010 C1011 1.400 . S
C1011 C1010 1.400 . S
C1011 C1012 1.398 . S
C1011 C1017 1.491 . S
C1012 H1003 0.950 . S
C1012 C1011 1.398 . S
C1012 C1013 1.391 . S
C1013 H1001 0.950 . S
C1013 C1009 1.393 . S
C1013 C1012 1.391 . S
C1014 H1004 0.950 . S
C1014 C1015 1.386 . S
C1014 C1016 1.391 . S
C1015 C1014 1.386 . S
C1015 C1019 1.393 . S
C1016 H1005 0.950 . S
C1016 C1014 1.391 . S
C1016 C1017 1.400 . S
C1017 C1011 1.491 . S
C1017 C1016 1.400 . S
C1017 C1018 1.398 . S
C1018 H1006 0.950 . S
C1018 C1017 1.398 . S
C1018 C1019 1.391 . S
C1019 H1007 0.950 . S
C1019 C1015 1.393 . S
C1019 C1018 1.391 . S
H1020 C1028 0.950 . S
H1021 C1033 0.950 . S
H1022 C1030 0.950 . S
H1023 C1032 0.950 . S
H1024 C1034 0.950 . S
H1025 C1036 0.950 . S
H1026 C1038 0.950 . S
H1027 C1039 0.950 . S
C1028 H1020 0.950 . S
C1028 C1029 1.386 . S
C1028 C1030 1.391 . S
C1029 C1028 1.386 . S
C1029 C1033 1.393 . S
C1030 H1022 0.950 . S
C1030 C1028 1.391 . S
C1030 C1031 1.400 . S
C1031 C1030 1.400 . S
C1031 C1032 1.398 . S
C1031 C1037 1.491 . S
C1032 H1023 0.950 . S
C1032 C1031 1.398 . S
C1032 C1033 1.391 . S
C1033 H1021 0.950 . S
C1033 C1029 1.393 . S
C1033 C1032 1.391 . S
C1034 H1024 0.950 . S
C1034 C1035 1.386 . S
C1034 C1036 1.391 . S
C1035 C1034 1.386 . S
C1035 C1039 1.393 . S
C1036 H1025 0.950 . S
C1036 C1034 1.391 . S
C1036 C1037 1.400 . S
C1037 C1031 1.491 . S
C1037 C1036 1.400 . S
C1037 C1038 1.398 . S
C1038 H1026 0.950 . S
C1038 C1037 1.398 . S
C1038 C1039 1.391 . S
C1039 H1027 0.950 . S
C1039 C1035 1.393 . S
C1039 C1038 1.391 . S
H1040 C1048 0.950 . S
H1041 C1053 0.950 . S
H1042 C1050 0.950 . S
H1043 C1052 0.950 . S
H1044 C1054 0.950 . S
H1045 C1056 0.950 . S
H1046 C1058 0.950 . S
H1047 C1059 0.950 . S
C1048 H1040 0.950 . S
C1048 C1049 1.386 . S
C1048 C1050 1.391 . S
C1049 C1048 1.386 . S
C1049 C1053 1.393 . S
C1050 H1042 0.950 . S
C1050 C1048 1.391 . S
C1050 C1051 1.400 . S
C1051 C1050 1.400 . S
C1051 C1052 1.398 . S
C1051 C1057 1.491 . S
C1052 H1043 0.950 . S
C1052 C1051 1.398 . S
C1052 C1053 1.391 . S
C1053 H1041 0.950 . S
C1053 C1049 1.393 . S
C1053 C1052 1.391 . S
C1054 H1044 0.950 . S
C1054 C1055 1.386 . S
C1054 C1056 1.391 . S
C1055 C1054 1.386 . S
C1055 C1059 1.393 . S
C1056 H1045 0.950 . S
C1056 C1054 1.391 . S
C1056 C1057 1.400 . S
C1057 C1051 1.491 . S
C1057 C1056 1.400 . S
C1057 C1058 1.398 . S
C1058 H1046 0.950 . S
C1058 C1057 1.398 . S
C1058 C1059 1.391 . S
C1059 H1047 0.950 . S
C1059 C1055 1.393 . S
C1059 C1058 1.391 . S
H1060 C1068 0.950 . S
H1061 C1073 0.950 . S
H1062 C1070 0.950 . S
H1063 C1072 0.950 . S
H1064 C1074 0.950 . S
H1065 C1076 0.950 . S
H1066 C1078 0.950 . S
H1067 C1079 0.950 . S
C1068 H1060 0.950 . S
C1068 C1069 1.386 . S
C1068 C1070 1.391 . S
C1069 C1068 1.386 . S
C1069 C1073 1.393 . S
C1070 H1062 0.950 . S
C1070 C1068 1.391 . S
C1070 C1071 1.400 . S
C1071 C1070 1.400 . S
C1071 C1072 1.398 . S
C1071 C1077 1.491 . S
C1072 H1063 0.950 . S
C1072 C1071 1.398 . S
C1072 C1073 1.391 . S
C1073 H1061 0.950 . S
C1073 C1069 1.393 . S
C1073 C1072 1.391 . S
C1074 H1064 0.950 . S
C1074 C1075 1.386 . S
C1074 C1076 1.391 . S
C1075 C1074 1.386 . S
C1075 C1079 1.393 . S
C1076 H1065 0.950 . S
C1076 C1074 1.391 . S
C1076 C1077 1.400 . S
C1077 C1071 1.491 . S
C1077 C1076 1.400 . S
C1077 C1078 1.398 . S
C1078 H1066 0.950 . S
C1078 C1077 1.398 . S
C1078 C1079 1.391 . S
C1079 H1067 0.950 . S
C1079 C1075 1.393 . S
C1079 C1078 1.391 . S
H1080 C1088 0.950 . S
H1081 C1093 0.950 . S
H1082 C1090 0.945 1_655 S
H1083 C1092 0.950 . S
H1084 C1094 0.950 . S
H1085 C1096 0.950 . S
H1086 C1098 0.950 . S
H1087 C1099 0.950 . S
C1088 H1080 0.950 . S
C1088 C1089 1.386 . S
C1088 C1090 1.396 . S
C1089 C1088 1.386 . S
C1089 C1093 1.393 . S
C1090 H1082 0.945 1_455 S
C1090 C1088 1.396 . S
C1090 C1091 1.400 1_455 S
C1091 C1090 1.400 1_655 S
C1091 C1092 1.398 1_655 S
C1091 C1097 1.491 . S
C1092 H1083 0.950 . S
C1092 C1091 1.398 1_455 S
C1092 C1093 1.391 . S
C1093 H1081 0.950 . S
C1093 C1089 1.393 . S
C1093 C1092 1.391 . S
C1094 H1084 0.950 . S
C1094 C1095 1.386 . S
C1094 C1096 1.391 . S
C1095 C1094 1.386 . S
C1095 C1099 1.393 . S
C1096 H1085 0.950 . S
C1096 C1094 1.391 . S
C1096 C1097 1.400 . S
C1097 C1091 1.491 . S
C1097 C1096 1.400 . S
C1097 C1098 1.398 . S
C1098 H1086 0.950 . S
C1098 C1097 1.398 . S
C1098 C1099 1.391 . S
C1099 H1087 0.950 . S
C1099 C1095 1.393 . S
C1099 C1098 1.391 . S
H1100 C1108 0.950 . S
H1101 C1113 0.950 . S
H1102 C1110 0.950 . S
H1103 C1112 0.950 . S
H1104 C1114 0.950 . S
H1105 C1116 0.950 . S
H1106 C1118 0.950 . S
H1107 C1119 0.950 . S
C1108 H1100 0.950 . S
C1108 C1109 1.386 . S
C1108 C1110 1.391 . S
C1109 C1108 1.386 . S
C1109 C1113 1.393 . S
C1110 H1102 0.950 . S
C1110 C1108 1.391 . S
C1110 C1111 1.400 . S
C1111 C1110 1.400 . S
C1111 C1112 1.398 . S
C1111 C1117 1.491 . S
C1112 H1103 0.950 . S
C1112 C1111 1.398 . S
C1112 C1113 1.391 . S
C1113 H1101 0.950 . S
C1113 C1109 1.393 . S
C1113 C1112 1.391 . S
C1114 H1104 0.950 . S
C1114 C1115 1.386 . S
C1114 C1116 1.391 . S
C1115 C1114 1.386 . S
C1115 C1119 1.393 . S
C1116 H1105 0.950 . S
C1116 C1114 1.391 . S
C1116 C1117 1.400 . S
C1117 C1111 1.491 . S
C1117 C1116 1.400 . S
C1117 C1118 1.398 . S
C1118 H1106 0.950 . S
C1118 C1117 1.398 . S
C1118 C1119 1.391 . S
C1119 H1107 0.950 . S
C1119 C1115 1.393 . S
C1119 C1118 1.391 . S
H1120 C1128 0.950 . S
H1121 C1133 0.950 . S
H1122 C1130 0.950 . S
H1123 C1132 0.950 . S
H1124 C1134 0.950 . S
H1125 C1136 0.950 . S
H1126 C1138 0.950 . S
H1127 C1139 0.950 . S
C1128 H1120 0.950 . S
C1128 C1129 1.386 . S
C1128 C1130 1.391 . S
C1129 C1128 1.386 . S
C1129 C1133 1.393 . S
C1130 H1122 0.950 . S
C1130 C1128 1.391 . S
C1130 C1131 1.400 . S
C1131 C1130 1.400 . S
C1131 C1132 1.398 . S
C1131 C1137 1.491 . S
C1132 H1123 0.950 . S
C1132 C1131 1.398 . S
C1132 C1133 1.391 . S
C1133 H1121 0.950 . S
C1133 C1129 1.393 . S
C1133 C1132 1.391 . S
C1134 H1124 0.950 . S
C1134 C1135 1.386 . S
C1134 C1136 1.391 . S
C1135 C1134 1.386 . S
C1135 C1139 1.393 . S
C1136 H1125 0.950 . S
C1136 C1134 1.391 . S
C1136 C1137 1.400 . S
C1137 C1131 1.491 . S
C1137 C1136 1.400 . S
C1137 C1138 1.398 . S
C1138 H1126 0.950 . S
C1138 C1137 1.398 . S
C1138 C1139 1.391 . S
C1139 H1127 0.950 . S
C1139 C1135 1.393 . S
C1139 C1138 1.391 . S
H1140 C1148 0.950 . S
H1141 C1153 0.950 . S
H1142 C1150 0.950 . S
H1143 C1152 0.950 . S
H1144 C1154 0.950 . S
H1145 C1156 0.950 . S
H1146 C1158 0.950 . S
H1147 C1159 0.950 . S
C1148 H1140 0.950 . S
C1148 C1149 1.386 . S
C1148 C1150 1.391 . S
C1149 C1148 1.386 . S
C1149 C1153 1.393 . S
C1150 H1142 0.950 . S
C1150 C1148 1.391 . S
C1150 C1151 1.400 . S
C1151 C1150 1.400 . S
C1151 C1152 1.398 . S
C1151 C1157 1.491 . S
C1152 H1143 0.950 . S
C1152 C1151 1.398 . S
C1152 C1153 1.391 . S
C1153 H1141 0.950 . S
C1153 C1149 1.393 . S
C1153 C1152 1.391 . S
C1154 H1144 0.950 . S
C1154 C1155 1.386 . S
C1154 C1156 1.391 . S
C1155 C1154 1.386 . S
C1155 C1159 1.393 . S
C1156 H1145 0.950 . S
C1156 C1154 1.391 . S
C1156 C1157 1.400 . S
C1157 C1151 1.491 . S
C1157 C1156 1.400 . S
C1157 C1158 1.398 . S
C1158 H1146 0.950 . S
C1158 C1157 1.398 . S
C1158 C1159 1.391 . S
C1159 H1147 0.950 . S
C1159 C1155 1.393 . S
C1159 C1158 1.391 . S
H1160 C1168 0.950 . S
H1161 C1173 0.950 . S
H1162 C1170 0.950 . S
H1163 C1172 0.950 . S
H1164 C1174 0.950 . S
H1165 C1176 0.950 . S
H1166 C1178 0.950 . S
H1167 C1179 0.950 . S
C1168 H1160 0.950 . S
C1168 C1169 1.386 . S
C1168 C1170 1.391 . S
C1169 C1168 1.386 . S
C1169 C1173 1.393 . S
C1170 H1162 0.950 . S
C1170 C1168 1.391 . S
C1170 C1171 1.400 . S
C1171 C1170 1.400 . S
C1171 C1172 1.398 . S
C1171 C1177 1.491 . S
C1172 H1163 0.950 . S
C1172 C1171 1.398 . S
C1172 C1173 1.391 . S
C1173 H1161 0.950 . S
C1173 C1169 1.393 . S
C1173 C1172 1.391 . S
C1174 H1164 0.950 . S
C1174 C1175 1.386 . S
C1174 C1176 1.391 . S
C1175 C1174 1.386 . S
C1175 C1179 1.393 . S
C1176 H1165 0.950 . S
C1176 C1174 1.391 . S
C1176 C1177 1.400 . S
C1177 C1171 1.491 . S
C1177 C1176 1.400 . S
C1177 C1178 1.398 . S
C1178 H1166 0.950 . S
C1178 C1177 1.398 . S
C1178 C1179 1.391 . S
C1179 H1167 0.950 . S
C1179 C1175 1.393 . S
C1179 C1178 1.391 . S
H1180 C1188 0.950 . S
H1181 C1193 0.950 . S
H1182 C1190 0.950 1_455 S
H1183 C1192 0.950 . S
H1184 C1194 0.950 . S
H1185 C1196 0.950 1_655 S
H1186 C1198 0.950 . S
H1187 C1199 0.950 . S
C1188 H1180 0.950 . S
C1188 C1189 1.386 . S
C1188 C1190 1.391 . S
C1189 C1188 1.386 . S
C1189 C1193 1.393 . S
C1190 H1182 0.950 1_655 S
C1190 C1188 1.391 . S
C1190 C1191 1.400 . S
C1191 C1190 1.400 . S
C1191 C1192 1.398 . S
C1191 C1197 1.491 1_655 S
C1192 H1183 0.950 . S
C1192 C1191 1.398 . S
C1192 C1193 1.391 . S
C1193 H1181 0.950 . S
C1193 C1189 1.393 . S
C1193 C1192 1.391 . S
C1194 H1184 0.950 . S
C1194 C1195 1.386 . S
C1194 C1196 1.391 . S
C1195 C1194 1.386 . S
C1195 C1199 1.393 . S
C1196 H1185 0.950 1_455 S
C1196 C1194 1.391 . S
C1196 C1197 1.400 . S
C1197 C1191 1.491 1_455 S
C1197 C1196 1.400 . S
C1197 C1198 1.398 . S
C1198 H1186 0.950 . S
C1198 C1197 1.398 . S
C1198 C1199 1.391 . S
C1199 H1187 0.950 . S
C1199 C1195 1.393 . S
C1199 C1198 1.391 . S
C489 C19 1.351 . S
C495 C459 1.324 . S
C509 C378 2.053 . S
C515 C58 2.057 . S
C529 C98 1.275 . S
C535 C338 1.283 . S
C549 C138 1.646 . S
C555 C419 1.557 . S
C569 C178 1.810 . S
C575 C418 1.809 . S
C589 C219 1.590 . S
C595 C458 1.685 . S
C609 C379 1.662 . S
C615 C258 1.736 . S
C629 C299 1.337 . S
C635 C339 1.315 . S
C649 C139 1.422 . S
C655 C179 1.424 . S
C669 C18 1.900 . S
C675 C218 1.889 . S
C689 C59 1.850 . S
C695 C259 1.884 . S
C709 C298 1.663 . S
C715 C99 1.579 . S
C729 C15 1.908 . S
C735 C329 1.872 . S
C749 C46 1.532 . S
C755 C410 1.515 . S
C769 C450 1.786 . S
C775 C86 1.822 . S
C789 C126 1.717 . S
C795 C369 1.615 . S
C809 C166 1.365 . S
C815 C370 1.349 . S
C829 C330 2.718 . S
C835 C215 2.629 . S
C849 C409 1.336 . S
C855 C246 1.388 . S
C869 C449 1.606 . S
C875 C295 1.652 . S
C889 C9 1.756 . S
C895 C135 1.782 . S
C909 C6 1.506 . S
C915 C50 1.483 . S
C929 C55 2.003 . S
C935 C90 2.069 . S
C949 C130 2.068 . S
C955 C95 2.018 . S
C969 C206 1.699 . S
C975 C170 1.669 . S
C989 C209 1.258 . S
C995 C255 1.302 . S
C1009 C250 1.483 . S
C1015 C286 1.498 . S
C1029 C175 2.010 . S
C1035 C289 1.948 . S
C1049 C335 1.881 . S
C1055 C129 1.848 . S
C1069 C210 1.746 . S
C1075 C366 1.768 . S
C1089 C326 1.225 . S
C1095 C249 1.178 . S
C1109 C415 1.515 . S
C1115 C290 1.562 . S
C1129 C169 1.589 . S
C1135 C455 1.623 . S
C1149 C446 0.629 . S
C1155 C49 0.648 . S
C1169 C89 1.818 . S
C1175 C375 1.865 . S
C1189 C406 1.592 . S
C1195 C10 1.571 . S
