# Generated by pormake.
# Topology wji, (4)-cn, num edge types: 1
# Building blocks:
#     Node 0, Type 0, BuildingBlock: QUQFOY_clean_sbu_1, # of connection points: 4
#     Node 1, Type 0, BuildingBlock: QUQFOY_clean_sbu_1, # of connection points: 4
#     Node 2, Type 0, BuildingBlock: QUQFOY_clean_sbu_1, # of connection points: 4
#     Node 3, Type 0, BuildingBlock: QUQFOY_clean_sbu_1, # of connection points: 4
#     Node 4, Type 0, BuildingBlock: QUQFOY_clean_sbu_1, # of connection points: 4
#     Node 5, Type 0, BuildingBlock: QUQFOY_clean_sbu_1, # of connection points: 4
#     Node 6, Type 0, BuildingBlock: QUQFOY_clean_sbu_1, # of connection points: 4
#     Node 7, Type 0, BuildingBlock: QUQFOY_clean_sbu_1, # of connection points: 4
#     Node 8, Type 0, BuildingBlock: QUQFOY_clean_sbu_1, # of connection points: 4
#     Node 9, Type 0, BuildingBlock: QUQFOY_clean_sbu_1, # of connection points: 4
#     Node 10, Type 0, BuildingBlock: QUQFOY_clean_sbu_1, # of connection points: 4
#     Node 11, Type 0, BuildingBlock: QUQFOY_clean_sbu_1, # of connection points: 4
#     Edge 12, Type (0, 0), BuildingBlock: EZIPEK_clean_linker_0, # of connection points: 2
#     Edge 13, Type (0, 0), BuildingBlock: EZIPEK_clean_linker_0, # of connection points: 2
#     Edge 14, Type (0, 0), BuildingBlock: EZIPEK_clean_linker_0, # of connection points: 2
#     Edge 15, Type (0, 0), BuildingBlock: EZIPEK_clean_linker_0, # of connection points: 2
#     Edge 16, Type (0, 0), BuildingBlock: EZIPEK_clean_linker_0, # of connection points: 2
#     Edge 17, Type (0, 0), BuildingBlock: EZIPEK_clean_linker_0, # of connection points: 2
#     Edge 18, Type (0, 0), BuildingBlock: EZIPEK_clean_linker_0, # of connection points: 2
#     Edge 19, Type (0, 0), BuildingBlock: EZIPEK_clean_linker_0, # of connection points: 2
#     Edge 20, Type (0, 0), BuildingBlock: EZIPEK_clean_linker_0, # of connection points: 2
#     Edge 21, Type (0, 0), BuildingBlock: EZIPEK_clean_linker_0, # of connection points: 2
#     Edge 22, Type (0, 0), BuildingBlock: EZIPEK_clean_linker_0, # of connection points: 2
#     Edge 23, Type (0, 0), BuildingBlock: EZIPEK_clean_linker_0, # of connection points: 2
#     Edge 24, Type (0, 0), BuildingBlock: EZIPEK_clean_linker_0, # of connection points: 2
#     Edge 25, Type (0, 0), BuildingBlock: EZIPEK_clean_linker_0, # of connection points: 2
#     Edge 26, Type (0, 0), BuildingBlock: EZIPEK_clean_linker_0, # of connection points: 2
#     Edge 27, Type (0, 0), BuildingBlock: EZIPEK_clean_linker_0, # of connection points: 2
#     Edge 28, Type (0, 0), BuildingBlock: EZIPEK_clean_linker_0, # of connection points: 2
#     Edge 29, Type (0, 0), BuildingBlock: EZIPEK_clean_linker_0, # of connection points: 2
#     Edge 30, Type (0, 0), BuildingBlock: EZIPEK_clean_linker_0, # of connection points: 2
#     Edge 31, Type (0, 0), BuildingBlock: EZIPEK_clean_linker_0, # of connection points: 2
#     Edge 32, Type (0, 0), BuildingBlock: EZIPEK_clean_linker_0, # of connection points: 2
#     Edge 33, Type (0, 0), BuildingBlock: EZIPEK_clean_linker_0, # of connection points: 2
#     Edge 34, Type (0, 0), BuildingBlock: EZIPEK_clean_linker_0, # of connection points: 2
#     Edge 35, Type (0, 0), BuildingBlock: EZIPEK_clean_linker_0, # of connection points: 2
# Relax obj value: 0.270
# Max RMSD: 0.196
# Mean RMSD: 0.196
data_MOF--net-wji--node1-QUQFOY_clean_sbu_1--edge1-EZIPEK_clean_linker_0
_symmetry_space_group_name_H-M    P1
_symmetry_Int_Tables_number       1
_symmetry_cell_setting            triclinic
loop_
_symmetry_equiv_pos_as_xyz
'x, y, z'
_cell_length_a     45.750906
_cell_length_b     45.877282
_cell_length_c     16.073326
_cell_angle_alpha  89.940375
_cell_angle_beta   89.939742
_cell_angle_gamma 119.57116
loop_
_atom_site_label
_atom_site_type_symbol
_atom_site_fract_x
_atom_site_fract_y
_atom_site_fract_z
_atom_type_partial_charge
O0 O 0.38813 0.31989 0.4772 0.0
Cd1 Cd 0.41137 0.3017 0.40138 0.0
Cd2 Cd 0.46007 0.36014 0.42763 0.0
O3 O 0.43634 0.34847 0.54112 0.0
O4 O 0.39371 0.25298 0.42313 0.0
O5 O 0.44363 0.29262 0.46621 0.0
C6 C 0.42015 0.26153 0.46831 0.0
C7 C 0.5181 0.39654 0.4233 0.0
C8 C 0.40487 0.33747 0.5386 0.0
C9 C 0.41702 0.34706 0.27569 0.0
O10 O 0.43337 0.36736 0.33378 0.0
O11 O 0.41166 0.31704 0.27948 0.0
O12 O 0.49758 0.40658 0.44569 0.0
O13 O 0.50603 0.36529 0.4051 0.0
O14 O 0.08369 0.3813 0.65138 0.0
Cd15 Cd 0.12336 0.39768 0.57223 0.0
Cd16 Cd 0.11564 0.45109 0.57854 0.0
O17 O 0.10271 0.43228 0.69768 0.0
O18 O 0.15067 0.37668 0.60687 0.0
O19 O 0.16795 0.43107 0.62041 0.0
C20 C 0.17249 0.40581 0.63513 0.0
C21 C 0.13394 0.5086 0.56681 0.0
C22 C 0.08272 0.40106 0.70463 0.0
C23 C 0.08437 0.3996 0.43812 0.0
O24 O 0.08317 0.42132 0.48505 0.0
O25 O 0.10594 0.39023 0.45152 0.0
O26 O 0.10338 0.48715 0.58456 0.0
O27 O 0.15485 0.4978 0.55514 0.0
O28 O 0.71556 0.07854 0.84816 0.0
Cd29 Cd 0.73795 0.1106 0.75184 0.0
Cd30 Cd 0.67163 0.09719 0.72181 0.0
O31 O 0.66433 0.07081 0.83 0.0
O32 O 0.78613 0.1348 0.78746 0.0
O33 O 0.75486 0.15929 0.77912 0.0
C34 C 0.78253 0.16051 0.80213 0.0
C35 C 0.63411 0.11804 0.70752 0.0
C36 C 0.68495 0.06494 0.86902 0.0
C37 C 0.7027 0.06891 0.6018 0.0
O38 O 0.67813 0.0731 0.62179 0.0
O39 O 0.7306 0.08401 0.64084 0.0
O40 O 0.62427 0.08663 0.70287 0.0
O41 O 0.66578 0.13846 0.7172 0.0
O42 O 0.65906 0.70154 0.97696 0.0
Cd43 Cd 0.64026 0.72273 0.89688 0.0
Cd44 Cd 0.5882 0.66384 0.91872 0.0
O45 O 0.60948 0.67364 0.03511 0.0
O46 O 0.66134 0.7714 0.92419 0.0
O47 O 0.60751 0.73466 0.94799 0.0
C48 C 0.63281 0.76459 0.95709 0.0
C49 C 0.53021 0.62632 0.91204 0.0
C50 C 0.64077 0.68381 0.03643 0.0
C51 C 0.63506 0.67796 0.77104 0.0
O52 O 0.61636 0.65741 0.82659 0.0
O53 O 0.64251 0.70861 0.77578 0.0
O54 O 0.55116 0.61679 0.93382 0.0
O55 O 0.54177 0.65756 0.89455 0.0
O56 O 0.96352 0.65566 0.14773 0.0
Cd57 Cd 0.92555 0.62911 0.06575 0.0
Cd58 Cd 0.94241 0.58385 0.09719 0.0
O59 O 0.95807 0.60982 0.20647 0.0
O60 O 0.89117 0.643 0.08651 0.0
O61 O 0.88346 0.59245 0.1177 0.0
C62 C 0.87355 0.61441 0.12347 0.0
C63 C 0.92197 0.52593 0.09814 0.0
C64 C 0.97047 0.6414 0.2057 0.0
C65 C 0.96903 0.62615 0.94137 0.0
O66 O 0.97319 0.60934 -0.00165 0.0
O67 O 0.94455 0.63202 0.94619 0.0
O68 O 0.95287 0.5469 0.11439 0.0
O69 O 0.90191 0.53749 0.0829 0.0
O70 O 0.32095 0.95708 0.34308 0.0
Cd71 Cd 0.31299 0.92079 0.25846 0.0
Cd72 Cd 0.37517 0.93817 0.29471 0.0
O73 O 0.36378 0.9552 0.40053 0.0
O74 O 0.26462 0.88566 0.26925 0.0
O75 O 0.30691 0.87858 0.31193 0.0
C76 C 0.27492 0.86791 0.30907 0.0
C77 C 0.41079 0.91522 0.30347 0.0
C78 C 0.34268 0.96558 0.40027 0.0
C79 C 0.36187 0.96493 0.13624 0.0
O80 O 0.38244 0.96855 0.19363 0.0
O81 O 0.33141 0.94128 0.14091 0.0
O82 O 0.42147 0.94647 0.31727 0.0
O83 O 0.37936 0.89626 0.28653 0.0
O84 O 0.71424 0.64664 0.33085 0.0
Cd85 Cd 0.73476 0.62616 0.40821 0.0
Cd86 Cd 0.67612 0.57601 0.38696 0.0
O87 O 0.68547 0.59773 0.27109 0.0
O88 O 0.78284 0.64366 0.37686 0.0
O89 O 0.74256 0.5911 0.35441 0.0
C90 C 0.77337 0.61459 0.344 0.0
C91 C 0.63975 0.51815 0.39567 0.0
C92 C 0.69602 0.62901 0.27134 0.0
C93 C 0.69077 0.62158 0.53589 0.0
O94 O 0.66995 0.60373 0.48005 0.0
O95 O 0.72126 0.62821 0.53038 0.0
O96 O 0.62931 0.53838 0.37391 0.0
O97 O 0.67131 0.5304 0.41144 0.0
O98 O 0.0846 0.71476 0.49309 0.0
Cd99 Cd 0.12219 0.72622 0.57647 0.0
Cd100 Cd 0.10645 0.6648 0.54664 0.0
O101 O 0.09047 0.67425 0.43632 0.0
O102 O 0.1548 0.77446 0.55655 0.0
O103 O 0.16565 0.73345 0.52694 0.0
C104 C 0.17396 0.76477 0.521 0.0
C105 C 0.12884 0.62868 0.54788 0.0
C106 C 0.07787 0.69345 0.43587 0.0
C107 C 0.07868 0.68042 0.70093 0.0
O108 O 0.07512 0.65949 0.64467 0.0
O109 O 0.10276 0.71058 0.69577 0.0
O110 O 0.09773 0.61808 0.53135 0.0
O111 O 0.14799 0.66021 0.56239 0.0
O112 O 0.3785 0.07628 0.69824 0.0
Cd113 Cd 0.41037 0.11545 0.77081 0.0
Cd114 Cd 0.45251 0.0968 0.72809 0.0
O115 O 0.42188 0.08176 0.62584 0.0
O116 O 0.39796 0.15128 0.76043 0.0
O117 O 0.44242 0.15366 0.69835 0.0
C118 C 0.42188 0.1653 0.70597 0.0
C119 C 0.51025 0.11701 0.71328 0.0
C120 C 0.39037 0.06936 0.63484 0.0
C121 C 0.41687 0.07279 0.89159 0.0
O122 O 0.43037 0.06667 0.83 0.0
O123 O 0.41292 0.09846 0.88974 0.0
O124 O 0.48859 0.08624 0.69829 0.0
O125 O 0.49935 0.1371 0.73435 0.0
O126 O 0.33285 0.37451 0.8354 0.0
Cd127 Cd 0.31285 0.39466 0.91532 0.0
Cd128 Cd 0.3715 0.44586 0.88967 0.0
O129 O 0.36013 0.42344 0.77451 0.0
O130 O 0.26416 0.376 0.88858 0.0
O131 O 0.30326 0.42875 0.86262 0.0
C132 C 0.27255 0.40472 0.85488 0.0
C133 C 0.40842 0.50383 0.89391 0.0
C134 C 0.35 0.39223 0.77453 0.0
C135 C 0.35896 0.40073 0.03943 0.0
O136 O 0.37911 0.41882 0.98248 0.0
O137 O 0.32819 0.3933 0.03595 0.0
O138 O 0.41824 0.48321 0.87129 0.0
O139 O 0.37719 0.49192 0.91315 0.0
O140 O 0.97308 0.32635 -0.00486 0.0
Cd141 Cd 0.93373 0.30341 0.07502 0.0
Cd142 Cd 0.94055 0.36408 0.06836 0.0
O143 O 0.95347 0.35819 0.94907 0.0
O144 O 0.90694 0.25538 0.04137 0.0
O145 O 0.88869 0.29201 0.02798 0.0
C146 C 0.88461 0.26244 0.01368 0.0
C147 C 0.92108 0.40263 0.08041 0.0
C148 C 0.97369 0.34692 0.94187 0.0
C149 C 0.97276 0.34418 0.20842 0.0
O150 O 0.97346 0.36689 0.1615 0.0
O151 O 0.9515 0.31346 0.19535 0.0
O152 O 0.95176 0.41192 0.06221 0.0
O153 O 0.90073 0.37113 0.09235 0.0
O154 O 0.65023 0.95291 0.14436 0.0
Cd155 Cd 0.64085 0.917 0.231 0.0
Cd156 Cd 0.58778 0.92963 0.26534 0.0
O157 O 0.60182 0.95261 0.15215 0.0
O158 O 0.66468 0.89354 0.18648 0.0
O159 O 0.60922 0.8693 0.19603 0.0
C160 C 0.6355 0.86825 0.17043 0.0
C161 C 0.53051 0.90943 0.29242 0.0
C162 C 0.63034 0.96274 0.11889 0.0
C163 C 0.64885 0.95656 0.38159 0.0
O164 O 0.62194 0.95576 0.35802 0.0
O165 O 0.65925 0.93843 0.34652 0.0
O166 O 0.55191 0.94087 0.2916 0.0
O167 O 0.54151 0.88867 0.2816 0.0
C168 C 0.35428 0.35171 0.12472 0.0
C169 C 0.37186 0.38645 0.10417 0.0
C170 C 0.42114 0.39183 0.17849 0.0
C171 C 0.40198 0.35865 0.20973 0.0
N172 N 0.34657 0.31019 0.22783 0.0
N173 N 0.41967 0.44106 0.1308 0.0
C174 C 0.36748 0.33937 0.18721 0.0
C175 C 0.40462 0.40696 0.13688 0.0
N176 N 0.32598 0.32993 0.0823 0.0
N177 N 0.45533 0.4087 0.18632 0.0
H178 H 0.40764 0.45326 0.10529 0.0
H179 H 0.44237 0.45714 0.15988 0.0
H180 H 0.46859 0.39782 0.21218 0.0
H181 H 0.47062 0.43189 0.15838 0.0
H182 H 0.31445 0.30403 0.09023 0.0
H183 H 0.31618 0.33705 0.03288 0.0
H184 H 0.32064 0.29729 0.21853 0.0
H185 H 0.35418 0.30077 0.27708 0.0
C186 C 1.02295 0.36216 0.40997 0.0
C187 C 0.05631 0.38121 0.37848 0.0
C188 C 0.03438 0.36837 0.23629 0.0
C189 C 1.00097 0.35381 0.26788 0.0
N190 N 0.96321 0.33876 0.38455 0.0
N191 N 0.09398 0.40454 0.26201 0.0
C192 C 0.99514 0.3509 0.35474 0.0
C193 C 0.06213 0.38462 0.29163 0.0
N194 N 1.01793 0.3541 0.49262 0.0
N195 N 0.03953 0.36585 0.15343 0.0
H196 H 0.11492 0.41624 0.30077 0.0
H197 H 0.0994 0.41136 0.19971 0.0
H198 H 1.01987 0.35357 0.11133 0.0
H199 H 0.06301 0.37297 0.12775 0.0
H200 H 0.99456 0.33761 0.51812 0.0
H201 H 0.03766 0.36132 0.53459 0.0
H202 H 0.95772 0.33976 0.44702 0.0
H203 H 0.94224 0.32977 0.34589 0.0
C204 C 0.69718 1.01311 0.41818 0.0
C205 C 0.66942 0.98215 0.44481 0.0
C206 C 0.67047 1.0068 0.58068 0.0
C207 C 0.69469 0.03896 0.54986 0.0
N208 N 0.73168 0.07329 0.44093 0.0
N209 N 0.62981 0.94876 0.5505 0.0
C210 C 0.70874 0.04218 0.46954 0.0
C211 C 0.6565 0.97871 0.52637 0.0
N212 N 0.71192 0.01476 0.343 0.0
N213 N 0.66104 1.00313 0.66251 0.0
H214 H 0.62061 0.92717 0.51416 0.0
H215 H 0.61591 0.94547 0.60444 0.0
H216 H 0.66985 0.02315 0.70384 0.0
H217 H 0.6465 0.98005 0.69146 0.0
H218 H 0.73386 0.03555 0.32228 0.0
H219 H 0.70359 0.99427 0.30322 0.0
H220 H 0.74044 0.07835 0.37996 0.0
H221 H 0.74089 0.09472 0.47782 0.0
C222 C 0.69751 0.67095 0.62334 0.0
C223 C 0.67886 0.6364 0.60163 0.0
C224 C 0.62997 0.63278 0.67412 0.0
C225 C 0.64994 0.6656 0.70653 0.0
N226 N 0.70627 0.71212 0.72815 0.0
N227 N 0.62969 0.58261 0.62772 0.0
C228 C 0.68476 0.68372 0.68586 0.0
C229 C 0.64579 0.61675 0.63366 0.0
N230 N 0.72642 0.69225 0.58204 0.0
N231 N 0.59572 0.61716 0.67935 0.0
H232 H 0.6412 0.56971 0.6033 0.0
H233 H 0.60659 0.56715 0.65612 0.0
H234 H 0.58296 0.62887 0.70349 0.0
H235 H 0.58009 0.59429 0.65059 0.0
H236 H 0.7388 0.71812 0.59104 0.0
H237 H 0.73602 0.68495 0.53256 0.0
H238 H 0.73225 0.72409 0.71981 0.0
H239 H 0.69896 0.72157 0.77793 0.0
C240 C 0.03618 0.68753 0.78896 0.0
C241 C 0.05247 0.66892 0.76771 0.0
C242 C 1.00827 0.62049 0.84231 0.0
C243 C 0.99504 0.64047 0.87414 0.0
N244 N 1.00312 0.69645 0.89259 0.0
N245 N 0.05809 0.62007 0.79419 0.0
C246 C 1.0108 0.675 0.85172 0.0
C247 C 0.03973 0.6361 0.80056 0.0
N248 N 0.04337 0.71622 0.747 0.0
N249 N 0.99039 0.58639 0.84978 0.0
H250 H 0.08218 0.63143 0.76848 0.0
H251 H 0.05107 0.59721 0.82324 0.0
H252 H 0.96633 0.57383 0.87562 0.0
H253 H 0.99777 0.5706 0.82153 0.0
H254 H 0.02959 0.72855 0.75528 0.0
H255 H 0.0604 0.72575 0.69788 0.0
H256 H 1.01654 0.72232 0.88352 0.0
H257 H 0.98603 0.68918 0.94159 0.0
C258 C 0.4222 0.03284 -0.01108 0.0
C259 C 0.40288 0.04728 0.95979 0.0
C260 C 0.35621 1.00827 0.04942 0.0
C261 C 0.37388 0.99086 0.06895 0.0
N262 N 0.42117 0.98274 0.04022 0.0
N263 N 0.34764 0.04197 0.94729 0.0
C264 C 0.40616 1.00204 0.03353 0.0
C265 C 0.36878 0.03318 0.98578 0.0
N266 N 0.45615 0.04901 0.97605 0.0
N267 N 0.3284 1.00254 0.09392 0.0
H268 H 0.35486 0.0588 0.89785 0.0
H269 H 0.32185 0.02969 0.9588 0.0
H270 H 0.3189 0.9858 0.14356 0.0
H271 H 0.31692 0.01718 0.08709 0.0
H272 H 0.47183 0.04105 0.00238 0.0
H273 H 0.46906 0.07238 0.94706 0.0
H274 H 0.44335 0.98831 0.00922 0.0
H275 H 0.40952 0.95925 0.06889 0.0
C276 C 0.60044 0.46324 0.33125 0.0
C277 C 0.61522 0.48206 0.40419 0.0
C278 C 0.5724 0.43682 0.48949 0.0
C279 C 0.5543 0.42124 0.41613 0.0
N280 N 0.55061 0.41844 0.26649 0.0
N281 N 0.61673 0.48723 0.55342 0.0
C282 C 0.56855 0.43365 0.33661 0.0
C283 C 0.60205 0.46864 0.4838 0.0
N284 N 0.61699 0.47402 0.25704 0.0
N285 N 0.56092 0.42108 0.56434 0.0
H286 H 0.63908 0.51009 0.55144 0.0
H287 H 0.60613 0.48086 0.61257 0.0
H288 H 0.53929 0.39766 0.56944 0.0
H289 H 0.57418 0.42956 0.61982 0.0
H290 H 0.60914 0.4602 0.20226 0.0
H291 H 0.64043 0.49565 0.25219 0.0
H292 H 0.55761 0.42854 0.20701 0.0
H293 H 0.5276 0.39625 0.2681 0.0
C294 C 0.14465 0.56127 0.63677 0.0
C295 C 0.14395 0.54454 0.56214 0.0
C296 C 0.14665 0.59096 0.48044 0.0
C297 C 0.14106 0.60433 0.5543 0.0
N298 N 0.1358 0.60377 0.70347 0.0
N299 N 0.1458 0.54321 0.41262 0.0
C300 C 0.1411 0.59034 0.63298 0.0
C301 C 0.14616 0.55969 0.48373 0.0
N302 N 0.14858 0.54906 0.71102 0.0
N303 N 0.15221 0.60824 0.40746 0.0
H304 H 0.1466 0.52087 0.41335 0.0
H305 H 0.14339 0.55079 0.3532 0.0
H306 H 0.15269 0.63121 0.40418 0.0
H307 H 0.15909 0.60149 0.35213 0.0
H308 H 0.15204 0.56135 0.76758 0.0
H309 H 0.15137 0.52784 0.71484 0.0
H310 H 0.13135 0.59249 0.76179 0.0
H311 H 0.13441 0.62579 0.703 0.0
C312 C 0.56053 0.12664 0.63109 0.0
C313 C 0.54659 0.12794 0.70881 0.0
C314 C 0.59792 0.13694 0.77949 0.0
C315 C 0.60879 0.12924 0.70419 0.0
N316 N 0.60247 0.11882 0.55692 0.0
N317 N 0.55137 0.13452 0.85785 0.0
C318 C 0.5909 0.12522 0.62921 0.0
C319 C 0.56546 0.13401 0.78316 0.0
N320 N 0.54459 0.12687 0.55941 0.0
N321 N 0.61832 0.14625 0.84776 0.0
H322 H 0.52797 0.13306 0.86295 0.0
H323 H 0.5619 0.13452 0.91522 0.0
H324 H 0.64187 0.14789 0.84727 0.0
H325 H 0.61334 0.15512 0.90248 0.0
H326 H 0.55453 0.12861 0.50018 0.0
H327 H 0.52249 0.12825 0.55969 0.0
H328 H 0.58882 0.11163 0.50178 0.0
H329 H 0.62566 0.11969 0.55304 0.0
C330 C 0.47971 0.58763 0.82793 0.0
C331 C 0.49407 0.6012 0.90643 0.0
C332 C 0.44668 0.55451 0.97779 0.0
C333 C 0.43329 0.53998 0.89928 0.0
N334 N 0.43124 0.546 0.75124 0.0
N335 N 0.48778 0.60328 0.05436 0.0
C336 C 0.44791 0.55783 0.82478 0.0
C337 C 0.47621 0.58651 0.98089 0.0
N338 N 0.49742 0.60209 0.75683 0.0
N339 N 0.43241 0.5368 0.04898 0.0
H340 H 0.50934 0.62681 0.05765 0.0
H341 H 0.47464 0.59549 0.11028 0.0
H342 H 0.41025 0.51375 0.04901 0.0
H343 H 0.44325 0.54403 0.1076 0.0
H344 H 0.49039 0.59125 0.69818 0.0
H345 H 0.52027 0.62448 0.75695 0.0
H346 H 0.43895 0.55906 0.69523 0.0
H347 H 0.40785 0.52425 0.74791 0.0
C348 C 0.90823 0.44345 0.0108 0.0
C349 C 0.91028 0.42813 0.08546 0.0
C350 C 0.90689 0.4715 0.16703 0.0
C351 C 0.91104 0.48979 0.09272 0.0
N352 N 0.91478 0.4937 0.94323 0.0
N353 N 0.9102 0.42586 0.23505 0.0
C354 C 0.91073 0.47559 0.01416 0.0
C355 C 0.90848 0.44128 0.1639 0.0
N356 N 0.90403 0.42712 0.93692 0.0
N357 N 0.9016 0.48329 0.24028 0.0
H358 H 0.91018 0.40311 0.23452 0.0
H359 H 0.91298 0.43607 0.29422 0.0
H360 H 0.9003 0.50536 0.24349 0.0
H361 H 0.8957 0.47007 0.2961 0.0
H362 H 0.89957 0.43541 0.88056 0.0
H363 H 0.90204 0.40349 0.93338 0.0
H364 H 0.919 0.48676 0.88476 0.0
H365 H 0.91544 0.51676 0.94338 0.0
C366 C 0.45198 0.90498 0.38111 0.0
C367 C 0.43485 0.90242 0.30573 0.0
C368 C 0.47364 0.88924 0.2309 0.0
C369 C 0.49439 0.8986 0.30247 0.0
N370 N 0.50304 0.91284 0.44763 0.0
N371 N 0.42835 0.89154 0.15821 0.0
C372 C 0.48314 0.90515 0.37866 0.0
C373 C 0.44482 0.89347 0.2307 0.0
N374 N 0.43822 0.90722 0.4547 0.0
N375 N 0.48205 0.87719 0.16265 0.0
H376 H 0.40686 0.89393 0.15575 0.0
H377 H 0.43688 0.88939 0.09973 0.0
H378 H 0.50334 0.87445 0.1607 0.0
H379 H 0.46654 0.86714 0.11105 0.0
H380 H 0.44791 0.90661 0.51282 0.0
H381 H 0.41518 0.90672 0.45761 0.0
H382 H 0.49854 0.92184 0.50279 0.0
H383 H 0.52497 0.91114 0.44848 0.0
C384 C 0.39703 0.39665 0.68642 0.0
C385 C 0.36298 0.37792 0.71202 0.0
C386 C 0.35726 0.33013 0.63163 0.0
C387 C 0.38963 0.35089 0.5971 0.0
N388 N 0.43394 0.40784 0.57015 0.0
N389 N 0.30835 0.32876 0.69325 0.0
C390 C 0.40765 0.38539 0.61773 0.0
C391 C 0.34226 0.34514 0.68003 0.0
N392 N 0.41996 0.42396 0.73 0.0
N393 N 0.34135 0.29619 0.62116 0.0
H394 H 0.29614 0.33947 0.72508 0.0
H395 H 0.29202 0.30604 0.66482 0.0
H396 H 0.35212 0.28411 0.58903 0.0
H397 H 0.31906 0.27989 0.65172 0.0
H398 H 0.44549 0.43659 0.71506 0.0
H399 H 0.41463 0.43096 0.78716 0.0
H400 H 0.44603 0.43359 0.58129 0.0
H401 H 0.44048 0.40148 0.51362 0.0
C402 C 1.01671 0.39517 0.85679 0.0
C403 C 1.00068 0.36069 0.87868 0.0
C404 C 0.04376 0.35545 0.80152 0.0
C405 C 0.0556 0.38793 0.7675 0.0
N406 N 0.0435 0.43331 0.74357 0.0
N407 N 0.99442 0.30599 0.85075 0.0
C408 C 0.03928 0.40637 0.78921 0.0
C409 C 1.01277 0.34009 0.8447 0.0
N410 N 1.01225 0.41782 0.90227 0.0
N411 N 0.06235 0.33967 0.79559 0.0
H412 H 0.97024 0.29351 0.87587 0.0
H413 H 1.00157 0.29023 0.82131 0.0
H414 H 0.08654 0.35118 0.77052 0.0
H415 H 0.05537 0.3169 0.82509 0.0
H416 H 0.02561 0.44348 0.88981 0.0
H417 H 0.9993 0.41198 0.95856 0.0
H418 H 0.02995 0.44563 0.75589 0.0
H419 H 0.05643 0.44028 0.68726 0.0
C420 C 0.64717 0.02086 0.07267 0.0
C421 C 0.64201 0.98842 0.05387 0.0
C422 C 0.67051 1.00825 0.9209 0.0
C423 C 0.67229 0.03964 0.93523 0.0
N424 N 0.65944 0.07524 0.02017 0.0
N425 N 0.64164 0.94913 0.95414 0.0
C426 C 0.65949 0.0457 0.00955 0.0
C427 C 0.65163 0.98149 0.9762 0.0
N428 N 0.64219 0.02851 0.1518 0.0
N429 N 0.68721 1.00397 0.85565 0.0
H430 H 0.62656 0.92878 -0.00757 0.0
H431 H 0.64514 0.94223 0.89482 0.0
H432 H 0.7018 0.02285 0.81352 0.0
H433 H 0.68931 0.98253 0.84795 0.0
H434 H 0.64918 0.05275 0.17105 0.0
H435 H 0.63373 1.01125 0.20057 0.0
H436 H 0.64672 0.07935 0.06851 0.0
H437 H 0.67054 0.09509 0.97798 0.0
C438 C 0.68738 0.69126 0.13202 0.0
C439 C 0.6548 0.67052 0.09879 0.0
C440 C 0.64781 0.62521 0.18979 0.0
C441 C 0.68231 0.64356 0.21153 0.0
N442 N 0.73686 0.69241 0.18849 0.0
N443 N 0.60935 0.6136 0.07721 0.0
C444 C 0.70279 0.67621 0.17848 0.0
C445 C 0.63644 0.63624 0.122 0.0
N446 N 0.70315 0.72523 0.12186 0.0
N447 N 0.62537 0.59835 0.23575 0.0
H448 H 0.60221 0.61942 0.02089 0.0
H449 H 0.59704 0.58797 0.09023 0.0
H450 H 0.63157 0.59147 0.29197 0.0
H451 H 0.5996 0.58601 0.22381 0.0
H452 H 0.72576 0.74144 0.15112 0.0
H453 H 0.69188 0.73739 0.09225 0.0
H454 H 0.75286 0.71506 0.15907 0.0
H455 H 0.74939 0.68158 0.21835 0.0
C456 C 0.05825 0.69214 0.29146 0.0
C457 C 0.05079 0.68665 0.37724 0.0
C458 C 0.99079 0.66158 0.34826 0.0
C459 C 0.99799 0.66157 0.2629 0.0
N460 N 0.03817 0.67521 0.15106 0.0
N461 N 1.01008 0.66405 0.48925 0.0
C462 C 0.03164 0.67691 0.23347 0.0
C463 C 1.01711 0.67129 0.40657 0.0
N464 N 0.0907 0.71208 0.26589 0.0
N465 N 0.95885 0.65251 0.37309 0.0
H466 H 0.02849 0.67049 0.53466 0.0
H467 H 0.98581 0.64936 0.51233 0.0
H468 H 0.93937 0.646 0.33067 0.0
H469 H 0.95251 0.65481 0.43403 0.0
H470 H 0.09746 0.71962 0.20443 0.0
H471 H 0.1106 0.72375 0.30771 0.0
H472 H 0.06204 0.68231 0.128 0.0
H473 H 1.01947 0.66464 0.1059 0.0
C474 C 0.35575 0.02375 0.43641 0.0
C475 C 0.3462 0.99054 0.46233 0.0
C476 C 0.35758 1.00839 0.60724 0.0
C477 C 0.36824 0.04163 0.58064 0.0
N478 N 0.36872 0.07977 0.4778 0.0
N479 N 0.33039 0.94947 0.57168 0.0
C480 C 0.36411 0.0488 0.49764 0.0
C481 C 0.3444 0.98227 0.54779 0.0
N482 N 0.35963 0.03203 0.35374 0.0
N483 N 0.36225 1.0022 0.68806 0.0
H484 H 0.32179 0.92985 0.52914 0.0
H485 H 0.32495 0.94145 0.6332 0.0
H486 H 0.37074 0.02044 0.73437 0.0
H487 H 0.35929 0.97939 0.70881 0.0
H488 H 0.37032 0.05657 0.33208 0.0
H489 H 0.35462 0.01484 0.30608 0.0
H490 H 0.36318 0.08582 0.41964 0.0
H491 H 0.37504 0.09846 0.52246 0.0
C492 C 0.39162 0.21317 0.56957 0.0
C493 C 0.42149 0.23707 0.52844 0.0
C494 C 0.45306 0.21777 0.61539 0.0
C495 C 0.42244 0.19058 0.64556 0.0
N496 N 0.36234 0.15686 0.62239 0.0
N497 N 0.48027 0.25639 0.5011 0.0
C498 C 0.39162 0.18658 0.61423 0.0
C499 C 0.45221 0.23781 0.54815 0.0
N500 N 0.36353 0.21647 0.5706 0.0
N501 N 0.48285 0.22535 0.65223 0.0
H502 H 0.48027 0.26961 0.44833 0.0
H503 H 0.5024 0.25543 0.50882 0.0
H504 H 0.4844 0.21251 0.70407 0.0
H505 H 0.50543 0.2467 0.63707 0.0
H506 H 0.34224 0.20056 0.60528 0.0
H507 H 0.36303 0.23741 0.54738 0.0
H508 H 0.33998 0.15266 0.5947 0.0
H509 H 0.36126 0.13517 0.6459 0.0
C510 C 0.249 0.40125 0.71172 0.0
C511 C 0.24883 0.40827 0.79788 0.0
C512 C 0.19937 0.41511 0.77669 0.0
C513 C 0.20027 0.40924 0.68996 0.0
N514 N 0.22905 0.40266 0.57243 0.0
N515 N 0.22808 0.42762 0.91015 0.0
C516 C 0.22603 0.40403 0.65679 0.0
C517 C 0.22532 0.41705 0.82961 0.0
N518 N 0.27053 0.39093 0.68279 0.0
N519 N 0.17275 0.41705 0.80928 0.0
H520 H 0.24642 0.42869 0.95057 0.0
H521 H 0.21408 0.43782 0.93499 0.0
H522 H 0.15328 0.41581 0.77305 0.0
H523 H 0.16853 0.41738 0.87283 0.0
H524 H 0.26925 0.38145 0.62328 0.0
H525 H 0.28855 0.38983 0.72015 0.0
H526 H 0.24925 0.40239 0.54336 0.0
H527 H 0.21266 0.40466 0.53073 0.0
C528 C 0.83178 0.20704 -0.00398 0.0
C529 C 0.85642 0.23783 0.96099 0.0
C530 C 0.82928 0.22004 0.8237 0.0
C531 C 0.80698 0.18794 0.8569 0.0
N532 N 0.78711 0.14991 0.97399 0.0
N533 N 0.88132 0.27267 0.83996 0.0
C534 C 0.80827 0.1812 0.94297 0.0
C535 C 0.85569 0.24425 0.87452 0.0
N536 N 0.83018 0.20303 0.08055 0.0
N537 N 0.8252 0.22736 0.74357 0.0
H538 H 0.90114 0.29097 0.87456 0.0
H539 H 0.88445 0.27707 0.77618 0.0
H540 H 0.80696 0.20981 0.70398 0.0
H541 H 0.83813 0.25134 0.71815 0.0
H542 H 0.81082 0.18272 0.11143 0.0
H543 H 0.84688 0.22155 0.12096 0.0
H544 H 0.78959 0.14194 0.03288 0.0
H545 H 0.76779 0.13105 0.93937 0.0
C546 C 0.64188 0.8478 0.02985 0.0
C547 C 0.63246 0.84078 0.11514 0.0
C548 C 0.62252 0.78343 0.09644 0.0
C549 C 0.63025 0.78992 0.01018 0.0
N550 N 0.64089 0.82588 0.89168 0.0
N551 N 0.60835 0.80055 0.22639 0.0
C552 C 0.63817 0.82148 0.97607 0.0
C553 C 0.6208 0.80806 0.14718 0.0
N554 N 0.65468 0.87976 0.00017 0.0
N555 N 0.61899 0.75465 0.13129 0.0
H556 H 0.6083 0.81833 0.2667 0.0
H557 H 0.59586 0.77626 0.25011 0.0
H558 H 0.62078 0.73627 0.09736 0.0
H559 H 0.61724 0.75022 0.19513 0.0
H560 H 0.66589 0.88741 0.94191 0.0
H561 H 0.65601 0.89938 0.0356 0.0
H562 H 0.64307 0.847 0.86174 0.0
H563 H 0.63782 0.80699 0.85058 0.0
C564 C 0.81848 0.59949 0.31681 0.0
C565 C 0.79614 0.60991 0.28609 0.0
C566 C 0.81901 0.61429 0.14504 0.0
C567 C 0.8446 0.60867 0.17776 0.0
N568 N 0.87077 0.5991 0.29782 0.0
N569 N 0.77568 0.62898 0.17194 0.0
C570 C 0.84464 0.6016 0.26429 0.0
C571 C 0.79642 0.61759 0.20029 0.0
N572 N 0.8146 0.58743 0.39623 0.0
N573 N 0.81573 0.61546 0.06076 0.0
H574 H 0.75785 0.63042 0.20952 0.0
H575 H 0.7775 0.63896 0.11272 0.0
H576 H 0.83136 0.61231 0.01879 0.0
H577 H 0.7957 0.61625 0.03228 0.0
H578 H 0.82761 0.57595 0.41973 0.0
H579 H 0.79613 0.58626 0.43648 0.0
H580 H 0.87426 0.59815 0.36156 0.0
H581 H 0.89068 0.60067 0.26299 0.0
C582 C 0.20644 0.78195 0.3843 0.0
C583 C 0.20318 0.78899 0.46934 0.0
C584 C 0.24653 0.84759 0.44736 0.0
C585 C 0.25135 0.84012 0.36443 0.0
N586 N 0.24072 0.79905 0.2588 0.0
N587 N 0.22653 0.82635 0.58605 0.0
C588 C 0.23296 0.80685 0.33465 0.0
C589 C 0.22525 0.82118 0.50209 0.0
N590 N 0.18296 0.75259 0.34879 0.0
N591 N 0.26118 0.88016 0.47314 0.0
H592 H 0.21211 0.80724 0.62817 0.0
H593 H 0.2444 0.84843 0.61433 0.0
H594 H 0.2768 0.90031 0.43504 0.0
H595 H 0.2555 0.88733 0.52965 0.0
H596 H 0.18196 0.74794 0.28516 0.0
H597 H 0.16257 0.73389 0.38094 0.0
H598 H 0.23069 0.77457 0.23724 0.0
H599 H 0.25941 0.81695 0.22047 0.0
loop_
_geom_bond_atom_site_label_1
_geom_bond_atom_site_label_2
_geom_bond_distance
_geom_bond_site_symmetry_2
_ccdc_geom_bond_type
O0 Cd1 2.223 . S
O0 C8 1.315 . S
Cd1 O0 2.223 . S
Cd1 O4 2.297 . S
Cd1 O5 2.439 . S
Cd1 O11 2.240 . S
Cd2 O3 2.240 . S
Cd2 O10 2.223 . S
Cd2 O12 2.297 . S
Cd2 O13 2.439 . S
O3 Cd2 2.240 . S
O3 C8 1.279 . S
O4 Cd1 2.297 . S
O4 C6 1.247 . S
O5 Cd1 2.439 . S
O5 C6 1.208 . S
C6 O4 1.247 . S
C6 O5 1.208 . S
C7 O12 1.247 . S
C7 O13 1.208 . S
C8 O0 1.315 . S
C8 O3 1.279 . S
C9 O10 1.315 . S
C9 O11 1.279 . S
O10 Cd2 2.223 . S
O10 C9 1.315 . S
O11 Cd1 2.240 . S
O11 C9 1.279 . S
O12 Cd2 2.297 . S
O12 C7 1.247 . S
O13 Cd2 2.439 . S
O13 C7 1.208 . S
O14 Cd15 2.223 . S
O14 C22 1.315 . S
Cd15 O14 2.223 . S
Cd15 O18 2.297 . S
Cd15 O19 2.439 . S
Cd15 O25 2.240 . S
Cd16 O17 2.240 . S
Cd16 O24 2.223 . S
Cd16 O26 2.297 . S
Cd16 O27 2.439 . S
O17 Cd16 2.240 . S
O17 C22 1.279 . S
O18 Cd15 2.297 . S
O18 C20 1.247 . S
O19 Cd15 2.439 . S
O19 C20 1.208 . S
C20 O18 1.247 . S
C20 O19 1.208 . S
C21 O26 1.247 . S
C21 O27 1.208 . S
C22 O14 1.315 . S
C22 O17 1.279 . S
C23 O24 1.315 . S
C23 O25 1.279 . S
O24 Cd16 2.223 . S
O24 C23 1.315 . S
O25 Cd15 2.240 . S
O25 C23 1.279 . S
O26 Cd16 2.297 . S
O26 C21 1.247 . S
O27 Cd16 2.439 . S
O27 C21 1.208 . S
O28 Cd29 2.223 . S
O28 C36 1.315 . S
Cd29 O28 2.223 . S
Cd29 O32 2.297 . S
Cd29 O33 2.439 . S
Cd29 O39 2.240 . S
Cd30 O31 2.240 . S
Cd30 O38 2.223 . S
Cd30 O40 2.297 . S
Cd30 O41 2.439 . S
O31 Cd30 2.240 . S
O31 C36 1.279 . S
O32 Cd29 2.297 . S
O32 C34 1.247 . S
O33 Cd29 2.439 . S
O33 C34 1.208 . S
C34 O32 1.247 . S
C34 O33 1.208 . S
C35 O40 1.247 . S
C35 O41 1.208 . S
C36 O28 1.315 . S
C36 O31 1.279 . S
C37 O38 1.315 . S
C37 O39 1.279 . S
O38 Cd30 2.223 . S
O38 C37 1.315 . S
O39 Cd29 2.240 . S
O39 C37 1.279 . S
O40 Cd30 2.297 . S
O40 C35 1.247 . S
O41 Cd30 2.439 . S
O41 C35 1.208 . S
O42 Cd43 2.223 . S
O42 C50 1.315 1_556 S
Cd43 O42 2.223 . S
Cd43 O46 2.297 . S
Cd43 O47 2.439 . S
Cd43 O53 2.240 . S
Cd44 O45 2.240 1_556 S
Cd44 O52 2.223 . S
Cd44 O54 2.297 . S
Cd44 O55 2.439 . S
O45 Cd44 2.240 1_554 S
O45 C50 1.279 . S
O46 Cd43 2.297 . S
O46 C48 1.247 1_556 S
O47 Cd43 2.439 . S
O47 C48 1.208 1_556 S
C48 O46 1.247 1_554 S
C48 O47 1.208 1_554 S
C49 O54 1.247 . S
C49 O55 1.208 . S
C50 O42 1.315 1_554 S
C50 O45 1.279 . S
C51 O52 1.315 . S
C51 O53 1.279 . S
O52 Cd44 2.223 . S
O52 C51 1.315 . S
O53 Cd43 2.240 . S
O53 C51 1.279 . S
O54 Cd44 2.297 . S
O54 C49 1.247 . S
O55 Cd44 2.439 . S
O55 C49 1.208 . S
O56 Cd57 2.223 . S
O56 C64 1.315 . S
Cd57 O56 2.223 . S
Cd57 O60 2.297 . S
Cd57 O61 2.439 . S
Cd57 O67 2.240 1_554 S
Cd58 O59 2.240 . S
Cd58 O66 2.223 . S
Cd58 O68 2.297 . S
Cd58 O69 2.439 . S
O59 Cd58 2.240 . S
O59 C64 1.279 . S
O60 Cd57 2.297 . S
O60 C62 1.247 . S
O61 Cd57 2.439 . S
O61 C62 1.208 . S
C62 O60 1.247 . S
C62 O61 1.208 . S
C63 O68 1.247 . S
C63 O69 1.208 . S
C64 O56 1.315 . S
C64 O59 1.279 . S
C65 O66 1.315 1_556 S
C65 O67 1.279 . S
O66 Cd58 2.223 . S
O66 C65 1.315 1_554 S
O67 Cd57 2.240 1_556 S
O67 C65 1.279 . S
O68 Cd58 2.297 . S
O68 C63 1.247 . S
O69 Cd58 2.439 . S
O69 C63 1.208 . S
O70 Cd71 2.223 . S
O70 C78 1.315 . S
Cd71 O70 2.223 . S
Cd71 O74 2.297 . S
Cd71 O75 2.439 . S
Cd71 O81 2.240 . S
Cd72 O73 2.240 . S
Cd72 O80 2.223 . S
Cd72 O82 2.297 . S
Cd72 O83 2.439 . S
O73 Cd72 2.240 . S
O73 C78 1.279 . S
O74 Cd71 2.297 . S
O74 C76 1.247 . S
O75 Cd71 2.439 . S
O75 C76 1.208 . S
C76 O74 1.247 . S
C76 O75 1.208 . S
C77 O82 1.247 . S
C77 O83 1.208 . S
C78 O70 1.315 . S
C78 O73 1.279 . S
C79 O80 1.315 . S
C79 O81 1.279 . S
O80 Cd72 2.223 . S
O80 C79 1.315 . S
O81 Cd71 2.240 . S
O81 C79 1.279 . S
O82 Cd72 2.297 . S
O82 C77 1.247 . S
O83 Cd72 2.439 . S
O83 C77 1.208 . S
O84 Cd85 2.223 . S
O84 C92 1.315 . S
Cd85 O84 2.223 . S
Cd85 O88 2.297 . S
Cd85 O89 2.439 . S
Cd85 O95 2.240 . S
Cd86 O87 2.240 . S
Cd86 O94 2.223 . S
Cd86 O96 2.297 . S
Cd86 O97 2.439 . S
O87 Cd86 2.240 . S
O87 C92 1.279 . S
O88 Cd85 2.297 . S
O88 C90 1.247 . S
O89 Cd85 2.439 . S
O89 C90 1.208 . S
C90 O88 1.247 . S
C90 O89 1.208 . S
C91 O96 1.247 . S
C91 O97 1.208 . S
C92 O84 1.315 . S
C92 O87 1.279 . S
C93 O94 1.315 . S
C93 O95 1.279 . S
O94 Cd86 2.223 . S
O94 C93 1.315 . S
O95 Cd85 2.240 . S
O95 C93 1.279 . S
O96 Cd86 2.297 . S
O96 C91 1.247 . S
O97 Cd86 2.439 . S
O97 C91 1.208 . S
O98 Cd99 2.223 . S
O98 C106 1.315 . S
Cd99 O98 2.223 . S
Cd99 O102 2.297 . S
Cd99 O103 2.439 . S
Cd99 O109 2.240 . S
Cd100 O101 2.240 . S
Cd100 O108 2.223 . S
Cd100 O110 2.297 . S
Cd100 O111 2.439 . S
O101 Cd100 2.240 . S
O101 C106 1.279 . S
O102 Cd99 2.297 . S
O102 C104 1.247 . S
O103 Cd99 2.439 . S
O103 C104 1.208 . S
C104 O102 1.247 . S
C104 O103 1.208 . S
C105 O110 1.247 . S
C105 O111 1.208 . S
C106 O98 1.315 . S
C106 O101 1.279 . S
C107 O108 1.315 . S
C107 O109 1.279 . S
O108 Cd100 2.223 . S
O108 C107 1.315 . S
O109 Cd99 2.240 . S
O109 C107 1.279 . S
O110 Cd100 2.297 . S
O110 C105 1.247 . S
O111 Cd100 2.439 . S
O111 C105 1.208 . S
O112 Cd113 2.223 . S
O112 C120 1.315 . S
Cd113 O112 2.223 . S
Cd113 O116 2.297 . S
Cd113 O117 2.439 . S
Cd113 O123 2.240 . S
Cd114 O115 2.240 . S
Cd114 O122 2.223 . S
Cd114 O124 2.297 . S
Cd114 O125 2.439 . S
O115 Cd114 2.240 . S
O115 C120 1.279 . S
O116 Cd113 2.297 . S
O116 C118 1.247 . S
O117 Cd113 2.439 . S
O117 C118 1.208 . S
C118 O116 1.247 . S
C118 O117 1.208 . S
C119 O124 1.247 . S
C119 O125 1.208 . S
C120 O112 1.315 . S
C120 O115 1.279 . S
C121 O122 1.315 . S
C121 O123 1.279 . S
O122 Cd114 2.223 . S
O122 C121 1.315 . S
O123 Cd113 2.240 . S
O123 C121 1.279 . S
O124 Cd114 2.297 . S
O124 C119 1.247 . S
O125 Cd114 2.439 . S
O125 C119 1.208 . S
O126 Cd127 2.223 . S
O126 C134 1.315 . S
Cd127 O126 2.223 . S
Cd127 O130 2.297 . S
Cd127 O131 2.439 . S
Cd127 O137 2.240 1_556 S
Cd128 O129 2.240 . S
Cd128 O136 2.223 . S
Cd128 O138 2.297 . S
Cd128 O139 2.439 . S
O129 Cd128 2.240 . S
O129 C134 1.279 . S
O130 Cd127 2.297 . S
O130 C132 1.247 . S
O131 Cd127 2.439 . S
O131 C132 1.208 . S
C132 O130 1.247 . S
C132 O131 1.208 . S
C133 O138 1.247 . S
C133 O139 1.208 . S
C134 O126 1.315 . S
C134 O129 1.279 . S
C135 O136 1.315 1_554 S
C135 O137 1.279 . S
O136 Cd128 2.223 . S
O136 C135 1.315 1_556 S
O137 Cd127 2.240 1_554 S
O137 C135 1.279 . S
O138 Cd128 2.297 . S
O138 C133 1.247 . S
O139 Cd128 2.439 . S
O139 C133 1.208 . S
O140 Cd141 2.223 . S
O140 C148 1.315 1_554 S
Cd141 O140 2.223 . S
Cd141 O144 2.297 . S
Cd141 O145 2.439 . S
Cd141 O151 2.240 . S
Cd142 O143 2.240 1_554 S
Cd142 O150 2.223 . S
Cd142 O152 2.297 . S
Cd142 O153 2.439 . S
O143 Cd142 2.240 1_556 S
O143 C148 1.279 . S
O144 Cd141 2.297 . S
O144 C146 1.247 . S
O145 Cd141 2.439 . S
O145 C146 1.208 . S
C146 O144 1.247 . S
C146 O145 1.208 . S
C147 O152 1.247 . S
C147 O153 1.208 . S
C148 O140 1.315 1_556 S
C148 O143 1.279 . S
C149 O150 1.315 . S
C149 O151 1.279 . S
O150 Cd142 2.223 . S
O150 C149 1.315 . S
O151 Cd141 2.240 . S
O151 C149 1.279 . S
O152 Cd142 2.297 . S
O152 C147 1.247 . S
O153 Cd142 2.439 . S
O153 C147 1.208 . S
O154 Cd155 2.223 . S
O154 C162 1.315 . S
Cd155 O154 2.223 . S
Cd155 O158 2.297 . S
Cd155 O159 2.439 . S
Cd155 O165 2.240 . S
Cd156 O157 2.240 . S
Cd156 O164 2.223 . S
Cd156 O166 2.297 . S
Cd156 O167 2.439 . S
O157 Cd156 2.240 . S
O157 C162 1.279 . S
O158 Cd155 2.297 . S
O158 C160 1.247 . S
O159 Cd155 2.439 . S
O159 C160 1.208 . S
C160 O158 1.247 . S
C160 O159 1.208 . S
C161 O166 1.247 . S
C161 O167 1.208 . S
C162 O154 1.315 . S
C162 O157 1.279 . S
C163 O164 1.315 . S
C163 O165 1.279 . S
O164 Cd156 2.223 . S
O164 C163 1.315 . S
O165 Cd155 2.240 . S
O165 C163 1.279 . S
O166 Cd156 2.297 . S
O166 C161 1.247 . S
O167 Cd156 2.439 . S
O167 C161 1.208 . S
C168 C169 1.363 . S
C168 C174 1.379 . S
C168 N176 1.356 . S
C169 C168 1.363 . S
C169 C175 1.363 . S
C170 C171 1.363 . S
C170 C175 1.379 . S
C170 N177 1.356 . S
C171 C170 1.363 . S
C171 C174 1.363 . S
N172 C174 1.356 . S
N172 H184 0.984 . S
N172 H185 0.985 . S
N173 C175 1.356 . S
N173 H178 0.984 . S
N173 H179 0.985 . S
C174 C168 1.379 . S
C174 C171 1.363 . S
C174 N172 1.356 . S
C175 C169 1.363 . S
C175 C170 1.379 . S
C175 N173 1.356 . S
N176 C168 1.356 . S
N176 H182 0.984 . S
N176 H183 0.984 . S
N177 C170 1.356 . S
N177 H180 0.984 . S
N177 H181 0.985 . S
H178 N173 0.984 . S
H179 N173 0.985 . S
H180 N177 0.984 . S
H181 N177 0.985 . S
H182 N176 0.984 . S
H183 N176 0.984 . S
H184 N172 0.984 . S
H185 N172 0.985 . S
C186 C187 1.363 1_655 S
C186 C192 1.379 . S
C186 N194 1.356 . S
C187 C186 1.363 1_455 S
C187 C193 1.363 . S
C188 C189 1.363 1_455 S
C188 C193 1.379 . S
C188 N195 1.356 . S
C189 C188 1.363 1_655 S
C189 C192 1.363 . S
N190 C192 1.356 . S
N190 H202 0.984 . S
N190 H203 0.985 . S
N191 C193 1.356 . S
N191 H196 0.984 . S
N191 H197 0.985 . S
C192 C186 1.379 . S
C192 C189 1.363 . S
C192 N190 1.356 . S
C193 C187 1.363 . S
C193 C188 1.379 . S
C193 N191 1.356 . S
N194 C186 1.356 . S
N194 H200 0.984 . S
N194 H201 0.984 1_655 S
N195 C188 1.356 . S
N195 H198 0.984 1_455 S
N195 H199 0.985 . S
H196 N191 0.984 . S
H197 N191 0.985 . S
H198 N195 0.984 1_655 S
H199 N195 0.985 . S
H200 N194 0.984 . S
H201 N194 0.984 1_455 S
H202 N190 0.984 . S
H203 N190 0.985 . S
C204 C205 1.363 1_545 S
C204 C210 1.379 . S
C204 N212 1.356 . S
C205 C204 1.363 1_565 S
C205 C211 1.363 . S
C206 C207 1.363 1_565 S
C206 C211 1.379 . S
C206 N213 1.356 . S
C207 C206 1.363 1_545 S
C207 C210 1.363 . S
N208 C210 1.356 . S
N208 H220 0.984 . S
N208 H221 0.985 . S
N209 C211 1.356 . S
N209 H214 0.984 . S
N209 H215 0.985 . S
C210 C204 1.379 . S
C210 C207 1.363 . S
C210 N208 1.356 . S
C211 C205 1.363 . S
C211 C206 1.379 . S
C211 N209 1.356 . S
N212 C204 1.356 . S
N212 H218 0.984 . S
N212 H219 0.984 1_545 S
N213 C206 1.356 . S
N213 H216 0.984 1_565 S
N213 H217 0.985 . S
H214 N209 0.984 . S
H215 N209 0.985 . S
H216 N213 0.984 1_545 S
H217 N213 0.985 . S
H218 N212 0.984 . S
H219 N212 0.984 1_565 S
H220 N208 0.984 . S
H221 N208 0.985 . S
C222 C223 1.363 . S
C222 C228 1.379 . S
C222 N230 1.356 . S
C223 C222 1.363 . S
C223 C229 1.363 . S
C224 C225 1.363 . S
C224 C229 1.379 . S
C224 N231 1.356 . S
C225 C224 1.363 . S
C225 C228 1.363 . S
N226 C228 1.356 . S
N226 H238 0.984 . S
N226 H239 0.985 . S
N227 C229 1.356 . S
N227 H232 0.984 . S
N227 H233 0.985 . S
C228 C222 1.379 . S
C228 C225 1.363 . S
C228 N226 1.356 . S
C229 C223 1.363 . S
C229 C224 1.379 . S
C229 N227 1.356 . S
N230 C222 1.356 . S
N230 H236 0.984 . S
N230 H237 0.984 . S
N231 C224 1.356 . S
N231 H234 0.984 . S
N231 H235 0.985 . S
H232 N227 0.984 . S
H233 N227 0.985 . S
H234 N231 0.984 . S
H235 N231 0.985 . S
H236 N230 0.984 . S
H237 N230 0.984 . S
H238 N226 0.984 . S
H239 N226 0.985 . S
C240 C241 1.363 . S
C240 C246 1.379 1_455 S
C240 N248 1.356 . S
C241 C240 1.363 . S
C241 C247 1.363 . S
C242 C243 1.363 . S
C242 C247 1.379 1_655 S
C242 N249 1.356 . S
C243 C242 1.363 . S
C243 C246 1.363 . S
N244 C246 1.356 . S
N244 H256 0.984 . S
N244 H257 0.985 . S
N245 C247 1.356 . S
N245 H250 0.984 . S
N245 H251 0.985 . S
C246 C240 1.379 1_655 S
C246 C243 1.363 . S
C246 N244 1.356 . S
C247 C241 1.363 . S
C247 C242 1.379 1_455 S
C247 N245 1.356 . S
N248 C240 1.356 . S
N248 H254 0.984 . S
N248 H255 0.984 . S
N249 C242 1.356 . S
N249 H252 0.984 . S
N249 H253 0.985 . S
H250 N245 0.984 . S
H251 N245 0.985 . S
H252 N249 0.984 . S
H253 N249 0.985 . S
H254 N248 0.984 . S
H255 N248 0.984 . S
H256 N244 0.984 . S
H257 N244 0.985 . S
C258 C259 1.363 1_554 S
C258 C264 1.379 . S
C258 N266 1.356 1_554 S
C259 C258 1.363 1_556 S
C259 C265 1.363 1_545 S
C260 C261 1.363 . S
C260 C265 1.379 1_554 S
C260 N267 1.356 . S
C261 C260 1.363 . S
C261 C264 1.363 1_565 S
N262 C264 1.365 . S
N262 H274 0.990 . S
N262 H275 0.971 1_545 S
N263 C265 1.365 . S
N263 H268 0.971 1_565 S
N263 H269 0.990 . S
C264 C258 1.379 . S
C264 C261 1.363 1_545 S
C264 N262 1.365 . S
C265 C259 1.363 1_565 S
C265 C260 1.379 1_556 S
C265 N263 1.365 . S
N266 C258 1.356 1_556 S
N266 H272 0.984 1_556 S
N266 H273 0.984 . S
N267 C260 1.356 . S
N267 H270 0.984 . S
N267 H271 0.985 1_554 S
H268 N263 0.971 1_545 S
H269 N263 0.990 . S
H270 N267 0.984 . S
H271 N267 0.985 1_556 S
H272 N266 0.984 1_554 S
H273 N266 0.984 . S
H274 N262 0.990 . S
H275 N262 0.971 1_565 S
C276 C277 1.363 . S
C276 C282 1.379 . S
C276 N284 1.356 . S
C277 C276 1.363 . S
C277 C283 1.363 . S
C278 C279 1.363 . S
C278 C283 1.379 . S
C278 N285 1.356 . S
C279 C278 1.363 . S
C279 C282 1.363 . S
N280 C282 1.356 . S
N280 H292 0.984 . S
N280 H293 0.985 . S
N281 C283 1.356 . S
N281 H286 0.984 . S
N281 H287 0.985 . S
C282 C276 1.379 . S
C282 C279 1.363 . S
C282 N280 1.356 . S
C283 C277 1.363 . S
C283 C278 1.379 . S
C283 N281 1.356 . S
N284 C276 1.356 . S
N284 H290 0.984 . S
N284 H291 0.984 . S
N285 C278 1.356 . S
N285 H288 0.984 . S
N285 H289 0.985 . S
H286 N281 0.984 . S
H287 N281 0.985 . S
H288 N285 0.984 . S
H289 N285 0.985 . S
H290 N284 0.984 . S
H291 N284 0.984 . S
H292 N280 0.984 . S
H293 N280 0.985 . S
C294 C295 1.363 . S
C294 C300 1.379 . S
C294 N302 1.356 . S
C295 C294 1.363 . S
C295 C301 1.363 . S
C296 C297 1.363 . S
C296 C301 1.379 . S
C296 N303 1.356 . S
C297 C296 1.363 . S
C297 C300 1.363 . S
N298 C300 1.356 . S
N298 H310 0.984 . S
N298 H311 0.985 . S
N299 C301 1.356 . S
N299 H304 0.984 . S
N299 H305 0.985 . S
C300 C294 1.379 . S
C300 C297 1.363 . S
C300 N298 1.356 . S
C301 C295 1.363 . S
C301 C296 1.379 . S
C301 N299 1.356 . S
N302 C294 1.356 . S
N302 H308 0.984 . S
N302 H309 0.984 . S
N303 C296 1.356 . S
N303 H306 0.984 . S
N303 H307 0.985 . S
H304 N299 0.984 . S
H305 N299 0.985 . S
H306 N303 0.984 . S
H307 N303 0.985 . S
H308 N302 0.984 . S
H309 N302 0.984 . S
H310 N298 0.984 . S
H311 N298 0.985 . S
C312 C313 1.363 . S
C312 C318 1.379 . S
C312 N320 1.356 . S
C313 C312 1.363 . S
C313 C319 1.363 . S
C314 C315 1.363 . S
C314 C319 1.379 . S
C314 N321 1.356 . S
C315 C314 1.363 . S
C315 C318 1.363 . S
N316 C318 1.356 . S
N316 H328 0.984 . S
N316 H329 0.985 . S
N317 C319 1.356 . S
N317 H322 0.984 . S
N317 H323 0.985 . S
C318 C312 1.379 . S
C318 C315 1.363 . S
C318 N316 1.356 . S
C319 C313 1.363 . S
C319 C314 1.379 . S
C319 N317 1.356 . S
N320 C312 1.356 . S
N320 H326 0.984 . S
N320 H327 0.984 . S
N321 C314 1.356 . S
N321 H324 0.984 . S
N321 H325 0.985 . S
H322 N317 0.984 . S
H323 N317 0.985 . S
H324 N321 0.984 . S
H325 N321 0.985 . S
H326 N320 0.984 . S
H327 N320 0.984 . S
H328 N316 0.984 . S
H329 N316 0.985 . S
C330 C331 1.363 . S
C330 C336 1.379 . S
C330 N338 1.356 . S
C331 C330 1.363 . S
C331 C337 1.363 . S
C332 C333 1.363 . S
C332 C337 1.379 . S
C332 N339 1.356 1_556 S
C333 C332 1.363 . S
C333 C336 1.363 . S
N334 C336 1.356 . S
N334 H346 0.984 . S
N334 H347 0.985 . S
N335 C337 1.356 . S
N335 H340 0.984 . S
N335 H341 0.985 . S
C336 C330 1.379 . S
C336 C333 1.363 . S
C336 N334 1.356 . S
C337 C331 1.363 . S
C337 C332 1.379 . S
C337 N335 1.356 . S
N338 C330 1.356 . S
N338 H344 0.984 . S
N338 H345 0.984 . S
N339 C332 1.356 1_554 S
N339 H342 0.984 . S
N339 H343 0.985 . S
H340 N335 0.984 . S
H341 N335 0.985 . S
H342 N339 0.984 . S
H343 N339 0.985 . S
H344 N338 0.984 . S
H345 N338 0.984 . S
H346 N334 0.984 . S
H347 N334 0.985 . S
C348 C349 1.363 . S
C348 C354 1.379 . S
C348 N356 1.356 . S
C349 C348 1.363 . S
C349 C355 1.363 . S
C350 C351 1.363 . S
C350 C355 1.379 . S
C350 N357 1.356 . S
C351 C350 1.363 . S
C351 C354 1.363 . S
N352 C354 1.356 1_556 S
N352 H364 0.984 . S
N352 H365 0.985 . S
N353 C355 1.356 . S
N353 H358 0.984 . S
N353 H359 0.985 . S
C354 C348 1.379 . S
C354 C351 1.363 . S
C354 N352 1.356 1_554 S
C355 C349 1.363 . S
C355 C350 1.379 . S
C355 N353 1.356 . S
N356 C348 1.356 . S
N356 H362 0.984 1_554 S
N356 H363 0.984 . S
N357 C350 1.356 . S
N357 H360 0.984 . S
N357 H361 0.985 . S
H358 N353 0.984 . S
H359 N353 0.985 . S
H360 N357 0.984 . S
H361 N357 0.985 . S
H362 N356 0.984 1_556 S
H363 N356 0.984 . S
H364 N352 0.984 . S
H365 N352 0.985 . S
C366 C367 1.363 . S
C366 C372 1.379 . S
C366 N374 1.356 . S
C367 C366 1.363 . S
C367 C373 1.363 . S
C368 C369 1.363 . S
C368 C373 1.379 . S
C368 N375 1.356 . S
C369 C368 1.363 . S
C369 C372 1.363 . S
N370 C372 1.356 . S
N370 H382 0.984 . S
N370 H383 0.985 . S
N371 C373 1.356 . S
N371 H376 0.984 . S
N371 H377 0.985 . S
C372 C366 1.379 . S
C372 C369 1.363 . S
C372 N370 1.356 . S
C373 C367 1.363 . S
C373 C368 1.379 . S
C373 N371 1.356 . S
N374 C366 1.356 . S
N374 H380 0.984 . S
N374 H381 0.984 . S
N375 C368 1.356 . S
N375 H378 0.984 . S
N375 H379 0.985 . S
H376 N371 0.984 . S
H377 N371 0.985 . S
H378 N375 0.984 . S
H379 N375 0.985 . S
H380 N374 0.984 . S
H381 N374 0.984 . S
H382 N370 0.984 . S
H383 N370 0.985 . S
C384 C385 1.363 . S
C384 C390 1.379 . S
C384 N392 1.356 . S
C385 C384 1.363 . S
C385 C391 1.363 . S
C386 C387 1.363 . S
C386 C391 1.379 . S
C386 N393 1.356 . S
C387 C386 1.363 . S
C387 C390 1.363 . S
N388 C390 1.356 . S
N388 H400 0.984 . S
N388 H401 0.985 . S
N389 C391 1.356 . S
N389 H394 0.984 . S
N389 H395 0.985 . S
C390 C384 1.379 . S
C390 C387 1.363 . S
C390 N388 1.356 . S
C391 C385 1.363 . S
C391 C386 1.379 . S
C391 N389 1.356 . S
N392 C384 1.356 . S
N392 H398 0.984 . S
N392 H399 0.984 . S
N393 C386 1.356 . S
N393 H396 0.984 . S
N393 H397 0.985 . S
H394 N389 0.984 . S
H395 N389 0.985 . S
H396 N393 0.984 . S
H397 N393 0.985 . S
H398 N392 0.984 . S
H399 N392 0.984 . S
H400 N388 0.984 . S
H401 N388 0.985 . S
C402 C403 1.363 . S
C402 C408 1.379 1_655 S
C402 N410 1.356 . S
C403 C402 1.363 . S
C403 C409 1.363 . S
C404 C405 1.363 . S
C404 C409 1.379 1_455 S
C404 N411 1.356 . S
C405 C404 1.363 . S
C405 C408 1.363 . S
N406 C408 1.356 . S
N406 H418 0.984 . S
N406 H419 0.985 . S
N407 C409 1.356 . S
N407 H412 0.984 . S
N407 H413 0.985 . S
C408 C402 1.379 1_455 S
C408 C405 1.363 . S
C408 N406 1.356 . S
C409 C403 1.363 . S
C409 C404 1.379 1_655 S
C409 N407 1.356 . S
N410 C402 1.356 . S
N410 H416 0.984 . S
N410 H417 0.984 . S
N411 C404 1.356 . S
N411 H414 0.984 . S
N411 H415 0.985 . S
H412 N407 0.984 . S
H413 N407 0.985 . S
H414 N411 0.984 . S
H415 N411 0.985 . S
H416 N410 0.984 . S
H417 N410 0.984 . S
H418 N406 0.984 . S
H419 N406 0.985 . S
C420 C421 1.363 1_545 S
C420 C426 1.379 . S
C420 N428 1.356 . S
C421 C420 1.363 1_565 S
C421 C427 1.363 1_554 S
C422 C423 1.363 1_565 S
C422 C427 1.379 . S
C422 N429 1.356 . S
C423 C422 1.363 1_545 S
C423 C426 1.363 1_556 S
N424 C426 1.356 1_556 S
N424 H436 0.984 1_556 S
N424 H437 0.985 . S
N425 C427 1.356 1_554 S
N425 H430 0.984 . S
N425 H431 0.985 1_554 S
C426 C420 1.379 . S
C426 C423 1.363 1_554 S
C426 N424 1.356 1_554 S
C427 C421 1.363 1_556 S
C427 C422 1.379 . S
C427 N425 1.356 1_556 S
N428 C420 1.356 . S
N428 H434 0.984 . S
N428 H435 0.984 1_545 S
N429 C422 1.356 . S
N429 H432 0.984 1_565 S
N429 H433 0.985 . S
H430 N425 0.984 . S
H431 N425 0.985 1_556 S
H432 N429 0.984 1_545 S
H433 N429 0.985 . S
H434 N428 0.984 . S
H435 N428 0.984 1_565 S
H436 N424 0.984 1_554 S
H437 N424 0.985 . S
C438 C439 1.363 . S
C438 C444 1.379 . S
C438 N446 1.356 . S
C439 C438 1.363 . S
C439 C445 1.363 . S
C440 C441 1.363 . S
C440 C445 1.379 . S
C440 N447 1.356 . S
C441 C440 1.363 . S
C441 C444 1.363 . S
N442 C444 1.356 . S
N442 H454 0.984 . S
N442 H455 0.985 . S
N443 C445 1.356 . S
N443 H448 0.984 . S
N443 H449 0.985 . S
C444 C438 1.379 . S
C444 C441 1.363 . S
C444 N442 1.356 . S
C445 C439 1.363 . S
C445 C440 1.379 . S
C445 N443 1.356 . S
N446 C438 1.356 . S
N446 H452 0.984 . S
N446 H453 0.984 . S
N447 C440 1.356 . S
N447 H450 0.984 . S
N447 H451 0.985 . S
H448 N443 0.984 . S
H449 N443 0.985 . S
H450 N447 0.984 . S
H451 N447 0.985 . S
H452 N446 0.984 . S
H453 N446 0.984 . S
H454 N442 0.984 . S
H455 N442 0.985 . S
C456 C457 1.363 . S
C456 C462 1.379 . S
C456 N464 1.356 . S
C457 C456 1.363 . S
C457 C463 1.363 1_455 S
C458 C459 1.363 . S
C458 C463 1.379 . S
C458 N465 1.356 . S
C459 C458 1.363 . S
C459 C462 1.363 1_655 S
N460 C462 1.356 . S
N460 H472 0.984 . S
N460 H473 0.985 1_455 S
N461 C463 1.356 . S
N461 H466 0.984 1_655 S
N461 H467 0.985 . S
C462 C456 1.379 . S
C462 C459 1.363 1_455 S
C462 N460 1.356 . S
C463 C457 1.363 1_655 S
C463 C458 1.379 . S
C463 N461 1.356 . S
N464 C456 1.356 . S
N464 H470 0.984 . S
N464 H471 0.984 . S
N465 C458 1.356 . S
N465 H468 0.984 . S
N465 H469 0.985 . S
H466 N461 0.984 1_455 S
H467 N461 0.985 . S
H468 N465 0.984 . S
H469 N465 0.985 . S
H470 N464 0.984 . S
H471 N464 0.984 . S
H472 N460 0.984 . S
H473 N460 0.985 1_655 S
C474 C475 1.363 1_545 S
C474 C480 1.379 . S
C474 N482 1.356 . S
C475 C474 1.363 1_565 S
C475 C481 1.363 . S
C476 C477 1.363 1_565 S
C476 C481 1.379 . S
C476 N483 1.356 . S
C477 C476 1.363 1_545 S
C477 C480 1.363 . S
N478 C480 1.356 . S
N478 H490 0.984 . S
N478 H491 0.985 . S
N479 C481 1.356 . S
N479 H484 0.984 . S
N479 H485 0.985 . S
C480 C474 1.379 . S
C480 C477 1.363 . S
C480 N478 1.356 . S
C481 C475 1.363 . S
C481 C476 1.379 . S
C481 N479 1.356 . S
N482 C474 1.356 . S
N482 H488 0.984 . S
N482 H489 0.984 1_545 S
N483 C476 1.356 . S
N483 H486 0.984 1_565 S
N483 H487 0.985 . S
H484 N479 0.984 . S
H485 N479 0.985 . S
H486 N483 0.984 1_545 S
H487 N483 0.985 . S
H488 N482 0.984 . S
H489 N482 0.984 1_565 S
H490 N478 0.984 . S
H491 N478 0.985 . S
C492 C493 1.363 . S
C492 C498 1.379 . S
C492 N500 1.356 . S
C493 C492 1.363 . S
C493 C499 1.363 . S
C494 C495 1.363 . S
C494 C499 1.379 . S
C494 N501 1.356 . S
C495 C494 1.363 . S
C495 C498 1.363 . S
N496 C498 1.356 . S
N496 H508 0.984 . S
N496 H509 0.985 . S
N497 C499 1.356 . S
N497 H502 0.984 . S
N497 H503 0.985 . S
C498 C492 1.379 . S
C498 C495 1.363 . S
C498 N496 1.356 . S
C499 C493 1.363 . S
C499 C494 1.379 . S
C499 N497 1.356 . S
N500 C492 1.356 . S
N500 H506 0.984 . S
N500 H507 0.984 . S
N501 C494 1.356 . S
N501 H504 0.984 . S
N501 H505 0.985 . S
H502 N497 0.984 . S
H503 N497 0.985 . S
H504 N501 0.984 . S
H505 N501 0.985 . S
H506 N500 0.984 . S
H507 N500 0.984 . S
H508 N496 0.984 . S
H509 N496 0.985 . S
C510 C511 1.363 . S
C510 C516 1.379 . S
C510 N518 1.356 . S
C511 C510 1.363 . S
C511 C517 1.363 . S
C512 C513 1.363 . S
C512 C517 1.379 . S
C512 N519 1.356 . S
C513 C512 1.363 . S
C513 C516 1.363 . S
N514 C516 1.356 . S
N514 H526 0.984 . S
N514 H527 0.985 . S
N515 C517 1.356 . S
N515 H520 0.984 . S
N515 H521 0.985 . S
C516 C510 1.379 . S
C516 C513 1.363 . S
C516 N514 1.356 . S
C517 C511 1.363 . S
C517 C512 1.379 . S
C517 N515 1.356 . S
N518 C510 1.356 . S
N518 H524 0.984 . S
N518 H525 0.984 . S
N519 C512 1.356 . S
N519 H522 0.984 . S
N519 H523 0.985 . S
H520 N515 0.984 . S
H521 N515 0.985 . S
H522 N519 0.984 . S
H523 N519 0.985 . S
H524 N518 0.984 . S
H525 N518 0.984 . S
H526 N514 0.984 . S
H527 N514 0.985 . S
C528 C529 1.363 . S
C528 C534 1.379 . S
C528 N536 1.356 1_556 S
C529 C528 1.363 . S
C529 C535 1.363 . S
C530 C531 1.363 . S
C530 C535 1.379 . S
C530 N537 1.356 . S
C531 C530 1.363 . S
C531 C534 1.363 . S
N532 C534 1.356 . S
N532 H544 0.984 1_556 S
N532 H545 0.985 . S
N533 C535 1.356 . S
N533 H538 0.984 . S
N533 H539 0.985 . S
C534 C528 1.379 . S
C534 C531 1.363 . S
C534 N532 1.356 . S
C535 C529 1.363 . S
C535 C530 1.379 . S
C535 N533 1.356 . S
N536 C528 1.356 1_554 S
N536 H542 0.984 . S
N536 H543 0.984 . S
N537 C530 1.356 . S
N537 H540 0.984 . S
N537 H541 0.985 . S
H538 N533 0.984 . S
H539 N533 0.985 . S
H540 N537 0.984 . S
H541 N537 0.985 . S
H542 N536 0.984 . S
H543 N536 0.984 . S
H544 N532 0.984 1_554 S
H545 N532 0.985 . S
C546 C547 1.363 . S
C546 C552 1.379 . S
C546 N554 1.356 . S
C547 C546 1.363 . S
C547 C553 1.363 . S
C548 C549 1.363 . S
C548 C553 1.379 . S
C548 N555 1.356 . S
C549 C548 1.363 . S
C549 C552 1.363 . S
N550 C552 1.356 1_556 S
N550 H562 0.984 . S
N550 H563 0.985 . S
N551 C553 1.356 . S
N551 H556 0.984 . S
N551 H557 0.985 . S
C552 C546 1.379 . S
C552 C549 1.363 . S
C552 N550 1.356 1_554 S
C553 C547 1.363 . S
C553 C548 1.379 . S
C553 N551 1.356 . S
N554 C546 1.356 . S
N554 H560 0.984 . S
N554 H561 0.984 . S
N555 C548 1.356 . S
N555 H558 0.984 . S
N555 H559 0.985 . S
H556 N551 0.984 . S
H557 N551 0.985 . S
H558 N555 0.984 . S
H559 N555 0.985 . S
H560 N554 0.984 . S
H561 N554 0.984 . S
H562 N550 0.984 . S
H563 N550 0.985 . S
C564 C565 1.363 . S
C564 C570 1.379 . S
C564 N572 1.356 . S
C565 C564 1.363 . S
C565 C571 1.363 . S
C566 C567 1.363 . S
C566 C571 1.379 . S
C566 N573 1.356 . S
C567 C566 1.363 . S
C567 C570 1.363 . S
N568 C570 1.356 . S
N568 H580 0.984 . S
N568 H581 0.985 . S
N569 C571 1.356 . S
N569 H574 0.984 . S
N569 H575 0.985 . S
C570 C564 1.379 . S
C570 C567 1.363 . S
C570 N568 1.356 . S
C571 C565 1.363 . S
C571 C566 1.379 . S
C571 N569 1.356 . S
N572 C564 1.356 . S
N572 H578 0.984 . S
N572 H579 0.984 . S
N573 C566 1.356 . S
N573 H576 0.984 . S
N573 H577 0.985 . S
H574 N569 0.984 . S
H575 N569 0.985 . S
H576 N573 0.984 . S
H577 N573 0.985 . S
H578 N572 0.984 . S
H579 N572 0.984 . S
H580 N568 0.984 . S
H581 N568 0.985 . S
C582 C583 1.363 . S
C582 C588 1.379 . S
C582 N590 1.356 . S
C583 C582 1.363 . S
C583 C589 1.363 . S
C584 C585 1.363 . S
C584 C589 1.379 . S
C584 N591 1.356 . S
C585 C584 1.363 . S
C585 C588 1.363 . S
N586 C588 1.356 . S
N586 H598 0.984 . S
N586 H599 0.985 . S
N587 C589 1.356 . S
N587 H592 0.984 . S
N587 H593 0.985 . S
C588 C582 1.379 . S
C588 C585 1.363 . S
C588 N586 1.356 . S
C589 C583 1.363 . S
C589 C584 1.379 . S
C589 N587 1.356 . S
N590 C582 1.356 . S
N590 H596 0.984 . S
N590 H597 0.984 . S
N591 C584 1.356 . S
N591 H594 0.984 . S
N591 H595 0.985 . S
H592 N587 0.984 . S
H593 N587 0.985 . S
H594 N591 0.984 . S
H595 N591 0.985 . S
H596 N590 0.984 . S
H597 N590 0.984 . S
H598 N586 0.984 . S
H599 N586 0.985 . S
C169 C135 1.571 . S
C171 C9 1.571 . S
C187 C23 1.570 . S
C189 C149 1.570 . S
C205 C163 1.571 . S
C207 C37 1.571 . S
C223 C93 1.570 . S
C225 C51 1.570 . S
C241 C107 1.571 . S
C243 C65 1.571 . S
C259 C121 1.571 . S
C261 C79 1.570 . S
C277 C91 1.701 . S
C279 C7 1.701 . S
C295 C21 1.701 . S
C297 C105 1.701 . S
C313 C119 1.701 . S
C315 C35 1.701 . S
C331 C49 1.701 . S
C333 C133 1.701 . S
C349 C147 1.701 . S
C351 C63 1.701 . S
C367 C77 1.701 . S
C369 C161 1.701 . S
C385 C134 1.640 . S
C387 C8 1.640 . S
C403 C148 1.641 . S
C405 C22 1.641 . S
C421 C162 1.640 . S
C423 C36 1.640 . S
C439 C50 1.641 . S
C441 C92 1.641 . S
C457 C106 1.641 . S
C459 C64 1.641 . S
C475 C78 1.641 . S
C477 C120 1.641 . S
C493 C6 1.257 . S
C495 C118 1.257 . S
C511 C132 1.257 . S
C513 C20 1.257 . S
C529 C146 1.257 1_556 S
C531 C34 1.257 . S
C547 C160 1.257 . S
C549 C48 1.257 . S
C565 C90 1.257 . S
C567 C62 1.257 . S
C583 C104 1.257 . S
C585 C76 1.257 . S
