# Generated by pormake.
# Topology mok, (4)-cn, num edge types: 1
# Building blocks:
#     Node 0, Type 0, BuildingBlock: QUQFOY_clean_sbu_3, # of connection points: 4
#     Node 1, Type 0, BuildingBlock: QUQFOY_clean_sbu_3, # of connection points: 4
#     Node 2, Type 0, BuildingBlock: QUQFOY_clean_sbu_3, # of connection points: 4
#     Node 3, Type 0, BuildingBlock: QUQFOY_clean_sbu_3, # of connection points: 4
#     Node 4, Type 0, BuildingBlock: QUQFOY_clean_sbu_3, # of connection points: 4
#     Node 5, Type 0, BuildingBlock: QUQFOY_clean_sbu_3, # of connection points: 4
#     Node 6, Type 0, BuildingBlock: QUQFOY_clean_sbu_3, # of connection points: 4
#     Node 7, Type 0, BuildingBlock: QUQFOY_clean_sbu_3, # of connection points: 4
#     Edge 8, Type (0, 0), BuildingBlock: MIFKUJ_clean_linker_0, # of connection points: 2
#     Edge 9, Type (0, 0), BuildingBlock: MIFKUJ_clean_linker_0, # of connection points: 2
#     Edge 10, Type (0, 0), BuildingBlock: MIFKUJ_clean_linker_0, # of connection points: 2
#     Edge 11, Type (0, 0), BuildingBlock: MIFKUJ_clean_linker_0, # of connection points: 2
#     Edge 12, Type (0, 0), BuildingBlock: MIFKUJ_clean_linker_0, # of connection points: 2
#     Edge 13, Type (0, 0), BuildingBlock: MIFKUJ_clean_linker_0, # of connection points: 2
#     Edge 14, Type (0, 0), BuildingBlock: MIFKUJ_clean_linker_0, # of connection points: 2
#     Edge 15, Type (0, 0), BuildingBlock: MIFKUJ_clean_linker_0, # of connection points: 2
#     Edge 16, Type (0, 0), BuildingBlock: MIFKUJ_clean_linker_0, # of connection points: 2
#     Edge 17, Type (0, 0), BuildingBlock: MIFKUJ_clean_linker_0, # of connection points: 2
#     Edge 18, Type (0, 0), BuildingBlock: MIFKUJ_clean_linker_0, # of connection points: 2
#     Edge 19, Type (0, 0), BuildingBlock: MIFKUJ_clean_linker_0, # of connection points: 2
#     Edge 20, Type (0, 0), BuildingBlock: MIFKUJ_clean_linker_0, # of connection points: 2
#     Edge 21, Type (0, 0), BuildingBlock: MIFKUJ_clean_linker_0, # of connection points: 2
#     Edge 22, Type (0, 0), BuildingBlock: MIFKUJ_clean_linker_0, # of connection points: 2
#     Edge 23, Type (0, 0), BuildingBlock: MIFKUJ_clean_linker_0, # of connection points: 2
# Relax obj value: 0.013
# Max RMSD: 0.033
# Mean RMSD: 0.033
data_MOF--net-mok--node1-QUQFOY_clean_sbu_3--edge1-MIFKUJ_clean_linker_0
_symmetry_space_group_name_H-M    P1
_symmetry_Int_Tables_number       1
_symmetry_cell_setting            triclinic
loop_
_symmetry_equiv_pos_as_xyz
'x, y, z'
_cell_length_a     70.78732
_cell_length_b     20.893571
_cell_length_c     36.127954
_cell_angle_alpha  89.993136
_cell_angle_beta   89.941642
_cell_angle_gamma 90.038153
loop_
_atom_site_label
_atom_site_type_symbol
_atom_site_fract_x
_atom_site_fract_y
_atom_site_fract_z
_atom_type_partial_charge
C0 C 0.59498 0.46795 0.05485 0.0
O1 O 0.59824 0.50622 0.02829 0.0
Cd2 Cd 0.60366 0.46426 0.96717 0.0
O3 O 0.5937 0.40806 0.04902 0.0
Cd4 Cd 0.59394 0.32499 0.00124 0.0
C5 C 0.64021 0.35896 0.98618 0.0
O6 O 0.57832 0.39043 0.95496 0.0
O7 O 0.58866 0.29844 0.93656 0.0
O8 O 0.56686 0.28921 0.03603 0.0
C9 C 0.57971 0.34943 0.9292 0.0
O10 O 0.63439 0.41153 0.97245 0.0
C11 C 0.57113 0.2303 0.03637 0.0
O12 O 0.62861 0.31842 -0.00032 0.0
O13 O 0.58662 0.21463 0.02095 0.0
C14 C 0.39827 0.54227 0.0575 0.0
O15 O 0.3942 0.50375 0.03152 0.0
Cd16 Cd 0.38816 0.54326 0.97032 0.0
O17 O 0.4002 0.60181 0.05107 0.0
Cd18 Cd 0.40039 0.68263 0.00195 0.0
C19 C 0.35351 0.65573 0.98956 0.0
O20 O 0.41414 0.61266 0.95644 0.0
O21 O 0.40498 0.70461 0.93596 0.0
O22 O 0.42943 0.71681 0.03039 0.0
C23 C 0.41298 0.65141 0.92959 0.0
O24 O 0.35841 0.60155 0.97655 0.0
C25 C 0.42513 0.77548 0.03324 0.0
O26 O 0.36583 0.69501 0.00173 0.0
O27 O 0.40875 0.79178 0.02224 0.0
C28 C 0.61037 0.57862 0.44099 0.0
O29 O 0.61467 0.52978 0.46013 0.0
Cd30 Cd 0.61823 0.53583 0.52629 0.0
O31 O 0.6067 0.6318 0.45652 0.0
Cd32 Cd 0.60329 0.68022 0.51783 0.0
C33 C 0.6502 0.66026 0.53252 0.0
O34 O 0.59015 0.58646 0.54804 0.0
O35 O 0.5974 0.66577 0.5838 0.0
O36 O 0.57371 0.71889 0.4942 0.0
C37 C 0.58995 0.61087 0.58015 0.0
O38 O 0.64627 0.6013 0.53723 0.0
C39 C 0.57624 0.7773 0.50225 0.0
O40 O 0.63747 0.70022 0.52305 0.0
O41 O 0.59201 0.79218 0.51684 0.0
C42 C 0.38704 0.412 0.4424 0.0
O43 O 0.38258 0.46029 0.46187 0.0
Cd44 Cd 0.37724 0.4506 0.52702 0.0
O45 O 0.39004 0.35788 0.45745 0.0
Cd46 Cd 0.39224 0.30568 0.51829 0.0
C47 C 0.34493 0.32565 0.52757 0.0
O48 O 0.40502 0.39865 0.54932 0.0
O49 O 0.39798 0.31853 0.5846 0.0
O50 O 0.42167 0.26825 0.49327 0.0
C51 C 0.40521 0.37382 0.5813 0.0
O52 O 0.34882 0.38483 0.53128 0.0
C53 C 0.41956 0.20985 0.50178 0.0
O54 O 0.35799 0.28478 0.5218 0.0
O55 O 0.40406 0.19433 0.51729 0.0
C56 C 0.11305 0.90296 0.07986 0.0
O57 O 0.11623 0.94823 0.05727 0.0
Cd58 Cd 0.12122 0.92753 -0.00685 0.0
O59 O 0.1108 0.84586 0.06833 0.0
Cd60 Cd 0.10834 0.78435 0.0101 0.0
C61 C 0.15508 0.80753 -0.00024 0.0
O62 O 0.09427 0.86828 0.97304 0.0
O63 O 0.10579 0.78824 0.94267 0.0
O64 O 0.07928 0.74738 0.03758 0.0
C65 C 0.0963 0.83969 0.9424 0.0
O66 O 0.15038 0.86491 0.99216 0.0
C67 C 0.08122 0.68877 0.0294 0.0
O68 O 0.14262 0.76616 0.00871 0.0
O69 O 0.09647 0.67296 0.0131 0.0
C70 C 0.87756 0.10306 0.08127 0.0
O71 O 0.87135 0.05862 0.06063 0.0
Cd72 Cd 0.86833 0.07168 -0.00485 0.0
O73 O 0.88261 0.15663 0.06767 0.0
Cd74 Cd 0.88542 0.2133 0.00801 0.0
C75 C 0.838 0.20133 -0.00454 0.0
O76 O 0.89706 0.12043 0.97477 0.0
O77 O 0.89104 0.20348 0.94136 0.0
O78 O 0.91436 0.24701 0.03744 0.0
C79 C 0.89737 0.14683 0.94323 0.0
O80 O 0.84135 0.14234 0.98961 0.0
C81 C 0.9139 0.30472 0.02669 0.0
O82 O 0.85131 0.23967 0.00428 0.0
O83 O 0.89957 0.32171 0.00787 0.0
C84 C 0.10408 0.05509 0.46621 0.0
O85 O 0.10743 0.0139 0.49117 0.0
Cd86 Cd 0.11271 0.0464 0.55377 0.0
O87 O 0.102 0.11388 0.47453 0.0
Cd88 Cd 0.10051 0.18676 0.52797 0.0
C89 C 0.14729 0.16145 0.53859 0.0
O90 O 0.08667 0.11266 0.5714 0.0
O91 O 0.09932 0.19735 0.59532 0.0
O92 O 0.07033 0.22098 0.5048 0.0
C93 C 0.0895 0.14708 0.59973 0.0
O94 O 0.14236 0.10634 0.55025 0.0
C95 C 0.07395 0.28034 0.50365 0.0
O96 O 0.13498 0.20141 0.52718 0.0
O97 O 0.09054 0.29746 0.51297 0.0
C98 C 0.88861 0.94708 0.4659 0.0
O99 O 0.88237 0.98266 0.49163 0.0
Cd100 Cd 0.87962 0.94578 0.55444 0.0
O101 O 0.8933 0.88932 0.47232 0.0
Cd102 Cd 0.89487 0.81083 0.52296 0.0
C103 C 0.8478 0.82374 0.54053 0.0
O104 O 0.90767 0.88629 0.56717 0.0
O105 O 0.90018 0.79401 0.58941 0.0
O106 O 0.92362 0.77811 0.49199 0.0
C107 C 0.90731 0.8489 0.59474 0.0
O108 O 0.8518 0.87737 0.55533 0.0
C109 C 0.92065 0.71835 0.49397 0.0
O110 O 0.86044 0.79085 0.52399 0.0
O111 O 0.90511 0.70078 0.5085 0.0
H112 H 0.82435 0.32507 -0.00425 0.0
H113 H 0.79118 0.35882 -0.00753 0.0
H114 H 0.77373 0.16099 0.98855 0.0
H115 H 0.8065 0.12731 0.99058 0.0
H116 H 0.75438 0.22414 0.9408 0.0
H117 H 0.77076 0.25602 0.06888 0.0
H118 H 0.78914 0.30024 0.1209 0.0
H119 H 0.77475 0.49109 0.08705 0.0
H120 H 0.75647 0.44797 0.03451 0.0
H121 H 0.6581 0.24404 -0.00301 0.0
H122 H 0.6922 0.22363 -0.0029 0.0
H123 H 0.7029 0.42404 0.97779 0.0
H124 H 0.66893 0.44484 0.97717 0.0
H125 H 0.72576 0.36806 0.03452 0.0
H126 H 0.70738 0.33124 0.9081 0.0
H127 H 0.68829 0.28292 0.85835 0.0
H128 H 0.70596 0.09534 0.89231 0.0
H129 H 0.72495 0.14254 0.94264 0.0
C130 C 0.81342 0.28891 -0.00589 0.0
C131 C 0.81812 0.22353 -0.00663 0.0
C132 C 0.79446 0.3082 -0.00759 0.0
C133 C 0.77989 0.26241 0.99058 0.0
C134 C 0.78465 0.1973 0.98975 0.0
C135 C 0.80348 0.17812 0.99101 0.0
C136 C 0.75964 0.28127 0.98944 0.0
C137 C 0.74814 0.25518 0.96155 0.0
C138 C 0.75147 0.32281 0.01599 0.0
C139 C 0.76244 0.3488 0.04753 0.0
C140 C 0.77164 0.30743 0.07236 0.0
C141 C 0.78202 0.33229 0.10197 0.0
C142 C 0.78316 0.39844 0.10721 0.0
C143 C 0.77388 0.43986 0.08291 0.0
C144 C 0.76351 0.41525 0.05323 0.0
C145 C 0.66771 0.28376 -0.00718 0.0
C146 C 0.66079 0.34599 0.98688 0.0
C147 C 0.68717 0.27202 -0.00718 0.0
C148 C 0.70003 0.32235 0.9873 0.0
C149 C 0.6932 0.38462 0.98209 0.0
C150 C 0.67377 0.39627 0.98157 0.0
C151 C 0.72063 0.30984 0.98642 0.0
C152 C 0.73212 0.33731 0.01377 0.0
C153 C 0.72878 0.26888 0.95971 0.0
C154 C 0.71744 0.24041 0.92935 0.0
C155 C 0.70707 0.27966 0.90516 0.0
C156 C 0.69629 0.25248 0.87682 0.0
C157 C 0.69587 0.18609 0.87223 0.0
C158 C 0.70628 0.14676 0.89592 0.0
C159 C 0.71706 0.1737 0.92434 0.0
H160 H 0.68752 0.16514 0.85027 0.0
H161 H 0.79119 0.41759 0.13015 0.0
H162 H 0.171 0.68757 0.00108 0.0
H163 H 0.20468 0.66086 -0.00044 0.0
H164 H 0.21863 0.86191 -0.00333 0.0
H165 H 0.18518 0.88873 -0.00311 0.0
H166 H 0.23985 0.80293 0.95006 0.0
H167 H 0.22295 0.76758 0.07689 0.0
H168 H 0.20472 0.72186 0.12875 0.0
H169 H 0.22097 0.53236 0.09561 0.0
H170 H 0.23911 0.57693 0.04324 0.0
H171 H 0.33724 0.77339 0.00105 0.0
H172 H 0.30342 0.79866 0.00312 0.0
H173 H 0.29002 0.59995 0.9844 0.0
H174 H 0.32364 0.57432 0.98194 0.0
H175 H 0.26889 0.65701 0.04216 0.0
H176 H 0.28627 0.69697 0.91501 0.0
H177 H 0.30512 0.74652 0.86522 0.0
H178 H 0.28847 0.93338 0.90241 0.0
H179 H 0.26973 0.88491 0.95278 0.0
C180 C 0.18126 0.72601 0.00013 0.0
C181 C 0.17539 0.79025 -0.00091 0.0
C182 C 0.20052 0.71073 -0.00055 0.0
C183 C 0.21426 0.75941 -0.00154 0.0
C184 C 0.20836 0.82347 -0.00266 0.0
C185 C 0.18918 0.83871 -0.00246 0.0
C186 C 0.23478 0.7441 -0.00187 0.0
C187 C 0.2462 0.77166 0.97055 0.0
C188 C 0.2431 0.70252 0.02445 0.0
C189 C 0.23222 0.67557 0.05592 0.0
C190 C 0.22252 0.71613 0.08049 0.0
C191 C 0.21222 0.69043 0.11001 0.0
C192 C 0.21164 0.62423 0.11541 0.0
C193 C 0.2214 0.58361 0.09135 0.0
C194 C 0.23171 0.60907 0.06177 0.0
C195 C 0.32709 0.7351 -0.0026 0.0
C196 C 0.33314 0.67191 0.99117 0.0
C197 C 0.3078 0.74962 -0.00148 0.0
C198 C 0.29426 0.70113 -0.00622 0.0
C199 C 0.30025 0.63799 0.98814 0.0
C200 C 0.31949 0.62356 0.98656 0.0
C201 C 0.2738 0.71609 -0.0057 0.0
C202 C 0.26245 0.68835 0.02182 0.0
C203 C 0.26558 0.75815 0.96827 0.0
C204 C 0.27676 0.78733 0.9379 0.0
C205 C 0.28676 0.74864 0.91277 0.0
C206 C 0.2974 0.77652 0.8844 0.0
C207 C 0.29804 0.84306 0.88072 0.0
C208 C 0.28799 0.88185 0.90533 0.0
C209 C 0.27735 0.85419 0.93378 0.0
H210 H 0.30628 0.86456 0.85874 0.0
H211 H 0.20366 0.60443 0.13828 0.0
H212 H 0.82114 0.85472 0.59162 0.0
H213 H 0.7879 0.82431 0.59238 0.0
H214 H 0.79597 0.71554 0.492 0.0
H215 H 0.82958 0.74356 0.49219 0.0
H216 H 0.76095 0.851 0.54972 0.0
H217 H 0.76385 0.59695 0.48493 0.0
H218 H 0.78522 0.50374 0.48288 0.0
H219 H 0.80995 0.56084 0.58621 0.0
H220 H 0.78858 0.65388 0.58911 0.0
H221 H 0.66805 0.75962 0.49762 0.0
H222 H 0.70169 0.78641 0.5 0.0
H223 H 0.71063 0.63541 0.57969 0.0
H224 H 0.67729 0.60648 0.57581 0.0
H225 H 0.73718 0.62948 0.53378 0.0
H226 H 0.71024 0.80258 0.60235 0.0
H227 H 0.68896 0.89367 0.61434 0.0
H228 H 0.71248 0.99453 0.52153 0.0
H229 H 0.73375 0.90367 0.50871 0.0
C230 C 0.81588 0.82371 0.56991 0.0
C231 C 0.82798 0.80137 0.54188 0.0
C232 C 0.79683 0.80658 0.57028 0.0
C233 C 0.78933 0.76742 0.54234 0.0
C234 C 0.80143 0.74477 0.51431 0.0
C235 C 0.82064 0.76091 0.51436 0.0
C236 C 0.76878 0.75212 0.54222 0.0
C237 C 0.75578 0.80248 0.54629 0.0
C238 C 0.76192 0.68881 0.53836 0.0
C239 C 0.77475 0.63275 0.53699 0.0
C240 C 0.77381 0.58949 0.50725 0.0
C241 C 0.78593 0.53671 0.50594 0.0
C242 C 0.79898 0.52651 0.53433 0.0
C243 C 0.79989 0.56894 0.56416 0.0
C244 C 0.7878 0.62175 0.56563 0.0
C245 C 0.67719 0.73266 0.51591 0.0
C246 C 0.67006 0.68103 0.53656 0.0
C247 C 0.69642 0.74807 0.51734 0.0
C248 C 0.70877 0.71336 0.54031 0.0
C249 C 0.7015 0.66271 0.56156 0.0
C250 C 0.6824 0.64641 0.55949 0.0
C251 C 0.72935 0.72832 0.54154 0.0
C252 C 0.74235 0.67798 0.53734 0.0
C253 C 0.73622 0.79133 0.54675 0.0
C254 C 0.72345 0.84606 0.55436 0.0
C255 C 0.71078 0.844 0.58434 0.0
C256 C 0.69873 0.89562 0.59131 0.0
C257 C 0.69933 0.94978 0.56865 0.0
C258 C 0.71201 0.95251 0.53903 0.0
C259 C 0.72408 0.90099 0.53192 0.0
H260 H 0.68999 0.9897 0.5741 0.0
H261 H 0.80835 0.48565 0.53325 0.0
H262 H 0.16376 0.27751 0.52287 0.0
H263 H 0.19753 0.30239 0.52039 0.0
H264 H 0.2107 0.10656 0.54809 0.0
H265 H 0.17711 0.08179 0.5516 0.0
H266 H 0.23259 0.18196 0.58569 0.0
H267 H 0.21517 0.16481 0.45869 0.0
H268 H 0.19657 0.18692 0.40248 0.0
H269 H 0.21262 0.38497 0.40741 0.0
H270 H 0.23112 0.3642 0.46401 0.0
H271 H 0.33045 0.20369 0.53285 0.0
H272 H 0.29702 0.17237 0.53401 0.0
H273 H 0.28069 0.37055 0.52507 0.0
H274 H 0.31384 0.40227 0.52418 0.0
H275 H 0.26097 0.28925 0.47645 0.0
H276 H 0.27806 0.30145 0.60614 0.0
H277 H 0.29708 0.27356 0.66097 0.0
H278 H 0.28219 0.07559 0.64789 0.0
H279 H 0.26327 0.10223 0.59264 0.0
C280 C 0.17385 0.23978 0.52848 0.0
C281 C 0.16769 0.17765 0.53739 0.0
C282 C 0.19316 0.25397 0.52687 0.0
C283 C 0.20669 0.20611 0.53358 0.0
C284 C 0.20056 0.1443 0.54281 0.0
C285 C 0.1813 0.13022 0.54474 0.0
C286 C 0.22725 0.22036 0.53129 0.0
C287 C 0.23881 0.2046 0.56155 0.0
C288 C 0.23542 0.25034 0.49995 0.0
C289 C 0.22438 0.26305 0.46581 0.0
C290 C 0.21462 0.21318 0.44796 0.0
C291 C 0.20412 0.22545 0.41599 0.0
C292 C 0.20338 0.28734 0.40143 0.0
C293 C 0.21319 0.33706 0.41875 0.0
C294 C 0.2237 0.32506 0.45076 0.0
C295 C 0.31974 0.24055 0.53118 0.0
C296 C 0.32484 0.30548 0.5286 0.0
C297 C 0.30066 0.2226 0.53188 0.0
C298 C 0.28641 0.26923 0.5297 0.0
C299 C 0.29147 0.33385 0.52671 0.0
C300 C 0.31046 0.35185 0.52642 0.0
C301 C 0.26615 0.25125 0.53089 0.0
C302 C 0.25469 0.26632 0.50044 0.0
C303 C 0.25813 0.21971 0.56176 0.0
C304 C 0.26943 0.20374 0.59504 0.0
C305 C 0.27897 0.2519 0.61477 0.0
C306 C 0.28971 0.23633 0.64596 0.0
C307 C 0.29089 0.17281 0.65784 0.0
C308 C 0.28129 0.12475 0.63862 0.0
C309 C 0.27055 0.14006 0.60739 0.0
H310 H 0.2992 0.16086 0.682 0.0
H311 H 0.19523 0.29674 0.37668 0.0
H312 H 0.58421 0.40001 0.11549 0.0
H313 H 0.58388 0.43506 0.17953 0.0
H314 H 0.60104 0.62453 0.14578 0.0
H315 H 0.60171 0.58932 0.08102 0.0
H316 H 0.62272 0.5812 0.20033 0.0
H317 H 0.55695 0.60094 0.18173 0.0
H318 H 0.52482 0.57185 0.16147 0.0
H319 H 0.5251 0.41013 0.23478 0.0
H320 H 0.55732 0.43776 0.25521 0.0
H321 H 0.61147 0.67615 0.39104 0.0
H322 H 0.60704 0.66942 0.32402 0.0
H323 H 0.60056 0.46468 0.33232 0.0
H324 H 0.60529 0.47071 0.39944 0.0
H325 H 0.57141 0.53426 0.29002 0.0
H326 H 0.63949 0.51191 0.30159 0.0
H327 H 0.67107 0.54646 0.32228 0.0
H328 H 0.66512 0.72197 0.26156 0.0
H329 H 0.63335 0.68879 0.24093 0.0
C330 C 0.58773 0.4494 0.12148 0.0
C331 C 0.59312 0.49181 0.09315 0.0
C332 C 0.58736 0.46952 0.15817 0.0
C333 C 0.59222 0.53259 0.16738 0.0
C334 C 0.59715 0.5757 0.13915 0.0
C335 C 0.59751 0.55555 0.10223 0.0
C336 C 0.59378 0.5508 0.20681 0.0
C337 C 0.61133 0.57244 0.21981 0.0
C338 C 0.57899 0.53859 0.23226 0.0
C339 C 0.55964 0.52125 0.21984 0.0
C340 C 0.55024 0.55885 0.19332 0.0
C341 C 0.53198 0.5427 0.18186 0.0
C342 C 0.52294 0.48911 0.19677 0.0
C343 C 0.53213 0.45163 0.22324 0.0
C344 C 0.55037 0.4676 0.23483 0.0
C345 C 0.6092 0.62962 0.37859 0.0
C346 C 0.60873 0.57388 0.40041 0.0
C347 C 0.60668 0.62596 0.34038 0.0
C348 C 0.60343 0.56664 0.3235 0.0
C349 C 0.603 0.51087 0.34509 0.0
C350 C 0.60583 0.51435 0.38327 0.0
C351 C 0.60042 0.56271 0.28323 0.0
C352 C 0.58261 0.54396 0.27028 0.0
C353 C 0.61486 0.57839 0.25779 0.0
C354 C 0.63396 0.59824 0.27011 0.0
C355 C 0.64484 0.55815 0.29296 0.0
C356 C 0.66279 0.57742 0.30461 0.0
C357 C 0.67007 0.63647 0.29335 0.0
C358 C 0.65944 0.6763 0.27032 0.0
C359 C 0.64147 0.65727 0.25863 0.0
H360 H 0.68398 0.6513 0.30238 0.0
H361 H 0.50882 0.47665 0.18785 0.0
H362 H 0.40577 0.61329 0.11888 0.0
H363 H 0.4076 0.577 0.18259 0.0
H364 H 0.39809 0.38235 0.14721 0.0
H365 H 0.39579 0.41866 0.08288 0.0
H366 H 0.37561 0.41189 0.20269 0.0
H367 H 0.44144 0.42864 0.18145 0.0
H368 H 0.47145 0.47648 0.16051 0.0
H369 H 0.46419 0.63172 0.23703 0.0
H370 H 0.43401 0.58529 0.25815 0.0
H371 H 0.38975 0.31627 0.39134 0.0
H372 H 0.39457 0.32706 0.32462 0.0
H373 H 0.39502 0.5326 0.33555 0.0
H374 H 0.39006 0.52248 0.40234 0.0
H375 H 0.42511 0.48032 0.29148 0.0
H376 H 0.35695 0.46737 0.30535 0.0
H377 H 0.32735 0.41662 0.32633 0.0
H378 H 0.34035 0.24869 0.26273 0.0
H379 H 0.37017 0.29817 0.24178 0.0
C380 C 0.40423 0.56261 0.12445 0.0
C381 C 0.40055 0.51885 0.09578 0.0
C382 C 0.40546 0.54186 0.16095 0.0
C383 C 0.40328 0.47686 0.16958 0.0
C384 C 0.39992 0.43272 0.14103 0.0
C385 C 0.3986 0.45353 0.10436 0.0
C386 C 0.4029 0.45664 0.20877 0.0
C387 C 0.38667 0.42543 0.22194 0.0
C388 C 0.41722 0.47517 0.23394 0.0
C389 C 0.43537 0.50358 0.22125 0.0
C390 C 0.44616 0.47324 0.19363 0.0
C391 C 0.46323 0.50006 0.18177 0.0
C392 C 0.46971 0.55715 0.19739 0.0
C393 C 0.45915 0.58749 0.22496 0.0
C394 C 0.44207 0.56086 0.23694 0.0
C395 C 0.39085 0.36382 0.37957 0.0
C396 C 0.38947 0.4186 0.40204 0.0
C397 C 0.39361 0.36978 0.3415 0.0
C398 C 0.39514 0.43055 0.3254 0.0
C399 C 0.39392 0.48532 0.34769 0.0
C400 C 0.39096 0.47944 0.38572 0.0
C401 C 0.39768 0.43728 0.28512 0.0
C402 C 0.4143 0.46582 0.27193 0.0
C403 C 0.38384 0.41578 0.25988 0.0
C404 C 0.36589 0.38614 0.27238 0.0
C405 C 0.35358 0.41939 0.29613 0.0
C406 C 0.33675 0.39091 0.30795 0.0
C407 C 0.332 0.32938 0.29597 0.0
C408 C 0.34406 0.29629 0.27205 0.0
C409 C 0.36092 0.32453 0.26018 0.0
H410 H 0.31896 0.30742 0.30514 0.0
H411 H 0.48293 0.57782 0.18818 0.0
H412 H 0.41616 0.72801 0.86865 0.0
H413 H 0.42328 0.69443 0.80527 0.0
H414 H 0.43019 0.49965 0.84271 0.0
H415 H 0.42371 0.53317 0.90611 0.0
H416 H 0.45438 0.52429 0.78817 0.0
H417 H 0.38743 0.55514 0.81067 0.0
H418 H 0.35924 0.617 0.82888 0.0
H419 H 0.37069 0.75395 0.74308 0.0
H420 H 0.39911 0.69323 0.72468 0.0
H421 H 0.41344 0.32656 0.64982 0.0
H422 H 0.42379 0.38708 0.70413 0.0
H423 H 0.42447 0.56056 0.63943 0.0
H424 H 0.41434 0.50035 0.58486 0.0
H425 H 0.40116 0.56387 0.70188 0.0
H426 H 0.46542 0.51678 0.67285 0.0
H427 H 0.49288 0.45043 0.65576 0.0
H428 H 0.48501 0.33622 0.75334 0.0
H429 H 0.45757 0.40213 0.77118 0.0
C430 C 0.41946 0.67822 0.86338 0.0
C431 C 0.41906 0.63295 0.89211 0.0
C432 C 0.42356 0.65915 0.82724 0.0
C433 C 0.42691 0.59438 0.81925 0.0
C434 C 0.42762 0.54986 0.84827 0.0
C435 C 0.42377 0.56901 0.88444 0.0
C436 C 0.42758 0.57141 0.78058 0.0
C437 C 0.44277 0.53287 0.76924 0.0
C438 C 0.4126 0.58377 0.75568 0.0
C439 C 0.3955 0.62017 0.76663 0.0
C440 C 0.384 0.59871 0.79588 0.0
C441 C 0.36798 0.63351 0.8062 0.0
C442 C 0.36322 0.6895 0.78723 0.0
C443 C 0.37443 0.71067 0.75781 0.0
C444 C 0.39049 0.6761 0.74742 0.0
C445 C 0.41606 0.37742 0.64706 0.0
C446 C 0.41286 0.40894 0.6133 0.0
C447 C 0.42218 0.41175 0.67794 0.0
C448 C 0.42504 0.47807 0.67557 0.0
C449 C 0.42249 0.50927 0.6416 0.0
C450 C 0.41661 0.47486 0.61059 0.0
C451 C 0.42774 0.51561 0.70971 0.0
C452 C 0.41306 0.55666 0.72034 0.0
C453 C 0.44302 0.50462 0.734 0.0
C454 C 0.45935 0.46418 0.72321 0.0
C455 C 0.46946 0.47726 0.69055 0.0
C456 C 0.48509 0.43993 0.68083 0.0
C457 C 0.4907 0.38921 0.70349 0.0
C458 C 0.48068 0.37567 0.73588 0.0
C459 C 0.46514 0.41316 0.74589 0.0
H460 H 0.50281 0.3604 0.69595 0.0
H461 H 0.3508 0.71637 0.79526 0.0
H462 H 0.56477 0.46096 0.903 0.0
H463 H 0.55731 0.48695 0.83882 0.0
H464 H 0.57093 0.29364 0.80629 0.0
H465 H 0.5788 0.2677 0.87038 0.0
H466 H 0.59079 0.37389 0.76856 0.0
H467 H 0.52649 0.35469 0.79665 0.0
H468 H 0.49616 0.36765 0.82918 0.0
H469 H 0.49661 0.56889 0.80545 0.0
H470 H 0.52732 0.55784 0.77396 0.0
H471 H 0.58115 0.48396 0.58384 0.0
H472 H 0.57079 0.42392 0.63844 0.0
H473 H 0.57052 0.59802 0.70253 0.0
H474 H 0.58113 0.65834 0.64826 0.0
H475 H 0.53892 0.50608 0.71696 0.0
H476 H 0.6081 0.52079 0.70658 0.0
H477 H 0.63804 0.50526 0.67276 0.0
H478 H 0.626 0.30469 0.66168 0.0
H479 H 0.59583 0.31935 0.695 0.0
C480 C 0.56583 0.42366 0.88229 0.0
C481 C 0.57269 0.36264 0.89155 0.0
C482 C 0.56137 0.43838 0.84564 0.0
C483 C 0.56349 0.39215 0.81774 0.0
C484 C 0.5692 0.33002 0.82738 0.0
C485 C 0.57377 0.31538 0.86397 0.0
C486 C 0.56284 0.41167 0.77836 0.0
C487 C 0.57915 0.40121 0.75708 0.0
C488 C 0.54776 0.44798 0.76337 0.0
C489 C 0.52942 0.45544 0.78315 0.0
C490 C 0.52034 0.40198 0.79887 0.0
C491 C 0.50305 0.409 0.81718 0.0
C492 C 0.4945 0.46909 0.8195 0.0
C493 C 0.50328 0.52237 0.80368 0.0
C494 C 0.52066 0.51576 0.78567 0.0
C495 C 0.57862 0.50958 0.60944 0.0
C496 C 0.58218 0.57564 0.61204 0.0
C497 C 0.57261 0.47529 0.64045 0.0
C498 C 0.56988 0.50675 0.67429 0.0
C499 C 0.57242 0.57319 0.67646 0.0
C500 C 0.57868 0.60737 0.64561 0.0
C501 C 0.567 0.46979 0.70858 0.0
C502 C 0.55017 0.47718 0.7286 0.0
C503 C 0.58146 0.43013 0.72254 0.0
C504 C 0.59963 0.4213 0.70279 0.0
C505 C 0.61177 0.47351 0.69662 0.0
C506 C 0.62879 0.46485 0.67761 0.0
C507 C 0.63389 0.40406 0.66496 0.0
C508 C 0.62201 0.35178 0.67141 0.0
C509 C 0.60495 0.36022 0.69035 0.0
H510 H 0.64707 0.39744 0.65026 0.0
H511 H 0.48104 0.4743 0.83341 0.0
H512 H 0.11273 0.81681 0.1367 0.0
H513 H 0.11064 0.83939 0.20286 0.0
H514 H 0.10781 0.04179 0.17961 0.0
H515 H 0.11046 0.01974 0.11344 0.0
H516 H 0.1312 0.02021 0.23444 0.0
H517 H 0.06814 0.95289 0.20395 0.0
H518 H 0.04393 0.88037 0.17843 0.0
H519 H 0.06088 0.73337 0.25452 0.0
H520 H 0.08537 0.80477 0.28018 0.0
H521 H 0.09846 0.13182 0.40616 0.0
H522 H 0.09925 0.10128 0.34108 0.0
H523 H 0.10875 0.90447 0.37187 0.0
H524 H 0.10789 0.93442 0.43738 0.0
H525 H 0.08252 0.91929 0.31441 0.0
H526 H 0.14517 0.98981 0.34571 0.0
H527 H 0.16871 0.0646 0.37141 0.0
H528 H 0.15167 0.20834 0.29337 0.0
H529 H 0.12781 0.13472 0.26755 0.0
C530 C 0.11163 0.86614 0.14566 0.0
C531 C 0.11172 0.91653 0.11985 0.0
C532 C 0.11035 0.87893 0.18347 0.0
C533 C 0.1088 0.94221 0.1961 0.0
C534 C 0.10898 0.99259 0.17042 0.0
C535 C 0.11047 0.97991 0.13262 0.0
C536 C 0.10733 0.95615 0.23614 0.0
C537 C 0.1204 -0.00125 0.2518 0.0
C538 C 0.09352 0.92684 0.25895 0.0
C539 C 0.07871 0.88398 0.24373 0.0
C540 C 0.0668 0.90495 0.21506 0.0
C541 C 0.05301 0.86407 0.2006 0.0
C542 C 0.05091 0.80224 0.21477 0.0
C543 C 0.06254 0.78124 0.24353 0.0
C544 C 0.07637 0.82192 0.25807 0.0
C545 C 0.10059 0.08191 0.39922 0.0
C546 C 0.10327 0.03559 0.42696 0.0
C547 C 0.10108 0.06464 0.362 0.0
C548 C 0.10432 0.00086 0.35182 0.0
C549 C 0.10631 0.95401 0.37932 0.0
C550 C 0.10586 0.97125 0.41667 0.0
C551 C 0.10622 0.98379 0.31238 0.0
C552 C 0.0933 0.94054 0.29694 0.0
C553 C 0.12009 0.01276 0.28968 0.0
C554 C 0.13459 0.0569 0.3049 0.0
C555 C 0.14634 0.03752 0.3342 0.0
C556 C 0.15976 0.07968 0.34877 0.0
C557 C 0.16166 0.14123 0.33409 0.0
C558 C 0.15017 0.16067 0.30474 0.0
C559 C 0.13671 0.11872 0.2901 0.0
H560 H 0.17205 0.17382 0.34541 0.0
H561 H 0.04023 0.77064 0.20353 0.0
H562 H 0.91267 0.90679 0.41218 0.0
H563 H 0.91409 0.94242 0.34795 0.0
H564 H 0.86883 0.07614 0.36899 0.0
H565 H 0.86807 0.04279 0.43386 0.0
H566 H 0.89037 0.9286 0.29783 0.0
H567 H 0.86901 0.19828 0.30829 0.0
H568 H 0.8746 0.29097 0.34914 0.0
H569 H 0.92557 0.20414 0.38929 0.0
H570 H 0.92041 0.11128 0.34839 0.0
H571 H 0.85669 0.02306 0.12461 0.0
H572 H 0.86029 0.00391 0.19095 0.0
H573 H 0.90701 0.1369 0.19405 0.0
H574 H 0.90267 0.15895 0.12818 0.0
H575 H 0.88827 0.15254 0.25256 0.0
H576 H 0.91313 0.96838 0.1928 0.0
H577 H 0.91374 0.87626 0.15014 0.0
H578 H 0.8666 0.79233 0.20719 0.0
H579 H 0.86555 0.88439 0.24991 0.0
C580 C 0.9032 0.9444 0.40318 0.0
C581 C 0.89021 0.97193 0.42787 0.0
C582 C 0.904 0.9647 0.36647 0.0
C583 C 0.89162 0.01213 0.35354 0.0
C584 C 0.87882 0.04045 0.37839 0.0
C585 C 0.8783 0.02111 0.41541 0.0
C586 C 0.89113 0.02818 0.31354 0.0
C587 C 0.89002 0.97765 0.28801 0.0
C588 C 0.89109 0.09207 0.30049 0.0
C589 C 0.8942 0.14748 0.32551 0.0
C590 C 0.88142 0.199 0.32579 0.0
C591 C 0.88452 0.25156 0.34896 0.0
C592 C 0.9004 0.25335 0.37187 0.0
C593 C 0.91323 0.20256 0.37165 0.0
C594 C 0.9102 0.14988 0.34853 0.0
C595 C 0.86767 0.04829 0.13955 0.0
C596 C 0.87948 0.09214 0.12134 0.0
C597 C 0.8698 0.03712 0.17739 0.0
C598 C 0.8842 0.06789 0.19739 0.0
C599 C 0.8958 0.11253 0.17926 0.0
C600 C 0.89336 0.12495 0.14162 0.0
C601 C 0.88729 0.05295 0.23707 0.0
C602 C 0.88878 0.10358 0.26249 0.0
C603 C 0.88859 0.98912 0.24995 0.0
C604 C 0.88916 0.93356 0.22435 0.0
C605 C 0.90282 0.93048 0.19609 0.0
C606 C 0.90325 0.87825 0.17193 0.0
C607 C 0.89019 0.82855 0.1759 0.0
C608 C 0.87669 0.8309 0.20412 0.0
C609 C 0.87618 0.88306 0.22834 0.0
H610 H 0.89055 0.78815 0.15717 0.0
H611 H 0.90279 0.29415 0.38973 0.0
H612 H 0.91676 0.97008 0.61545 0.0
H613 H 0.92155 0.00991 0.6781 0.0
H614 H 0.91455 0.81861 0.72117 0.0
H615 H 0.90919 0.77864 0.65839 0.0
H616 H 0.89266 0.89666 0.75638 0.0
H617 H 0.95774 0.89889 0.72598 0.0
H618 H 0.98646 0.92032 0.68937 0.0
H619 H 0.97652 0.1225 0.69767 0.0
H620 H 0.94758 0.10234 0.7339 0.0
H621 H 0.9057 0.01974 0.93764 0.0
H622 H 0.91351 0.96003 0.88141 0.0
H623 H 0.91063 0.1343 0.81766 0.0
H624 H 0.90277 0.19443 0.87371 0.0
H625 H 0.94129 0.05195 0.79785 0.0
H626 H 0.87348 0.04445 0.81966 0.0
H627 H 0.84515 0.0214 0.85717 0.0
H628 H 0.86161 0.82416 0.86554 0.0
H629 H 0.8902 0.84631 0.82849 0.0
C630 C 0.91653 0.93628 0.63818 0.0
C631 C 0.91243 0.87134 0.63209 0.0
C632 C 0.91943 0.95905 0.674 0.0
C633 C 0.9186 0.91715 0.70434 0.0
C634 C 0.91529 0.85176 0.69815 0.0
C635 C 0.91221 0.82901 0.66231 0.0
C636 C 0.91898 0.94301 0.74251 0.0
C637 C 0.90359 0.92929 0.76573 0.0
C638 C 0.93304 0.98653 0.75454 0.0
C639 C 0.95039 -0.00098 0.7325 0.0
C640 C 0.96158 0.94792 0.71975 0.0
C641 C 0.97792 0.95985 0.69911 0.0
C642 C 0.9833 0.02272 0.69116 0.0
C643 C 0.97234 0.07381 0.70385 0.0
C644 C 0.95598 0.06216 0.7245 0.0
C645 C 0.90693 0.04546 0.91172 0.0
C646 C 0.90343 0.11162 0.90993 0.0
C647 C 0.91141 0.01131 0.8797 0.0
C648 C 0.91253 0.04286 0.84551 0.0
C649 C 0.90987 0.10929 0.8439 0.0
C650 C 0.90525 0.14341 0.87584 0.0
C651 C 0.9149 0.00611 0.81094 0.0
C652 C 0.93069 0.01809 0.78854 0.0
C653 C 0.90131 0.96056 0.79966 0.0
C654 C 0.88408 0.94719 0.82172 0.0
C655 C 0.87113 0.99629 0.82977 0.0
C656 C 0.85502 0.98337 0.8509 0.0
C657 C 0.85161 0.9214 0.86383 0.0
C658 C 0.86429 0.87217 0.85557 0.0
C659 C 0.88045 0.88487 0.83451 0.0
H660 H 0.83913 0.91148 0.88017 0.0
H661 H 0.99597 0.03185 0.6752 0.0
H662 H 0.06851 0.9284 0.93399 0.0
H663 H 0.05855 0.98063 0.87663 0.0
H664 H 0.10022 0.87184 0.816 0.0
H665 H 0.1094 0.81722 0.8728 0.0
H666 H 0.07536 0.05687 0.83503 0.0
H667 H 0.08995 0.84949 0.72906 0.0
H668 H 0.0855 0.73261 0.72541 0.0
H669 H 0.04204 0.74258 0.80819 0.0
H670 H 0.04602 0.85962 0.81198 0.0
H671 H 0.10662 0.17264 0.66544 0.0
H672 H 0.09957 0.12442 0.72533 0.0
H673 H 0.05199 0.02491 0.67737 0.0
H674 H 0.05985 0.07005 0.61681 0.0
H675 H 0.06948 0.94568 0.71436 0.0
H676 H 0.04703 0.15003 0.74465 0.0
H677 H 0.04615 0.26772 0.74908 0.0
H678 H 0.09524 0.2653 0.81877 0.0
H679 H 0.09659 0.14765 0.81436 0.0
C680 C 0.07532 0.9151 0.90824 0.0
C681 C 0.08969 0.8688 0.90769 0.0
C682 C 0.06964 0.94498 0.87554 0.0
C683 C 0.07844 0.92968 0.84184 0.0
C684 C 0.09279 0.88319 0.84138 0.0
C685 C 0.09816 0.85232 0.87391 0.0
C686 C 0.07374 0.96539 0.80758 0.0
C687 C 0.07384 0.03258 0.80868 0.0
C688 C 0.07094 0.93389 0.77336 0.0
C689 C 0.06837 0.86342 0.77094 0.0
C690 C 0.07936 0.82685 0.74632 0.0
C691 C 0.07694 0.76052 0.74427 0.0
C692 C 0.06352 0.73018 0.7666 0.0
C693 C 0.05246 0.76612 0.79098 0.0
C694 C 0.05482 0.83245 0.79313 0.0
C695 C 0.0945 0.14121 0.66787 0.0
C696 C 0.08383 0.12464 0.63664 0.0
C697 C 0.09035 0.11404 0.70219 0.0
C698 C 0.07506 0.07154 0.70612 0.0
C699 C 0.06388 0.05732 0.67509 0.0
C700 C 0.06835 0.08316 0.64056 0.0
C701 C 0.07207 0.03716 0.74159 0.0
C702 C 0.07052 0.97015 0.74075 0.0
C703 C 0.07265 0.06898 0.77616 0.0
C704 C 0.07195 0.13989 0.77903 0.0
C705 C 0.05771 0.17458 0.76074 0.0
C706 C 0.05712 0.24132 0.76328 0.0
C707 C 0.07064 0.27397 0.78416 0.0
C708 C 0.08477 0.23994 0.80262 0.0
C709 C 0.08543 0.17319 0.80017 0.0
H710 H 0.07016 0.32564 0.78608 0.0
H711 H 0.06168 0.67883 0.76498 0.0
H712 H 0.46267 0.75595 0.0435 0.0
H713 H 0.48671 0.83507 0.0579 0.0
H714 H 0.44369 0.98043 0.06802 0.0
H715 H 0.41948 0.90137 0.05174 0.0
H716 H 0.47002 0.02279 0.02693 0.0
H717 H 0.47058 0.92161 0.1447 0.0
H718 H 0.47147 0.83202 0.18909 0.0
H719 H 0.52648 0.77867 0.14967 0.0
H720 H 0.52583 0.8674 0.10466 0.0
H721 H 0.5379 0.25317 0.07191 0.0
H722 H 0.51298 0.17613 0.08581 0.0
H723 H 0.54857 0.02239 0.04742 0.0
H724 H 0.57372 0.09941 0.03333 0.0
H725 H 0.52469 0.99104 0.11085 0.0
H726 H 0.52095 0.08404 0.98758 0.0
H727 H 0.51978 0.1747 0.94391 0.0
H728 H 0.46958 0.24473 -0.003 0.0
H729 H 0.47063 0.15492 0.04136 0.0
C730 C 0.45825 0.80455 0.04932 0.0
C731 C 0.43918 0.82255 0.04634 0.0
C732 C 0.47204 0.84975 0.05792 0.0
C733 C 0.46705 0.91369 0.06467 0.0
C734 C 0.44789 0.93134 0.06302 0.0
C735 C 0.43407 0.8862 0.05376 0.0
C736 C 0.48202 0.96287 0.06948 0.0
C737 C 0.48169 0.01642 0.04603 0.0
C738 C 0.49754 0.95415 0.09379 0.0
C739 C 0.4981 0.90104 0.12111 0.0
C740 C 0.48282 0.89057 0.14532 0.0
C741 C 0.48329 0.83995 0.17063 0.0
C742 C 0.49901 0.79962 0.17215 0.0
C743 C 0.51432 0.80995 0.14845 0.0
C744 C 0.51392 0.86049 0.12308 0.0
C745 C 0.54062 0.20284 0.0671 0.0
C746 C 0.55767 0.18241 0.05095 0.0
C747 C 0.52637 0.15892 0.07517 0.0
C748 C 0.52889 0.09385 0.06718 0.0
C749 C 0.5464 0.07253 0.05376 0.0
C750 C 0.56071 0.11658 0.04559 0.0
C751 C 0.51254 0.04983 0.06822 0.0
C752 C 0.51273 0.99749 0.09248 0.0
C753 C 0.49676 0.0597 0.04495 0.0
C754 C 0.49599 0.11322 0.01801 0.0
C755 C 0.50975 0.11906 0.9901 0.0
C756 C 0.50909 0.17023 0.96521 0.0
C757 C 0.49464 0.21555 0.96774 0.0
C758 C 0.48078 0.20966 -0.00489 0.0
C759 C 0.4814 0.15863 0.02012 0.0
H760 H 0.49416 0.25514 0.94844 0.0
H761 H 0.49933 0.7604 0.19172 0.0
H762 H 0.53928 0.75166 0.48945 0.0
H763 H 0.51329 0.82701 0.48443 0.0
H764 H 0.55228 0.98461 0.49654 0.0
H765 H 0.57844 0.90852 0.50347 0.0
H766 H 0.52347 0.00644 0.53699 0.0
H767 H 0.53006 0.94456 0.41115 0.0
H768 H 0.53319 0.87161 0.35787 0.0
H769 H 0.4786 0.7916 0.38144 0.0
H770 H 0.47525 0.86347 0.4352 0.0
H771 H 0.45562 0.23716 0.48147 0.0
H772 H 0.48229 0.16376 0.47702 0.0
H773 H 0.44578 0.00535 0.5042 0.0
H774 H 0.41883 0.07902 0.50943 0.0
H775 H 0.47364 0.98853 0.44098 0.0
H776 H 0.46921 0.05311 0.56995 0.0
H777 H 0.46694 0.13335 0.61981 0.0
H778 H 0.51936 0.21723 0.58457 0.0
H779 H 0.52177 0.13803 0.53411 0.0
C780 C 0.54239 0.80238 0.4907 0.0
C781 C 0.56092 0.82425 0.49672 0.0
C782 C 0.52749 0.84553 0.48756 0.0
C783 C 0.53081 0.91168 0.48933 0.0
C784 C 0.54937 0.93378 0.49494 0.0
C785 C 0.5643 0.89038 0.4988 0.0
C786 C 0.5147 0.95715 0.48741 0.0
C787 C 0.5128 0.00305 0.51555 0.0
C788 C 0.50054 0.95245 0.45978 0.0
C789 C 0.50248 0.9091 0.42742 0.0
C790 C 0.51878 0.91109 0.40515 0.0
C791 C 0.52059 0.86998 0.37483 0.0
C792 C 0.50612 0.8269 0.36632 0.0
C793 C 0.4898 0.82496 0.38808 0.0
C794 C 0.48793 0.86593 0.41846 0.0
C795 C 0.45315 0.18664 0.48618 0.0
C796 C 0.43512 0.16383 0.49598 0.0
C797 C 0.46844 0.14488 0.48365 0.0
C798 C 0.46596 0.07947 0.49049 0.0
C799 C 0.44788 0.05588 0.49884 0.0
C800 C 0.43256 0.09791 0.50191 0.0
C801 C 0.48252 0.03657 0.49061 0.0
C802 C 0.48446 0.99156 0.46216 0.0
C803 C 0.49691 0.04291 0.51744 0.0
C804 C 0.49556 0.09007 0.54803 0.0
C805 C 0.48016 0.08902 0.57263 0.0
C806 C 0.47887 0.13424 0.60104 0.0
C807 C 0.49297 0.18048 0.60529 0.0
C808 C 0.50843 0.18145 0.58121 0.0
C809 C 0.50977 0.13637 0.55272 0.0
H810 H 0.49194 0.21546 0.6273 0.0
H811 H 0.50755 0.79512 0.34283 0.0
H812 H 0.04826 0.71149 0.06587 0.0
H813 H 0.02081 0.64169 0.07046 0.0
H814 H 0.05104 0.49289 0.01262 0.0
H815 H 0.07864 0.56336 0.00727 0.0
H816 H 0.01696 0.51004 0.98331 0.0
H817 H 0.04114 0.47973 0.10539 0.0
H818 H 0.05355 0.51301 0.16617 0.0
H819 H 0.00152 0.6103 0.18992 0.0
H820 H 0.98888 0.57831 0.12906 0.0
H821 H 0.94407 0.28262 0.07154 0.0
H822 H 0.97292 0.34593 0.07672 0.0
H823 H 0.94964 0.48691 0.00244 0.0
H824 H 0.92066 0.42328 -0.00319 0.0
H825 H 0.98164 0.46537 0.09922 0.0
H826 H 0.98526 0.53614 0.94474 0.0
H827 H 0.97422 0.49623 0.88422 0.0
H828 H 0.97342 0.30412 0.92644 0.0
H829 H 0.9847 0.34276 0.98701 0.0
C830 C 0.04921 0.66361 0.05453 0.0
C831 C 0.06564 0.64297 0.03612 0.0
C832 C 0.03349 0.62363 0.05733 0.0
C833 C 0.03388 0.5619 0.0421 0.0
C834 C 0.05044 0.5404 0.02458 0.0
C835 C 0.06623 0.58053 0.02171 0.0
C836 C 0.01659 0.52169 0.04257 0.0
C837 C 0.00929 0.5001 0.00869 0.0
C838 C 0.00664 0.50824 0.07571 0.0
C839 C 0.01412 0.527 0.11252 0.0
C840 C 0.03238 0.50856 0.12347 0.0
C841 C 0.03945 0.52715 0.15796 0.0
C842 C 0.02834 0.56387 0.18186 0.0
C843 C 0.01011 0.58189 0.17137 0.0
C844 C 0.00298 0.56346 0.1369 0.0
C845 C 0.94496 0.3275 0.05662 0.0
C846 C 0.93014 0.34773 0.0335 0.0
C847 C 0.96146 0.3637 0.05972 0.0
C848 C 0.96353 0.42062 0.03958 0.0
C849 C 0.94841 0.44261 0.01783 0.0
C850 C 0.93184 0.40643 0.0148 0.0
C851 C 0.98189 0.45489 0.03992 0.0
C852 C 0.98935 0.47535 0.0739 0.0
C853 C 0.99218 0.46637 0.00697 0.0
C854 C 0.98563 0.44249 0.9705 0.0
C855 C 0.98279 0.48537 0.94105 0.0
C856 C 0.97648 0.46297 0.90675 0.0
C857 C 0.97306 0.39771 0.90152 0.0
C858 C 0.976 0.35468 0.93055 0.0
C859 C 0.98234 0.37682 0.96489 0.0
H860 H 0.96816 0.38048 0.87496 0.0
H861 H 0.03385 0.57828 0.20853 0.0
H862 H 0.07779 0.40675 0.48396 0.0
H863 H 0.05234 0.48314 0.47098 0.0
H864 H 0.011 0.33492 0.49074 0.0
H865 H 0.03622 0.25832 0.50171 0.0
H866 H -0.00089 0.40245 0.43737 0.0
H867 H 0.02439 0.45245 0.55781 0.0
H868 H 0.0491 0.48169 0.60285 0.0
H869 H 0.05998 0.65565 0.54318 0.0
H870 H 0.03547 0.62703 0.49753 0.0
H871 H 0.9201 0.58762 0.50074 0.0
H872 H 0.94657 0.51409 0.4909 0.0
H873 H 0.9811 0.67119 0.45299 0.0
H874 H 0.95484 0.74484 0.46286 0.0
H875 H -0.00249 0.60485 0.50893 0.0
H876 H 0.96708 0.55554 0.39346 0.0
H877 H 0.94071 0.52261 0.35318 0.0
H878 H 0.93737 0.34208 0.40962 0.0
H879 H 0.96353 0.37431 0.45065 0.0
C880 C 0.06326 0.39056 0.48517 0.0
C881 C 0.05899 0.32671 0.49402 0.0
C882 C 0.04872 0.43423 0.47793 0.0
C883 C 0.02968 0.41516 0.48051 0.0
C884 C 0.02552 0.35096 0.48846 0.0
C885 C 0.03999 0.30719 0.4949 0.0
C886 C 0.01397 0.46192 0.4765 0.0
C887 C -0.00128 0.44653 0.45322 0.0
C888 C 0.01352 0.52001 0.49667 0.0
C889 C 0.02827 0.53723 0.52403 0.0
C890 C 0.03216 0.4967 0.55416 0.0
C891 C 0.04611 0.5132 0.57981 0.0
C892 C 0.05615 0.57039 0.57581 0.0
C893 C 0.05222 0.6113 0.5462 0.0
C894 C 0.0383 0.59498 0.52044 0.0
C895 C 0.93321 0.60625 0.48961 0.0
C896 C 0.93542 0.6721 0.48287 0.0
C897 C 0.9483 0.56416 0.48388 0.0
C898 C 0.9658 0.58724 0.47118 0.0
C899 C 0.96773 0.65245 0.46284 0.0
C900 C 0.95268 0.69444 0.46848 0.0
C901 C 0.98259 0.5449 0.47025 0.0
C902 C -0.00197 0.56117 0.4927 0.0
C903 C 0.98296 0.487 0.45001 0.0
C904 C 0.96719 0.46762 0.42536 0.0
C905 C 0.96062 0.50906 0.39752 0.0
C906 C 0.94572 0.49046 0.37451 0.0
C907 C 0.93734 0.43036 0.3789 0.0
C908 C 0.94386 0.38866 0.40628 0.0
C909 C 0.95873 0.40706 0.4294 0.0
H910 H 0.92582 0.41603 0.36105 0.0
H911 H 0.06694 0.58309 0.59571 0.0
loop_
_geom_bond_atom_site_label_1
_geom_bond_atom_site_label_2
_geom_bond_distance
_geom_bond_site_symmetry_2
_ccdc_geom_bond_type
C0 O1 1.306 . S
C0 O3 1.160 . S
O1 C0 1.306 . S
O1 Cd2 2.228 . S
Cd2 O1 2.228 . S
Cd2 O6 2.273 1_554 S
Cd2 O10 2.277 . S
O3 C0 1.160 . S
O3 Cd4 2.203 . S
Cd4 O3 2.203 . S
Cd4 O6 2.411 1_554 S
Cd4 O7 2.333 1_554 S
Cd4 O8 2.352 . S
Cd4 O12 2.277 . S
Cd4 O13 2.356 . S
C5 O10 1.209 . S
C5 O12 1.226 . S
O6 Cd2 2.273 1_556 S
O6 Cd4 2.411 1_556 S
O6 C9 1.320 . S
O7 Cd4 2.333 1_556 S
O7 C9 1.214 . S
O8 Cd4 2.352 . S
O8 C11 1.258 . S
C9 O6 1.320 . S
C9 O7 1.214 . S
O10 Cd2 2.277 . S
O10 C5 1.209 . S
C11 O8 1.258 . S
C11 O13 1.282 . S
O12 Cd4 2.277 . S
O12 C5 1.226 . S
O13 Cd4 2.356 . S
O13 C11 1.282 . S
C14 O15 1.306 . S
C14 O17 1.160 . S
O15 C14 1.306 . S
O15 Cd16 2.228 . S
Cd16 O15 2.228 . S
Cd16 O20 2.273 1_554 S
Cd16 O24 2.277 . S
O17 C14 1.160 . S
O17 Cd18 2.203 . S
Cd18 O17 2.203 . S
Cd18 O20 2.411 1_554 S
Cd18 O21 2.333 1_554 S
Cd18 O22 2.352 . S
Cd18 O26 2.277 . S
Cd18 O27 2.356 . S
C19 O24 1.209 . S
C19 O26 1.226 . S
O20 Cd16 2.273 1_556 S
O20 Cd18 2.411 1_556 S
O20 C23 1.320 . S
O21 Cd18 2.333 1_556 S
O21 C23 1.214 . S
O22 Cd18 2.352 . S
O22 C25 1.258 . S
C23 O20 1.320 . S
C23 O21 1.214 . S
O24 Cd16 2.277 . S
O24 C19 1.209 . S
C25 O22 1.258 . S
C25 O27 1.282 . S
O26 Cd18 2.277 . S
O26 C19 1.226 . S
O27 Cd18 2.356 . S
O27 C25 1.282 . S
C28 O29 1.306 . S
C28 O31 1.160 . S
O29 C28 1.306 . S
O29 Cd30 2.228 . S
Cd30 O29 2.228 . S
Cd30 O34 2.273 . S
Cd30 O38 2.277 . S
O31 C28 1.160 . S
O31 Cd32 2.203 . S
Cd32 O31 2.203 . S
Cd32 O34 2.411 . S
Cd32 O35 2.333 . S
Cd32 O36 2.352 . S
Cd32 O40 2.277 . S
Cd32 O41 2.356 . S
C33 O38 1.209 . S
C33 O40 1.226 . S
O34 Cd30 2.273 . S
O34 Cd32 2.411 . S
O34 C37 1.320 . S
O35 Cd32 2.333 . S
O35 C37 1.214 . S
O36 Cd32 2.352 . S
O36 C39 1.258 . S
C37 O34 1.320 . S
C37 O35 1.214 . S
O38 Cd30 2.277 . S
O38 C33 1.209 . S
C39 O36 1.258 . S
C39 O41 1.282 . S
O40 Cd32 2.277 . S
O40 C33 1.226 . S
O41 Cd32 2.356 . S
O41 C39 1.282 . S
C42 O43 1.306 . S
C42 O45 1.160 . S
O43 C42 1.306 . S
O43 Cd44 2.228 . S
Cd44 O43 2.228 . S
Cd44 O48 2.273 . S
Cd44 O52 2.277 . S
O45 C42 1.160 . S
O45 Cd46 2.203 . S
Cd46 O45 2.203 . S
Cd46 O48 2.411 . S
Cd46 O49 2.333 . S
Cd46 O50 2.352 . S
Cd46 O54 2.277 . S
Cd46 O55 2.356 . S
C47 O52 1.209 . S
C47 O54 1.226 . S
O48 Cd44 2.273 . S
O48 Cd46 2.411 . S
O48 C51 1.320 . S
O49 Cd46 2.333 . S
O49 C51 1.214 . S
O50 Cd46 2.352 . S
O50 C53 1.258 . S
C51 O48 1.320 . S
C51 O49 1.214 . S
O52 Cd44 2.277 . S
O52 C47 1.209 . S
C53 O50 1.258 . S
C53 O55 1.282 . S
O54 Cd46 2.277 . S
O54 C47 1.226 . S
O55 Cd46 2.356 . S
O55 C53 1.282 . S
C56 O57 1.306 . S
C56 O59 1.160 . S
O57 C56 1.306 . S
O57 Cd58 2.228 . S
Cd58 O57 2.228 . S
Cd58 O62 2.273 1_554 S
Cd58 O66 2.277 . S
O59 C56 1.160 . S
O59 Cd60 2.203 . S
Cd60 O59 2.203 . S
Cd60 O62 2.411 1_554 S
Cd60 O63 2.333 1_554 S
Cd60 O64 2.352 . S
Cd60 O68 2.277 . S
Cd60 O69 2.356 . S
C61 O66 1.209 . S
C61 O68 1.226 . S
O62 Cd58 2.273 1_556 S
O62 Cd60 2.411 1_556 S
O62 C65 1.320 . S
O63 Cd60 2.333 1_556 S
O63 C65 1.214 . S
O64 Cd60 2.352 . S
O64 C67 1.258 . S
C65 O62 1.320 . S
C65 O63 1.214 . S
O66 Cd58 2.277 . S
O66 C61 1.209 . S
C67 O64 1.258 . S
C67 O69 1.282 . S
O68 Cd60 2.277 . S
O68 C61 1.226 . S
O69 Cd60 2.356 . S
O69 C67 1.282 . S
C70 O71 1.306 . S
C70 O73 1.160 . S
O71 C70 1.306 . S
O71 Cd72 2.228 . S
Cd72 O71 2.228 . S
Cd72 O76 2.273 1_554 S
Cd72 O80 2.277 . S
O73 C70 1.160 . S
O73 Cd74 2.203 . S
Cd74 O73 2.203 . S
Cd74 O76 2.411 1_554 S
Cd74 O77 2.333 1_554 S
Cd74 O78 2.352 . S
Cd74 O82 2.277 . S
Cd74 O83 2.356 . S
C75 O80 1.209 . S
C75 O82 1.226 . S
O76 Cd72 2.273 1_556 S
O76 Cd74 2.411 1_556 S
O76 C79 1.320 . S
O77 Cd74 2.333 1_556 S
O77 C79 1.214 . S
O78 Cd74 2.352 . S
O78 C81 1.258 . S
C79 O76 1.320 . S
C79 O77 1.214 . S
O80 Cd72 2.277 . S
O80 C75 1.209 . S
C81 O78 1.258 . S
C81 O83 1.282 . S
O82 Cd74 2.277 . S
O82 C75 1.226 . S
O83 Cd74 2.356 . S
O83 C81 1.282 . S
C84 O85 1.306 . S
C84 O87 1.160 . S
O85 C84 1.306 . S
O85 Cd86 2.228 . S
Cd86 O85 2.228 . S
Cd86 O90 2.273 . S
Cd86 O94 2.277 . S
O87 C84 1.160 . S
O87 Cd88 2.203 . S
Cd88 O87 2.203 . S
Cd88 O90 2.411 . S
Cd88 O91 2.333 . S
Cd88 O92 2.352 . S
Cd88 O96 2.277 . S
Cd88 O97 2.356 . S
C89 O94 1.209 . S
C89 O96 1.226 . S
O90 Cd86 2.273 . S
O90 Cd88 2.411 . S
O90 C93 1.320 . S
O91 Cd88 2.333 . S
O91 C93 1.214 . S
O92 Cd88 2.352 . S
O92 C95 1.258 . S
C93 O90 1.320 . S
C93 O91 1.214 . S
O94 Cd86 2.277 . S
O94 C89 1.209 . S
C95 O92 1.258 . S
C95 O97 1.282 . S
O96 Cd88 2.277 . S
O96 C89 1.226 . S
O97 Cd88 2.356 . S
O97 C95 1.282 . S
C98 O99 1.306 . S
C98 O101 1.160 . S
O99 C98 1.306 . S
O99 Cd100 2.228 . S
Cd100 O99 2.228 . S
Cd100 O104 2.273 . S
Cd100 O108 2.277 . S
O101 C98 1.160 . S
O101 Cd102 2.203 . S
Cd102 O101 2.203 . S
Cd102 O104 2.411 . S
Cd102 O105 2.333 . S
Cd102 O106 2.352 . S
Cd102 O110 2.277 . S
Cd102 O111 2.356 . S
C103 O108 1.209 . S
C103 O110 1.226 . S
O104 Cd100 2.273 . S
O104 Cd102 2.411 . S
O104 C107 1.320 . S
O105 Cd102 2.333 . S
O105 C107 1.214 . S
O106 Cd102 2.352 . S
O106 C109 1.258 . S
C107 O104 1.320 . S
C107 O105 1.214 . S
O108 Cd100 2.277 . S
O108 C103 1.209 . S
C109 O106 1.258 . S
C109 O111 1.282 . S
O110 Cd102 2.277 . S
O110 C103 1.226 . S
O111 Cd102 2.356 . S
O111 C109 1.282 . S
H112 C130 0.951 . S
H113 C132 0.951 . S
H114 C134 0.950 . S
H115 C135 0.950 . S
H116 C137 0.950 . S
H117 C140 0.950 . S
H118 C141 0.950 . S
H119 C143 0.950 . S
H120 C144 0.950 . S
H121 C145 0.951 . S
H122 C147 0.951 . S
H123 C149 0.950 . S
H124 C150 0.950 . S
H125 C152 0.950 . S
H126 C155 0.950 . S
H127 C156 0.950 . S
H128 C158 0.950 . S
H129 C159 0.950 . S
C130 H112 0.951 . S
C130 C131 1.366 . S
C130 C132 1.388 . S
C131 C130 1.366 . S
C131 C135 1.385 . S
C132 H113 0.951 . S
C132 C130 1.388 . S
C132 C133 1.366 . S
C133 C132 1.366 . S
C133 C134 1.414 . S
C133 C136 1.499 . S
C134 H114 0.950 . S
C134 C133 1.414 . S
C134 C135 1.374 . S
C135 H115 0.950 . S
C135 C131 1.385 . S
C135 C134 1.374 . S
C136 C133 1.499 . S
C136 C137 1.373 1_554 S
C136 C138 1.389 . S
C137 H116 0.950 . S
C137 C136 1.373 1_556 S
C137 C153 1.377 . S
C138 C136 1.389 . S
C138 C139 1.524 . S
C138 C152 1.377 . S
C139 C138 1.524 . S
C139 C140 1.397 . S
C139 C144 1.363 . S
C140 H117 0.950 . S
C140 C139 1.397 . S
C140 C141 1.334 . S
C141 H118 0.950 . S
C141 C140 1.334 . S
C141 C142 1.287 . S
C142 C141 1.287 . S
C142 C143 1.524 . S
C142 H161 0.913 . S
C143 H119 0.950 . S
C143 C142 1.524 . S
C143 C144 1.415 . S
C144 H120 0.950 . S
C144 C139 1.363 . S
C144 C143 1.415 . S
C145 H121 0.951 . S
C145 C146 1.366 . S
C145 C147 1.388 . S
C146 C145 1.366 . S
C146 C150 1.385 . S
C147 H122 0.951 . S
C147 C145 1.388 . S
C147 C148 1.366 . S
C148 C147 1.366 . S
C148 C149 1.414 . S
C148 C151 1.499 . S
C149 H123 0.950 . S
C149 C148 1.414 . S
C149 C150 1.374 . S
C150 H124 0.950 . S
C150 C146 1.385 . S
C150 C149 1.374 . S
C151 C148 1.499 . S
C151 C152 1.373 . S
C151 C153 1.389 1_554 S
C152 H125 0.950 . S
C152 C138 1.377 . S
C152 C151 1.373 . S
C153 C137 1.377 . S
C153 C151 1.389 1_556 S
C153 C154 1.524 . S
C154 C153 1.524 . S
C154 C155 1.397 . S
C154 C159 1.363 . S
C155 H126 0.950 . S
C155 C154 1.397 . S
C155 C156 1.334 . S
C156 H127 0.950 . S
C156 C155 1.334 . S
C156 C157 1.287 . S
C157 C156 1.287 . S
C157 C158 1.524 . S
C157 H160 0.999 . S
C158 H128 0.950 . S
C158 C157 1.524 . S
C158 C159 1.415 . S
C159 H129 0.950 . S
C159 C154 1.363 . S
C159 C158 1.415 . S
H160 C157 0.999 . S
H161 C142 0.913 . S
H162 C180 0.940 1_556 S
H163 C182 0.951 1_556 S
H164 C184 0.950 . S
H165 C185 0.950 . S
H166 C187 0.950 . S
H167 C190 0.950 . S
H168 C191 0.950 . S
H169 C193 0.950 . S
H170 C194 0.950 . S
H171 C195 0.951 . S
H172 C197 0.951 . S
H173 C199 0.950 . S
H174 C200 0.955 . S
H175 C202 0.950 . S
H176 C205 0.950 . S
H177 C206 0.950 . S
H178 C208 0.950 1_545 S
H179 C209 0.950 . S
C180 H162 0.940 1_554 S
C180 C181 1.376 . S
C180 C182 1.388 . S
C181 C180 1.376 . S
C181 C185 1.385 . S
C182 H163 0.951 1_554 S
C182 C180 1.388 . S
C182 C183 1.366 . S
C183 C182 1.366 . S
C183 C184 1.414 . S
C183 C186 1.499 . S
C184 H164 0.950 . S
C184 C183 1.414 . S
C184 C185 1.374 . S
C185 H165 0.950 . S
C185 C181 1.385 . S
C185 C184 1.374 . S
C186 C183 1.499 . S
C186 C187 1.373 . S
C186 C188 1.389 . S
C187 H166 0.950 . S
C187 C186 1.373 . S
C187 C203 1.377 . S
C188 C186 1.389 . S
C188 C189 1.524 . S
C188 C202 1.377 . S
C189 C188 1.524 . S
C189 C190 1.397 . S
C189 C194 1.363 . S
C190 H167 0.950 . S
C190 C189 1.397 . S
C190 C191 1.334 . S
C191 H168 0.950 . S
C191 C190 1.334 . S
C191 C192 1.287 . S
C192 C191 1.287 . S
C192 C193 1.524 . S
C192 H211 0.913 . S
C193 H169 0.950 . S
C193 C192 1.524 . S
C193 C194 1.415 . S
C194 H170 0.950 . S
C194 C189 1.363 . S
C194 C193 1.415 . S
C195 H171 0.951 . S
C195 C196 1.366 . S
C195 C197 1.388 . S
C196 C195 1.366 . S
C196 C200 1.380 1_554 S
C197 H172 0.951 . S
C197 C195 1.388 . S
C197 C198 1.366 . S
C198 C197 1.366 . S
C198 C199 1.414 1_554 S
C198 C201 1.499 . S
C199 H173 0.950 . S
C199 C198 1.414 1_556 S
C199 C200 1.374 . S
C200 H174 0.955 . S
C200 C196 1.380 1_556 S
C200 C199 1.374 . S
C201 C198 1.499 . S
C201 C202 1.373 . S
C201 C203 1.389 . S
C202 H175 0.950 . S
C202 C188 1.377 . S
C202 C201 1.373 . S
C203 C187 1.377 . S
C203 C201 1.389 . S
C203 C204 1.524 1_554 S
C204 C203 1.524 1_556 S
C204 C205 1.397 . S
C204 C209 1.363 1_556 S
C205 H176 0.950 . S
C205 C204 1.397 . S
C205 C206 1.334 . S
C206 H177 0.950 . S
C206 C205 1.334 . S
C206 C207 1.287 . S
C207 C206 1.287 . S
C207 C208 1.524 1_556 S
C207 H210 0.999 . S
C208 H178 0.950 1_565 S
C208 C207 1.524 1_554 S
C208 C209 1.415 . S
C209 H179 0.950 . S
C209 C204 1.363 1_554 S
C209 C208 1.415 . S
H210 C207 0.999 . S
H211 C192 0.913 . S
H212 C230 0.951 . S
H213 C232 0.951 . S
H214 C234 0.950 . S
H215 C235 0.950 . S
H216 C237 0.950 . S
H217 C240 0.950 . S
H218 C241 0.950 . S
H219 C243 0.950 . S
H220 C244 0.950 . S
H221 C245 0.951 . S
H222 C247 0.951 . S
H223 C249 0.950 . S
H224 C250 0.950 . S
H225 C252 0.950 . S
H226 C255 0.950 . S
H227 C256 0.950 . S
H228 C258 0.950 . S
H229 C259 0.950 . S
C230 H212 0.951 . S
C230 C231 1.366 . S
C230 C232 1.388 . S
C231 C230 1.366 . S
C231 C235 1.385 . S
C232 H213 0.951 . S
C232 C230 1.388 . S
C232 C233 1.366 . S
C233 C232 1.366 . S
C233 C234 1.414 . S
C233 C236 1.499 . S
C234 H214 0.950 . S
C234 C233 1.414 . S
C234 C235 1.374 . S
C235 H215 0.950 . S
C235 C231 1.385 . S
C235 C234 1.374 . S
C236 C233 1.499 . S
C236 C237 1.373 . S
C236 C238 1.389 . S
C237 H216 0.950 . S
C237 C236 1.373 . S
C237 C253 1.377 . S
C238 C236 1.389 . S
C238 C239 1.524 . S
C238 C252 1.377 . S
C239 C238 1.524 . S
C239 C240 1.397 . S
C239 C244 1.363 . S
C240 H217 0.950 . S
C240 C239 1.397 . S
C240 C241 1.334 . S
C241 H218 0.950 . S
C241 C240 1.334 . S
C241 C242 1.287 . S
C242 C241 1.287 . S
C242 C243 1.524 . S
C242 H261 0.913 . S
C243 H219 0.950 . S
C243 C242 1.524 . S
C243 C244 1.415 . S
C244 H220 0.950 . S
C244 C239 1.363 . S
C244 C243 1.415 . S
C245 H221 0.951 . S
C245 C246 1.366 . S
C245 C247 1.388 . S
C246 C245 1.366 . S
C246 C250 1.385 . S
C247 H222 0.951 . S
C247 C245 1.388 . S
C247 C248 1.366 . S
C248 C247 1.366 . S
C248 C249 1.414 . S
C248 C251 1.499 . S
C249 H223 0.950 . S
C249 C248 1.414 . S
C249 C250 1.374 . S
C250 H224 0.950 . S
C250 C246 1.385 . S
C250 C249 1.374 . S
C251 C248 1.499 . S
C251 C252 1.373 . S
C251 C253 1.389 . S
C252 H225 0.950 . S
C252 C238 1.377 . S
C252 C251 1.373 . S
C253 C237 1.377 . S
C253 C251 1.389 . S
C253 C254 1.524 . S
C254 C253 1.524 . S
C254 C255 1.397 . S
C254 C259 1.363 . S
C255 H226 0.950 . S
C255 C254 1.397 . S
C255 C256 1.334 . S
C256 H227 0.950 . S
C256 C255 1.334 . S
C256 C257 1.287 . S
C257 C256 1.287 . S
C257 C258 1.524 . S
C257 H260 0.999 . S
C258 H228 0.950 . S
C258 C257 1.524 . S
C258 C259 1.415 . S
C259 H229 0.950 . S
C259 C254 1.363 . S
C259 C258 1.415 . S
H260 C257 0.999 . S
H261 C242 0.913 . S
H262 C280 0.951 . S
H263 C282 0.951 . S
H264 C284 0.950 . S
H265 C285 0.950 . S
H266 C287 0.950 . S
H267 C290 0.950 . S
H268 C291 0.950 . S
H269 C293 0.950 . S
H270 C294 0.950 . S
H271 C295 0.951 . S
H272 C297 0.951 . S
H273 C299 0.950 . S
H274 C300 0.950 . S
H275 C302 0.950 . S
H276 C305 0.950 . S
H277 C306 0.950 . S
H278 C308 0.950 . S
H279 C309 0.950 . S
C280 H262 0.951 . S
C280 C281 1.366 . S
C280 C282 1.388 . S
C281 C280 1.366 . S
C281 C285 1.385 . S
C282 H263 0.951 . S
C282 C280 1.388 . S
C282 C283 1.366 . S
C283 C282 1.366 . S
C283 C284 1.414 . S
C283 C286 1.499 . S
C284 H264 0.950 . S
C284 C283 1.414 . S
C284 C285 1.374 . S
C285 H265 0.950 . S
C285 C281 1.385 . S
C285 C284 1.374 . S
C286 C283 1.499 . S
C286 C287 1.373 . S
C286 C288 1.389 . S
C287 H266 0.950 . S
C287 C286 1.373 . S
C287 C303 1.377 . S
C288 C286 1.389 . S
C288 C289 1.524 . S
C288 C302 1.377 . S
C289 C288 1.524 . S
C289 C290 1.397 . S
C289 C294 1.363 . S
C290 H267 0.950 . S
C290 C289 1.397 . S
C290 C291 1.334 . S
C291 H268 0.950 . S
C291 C290 1.334 . S
C291 C292 1.287 . S
C292 C291 1.287 . S
C292 C293 1.524 . S
C292 H311 0.913 . S
C293 H269 0.950 . S
C293 C292 1.524 . S
C293 C294 1.415 . S
C294 H270 0.950 . S
C294 C289 1.363 . S
C294 C293 1.415 . S
C295 H271 0.951 . S
C295 C296 1.366 . S
C295 C297 1.388 . S
C296 C295 1.366 . S
C296 C300 1.385 . S
C297 H272 0.951 . S
C297 C295 1.388 . S
C297 C298 1.366 . S
C298 C297 1.366 . S
C298 C299 1.414 . S
C298 C301 1.499 . S
C299 H273 0.950 . S
C299 C298 1.414 . S
C299 C300 1.374 . S
C300 H274 0.950 . S
C300 C296 1.385 . S
C300 C299 1.374 . S
C301 C298 1.499 . S
C301 C302 1.373 . S
C301 C303 1.389 . S
C302 H275 0.950 . S
C302 C288 1.377 . S
C302 C301 1.373 . S
C303 C287 1.377 . S
C303 C301 1.389 . S
C303 C304 1.524 . S
C304 C303 1.524 . S
C304 C305 1.397 . S
C304 C309 1.363 . S
C305 H276 0.950 . S
C305 C304 1.397 . S
C305 C306 1.334 . S
C306 H277 0.950 . S
C306 C305 1.334 . S
C306 C307 1.287 . S
C307 C306 1.287 . S
C307 C308 1.524 . S
C307 H310 0.999 . S
C308 H278 0.950 . S
C308 C307 1.524 . S
C308 C309 1.415 . S
C309 H279 0.950 . S
C309 C304 1.363 . S
C309 C308 1.415 . S
H310 C307 0.999 . S
H311 C292 0.913 . S
H312 C330 0.951 . S
H313 C332 0.951 . S
H314 C334 0.950 . S
H315 C335 0.950 . S
H316 C337 0.950 . S
H317 C340 0.950 . S
H318 C341 0.950 . S
H319 C343 0.950 . S
H320 C344 0.950 . S
H321 C345 0.951 . S
H322 C347 0.951 . S
H323 C349 0.950 . S
H324 C350 0.950 . S
H325 C352 0.950 . S
H326 C355 0.950 . S
H327 C356 0.950 . S
H328 C358 0.950 . S
H329 C359 0.950 . S
C330 H312 0.951 . S
C330 C331 1.366 . S
C330 C332 1.388 . S
C331 C330 1.366 . S
C331 C335 1.385 . S
C332 H313 0.951 . S
C332 C330 1.388 . S
C332 C333 1.366 . S
C333 C332 1.366 . S
C333 C334 1.414 . S
C333 C336 1.499 . S
C334 H314 0.950 . S
C334 C333 1.414 . S
C334 C335 1.374 . S
C335 H315 0.950 . S
C335 C331 1.385 . S
C335 C334 1.374 . S
C336 C333 1.499 . S
C336 C337 1.373 . S
C336 C338 1.389 . S
C337 H316 0.950 . S
C337 C336 1.373 . S
C337 C353 1.377 . S
C338 C336 1.389 . S
C338 C339 1.524 . S
C338 C352 1.377 . S
C339 C338 1.524 . S
C339 C340 1.397 . S
C339 C344 1.363 . S
C340 H317 0.950 . S
C340 C339 1.397 . S
C340 C341 1.334 . S
C341 H318 0.950 . S
C341 C340 1.334 . S
C341 C342 1.287 . S
C342 C341 1.287 . S
C342 C343 1.524 . S
C342 H361 0.913 . S
C343 H319 0.950 . S
C343 C342 1.524 . S
C343 C344 1.415 . S
C344 H320 0.950 . S
C344 C339 1.363 . S
C344 C343 1.415 . S
C345 H321 0.951 . S
C345 C346 1.366 . S
C345 C347 1.388 . S
C346 C345 1.366 . S
C346 C350 1.385 . S
C347 H322 0.951 . S
C347 C345 1.388 . S
C347 C348 1.366 . S
C348 C347 1.366 . S
C348 C349 1.414 . S
C348 C351 1.499 . S
C349 H323 0.950 . S
C349 C348 1.414 . S
C349 C350 1.374 . S
C350 H324 0.950 . S
C350 C346 1.385 . S
C350 C349 1.374 . S
C351 C348 1.499 . S
C351 C352 1.373 . S
C351 C353 1.389 . S
C352 H325 0.950 . S
C352 C338 1.377 . S
C352 C351 1.373 . S
C353 C337 1.377 . S
C353 C351 1.389 . S
C353 C354 1.524 . S
C354 C353 1.524 . S
C354 C355 1.397 . S
C354 C359 1.363 . S
C355 H326 0.950 . S
C355 C354 1.397 . S
C355 C356 1.334 . S
C356 H327 0.950 . S
C356 C355 1.334 . S
C356 C357 1.287 . S
C357 C356 1.287 . S
C357 C358 1.524 . S
C357 H360 0.999 . S
C358 H328 0.950 . S
C358 C357 1.524 . S
C358 C359 1.415 . S
C359 H329 0.950 . S
C359 C354 1.363 . S
C359 C358 1.415 . S
H360 C357 0.999 . S
H361 C342 0.913 . S
H362 C380 0.951 . S
H363 C382 0.951 . S
H364 C384 0.950 . S
H365 C385 0.950 . S
H366 C387 0.950 . S
H367 C390 0.950 . S
H368 C391 0.950 . S
H369 C393 0.950 . S
H370 C394 0.950 . S
H371 C395 0.951 . S
H372 C397 0.951 . S
H373 C399 0.950 . S
H374 C400 0.950 . S
H375 C402 0.950 . S
H376 C405 0.950 . S
H377 C406 0.950 . S
H378 C408 0.950 . S
H379 C409 0.950 . S
C380 H362 0.951 . S
C380 C381 1.366 . S
C380 C382 1.388 . S
C381 C380 1.366 . S
C381 C385 1.385 . S
C382 H363 0.951 . S
C382 C380 1.388 . S
C382 C383 1.366 . S
C383 C382 1.366 . S
C383 C384 1.414 . S
C383 C386 1.499 . S
C384 H364 0.950 . S
C384 C383 1.414 . S
C384 C385 1.374 . S
C385 H365 0.950 . S
C385 C381 1.385 . S
C385 C384 1.374 . S
C386 C383 1.499 . S
C386 C387 1.373 . S
C386 C388 1.389 . S
C387 H366 0.950 . S
C387 C386 1.373 . S
C387 C403 1.377 . S
C388 C386 1.389 . S
C388 C389 1.524 . S
C388 C402 1.377 . S
C389 C388 1.524 . S
C389 C390 1.397 . S
C389 C394 1.363 . S
C390 H367 0.950 . S
C390 C389 1.397 . S
C390 C391 1.334 . S
C391 H368 0.950 . S
C391 C390 1.334 . S
C391 C392 1.287 . S
C392 C391 1.287 . S
C392 C393 1.524 . S
C392 H411 0.913 . S
C393 H369 0.950 . S
C393 C392 1.524 . S
C393 C394 1.415 . S
C394 H370 0.950 . S
C394 C389 1.363 . S
C394 C393 1.415 . S
C395 H371 0.951 . S
C395 C396 1.366 . S
C395 C397 1.388 . S
C396 C395 1.366 . S
C396 C400 1.385 . S
C397 H372 0.951 . S
C397 C395 1.388 . S
C397 C398 1.366 . S
C398 C397 1.366 . S
C398 C399 1.414 . S
C398 C401 1.499 . S
C399 H373 0.950 . S
C399 C398 1.414 . S
C399 C400 1.374 . S
C400 H374 0.950 . S
C400 C396 1.385 . S
C400 C399 1.374 . S
C401 C398 1.499 . S
C401 C402 1.373 . S
C401 C403 1.389 . S
C402 H375 0.950 . S
C402 C388 1.377 . S
C402 C401 1.373 . S
C403 C387 1.377 . S
C403 C401 1.389 . S
C403 C404 1.524 . S
C404 C403 1.524 . S
C404 C405 1.397 . S
C404 C409 1.363 . S
C405 H376 0.950 . S
C405 C404 1.397 . S
C405 C406 1.334 . S
C406 H377 0.950 . S
C406 C405 1.334 . S
C406 C407 1.287 . S
C407 C406 1.287 . S
C407 C408 1.524 . S
C407 H410 0.999 . S
C408 H378 0.950 . S
C408 C407 1.524 . S
C408 C409 1.415 . S
C409 H379 0.950 . S
C409 C404 1.363 . S
C409 C408 1.415 . S
H410 C407 0.999 . S
H411 C392 0.913 . S
H412 C430 0.951 . S
H413 C432 0.951 . S
H414 C434 0.950 . S
H415 C435 0.950 . S
H416 C437 0.950 . S
H417 C440 0.950 . S
H418 C441 0.950 . S
H419 C443 0.950 . S
H420 C444 0.950 . S
H421 C445 0.951 . S
H422 C447 0.951 . S
H423 C449 0.950 . S
H424 C450 0.950 . S
H425 C452 0.950 . S
H426 C455 0.950 . S
H427 C456 0.950 . S
H428 C458 0.950 . S
H429 C459 0.950 . S
C430 H412 0.951 . S
C430 C431 1.366 . S
C430 C432 1.388 . S
C431 C430 1.366 . S
C431 C435 1.385 . S
C432 H413 0.951 . S
C432 C430 1.388 . S
C432 C433 1.366 . S
C433 C432 1.366 . S
C433 C434 1.414 . S
C433 C436 1.499 . S
C434 H414 0.950 . S
C434 C433 1.414 . S
C434 C435 1.374 . S
C435 H415 0.950 . S
C435 C431 1.385 . S
C435 C434 1.374 . S
C436 C433 1.499 . S
C436 C437 1.373 . S
C436 C438 1.389 . S
C437 H416 0.950 . S
C437 C436 1.373 . S
C437 C453 1.377 . S
C438 C436 1.389 . S
C438 C439 1.524 . S
C438 C452 1.377 . S
C439 C438 1.524 . S
C439 C440 1.397 . S
C439 C444 1.363 . S
C440 H417 0.950 . S
C440 C439 1.397 . S
C440 C441 1.334 . S
C441 H418 0.950 . S
C441 C440 1.334 . S
C441 C442 1.287 . S
C442 C441 1.287 . S
C442 C443 1.524 . S
C442 H461 0.913 . S
C443 H419 0.950 . S
C443 C442 1.524 . S
C443 C444 1.415 . S
C444 H420 0.950 . S
C444 C439 1.363 . S
C444 C443 1.415 . S
C445 H421 0.951 . S
C445 C446 1.366 . S
C445 C447 1.388 . S
C446 C445 1.366 . S
C446 C450 1.385 . S
C447 H422 0.951 . S
C447 C445 1.388 . S
C447 C448 1.366 . S
C448 C447 1.366 . S
C448 C449 1.414 . S
C448 C451 1.499 . S
C449 H423 0.950 . S
C449 C448 1.414 . S
C449 C450 1.374 . S
C450 H424 0.950 . S
C450 C446 1.385 . S
C450 C449 1.374 . S
C451 C448 1.499 . S
C451 C452 1.373 . S
C451 C453 1.389 . S
C452 H425 0.950 . S
C452 C438 1.377 . S
C452 C451 1.373 . S
C453 C437 1.377 . S
C453 C451 1.389 . S
C453 C454 1.524 . S
C454 C453 1.524 . S
C454 C455 1.397 . S
C454 C459 1.363 . S
C455 H426 0.950 . S
C455 C454 1.397 . S
C455 C456 1.334 . S
C456 H427 0.950 . S
C456 C455 1.334 . S
C456 C457 1.287 . S
C457 C456 1.287 . S
C457 C458 1.524 . S
C457 H460 0.999 . S
C458 H428 0.950 . S
C458 C457 1.524 . S
C458 C459 1.415 . S
C459 H429 0.950 . S
C459 C454 1.363 . S
C459 C458 1.415 . S
H460 C457 0.999 . S
H461 C442 0.913 . S
H462 C480 0.951 . S
H463 C482 0.951 . S
H464 C484 0.950 . S
H465 C485 0.950 . S
H466 C487 0.950 . S
H467 C490 0.950 . S
H468 C491 0.950 . S
H469 C493 0.950 . S
H470 C494 0.950 . S
H471 C495 0.951 . S
H472 C497 0.951 . S
H473 C499 0.950 . S
H474 C500 0.950 . S
H475 C502 0.950 . S
H476 C505 0.950 . S
H477 C506 0.950 . S
H478 C508 0.950 . S
H479 C509 0.950 . S
C480 H462 0.951 . S
C480 C481 1.366 . S
C480 C482 1.388 . S
C481 C480 1.366 . S
C481 C485 1.385 . S
C482 H463 0.951 . S
C482 C480 1.388 . S
C482 C483 1.366 . S
C483 C482 1.366 . S
C483 C484 1.414 . S
C483 C486 1.499 . S
C484 H464 0.950 . S
C484 C483 1.414 . S
C484 C485 1.374 . S
C485 H465 0.950 . S
C485 C481 1.385 . S
C485 C484 1.374 . S
C486 C483 1.499 . S
C486 C487 1.373 . S
C486 C488 1.389 . S
C487 H466 0.950 . S
C487 C486 1.373 . S
C487 C503 1.377 . S
C488 C486 1.389 . S
C488 C489 1.524 . S
C488 C502 1.377 . S
C489 C488 1.524 . S
C489 C490 1.397 . S
C489 C494 1.363 . S
C490 H467 0.950 . S
C490 C489 1.397 . S
C490 C491 1.334 . S
C491 H468 0.950 . S
C491 C490 1.334 . S
C491 C492 1.287 . S
C492 C491 1.287 . S
C492 C493 1.524 . S
C492 H511 0.913 . S
C493 H469 0.950 . S
C493 C492 1.524 . S
C493 C494 1.415 . S
C494 H470 0.950 . S
C494 C489 1.363 . S
C494 C493 1.415 . S
C495 H471 0.951 . S
C495 C496 1.366 . S
C495 C497 1.388 . S
C496 C495 1.366 . S
C496 C500 1.385 . S
C497 H472 0.951 . S
C497 C495 1.388 . S
C497 C498 1.366 . S
C498 C497 1.366 . S
C498 C499 1.414 . S
C498 C501 1.499 . S
C499 H473 0.950 . S
C499 C498 1.414 . S
C499 C500 1.374 . S
C500 H474 0.950 . S
C500 C496 1.385 . S
C500 C499 1.374 . S
C501 C498 1.499 . S
C501 C502 1.373 . S
C501 C503 1.389 . S
C502 H475 0.950 . S
C502 C488 1.377 . S
C502 C501 1.373 . S
C503 C487 1.377 . S
C503 C501 1.389 . S
C503 C504 1.524 . S
C504 C503 1.524 . S
C504 C505 1.397 . S
C504 C509 1.363 . S
C505 H476 0.950 . S
C505 C504 1.397 . S
C505 C506 1.334 . S
C506 H477 0.950 . S
C506 C505 1.334 . S
C506 C507 1.287 . S
C507 C506 1.287 . S
C507 C508 1.524 . S
C507 H510 0.999 . S
C508 H478 0.950 . S
C508 C507 1.524 . S
C508 C509 1.415 . S
C509 H479 0.950 . S
C509 C504 1.363 . S
C509 C508 1.415 . S
H510 C507 0.999 . S
H511 C492 0.913 . S
H512 C530 0.951 . S
H513 C532 0.951 . S
H514 C534 0.950 1_545 S
H515 C535 0.950 . S
H516 C537 0.950 . S
H517 C540 0.950 . S
H518 C541 0.950 . S
H519 C543 0.950 . S
H520 C544 0.950 . S
H521 C545 0.951 . S
H522 C547 0.951 . S
H523 C549 0.950 1_565 S
H524 C550 0.950 . S
H525 C552 0.950 . S
H526 C555 0.950 . S
H527 C556 0.950 . S
H528 C558 0.950 . S
H529 C559 0.950 . S
C530 H512 0.951 . S
C530 C531 1.366 . S
C530 C532 1.388 . S
C531 C530 1.366 . S
C531 C535 1.385 . S
C532 H513 0.951 . S
C532 C530 1.388 . S
C532 C533 1.366 . S
C533 C532 1.366 . S
C533 C534 1.414 . S
C533 C536 1.499 . S
C534 H514 0.950 1_565 S
C534 C533 1.414 . S
C534 C535 1.374 . S
C535 H515 0.950 . S
C535 C531 1.385 . S
C535 C534 1.374 . S
C536 C533 1.499 . S
C536 C537 1.373 1_565 S
C536 C538 1.389 . S
C537 H516 0.950 . S
C537 C536 1.373 1_545 S
C537 C553 1.377 . S
C538 C536 1.389 . S
C538 C539 1.524 . S
C538 C552 1.377 . S
C539 C538 1.524 . S
C539 C540 1.397 . S
C539 C544 1.363 . S
C540 H517 0.950 . S
C540 C539 1.397 . S
C540 C541 1.334 . S
C541 H518 0.950 . S
C541 C540 1.334 . S
C541 C542 1.287 . S
C542 C541 1.287 . S
C542 C543 1.524 . S
C542 H561 0.913 . S
C543 H519 0.950 . S
C543 C542 1.524 . S
C543 C544 1.415 . S
C544 H520 0.950 . S
C544 C539 1.363 . S
C544 C543 1.415 . S
C545 H521 0.951 . S
C545 C546 1.366 . S
C545 C547 1.388 . S
C546 C545 1.366 . S
C546 C550 1.385 . S
C547 H522 0.951 . S
C547 C545 1.388 . S
C547 C548 1.366 . S
C548 C547 1.366 . S
C548 C549 1.414 . S
C548 C551 1.499 . S
C549 H523 0.950 1_545 S
C549 C548 1.414 . S
C549 C550 1.374 . S
C550 H524 0.950 . S
C550 C546 1.385 . S
C550 C549 1.374 . S
C551 C548 1.499 . S
C551 C552 1.373 1_545 S
C551 C553 1.389 . S
C552 H525 0.950 . S
C552 C538 1.377 . S
C552 C551 1.373 1_565 S
C553 C537 1.377 . S
C553 C551 1.389 . S
C553 C554 1.524 . S
C554 C553 1.524 . S
C554 C555 1.397 . S
C554 C559 1.363 . S
C555 H526 0.950 . S
C555 C554 1.397 . S
C555 C556 1.334 . S
C556 H527 0.950 . S
C556 C555 1.334 . S
C556 C557 1.287 . S
C557 C556 1.287 . S
C557 C558 1.524 . S
C557 H560 0.999 . S
C558 H528 0.950 . S
C558 C557 1.524 . S
C558 C559 1.415 . S
C559 H529 0.950 . S
C559 C554 1.363 . S
C559 C558 1.415 . S
H560 C557 0.999 . S
H561 C542 0.913 . S
H562 C580 0.951 . S
H563 C582 0.951 . S
H564 C584 0.950 . S
H565 C585 0.950 . S
H566 C587 0.950 . S
H567 C590 0.950 . S
H568 C591 0.950 . S
H569 C593 0.950 . S
H570 C594 0.950 . S
H571 C595 0.951 . S
H572 C597 0.951 . S
H573 C599 0.950 . S
H574 C600 0.950 . S
H575 C602 0.950 . S
H576 C605 0.950 . S
H577 C606 0.950 . S
H578 C608 0.950 . S
H579 C609 0.950 . S
C580 H562 0.951 . S
C580 C581 1.366 . S
C580 C582 1.388 . S
C581 C580 1.366 . S
C581 C585 1.385 . S
C582 H563 0.951 . S
C582 C580 1.388 . S
C582 C583 1.366 . S
C583 C582 1.366 . S
C583 C584 1.414 . S
C583 C586 1.499 . S
C584 H564 0.950 . S
C584 C583 1.414 . S
C584 C585 1.374 . S
C585 H565 0.950 . S
C585 C581 1.385 . S
C585 C584 1.374 . S
C586 C583 1.499 . S
C586 C587 1.373 . S
C586 C588 1.389 1_565 S
C587 H566 0.950 . S
C587 C586 1.373 . S
C587 C603 1.377 . S
C588 C586 1.389 1_545 S
C588 C589 1.524 . S
C588 C602 1.377 . S
C589 C588 1.524 . S
C589 C590 1.397 . S
C589 C594 1.363 . S
C590 H567 0.950 . S
C590 C589 1.397 . S
C590 C591 1.334 . S
C591 H568 0.950 . S
C591 C590 1.334 . S
C591 C592 1.287 . S
C592 C591 1.287 . S
C592 C593 1.524 . S
C592 H611 0.913 . S
C593 H569 0.950 . S
C593 C592 1.524 . S
C593 C594 1.415 . S
C594 H570 0.950 . S
C594 C589 1.363 . S
C594 C593 1.415 . S
C595 H571 0.951 . S
C595 C596 1.366 . S
C595 C597 1.388 . S
C596 C595 1.366 . S
C596 C600 1.385 . S
C597 H572 0.951 . S
C597 C595 1.388 . S
C597 C598 1.366 . S
C598 C597 1.366 . S
C598 C599 1.414 . S
C598 C601 1.499 . S
C599 H573 0.950 . S
C599 C598 1.414 . S
C599 C600 1.374 . S
C600 H574 0.950 . S
C600 C596 1.385 . S
C600 C599 1.374 . S
C601 C598 1.499 . S
C601 C602 1.373 . S
C601 C603 1.389 1_545 S
C602 H575 0.950 . S
C602 C588 1.377 . S
C602 C601 1.373 . S
C603 C587 1.377 . S
C603 C601 1.389 1_565 S
C603 C604 1.524 . S
C604 C603 1.524 . S
C604 C605 1.397 . S
C604 C609 1.363 . S
C605 H576 0.950 . S
C605 C604 1.397 . S
C605 C606 1.334 . S
C606 H577 0.950 . S
C606 C605 1.334 . S
C606 C607 1.287 . S
C607 C606 1.287 . S
C607 C608 1.524 . S
C607 H610 0.999 . S
C608 H578 0.950 . S
C608 C607 1.524 . S
C608 C609 1.415 . S
C609 H579 0.950 . S
C609 C604 1.363 . S
C609 C608 1.415 . S
H610 C607 0.999 . S
H611 C592 0.913 . S
H612 C630 0.951 . S
H613 C632 0.951 1_545 S
H614 C634 0.950 . S
H615 C635 0.950 . S
H616 C637 0.950 . S
H617 C640 0.950 1_565 S
H618 C641 0.950 . S
H619 C643 0.950 . S
H620 C644 0.950 . S
H621 C645 0.951 . S
H622 C647 0.951 1_565 S
H623 C649 0.950 . S
H624 C650 0.950 . S
H625 C652 0.950 . S
H626 C655 0.950 1_545 S
H627 C656 0.950 . S
H628 C658 0.950 . S
H629 C659 0.950 . S
C630 H612 0.951 . S
C630 C631 1.366 . S
C630 C632 1.388 . S
C631 C630 1.366 . S
C631 C635 1.385 . S
C632 H613 0.951 1_565 S
C632 C630 1.388 . S
C632 C633 1.366 . S
C633 C632 1.366 . S
C633 C634 1.414 . S
C633 C636 1.499 . S
C634 H614 0.950 . S
C634 C633 1.414 . S
C634 C635 1.374 . S
C635 H615 0.950 . S
C635 C631 1.385 . S
C635 C634 1.374 . S
C636 C633 1.499 . S
C636 C637 1.373 . S
C636 C638 1.389 1_565 S
C637 H616 0.950 . S
C637 C636 1.373 . S
C637 C653 1.377 . S
C638 C636 1.389 1_545 S
C638 C639 1.524 . S
C638 C652 1.377 . S
C639 C638 1.524 . S
C639 C640 1.397 . S
C639 C644 1.363 . S
C640 H617 0.950 1_545 S
C640 C639 1.397 . S
C640 C641 1.334 . S
C641 H618 0.950 . S
C641 C640 1.334 . S
C641 C642 1.287 . S
C642 C641 1.287 . S
C642 C643 1.524 . S
C642 H661 0.913 . S
C643 H619 0.950 . S
C643 C642 1.524 . S
C643 C644 1.415 . S
C644 H620 0.950 . S
C644 C639 1.363 . S
C644 C643 1.415 . S
C645 H621 0.951 . S
C645 C646 1.366 . S
C645 C647 1.388 . S
C646 C645 1.366 . S
C646 C650 1.385 . S
C647 H622 0.951 1_545 S
C647 C645 1.388 . S
C647 C648 1.366 . S
C648 C647 1.366 . S
C648 C649 1.414 . S
C648 C651 1.499 . S
C649 H623 0.950 . S
C649 C648 1.414 . S
C649 C650 1.374 . S
C650 H624 0.950 . S
C650 C646 1.385 . S
C650 C649 1.374 . S
C651 C648 1.499 . S
C651 C652 1.373 . S
C651 C653 1.389 1_545 S
C652 H625 0.950 . S
C652 C638 1.377 . S
C652 C651 1.373 . S
C653 C637 1.377 . S
C653 C651 1.389 1_565 S
C653 C654 1.524 . S
C654 C653 1.524 . S
C654 C655 1.397 . S
C654 C659 1.363 . S
C655 H626 0.950 1_565 S
C655 C654 1.397 . S
C655 C656 1.334 . S
C656 H627 0.950 . S
C656 C655 1.334 . S
C656 C657 1.287 . S
C657 C656 1.287 . S
C657 C658 1.524 . S
C657 H660 0.999 . S
C658 H628 0.950 . S
C658 C657 1.524 . S
C658 C659 1.415 . S
C659 H629 0.950 . S
C659 C654 1.363 . S
C659 C658 1.415 . S
H660 C657 0.999 . S
H661 C642 0.913 . S
H662 C680 0.951 . S
H663 C682 0.951 . S
H664 C684 0.950 . S
H665 C685 0.950 . S
H666 C687 0.950 . S
H667 C690 0.950 . S
H668 C691 0.950 . S
H669 C693 0.950 . S
H670 C694 0.950 . S
H671 C695 0.951 . S
H672 C697 0.951 . S
H673 C699 0.950 . S
H674 C700 0.950 . S
H675 C702 0.950 . S
H676 C705 0.950 . S
H677 C706 0.950 . S
H678 C708 0.950 . S
H679 C709 0.950 . S
C680 H662 0.951 . S
C680 C681 1.366 . S
C680 C682 1.388 . S
C681 C680 1.366 . S
C681 C685 1.385 . S
C682 H663 0.951 . S
C682 C680 1.388 . S
C682 C683 1.366 . S
C683 C682 1.366 . S
C683 C684 1.414 . S
C683 C686 1.499 . S
C684 H664 0.950 . S
C684 C683 1.414 . S
C684 C685 1.374 . S
C685 H665 0.950 . S
C685 C681 1.385 . S
C685 C684 1.374 . S
C686 C683 1.499 . S
C686 C687 1.373 1_565 S
C686 C688 1.389 . S
C687 H666 0.950 . S
C687 C686 1.373 1_545 S
C687 C703 1.377 . S
C688 C686 1.389 . S
C688 C689 1.524 . S
C688 C702 1.377 . S
C689 C688 1.524 . S
C689 C690 1.397 . S
C689 C694 1.363 . S
C690 H667 0.950 . S
C690 C689 1.397 . S
C690 C691 1.334 . S
C691 H668 0.950 . S
C691 C690 1.334 . S
C691 C692 1.287 . S
C692 C691 1.287 . S
C692 C693 1.524 . S
C692 H711 0.913 . S
C693 H669 0.950 . S
C693 C692 1.524 . S
C693 C694 1.415 . S
C694 H670 0.950 . S
C694 C689 1.363 . S
C694 C693 1.415 . S
C695 H671 0.951 . S
C695 C696 1.366 . S
C695 C697 1.388 . S
C696 C695 1.366 . S
C696 C700 1.385 . S
C697 H672 0.951 . S
C697 C695 1.388 . S
C697 C698 1.366 . S
C698 C697 1.366 . S
C698 C699 1.414 . S
C698 C701 1.499 . S
C699 H673 0.950 . S
C699 C698 1.414 . S
C699 C700 1.374 . S
C700 H674 0.950 . S
C700 C696 1.385 . S
C700 C699 1.374 . S
C701 C698 1.499 . S
C701 C702 1.373 1_545 S
C701 C703 1.389 . S
C702 H675 0.950 . S
C702 C688 1.377 . S
C702 C701 1.373 1_565 S
C703 C687 1.377 . S
C703 C701 1.389 . S
C703 C704 1.524 . S
C704 C703 1.524 . S
C704 C705 1.397 . S
C704 C709 1.363 . S
C705 H676 0.950 . S
C705 C704 1.397 . S
C705 C706 1.334 . S
C706 H677 0.950 . S
C706 C705 1.334 . S
C706 C707 1.287 . S
C707 C706 1.287 . S
C707 C708 1.524 . S
C707 H710 0.999 . S
C708 H678 0.950 . S
C708 C707 1.524 . S
C708 C709 1.415 . S
C709 H679 0.950 . S
C709 C704 1.363 . S
C709 C708 1.415 . S
H710 C707 0.999 . S
H711 C692 0.913 . S
H712 C730 0.951 . S
H713 C732 0.951 . S
H714 C734 0.950 . S
H715 C735 0.950 . S
H716 C737 0.950 . S
H717 C740 0.950 . S
H718 C741 0.950 . S
H719 C743 0.950 . S
H720 C744 0.950 . S
H721 C745 0.951 . S
H722 C747 0.951 . S
H723 C749 0.950 . S
H724 C750 0.950 . S
H725 C752 0.950 1_556 S
H726 C755 0.950 1_556 S
H727 C756 0.950 1_556 S
H728 C758 0.950 . S
H729 C759 0.950 . S
C730 H712 0.951 . S
C730 C731 1.366 1_556 S
C730 C732 1.388 . S
C731 C730 1.366 1_554 S
C731 C735 1.385 . S
C732 H713 0.951 . S
C732 C730 1.388 . S
C732 C733 1.366 1_556 S
C733 C732 1.366 1_554 S
C733 C734 1.414 . S
C733 C736 1.499 . S
C734 H714 0.950 . S
C734 C733 1.414 . S
C734 C735 1.374 . S
C735 H715 0.950 . S
C735 C731 1.385 . S
C735 C734 1.374 . S
C736 C733 1.499 . S
C736 C737 1.373 1_565 S
C736 C738 1.389 . S
C737 H716 0.950 . S
C737 C736 1.373 1_545 S
C737 C753 1.377 . S
C738 C736 1.389 . S
C738 C739 1.524 . S
C738 C752 1.377 . S
C739 C738 1.524 . S
C739 C740 1.397 . S
C739 C744 1.363 1_554 S
C740 H717 0.950 . S
C740 C739 1.397 . S
C740 C741 1.334 . S
C741 H718 0.950 . S
C741 C740 1.334 . S
C741 C742 1.287 1_554 S
C742 C741 1.287 1_556 S
C742 C743 1.524 . S
C742 H761 0.913 . S
C743 H719 0.950 . S
C743 C742 1.524 . S
C743 C744 1.415 . S
C744 H720 0.950 . S
C744 C739 1.363 1_556 S
C744 C743 1.415 . S
C745 H721 0.951 . S
C745 C746 1.366 . S
C745 C747 1.388 . S
C746 C745 1.366 . S
C746 C750 1.385 1_554 S
C747 H722 0.951 . S
C747 C745 1.388 . S
C747 C748 1.366 . S
C748 C747 1.366 . S
C748 C749 1.414 1_554 S
C748 C751 1.499 . S
C749 H723 0.950 . S
C749 C748 1.414 1_556 S
C749 C750 1.374 . S
C750 H724 0.950 . S
C750 C746 1.385 1_556 S
C750 C749 1.374 . S
C751 C748 1.499 . S
C751 C752 1.373 1_545 S
C751 C753 1.389 . S
C752 H725 0.950 1_554 S
C752 C738 1.377 . S
C752 C751 1.373 1_565 S
C753 C737 1.377 . S
C753 C751 1.389 . S
C753 C754 1.524 . S
C754 C753 1.524 . S
C754 C755 1.397 . S
C754 C759 1.363 . S
C755 H726 0.950 1_554 S
C755 C754 1.397 . S
C755 C756 1.334 . S
C756 H727 0.950 1_554 S
C756 C755 1.334 . S
C756 C757 1.287 . S
C757 C756 1.287 . S
C757 C758 1.524 . S
C757 H760 0.999 . S
C758 H728 0.950 . S
C758 C757 1.524 . S
C758 C759 1.415 . S
C759 H729 0.950 . S
C759 C754 1.363 . S
C759 C758 1.415 . S
H760 C757 0.999 . S
H761 C742 0.913 . S
H762 C780 0.951 . S
H763 C782 0.951 . S
H764 C784 0.950 . S
H765 C785 0.950 . S
H766 C787 0.950 . S
H767 C790 0.950 . S
H768 C791 0.950 . S
H769 C793 0.950 . S
H770 C794 0.950 . S
H771 C795 0.951 . S
H772 C797 0.951 . S
H773 C799 0.950 . S
H774 C800 0.950 . S
H775 C802 0.950 . S
H776 C805 0.950 . S
H777 C806 0.950 . S
H778 C808 0.950 . S
H779 C809 0.950 . S
C780 H762 0.951 . S
C780 C781 1.366 . S
C780 C782 1.388 . S
C781 C780 1.366 . S
C781 C785 1.385 . S
C782 H763 0.951 . S
C782 C780 1.388 . S
C782 C783 1.366 . S
C783 C782 1.366 . S
C783 C784 1.414 . S
C783 C786 1.499 . S
C784 H764 0.950 . S
C784 C783 1.414 . S
C784 C785 1.374 . S
C785 H765 0.950 . S
C785 C781 1.385 . S
C785 C784 1.374 . S
C786 C783 1.499 . S
C786 C787 1.373 1_565 S
C786 C788 1.389 . S
C787 H766 0.950 . S
C787 C786 1.373 1_545 S
C787 C803 1.377 . S
C788 C786 1.389 . S
C788 C789 1.524 . S
C788 C802 1.377 . S
C789 C788 1.524 . S
C789 C790 1.397 . S
C789 C794 1.363 . S
C790 H767 0.950 . S
C790 C789 1.397 . S
C790 C791 1.334 . S
C791 H768 0.950 . S
C791 C790 1.334 . S
C791 C792 1.287 . S
C792 C791 1.287 . S
C792 C793 1.524 . S
C792 H811 0.913 . S
C793 H769 0.950 . S
C793 C792 1.524 . S
C793 C794 1.415 . S
C794 H770 0.950 . S
C794 C789 1.363 . S
C794 C793 1.415 . S
C795 H771 0.951 . S
C795 C796 1.366 . S
C795 C797 1.388 . S
C796 C795 1.366 . S
C796 C800 1.385 . S
C797 H772 0.951 . S
C797 C795 1.388 . S
C797 C798 1.366 . S
C798 C797 1.366 . S
C798 C799 1.414 . S
C798 C801 1.499 . S
C799 H773 0.950 . S
C799 C798 1.414 . S
C799 C800 1.374 . S
C800 H774 0.950 . S
C800 C796 1.385 . S
C800 C799 1.374 . S
C801 C798 1.499 . S
C801 C802 1.373 1_545 S
C801 C803 1.389 . S
C802 H775 0.950 . S
C802 C788 1.377 . S
C802 C801 1.373 1_565 S
C803 C787 1.377 . S
C803 C801 1.389 . S
C803 C804 1.524 . S
C804 C803 1.524 . S
C804 C805 1.397 . S
C804 C809 1.363 . S
C805 H776 0.950 . S
C805 C804 1.397 . S
C805 C806 1.334 . S
C806 H777 0.950 . S
C806 C805 1.334 . S
C806 C807 1.287 . S
C807 C806 1.287 . S
C807 C808 1.524 . S
C807 H810 0.999 . S
C808 H778 0.950 . S
C808 C807 1.524 . S
C808 C809 1.415 . S
C809 H779 0.950 . S
C809 C804 1.363 . S
C809 C808 1.415 . S
H810 C807 0.999 . S
H811 C792 0.913 . S
H812 C830 0.951 . S
H813 C832 0.951 . S
H814 C834 0.950 . S
H815 C835 0.950 . S
H816 C837 0.955 . S
H817 C840 0.950 . S
H818 C841 0.950 . S
H819 C843 0.950 . S
H820 C844 0.950 . S
H821 C845 0.951 . S
H822 C847 0.951 . S
H823 C849 0.950 . S
H824 C850 0.950 . S
H825 C852 0.955 . S
H826 C855 0.950 1_554 S
H827 C856 0.950 . S
H828 C858 0.950 . S
H829 C859 0.950 . S
C830 H812 0.951 . S
C830 C831 1.366 . S
C830 C832 1.388 . S
C831 C830 1.366 . S
C831 C835 1.385 1_554 S
C832 H813 0.951 . S
C832 C830 1.388 . S
C832 C833 1.366 . S
C833 C832 1.366 . S
C833 C834 1.414 1_554 S
C833 C836 1.499 . S
C834 H814 0.950 . S
C834 C833 1.414 1_556 S
C834 C835 1.374 . S
C835 H815 0.950 . S
C835 C831 1.385 1_556 S
C835 C834 1.374 . S
C836 C833 1.499 . S
C836 C837 1.421 1_554 S
C836 C838 1.389 . S
C837 H816 0.955 . S
C837 C836 1.421 1_556 S
C837 C853 1.327 1_455 S
C838 C836 1.389 . S
C838 C839 1.524 . S
C838 C852 1.327 1_455 S
C839 C838 1.524 . S
C839 C840 1.397 . S
C839 C844 1.363 . S
C840 H817 0.950 . S
C840 C839 1.397 . S
C840 C841 1.334 . S
C841 H818 0.950 . S
C841 C840 1.334 . S
C841 C842 1.287 . S
C842 C841 1.287 . S
C842 C843 1.524 . S
C842 H861 0.913 . S
C843 H819 0.950 . S
C843 C842 1.524 . S
C843 C844 1.415 . S
C844 H820 0.950 . S
C844 C839 1.363 . S
C844 C843 1.415 . S
C845 H821 0.951 . S
C845 C846 1.366 1_556 S
C845 C847 1.388 . S
C846 C845 1.366 1_554 S
C846 C850 1.385 . S
C847 H822 0.951 . S
C847 C845 1.388 . S
C847 C848 1.366 1_556 S
C848 C847 1.366 1_554 S
C848 C849 1.414 . S
C848 C851 1.499 . S
C849 H823 0.950 . S
C849 C848 1.414 . S
C849 C850 1.374 . S
C850 H824 0.950 . S
C850 C846 1.385 . S
C850 C849 1.374 . S
C851 C848 1.499 . S
C851 C852 1.421 . S
C851 C853 1.389 1_554 S
C852 H825 0.955 . S
C852 C838 1.327 1_655 S
C852 C851 1.421 . S
C853 C837 1.327 1_655 S
C853 C851 1.389 1_556 S
C853 C854 1.524 . S
C854 C853 1.524 . S
C854 C855 1.397 . S
C854 C859 1.363 . S
C855 H826 0.950 1_556 S
C855 C854 1.397 . S
C855 C856 1.334 . S
C856 H827 0.950 . S
C856 C855 1.334 . S
C856 C857 1.287 . S
C857 C856 1.287 . S
C857 C858 1.524 . S
C857 H860 0.999 . S
C858 H828 0.950 . S
C858 C857 1.524 . S
C858 C859 1.415 . S
C859 H829 0.950 . S
C859 C854 1.363 . S
C859 C858 1.415 . S
H860 C857 0.999 . S
H861 C842 0.913 . S
H862 C880 0.951 . S
H863 C882 0.951 . S
H864 C884 0.950 . S
H865 C885 0.950 . S
H866 C887 0.950 . S
H867 C890 0.950 . S
H868 C891 0.950 . S
H869 C893 0.950 . S
H870 C894 0.950 . S
H871 C895 0.951 . S
H872 C897 0.951 . S
H873 C899 0.950 . S
H874 C900 0.950 . S
H875 C902 0.950 . S
H876 C905 0.950 . S
H877 C906 0.950 . S
H878 C908 0.950 . S
H879 C909 0.950 . S
C880 H862 0.951 . S
C880 C881 1.366 . S
C880 C882 1.388 . S
C881 C880 1.366 . S
C881 C885 1.385 . S
C882 H863 0.951 . S
C882 C880 1.388 . S
C882 C883 1.366 . S
C883 C882 1.366 . S
C883 C884 1.414 . S
C883 C886 1.499 . S
C884 H864 0.950 . S
C884 C883 1.414 . S
C884 C885 1.374 . S
C885 H865 0.950 . S
C885 C881 1.385 . S
C885 C884 1.374 . S
C886 C883 1.499 . S
C886 C887 1.373 1_455 S
C886 C888 1.389 . S
C887 H866 0.950 . S
C887 C886 1.373 1_655 S
C887 C903 1.377 . S
C888 C886 1.389 . S
C888 C889 1.524 . S
C888 C902 1.377 . S
C889 C888 1.524 . S
C889 C890 1.397 . S
C889 C894 1.363 . S
C890 H867 0.950 . S
C890 C889 1.397 . S
C890 C891 1.334 . S
C891 H868 0.950 . S
C891 C890 1.334 . S
C891 C892 1.287 . S
C892 C891 1.287 . S
C892 C893 1.524 . S
C892 H911 0.913 . S
C893 H869 0.950 . S
C893 C892 1.524 . S
C893 C894 1.415 . S
C894 H870 0.950 . S
C894 C889 1.363 . S
C894 C893 1.415 . S
C895 H871 0.951 . S
C895 C896 1.366 . S
C895 C897 1.388 . S
C896 C895 1.366 . S
C896 C900 1.385 . S
C897 H872 0.951 . S
C897 C895 1.388 . S
C897 C898 1.366 . S
C898 C897 1.366 . S
C898 C899 1.414 . S
C898 C901 1.499 . S
C899 H873 0.950 . S
C899 C898 1.414 . S
C899 C900 1.374 . S
C900 H874 0.950 . S
C900 C896 1.385 . S
C900 C899 1.374 . S
C901 C898 1.499 . S
C901 C902 1.373 1_655 S
C901 C903 1.389 . S
C902 H875 0.950 . S
C902 C888 1.377 . S
C902 C901 1.373 1_455 S
C903 C887 1.377 . S
C903 C901 1.389 . S
C903 C904 1.524 . S
C904 C903 1.524 . S
C904 C905 1.397 . S
C904 C909 1.363 . S
C905 H876 0.950 . S
C905 C904 1.397 . S
C905 C906 1.334 . S
C906 H877 0.950 . S
C906 C905 1.334 . S
C906 C907 1.287 . S
C907 C906 1.287 . S
C907 C908 1.524 . S
C907 H910 0.999 . S
C908 H878 0.950 . S
C908 C907 1.524 . S
C908 C909 1.415 . S
C909 H879 0.950 . S
C909 C904 1.363 . S
C909 C908 1.415 . S
H910 C907 0.999 . S
H911 C892 0.913 . S
C131 C75 1.500 . S
C146 C5 1.500 . S
C181 C61 1.500 . S
C196 C19 1.500 . S
C231 C103 1.500 . S
C246 C33 1.500 . S
C281 C89 1.500 . S
C296 C47 1.500 . S
C331 C0 1.390 . S
C346 C28 1.390 . S
C381 C14 1.390 . S
C396 C42 1.390 . S
C431 C23 1.390 . S
C446 C51 1.390 . S
C481 C9 1.390 . S
C496 C37 1.390 . S
C531 C56 1.390 . S
C546 C84 1.390 . S
C581 C98 1.390 . S
C596 C70 1.390 . S
C631 C107 1.390 . S
C646 C79 1.390 . S
C681 C65 1.391 . S
C696 C93 1.391 . S
C731 C25 1.498 . S
C746 C11 1.498 . S
C781 C39 1.498 . S
C796 C53 1.498 . S
C831 C67 1.498 . S
C846 C81 1.498 . S
C881 C95 1.498 . S
C896 C109 1.498 . S
