# Generated by pormake.
# Topology unm, (4)-cn, num edge types: 1
# Building blocks:
#     Node 0, Type 0, BuildingBlock: CEKHIL_clean_sbu_0, # of connection points: 4
#     Node 1, Type 0, BuildingBlock: CEKHIL_clean_sbu_0, # of connection points: 4
#     Node 2, Type 0, BuildingBlock: CEKHIL_clean_sbu_0, # of connection points: 4
#     Node 3, Type 0, BuildingBlock: CEKHIL_clean_sbu_0, # of connection points: 4
#     Node 4, Type 0, BuildingBlock: CEKHIL_clean_sbu_0, # of connection points: 4
#     Node 5, Type 0, BuildingBlock: CEKHIL_clean_sbu_0, # of connection points: 4
#     Node 6, Type 0, BuildingBlock: CEKHIL_clean_sbu_0, # of connection points: 4
#     Node 7, Type 0, BuildingBlock: CEKHIL_clean_sbu_0, # of connection points: 4
#     Edge 8, Type (0, 0), BuildingBlock: OJICUG_clean_linker_0, # of connection points: 2
#     Edge 9, Type (0, 0), BuildingBlock: OJICUG_clean_linker_0, # of connection points: 2
#     Edge 10, Type (0, 0), BuildingBlock: OJICUG_clean_linker_0, # of connection points: 2
#     Edge 11, Type (0, 0), BuildingBlock: OJICUG_clean_linker_0, # of connection points: 2
#     Edge 12, Type (0, 0), BuildingBlock: OJICUG_clean_linker_0, # of connection points: 2
#     Edge 13, Type (0, 0), BuildingBlock: OJICUG_clean_linker_0, # of connection points: 2
#     Edge 14, Type (0, 0), BuildingBlock: OJICUG_clean_linker_0, # of connection points: 2
#     Edge 15, Type (0, 0), BuildingBlock: OJICUG_clean_linker_0, # of connection points: 2
#     Edge 16, Type (0, 0), BuildingBlock: OJICUG_clean_linker_0, # of connection points: 2
#     Edge 17, Type (0, 0), BuildingBlock: OJICUG_clean_linker_0, # of connection points: 2
#     Edge 18, Type (0, 0), BuildingBlock: OJICUG_clean_linker_0, # of connection points: 2
#     Edge 19, Type (0, 0), BuildingBlock: OJICUG_clean_linker_0, # of connection points: 2
#     Edge 20, Type (0, 0), BuildingBlock: OJICUG_clean_linker_0, # of connection points: 2
#     Edge 21, Type (0, 0), BuildingBlock: OJICUG_clean_linker_0, # of connection points: 2
#     Edge 22, Type (0, 0), BuildingBlock: OJICUG_clean_linker_0, # of connection points: 2
#     Edge 23, Type (0, 0), BuildingBlock: OJICUG_clean_linker_0, # of connection points: 2
# Relax obj value: 0.191
# Max RMSD: 0.152
# Mean RMSD: 0.152
data_MOF--net-unm--node1-CEKHIL_clean_sbu_0--edge1-OJICUG_clean_linker_0
_symmetry_space_group_name_H-M    P1
_symmetry_Int_Tables_number       1
_symmetry_cell_setting            triclinic
loop_
_symmetry_equiv_pos_as_xyz
'x, y, z'
_cell_length_a     18.278482
_cell_length_b     18.276067
_cell_length_c     31.176438
_cell_angle_alpha  89.977663
_cell_angle_beta   90.035181
_cell_angle_gamma 89.996675
loop_
_atom_site_label
_atom_site_type_symbol
_atom_site_fract_x
_atom_site_fract_y
_atom_site_fract_z
_atom_type_partial_charge
Co0 Co 0.20567 0.26149 0.19655 0.0
O1 O 0.2899 0.20156 0.21191 0.0
O2 O 0.2936 0.32066 0.20051 0.0
C3 C 0.1238 0.22088 0.24639 0.0
O4 O 0.13362 0.34258 0.18277 0.0
Co5 Co 0.05822 0.19546 0.16385 0.0
O6 O 0.02081 0.29535 0.17498 0.0
C7 C 0.17855 0.22313 0.10207 0.0
C8 C 0.32835 0.26146 0.21131 0.0
C9 C 0.06398 0.34974 0.17857 0.0
O10 O 0.22196 0.24449 0.13239 0.0
O11 O 0.11353 0.19981 0.10868 0.0
O12 O 0.17435 0.26765 0.25667 0.0
O13 O 0.13105 0.19239 0.2087 0.0
Co14 Co 0.22945 0.70991 0.69393 0.0
O15 O 0.28931 0.79314 0.71073 0.0
O16 O 0.17047 0.79783 0.69821 0.0
C17 C 0.26869 0.62655 0.74322 0.0
O18 O 0.14871 0.63866 0.67876 0.0
Co19 Co 0.29619 0.56377 0.65988 0.0
O20 O 0.19616 0.52601 0.67069 0.0
C21 C 0.28162 0.68999 0.60115 0.0
C22 C 0.2296 0.83186 0.70989 0.0
C23 C 0.1417 0.56904 0.6746 0.0
O24 O 0.24919 0.72837 0.63031 0.0
O25 O 0.30871 0.62646 0.60786 0.0
O26 O 0.22152 0.67664 0.75364 0.0
O27 O 0.29787 0.63483 0.70579 0.0
Co28 Co 0.7993 0.72657 0.19353 0.0
O29 O 0.71516 0.78518 0.2107 0.0
O30 O 0.71146 0.66705 0.19628 0.0
C31 C 0.88211 0.76374 0.24392 0.0
O32 O 0.87122 0.64683 0.17764 0.0
Co33 Co 0.94557 0.79531 0.16122 0.0
O34 O 0.98381 0.69513 0.17123 0.0
C35 C 0.81991 0.78415 0.10179 0.0
C36 C 0.67668 0.72539 0.2085 0.0
C37 C 0.941 0.64031 0.17414 0.0
O38 O 0.78173 0.74914 0.13004 0.0
O39 O 0.88297 0.81157 0.10948 0.0
O40 O 0.83186 0.71609 0.25335 0.0
O41 O 0.8741 0.79465 0.20693 0.0
Co42 Co 0.76488 0.30344 0.69637 0.0
O43 O 0.70668 0.21752 0.71129 0.0
O44 O 0.82497 0.21572 0.69763 0.0
C45 C 0.72657 0.38293 0.74851 0.0
O46 O 0.84444 0.37682 0.68253 0.0
Co47 Co 0.69568 0.45255 0.66827 0.0
O48 O 0.79636 0.48977 0.67748 0.0
C49 C 0.71869 0.33536 0.60344 0.0
C50 C 0.76685 0.17967 0.70891 0.0
C51 C 0.85106 0.44664 0.67936 0.0
O52 O 0.74476 0.29085 0.63199 0.0
O53 O 0.69304 0.39858 0.61272 0.0
O54 O 0.7741 0.33211 0.75704 0.0
O55 O 0.69604 0.37693 0.71133 0.0
Co56 Co 0.70637 0.2257 0.33086 0.0
O57 O 0.79013 0.28475 0.31371 0.0
O58 O 0.79431 0.16644 0.32771 0.0
C59 C 0.62348 0.2633 0.2807 0.0
O60 O 0.63483 0.1455 0.34657 0.0
Co61 Co 0.55972 0.2934 0.36338 0.0
O62 O 0.52199 0.19317 0.35295 0.0
C63 C 0.68557 0.28236 0.42272 0.0
C64 C 0.82872 0.225 0.31547 0.0
C65 C 0.56508 0.13859 0.34992 0.0
O66 O 0.72399 0.24779 0.3944 0.0
O67 O 0.62233 0.30944 0.41511 0.0
O68 O 0.67371 0.21576 0.27107 0.0
O69 O 0.63141 0.29371 0.31781 0.0
Co70 Co 0.27082 0.2097 0.8285 0.0
O71 O 0.21013 0.2929 0.81249 0.0
O72 O 0.3294 0.29769 0.82335 0.0
C73 C 0.22987 0.12609 0.77995 0.0
O74 O 0.35254 0.13868 0.8426 0.0
Co75 Co 0.20655 0.06369 0.86403 0.0
O76 O 0.30585 0.02591 0.85142 0.0
C77 C 0.22746 0.18872 0.92287 0.0
C78 C 0.2698 0.33172 0.81256 0.0
C79 C 0.36 0.06908 0.84677 0.0
O80 O 0.25391 0.22847 0.8923 0.0
O81 O 0.20257 0.12399 0.91749 0.0
O82 O 0.27629 0.17645 0.7688 0.0
O83 O 0.2021 0.13426 0.81778 0.0
Co84 Co 0.30062 0.76008 0.32705 0.0
O85 O 0.2156 0.7006 0.31254 0.0
O86 O 0.21265 0.81957 0.32422 0.0
C87 C 0.38058 0.71956 0.27598 0.0
O88 O 0.37346 0.84064 0.34013 0.0
Co89 Co 0.4496 0.6927 0.35692 0.0
O90 O 0.48645 0.79323 0.34682 0.0
C91 C 0.33171 0.71928 0.42079 0.0
C92 C 0.17738 0.76063 0.31352 0.0
C93 C 0.44317 0.84768 0.34393 0.0
O94 O 0.28712 0.74283 0.39156 0.0
O95 O 0.39543 0.69402 0.41241 0.0
O96 O 0.3299 0.76666 0.26647 0.0
O97 O 0.3744 0.6908 0.31363 0.0
Co98 Co 0.73763 0.80365 0.82815 0.0
O99 O 0.796 0.71765 0.81357 0.0
O100 O 0.67765 0.71584 0.82696 0.0
C101 C 0.77629 0.88268 0.77584 0.0
O102 O 0.65781 0.87711 0.84149 0.0
Co103 Co 0.80613 0.95326 0.8558 0.0
O104 O 0.70561 0.99026 0.84565 0.0
C105 C 0.78401 0.83635 0.92096 0.0
C106 C 0.73583 0.67979 0.81581 0.0
C107 C 0.65099 0.94701 0.8439 0.0
O108 O 0.75758 0.79166 0.89263 0.0
O109 O 0.80958 0.89949 0.9114 0.0
O110 O 0.7288 0.83181 0.76736 0.0
O111 O 0.80648 0.87705 0.81313 0.0
C112 C 0.26753 0.20233 0.04125 0.0
C113 C 0.20045 0.22929 0.0564 0.0
H114 H 0.32897 0.1687 0.98576 0.0
C115 C 0.14851 0.25479 0.02652 0.0
H116 H 0.30818 0.18183 0.06351 0.0
C117 C 0.16082 0.24859 0.98243 0.0
C118 C 0.22532 0.21666 0.96722 0.0
H119 H 0.09644 0.2763 0.03733 0.0
H120 H 0.11774 0.26402 0.96031 0.0
C121 C 0.27949 0.19526 0.99686 0.0
C122 C 0.35976 0.72827 0.5408 0.0
C123 C 0.28918 0.71785 0.55691 0.0
H124 H 0.4277 0.73822 0.4857 0.0
C125 C 0.22986 0.71589 0.52801 0.0
H126 H 0.40641 0.72882 0.56229 0.0
C127 C 0.24195 0.72014 0.48337 0.0
C128 C 0.31365 0.7253 0.46728 0.0
H129 H 0.17497 0.70602 0.53973 0.0
H130 H 0.19603 0.71497 0.46162 0.0
C131 C 0.3718 0.7324 0.49674 0.0
C132 C 0.78416 0.73527 0.02899 0.0
C133 C 0.79244 0.79453 0.05754 0.0
H134 H 0.77522 0.70114 0.96283 0.0
C135 C 0.79082 0.86572 0.04111 0.0
H136 H 0.78683 0.67963 0.04087 0.0
C137 C 0.78506 0.8779 0.99715 0.0
C138 C 0.78167 0.8192 0.96784 0.0
H139 H 0.79777 0.91227 0.06227 0.0
H140 H 0.7857 0.9341 0.9861 0.0
C141 C 0.77845 0.74752 0.98435 0.0
C142 C 0.71974 0.23357 0.49575 0.0
C143 C 0.7129 0.29273 0.46698 0.0
H144 H 0.72675 0.19982 0.56207 0.0
C145 C 0.71511 0.36401 0.4832 0.0
H146 H 0.71649 0.17789 0.48402 0.0
C147 C 0.71997 0.37644 0.52717 0.0
C148 C 0.7219 0.3179 0.55666 0.0
H149 H 0.70915 0.41048 0.46186 0.0
H150 H 0.71976 0.43271 0.53808 0.0
C151 C 0.72462 0.24607 0.54039 0.0
C152 C 0.45031 0.20008 0.22385 0.0
C153 C 0.40646 0.26331 0.2252 0.0
H154 H 0.55411 0.15117 0.23897 0.0
C155 C 0.43685 0.3279 0.24219 0.0
H156 H 0.42858 0.14943 0.21108 0.0
C157 C 0.50809 0.32844 0.25909 0.0
C158 C 0.55166 0.26511 0.2581 0.0
H159 H 0.40448 0.37745 0.24401 0.0
H160 H 0.52878 0.37821 0.27355 0.0
C161 C 0.52244 0.20126 0.23953 0.0
C162 C 0.29095 0.95357 0.72205 0.0
C163 C 0.22799 0.90955 0.72427 0.0
H164 H 0.34009 0.05739 0.73658 0.0
C165 C 0.16411 0.93934 0.74246 0.0
H166 H 0.34102 0.93222 0.70833 0.0
C167 C 0.16411 0.01036 0.75965 0.0
C168 C 0.22718 0.05417 0.75766 0.0
H169 H 0.11484 0.90669 0.74495 0.0
H170 H 0.115 0.03075 0.77498 0.0
C171 C 0.29022 0.02546 0.73796 0.0
C172 C 0.49626 0.65559 0.25389 0.0
C173 C 0.45227 0.71865 0.25327 0.0
H174 H 0.60058 0.60781 0.23919 0.0
C175 C 0.4815 0.78333 0.23568 0.0
H176 H 0.47564 0.60525 0.26769 0.0
C177 C 0.55404 0.78556 0.22073 0.0
C178 C 0.59831 0.72261 0.22178 0.0
H179 H 0.44955 0.83325 0.23549 0.0
H180 H 0.57574 0.83679 0.20876 0.0
C181 C 0.56791 0.6572 0.23766 0.0
C182 C 0.70781 0.05606 0.72098 0.0
C183 C 0.77048 0.10081 0.72156 0.0
H184 H 0.66112 0.95116 0.73609 0.0
C185 C 0.83647 0.07053 0.73673 0.0
H186 H 0.6561 0.07758 0.70962 0.0
C187 C 0.83895 0.99872 0.75281 0.0
C188 C 0.77616 0.95431 0.75279 0.0
H189 H 0.88571 0.10345 0.73793 0.0
H190 H 0.88979 0.97836 0.76613 0.0
C191 C 0.71088 0.98334 0.7358 0.0
C192 C 0.9365 0.15767 0.28449 0.0
C193 C 0.90669 0.2225 0.3015 0.0
H194 H 0.02805 0.10666 0.25316 0.0
C195 C 0.95104 0.28533 0.30296 0.0
H196 H 0.90367 0.10844 0.2826 0.0
C197 C 0.0232 0.28351 0.28743 0.0
C198 C 0.05191 0.21945 0.26885 0.0
H199 H 0.92974 0.33612 0.31577 0.0
H200 H 0.05531 0.33331 0.28812 0.0
C201 C 0.00777 0.15654 0.26767 0.0
C202 C 0.33472 0.5113 0.76389 0.0
C203 C 0.27132 0.55465 0.76556 0.0
H204 H 0.38446 0.40786 0.77848 0.0
C205 C 0.20808 0.52527 0.78471 0.0
H206 H 0.384 0.53218 0.74896 0.0
C207 C 0.20756 0.45317 0.80038 0.0
C208 C 0.27088 0.40959 0.7984 0.0
H209 H 0.15795 0.55683 0.78581 0.0
H210 H 0.15739 0.4313 0.81369 0.0
C211 C 0.33488 0.44008 0.78076 0.0
C212 C 0.05505 0.69984 0.30099 0.0
C213 C 0.09912 0.76293 0.29978 0.0
H214 H 0.95117 0.65128 0.28565 0.0
C215 C 0.06896 0.82767 0.28279 0.0
H216 H 0.07658 0.64906 0.31371 0.0
C217 C 0.99776 0.82848 0.26576 0.0
C218 C 0.95397 0.76527 0.26659 0.0
H219 H 0.10148 0.87712 0.28103 0.0
H220 H 0.97729 0.87836 0.25131 0.0
C221 C 0.98297 0.70129 0.28517 0.0
C222 C 0.6639 0.49907 0.77147 0.0
C223 C 0.72671 0.45467 0.77145 0.0
H224 H 0.61706 0.60368 0.78654 0.0
C225 C 0.79195 0.48364 0.78852 0.0
H226 H 0.61309 0.47877 0.75811 0.0
C227 C 0.79494 0.55625 0.80351 0.0
C228 C 0.73225 0.60098 0.80301 0.0
H229 H 0.84171 0.45146 0.78822 0.0
H230 H 0.84662 0.5777 0.81495 0.0
C231 C 0.66631 0.57078 0.78771 0.0
C232 C 0.92688 0.50435 0.1744 0.0
C233 C 0.97271 0.56607 0.17434 0.0
H234 H 0.91959 0.38785 0.17588 0.0
C235 C 0.04891 0.5561 0.1757 0.0
H236 H 0.86791 0.51004 0.17348 0.0
C237 C 0.07861 0.48585 0.17717 0.0
C238 C 0.03272 0.42414 0.1772 0.0
H239 H 0.08576 0.60251 0.176 0.0
H240 H 0.13756 0.48006 0.17825 0.0
C241 C 0.95655 0.43417 0.17577 0.0
C242 C 0.98689 0.432 0.67602 0.0
C243 C 0.92534 0.47801 0.67764 0.0
H244 H 0.10339 0.42451 0.67365 0.0
C245 C 0.93553 0.55419 0.67784 0.0
H246 H 0.98101 0.37302 0.67583 0.0
C247 C 0.00578 0.58373 0.67654 0.0
C248 C 0.06734 0.53771 0.67494 0.0
H249 H 0.8893 0.5912 0.67925 0.0
H250 H 0.01168 0.6427 0.67692 0.0
C251 C 0.05714 0.46153 0.67463 0.0
C252 C 0.57982 0.00267 0.3487 0.0
C253 C 0.53373 0.06422 0.34935 0.0
H254 H 0.58753 0.8862 0.34636 0.0
C255 C 0.45758 0.05397 0.34815 0.0
H256 H 0.63877 0.00858 0.34946 0.0
C257 C 0.42816 0.98366 0.34628 0.0
C258 C 0.47427 0.92212 0.34567 0.0
H259 H 0.42052 0.10023 0.3483 0.0
H260 H 0.36922 0.9777 0.34536 0.0
C261 C 0.55041 0.93239 0.34692 0.0
C262 C 0.44482 0.96177 0.84725 0.0
C263 C 0.43447 0.03793 0.84622 0.0
H264 H 0.5211 0.87336 0.84732 0.0
C265 C 0.49595 0.08399 0.84428 0.0
H266 H 0.39864 0.92469 0.84849 0.0
C267 C 0.5663 0.05452 0.8436 0.0
C268 C 0.57663 0.97836 0.84476 0.0
H269 H 0.48993 0.14293 0.84333 0.0
H270 H 0.61249 0.09154 0.84201 0.0
C271 C 0.51512 0.93231 0.84648 0.0
loop_
_geom_bond_atom_site_label_1
_geom_bond_atom_site_label_2
_geom_bond_distance
_geom_bond_site_symmetry_2
_ccdc_geom_bond_type
Co0 O1 2.216 . S
Co0 O2 2.091 . S
Co0 O4 2.004 . S
Co0 O10 2.021 . S
Co0 O12 2.137 . S
Co0 O13 2.244 . S
O1 Co0 2.216 . S
O1 C8 1.247 . S
O2 Co0 2.091 . S
O2 C8 1.261 . S
C3 O12 1.247 . S
C3 O13 1.272 . S
O4 Co0 2.004 . S
O4 C9 1.259 . S
Co5 O6 2.061 . S
Co5 O11 2.052 . S
Co5 O13 2.135 . S
O6 Co5 2.061 . S
O6 C9 1.235 . S
C7 O10 1.238 . S
C7 O11 1.241 . S
C8 O1 1.247 . S
C8 O2 1.261 . S
C9 O4 1.259 . S
C9 O6 1.235 . S
O10 Co0 2.021 . S
O10 C7 1.238 . S
O11 Co5 2.052 . S
O11 C7 1.241 . S
O12 Co0 2.137 . S
O12 C3 1.247 . S
O13 Co0 2.244 . S
O13 C3 1.272 . S
O13 Co5 2.135 . S
Co14 O15 2.216 . S
Co14 O16 2.091 . S
Co14 O18 2.004 . S
Co14 O24 2.021 . S
Co14 O26 2.137 . S
Co14 O27 2.244 . S
O15 Co14 2.216 . S
O15 C22 1.247 . S
O16 Co14 2.091 . S
O16 C22 1.261 . S
C17 O26 1.247 . S
C17 O27 1.272 . S
O18 Co14 2.004 . S
O18 C23 1.259 . S
Co19 O20 2.061 . S
Co19 O25 2.052 . S
Co19 O27 2.135 . S
O20 Co19 2.061 . S
O20 C23 1.235 . S
C21 O24 1.238 . S
C21 O25 1.241 . S
C22 O15 1.247 . S
C22 O16 1.261 . S
C23 O18 1.259 . S
C23 O20 1.235 . S
O24 Co14 2.021 . S
O24 C21 1.238 . S
O25 Co19 2.052 . S
O25 C21 1.241 . S
O26 Co14 2.137 . S
O26 C17 1.247 . S
O27 Co14 2.244 . S
O27 C17 1.272 . S
O27 Co19 2.135 . S
Co28 O29 2.216 . S
Co28 O30 2.091 . S
Co28 O32 2.004 . S
Co28 O38 2.021 . S
Co28 O40 2.137 . S
Co28 O41 2.244 . S
O29 Co28 2.216 . S
O29 C36 1.247 . S
O30 Co28 2.091 . S
O30 C36 1.261 . S
C31 O40 1.247 . S
C31 O41 1.272 . S
O32 Co28 2.004 . S
O32 C37 1.259 . S
Co33 O34 2.061 . S
Co33 O39 2.052 . S
Co33 O41 2.135 . S
O34 Co33 2.061 . S
O34 C37 1.235 . S
C35 O38 1.238 . S
C35 O39 1.241 . S
C36 O29 1.247 . S
C36 O30 1.261 . S
C37 O32 1.259 . S
C37 O34 1.235 . S
O38 Co28 2.021 . S
O38 C35 1.238 . S
O39 Co33 2.052 . S
O39 C35 1.241 . S
O40 Co28 2.137 . S
O40 C31 1.247 . S
O41 Co28 2.244 . S
O41 C31 1.272 . S
O41 Co33 2.135 . S
Co42 O43 2.216 . S
Co42 O44 2.091 . S
Co42 O46 2.004 . S
Co42 O52 2.021 . S
Co42 O54 2.137 . S
Co42 O55 2.244 . S
O43 Co42 2.216 . S
O43 C50 1.247 . S
O44 Co42 2.091 . S
O44 C50 1.261 . S
C45 O54 1.247 . S
C45 O55 1.272 . S
O46 Co42 2.004 . S
O46 C51 1.259 . S
Co47 O48 2.061 . S
Co47 O53 2.052 . S
Co47 O55 2.135 . S
O48 Co47 2.061 . S
O48 C51 1.235 . S
C49 O52 1.238 . S
C49 O53 1.241 . S
C50 O43 1.247 . S
C50 O44 1.261 . S
C51 O46 1.259 . S
C51 O48 1.235 . S
O52 Co42 2.021 . S
O52 C49 1.238 . S
O53 Co47 2.052 . S
O53 C49 1.241 . S
O54 Co42 2.137 . S
O54 C45 1.247 . S
O55 Co42 2.244 . S
O55 C45 1.272 . S
O55 Co47 2.135 . S
Co56 O57 2.216 . S
Co56 O58 2.091 . S
Co56 O60 2.004 . S
Co56 O66 2.021 . S
Co56 O68 2.137 . S
Co56 O69 2.244 . S
O57 Co56 2.216 . S
O57 C64 1.247 . S
O58 Co56 2.091 . S
O58 C64 1.261 . S
C59 O68 1.247 . S
C59 O69 1.272 . S
O60 Co56 2.004 . S
O60 C65 1.259 . S
Co61 O62 2.061 . S
Co61 O67 2.052 . S
Co61 O69 2.135 . S
O62 Co61 2.061 . S
O62 C65 1.235 . S
C63 O66 1.238 . S
C63 O67 1.241 . S
C64 O57 1.247 . S
C64 O58 1.261 . S
C65 O60 1.259 . S
C65 O62 1.235 . S
O66 Co56 2.021 . S
O66 C63 1.238 . S
O67 Co61 2.052 . S
O67 C63 1.241 . S
O68 Co56 2.137 . S
O68 C59 1.247 . S
O69 Co56 2.244 . S
O69 C59 1.272 . S
O69 Co61 2.135 . S
Co70 O71 2.216 . S
Co70 O72 2.091 . S
Co70 O74 2.004 . S
Co70 O80 2.021 . S
Co70 O82 2.137 . S
Co70 O83 2.244 . S
O71 Co70 2.216 . S
O71 C78 1.247 . S
O72 Co70 2.091 . S
O72 C78 1.261 . S
C73 O82 1.247 . S
C73 O83 1.272 . S
O74 Co70 2.004 . S
O74 C79 1.259 . S
Co75 O76 2.061 . S
Co75 O81 2.052 . S
Co75 O83 2.135 . S
O76 Co75 2.061 . S
O76 C79 1.235 . S
C77 O80 1.238 . S
C77 O81 1.241 . S
C78 O71 1.247 . S
C78 O72 1.261 . S
C79 O74 1.259 . S
C79 O76 1.235 . S
O80 Co70 2.021 . S
O80 C77 1.238 . S
O81 Co75 2.052 . S
O81 C77 1.241 . S
O82 Co70 2.137 . S
O82 C73 1.247 . S
O83 Co70 2.244 . S
O83 C73 1.272 . S
O83 Co75 2.135 . S
Co84 O85 2.216 . S
Co84 O86 2.091 . S
Co84 O88 2.004 . S
Co84 O94 2.021 . S
Co84 O96 2.137 . S
Co84 O97 2.244 . S
O85 Co84 2.216 . S
O85 C92 1.247 . S
O86 Co84 2.091 . S
O86 C92 1.261 . S
C87 O96 1.247 . S
C87 O97 1.272 . S
O88 Co84 2.004 . S
O88 C93 1.259 . S
Co89 O90 2.061 . S
Co89 O95 2.052 . S
Co89 O97 2.135 . S
O90 Co89 2.061 . S
O90 C93 1.235 . S
C91 O94 1.238 . S
C91 O95 1.241 . S
C92 O85 1.247 . S
C92 O86 1.261 . S
C93 O88 1.259 . S
C93 O90 1.235 . S
O94 Co84 2.021 . S
O94 C91 1.238 . S
O95 Co89 2.052 . S
O95 C91 1.241 . S
O96 Co84 2.137 . S
O96 C87 1.247 . S
O97 Co84 2.244 . S
O97 C87 1.272 . S
O97 Co89 2.135 . S
Co98 O99 2.216 . S
Co98 O100 2.091 . S
Co98 O102 2.004 . S
Co98 O108 2.021 . S
Co98 O110 2.137 . S
Co98 O111 2.244 . S
O99 Co98 2.216 . S
O99 C106 1.247 . S
O100 Co98 2.091 . S
O100 C106 1.261 . S
C101 O110 1.247 . S
C101 O111 1.272 . S
O102 Co98 2.004 . S
O102 C107 1.259 . S
Co103 O104 2.061 . S
Co103 O109 2.052 . S
Co103 O111 2.135 . S
O104 Co103 2.061 . S
O104 C107 1.235 . S
C105 O108 1.238 . S
C105 O109 1.241 . S
C106 O99 1.247 . S
C106 O100 1.261 . S
C107 O102 1.259 . S
C107 O104 1.235 . S
O108 Co98 2.021 . S
O108 C105 1.238 . S
O109 Co103 2.052 . S
O109 C105 1.241 . S
O110 Co98 2.137 . S
O110 C101 1.247 . S
O111 Co98 2.244 . S
O111 C101 1.272 . S
O111 Co103 2.135 . S
C112 C113 1.387 . S
C112 H116 0.950 . S
C112 C121 1.390 1_554 S
C113 C112 1.387 . S
C113 C115 1.387 . S
H114 C121 0.950 . S
C115 C113 1.387 . S
C115 C117 1.390 1_554 S
C115 H119 0.950 . S
H116 C112 0.950 . S
C117 C115 1.390 1_556 S
C117 C118 1.387 . S
C117 H120 0.950 . S
C118 C117 1.387 . S
C118 C121 1.387 . S
H119 C115 0.950 . S
H120 C117 0.950 . S
C121 C112 1.390 1_556 S
C121 H114 0.950 . S
C121 C118 1.387 . S
C122 C123 1.387 . S
C122 H126 0.950 . S
C122 C131 1.390 . S
C123 C122 1.387 . S
C123 C125 1.387 . S
H124 C131 0.950 . S
C125 C123 1.387 . S
C125 C127 1.390 . S
C125 H129 0.950 . S
H126 C122 0.950 . S
C127 C125 1.390 . S
C127 C128 1.387 . S
C127 H130 0.950 . S
C128 C127 1.387 . S
C128 C131 1.387 . S
H129 C125 0.950 . S
H130 C127 0.950 . S
C131 C122 1.390 . S
C131 H124 0.950 . S
C131 C128 1.387 . S
C132 C133 1.387 . S
C132 H136 0.950 . S
C132 C141 1.390 1_554 S
C133 C132 1.387 . S
C133 C135 1.387 . S
H134 C141 0.950 . S
C135 C133 1.387 . S
C135 C137 1.390 1_554 S
C135 H139 0.950 . S
H136 C132 0.950 . S
C137 C135 1.390 1_556 S
C137 C138 1.387 . S
C137 H140 0.950 . S
C138 C137 1.387 . S
C138 C141 1.387 . S
H139 C135 0.950 . S
H140 C137 0.950 . S
C141 C132 1.390 1_556 S
C141 H134 0.950 . S
C141 C138 1.387 . S
C142 C143 1.387 . S
C142 H146 0.950 . S
C142 C151 1.390 . S
C143 C142 1.387 . S
C143 C145 1.387 . S
H144 C151 0.950 . S
C145 C143 1.387 . S
C145 C147 1.390 . S
C145 H149 0.950 . S
H146 C142 0.950 . S
C147 C145 1.390 . S
C147 C148 1.387 . S
C147 H150 0.950 . S
C148 C147 1.387 . S
C148 C151 1.387 . S
H149 C145 0.950 . S
H150 C147 0.950 . S
C151 C142 1.390 . S
C151 H144 0.950 . S
C151 C148 1.387 . S
C152 C153 1.387 . S
C152 H156 0.950 . S
C152 C161 1.390 . S
C153 C152 1.387 . S
C153 C155 1.387 . S
H154 C161 0.950 . S
C155 C153 1.387 . S
C155 C157 1.390 . S
C155 H159 0.950 . S
H156 C152 0.950 . S
C157 C155 1.390 . S
C157 C158 1.387 . S
C157 H160 0.950 . S
C158 C157 1.387 . S
C158 C161 1.387 . S
H159 C155 0.950 . S
H160 C157 0.950 . S
C161 C152 1.390 . S
C161 H154 0.950 . S
C161 C158 1.387 . S
C162 C163 1.387 . S
C162 H166 0.950 . S
C162 C171 1.390 . S
C163 C162 1.387 . S
C163 C165 1.387 . S
H164 C171 0.957 . S
C165 C163 1.387 . S
C165 C167 1.390 . S
C165 H169 0.950 . S
H166 C162 0.950 . S
C167 C165 1.390 . S
C167 C168 1.382 1_565 S
C167 H170 0.950 . S
C168 C167 1.382 1_545 S
C168 C171 1.384 1_545 S
H169 C165 0.950 . S
H170 C167 0.950 . S
C171 C162 1.390 . S
C171 H164 0.957 . S
C171 C168 1.384 1_565 S
C172 C173 1.387 . S
C172 H176 0.950 . S
C172 C181 1.390 . S
C173 C172 1.387 . S
C173 C175 1.387 . S
H174 C181 0.950 . S
C175 C173 1.387 . S
C175 C177 1.390 . S
C175 H179 0.950 . S
H176 C172 0.950 . S
C177 C175 1.390 . S
C177 C178 1.387 . S
C177 H180 0.950 . S
C178 C177 1.387 . S
C178 C181 1.387 . S
H179 C175 0.950 . S
H180 C177 0.950 . S
C181 C172 1.390 . S
C181 H174 0.950 . S
C181 C178 1.387 . S
C182 C183 1.387 . S
C182 H186 0.950 . S
C182 C191 1.390 . S
C183 C182 1.387 . S
C183 C185 1.387 . S
H184 C191 0.950 . S
C185 C183 1.387 . S
C185 C187 1.390 . S
C185 H189 0.950 . S
H186 C182 0.950 . S
C187 C185 1.390 . S
C187 C188 1.383 1_545 S
C187 H190 0.950 . S
C188 C187 1.383 1_565 S
C188 C191 1.383 1_565 S
H189 C185 0.950 . S
H190 C187 0.950 . S
C191 C182 1.390 . S
C191 H184 0.950 . S
C191 C188 1.383 1_545 S
C192 C193 1.387 . S
C192 H196 0.950 . S
C192 C201 1.390 . S
C193 C192 1.387 . S
C193 C195 1.387 . S
H194 C201 0.950 . S
C195 C193 1.387 . S
C195 C197 1.390 . S
C195 H199 0.950 . S
H196 C192 0.950 . S
C197 C195 1.390 . S
C197 C198 1.387 1_655 S
C197 H200 0.950 1_655 S
C198 C197 1.387 1_455 S
C198 C201 1.384 1_455 S
H199 C195 0.950 . S
H200 C197 0.950 1_455 S
C201 C192 1.390 . S
C201 H194 0.950 . S
C201 C198 1.384 1_655 S
C202 C203 1.387 . S
C202 H206 0.950 . S
C202 C211 1.390 . S
C203 C202 1.387 . S
C203 C205 1.387 . S
H204 C211 0.950 . S
C205 C203 1.387 . S
C205 C207 1.390 . S
C205 H209 0.950 . S
H206 C202 0.950 . S
C207 C205 1.390 . S
C207 C208 1.387 . S
C207 H210 0.950 . S
C208 C207 1.387 . S
C208 C211 1.387 . S
H209 C205 0.950 . S
H210 C207 0.950 . S
C211 C202 1.390 . S
C211 H204 0.950 . S
C211 C208 1.387 . S
C212 C213 1.387 . S
C212 H216 0.950 . S
C212 C221 1.390 . S
C213 C212 1.387 . S
C213 C215 1.387 . S
H214 C221 0.950 . S
C215 C213 1.387 . S
C215 C217 1.390 . S
C215 H219 0.950 . S
H216 C212 0.950 . S
C217 C215 1.390 . S
C217 C218 1.383 1_455 S
C217 H220 0.950 . S
C218 C217 1.383 1_655 S
C218 C221 1.383 1_655 S
H219 C215 0.950 . S
H220 C217 0.950 . S
C221 C212 1.390 . S
C221 H214 0.950 . S
C221 C218 1.383 1_455 S
C222 C223 1.387 . S
C222 H226 0.950 . S
C222 C231 1.390 . S
C223 C222 1.387 . S
C223 C225 1.387 . S
H224 C231 0.950 . S
C225 C223 1.387 . S
C225 C227 1.390 . S
C225 H229 0.950 . S
H226 C222 0.950 . S
C227 C225 1.390 . S
C227 C228 1.387 . S
C227 H230 0.950 . S
C228 C227 1.387 . S
C228 C231 1.387 . S
H229 C225 0.950 . S
H230 C227 0.950 . S
C231 C222 1.390 . S
C231 H224 0.950 . S
C231 C228 1.387 . S
C232 C233 1.387 . S
C232 H236 0.950 . S
C232 C241 1.390 1_655 S
C233 C232 1.387 . S
C233 C235 1.387 . S
H234 C241 0.950 . S
C235 C233 1.387 . S
C235 C237 1.390 1_655 S
C235 H239 0.950 . S
H236 C232 0.950 . S
C237 C235 1.390 1_455 S
C237 C238 1.387 . S
C237 H240 0.950 . S
C238 C237 1.387 . S
C238 C241 1.387 . S
H239 C235 0.950 . S
H240 C237 0.950 . S
C241 C232 1.390 1_455 S
C241 H234 0.950 . S
C241 C238 1.387 . S
C242 C243 1.387 . S
C242 H246 0.950 . S
C242 C251 1.390 1_655 S
C243 C242 1.387 . S
C243 C245 1.387 . S
H244 C251 0.950 . S
C245 C243 1.387 . S
C245 C247 1.390 1_655 S
C245 H249 0.950 . S
H246 C242 0.950 . S
C247 C245 1.390 1_455 S
C247 C248 1.387 . S
C247 H250 0.950 . S
C248 C247 1.387 . S
C248 C251 1.387 . S
H249 C245 0.950 . S
H250 C247 0.950 . S
C251 C242 1.390 1_455 S
C251 H244 0.950 . S
C251 C248 1.387 . S
C252 C253 1.387 . S
C252 H256 0.950 . S
C252 C261 1.390 1_545 S
C253 C252 1.387 . S
C253 C255 1.387 . S
H254 C261 0.950 . S
C255 C253 1.387 . S
C255 C257 1.390 1_545 S
C255 H259 0.950 . S
H256 C252 0.950 . S
C257 C255 1.390 1_565 S
C257 C258 1.387 . S
C257 H260 0.950 . S
C258 C257 1.387 . S
C258 C261 1.387 . S
H259 C255 0.950 . S
H260 C257 0.950 . S
C261 C252 1.390 1_565 S
C261 H254 0.950 . S
C261 C258 1.387 . S
C262 C263 1.387 . S
C262 H266 0.950 . S
C262 C271 1.390 1_545 S
C263 C262 1.387 . S
C263 C265 1.387 . S
H264 C271 0.950 . S
C265 C263 1.387 . S
C265 C267 1.390 1_545 S
C265 H269 0.950 . S
H266 C262 0.950 . S
C267 C265 1.390 1_565 S
C267 C268 1.387 . S
C267 H270 0.950 . S
C268 C267 1.387 . S
C268 C271 1.387 . S
H269 C265 0.950 . S
H270 C267 0.950 . S
C271 C262 1.390 1_565 S
C271 H264 0.950 . S
C271 C268 1.387 . S
C113 C7 1.349 . S
C118 C77 1.347 . S
C123 C21 1.350 . S
C128 C91 1.348 . S
C133 C35 1.347 . S
C138 C105 1.348 . S
C143 C63 1.346 . S
C148 C49 1.347 . S
C153 C8 1.640 . S
C158 C59 1.606 . S
C163 C22 1.640 . S
C168 C73 1.615 . S
C173 C87 1.607 . S
C178 C36 1.641 . S
C183 C50 1.640 . S
C188 C101 1.615 . S
C193 C64 1.640 . S
C198 C3 1.610 . S
C203 C17 1.607 . S
C208 C78 1.641 . S
C213 C92 1.640 . S
C218 C31 1.615 . S
C223 C45 1.606 . S
C228 C106 1.641 . S
C233 C37 0.861 . S
C238 C9 0.861 . S
C243 C51 0.869 . S
C248 C23 0.869 . S
C253 C65 0.861 . S
C258 C93 0.861 . S
C263 C79 0.861 . S
C268 C107 0.861 . S
