# Generated by pormake.
# Topology fnr, (5)-cn, num edge types: 1
# Building blocks:
#     Node 0, Type 0, BuildingBlock: XOMCOT_clean_sbu_1, # of connection points: 5
#     Node 1, Type 0, BuildingBlock: XOMCOT_clean_sbu_1, # of connection points: 5
#     Node 2, Type 0, BuildingBlock: XOMCOT_clean_sbu_1, # of connection points: 5
#     Node 3, Type 0, BuildingBlock: XOMCOT_clean_sbu_1, # of connection points: 5
#     Node 4, Type 0, BuildingBlock: XOMCOT_clean_sbu_1, # of connection points: 5
#     Node 5, Type 0, BuildingBlock: XOMCOT_clean_sbu_1, # of connection points: 5
#     Node 6, Type 0, BuildingBlock: XOMCOT_clean_sbu_1, # of connection points: 5
#     Node 7, Type 0, BuildingBlock: XOMCOT_clean_sbu_1, # of connection points: 5
#     Node 8, Type 0, BuildingBlock: XOMCOT_clean_sbu_1, # of connection points: 5
#     Node 9, Type 0, BuildingBlock: XOMCOT_clean_sbu_1, # of connection points: 5
#     Node 10, Type 0, BuildingBlock: XOMCOT_clean_sbu_1, # of connection points: 5
#     Node 11, Type 0, BuildingBlock: XOMCOT_clean_sbu_1, # of connection points: 5
#     Edge 12, Type (0, 0), BuildingBlock: OJICUG_clean_linker_0, # of connection points: 2
#     Edge 13, Type (0, 0), BuildingBlock: OJICUG_clean_linker_0, # of connection points: 2
#     Edge 14, Type (0, 0), BuildingBlock: OJICUG_clean_linker_0, # of connection points: 2
#     Edge 15, Type (0, 0), BuildingBlock: OJICUG_clean_linker_0, # of connection points: 2
#     Edge 16, Type (0, 0), BuildingBlock: OJICUG_clean_linker_0, # of connection points: 2
#     Edge 17, Type (0, 0), BuildingBlock: OJICUG_clean_linker_0, # of connection points: 2
#     Edge 18, Type (0, 0), BuildingBlock: OJICUG_clean_linker_0, # of connection points: 2
#     Edge 19, Type (0, 0), BuildingBlock: OJICUG_clean_linker_0, # of connection points: 2
#     Edge 20, Type (0, 0), BuildingBlock: OJICUG_clean_linker_0, # of connection points: 2
#     Edge 21, Type (0, 0), BuildingBlock: OJICUG_clean_linker_0, # of connection points: 2
#     Edge 22, Type (0, 0), BuildingBlock: OJICUG_clean_linker_0, # of connection points: 2
#     Edge 23, Type (0, 0), BuildingBlock: OJICUG_clean_linker_0, # of connection points: 2
#     Edge 24, Type (0, 0), BuildingBlock: OJICUG_clean_linker_0, # of connection points: 2
#     Edge 25, Type (0, 0), BuildingBlock: OJICUG_clean_linker_0, # of connection points: 2
#     Edge 26, Type (0, 0), BuildingBlock: OJICUG_clean_linker_0, # of connection points: 2
#     Edge 27, Type (0, 0), BuildingBlock: OJICUG_clean_linker_0, # of connection points: 2
#     Edge 28, Type (0, 0), BuildingBlock: OJICUG_clean_linker_0, # of connection points: 2
#     Edge 29, Type (0, 0), BuildingBlock: OJICUG_clean_linker_0, # of connection points: 2
#     Edge 30, Type (0, 0), BuildingBlock: OJICUG_clean_linker_0, # of connection points: 2
#     Edge 31, Type (0, 0), BuildingBlock: OJICUG_clean_linker_0, # of connection points: 2
#     Edge 32, Type (0, 0), BuildingBlock: OJICUG_clean_linker_0, # of connection points: 2
#     Edge 33, Type (0, 0), BuildingBlock: OJICUG_clean_linker_0, # of connection points: 2
#     Edge 34, Type (0, 0), BuildingBlock: OJICUG_clean_linker_0, # of connection points: 2
#     Edge 35, Type (0, 0), BuildingBlock: OJICUG_clean_linker_0, # of connection points: 2
#     Edge 36, Type (0, 0), BuildingBlock: OJICUG_clean_linker_0, # of connection points: 2
#     Edge 37, Type (0, 0), BuildingBlock: OJICUG_clean_linker_0, # of connection points: 2
#     Edge 38, Type (0, 0), BuildingBlock: OJICUG_clean_linker_0, # of connection points: 2
#     Edge 39, Type (0, 0), BuildingBlock: OJICUG_clean_linker_0, # of connection points: 2
#     Edge 40, Type (0, 0), BuildingBlock: OJICUG_clean_linker_0, # of connection points: 2
#     Edge 41, Type (0, 0), BuildingBlock: OJICUG_clean_linker_0, # of connection points: 2
# Relax obj value: 0.283
# Max RMSD: 0.191
# Mean RMSD: 0.189
data_MOF--net-fnr--node1-XOMCOT_clean_sbu_1--edge1-OJICUG_clean_linker_0
_symmetry_space_group_name_H-M    P1
_symmetry_Int_Tables_number       1
_symmetry_cell_setting            triclinic
loop_
_symmetry_equiv_pos_as_xyz
'x, y, z'
_cell_length_a     30.303086
_cell_length_b     30.319325
_cell_length_c     39.604679
_cell_angle_alpha  89.977509
_cell_angle_beta   90.090048
_cell_angle_gamma 120.0177
loop_
_atom_site_label
_atom_site_type_symbol
_atom_site_fract_x
_atom_site_fract_y
_atom_site_fract_z
_atom_type_partial_charge
C0 C 0.4268 0.2466 0.09107 0.0
C1 C 0.39807 0.26784 0.08064 0.0
N2 N 0.37903 0.24965 0.04964 0.0
N3 N 0.42559 0.21474 0.06693 0.0
C4 C 0.39559 0.21672 0.04241 0.0
H5 H 0.45087 0.25741 0.11325 0.0
Co6 Co 0.47164 0.19121 0.06077 0.0
C7 C 0.39999 0.08188 0.04569 0.0
O8 O 0.41763 0.06894 0.07181 0.0
N9 N 0.51984 0.16819 0.0528 0.0
C10 C 0.56925 0.133 0.05654 0.0
C11 C 0.52748 0.13358 0.06951 0.0
C12 C 0.55757 0.18713 0.02931 0.0
N13 N 0.58861 0.16716 0.0313 0.0
O14 O 0.49152 0.22921 0.01948 0.0
H15 H 0.5063 0.11191 0.09126 0.0
H16 H 0.56367 0.21646 0.01147 0.0
O17 O 0.41796 0.12909 0.0385 0.0
C18 C 0.52517 0.27254 0.03108 0.0
O19 O 0.53882 0.27587 0.06291 0.0
N20 N 0.45637 0.16269 0.10425 0.0
C21 C 0.44351 0.15135 0.17407 0.0
C22 C 0.40113 0.12925 0.15236 0.0
C23 C 0.40835 0.13579 0.11741 0.0
C24 C 0.49771 0.18444 0.12515 0.0
C25 C 0.49228 0.17813 0.15998 0.0
H26 H 0.37541 0.12225 0.10112 0.0
H27 H 0.5352 0.20928 0.11485 0.0
H28 H 0.39007 0.19769 0.01841 0.0
H29 H 0.39566 0.29796 0.0936 0.0
H30 H 0.58623 0.11184 0.06682 0.0
H31 H 0.36276 0.10927 0.16238 0.0
H32 H 0.52583 0.19738 0.17585 0.0
C33 C 0.18073 0.3853 0.60351 0.0
C34 C 0.13183 0.35583 0.59169 0.0
N35 N 0.13392 0.34581 0.55877 0.0
N36 N 0.21401 0.3934 0.57842 0.0
C37 C 0.18432 0.36879 0.55143 0.0
H38 H 0.1912 0.40211 0.62839 0.0
Co39 Co 0.28394 0.44218 0.57977 0.0
C40 C 0.33528 0.38546 0.55904 0.0
O41 O 0.35968 0.39916 0.58791 0.0
N42 N 0.35537 0.49395 0.58015 0.0
C43 C 0.43807 0.54414 0.59218 0.0
C44 C 0.39344 0.50165 0.60165 0.0
C45 C 0.37884 0.53317 0.55786 0.0
N46 N 0.42879 0.56412 0.56465 0.0
O47 O 0.27277 0.47383 0.54131 0.0
H48 H 0.38966 0.47853 0.62339 0.0
H49 H 0.35997 0.53994 0.53704 0.0
O50 O 0.30173 0.39836 0.55206 0.0
C51 C 0.26047 0.50321 0.55675 0.0
O52 O 0.26318 0.50545 0.58987 0.0
N53 N 0.28907 0.4141 0.62093 0.0
C54 C 0.26072 0.37737 0.68639 0.0
C55 C 0.25437 0.34388 0.66004 0.0
C56 C 0.26839 0.36306 0.62712 0.0
C57 C 0.29728 0.44696 0.64682 0.0
C58 C 0.28422 0.42954 0.67973 0.0
H59 H 0.25786 0.33649 0.60636 0.0
H60 H 0.31009 0.48654 0.64153 0.0
H61 H 0.19937 0.37105 0.52633 0.0
H62 H 0.0974 0.34419 0.60607 0.0
H63 H 0.47398 0.56057 0.60563 0.0
H64 H 0.23513 0.30317 0.66435 0.0
H65 H 0.28892 0.45629 0.69949 0.0
C66 C 0.81476 0.19253 0.08857 0.0
C67 C 0.79339 0.14233 0.07867 0.0
N68 N 0.81356 0.14064 0.04865 0.0
N69 N 0.84871 0.22247 0.0651 0.0
C70 C 0.84778 0.18982 0.04153 0.0
H71 H 0.80271 0.20652 0.10971 0.0
Co72 Co 0.87385 0.29212 0.05758 0.0
C73 C 0.98344 0.32394 0.04589 0.0
O74 O 0.99666 0.35108 0.07367 0.0
N75 N 0.89876 0.36319 0.04802 0.0
C76 C 0.93858 0.4482 0.04937 0.0
C77 C 0.93757 0.40552 0.06213 0.0
C78 C 0.8778 0.38209 0.02613 0.0
N79 N 0.90053 0.43349 0.02676 0.0
O80 O 0.83693 0.27306 0.0157 0.0
H81 H 0.96153 0.40599 0.08244 0.0
H82 H 0.84518 0.35872 0.01057 0.0
O83 O 0.93639 0.29873 0.03702 0.0
C84 C 0.79364 0.2643 0.02688 0.0
O85 O 0.79061 0.27676 0.05824 0.0
N86 N 0.90056 0.30662 0.10175 0.0
C87 C 0.90451 0.30618 0.1723 0.0
C88 C 0.9252 0.28198 0.153 0.0
C89 C 0.92239 0.28221 0.11767 0.0
C90 C 0.88125 0.33098 0.12027 0.0
C91 C 0.88431 0.33265 0.1553 0.0
H92 H 0.93428 0.2597 0.10323 0.0
H93 H 0.86028 0.34667 0.10798 0.0
H94 H 0.86848 0.20266 0.01803 0.0
H95 H 0.76183 0.11027 0.09105 0.0
H96 H 0.96301 0.48671 0.05826 0.0
H97 H 0.94008 0.26001 0.16499 0.0
H98 H 0.86822 0.35222 0.16895 0.0
C99 C 0.67738 0.8063 0.60417 0.0
C100 C 0.70679 0.78669 0.59266 0.0
N101 N 0.71735 0.79898 0.55981 0.0
N102 N 0.66986 0.83174 0.57894 0.0
C103 C 0.69474 0.82665 0.55219 0.0
H104 H 0.66025 0.79998 0.62892 0.0
Co105 Co 0.62154 0.85341 0.57982 0.0
C106 C 0.67904 0.96113 0.55842 0.0
O107 O 0.66539 0.97226 0.5871 0.0
N108 N 0.57017 0.87359 0.57974 0.0
C109 C 0.52017 0.90637 0.59136 0.0
C110 C 0.56269 0.90431 0.60097 0.0
C111 C 0.53085 0.85763 0.55745 0.0
N112 N 0.49996 0.87673 0.56401 0.0
O113 O 0.58954 0.81006 0.54161 0.0
H114 H 0.58591 0.92386 0.62265 0.0
H115 H 0.52389 0.83167 0.53683 0.0
O116 O 0.66577 0.91452 0.55175 0.0
C117 C 0.5598 0.7687 0.55727 0.0
O118 O 0.55745 0.76971 0.59036 0.0
N119 N 0.64993 0.88712 0.62081 0.0
C120 C 0.68693 0.89535 0.68625 0.0
C121 C 0.72043 0.92209 0.65982 0.0
C122 C 0.7011 0.91704 0.62693 0.0
C123 C 0.61707 0.86301 0.64678 0.0
C124 C 0.63464 0.86732 0.67968 0.0
H125 H 0.7276 0.93264 0.60613 0.0
H126 H 0.57735 0.83655 0.64157 0.0
H127 H 0.69297 0.83965 0.52704 0.0
H128 H 0.71803 0.76369 0.60719 0.0
H129 H 0.50381 0.92598 0.60466 0.0
H130 H 0.76121 0.94303 0.66406 0.0
H131 H 0.60788 0.84557 0.6995 0.0
C132 C 0.87652 0.63727 0.08994 0.0
C133 C 0.92666 0.66598 0.07989 0.0
N134 N 0.92809 0.68748 0.04975 0.0
N135 N 0.84638 0.64097 0.06641 0.0
C136 C 0.87885 0.67251 0.04272 0.0
H137 H 0.8627 0.61132 0.11114 0.0
Co138 Co 0.77685 0.59578 0.05866 0.0
C139 C 0.74512 0.67383 0.04702 0.0
O140 O 0.71899 0.66108 0.0752 0.0
N141 N 0.70614 0.5491 0.04887 0.0
C142 C 0.6211 0.50387 0.04924 0.0
C143 C 0.66345 0.5464 0.06159 0.0
C144 C 0.68787 0.50786 0.02828 0.0
N145 N 0.63645 0.47919 0.02831 0.0
O146 O 0.79626 0.57854 0.01669 0.0
H147 H 0.66249 0.57107 0.08078 0.0
H148 H 0.71176 0.49772 0.01417 0.0
O149 O 0.76958 0.65129 0.0381 0.0
C150 C 0.80709 0.54538 0.02774 0.0
O151 O 0.79644 0.53042 0.05932 0.0
N152 N 0.76171 0.60733 0.1028 0.0
C153 C 0.7593 0.61065 0.17331 0.0
C154 C 0.78476 0.6558 0.15436 0.0
C155 C 0.78599 0.65329 0.11907 0.0
C156 C 0.73631 0.5634 0.121 0.0
C157 C 0.73323 0.56428 0.15596 0.0
H158 H 0.80923 0.68789 0.10496 0.0
H159 H 0.72081 0.52688 0.10857 0.0
H160 H 0.86582 0.68003 0.01915 0.0
H161 H 0.95881 0.66651 0.09222 0.0
H162 H 0.58233 0.49031 0.05734 0.0
H163 H 0.80651 0.69244 0.16666 0.0
H164 H 0.71283 0.52844 0.16936 0.0
C165 C 0.2585 0.88126 0.60436 0.0
C166 C 0.27824 0.93036 0.59298 0.0
N167 N 0.2652 0.92883 0.56028 0.0
N168 N 0.2323 0.84848 0.57921 0.0
C169 C 0.23702 0.87862 0.55262 0.0
H170 H 0.26529 0.87024 0.62894 0.0
Co171 Co 0.21041 0.7785 0.57989 0.0
C172 C 0.10246 0.72853 0.55877 0.0
O173 O 0.09151 0.70389 0.58752 0.0
N174 N 0.19002 0.70694 0.5796 0.0
C175 C 0.15694 0.62404 0.59097 0.0
C176 C 0.15927 0.66863 0.60076 0.0
C177 C 0.20575 0.68365 0.55718 0.0
N178 N 0.18646 0.6336 0.56358 0.0
O179 O 0.25345 0.79001 0.54155 0.0
H180 H 0.13988 0.67222 0.62251 0.0
H181 H 0.23167 0.70273 0.53657 0.0
O182 O 0.14907 0.76179 0.55197 0.0
C183 C 0.2949 0.80131 0.55707 0.0
O184 O 0.29409 0.79745 0.59013 0.0
N185 N 0.17705 0.77305 0.62099 0.0
C186 C 0.16966 0.80187 0.68651 0.0
C187 C 0.14282 0.80887 0.6602 0.0
C188 C 0.14744 0.79456 0.62726 0.0
C189 C 0.20122 0.76405 0.64685 0.0
C190 C 0.19733 0.77734 0.67979 0.0
H191 H 0.13181 0.80565 0.60654 0.0
H192 H 0.22747 0.7506 0.64152 0.0
H193 H 0.22339 0.86401 0.52751 0.0
H194 H 0.30184 0.96453 0.60744 0.0
H195 H 0.13726 0.58798 0.60416 0.0
H196 H 0.12216 0.82893 0.66455 0.0
H197 H 0.21916 0.77215 0.69952 0.0
C198 C 0.89757 0.57736 0.39091 0.0
C199 C 0.90422 0.53572 0.39176 0.0
N200 N 0.87722 0.50579 0.41782 0.0
N201 N 0.86649 0.57389 0.41631 0.0
C202 C 0.8545 0.5297 0.4323 0.0
H203 H 0.91559 0.60911 0.37359 0.0
Co204 Co 0.85321 0.6258 0.42832 0.0
C205 C 0.74206 0.56911 0.43975 0.0
O206 O 0.74094 0.60639 0.42354 0.0
N207 N 0.84257 0.68039 0.44195 0.0
C208 C 0.85924 0.76014 0.45037 0.0
C209 C 0.87379 0.72979 0.4337 0.0
C210 C 0.81168 0.6827 0.46591 0.0
N211 N 0.81976 0.73047 0.47056 0.0
O212 O 0.88913 0.63438 0.47001 0.0
H213 H 0.9075 0.74388 0.41826 0.0
H214 H 0.78457 0.6502 0.4804 0.0
O215 O 0.78542 0.57292 0.44633 0.0
C216 C 0.93594 0.66611 0.46329 0.0
O217 O 0.94751 0.68341 0.43223 0.0
N218 N 0.82402 0.62086 0.3848 0.0
C219 C 0.79283 0.61579 0.31763 0.0
C220 C 0.77184 0.57198 0.33786 0.0
C221 C 0.7886 0.57514 0.37113 0.0
C222 C 0.84619 0.66314 0.36479 0.0
C223 C 0.83037 0.6618 0.33155 0.0
H224 H 0.77422 0.54036 0.38552 0.0
H225 H 0.87857 0.69761 0.37352 0.0
H226 H 0.83189 0.51673 0.4551 0.0
H227 H 0.92801 0.52847 0.37494 0.0
H228 H 0.87813 0.80126 0.449 0.0
H229 H 0.74366 0.53531 0.32782 0.0
H230 H 0.84956 0.69595 0.3163 0.0
C231 C 0.13722 0.75552 0.91185 0.0
C232 C 0.08931 0.73708 0.92517 0.0
N233 N 0.0939 0.75659 0.95645 0.0
N234 N 0.1721 0.78708 0.93438 0.0
C235 C 0.14467 0.78675 0.96138 0.0
H236 H 0.14626 0.7454 0.88768 0.0
Co237 Co 0.24286 0.81632 0.93048 0.0
C238 C 0.27514 0.92216 0.9527 0.0
O239 O 0.28542 0.93779 0.92135 0.0
N240 N 0.31585 0.84627 0.92845 0.0
C241 C 0.39919 0.89957 0.92095 0.0
C242 C 0.35088 0.88891 0.91231 0.0
C243 C 0.34473 0.83234 0.94693 0.0
N244 N 0.39527 0.86395 0.9429 0.0
O245 O 0.24036 0.77482 0.96784 0.0
H246 H 0.3425 0.91136 0.89511 0.0
H247 H 0.32952 0.80033 0.96393 0.0
O248 O 0.25531 0.87456 0.95965 0.0
C249 C 0.23054 0.7346 0.95125 0.0
O250 O 0.22869 0.73562 0.91812 0.0
N251 N 0.24063 0.84748 0.88961 0.0
C252 C 0.21695 0.85789 0.82301 0.0
C253 C 0.19565 0.87102 0.84982 0.0
C254 C 0.20805 0.86554 0.88313 0.0
C255 C 0.26062 0.83387 0.86348 0.0
C256 C 0.25067 0.8403 0.83017 0.0
H257 H 0.18895 0.87258 0.90372 0.0
H258 H 0.28198 0.81473 0.86837 0.0
H259 H 0.16182 0.80718 0.98451 0.0
H260 H 0.05399 0.70951 0.91325 0.0
H261 H 0.43445 0.93054 0.91114 0.0
H262 H 0.16827 0.88335 0.84511 0.0
H263 H 0.26624 0.82787 0.81011 0.0
C264 C 0.48489 0.33099 0.39054 0.0
C265 C 0.52677 0.3792 0.39155 0.0
N266 N 0.55664 0.38173 0.41759 0.0
N267 N 0.48817 0.30309 0.41586 0.0
C268 C 0.53247 0.33501 0.43191 0.0
H269 H 0.45301 0.31762 0.3733 0.0
Co270 Co 0.43607 0.23833 0.42863 0.0
C271 C 0.49291 0.18361 0.43828 0.0
O272 O 0.45527 0.14534 0.42216 0.0
N273 N 0.38155 0.17352 0.44324 0.0
C274 C 0.30177 0.11175 0.45364 0.0
C275 C 0.33174 0.15667 0.43691 0.0
C276 C 0.38007 0.1395 0.46626 0.0
N277 N 0.33219 0.10061 0.47204 0.0
O278 O 0.42978 0.26657 0.47055 0.0
H279 H 0.31731 0.17714 0.42265 0.0
H280 H 0.41321 0.14376 0.47942 0.0
O281 O 0.48926 0.22303 0.44538 0.0
C282 C 0.39843 0.28215 0.46381 0.0
O283 O 0.38099 0.27652 0.43277 0.0
N284 N 0.43817 0.21317 0.38487 0.0
C285 C 0.43666 0.18425 0.3174 0.0
C286 C 0.48237 0.20766 0.33594 0.0
C287 C 0.48243 0.22251 0.36944 0.0
C288 C 0.39418 0.19265 0.36655 0.0
C289 C 0.39218 0.17652 0.33341 0.0
H290 H 0.51844 0.24302 0.38259 0.0
H291 H 0.36061 0.19093 0.37666 0.0
H292 H 0.54521 0.32518 0.45478 0.0
H293 H 0.53411 0.41051 0.37493 0.0
H294 H 0.26053 0.09038 0.45361 0.0
H295 H 0.51818 0.21645 0.32434 0.0
H296 H 0.35601 0.15933 0.32024 0.0
C297 C 0.31057 0.39153 0.91213 0.0
C298 C 0.32896 0.36195 0.92536 0.0
N299 N 0.30959 0.34692 0.95664 0.0
N300 N 0.2792 0.3949 0.93472 0.0
C301 C 0.27956 0.36765 0.96167 0.0
H302 H 0.32063 0.41076 0.88798 0.0
Co303 Co 0.25026 0.43669 0.9306 0.0
C304 C 0.1439 0.36445 0.95216 0.0
O305 O 0.12882 0.36145 0.9208 0.0
N306 N 0.22072 0.48015 0.9282 0.0
C307 C 0.1688 0.51153 0.9193 0.0
C308 C 0.17945 0.4739 0.91078 0.0
C309 C 0.2339 0.52227 0.94727 0.0
N310 N 0.20308 0.54195 0.9424 0.0
O311 O 0.29166 0.4756 0.96807 0.0
H312 H 0.15792 0.44406 0.89272 0.0
H313 H 0.26484 0.53811 0.9652 0.0
O314 O 0.19156 0.39081 0.95954 0.0
C315 C 0.33194 0.50607 0.95156 0.0
O316 O 0.33105 0.50311 0.91844 0.0
N317 N 0.21933 0.4034 0.88971 0.0
C318 C 0.20816 0.36872 0.82329 0.0
C319 C 0.19397 0.3343 0.85022 0.0
C320 C 0.19991 0.35249 0.88346 0.0
C321 C 0.23426 0.43698 0.86348 0.0
C322 C 0.22749 0.42035 0.83024 0.0
H323 H 0.19199 0.32633 0.90419 0.0
H324 H 0.25436 0.4775 0.86831 0.0
H325 H 0.25924 0.36433 0.98483 0.0
H326 H 0.35642 0.35421 0.91334 0.0
H327 H 0.13886 0.51677 0.90859 0.0
H328 H 0.18033 0.2943 0.84564 0.0
H329 H 0.2407 0.44824 0.81007 0.0
C330 C 0.73038 0.16266 0.39084 0.0
C331 C 0.68201 0.15584 0.39201 0.0
N332 N 0.67976 0.18388 0.41764 0.0
N333 N 0.75872 0.19487 0.41562 0.0
C334 C 0.72688 0.20738 0.43156 0.0
H335 H 0.74369 0.144 0.37376 0.0
Co336 Co 0.82435 0.20872 0.42711 0.0
C337 C 0.87883 0.31991 0.43809 0.0
O338 O 0.91689 0.32086 0.42154 0.0
N339 N 0.89012 0.22001 0.44025 0.0
C340 C 0.95414 0.20454 0.4482 0.0
C341 C 0.90898 0.18951 0.43163 0.0
C342 C 0.92325 0.25096 0.46429 0.0
N343 N 0.96348 0.2436 0.46869 0.0
O344 O 0.79808 0.17349 0.46908 0.0
H345 H 0.88964 0.15583 0.41611 0.0
H346 H 0.91742 0.27758 0.47902 0.0
O347 O 0.83939 0.27666 0.44491 0.0
C348 C 0.78345 0.1267 0.46264 0.0
O349 O 0.78917 0.11479 0.43168 0.0
N350 N 0.84745 0.23721 0.38333 0.0
C351 C 0.87292 0.26809 0.31611 0.0
C352 C 0.85027 0.28914 0.33643 0.0
C353 C 0.83699 0.27253 0.36974 0.0
C354 C 0.86694 0.21464 0.36316 0.0
C355 C 0.88116 0.23035 0.3299 0.0
H356 H 0.81688 0.28711 0.38425 0.0
H357 H 0.86884 0.18215 0.37183 0.0
H358 H 0.73716 0.23097 0.45394 0.0
H359 H 0.65049 0.13128 0.37568 0.0
H360 H 0.97685 0.18617 0.4466 0.0
H361 H 0.84187 0.31742 0.32648 0.0
H362 H 0.89589 0.21105 0.31455 0.0
C363 C 0.67465 0.92946 0.91137 0.0
C364 C 0.7039 0.97751 0.92456 0.0
N365 N 0.71858 0.97338 0.95603 0.0
N366 N 0.67121 0.89489 0.93417 0.0
C367 C 0.69803 0.92269 0.96121 0.0
H368 H 0.65565 0.92011 0.88711 0.0
Co369 Co 0.62958 0.82408 0.93035 0.0
C370 C 0.70251 0.79087 0.95198 0.0
O371 O 0.70529 0.77845 0.92069 0.0
N372 N 0.58626 0.751 0.92829 0.0
C373 C 0.55501 0.66767 0.91976 0.0
C374 C 0.5926 0.71593 0.91111 0.0
C375 C 0.54412 0.72212 0.94735 0.0
N376 N 0.52452 0.6716 0.9427 0.0
O377 O 0.59109 0.82667 0.9679 0.0
H378 H 0.62242 0.72419 0.89309 0.0
H379 H 0.52821 0.73729 0.96509 0.0
O380 O 0.67596 0.81194 0.95923 0.0
C381 C 0.56047 0.83638 0.95145 0.0
O382 O 0.56304 0.83823 0.91831 0.0
N383 N 0.6625 0.82622 0.8894 0.0
C384 C 0.69645 0.84974 0.82286 0.0
C385 C 0.73114 0.87022 0.84968 0.0
C386 C 0.71333 0.85792 0.88298 0.0
C387 C 0.62866 0.80715 0.86328 0.0
C388 C 0.64493 0.81703 0.82998 0.0
H389 H 0.73969 0.87641 0.90361 0.0
H390 H 0.58816 0.78647 0.86824 0.0
H391 H 0.70111 0.90587 0.98455 0.0
H392 H 0.71162 1.01262 0.9124 0.0
H393 H 0.54981 0.63244 0.90923 0.0
H394 H 0.77105 0.89687 0.84498 0.0
H395 H 0.61681 0.80212 0.80991 0.0
C396 C 0.7193 0.26292 0.0021 0.0
C397 C 0.74542 0.23651 0.00843 0.0
H398 H 0.6487 0.26187 0.00467 0.0
C399 C 0.71712 0.18358 0.01321 0.0
H400 H 0.74031 0.30392 0.9989 0.0
C401 C 0.66413 0.15917 0.01727 0.0
C402 C 0.63874 0.1874 0.01644 0.0
H403 H 0.73638 0.16239 0.01855 0.0
H404 H 0.64388 0.11927 0.02412 0.0
C405 C 0.66644 0.23866 0.00604 0.0
C406 C 0.44448 0.64624 0.54098 0.0
C407 C 0.4628 0.61353 0.55032 0.0
H408 H 0.46293 0.72371 0.53397 0.0
C409 C 0.51572 0.63281 0.55059 0.0
H410 H 0.404 0.63265 0.54065 0.0
C411 C 0.54946 0.68488 0.54593 0.0
C412 C 0.53084 0.71855 0.54126 0.0
H413 H 0.53091 0.60833 0.55721 0.0
H414 H 0.58976 0.69957 0.55036 0.0
C415 C 0.4783 0.69845 0.53667 0.0
C416 C 0.90979 0.51812 0.01448 0.0
C417 C 0.88049 0.46453 0.01339 0.0
H418 H 0.90848 0.58803 0.01763 0.0
C419 C 0.82875 0.44219 0.00409 0.0
H420 H 0.95006 0.53704 0.0203 0.0
C421 C 0.80544 0.47183 0.00154 0.0
C422 C 0.83319 0.5242 0.00825 0.0
H423 H 0.80457 0.40137 0.00233 0.0
H424 H 0.76435 0.45269 0.99904 0.0
C425 C 0.88624 0.5477 0.01199 0.0
C426 C 0.43061 0.89413 0.55006 0.0
C427 C 0.4503 0.86086 0.5498 0.0
H428 H 0.36342 0.90067 0.54995 0.0
C429 C 0.41779 0.80972 0.54059 0.0
H430 H 0.45489 0.93386 0.55658 0.0
C431 C 0.36546 0.79087 0.5364 0.0
C432 C 0.34499 0.82294 0.54098 0.0
H433 H 0.43166 0.78308 0.54026 0.0
H434 H 0.34041 0.75016 0.53381 0.0
C435 C 0.37839 0.87533 0.54552 0.0
C436 C 0.55217 0.40267 0.01672 0.0
C437 C 0.60584 0.42742 0.01597 0.0
H438 H 0.48253 0.33111 0.02011 0.0
C439 C 0.62872 0.39813 0.00787 0.0
H440 H 0.53282 0.42381 0.02164 0.0
C441 C 0.59952 0.34512 0.00603 0.0
C442 C 0.54701 0.32028 0.01209 0.0
H443 H 0.66958 0.415 0.00642 0.0
H444 H 0.61898 0.32343 0.00435 0.0
C445 C 0.52301 0.34945 0.01491 0.0
C446 C 0.18699 0.51328 0.54465 0.0
C447 C 0.23939 0.53202 0.54041 0.0
H448 H 0.12872 0.5316 0.55553 0.0
C449 C 0.27181 0.58457 0.53602 0.0
H450 H 0.16138 0.47296 0.54889 0.0
C451 C 0.25326 0.61826 0.54021 0.0
C452 C 0.20207 0.59979 0.54922 0.0
H453 H 0.31252 0.60001 0.53364 0.0
H454 H 0.28013 0.65873 0.5401 0.0
C455 C 0.16849 0.5469 0.54918 0.0
C456 C 0.83226 0.41579 0.43758 0.0
C457 C 0.87756 0.46063 0.429 0.0
H458 H 0.79666 0.33524 0.44741 0.0
C459 C 0.92338 0.45975 0.42869 0.0
H460 H 0.79642 0.41556 0.43798 0.0
C461 C 0.92378 0.4146 0.43464 0.0
C462 C 0.87821 0.36863 0.44058 0.0
H463 H 0.95891 0.49392 0.42273 0.0
H464 H 0.9598 0.41532 0.43279 0.0
C465 C 0.8325 0.36996 0.44314 0.0
C466 C 0.4859 0.90046 0.95911 0.0
C467 C 0.43648 0.85815 0.95634 0.0
H468 H 0.56579 0.92639 0.96218 0.0
C469 C 0.42936 0.80945 0.96314 0.0
H470 H 0.49262 0.9386 0.95485 0.0
C471 C 0.47133 0.8027 0.96824 0.0
C472 C 0.52104 0.84445 0.9667 0.0
H473 H 0.39198 0.77598 0.96124 0.0
H474 H 0.46506 0.76432 0.96918 0.0
C475 C 0.52778 0.89363 0.96423 0.0
C476 C 0.69238 0.4726 0.44353 0.0
C477 C 0.69344 0.51957 0.44185 0.0
H478 H 0.6471 0.3911 0.43718 0.0
C479 C 0.64731 0.51905 0.43627 0.0
H480 H 0.72723 0.47158 0.44749 0.0
C481 C 0.60228 0.47356 0.42977 0.0
C482 C 0.60169 0.42704 0.42919 0.0
H483 H 0.6464 0.55429 0.43511 0.0
H484 H 0.56797 0.47485 0.42409 0.0
C485 C 0.64667 0.4266 0.43745 0.0
C486 C 0.26387 0.67886 0.96845 0.0
C487 C 0.22217 0.68685 0.96634 0.0
H488 H 0.29064 0.62619 0.96193 0.0
C489 C 0.17302 0.64443 0.9633 0.0
H490 H 0.30226 0.71094 0.96986 0.0
C491 C 0.16626 0.59578 0.95817 0.0
C492 C 0.20861 0.58869 0.956 0.0
H493 H 0.14032 0.64971 0.96083 0.0
H494 H 0.12822 0.56442 0.9534 0.0
C495 C 0.25718 0.63016 0.96339 0.0
C496 C 0.54232 0.13827 0.43515 0.0
C497 C 0.54222 0.18409 0.44056 0.0
H498 H 0.5861 0.10256 0.42369 0.0
C499 C 0.58942 0.22975 0.44254 0.0
H500 H 0.50688 0.1023 0.43378 0.0
C501 C 0.63531 0.22965 0.43693 0.0
C502 C 0.63453 0.18403 0.4289 0.0
H503 H 0.59074 0.26576 0.4464 0.0
H504 H 0.671 0.26542 0.43686 0.0
C505 C 0.58771 0.13832 0.42919 0.0
C506 C 0.42214 0.53908 0.96395 0.0
C507 C 0.37961 0.54566 0.96672 0.0
H508 H 0.50222 0.57444 0.95424 0.0
C509 C 0.38748 0.5953 0.96851 0.0
H510 H 0.41695 0.50113 0.9617 0.0
C511 C 0.43617 0.63738 0.96343 0.0
C512 C 0.47776 0.6304 0.95632 0.0
H513 H 0.35531 0.60146 0.96968 0.0
H514 H 0.44006 0.67475 0.96174 0.0
C515 C 0.47078 0.58103 0.95879 0.0
C516 C 0.46764 0.15414 0.26824 0.0
C517 C 0.43575 0.17158 0.28095 0.0
H518 H 0.4945 0.13317 0.2244 0.0
C519 C 0.40379 0.1784 0.25827 0.0
H520 H 0.49217 0.14771 0.28496 0.0
C521 C 0.40438 0.16902 0.22384 0.0
C522 C 0.43742 0.15326 0.21107 0.0
H523 H 0.37957 0.19293 0.2668 0.0
H524 H 0.38077 0.1766 0.20698 0.0
C525 C 0.46865 0.14534 0.23364 0.0
C526 C 0.19743 0.36811 0.7293 0.0
C527 C 0.23689 0.35919 0.71976 0.0
H528 H 0.15644 0.37692 0.77025 0.0
C529 C 0.25914 0.34268 0.74407 0.0
H530 H 0.17996 0.38108 0.71085 0.0
C531 C 0.24528 0.33985 0.77812 0.0
C532 C 0.20935 0.35378 0.78798 0.0
H533 H 0.29001 0.33618 0.7372 0.0
H534 H 0.26599 0.33148 0.79698 0.0
C535 C 0.18385 0.36556 0.76315 0.0
C536 C 0.84618 0.28367 0.25976 0.0
C537 C 0.88313 0.28134 0.27982 0.0
H538 H 0.82316 0.29163 0.21038 0.0
C539 C 0.92815 0.28858 0.26452 0.0
H540 H 0.81059 0.27704 0.27064 0.0
C541 C 0.93582 0.29762 0.22975 0.0
C542 C 0.89845 0.29928 0.20958 0.0
H543 H 0.95737 0.28712 0.27945 0.0
H544 H 0.97093 0.30323 0.21869 0.0
C545 C 0.85357 0.2922 0.22511 0.0
C546 C 0.69862 0.8291 0.7625 0.0
C547 C 0.71092 0.86617 0.78754 0.0
H548 H 0.68257 0.81031 0.71016 0.0
C549 C 0.72512 0.91621 0.77795 0.0
H550 H 0.6871 0.79021 0.76938 0.0
C551 C 0.72208 0.92766 0.744 0.0
C552 C 0.70512 0.88916 0.71951 0.0
H553 H 0.7339 0.94514 0.79697 0.0
H554 H 0.72884 0.9652 0.73737 0.0
C555 C 0.69589 0.84055 0.72875 0.0
C556 C 0.77084 0.57283 0.22657 0.0
C557 C 0.76454 0.6109 0.2107 0.0
H558 H 0.78448 0.54454 0.27247 0.0
C559 C 0.76556 0.64973 0.23068 0.0
H560 H 0.7718 0.54311 0.21201 0.0
C561 C 0.7734 0.65073 0.2656 0.0
C562 C 0.78011 0.61279 0.28122 0.0
H563 H 0.76047 0.6794 0.21935 0.0
H564 H 0.77452 0.68133 0.28038 0.0
C565 C 0.77823 0.57362 0.26134 0.0
C566 C 0.23713 0.88 0.76249 0.0
C567 C 0.20025 0.85556 0.78767 0.0
H568 H 0.25533 0.88229 0.7101 0.0
C569 C 0.15 0.81986 0.77826 0.0
H570 H 0.27615 0.90731 0.76922 0.0
C571 C 0.13813 0.80517 0.74437 0.0
C572 C 0.17642 0.82638 0.71975 0.0
H573 H 0.12119 0.79999 0.79738 0.0
H574 H 0.1004 0.77452 0.73788 0.0
C575 C 0.22526 0.8656 0.7288 0.0
C576 C 0.30906 0.95014 0.01131 0.0
C577 C 0.29736 0.96158 0.9794 0.0
H578 H 0.35072 0.97927 0.05727 0.0
C579 C 0.31467 1.01291 0.97114 0.0
H580 H 0.2965 0.91111 0.01842 0.0
C581 C 0.34611 0.05216 0.99327 0.0
C582 C 0.36101 0.04089 0.02412 0.0
H583 H 0.30597 1.02302 0.94679 0.0
H584 H 0.36056 0.09128 0.98551 0.0
C585 C 0.34063 0.9894 0.03342 0.0
C586 C 0.32859 0.34479 0.5024 0.0
C587 C 0.34896 0.35647 0.53508 0.0
H588 H 0.32822 0.31229 0.45452 0.0
C589 C 0.38484 0.34192 0.54465 0.0
H590 H 0.30102 0.35534 0.49418 0.0
C591 C 0.40068 0.31721 0.52192 0.0
C592 C 0.38108 0.30651 0.48902 0.0
H593 H 0.40136 0.35013 0.56972 0.0
H594 H 0.42868 0.30715 0.52997 0.0
C595 C 0.34448 0.32016 0.47967 0.0
C596 C 0.07586 0.3558 0.03392 0.0
C597 C 1.02437 0.32683 0.02385 0.0
H598 H 0.15436 0.38991 0.01937 0.0
C599 C 1.01319 0.30418 0.9918 0.0
H600 H 0.08593 0.37334 0.05866 0.0
C601 C 0.05257 0.31342 0.96944 0.0
C602 C 0.104 0.34554 0.97859 0.0
H603 H 0.97409 0.2812 0.98338 0.0
H604 H 0.04252 0.29731 0.94429 0.0
C605 C 0.11527 0.36504 0.01153 0.0
C606 C 0.72296 0.05406 0.54354 0.0
C607 C 0.70848 1.00354 0.53434 0.0
H608 H 0.75788 0.13249 0.52844 0.0
C609 C 0.72073 0.99459 0.50192 0.0
H610 H 0.71435 0.06261 0.56839 0.0
C611 C 0.74575 0.03491 0.47907 0.0
C612 C 0.75921 0.08522 0.48804 0.0
H613 H 0.71028 0.95639 0.494 0.0
H614 H 0.754 0.02635 0.45411 0.0
C615 C 0.74801 0.09438 0.52069 0.0
C616 C 0.7131 0.73404 0.03443 0.0
C617 C 0.74173 0.71116 0.02454 0.0
H618 H 0.67873 0.77802 0.01944 0.0
C619 C 0.76354 0.72154 0.99226 0.0
H620 H 0.69622 0.72742 0.05933 0.0
C621 C 0.75378 0.75095 0.96955 0.0
C622 C 0.72195 0.77059 0.97857 0.0
H623 H 0.78625 0.70511 0.98396 0.0
H624 H 0.76924 0.75617 0.94427 0.0
C625 C 0.70332 0.76348 0.01168 0.0
C626 C 1.0281 0.71987 0.47923 0.0
C627 C 0.97774 0.68356 0.48853 0.0
H628 H 0.10686 0.76286 0.49385 0.0
C629 C 0.96878 0.66412 0.52144 0.0
H630 H 1.03652 0.73596 0.45405 0.0
C631 C 1.00931 0.67978 0.54423 0.0
C632 C 0.05985 0.7153 0.53472 0.0
H633 H 0.93064 0.63634 0.52946 0.0
H634 H 1.00089 0.66334 0.56931 0.0
C635 C 0.06863 0.73557 0.50203 0.0
C636 C 0.8008 0.10549 0.9905 0.0
C637 C 0.79381 0.09771 0.02561 0.0
H638 H 0.7836 0.07249 0.94124 0.0
C639 C 0.76417 0.04738 0.03745 0.0
H640 H 0.82275 0.14329 0.98 0.0
C641 C 0.74067 1.00638 0.01482 0.0
C642 C 0.74626 1.01462 0.97972 0.0
H643 H 0.75832 0.03965 0.06423 0.0
H644 H 0.71679 0.96851 0.02488 0.0
C645 C 0.77755 0.06462 0.96799 0.0
C646 C 0.79233 0.7924 0.48619 0.0
C647 C 0.7933 0.74724 0.49295 0.0
H648 H 0.76781 0.84432 0.50206 0.0
C649 C 0.76813 0.71914 0.52191 0.0
H650 H 0.81059 0.8147 0.46388 0.0
C651 C 0.74328 0.73604 0.54368 0.0
C652 C 0.74272 0.78144 0.53707 0.0
H653 H 0.76816 0.68441 0.52811 0.0
H654 H 0.72405 0.71309 0.56556 0.0
C655 C 0.76731 0.8092 0.5079 0.0
C656 C 0.96234 0.70807 0.99137 0.0
C657 C 0.97067 0.70992 0.02647 0.0
H658 H 0.99457 0.72224 0.94194 0.0
C659 C 1.02116 0.73079 0.03811 0.0
H660 H 0.92437 0.69197 0.98102 0.0
C661 C 0.06181 0.74747 0.01531 0.0
C662 C 0.05301 0.74377 0.98024 0.0
H663 H 1.02929 0.73345 0.06488 0.0
H664 H 0.09982 0.76164 0.02525 0.0
C665 C 1.00285 0.72486 0.96868 0.0
C666 C 0.25363 0.96933 0.50921 0.0
C667 C 0.28251 0.97184 0.53767 0.0
H668 H 0.24685 1.00797 0.46602 0.0
C669 C 0.32872 1.01729 0.54375 0.0
H670 H 0.21789 0.93508 0.5038 0.0
C671 C 0.3453 0.05926 0.52219 0.0
C672 C 0.316 0.05704 0.49402 0.0
H673 H 0.35249 1.02044 0.56507 0.0
H674 H 0.38066 0.09368 0.52796 0.0
C675 C 0.27006 1.01139 0.48774 0.0
C676 C 0.34198 0.28801 0.96865 0.0
C677 C 0.32249 0.31867 0.98031 0.0
H678 H 0.37536 0.24281 0.98079 0.0
C679 C 0.3183 0.32298 0.0154 0.0
H680 H 0.34492 0.28283 0.94189 0.0
C681 C 0.33506 0.2989 0.03811 0.0
C682 C 0.35662 0.26999 0.02637 0.0
H683 H 0.30362 0.34627 0.02545 0.0
H684 H 0.33186 0.30374 0.06488 0.0
C685 C 0.35892 0.26424 0.99124 0.0
C686 C 0.09479 0.2967 0.50637 0.0
C687 C 0.09119 0.32061 0.53577 0.0
H688 H 0.05745 0.25399 0.46199 0.0
C689 C 0.04494 0.31949 0.54236 0.0
H690 H 0.12964 0.29666 0.50051 0.0
C691 C 1.00331 0.29469 0.52039 0.0
C692 C 1.00665 0.27015 0.49123 0.0
H693 H 0.04086 0.3382 0.5644 0.0
H694 H 0.96832 0.29418 0.52662 0.0
C695 C 0.05308 0.27174 0.48445 0.0
loop_
_geom_bond_atom_site_label_1
_geom_bond_atom_site_label_2
_geom_bond_distance
_geom_bond_site_symmetry_2
_ccdc_geom_bond_type
C0 C1 1.351 . S
C0 N3 1.368 . S
C0 H5 0.931 . S
C1 C0 1.351 . S
C1 N2 1.373 . S
C1 H29 0.930 . S
N2 C1 1.373 . S
N2 C4 1.340 . S
N3 C0 1.368 . S
N3 C4 1.321 . S
N3 Co6 2.135 . S
C4 N2 1.340 . S
C4 N3 1.321 . S
C4 H28 0.930 . S
H5 C0 0.931 . S
Co6 N3 2.135 . S
Co6 N9 2.121 . S
Co6 O14 2.055 . S
Co6 O17 2.039 . S
Co6 N20 2.140 . S
C7 O8 1.227 . S
C7 O17 1.265 . S
O8 C7 1.227 . S
N9 Co6 2.121 . S
N9 C11 1.375 . S
N9 C12 1.313 . S
C10 C11 1.338 . S
C10 N13 1.377 . S
C10 H30 0.930 . S
C11 N9 1.375 . S
C11 C10 1.338 . S
C11 H15 0.931 . S
C12 N9 1.313 . S
C12 N13 1.344 . S
C12 H16 0.930 . S
N13 C10 1.377 . S
N13 C12 1.344 . S
O14 Co6 2.055 . S
O14 C18 1.253 . S
H15 C11 0.931 . S
H16 C12 0.930 . S
O17 Co6 2.039 . S
O17 C7 1.265 . S
C18 O14 1.253 . S
C18 O19 1.227 . S
O19 C18 1.227 . S
N20 Co6 2.140 . S
N20 C23 1.346 . S
N20 C24 1.345 . S
C21 C22 1.387 . S
C21 C25 1.391 . S
C22 C21 1.387 . S
C22 C23 1.369 . S
C22 H31 0.929 . S
C23 N20 1.346 . S
C23 C22 1.369 . S
C23 H26 0.928 . S
C24 N20 1.345 . S
C24 C25 1.371 . S
C24 H27 0.931 . S
C25 C21 1.391 . S
C25 C24 1.371 . S
C25 H32 0.930 . S
H26 C23 0.928 . S
H27 C24 0.931 . S
H28 C4 0.930 . S
H29 C1 0.930 . S
H30 C10 0.930 . S
H31 C22 0.929 . S
H32 C25 0.930 . S
C33 C34 1.351 . S
C33 N36 1.368 . S
C33 H38 0.931 . S
C34 C33 1.351 . S
C34 N35 1.373 . S
C34 H62 0.930 . S
N35 C34 1.373 . S
N35 C37 1.340 . S
N36 C33 1.368 . S
N36 C37 1.321 . S
N36 Co39 2.135 . S
C37 N35 1.340 . S
C37 N36 1.321 . S
C37 H61 0.930 . S
H38 C33 0.931 . S
Co39 N36 2.135 . S
Co39 N42 2.121 . S
Co39 O47 2.055 . S
Co39 O50 2.039 . S
Co39 N53 2.140 . S
C40 O41 1.227 . S
C40 O50 1.265 . S
O41 C40 1.227 . S
N42 Co39 2.121 . S
N42 C44 1.375 . S
N42 C45 1.313 . S
C43 C44 1.338 . S
C43 N46 1.377 . S
C43 H63 0.930 . S
C44 N42 1.375 . S
C44 C43 1.338 . S
C44 H48 0.931 . S
C45 N42 1.313 . S
C45 N46 1.344 . S
C45 H49 0.930 . S
N46 C43 1.377 . S
N46 C45 1.344 . S
O47 Co39 2.055 . S
O47 C51 1.253 . S
H48 C44 0.931 . S
H49 C45 0.930 . S
O50 Co39 2.039 . S
O50 C40 1.265 . S
C51 O47 1.253 . S
C51 O52 1.227 . S
O52 C51 1.227 . S
N53 Co39 2.140 . S
N53 C56 1.346 . S
N53 C57 1.345 . S
C54 C55 1.387 . S
C54 C58 1.391 . S
C55 C54 1.387 . S
C55 C56 1.369 . S
C55 H64 0.929 . S
C56 N53 1.346 . S
C56 C55 1.369 . S
C56 H59 0.928 . S
C57 N53 1.345 . S
C57 C58 1.371 . S
C57 H60 0.931 . S
C58 C54 1.391 . S
C58 C57 1.371 . S
C58 H65 0.930 . S
H59 C56 0.928 . S
H60 C57 0.931 . S
H61 C37 0.930 . S
H62 C34 0.930 . S
H63 C43 0.930 . S
H64 C55 0.929 . S
H65 C58 0.930 . S
C66 C67 1.351 . S
C66 N69 1.368 . S
C66 H71 0.931 . S
C67 C66 1.351 . S
C67 N68 1.373 . S
C67 H95 0.930 . S
N68 C67 1.373 . S
N68 C70 1.340 . S
N69 C66 1.368 . S
N69 C70 1.321 . S
N69 Co72 2.135 . S
C70 N68 1.340 . S
C70 N69 1.321 . S
C70 H94 0.930 . S
H71 C66 0.931 . S
Co72 N69 2.135 . S
Co72 N75 2.121 . S
Co72 O80 2.055 . S
Co72 O83 2.039 . S
Co72 N86 2.140 . S
C73 O74 1.227 . S
C73 O83 1.265 . S
O74 C73 1.227 . S
N75 Co72 2.121 . S
N75 C77 1.375 . S
N75 C78 1.313 . S
C76 C77 1.338 . S
C76 N79 1.377 . S
C76 H96 0.930 . S
C77 N75 1.375 . S
C77 C76 1.338 . S
C77 H81 0.931 . S
C78 N75 1.313 . S
C78 N79 1.344 . S
C78 H82 0.930 . S
N79 C76 1.377 . S
N79 C78 1.344 . S
O80 Co72 2.055 . S
O80 C84 1.253 . S
H81 C77 0.931 . S
H82 C78 0.930 . S
O83 Co72 2.039 . S
O83 C73 1.265 . S
C84 O80 1.253 . S
C84 O85 1.227 . S
O85 C84 1.227 . S
N86 Co72 2.140 . S
N86 C89 1.346 . S
N86 C90 1.345 . S
C87 C88 1.387 . S
C87 C91 1.391 . S
C88 C87 1.387 . S
C88 C89 1.369 . S
C88 H97 0.929 . S
C89 N86 1.346 . S
C89 C88 1.369 . S
C89 H92 0.928 . S
C90 N86 1.345 . S
C90 C91 1.371 . S
C90 H93 0.931 . S
C91 C87 1.391 . S
C91 C90 1.371 . S
C91 H98 0.930 . S
H92 C89 0.928 . S
H93 C90 0.931 . S
H94 C70 0.930 . S
H95 C67 0.930 . S
H96 C76 0.930 . S
H97 C88 0.929 . S
H98 C91 0.930 . S
C99 C100 1.351 . S
C99 N102 1.368 . S
C99 H104 0.931 . S
C100 C99 1.351 . S
C100 N101 1.373 . S
C100 H128 0.930 . S
N101 C100 1.373 . S
N101 C103 1.340 . S
N102 C99 1.368 . S
N102 C103 1.321 . S
N102 Co105 2.135 . S
C103 N101 1.340 . S
C103 N102 1.321 . S
C103 H127 0.930 . S
H104 C99 0.931 . S
Co105 N102 2.135 . S
Co105 N108 2.121 . S
Co105 O113 2.055 . S
Co105 O116 2.039 . S
Co105 N119 2.140 . S
C106 O107 1.227 . S
C106 O116 1.265 . S
O107 C106 1.227 . S
N108 Co105 2.121 . S
N108 C110 1.375 . S
N108 C111 1.313 . S
C109 C110 1.338 . S
C109 N112 1.377 . S
C109 H129 0.930 . S
C110 N108 1.375 . S
C110 C109 1.338 . S
C110 H114 0.931 . S
C111 N108 1.313 . S
C111 N112 1.344 . S
C111 H115 0.930 . S
N112 C109 1.377 . S
N112 C111 1.344 . S
O113 Co105 2.055 . S
O113 C117 1.253 . S
H114 C110 0.931 . S
H115 C111 0.930 . S
O116 Co105 2.039 . S
O116 C106 1.265 . S
C117 O113 1.253 . S
C117 O118 1.227 . S
O118 C117 1.227 . S
N119 Co105 2.140 . S
N119 C122 1.346 . S
N119 C123 1.345 . S
C120 C121 1.387 . S
C120 C124 1.391 . S
C121 C120 1.387 . S
C121 C122 1.369 . S
C121 H130 0.929 . S
C122 N119 1.346 . S
C122 C121 1.369 . S
C122 H125 0.928 . S
C123 N119 1.345 . S
C123 C124 1.371 . S
C123 H126 0.931 . S
C124 C120 1.391 . S
C124 C123 1.371 . S
C124 H131 0.930 . S
H125 C122 0.928 . S
H126 C123 0.931 . S
H127 C103 0.930 . S
H128 C100 0.930 . S
H129 C109 0.930 . S
H130 C121 0.929 . S
H131 C124 0.930 . S
C132 C133 1.351 . S
C132 N135 1.368 . S
C132 H137 0.931 . S
C133 C132 1.351 . S
C133 N134 1.373 . S
C133 H161 0.930 . S
N134 C133 1.373 . S
N134 C136 1.340 . S
N135 C132 1.368 . S
N135 C136 1.321 . S
N135 Co138 2.135 . S
C136 N134 1.340 . S
C136 N135 1.321 . S
C136 H160 0.930 . S
H137 C132 0.931 . S
Co138 N135 2.135 . S
Co138 N141 2.121 . S
Co138 O146 2.055 . S
Co138 O149 2.039 . S
Co138 N152 2.140 . S
C139 O140 1.227 . S
C139 O149 1.265 . S
O140 C139 1.227 . S
N141 Co138 2.121 . S
N141 C143 1.375 . S
N141 C144 1.313 . S
C142 C143 1.338 . S
C142 N145 1.377 . S
C142 H162 0.930 . S
C143 N141 1.375 . S
C143 C142 1.338 . S
C143 H147 0.931 . S
C144 N141 1.313 . S
C144 N145 1.344 . S
C144 H148 0.930 . S
N145 C142 1.377 . S
N145 C144 1.344 . S
O146 Co138 2.055 . S
O146 C150 1.253 . S
H147 C143 0.931 . S
H148 C144 0.930 . S
O149 Co138 2.039 . S
O149 C139 1.265 . S
C150 O146 1.253 . S
C150 O151 1.227 . S
O151 C150 1.227 . S
N152 Co138 2.140 . S
N152 C155 1.346 . S
N152 C156 1.345 . S
C153 C154 1.387 . S
C153 C157 1.391 . S
C154 C153 1.387 . S
C154 C155 1.369 . S
C154 H163 0.929 . S
C155 N152 1.346 . S
C155 C154 1.369 . S
C155 H158 0.928 . S
C156 N152 1.345 . S
C156 C157 1.371 . S
C156 H159 0.931 . S
C157 C153 1.391 . S
C157 C156 1.371 . S
C157 H164 0.930 . S
H158 C155 0.928 . S
H159 C156 0.931 . S
H160 C136 0.930 . S
H161 C133 0.930 . S
H162 C142 0.930 . S
H163 C154 0.929 . S
H164 C157 0.930 . S
C165 C166 1.351 . S
C165 N168 1.368 . S
C165 H170 0.931 . S
C166 C165 1.351 . S
C166 N167 1.373 . S
C166 H194 0.930 . S
N167 C166 1.373 . S
N167 C169 1.340 . S
N168 C165 1.368 . S
N168 C169 1.321 . S
N168 Co171 2.135 . S
C169 N167 1.340 . S
C169 N168 1.321 . S
C169 H193 0.930 . S
H170 C165 0.931 . S
Co171 N168 2.135 . S
Co171 N174 2.121 . S
Co171 O179 2.055 . S
Co171 O182 2.039 . S
Co171 N185 2.140 . S
C172 O173 1.227 . S
C172 O182 1.265 . S
O173 C172 1.227 . S
N174 Co171 2.121 . S
N174 C176 1.375 . S
N174 C177 1.313 . S
C175 C176 1.338 . S
C175 N178 1.377 . S
C175 H195 0.930 . S
C176 N174 1.375 . S
C176 C175 1.338 . S
C176 H180 0.931 . S
C177 N174 1.313 . S
C177 N178 1.344 . S
C177 H181 0.930 . S
N178 C175 1.377 . S
N178 C177 1.344 . S
O179 Co171 2.055 . S
O179 C183 1.253 . S
H180 C176 0.931 . S
H181 C177 0.930 . S
O182 Co171 2.039 . S
O182 C172 1.265 . S
C183 O179 1.253 . S
C183 O184 1.227 . S
O184 C183 1.227 . S
N185 Co171 2.140 . S
N185 C188 1.346 . S
N185 C189 1.345 . S
C186 C187 1.387 . S
C186 C190 1.391 . S
C187 C186 1.387 . S
C187 C188 1.369 . S
C187 H196 0.929 . S
C188 N185 1.346 . S
C188 C187 1.369 . S
C188 H191 0.928 . S
C189 N185 1.345 . S
C189 C190 1.371 . S
C189 H192 0.931 . S
C190 C186 1.391 . S
C190 C189 1.371 . S
C190 H197 0.930 . S
H191 C188 0.928 . S
H192 C189 0.931 . S
H193 C169 0.930 . S
H194 C166 0.930 . S
H195 C175 0.930 . S
H196 C187 0.929 . S
H197 C190 0.930 . S
C198 C199 1.351 . S
C198 N201 1.368 . S
C198 H203 0.931 . S
C199 C198 1.351 . S
C199 N200 1.373 . S
C199 H227 0.930 . S
N200 C199 1.373 . S
N200 C202 1.340 . S
N201 C198 1.368 . S
N201 C202 1.321 . S
N201 Co204 2.135 . S
C202 N200 1.340 . S
C202 N201 1.321 . S
C202 H226 0.930 . S
H203 C198 0.931 . S
Co204 N201 2.135 . S
Co204 N207 2.121 . S
Co204 O212 2.055 . S
Co204 O215 2.039 . S
Co204 N218 2.140 . S
C205 O206 1.227 . S
C205 O215 1.265 . S
O206 C205 1.227 . S
N207 Co204 2.121 . S
N207 C209 1.375 . S
N207 C210 1.313 . S
C208 C209 1.338 . S
C208 N211 1.377 . S
C208 H228 0.930 . S
C209 N207 1.375 . S
C209 C208 1.338 . S
C209 H213 0.931 . S
C210 N207 1.313 . S
C210 N211 1.344 . S
C210 H214 0.930 . S
N211 C208 1.377 . S
N211 C210 1.344 . S
O212 Co204 2.055 . S
O212 C216 1.253 . S
H213 C209 0.931 . S
H214 C210 0.930 . S
O215 Co204 2.039 . S
O215 C205 1.265 . S
C216 O212 1.253 . S
C216 O217 1.227 . S
O217 C216 1.227 . S
N218 Co204 2.140 . S
N218 C221 1.346 . S
N218 C222 1.345 . S
C219 C220 1.387 . S
C219 C223 1.391 . S
C220 C219 1.387 . S
C220 C221 1.369 . S
C220 H229 0.929 . S
C221 N218 1.346 . S
C221 C220 1.369 . S
C221 H224 0.928 . S
C222 N218 1.345 . S
C222 C223 1.371 . S
C222 H225 0.931 . S
C223 C219 1.391 . S
C223 C222 1.371 . S
C223 H230 0.930 . S
H224 C221 0.928 . S
H225 C222 0.931 . S
H226 C202 0.930 . S
H227 C199 0.930 . S
H228 C208 0.930 . S
H229 C220 0.929 . S
H230 C223 0.930 . S
C231 C232 1.351 . S
C231 N234 1.368 . S
C231 H236 0.931 . S
C232 C231 1.351 . S
C232 N233 1.373 . S
C232 H260 0.930 . S
N233 C232 1.373 . S
N233 C235 1.340 . S
N234 C231 1.368 . S
N234 C235 1.321 . S
N234 Co237 2.135 . S
C235 N233 1.340 . S
C235 N234 1.321 . S
C235 H259 0.930 . S
H236 C231 0.931 . S
Co237 N234 2.135 . S
Co237 N240 2.121 . S
Co237 O245 2.055 . S
Co237 O248 2.039 . S
Co237 N251 2.140 . S
C238 O239 1.227 . S
C238 O248 1.265 . S
O239 C238 1.227 . S
N240 Co237 2.121 . S
N240 C242 1.375 . S
N240 C243 1.313 . S
C241 C242 1.338 . S
C241 N244 1.377 . S
C241 H261 0.930 . S
C242 N240 1.375 . S
C242 C241 1.338 . S
C242 H246 0.931 . S
C243 N240 1.313 . S
C243 N244 1.344 . S
C243 H247 0.930 . S
N244 C241 1.377 . S
N244 C243 1.344 . S
O245 Co237 2.055 . S
O245 C249 1.253 . S
H246 C242 0.931 . S
H247 C243 0.930 . S
O248 Co237 2.039 . S
O248 C238 1.265 . S
C249 O245 1.253 . S
C249 O250 1.227 . S
O250 C249 1.227 . S
N251 Co237 2.140 . S
N251 C254 1.346 . S
N251 C255 1.345 . S
C252 C253 1.387 . S
C252 C256 1.391 . S
C253 C252 1.387 . S
C253 C254 1.369 . S
C253 H262 0.929 . S
C254 N251 1.346 . S
C254 C253 1.369 . S
C254 H257 0.928 . S
C255 N251 1.345 . S
C255 C256 1.371 . S
C255 H258 0.931 . S
C256 C252 1.391 . S
C256 C255 1.371 . S
C256 H263 0.930 . S
H257 C254 0.928 . S
H258 C255 0.931 . S
H259 C235 0.930 . S
H260 C232 0.930 . S
H261 C241 0.930 . S
H262 C253 0.929 . S
H263 C256 0.930 . S
C264 C265 1.351 . S
C264 N267 1.368 . S
C264 H269 0.931 . S
C265 C264 1.351 . S
C265 N266 1.373 . S
C265 H293 0.930 . S
N266 C265 1.373 . S
N266 C268 1.340 . S
N267 C264 1.368 . S
N267 C268 1.321 . S
N267 Co270 2.135 . S
C268 N266 1.340 . S
C268 N267 1.321 . S
C268 H292 0.930 . S
H269 C264 0.931 . S
Co270 N267 2.135 . S
Co270 N273 2.121 . S
Co270 O278 2.055 . S
Co270 O281 2.039 . S
Co270 N284 2.140 . S
C271 O272 1.227 . S
C271 O281 1.265 . S
O272 C271 1.227 . S
N273 Co270 2.121 . S
N273 C275 1.375 . S
N273 C276 1.313 . S
C274 C275 1.338 . S
C274 N277 1.377 . S
C274 H294 0.930 . S
C275 N273 1.375 . S
C275 C274 1.338 . S
C275 H279 0.931 . S
C276 N273 1.313 . S
C276 N277 1.344 . S
C276 H280 0.930 . S
N277 C274 1.377 . S
N277 C276 1.344 . S
O278 Co270 2.055 . S
O278 C282 1.253 . S
H279 C275 0.931 . S
H280 C276 0.930 . S
O281 Co270 2.039 . S
O281 C271 1.265 . S
C282 O278 1.253 . S
C282 O283 1.227 . S
O283 C282 1.227 . S
N284 Co270 2.140 . S
N284 C287 1.346 . S
N284 C288 1.345 . S
C285 C286 1.387 . S
C285 C289 1.391 . S
C286 C285 1.387 . S
C286 C287 1.369 . S
C286 H295 0.929 . S
C287 N284 1.346 . S
C287 C286 1.369 . S
C287 H290 0.928 . S
C288 N284 1.345 . S
C288 C289 1.371 . S
C288 H291 0.931 . S
C289 C285 1.391 . S
C289 C288 1.371 . S
C289 H296 0.930 . S
H290 C287 0.928 . S
H291 C288 0.931 . S
H292 C268 0.930 . S
H293 C265 0.930 . S
H294 C274 0.930 . S
H295 C286 0.929 . S
H296 C289 0.930 . S
C297 C298 1.351 . S
C297 N300 1.368 . S
C297 H302 0.931 . S
C298 C297 1.351 . S
C298 N299 1.373 . S
C298 H326 0.930 . S
N299 C298 1.373 . S
N299 C301 1.340 . S
N300 C297 1.368 . S
N300 C301 1.321 . S
N300 Co303 2.135 . S
C301 N299 1.340 . S
C301 N300 1.321 . S
C301 H325 0.930 . S
H302 C297 0.931 . S
Co303 N300 2.135 . S
Co303 N306 2.121 . S
Co303 O311 2.055 . S
Co303 O314 2.039 . S
Co303 N317 2.140 . S
C304 O305 1.227 . S
C304 O314 1.265 . S
O305 C304 1.227 . S
N306 Co303 2.121 . S
N306 C308 1.375 . S
N306 C309 1.313 . S
C307 C308 1.338 . S
C307 N310 1.377 . S
C307 H327 0.930 . S
C308 N306 1.375 . S
C308 C307 1.338 . S
C308 H312 0.931 . S
C309 N306 1.313 . S
C309 N310 1.344 . S
C309 H313 0.930 . S
N310 C307 1.377 . S
N310 C309 1.344 . S
O311 Co303 2.055 . S
O311 C315 1.253 . S
H312 C308 0.931 . S
H313 C309 0.930 . S
O314 Co303 2.039 . S
O314 C304 1.265 . S
C315 O311 1.253 . S
C315 O316 1.227 . S
O316 C315 1.227 . S
N317 Co303 2.140 . S
N317 C320 1.346 . S
N317 C321 1.345 . S
C318 C319 1.387 . S
C318 C322 1.391 . S
C319 C318 1.387 . S
C319 C320 1.369 . S
C319 H328 0.929 . S
C320 N317 1.346 . S
C320 C319 1.369 . S
C320 H323 0.928 . S
C321 N317 1.345 . S
C321 C322 1.371 . S
C321 H324 0.931 . S
C322 C318 1.391 . S
C322 C321 1.371 . S
C322 H329 0.930 . S
H323 C320 0.928 . S
H324 C321 0.931 . S
H325 C301 0.930 . S
H326 C298 0.930 . S
H327 C307 0.930 . S
H328 C319 0.929 . S
H329 C322 0.930 . S
C330 C331 1.351 . S
C330 N333 1.368 . S
C330 H335 0.931 . S
C331 C330 1.351 . S
C331 N332 1.373 . S
C331 H359 0.930 . S
N332 C331 1.373 . S
N332 C334 1.340 . S
N333 C330 1.368 . S
N333 C334 1.321 . S
N333 Co336 2.135 . S
C334 N332 1.340 . S
C334 N333 1.321 . S
C334 H358 0.930 . S
H335 C330 0.931 . S
Co336 N333 2.135 . S
Co336 N339 2.121 . S
Co336 O344 2.055 . S
Co336 O347 2.039 . S
Co336 N350 2.140 . S
C337 O338 1.227 . S
C337 O347 1.265 . S
O338 C337 1.227 . S
N339 Co336 2.121 . S
N339 C341 1.375 . S
N339 C342 1.313 . S
C340 C341 1.338 . S
C340 N343 1.377 . S
C340 H360 0.930 . S
C341 N339 1.375 . S
C341 C340 1.338 . S
C341 H345 0.931 . S
C342 N339 1.313 . S
C342 N343 1.344 . S
C342 H346 0.930 . S
N343 C340 1.377 . S
N343 C342 1.344 . S
O344 Co336 2.055 . S
O344 C348 1.253 . S
H345 C341 0.931 . S
H346 C342 0.930 . S
O347 Co336 2.039 . S
O347 C337 1.265 . S
C348 O344 1.253 . S
C348 O349 1.227 . S
O349 C348 1.227 . S
N350 Co336 2.140 . S
N350 C353 1.346 . S
N350 C354 1.345 . S
C351 C352 1.387 . S
C351 C355 1.391 . S
C352 C351 1.387 . S
C352 C353 1.369 . S
C352 H361 0.929 . S
C353 N350 1.346 . S
C353 C352 1.369 . S
C353 H356 0.928 . S
C354 N350 1.345 . S
C354 C355 1.371 . S
C354 H357 0.931 . S
C355 C351 1.391 . S
C355 C354 1.371 . S
C355 H362 0.930 . S
H356 C353 0.928 . S
H357 C354 0.931 . S
H358 C334 0.930 . S
H359 C331 0.930 . S
H360 C340 0.930 . S
H361 C352 0.929 . S
H362 C355 0.930 . S
C363 C364 1.351 . S
C363 N366 1.368 . S
C363 H368 0.931 . S
C364 C363 1.351 . S
C364 N365 1.373 . S
C364 H392 0.930 . S
N365 C364 1.373 . S
N365 C367 1.340 . S
N366 C363 1.368 . S
N366 C367 1.321 . S
N366 Co369 2.135 . S
C367 N365 1.340 . S
C367 N366 1.321 . S
C367 H391 0.930 . S
H368 C363 0.931 . S
Co369 N366 2.135 . S
Co369 N372 2.121 . S
Co369 O377 2.055 . S
Co369 O380 2.039 . S
Co369 N383 2.140 . S
C370 O371 1.227 . S
C370 O380 1.265 . S
O371 C370 1.227 . S
N372 Co369 2.121 . S
N372 C374 1.375 . S
N372 C375 1.313 . S
C373 C374 1.338 . S
C373 N376 1.377 . S
C373 H393 0.930 . S
C374 N372 1.375 . S
C374 C373 1.338 . S
C374 H378 0.931 . S
C375 N372 1.313 . S
C375 N376 1.344 . S
C375 H379 0.930 . S
N376 C373 1.377 . S
N376 C375 1.344 . S
O377 Co369 2.055 . S
O377 C381 1.253 . S
H378 C374 0.931 . S
H379 C375 0.930 . S
O380 Co369 2.039 . S
O380 C370 1.265 . S
C381 O377 1.253 . S
C381 O382 1.227 . S
O382 C381 1.227 . S
N383 Co369 2.140 . S
N383 C386 1.346 . S
N383 C387 1.345 . S
C384 C385 1.387 . S
C384 C388 1.391 . S
C385 C384 1.387 . S
C385 C386 1.369 . S
C385 H394 0.929 . S
C386 N383 1.346 . S
C386 C385 1.369 . S
C386 H389 0.928 . S
C387 N383 1.345 . S
C387 C388 1.371 . S
C387 H390 0.931 . S
C388 C384 1.391 . S
C388 C387 1.371 . S
C388 H395 0.930 . S
H389 C386 0.928 . S
H390 C387 0.931 . S
H391 C367 0.930 . S
H392 C364 0.930 . S
H393 C373 0.930 . S
H394 C385 0.929 . S
H395 C388 0.930 . S
C396 C397 1.387 . S
C396 H400 0.950 . S
C396 C405 1.390 . S
C397 C396 1.387 . S
C397 C399 1.387 . S
H398 C405 0.950 . S
C399 C397 1.387 . S
C399 C401 1.390 . S
C399 H403 0.950 . S
H400 C396 0.950 . S
C401 C399 1.390 . S
C401 C402 1.387 . S
C401 H404 0.950 . S
C402 C401 1.387 . S
C402 C405 1.387 . S
H403 C399 0.950 . S
H404 C401 0.950 . S
C405 C396 1.390 . S
C405 H398 0.950 . S
C405 C402 1.387 . S
C406 C407 1.387 . S
C406 H410 0.950 . S
C406 C415 1.390 . S
C407 C406 1.387 . S
C407 C409 1.387 . S
H408 C415 0.950 . S
C409 C407 1.387 . S
C409 C411 1.390 . S
C409 H413 0.950 . S
H410 C406 0.950 . S
C411 C409 1.390 . S
C411 C412 1.387 . S
C411 H414 0.950 . S
C412 C411 1.387 . S
C412 C415 1.387 . S
H413 C409 0.950 . S
H414 C411 0.950 . S
C415 C406 1.390 . S
C415 H408 0.950 . S
C415 C412 1.387 . S
C416 C417 1.387 . S
C416 H420 0.950 . S
C416 C425 1.390 . S
C417 C416 1.387 . S
C417 C419 1.387 . S
H418 C425 0.950 . S
C419 C417 1.387 . S
C419 C421 1.390 . S
C419 H423 0.950 . S
H420 C416 0.950 . S
C421 C419 1.390 . S
C421 C422 1.387 . S
C421 H424 0.950 . S
C422 C421 1.387 . S
C422 C425 1.387 . S
H423 C419 0.950 . S
H424 C421 0.950 . S
C425 C416 1.390 . S
C425 H418 0.950 . S
C425 C422 1.387 . S
C426 C427 1.387 . S
C426 H430 0.950 . S
C426 C435 1.390 . S
C427 C426 1.387 . S
C427 C429 1.387 . S
H428 C435 0.950 . S
C429 C427 1.387 . S
C429 C431 1.390 . S
C429 H433 0.950 . S
H430 C426 0.950 . S
C431 C429 1.390 . S
C431 C432 1.387 . S
C431 H434 0.950 . S
C432 C431 1.387 . S
C432 C435 1.387 . S
H433 C429 0.950 . S
H434 C431 0.950 . S
C435 C426 1.390 . S
C435 H428 0.950 . S
C435 C432 1.387 . S
C436 C437 1.387 . S
C436 H440 0.950 . S
C436 C445 1.390 . S
C437 C436 1.387 . S
C437 C439 1.387 . S
H438 C445 0.950 . S
C439 C437 1.387 . S
C439 C441 1.390 . S
C439 H443 0.950 . S
H440 C436 0.950 . S
C441 C439 1.390 . S
C441 C442 1.387 . S
C441 H444 0.950 . S
C442 C441 1.387 . S
C442 C445 1.387 . S
H443 C439 0.950 . S
H444 C441 0.950 . S
C445 C436 1.390 . S
C445 H438 0.950 . S
C445 C442 1.387 . S
C446 C447 1.387 . S
C446 H450 0.950 . S
C446 C455 1.390 . S
C447 C446 1.387 . S
C447 C449 1.387 . S
H448 C455 0.950 . S
C449 C447 1.387 . S
C449 C451 1.390 . S
C449 H453 0.950 . S
H450 C446 0.950 . S
C451 C449 1.390 . S
C451 C452 1.387 . S
C451 H454 0.950 . S
C452 C451 1.387 . S
C452 C455 1.387 . S
H453 C449 0.950 . S
H454 C451 0.950 . S
C455 C446 1.390 . S
C455 H448 0.950 . S
C455 C452 1.387 . S
C456 C457 1.387 . S
C456 H460 0.950 . S
C456 C465 1.390 . S
C457 C456 1.387 . S
C457 C459 1.387 . S
H458 C465 0.950 . S
C459 C457 1.387 . S
C459 C461 1.390 . S
C459 H463 0.950 . S
H460 C456 0.950 . S
C461 C459 1.390 . S
C461 C462 1.387 . S
C461 H464 0.950 . S
C462 C461 1.387 . S
C462 C465 1.387 . S
H463 C459 0.950 . S
H464 C461 0.950 . S
C465 C456 1.390 . S
C465 H458 0.950 . S
C465 C462 1.387 . S
C466 C467 1.387 . S
C466 H470 0.950 . S
C466 C475 1.390 . S
C467 C466 1.387 . S
C467 C469 1.387 . S
H468 C475 0.950 . S
C469 C467 1.387 . S
C469 C471 1.390 . S
C469 H473 0.950 . S
H470 C466 0.950 . S
C471 C469 1.390 . S
C471 C472 1.387 . S
C471 H474 0.950 . S
C472 C471 1.387 . S
C472 C475 1.387 . S
H473 C469 0.950 . S
H474 C471 0.950 . S
C475 C466 1.390 . S
C475 H468 0.950 . S
C475 C472 1.387 . S
C476 C477 1.387 . S
C476 H480 0.950 . S
C476 C485 1.390 . S
C477 C476 1.387 . S
C477 C479 1.387 . S
H478 C485 0.950 . S
C479 C477 1.387 . S
C479 C481 1.390 . S
C479 H483 0.950 . S
H480 C476 0.950 . S
C481 C479 1.390 . S
C481 C482 1.387 . S
C481 H484 0.950 . S
C482 C481 1.387 . S
C482 C485 1.387 . S
H483 C479 0.950 . S
H484 C481 0.950 . S
C485 C476 1.390 . S
C485 H478 0.950 . S
C485 C482 1.387 . S
C486 C487 1.387 . S
C486 H490 0.950 . S
C486 C495 1.390 . S
C487 C486 1.387 . S
C487 C489 1.387 . S
H488 C495 0.950 . S
C489 C487 1.387 . S
C489 C491 1.390 . S
C489 H493 0.950 . S
H490 C486 0.950 . S
C491 C489 1.390 . S
C491 C492 1.387 . S
C491 H494 0.950 . S
C492 C491 1.387 . S
C492 C495 1.387 . S
H493 C489 0.950 . S
H494 C491 0.950 . S
C495 C486 1.390 . S
C495 H488 0.950 . S
C495 C492 1.387 . S
C496 C497 1.387 . S
C496 H500 0.950 . S
C496 C505 1.390 . S
C497 C496 1.387 . S
C497 C499 1.387 . S
H498 C505 0.950 . S
C499 C497 1.387 . S
C499 C501 1.390 . S
C499 H503 0.950 . S
H500 C496 0.950 . S
C501 C499 1.390 . S
C501 C502 1.387 . S
C501 H504 0.950 . S
C502 C501 1.387 . S
C502 C505 1.387 . S
H503 C499 0.950 . S
H504 C501 0.950 . S
C505 C496 1.390 . S
C505 H498 0.950 . S
C505 C502 1.387 . S
C506 C507 1.387 . S
C506 H510 0.950 . S
C506 C515 1.390 . S
C507 C506 1.387 . S
C507 C509 1.387 . S
H508 C515 0.950 . S
C509 C507 1.387 . S
C509 C511 1.390 . S
C509 H513 0.950 . S
H510 C506 0.950 . S
C511 C509 1.390 . S
C511 C512 1.387 . S
C511 H514 0.950 . S
C512 C511 1.387 . S
C512 C515 1.387 . S
H513 C509 0.950 . S
H514 C511 0.950 . S
C515 C506 1.390 . S
C515 H508 0.950 . S
C515 C512 1.387 . S
C516 C517 1.387 . S
C516 H520 0.950 . S
C516 C525 1.390 . S
C517 C516 1.387 . S
C517 C519 1.387 . S
H518 C525 0.950 . S
C519 C517 1.387 . S
C519 C521 1.390 . S
C519 H523 0.950 . S
H520 C516 0.950 . S
C521 C519 1.390 . S
C521 C522 1.387 . S
C521 H524 0.950 . S
C522 C521 1.387 . S
C522 C525 1.387 . S
H523 C519 0.950 . S
H524 C521 0.950 . S
C525 C516 1.390 . S
C525 H518 0.950 . S
C525 C522 1.387 . S
C526 C527 1.387 . S
C526 H530 0.950 . S
C526 C535 1.390 . S
C527 C526 1.387 . S
C527 C529 1.387 . S
H528 C535 0.950 . S
C529 C527 1.387 . S
C529 C531 1.390 . S
C529 H533 0.950 . S
H530 C526 0.950 . S
C531 C529 1.390 . S
C531 C532 1.387 . S
C531 H534 0.950 . S
C532 C531 1.387 . S
C532 C535 1.387 . S
H533 C529 0.950 . S
H534 C531 0.950 . S
C535 C526 1.390 . S
C535 H528 0.950 . S
C535 C532 1.387 . S
C536 C537 1.387 . S
C536 H540 0.950 . S
C536 C545 1.390 . S
C537 C536 1.387 . S
C537 C539 1.387 . S
H538 C545 0.950 . S
C539 C537 1.387 . S
C539 C541 1.390 . S
C539 H543 0.950 . S
H540 C536 0.950 . S
C541 C539 1.390 . S
C541 C542 1.387 . S
C541 H544 0.950 . S
C542 C541 1.387 . S
C542 C545 1.387 . S
H543 C539 0.950 . S
H544 C541 0.950 . S
C545 C536 1.390 . S
C545 H538 0.950 . S
C545 C542 1.387 . S
C546 C547 1.387 . S
C546 H550 0.950 . S
C546 C555 1.390 . S
C547 C546 1.387 . S
C547 C549 1.387 . S
H548 C555 0.950 . S
C549 C547 1.387 . S
C549 C551 1.390 . S
C549 H553 0.950 . S
H550 C546 0.950 . S
C551 C549 1.390 . S
C551 C552 1.387 . S
C551 H554 0.950 . S
C552 C551 1.387 . S
C552 C555 1.387 . S
H553 C549 0.950 . S
H554 C551 0.950 . S
C555 C546 1.390 . S
C555 H548 0.950 . S
C555 C552 1.387 . S
C556 C557 1.387 . S
C556 H560 0.950 . S
C556 C565 1.390 . S
C557 C556 1.387 . S
C557 C559 1.387 . S
H558 C565 0.950 . S
C559 C557 1.387 . S
C559 C561 1.390 . S
C559 H563 0.950 . S
H560 C556 0.950 . S
C561 C559 1.390 . S
C561 C562 1.387 . S
C561 H564 0.950 . S
C562 C561 1.387 . S
C562 C565 1.387 . S
H563 C559 0.950 . S
H564 C561 0.950 . S
C565 C556 1.390 . S
C565 H558 0.950 . S
C565 C562 1.387 . S
C566 C567 1.387 . S
C566 H570 0.950 . S
C566 C575 1.390 . S
C567 C566 1.387 . S
C567 C569 1.387 . S
H568 C575 0.950 . S
C569 C567 1.387 . S
C569 C571 1.390 . S
C569 H573 0.950 . S
H570 C566 0.950 . S
C571 C569 1.390 . S
C571 C572 1.387 . S
C571 H574 0.950 . S
C572 C571 1.387 . S
C572 C575 1.387 . S
H573 C569 0.950 . S
H574 C571 0.950 . S
C575 C566 1.390 . S
C575 H568 0.950 . S
C575 C572 1.387 . S
C576 C577 1.387 . S
C576 H580 0.950 . S
C576 C585 1.390 1_566 S
C577 C576 1.387 . S
C577 C579 1.387 . S
H578 C585 0.950 . S
C579 C577 1.387 . S
C579 C581 1.390 1_566 S
C579 H583 0.950 . S
H580 C576 0.950 . S
C581 C579 1.390 1_544 S
C581 C582 1.387 . S
C581 H584 0.950 . S
C582 C581 1.387 . S
C582 C585 1.387 . S
H583 C579 0.950 . S
H584 C581 0.950 . S
C585 C576 1.390 1_544 S
C585 H578 0.950 . S
C585 C582 1.387 . S
C586 C587 1.387 . S
C586 H590 0.950 . S
C586 C595 1.390 . S
C587 C586 1.387 . S
C587 C589 1.387 . S
H588 C595 0.950 . S
C589 C587 1.387 . S
C589 C591 1.390 . S
C589 H593 0.950 . S
H590 C586 0.950 . S
C591 C589 1.390 . S
C591 C592 1.387 . S
C591 H594 0.950 . S
C592 C591 1.387 . S
C592 C595 1.387 . S
H593 C589 0.950 . S
H594 C591 0.950 . S
C595 C586 1.390 . S
C595 H588 0.950 . S
C595 C592 1.387 . S
C596 C597 1.387 . S
C596 H600 0.950 . S
C596 C605 1.390 1_655 S
C597 C596 1.387 . S
C597 C599 1.387 1_554 S
H598 C605 0.950 . S
C599 C597 1.387 1_556 S
C599 C601 1.390 1_655 S
C599 H603 0.950 . S
H600 C596 0.950 . S
C601 C599 1.390 1_455 S
C601 C602 1.387 . S
C601 H604 0.950 . S
C602 C601 1.387 . S
C602 C605 1.387 1_556 S
H603 C599 0.950 . S
H604 C601 0.950 . S
C605 C596 1.390 1_455 S
C605 H598 0.950 . S
C605 C602 1.387 1_554 S
C606 C607 1.387 . S
C606 H610 0.950 . S
C606 C615 1.390 1_565 S
C607 C606 1.387 . S
C607 C609 1.387 . S
H608 C615 0.950 . S
C609 C607 1.387 . S
C609 C611 1.390 1_565 S
C609 H613 0.950 . S
H610 C606 0.950 . S
C611 C609 1.390 1_545 S
C611 C612 1.387 . S
C611 H614 0.950 . S
C612 C611 1.387 . S
C612 C615 1.387 . S
H613 C609 0.950 . S
H614 C611 0.950 . S
C615 C606 1.390 1_545 S
C615 H608 0.950 . S
C615 C612 1.387 . S
C616 C617 1.387 . S
C616 H620 0.950 . S
C616 C625 1.390 . S
C617 C616 1.387 . S
C617 C619 1.387 1_554 S
H618 C625 0.950 . S
C619 C617 1.387 1_556 S
C619 C621 1.390 . S
C619 H623 0.950 . S
H620 C616 0.950 . S
C621 C619 1.390 . S
C621 C622 1.387 . S
C621 H624 0.950 . S
C622 C621 1.387 . S
C622 C625 1.387 1_556 S
H623 C619 0.950 . S
H624 C621 0.950 . S
C625 C616 1.390 . S
C625 H618 0.950 . S
C625 C622 1.387 1_554 S
C626 C627 1.387 . S
C626 H630 0.950 . S
C626 C635 1.390 1_655 S
C627 C626 1.387 . S
C627 C629 1.387 . S
H628 C635 0.950 . S
C629 C627 1.387 . S
C629 C631 1.390 1_655 S
C629 H633 0.950 . S
H630 C626 0.950 . S
C631 C629 1.390 1_455 S
C631 C632 1.387 . S
C631 H634 0.950 . S
C632 C631 1.387 . S
C632 C635 1.387 . S
H633 C629 0.950 . S
H634 C631 0.950 . S
C635 C626 1.390 1_455 S
C635 H628 0.950 . S
C635 C632 1.387 . S
C636 C637 1.387 . S
C636 H640 0.950 . S
C636 C645 1.390 1_544 S
C637 C636 1.387 . S
C637 C639 1.387 . S
H638 C645 0.950 . S
C639 C637 1.387 . S
C639 C641 1.390 1_544 S
C639 H643 0.950 . S
H640 C636 0.950 . S
C641 C639 1.390 1_566 S
C641 C642 1.387 . S
C641 H644 0.950 . S
C642 C641 1.387 . S
C642 C645 1.387 . S
H643 C639 0.950 . S
H644 C641 0.950 . S
C645 C636 1.390 1_566 S
C645 H638 0.950 . S
C645 C642 1.387 . S
C646 C647 1.387 . S
C646 H650 0.950 . S
C646 C655 1.390 . S
C647 C646 1.387 . S
C647 C649 1.387 . S
H648 C655 0.950 . S
C649 C647 1.387 . S
C649 C651 1.390 . S
C649 H653 0.950 . S
H650 C646 0.950 . S
C651 C649 1.390 . S
C651 C652 1.387 . S
C651 H654 0.950 . S
C652 C651 1.387 . S
C652 C655 1.387 . S
H653 C649 0.950 . S
H654 C651 0.950 . S
C655 C646 1.390 . S
C655 H648 0.950 . S
C655 C652 1.387 . S
C656 C657 1.387 1_556 S
C656 H660 0.950 . S
C656 C665 1.390 1_655 S
C657 C656 1.387 1_554 S
C657 C659 1.387 . S
H658 C665 0.950 . S
C659 C657 1.387 . S
C659 C661 1.390 1_655 S
C659 H663 0.950 . S
H660 C656 0.950 . S
C661 C659 1.390 1_455 S
C661 C662 1.387 1_554 S
C661 H664 0.950 . S
C662 C661 1.387 1_556 S
C662 C665 1.387 . S
H663 C659 0.950 . S
H664 C661 0.950 . S
C665 C656 1.390 1_455 S
C665 H658 0.950 . S
C665 C662 1.387 . S
C666 C667 1.387 . S
C666 H670 0.950 . S
C666 C675 1.390 . S
C667 C666 1.387 . S
C667 C669 1.387 1_565 S
H668 C675 0.950 . S
C669 C667 1.387 1_545 S
C669 C671 1.390 . S
C669 H673 0.950 . S
H670 C666 0.950 . S
C671 C669 1.390 . S
C671 C672 1.387 . S
C671 H674 0.950 . S
C672 C671 1.387 . S
C672 C675 1.387 1_545 S
H673 C669 0.950 . S
H674 C671 0.950 . S
C675 C666 1.390 . S
C675 H668 0.950 . S
C675 C672 1.387 1_565 S
C676 C677 1.387 . S
C676 H680 0.950 . S
C676 C685 1.390 . S
C677 C676 1.387 . S
C677 C679 1.387 1_556 S
H678 C685 0.950 . S
C679 C677 1.387 1_554 S
C679 C681 1.390 . S
C679 H683 0.950 . S
H680 C676 0.950 . S
C681 C679 1.390 . S
C681 C682 1.387 . S
C681 H684 0.950 . S
C682 C681 1.387 . S
C682 C685 1.387 1_554 S
H683 C679 0.950 . S
H684 C681 0.950 . S
C685 C676 1.390 . S
C685 H678 0.950 . S
C685 C682 1.387 1_556 S
C686 C687 1.387 . S
C686 H690 0.950 . S
C686 C695 1.390 . S
C687 C686 1.387 . S
C687 C689 1.387 1_455 S
H688 C695 0.950 . S
C689 C687 1.387 1_655 S
C689 C691 1.390 . S
C689 H693 0.950 . S
H690 C686 0.950 . S
C691 C689 1.390 . S
C691 C692 1.387 . S
C691 H694 0.950 . S
C692 C691 1.387 . S
C692 C695 1.387 1_655 S
H693 C689 0.950 . S
H694 C691 0.950 . S
C695 C686 1.390 . S
C695 H688 0.950 . S
C695 C692 1.387 1_455 S
C397 C84 1.578 . S
C402 N13 1.614 . S
C407 N46 1.686 . S
C412 C117 1.657 . S
C417 N79 1.617 . S
C422 C150 1.580 . S
C427 N112 1.688 . S
C432 C183 1.660 . S
C437 N145 1.616 . S
C442 C18 1.579 . S
C447 C51 1.658 . S
C452 N178 1.687 . S
C457 N200 1.667 . S
C462 C337 1.664 . S
C467 N244 1.671 . S
C472 C381 1.637 . S
C477 C205 1.663 . S
C482 N266 1.666 . S
C487 C249 1.634 . S
C492 N310 1.669 . S
C497 C271 1.664 . S
C502 N332 1.667 . S
C507 C315 1.636 . S
C512 N376 1.670 . S
C517 C285 1.503 . S
C522 C21 1.484 . S
C527 C54 1.486 . S
C532 C318 1.494 . S
C537 C351 1.503 . S
C542 C87 1.484 . S
C547 C384 1.494 . S
C552 C120 1.486 . S
C557 C153 1.484 . S
C562 C219 1.503 . S
C567 C252 1.494 . S
C572 C186 1.486 . S
C577 C238 1.495 . S
C582 C7 1.495 . S
C587 C40 1.573 . S
C592 C282 1.571 . S
C597 C73 1.495 . S
C602 C304 1.495 . S
C607 C106 1.574 . S
C612 C348 1.572 . S
C617 C139 1.493 . S
C622 C370 1.493 . S
C627 C216 1.570 . S
C632 C172 1.572 . S
C637 N68 1.356 . S
C642 N365 1.350 . S
C647 N211 1.460 . S
C652 N101 1.432 . S
C657 N134 1.356 . S
C662 N233 1.353 . S
C667 N167 1.433 . S
C672 N277 1.460 . S
C677 N299 1.353 . S
C682 N2 1.354 . S
C687 N35 1.433 . S
C692 N343 1.460 . S
