# Generated by pormake.
# Topology mon, (4)-cn, num edge types: 1
# Building blocks:
#     Node 0, Type 0, BuildingBlock: KUFVIS_clean_sbu_0, # of connection points: 4
#     Node 1, Type 0, BuildingBlock: KUFVIS_clean_sbu_0, # of connection points: 4
#     Node 2, Type 0, BuildingBlock: KUFVIS_clean_sbu_0, # of connection points: 4
#     Node 3, Type 0, BuildingBlock: KUFVIS_clean_sbu_0, # of connection points: 4
#     Node 4, Type 0, BuildingBlock: KUFVIS_clean_sbu_0, # of connection points: 4
#     Node 5, Type 0, BuildingBlock: KUFVIS_clean_sbu_0, # of connection points: 4
#     Node 6, Type 0, BuildingBlock: KUFVIS_clean_sbu_0, # of connection points: 4
#     Node 7, Type 0, BuildingBlock: KUFVIS_clean_sbu_0, # of connection points: 4
#     Node 8, Type 0, BuildingBlock: KUFVIS_clean_sbu_0, # of connection points: 4
#     Node 9, Type 0, BuildingBlock: KUFVIS_clean_sbu_0, # of connection points: 4
#     Node 10, Type 0, BuildingBlock: KUFVIS_clean_sbu_0, # of connection points: 4
#     Node 11, Type 0, BuildingBlock: KUFVIS_clean_sbu_0, # of connection points: 4
#     Node 12, Type 0, BuildingBlock: KUFVIS_clean_sbu_0, # of connection points: 4
#     Node 13, Type 0, BuildingBlock: KUFVIS_clean_sbu_0, # of connection points: 4
#     Node 14, Type 0, BuildingBlock: KUFVIS_clean_sbu_0, # of connection points: 4
#     Node 15, Type 0, BuildingBlock: KUFVIS_clean_sbu_0, # of connection points: 4
#     Edge 16, Type (0, 0), BuildingBlock: TEMPAE_clean_linker_10, # of connection points: 2
#     Edge 17, Type (0, 0), BuildingBlock: TEMPAE_clean_linker_10, # of connection points: 2
#     Edge 18, Type (0, 0), BuildingBlock: TEMPAE_clean_linker_10, # of connection points: 2
#     Edge 19, Type (0, 0), BuildingBlock: TEMPAE_clean_linker_10, # of connection points: 2
#     Edge 20, Type (0, 0), BuildingBlock: TEMPAE_clean_linker_10, # of connection points: 2
#     Edge 21, Type (0, 0), BuildingBlock: TEMPAE_clean_linker_10, # of connection points: 2
#     Edge 22, Type (0, 0), BuildingBlock: TEMPAE_clean_linker_10, # of connection points: 2
#     Edge 23, Type (0, 0), BuildingBlock: TEMPAE_clean_linker_10, # of connection points: 2
#     Edge 24, Type (0, 0), BuildingBlock: TEMPAE_clean_linker_10, # of connection points: 2
#     Edge 25, Type (0, 0), BuildingBlock: TEMPAE_clean_linker_10, # of connection points: 2
#     Edge 26, Type (0, 0), BuildingBlock: TEMPAE_clean_linker_10, # of connection points: 2
#     Edge 27, Type (0, 0), BuildingBlock: TEMPAE_clean_linker_10, # of connection points: 2
#     Edge 28, Type (0, 0), BuildingBlock: TEMPAE_clean_linker_10, # of connection points: 2
#     Edge 29, Type (0, 0), BuildingBlock: TEMPAE_clean_linker_10, # of connection points: 2
#     Edge 30, Type (0, 0), BuildingBlock: TEMPAE_clean_linker_10, # of connection points: 2
#     Edge 31, Type (0, 0), BuildingBlock: TEMPAE_clean_linker_10, # of connection points: 2
#     Edge 32, Type (0, 0), BuildingBlock: TEMPAE_clean_linker_10, # of connection points: 2
#     Edge 33, Type (0, 0), BuildingBlock: TEMPAE_clean_linker_10, # of connection points: 2
#     Edge 34, Type (0, 0), BuildingBlock: TEMPAE_clean_linker_10, # of connection points: 2
#     Edge 35, Type (0, 0), BuildingBlock: TEMPAE_clean_linker_10, # of connection points: 2
#     Edge 36, Type (0, 0), BuildingBlock: TEMPAE_clean_linker_10, # of connection points: 2
#     Edge 37, Type (0, 0), BuildingBlock: TEMPAE_clean_linker_10, # of connection points: 2
#     Edge 38, Type (0, 0), BuildingBlock: TEMPAE_clean_linker_10, # of connection points: 2
#     Edge 39, Type (0, 0), BuildingBlock: TEMPAE_clean_linker_10, # of connection points: 2
#     Edge 40, Type (0, 0), BuildingBlock: TEMPAE_clean_linker_10, # of connection points: 2
#     Edge 41, Type (0, 0), BuildingBlock: TEMPAE_clean_linker_10, # of connection points: 2
#     Edge 42, Type (0, 0), BuildingBlock: TEMPAE_clean_linker_10, # of connection points: 2
#     Edge 43, Type (0, 0), BuildingBlock: TEMPAE_clean_linker_10, # of connection points: 2
#     Edge 44, Type (0, 0), BuildingBlock: TEMPAE_clean_linker_10, # of connection points: 2
#     Edge 45, Type (0, 0), BuildingBlock: TEMPAE_clean_linker_10, # of connection points: 2
#     Edge 46, Type (0, 0), BuildingBlock: TEMPAE_clean_linker_10, # of connection points: 2
#     Edge 47, Type (0, 0), BuildingBlock: TEMPAE_clean_linker_10, # of connection points: 2
# Relax obj value: 0.170
# Max RMSD: 0.160
# Mean RMSD: 0.160
data_MOF--net-mon--node1-KUFVIS_clean_sbu_0--edge1-TEMPAE_clean_linker_10
_symmetry_space_group_name_H-M    P1
_symmetry_Int_Tables_number       1
_symmetry_cell_setting            triclinic
loop_
_symmetry_equiv_pos_as_xyz
'x, y, z'
_cell_length_a     33.901914
_cell_length_b     33.899395
_cell_length_c     84.902066
_cell_angle_alpha  89.97627
_cell_angle_beta   89.978399
_cell_angle_gamma 90.00091
loop_
_atom_site_label
_atom_site_type_symbol
_atom_site_fract_x
_atom_site_fract_y
_atom_site_fract_z
_atom_type_partial_charge
Mn0 Mn 0.01953 0.0169 0.59288 0.0
Mn1 Mn 0.93911 0.04096 0.57162 0.0
C2 C 0.95645 0.00681 0.60291 0.0
C3 C 0.06796 0.97305 0.60148 0.0
C4 C 0.99039 0.10183 0.58771 0.0
O5 O 0.04198 0.02001 0.57046 0.0
O6 O 0.98574 0.03601 0.55771 0.0
C7 C 0.9319 0.96681 0.55344 0.0
N8 N 0.91607 0.99365 0.56357 0.0
C9 C 0.85488 0.95787 0.56472 0.0
C10 C 0.87046 0.92987 0.55428 0.0
C11 C 0.9092 0.9343 0.54866 0.0
C12 C 0.87902 0.98944 0.56918 0.0
H13 H 0.96159 0.97019 0.54903 0.0
C14 C 0.02279 0.02852 0.55793 0.0
O15 O 0.07266 0.01094 0.60245 0.0
O16 O 0.03581 0.9605 0.59485 0.0
N17 N 0.89186 0.04613 0.58376 0.0
C18 C 0.8818 0.07493 0.5942 0.0
C19 C 0.8442 0.07439 0.60115 0.0
C20 C 0.81719 0.04463 0.59711 0.0
C21 C 0.82811 0.01558 0.58619 0.0
C22 C 0.86609 0.0174 0.57978 0.0
H23 H 0.90237 0.09804 0.59723 0.0
O24 O 0.98628 0.01097 0.61233 0.0
O25 O 0.96442 0.00944 0.58801 0.0
O26 O 0.01448 0.07705 0.59361 0.0
O27 O 0.96051 0.09158 0.57951 0.0
C28 C 0.80279 0.98492 0.5814 0.0
C29 C 0.81631 0.95579 0.57083 0.0
H30 H 0.85298 0.90485 0.55051 0.0
H31 H 0.92147 0.91281 0.5406 0.0
H32 H 0.836 0.09691 0.60957 0.0
H33 H 0.78821 0.04432 0.60248 0.0
H34 H 0.77288 0.98334 0.58583 0.0
H35 H 0.79676 0.93197 0.56746 0.0
Mn36 Mn 0.25618 0.74264 0.8429 0.0
Mn37 Mn 0.23163 0.66188 0.82195 0.0
C38 C 0.2655 0.67973 0.85323 0.0
C39 C 0.30025 0.79094 0.85142 0.0
C40 C 0.17106 0.71452 0.83758 0.0
O41 O 0.25383 0.76437 0.82034 0.0
O42 O 0.23805 0.70781 0.80777 0.0
C43 C 0.30623 0.65242 0.80421 0.0
N44 N 0.27872 0.63756 0.8143 0.0
C45 C 0.31313 0.57566 0.816 0.0
C46 C 0.34179 0.59024 0.8056 0.0
C47 C 0.33839 0.62885 0.79973 0.0
C48 C 0.28195 0.60064 0.82016 0.0
H49 H 0.30364 0.68201 0.79961 0.0
C50 C 0.24594 0.7448 0.80783 0.0
O51 O 0.26239 0.79598 0.85223 0.0
O52 O 0.3127 0.75849 0.84498 0.0
N53 N 0.22517 0.6153 0.83441 0.0
C54 C 0.196 0.60636 0.84486 0.0
C55 C 0.19561 0.56909 0.8521 0.0
C56 C 0.22483 0.54126 0.84833 0.0
C57 C 0.25431 0.55104 0.83742 0.0
C58 C 0.25343 0.58875 0.83072 0.0
H59 H 0.1733 0.62757 0.84769 0.0
O60 O 0.26145 0.70985 0.86252 0.0
O61 O 0.26313 0.68733 0.8383 0.0
O62 O 0.19602 0.73829 0.84354 0.0
O63 O 0.1811 0.68448 0.82943 0.0
C64 C 0.28453 0.52487 0.83291 0.0
C65 C 0.3142 0.53731 0.82236 0.0
H66 H 0.36655 0.57209 0.80207 0.0
H67 H 0.36041 0.64035 0.79172 0.0
H68 H 0.17277 0.56178 0.86051 0.0
H69 H 0.22442 0.51253 0.85392 0.0
H70 H 0.28539 0.49515 0.83757 0.0
H71 H 0.33769 0.51712 0.81923 0.0
Mn72 Mn 0.54039 0.98029 0.09315 0.0
Mn73 Mn 0.62107 0.9563 0.07202 0.0
C74 C 0.60335 0.98993 0.10337 0.0
C75 C 0.49187 0.02408 0.10171 0.0
C76 C 0.56884 0.89538 0.08769 0.0
O77 O 0.51845 0.9777 0.07062 0.0
O78 O 0.57506 0.96288 0.0579 0.0
C79 C 0.63031 0.03125 0.05448 0.0
N80 N 0.64529 0.00354 0.06445 0.0
C81 C 0.7072 0.03793 0.06611 0.0
C82 C 0.6925 0.06679 0.05584 0.0
C83 C 0.65381 0.0635 0.05005 0.0
C84 C 0.68227 0.00667 0.07024 0.0
H85 H 0.60065 0.02874 0.04995 0.0
C86 C 0.53799 0.97034 0.05804 0.0
O87 O 0.48709 0.98619 0.10256 0.0
O88 O 0.52419 0.03672 0.09522 0.0
N89 N 0.66773 0.94972 0.08441 0.0
C90 C 0.67674 0.92043 0.09479 0.0
C91 C 0.71407 0.91995 0.10196 0.0
C92 C 0.74188 0.9492 0.0982 0.0
C93 C 0.73201 0.97881 0.08735 0.0
C94 C 0.69426 0.97801 0.08071 0.0
H95 H 0.65555 0.89771 0.09761 0.0
O96 O 0.57333 0.98581 0.11271 0.0
O97 O 0.59562 0.98754 0.08845 0.0
O98 O 0.54515 0.92018 0.09381 0.0
O99 O 0.59858 0.90561 0.0794 0.0
C100 C 0.75815 0.00908 0.08286 0.0
C101 C 0.74562 0.03891 0.07241 0.0
H102 H 0.7106 0.09162 0.05234 0.0
H103 H 0.64221 0.08569 0.04214 0.0
H104 H 0.72144 0.89702 0.11033 0.0
H105 H 0.77066 0.94872 0.10373 0.0
H106 H 0.78792 0.00987 0.08747 0.0
H107 H 0.76577 0.06245 0.0693 0.0
Mn108 Mn 0.29375 0.2695 0.34396 0.0
Mn109 Mn 0.31744 0.35056 0.32301 0.0
C110 C 0.28384 0.33231 0.35433 0.0
C111 C 0.24986 0.22079 0.35232 0.0
C112 C 0.37855 0.2981 0.33847 0.0
O113 O 0.2967 0.24787 0.32139 0.0
O114 O 0.31072 0.30482 0.30877 0.0
C115 C 0.24232 0.3602 0.30566 0.0
N116 N 0.27017 0.37498 0.3156 0.0
C117 C 0.23604 0.437 0.31743 0.0
C118 C 0.20704 0.42252 0.30718 0.0
C119 C 0.21011 0.38387 0.30133 0.0
C120 C 0.26722 0.4119 0.32146 0.0
H121 H 0.24469 0.33058 0.30108 0.0
C122 C 0.3037 0.26765 0.30883 0.0
O123 O 0.28775 0.21602 0.35325 0.0
O124 O 0.23733 0.25321 0.34589 0.0
N125 N 0.32419 0.39695 0.33553 0.0
C126 C 0.35354 0.4057 0.34591 0.0
C127 C 0.3542 0.44293 0.35317 0.0
C128 C 0.32506 0.47092 0.34948 0.0
C129 C 0.29538 0.46133 0.33864 0.0
C130 C 0.29599 0.42365 0.33193 0.0
H131 H 0.37619 0.38438 0.34867 0.0
O132 O 0.28794 0.30216 0.3636 0.0
O133 O 0.28637 0.32477 0.3394 0.0
O134 O 0.35387 0.2744 0.34467 0.0
O135 O 0.36816 0.32786 0.33022 0.0
C136 C 0.26523 0.48766 0.33422 0.0
C137 C 0.23529 0.47537 0.32378 0.0
H138 H 0.18225 0.44076 0.30375 0.0
H139 H 0.18781 0.37243 0.29344 0.0
H140 H 0.37718 0.45009 0.36153 0.0
H141 H 0.32569 0.49963 0.35507 0.0
H142 H 0.26459 0.51738 0.33888 0.0
H143 H 0.21182 0.49566 0.32073 0.0
Mn144 Mn 0.01062 0.98761 0.41196 0.0
Mn145 Mn 0.92857 0.96361 0.43222 0.0
C146 C 0.94832 0.99775 0.40113 0.0
C147 C 0.0598 0.03152 0.40408 0.0
C148 C 0.98189 0.90275 0.41706 0.0
O149 O 0.03112 0.98422 0.4347 0.0
O150 O 0.9735 0.97042 0.44685 0.0
C151 C 0.91766 0.03855 0.44957 0.0
N152 N 0.90354 0.01071 0.43948 0.0
C153 C 0.84137 0.04441 0.43725 0.0
C154 C 0.85516 0.07341 0.44765 0.0
C155 C 0.89355 0.07055 0.45378 0.0
C156 C 0.86689 0.01347 0.43334 0.0
H157 H 0.94707 0.03634 0.45437 0.0
C158 C 0.01069 0.97729 0.4471 0.0
O159 O 0.06453 0.99364 0.40312 0.0
O160 O 0.02711 0.04405 0.41029 0.0
N161 N 0.8829 0.95677 0.41928 0.0
C162 C 0.87489 0.92752 0.40876 0.0
C163 C 0.83803 0.92671 0.40122 0.0
C164 C 0.80964 0.95557 0.40476 0.0
C165 C 0.81849 0.98516 0.41574 0.0
C166 C 0.85585 0.98475 0.42273 0.0
H167 H 0.89649 0.90506 0.40613 0.0
O168 O 0.97892 0.9938 0.39209 0.0
O169 O 0.95514 0.99494 0.4161 0.0
O170 O 0.00574 0.92755 0.41103 0.0
O171 O 0.95183 0.91299 0.42516 0.0
C172 C 0.79171 0.01503 0.42004 0.0
C173 C 0.80329 0.04493 0.43063 0.0
H174 H 0.83658 0.09802 0.45099 0.0
H175 H 0.90446 0.09286 0.46179 0.0
H176 H 0.83145 0.90379 0.39274 0.0
H177 H 0.78122 0.9548 0.39894 0.0
H178 H 0.76221 0.0155 0.41516 0.0
H179 H 0.78268 0.06819 0.43358 0.0
Mn180 Mn 0.29952 0.73469 0.66258 0.0
Mn181 Mn 0.32385 0.65338 0.68325 0.0
C182 C 0.28997 0.67205 0.65202 0.0
C183 C 0.25559 0.78346 0.65436 0.0
C184 C 0.38451 0.70656 0.66788 0.0
O185 O 0.30227 0.75581 0.68524 0.0
O186 O 0.31662 0.6987 0.69767 0.0
C187 C 0.24883 0.64257 0.70058 0.0
N188 N 0.27681 0.62832 0.69057 0.0
C189 C 0.24321 0.56606 0.68846 0.0
C190 C 0.21408 0.57999 0.69878 0.0
C191 C 0.21682 0.61849 0.70481 0.0
C192 C 0.27418 0.59154 0.68454 0.0
H193 H 0.25093 0.67207 0.7053 0.0
C194 C 0.30923 0.7358 0.69774 0.0
O195 O 0.29347 0.78831 0.6535 0.0
O196 O 0.24304 0.75088 0.66068 0.0
N197 N 0.33103 0.60738 0.67053 0.0
C198 C 0.36044 0.59919 0.66009 0.0
C199 C 0.3614 0.56219 0.65266 0.0
C200 C 0.3325 0.53385 0.65622 0.0
C201 C 0.30275 0.54287 0.66711 0.0
C202 C 0.30305 0.58035 0.67401 0.0
H203 H 0.3829 0.62077 0.65743 0.0
O204 O 0.29388 0.70242 0.64284 0.0
O205 O 0.29248 0.67929 0.66697 0.0
O206 O 0.35959 0.73014 0.66179 0.0
O207 O 0.37443 0.67667 0.67612 0.0
C208 C 0.2728 0.51616 0.67141 0.0
C209 C 0.24276 0.52789 0.68192 0.0
H210 H 0.18944 0.56144 0.70213 0.0
H211 H 0.19442 0.6295 0.71276 0.0
H212 H 0.38444 0.55547 0.64425 0.0
H213 H 0.33336 0.50532 0.65049 0.0
H214 H 0.27239 0.4866 0.66659 0.0
H215 H 0.21946 0.50732 0.68487 0.0
Mn216 Mn 0.53716 0.02323 0.91287 0.0
Mn217 Mn 0.61833 0.04785 0.93354 0.0
C218 C 0.59986 0.01376 0.90235 0.0
C219 C 0.48862 0.97914 0.90459 0.0
C220 C 0.56532 0.10834 0.91804 0.0
O221 O 0.51588 0.02591 0.9355 0.0
O222 O 0.57278 0.04118 0.9479 0.0
C223 C 0.6285 0.97317 0.95117 0.0
N224 N 0.64302 1.00082 0.94107 0.0
C225 C 0.70508 0.96677 0.93916 0.0
C226 C 0.69086 0.93797 0.94958 0.0
C227 C 0.65233 0.94111 0.95555 0.0
C228 C 0.67984 0.99782 0.9351 0.0
H229 H 0.59898 0.97557 0.95586 0.0
C230 C 0.53575 0.03351 0.94797 0.0
O231 O 0.48363 0.017 0.90373 0.0
O232 O 0.52117 0.9667 0.91095 0.0
N233 N 0.66456 0.05453 0.9209 0.0
C234 C 0.67311 0.08376 0.91042 0.0
C235 C 0.71022 0.08437 0.90306 0.0
C236 C 0.73831 0.05532 0.90674 0.0
C237 C 0.72893 0.02577 0.91769 0.0
C238 C 0.69135 0.02642 0.9245 0.0
H239 H 0.65172 0.10633 0.90767 0.0
O240 O 0.56955 0.01768 0.89316 0.0
O241 O 0.59254 0.01628 0.9173 0.0
O242 O 0.54157 0.08335 0.91209 0.0
O243 O 0.59537 0.09835 0.92619 0.0
C244 C 0.75538 0.99573 0.92211 0.0
C245 C 0.74332 0.96596 0.93269 0.0
H246 H 0.70922 0.9133 0.95304 0.0
H247 H 0.6411 0.91897 0.96358 0.0
H248 H 0.71722 0.10725 0.89462 0.0
H249 H 0.76692 0.05591 0.90106 0.0
H250 H 0.78501 0.99506 0.91736 0.0
H251 H 0.76371 0.94259 0.93575 0.0
Mn252 Mn 0.25957 0.26071 0.16345 0.0
Mn253 Mn 0.23534 0.34156 0.18442 0.0
C254 C 0.26978 0.32359 0.15324 0.0
C255 C 0.30336 0.21199 0.15505 0.0
C256 C 0.17462 0.2899 0.16841 0.0
O257 O 0.25624 0.23872 0.18594 0.0
O258 O 0.24048 0.29528 0.1985 0.0
C259 C 0.30947 0.34945 0.20257 0.0
N260 N 0.28256 0.36495 0.19239 0.0
C261 C 0.31804 0.4263 0.19106 0.0
C262 C 0.3461 0.41105 0.20155 0.0
C263 C 0.34186 0.37239 0.20728 0.0
C264 C 0.28661 0.40191 0.18666 0.0
H265 H 0.30623 0.31983 0.20707 0.0
C266 C 0.24791 0.25821 0.19843 0.0
O267 O 0.26547 0.20738 0.15406 0.0
O268 O 0.31596 0.24424 0.16159 0.0
N269 N 0.23002 0.3885 0.1721 0.0
C270 C 0.20119 0.39823 0.16162 0.0
C271 C 0.20157 0.4357 0.15455 0.0
C272 C 0.23117 0.46293 0.15852 0.0
C273 C 0.26025 0.45237 0.16948 0.0
C274 C 0.25861 0.4145 0.17601 0.0
H275 H 0.17819 0.37749 0.15865 0.0
O276 O 0.26574 0.29357 0.1439 0.0
O277 O 0.26701 0.31592 0.16815 0.0
O278 O 0.19948 0.26579 0.16258 0.0
O279 O 0.18476 0.31983 0.1766 0.0
C280 C 0.29075 0.47795 0.17422 0.0
C281 C 0.31992 0.46477 0.18483 0.0
H282 H 0.37103 0.42873 0.20527 0.0
H283 H 0.36341 0.36038 0.21537 0.0
H284 H 0.17902 0.44362 0.1461 0.0
H285 H 0.23134 0.49182 0.15307 0.0
H286 H 0.29218 0.50778 0.1697 0.0
H287 H 0.34363 0.48451 0.18815 0.0
Mn288 Mn 0.80124 0.24109 0.16212 0.0
Mn289 Mn 0.82555 0.1605 0.18322 0.0
C290 C 0.79216 0.1781 0.15182 0.0
C291 C 0.75707 0.2892 0.15356 0.0
C292 C 0.88627 0.21368 0.16786 0.0
O293 O 0.80342 0.26284 0.18469 0.0
O294 O 0.81759 0.20611 0.19744 0.0
C295 C 0.7502 0.14949 0.2003 0.0
N296 N 0.77851 0.13525 0.19044 0.0
C297 C 0.74533 0.07276 0.18835 0.0
C298 C 0.71586 0.08668 0.19852 0.0
C299 C 0.71823 0.12528 0.20447 0.0
C300 C 0.77626 0.09835 0.1845 0.0
H301 H 0.752 0.17908 0.20495 0.0
C302 C 0.81003 0.24318 0.19731 0.0
O303 O 0.79491 0.29436 0.15273 0.0
O304 O 0.74468 0.25676 0.16003 0.0
N305 N 0.83337 0.1143 0.17068 0.0
C306 C 0.86305 0.10615 0.16035 0.0
C307 C 0.86438 0.06906 0.15301 0.0
C308 C 0.83556 0.0406 0.15652 0.0
C309 C 0.80551 0.0496 0.16729 0.0
C310 C 0.80546 0.08716 0.17412 0.0
H311 H 0.88543 0.12784 0.15772 0.0
O312 O 0.79613 0.20821 0.14251 0.0
O313 O 0.79442 0.18581 0.16674 0.0
O314 O 0.86138 0.2369 0.16152 0.0
O315 O 0.87612 0.18402 0.17621 0.0
C316 C 0.77558 0.0228 0.17151 0.0
C317 C 0.74525 0.0345 0.18189 0.0
H318 H 0.69124 0.06804 0.20181 0.0
H319 H 0.69556 0.13629 0.21229 0.0
H320 H 0.88764 0.06237 0.14469 0.0
H321 H 0.8367 0.01202 0.15084 0.0
H322 H 0.77541 0.99319 0.16673 0.0
H323 H 0.72197 0.01385 0.1848 0.0
Mn324 Mn 0.75754 0.75658 0.66226 0.0
Mn325 Mn 0.73272 0.83799 0.68275 0.0
C326 C 0.76695 0.81916 0.65161 0.0
C327 C 0.80175 0.70805 0.65408 0.0
C328 C 0.67236 0.78462 0.66739 0.0
O329 O 0.75489 0.7356 0.68493 0.0
O330 O 0.73933 0.79263 0.69721 0.0
C331 C 0.80726 0.8485 0.70041 0.0
N332 N 0.77967 0.86284 0.69025 0.0
C333 C 0.81361 0.92493 0.68824 0.0
C334 C 0.84236 0.91089 0.69871 0.0
C335 C 0.83924 0.87244 0.70477 0.0
C336 C 0.78265 0.89959 0.6842 0.0
H337 H 0.80486 0.81903 0.70515 0.0
C338 C 0.7471 0.75561 0.69735 0.0
O339 O 0.7639 0.70295 0.65323 0.0
O340 O 0.8141 0.74072 0.66036 0.0
N341 N 0.72607 0.88402 0.66999 0.0
C342 C 0.69696 0.89234 0.65944 0.0
C343 C 0.69638 0.92934 0.65198 0.0
C344 C 0.72533 0.95754 0.65564 0.0
C345 C 0.75477 0.94838 0.66665 0.0
C346 C 0.75411 0.91091 0.67356 0.0
H347 H 0.67446 0.87086 0.65671 0.0
O348 O 0.76304 0.78873 0.64248 0.0
O349 O 0.76439 0.81203 0.66657 0.0
O350 O 0.69741 0.76082 0.6615 0.0
O351 O 0.68229 0.81486 0.67543 0.0
C352 C 0.78472 0.97495 0.67105 0.0
C353 C 0.81441 0.96309 0.68169 0.0
H354 H 0.86697 0.92934 0.70216 0.0
H355 H 0.86133 0.86135 0.71283 0.0
H356 H 0.67359 0.93616 0.64349 0.0
H357 H 0.72476 0.98606 0.64989 0.0
H358 H 0.78539 0.00451 0.66623 0.0
H359 H 0.83773 0.98356 0.68473 0.0
Mn360 Mn 0.75216 0.25022 0.34183 0.0
Mn361 Mn 0.72736 0.1698 0.32072 0.0
C362 C 0.7614 0.18718 0.35202 0.0
C363 C 0.79629 0.29832 0.35044 0.0
C364 C 0.66697 0.22223 0.33657 0.0
O365 O 0.74979 0.27227 0.31932 0.0
O366 O 0.73376 0.21595 0.30665 0.0
C367 C 0.80184 0.1606 0.30288 0.0
N368 N 0.77441 0.1456 0.31297 0.0
C369 C 0.80894 0.08375 0.31455 0.0
C370 C 0.83752 0.09847 0.30415 0.0
C371 C 0.83402 0.13713 0.29834 0.0
C372 C 0.77774 0.10864 0.31877 0.0
H373 H 0.79918 0.19022 0.29832 0.0
C374 C 0.7418 0.2529 0.30677 0.0
O375 O 0.75844 0.30341 0.35128 0.0
O376 O 0.8087 0.26597 0.34392 0.0
N377 N 0.72096 0.12303 0.33307 0.0
C378 C 0.69176 0.11388 0.34348 0.0
C379 C 0.69143 0.07651 0.35064 0.0
C380 C 0.72073 0.04879 0.34683 0.0
C381 C 0.75022 0.05878 0.33595 0.0
C382 C 0.74927 0.09657 0.32932 0.0
H383 H 0.66901 0.13499 0.34635 0.0
O384 O 0.75744 0.21718 0.36137 0.0
O385 O 0.75901 0.19497 0.33711 0.0
O386 O 0.69202 0.24592 0.34252 0.0
O387 O 0.67688 0.19232 0.32833 0.0
C388 C 0.78049 0.03272 0.33139 0.0
C389 C 0.81011 0.04533 0.32086 0.0
H390 H 0.8623 0.08039 0.30057 0.0
H391 H 0.85597 0.14874 0.29032 0.0
H392 H 0.66858 0.06903 0.35903 0.0
H393 H 0.72037 0.01999 0.35235 0.0
H394 H 0.78142 0.00296 0.336 0.0
H395 H 0.83363 0.02523 0.31768 0.0
Mn396 Mn 0.79788 0.76299 0.84284 0.0
Mn397 Mn 0.82216 0.84412 0.82205 0.0
C398 C 0.78818 0.82572 0.85329 0.0
C399 C 0.75388 0.71434 0.85113 0.0
C400 C 0.88287 0.79132 0.83757 0.0
O401 O 0.80075 0.74158 0.82024 0.0
O402 O 0.81542 0.79852 0.80773 0.0
C403 C 0.74731 0.85417 0.80455 0.0
N404 N 0.77505 0.86875 0.81459 0.0
C405 C 0.74097 0.93079 0.8165 0.0
C406 C 0.71208 0.9165 0.80616 0.0
C407 C 0.71518 0.87795 0.80022 0.0
C408 C 0.77208 0.90559 0.82053 0.0
H409 H 0.74968 0.82462 0.7999 0.0
C410 C 0.80804 0.76142 0.80773 0.0
O411 O 0.79175 0.70947 0.85204 0.0
O412 O 0.7414 0.74685 0.84474 0.0
N413 N 0.8289 0.89038 0.83465 0.0
C414 C 0.85819 0.89896 0.84509 0.0
C415 C 0.85884 0.9361 0.85242 0.0
C416 C 0.82975 0.96416 0.84876 0.0
C417 C 0.80013 0.95473 0.83787 0.0
C418 C 0.80075 0.91715 0.83107 0.0
H419 H 0.8808 0.87759 0.84782 0.0
O420 O 0.79213 0.79546 0.86252 0.0
O421 O 0.79076 0.81832 0.83835 0.0
O422 O 0.85798 0.76763 0.84363 0.0
O423 O 0.87274 0.82121 0.82934 0.0
C424 C 0.77003 0.98116 0.83347 0.0
C425 C 0.74019 0.96905 0.82295 0.0
H426 H 0.68735 0.93483 0.80273 0.0
H427 H 0.69297 0.86667 0.79225 0.0
H428 H 0.88177 0.94313 0.86082 0.0
H429 H 0.83036 0.99279 0.85442 0.0
H430 H 0.76938 0.0108 0.83821 0.0
H431 H 0.71677 0.98941 0.81991 0.0
Mn432 Mn 0.51924 0.52204 0.09301 0.0
Mn433 Mn 0.43729 0.5471 0.07293 0.0
C434 C 0.45694 0.5128 0.10397 0.0
C435 C 0.56792 0.47765 0.10094 0.0
C436 C 0.49147 0.6073 0.08797 0.0
O437 O 0.53947 0.52468 0.07023 0.0
O438 O 0.48204 0.53993 0.05821 0.0
C439 C 0.42548 0.47243 0.05549 0.0
N440 N 0.41176 0.50029 0.06567 0.0
C441 C 0.34936 0.46706 0.06803 0.0
C442 C 0.36275 0.43805 0.05754 0.0
C443 C 0.40106 0.44066 0.05131 0.0
C444 C 0.37518 0.49777 0.07191 0.0
H445 H 0.45482 0.47445 0.0506 0.0
C446 C 0.51905 0.53217 0.05789 0.0
O447 O 0.57316 0.51549 0.10174 0.0
O448 O 0.53499 0.46542 0.09483 0.0
N449 N 0.39182 0.55429 0.08596 0.0
C450 C 0.38418 0.58355 0.09652 0.0
C451 C 0.34744 0.58459 0.10417 0.0
C452 C 0.3188 0.55595 0.10069 0.0
C453 C 0.32726 0.52634 0.08966 0.0
C454 C 0.36452 0.52651 0.08257 0.0
H455 H 0.40599 0.60583 0.09912 0.0
O456 O 0.48767 0.51658 0.11296 0.0
O457 O 0.46364 0.5154 0.08898 0.0
O458 O 0.51523 0.58219 0.09383 0.0
O459 O 0.46106 0.59745 0.08001 0.0
C460 C 0.3002 0.49668 0.08542 0.0
C461 C 0.31138 0.46678 0.07476 0.0
H462 H 0.34392 0.41361 0.05423 0.0
H463 H 0.41165 0.41835 0.04323 0.0
H464 H 0.34116 0.60752 0.11267 0.0
H465 H 0.29047 0.55689 0.10658 0.0
H466 H 0.27079 0.49639 0.09039 0.0
H467 H 0.29054 0.44369 0.07184 0.0
Mn468 Mn 0.03861 0.47541 0.59269 0.0
Mn469 Mn 0.11919 0.451 0.5716 0.0
C470 C 0.10157 0.48436 0.60301 0.0
C471 C 0.99045 0.51957 0.60124 0.0
C472 C 0.06608 0.39033 0.58702 0.0
O473 O 0.0169 0.47338 0.57012 0.0
O474 O 0.07354 0.45881 0.55739 0.0
C475 C 0.12999 0.52628 0.55445 0.0
N476 N 0.14431 0.49806 0.56433 0.0
C477 C 0.2067 0.53144 0.56639 0.0
C478 C 0.19268 0.56082 0.5562 0.0
C479 C 0.15409 0.5583 0.55025 0.0
C480 C 0.1812 0.50045 0.57027 0.0
H481 H 0.1004 0.52438 0.5498 0.0
C482 C 0.03652 0.46658 0.55751 0.0
O483 O 0.98529 0.48172 0.60203 0.0
O484 O 0.02296 0.53197 0.59483 0.0
N485 N 0.16546 0.44332 0.58412 0.0
C486 C 0.17376 0.41364 0.59443 0.0
C487 C 0.21088 0.41241 0.60175 0.0
C488 C 0.23922 0.44134 0.59822 0.0
C489 C 0.23008 0.47138 0.58746 0.0
C490 C 0.1925 0.47131 0.58066 0.0
H491 H 0.15216 0.39118 0.59707 0.0
O492 O 0.07144 0.4804 0.6123 0.0
O493 O 0.09391 0.48218 0.58808 0.0
O494 O 0.04276 0.41527 0.59327 0.0
O495 O 0.0958 0.40041 0.57869 0.0
C496 C 0.25678 0.50138 0.58322 0.0
C497 C 0.24496 0.53166 0.57284 0.0
H498 H 0.21124 0.58548 0.55289 0.0
H499 H 0.14301 0.5809 0.54241 0.0
H500 H 0.21769 0.38916 0.61005 0.0
H501 H 0.26784 0.44028 0.60388 0.0
H502 H 0.28641 0.50164 0.58798 0.0
H503 H 0.26554 0.55499 0.56992 0.0
Mn504 Mn 0.51663 0.48151 0.91227 0.0
Mn505 Mn 0.43573 0.45719 0.9332 0.0
C506 C 0.45379 0.49111 0.90193 0.0
C507 C 0.56513 0.5255 0.90385 0.0
C508 C 0.48831 0.39648 0.9176 0.0
O509 O 0.53828 0.47881 0.93483 0.0
O510 O 0.48157 0.46366 0.94742 0.0
C511 C 0.42618 0.53193 0.95082 0.0
N512 N 0.41136 0.50432 0.94078 0.0
C513 C 0.34945 0.53867 0.93902 0.0
C514 C 0.36397 0.56743 0.94937 0.0
C515 C 0.40257 0.56411 0.95524 0.0
C516 C 0.37447 0.50748 0.93491 0.0
H517 H 0.45576 0.5294 0.95542 0.0
C518 C 0.51862 0.47121 0.94736 0.0
O519 O 0.57004 0.48763 0.90297 0.0
O520 O 0.53269 0.53799 0.91028 0.0
N521 N 0.38926 0.45067 0.92071 0.0
C522 C 0.38042 0.42148 0.91027 0.0
C523 C 0.34319 0.42103 0.90301 0.0
C524 C 0.3153 0.45022 0.90675 0.0
C525 C 0.32499 0.47974 0.91765 0.0
C526 C 0.36266 0.47891 0.92437 0.0
H527 H 0.40166 0.3988 0.90747 0.0
O528 O 0.48394 0.48708 0.89265 0.0
O529 O 0.46134 0.48861 0.91685 0.0
O530 O 0.51205 0.42137 0.91156 0.0
O531 O 0.45839 0.4066 0.92581 0.0
C532 C 0.29876 0.50994 0.92212 0.0
C533 C 0.31112 0.53967 0.93264 0.0
H534 H 0.34579 0.5922 0.95286 0.0
H535 H 0.41404 0.58622 0.96322 0.0
H536 H 0.33596 0.39817 0.8946 0.0
H537 H 0.28661 0.44977 0.90114 0.0
H538 H 0.26906 0.51075 0.91744 0.0
H539 H 0.2909 0.56316 0.93574 0.0
Mn540 Mn 0.03213 0.5295 0.41319 0.0
Mn541 Mn 0.11265 0.55444 0.4342 0.0
C542 C 0.09512 0.52063 0.40288 0.0
C543 C 0.98407 0.48533 0.40457 0.0
C544 C 0.05955 0.61475 0.41864 0.0
O545 O 0.01039 0.53147 0.43575 0.0
O546 O 0.06686 0.54717 0.4484 0.0
C547 C 0.12307 0.47964 0.45173 0.0
N548 N 0.13755 0.50749 0.4417 0.0
C549 C 0.1998 0.4738 0.43984 0.0
C550 C 0.18562 0.44479 0.45017 0.0
C551 C 0.14702 0.44766 0.45609 0.0
C552 C 0.17445 0.50478 0.4358 0.0
H553 H 0.09348 0.48181 0.45637 0.0
C554 C 0.02993 0.53901 0.44831 0.0
O555 O 0.97887 0.52318 0.40384 0.0
O556 O 0.01654 0.47292 0.411 0.0
N557 N 0.15906 0.56162 0.4217 0.0
C558 C 0.16756 0.59101 0.41129 0.0
C559 C 0.20474 0.59189 0.404 0.0
C560 C 0.23293 0.56293 0.40766 0.0
C561 C 0.22358 0.5332 0.41852 0.0
C562 C 0.18595 0.53359 0.42529 0.0
H563 H 0.14608 0.6135 0.40854 0.0
O564 O 0.06502 0.52457 0.39358 0.0
O565 O 0.08744 0.52287 0.41781 0.0
O566 O 0.0361 0.58965 0.41259 0.0
O567 O 0.08948 0.6049 0.42688 0.0
C568 C 0.25011 0.50318 0.42291 0.0
C569 C 0.2381 0.47323 0.43341 0.0
H570 H 0.20407 0.42016 0.45361 0.0
H571 H 0.13582 0.42536 0.46405 0.0
H572 H 0.21171 0.61491 0.39561 0.0
H573 H 0.26158 0.56372 0.40202 0.0
H574 H 0.27977 0.50268 0.41818 0.0
H575 H 0.25856 0.4499 0.43645 0.0
C576 C 0.97963 0.17273 0.58023 0.0
C577 C 0.99917 0.14462 0.58955 0.0
C578 C 0.99046 0.21274 0.58064 0.0
C579 C 0.02133 0.22517 0.59073 0.0
C580 C 0.04022 0.19726 0.60058 0.0
C581 C 0.02906 0.15736 0.59982 0.0
C582 C 0.96966 0.24154 0.56991 0.0
C583 C 0.07287 0.20938 0.61165 0.0
C584 C 0.07568 0.31932 0.57942 0.0
C585 C 0.05687 0.34763 0.58887 0.0
C586 C 0.0648 0.27934 0.58008 0.0
C587 C 0.03463 0.26715 0.59056 0.0
C588 C 0.01641 0.2953 0.60049 0.0
C589 C 0.0276 0.33515 0.59948 0.0
C590 C 0.08485 0.25028 0.56923 0.0
C591 C 0.98451 0.28345 0.61197 0.0
H592 H 0.9566 0.16334 0.57222 0.0
H593 H 0.04426 0.13603 0.60714 0.0
H594 H 0.95719 0.26626 0.57687 0.0
H595 H 0.99111 0.25439 0.56147 0.0
H596 H 0.94543 0.22745 0.56313 0.0
H597 H 0.08296 0.18459 0.6192 0.0
H598 H 0.09843 0.22043 0.60478 0.0
H599 H 0.06281 0.23385 0.61934 0.0
H600 H 0.09824 0.32852 0.57115 0.0
H601 H 0.01298 0.35662 0.60692 0.0
H602 H 0.06281 0.23712 0.56113 0.0
H603 H 0.09791 0.22581 0.57617 0.0
H604 H 0.10851 0.26423 0.56209 0.0
H605 H 0.95856 0.27206 0.60544 0.0
H606 H 0.97481 0.30846 0.61949 0.0
H607 H 0.99515 0.25928 0.61969 0.0
C608 C 0.95383 0.80122 0.82996 0.0
C609 C 0.92559 0.78222 0.83939 0.0
C610 C 0.99379 0.79023 0.83049 0.0
C611 C 0.00603 0.75977 0.84082 0.0
C612 C 0.97797 0.74139 0.85075 0.0
C613 C 0.93813 0.75269 0.84988 0.0
C614 C 0.02274 0.81046 0.81964 0.0
C615 C 0.98988 0.70918 0.86208 0.0
C616 C 0.10007 0.70457 0.83007 0.0
C617 C 0.12836 0.72372 0.83941 0.0
C618 C 0.06012 0.71562 0.83059 0.0
C619 C 0.04796 0.74631 0.84082 0.0
C620 C 0.07607 0.76485 0.85066 0.0
C621 C 0.11589 0.75349 0.84979 0.0
C622 C 0.03111 0.6952 0.81984 0.0
C623 C 0.06423 0.79731 0.86188 0.0
H624 H 0.94457 0.82397 0.82178 0.0
H625 H 0.9167 0.73792 0.8573 0.0
H626 H 0.04741 0.8232 0.82655 0.0
H627 H 0.03565 0.78859 0.8114 0.0
H628 H 0.00879 0.83439 0.81265 0.0
H629 H 0.96497 0.69944 0.86965 0.0
H630 H 1.001 0.68332 0.85542 0.0
H631 H 0.01425 0.71953 0.86976 0.0
H632 H 0.10926 0.68164 0.82196 0.0
H633 H 0.13736 0.76839 0.85714 0.0
H634 H 0.01816 0.71693 0.81154 0.0
H635 H 0.00648 0.68258 0.82682 0.0
H636 H 0.04502 0.67115 0.8129 0.0
H637 H 0.05308 0.82303 0.85514 0.0
H638 H 0.08918 0.8072 0.86938 0.0
H639 H 0.0399 0.78713 0.86963 0.0
C640 C 0.5314 0.66222 0.09987 0.0
C641 C 0.50103 0.64995 0.08972 0.0
C642 C 0.54296 0.70199 0.10068 0.0
C643 C 0.52399 0.73026 0.09102 0.0
C644 C 0.49275 0.71829 0.08103 0.0
C645 C 0.48153 0.67839 0.08056 0.0
C646 C 0.57602 0.71362 0.11165 0.0
C647 C 0.47187 0.74748 0.07049 0.0
C648 C 0.53087 0.83996 0.10023 0.0
C649 C 0.55987 0.85263 0.08953 0.0
C650 C 0.51963 0.80011 0.10113 0.0
C651 C 0.5375 0.77218 0.091 0.0
C652 C 0.56744 0.78454 0.08045 0.0
C653 C 0.57841 0.82451 0.07991 0.0
C654 C 0.488 0.78805 0.1127 0.0
C655 C 0.58711 0.75572 0.0694 0.0
H656 H 0.54658 0.64063 0.10707 0.0
H657 H 0.45813 0.66935 0.07265 0.0
H658 H 0.60138 0.72488 0.10471 0.0
H659 H 0.56627 0.73783 0.11953 0.0
H660 H 0.5863 0.68853 0.119 0.0
H661 H 0.4475 0.73368 0.0637 0.0
H662 H 0.45959 0.772 0.07762 0.0
H663 H 0.49322 0.76055 0.06207 0.0
H664 H 0.51648 0.8613 0.1078 0.0
H665 H 0.60074 0.83388 0.07156 0.0
H666 H 0.49872 0.76356 0.12023 0.0
H667 H 0.46179 0.77706 0.10623 0.0
H668 H 0.47868 0.81286 0.12039 0.0
H669 H 0.60014 0.73093 0.07615 0.0
H670 H 0.61072 0.76976 0.06225 0.0
H671 H 0.56483 0.74298 0.06129 0.0
C672 C 0.61207 0.26066 0.34924 0.0
C673 C 0.6243 0.23127 0.33864 0.0
C674 C 0.57224 0.2718 0.35041 0.0
C675 C 0.54385 0.25342 0.34064 0.0
C676 C 0.55578 0.22312 0.33018 0.0
C677 C 0.59576 0.21228 0.32936 0.0
C678 C 0.56068 0.30385 0.36186 0.0
C679 C 0.52646 0.2029 0.3195 0.0
C680 C 0.43432 0.25927 0.35035 0.0
C681 C 0.42136 0.28909 0.34007 0.0
C682 C 0.47421 0.24803 0.35094 0.0
C683 C 0.50188 0.26674 0.34093 0.0
C684 C 0.48923 0.2975 0.33083 0.0
C685 C 0.44924 0.30843 0.33058 0.0
C686 C 0.48658 0.21549 0.36204 0.0
C687 C 0.51777 0.31812 0.31992 0.0
H688 H 0.63374 0.27541 0.35655 0.0
H689 H 0.60477 0.18964 0.3211 0.0
H690 H 0.54918 0.32973 0.35531 0.0
H691 H 0.53666 0.29332 0.36968 0.0
H692 H 0.58586 0.31361 0.36926 0.0
H693 H 0.54022 0.17911 0.31238 0.0
H694 H 0.50213 0.18999 0.32656 0.0
H695 H 0.51314 0.22482 0.31138 0.0
H696 H 0.41317 0.24423 0.35781 0.0
H697 H 0.43968 0.3314 0.32256 0.0
H698 H 0.51121 0.22565 0.36963 0.0
H699 H 0.49751 0.18986 0.35519 0.0
H700 H 0.46196 0.20547 0.3697 0.0
H701 H 0.54263 0.33073 0.32675 0.0
H702 H 0.50351 0.34222 0.31311 0.0
H703 H 0.53044 0.29652 0.3115 0.0
C704 C 0.97174 0.83195 0.42485 0.0
C705 C 0.99112 0.85999 0.41545 0.0
C706 C 0.9829 0.79202 0.4246 0.0
C707 C 0.01392 0.7796 0.41458 0.0
C708 C 0.0327 0.80744 0.40466 0.0
C709 C 0.02122 0.84726 0.40526 0.0
C710 C 0.96221 0.7633 0.43541 0.0
C711 C 0.06553 0.79532 0.39366 0.0
C712 C 0.06877 0.6859 0.42611 0.0
C713 C 0.05017 0.65738 0.4167 0.0
C714 C 0.05764 0.72581 0.42537 0.0
C715 C 0.02745 0.7377 0.41486 0.0
C716 C 0.00944 0.70933 0.40497 0.0
C717 C 0.02087 0.66957 0.40605 0.0
C718 C 0.07746 0.75511 0.43618 0.0
C719 C 0.97753 0.72086 0.39345 0.0
H720 H 0.94856 0.84135 0.4328 0.0
H721 H 0.0363 0.86853 0.39787 0.0
H722 H 0.94987 0.73841 0.4285 0.0
H723 H 0.9837 0.75067 0.44388 0.0
H724 H 0.93791 0.77737 0.44215 0.0
H725 H 0.0756 0.82006 0.38607 0.0
H726 H 0.09105 0.78443 0.40058 0.0
H727 H 0.05564 0.77072 0.386 0.0
H728 H 0.09134 0.67692 0.43441 0.0
H729 H 0.00642 0.64792 0.39864 0.0
H730 H 0.05529 0.76824 0.44424 0.0
H731 H 0.09041 0.77958 0.42921 0.0
H732 H 0.10115 0.74139 0.44336 0.0
H733 H 0.9515 0.73221 0.39994 0.0
H734 H 0.96798 0.69569 0.38599 0.0
H735 H 0.98809 0.74497 0.38568 0.0
C736 C 0.43965 0.74506 0.65542 0.0
C737 C 0.4272 0.71578 0.66604 0.0
C738 C 0.47944 0.75647 0.65448 0.0
C739 C 0.50755 0.73848 0.6645 0.0
C740 C 0.49541 0.70827 0.67497 0.0
C741 C 0.45548 0.69715 0.67556 0.0
C742 C 0.49125 0.78839 0.64301 0.0
C743 C 0.52443 0.68846 0.6859 0.0
C744 C 0.61735 0.74501 0.6554 0.0
C745 C 0.6297 0.77516 0.66563 0.0
C746 C 0.57759 0.7334 0.65464 0.0
C747 C 0.54942 0.75209 0.66442 0.0
C748 C 0.56147 0.78315 0.67449 0.0
C749 C 0.60135 0.79444 0.67492 0.0
C750 C 0.56587 0.70054 0.64358 0.0
C751 C 0.53239 0.80374 0.68517 0.0
H752 H 0.41818 0.75953 0.64793 0.0
H753 H 0.44629 0.6746 0.68383 0.0
H754 H 0.50231 0.81447 0.64954 0.0
H755 H 0.51564 0.77789 0.63537 0.0
H756 H 0.4663 0.79785 0.63541 0.0
H757 H 0.51055 0.66469 0.69301 0.0
H758 H 0.54914 0.6756 0.67905 0.0
H759 H 0.53725 0.71062 0.69404 0.0
H760 H 0.63886 0.73001 0.64811 0.0
H761 H 0.61046 0.81766 0.6829 0.0
H762 H 0.5415 0.71038 0.6358 0.0
H763 H 0.55482 0.67499 0.65046 0.0
H764 H 0.59086 0.69051 0.63613 0.0
H765 H 0.50771 0.81607 0.67815 0.0
H766 H 0.54622 0.82804 0.69199 0.0
H767 H 0.51953 0.78219 0.69357 0.0
C768 C 0.47835 0.32554 0.92523 0.0
C769 C 0.49745 0.35375 0.91581 0.0
C770 C 0.4894 0.28559 0.92477 0.0
C771 C 0.52003 0.27333 0.91452 0.0
C772 C 0.5385 0.30136 0.90459 0.0
C773 C 0.52714 0.34118 0.9054 0.0
C774 C 0.46906 0.25668 0.9356 0.0
C775 C 0.57088 0.28941 0.89335 0.0
C776 C 0.57513 0.17939 0.9255 0.0
C777 C 0.55612 0.15103 0.91615 0.0
C778 C 0.56407 0.21934 0.92491 0.0
C779 C 0.53353 0.23142 0.9146 0.0
C780 C 0.51513 0.20322 0.90474 0.0
C781 C 0.52649 0.16341 0.90568 0.0
C782 C 0.58433 0.24844 0.93567 0.0
C783 C 0.48283 0.21497 0.89343 0.0
H784 H 0.45548 0.33481 0.93335 0.0
H785 H 0.54198 0.36259 0.898 0.0
H786 H 0.45645 0.23195 0.92869 0.0
H787 H 0.49084 0.24385 0.9439 0.0
H788 H 0.44502 0.27065 0.94252 0.0
H789 H 0.58068 0.31428 0.88578 0.0
H790 H 0.59667 0.27839 0.90008 0.0
H791 H 0.56068 0.26496 0.88568 0.0
H792 H 0.59795 0.17026 0.93367 0.0
H793 H 0.51171 0.14188 0.89833 0.0
H794 H 0.56248 0.26143 0.9439 0.0
H795 H 0.59702 0.27303 0.92869 0.0
H796 H 0.6083 0.23459 0.94267 0.0
H797 H 0.45701 0.22615 0.9001 0.0
H798 H 0.47307 0.18996 0.88593 0.0
H799 H 0.49311 0.23926 0.88569 0.0
C800 C 0.11938 0.25138 0.15604 0.0
C801 C 0.13188 0.28113 0.16643 0.0
C802 C 0.07951 0.24024 0.1551 0.0
C803 C 0.05136 0.25901 0.16488 0.0
C804 C 0.06355 0.28974 0.17508 0.0
C805 C 0.10355 0.30056 0.17567 0.0
C806 C 0.06766 0.20773 0.14392 0.0
C807 C 0.03449 0.31041 0.18574 0.0
C808 C 0.94162 0.2525 0.15567 0.0
C809 C 0.92898 0.22303 0.16617 0.0
C810 C 0.98145 0.26387 0.15486 0.0
C811 C 0.0094 0.24563 0.16487 0.0
C812 C 0.99707 0.21528 0.17524 0.0
C813 C 0.95712 0.20422 0.17571 0.0
C814 C 0.99348 0.29597 0.14349 0.0
C815 C 0.02591 0.19519 0.18616 0.0
H816 H 0.14088 0.23627 0.14877 0.0
H817 H 0.11276 0.32348 0.18377 0.0
H818 H 0.05647 0.18206 0.15069 0.0
H819 H 0.04335 0.21787 0.13616 0.0
H820 H 0.09262 0.19776 0.13643 0.0
H821 H 0.0484 0.33459 0.19261 0.0
H822 H 0.00991 0.32291 0.17871 0.0
H823 H 0.02149 0.28886 0.1941 0.0
H824 H 0.92028 0.26713 0.14817 0.0
H825 H 0.9478 0.18151 0.18389 0.0
H826 H 0.01784 0.2855 0.13584 0.0
H827 H 0.00465 0.32186 0.15012 0.0
H828 H 0.96862 0.30572 0.13591 0.0
H829 H 0.05057 0.18225 0.1793 0.0
H830 H 0.01186 0.17143 0.19322 0.0
H831 H 0.03884 0.21718 0.19434 0.0
C832 C 0.06368 1.0009 0.46582 0.0
C833 C 0.02915 0.9792 0.46295 0.0
C834 C 0.07615 0.00866 0.48137 0.0
C835 C 0.05317 0.99491 0.49422 0.0
C836 C 0.02033 0.97018 0.49129 0.0
C837 C 0.00906 0.9624 0.47577 0.0
C838 C 0.11228 0.03378 0.48394 0.0
C839 C 0.99478 0.95466 0.50453 0.0
C840 C 0.06838 0.99692 0.53831 0.0
C841 C 0.0423 0.02737 0.54235 0.0
C842 C 0.07675 0.98874 0.52238 0.0
C843 C 0.05817 0.01126 0.51041 0.0
C844 C 0.03598 0.04503 0.51461 0.0
C845 C 0.02845 0.05268 0.53052 0.0
C846 C 0.10218 0.95367 0.51838 0.0
C847 C 0.01594 0.07032 0.50234 0.0
H848 H 0.07973 0.01363 0.45601 0.0
H849 H 0.98293 0.9447 0.4737 0.0
H850 H 0.10341 0.06522 0.48467 0.0
H851 H 0.12755 0.02589 0.49506 0.0
H852 H 0.13334 0.03074 0.47398 0.0
H853 H 0.97182 0.93383 0.50029 0.0
H854 H 0.01308 0.93929 0.51344 0.0
H855 H 0.97983 0.97963 0.51052 0.0
H856 H 0.07946 0.97745 0.54743 0.0
H857 H 0.00891 0.07678 0.53366 0.0
H858 H 0.11968 0.95923 0.50755 0.0
H859 H 0.08311 0.92765 0.51618 0.0
H860 H 0.12255 0.94631 0.5282 0.0
H861 H 0.03684 0.07813 0.49279 0.0
H862 H 0.00386 0.09799 0.50743 0.0
H863 H 0.99125 0.05355 0.49696 0.0
C864 C 0.27812 0.79152 0.78871 0.0
C865 C 0.24875 0.76367 0.79213 0.0
C866 C 0.28807 0.80029 0.77296 0.0
C867 C 0.26849 0.78033 0.76054 0.0
C868 C 0.23576 0.75589 0.76403 0.0
C869 C 0.22622 0.74808 0.77976 0.0
C870 C 0.32189 0.828 0.76972 0.0
C871 C 0.21364 0.73417 0.75125 0.0
C872 C 0.28218 0.78762 0.71619 0.0
C873 C 0.30611 0.75451 0.71351 0.0
C874 C 0.27261 0.79938 0.73167 0.0
C875 C 0.28685 0.77709 0.74462 0.0
C876 C 0.31398 0.74607 0.74192 0.0
C877 C 0.32348 0.73548 0.72645 0.0
C878 C 0.24497 0.8337 0.73403 0.0
C879 C 0.33014 0.72137 0.75528 0.0
H880 H 0.29542 0.80398 0.79822 0.0
H881 H 0.20287 0.7272 0.78237 0.0
H882 H 0.34943 0.81072 0.76825 0.0
H883 H 0.31689 0.84493 0.75871 0.0
H884 H 0.3263 0.84897 0.77961 0.0
H885 H 0.18643 0.71982 0.75577 0.0
H886 H 0.20534 0.7546 0.74161 0.0
H887 H 0.23294 0.71101 0.74614 0.0
H888 H 0.26897 0.80283 0.70628 0.0
H889 H 0.34283 0.71048 0.72451 0.0
H890 H 0.25148 0.8496 0.74515 0.0
H891 H 0.2142 0.82267 0.73467 0.0
H892 H 0.2468 0.85481 0.72404 0.0
H893 H 0.34306 0.7405 0.76452 0.0
H894 H 0.35314 0.7003 0.75127 0.0
H895 H 0.30584 0.70426 0.76078 0.0
C896 C 0.53601 0.9531 0.02965 0.0
C897 C 0.51882 0.97313 0.04237 0.0
C898 C 0.5264 0.96261 0.01409 0.0
C899 C 0.49832 0.9926 0.01109 0.0
C900 C 0.47729 0.00949 0.02386 0.0
C901 C 0.488 0.99976 0.03944 0.0
C902 C 0.54956 0.94346 1.00092 0.0
C903 C 0.44587 0.04023 0.02117 0.0
C904 C 0.53458 0.05095 0.97635 0.0
C905 C 0.51711 0.03071 0.96374 0.0
C906 C 0.52562 0.04142 0.99197 0.0
C907 C 0.49792 0.01119 0.99516 0.0
C908 C 0.47656 0.99408 0.98253 0.0
C909 C 0.48662 0.00384 0.96688 0.0
C910 C 0.54911 0.0608 0.00498 0.0
C911 C 0.4455 0.96309 0.98543 0.0
H912 H 0.55918 0.93173 0.03184 0.0
H913 H 0.47423 0.01507 0.04921 0.0
H914 H 0.52944 0.93267 0.99159 0.0
H915 H 0.56957 0.96555 0.9955 0.0
H916 H 0.56767 0.91827 0.00514 0.0
H917 H 0.42478 0.04129 0.03118 0.0
H918 H 0.45988 0.06968 0.02012 0.0
H919 H 0.42932 0.03441 0.01014 0.0
H920 H 0.55749 0.0725 0.974 0.0
H921 H 0.47263 0.98837 0.9572 0.0
H922 H 0.56955 0.0389 0.01028 0.0
H923 H 0.52926 0.0714 0.01445 0.0
H924 H 0.56681 0.08616 1.00065 0.0
H925 H 0.4598 0.93377 0.98642 0.0
H926 H 0.42406 0.96179 0.97554 0.0
H927 H 0.4293 0.96883 0.99655 0.0
C928 C 0.2261 0.25469 0.22623 0.0
C929 C 0.24941 0.23907 0.2141 0.0
C930 C 0.23444 0.24666 0.24205 0.0
C931 C 0.26673 0.22197 0.24586 0.0
C932 C 0.28697 0.20189 0.23363 0.0
C933 C 0.27825 0.21091 0.21779 0.0
C934 C 0.21161 0.2685 0.25461 0.0
C935 C 0.32024 0.1738 0.23722 0.0
C936 C 0.31991 0.26704 0.28031 0.0
C937 C 0.3015 0.2485 0.29313 0.0
C938 C 0.31139 0.25612 0.2648 0.0
C939 C 0.28419 0.22525 0.26193 0.0
C940 C 0.26893 0.20339 0.27482 0.0
C941 C 0.27753 0.21548 0.29034 0.0
C942 C 0.32865 0.28038 0.25151 0.0
C943 C 0.24123 0.16918 0.27231 0.0
H944 H 0.20312 0.27579 0.2234 0.0
H945 H 0.29612 0.19838 0.20846 0.0
H946 H 0.20244 0.24809 0.26412 0.0
H947 H 0.23075 0.29145 0.25996 0.0
H948 H 0.18488 0.28315 0.24981 0.0
H949 H 0.32494 0.15269 0.22738 0.0
H950 H 0.34792 0.19073 0.23889 0.0
H951 H 0.31441 0.15702 0.2482 0.0
H952 H 0.33933 0.29193 0.28235 0.0
H953 H 0.26353 0.20063 0.30018 0.0
H954 H 0.30486 0.29749 0.24568 0.0
H955 H 0.34212 0.26093 0.2425 0.0
H956 H 0.35149 0.30142 0.25569 0.0
H957 H 0.21052 0.18032 0.27156 0.0
H958 H 0.24271 0.14805 0.2823 0.0
H959 H 0.24798 0.15328 0.26121 0.0
C960 C 0.82306 0.24357 0.22612 0.0
C961 C 0.80618 0.26224 0.21299 0.0
C962 C 0.81273 0.25434 0.24147 0.0
C963 C 0.78527 0.28523 0.24388 0.0
C964 C 0.77154 0.30721 0.23076 0.0
C965 C 0.78192 0.29525 0.2154 0.0
C966 C 0.82838 0.22995 0.25502 0.0
C967 C 0.74359 0.34141 0.23281 0.0
C968 C 0.72312 0.25617 0.27858 0.0
C969 C 0.74503 0.27188 0.2911 0.0
C970 C 0.73332 0.26397 0.26292 0.0
C971 C 0.76608 0.28855 0.25964 0.0
C972 C 0.78496 0.3087 0.27219 0.0
C973 C 0.77438 0.29991 0.28787 0.0
C974 C 0.71192 0.24205 0.25 0.0
C975 C 0.81872 0.33664 0.26917 0.0
H976 H 0.84266 0.21866 0.2244 0.0
H977 H 0.76907 0.31019 0.20534 0.0
H978 H 0.84078 0.24929 0.2643 0.0
H979 H 0.8039 0.21282 0.26039 0.0
H980 H 0.85166 0.20891 0.25124 0.0
H981 H 0.74603 0.3625 0.22284 0.0
H982 H 0.71285 0.33026 0.23311 0.0
H983 H 0.74926 0.35737 0.244 0.0
H984 H 0.69977 0.23516 0.28104 0.0
H985 H 0.7912 0.3125 0.29749 0.0
H986 H 0.7316 0.21899 0.24504 0.0
H987 H 0.70393 0.26238 0.24028 0.0
H988 H 0.68461 0.22753 0.25433 0.0
H989 H 0.84646 0.31956 0.26793 0.0
H990 H 0.82249 0.35772 0.27907 0.0
H991 H 0.81412 0.35344 0.2581 0.0
C992 C 0.77757 0.70782 0.71654 0.0
C993 C 0.74967 0.73716 0.71315 0.0
C994 C 0.78709 0.69848 0.73228 0.0
C995 C 0.76862 0.71938 0.74473 0.0
C996 C 0.73737 0.7457 0.74127 0.0
C997 C 0.72818 0.75401 0.72555 0.0
C998 C 0.81928 0.66886 0.73548 0.0
C999 C 0.71649 0.76857 0.75408 0.0
C1000 C 0.77999 0.71068 0.78909 0.0
C1001 C 0.8054 0.74253 0.79199 0.0
C1002 C 0.77067 0.6995 0.77353 0.0
C1003 C 0.78675 0.72108 0.76072 0.0
C1004 C 0.81546 0.75049 0.76368 0.0
C1005 C 0.82459 0.76055 0.77924 0.0
C1006 C 0.74128 0.6668 0.77089 0.0
C1007 C 0.83366 0.77431 0.75049 0.0
H1008 H 0.79404 0.69434 0.70701 0.0
H1009 H 0.70588 0.77604 0.72299 0.0
H1010 H 0.84783 0.6845 0.7368 0.0
H1011 H 0.81354 0.65237 0.74654 0.0
H1012 H 0.82223 0.64754 0.72561 0.0
H1013 H 0.69039 0.78481 0.74955 0.0
H1014 H 0.70668 0.74852 0.76362 0.0
H1015 H 0.73719 0.79027 0.75933 0.0
H1016 H 0.76534 0.69626 0.79888 0.0
H1017 H 0.84506 0.78454 0.78138 0.0
H1018 H 0.74775 0.65043 0.75986 0.0
H1019 H 0.71127 0.67956 0.76984 0.0
H1020 H 0.74112 0.64574 0.78091 0.0
H1021 H 0.84557 0.75457 0.74124 0.0
H1022 H 0.85787 0.79372 0.75469 0.0
H1023 H 0.81071 0.79312 0.74495 0.0
C1024 C 0.52096 0.45254 0.97559 0.0
C1025 C 0.53763 0.47371 0.96305 0.0
C1026 C 0.53011 0.46162 0.99124 0.0
C1027 C 0.55707 0.49245 0.9945 0.0
C1028 C 0.57767 0.51061 0.98189 0.0
C1029 C 0.56751 0.5012 0.96623 0.0
C1030 C 0.50751 0.44109 0.00423 0.0
C1031 C 0.60789 0.54236 0.98486 0.0
C1032 C 0.51863 0.54885 0.02941 0.0
C1033 C 0.53706 0.52935 0.04199 0.0
C1034 C 0.5277 0.53964 0.01376 0.0
C1035 C 0.5565 0.5105 0.01052 0.0
C1036 C 0.57851 0.49403 0.02312 0.0
C1037 C 0.56834 0.50345 0.03879 0.0
C1038 C 0.50344 0.55825 1.0008 0.0
C1039 C 0.61059 0.46413 0.02016 0.0
H1040 H 0.4985 0.43056 0.9732 0.0
H1041 H 0.58084 0.51743 0.95659 0.0
H1042 H 0.52784 0.43094 0.01361 0.0
H1043 H 0.48639 0.46211 0.00965 0.0
H1044 H 0.49065 0.41524 0.99983 0.0
H1045 H 0.62871 0.54513 0.97481 0.0
H1046 H 0.59273 0.57111 0.98637 0.0
H1047 H 0.62489 0.53629 0.99577 0.0
H1048 H 0.49508 0.56967 0.03179 0.0
H1049 H 0.58305 0.48854 0.04843 0.0
H1050 H 0.48394 0.53563 0.99544 0.0
H1051 H 0.52284 0.56984 0.99136 0.0
H1052 H 0.48469 0.58279 0.00519 0.0
H1053 H 0.59727 0.43435 0.01915 0.0
H1054 H 0.6321 0.46347 0.03003 0.0
H1055 H 0.62654 0.47049 0.00903 0.0
C1056 C 0.03579 0.45334 0.52873 0.0
C1057 C 0.01755 0.47076 0.54183 0.0
C1058 C 0.0256 0.4642 0.51336 0.0
C1059 C 0.9958 0.49283 0.51093 0.0
C1060 C 0.97405 0.5071 0.52402 0.0
C1061 C 0.98539 0.49611 0.53939 0.0
C1062 C 0.04965 0.44791 0.49984 0.0
C1063 C 0.94094 0.53631 0.52193 0.0
C1064 C 0.02766 0.55557 0.47675 0.0
C1065 C 0.01117 0.53505 0.46401 0.0
C1066 C 0.0195 0.54466 0.49231 0.0
C1067 C 0.99369 0.51267 0.49527 0.0
C1068 C 0.973 0.4952 0.48253 0.0
C1069 C 0.9822 0.50643 0.46696 0.0
C1070 C 0.04212 0.56451 0.50544 0.0
C1071 C 0.94386 0.46229 0.48522 0.0
H1072 H 0.06003 0.43294 0.53048 0.0
H1073 H 0.97079 0.50941 0.54944 0.0
H1074 H 0.03005 0.4367 0.4904 0.0
H1075 H 0.06802 0.47177 0.49469 0.0
H1076 H 0.06949 0.42358 0.5036 0.0
H1077 H 0.91984 0.5349 0.53193 0.0
H1078 H 0.95327 0.5666 0.5215 0.0
H1079 H 0.92471 0.53102 0.51078 0.0
H1080 H 0.0494 0.57838 0.47454 0.0
H1081 H 0.96901 0.49068 0.45718 0.0
H1082 H 0.0642 0.54363 0.51031 0.0
H1083 H 0.02199 0.57295 0.51516 0.0
H1084 H 0.05789 0.59135 0.50134 0.0
H1085 H 0.95992 0.43387 0.48611 0.0
H1086 H 0.92261 0.45999 0.4753 0.0
H1087 H 0.92728 0.46671 0.49635 0.0
C1088 C 0.24151 0.83699 0.63505 0.0
C1089 C 0.22824 0.81236 0.64722 0.0
C1090 C 0.21562 0.86278 0.62728 0.0
C1091 C 0.1757 0.86484 0.63211 0.0
C1092 C 0.16232 0.84065 0.64465 0.0
C1093 C 0.18865 0.81422 0.6519 0.0
C1094 C 0.23085 0.88733 0.61373 0.0
C1095 C 0.12026 0.84279 0.65042 0.0
C1096 C 0.12014 0.9584 0.62132 0.0
C1097 C 0.09649 0.94558 0.60878 0.0
C1098 C 0.14549 0.93227 0.62919 0.0
C1099 C 0.14813 0.89259 0.6241 0.0
C1100 C 0.12489 0.87967 0.61122 0.0
C1101 C 0.09886 0.9062 0.60386 0.0
C1102 C 0.16901 0.94698 0.6431 0.0
C1103 C 0.12769 0.8379 0.60516 0.0
H1104 H 0.272 0.83529 0.63125 0.0
H1105 H 0.17835 0.79524 0.66132 0.0
H1106 H 0.21331 0.88116 0.60298 0.0
H1107 H 0.2274 0.91915 0.61642 0.0
H1108 H 0.26242 0.88141 0.61114 0.0
H1109 H 0.1149 0.82308 0.66066 0.0
H1110 H 0.11301 0.87351 0.65389 0.0
H1111 H 0.09975 0.83442 0.64082 0.0
H1112 H 0.11801 0.98872 0.62529 0.0
H1113 H 0.08063 0.89623 0.59416 0.0
H1114 H 0.20102 0.94403 0.64069 0.0
H1115 H 0.16239 0.92876 0.65364 0.0
H1116 H 0.16258 0.97833 0.64591 0.0
H1117 H 0.15864 0.83109 0.60187 0.0
H1118 H 0.10854 0.83285 0.59473 0.0
H1119 H 0.11904 0.81686 0.61455 0.0
C1120 C 0.31465 0.84339 0.87115 0.0
C1121 C 0.3277 0.81943 0.85874 0.0
C1122 C 0.34066 0.8688 0.87903 0.0
C1123 C 0.38046 0.87121 0.87409 0.0
C1124 C 0.39364 0.84765 0.86133 0.0
C1125 C 0.36721 0.82155 0.85396 0.0
C1126 C 0.32566 0.89265 0.89282 0.0
C1127 C 0.43557 0.85019 0.85542 0.0
C1128 C 0.43578 0.96474 0.88503 0.0
C1129 C 0.45998 0.95167 0.89737 0.0
C1130 C 0.41029 0.93871 0.8772 0.0
C1131 C 0.40807 0.89887 0.88212 0.0
C1132 C 0.43184 0.88569 0.89481 0.0
C1133 C 0.458 0.91215 0.90213 0.0
C1134 C 0.38621 0.95371 0.86348 0.0
C1135 C 0.42948 0.84373 0.90069 0.0
H1136 H 0.28422 0.84146 0.87501 0.0
H1137 H 0.37735 0.80308 0.84436 0.0
H1138 H 0.34362 0.88623 0.90344 0.0
H1139 H 0.32872 0.92461 0.8903 0.0
H1140 H 0.29423 0.88633 0.89554 0.0
H1141 H 0.44082 0.8308 0.84509 0.0
H1142 H 0.44255 0.88105 0.85206 0.0
H1143 H 0.45634 0.84169 0.86492 0.0
H1144 H 0.4376 0.99518 0.88118 0.0
H1145 H 0.47666 0.902 0.91167 0.0
H1146 H 0.3543 0.95045 0.86605 0.0
H1147 H 0.39261 0.93589 0.85282 0.0
H1148 H 0.39232 0.9852 0.8608 0.0
H1149 H 0.39867 0.8366 0.90407 0.0
H1150 H 0.44894 0.83851 0.91101 0.0
H1151 H 0.43803 0.82303 0.89117 0.0
C1152 C 0.43911 0.03813 0.12138 0.0
C1153 C 0.4632 0.05138 0.10903 0.0
C1154 C 0.41355 0.064 0.12927 0.0
C1155 C 0.41116 0.10387 0.1244 0.0
C1156 C 0.43483 0.11724 0.11171 0.0
C1157 C 0.46105 0.09094 0.10433 0.0
C1158 C 0.38957 0.04879 0.14299 0.0
C1159 C 0.43232 0.15925 0.10589 0.0
C1160 C 0.31768 0.15928 0.13541 0.0
C1161 C 0.33073 0.18328 0.1478 0.0
C1162 C 0.34368 0.13379 0.12754 0.0
C1163 C 0.38348 0.13138 0.13249 0.0
C1164 C 0.39663 0.15493 0.14524 0.0
C1165 C 0.37021 0.18108 0.1526 0.0
C1166 C 0.32871 0.10992 0.11377 0.0
C1167 C 0.43855 0.1524 0.15115 0.0
H1168 H 0.44105 0.00766 0.12519 0.0
H1169 H 0.47962 0.10124 0.09477 0.0
H1170 H 0.39597 0.06652 0.15367 0.0
H1171 H 0.35764 0.05199 0.14046 0.0
H1172 H 0.39578 0.01729 0.14561 0.0
H1173 H 0.45174 0.16464 0.09557 0.0
H1174 H 0.40148 0.1663 0.10254 0.0
H1175 H 0.44082 0.17989 0.11544 0.0
H1176 H 0.28728 0.16125 0.13153 0.0
H1177 H 0.38036 0.19958 0.16219 0.0
H1178 H 0.33198 0.07797 0.11625 0.0
H1179 H 0.34654 0.11651 0.10312 0.0
H1180 H 0.29722 0.11607 0.1111 0.0
H1181 H 0.44561 0.12151 0.15444 0.0
H1182 H 0.44374 0.17165 0.16153 0.0
H1183 H 0.45932 0.16109 0.14167 0.0
C1184 C 0.1137 0.046 0.38496 0.0
C1185 C 0.08893 0.05897 0.39713 0.0
C1186 C 0.1396 0.07209 0.37734 0.0
C1187 C 0.14164 0.11188 0.38233 0.0
C1188 C 0.11733 0.12493 0.39488 0.0
C1189 C 0.0908 0.09843 0.40198 0.0
C1190 C 0.16426 0.05722 0.36377 0.0
C1191 C 0.11944 0.16683 0.40083 0.0
C1192 C 0.23518 0.16794 0.37189 0.0
C1193 C 0.22239 0.19198 0.35945 0.0
C1194 C 0.20905 0.14226 0.3796 0.0
C1195 C 0.16942 0.13969 0.37445 0.0
C1196 C 0.15654 0.16333 0.36167 0.0
C1197 C 0.18306 0.18967 0.35448 0.0
C1198 C 0.22371 0.11835 0.39342 0.0
C1199 C 0.11483 0.16064 0.35555 0.0
H1200 H 0.112 0.01562 0.38103 0.0
H1201 H 0.07171 0.1085 0.4114 0.0
H1202 H 0.15812 0.07501 0.35307 0.0
H1203 H 0.19606 0.06067 0.36649 0.0
H1204 H 0.15842 0.0257 0.36106 0.0
H1205 H 0.09971 0.17189 0.41109 0.0
H1206 H 0.15015 0.17401 0.40434 0.0
H1207 H 0.11106 0.1876 0.39131 0.0
H1208 H 0.26546 0.17001 0.37591 0.0
H1209 H 0.17312 0.2082 0.34486 0.0
H1210 H 0.22077 0.0864 0.39088 0.0
H1211 H 0.20544 0.12467 0.40398 0.0
H1212 H 0.25505 0.12471 0.39628 0.0
H1213 H 0.10807 0.12976 0.35215 0.0
H1214 H 0.10985 0.18003 0.34519 0.0
H1215 H 0.09371 0.16904 0.36494 0.0
C1216 C 0.89145 1.00251 0.38241 0.0
C1217 C 0.91283 0.01789 0.39507 0.0
C1218 C 0.8603 0.02406 0.37561 0.0
C1219 C 0.85229 0.06297 0.38087 0.0
C1220 C 0.87327 0.078 0.39401 0.0
C1221 C 0.90289 0.05505 0.40106 0.0
C1222 C 0.83681 0.00541 0.36257 0.0
C1223 C 0.86604 0.11919 0.40011 0.0
C1224 C 0.81866 0.1417 0.35194 0.0
C1225 C 0.78125 0.15125 0.35779 0.0
C1226 C 0.84135 0.11169 0.35886 0.0
C1227 C 0.82576 0.08985 0.37169 0.0
C1228 C 0.78658 0.09744 0.37673 0.0
C1229 C 0.76534 0.12904 0.37012 0.0
C1230 C 0.88287 0.10501 0.35302 0.0
C1231 C 0.7673 0.07305 0.38936 0.0
H1232 H 0.89909 0.97365 0.37783 0.0
H1233 H 0.91974 0.06703 0.4108 0.0
H1234 H 0.84876 0.01524 0.35107 0.0
H1235 H 0.83859 0.9727 0.363 0.0
H1236 H 0.80536 0.01428 0.36331 0.0
H1237 H 0.88498 0.12643 0.41039 0.0
H1238 H 0.87184 0.141 0.39063 0.0
H1239 H 0.83478 0.12247 0.4037 0.0
H1240 H 0.83104 0.1592 0.34245 0.0
H1241 H 0.7363 0.13639 0.3746 0.0
H1242 H 0.88658 0.07393 0.34926 0.0
H1243 H 0.90416 0.11056 0.36271 0.0
H1244 H 0.89047 0.12446 0.34293 0.0
H1245 H 0.77658 0.04176 0.38847 0.0
H1246 H 0.73462 0.07449 0.38857 0.0
H1247 H 0.77613 0.08457 0.40104 0.0
C1248 C 0.64905 0.04702 0.10319 0.0
C1249 C 0.63925 0.00979 0.10916 0.0
C1250 C 0.67912 0.06971 0.11006 0.0
C1251 C 0.70065 0.05437 0.123 0.0
C1252 C 0.69278 0.01538 0.1282 0.0
C1253 C 0.66122 0.99408 0.1216 0.0
C1254 C 0.68624 0.11097 0.104 0.0
C1255 C 0.71684 0.9964 0.141 0.0
C1256 C 0.78791 0.12022 0.13359 0.0
C1257 C 0.77224 0.14224 0.14602 0.0
C1258 C 0.76649 0.08877 0.12696 0.0
C1259 C 0.72744 0.08107 0.13213 0.0
C1260 C 0.71215 0.10266 0.14507 0.0
C1261 C 0.73495 0.1326 0.15196 0.0
C1262 C 0.78542 0.06474 0.11414 0.0
C1263 C 0.67081 0.09577 0.15109 0.0
H1264 H 0.63175 0.05925 0.09362 0.0
H1265 H 0.65369 0.96517 0.12617 0.0
H1266 H 0.68066 0.13265 0.11354 0.0
H1267 H 0.71743 0.11429 0.10031 0.0
H1268 H 0.66707 0.11835 0.0938 0.0
H1269 H 0.74827 0.00521 0.14004 0.0
H1270 H 0.70547 0.00601 0.15262 0.0
H1271 H 0.71495 0.9637 0.14048 0.0
H1272 H 0.81686 0.12764 0.12904 0.0
H1273 H 0.72274 0.14995 0.16152 0.0
H1274 H 0.77663 0.07687 0.10254 0.0
H1275 H 0.77586 0.03349 0.11481 0.0
H1276 H 0.81812 0.06585 0.1149 0.0
H1277 H 0.64922 0.10156 0.14153 0.0
H1278 H 0.6635 0.11493 0.16129 0.0
H1279 H 0.66724 0.06458 0.15474 0.0
C1280 C 0.78384 0.88335 0.87164 0.0
C1281 C 0.76818 0.86146 0.85917 0.0
C1282 C 0.76243 0.91474 0.87832 0.0
C1283 C 0.72336 0.92246 0.87319 0.0
C1284 C 0.70804 0.90096 0.86024 0.0
C1285 C 0.73087 0.87113 0.85327 0.0
C1286 C 0.78141 0.93875 0.89113 0.0
C1287 C 0.66665 0.90783 0.85428 0.0
C1288 C 0.64544 0.95658 0.90236 0.0
C1289 C 0.6356 0.99383 0.89643 0.0
C1290 C 0.67529 0.93381 0.89537 0.0
C1291 C 0.69663 0.94914 0.88237 0.0
C1292 C 0.68874 0.98815 0.8772 0.0
C1293 C 0.65734 0.0095 0.88391 0.0
C1294 C 0.68236 0.89249 0.90137 0.0
C1295 C 0.71262 0.00714 0.86435 0.0
H1296 H 0.81281 0.87591 0.87616 0.0
H1297 H 0.71867 0.85388 0.84368 0.0
H1298 H 0.77221 0.97009 0.89032 0.0
H1299 H 0.77222 0.92697 0.90274 0.0
H1300 H 0.81411 0.93727 0.89047 0.0
H1301 H 0.65925 0.88861 0.84411 0.0
H1302 H 0.64514 0.90213 0.86388 0.0
H1303 H 0.66309 0.939 0.8506 0.0
H1304 H 0.62831 0.94438 0.91199 0.0
H1305 H 0.64977 0.03842 0.87937 0.0
H1306 H 0.71355 0.88909 0.90504 0.0
H1307 H 0.67672 0.87089 0.89181 0.0
H1308 H 0.6632 0.88506 0.91157 0.0
H1309 H 0.74402 0.99819 0.86518 0.0
H1310 H 0.71088 0.03984 0.86492 0.0
H1311 H 0.70095 0.99768 0.85276 0.0
C1312 C 0.77176 0.87623 0.63297 0.0
C1313 C 0.78706 0.85476 0.64563 0.0
C1314 C 0.79333 0.90744 0.62622 0.0
C1315 C 0.83222 0.9154 0.63151 0.0
C1316 C 0.84718 0.89432 0.64464 0.0
C1317 C 0.82419 0.86466 0.65165 0.0
C1318 C 0.77473 0.93097 0.61317 0.0
C1319 C 0.88835 0.90148 0.65078 0.0
C1320 C 0.91106 0.94946 0.6027 0.0
C1321 C 0.92053 0.98681 0.60861 0.0
C1322 C 0.88103 0.92665 0.60956 0.0
C1323 C 0.85913 0.94206 0.6224 0.0
C1324 C 0.86666 0.98117 0.62751 0.0
C1325 C 0.89826 1.00253 0.62096 0.0
C1326 C 0.87435 0.88522 0.60362 0.0
C1327 C 0.8422 1.00026 0.64016 0.0
H1328 H 0.74293 0.86861 0.62835 0.0
H1329 H 0.83613 0.84772 0.66139 0.0
H1330 H 0.78386 0.91845 0.60168 0.0
H1331 H 0.74201 0.92982 0.6138 0.0
H1332 H 0.7842 0.96227 0.61369 0.0
H1333 H 0.89556 0.8824 0.66103 0.0
H1334 H 0.91019 0.89581 0.6413 0.0
H1335 H 0.89161 0.9327 0.65443 0.0
H1336 H 0.92861 0.93721 0.5932 0.0
H1337 H 0.90555 0.03153 0.62549 0.0
H1338 H 0.84332 0.88166 0.59978 0.0
H1339 H 0.87969 0.86378 0.61328 0.0
H1340 H 0.89393 0.87773 0.59356 0.0
H1341 H 0.81093 0.99089 0.63927 0.0
H1342 H 0.84355 0.03295 0.63941 0.0
H1343 H 0.85374 0.99136 0.65185 0.0
C1344 C 0.7417 0.3393 0.13301 0.0
C1345 C 0.72956 0.31751 0.14619 0.0
C1346 C 0.71552 0.36458 0.12514 0.0
C1347 C 0.6766 0.3692 0.13091 0.0
C1348 C 0.66441 0.34781 0.14442 0.0
C1349 C 0.69087 0.32164 0.15174 0.0
C1350 C 0.72934 0.38594 0.11053 0.0
C1351 C 0.62356 0.35284 0.1512 0.0
C1352 C 0.6233 0.4635 0.11941 0.0
C1353 C 0.59678 0.45 0.10794 0.0
C1354 C 0.64902 0.43743 0.12711 0.0
C1355 C 0.64898 0.39699 0.12295 0.0
C1356 C 0.62286 0.38331 0.11112 0.0
C1357 C 0.59666 0.40992 0.1039 0.0
C1358 C 0.67577 0.45306 0.13989 0.0
C1359 C 0.62267 0.34062 0.10607 0.0
H1360 H 0.77147 0.33571 0.12856 0.0
H1361 H 0.68149 0.30482 0.16193 0.0
H1362 H 0.70953 0.37899 0.10051 0.0
H1363 H 0.72802 0.41828 0.11242 0.0
H1364 H 0.76 0.37787 0.10722 0.0
H1365 H 0.61906 0.33493 0.16202 0.0
H1366 H 0.61834 0.38433 0.1541 0.0
H1367 H 0.60109 0.34414 0.14237 0.0
H1368 H 0.62321 0.49439 0.12271 0.0
H1369 H 0.57622 0.39939 0.09503 0.0
H1370 H 0.70707 0.44808 0.13665 0.0
H1371 H 0.6703 0.4369 0.15105 0.0
H1372 H 0.67139 0.48509 0.14203 0.0
H1373 H 0.65263 0.33175 0.10217 0.0
H1374 H 0.60157 0.335 0.09632 0.0
H1375 H 0.61465 0.3215 0.11618 0.0
C1376 C 0.81068 0.35035 0.37034 0.0
C1377 C 0.82377 0.32662 0.35787 0.0
C1378 C 0.8367 0.37553 0.37834 0.0
C1379 C 0.87655 0.37792 0.37344 0.0
C1380 C 0.88976 0.3546 0.36063 0.0
C1381 C 0.86331 0.32872 0.35314 0.0
C1382 C 0.82167 0.39914 0.39218 0.0
C1383 C 0.93173 0.35716 0.35477 0.0
C1384 C 0.93172 0.4712 0.38479 0.0
C1385 C 0.95572 0.45792 0.39715 0.0
C1386 C 0.9064 0.44531 0.3768 0.0
C1387 C 0.90413 0.40538 0.38159 0.0
C1388 C 0.92774 0.39195 0.39428 0.0
C1389 C 0.95375 0.41829 0.40176 0.0
C1390 C 0.88249 0.46059 0.36308 0.0
C1391 C 0.92533 0.34987 0.40002 0.0
H1392 H 0.78023 0.34842 0.37417 0.0
H1393 H 0.87347 0.31042 0.34349 0.0
H1394 H 0.83956 0.3925 0.4028 0.0
H1395 H 0.82478 0.43114 0.38976 0.0
H1396 H 0.79022 0.39281 0.39486 0.0
H1397 H 0.93702 0.33794 0.34439 0.0
H1398 H 0.93879 0.38807 0.3515 0.0
H1399 H 0.95242 0.34847 0.36427 0.0
H1400 H 0.93354 0.50173 0.38104 0.0
H1401 H 0.97226 0.40797 0.41133 0.0
H1402 H 0.85055 0.4574 0.3656 0.0
H1403 H 0.88892 0.4429 0.35239 0.0
H1404 H 0.88873 0.4921 0.36048 0.0
H1405 H 0.89451 0.34272 0.40338 0.0
H1406 H 0.94477 0.3444 0.41033 0.0
H1407 H 0.93386 0.32936 0.39044 0.0
C1408 C 0.95982 0.58653 0.60371 0.0
C1409 C 0.96195 0.54706 0.60854 0.0
C1410 C 0.93364 0.61297 0.61104 0.0
C1411 C 0.91004 0.59986 0.62379 0.0
C1412 C 0.91248 0.56009 0.6288 0.0
C1413 C 0.93797 0.53406 0.62095 0.0
C1414 C 0.93105 0.65485 0.60507 0.0
C1415 C 0.88859 0.54517 0.64259 0.0
C1416 C 0.8688 0.67755 0.6517 0.0
C1417 C 0.8293 0.6794 0.64691 0.0
C1418 C 0.89534 0.65138 0.64443 0.0
C1419 C 0.88228 0.62747 0.63177 0.0
C1420 C 0.84247 0.62956 0.62682 0.0
C1421 C 0.81634 0.65507 0.6346 0.0
C1422 C 0.93727 0.64916 0.65034 0.0
C1423 C 0.82759 0.60533 0.61313 0.0
H1424 H 0.97831 0.59661 0.5941 0.0
H1425 H 0.93992 0.50366 0.62485 0.0
H1426 H 0.9002 0.66173 0.60166 0.0
H1427 H 0.93943 0.67573 0.61454 0.0
H1428 H 0.95051 0.66006 0.59474 0.0
H1429 H 0.89497 0.51378 0.64536 0.0
H1430 H 0.89489 0.56325 0.65318 0.0
H1431 H 0.85664 0.54812 0.64004 0.0
H1432 H 0.87885 0.69631 0.66122 0.0
H1433 H 0.78593 0.65678 0.63073 0.0
H1434 H 0.95801 0.65767 0.64082 0.0
H1435 H 0.94444 0.61839 0.65377 0.0
H1436 H 0.9424 0.66872 0.66064 0.0
H1437 H 0.84546 0.61167 0.60247 0.0
H1438 H 0.79611 0.61136 0.61042 0.0
H1439 H 0.8309 0.57344 0.61574 0.0
C1440 C 0.73941 0.66131 0.87063 0.0
C1441 C 0.72641 0.68559 0.8583 0.0
C1442 C 0.71334 0.6357 0.87841 0.0
C1443 C 0.67355 0.63346 0.87344 0.0
C1444 C 0.66046 0.65732 0.86076 0.0
C1445 C 0.68694 0.68358 0.85349 0.0
C1446 C 0.72826 0.61153 0.89212 0.0
C1447 C 0.61855 0.65496 0.85483 0.0
C1448 C 0.6179 0.53997 0.88424 0.0
C1449 C 0.59379 0.55296 0.89662 0.0
C1450 C 0.64346 0.56602 0.87643 0.0
C1451 C 0.64584 0.60579 0.88142 0.0
C1452 C 0.62214 0.61888 0.89415 0.0
C1453 C 0.59592 0.59242 0.90144 0.0
C1454 C 0.66746 0.55112 0.86267 0.0
C1455 C 0.62465 0.66076 0.9001 0.0
H1456 H 0.7698 0.66314 0.87452 0.0
H1457 H 0.67685 0.70229 0.84395 0.0
H1458 H 0.71037 0.61786 0.90277 0.0
H1459 H 0.72501 0.57963 0.88953 0.0
H1460 H 0.75973 0.61762 0.89483 0.0
H1461 H 0.6134 0.67447 0.84452 0.0
H1462 H 0.61148 0.62416 0.85142 0.0
H1463 H 0.59777 0.66344 0.86433 0.0
H1464 H 0.61597 0.50959 0.88033 0.0
H1465 H 0.57733 0.60251 0.91102 0.0
H1466 H 0.69939 0.55422 0.86522 0.0
H1467 H 0.66111 0.56912 0.85205 0.0
H1468 H 0.66122 0.51969 0.85993 0.0
H1469 H 0.65549 0.66772 0.9035 0.0
H1470 H 0.6052 0.66593 0.91043 0.0
H1471 H 0.6162 0.68161 0.89062 0.0
C1472 C 0.39612 0.49553 0.8836 0.0
C1473 C 0.418 0.5111 0.89608 0.0
C1474 C 0.3647 0.51696 0.87695 0.0
C1475 C 0.35692 0.55597 0.88215 0.0
C1476 C 0.3784 0.57119 0.89512 0.0
C1477 C 0.40829 0.54835 0.90204 0.0
C1478 C 0.34072 0.49808 0.86411 0.0
C1479 C 0.37144 0.61249 0.90115 0.0
C1480 C 0.3227 0.63418 0.85312 0.0
C1481 C 0.28544 0.64391 0.85908 0.0
C1482 C 0.34549 0.60426 0.86005 0.0
C1483 C 0.3302 0.58275 0.87301 0.0
C1484 C 0.29118 0.59053 0.8782 0.0
C1485 C 0.2698 0.622 0.87155 0.0
C1486 C 0.38681 0.59729 0.85403 0.0
C1487 C 0.27223 0.56651 0.89102 0.0
H1488 H 0.40359 0.46661 0.87903 0.0
H1489 H 0.42554 0.56049 0.91165 0.0
H1490 H 0.3094 0.50739 0.86486 0.0
H1491 H 0.35266 0.5072 0.85252 0.0
H1492 H 0.34208 0.46537 0.86478 0.0
H1493 H 0.39068 0.61984 0.91133 0.0
H1494 H 0.37706 0.63414 0.89159 0.0
H1495 H 0.34028 0.61593 0.90486 0.0
H1496 H 0.33488 0.65145 0.84353 0.0
H1497 H 0.24088 0.62948 0.87611 0.0
H1498 H 0.39023 0.56614 0.85031 0.0
H1499 H 0.40842 0.60285 0.8636 0.0
H1500 H 0.39421 0.61656 0.84386 0.0
H1501 H 0.28148 0.53518 0.89025 0.0
H1502 H 0.23953 0.56794 0.89036 0.0
H1503 H 0.28135 0.57835 0.90262 0.0
C1504 C 0.1471 0.54155 0.603 0.0
C1505 C 0.13746 0.50416 0.60884 0.0
C1506 C 0.17708 0.56422 0.60994 0.0
C1507 C 0.19873 0.54866 0.62281 0.0
C1508 C 0.19104 0.50951 0.62787 0.0
C1509 C 0.15952 0.48825 0.62121 0.0
C1510 C 0.18391 0.60569 0.60406 0.0
C1511 C 0.2152 0.49031 0.64058 0.0
C1512 C 0.28575 0.61467 0.63354 0.0
C1513 C 0.27009 0.6363 0.64608 0.0
C1514 C 0.26442 0.58328 0.62682 0.0
C1515 C 0.22545 0.57527 0.63201 0.0
C1516 C 0.21017 0.59647 0.64506 0.0
C1517 C 0.2329 0.62634 0.65204 0.0
C1518 C 0.28335 0.55954 0.61391 0.0
C1519 C 0.16892 0.58922 0.6511 0.0
H1520 H 0.12972 0.55394 0.59348 0.0
H1521 H 0.15211 0.45922 0.62568 0.0
H1522 H 0.17817 0.62707 0.61369 0.0
H1523 H 0.21507 0.60935 0.60038 0.0
H1524 H 0.16468 0.61322 0.5939 0.0
H1525 H 0.21373 0.45762 0.63983 0.0
H1526 H 0.24652 0.49954 0.63975 0.0
H1527 H 0.20352 0.49925 0.65224 0.0
H1528 H 0.31464 0.62232 0.62898 0.0
H1529 H 0.2207 0.64339 0.66169 0.0
H1530 H 0.27357 0.57112 0.60235 0.0
H1531 H 0.27463 0.52808 0.61478 0.0
H1532 H 0.31604 0.56151 0.61438 0.0
H1533 H 0.14722 0.595 0.64159 0.0
H1534 H 0.16157 0.60818 0.66137 0.0
H1535 H 0.1656 0.55796 0.65469 0.0
C1536 C 0.1407 0.46347 0.40303 0.0
C1537 C 0.13099 0.50073 0.39707 0.0
C1538 C 0.17068 0.4407 0.39614 0.0
C1539 C 0.19226 0.45601 0.38319 0.0
C1540 C 0.18449 0.49504 0.37801 0.0
C1541 C 0.15297 0.5164 0.38463 0.0
C1542 C 0.17762 0.39937 0.40216 0.0
C1543 C 0.20856 0.51402 0.36521 0.0
C1544 C 0.27945 0.39003 0.37263 0.0
C1545 C 0.26384 0.3681 0.36017 0.0
C1546 C 0.25803 0.42149 0.37927 0.0
C1547 C 0.21904 0.42927 0.37407 0.0
C1548 C 0.20379 0.40776 0.36111 0.0
C1549 C 0.22659 0.37781 0.35421 0.0
C1550 C 0.27691 0.44552 0.3921 0.0
C1551 C 0.16252 0.41477 0.35505 0.0
H1552 H 0.12338 0.45126 0.41261 0.0
H1553 H 0.14551 0.54533 0.38006 0.0
H1554 H 0.17195 0.37778 0.3926 0.0
H1555 H 0.20879 0.39588 0.40584 0.0
H1556 H 0.15841 0.39202 0.41235 0.0
H1557 H 0.23986 0.50469 0.36597 0.0
H1558 H 0.19668 0.50501 0.3536 0.0
H1559 H 0.2072 0.54672 0.36591 0.0
H1560 H 0.30837 0.38257 0.37719 0.0
H1561 H 0.21443 0.36053 0.34462 0.0
H1562 H 0.26742 0.43393 0.4037 0.0
H1563 H 0.26791 0.4769 0.39121 0.0
H1564 H 0.30961 0.44383 0.39154 0.0
H1565 H 0.14085 0.40917 0.3646 0.0
H1566 H 0.15519 0.39556 0.34487 0.0
H1567 H 0.15913 0.44595 0.35135 0.0
C1568 C 0.40021 0.50807 0.12279 0.0
C1569 C 0.4215 0.49269 0.1101 0.0
C1570 C 0.36911 0.48653 0.12963 0.0
C1571 C 0.36107 0.4476 0.1244 0.0
C1572 C 0.38199 0.43255 0.11124 0.0
C1573 C 0.41152 0.45552 0.10413 0.0
C1574 C 0.3457 0.50522 0.14269 0.0
C1575 C 0.37479 0.39132 0.10517 0.0
C1576 C 0.32717 0.36895 0.15333 0.0
C1577 C 0.28979 0.35945 0.14746 0.0
C1578 C 0.34995 0.39893 0.14641 0.0
C1579 C 0.33447 0.42077 0.13358 0.0
C1580 C 0.29532 0.41321 0.12851 0.0
C1581 C 0.27401 0.38164 0.1351 0.0
C1582 C 0.39144 0.40558 0.15229 0.0
C1583 C 0.27615 0.43765 0.11587 0.0
H1584 H 0.40789 0.53693 0.12736 0.0
H1585 H 0.4283 0.44353 0.09436 0.0
H1586 H 0.35801 0.49576 0.15418 0.0
H1587 H 0.3472 0.53794 0.14214 0.0
H1588 H 0.31432 0.49608 0.1421 0.0
H1589 H 0.39379 0.38402 0.09491 0.0
H1590 H 0.38054 0.36957 0.11468 0.0
H1591 H 0.34355 0.38801 0.10157 0.0
H1592 H 0.33946 0.35146 0.16284 0.0
H1593 H 0.24498 0.37432 0.1306 0.0
H1594 H 0.3951 0.43663 0.15609 0.0
H1595 H 0.41279 0.40014 0.14261 0.0
H1596 H 0.399 0.38606 0.16236 0.0
H1597 H 0.2852 0.469 0.11689 0.0
H1598 H 0.24346 0.43598 0.11654 0.0
H1599 H 0.28536 0.42642 0.10418 0.0
loop_
_geom_bond_atom_site_label_1
_geom_bond_atom_site_label_2
_geom_bond_distance
_geom_bond_site_symmetry_2
_ccdc_geom_bond_type
Mn0 O5 2.095 . S
Mn0 O15 2.162 . S
Mn0 O16 2.297 1_545 S
Mn0 O24 2.385 1_455 S
Mn0 O25 2.209 1_455 S
Mn0 O26 2.094 . S
Mn1 O6 2.121 . S
Mn1 N8 2.257 . S
Mn1 N17 2.282 . S
Mn1 O25 2.215 . S
Mn1 O27 2.117 . S
C2 O24 1.234 . S
C2 O25 1.283 . S
C3 O15 1.281 1_565 S
C3 O16 1.236 . S
C4 O26 1.240 . S
C4 O27 1.264 1_455 S
O5 Mn0 2.095 . S
O5 C14 1.250 . S
O6 Mn1 2.121 . S
O6 C14 1.258 1_655 S
C7 N8 1.326 1_565 S
C7 C11 1.460 . S
C7 H13 0.929 . S
N8 Mn1 2.257 . S
N8 C7 1.326 1_545 S
N8 C12 1.362 . S
C9 C10 1.258 . S
C9 C12 1.431 1_565 S
C9 C29 1.447 1_565 S
C10 C9 1.258 . S
C10 C11 1.477 . S
C10 H30 0.931 . S
C11 C7 1.460 . S
C11 C10 1.477 . S
C11 H31 0.930 . S
C12 N8 1.362 . S
C12 C9 1.431 1_545 S
C12 C22 1.476 . S
H13 C7 0.929 . S
C14 O5 1.250 . S
C14 O6 1.258 1_455 S
O15 Mn0 2.162 . S
O15 C3 1.281 1_545 S
O16 Mn0 2.297 1_565 S
O16 C3 1.236 . S
N17 Mn1 2.282 . S
N17 C18 1.328 . S
N17 C22 1.318 . S
C18 N17 1.328 . S
C18 C19 1.457 . S
C18 H23 0.929 . S
C19 C18 1.457 . S
C19 C20 1.291 . S
C19 H32 0.931 . S
C20 C19 1.291 . S
C20 C21 1.373 . S
C20 H33 0.929 . S
C21 C20 1.373 . S
C21 C22 1.396 . S
C21 C28 1.403 . S
C22 C12 1.476 . S
C22 N17 1.318 . S
C22 C21 1.396 . S
H23 C18 0.929 . S
O24 Mn0 2.385 1_655 S
O24 C2 1.234 . S
O25 Mn0 2.209 1_655 S
O25 Mn1 2.215 . S
O25 C2 1.283 . S
O26 Mn0 2.094 . S
O26 C4 1.240 . S
O27 Mn1 2.117 . S
O27 C4 1.264 1_655 S
C28 C21 1.403 . S
C28 C29 1.409 . S
C28 H34 0.929 . S
C29 C9 1.447 1_545 S
C29 C28 1.409 . S
C29 H35 0.922 1_545 S
H30 C10 0.931 . S
H31 C11 0.930 . S
H32 C19 0.931 . S
H33 C20 0.929 . S
H34 C28 0.929 . S
H35 C29 0.922 1_565 S
Mn36 O41 2.095 . S
Mn36 O51 2.162 . S
Mn36 O52 2.297 . S
Mn36 O60 2.385 . S
Mn36 O61 2.209 . S
Mn36 O62 2.094 . S
Mn37 O42 2.121 . S
Mn37 N44 2.257 . S
Mn37 N53 2.282 . S
Mn37 O61 2.215 . S
Mn37 O63 2.117 . S
C38 O60 1.234 . S
C38 O61 1.283 . S
C39 O51 1.281 . S
C39 O52 1.236 . S
C40 O62 1.240 . S
C40 O63 1.264 . S
O41 Mn36 2.095 . S
O41 C50 1.250 . S
O42 Mn37 2.121 . S
O42 C50 1.258 . S
C43 N44 1.326 . S
C43 C47 1.460 . S
C43 H49 0.929 . S
N44 Mn37 2.257 . S
N44 C43 1.326 . S
N44 C48 1.362 . S
C45 C46 1.258 . S
C45 C48 1.431 . S
C45 C65 1.449 . S
C46 C45 1.258 . S
C46 C47 1.477 . S
C46 H66 0.931 . S
C47 C43 1.460 . S
C47 C46 1.477 . S
C47 H67 0.930 . S
C48 N44 1.362 . S
C48 C45 1.431 . S
C48 C58 1.476 . S
H49 C43 0.929 . S
C50 O41 1.250 . S
C50 O42 1.258 . S
O51 Mn36 2.162 . S
O51 C39 1.281 . S
O52 Mn36 2.297 . S
O52 C39 1.236 . S
N53 Mn37 2.282 . S
N53 C54 1.328 . S
N53 C58 1.318 . S
C54 N53 1.328 . S
C54 C55 1.457 . S
C54 H59 0.929 . S
C55 C54 1.457 . S
C55 C56 1.291 . S
C55 H68 0.931 . S
C56 C55 1.291 . S
C56 C57 1.373 . S
C56 H69 0.929 . S
C57 C56 1.373 . S
C57 C58 1.396 . S
C57 C64 1.403 . S
C58 C48 1.476 . S
C58 N53 1.318 . S
C58 C57 1.396 . S
H59 C54 0.929 . S
O60 Mn36 2.385 . S
O60 C38 1.234 . S
O61 Mn36 2.209 . S
O61 Mn37 2.215 . S
O61 C38 1.283 . S
O62 Mn36 2.094 . S
O62 C40 1.240 . S
O63 Mn37 2.117 . S
O63 C40 1.264 . S
C64 C57 1.403 . S
C64 C65 1.399 . S
C64 H70 0.929 . S
C65 C45 1.449 . S
C65 C64 1.399 . S
C65 H71 0.930 . S
H66 C46 0.931 . S
H67 C47 0.930 . S
H68 C55 0.931 . S
H69 C56 0.929 . S
H70 C64 0.929 . S
H71 C65 0.930 . S
Mn72 O77 2.095 . S
Mn72 O87 2.162 . S
Mn72 O88 2.297 1_565 S
Mn72 O96 2.385 . S
Mn72 O97 2.209 . S
Mn72 O98 2.094 . S
Mn73 O78 2.121 . S
Mn73 N80 2.257 . S
Mn73 N89 2.282 . S
Mn73 O97 2.215 . S
Mn73 O99 2.117 . S
C74 O96 1.234 . S
C74 O97 1.283 . S
C75 O87 1.281 1_545 S
C75 O88 1.236 . S
C76 O98 1.240 . S
C76 O99 1.264 . S
O77 Mn72 2.095 . S
O77 C86 1.250 . S
O78 Mn73 2.121 . S
O78 C86 1.258 . S
C79 N80 1.326 1_545 S
C79 C83 1.460 . S
C79 H85 0.929 . S
N80 Mn73 2.257 . S
N80 C79 1.326 1_565 S
N80 C84 1.362 . S
C81 C82 1.258 . S
C81 C84 1.431 1_545 S
C81 C101 1.447 1_545 S
C82 C81 1.258 . S
C82 C83 1.477 . S
C82 H102 0.931 . S
C83 C79 1.460 . S
C83 C82 1.477 . S
C83 H103 0.930 . S
C84 N80 1.362 . S
C84 C81 1.431 1_565 S
C84 C94 1.476 . S
H85 C79 0.929 . S
C86 O77 1.250 . S
C86 O78 1.258 . S
O87 Mn72 2.162 . S
O87 C75 1.281 1_565 S
O88 Mn72 2.297 1_545 S
O88 C75 1.236 . S
N89 Mn73 2.282 . S
N89 C90 1.328 . S
N89 C94 1.318 . S
C90 N89 1.328 . S
C90 C91 1.457 . S
C90 H95 0.929 . S
C91 C90 1.457 . S
C91 C92 1.291 . S
C91 H104 0.931 . S
C92 C91 1.291 . S
C92 C93 1.373 . S
C92 H105 0.929 . S
C93 C92 1.373 . S
C93 C94 1.396 . S
C93 C100 1.403 . S
C94 C84 1.476 . S
C94 N89 1.318 . S
C94 C93 1.396 . S
H95 C90 0.929 . S
O96 Mn72 2.385 . S
O96 C74 1.234 . S
O97 Mn72 2.209 . S
O97 Mn73 2.215 . S
O97 C74 1.283 . S
O98 Mn72 2.094 . S
O98 C76 1.240 . S
O99 Mn73 2.117 . S
O99 C76 1.264 . S
C100 C93 1.403 . S
C100 C101 1.410 . S
C100 H106 0.929 . S
C101 C81 1.447 1_565 S
C101 C100 1.410 . S
C101 H107 0.922 1_565 S
H102 C82 0.931 . S
H103 C83 0.930 . S
H104 C91 0.931 . S
H105 C92 0.929 . S
H106 C100 0.929 . S
H107 C101 0.922 1_545 S
Mn108 O113 2.095 . S
Mn108 O123 2.162 . S
Mn108 O124 2.297 . S
Mn108 O132 2.385 . S
Mn108 O133 2.209 . S
Mn108 O134 2.094 . S
Mn109 O114 2.121 . S
Mn109 N116 2.257 . S
Mn109 N125 2.282 . S
Mn109 O133 2.215 . S
Mn109 O135 2.117 . S
C110 O132 1.234 . S
C110 O133 1.283 . S
C111 O123 1.281 . S
C111 O124 1.236 . S
C112 O134 1.240 . S
C112 O135 1.264 . S
O113 Mn108 2.095 . S
O113 C122 1.250 . S
O114 Mn109 2.121 . S
O114 C122 1.258 . S
C115 N116 1.326 . S
C115 C119 1.460 . S
C115 H121 0.929 . S
N116 Mn109 2.257 . S
N116 C115 1.326 . S
N116 C120 1.362 . S
C117 C118 1.258 . S
C117 C120 1.431 . S
C117 C137 1.449 . S
C118 C117 1.258 . S
C118 C119 1.477 . S
C118 H138 0.931 . S
C119 C115 1.460 . S
C119 C118 1.477 . S
C119 H139 0.930 . S
C120 N116 1.362 . S
C120 C117 1.431 . S
C120 C130 1.476 . S
H121 C115 0.929 . S
C122 O113 1.250 . S
C122 O114 1.258 . S
O123 Mn108 2.162 . S
O123 C111 1.281 . S
O124 Mn108 2.297 . S
O124 C111 1.236 . S
N125 Mn109 2.282 . S
N125 C126 1.328 . S
N125 C130 1.318 . S
C126 N125 1.328 . S
C126 C127 1.457 . S
C126 H131 0.929 . S
C127 C126 1.457 . S
C127 C128 1.291 . S
C127 H140 0.931 . S
C128 C127 1.291 . S
C128 C129 1.373 . S
C128 H141 0.929 . S
C129 C128 1.373 . S
C129 C130 1.396 . S
C129 C136 1.403 . S
C130 C120 1.476 . S
C130 N125 1.318 . S
C130 C129 1.396 . S
H131 C126 0.929 . S
O132 Mn108 2.385 . S
O132 C110 1.234 . S
O133 Mn108 2.209 . S
O133 Mn109 2.215 . S
O133 C110 1.283 . S
O134 Mn108 2.094 . S
O134 C112 1.240 . S
O135 Mn109 2.117 . S
O135 C112 1.264 . S
C136 C129 1.403 . S
C136 C137 1.399 . S
C136 H142 0.929 . S
C137 C117 1.449 . S
C137 C136 1.399 . S
C137 H143 0.930 . S
H138 C118 0.931 . S
H139 C119 0.930 . S
H140 C127 0.931 . S
H141 C128 0.929 . S
H142 C136 0.929 . S
H143 C137 0.930 . S
Mn144 O149 2.095 . S
Mn144 O159 2.162 . S
Mn144 O160 2.297 1_565 S
Mn144 O168 2.385 1_455 S
Mn144 O169 2.209 1_455 S
Mn144 O170 2.094 . S
Mn145 O150 2.121 . S
Mn145 N152 2.257 . S
Mn145 N161 2.282 . S
Mn145 O169 2.215 . S
Mn145 O171 2.117 . S
C146 O168 1.234 . S
C146 O169 1.283 . S
C147 O159 1.281 1_545 S
C147 O160 1.236 . S
C148 O170 1.240 . S
C148 O171 1.264 1_455 S
O149 Mn144 2.095 . S
O149 C158 1.250 . S
O150 Mn145 2.121 . S
O150 C158 1.258 1_655 S
C151 N152 1.326 1_545 S
C151 C155 1.460 . S
C151 H157 0.929 . S
N152 Mn145 2.257 . S
N152 C151 1.326 1_565 S
N152 C156 1.362 . S
C153 C154 1.258 . S
C153 C156 1.431 1_545 S
C153 C173 1.447 1_545 S
C154 C153 1.258 . S
C154 C155 1.477 . S
C154 H174 0.931 . S
C155 C151 1.460 . S
C155 C154 1.477 . S
C155 H175 0.930 . S
C156 N152 1.362 . S
C156 C153 1.431 1_565 S
C156 C166 1.476 . S
H157 C151 0.929 . S
C158 O149 1.250 . S
C158 O150 1.258 1_455 S
O159 Mn144 2.162 . S
O159 C147 1.281 1_565 S
O160 Mn144 2.297 1_545 S
O160 C147 1.236 . S
N161 Mn145 2.282 . S
N161 C162 1.328 . S
N161 C166 1.318 . S
C162 N161 1.328 . S
C162 C163 1.457 . S
C162 H167 0.929 . S
C163 C162 1.457 . S
C163 C164 1.291 . S
C163 H176 0.931 . S
C164 C163 1.291 . S
C164 C165 1.373 . S
C164 H177 0.929 . S
C165 C164 1.373 . S
C165 C166 1.396 . S
C165 C172 1.403 . S
C166 C156 1.476 . S
C166 N161 1.318 . S
C166 C165 1.396 . S
H167 C162 0.929 . S
O168 Mn144 2.385 1_655 S
O168 C146 1.234 . S
O169 Mn144 2.209 1_655 S
O169 Mn145 2.215 . S
O169 C146 1.283 . S
O170 Mn144 2.094 . S
O170 C148 1.240 . S
O171 Mn145 2.117 . S
O171 C148 1.264 1_655 S
C172 C165 1.403 . S
C172 C173 1.409 . S
C172 H178 0.929 . S
C173 C153 1.447 1_565 S
C173 C172 1.409 . S
C173 H179 0.922 1_565 S
H174 C154 0.931 . S
H175 C155 0.930 . S
H176 C163 0.931 . S
H177 C164 0.929 . S
H178 C172 0.929 . S
H179 C173 0.922 1_545 S
Mn180 O185 2.095 . S
Mn180 O195 2.162 . S
Mn180 O196 2.297 . S
Mn180 O204 2.385 . S
Mn180 O205 2.209 . S
Mn180 O206 2.094 . S
Mn181 O186 2.121 . S
Mn181 N188 2.257 . S
Mn181 N197 2.282 . S
Mn181 O205 2.215 . S
Mn181 O207 2.117 . S
C182 O204 1.234 . S
C182 O205 1.283 . S
C183 O195 1.281 . S
C183 O196 1.236 . S
C184 O206 1.240 . S
C184 O207 1.264 . S
O185 Mn180 2.095 . S
O185 C194 1.250 . S
O186 Mn181 2.121 . S
O186 C194 1.258 . S
C187 N188 1.326 . S
C187 C191 1.460 . S
C187 H193 0.929 . S
N188 Mn181 2.257 . S
N188 C187 1.326 . S
N188 C192 1.362 . S
C189 C190 1.258 . S
C189 C192 1.431 . S
C189 C209 1.449 . S
C190 C189 1.258 . S
C190 C191 1.477 . S
C190 H210 0.931 . S
C191 C187 1.460 . S
C191 C190 1.477 . S
C191 H211 0.930 . S
C192 N188 1.362 . S
C192 C189 1.431 . S
C192 C202 1.476 . S
H193 C187 0.929 . S
C194 O185 1.250 . S
C194 O186 1.258 . S
O195 Mn180 2.162 . S
O195 C183 1.281 . S
O196 Mn180 2.297 . S
O196 C183 1.236 . S
N197 Mn181 2.282 . S
N197 C198 1.328 . S
N197 C202 1.318 . S
C198 N197 1.328 . S
C198 C199 1.457 . S
C198 H203 0.929 . S
C199 C198 1.457 . S
C199 C200 1.291 . S
C199 H212 0.931 . S
C200 C199 1.291 . S
C200 C201 1.373 . S
C200 H213 0.929 . S
C201 C200 1.373 . S
C201 C202 1.396 . S
C201 C208 1.403 . S
C202 C192 1.476 . S
C202 N197 1.318 . S
C202 C201 1.396 . S
H203 C198 0.929 . S
O204 Mn180 2.385 . S
O204 C182 1.234 . S
O205 Mn180 2.209 . S
O205 Mn181 2.215 . S
O205 C182 1.283 . S
O206 Mn180 2.094 . S
O206 C184 1.240 . S
O207 Mn181 2.117 . S
O207 C184 1.264 . S
C208 C201 1.403 . S
C208 C209 1.399 . S
C208 H214 0.929 . S
C209 C189 1.449 . S
C209 C208 1.399 . S
C209 H215 0.930 . S
H210 C190 0.931 . S
H211 C191 0.930 . S
H212 C199 0.931 . S
H213 C200 0.929 . S
H214 C208 0.929 . S
H215 C209 0.930 . S
Mn216 O221 2.095 . S
Mn216 O231 2.162 . S
Mn216 O232 2.297 1_545 S
Mn216 O240 2.385 . S
Mn216 O241 2.209 . S
Mn216 O242 2.094 . S
Mn217 O222 2.121 . S
Mn217 N224 2.257 . S
Mn217 N233 2.282 . S
Mn217 O241 2.215 . S
Mn217 O243 2.117 . S
C218 O240 1.234 . S
C218 O241 1.283 . S
C219 O231 1.281 1_565 S
C219 O232 1.236 . S
C220 O242 1.240 . S
C220 O243 1.264 . S
O221 Mn216 2.095 . S
O221 C230 1.250 . S
O222 Mn217 2.121 . S
O222 C230 1.258 . S
C223 N224 1.326 1_565 S
C223 C227 1.460 . S
C223 H229 0.929 . S
N224 Mn217 2.257 . S
N224 C223 1.326 1_545 S
N224 C228 1.362 . S
C225 C226 1.258 . S
C225 C228 1.431 1_565 S
C225 C245 1.447 1_565 S
C226 C225 1.258 . S
C226 C227 1.477 . S
C226 H246 0.931 . S
C227 C223 1.460 . S
C227 C226 1.477 . S
C227 H247 0.930 . S
C228 N224 1.362 . S
C228 C225 1.431 1_545 S
C228 C238 1.476 . S
H229 C223 0.929 . S
C230 O221 1.250 . S
C230 O222 1.258 . S
O231 Mn216 2.162 . S
O231 C219 1.281 1_545 S
O232 Mn216 2.297 1_565 S
O232 C219 1.236 . S
N233 Mn217 2.282 . S
N233 C234 1.328 . S
N233 C238 1.318 . S
C234 N233 1.328 . S
C234 C235 1.457 . S
C234 H239 0.929 . S
C235 C234 1.457 . S
C235 C236 1.291 . S
C235 H248 0.931 . S
C236 C235 1.291 . S
C236 C237 1.373 . S
C236 H249 0.929 . S
C237 C236 1.373 . S
C237 C238 1.396 . S
C237 C244 1.403 . S
C238 C228 1.476 . S
C238 N233 1.318 . S
C238 C237 1.396 . S
H239 C234 0.929 . S
O240 Mn216 2.385 . S
O240 C218 1.234 . S
O241 Mn216 2.209 . S
O241 Mn217 2.215 . S
O241 C218 1.283 . S
O242 Mn216 2.094 . S
O242 C220 1.240 . S
O243 Mn217 2.117 . S
O243 C220 1.264 . S
C244 C237 1.403 . S
C244 C245 1.410 . S
C244 H250 0.929 . S
C245 C225 1.447 1_545 S
C245 C244 1.410 . S
C245 H251 0.922 1_545 S
H246 C226 0.931 . S
H247 C227 0.930 . S
H248 C235 0.931 . S
H249 C236 0.929 . S
H250 C244 0.929 . S
H251 C245 0.922 1_565 S
Mn252 O257 2.095 . S
Mn252 O267 2.162 . S
Mn252 O268 2.297 . S
Mn252 O276 2.385 . S
Mn252 O277 2.209 . S
Mn252 O278 2.094 . S
Mn253 O258 2.121 . S
Mn253 N260 2.257 . S
Mn253 N269 2.282 . S
Mn253 O277 2.215 . S
Mn253 O279 2.117 . S
C254 O276 1.234 . S
C254 O277 1.283 . S
C255 O267 1.281 . S
C255 O268 1.236 . S
C256 O278 1.240 . S
C256 O279 1.264 . S
O257 Mn252 2.095 . S
O257 C266 1.250 . S
O258 Mn253 2.121 . S
O258 C266 1.258 . S
C259 N260 1.326 . S
C259 C263 1.460 . S
C259 H265 0.929 . S
N260 Mn253 2.257 . S
N260 C259 1.326 . S
N260 C264 1.362 . S
C261 C262 1.258 . S
C261 C264 1.431 . S
C261 C281 1.449 . S
C262 C261 1.258 . S
C262 C263 1.477 . S
C262 H282 0.931 . S
C263 C259 1.460 . S
C263 C262 1.477 . S
C263 H283 0.930 . S
C264 N260 1.362 . S
C264 C261 1.431 . S
C264 C274 1.476 . S
H265 C259 0.929 . S
C266 O257 1.250 . S
C266 O258 1.258 . S
O267 Mn252 2.162 . S
O267 C255 1.281 . S
O268 Mn252 2.297 . S
O268 C255 1.236 . S
N269 Mn253 2.282 . S
N269 C270 1.328 . S
N269 C274 1.318 . S
C270 N269 1.328 . S
C270 C271 1.457 . S
C270 H275 0.929 . S
C271 C270 1.457 . S
C271 C272 1.291 . S
C271 H284 0.931 . S
C272 C271 1.291 . S
C272 C273 1.373 . S
C272 H285 0.929 . S
C273 C272 1.373 . S
C273 C274 1.396 . S
C273 C280 1.403 . S
C274 C264 1.476 . S
C274 N269 1.318 . S
C274 C273 1.396 . S
H275 C270 0.929 . S
O276 Mn252 2.385 . S
O276 C254 1.234 . S
O277 Mn252 2.209 . S
O277 Mn253 2.215 . S
O277 C254 1.283 . S
O278 Mn252 2.094 . S
O278 C256 1.240 . S
O279 Mn253 2.117 . S
O279 C256 1.264 . S
C280 C273 1.403 . S
C280 C281 1.399 . S
C280 H286 0.929 . S
C281 C261 1.449 . S
C281 C280 1.399 . S
C281 H287 0.930 . S
H282 C262 0.931 . S
H283 C263 0.930 . S
H284 C271 0.931 . S
H285 C272 0.929 . S
H286 C280 0.929 . S
H287 C281 0.930 . S
Mn288 O293 2.095 . S
Mn288 O303 2.162 . S
Mn288 O304 2.297 . S
Mn288 O312 2.385 . S
Mn288 O313 2.209 . S
Mn288 O314 2.094 . S
Mn289 O294 2.121 . S
Mn289 N296 2.257 . S
Mn289 N305 2.282 . S
Mn289 O313 2.215 . S
Mn289 O315 2.117 . S
C290 O312 1.234 . S
C290 O313 1.283 . S
C291 O303 1.281 . S
C291 O304 1.236 . S
C292 O314 1.240 . S
C292 O315 1.264 . S
O293 Mn288 2.095 . S
O293 C302 1.250 . S
O294 Mn289 2.121 . S
O294 C302 1.258 . S
C295 N296 1.326 . S
C295 C299 1.460 . S
C295 H301 0.929 . S
N296 Mn289 2.257 . S
N296 C295 1.326 . S
N296 C300 1.362 . S
C297 C298 1.258 . S
C297 C300 1.431 . S
C297 C317 1.449 . S
C298 C297 1.258 . S
C298 C299 1.477 . S
C298 H318 0.931 . S
C299 C295 1.460 . S
C299 C298 1.477 . S
C299 H319 0.930 . S
C300 N296 1.362 . S
C300 C297 1.431 . S
C300 C310 1.476 . S
H301 C295 0.929 . S
C302 O293 1.250 . S
C302 O294 1.258 . S
O303 Mn288 2.162 . S
O303 C291 1.281 . S
O304 Mn288 2.297 . S
O304 C291 1.236 . S
N305 Mn289 2.282 . S
N305 C306 1.328 . S
N305 C310 1.318 . S
C306 N305 1.328 . S
C306 C307 1.457 . S
C306 H311 0.929 . S
C307 C306 1.457 . S
C307 C308 1.291 . S
C307 H320 0.931 . S
C308 C307 1.291 . S
C308 C309 1.373 . S
C308 H321 0.929 . S
C309 C308 1.373 . S
C309 C310 1.396 . S
C309 C316 1.403 . S
C310 C300 1.476 . S
C310 N305 1.318 . S
C310 C309 1.396 . S
H311 C306 0.929 . S
O312 Mn288 2.385 . S
O312 C290 1.234 . S
O313 Mn288 2.209 . S
O313 Mn289 2.215 . S
O313 C290 1.283 . S
O314 Mn288 2.094 . S
O314 C292 1.240 . S
O315 Mn289 2.117 . S
O315 C292 1.264 . S
C316 C309 1.403 . S
C316 C317 1.399 . S
C316 H322 0.929 1_545 S
C317 C297 1.449 . S
C317 C316 1.399 . S
C317 H323 0.930 1_545 S
H318 C298 0.931 . S
H319 C299 0.930 . S
H320 C307 0.931 . S
H321 C308 0.929 . S
H322 C316 0.929 1_565 S
H323 C317 0.930 1_565 S
Mn324 O329 2.095 . S
Mn324 O339 2.162 . S
Mn324 O340 2.297 . S
Mn324 O348 2.385 . S
Mn324 O349 2.209 . S
Mn324 O350 2.094 . S
Mn325 O330 2.121 . S
Mn325 N332 2.257 . S
Mn325 N341 2.282 . S
Mn325 O349 2.215 . S
Mn325 O351 2.117 . S
C326 O348 1.234 . S
C326 O349 1.283 . S
C327 O339 1.281 . S
C327 O340 1.236 . S
C328 O350 1.240 . S
C328 O351 1.264 . S
O329 Mn324 2.095 . S
O329 C338 1.250 . S
O330 Mn325 2.121 . S
O330 C338 1.258 . S
C331 N332 1.326 . S
C331 C335 1.460 . S
C331 H337 0.929 . S
N332 Mn325 2.257 . S
N332 C331 1.326 . S
N332 C336 1.362 . S
C333 C334 1.258 . S
C333 C336 1.431 . S
C333 C353 1.449 . S
C334 C333 1.258 . S
C334 C335 1.477 . S
C334 H354 0.931 . S
C335 C331 1.460 . S
C335 C334 1.477 . S
C335 H355 0.930 . S
C336 N332 1.362 . S
C336 C333 1.431 . S
C336 C346 1.476 . S
H337 C331 0.929 . S
C338 O329 1.250 . S
C338 O330 1.258 . S
O339 Mn324 2.162 . S
O339 C327 1.281 . S
O340 Mn324 2.297 . S
O340 C327 1.236 . S
N341 Mn325 2.282 . S
N341 C342 1.328 . S
N341 C346 1.318 . S
C342 N341 1.328 . S
C342 C343 1.457 . S
C342 H347 0.929 . S
C343 C342 1.457 . S
C343 C344 1.291 . S
C343 H356 0.931 . S
C344 C343 1.291 . S
C344 C345 1.373 . S
C344 H357 0.929 . S
C345 C344 1.373 . S
C345 C346 1.396 . S
C345 C352 1.403 . S
C346 C336 1.476 . S
C346 N341 1.318 . S
C346 C345 1.396 . S
H347 C342 0.929 . S
O348 Mn324 2.385 . S
O348 C326 1.234 . S
O349 Mn324 2.209 . S
O349 Mn325 2.215 . S
O349 C326 1.283 . S
O350 Mn324 2.094 . S
O350 C328 1.240 . S
O351 Mn325 2.117 . S
O351 C328 1.264 . S
C352 C345 1.403 . S
C352 C353 1.399 . S
C352 H358 0.929 1_565 S
C353 C333 1.449 . S
C353 C352 1.399 . S
C353 H359 0.930 1_565 S
H354 C334 0.931 . S
H355 C335 0.930 . S
H356 C343 0.931 . S
H357 C344 0.929 . S
H358 C352 0.929 1_545 S
H359 C353 0.930 1_545 S
Mn360 O365 2.095 . S
Mn360 O375 2.162 . S
Mn360 O376 2.297 . S
Mn360 O384 2.385 . S
Mn360 O385 2.209 . S
Mn360 O386 2.094 . S
Mn361 O366 2.121 . S
Mn361 N368 2.257 . S
Mn361 N377 2.282 . S
Mn361 O385 2.215 . S
Mn361 O387 2.117 . S
C362 O384 1.234 . S
C362 O385 1.283 . S
C363 O375 1.281 . S
C363 O376 1.236 . S
C364 O386 1.240 . S
C364 O387 1.264 . S
O365 Mn360 2.095 . S
O365 C374 1.250 . S
O366 Mn361 2.121 . S
O366 C374 1.258 . S
C367 N368 1.326 . S
C367 C371 1.460 . S
C367 H373 0.929 . S
N368 Mn361 2.257 . S
N368 C367 1.326 . S
N368 C372 1.362 . S
C369 C370 1.258 . S
C369 C372 1.431 . S
C369 C389 1.449 . S
C370 C369 1.258 . S
C370 C371 1.477 . S
C370 H390 0.931 . S
C371 C367 1.460 . S
C371 C370 1.477 . S
C371 H391 0.930 . S
C372 N368 1.362 . S
C372 C369 1.431 . S
C372 C382 1.476 . S
H373 C367 0.929 . S
C374 O365 1.250 . S
C374 O366 1.258 . S
O375 Mn360 2.162 . S
O375 C363 1.281 . S
O376 Mn360 2.297 . S
O376 C363 1.236 . S
N377 Mn361 2.282 . S
N377 C378 1.328 . S
N377 C382 1.318 . S
C378 N377 1.328 . S
C378 C379 1.457 . S
C378 H383 0.929 . S
C379 C378 1.457 . S
C379 C380 1.291 . S
C379 H392 0.931 . S
C380 C379 1.291 . S
C380 C381 1.373 . S
C380 H393 0.929 . S
C381 C380 1.373 . S
C381 C382 1.396 . S
C381 C388 1.403 . S
C382 C372 1.476 . S
C382 N377 1.318 . S
C382 C381 1.396 . S
H383 C378 0.929 . S
O384 Mn360 2.385 . S
O384 C362 1.234 . S
O385 Mn360 2.209 . S
O385 Mn361 2.215 . S
O385 C362 1.283 . S
O386 Mn360 2.094 . S
O386 C364 1.240 . S
O387 Mn361 2.117 . S
O387 C364 1.264 . S
C388 C381 1.403 . S
C388 C389 1.399 . S
C388 H394 0.929 1_545 S
C389 C369 1.449 . S
C389 C388 1.399 . S
C389 H395 0.930 1_545 S
H390 C370 0.931 . S
H391 C371 0.930 . S
H392 C379 0.931 . S
H393 C380 0.929 . S
H394 C388 0.929 1_565 S
H395 C389 0.930 1_565 S
Mn396 O401 2.095 . S
Mn396 O411 2.162 . S
Mn396 O412 2.297 . S
Mn396 O420 2.385 . S
Mn396 O421 2.209 . S
Mn396 O422 2.094 . S
Mn397 O402 2.121 . S
Mn397 N404 2.257 . S
Mn397 N413 2.282 . S
Mn397 O421 2.215 . S
Mn397 O423 2.117 . S
C398 O420 1.234 . S
C398 O421 1.283 . S
C399 O411 1.281 . S
C399 O412 1.236 . S
C400 O422 1.240 . S
C400 O423 1.264 . S
O401 Mn396 2.095 . S
O401 C410 1.250 . S
O402 Mn397 2.121 . S
O402 C410 1.258 . S
C403 N404 1.326 . S
C403 C407 1.460 . S
C403 H409 0.929 . S
N404 Mn397 2.257 . S
N404 C403 1.326 . S
N404 C408 1.362 . S
C405 C406 1.258 . S
C405 C408 1.431 . S
C405 C425 1.449 . S
C406 C405 1.258 . S
C406 C407 1.477 . S
C406 H426 0.931 . S
C407 C403 1.460 . S
C407 C406 1.477 . S
C407 H427 0.930 . S
C408 N404 1.362 . S
C408 C405 1.431 . S
C408 C418 1.476 . S
H409 C403 0.929 . S
C410 O401 1.250 . S
C410 O402 1.258 . S
O411 Mn396 2.162 . S
O411 C399 1.281 . S
O412 Mn396 2.297 . S
O412 C399 1.236 . S
N413 Mn397 2.282 . S
N413 C414 1.328 . S
N413 C418 1.318 . S
C414 N413 1.328 . S
C414 C415 1.457 . S
C414 H419 0.929 . S
C415 C414 1.457 . S
C415 C416 1.291 . S
C415 H428 0.931 . S
C416 C415 1.291 . S
C416 C417 1.373 . S
C416 H429 0.929 . S
C417 C416 1.373 . S
C417 C418 1.396 . S
C417 C424 1.403 . S
C418 C408 1.476 . S
C418 N413 1.318 . S
C418 C417 1.396 . S
H419 C414 0.929 . S
O420 Mn396 2.385 . S
O420 C398 1.234 . S
O421 Mn396 2.209 . S
O421 Mn397 2.215 . S
O421 C398 1.283 . S
O422 Mn396 2.094 . S
O422 C400 1.240 . S
O423 Mn397 2.117 . S
O423 C400 1.264 . S
C424 C417 1.403 . S
C424 C425 1.399 . S
C424 H430 0.929 1_565 S
C425 C405 1.449 . S
C425 C424 1.399 . S
C425 H431 0.930 1_565 S
H426 C406 0.931 . S
H427 C407 0.930 . S
H428 C415 0.931 . S
H429 C416 0.929 . S
H430 C424 0.929 1_545 S
H431 C425 0.930 1_545 S
Mn432 O437 2.095 . S
Mn432 O447 2.162 . S
Mn432 O448 2.297 . S
Mn432 O456 2.385 . S
Mn432 O457 2.209 . S
Mn432 O458 2.094 . S
Mn433 O438 2.121 . S
Mn433 N440 2.257 . S
Mn433 N449 2.282 . S
Mn433 O457 2.215 . S
Mn433 O459 2.117 . S
C434 O456 1.234 . S
C434 O457 1.283 . S
C435 O447 1.281 . S
C435 O448 1.236 . S
C436 O458 1.240 . S
C436 O459 1.264 . S
O437 Mn432 2.095 . S
O437 C446 1.250 . S
O438 Mn433 2.121 . S
O438 C446 1.258 . S
C439 N440 1.326 . S
C439 C443 1.460 . S
C439 H445 0.929 . S
N440 Mn433 2.257 . S
N440 C439 1.326 . S
N440 C444 1.362 . S
C441 C442 1.258 . S
C441 C444 1.431 . S
C441 C461 1.449 . S
C442 C441 1.258 . S
C442 C443 1.477 . S
C442 H462 0.931 . S
C443 C439 1.460 . S
C443 C442 1.477 . S
C443 H463 0.930 . S
C444 N440 1.362 . S
C444 C441 1.431 . S
C444 C454 1.476 . S
H445 C439 0.929 . S
C446 O437 1.250 . S
C446 O438 1.258 . S
O447 Mn432 2.162 . S
O447 C435 1.281 . S
O448 Mn432 2.297 . S
O448 C435 1.236 . S
N449 Mn433 2.282 . S
N449 C450 1.328 . S
N449 C454 1.318 . S
C450 N449 1.328 . S
C450 C451 1.457 . S
C450 H455 0.929 . S
C451 C450 1.457 . S
C451 C452 1.291 . S
C451 H464 0.931 . S
C452 C451 1.291 . S
C452 C453 1.373 . S
C452 H465 0.929 . S
C453 C452 1.373 . S
C453 C454 1.396 . S
C453 C460 1.403 . S
C454 C444 1.476 . S
C454 N449 1.318 . S
C454 C453 1.396 . S
H455 C450 0.929 . S
O456 Mn432 2.385 . S
O456 C434 1.234 . S
O457 Mn432 2.209 . S
O457 Mn433 2.215 . S
O457 C434 1.283 . S
O458 Mn432 2.094 . S
O458 C436 1.240 . S
O459 Mn433 2.117 . S
O459 C436 1.264 . S
C460 C453 1.403 . S
C460 C461 1.399 . S
C460 H466 0.929 . S
C461 C441 1.449 . S
C461 C460 1.399 . S
C461 H467 0.930 . S
H462 C442 0.931 . S
H463 C443 0.930 . S
H464 C451 0.931 . S
H465 C452 0.929 . S
H466 C460 0.929 . S
H467 C461 0.930 . S
Mn468 O473 2.095 . S
Mn468 O483 2.162 1_455 S
Mn468 O484 2.297 . S
Mn468 O492 2.385 . S
Mn468 O493 2.209 . S
Mn468 O494 2.094 . S
Mn469 O474 2.121 . S
Mn469 N476 2.257 . S
Mn469 N485 2.282 . S
Mn469 O493 2.215 . S
Mn469 O495 2.117 . S
C470 O492 1.234 . S
C470 O493 1.283 . S
C471 O483 1.281 . S
C471 O484 1.236 1_655 S
C472 O494 1.240 . S
C472 O495 1.264 . S
O473 Mn468 2.095 . S
O473 C482 1.250 . S
O474 Mn469 2.121 . S
O474 C482 1.258 . S
C475 N476 1.326 . S
C475 C479 1.460 . S
C475 H481 0.929 . S
N476 Mn469 2.257 . S
N476 C475 1.326 . S
N476 C480 1.362 . S
C477 C478 1.258 . S
C477 C480 1.431 . S
C477 C497 1.449 . S
C478 C477 1.258 . S
C478 C479 1.477 . S
C478 H498 0.931 . S
C479 C475 1.460 . S
C479 C478 1.477 . S
C479 H499 0.930 . S
C480 N476 1.362 . S
C480 C477 1.431 . S
C480 C490 1.476 . S
H481 C475 0.929 . S
C482 O473 1.250 . S
C482 O474 1.258 . S
O483 Mn468 2.162 1_655 S
O483 C471 1.281 . S
O484 Mn468 2.297 . S
O484 C471 1.236 1_455 S
N485 Mn469 2.282 . S
N485 C486 1.328 . S
N485 C490 1.318 . S
C486 N485 1.328 . S
C486 C487 1.457 . S
C486 H491 0.929 . S
C487 C486 1.457 . S
C487 C488 1.291 . S
C487 H500 0.931 . S
C488 C487 1.291 . S
C488 C489 1.373 . S
C488 H501 0.929 . S
C489 C488 1.373 . S
C489 C490 1.396 . S
C489 C496 1.403 . S
C490 C480 1.476 . S
C490 N485 1.318 . S
C490 C489 1.396 . S
H491 C486 0.929 . S
O492 Mn468 2.385 . S
O492 C470 1.234 . S
O493 Mn468 2.209 . S
O493 Mn469 2.215 . S
O493 C470 1.283 . S
O494 Mn468 2.094 . S
O494 C472 1.240 . S
O495 Mn469 2.117 . S
O495 C472 1.264 . S
C496 C489 1.403 . S
C496 C497 1.399 . S
C496 H502 0.929 . S
C497 C477 1.449 . S
C497 C496 1.399 . S
C497 H503 0.930 . S
H498 C478 0.931 . S
H499 C479 0.930 . S
H500 C487 0.931 . S
H501 C488 0.929 . S
H502 C496 0.929 . S
H503 C497 0.930 . S
Mn504 O509 2.095 . S
Mn504 O519 2.162 . S
Mn504 O520 2.297 . S
Mn504 O528 2.385 . S
Mn504 O529 2.209 . S
Mn504 O530 2.094 . S
Mn505 O510 2.121 . S
Mn505 N512 2.257 . S
Mn505 N521 2.282 . S
Mn505 O529 2.215 . S
Mn505 O531 2.117 . S
C506 O528 1.234 . S
C506 O529 1.283 . S
C507 O519 1.281 . S
C507 O520 1.236 . S
C508 O530 1.240 . S
C508 O531 1.264 . S
O509 Mn504 2.095 . S
O509 C518 1.250 . S
O510 Mn505 2.121 . S
O510 C518 1.258 . S
C511 N512 1.326 . S
C511 C515 1.460 . S
C511 H517 0.929 . S
N512 Mn505 2.257 . S
N512 C511 1.326 . S
N512 C516 1.362 . S
C513 C514 1.258 . S
C513 C516 1.431 . S
C513 C533 1.449 . S
C514 C513 1.258 . S
C514 C515 1.477 . S
C514 H534 0.931 . S
C515 C511 1.460 . S
C515 C514 1.477 . S
C515 H535 0.930 . S
C516 N512 1.362 . S
C516 C513 1.431 . S
C516 C526 1.476 . S
H517 C511 0.929 . S
C518 O509 1.250 . S
C518 O510 1.258 . S
O519 Mn504 2.162 . S
O519 C507 1.281 . S
O520 Mn504 2.297 . S
O520 C507 1.236 . S
N521 Mn505 2.282 . S
N521 C522 1.328 . S
N521 C526 1.318 . S
C522 N521 1.328 . S
C522 C523 1.457 . S
C522 H527 0.929 . S
C523 C522 1.457 . S
C523 C524 1.291 . S
C523 H536 0.931 . S
C524 C523 1.291 . S
C524 C525 1.373 . S
C524 H537 0.929 . S
C525 C524 1.373 . S
C525 C526 1.396 . S
C525 C532 1.403 . S
C526 C516 1.476 . S
C526 N521 1.318 . S
C526 C525 1.396 . S
H527 C522 0.929 . S
O528 Mn504 2.385 . S
O528 C506 1.234 . S
O529 Mn504 2.209 . S
O529 Mn505 2.215 . S
O529 C506 1.283 . S
O530 Mn504 2.094 . S
O530 C508 1.240 . S
O531 Mn505 2.117 . S
O531 C508 1.264 . S
C532 C525 1.403 . S
C532 C533 1.399 . S
C532 H538 0.929 . S
C533 C513 1.449 . S
C533 C532 1.399 . S
C533 H539 0.930 . S
H534 C514 0.931 . S
H535 C515 0.930 . S
H536 C523 0.931 . S
H537 C524 0.929 . S
H538 C532 0.929 . S
H539 C533 0.930 . S
Mn540 O545 2.095 . S
Mn540 O555 2.162 1_455 S
Mn540 O556 2.297 . S
Mn540 O564 2.385 . S
Mn540 O565 2.209 . S
Mn540 O566 2.094 . S
Mn541 O546 2.121 . S
Mn541 N548 2.257 . S
Mn541 N557 2.282 . S
Mn541 O565 2.215 . S
Mn541 O567 2.117 . S
C542 O564 1.234 . S
C542 O565 1.283 . S
C543 O555 1.281 . S
C543 O556 1.236 1_655 S
C544 O566 1.240 . S
C544 O567 1.264 . S
O545 Mn540 2.095 . S
O545 C554 1.250 . S
O546 Mn541 2.121 . S
O546 C554 1.258 . S
C547 N548 1.326 . S
C547 C551 1.460 . S
C547 H553 0.929 . S
N548 Mn541 2.257 . S
N548 C547 1.326 . S
N548 C552 1.362 . S
C549 C550 1.258 . S
C549 C552 1.431 . S
C549 C569 1.449 . S
C550 C549 1.258 . S
C550 C551 1.477 . S
C550 H570 0.931 . S
C551 C547 1.460 . S
C551 C550 1.477 . S
C551 H571 0.930 . S
C552 N548 1.362 . S
C552 C549 1.431 . S
C552 C562 1.476 . S
H553 C547 0.929 . S
C554 O545 1.250 . S
C554 O546 1.258 . S
O555 Mn540 2.162 1_655 S
O555 C543 1.281 . S
O556 Mn540 2.297 . S
O556 C543 1.236 1_455 S
N557 Mn541 2.282 . S
N557 C558 1.328 . S
N557 C562 1.318 . S
C558 N557 1.328 . S
C558 C559 1.457 . S
C558 H563 0.929 . S
C559 C558 1.457 . S
C559 C560 1.291 . S
C559 H572 0.931 . S
C560 C559 1.291 . S
C560 C561 1.373 . S
C560 H573 0.929 . S
C561 C560 1.373 . S
C561 C562 1.396 . S
C561 C568 1.403 . S
C562 C552 1.476 . S
C562 N557 1.318 . S
C562 C561 1.396 . S
H563 C558 0.929 . S
O564 Mn540 2.385 . S
O564 C542 1.234 . S
O565 Mn540 2.209 . S
O565 Mn541 2.215 . S
O565 C542 1.283 . S
O566 Mn540 2.094 . S
O566 C544 1.240 . S
O567 Mn541 2.117 . S
O567 C544 1.264 . S
C568 C561 1.403 . S
C568 C569 1.399 . S
C568 H574 0.929 . S
C569 C549 1.449 . S
C569 C568 1.399 . S
C569 H575 0.930 . S
H570 C550 0.931 . S
H571 C551 0.930 . S
H572 C559 0.931 . S
H573 C560 0.929 . S
H574 C568 0.929 . S
H575 C569 0.930 . S
C576 C577 1.391 . S
C576 C578 1.394 . S
C576 H592 0.931 . S
C577 C576 1.391 . S
C577 C581 1.376 1_455 S
C578 C576 1.394 . S
C578 C579 1.369 . S
C578 C582 1.531 . S
C579 C578 1.369 . S
C579 C580 1.410 1_455 S
C579 C587 1.503 . S
C580 C579 1.410 1_655 S
C580 C581 1.392 . S
C580 C583 1.511 . S
C581 C577 1.376 1_655 S
C581 C580 1.392 . S
C581 H593 0.929 . S
C582 C578 1.531 . S
C582 H594 0.960 . S
C582 H595 0.962 . S
C582 H596 0.960 . S
C583 C580 1.511 . S
C583 H597 0.961 . S
C583 H598 0.961 . S
C583 H599 0.961 . S
C584 C585 1.370 . S
C584 C586 1.363 . S
C584 H600 0.931 . S
C585 C584 1.370 . S
C585 C589 1.408 . S
C586 C584 1.363 . S
C586 C587 1.370 . S
C586 C590 1.524 . S
C587 C579 1.503 . S
C587 C586 1.370 . S
C587 C588 1.403 . S
C588 C587 1.403 . S
C588 C589 1.404 . S
C588 C591 1.539 1_455 S
C589 C585 1.408 . S
C589 C588 1.404 . S
C589 H601 0.930 . S
C590 C586 1.524 . S
C590 H602 0.956 . S
C590 H603 0.961 . S
C590 H604 0.961 . S
C591 C588 1.539 1_655 S
C591 H605 0.958 . S
C591 H606 0.961 . S
C591 H607 0.960 . S
H592 C576 0.931 . S
H593 C581 0.929 . S
H594 C582 0.960 . S
H595 C582 0.962 . S
H596 C582 0.960 . S
H597 C583 0.961 . S
H598 C583 0.961 . S
H599 C583 0.961 . S
H600 C584 0.931 . S
H601 C589 0.930 . S
H602 C590 0.956 . S
H603 C590 0.961 . S
H604 C590 0.961 . S
H605 C591 0.958 . S
H606 C591 0.961 . S
H607 C591 0.960 . S
C608 C609 1.391 . S
C608 C610 1.394 . S
C608 H624 0.931 . S
C609 C608 1.391 . S
C609 C613 1.376 . S
C610 C608 1.394 . S
C610 C611 1.369 1_655 S
C610 C614 1.531 1_655 S
C611 C610 1.369 1_455 S
C611 C612 1.410 1_455 S
C611 C619 1.503 . S
C612 C611 1.410 1_655 S
C612 C613 1.392 . S
C612 C615 1.511 . S
C613 C609 1.376 . S
C613 C612 1.392 . S
C613 H625 0.929 . S
C614 C610 1.531 1_455 S
C614 H626 0.960 . S
C614 H627 0.962 . S
C614 H628 0.960 . S
C615 C612 1.511 . S
C615 H629 0.961 . S
C615 H630 0.961 1_655 S
C615 H631 0.961 . S
C616 C617 1.370 . S
C616 C618 1.363 . S
C616 H632 0.931 . S
C617 C616 1.370 . S
C617 C621 1.408 . S
C618 C616 1.363 . S
C618 C619 1.370 . S
C618 C622 1.524 . S
C619 C611 1.503 . S
C619 C618 1.370 . S
C619 C620 1.403 . S
C620 C619 1.403 . S
C620 C621 1.404 . S
C620 C623 1.539 . S
C621 C617 1.408 . S
C621 C620 1.404 . S
C621 H633 0.930 . S
C622 C618 1.524 . S
C622 H634 0.956 . S
C622 H635 0.961 . S
C622 H636 0.961 . S
C623 C620 1.539 . S
C623 H637 0.958 . S
C623 H638 0.961 . S
C623 H639 0.960 . S
H624 C608 0.931 . S
H625 C613 0.929 . S
H626 C614 0.960 . S
H627 C614 0.962 . S
H628 C614 0.960 . S
H629 C615 0.961 . S
H630 C615 0.961 1_455 S
H631 C615 0.961 . S
H632 C616 0.931 . S
H633 C621 0.930 . S
H634 C622 0.956 . S
H635 C622 0.961 . S
H636 C622 0.961 . S
H637 C623 0.958 . S
H638 C623 0.961 . S
H639 C623 0.960 . S
C640 C641 1.391 . S
C640 C642 1.394 . S
C640 H656 0.931 . S
C641 C640 1.391 . S
C641 C645 1.376 . S
C642 C640 1.394 . S
C642 C643 1.369 . S
C642 C646 1.531 . S
C643 C642 1.369 . S
C643 C644 1.410 . S
C643 C651 1.503 . S
C644 C643 1.410 . S
C644 C645 1.392 . S
C644 C647 1.511 . S
C645 C641 1.376 . S
C645 C644 1.392 . S
C645 H657 0.929 . S
C646 C642 1.531 . S
C646 H658 0.960 . S
C646 H659 0.962 . S
C646 H660 0.960 . S
C647 C644 1.511 . S
C647 H661 0.961 . S
C647 H662 0.961 . S
C647 H663 0.961 . S
C648 C649 1.370 . S
C648 C650 1.363 . S
C648 H664 0.931 . S
C649 C648 1.370 . S
C649 C653 1.408 . S
C650 C648 1.363 . S
C650 C651 1.370 . S
C650 C654 1.524 . S
C651 C643 1.503 . S
C651 C650 1.370 . S
C651 C652 1.403 . S
C652 C651 1.403 . S
C652 C653 1.404 . S
C652 C655 1.539 . S
C653 C649 1.408 . S
C653 C652 1.404 . S
C653 H665 0.930 . S
C654 C650 1.524 . S
C654 H666 0.956 . S
C654 H667 0.961 . S
C654 H668 0.961 . S
C655 C652 1.539 . S
C655 H669 0.958 . S
C655 H670 0.961 . S
C655 H671 0.960 . S
H656 C640 0.931 . S
H657 C645 0.929 . S
H658 C646 0.960 . S
H659 C646 0.962 . S
H660 C646 0.960 . S
H661 C647 0.961 . S
H662 C647 0.961 . S
H663 C647 0.961 . S
H664 C648 0.931 . S
H665 C653 0.930 . S
H666 C654 0.956 . S
H667 C654 0.961 . S
H668 C654 0.961 . S
H669 C655 0.958 . S
H670 C655 0.961 . S
H671 C655 0.960 . S
C672 C673 1.391 . S
C672 C674 1.394 . S
C672 H688 0.931 . S
C673 C672 1.391 . S
C673 C677 1.376 . S
C674 C672 1.394 . S
C674 C675 1.369 . S
C674 C678 1.531 . S
C675 C674 1.369 . S
C675 C676 1.410 . S
C675 C683 1.503 . S
C676 C675 1.410 . S
C676 C677 1.392 . S
C676 C679 1.511 . S
C677 C673 1.376 . S
C677 C676 1.392 . S
C677 H689 0.929 . S
C678 C674 1.531 . S
C678 H690 0.960 . S
C678 H691 0.962 . S
C678 H692 0.960 . S
C679 C676 1.511 . S
C679 H693 0.961 . S
C679 H694 0.961 . S
C679 H695 0.961 . S
C680 C681 1.370 . S
C680 C682 1.363 . S
C680 H696 0.931 . S
C681 C680 1.370 . S
C681 C685 1.408 . S
C682 C680 1.363 . S
C682 C683 1.370 . S
C682 C686 1.524 . S
C683 C675 1.503 . S
C683 C682 1.370 . S
C683 C684 1.403 . S
C684 C683 1.403 . S
C684 C685 1.404 . S
C684 C687 1.539 . S
C685 C681 1.408 . S
C685 C684 1.404 . S
C685 H697 0.930 . S
C686 C682 1.524 . S
C686 H698 0.956 . S
C686 H699 0.961 . S
C686 H700 0.961 . S
C687 C684 1.539 . S
C687 H701 0.958 . S
C687 H702 0.961 . S
C687 H703 0.960 . S
H688 C672 0.931 . S
H689 C677 0.929 . S
H690 C678 0.960 . S
H691 C678 0.962 . S
H692 C678 0.960 . S
H693 C679 0.961 . S
H694 C679 0.961 . S
H695 C679 0.961 . S
H696 C680 0.931 . S
H697 C685 0.930 . S
H698 C686 0.956 . S
H699 C686 0.961 . S
H700 C686 0.961 . S
H701 C687 0.958 . S
H702 C687 0.961 . S
H703 C687 0.960 . S
C704 C705 1.391 . S
C704 C706 1.394 . S
C704 H720 0.931 . S
C705 C704 1.391 . S
C705 C709 1.376 1_455 S
C706 C704 1.394 . S
C706 C707 1.369 . S
C706 C710 1.531 . S
C707 C706 1.369 . S
C707 C708 1.410 1_455 S
C707 C715 1.503 . S
C708 C707 1.410 1_655 S
C708 C709 1.392 . S
C708 C711 1.511 . S
C709 C705 1.376 1_655 S
C709 C708 1.392 . S
C709 H721 0.929 . S
C710 C706 1.531 . S
C710 H722 0.960 . S
C710 H723 0.962 . S
C710 H724 0.960 . S
C711 C708 1.511 . S
C711 H725 0.961 . S
C711 H726 0.961 . S
C711 H727 0.961 . S
C712 C713 1.370 . S
C712 C714 1.363 . S
C712 H728 0.931 . S
C713 C712 1.370 . S
C713 C717 1.408 . S
C714 C712 1.363 . S
C714 C715 1.370 . S
C714 C718 1.524 . S
C715 C707 1.503 . S
C715 C714 1.370 . S
C715 C716 1.403 . S
C716 C715 1.403 . S
C716 C717 1.404 . S
C716 C719 1.539 1_455 S
C717 C713 1.408 . S
C717 C716 1.404 . S
C717 H729 0.930 . S
C718 C714 1.524 . S
C718 H730 0.956 . S
C718 H731 0.961 . S
C718 H732 0.961 . S
C719 C716 1.539 1_655 S
C719 H733 0.958 . S
C719 H734 0.961 . S
C719 H735 0.960 . S
H720 C704 0.931 . S
H721 C709 0.929 . S
H722 C710 0.960 . S
H723 C710 0.962 . S
H724 C710 0.960 . S
H725 C711 0.961 . S
H726 C711 0.961 . S
H727 C711 0.961 . S
H728 C712 0.931 . S
H729 C717 0.930 . S
H730 C718 0.956 . S
H731 C718 0.961 . S
H732 C718 0.961 . S
H733 C719 0.958 . S
H734 C719 0.961 . S
H735 C719 0.960 . S
C736 C737 1.391 . S
C736 C738 1.394 . S
C736 H752 0.931 . S
C737 C736 1.391 . S
C737 C741 1.376 . S
C738 C736 1.394 . S
C738 C739 1.369 . S
C738 C742 1.531 . S
C739 C738 1.369 . S
C739 C740 1.410 . S
C739 C747 1.503 . S
C740 C739 1.410 . S
C740 C741 1.392 . S
C740 C743 1.511 . S
C741 C737 1.376 . S
C741 C740 1.392 . S
C741 H753 0.929 . S
C742 C738 1.531 . S
C742 H754 0.960 . S
C742 H755 0.962 . S
C742 H756 0.960 . S
C743 C740 1.511 . S
C743 H757 0.961 . S
C743 H758 0.961 . S
C743 H759 0.961 . S
C744 C745 1.370 . S
C744 C746 1.363 . S
C744 H760 0.931 . S
C745 C744 1.370 . S
C745 C749 1.408 . S
C746 C744 1.363 . S
C746 C747 1.370 . S
C746 C750 1.524 . S
C747 C739 1.503 . S
C747 C746 1.370 . S
C747 C748 1.403 . S
C748 C747 1.403 . S
C748 C749 1.404 . S
C748 C751 1.539 . S
C749 C745 1.408 . S
C749 C748 1.404 . S
C749 H761 0.930 . S
C750 C746 1.524 . S
C750 H762 0.956 . S
C750 H763 0.961 . S
C750 H764 0.961 . S
C751 C748 1.539 . S
C751 H765 0.958 . S
C751 H766 0.961 . S
C751 H767 0.960 . S
H752 C736 0.931 . S
H753 C741 0.929 . S
H754 C742 0.960 . S
H755 C742 0.962 . S
H756 C742 0.960 . S
H757 C743 0.961 . S
H758 C743 0.961 . S
H759 C743 0.961 . S
H760 C744 0.931 . S
H761 C749 0.930 . S
H762 C750 0.956 . S
H763 C750 0.961 . S
H764 C750 0.961 . S
H765 C751 0.958 . S
H766 C751 0.961 . S
H767 C751 0.960 . S
C768 C769 1.391 . S
C768 C770 1.394 . S
C768 H784 0.931 . S
C769 C768 1.391 . S
C769 C773 1.376 . S
C770 C768 1.394 . S
C770 C771 1.369 . S
C770 C774 1.531 . S
C771 C770 1.369 . S
C771 C772 1.410 . S
C771 C779 1.503 . S
C772 C771 1.410 . S
C772 C773 1.392 . S
C772 C775 1.511 . S
C773 C769 1.376 . S
C773 C772 1.392 . S
C773 H785 0.929 . S
C774 C770 1.531 . S
C774 H786 0.960 . S
C774 H787 0.962 . S
C774 H788 0.960 . S
C775 C772 1.511 . S
C775 H789 0.961 . S
C775 H790 0.961 . S
C775 H791 0.961 . S
C776 C777 1.370 . S
C776 C778 1.363 . S
C776 H792 0.931 . S
C777 C776 1.370 . S
C777 C781 1.408 . S
C778 C776 1.363 . S
C778 C779 1.370 . S
C778 C782 1.524 . S
C779 C771 1.503 . S
C779 C778 1.370 . S
C779 C780 1.403 . S
C780 C779 1.403 . S
C780 C781 1.404 . S
C780 C783 1.539 . S
C781 C777 1.408 . S
C781 C780 1.404 . S
C781 H793 0.930 . S
C782 C778 1.524 . S
C782 H794 0.956 . S
C782 H795 0.961 . S
C782 H796 0.961 . S
C783 C780 1.539 . S
C783 H797 0.958 . S
C783 H798 0.961 . S
C783 H799 0.960 . S
H784 C768 0.931 . S
H785 C773 0.929 . S
H786 C774 0.960 . S
H787 C774 0.962 . S
H788 C774 0.960 . S
H789 C775 0.961 . S
H790 C775 0.961 . S
H791 C775 0.961 . S
H792 C776 0.931 . S
H793 C781 0.930 . S
H794 C782 0.956 . S
H795 C782 0.961 . S
H796 C782 0.961 . S
H797 C783 0.958 . S
H798 C783 0.961 . S
H799 C783 0.960 . S
C800 C801 1.391 . S
C800 C802 1.394 . S
C800 H816 0.931 . S
C801 C800 1.391 . S
C801 C805 1.376 . S
C802 C800 1.394 . S
C802 C803 1.369 . S
C802 C806 1.531 . S
C803 C802 1.369 . S
C803 C804 1.410 . S
C803 C811 1.503 . S
C804 C803 1.410 . S
C804 C805 1.392 . S
C804 C807 1.511 . S
C805 C801 1.376 . S
C805 C804 1.392 . S
C805 H817 0.929 . S
C806 C802 1.531 . S
C806 H818 0.960 . S
C806 H819 0.962 . S
C806 H820 0.960 . S
C807 C804 1.511 . S
C807 H821 0.961 . S
C807 H822 0.961 . S
C807 H823 0.961 . S
C808 C809 1.370 . S
C808 C810 1.363 . S
C808 H824 0.931 . S
C809 C808 1.370 . S
C809 C813 1.408 . S
C810 C808 1.363 . S
C810 C811 1.370 1_655 S
C810 C814 1.524 1_655 S
C811 C803 1.503 . S
C811 C810 1.370 1_455 S
C811 C812 1.403 1_455 S
C812 C811 1.403 1_655 S
C812 C813 1.404 . S
C812 C815 1.539 1_655 S
C813 C809 1.408 . S
C813 C812 1.404 . S
C813 H825 0.930 . S
C814 C810 1.524 1_455 S
C814 H826 0.956 . S
C814 H827 0.961 . S
C814 H828 0.961 1_455 S
C815 C812 1.539 1_455 S
C815 H829 0.958 . S
C815 H830 0.961 1_455 S
C815 H831 0.960 . S
H816 C800 0.931 . S
H817 C805 0.929 . S
H818 C806 0.960 . S
H819 C806 0.962 . S
H820 C806 0.960 . S
H821 C807 0.961 . S
H822 C807 0.961 . S
H823 C807 0.961 . S
H824 C808 0.931 . S
H825 C813 0.930 . S
H826 C814 0.956 . S
H827 C814 0.961 . S
H828 C814 0.961 1_655 S
H829 C815 0.958 . S
H830 C815 0.961 1_655 S
H831 C815 0.960 . S
C832 C833 1.391 . S
C832 C834 1.394 . S
C832 H848 0.931 . S
C833 C832 1.391 . S
C833 C837 1.376 1_565 S
C834 C832 1.394 . S
C834 C835 1.369 1_565 S
C834 C838 1.531 . S
C835 C834 1.369 1_545 S
C835 C836 1.410 . S
C835 C843 1.503 . S
C836 C835 1.410 . S
C836 C837 1.392 . S
C836 C839 1.511 1_455 S
C837 C833 1.376 1_545 S
C837 C836 1.392 . S
C837 H849 0.929 1_455 S
C838 C834 1.531 . S
C838 H850 0.960 . S
C838 H851 0.962 . S
C838 H852 0.960 . S
C839 C836 1.511 1_655 S
C839 H853 0.961 . S
C839 H854 0.961 . S
C839 H855 0.961 . S
C840 C841 1.355 1_665 S
C840 C842 1.362 1_655 S
C840 H856 0.947 . S
C841 C840 1.355 1_445 S
C841 C845 1.408 . S
C842 C840 1.362 1_455 S
C842 C843 1.379 1_565 S
C842 C846 1.516 1_455 S
C843 C835 1.503 . S
C843 C842 1.379 1_545 S
C843 C844 1.403 . S
C844 C843 1.403 . S
C844 C845 1.404 . S
C844 C847 1.539 . S
C845 C841 1.408 . S
C845 C844 1.404 . S
C845 H857 0.930 . S
C846 C842 1.516 1_655 S
C846 H858 0.956 . S
C846 H859 0.961 . S
C846 H860 0.961 . S
C847 C844 1.539 . S
C847 H861 0.958 . S
C847 H862 0.961 . S
C847 H863 0.960 . S
H848 C832 0.931 . S
H849 C837 0.929 1_655 S
H850 C838 0.960 . S
H851 C838 0.962 . S
H852 C838 0.960 . S
H853 C839 0.961 . S
H854 C839 0.961 . S
H855 C839 0.961 . S
H856 C840 0.947 . S
H857 C845 0.930 . S
H858 C846 0.956 . S
H859 C846 0.961 . S
H860 C846 0.961 . S
H861 C847 0.958 . S
H862 C847 0.961 . S
H863 C847 0.960 . S
C864 C865 1.391 . S
C864 C866 1.394 . S
C864 H880 0.931 . S
C865 C864 1.391 . S
C865 C869 1.376 . S
C866 C864 1.394 . S
C866 C867 1.369 . S
C866 C870 1.531 . S
C867 C866 1.369 . S
C867 C868 1.410 . S
C867 C875 1.503 . S
C868 C867 1.410 . S
C868 C869 1.392 . S
C868 C871 1.511 . S
C869 C865 1.376 . S
C869 C868 1.392 . S
C869 H881 0.929 . S
C870 C866 1.531 . S
C870 H882 0.960 . S
C870 H883 0.962 . S
C870 H884 0.960 . S
C871 C868 1.511 . S
C871 H885 0.961 . S
C871 H886 0.961 . S
C871 H887 0.961 . S
C872 C873 1.370 . S
C872 C874 1.363 . S
C872 H888 0.931 . S
C873 C872 1.370 . S
C873 C877 1.408 . S
C874 C872 1.363 . S
C874 C875 1.370 . S
C874 C878 1.524 . S
C875 C867 1.503 . S
C875 C874 1.370 . S
C875 C876 1.403 . S
C876 C875 1.403 . S
C876 C877 1.404 . S
C876 C879 1.539 . S
C877 C873 1.408 . S
C877 C876 1.404 . S
C877 H889 0.930 . S
C878 C874 1.524 . S
C878 H890 0.956 . S
C878 H891 0.961 . S
C878 H892 0.961 . S
C879 C876 1.539 . S
C879 H893 0.958 . S
C879 H894 0.961 . S
C879 H895 0.960 . S
H880 C864 0.931 . S
H881 C869 0.929 . S
H882 C870 0.960 . S
H883 C870 0.962 . S
H884 C870 0.960 . S
H885 C871 0.961 . S
H886 C871 0.961 . S
H887 C871 0.961 . S
H888 C872 0.931 . S
H889 C877 0.930 . S
H890 C878 0.956 . S
H891 C878 0.961 . S
H892 C878 0.961 . S
H893 C879 0.958 . S
H894 C879 0.961 . S
H895 C879 0.960 . S
C896 C897 1.391 . S
C896 C898 1.394 . S
C896 H912 0.931 . S
C897 C896 1.391 . S
C897 C901 1.389 . S
C898 C896 1.394 . S
C898 C899 1.369 . S
C898 C902 1.531 . S
C899 C898 1.369 . S
C899 C900 1.410 1_565 S
C899 C907 1.503 1_554 S
C900 C899 1.410 1_545 S
C900 C901 1.390 1_545 S
C900 C903 1.511 . S
C901 C897 1.389 . S
C901 C900 1.390 1_565 S
C901 H913 0.919 1_565 S
C902 C898 1.531 . S
C902 H914 0.960 1_554 S
C902 H915 0.962 . S
C902 H916 0.960 . S
C903 C900 1.511 . S
C903 H917 0.961 . S
C903 H918 1.013 . S
C903 H919 0.961 . S
C904 C905 1.370 . S
C904 C906 1.363 . S
C904 H920 0.931 . S
C905 C904 1.370 . S
C905 C909 1.408 1_545 S
C906 C904 1.363 . S
C906 C907 1.370 1_545 S
C906 C910 1.524 . S
C907 C899 1.503 1_556 S
C907 C906 1.370 1_565 S
C907 C908 1.403 . S
C908 C907 1.403 . S
C908 C909 1.404 . S
C908 C911 1.539 . S
C909 C905 1.408 1_565 S
C909 C908 1.404 . S
C909 H921 0.930 . S
C910 C906 1.524 . S
C910 H922 0.956 1_556 S
C910 H923 0.961 1_556 S
C910 H924 0.961 . S
C911 C908 1.539 . S
C911 H925 0.958 . S
C911 H926 0.961 . S
C911 H927 0.960 . S
H912 C896 0.931 . S
H913 C901 0.919 1_545 S
H914 C902 0.960 1_556 S
H915 C902 0.962 . S
H916 C902 0.960 . S
H917 C903 0.961 . S
H918 C903 1.013 . S
H919 C903 0.961 . S
H920 C904 0.931 . S
H921 C909 0.930 . S
H922 C910 0.956 1_554 S
H923 C910 0.961 1_554 S
H924 C910 0.961 . S
H925 C911 0.958 . S
H926 C911 0.961 . S
H927 C911 0.960 . S
C928 C929 1.391 . S
C928 C930 1.394 . S
C928 H944 0.931 . S
C929 C928 1.391 . S
C929 C933 1.376 . S
C930 C928 1.394 . S
C930 C931 1.369 . S
C930 C934 1.531 . S
C931 C930 1.369 . S
C931 C932 1.410 . S
C931 C939 1.503 . S
C932 C931 1.410 . S
C932 C933 1.392 . S
C932 C935 1.511 . S
C933 C929 1.376 . S
C933 C932 1.392 . S
C933 H945 0.929 . S
C934 C930 1.531 . S
C934 H946 0.960 . S
C934 H947 0.962 . S
C934 H948 0.960 . S
C935 C932 1.511 . S
C935 H949 0.961 . S
C935 H950 0.961 . S
C935 H951 0.961 . S
C936 C937 1.370 . S
C936 C938 1.363 . S
C936 H952 0.931 . S
C937 C936 1.370 . S
C937 C941 1.408 . S
C938 C936 1.363 . S
C938 C939 1.370 . S
C938 C942 1.524 . S
C939 C931 1.503 . S
C939 C938 1.370 . S
C939 C940 1.403 . S
C940 C939 1.403 . S
C940 C941 1.404 . S
C940 C943 1.539 . S
C941 C937 1.408 . S
C941 C940 1.404 . S
C941 H953 0.930 . S
C942 C938 1.524 . S
C942 H954 0.956 . S
C942 H955 0.961 . S
C942 H956 0.961 . S
C943 C940 1.539 . S
C943 H957 0.958 . S
C943 H958 0.961 . S
C943 H959 0.960 . S
H944 C928 0.931 . S
H945 C933 0.929 . S
H946 C934 0.960 . S
H947 C934 0.962 . S
H948 C934 0.960 . S
H949 C935 0.961 . S
H950 C935 0.961 . S
H951 C935 0.961 . S
H952 C936 0.931 . S
H953 C941 0.930 . S
H954 C942 0.956 . S
H955 C942 0.961 . S
H956 C942 0.961 . S
H957 C943 0.958 . S
H958 C943 0.961 . S
H959 C943 0.960 . S
C960 C961 1.391 . S
C960 C962 1.394 . S
C960 H976 0.931 . S
C961 C960 1.391 . S
C961 C965 1.376 . S
C962 C960 1.394 . S
C962 C963 1.369 . S
C962 C966 1.531 . S
C963 C962 1.369 . S
C963 C964 1.410 . S
C963 C971 1.503 . S
C964 C963 1.410 . S
C964 C965 1.392 . S
C964 C967 1.511 . S
C965 C961 1.376 . S
C965 C964 1.392 . S
C965 H977 0.929 . S
C966 C962 1.531 . S
C966 H978 0.960 . S
C966 H979 0.962 . S
C966 H980 0.960 . S
C967 C964 1.511 . S
C967 H981 0.961 . S
C967 H982 0.961 . S
C967 H983 0.961 . S
C968 C969 1.370 . S
C968 C970 1.363 . S
C968 H984 0.931 . S
C969 C968 1.370 . S
C969 C973 1.408 . S
C970 C968 1.363 . S
C970 C971 1.370 . S
C970 C974 1.524 . S
C971 C963 1.503 . S
C971 C970 1.370 . S
C971 C972 1.403 . S
C972 C971 1.403 . S
C972 C973 1.404 . S
C972 C975 1.539 . S
C973 C969 1.408 . S
C973 C972 1.404 . S
C973 H985 0.930 . S
C974 C970 1.524 . S
C974 H986 0.956 . S
C974 H987 0.961 . S
C974 H988 0.961 . S
C975 C972 1.539 . S
C975 H989 0.958 . S
C975 H990 0.961 . S
C975 H991 0.960 . S
H976 C960 0.931 . S
H977 C965 0.929 . S
H978 C966 0.960 . S
H979 C966 0.962 . S
H980 C966 0.960 . S
H981 C967 0.961 . S
H982 C967 0.961 . S
H983 C967 0.961 . S
H984 C968 0.931 . S
H985 C973 0.930 . S
H986 C974 0.956 . S
H987 C974 0.961 . S
H988 C974 0.961 . S
H989 C975 0.958 . S
H990 C975 0.961 . S
H991 C975 0.960 . S
C992 C993 1.391 . S
C992 C994 1.394 . S
C992 H1008 0.931 . S
C993 C992 1.391 . S
C993 C997 1.376 . S
C994 C992 1.394 . S
C994 C995 1.369 . S
C994 C998 1.531 . S
C995 C994 1.369 . S
C995 C996 1.410 . S
C995 C1003 1.503 . S
C996 C995 1.410 . S
C996 C997 1.392 . S
C996 C999 1.511 . S
C997 C993 1.376 . S
C997 C996 1.392 . S
C997 H1009 0.929 . S
C998 C994 1.531 . S
C998 H1010 0.960 . S
C998 H1011 0.962 . S
C998 H1012 0.960 . S
C999 C996 1.511 . S
C999 H1013 0.961 . S
C999 H1014 0.961 . S
C999 H1015 0.961 . S
C1000 C1001 1.370 . S
C1000 C1002 1.363 . S
C1000 H1016 0.931 . S
C1001 C1000 1.370 . S
C1001 C1005 1.408 . S
C1002 C1000 1.363 . S
C1002 C1003 1.370 . S
C1002 C1006 1.524 . S
C1003 C995 1.503 . S
C1003 C1002 1.370 . S
C1003 C1004 1.403 . S
C1004 C1003 1.403 . S
C1004 C1005 1.404 . S
C1004 C1007 1.539 . S
C1005 C1001 1.408 . S
C1005 C1004 1.404 . S
C1005 H1017 0.930 . S
C1006 C1002 1.524 . S
C1006 H1018 0.956 . S
C1006 H1019 0.961 . S
C1006 H1020 0.961 . S
C1007 C1004 1.539 . S
C1007 H1021 0.958 . S
C1007 H1022 0.961 . S
C1007 H1023 0.960 . S
H1008 C992 0.931 . S
H1009 C997 0.929 . S
H1010 C998 0.960 . S
H1011 C998 0.962 . S
H1012 C998 0.960 . S
H1013 C999 0.961 . S
H1014 C999 0.961 . S
H1015 C999 0.961 . S
H1016 C1000 0.931 . S
H1017 C1005 0.930 . S
H1018 C1006 0.956 . S
H1019 C1006 0.961 . S
H1020 C1006 0.961 . S
H1021 C1007 0.958 . S
H1022 C1007 0.961 . S
H1023 C1007 0.960 . S
C1024 C1025 1.391 . S
C1024 C1026 1.394 . S
C1024 H1040 0.931 . S
C1025 C1024 1.391 . S
C1025 C1029 1.376 . S
C1026 C1024 1.394 . S
C1026 C1027 1.369 . S
C1026 C1030 1.531 . S
C1027 C1026 1.369 . S
C1027 C1028 1.410 . S
C1027 C1035 1.503 1_556 S
C1028 C1027 1.410 . S
C1028 C1029 1.392 . S
C1028 C1031 1.511 . S
C1029 C1025 1.376 . S
C1029 C1028 1.392 . S
C1029 H1041 0.929 . S
C1030 C1026 1.531 . S
C1030 H1042 0.960 1_556 S
C1030 H1043 0.962 . S
C1030 H1044 0.960 . S
C1031 C1028 1.511 . S
C1031 H1045 0.961 . S
C1031 H1046 0.963 . S
C1031 H1047 0.961 . S
C1032 C1033 1.370 . S
C1032 C1034 1.363 . S
C1032 H1048 0.931 . S
C1033 C1032 1.370 . S
C1033 C1037 1.408 . S
C1034 C1032 1.363 . S
C1034 C1035 1.370 . S
C1034 C1038 1.524 . S
C1035 C1027 1.503 1_554 S
C1035 C1034 1.370 . S
C1035 C1036 1.403 . S
C1036 C1035 1.403 . S
C1036 C1037 1.404 . S
C1036 C1039 1.539 . S
C1037 C1033 1.408 . S
C1037 C1036 1.404 . S
C1037 H1049 0.930 . S
C1038 C1034 1.524 . S
C1038 H1050 0.956 1_554 S
C1038 H1051 0.961 1_554 S
C1038 H1052 0.961 . S
C1039 C1036 1.539 . S
C1039 H1053 0.958 . S
C1039 H1054 0.961 . S
C1039 H1055 0.960 . S
H1040 C1024 0.931 . S
H1041 C1029 0.929 . S
H1042 C1030 0.960 1_554 S
H1043 C1030 0.962 . S
H1044 C1030 0.960 . S
H1045 C1031 0.961 . S
H1046 C1031 0.963 . S
H1047 C1031 0.961 . S
H1048 C1032 0.931 . S
H1049 C1037 0.930 . S
H1050 C1038 0.956 1_556 S
H1051 C1038 0.961 1_556 S
H1052 C1038 0.961 . S
H1053 C1039 0.958 . S
H1054 C1039 0.961 . S
H1055 C1039 0.960 . S
C1056 C1057 1.391 . S
C1056 C1058 1.394 . S
C1056 H1072 0.931 . S
C1057 C1056 1.391 . S
C1057 C1061 1.376 1_455 S
C1058 C1056 1.394 . S
C1058 C1059 1.369 . S
C1058 C1062 1.531 . S
C1059 C1058 1.369 . S
C1059 C1060 1.410 1_455 S
C1059 C1067 1.503 . S
C1060 C1059 1.410 1_655 S
C1060 C1061 1.392 . S
C1060 C1063 1.511 . S
C1061 C1057 1.376 1_655 S
C1061 C1060 1.392 . S
C1061 H1073 0.929 . S
C1062 C1058 1.531 . S
C1062 H1074 0.960 . S
C1062 H1075 0.962 . S
C1062 H1076 0.960 . S
C1063 C1060 1.511 . S
C1063 H1077 0.961 . S
C1063 H1078 0.961 . S
C1063 H1079 0.961 . S
C1064 C1065 1.370 . S
C1064 C1066 1.363 . S
C1064 H1080 0.931 . S
C1065 C1064 1.370 . S
C1065 C1069 1.408 . S
C1066 C1064 1.363 . S
C1066 C1067 1.370 . S
C1066 C1070 1.524 . S
C1067 C1059 1.503 . S
C1067 C1066 1.370 . S
C1067 C1068 1.403 . S
C1068 C1067 1.403 . S
C1068 C1069 1.404 . S
C1068 C1071 1.539 . S
C1069 C1065 1.408 . S
C1069 C1068 1.404 . S
C1069 H1081 0.930 . S
C1070 C1066 1.524 . S
C1070 H1082 0.956 . S
C1070 H1083 0.961 . S
C1070 H1084 0.961 . S
C1071 C1068 1.539 . S
C1071 H1085 0.958 . S
C1071 H1086 0.961 . S
C1071 H1087 0.960 . S
H1072 C1056 0.931 . S
H1073 C1061 0.929 . S
H1074 C1062 0.960 . S
H1075 C1062 0.962 . S
H1076 C1062 0.960 . S
H1077 C1063 0.961 . S
H1078 C1063 0.961 . S
H1079 C1063 0.961 . S
H1080 C1064 0.931 . S
H1081 C1069 0.930 . S
H1082 C1070 0.956 . S
H1083 C1070 0.961 . S
H1084 C1070 0.961 . S
H1085 C1071 0.958 . S
H1086 C1071 0.961 . S
H1087 C1071 0.960 . S
C1088 C1089 1.391 . S
C1088 C1090 1.394 . S
C1088 H1104 0.931 . S
C1089 C1088 1.391 . S
C1089 C1093 1.376 . S
C1090 C1088 1.394 . S
C1090 C1091 1.369 . S
C1090 C1094 1.531 . S
C1091 C1090 1.369 . S
C1091 C1092 1.410 . S
C1091 C1099 1.503 . S
C1092 C1091 1.410 . S
C1092 C1093 1.392 . S
C1092 C1095 1.511 . S
C1093 C1089 1.376 . S
C1093 C1092 1.392 . S
C1093 H1105 0.929 . S
C1094 C1090 1.531 . S
C1094 H1106 0.960 . S
C1094 H1107 0.962 . S
C1094 H1108 0.960 . S
C1095 C1092 1.511 . S
C1095 H1109 0.961 . S
C1095 H1110 0.961 . S
C1095 H1111 0.961 . S
C1096 C1097 1.370 . S
C1096 C1098 1.363 . S
C1096 H1112 0.931 . S
C1097 C1096 1.370 . S
C1097 C1101 1.408 . S
C1098 C1096 1.363 . S
C1098 C1099 1.370 . S
C1098 C1102 1.524 . S
C1099 C1091 1.503 . S
C1099 C1098 1.370 . S
C1099 C1100 1.403 . S
C1100 C1099 1.403 . S
C1100 C1101 1.404 . S
C1100 C1103 1.539 . S
C1101 C1097 1.408 . S
C1101 C1100 1.404 . S
C1101 H1113 0.930 . S
C1102 C1098 1.524 . S
C1102 H1114 0.956 . S
C1102 H1115 0.961 . S
C1102 H1116 0.961 . S
C1103 C1100 1.539 . S
C1103 H1117 0.958 . S
C1103 H1118 0.961 . S
C1103 H1119 0.960 . S
H1104 C1088 0.931 . S
H1105 C1093 0.929 . S
H1106 C1094 0.960 . S
H1107 C1094 0.962 . S
H1108 C1094 0.960 . S
H1109 C1095 0.961 . S
H1110 C1095 0.961 . S
H1111 C1095 0.961 . S
H1112 C1096 0.931 . S
H1113 C1101 0.930 . S
H1114 C1102 0.956 . S
H1115 C1102 0.961 . S
H1116 C1102 0.961 . S
H1117 C1103 0.958 . S
H1118 C1103 0.961 . S
H1119 C1103 0.960 . S
C1120 C1121 1.391 . S
C1120 C1122 1.394 . S
C1120 H1136 0.931 . S
C1121 C1120 1.391 . S
C1121 C1125 1.376 . S
C1122 C1120 1.394 . S
C1122 C1123 1.369 . S
C1122 C1126 1.531 . S
C1123 C1122 1.369 . S
C1123 C1124 1.410 . S
C1123 C1131 1.503 . S
C1124 C1123 1.410 . S
C1124 C1125 1.392 . S
C1124 C1127 1.511 . S
C1125 C1121 1.376 . S
C1125 C1124 1.392 . S
C1125 H1137 0.929 . S
C1126 C1122 1.531 . S
C1126 H1138 0.960 . S
C1126 H1139 0.962 . S
C1126 H1140 0.960 . S
C1127 C1124 1.511 . S
C1127 H1141 0.961 . S
C1127 H1142 0.961 . S
C1127 H1143 0.961 . S
C1128 C1129 1.370 . S
C1128 C1130 1.363 . S
C1128 H1144 0.931 . S
C1129 C1128 1.370 . S
C1129 C1133 1.408 . S
C1130 C1128 1.363 . S
C1130 C1131 1.370 . S
C1130 C1134 1.524 . S
C1131 C1123 1.503 . S
C1131 C1130 1.370 . S
C1131 C1132 1.403 . S
C1132 C1131 1.403 . S
C1132 C1133 1.404 . S
C1132 C1135 1.539 . S
C1133 C1129 1.408 . S
C1133 C1132 1.404 . S
C1133 H1145 0.930 . S
C1134 C1130 1.524 . S
C1134 H1146 0.956 . S
C1134 H1147 0.961 . S
C1134 H1148 0.961 . S
C1135 C1132 1.539 . S
C1135 H1149 0.958 . S
C1135 H1150 0.961 . S
C1135 H1151 0.960 . S
H1136 C1120 0.931 . S
H1137 C1125 0.929 . S
H1138 C1126 0.960 . S
H1139 C1126 0.962 . S
H1140 C1126 0.960 . S
H1141 C1127 0.961 . S
H1142 C1127 0.961 . S
H1143 C1127 0.961 . S
H1144 C1128 0.931 . S
H1145 C1133 0.930 . S
H1146 C1134 0.956 . S
H1147 C1134 0.961 . S
H1148 C1134 0.961 . S
H1149 C1135 0.958 . S
H1150 C1135 0.961 . S
H1151 C1135 0.960 . S
C1152 C1153 1.391 . S
C1152 C1154 1.394 . S
C1152 H1168 0.931 . S
C1153 C1152 1.391 . S
C1153 C1157 1.376 . S
C1154 C1152 1.394 . S
C1154 C1155 1.369 . S
C1154 C1158 1.531 . S
C1155 C1154 1.369 . S
C1155 C1156 1.410 . S
C1155 C1163 1.503 . S
C1156 C1155 1.410 . S
C1156 C1157 1.392 . S
C1156 C1159 1.511 . S
C1157 C1153 1.376 . S
C1157 C1156 1.392 . S
C1157 H1169 0.929 . S
C1158 C1154 1.531 . S
C1158 H1170 0.960 . S
C1158 H1171 0.962 . S
C1158 H1172 0.960 . S
C1159 C1156 1.511 . S
C1159 H1173 0.961 . S
C1159 H1174 0.961 . S
C1159 H1175 0.961 . S
C1160 C1161 1.370 . S
C1160 C1162 1.363 . S
C1160 H1176 0.931 . S
C1161 C1160 1.370 . S
C1161 C1165 1.408 . S
C1162 C1160 1.363 . S
C1162 C1163 1.370 . S
C1162 C1166 1.524 . S
C1163 C1155 1.503 . S
C1163 C1162 1.370 . S
C1163 C1164 1.403 . S
C1164 C1163 1.403 . S
C1164 C1165 1.404 . S
C1164 C1167 1.539 . S
C1165 C1161 1.408 . S
C1165 C1164 1.404 . S
C1165 H1177 0.930 . S
C1166 C1162 1.524 . S
C1166 H1178 0.956 . S
C1166 H1179 0.961 . S
C1166 H1180 0.961 . S
C1167 C1164 1.539 . S
C1167 H1181 0.958 . S
C1167 H1182 0.961 . S
C1167 H1183 0.960 . S
H1168 C1152 0.931 . S
H1169 C1157 0.929 . S
H1170 C1158 0.960 . S
H1171 C1158 0.962 . S
H1172 C1158 0.960 . S
H1173 C1159 0.961 . S
H1174 C1159 0.961 . S
H1175 C1159 0.961 . S
H1176 C1160 0.931 . S
H1177 C1165 0.930 . S
H1178 C1166 0.956 . S
H1179 C1166 0.961 . S
H1180 C1166 0.961 . S
H1181 C1167 0.958 . S
H1182 C1167 0.961 . S
H1183 C1167 0.960 . S
C1184 C1185 1.391 . S
C1184 C1186 1.394 . S
C1184 H1200 0.931 . S
C1185 C1184 1.391 . S
C1185 C1189 1.376 . S
C1186 C1184 1.394 . S
C1186 C1187 1.369 . S
C1186 C1190 1.531 . S
C1187 C1186 1.369 . S
C1187 C1188 1.410 . S
C1187 C1195 1.503 . S
C1188 C1187 1.410 . S
C1188 C1189 1.392 . S
C1188 C1191 1.511 . S
C1189 C1185 1.376 . S
C1189 C1188 1.392 . S
C1189 H1201 0.929 . S
C1190 C1186 1.531 . S
C1190 H1202 0.960 . S
C1190 H1203 0.962 . S
C1190 H1204 0.960 . S
C1191 C1188 1.511 . S
C1191 H1205 0.961 . S
C1191 H1206 0.961 . S
C1191 H1207 0.961 . S
C1192 C1193 1.370 . S
C1192 C1194 1.363 . S
C1192 H1208 0.931 . S
C1193 C1192 1.370 . S
C1193 C1197 1.408 . S
C1194 C1192 1.363 . S
C1194 C1195 1.370 . S
C1194 C1198 1.524 . S
C1195 C1187 1.503 . S
C1195 C1194 1.370 . S
C1195 C1196 1.403 . S
C1196 C1195 1.403 . S
C1196 C1197 1.404 . S
C1196 C1199 1.539 . S
C1197 C1193 1.408 . S
C1197 C1196 1.404 . S
C1197 H1209 0.930 . S
C1198 C1194 1.524 . S
C1198 H1210 0.956 . S
C1198 H1211 0.961 . S
C1198 H1212 0.961 . S
C1199 C1196 1.539 . S
C1199 H1213 0.958 . S
C1199 H1214 0.961 . S
C1199 H1215 0.960 . S
H1200 C1184 0.931 . S
H1201 C1189 0.929 . S
H1202 C1190 0.960 . S
H1203 C1190 0.962 . S
H1204 C1190 0.960 . S
H1205 C1191 0.961 . S
H1206 C1191 0.961 . S
H1207 C1191 0.961 . S
H1208 C1192 0.931 . S
H1209 C1197 0.930 . S
H1210 C1198 0.956 . S
H1211 C1198 0.961 . S
H1212 C1198 0.961 . S
H1213 C1199 0.958 . S
H1214 C1199 0.961 . S
H1215 C1199 0.960 . S
C1216 C1217 1.391 . S
C1216 C1218 1.394 . S
C1216 H1232 0.931 . S
C1217 C1216 1.391 . S
C1217 C1221 1.376 . S
C1218 C1216 1.394 . S
C1218 C1219 1.369 . S
C1218 C1222 1.531 . S
C1219 C1218 1.369 . S
C1219 C1220 1.410 . S
C1219 C1227 1.503 . S
C1220 C1219 1.410 . S
C1220 C1221 1.392 . S
C1220 C1223 1.511 . S
C1221 C1217 1.376 . S
C1221 C1220 1.392 . S
C1221 H1233 0.929 . S
C1222 C1218 1.531 . S
C1222 H1234 0.960 . S
C1222 H1235 0.962 . S
C1222 H1236 0.960 . S
C1223 C1220 1.511 . S
C1223 H1237 0.961 . S
C1223 H1238 0.961 . S
C1223 H1239 0.961 . S
C1224 C1225 1.370 . S
C1224 C1226 1.363 . S
C1224 H1240 0.931 . S
C1225 C1224 1.370 . S
C1225 C1229 1.408 . S
C1226 C1224 1.363 . S
C1226 C1227 1.370 . S
C1226 C1230 1.524 . S
C1227 C1219 1.503 . S
C1227 C1226 1.370 . S
C1227 C1228 1.403 . S
C1228 C1227 1.403 . S
C1228 C1229 1.404 . S
C1228 C1231 1.539 . S
C1229 C1225 1.408 . S
C1229 C1228 1.404 . S
C1229 H1241 0.930 . S
C1230 C1226 1.524 . S
C1230 H1242 0.956 . S
C1230 H1243 0.961 . S
C1230 H1244 0.961 . S
C1231 C1228 1.539 . S
C1231 H1245 0.958 . S
C1231 H1246 0.961 . S
C1231 H1247 0.960 . S
H1232 C1216 0.931 . S
H1233 C1221 0.929 . S
H1234 C1222 0.960 . S
H1235 C1222 0.962 . S
H1236 C1222 0.960 . S
H1237 C1223 0.961 . S
H1238 C1223 0.961 . S
H1239 C1223 0.961 . S
H1240 C1224 0.931 . S
H1241 C1229 0.930 . S
H1242 C1230 0.956 . S
H1243 C1230 0.961 . S
H1244 C1230 0.961 . S
H1245 C1231 0.958 . S
H1246 C1231 0.961 . S
H1247 C1231 0.960 . S
C1248 C1249 1.391 . S
C1248 C1250 1.394 . S
C1248 H1264 0.931 . S
C1249 C1248 1.391 . S
C1249 C1253 1.376 . S
C1250 C1248 1.394 . S
C1250 C1251 1.369 . S
C1250 C1254 1.531 . S
C1251 C1250 1.369 . S
C1251 C1252 1.410 . S
C1251 C1259 1.503 . S
C1252 C1251 1.410 . S
C1252 C1253 1.392 . S
C1252 C1255 1.511 . S
C1253 C1249 1.376 . S
C1253 C1252 1.392 . S
C1253 H1265 0.929 1_545 S
C1254 C1250 1.531 . S
C1254 H1266 0.960 . S
C1254 H1267 0.962 . S
C1254 H1268 0.960 . S
C1255 C1252 1.511 . S
C1255 H1269 0.961 . S
C1255 H1270 0.961 . S
C1255 H1271 0.961 . S
C1256 C1257 1.370 . S
C1256 C1258 1.363 . S
C1256 H1272 0.931 . S
C1257 C1256 1.370 . S
C1257 C1261 1.408 . S
C1258 C1256 1.363 . S
C1258 C1259 1.370 . S
C1258 C1262 1.524 . S
C1259 C1251 1.503 . S
C1259 C1258 1.370 . S
C1259 C1260 1.403 . S
C1260 C1259 1.403 . S
C1260 C1261 1.404 . S
C1260 C1263 1.539 . S
C1261 C1257 1.408 . S
C1261 C1260 1.404 . S
C1261 H1273 0.930 . S
C1262 C1258 1.524 . S
C1262 H1274 0.956 . S
C1262 H1275 0.961 . S
C1262 H1276 0.961 . S
C1263 C1260 1.539 . S
C1263 H1277 0.958 . S
C1263 H1278 0.961 . S
C1263 H1279 0.960 . S
H1264 C1248 0.931 . S
H1265 C1253 0.929 1_565 S
H1266 C1254 0.960 . S
H1267 C1254 0.962 . S
H1268 C1254 0.960 . S
H1269 C1255 0.961 . S
H1270 C1255 0.961 . S
H1271 C1255 0.961 . S
H1272 C1256 0.931 . S
H1273 C1261 0.930 . S
H1274 C1262 0.956 . S
H1275 C1262 0.961 . S
H1276 C1262 0.961 . S
H1277 C1263 0.958 . S
H1278 C1263 0.961 . S
H1279 C1263 0.960 . S
C1280 C1281 1.391 . S
C1280 C1282 1.394 . S
C1280 H1296 0.931 . S
C1281 C1280 1.391 . S
C1281 C1285 1.376 . S
C1282 C1280 1.394 . S
C1282 C1283 1.369 . S
C1282 C1286 1.531 . S
C1283 C1282 1.369 . S
C1283 C1284 1.410 . S
C1283 C1291 1.503 . S
C1284 C1283 1.410 . S
C1284 C1285 1.392 . S
C1284 C1287 1.511 . S
C1285 C1281 1.376 . S
C1285 C1284 1.392 . S
C1285 H1297 0.929 . S
C1286 C1282 1.531 . S
C1286 H1298 0.960 . S
C1286 H1299 0.962 . S
C1286 H1300 0.960 . S
C1287 C1284 1.511 . S
C1287 H1301 0.961 . S
C1287 H1302 0.961 . S
C1287 H1303 0.961 . S
C1288 C1289 1.370 . S
C1288 C1290 1.363 . S
C1288 H1304 0.931 . S
C1289 C1288 1.370 . S
C1289 C1293 1.408 . S
C1290 C1288 1.363 . S
C1290 C1291 1.370 . S
C1290 C1294 1.524 . S
C1291 C1283 1.503 . S
C1291 C1290 1.370 . S
C1291 C1292 1.403 . S
C1292 C1291 1.403 . S
C1292 C1293 1.404 . S
C1292 C1295 1.539 . S
C1293 C1289 1.408 . S
C1293 C1292 1.404 . S
C1293 H1305 0.930 . S
C1294 C1290 1.524 . S
C1294 H1306 0.956 . S
C1294 H1307 0.961 . S
C1294 H1308 0.961 . S
C1295 C1292 1.539 . S
C1295 H1309 0.958 . S
C1295 H1310 0.961 . S
C1295 H1311 0.960 . S
H1296 C1280 0.931 . S
H1297 C1285 0.929 . S
H1298 C1286 0.960 . S
H1299 C1286 0.962 . S
H1300 C1286 0.960 . S
H1301 C1287 0.961 . S
H1302 C1287 0.961 . S
H1303 C1287 0.961 . S
H1304 C1288 0.931 . S
H1305 C1293 0.930 . S
H1306 C1294 0.956 . S
H1307 C1294 0.961 . S
H1308 C1294 0.961 . S
H1309 C1295 0.958 . S
H1310 C1295 0.961 . S
H1311 C1295 0.960 . S
C1312 C1313 1.391 . S
C1312 C1314 1.394 . S
C1312 H1328 0.931 . S
C1313 C1312 1.391 . S
C1313 C1317 1.376 . S
C1314 C1312 1.394 . S
C1314 C1315 1.369 . S
C1314 C1318 1.531 . S
C1315 C1314 1.369 . S
C1315 C1316 1.410 . S
C1315 C1323 1.503 . S
C1316 C1315 1.410 . S
C1316 C1317 1.392 . S
C1316 C1319 1.511 . S
C1317 C1313 1.376 . S
C1317 C1316 1.392 . S
C1317 H1329 0.929 . S
C1318 C1314 1.531 . S
C1318 H1330 0.960 . S
C1318 H1331 0.962 . S
C1318 H1332 0.960 . S
C1319 C1316 1.511 . S
C1319 H1333 0.961 . S
C1319 H1334 0.961 . S
C1319 H1335 0.961 . S
C1320 C1321 1.370 . S
C1320 C1322 1.363 . S
C1320 H1336 0.931 . S
C1321 C1320 1.370 . S
C1321 C1325 1.408 . S
C1322 C1320 1.363 . S
C1322 C1323 1.370 . S
C1322 C1326 1.524 . S
C1323 C1315 1.503 . S
C1323 C1322 1.370 . S
C1323 C1324 1.403 . S
C1324 C1323 1.403 . S
C1324 C1325 1.404 . S
C1324 C1327 1.539 . S
C1325 C1321 1.408 . S
C1325 C1324 1.404 . S
C1325 H1337 0.930 . S
C1326 C1322 1.524 . S
C1326 H1338 0.956 . S
C1326 H1339 0.961 . S
C1326 H1340 0.961 . S
C1327 C1324 1.539 . S
C1327 H1341 0.958 . S
C1327 H1342 0.961 . S
C1327 H1343 0.960 . S
H1328 C1312 0.931 . S
H1329 C1317 0.929 . S
H1330 C1318 0.960 . S
H1331 C1318 0.962 . S
H1332 C1318 0.960 . S
H1333 C1319 0.961 . S
H1334 C1319 0.961 . S
H1335 C1319 0.961 . S
H1336 C1320 0.931 . S
H1337 C1325 0.930 . S
H1338 C1326 0.956 . S
H1339 C1326 0.961 . S
H1340 C1326 0.961 . S
H1341 C1327 0.958 . S
H1342 C1327 0.961 . S
H1343 C1327 0.960 . S
C1344 C1345 1.391 . S
C1344 C1346 1.394 . S
C1344 H1360 0.931 . S
C1345 C1344 1.391 . S
C1345 C1349 1.376 . S
C1346 C1344 1.394 . S
C1346 C1347 1.369 . S
C1346 C1350 1.531 . S
C1347 C1346 1.369 . S
C1347 C1348 1.410 . S
C1347 C1355 1.503 . S
C1348 C1347 1.410 . S
C1348 C1349 1.392 . S
C1348 C1351 1.511 . S
C1349 C1345 1.376 . S
C1349 C1348 1.392 . S
C1349 H1361 0.929 . S
C1350 C1346 1.531 . S
C1350 H1362 0.960 . S
C1350 H1363 0.962 . S
C1350 H1364 0.960 . S
C1351 C1348 1.511 . S
C1351 H1365 0.961 . S
C1351 H1366 0.961 . S
C1351 H1367 0.961 . S
C1352 C1353 1.370 . S
C1352 C1354 1.363 . S
C1352 H1368 0.931 . S
C1353 C1352 1.370 . S
C1353 C1357 1.408 . S
C1354 C1352 1.363 . S
C1354 C1355 1.370 . S
C1354 C1358 1.524 . S
C1355 C1347 1.503 . S
C1355 C1354 1.370 . S
C1355 C1356 1.403 . S
C1356 C1355 1.403 . S
C1356 C1357 1.404 . S
C1356 C1359 1.539 . S
C1357 C1353 1.408 . S
C1357 C1356 1.404 . S
C1357 H1369 0.930 . S
C1358 C1354 1.524 . S
C1358 H1370 0.956 . S
C1358 H1371 0.961 . S
C1358 H1372 0.961 . S
C1359 C1356 1.539 . S
C1359 H1373 0.958 . S
C1359 H1374 0.961 . S
C1359 H1375 0.960 . S
H1360 C1344 0.931 . S
H1361 C1349 0.929 . S
H1362 C1350 0.960 . S
H1363 C1350 0.962 . S
H1364 C1350 0.960 . S
H1365 C1351 0.961 . S
H1366 C1351 0.961 . S
H1367 C1351 0.961 . S
H1368 C1352 0.931 . S
H1369 C1357 0.930 . S
H1370 C1358 0.956 . S
H1371 C1358 0.961 . S
H1372 C1358 0.961 . S
H1373 C1359 0.958 . S
H1374 C1359 0.961 . S
H1375 C1359 0.960 . S
C1376 C1377 1.391 . S
C1376 C1378 1.394 . S
C1376 H1392 0.931 . S
C1377 C1376 1.391 . S
C1377 C1381 1.376 . S
C1378 C1376 1.394 . S
C1378 C1379 1.369 . S
C1378 C1382 1.531 . S
C1379 C1378 1.369 . S
C1379 C1380 1.410 . S
C1379 C1387 1.503 . S
C1380 C1379 1.410 . S
C1380 C1381 1.392 . S
C1380 C1383 1.511 . S
C1381 C1377 1.376 . S
C1381 C1380 1.392 . S
C1381 H1393 0.929 . S
C1382 C1378 1.531 . S
C1382 H1394 0.960 . S
C1382 H1395 0.962 . S
C1382 H1396 0.960 . S
C1383 C1380 1.511 . S
C1383 H1397 0.961 . S
C1383 H1398 0.961 . S
C1383 H1399 0.961 . S
C1384 C1385 1.370 . S
C1384 C1386 1.363 . S
C1384 H1400 0.931 . S
C1385 C1384 1.370 . S
C1385 C1389 1.408 . S
C1386 C1384 1.363 . S
C1386 C1387 1.370 . S
C1386 C1390 1.524 . S
C1387 C1379 1.503 . S
C1387 C1386 1.370 . S
C1387 C1388 1.403 . S
C1388 C1387 1.403 . S
C1388 C1389 1.404 . S
C1388 C1391 1.539 . S
C1389 C1385 1.408 . S
C1389 C1388 1.404 . S
C1389 H1401 0.930 . S
C1390 C1386 1.524 . S
C1390 H1402 0.956 . S
C1390 H1403 0.961 . S
C1390 H1404 0.961 . S
C1391 C1388 1.539 . S
C1391 H1405 0.958 . S
C1391 H1406 0.961 . S
C1391 H1407 0.960 . S
H1392 C1376 0.931 . S
H1393 C1381 0.929 . S
H1394 C1382 0.960 . S
H1395 C1382 0.962 . S
H1396 C1382 0.960 . S
H1397 C1383 0.961 . S
H1398 C1383 0.961 . S
H1399 C1383 0.961 . S
H1400 C1384 0.931 . S
H1401 C1389 0.930 . S
H1402 C1390 0.956 . S
H1403 C1390 0.961 . S
H1404 C1390 0.961 . S
H1405 C1391 0.958 . S
H1406 C1391 0.961 . S
H1407 C1391 0.960 . S
C1408 C1409 1.391 . S
C1408 C1410 1.394 . S
C1408 H1424 0.931 . S
C1409 C1408 1.391 . S
C1409 C1413 1.376 . S
C1410 C1408 1.394 . S
C1410 C1411 1.369 . S
C1410 C1414 1.531 . S
C1411 C1410 1.369 . S
C1411 C1412 1.410 . S
C1411 C1419 1.503 . S
C1412 C1411 1.410 . S
C1412 C1413 1.392 . S
C1412 C1415 1.511 . S
C1413 C1409 1.376 . S
C1413 C1412 1.392 . S
C1413 H1425 0.929 . S
C1414 C1410 1.531 . S
C1414 H1426 0.960 . S
C1414 H1427 0.962 . S
C1414 H1428 0.960 . S
C1415 C1412 1.511 . S
C1415 H1429 0.961 . S
C1415 H1430 0.961 . S
C1415 H1431 0.961 . S
C1416 C1417 1.370 . S
C1416 C1418 1.363 . S
C1416 H1432 0.931 . S
C1417 C1416 1.370 . S
C1417 C1421 1.408 . S
C1418 C1416 1.363 . S
C1418 C1419 1.370 . S
C1418 C1422 1.524 . S
C1419 C1411 1.503 . S
C1419 C1418 1.370 . S
C1419 C1420 1.403 . S
C1420 C1419 1.403 . S
C1420 C1421 1.404 . S
C1420 C1423 1.539 . S
C1421 C1417 1.408 . S
C1421 C1420 1.404 . S
C1421 H1433 0.930 . S
C1422 C1418 1.524 . S
C1422 H1434 0.956 . S
C1422 H1435 0.961 . S
C1422 H1436 0.961 . S
C1423 C1420 1.539 . S
C1423 H1437 0.958 . S
C1423 H1438 0.961 . S
C1423 H1439 0.960 . S
H1424 C1408 0.931 . S
H1425 C1413 0.929 . S
H1426 C1414 0.960 . S
H1427 C1414 0.962 . S
H1428 C1414 0.960 . S
H1429 C1415 0.961 . S
H1430 C1415 0.961 . S
H1431 C1415 0.961 . S
H1432 C1416 0.931 . S
H1433 C1421 0.930 . S
H1434 C1422 0.956 . S
H1435 C1422 0.961 . S
H1436 C1422 0.961 . S
H1437 C1423 0.958 . S
H1438 C1423 0.961 . S
H1439 C1423 0.960 . S
C1440 C1441 1.391 . S
C1440 C1442 1.394 . S
C1440 H1456 0.931 . S
C1441 C1440 1.391 . S
C1441 C1445 1.376 . S
C1442 C1440 1.394 . S
C1442 C1443 1.369 . S
C1442 C1446 1.531 . S
C1443 C1442 1.369 . S
C1443 C1444 1.410 . S
C1443 C1451 1.503 . S
C1444 C1443 1.410 . S
C1444 C1445 1.392 . S
C1444 C1447 1.511 . S
C1445 C1441 1.376 . S
C1445 C1444 1.392 . S
C1445 H1457 0.929 . S
C1446 C1442 1.531 . S
C1446 H1458 0.960 . S
C1446 H1459 0.962 . S
C1446 H1460 0.960 . S
C1447 C1444 1.511 . S
C1447 H1461 0.961 . S
C1447 H1462 0.961 . S
C1447 H1463 0.961 . S
C1448 C1449 1.370 . S
C1448 C1450 1.363 . S
C1448 H1464 0.931 . S
C1449 C1448 1.370 . S
C1449 C1453 1.408 . S
C1450 C1448 1.363 . S
C1450 C1451 1.370 . S
C1450 C1454 1.524 . S
C1451 C1443 1.503 . S
C1451 C1450 1.370 . S
C1451 C1452 1.403 . S
C1452 C1451 1.403 . S
C1452 C1453 1.404 . S
C1452 C1455 1.539 . S
C1453 C1449 1.408 . S
C1453 C1452 1.404 . S
C1453 H1465 0.930 . S
C1454 C1450 1.524 . S
C1454 H1466 0.956 . S
C1454 H1467 0.961 . S
C1454 H1468 0.961 . S
C1455 C1452 1.539 . S
C1455 H1469 0.958 . S
C1455 H1470 0.961 . S
C1455 H1471 0.960 . S
H1456 C1440 0.931 . S
H1457 C1445 0.929 . S
H1458 C1446 0.960 . S
H1459 C1446 0.962 . S
H1460 C1446 0.960 . S
H1461 C1447 0.961 . S
H1462 C1447 0.961 . S
H1463 C1447 0.961 . S
H1464 C1448 0.931 . S
H1465 C1453 0.930 . S
H1466 C1454 0.956 . S
H1467 C1454 0.961 . S
H1468 C1454 0.961 . S
H1469 C1455 0.958 . S
H1470 C1455 0.961 . S
H1471 C1455 0.960 . S
C1472 C1473 1.391 . S
C1472 C1474 1.394 . S
C1472 H1488 0.931 . S
C1473 C1472 1.391 . S
C1473 C1477 1.376 . S
C1474 C1472 1.394 . S
C1474 C1475 1.369 . S
C1474 C1478 1.531 . S
C1475 C1474 1.369 . S
C1475 C1476 1.410 . S
C1475 C1483 1.503 . S
C1476 C1475 1.410 . S
C1476 C1477 1.392 . S
C1476 C1479 1.511 . S
C1477 C1473 1.376 . S
C1477 C1476 1.392 . S
C1477 H1489 0.929 . S
C1478 C1474 1.531 . S
C1478 H1490 0.960 . S
C1478 H1491 0.962 . S
C1478 H1492 0.960 . S
C1479 C1476 1.511 . S
C1479 H1493 0.961 . S
C1479 H1494 0.961 . S
C1479 H1495 0.961 . S
C1480 C1481 1.370 . S
C1480 C1482 1.363 . S
C1480 H1496 0.931 . S
C1481 C1480 1.370 . S
C1481 C1485 1.408 . S
C1482 C1480 1.363 . S
C1482 C1483 1.370 . S
C1482 C1486 1.524 . S
C1483 C1475 1.503 . S
C1483 C1482 1.370 . S
C1483 C1484 1.403 . S
C1484 C1483 1.403 . S
C1484 C1485 1.404 . S
C1484 C1487 1.539 . S
C1485 C1481 1.408 . S
C1485 C1484 1.404 . S
C1485 H1497 0.930 . S
C1486 C1482 1.524 . S
C1486 H1498 0.956 . S
C1486 H1499 0.961 . S
C1486 H1500 0.961 . S
C1487 C1484 1.539 . S
C1487 H1501 0.958 . S
C1487 H1502 0.961 . S
C1487 H1503 0.960 . S
H1488 C1472 0.931 . S
H1489 C1477 0.929 . S
H1490 C1478 0.960 . S
H1491 C1478 0.962 . S
H1492 C1478 0.960 . S
H1493 C1479 0.961 . S
H1494 C1479 0.961 . S
H1495 C1479 0.961 . S
H1496 C1480 0.931 . S
H1497 C1485 0.930 . S
H1498 C1486 0.956 . S
H1499 C1486 0.961 . S
H1500 C1486 0.961 . S
H1501 C1487 0.958 . S
H1502 C1487 0.961 . S
H1503 C1487 0.960 . S
C1504 C1505 1.391 . S
C1504 C1506 1.394 . S
C1504 H1520 0.931 . S
C1505 C1504 1.391 . S
C1505 C1509 1.376 . S
C1506 C1504 1.394 . S
C1506 C1507 1.369 . S
C1506 C1510 1.531 . S
C1507 C1506 1.369 . S
C1507 C1508 1.410 . S
C1507 C1515 1.503 . S
C1508 C1507 1.410 . S
C1508 C1509 1.392 . S
C1508 C1511 1.511 . S
C1509 C1505 1.376 . S
C1509 C1508 1.392 . S
C1509 H1521 0.929 . S
C1510 C1506 1.531 . S
C1510 H1522 0.960 . S
C1510 H1523 0.962 . S
C1510 H1524 0.960 . S
C1511 C1508 1.511 . S
C1511 H1525 0.961 . S
C1511 H1526 0.961 . S
C1511 H1527 0.961 . S
C1512 C1513 1.370 . S
C1512 C1514 1.363 . S
C1512 H1528 0.931 . S
C1513 C1512 1.370 . S
C1513 C1517 1.408 . S
C1514 C1512 1.363 . S
C1514 C1515 1.370 . S
C1514 C1518 1.524 . S
C1515 C1507 1.503 . S
C1515 C1514 1.370 . S
C1515 C1516 1.403 . S
C1516 C1515 1.403 . S
C1516 C1517 1.404 . S
C1516 C1519 1.539 . S
C1517 C1513 1.408 . S
C1517 C1516 1.404 . S
C1517 H1529 0.930 . S
C1518 C1514 1.524 . S
C1518 H1530 0.956 . S
C1518 H1531 0.961 . S
C1518 H1532 0.961 . S
C1519 C1516 1.539 . S
C1519 H1533 0.958 . S
C1519 H1534 0.961 . S
C1519 H1535 0.960 . S
H1520 C1504 0.931 . S
H1521 C1509 0.929 . S
H1522 C1510 0.960 . S
H1523 C1510 0.962 . S
H1524 C1510 0.960 . S
H1525 C1511 0.961 . S
H1526 C1511 0.961 . S
H1527 C1511 0.961 . S
H1528 C1512 0.931 . S
H1529 C1517 0.930 . S
H1530 C1518 0.956 . S
H1531 C1518 0.961 . S
H1532 C1518 0.961 . S
H1533 C1519 0.958 . S
H1534 C1519 0.961 . S
H1535 C1519 0.960 . S
C1536 C1537 1.391 . S
C1536 C1538 1.394 . S
C1536 H1552 0.931 . S
C1537 C1536 1.391 . S
C1537 C1541 1.376 . S
C1538 C1536 1.394 . S
C1538 C1539 1.369 . S
C1538 C1542 1.531 . S
C1539 C1538 1.369 . S
C1539 C1540 1.410 . S
C1539 C1547 1.503 . S
C1540 C1539 1.410 . S
C1540 C1541 1.392 . S
C1540 C1543 1.511 . S
C1541 C1537 1.376 . S
C1541 C1540 1.392 . S
C1541 H1553 0.929 . S
C1542 C1538 1.531 . S
C1542 H1554 0.960 . S
C1542 H1555 0.962 . S
C1542 H1556 0.960 . S
C1543 C1540 1.511 . S
C1543 H1557 0.961 . S
C1543 H1558 0.961 . S
C1543 H1559 0.961 . S
C1544 C1545 1.370 . S
C1544 C1546 1.363 . S
C1544 H1560 0.931 . S
C1545 C1544 1.370 . S
C1545 C1549 1.408 . S
C1546 C1544 1.363 . S
C1546 C1547 1.370 . S
C1546 C1550 1.524 . S
C1547 C1539 1.503 . S
C1547 C1546 1.370 . S
C1547 C1548 1.403 . S
C1548 C1547 1.403 . S
C1548 C1549 1.404 . S
C1548 C1551 1.539 . S
C1549 C1545 1.408 . S
C1549 C1548 1.404 . S
C1549 H1561 0.930 . S
C1550 C1546 1.524 . S
C1550 H1562 0.956 . S
C1550 H1563 0.961 . S
C1550 H1564 0.961 . S
C1551 C1548 1.539 . S
C1551 H1565 0.958 . S
C1551 H1566 0.961 . S
C1551 H1567 0.960 . S
H1552 C1536 0.931 . S
H1553 C1541 0.929 . S
H1554 C1542 0.960 . S
H1555 C1542 0.962 . S
H1556 C1542 0.960 . S
H1557 C1543 0.961 . S
H1558 C1543 0.961 . S
H1559 C1543 0.961 . S
H1560 C1544 0.931 . S
H1561 C1549 0.930 . S
H1562 C1550 0.956 . S
H1563 C1550 0.961 . S
H1564 C1550 0.961 . S
H1565 C1551 0.958 . S
H1566 C1551 0.961 . S
H1567 C1551 0.960 . S
C1568 C1569 1.391 . S
C1568 C1570 1.394 . S
C1568 H1584 0.931 . S
C1569 C1568 1.391 . S
C1569 C1573 1.376 . S
C1570 C1568 1.394 . S
C1570 C1571 1.369 . S
C1570 C1574 1.531 . S
C1571 C1570 1.369 . S
C1571 C1572 1.410 . S
C1571 C1579 1.503 . S
C1572 C1571 1.410 . S
C1572 C1573 1.392 . S
C1572 C1575 1.511 . S
C1573 C1569 1.376 . S
C1573 C1572 1.392 . S
C1573 H1585 0.929 . S
C1574 C1570 1.531 . S
C1574 H1586 0.960 . S
C1574 H1587 0.962 . S
C1574 H1588 0.960 . S
C1575 C1572 1.511 . S
C1575 H1589 0.961 . S
C1575 H1590 0.961 . S
C1575 H1591 0.961 . S
C1576 C1577 1.370 . S
C1576 C1578 1.363 . S
C1576 H1592 0.931 . S
C1577 C1576 1.370 . S
C1577 C1581 1.408 . S
C1578 C1576 1.363 . S
C1578 C1579 1.370 . S
C1578 C1582 1.524 . S
C1579 C1571 1.503 . S
C1579 C1578 1.370 . S
C1579 C1580 1.403 . S
C1580 C1579 1.403 . S
C1580 C1581 1.404 . S
C1580 C1583 1.539 . S
C1581 C1577 1.408 . S
C1581 C1580 1.404 . S
C1581 H1593 0.930 . S
C1582 C1578 1.524 . S
C1582 H1594 0.956 . S
C1582 H1595 0.961 . S
C1582 H1596 0.961 . S
C1583 C1580 1.539 . S
C1583 H1597 0.958 . S
C1583 H1598 0.961 . S
C1583 H1599 0.960 . S
H1584 C1568 0.931 . S
H1585 C1573 0.929 . S
H1586 C1574 0.960 . S
H1587 C1574 0.962 . S
H1588 C1574 0.960 . S
H1589 C1575 0.961 . S
H1590 C1575 0.961 . S
H1591 C1575 0.961 . S
H1592 C1576 0.931 . S
H1593 C1581 0.930 . S
H1594 C1582 0.956 . S
H1595 C1582 0.961 . S
H1596 C1582 0.961 . S
H1597 C1583 0.958 . S
H1598 C1583 0.961 . S
H1599 C1583 0.960 . S
C577 C4 1.265 . S
C585 C472 1.265 . S
C609 C400 1.274 . S
C617 C40 1.275 . S
C641 C436 1.264 . S
C649 C76 1.264 . S
C673 C364 1.261 . S
C681 C112 1.274 . S
C705 C148 1.266 . S
C713 C544 1.265 . S
C737 C184 1.253 . S
C745 C328 1.268 . S
C769 C508 1.280 . S
C777 C220 1.272 . S
C801 C256 1.254 . S
C809 C292 1.266 . S
C833 C158 1.586 . S
C841 C14 1.565 . S
C865 C50 1.530 . S
C873 C194 1.558 . S
C897 C86 1.562 . S
C905 C230 1.574 . S
C929 C266 1.588 . S
C937 C122 1.568 . S
C961 C302 1.540 . S
C969 C374 1.566 . S
C993 C338 1.533 . S
C1001 C410 1.553 . S
C1025 C518 1.558 . S
C1033 C446 1.573 . S
C1057 C482 1.547 . S
C1065 C554 1.570 . S
C1089 C183 1.216 . S
C1097 C3 1.219 . S
C1121 C39 1.213 . S
C1129 C219 1.224 . S
C1153 C75 1.218 . S
C1161 C255 1.219 . S
C1185 C147 1.211 . S
C1193 C111 1.224 . S
C1217 C146 1.372 1_545 S
C1225 C362 1.382 . S
C1249 C74 1.390 1_545 S
C1257 C290 1.391 . S
C1281 C398 1.385 . S
C1289 C218 1.387 1_565 S
C1313 C326 1.375 . S
C1321 C2 1.383 1_565 S
C1345 C291 1.220 . S
C1353 C435 1.217 . S
C1377 C363 1.210 . S
C1385 C543 1.222 . S
C1409 C471 1.225 . S
C1417 C327 1.219 . S
C1441 C399 1.213 . S
C1449 C507 1.223 . S
C1473 C506 1.397 . S
C1481 C38 1.392 . S
C1505 C470 1.366 . S
C1513 C182 1.380 . S
C1537 C542 1.369 . S
C1545 C110 1.382 . S
C1569 C434 1.373 . S
C1577 C254 1.382 . S
