# Generated by pormake.
# Topology sma, (6)-cn, num edge types: 1
# Building blocks:
#     Node 0, Type 0, BuildingBlock: UKALOJ_clean_sbu_0, # of connection points: 6
#     Node 1, Type 0, BuildingBlock: UKALOJ_clean_sbu_0, # of connection points: 6
#     Node 2, Type 0, BuildingBlock: UKALOJ_clean_sbu_0, # of connection points: 6
#     Edge 3, Type (0, 0), BuildingBlock: XUDNAN_clean_linker_2, # of connection points: 2
#     Edge 4, Type (0, 0), BuildingBlock: XUDNAN_clean_linker_2, # of connection points: 2
#     Edge 5, Type (0, 0), BuildingBlock: XUDNAN_clean_linker_2, # of connection points: 2
#     Edge 6, Type (0, 0), BuildingBlock: XUDNAN_clean_linker_2, # of connection points: 2
#     Edge 7, Type (0, 0), BuildingBlock: XUDNAN_clean_linker_2, # of connection points: 2
#     Edge 8, Type (0, 0), BuildingBlock: XUDNAN_clean_linker_2, # of connection points: 2
#     Edge 9, Type (0, 0), BuildingBlock: XUDNAN_clean_linker_2, # of connection points: 2
#     Edge 10, Type (0, 0), BuildingBlock: XUDNAN_clean_linker_2, # of connection points: 2
#     Edge 11, Type (0, 0), BuildingBlock: XUDNAN_clean_linker_2, # of connection points: 2
# Relax obj value: 0.568
# Max RMSD: 0.350
# Mean RMSD: 0.350
data_MOF--net-sma--node1-UKALOJ_clean_sbu_0--edge1-XUDNAN_clean_linker_2
_symmetry_space_group_name_H-M    P1
_symmetry_Int_Tables_number       1
_symmetry_cell_setting            triclinic
loop_
_symmetry_equiv_pos_as_xyz
'x, y, z'
_cell_length_a     25.38776
_cell_length_b     25.975376
_cell_length_c     18.794789
_cell_angle_alpha  90.359838
_cell_angle_beta   88.183489
_cell_angle_gamma 120.48811
loop_
_atom_site_label
_atom_site_type_symbol
_atom_site_fract_x
_atom_site_fract_y
_atom_site_fract_z
_atom_type_partial_charge
Zn0 Zn 1.05944 0.54055 0.11167 0.0
O1 O 0.14358 0.63263 0.08187 0.0
C2 C 0.16559 0.53641 0.12132 0.0
Zn3 Zn 0.08455 0.5747 0.20775 0.0
C4 C 0.15496 0.67504 0.12554 0.0
O5 O 0.11901 0.6619 0.17827 0.0
C6 C 0.99722 0.44659 0.21867 0.0
O7 O 0.99801 0.57254 0.23112 0.0
O8 O 1.0039 0.57692 0.11424 0.0
N9 N 0.124 0.60613 0.30046 0.0
C10 C 0.10633 0.5876 0.36791 0.0
C11 C 0.20185 0.65208 0.36667 0.0
N12 N 0.18307 0.64645 0.29967 0.0
N13 N 0.15484 0.61503 0.41051 0.0
C14 C 1.06242 0.5462 0.95277 0.0
C15 C 1.03434 0.45596 0.92692 0.0
N16 N 1.03767 0.51321 0.01202 0.0
N17 N 1.01951 0.45701 -0.00395 0.0
N18 N 1.06243 0.51162 0.89913 0.0
H19 H 1.05669 0.62253 0.98755 0.0
H20 H 0.06987 0.61993 0.8926 0.0
H21 H 0.13063 0.6398 0.95254 0.0
C22 C 0.08079 0.61078 0.94611 0.0
C23 C 1.04116 0.54522 0.39114 0.0
H24 H 1.00942 0.54859 0.35513 0.0
H25 H 1.03183 0.55486 0.4462 0.0
H26 H 1.03189 0.4987 0.38884 0.0
O27 O 1.04619 0.48702 0.24533 0.0
O28 O 0.98333 0.45617 0.15718 0.0
C29 C 0.97828 0.57937 0.17195 0.0
O30 O 0.11235 0.50054 0.10244 0.0
O31 O 0.17157 0.5755 0.16735 0.0
Zn32 Zn 0.53986 0.03664 0.54198 0.0
O33 O 0.62692 0.12636 0.5532 0.0
C34 C 0.52878 0.11991 0.46257 0.0
Zn35 Zn 0.58554 0.03892 0.44683 0.0
C36 C 0.67551 0.13659 0.51827 0.0
O37 O 0.67227 0.09749 0.47594 0.0
C38 C 0.4535 0.94395 0.45096 0.0
O39 O 0.59938 0.96457 0.47823 0.0
O40 O 0.58008 0.99104 0.58213 0.0
N41 N 0.61928 0.04342 0.34636 0.0
C42 C 0.60565 0.06108 0.28605 0.0
C43 C 0.6725 0.0371 0.2584 0.0
N44 N 0.66086 1.0285 0.32929 0.0
N45 N 0.63884 0.05823 0.2308 0.0
C46 C 0.54154 0.06365 0.70083 0.0
C47 C 0.44708 1.02146 0.73199 0.0
N48 N 0.50931 0.03912 0.64222 0.0
N49 N 0.45056 1.013 0.66144 0.0
N50 N 0.50368 0.05401 0.75722 0.0
H51 H 0.62896 0.07544 0.66477 0.0
H52 H 0.62358 0.08794 0.75803 0.0
H53 H 0.6302 0.14218 0.69424 0.0
C54 C 0.60988 0.09361 0.70451 0.0
C55 C 0.5584 0.07917 0.28007 0.0
H56 H 0.53837 0.06882 0.2266 0.0
H57 H 0.58059 0.12815 0.28752 0.0
H58 H 0.52104 0.05619 0.3206 0.0
O59 O 0.49917 0.97824 0.4115 0.0
O60 O 0.45681 0.95151 0.51834 0.0
C61 C 0.59749 0.96078 0.54625 0.0
O62 O 0.49717 0.07948 0.50772 0.0
O63 O 0.57201 0.11763 0.42844 0.0
Zn64 Zn 0.54285 0.5108 0.86138 0.0
O65 O 0.53369 0.42309 0.84136 0.0
C66 C 0.67506 0.55282 0.86153 0.0
Zn67 Zn 0.58567 0.54826 0.76453 0.0
C68 C 0.53595 0.41649 0.77418 0.0
O69 O 0.55017 0.46038 0.73362 0.0
C70 C 0.59113 0.64571 0.83264 0.0
O71 O 0.49535 0.54527 0.74716 0.0
O72 O 0.45642 0.47502 0.82772 0.0
N73 N 0.61848 0.57392 0.6641 0.0
C74 C 0.59517 0.5458 0.60292 0.0
C75 C 0.68573 0.61737 0.57869 0.0
N76 N 0.67465 0.61862 0.64918 0.0
N77 N 0.63666 0.5715 0.54925 0.0
C78 C 0.52254 0.46701 0.01646 0.0
C79 C 0.45848 0.49108 0.05543 0.0
N80 N 0.50678 0.48815 0.96097 0.0
N81 N 0.46615 0.50218 0.98491 0.0
N82 N 0.49285 0.46835 0.07636 0.0
H83 H 0.58025 0.44101 0.95952 0.0
H84 H 0.56093 0.41402 0.04976 0.0
H85 H 0.61535 0.49142 0.03257 0.0
C86 C 0.57255 0.45236 0.01404 0.0
C87 C 0.5316 0.49373 0.59487 0.0
H88 H 0.53282 0.45162 0.59523 0.0
H89 H 0.5134 0.49685 0.54316 0.0
H90 H 0.50042 0.49183 0.63851 0.0
O91 O 0.62404 0.63604 0.7897 0.0
O92 O 0.55051 0.60179 0.87067 0.0
C93 C 0.44877 0.50768 0.78535 0.0
O94 O 0.63012 0.54498 0.9006 0.0
O95 O 0.67005 0.55094 0.79404 0.0
H96 H 0.20112 0.45582 0.08277 0.0
H97 H 0.22987 0.6297 0.02719 0.0
H98 H 0.29739 0.63817 0.92749 0.0
H99 H 0.34619 0.47943 0.03436 0.0
H100 H 0.32158 0.40878 -0.00874 0.0
H101 H 0.27494 0.41452 0.06139 0.0
H102 H 0.18253 0.37592 0.98214 0.0
H103 H 0.22562 0.36635 0.9105 0.0
H104 H 0.19049 0.41069 0.89669 0.0
H105 H 0.36557 0.6286 0.83195 0.0
H106 H 0.4313 0.60311 0.75797 0.0
H107 H 0.34624 0.42949 0.86226 0.0
C108 C 0.22363 0.49663 0.05127 0.0
C109 C 0.21535 0.54517 0.06924 0.0
C110 C 0.2413 0.59529 0.02205 0.0
C111 C 0.27806 0.59944 0.96245 0.0
C112 C 0.28608 0.55144 0.94715 0.0
C113 C 0.2589 0.50059 -0.0103 0.0
C114 C 0.27296 0.45436 0.95982 0.0
C115 C 0.30594 0.43826 0.01487 0.0
C116 C 0.2144 0.39852 0.93587 0.0
C117 C 0.31463 0.48837 0.89609 0.0
C118 C 0.32096 0.54402 0.88887 0.0
C119 C 0.36053 0.58481 0.83676 0.0
C120 C 0.3975 0.56979 0.79415 0.0
C121 C 0.39489 0.51455 0.80402 0.0
C122 C 0.34959 0.47214 0.85259 0.0
H123 H 0.68223 0.21663 0.42267 0.0
H124 H 0.78948 0.18517 0.57176 0.0
H125 H 0.88439 0.26198 0.50926 0.0
H126 H 0.76553 0.22383 0.27519 0.0
H127 H 0.76048 0.28125 0.22788 0.0
H128 H 0.70144 0.23447 0.29217 0.0
H129 H 0.71708 0.3268 0.3627 0.0
H130 H 0.7744 0.37433 0.29697 0.0
H131 H 0.79266 0.38165 0.38976 0.0
H132 H 0.96599 0.33058 0.42007 0.0
H133 H 1.03038 0.39744 0.32189 0.0
H134 H 0.86986 0.38267 0.22675 0.0
C135 C 0.72568 0.22896 0.44533 0.0
C136 C 0.72844 0.1971 0.50473 0.0
C137 C 0.78634 0.21105 0.52886 0.0
C138 C 0.84041 0.25388 0.49271 0.0
C139 C 0.83576 0.28191 0.43192 0.0
C140 C 0.77987 0.27101 0.40926 0.0
C141 C 0.78688 0.30284 0.33878 0.0
C142 C 0.75148 0.25792 0.28009 0.0
C143 C 0.76657 0.34917 0.34758 0.0
C144 C 0.85547 0.33277 0.32456 0.0
C145 C 0.8826 0.31992 0.37906 0.0
C146 C 0.94519 0.34132 0.37766 0.0
C147 C 0.98134 0.37883 0.32104 0.0
C148 C 0.95534 0.39506 0.26596 0.0
C149 C 0.89113 0.37039 0.2671 0.0
H150 H 0.55107 0.83867 0.53698 0.0
H151 H 0.67424 0.99608 0.65492 0.0
H152 H 0.67934 0.93256 0.74833 0.0
H153 H 0.46584 0.75004 0.68493 0.0
H154 H 0.45694 0.68087 0.65191 0.0
H155 H 0.46685 0.73822 0.59037 0.0
H156 H 0.56095 0.73945 0.53019 0.0
H157 H 0.54965 0.68062 0.5901 0.0
H158 H 0.62258 0.749 0.58437 0.0
H159 H 0.66671 0.85072 0.83359 0.0
H160 H 0.64807 0.75743 0.8932 0.0
H161 H 0.53336 0.65477 0.72086 0.0
C162 C 0.58113 0.85964 0.58089 0.0
C163 C 0.61359 0.92248 0.58766 0.0
C164 C 0.65021 0.94811 0.6478 0.0
C165 C 0.65277 0.91234 0.70169 0.0
C166 C 0.61824 0.85054 0.69527 0.0
C167 C 0.58413 0.82433 0.63565 0.0
C168 C 0.55064 0.75675 0.64256 0.0
C169 C 0.48094 0.72993 0.64243 0.0
C170 C 0.57226 0.72988 0.58332 0.0
C171 C 0.57089 0.74935 0.71516 0.0
C172 C 0.60957 0.80383 0.74514 0.0
C173 C 0.63584 0.80772 0.81088 0.0
C174 C 0.62427 0.75456 0.84518 0.0
C175 C 0.5862 0.6984 0.81412 0.0
C176 C 0.55892 0.69637 0.74873 0.0
H177 H 0.78394 0.64465 0.91134 0.0
H178 H 0.6716 0.45203 0.90015 0.0
H179 H 0.7262 0.44138 0.00025 0.0
H180 H 0.92611 0.64084 0.94708 0.0
H181 H 0.95545 0.70625 0.00199 0.0
H182 H 0.90623 0.69706 0.93021 0.0
H183 H 0.83486 0.71034 0.02084 0.0
H184 H 0.88236 0.71623 0.09333 0.0
H185 H 0.80224 0.66015 0.09632 0.0
H186 H 0.78455 0.45203 0.11077 0.0
H187 H 0.86932 0.4792 0.19149 0.0
H188 H 0.95467 0.66335 0.12065 0.0
C189 C 0.77274 0.60031 0.92809 0.0
C190 C 0.7237 0.54902 0.89784 0.0
C191 C 0.70944 0.49179 0.9222 0.0
C192 C 0.73944 0.48534 0.97989 0.0
C193 C 0.78514 0.5367 0.01142 0.0
C194 C 0.80418 0.59296 0.98394 0.0
C195 C 0.85871 0.64028 0.02357 0.0
C196 C 0.91496 0.67302 0.97271 0.0
C197 C 0.8436 0.68435 0.0607 0.0
C198 C 0.86689 0.60181 0.07774 0.0
C199 C 0.82231 0.54246 0.07153 0.0
C200 C 0.82006 0.49833 0.11565 0.0
C201 C 0.86768 0.51442 0.16285 0.0
C202 C 0.91807 0.57353 0.16346 0.0
C203 C 0.91579 0.61825 0.12315 0.0
H204 H 0.34799 0.93086 0.39564 0.0
H205 H 0.45412 0.84404 0.41722 0.0
H206 H 0.39961 0.77722 0.31797 0.0
H207 H 0.20272 0.78937 0.35232 0.0
H208 H 0.18006 0.8283 0.2928 0.0
H209 H 0.22574 0.86644 0.36796 0.0
H210 H 0.30528 0.94839 0.28134 0.0
H211 H 0.2612 0.90866 0.20572 0.0
H212 H 0.3399 0.92773 0.21004 0.0
H213 H 0.34265 0.72795 0.20885 0.0
H214 H 0.26255 0.67362 0.12557 0.0
H215 H 0.18632 0.78631 0.17381 0.0
C216 C 0.35742 0.89575 0.38169 0.0
C217 C 0.40413 0.89143 0.41559 0.0
C218 C 0.41712 0.8467 0.39368 0.0
C219 C 0.38735 0.80947 0.33624 0.0
C220 C 0.34398 0.81696 0.30145 0.0
C221 C 0.32685 0.85696 0.3252 0.0
C222 C 0.27631 0.85328 0.28004 0.0
C223 C 0.21773 0.83313 0.32599 0.0
C224 C 0.29694 0.9131 0.24206 0.0
C225 C 0.26836 0.8055 0.22692 0.0
C226 C 0.30924 0.78667 0.23931 0.0
C227 C 0.31031 0.74231 0.19869 0.0
C228 C 0.26487 0.71237 0.14873 0.0
C229 C 0.21766 0.72558 0.14005 0.0
C230 C 0.22233 0.77574 0.17695 0.0
H231 H 0.61508 0.37983 0.73069 0.0
H232 H 0.42549 0.33301 0.728 0.0
H233 H 0.40758 0.26218 0.63026 0.0
H234 H 0.63947 0.37753 0.54625 0.0
H235 H 0.68664 0.34415 0.54959 0.0
H236 H 0.68444 0.38796 0.62313 0.0
H237 H 0.6514 0.29908 0.71109 0.0
H238 H 0.65693 0.25664 0.63814 0.0
H239 H 0.58683 0.22706 0.69078 0.0
H240 H 0.41206 0.20069 0.52775 0.0
H241 H 0.43205 0.13582 0.44856 0.0
H242 H 0.61903 0.22351 0.51615 0.0
C243 C 0.56914 0.35236 0.71182 0.0
C244 C 0.52089 0.35994 0.73897 0.0
C245 C 0.46224 0.32581 0.71019 0.0
C246 C 0.45209 0.28651 0.65355 0.0
C247 C 0.50122 0.28196 0.62591 0.0
C248 C 0.55818 0.31257 0.65548 0.0
C249 C 0.60296 0.29889 0.61649 0.0
C250 C 0.65655 0.35553 0.58184 0.0
C251 C 0.62585 0.26861 0.66711 0.0
C252 C 0.56235 0.25592 0.56035 0.0
C253 C 0.50409 0.2475 0.56601 0.0
C254 C 0.45767 0.2073 0.52261 0.0
C255 C 0.46977 0.17146 0.4764 0.0
C256 C 0.52767 0.17568 0.47404 0.0
C257 C 0.5753 0.22094 0.51376 0.0
H258 H 1.02708 0.45282 0.77578 0.0
H259 H 0.17543 0.60806 0.87346 0.0
H260 H 0.22468 0.64668 0.75577 0.0
H261 H 0.1325 0.4436 0.63018 0.0
H262 H 0.07215 0.41646 0.56729 0.0
H263 H 1.05397 0.39704 0.66037 0.0
H264 H 0.98073 0.43916 0.6602 0.0
H265 H 0.9995 0.45972 0.56791 0.0
H266 H 1.00992 0.51553 0.63239 0.0
H267 H 0.24141 0.67906 0.6295 0.0
H268 H 0.23466 0.69513 0.50156 0.0
H269 H 0.09014 0.51007 0.48496 0.0
C270 C 0.07061 0.49419 0.77207 0.0
C271 C 0.09541 0.52973 0.83234 0.0
C272 C 0.15324 0.58276 0.82685 0.0
C273 C 0.18244 0.60416 0.76056 0.0
C274 C 0.15467 0.5701 0.70122 0.0
C275 C 0.10137 0.51504 0.7065 0.0
C276 C 0.07937 0.48893 0.63409 0.0
C277 C 0.08487 0.43321 0.6223 0.0
C278 C 1.01353 0.47509 0.62307 0.0
C279 C 0.12524 0.5405 0.58774 0.0
C280 C 0.16861 0.58669 0.62733 0.0
C281 C 0.20925 0.64249 0.59735 0.0
C282 C 0.20475 0.65137 0.52503 0.0
C283 C 0.1602 0.60457 0.48391 0.0
C284 C 0.12236 0.54777 0.51521 0.0
H285 H 0.57887 0.97631 0.13167 0.0
H286 H 0.68321 0.16605 0.17036 0.0
H287 H 0.65626 0.1865 0.05227 0.0
H288 H 0.61231 0.98317 0.93807 0.0
H289 H 0.53615 0.92333 0.9205 0.0
H290 H 0.56982 0.92551 0.00419 0.0
H291 H 0.47614 0.92072 0.07026 0.0
H292 H 0.44312 0.92048 0.98678 0.0
H293 H 0.45646 0.97682 0.05178 0.0
H294 H 0.61419 0.18521 0.93302 0.0
H295 H 0.56575 0.16248 0.81546 0.0
H296 H 0.48414 0.97333 0.85815 0.0
C297 C 0.59762 1.022 0.11357 0.0
C298 C 0.63433 0.06995 0.15798 0.0
C299 C 0.65635 0.12933 0.13526 0.0
C300 C 0.64076 0.14109 0.06899 0.0
C301 C 0.60262 0.09266 0.02705 0.0
C302 C 0.58184 1.03431 0.04801 0.0
C303 C 0.53929 0.99029 -0.00547 0.0
C304 C 0.56601 0.95342 0.96241 0.0
C305 C 0.47495 0.9497 0.02786 0.0
C306 C 0.53923 1.03298 0.9403 0.0
C307 C 0.57606 0.09184 0.96002 0.0
C308 C 0.58491 0.13935 0.91718 0.0
C309 C 0.55697 0.12626 0.85124 0.0
C310 C 0.5205 0.0664 0.82969 0.0
C311 C 0.51045 1.01927 0.87518 0.0
H312 H 0.64018 0.6316 0.43249 0.0
H313 H 0.61717 0.46437 0.50818 0.0
H314 H 0.58296 0.41974 0.38967 0.0
H315 H 0.51095 0.57306 0.33974 0.0
H316 H 0.54053 0.62451 0.26524 0.0
H317 H 0.57512 0.64751 0.35034 0.0
H318 H 0.68097 0.67482 0.29442 0.0
H319 H 0.64712 0.65364 0.20846 0.0
H320 H 0.68851 0.62015 0.24254 0.0
H321 H 0.536 0.38956 0.27069 0.0
H322 H 0.4897 0.37918 0.15306 0.0
H323 H 0.54376 0.5662 0.15618 0.0
C324 C 0.63047 0.58656 0.42253 0.0
C325 C 0.63121 0.55107 0.47794 0.0
C326 C 0.61669 0.49168 0.46519 0.0
C327 C 0.59734 0.4662 0.39845 0.0
C328 C 0.59367 0.50131 0.34545 0.0
C329 C 0.61104 0.56061 0.35621 0.0
C330 C 0.59757 0.58692 0.29281 0.0
C331 C 0.55342 0.60928 0.31331 0.0
C332 C 0.65709 0.63682 0.25746 0.0
C333 C 0.56745 0.53252 0.24633 0.0
C334 C 0.56617 0.48373 0.27708 0.0
C335 C 0.53777 0.42771 0.24532 0.0
C336 C 0.51133 0.422 0.17927 0.0
C337 C 0.51357 0.47193 0.14678 0.0
C338 C 0.54139 0.5275 0.18091 0.0
loop_
_geom_bond_atom_site_label_1
_geom_bond_atom_site_label_2
_geom_bond_distance
_geom_bond_site_symmetry_2
_ccdc_geom_bond_type
Zn0 O1 2.055 . S
Zn0 O8 2.046 1_455 S
Zn0 N16 2.036 1_454 S
Zn0 O28 2.053 1_455 S
Zn0 O30 2.066 . S
O1 Zn0 2.055 . S
O1 C4 1.259 . S
C2 O30 1.256 . S
C2 O31 1.244 . S
Zn3 O5 2.046 . S
Zn3 O7 2.055 1_455 S
Zn3 N9 2.036 . S
Zn3 O27 2.066 1_455 S
Zn3 O31 2.053 . S
C4 O1 1.259 . S
C4 O5 1.254 . S
O5 Zn3 2.046 . S
O5 C4 1.254 . S
C6 O27 1.256 . S
C6 O28 1.244 . S
O7 Zn3 2.055 1_655 S
O7 C29 1.259 . S
O8 Zn0 2.046 1_655 S
O8 C29 1.254 . S
N9 Zn3 2.036 . S
N9 C10 1.298 1_455 S
N9 N12 1.398 . S
C10 N9 1.298 1_655 S
C10 N13 1.367 1_655 S
C10 C23 1.481 . S
C11 N12 1.299 . S
C11 N13 1.379 . S
N12 N9 1.398 . S
N12 C11 1.299 . S
N13 C10 1.367 1_455 S
N13 C11 1.379 . S
C14 N16 1.298 1_455 S
C14 N18 1.367 . S
C14 C22 1.481 . S
C15 N17 1.299 . S
C15 N18 1.379 1_655 S
N16 Zn0 2.036 1_656 S
N16 C14 1.298 1_655 S
N16 N17 1.398 . S
N17 C15 1.299 . S
N17 N16 1.398 . S
N18 C14 1.367 . S
N18 C15 1.379 1_455 S
H19 C22 0.980 . S
H20 C22 0.981 . S
H21 C22 0.981 . S
C22 C14 1.481 . S
C22 H19 0.980 . S
C22 H20 0.981 . S
C22 H21 0.981 . S
C23 C10 1.481 . S
C23 H24 0.980 . S
C23 H25 0.981 . S
C23 H26 0.981 . S
H24 C23 0.980 . S
H25 C23 0.981 . S
H26 C23 0.981 . S
O27 Zn3 2.066 1_655 S
O27 C6 1.256 . S
O28 Zn0 2.053 1_655 S
O28 C6 1.244 . S
C29 O7 1.259 . S
C29 O8 1.254 . S
O30 Zn0 2.066 . S
O30 C2 1.256 . S
O31 C2 1.244 . S
O31 Zn3 2.053 . S
Zn32 O33 2.055 . S
Zn32 O40 2.046 1_545 S
Zn32 N48 2.036 1_545 S
Zn32 O60 2.053 1_545 S
Zn32 O62 2.066 . S
O33 Zn32 2.055 . S
O33 C36 1.259 . S
C34 O62 1.256 . S
C34 O63 1.244 . S
Zn35 O37 2.046 . S
Zn35 O39 2.055 1_545 S
Zn35 N41 2.036 . S
Zn35 O59 2.066 1_545 S
Zn35 O63 2.053 . S
C36 O33 1.259 . S
C36 O37 1.254 . S
O37 Zn35 2.046 . S
O37 C36 1.254 . S
C38 O59 1.256 . S
C38 O60 1.244 . S
O39 Zn35 2.055 1_565 S
O39 C61 1.259 . S
O40 Zn32 2.046 1_565 S
O40 C61 1.254 . S
N41 Zn35 2.036 . S
N41 C42 1.298 1_545 S
N41 N44 1.398 . S
C42 N41 1.298 1_565 S
C42 N45 1.367 1_565 S
C42 C55 1.481 . S
C43 N44 1.299 . S
C43 N45 1.379 . S
N44 N41 1.398 . S
N44 C43 1.299 . S
N45 C42 1.367 1_545 S
N45 C43 1.379 . S
C46 N48 1.298 1_545 S
C46 N50 1.367 . S
C46 C54 1.481 . S
C47 N49 1.299 . S
C47 N50 1.379 1_565 S
N48 Zn32 2.036 1_565 S
N48 C46 1.298 1_565 S
N48 N49 1.398 . S
N49 C47 1.299 . S
N49 N48 1.398 . S
N50 C46 1.367 . S
N50 C47 1.379 1_545 S
H51 C54 0.980 . S
H52 C54 0.981 . S
H53 C54 0.981 . S
C54 C46 1.481 . S
C54 H51 0.980 . S
C54 H52 0.981 . S
C54 H53 0.981 . S
C55 C42 1.481 . S
C55 H56 0.980 . S
C55 H57 0.981 . S
C55 H58 0.981 . S
H56 C55 0.980 . S
H57 C55 0.981 . S
H58 C55 0.981 . S
O59 Zn35 2.066 1_565 S
O59 C38 1.256 . S
O60 Zn32 2.053 1_565 S
O60 C38 1.244 . S
C61 O39 1.259 . S
C61 O40 1.254 . S
O62 Zn32 2.066 . S
O62 C34 1.256 . S
O63 C34 1.244 . S
O63 Zn35 2.053 . S
Zn64 O65 2.055 . S
Zn64 O72 2.046 . S
Zn64 N80 2.036 1_556 S
Zn64 O92 2.053 . S
Zn64 O94 2.066 . S
O65 Zn64 2.055 . S
O65 C68 1.259 . S
C66 O94 1.256 . S
C66 O95 1.244 . S
Zn67 O69 2.046 . S
Zn67 O71 2.055 . S
Zn67 N73 2.036 . S
Zn67 O91 2.066 . S
Zn67 O95 2.053 . S
C68 O65 1.259 . S
C68 O69 1.254 . S
O69 Zn67 2.046 . S
O69 C68 1.254 . S
C70 O91 1.256 . S
C70 O92 1.244 . S
O71 Zn67 2.055 . S
O71 C93 1.259 . S
O72 Zn64 2.046 . S
O72 C93 1.254 . S
N73 Zn67 2.036 . S
N73 C74 1.298 . S
N73 N76 1.398 . S
C74 N73 1.298 . S
C74 N77 1.367 . S
C74 C87 1.481 . S
C75 N76 1.299 . S
C75 N77 1.379 . S
N76 N73 1.398 . S
N76 C75 1.299 . S
N77 C74 1.367 . S
N77 C75 1.379 . S
C78 N80 1.298 . S
C78 N82 1.367 . S
C78 C86 1.481 . S
C79 N81 1.299 . S
C79 N82 1.379 . S
N80 Zn64 2.036 1_554 S
N80 C78 1.298 . S
N80 N81 1.398 . S
N81 C79 1.299 . S
N81 N80 1.398 . S
N82 C78 1.367 . S
N82 C79 1.379 . S
H83 C86 0.980 . S
H84 C86 0.981 . S
H85 C86 0.981 . S
C86 C78 1.481 . S
C86 H83 0.980 . S
C86 H84 0.981 . S
C86 H85 0.981 . S
C87 C74 1.481 . S
C87 H88 0.980 . S
C87 H89 0.981 . S
C87 H90 0.981 . S
H88 C87 0.980 . S
H89 C87 0.981 . S
H90 C87 0.981 . S
O91 Zn67 2.066 . S
O91 C70 1.256 . S
O92 Zn64 2.053 . S
O92 C70 1.244 . S
C93 O71 1.259 . S
C93 O72 1.254 . S
O94 Zn64 2.066 . S
O94 C66 1.256 . S
O95 C66 1.244 . S
O95 Zn67 2.053 . S
H96 C108 0.930 . S
H97 C110 0.930 . S
H98 C111 0.930 . S
H99 C115 0.959 . S
H100 C115 0.959 . S
H101 C115 0.961 . S
H102 C116 0.957 1_554 S
H103 C116 0.961 . S
H104 C116 0.962 . S
H105 C119 0.929 . S
H106 C120 0.931 . S
H107 C122 0.930 . S
C108 H96 0.930 . S
C108 C109 1.399 . S
C108 C113 1.399 . S
C109 C108 1.399 . S
C109 C110 1.376 . S
C110 H97 0.930 . S
C110 C109 1.376 . S
C110 C111 1.388 1_554 S
C111 H98 0.930 . S
C111 C110 1.388 1_556 S
C111 C112 1.390 . S
C112 C111 1.390 . S
C112 C113 1.394 1_556 S
C112 C118 1.465 . S
C113 C108 1.399 . S
C113 C112 1.394 1_554 S
C113 C114 1.516 . S
C114 C113 1.516 . S
C114 C115 1.502 . S
C114 C116 1.560 1_554 S
C114 C117 1.526 1_554 S
C115 H99 0.959 . S
C115 H100 0.959 . S
C115 H101 0.961 . S
C115 C114 1.502 . S
C116 H102 0.957 1_556 S
C116 H103 0.961 . S
C116 H104 0.962 . S
C116 C114 1.560 1_556 S
C117 C114 1.526 1_556 S
C117 C118 1.396 . S
C117 C122 1.390 . S
C118 C112 1.465 . S
C118 C117 1.396 . S
C118 C119 1.399 . S
C119 H105 0.929 . S
C119 C118 1.399 . S
C119 C120 1.385 . S
C120 H106 0.931 . S
C120 C119 1.385 . S
C120 C121 1.389 . S
C121 C120 1.389 . S
C121 C122 1.387 . S
C122 H107 0.930 . S
C122 C117 1.390 . S
C122 C121 1.387 . S
H123 C135 0.930 . S
H124 C137 0.930 . S
H125 C138 0.930 . S
H126 C142 0.959 . S
H127 C142 0.959 . S
H128 C142 0.961 . S
H129 C143 0.960 . S
H130 C143 0.961 . S
H131 C143 0.959 . S
H132 C146 0.929 . S
H133 C147 0.931 . S
H134 C149 0.930 . S
C135 H123 0.930 . S
C135 C136 1.399 . S
C135 C140 1.399 . S
C136 C135 1.399 . S
C136 C137 1.376 . S
C137 H124 0.930 . S
C137 C136 1.376 . S
C137 C138 1.388 . S
C138 H125 0.930 . S
C138 C137 1.388 . S
C138 C139 1.390 . S
C139 C138 1.390 . S
C139 C140 1.394 . S
C139 C145 1.465 . S
C140 C135 1.399 . S
C140 C139 1.394 . S
C140 C141 1.516 . S
C141 C140 1.516 . S
C141 C142 1.502 . S
C141 C143 1.561 . S
C141 C144 1.526 . S
C142 H126 0.959 . S
C142 H127 0.959 . S
C142 H128 0.961 . S
C142 C141 1.502 . S
C143 H129 0.960 . S
C143 H130 0.961 . S
C143 H131 0.959 . S
C143 C141 1.561 . S
C144 C141 1.526 . S
C144 C145 1.396 . S
C144 C149 1.390 . S
C145 C139 1.465 . S
C145 C144 1.396 . S
C145 C146 1.399 . S
C146 H132 0.929 . S
C146 C145 1.399 . S
C146 C147 1.385 . S
C147 H133 0.931 . S
C147 C146 1.385 . S
C147 C148 1.389 . S
C148 C147 1.389 . S
C148 C149 1.387 . S
C149 H134 0.930 . S
C149 C144 1.390 . S
C149 C148 1.387 . S
H150 C162 0.930 . S
H151 C164 0.930 . S
H152 C165 0.930 . S
H153 C169 0.959 . S
H154 C169 0.959 . S
H155 C169 0.961 . S
H156 C170 0.960 . S
H157 C170 0.961 . S
H158 C170 0.959 . S
H159 C173 0.929 . S
H160 C174 0.931 . S
H161 C176 0.930 . S
C162 H150 0.930 . S
C162 C163 1.399 . S
C162 C167 1.399 . S
C163 C162 1.399 . S
C163 C164 1.376 . S
C164 H151 0.930 . S
C164 C163 1.376 . S
C164 C165 1.388 . S
C165 H152 0.930 . S
C165 C164 1.388 . S
C165 C166 1.390 . S
C166 C165 1.390 . S
C166 C167 1.394 . S
C166 C172 1.465 . S
C167 C162 1.399 . S
C167 C166 1.394 . S
C167 C168 1.516 . S
C168 C167 1.516 . S
C168 C169 1.502 . S
C168 C170 1.561 . S
C168 C171 1.526 . S
C169 H153 0.959 . S
C169 H154 0.959 . S
C169 H155 0.961 . S
C169 C168 1.502 . S
C170 H156 0.960 . S
C170 H157 0.961 . S
C170 H158 0.959 . S
C170 C168 1.561 . S
C171 C168 1.526 . S
C171 C172 1.396 . S
C171 C176 1.390 . S
C172 C166 1.465 . S
C172 C171 1.396 . S
C172 C173 1.399 . S
C173 H159 0.929 . S
C173 C172 1.399 . S
C173 C174 1.385 . S
C174 H160 0.931 . S
C174 C173 1.385 . S
C174 C175 1.389 . S
C175 C174 1.389 . S
C175 C176 1.387 . S
C176 H161 0.930 . S
C176 C171 1.390 . S
C176 C175 1.387 . S
H177 C189 0.930 . S
H178 C191 0.930 . S
H179 C192 0.930 1_554 S
H180 C196 0.959 . S
H181 C196 0.959 . S
H182 C196 0.961 . S
H183 C197 0.960 . S
H184 C197 0.961 . S
H185 C197 0.959 . S
H186 C200 0.929 . S
H187 C201 0.931 . S
H188 C203 0.930 . S
C189 H177 0.930 . S
C189 C190 1.399 . S
C189 C194 1.399 . S
C190 C189 1.399 . S
C190 C191 1.376 . S
C191 H178 0.930 . S
C191 C190 1.376 . S
C191 C192 1.388 . S
C192 H179 0.930 1_556 S
C192 C191 1.388 . S
C192 C193 1.390 1_556 S
C193 C192 1.390 1_554 S
C193 C194 1.394 1_554 S
C193 C199 1.465 . S
C194 C189 1.399 . S
C194 C193 1.394 1_556 S
C194 C195 1.516 . S
C195 C194 1.516 . S
C195 C196 1.502 . S
C195 C197 1.561 1_556 S
C195 C198 1.526 1_556 S
C196 H180 0.959 . S
C196 H181 0.959 . S
C196 H182 0.961 . S
C196 C195 1.502 . S
C197 H183 0.960 . S
C197 H184 0.961 . S
C197 H185 0.959 . S
C197 C195 1.561 1_554 S
C198 C195 1.526 1_554 S
C198 C199 1.396 . S
C198 C203 1.390 . S
C199 C193 1.465 . S
C199 C198 1.396 . S
C199 C200 1.399 . S
C200 H186 0.929 . S
C200 C199 1.399 . S
C200 C201 1.385 . S
C201 H187 0.931 . S
C201 C200 1.385 . S
C201 C202 1.389 . S
C202 C201 1.389 . S
C202 C203 1.387 . S
C203 H188 0.930 . S
C203 C198 1.390 . S
C203 C202 1.387 . S
H204 C216 0.930 . S
H205 C218 0.930 . S
H206 C219 0.930 . S
H207 C223 0.959 . S
H208 C223 0.959 . S
H209 C223 0.961 . S
H210 C224 0.960 . S
H211 C224 0.961 . S
H212 C224 0.959 . S
H213 C227 0.929 . S
H214 C228 0.931 . S
H215 C230 0.930 . S
C216 H204 0.930 . S
C216 C217 1.399 . S
C216 C221 1.399 . S
C217 C216 1.399 . S
C217 C218 1.376 . S
C218 H205 0.930 . S
C218 C217 1.376 . S
C218 C219 1.388 . S
C219 H206 0.930 . S
C219 C218 1.388 . S
C219 C220 1.390 . S
C220 C219 1.390 . S
C220 C221 1.394 . S
C220 C226 1.465 . S
C221 C216 1.399 . S
C221 C220 1.394 . S
C221 C222 1.516 . S
C222 C221 1.516 . S
C222 C223 1.502 . S
C222 C224 1.561 . S
C222 C225 1.526 . S
C223 H207 0.959 . S
C223 H208 0.959 . S
C223 H209 0.961 . S
C223 C222 1.502 . S
C224 H210 0.960 . S
C224 H211 0.961 . S
C224 H212 0.959 . S
C224 C222 1.561 . S
C225 C222 1.526 . S
C225 C226 1.396 . S
C225 C230 1.390 . S
C226 C220 1.465 . S
C226 C225 1.396 . S
C226 C227 1.399 . S
C227 H213 0.929 . S
C227 C226 1.399 . S
C227 C228 1.385 . S
C228 H214 0.931 . S
C228 C227 1.385 . S
C228 C229 1.389 . S
C229 C228 1.389 . S
C229 C230 1.387 . S
C230 H215 0.930 . S
C230 C225 1.390 . S
C230 C229 1.387 . S
H231 C243 0.930 . S
H232 C245 0.930 . S
H233 C246 0.930 . S
H234 C250 0.959 . S
H235 C250 0.959 . S
H236 C250 0.961 . S
H237 C251 0.960 . S
H238 C251 0.961 . S
H239 C251 0.959 . S
H240 C254 0.929 . S
H241 C255 0.931 . S
H242 C257 0.930 . S
C243 H231 0.930 . S
C243 C244 1.399 . S
C243 C248 1.399 . S
C244 C243 1.399 . S
C244 C245 1.376 . S
C245 H232 0.930 . S
C245 C244 1.376 . S
C245 C246 1.388 . S
C246 H233 0.930 . S
C246 C245 1.388 . S
C246 C247 1.390 . S
C247 C246 1.390 . S
C247 C248 1.394 . S
C247 C253 1.465 . S
C248 C243 1.399 . S
C248 C247 1.394 . S
C248 C249 1.516 . S
C249 C248 1.516 . S
C249 C250 1.502 . S
C249 C251 1.561 . S
C249 C252 1.526 . S
C250 H234 0.959 . S
C250 H235 0.959 . S
C250 H236 0.961 . S
C250 C249 1.502 . S
C251 H237 0.960 . S
C251 H238 0.961 . S
C251 H239 0.959 . S
C251 C249 1.561 . S
C252 C249 1.526 . S
C252 C253 1.396 . S
C252 C257 1.390 . S
C253 C247 1.465 . S
C253 C252 1.396 . S
C253 C254 1.399 . S
C254 H240 0.929 . S
C254 C253 1.399 . S
C254 C255 1.385 . S
C255 H241 0.931 . S
C255 C254 1.385 . S
C255 C256 1.389 . S
C256 C255 1.389 . S
C256 C257 1.387 . S
C257 H242 0.930 . S
C257 C252 1.390 . S
C257 C256 1.387 . S
H258 C270 0.930 . S
H259 C272 0.930 . S
H260 C273 0.930 . S
H261 C277 0.959 . S
H262 C277 0.959 . S
H263 C277 0.961 . S
H264 C278 0.960 . S
H265 C278 0.961 . S
H266 C278 0.959 . S
H267 C281 0.929 . S
H268 C282 0.931 . S
H269 C284 0.930 . S
C270 H258 0.930 . S
C270 C271 1.399 1_655 S
C270 C275 1.399 . S
C271 C270 1.399 1_455 S
C271 C272 1.376 . S
C272 H259 0.930 . S
C272 C271 1.376 . S
C272 C273 1.388 . S
C273 H260 0.930 . S
C273 C272 1.388 . S
C273 C274 1.390 . S
C274 C273 1.390 . S
C274 C275 1.394 1_455 S
C274 C280 1.465 . S
C275 C270 1.399 . S
C275 C274 1.394 1_655 S
C275 C276 1.516 . S
C276 C275 1.516 . S
C276 C277 1.502 . S
C276 C278 1.561 . S
C276 C279 1.526 . S
C277 H261 0.959 . S
C277 H262 0.959 . S
C277 H263 0.961 . S
C277 C276 1.502 . S
C278 H264 0.960 . S
C278 H265 0.961 . S
C278 H266 0.959 . S
C278 C276 1.561 . S
C279 C276 1.526 . S
C279 C280 1.396 1_655 S
C279 C284 1.390 . S
C280 C274 1.465 . S
C280 C279 1.396 1_455 S
C280 C281 1.399 . S
C281 H267 0.929 . S
C281 C280 1.399 . S
C281 C282 1.385 . S
C282 H268 0.931 . S
C282 C281 1.385 . S
C282 C283 1.389 1_455 S
C283 C282 1.389 1_655 S
C283 C284 1.387 . S
C284 H269 0.930 . S
C284 C279 1.390 . S
C284 C283 1.387 . S
H285 C297 0.930 . S
H286 C299 0.930 . S
H287 C300 0.930 . S
H288 C304 0.959 . S
H289 C304 0.959 . S
H290 C304 0.961 1_554 S
H291 C305 0.960 1_554 S
H292 C305 0.961 . S
H293 C305 0.959 . S
H294 C308 0.929 . S
H295 C309 0.931 . S
H296 C311 0.930 . S
C297 H285 0.930 . S
C297 C298 1.399 . S
C297 C302 1.399 . S
C298 C297 1.399 . S
C298 C299 1.376 1_565 S
C299 H286 0.930 . S
C299 C298 1.376 1_545 S
C299 C300 1.388 . S
C300 H287 0.930 . S
C300 C299 1.388 . S
C300 C301 1.390 . S
C301 C300 1.390 . S
C301 C302 1.394 1_545 S
C301 C307 1.465 1_554 S
C302 C297 1.399 . S
C302 C301 1.394 1_565 S
C302 C303 1.516 1_554 S
C303 C302 1.516 1_556 S
C303 C304 1.502 . S
C303 C305 1.561 . S
C303 C306 1.526 . S
C304 H288 0.959 . S
C304 H289 0.959 . S
C304 H290 0.961 1_556 S
C304 C303 1.502 . S
C305 H291 0.960 1_556 S
C305 H292 0.961 . S
C305 H293 0.959 . S
C305 C303 1.561 . S
C306 C303 1.526 . S
C306 C307 1.396 1_565 S
C306 C311 1.390 . S
C307 C301 1.465 1_556 S
C307 C306 1.396 1_545 S
C307 C308 1.399 . S
C308 H294 0.929 . S
C308 C307 1.399 . S
C308 C309 1.385 . S
C309 H295 0.931 . S
C309 C308 1.385 . S
C309 C310 1.389 . S
C310 C309 1.389 . S
C310 C311 1.387 1_545 S
C311 H296 0.930 . S
C311 C306 1.390 . S
C311 C310 1.387 1_565 S
H312 C324 0.930 . S
H313 C326 0.930 . S
H314 C327 0.930 . S
H315 C331 0.959 . S
H316 C331 0.959 . S
H317 C331 0.961 . S
H318 C332 0.960 . S
H319 C332 0.961 . S
H320 C332 0.959 . S
H321 C335 0.929 . S
H322 C336 0.931 . S
H323 C338 0.930 . S
C324 H312 0.930 . S
C324 C325 1.399 . S
C324 C329 1.399 . S
C325 C324 1.399 . S
C325 C326 1.376 . S
C326 H313 0.930 . S
C326 C325 1.376 . S
C326 C327 1.388 . S
C327 H314 0.930 . S
C327 C326 1.388 . S
C327 C328 1.390 . S
C328 C327 1.390 . S
C328 C329 1.394 . S
C328 C334 1.465 . S
C329 C324 1.399 . S
C329 C328 1.394 . S
C329 C330 1.516 . S
C330 C329 1.516 . S
C330 C331 1.502 . S
C330 C332 1.561 . S
C330 C333 1.526 . S
C331 H315 0.959 . S
C331 H316 0.959 . S
C331 H317 0.961 . S
C331 C330 1.502 . S
C332 H318 0.960 . S
C332 H319 0.961 . S
C332 H320 0.959 . S
C332 C330 1.561 . S
C333 C330 1.526 . S
C333 C334 1.396 . S
C333 C338 1.390 . S
C334 C328 1.465 . S
C334 C333 1.396 . S
C334 C335 1.399 . S
C335 H321 0.929 . S
C335 C334 1.399 . S
C335 C336 1.385 . S
C336 H322 0.931 . S
C336 C335 1.385 . S
C336 C337 1.389 . S
C337 C336 1.389 . S
C337 C338 1.387 . S
C338 H323 0.930 . S
C338 C333 1.390 . S
C338 C337 1.387 . S
C109 C2 1.893 . S
C121 C93 1.935 . S
C136 C36 1.943 . S
C148 C6 1.909 . S
C163 C61 1.886 . S
C175 C70 1.960 . S
C190 C66 1.897 . S
C202 C29 1.925 . S
C217 C38 1.923 . S
C229 C4 1.892 . S
C244 C68 1.943 . S
C256 C34 1.895 . S
C271 N18 0.563 . S
C283 N13 0.400 1_655 S
C298 N45 0.450 1_565 S
C310 N50 0.633 . S
C325 N77 0.359 . S
C337 N82 0.617 . S
