# Generated by pormake.
# Topology bcg, (8)-cn, num edge types: 1
# Building blocks:
#     Node 0, Type 0, BuildingBlock: HISSIN_clean_sbu_1, # of connection points: 8
#     Node 1, Type 0, BuildingBlock: HISSIN_clean_sbu_1, # of connection points: 8
#     Node 2, Type 0, BuildingBlock: HISSIN_clean_sbu_1, # of connection points: 8
#     Node 3, Type 0, BuildingBlock: HISSIN_clean_sbu_1, # of connection points: 8
#     Edge 4, Type (0, 0), BuildingBlock: XIVTED_clean_linker_0, # of connection points: 2
#     Edge 5, Type (0, 0), BuildingBlock: XIVTED_clean_linker_0, # of connection points: 2
#     Edge 6, Type (0, 0), BuildingBlock: XIVTED_clean_linker_0, # of connection points: 2
#     Edge 7, Type (0, 0), BuildingBlock: XIVTED_clean_linker_0, # of connection points: 2
#     Edge 8, Type (0, 0), BuildingBlock: XIVTED_clean_linker_0, # of connection points: 2
#     Edge 9, Type (0, 0), BuildingBlock: XIVTED_clean_linker_0, # of connection points: 2
#     Edge 10, Type (0, 0), BuildingBlock: XIVTED_clean_linker_0, # of connection points: 2
#     Edge 11, Type (0, 0), BuildingBlock: XIVTED_clean_linker_0, # of connection points: 2
#     Edge 12, Type (0, 0), BuildingBlock: XIVTED_clean_linker_0, # of connection points: 2
#     Edge 13, Type (0, 0), BuildingBlock: XIVTED_clean_linker_0, # of connection points: 2
#     Edge 14, Type (0, 0), BuildingBlock: XIVTED_clean_linker_0, # of connection points: 2
#     Edge 15, Type (0, 0), BuildingBlock: XIVTED_clean_linker_0, # of connection points: 2
#     Edge 16, Type (0, 0), BuildingBlock: XIVTED_clean_linker_0, # of connection points: 2
#     Edge 17, Type (0, 0), BuildingBlock: XIVTED_clean_linker_0, # of connection points: 2
#     Edge 18, Type (0, 0), BuildingBlock: XIVTED_clean_linker_0, # of connection points: 2
#     Edge 19, Type (0, 0), BuildingBlock: XIVTED_clean_linker_0, # of connection points: 2
# Relax obj value: 0.167
# Max RMSD: 0.235
# Mean RMSD: 0.235
data_MOF--net-bcg--node1-HISSIN_clean_sbu_1--edge1-XIVTED_clean_linker_0
_symmetry_space_group_name_H-M    P1
_symmetry_Int_Tables_number       1
_symmetry_cell_setting            triclinic
loop_
_symmetry_equiv_pos_as_xyz
'x, y, z'
_cell_length_a     22.314772
_cell_length_b     17.678273
_cell_length_c     33.792414
_cell_angle_alpha  79.964586
_cell_angle_beta   90.086917
_cell_angle_gamma 90.234281
loop_
_atom_site_label
_atom_site_type_symbol
_atom_site_fract_x
_atom_site_fract_y
_atom_site_fract_z
_atom_type_partial_charge
Eu0 Eu 0.35413 0.17956 0.0246 0.0
C1 C 0.31881 0.35626 0.99505 0.0
O2 O 0.40854 0.15969 0.08146 0.0
C3 C 0.06621 0.35736 0.05688 0.0
C4 C 0.94908 0.36053 0.08517 0.0
C5 C 0.01786 0.34789 0.03153 0.0
C6 C 0.95901 0.34948 0.04572 0.0
C7 C 0.05575 0.36541 0.09698 0.0
C8 C 0.99687 0.36502 0.11163 0.0
Eu9 Eu 0.1851 0.33137 0.97889 0.0
O10 O 0.26503 0.11756 0.02928 0.0
O11 O 0.128 0.33596 0.92348 0.0
O12 O 0.27441 0.39326 0.97447 0.0
O13 O 0.23433 0.21883 0.98479 0.0
C14 C 0.12473 0.39736 0.89535 0.0
O15 O 0.15229 0.46064 0.90068 0.0
O16 O 0.14527 0.28519 0.03667 0.0
C17 C 0.12786 0.3532 0.04267 0.0
C18 C 0.38435 0.11602 0.11282 0.0
O19 O 0.33246 0.08318 0.10825 0.0
O20 O 0.14553 0.40973 0.01435 0.0
O21 O 0.30525 0.29255 0.01971 0.0
C22 C 0.40902 0.15868 0.95989 0.0
O23 O 0.39879 0.22691 0.96882 0.0
C24 C 0.46873 0.14727 0.9442 0.0
C25 C 0.58202 0.14037 0.91007 0.0
C26 C 0.52027 0.15659 0.9668 0.0
C27 C 0.57729 0.15371 0.94959 0.0
C28 C 0.47412 0.13582 0.9043 0.0
C29 C 0.53086 0.13346 0.88708 0.0
C30 C 0.22059 0.15504 0.00923 0.0
O31 O 0.38661 0.10187 0.98612 0.0
H32 H 0.90345 0.36077 0.09615 0.0
H33 H 0.02607 0.33798 0.00123 0.0
H34 H 0.0933 0.36853 0.11704 0.0
H35 H 0.62565 0.14245 0.89575 0.0
H36 H 0.51591 0.16911 -0.00304 0.0
H37 H 0.43439 0.13354 0.886 0.0
Eu38 Eu 0.83382 0.68655 0.01992 0.0
C39 C 0.83971 0.86805 0.00859 0.0
O40 O 0.88598 0.64656 0.07668 0.0
C41 C 0.57928 0.82821 0.04712 0.0
C42 C 0.46523 0.81021 0.08228 0.0
C43 C 0.53016 0.80563 0.02523 0.0
C44 C 0.47286 0.79557 0.04317 0.0
C45 C 0.5701 0.84271 0.08632 0.0
C46 C 0.51288 0.83541 0.10379 0.0
Eu47 Eu 0.71598 0.81562 0.97564 0.0
O48 O 0.74486 0.6241 0.02326 0.0
O49 O 0.67831 0.85283 0.91374 0.0
O50 O 0.80414 0.87815 0.97705 0.0
O51 O 0.71202 0.69411 0.96413 0.0
C52 C 0.70512 0.82834 0.88387 0.0
O53 O 0.7551 0.78927 0.89111 0.0
O54 O 0.68001 0.78784 0.03664 0.0
C55 C 0.63988 0.84308 0.02953 0.0
C56 C 0.86076 0.60413 0.10804 0.0
O57 O 0.80538 0.58022 0.10502 0.0
O58 O 0.6437 0.88462 0.99333 0.0
O59 O 0.83685 0.80504 0.03561 0.0
C60 C 0.8982 0.67129 0.95769 0.0
O61 O 0.85798 0.7259 0.95699 0.0
C62 C 0.95519 0.69086 0.93568 0.0
C63 C 0.06096 0.72318 0.89097 0.0
C64 C 1.00903 0.70639 0.95502 0.0
C65 C 0.06235 0.72312 0.93253 0.0
C66 C 0.95558 0.69025 0.89411 0.0
C67 C 1.00828 0.7064 0.87158 0.0
C68 C 0.70724 0.634 0.9928 0.0
O69 O 0.90061 0.62347 0.99215 0.0
H70 H 0.42108 0.80338 0.09586 0.0
H71 H 0.53646 0.79597 0.99471 0.0
H72 H 0.60719 0.86255 0.10265 0.0
H73 H 0.10198 0.73358 0.87367 0.0
H74 H 1.00935 0.70578 0.98714 0.0
H75 H 0.91469 0.67714 0.87922 0.0
Eu76 Eu 0.35778 0.88423 0.46816 0.0
C77 C 0.32566 0.70783 0.4998 0.0
O78 O 0.40639 0.88947 0.40944 0.0
C79 C 0.07545 0.68427 0.43182 0.0
C80 C 0.96161 0.65411 0.40358 0.0
C81 C 0.02448 0.69491 0.45443 0.0
C82 C 0.96752 0.67937 0.44034 0.0
C83 C 0.06914 0.65915 0.39468 0.0
C84 C 1.01189 0.64395 0.38023 0.0
Eu85 Eu 0.18851 0.73507 0.50923 0.0
O86 O 0.27449 0.9569 0.46487 0.0
O87 O 0.13111 0.7329 0.56449 0.0
O88 O 0.27843 0.67534 0.51951 0.0
O89 O 0.24133 0.8453 0.49717 0.0
C90 C 0.11785 0.67011 0.59004 0.0
O91 O 0.13553 0.60317 0.58263 0.0
O92 O 0.14459 0.77206 0.45175 0.0
C93 C 0.13532 0.70105 0.44621 0.0
C94 C 0.3727 0.89871 0.37707 0.0
O95 O 0.31465 0.9066 0.38136 0.0
O96 O 0.15835 0.64899 0.47477 0.0
O97 O 0.31667 0.76603 0.47045 0.0
C98 C 0.42302 0.89698 0.53026 0.0
O99 O 0.3787 0.84768 0.53133 0.0
C100 C 0.47811 0.86614 0.55042 0.0
C101 C 0.57929 0.79957 0.59078 0.0
C102 C 0.52416 0.83782 0.52885 0.0
C103 C 0.57482 0.80448 0.54917 0.0
C104 C 0.48353 0.8624 0.5922 0.0
C105 C 0.5342 0.82869 0.61259 0.0
C106 C 0.22836 0.91581 0.4802 0.0
O107 O 0.42866 0.94291 0.49533 0.0
H108 H 0.91696 0.64594 0.3923 0.0
H109 H 0.02911 0.71547 0.48271 0.0
H110 H 0.10863 0.65169 0.37714 0.0
H111 H 0.6196 0.77576 0.60603 0.0
H112 H 0.5205 0.84126 0.49659 0.0
H113 H 0.44809 0.8846 0.60883 0.0
Eu114 Eu 0.82128 0.34705 0.47662 0.0
C115 C 0.83071 0.17032 0.48778 0.0
O116 O 0.86561 0.38285 0.41678 0.0
C117 C 0.57274 0.18206 0.44724 0.0
C118 C 0.45929 0.17954 0.41177 0.0
C119 C 0.52088 0.19671 0.46878 0.0
C120 C 0.46353 0.19487 0.45103 0.0
C121 C 0.56682 0.16696 0.40794 0.0
C122 C 0.51018 0.16468 0.3902 0.0
Eu123 Eu 0.70548 0.20958 0.5199 0.0
O124 O 0.73319 0.40869 0.47751 0.0
O125 O 0.67004 0.16344 0.58135 0.0
O126 O 0.79673 0.15492 0.5198 0.0
O127 O 0.69097 0.32981 0.53221 0.0
C128 C 0.69556 0.18775 0.61179 0.0
O129 O 0.74228 0.23366 0.60495 0.0
O130 O 0.67045 0.23306 0.45846 0.0
C131 C 0.63322 0.17416 0.46557 0.0
C132 C 0.83376 0.37549 0.38503 0.0
O133 O 0.77706 0.35575 0.39007 0.0
O134 O 0.63793 0.13367 0.50195 0.0
O135 O 0.81827 0.22981 0.46042 0.0
C136 C 0.89322 0.36201 0.53527 0.0
O137 O 0.85223 0.30741 0.5381 0.0
C138 C 0.95158 0.3438 0.55558 0.0
C139 C 0.06087 0.3194 0.59694 0.0
C140 C 1.00376 0.32655 0.53513 0.0
C141 C 0.05911 0.31558 0.5558 0.0
C142 C 0.95523 0.34917 0.59654 0.0
C143 C 1.00957 0.33643 0.61738 0.0
C144 C 0.69309 0.39509 0.50653 0.0
O145 O 0.89301 0.40935 0.50057 0.0
H146 H 0.41569 0.18019 0.3975 0.0
H147 H 0.52499 0.20725 0.49931 0.0
H148 H 0.60629 0.15407 0.39167 0.0
H149 H 0.10293 0.31024 0.6132 0.0
H150 H 1.00167 0.32398 0.50335 0.0
H151 H 0.91565 0.36349 0.61227 0.0
H152 H 0.59227 0.28008 0.98476 0.0
H153 H 0.94688 0.22414 0.00945 0.0
H154 H 0.68651 0.08344 0.95669 0.0
H155 H 0.85276 0.42516 0.03181 0.0
H156 H 0.85279 0.17364 0.98717 0.0
H157 H 0.68733 0.33256 0.00388 0.0
C158 C 0.63285 0.24707 0.9836 0.0
C159 C 0.63172 0.17731 0.96925 0.0
C160 C 0.85284 0.22929 0.99642 0.0
C161 C 0.74073 0.23797 0.98975 0.0
C162 C 0.90668 0.25861 0.00851 0.0
C163 C 0.90728 0.32872 0.02251 0.0
C164 C 0.79948 0.27044 -0.00148 0.0
C165 C 0.85386 0.37058 0.02141 0.0
C166 C 0.68723 0.27759 0.99387 0.0
C167 C 0.68571 0.13761 0.9675 0.0
N168 N 0.80194 0.34041 0.01007 0.0
N169 N 0.73814 0.16872 0.9774 0.0
H170 H 0.1426 0.83852 0.90703 0.0
H171 H 0.39675 0.6754 0.06703 0.0
H172 H 0.11682 0.64001 -0.00048 0.0
H173 H 0.42321 0.87059 0.97282 0.0
H174 H 0.29601 0.65801 0.04114 0.0
H175 H 0.24504 0.85109 0.93078 0.0
C176 C 0.15838 0.79792 0.93266 0.0
C177 C 0.12096 0.73795 0.95124 0.0
C178 C 0.32395 0.70408 0.02573 0.0
C179 C 0.23911 0.7515 0.97842 0.0
C180 C 0.38172 0.71353 0.04025 0.0
C181 C 0.41858 0.77419 0.02184 0.0
C182 C 0.30231 0.75614 0.99267 0.0
C183 C 0.39664 0.82247 0.98755 0.0
C184 C 0.21708 0.80493 0.94608 0.0
C185 C 0.1438 0.68746 0.9845 0.0
N186 N 0.33978 0.81286 0.97431 0.0
N187 N 0.20144 0.69508 -0.00315 0.0
H188 H 0.62316 0.66178 0.55857 0.0
H189 H 0.93143 0.81542 0.45913 0.0
H190 H 0.64489 0.89275 0.49379 0.0
H191 H 0.87864 0.57824 0.46764 0.0
H192 H 0.83164 0.84432 0.48304 0.0
H193 H 0.72077 0.6281 0.53331 0.0
C194 C 0.6481 0.70471 0.53823 0.0
C195 C 0.6262 0.77966 0.52764 0.0
C196 C 0.84219 0.78588 0.47993 0.0
C197 C 0.73812 0.74306 0.50048 0.0
C198 C 0.89913 0.76931 0.46694 0.0
C199 C 0.91276 0.69446 0.46174 0.0
C200 C 0.79933 0.72686 0.4882 0.0
C201 C 0.86943 0.6366 0.47152 0.0
C202 C 0.70374 0.68581 0.52418 0.0
C203 C 0.66021 0.83405 0.50198 0.0
N204 N 0.81444 0.65397 0.48438 0.0
N205 N 0.71514 0.81497 0.48966 0.0
H206 H 0.08497 0.20622 0.50925 0.0
H207 H 0.4368 0.31135 0.49275 0.0
H208 H 0.16457 0.39299 0.55785 0.0
H209 H 0.36 0.11037 0.45588 0.0
H210 H 0.33749 0.34325 0.51642 0.0
H211 H 0.18463 0.17426 0.48597 0.0
C212 C 0.12321 0.24123 0.5144 0.0
C213 C 0.11652 0.30213 0.53564 0.0
C214 C 0.34246 0.29187 0.50337 0.0
C215 C 0.23079 0.26534 0.50977 0.0
C216 C 0.39934 0.27327 0.49029 0.0
C217 C 0.40675 0.20847 0.47204 0.0
C218 C 0.29258 0.24539 0.49814 0.0
C219 C 0.35627 0.16155 0.46926 0.0
C220 C 0.18021 0.22252 0.50153 0.0
C221 C 0.16782 0.34514 0.54187 0.0
N222 N 0.30149 0.18118 0.4818 0.0
N223 N 0.22258 0.32582 0.52918 0.0
H224 H 0.67475 0.50518 0.04735 0.0
H225 H 0.36385 0.46566 0.93538 0.0
H226 H 0.62595 0.63829 0.93231 0.0
H227 H 0.41512 0.31309 0.04395 0.0
H228 H 0.46404 0.52196 0.93153 0.0
H229 H 0.58477 0.42576 0.04456 0.0
C230 C 0.64558 0.51724 0.02139 0.0
C231 C 0.65757 0.57918 0.99031 0.0
C232 C 0.45378 0.47555 0.95602 0.0
C233 C 0.55464 0.48928 0.98708 0.0
C234 C 0.39646 0.44346 0.9582 0.0
C235 C 0.38113 0.38482 0.99008 0.0
C236 C 0.49598 0.44963 0.98625 0.0
C237 C 0.42523 0.35812 0.0188 0.0
C238 C 0.59423 0.47197 0.01982 0.0
C239 C 0.61838 0.59183 0.95726 0.0
N240 N 0.48053 0.39127 0.01646 0.0
N241 N 0.56857 0.54789 0.95675 0.0
H242 H 0.67337 0.53391 0.45699 0.0
H243 H 0.36063 0.59347 0.56064 0.0
H244 H 0.60883 0.39097 0.5655 0.0
H245 H 0.429 0.74895 0.45776 0.0
H246 H 0.45723 0.52831 0.56756 0.0
H247 H 0.59016 0.62219 0.4608 0.0
C248 C 0.64215 0.52138 0.4818 0.0
C249 C 0.64765 0.45414 0.51058 0.0
C250 C 0.45144 0.57729 0.54373 0.0
C251 C 0.55231 0.55479 0.51505 0.0
C252 C 0.39622 0.61457 0.53981 0.0
C253 C 0.38642 0.67595 0.5082 0.0
C254 C 0.49701 0.60097 0.51555 0.0
C255 C 0.43438 0.70129 0.48232 0.0
C256 C 0.59459 0.57179 0.48393 0.0
C257 C 0.60609 0.44142 0.54227 0.0
N258 N 0.48735 0.663 0.4862 0.0
N259 N 0.55999 0.49078 0.54341 0.0
H260 H 0.17524 0.05035 0.07096 0.0
H261 H 0.86775 1.00213 0.9571 0.0
H262 H 0.12491 0.19443 0.9596 0.0
H263 H 0.91936 0.86409 0.07024 0.0
H264 H 0.95451 0.08557 0.96172 0.0
H265 H 0.07516 0.9933 0.07545 0.0
C266 C 0.14278 0.07071 0.0477 0.0
C267 C 0.15828 0.12713 0.01482 0.0
C268 C 0.9464 0.03741 0.98569 0.0
C269 C 0.04383 0.06151 0.01938 0.0
C270 C 0.89685 0.98981 0.98309 0.0
C271 C 0.88678 0.92521 0.01297 0.0
C272 C 0.98616 0.01993 0.0183 0.0
C273 C 0.92567 0.91253 0.04616 0.0
C274 C 0.08558 0.03822 0.05026 0.0
C275 C 0.11449 0.15162 0.98561 0.0
N276 N 0.97389 0.95886 0.04767 0.0
N277 N 0.0594 0.11804 0.9883 0.0
H278 H 0.92119 0.21197 0.4345 0.0
H279 H 0.12687 0.85053 0.51623 0.0
H280 H 0.86846 0.0338 0.53271 0.0
H281 H 0.19084 0.05426 0.43902 0.0
H282 H 0.02756 0.90784 0.51636 0.0
H283 H 0.01588 0.14662 0.42998 0.0
C284 C 0.92928 0.15863 0.45498 0.0
C285 C 0.88679 0.1282 0.48411 0.0
C286 C 0.06325 0.93989 0.49925 0.0
C287 C 0.99551 0.053 0.47892 0.0
C288 C 0.11982 0.90685 0.49902 0.0
C289 C 0.16705 0.94722 0.47762 0.0
C290 C 0.05393 0.01422 0.47779 0.0
C291 C 0.15564 0.02082 0.45591 0.0
C292 C 0.98358 0.12152 0.45241 0.0
C293 C 0.90007 0.05926 0.50991 0.0
N294 N 0.10024 0.05204 0.45662 0.0
N295 N 0.9534 0.02381 0.50669 0.0
H296 H 0.57303 0.22055 0.3211 0.0
H297 H 0.33193 0.0565 0.18407 0.0
H298 H 0.42993 0.06484 0.36663 0.0
H299 H 0.49437 0.16777 0.13438 0.0
H300 H 0.36881 0.06156 0.25111 0.0
H301 H 0.54927 0.19983 0.2527 0.0
C302 C 0.53728 0.18118 0.31676 0.0
C303 C 0.50264 0.14546 0.34944 0.0
C304 C 0.39725 0.0831 0.2257 0.0
C305 C 0.47489 0.12229 0.27166 0.0
C306 C 0.37598 0.08073 0.18725 0.0
C307 C 0.41007 0.11187 0.15348 0.0
C308 C 0.45361 0.11554 0.2308 0.0
C309 C 0.46662 0.14313 0.15964 0.0
C310 C 0.52359 0.16963 0.27777 0.0
C311 C 0.45682 0.09503 0.34219 0.0
N312 N 0.48666 0.1444 0.19764 0.0
N313 N 0.44392 0.08567 0.30414 0.0
H314 H 0.57884 0.79963 0.17379 0.0
H315 H 0.31196 0.91351 0.3064 0.0
H316 H 0.41984 0.91947 0.12498 0.0
H317 H 0.49028 0.87818 0.35572 0.0
H318 H 0.3512 0.90495 0.24041 0.0
H319 H 0.54961 0.82205 0.24104 0.0
C320 C 0.53829 0.83139 0.17712 0.0
C321 C 0.50101 0.85616 0.14387 0.0
C322 C 0.38202 0.8996 0.26553 0.0
C323 C 0.46713 0.88082 0.22036 0.0
C324 C 0.35957 0.90434 0.30337 0.0
C325 C 0.39785 0.89654 0.33675 0.0
C326 C 0.44345 0.8875 0.26061 0.0
C327 C 0.45919 0.8846 0.33075 0.0
C328 C 0.52159 0.84389 0.21545 0.0
C329 C 0.44904 0.8972 0.14988 0.0
N330 N 0.48019 0.88016 0.29333 0.0
N331 N 0.43334 0.90725 0.18733 0.0
H332 H 0.56815 0.70549 0.66758 0.0
H333 H 0.61257 0.92286 0.85283 0.0
H334 H 0.5219 0.94499 0.65649 0.0
H335 H 0.72892 0.74416 0.82582 0.0
H336 H 0.55986 0.9221 0.78866 0.0
H337 H 0.60442 0.7068 0.73559 0.0
C338 C 0.56475 0.75806 0.6798 0.0
C339 C 0.54296 0.82554 0.65626 0.0
C340 C 0.59715 0.8836 0.79697 0.0
C341 C 0.58447 0.82744 0.73391 0.0
C342 C 0.62714 0.88392 0.83337 0.0
C343 C 0.67526 0.83367 0.84451 0.0
C344 C 0.61477 0.83151 0.77233 0.0
C345 C 0.69236 0.7842 0.81836 0.0
C346 C 0.58568 0.75885 0.71845 0.0
C347 C 0.5385 0.89181 0.67374 0.0
N348 N 0.66185 0.78397 0.78369 0.0
N349 N 0.55981 0.89143 0.71158 0.0
H350 H 0.55519 0.2633 0.83596 0.0
H351 H 0.61329 0.07612 0.64189 0.0
H352 H 0.52662 0.02085 0.84038 0.0
H353 H 0.71307 0.2678 0.67238 0.0
H354 H 0.56274 0.06103 0.70762 0.0
H355 H 0.59018 0.27462 0.76674 0.0
C356 C 0.55506 0.21282 0.82177 0.0
C357 C 0.53831 0.14113 0.84342 0.0
C358 C 0.59586 0.10605 0.69969 0.0
C359 C 0.57932 0.15303 0.76498 0.0
C360 C 0.62466 0.11472 0.6624 0.0
C361 C 0.66743 0.1733 0.6518 0.0
C362 C 0.60912 0.15755 0.72574 0.0
C363 C 0.68065 0.22169 0.67936 0.0
C364 C 0.57553 0.21905 0.78259 0.0
C365 C 0.53922 0.07701 0.82424 0.0
N366 N 0.65121 0.21314 0.71487 0.0
N367 N 0.56002 0.08426 0.78587 0.0
H368 H 0.07 0.69821 0.30874 0.0
H369 H 0.8177 0.53093 0.1805 0.0
H370 H 0.93111 0.54062 0.35989 0.0
H371 H 0.97257 0.65416 0.12599 0.0
H372 H 0.86187 0.53052 0.24647 0.0
H373 H 0.04047 0.67669 0.24161 0.0
C374 C 0.03416 0.65796 0.306 0.0
C375 C 1.00248 0.62197 0.34007 0.0
C376 C 0.88678 0.55646 0.2201 0.0
C377 C 0.96753 0.59868 0.26339 0.0
C378 C 0.86146 0.55684 0.18233 0.0
C379 C 0.89109 0.59343 0.14762 0.0
C380 C 0.94249 0.59227 0.22335 0.0
C381 C 0.94787 0.6258 0.15197 0.0
C382 C 0.01698 0.6462 0.26763 0.0
C383 C 0.95601 0.57102 0.33451 0.0
N384 N 0.97154 0.62504 0.18918 0.0
N385 N 0.93945 0.56188 0.29701 0.0
H386 H 0.7787 0.36373 0.31458 0.0
H387 H 0.04846 0.44783 0.16556 0.0
H388 H 0.95352 0.39144 0.36534 0.0
H389 H 0.91545 0.27337 0.15676 0.0
H390 H 1.01496 0.44899 0.2351 0.0
H391 H 0.82578 0.3575 0.2503 0.0
C392 C 0.82699 0.36912 0.31218 0.0
C393 C 0.8622 0.37837 0.34537 0.0
C394 C 0.9936 0.41053 0.21767 0.0
C395 C 0.91622 0.37148 0.27172 0.0
C396 C 1.01273 0.40956 0.17824 0.0
C397 C 0.98352 0.36207 0.15492 0.0
C398 C 0.94431 0.36514 0.23303 0.0
C399 C 0.93771 0.31322 0.17294 0.0
C400 C 0.85379 0.36505 0.27555 0.0
C401 C 0.92471 0.38481 0.34036 0.0
N402 N 0.9188 0.31715 0.21051 0.0
N403 N 0.94995 0.38172 0.30399 0.0
H404 H 0.10738 0.51203 0.83002 0.0
H405 H 0.04556 0.22659 0.67934 0.0
H406 H 0.07858 0.26933 0.87113 0.0
H407 H 0.98652 0.46171 0.65233 0.0
H408 H 0.06488 0.24216 0.74891 0.0
H409 H 0.07128 0.49668 0.76326 0.0
C410 C 0.09266 0.45584 0.82525 0.0
C411 C 0.09644 0.39175 0.85623 0.0
C412 C 0.04699 0.2901 0.72792 0.0
C413 C 0.05453 0.37441 0.78013 0.0
C414 C 0.03603 0.28121 0.68834 0.0
C415 C 1.01433 0.34292 0.66035 0.0
C416 C 0.03761 0.36181 0.73932 0.0
C417 C 1.00293 0.41273 0.67326 0.0
C418 C 0.07164 0.44737 0.78724 0.0
C419 C 0.07669 0.32035 0.84821 0.0
N420 N 1.01557 0.42075 0.71176 0.0
N421 N 0.05724 0.31347 0.81087 0.0
H422 H 0.08909 0.80133 0.61804 0.0
H423 H 0.96951 0.59125 0.83251 0.0
H424 H 0.08072 0.5543 0.6506 0.0
H425 H 0.0522 0.81552 0.81154 0.0
H426 H 0.98462 0.58336 0.76117 0.0
H427 H 0.05103 0.81226 0.68444 0.0
C428 C 0.07862 0.74925 0.63894 0.0
C429 C 0.08872 0.67665 0.62877 0.0
C430 C 0.99924 0.63425 0.7723 0.0
C431 C 0.04462 0.68911 0.70496 0.0
C432 C 0.99002 0.63918 0.81277 0.0
C433 C 1.00999 0.70399 0.82789 0.0
C434 C 0.0283 0.69468 0.74692 0.0
C435 C 0.03673 0.76425 0.80114 0.0
C436 C 0.05698 0.75566 0.67691 0.0
C437 C 0.07391 0.61137 0.65721 0.0
N438 N 0.0453 0.75802 0.76206 0.0
N439 N 0.05279 0.6191 0.69412 0.0
loop_
_geom_bond_atom_site_label_1
_geom_bond_atom_site_label_2
_geom_bond_distance
_geom_bond_site_symmetry_2
_ccdc_geom_bond_type
Eu0 O2 2.323 . S
Eu0 O10 2.328 . S
Eu0 O21 2.316 . S
Eu0 C22 2.837 1_554 S
Eu0 O23 2.488 1_554 S
Eu0 O31 2.461 . S
C1 O12 1.251 1_554 S
C1 O21 1.237 . S
O2 Eu0 2.323 . S
O2 C18 1.279 . S
C3 C5 1.383 . S
C3 C7 1.388 . S
C3 C17 1.491 . S
C4 C6 1.403 . S
C4 C8 1.385 1_655 S
C4 H32 0.931 . S
C5 C3 1.383 . S
C5 C6 1.393 1_455 S
C5 H33 0.930 1_455 S
C6 C4 1.403 . S
C6 C5 1.393 1_655 S
C7 C3 1.388 . S
C7 C8 1.394 . S
C7 H34 0.930 . S
C8 C4 1.385 1_455 S
C8 C7 1.394 . S
Eu9 O11 2.323 . S
Eu9 O12 2.328 . S
Eu9 O13 2.316 . S
Eu9 O16 2.488 1_556 S
Eu9 C17 2.837 1_556 S
Eu9 O20 2.461 . S
O10 Eu0 2.328 . S
O10 C30 1.251 1_554 S
O11 Eu9 2.323 . S
O11 C14 1.279 . S
O12 C1 1.251 1_556 S
O12 Eu9 2.328 . S
O13 Eu9 2.316 . S
O13 C30 1.237 . S
C14 O11 1.279 . S
C14 O15 1.244 . S
O15 C14 1.244 . S
O16 Eu9 2.488 1_554 S
O16 C17 1.271 . S
C17 C3 1.491 . S
C17 Eu9 2.837 1_554 S
C17 O16 1.271 . S
C17 O20 1.261 1_554 S
C18 O2 1.279 . S
C18 O19 1.244 . S
O19 C18 1.244 . S
O20 Eu9 2.461 . S
O20 C17 1.261 1_556 S
O21 Eu0 2.316 . S
O21 C1 1.237 . S
C22 Eu0 2.837 1_556 S
C22 O23 1.271 . S
C22 C24 1.491 . S
C22 O31 1.261 1_556 S
O23 Eu0 2.488 1_556 S
O23 C22 1.271 . S
C24 C22 1.491 . S
C24 C26 1.383 . S
C24 C28 1.388 . S
C25 C27 1.403 . S
C25 C29 1.385 . S
C25 H35 0.931 . S
C26 C24 1.383 . S
C26 C27 1.393 . S
C26 H36 0.930 . S
C27 C25 1.403 . S
C27 C26 1.393 . S
C28 C24 1.388 . S
C28 C29 1.394 . S
C28 H37 0.930 . S
C29 C25 1.385 . S
C29 C28 1.394 . S
C30 O10 1.251 1_556 S
C30 O13 1.237 . S
O31 Eu0 2.461 . S
O31 C22 1.261 1_554 S
H32 C4 0.931 . S
H33 C5 0.930 1_655 S
H34 C7 0.930 . S
H35 C25 0.931 . S
H36 C26 0.930 . S
H37 C28 0.930 . S
Eu38 O40 2.323 . S
Eu38 O48 2.328 . S
Eu38 O59 2.316 . S
Eu38 C60 2.837 1_554 S
Eu38 O61 2.488 1_554 S
Eu38 O69 2.461 . S
C39 O50 1.251 1_554 S
C39 O59 1.237 . S
O40 Eu38 2.323 . S
O40 C56 1.279 . S
C41 C43 1.383 . S
C41 C45 1.388 . S
C41 C55 1.491 . S
C42 C44 1.403 . S
C42 C46 1.385 . S
C42 H70 0.931 . S
C43 C41 1.383 . S
C43 C44 1.393 . S
C43 H71 0.930 . S
C44 C42 1.403 . S
C44 C43 1.393 . S
C45 C41 1.388 . S
C45 C46 1.394 . S
C45 H72 0.930 . S
C46 C42 1.385 . S
C46 C45 1.394 . S
Eu47 O49 2.323 . S
Eu47 O50 2.328 . S
Eu47 O51 2.316 . S
Eu47 O54 2.488 1_556 S
Eu47 C55 2.837 1_556 S
Eu47 O58 2.461 . S
O48 Eu38 2.328 . S
O48 C68 1.251 1_554 S
O49 Eu47 2.323 . S
O49 C52 1.279 . S
O50 C39 1.251 1_556 S
O50 Eu47 2.328 . S
O51 Eu47 2.316 . S
O51 C68 1.237 . S
C52 O49 1.279 . S
C52 O53 1.244 . S
O53 C52 1.244 . S
O54 Eu47 2.488 1_554 S
O54 C55 1.271 . S
C55 C41 1.491 . S
C55 Eu47 2.837 1_554 S
C55 O54 1.271 . S
C55 O58 1.261 1_554 S
C56 O40 1.279 . S
C56 O57 1.244 . S
O57 C56 1.244 . S
O58 Eu47 2.461 . S
O58 C55 1.261 1_556 S
O59 Eu38 2.316 . S
O59 C39 1.237 . S
C60 Eu38 2.837 1_556 S
C60 O61 1.271 . S
C60 C62 1.491 . S
C60 O69 1.261 1_556 S
O61 Eu38 2.488 1_556 S
O61 C60 1.271 . S
C62 C60 1.491 . S
C62 C64 1.383 . S
C62 C66 1.388 . S
C63 C65 1.403 . S
C63 C67 1.385 1_455 S
C63 H73 0.931 . S
C64 C62 1.383 . S
C64 C65 1.393 1_655 S
C64 H74 0.930 1_655 S
C65 C63 1.403 . S
C65 C64 1.393 1_455 S
C66 C62 1.388 . S
C66 C67 1.394 . S
C66 H75 0.930 . S
C67 C63 1.385 1_655 S
C67 C66 1.394 . S
C68 O48 1.251 1_556 S
C68 O51 1.237 . S
O69 Eu38 2.461 . S
O69 C60 1.261 1_554 S
H70 C42 0.931 . S
H71 C43 0.930 . S
H72 C45 0.930 . S
H73 C63 0.931 . S
H74 C64 0.930 1_455 S
H75 C66 0.930 . S
Eu76 O78 2.323 . S
Eu76 O86 2.328 . S
Eu76 O97 2.316 . S
Eu76 C98 2.837 . S
Eu76 O99 2.488 . S
Eu76 O107 2.461 . S
C77 O88 1.251 . S
C77 O97 1.237 . S
O78 Eu76 2.323 . S
O78 C94 1.279 . S
C79 C81 1.383 . S
C79 C83 1.388 . S
C79 C93 1.491 . S
C80 C82 1.403 . S
C80 C84 1.385 1_655 S
C80 H108 0.931 . S
C81 C79 1.383 . S
C81 C82 1.393 1_455 S
C81 H109 0.930 1_455 S
C82 C80 1.403 . S
C82 C81 1.393 1_655 S
C83 C79 1.388 . S
C83 C84 1.394 . S
C83 H110 0.930 . S
C84 C80 1.385 1_455 S
C84 C83 1.394 . S
Eu85 O87 2.323 . S
Eu85 O88 2.328 . S
Eu85 O89 2.316 . S
Eu85 O92 2.488 . S
Eu85 C93 2.837 . S
Eu85 O96 2.461 . S
O86 Eu76 2.328 . S
O86 C106 1.251 . S
O87 Eu85 2.323 . S
O87 C90 1.279 . S
O88 C77 1.251 . S
O88 Eu85 2.328 . S
O89 Eu85 2.316 . S
O89 C106 1.237 . S
C90 O87 1.279 . S
C90 O91 1.244 . S
O91 C90 1.244 . S
O92 Eu85 2.488 . S
O92 C93 1.271 . S
C93 C79 1.491 . S
C93 Eu85 2.837 . S
C93 O92 1.271 . S
C93 O96 1.261 . S
C94 O78 1.279 . S
C94 O95 1.244 . S
O95 C94 1.244 . S
O96 Eu85 2.461 . S
O96 C93 1.261 . S
O97 Eu76 2.316 . S
O97 C77 1.237 . S
C98 Eu76 2.837 . S
C98 O99 1.271 . S
C98 C100 1.491 . S
C98 O107 1.261 . S
O99 Eu76 2.488 . S
O99 C98 1.271 . S
C100 C98 1.491 . S
C100 C102 1.383 . S
C100 C104 1.388 . S
C101 C103 1.403 . S
C101 C105 1.385 . S
C101 H111 0.931 . S
C102 C100 1.383 . S
C102 C103 1.393 . S
C102 H112 0.930 . S
C103 C101 1.403 . S
C103 C102 1.393 . S
C104 C100 1.388 . S
C104 C105 1.394 . S
C104 H113 0.930 . S
C105 C101 1.385 . S
C105 C104 1.394 . S
C106 O86 1.251 . S
C106 O89 1.237 . S
O107 Eu76 2.461 . S
O107 C98 1.261 . S
H108 C80 0.931 . S
H109 C81 0.930 1_655 S
H110 C83 0.930 . S
H111 C101 0.931 . S
H112 C102 0.930 . S
H113 C104 0.930 . S
Eu114 O116 2.323 . S
Eu114 O124 2.328 . S
Eu114 O135 2.316 . S
Eu114 C136 2.837 . S
Eu114 O137 2.488 . S
Eu114 O145 2.461 . S
C115 O126 1.251 . S
C115 O135 1.237 . S
O116 Eu114 2.323 . S
O116 C132 1.279 . S
C117 C119 1.383 . S
C117 C121 1.388 . S
C117 C131 1.491 . S
C118 C120 1.403 . S
C118 C122 1.385 . S
C118 H146 0.931 . S
C119 C117 1.383 . S
C119 C120 1.393 . S
C119 H147 0.930 . S
C120 C118 1.403 . S
C120 C119 1.393 . S
C121 C117 1.388 . S
C121 C122 1.394 . S
C121 H148 0.930 . S
C122 C118 1.385 . S
C122 C121 1.394 . S
Eu123 O125 2.323 . S
Eu123 O126 2.328 . S
Eu123 O127 2.316 . S
Eu123 O130 2.488 . S
Eu123 C131 2.837 . S
Eu123 O134 2.461 . S
O124 Eu114 2.328 . S
O124 C144 1.251 . S
O125 Eu123 2.323 . S
O125 C128 1.279 . S
O126 C115 1.251 . S
O126 Eu123 2.328 . S
O127 Eu123 2.316 . S
O127 C144 1.237 . S
C128 O125 1.279 . S
C128 O129 1.244 . S
O129 C128 1.244 . S
O130 Eu123 2.488 . S
O130 C131 1.271 . S
C131 C117 1.491 . S
C131 Eu123 2.837 . S
C131 O130 1.271 . S
C131 O134 1.261 . S
C132 O116 1.279 . S
C132 O133 1.244 . S
O133 C132 1.244 . S
O134 Eu123 2.461 . S
O134 C131 1.261 . S
O135 Eu114 2.316 . S
O135 C115 1.237 . S
C136 Eu114 2.837 . S
C136 O137 1.271 . S
C136 C138 1.491 . S
C136 O145 1.261 . S
O137 Eu114 2.488 . S
O137 C136 1.271 . S
C138 C136 1.491 . S
C138 C140 1.383 . S
C138 C142 1.388 . S
C139 C141 1.403 . S
C139 C143 1.385 1_455 S
C139 H149 0.931 . S
C140 C138 1.383 . S
C140 C141 1.393 1_655 S
C140 H150 0.930 1_655 S
C141 C139 1.403 . S
C141 C140 1.393 1_455 S
C142 C138 1.388 . S
C142 C143 1.394 . S
C142 H151 0.930 . S
C143 C139 1.385 1_655 S
C143 C142 1.394 . S
C144 O124 1.251 . S
C144 O127 1.237 . S
O145 Eu114 2.461 . S
O145 C136 1.261 . S
H146 C118 0.931 . S
H147 C119 0.930 . S
H148 C121 0.930 . S
H149 C139 0.931 . S
H150 C140 0.930 1_455 S
H151 C142 0.930 . S
H152 C158 0.930 1_554 S
H153 C162 0.930 1_556 S
H154 C167 0.929 . S
H155 C165 0.929 . S
H156 C160 0.929 . S
H157 C166 0.929 . S
C158 H152 0.930 1_556 S
C158 C159 1.367 . S
C158 C166 1.378 1_556 S
C159 C158 1.367 . S
C159 C167 1.433 . S
C160 H156 0.929 . S
C160 C162 1.378 1_556 S
C160 C164 1.350 1_556 S
C161 C164 1.463 1_556 S
C161 C166 1.350 1_556 S
C161 N169 1.427 . S
C162 H153 0.930 1_554 S
C162 C160 1.378 1_554 S
C162 C163 1.367 . S
C163 C162 1.367 . S
C163 C165 1.433 . S
C164 C160 1.350 1_554 S
C164 C161 1.463 1_554 S
C164 N168 1.427 . S
C165 H155 0.929 . S
C165 C163 1.433 . S
C165 N168 1.384 . S
C166 H157 0.929 . S
C166 C158 1.378 1_554 S
C166 C161 1.350 1_554 S
C167 H154 0.929 . S
C167 C159 1.433 . S
C167 N169 1.384 . S
N168 C164 1.427 . S
N168 C165 1.384 . S
N169 C161 1.427 . S
N169 C167 1.384 . S
H170 C176 0.930 . S
H171 C180 0.930 . S
H172 C185 0.929 1_554 S
H173 C183 0.929 1_556 S
H174 C178 0.929 . S
H175 C184 0.929 . S
C176 H170 0.930 . S
C176 C177 1.367 . S
C176 C184 1.378 . S
C177 C176 1.367 . S
C177 C185 1.433 . S
C178 H174 0.929 . S
C178 C180 1.378 . S
C178 C182 1.350 . S
C179 C182 1.463 1_556 S
C179 C184 1.350 . S
C179 N187 1.427 1_556 S
C180 H171 0.930 . S
C180 C178 1.378 . S
C180 C181 1.367 . S
C181 C180 1.367 . S
C181 C183 1.433 . S
C182 C178 1.350 . S
C182 C179 1.463 1_554 S
C182 N186 1.427 1_554 S
C183 H173 0.929 1_554 S
C183 C181 1.433 . S
C183 N186 1.384 1_554 S
C184 H175 0.929 . S
C184 C176 1.378 . S
C184 C179 1.350 . S
C185 H172 0.929 1_556 S
C185 C177 1.433 . S
C185 N187 1.384 1_556 S
N186 C182 1.427 1_556 S
N186 C183 1.384 1_556 S
N187 C179 1.427 1_554 S
N187 C185 1.384 1_554 S
H188 C194 0.930 . S
H189 C198 0.930 . S
H190 C203 0.929 . S
H191 C201 0.929 . S
H192 C196 0.929 . S
H193 C202 0.929 . S
C194 H188 0.930 . S
C194 C195 1.367 . S
C194 C202 1.378 . S
C195 C194 1.367 . S
C195 C203 1.433 . S
C196 H192 0.929 . S
C196 C198 1.378 . S
C196 C200 1.350 . S
C197 C200 1.463 . S
C197 C202 1.350 . S
C197 N205 1.427 . S
C198 H189 0.930 . S
C198 C196 1.378 . S
C198 C199 1.367 . S
C199 C198 1.367 . S
C199 C201 1.433 . S
C200 C196 1.350 . S
C200 C197 1.463 . S
C200 N204 1.427 . S
C201 H191 0.929 . S
C201 C199 1.433 . S
C201 N204 1.384 . S
C202 H193 0.929 . S
C202 C194 1.378 . S
C202 C197 1.350 . S
C203 H190 0.929 . S
C203 C195 1.433 . S
C203 N205 1.384 . S
N204 C200 1.427 . S
N204 C201 1.384 . S
N205 C197 1.427 . S
N205 C203 1.384 . S
H206 C212 0.930 . S
H207 C216 0.930 . S
H208 C221 0.929 . S
H209 C219 0.929 . S
H210 C214 0.929 . S
H211 C220 0.929 . S
C212 H206 0.930 . S
C212 C213 1.367 . S
C212 C220 1.378 . S
C213 C212 1.367 . S
C213 C221 1.433 . S
C214 H210 0.929 . S
C214 C216 1.378 . S
C214 C218 1.350 . S
C215 C218 1.463 . S
C215 C220 1.350 . S
C215 N223 1.427 . S
C216 H207 0.930 . S
C216 C214 1.378 . S
C216 C217 1.367 . S
C217 C216 1.367 . S
C217 C219 1.433 . S
C218 C214 1.350 . S
C218 C215 1.463 . S
C218 N222 1.427 . S
C219 H209 0.929 . S
C219 C217 1.433 . S
C219 N222 1.384 . S
C220 H211 0.929 . S
C220 C212 1.378 . S
C220 C215 1.350 . S
C221 H208 0.929 . S
C221 C213 1.433 . S
C221 N223 1.384 . S
N222 C218 1.427 . S
N222 C219 1.384 . S
N223 C215 1.427 . S
N223 C221 1.384 . S
H224 C230 0.930 . S
H225 C234 0.930 . S
H226 C239 0.929 . S
H227 C237 0.929 . S
H228 C232 0.929 . S
H229 C238 0.929 . S
C230 H224 0.930 . S
C230 C231 1.367 1_554 S
C230 C238 1.378 . S
C231 C230 1.367 1_556 S
C231 C239 1.433 . S
C232 H228 0.929 . S
C232 C234 1.378 . S
C232 C236 1.364 . S
C233 C236 1.458 1_554 S
C233 C238 1.370 . S
C233 N241 1.409 1_554 S
C234 H225 0.930 . S
C234 C232 1.378 . S
C234 C235 1.367 1_556 S
C235 C234 1.367 1_554 S
C235 C237 1.433 . S
C236 C232 1.364 . S
C236 C233 1.458 1_556 S
C236 N240 1.414 1_556 S
C237 H227 0.929 . S
C237 C235 1.433 . S
C237 N240 1.384 . S
C238 H229 0.929 . S
C238 C230 1.378 . S
C238 C233 1.370 . S
C239 H226 0.929 . S
C239 C231 1.433 . S
C239 N241 1.384 . S
N240 C236 1.414 1_554 S
N240 C237 1.384 . S
N241 C233 1.409 1_556 S
N241 C239 1.384 . S
H242 C248 0.930 . S
H243 C252 0.930 . S
H244 C257 0.929 . S
H245 C255 0.929 . S
H246 C250 0.929 . S
H247 C256 0.929 . S
C248 H242 0.930 . S
C248 C249 1.367 . S
C248 C256 1.378 . S
C249 C248 1.367 . S
C249 C257 1.433 . S
C250 H246 0.929 . S
C250 C252 1.378 . S
C250 C254 1.350 . S
C251 C254 1.463 . S
C251 C256 1.350 . S
C251 N259 1.427 . S
C252 H243 0.930 . S
C252 C250 1.378 . S
C252 C253 1.367 . S
C253 C252 1.367 . S
C253 C255 1.433 . S
C254 C250 1.350 . S
C254 C251 1.463 . S
C254 N258 1.427 . S
C255 H245 0.929 . S
C255 C253 1.433 . S
C255 N258 1.384 . S
C256 H247 0.929 . S
C256 C248 1.378 . S
C256 C251 1.350 . S
C257 H244 0.929 . S
C257 C249 1.433 . S
C257 N259 1.384 . S
N258 C254 1.427 . S
N258 C255 1.384 . S
N259 C251 1.427 . S
N259 C257 1.384 . S
H260 C266 0.930 . S
H261 C270 0.930 . S
H262 C275 0.929 . S
H263 C273 0.929 . S
H264 C268 0.928 1_545 S
H265 C274 0.928 1_565 S
C266 H260 0.930 . S
C266 C267 1.367 1_554 S
C266 C274 1.378 . S
C267 C266 1.367 1_556 S
C267 C275 1.433 . S
C268 H264 0.928 1_565 S
C268 C270 1.378 . S
C268 C272 1.367 . S
C269 C272 1.458 1_444 S
C269 C274 1.373 . S
C269 N277 1.406 1_554 S
C270 H261 0.930 . S
C270 C268 1.378 . S
C270 C271 1.367 1_556 S
C271 C270 1.367 1_554 S
C271 C273 1.433 . S
C272 C268 1.367 . S
C272 C269 1.458 1_666 S
C272 N276 1.411 1_556 S
C273 H263 0.929 . S
C273 C271 1.433 . S
C273 N276 1.384 . S
C274 H265 0.928 1_545 S
C274 C266 1.378 . S
C274 C269 1.373 . S
C275 H262 0.929 . S
C275 C267 1.433 . S
C275 N277 1.384 . S
N276 C272 1.411 1_554 S
N276 C273 1.384 . S
N277 C269 1.406 1_556 S
N277 C275 1.384 . S
H278 C284 0.930 . S
H279 C288 0.930 . S
H280 C293 0.929 1_565 S
H281 C291 0.929 1_545 S
H282 C286 0.929 1_655 S
H283 C292 0.929 1_455 S
C284 H278 0.930 . S
C284 C285 1.367 . S
C284 C292 1.378 . S
C285 C284 1.367 . S
C285 C293 1.433 . S
C286 H282 0.929 1_455 S
C286 C288 1.378 . S
C286 C290 1.350 . S
C287 C290 1.463 1_645 S
C287 C292 1.350 . S
C287 N295 1.427 1_545 S
C288 H279 0.930 . S
C288 C286 1.378 . S
C288 C289 1.367 . S
C289 C288 1.367 . S
C289 C291 1.433 . S
C290 C286 1.350 . S
C290 C287 1.463 1_465 S
C290 N294 1.427 1_565 S
C291 H281 0.929 1_565 S
C291 C289 1.433 . S
C291 N294 1.384 1_565 S
C292 H283 0.929 1_655 S
C292 C284 1.378 . S
C292 C287 1.350 . S
C293 H280 0.929 1_545 S
C293 C285 1.433 . S
C293 N295 1.384 1_545 S
N294 C290 1.427 1_545 S
N294 C291 1.384 1_545 S
N295 C287 1.427 1_565 S
N295 C293 1.384 1_565 S
H296 C302 0.930 . S
H297 C306 0.930 . S
H298 C311 0.929 . S
H299 C309 0.929 . S
H300 C304 0.929 . S
H301 C310 0.929 . S
C302 H296 0.930 . S
C302 C303 1.367 . S
C302 C310 1.378 . S
C303 C302 1.367 . S
C303 C311 1.433 . S
C304 H300 0.929 . S
C304 C306 1.378 . S
C304 C308 1.350 . S
C305 C308 1.463 . S
C305 C310 1.350 . S
C305 N313 1.427 . S
C306 H297 0.930 . S
C306 C304 1.378 . S
C306 C307 1.367 . S
C307 C306 1.367 . S
C307 C309 1.433 . S
C308 C304 1.350 . S
C308 C305 1.463 . S
C308 N312 1.427 . S
C309 H299 0.929 . S
C309 C307 1.433 . S
C309 N312 1.384 . S
C310 H301 0.929 . S
C310 C302 1.378 . S
C310 C305 1.350 . S
C311 H298 0.929 . S
C311 C303 1.433 . S
C311 N313 1.384 . S
N312 C308 1.427 . S
N312 C309 1.384 . S
N313 C305 1.427 . S
N313 C311 1.384 . S
H314 C320 0.930 . S
H315 C324 0.930 . S
H316 C329 0.929 . S
H317 C327 0.929 . S
H318 C322 0.929 . S
H319 C328 0.929 . S
C320 H314 0.930 . S
C320 C321 1.367 . S
C320 C328 1.378 . S
C321 C320 1.367 . S
C321 C329 1.433 . S
C322 H318 0.929 . S
C322 C324 1.378 . S
C322 C326 1.350 . S
C323 C326 1.463 . S
C323 C328 1.350 . S
C323 N331 1.427 . S
C324 H315 0.930 . S
C324 C322 1.378 . S
C324 C325 1.367 . S
C325 C324 1.367 . S
C325 C327 1.433 . S
C326 C322 1.350 . S
C326 C323 1.463 . S
C326 N330 1.427 . S
C327 H317 0.929 . S
C327 C325 1.433 . S
C327 N330 1.384 . S
C328 H319 0.929 . S
C328 C320 1.378 . S
C328 C323 1.350 . S
C329 H316 0.929 . S
C329 C321 1.433 . S
C329 N331 1.384 . S
N330 C326 1.427 . S
N330 C327 1.384 . S
N331 C323 1.427 . S
N331 C329 1.384 . S
H332 C338 0.930 . S
H333 C342 0.930 . S
H334 C347 0.929 . S
H335 C345 0.929 . S
H336 C340 0.929 . S
H337 C346 0.929 . S
C338 H332 0.930 . S
C338 C339 1.367 . S
C338 C346 1.378 . S
C339 C338 1.367 . S
C339 C347 1.433 . S
C340 H336 0.929 . S
C340 C342 1.378 . S
C340 C344 1.350 . S
C341 C344 1.463 . S
C341 C346 1.350 . S
C341 N349 1.427 . S
C342 H333 0.930 . S
C342 C340 1.378 . S
C342 C343 1.367 . S
C343 C342 1.367 . S
C343 C345 1.433 . S
C344 C340 1.350 . S
C344 C341 1.463 . S
C344 N348 1.427 . S
C345 H335 0.929 . S
C345 C343 1.433 . S
C345 N348 1.384 . S
C346 H337 0.929 . S
C346 C338 1.378 . S
C346 C341 1.350 . S
C347 H334 0.929 . S
C347 C339 1.433 . S
C347 N349 1.384 . S
N348 C344 1.427 . S
N348 C345 1.384 . S
N349 C341 1.427 . S
N349 C347 1.384 . S
H350 C356 0.930 . S
H351 C360 0.930 . S
H352 C365 0.929 . S
H353 C363 0.929 . S
H354 C358 0.929 . S
H355 C364 0.929 . S
C356 H350 0.930 . S
C356 C357 1.367 . S
C356 C364 1.378 . S
C357 C356 1.367 . S
C357 C365 1.433 . S
C358 H354 0.929 . S
C358 C360 1.378 . S
C358 C362 1.350 . S
C359 C362 1.463 . S
C359 C364 1.350 . S
C359 N367 1.427 . S
C360 H351 0.930 . S
C360 C358 1.378 . S
C360 C361 1.367 . S
C361 C360 1.367 . S
C361 C363 1.433 . S
C362 C358 1.350 . S
C362 C359 1.463 . S
C362 N366 1.427 . S
C363 H353 0.929 . S
C363 C361 1.433 . S
C363 N366 1.384 . S
C364 H355 0.929 . S
C364 C356 1.378 . S
C364 C359 1.350 . S
C365 H352 0.929 . S
C365 C357 1.433 . S
C365 N367 1.384 . S
N366 C362 1.427 . S
N366 C363 1.384 . S
N367 C359 1.427 . S
N367 C365 1.384 . S
H368 C374 0.930 . S
H369 C378 0.930 . S
H370 C383 0.929 . S
H371 C381 0.929 . S
H372 C376 0.929 . S
H373 C382 0.929 . S
C374 H368 0.930 . S
C374 C375 1.367 . S
C374 C382 1.378 . S
C375 C374 1.367 . S
C375 C383 1.433 1_455 S
C376 H372 0.929 . S
C376 C378 1.378 . S
C376 C380 1.350 . S
C377 C380 1.463 . S
C377 C382 1.350 1_655 S
C377 N385 1.427 . S
C378 H369 0.930 . S
C378 C376 1.378 . S
C378 C379 1.367 . S
C379 C378 1.367 . S
C379 C381 1.433 . S
C380 C376 1.350 . S
C380 C377 1.463 . S
C380 N384 1.427 . S
C381 H371 0.929 . S
C381 C379 1.433 . S
C381 N384 1.384 . S
C382 H373 0.929 . S
C382 C374 1.378 . S
C382 C377 1.350 1_455 S
C383 H370 0.929 . S
C383 C375 1.433 1_655 S
C383 N385 1.384 . S
N384 C380 1.427 . S
N384 C381 1.384 . S
N385 C377 1.427 . S
N385 C383 1.384 . S
H386 C392 0.930 . S
H387 C396 0.930 . S
H388 C401 0.929 . S
H389 C399 0.929 . S
H390 C394 0.929 . S
H391 C400 0.929 . S
C392 H386 0.930 . S
C392 C393 1.367 . S
C392 C400 1.378 . S
C393 C392 1.367 . S
C393 C401 1.433 . S
C394 H390 0.929 . S
C394 C396 1.378 . S
C394 C398 1.350 1_455 S
C395 C398 1.463 . S
C395 C400 1.350 . S
C395 N403 1.427 . S
C396 H387 0.930 . S
C396 C394 1.378 . S
C396 C397 1.367 . S
C397 C396 1.367 . S
C397 C399 1.433 1_455 S
C398 C394 1.350 1_655 S
C398 C395 1.463 . S
C398 N402 1.427 . S
C399 H389 0.929 . S
C399 C397 1.433 1_655 S
C399 N402 1.384 . S
C400 H391 0.929 . S
C400 C392 1.378 . S
C400 C395 1.350 . S
C401 H388 0.929 . S
C401 C393 1.433 . S
C401 N403 1.384 . S
N402 C398 1.427 . S
N402 C399 1.384 . S
N403 C395 1.427 . S
N403 C401 1.384 . S
H404 C410 0.930 . S
H405 C414 0.930 . S
H406 C419 0.929 . S
H407 C417 0.929 . S
H408 C412 0.929 . S
H409 C418 0.929 . S
C410 H404 0.930 . S
C410 C411 1.367 . S
C410 C418 1.378 . S
C411 C410 1.367 . S
C411 C419 1.433 . S
C412 H408 0.929 . S
C412 C414 1.378 1_455 S
C412 C416 1.350 . S
C413 C416 1.463 . S
C413 C418 1.350 . S
C413 N421 1.427 . S
C414 H405 0.930 . S
C414 C412 1.378 1_655 S
C414 C415 1.367 . S
C415 C414 1.367 . S
C415 C417 1.433 . S
C416 C412 1.350 . S
C416 C413 1.463 . S
C416 N420 1.427 . S
C417 H407 0.929 . S
C417 C415 1.433 . S
C417 N420 1.384 1_655 S
C418 H409 0.929 . S
C418 C410 1.378 . S
C418 C413 1.350 . S
C419 H406 0.929 . S
C419 C411 1.433 . S
C419 N421 1.384 . S
N420 C416 1.427 . S
N420 C417 1.384 1_455 S
N421 C413 1.427 . S
N421 C419 1.384 . S
H422 C428 0.930 . S
H423 C432 0.930 . S
H424 C437 0.929 . S
H425 C435 0.929 . S
H426 C430 0.929 . S
H427 C436 0.929 . S
C428 H422 0.930 . S
C428 C429 1.367 . S
C428 C436 1.378 . S
C429 C428 1.367 . S
C429 C437 1.433 . S
C430 H426 0.929 . S
C430 C432 1.378 . S
C430 C434 1.350 . S
C431 C434 1.463 . S
C431 C436 1.350 . S
C431 N439 1.427 . S
C432 H423 0.930 . S
C432 C430 1.378 . S
C432 C433 1.367 1_455 S
C433 C432 1.367 1_655 S
C433 C435 1.433 . S
C434 C430 1.350 . S
C434 C431 1.463 . S
C434 N438 1.427 1_455 S
C435 H425 0.929 . S
C435 C433 1.433 . S
C435 N438 1.384 . S
C436 H427 0.929 . S
C436 C428 1.378 . S
C436 C431 1.350 . S
C437 H424 0.929 . S
C437 C429 1.433 . S
C437 N439 1.384 . S
N438 C434 1.427 1_655 S
N438 C435 1.384 . S
N439 C431 1.427 . S
N439 C437 1.384 . S
C159 C27 2.044 . S
C163 C6 2.044 . S
C177 C65 2.049 . S
C181 C44 2.049 . S
C195 C103 2.049 . S
C199 C82 2.049 . S
C213 C141 2.044 . S
C217 C120 2.044 . S
C231 C68 1.653 . S
C235 C1 1.653 . S
C249 C144 1.653 . S
C253 C77 1.653 . S
C267 C30 1.654 . S
C271 C39 1.654 . S
C285 C115 1.653 . S
C289 C106 1.653 . S
C303 C122 1.196 . S
C307 C18 1.209 . S
C321 C46 1.196 . S
C325 C94 1.209 . S
C339 C105 1.182 . S
C343 C52 1.216 . S
C357 C29 1.175 . S
C361 C128 1.223 . S
C375 C84 1.196 . S
C379 C56 1.209 . S
C393 C132 1.222 . S
C397 C8 1.189 . S
C411 C14 1.212 . S
C415 C143 1.190 . S
C429 C90 1.230 . S
C433 C67 1.178 . S
