# Generated by pormake.
# Topology unj, (4)-cn, num edge types: 1
# Building blocks:
#     Node 0, Type 0, BuildingBlock: QUQFOY_clean_sbu_3, # of connection points: 4
#     Node 1, Type 0, BuildingBlock: QUQFOY_clean_sbu_3, # of connection points: 4
#     Node 2, Type 0, BuildingBlock: QUQFOY_clean_sbu_3, # of connection points: 4
#     Node 3, Type 0, BuildingBlock: QUQFOY_clean_sbu_3, # of connection points: 4
#     Node 4, Type 0, BuildingBlock: QUQFOY_clean_sbu_3, # of connection points: 4
#     Node 5, Type 0, BuildingBlock: QUQFOY_clean_sbu_3, # of connection points: 4
#     Edge 6, Type (0, 0), BuildingBlock: KIFKEQ_clean_linker_1, # of connection points: 2
#     Edge 7, Type (0, 0), BuildingBlock: KIFKEQ_clean_linker_1, # of connection points: 2
#     Edge 8, Type (0, 0), BuildingBlock: KIFKEQ_clean_linker_1, # of connection points: 2
#     Edge 9, Type (0, 0), BuildingBlock: KIFKEQ_clean_linker_1, # of connection points: 2
#     Edge 10, Type (0, 0), BuildingBlock: KIFKEQ_clean_linker_1, # of connection points: 2
#     Edge 11, Type (0, 0), BuildingBlock: KIFKEQ_clean_linker_1, # of connection points: 2
#     Edge 12, Type (0, 0), BuildingBlock: KIFKEQ_clean_linker_1, # of connection points: 2
#     Edge 13, Type (0, 0), BuildingBlock: KIFKEQ_clean_linker_1, # of connection points: 2
#     Edge 14, Type (0, 0), BuildingBlock: KIFKEQ_clean_linker_1, # of connection points: 2
#     Edge 15, Type (0, 0), BuildingBlock: KIFKEQ_clean_linker_1, # of connection points: 2
#     Edge 16, Type (0, 0), BuildingBlock: KIFKEQ_clean_linker_1, # of connection points: 2
#     Edge 17, Type (0, 0), BuildingBlock: KIFKEQ_clean_linker_1, # of connection points: 2
# Relax obj value: 0.028
# Max RMSD: 0.079
# Mean RMSD: 0.079
data_MOF--net-unj--node1-QUQFOY_clean_sbu_3--edge1-KIFKEQ_clean_linker_1
_symmetry_space_group_name_H-M    P1
_symmetry_Int_Tables_number       1
_symmetry_cell_setting            triclinic
loop_
_symmetry_equiv_pos_as_xyz
'x, y, z'
_cell_length_a     34.765693
_cell_length_b     34.795582
_cell_length_c     38.765209
_cell_angle_alpha  89.73983
_cell_angle_beta   90.003499
_cell_angle_gamma 119.87954
loop_
_atom_site_label
_atom_site_type_symbol
_atom_site_fract_x
_atom_site_fract_y
_atom_site_fract_z
_atom_type_partial_charge
C0 C 0.55209 0.25083 0.5058 0.0
O1 O 0.57213 0.22994 0.51386 0.0
Cd2 Cd 0.55335 0.18164 0.5627 0.0
O3 O 0.51961 0.24673 0.52389 0.0
Cd4 Cd 0.47742 0.20697 0.57641 0.0
C5 C 0.4456 0.10651 0.54124 0.0
O6 O 0.54436 0.22299 0.60764 0.0
O7 O 0.48299 0.18303 0.63516 0.0
O8 O 0.47273 0.2739 0.58185 0.0
C9 C 0.52501 0.20351 0.6353 0.0
O10 O 0.48531 0.11521 0.54628 0.0
C11 C 0.43337 0.25505 0.5935 0.0
O12 O 0.43386 0.13493 0.54822 0.0
O13 O 0.41352 0.2131 0.59637 0.0
C14 C 0.2944 0.55957 0.67414 0.0
O15 O 0.33527 0.58207 0.68174 0.0
Cd16 Cd 0.36815 0.56122 0.72692 0.0
O17 O 0.26814 0.52531 0.69166 0.0
Cd18 Cd 0.26906 0.48443 0.74395 0.0
C19 C 0.3361 0.45359 0.7044 0.0
O20 O 0.3212 0.55039 0.77494 0.0
O21 O 0.30257 0.48862 0.80104 0.0
O22 O 0.20144 0.48424 0.75826 0.0
C23 C 0.32359 0.53064 0.80161 0.0
O24 O 0.3665 0.49377 0.70801 0.0
C25 C 0.17828 0.44315 0.76487 0.0
O26 O 0.29647 0.44088 0.71396 0.0
O27 O 0.19701 0.42004 0.7609 0.0
C28 C 0.72593 0.29066 0.83934 0.0
O29 O 0.74312 0.33141 0.84685 0.0
Cd30 Cd 0.798 0.36526 0.89039 0.0
O31 O 0.73555 0.26522 0.85649 0.0
Cd32 Cd 0.77852 0.26713 0.90862 0.0
C33 C 0.87392 0.33341 0.86612 0.0
O34 O 0.76248 0.31854 0.93886 0.0
O35 O 0.80598 0.30115 0.96573 0.0
O36 O 0.71159 0.1965 0.91739 0.0
C37 C 0.78442 0.32168 0.96574 0.0
O38 O 0.86238 0.36276 0.86839 0.0
C39 C 0.73042 0.17618 0.92953 0.0
O40 O 0.84946 0.29462 0.87839 0.0
O41 O 0.77251 0.19788 0.93128 0.0
C42 C 0.43137 0.73174 0.00457 0.0
O43 O 0.40752 0.74891 0.01156 0.0
Cd44 Cd 0.42353 0.79874 0.0584 0.0
O45 O 0.46472 0.73966 0.0232 0.0
Cd46 Cd 0.50139 0.77964 0.07711 0.0
C47 C 0.53161 0.87859 0.03999 0.0
O48 O 0.43094 0.75755 0.10473 0.0
O49 O 0.48817 0.80263 0.13429 0.0
O50 O 0.5079 0.71395 0.08355 0.0
C51 C 0.44647 0.77746 0.13289 0.0
O52 O 0.49085 0.86748 0.04263 0.0
C53 C 0.54574 0.73285 0.09773 0.0
O54 O 0.54489 0.85199 0.0492 0.0
O55 O 0.56416 0.77453 0.10181 0.0
C56 C 0.69481 0.43445 0.16876 0.0
O57 O 0.65402 0.41074 0.17643 0.0
Cd58 Cd 0.62051 0.42672 0.22362 0.0
O59 O 0.72052 0.46806 0.18689 0.0
Cd60 Cd 0.71697 0.50484 0.24088 0.0
C61 C 0.6471 0.53414 0.20478 0.0
O62 O 0.66981 0.43467 0.26936 0.0
O63 O 0.681 0.49201 0.29828 0.0
O64 O 0.78986 0.51317 0.24808 0.0
C65 C 0.6654 0.45044 0.29741 0.0
O66 O 0.61775 0.49341 0.20784 0.0
C67 C 0.80773 0.5513 0.26166 0.0
O68 O 0.68711 0.54757 0.21341 0.0
O69 O 0.78361 0.56902 0.26481 0.0
C70 C 0.24536 0.69111 0.33994 0.0
O71 O 0.22482 0.65023 0.34797 0.0
Cd72 Cd 0.1779 0.62042 0.39747 0.0
O73 O 0.24144 0.71928 0.35831 0.0
Cd74 Cd 0.2023 0.72085 0.41139 0.0
C75 C 0.10099 0.65159 0.37768 0.0
O76 O 0.22035 0.67078 0.442 0.0
O77 O 0.18058 0.69158 0.47043 0.0
O78 O 0.2686 0.7927 0.41674 0.0
C79 C 0.20177 0.67069 0.47007 0.0
O80 O 0.11033 0.62093 0.38238 0.0
C81 C 0.24931 0.81264 0.42862 0.0
O82 O 0.1293 0.69176 0.38436 0.0
O83 O 0.20737 0.79014 0.43153 0.0
H84 H 0.36225 0.08023 0.51596 0.0
H85 H 0.4571 0.03563 0.53054 0.0
H86 H 0.31286 0.01117 0.48597 0.0
H87 H 0.4077 0.96685 0.50148 0.0
H88 H 0.33679 0.87066 0.41744 0.0
H89 H 0.38201 0.94302 0.44351 0.0
H90 H 0.26615 0.93078 0.49499 0.0
H91 H 0.22048 0.85853 0.46802 0.0
C92 C 0.37237 0.05559 0.51309 0.0
C93 C 0.41377 0.0636 0.52542 0.0
C94 C 0.34407 0.01604 0.49595 0.0
C95 C 0.35667 0.98383 0.49088 0.0
C96 C 0.39748 0.99144 0.50414 0.0
C97 C 0.42569 0.03082 0.52108 0.0
C98 C 0.32083 0.88361 0.43397 0.0
C99 C 0.27518 0.85874 0.44096 0.0
C100 C 0.34679 0.92495 0.44911 0.0
C101 C 0.32782 0.94226 0.47187 0.0
C102 C 0.28174 0.9184 0.47753 0.0
C103 C 0.25561 0.877 0.46215 0.0
H104 H 0.46202 0.34194 0.5801 0.0
H105 H 0.35978 0.2278 0.63415 0.0
H106 H 0.43492 0.38801 0.60505 0.0
H107 H 0.33341 0.27433 0.66018 0.0
H108 H 0.41844 0.46677 0.69005 0.0
H109 H 0.43783 0.41706 0.66127 0.0
H110 H 0.29886 0.31956 0.65146 0.0
H111 H 0.27929 0.36924 0.68138 0.0
C112 C 0.43357 0.32665 0.59721 0.0
C113 C 0.41329 0.28137 0.60544 0.0
C114 C 0.41821 0.35311 0.61172 0.0
C115 C 0.38253 0.33505 0.63516 0.0
C116 C 0.36087 0.28927 0.64214 0.0
C117 C 0.37603 0.26263 0.62731 0.0
C118 C 0.3919 0.43475 0.68184 0.0
C119 C 0.34729 0.42209 0.68791 0.0
C120 C 0.40304 0.40631 0.66503 0.0
C121 C 0.36989 0.36454 0.65356 0.0
C122 C 0.3252 0.35145 0.6601 0.0
C123 C 0.314 0.37993 0.67717 0.0
H124 H 0.91779 0.39887 0.81898 0.0
H125 H 0.92519 0.29415 0.87336 0.0
H126 H 0.98886 0.42152 0.79191 0.0
H127 H -0.00212 0.31818 0.84734 0.0
H128 H 0.11548 0.35535 0.77381 0.0
H129 H 0.0398 0.32535 0.79592 0.0
H130 H 0.06342 0.45876 0.80889 0.0
H131 H 0.13751 0.48821 0.78572 0.0
C132 C 0.93482 0.38083 0.82532 0.0
C133 C 0.91618 0.34509 0.84864 0.0
C134 C 0.97575 0.39395 0.80991 0.0
C135 C -0.00037 0.37225 0.81789 0.0
C136 C 0.98034 0.33551 0.84043 0.0
C137 C 0.93883 0.32187 0.8555 0.0
C138 C 0.10419 0.37808 0.7812 0.0
C139 C 0.13231 0.4241 0.77778 0.0
C140 C 0.06098 0.36096 0.79406 0.0
C141 C 0.04527 0.38958 0.80395 0.0
C142 C 0.0738 0.43558 0.80075 0.0
C143 C 0.11655 0.45256 0.78763 0.0
H144 H 0.51764 0.94779 0.02748 0.0
H145 H 0.61698 0.90833 0.01795 0.0
H146 H 0.56749 0.01824 6e-05 0.0
H147 H 0.66667 0.97873 -0.01063 0.0
H148 H 0.75777 0.13034 0.97099 0.0
H149 H 0.71126 0.05793 -0.00192 0.0
H150 H 0.59699 0.04611 0.94425 0.0
H151 H 0.64299 0.1187 0.9183 0.0
C152 C 0.55011 0.95407 0.01941 0.0
C153 C 0.5632 0.92229 0.02477 0.0
C154 C 0.57864 -0.00557 0.00341 0.0
C155 C 0.62091 0.00397 -0.00799 0.0
C156 C 0.63445 0.97257 -0.00201 0.0
C157 C 0.60592 0.93217 0.01428 0.0
C158 C 0.72278 0.11198 0.96475 0.0
C159 C 0.70393 0.13036 0.9428 0.0
C160 C 0.69614 0.07046 0.98019 0.0
C161 C 0.65022 0.04647 0.97378 0.0
C162 C 0.63197 0.06416 0.95053 0.0
C163 C 0.65842 0.10566 0.93541 0.0
H164 H 0.5638 0.51882 0.19082 0.0
H165 H 0.70186 0.62058 0.18493 0.0
H166 H 0.54268 0.56882 0.16417 0.0
H167 H 0.68063 0.67048 0.15726 0.0
H168 H 0.61652 0.75935 0.14135 0.0
H169 H 0.64313 0.7128 0.1675 0.0
H170 H 0.54675 0.60097 0.10854 0.0
H171 H 0.5195 0.64694 0.08337 0.0
C172 C 0.58971 0.55185 0.18374 0.0
C173 C 0.63455 0.56559 0.18987 0.0
C174 C 0.5776 0.58046 0.1682 0.0
C175 C 0.61001 0.62348 0.15813 0.0
C176 C 0.65485 0.63764 0.16486 0.0
C177 C 0.667 0.60898 0.18062 0.0
C178 C 0.6014 0.72493 0.13378 0.0
C179 C 0.56565 0.70667 0.1106 0.0
C180 C 0.61669 0.69829 0.14868 0.0
C181 C 0.5966 0.65299 0.14051 0.0
C182 C 0.56221 0.63543 0.11609 0.0
C183 C 0.5468 0.66188 0.10145 0.0
H184 H 0.07289 0.70794 0.35353 0.0
H185 H 0.03078 0.56905 0.36696 0.0
H186 H 0.0034 0.68765 0.32353 0.0
H187 H 0.96167 0.54909 0.33778 0.0
H188 H 0.86838 0.52503 0.25105 0.0
H189 H 0.94 0.55279 0.27881 0.0
H190 H 0.92174 0.65142 0.33199 0.0
H191 H 0.84999 0.62408 0.30344 0.0
C192 C 0.04869 0.67317 0.35044 0.0
C193 C 0.05758 0.64012 0.36235 0.0
C194 C 0.00891 0.66159 0.33331 0.0
C195 C 0.97742 0.61679 0.32779 0.0
C196 C 0.98575 0.58391 0.34083 0.0
C197 C 0.02531 0.5954 0.3578 0.0
C198 C 0.87979 0.55296 0.26835 0.0
C199 C 0.85336 0.57208 0.27534 0.0
C200 C 0.92072 0.56868 0.28445 0.0
C201 C 0.93612 0.60372 0.30812 0.0
C202 C 0.91075 0.62438 0.31386 0.0
C203 C 0.86968 0.60869 0.29757 0.0
H204 H 0.52586 0.30992 0.48573 0.0
H205 H 0.61237 0.25921 0.45704 0.0
H206 H 0.55104 0.3589 0.43525 0.0
H207 H 0.63744 0.30815 0.40697 0.0
H208 H 0.63284 0.3616 0.30138 0.0
H209 H 0.60351 0.31384 0.35182 0.0
H210 H 0.62203 0.42541 0.41271 0.0
H211 H 0.65146 0.47367 0.36186 0.0
C212 C 0.55016 0.30916 0.46868 0.0
C213 C 0.56699 0.28052 0.47532 0.0
C214 C 0.56472 0.33739 0.43995 0.0
C215 C 0.59599 0.33712 0.41717 0.0
C216 C 0.61286 0.30862 0.42388 0.0
C217 C 0.59863 0.28073 0.45266 0.0
C218 C 0.63046 0.37603 0.32543 0.0
C219 C 0.64475 0.42149 0.32772 0.0
C220 C 0.61385 0.34866 0.35434 0.0
C221 C 0.61094 0.36603 0.38621 0.0
C222 C 0.6238 0.41118 0.38837 0.0
C223 C 0.64075 0.43877 0.35936 0.0
H224 H 0.19943 0.69303 0.53708 0.0
H225 H 0.21829 0.6023 0.4732 0.0
H226 H 0.21824 0.66412 0.58831 0.0
H227 H 0.23577 0.57269 0.5245 0.0
H228 H 0.2214 0.50852 0.63482 0.0
H229 H 0.19328 0.53276 0.58627 0.0
H230 H 0.29877 0.66736 0.60079 0.0
H231 H 0.32773 0.64322 0.64862 0.0
C232 C 0.2067 0.66636 0.53412 0.0
C233 C 0.20765 0.64996 0.50129 0.0
C234 C 0.21758 0.65003 0.5633 0.0
C235 C 0.22838 0.61634 0.56008 0.0
C236 C 0.22729 0.59853 0.52749 0.0
C237 C 0.21748 0.61556 0.49825 0.0
C238 C 0.23849 0.54327 0.62765 0.0
C239 C 0.27687 0.57399 0.64529 0.0
C240 C 0.22242 0.55702 0.59999 0.0
C241 C 0.24382 0.60184 0.59019 0.0
C242 C 0.28159 0.63268 0.60821 0.0
C243 C 0.29828 0.61881 0.63531 0.0
H244 H 0.7058 0.21868 0.79921 0.0
H245 H 0.67269 0.32154 0.81583 0.0
H246 H 0.65347 0.19055 0.75083 0.0
H247 H 0.61977 0.29264 0.76825 0.0
H248 H 0.49845 0.19748 0.70228 0.0
H249 H 0.54468 0.21337 0.7539 0.0
H250 H 0.6552 0.23367 0.69032 0.0
H251 H 0.60958 0.21904 0.63868 0.0
C252 C 0.68704 0.23492 0.79275 0.0
C253 C 0.69346 0.27245 0.81104 0.0
C254 C 0.65724 0.21886 0.76519 0.0
C255 C 0.63263 0.23938 0.75619 0.0
C256 C 0.63816 0.27609 0.77503 0.0
C257 C 0.66864 0.29278 0.80199 0.0
C258 C 0.5324 0.20467 0.69944 0.0
C259 C 0.55064 0.20736 0.66659 0.0
C260 C 0.55875 0.21383 0.72886 0.0
C261 C 0.60328 0.22466 0.72584 0.0
C262 C 0.62082 0.22509 0.69318 0.0
C263 C 0.59484 0.21696 0.66374 0.0
H264 H 0.30333 0.50409 0.86869 0.0
H265 H 0.39327 0.61443 0.80453 0.0
H266 H 0.33281 0.5509 0.91999 0.0
H267 H 0.42349 0.6606 0.85585 0.0
H268 H 0.4851 0.71153 0.96652 0.0
H269 H 0.4632 0.65898 0.9185 0.0
H270 H 0.32717 0.62729 0.93089 0.0
H271 H 0.34892 0.68047 0.97801 0.0
C272 C 0.33015 0.53792 0.86569 0.0
C273 C 0.34592 0.55587 0.83278 0.0
C274 C 0.34682 0.5646 0.89491 0.0
C275 C 0.38024 0.60913 0.8916 0.0
C276 C 0.39789 0.62624 0.85892 0.0
C277 C 0.38052 0.59994 0.82968 0.0
C278 C 0.45056 0.69329 0.95894 0.0
C279 C 0.41873 0.70026 0.97574 0.0
C280 C 0.43812 0.66331 0.93164 0.0
C281 C 0.39355 0.63904 0.92148 0.0
C282 C 0.36167 0.64537 0.93865 0.0
C283 C 0.3742 0.67606 0.96531 0.0
H284 H 0.79357 0.30482 0.03312 0.0
H285 H 0.76682 0.38939 0.96745 0.0
H286 H 0.77705 0.33575 0.08404 0.0
H287 H 0.75168 0.42109 0.01841 0.0
H288 H 0.76714 0.48742 0.12867 0.0
H289 H 0.79635 0.46439 0.08011 0.0
H290 H 0.69372 0.32863 0.09608 0.0
H291 H 0.66367 0.35146 0.14367 0.0
C292 C 0.78525 0.33074 0.02966 0.0
C293 C 0.78113 0.34458 -0.00353 0.0
C294 C 0.77574 0.34826 0.05868 0.0
C295 C 0.7632 0.38066 0.05487 0.0
C296 C 0.76159 0.39633 0.02183 0.0
C297 C 0.77003 0.37807 -0.00719 0.0
C298 C 0.75091 0.4527 0.12174 0.0
C299 C 0.71298 0.42124 0.13969 0.0
C300 C 0.76762 0.43963 0.09413 0.0
C301 C 0.74737 0.39481 0.08483 0.0
C302 C 0.71004 0.36332 0.10314 0.0
C303 C 0.69271 0.37647 0.13009 0.0
H304 H 0.25251 0.63973 0.29029 0.0
H305 H 0.30487 0.77635 0.3204 0.0
H306 H 0.30152 0.6639 0.24034 0.0
H307 H 0.35394 0.80046 0.27004 0.0
H308 H 0.46912 0.81355 0.19763 0.0
H309 H 0.4201 0.79496 0.24788 0.0
H310 H 0.30865 0.70487 0.18552 0.0
H311 H 0.35719 0.72307 0.13566 0.0
C312 C 0.27438 0.67493 0.28623 0.0
C313 C 0.27468 0.70611 0.30929 0.0
C314 C 0.3023 0.68876 0.25751 0.0
C315 C 0.33137 0.73405 0.25128 0.0
C316 C 0.332 0.76533 0.27438 0.0
C317 C 0.30372 0.7515 0.30304 0.0
C318 C 0.43409 0.7901 0.19466 0.0
C319 C 0.41707 0.76952 0.1628 0.0
C320 C 0.40606 0.7796 0.22334 0.0
C321 C 0.3607 0.74816 0.2206 0.0
C322 C 0.3436 0.72869 0.18848 0.0
C323 C 0.37143 0.73931 0.1599 0.0
loop_
_geom_bond_atom_site_label_1
_geom_bond_atom_site_label_2
_geom_bond_distance
_geom_bond_site_symmetry_2
_ccdc_geom_bond_type
C0 O1 1.306 . S
C0 O3 1.160 . S
O1 C0 1.306 . S
O1 Cd2 2.228 . S
Cd2 O1 2.228 . S
Cd2 O6 2.273 . S
Cd2 O10 2.277 . S
O3 C0 1.160 . S
O3 Cd4 2.203 . S
Cd4 O3 2.203 . S
Cd4 O6 2.411 . S
Cd4 O7 2.333 . S
Cd4 O8 2.352 . S
Cd4 O12 2.277 . S
Cd4 O13 2.356 . S
C5 O10 1.209 . S
C5 O12 1.226 . S
O6 Cd2 2.273 . S
O6 Cd4 2.411 . S
O6 C9 1.320 . S
O7 Cd4 2.333 . S
O7 C9 1.214 . S
O8 Cd4 2.352 . S
O8 C11 1.258 . S
C9 O6 1.320 . S
C9 O7 1.214 . S
O10 Cd2 2.277 . S
O10 C5 1.209 . S
C11 O8 1.258 . S
C11 O13 1.282 . S
O12 Cd4 2.277 . S
O12 C5 1.226 . S
O13 Cd4 2.356 . S
O13 C11 1.282 . S
C14 O15 1.306 . S
C14 O17 1.160 . S
O15 C14 1.306 . S
O15 Cd16 2.228 . S
Cd16 O15 2.228 . S
Cd16 O20 2.273 . S
Cd16 O24 2.277 . S
O17 C14 1.160 . S
O17 Cd18 2.203 . S
Cd18 O17 2.203 . S
Cd18 O20 2.411 . S
Cd18 O21 2.333 . S
Cd18 O22 2.352 . S
Cd18 O26 2.277 . S
Cd18 O27 2.356 . S
C19 O24 1.209 . S
C19 O26 1.226 . S
O20 Cd16 2.273 . S
O20 Cd18 2.411 . S
O20 C23 1.320 . S
O21 Cd18 2.333 . S
O21 C23 1.214 . S
O22 Cd18 2.352 . S
O22 C25 1.258 . S
C23 O20 1.320 . S
C23 O21 1.214 . S
O24 Cd16 2.277 . S
O24 C19 1.209 . S
C25 O22 1.258 . S
C25 O27 1.282 . S
O26 Cd18 2.277 . S
O26 C19 1.226 . S
O27 Cd18 2.356 . S
O27 C25 1.282 . S
C28 O29 1.306 . S
C28 O31 1.160 . S
O29 C28 1.306 . S
O29 Cd30 2.228 . S
Cd30 O29 2.228 . S
Cd30 O34 2.273 . S
Cd30 O38 2.277 . S
O31 C28 1.160 . S
O31 Cd32 2.203 . S
Cd32 O31 2.203 . S
Cd32 O34 2.411 . S
Cd32 O35 2.333 . S
Cd32 O36 2.352 . S
Cd32 O40 2.277 . S
Cd32 O41 2.356 . S
C33 O38 1.209 . S
C33 O40 1.226 . S
O34 Cd30 2.273 . S
O34 Cd32 2.411 . S
O34 C37 1.320 . S
O35 Cd32 2.333 . S
O35 C37 1.214 . S
O36 Cd32 2.352 . S
O36 C39 1.258 . S
C37 O34 1.320 . S
C37 O35 1.214 . S
O38 Cd30 2.277 . S
O38 C33 1.209 . S
C39 O36 1.258 . S
C39 O41 1.282 . S
O40 Cd32 2.277 . S
O40 C33 1.226 . S
O41 Cd32 2.356 . S
O41 C39 1.282 . S
C42 O43 1.306 . S
C42 O45 1.160 . S
O43 C42 1.306 . S
O43 Cd44 2.228 . S
Cd44 O43 2.228 . S
Cd44 O48 2.273 . S
Cd44 O52 2.277 . S
O45 C42 1.160 . S
O45 Cd46 2.203 . S
Cd46 O45 2.203 . S
Cd46 O48 2.411 . S
Cd46 O49 2.333 . S
Cd46 O50 2.352 . S
Cd46 O54 2.277 . S
Cd46 O55 2.356 . S
C47 O52 1.209 . S
C47 O54 1.226 . S
O48 Cd44 2.273 . S
O48 Cd46 2.411 . S
O48 C51 1.320 . S
O49 Cd46 2.333 . S
O49 C51 1.214 . S
O50 Cd46 2.352 . S
O50 C53 1.258 . S
C51 O48 1.320 . S
C51 O49 1.214 . S
O52 Cd44 2.277 . S
O52 C47 1.209 . S
C53 O50 1.258 . S
C53 O55 1.282 . S
O54 Cd46 2.277 . S
O54 C47 1.226 . S
O55 Cd46 2.356 . S
O55 C53 1.282 . S
C56 O57 1.306 . S
C56 O59 1.160 . S
O57 C56 1.306 . S
O57 Cd58 2.228 . S
Cd58 O57 2.228 . S
Cd58 O62 2.273 . S
Cd58 O66 2.277 . S
O59 C56 1.160 . S
O59 Cd60 2.203 . S
Cd60 O59 2.203 . S
Cd60 O62 2.411 . S
Cd60 O63 2.333 . S
Cd60 O64 2.352 . S
Cd60 O68 2.277 . S
Cd60 O69 2.356 . S
C61 O66 1.209 . S
C61 O68 1.226 . S
O62 Cd58 2.273 . S
O62 Cd60 2.411 . S
O62 C65 1.320 . S
O63 Cd60 2.333 . S
O63 C65 1.214 . S
O64 Cd60 2.352 . S
O64 C67 1.258 . S
C65 O62 1.320 . S
C65 O63 1.214 . S
O66 Cd58 2.277 . S
O66 C61 1.209 . S
C67 O64 1.258 . S
C67 O69 1.282 . S
O68 Cd60 2.277 . S
O68 C61 1.226 . S
O69 Cd60 2.356 . S
O69 C67 1.282 . S
C70 O71 1.306 . S
C70 O73 1.160 . S
O71 C70 1.306 . S
O71 Cd72 2.228 . S
Cd72 O71 2.228 . S
Cd72 O76 2.273 . S
Cd72 O80 2.277 . S
O73 C70 1.160 . S
O73 Cd74 2.203 . S
Cd74 O73 2.203 . S
Cd74 O76 2.411 . S
Cd74 O77 2.333 . S
Cd74 O78 2.352 . S
Cd74 O82 2.277 . S
Cd74 O83 2.356 . S
C75 O80 1.209 . S
C75 O82 1.226 . S
O76 Cd72 2.273 . S
O76 Cd74 2.411 . S
O76 C79 1.320 . S
O77 Cd74 2.333 . S
O77 C79 1.214 . S
O78 Cd74 2.352 . S
O78 C81 1.258 . S
C79 O76 1.320 . S
C79 O77 1.214 . S
O80 Cd72 2.277 . S
O80 C75 1.209 . S
C81 O78 1.258 . S
C81 O83 1.282 . S
O82 Cd74 2.277 . S
O82 C75 1.226 . S
O83 Cd74 2.356 . S
O83 C81 1.282 . S
H84 C92 0.950 . S
H85 C97 0.950 . S
H86 C94 0.950 . S
H87 C96 0.950 . S
H88 C98 0.950 . S
H89 C100 0.950 . S
H90 C102 0.950 . S
H91 C103 0.950 . S
C92 H84 0.950 . S
C92 C93 1.386 . S
C92 C94 1.391 . S
C93 C92 1.386 . S
C93 C97 1.393 . S
C94 H86 0.950 . S
C94 C92 1.391 . S
C94 C95 1.400 . S
C95 C94 1.400 . S
C95 C96 1.398 . S
C95 C101 1.491 1_545 S
C96 H87 0.950 . S
C96 C95 1.398 . S
C96 C97 1.391 . S
C97 H85 0.950 . S
C97 C93 1.393 . S
C97 C96 1.391 . S
C98 H88 0.950 . S
C98 C99 1.386 . S
C98 C100 1.391 . S
C99 C98 1.386 . S
C99 C103 1.393 . S
C100 H89 0.950 . S
C100 C98 1.391 . S
C100 C101 1.400 . S
C101 C95 1.491 1_565 S
C101 C100 1.400 . S
C101 C102 1.398 . S
C102 H90 0.950 . S
C102 C101 1.398 . S
C102 C103 1.391 . S
C103 H91 0.950 . S
C103 C99 1.393 . S
C103 C102 1.391 . S
H104 C112 0.950 . S
H105 C117 0.950 . S
H106 C114 0.950 . S
H107 C116 0.950 . S
H108 C118 0.950 . S
H109 C120 0.950 . S
H110 C122 0.950 . S
H111 C123 0.950 . S
C112 H104 0.950 . S
C112 C113 1.386 . S
C112 C114 1.391 . S
C113 C112 1.386 . S
C113 C117 1.393 . S
C114 H106 0.950 . S
C114 C112 1.391 . S
C114 C115 1.400 . S
C115 C114 1.400 . S
C115 C116 1.398 . S
C115 C121 1.491 . S
C116 H107 0.950 . S
C116 C115 1.398 . S
C116 C117 1.391 . S
C117 H105 0.950 . S
C117 C113 1.393 . S
C117 C116 1.391 . S
C118 H108 0.950 . S
C118 C119 1.386 . S
C118 C120 1.391 . S
C119 C118 1.386 . S
C119 C123 1.393 . S
C120 H109 0.950 . S
C120 C118 1.391 . S
C120 C121 1.400 . S
C121 C115 1.491 . S
C121 C120 1.400 . S
C121 C122 1.398 . S
C122 H110 0.950 . S
C122 C121 1.398 . S
C122 C123 1.391 . S
C123 H111 0.950 . S
C123 C119 1.393 . S
C123 C122 1.391 . S
H124 C132 0.950 . S
H125 C137 0.950 . S
H126 C134 0.950 . S
H127 C136 0.950 . S
H128 C138 0.950 . S
H129 C140 0.950 . S
H130 C142 0.950 . S
H131 C143 0.950 . S
C132 H124 0.950 . S
C132 C133 1.386 . S
C132 C134 1.391 . S
C133 C132 1.386 . S
C133 C137 1.393 . S
C134 H126 0.950 . S
C134 C132 1.391 . S
C134 C135 1.400 . S
C135 C134 1.400 . S
C135 C136 1.398 . S
C135 C141 1.491 1_655 S
C136 H127 0.950 . S
C136 C135 1.398 . S
C136 C137 1.391 . S
C137 H125 0.950 . S
C137 C133 1.393 . S
C137 C136 1.391 . S
C138 H128 0.950 . S
C138 C139 1.386 . S
C138 C140 1.391 . S
C139 C138 1.386 . S
C139 C143 1.393 . S
C140 H129 0.950 . S
C140 C138 1.391 . S
C140 C141 1.400 . S
C141 C135 1.491 1_455 S
C141 C140 1.400 . S
C141 C142 1.398 . S
C142 H130 0.950 . S
C142 C141 1.398 . S
C142 C143 1.391 . S
C143 H131 0.950 . S
C143 C139 1.393 . S
C143 C142 1.391 . S
H144 C152 0.950 . S
H145 C157 0.950 1_556 S
H146 C154 0.950 . S
H147 C156 0.950 . S
H148 C158 0.950 . S
H149 C160 0.950 1_565 S
H150 C162 0.950 . S
H151 C163 0.950 1_554 S
C152 H144 0.950 . S
C152 C153 1.386 . S
C152 C154 1.391 . S
C153 C152 1.386 . S
C153 C157 1.393 . S
C154 H146 0.950 . S
C154 C152 1.391 . S
C154 C155 1.400 . S
C155 C154 1.400 . S
C155 C156 1.398 1_554 S
C155 C161 1.491 1_564 S
C156 H147 0.950 . S
C156 C155 1.398 1_556 S
C156 C157 1.391 1_556 S
C157 H145 0.950 1_554 S
C157 C153 1.393 . S
C157 C156 1.391 1_554 S
C158 H148 0.950 . S
C158 C159 1.386 . S
C158 C160 1.391 . S
C159 C158 1.386 . S
C159 C163 1.393 . S
C160 H149 0.950 1_545 S
C160 C158 1.391 . S
C160 C161 1.400 . S
C161 C155 1.491 1_546 S
C161 C160 1.400 . S
C161 C162 1.398 1_556 S
C162 H150 0.950 . S
C162 C161 1.398 1_554 S
C162 C163 1.391 1_554 S
C163 H151 0.950 1_556 S
C163 C159 1.393 . S
C163 C162 1.391 1_556 S
H164 C172 0.950 . S
H165 C177 0.950 . S
H166 C174 0.950 . S
H167 C176 0.950 . S
H168 C178 0.950 . S
H169 C180 0.950 . S
H170 C182 0.950 . S
H171 C183 0.950 . S
C172 H164 0.950 . S
C172 C173 1.386 . S
C172 C174 1.391 . S
C173 C172 1.386 . S
C173 C177 1.393 . S
C174 H166 0.950 . S
C174 C172 1.391 . S
C174 C175 1.400 . S
C175 C174 1.400 . S
C175 C176 1.398 . S
C175 C181 1.491 . S
C176 H167 0.950 . S
C176 C175 1.398 . S
C176 C177 1.391 . S
C177 H165 0.950 . S
C177 C173 1.393 . S
C177 C176 1.391 . S
C178 H168 0.950 . S
C178 C179 1.386 . S
C178 C180 1.391 . S
C179 C178 1.386 . S
C179 C183 1.393 . S
C180 H169 0.950 . S
C180 C178 1.391 . S
C180 C181 1.400 . S
C181 C175 1.491 . S
C181 C180 1.400 . S
C181 C182 1.398 . S
C182 H170 0.950 . S
C182 C181 1.398 . S
C182 C183 1.391 . S
C183 H171 0.950 . S
C183 C179 1.393 . S
C183 C182 1.391 . S
H184 C192 0.950 . S
H185 C197 0.950 . S
H186 C194 0.950 . S
H187 C196 0.950 . S
H188 C198 0.950 . S
H189 C200 0.950 . S
H190 C202 0.950 . S
H191 C203 0.950 . S
C192 H184 0.950 . S
C192 C193 1.386 . S
C192 C194 1.391 . S
C193 C192 1.386 . S
C193 C197 1.393 . S
C194 H186 0.950 . S
C194 C192 1.391 . S
C194 C195 1.400 . S
C195 C194 1.400 . S
C195 C196 1.398 . S
C195 C201 1.491 1_455 S
C196 H187 0.950 . S
C196 C195 1.398 . S
C196 C197 1.391 . S
C197 H185 0.950 . S
C197 C193 1.393 . S
C197 C196 1.391 . S
C198 H188 0.950 . S
C198 C199 1.386 . S
C198 C200 1.391 . S
C199 C198 1.386 . S
C199 C203 1.393 . S
C200 H189 0.950 . S
C200 C198 1.391 . S
C200 C201 1.400 . S
C201 C195 1.491 1_655 S
C201 C200 1.400 . S
C201 C202 1.398 . S
C202 H190 0.950 . S
C202 C201 1.398 . S
C202 C203 1.391 . S
C203 H191 0.950 . S
C203 C199 1.393 . S
C203 C202 1.391 . S
H204 C212 0.950 . S
H205 C217 0.950 . S
H206 C214 0.950 . S
H207 C216 0.950 . S
H208 C218 0.950 . S
H209 C220 0.950 . S
H210 C222 0.950 . S
H211 C223 0.950 . S
C212 H204 0.950 . S
C212 C213 1.386 . S
C212 C214 1.391 . S
C213 C212 1.386 . S
C213 C217 1.393 . S
C214 H206 0.950 . S
C214 C212 1.391 . S
C214 C215 1.400 . S
C215 C214 1.400 . S
C215 C216 1.398 . S
C215 C221 1.491 . S
C216 H207 0.950 . S
C216 C215 1.398 . S
C216 C217 1.391 . S
C217 H205 0.950 . S
C217 C213 1.393 . S
C217 C216 1.391 . S
C218 H208 0.950 . S
C218 C219 1.386 . S
C218 C220 1.391 . S
C219 C218 1.386 . S
C219 C223 1.393 . S
C220 H209 0.950 . S
C220 C218 1.391 . S
C220 C221 1.400 . S
C221 C215 1.491 . S
C221 C220 1.400 . S
C221 C222 1.398 . S
C222 H210 0.950 . S
C222 C221 1.398 . S
C222 C223 1.391 . S
C223 H211 0.950 . S
C223 C219 1.393 . S
C223 C222 1.391 . S
H224 C232 0.950 . S
H225 C237 0.950 . S
H226 C234 0.950 . S
H227 C236 0.950 . S
H228 C238 0.950 . S
H229 C240 0.950 . S
H230 C242 0.950 . S
H231 C243 0.950 . S
C232 H224 0.950 . S
C232 C233 1.386 . S
C232 C234 1.391 . S
C233 C232 1.386 . S
C233 C237 1.393 . S
C234 H226 0.950 . S
C234 C232 1.391 . S
C234 C235 1.400 . S
C235 C234 1.400 . S
C235 C236 1.398 . S
C235 C241 1.491 . S
C236 H227 0.950 . S
C236 C235 1.398 . S
C236 C237 1.391 . S
C237 H225 0.950 . S
C237 C233 1.393 . S
C237 C236 1.391 . S
C238 H228 0.950 . S
C238 C239 1.386 . S
C238 C240 1.391 . S
C239 C238 1.386 . S
C239 C243 1.393 . S
C240 H229 0.950 . S
C240 C238 1.391 . S
C240 C241 1.400 . S
C241 C235 1.491 . S
C241 C240 1.400 . S
C241 C242 1.398 . S
C242 H230 0.950 . S
C242 C241 1.398 . S
C242 C243 1.391 . S
C243 H231 0.950 . S
C243 C239 1.393 . S
C243 C242 1.391 . S
H244 C252 0.950 . S
H245 C257 0.950 . S
H246 C254 0.950 . S
H247 C256 0.950 . S
H248 C258 0.950 . S
H249 C260 0.950 . S
H250 C262 0.950 . S
H251 C263 0.950 . S
C252 H244 0.950 . S
C252 C253 1.386 . S
C252 C254 1.391 . S
C253 C252 1.386 . S
C253 C257 1.393 . S
C254 H246 0.950 . S
C254 C252 1.391 . S
C254 C255 1.400 . S
C255 C254 1.400 . S
C255 C256 1.398 . S
C255 C261 1.491 . S
C256 H247 0.950 . S
C256 C255 1.398 . S
C256 C257 1.391 . S
C257 H245 0.950 . S
C257 C253 1.393 . S
C257 C256 1.391 . S
C258 H248 0.950 . S
C258 C259 1.386 . S
C258 C260 1.391 . S
C259 C258 1.386 . S
C259 C263 1.393 . S
C260 H249 0.950 . S
C260 C258 1.391 . S
C260 C261 1.400 . S
C261 C255 1.491 . S
C261 C260 1.400 . S
C261 C262 1.398 . S
C262 H250 0.950 . S
C262 C261 1.398 . S
C262 C263 1.391 . S
C263 H251 0.950 . S
C263 C259 1.393 . S
C263 C262 1.391 . S
H264 C272 0.950 . S
H265 C277 0.950 . S
H266 C274 0.950 . S
H267 C276 0.950 . S
H268 C278 0.950 . S
H269 C280 0.950 . S
H270 C282 0.950 . S
H271 C283 0.950 . S
C272 H264 0.950 . S
C272 C273 1.386 . S
C272 C274 1.391 . S
C273 C272 1.386 . S
C273 C277 1.393 . S
C274 H266 0.950 . S
C274 C272 1.391 . S
C274 C275 1.400 . S
C275 C274 1.400 . S
C275 C276 1.398 . S
C275 C281 1.491 . S
C276 H267 0.950 . S
C276 C275 1.398 . S
C276 C277 1.391 . S
C277 H265 0.950 . S
C277 C273 1.393 . S
C277 C276 1.391 . S
C278 H268 0.950 . S
C278 C279 1.386 . S
C278 C280 1.391 . S
C279 C278 1.386 . S
C279 C283 1.393 . S
C280 H269 0.950 . S
C280 C278 1.391 . S
C280 C281 1.400 . S
C281 C275 1.491 . S
C281 C280 1.400 . S
C281 C282 1.398 . S
C282 H270 0.950 . S
C282 C281 1.398 . S
C282 C283 1.391 . S
C283 H271 0.950 . S
C283 C279 1.393 . S
C283 C282 1.391 . S
H284 C292 0.950 . S
H285 C297 0.950 1_556 S
H286 C294 0.950 . S
H287 C296 0.950 . S
H288 C298 0.950 . S
H289 C300 0.950 . S
H290 C302 0.950 . S
H291 C303 0.950 . S
C292 H284 0.950 . S
C292 C293 1.386 . S
C292 C294 1.391 . S
C293 C292 1.386 . S
C293 C297 1.393 . S
C294 H286 0.950 . S
C294 C292 1.391 . S
C294 C295 1.400 . S
C295 C294 1.400 . S
C295 C296 1.398 . S
C295 C301 1.491 . S
C296 H287 0.950 . S
C296 C295 1.398 . S
C296 C297 1.391 . S
C297 H285 0.950 1_554 S
C297 C293 1.393 . S
C297 C296 1.391 . S
C298 H288 0.950 . S
C298 C299 1.386 . S
C298 C300 1.391 . S
C299 C298 1.386 . S
C299 C303 1.393 . S
C300 H289 0.950 . S
C300 C298 1.391 . S
C300 C301 1.400 . S
C301 C295 1.491 . S
C301 C300 1.400 . S
C301 C302 1.398 . S
C302 H290 0.950 . S
C302 C301 1.398 . S
C302 C303 1.391 . S
C303 H291 0.950 . S
C303 C299 1.393 . S
C303 C302 1.391 . S
H304 C312 0.950 . S
H305 C317 0.950 . S
H306 C314 0.950 . S
H307 C316 0.950 . S
H308 C318 0.950 . S
H309 C320 0.950 . S
H310 C322 0.950 . S
H311 C323 0.950 . S
C312 H304 0.950 . S
C312 C313 1.386 . S
C312 C314 1.391 . S
C313 C312 1.386 . S
C313 C317 1.393 . S
C314 H306 0.950 . S
C314 C312 1.391 . S
C314 C315 1.400 . S
C315 C314 1.400 . S
C315 C316 1.398 . S
C315 C321 1.491 . S
C316 H307 0.950 . S
C316 C315 1.398 . S
C316 C317 1.391 . S
C317 H305 0.950 . S
C317 C313 1.393 . S
C317 C316 1.391 . S
C318 H308 0.950 . S
C318 C319 1.386 . S
C318 C320 1.391 . S
C319 C318 1.386 . S
C319 C323 1.393 . S
C320 H309 0.950 . S
C320 C318 1.391 . S
C320 C321 1.400 . S
C321 C315 1.491 . S
C321 C320 1.400 . S
C321 C322 1.398 . S
C322 H310 0.950 . S
C322 C321 1.398 . S
C322 C323 1.391 . S
C323 H311 0.950 . S
C323 C319 1.393 . S
C323 C322 1.391 . S
C93 C5 1.608 . S
C99 C81 1.598 . S
C113 C11 1.598 . S
C119 C19 1.610 . S
C133 C33 1.611 . S
C139 C25 1.603 . S
C153 C47 1.609 . S
C159 C39 1.607 . S
C173 C61 1.610 . S
C179 C53 1.607 . S
C193 C75 1.608 . S
C199 C67 1.600 . S
C213 C0 1.452 . S
C219 C65 1.458 . S
C233 C79 1.455 . S
C239 C14 1.447 . S
C253 C28 1.443 . S
C259 C9 1.460 . S
C273 C23 1.455 . S
C279 C42 1.448 1_556 S
C293 C37 1.460 1_554 S
C299 C56 1.442 . S
C313 C70 1.443 . S
C319 C51 1.457 . S
