# Generated by pormake.
# Topology ums, (4)-cn, num edge types: 1
# Building blocks:
#     Node 0, Type 0, BuildingBlock: NAHDIM_clean_sbu_0, # of connection points: 4
#     Node 1, Type 0, BuildingBlock: NAHDIM_clean_sbu_0, # of connection points: 4
#     Node 2, Type 0, BuildingBlock: NAHDIM_clean_sbu_0, # of connection points: 4
#     Node 3, Type 0, BuildingBlock: NAHDIM_clean_sbu_0, # of connection points: 4
#     Node 4, Type 0, BuildingBlock: NAHDIM_clean_sbu_0, # of connection points: 4
#     Node 5, Type 0, BuildingBlock: NAHDIM_clean_sbu_0, # of connection points: 4
#     Node 6, Type 0, BuildingBlock: NAHDIM_clean_sbu_0, # of connection points: 4
#     Node 7, Type 0, BuildingBlock: NAHDIM_clean_sbu_0, # of connection points: 4
#     Node 8, Type 0, BuildingBlock: NAHDIM_clean_sbu_0, # of connection points: 4
#     Node 9, Type 0, BuildingBlock: NAHDIM_clean_sbu_0, # of connection points: 4
#     Node 10, Type 0, BuildingBlock: NAHDIM_clean_sbu_0, # of connection points: 4
#     Node 11, Type 0, BuildingBlock: NAHDIM_clean_sbu_0, # of connection points: 4
#     Node 12, Type 0, BuildingBlock: NAHDIM_clean_sbu_0, # of connection points: 4
#     Node 13, Type 0, BuildingBlock: NAHDIM_clean_sbu_0, # of connection points: 4
#     Node 14, Type 0, BuildingBlock: NAHDIM_clean_sbu_0, # of connection points: 4
#     Node 15, Type 0, BuildingBlock: NAHDIM_clean_sbu_0, # of connection points: 4
#     Node 16, Type 0, BuildingBlock: NAHDIM_clean_sbu_0, # of connection points: 4
#     Node 17, Type 0, BuildingBlock: NAHDIM_clean_sbu_0, # of connection points: 4
#     Node 18, Type 0, BuildingBlock: NAHDIM_clean_sbu_0, # of connection points: 4
#     Node 19, Type 0, BuildingBlock: NAHDIM_clean_sbu_0, # of connection points: 4
#     Node 20, Type 0, BuildingBlock: NAHDIM_clean_sbu_0, # of connection points: 4
#     Node 21, Type 0, BuildingBlock: NAHDIM_clean_sbu_0, # of connection points: 4
#     Node 22, Type 0, BuildingBlock: NAHDIM_clean_sbu_0, # of connection points: 4
#     Node 23, Type 0, BuildingBlock: NAHDIM_clean_sbu_0, # of connection points: 4
#     Node 24, Type 0, BuildingBlock: NAHDIM_clean_sbu_0, # of connection points: 4
#     Node 25, Type 0, BuildingBlock: NAHDIM_clean_sbu_0, # of connection points: 4
#     Node 26, Type 0, BuildingBlock: NAHDIM_clean_sbu_0, # of connection points: 4
#     Node 27, Type 0, BuildingBlock: NAHDIM_clean_sbu_0, # of connection points: 4
#     Node 28, Type 0, BuildingBlock: NAHDIM_clean_sbu_0, # of connection points: 4
#     Node 29, Type 0, BuildingBlock: NAHDIM_clean_sbu_0, # of connection points: 4
#     Node 30, Type 0, BuildingBlock: NAHDIM_clean_sbu_0, # of connection points: 4
#     Node 31, Type 0, BuildingBlock: NAHDIM_clean_sbu_0, # of connection points: 4
#     Node 32, Type 0, BuildingBlock: NAHDIM_clean_sbu_0, # of connection points: 4
#     Node 33, Type 0, BuildingBlock: NAHDIM_clean_sbu_0, # of connection points: 4
#     Node 34, Type 0, BuildingBlock: NAHDIM_clean_sbu_0, # of connection points: 4
#     Node 35, Type 0, BuildingBlock: NAHDIM_clean_sbu_0, # of connection points: 4
#     Edge 36, Type (0, 0), BuildingBlock: AJUNOK_clean_linker_0, # of connection points: 2
#     Edge 37, Type (0, 0), BuildingBlock: AJUNOK_clean_linker_0, # of connection points: 2
#     Edge 38, Type (0, 0), BuildingBlock: AJUNOK_clean_linker_0, # of connection points: 2
#     Edge 39, Type (0, 0), BuildingBlock: AJUNOK_clean_linker_0, # of connection points: 2
#     Edge 40, Type (0, 0), BuildingBlock: AJUNOK_clean_linker_0, # of connection points: 2
#     Edge 41, Type (0, 0), BuildingBlock: AJUNOK_clean_linker_0, # of connection points: 2
#     Edge 42, Type (0, 0), BuildingBlock: AJUNOK_clean_linker_0, # of connection points: 2
#     Edge 43, Type (0, 0), BuildingBlock: AJUNOK_clean_linker_0, # of connection points: 2
#     Edge 44, Type (0, 0), BuildingBlock: AJUNOK_clean_linker_0, # of connection points: 2
#     Edge 45, Type (0, 0), BuildingBlock: AJUNOK_clean_linker_0, # of connection points: 2
#     Edge 46, Type (0, 0), BuildingBlock: AJUNOK_clean_linker_0, # of connection points: 2
#     Edge 47, Type (0, 0), BuildingBlock: AJUNOK_clean_linker_0, # of connection points: 2
#     Edge 48, Type (0, 0), BuildingBlock: AJUNOK_clean_linker_0, # of connection points: 2
#     Edge 49, Type (0, 0), BuildingBlock: AJUNOK_clean_linker_0, # of connection points: 2
#     Edge 50, Type (0, 0), BuildingBlock: AJUNOK_clean_linker_0, # of connection points: 2
#     Edge 51, Type (0, 0), BuildingBlock: AJUNOK_clean_linker_0, # of connection points: 2
#     Edge 52, Type (0, 0), BuildingBlock: AJUNOK_clean_linker_0, # of connection points: 2
#     Edge 53, Type (0, 0), BuildingBlock: AJUNOK_clean_linker_0, # of connection points: 2
#     Edge 54, Type (0, 0), BuildingBlock: AJUNOK_clean_linker_0, # of connection points: 2
#     Edge 55, Type (0, 0), BuildingBlock: AJUNOK_clean_linker_0, # of connection points: 2
#     Edge 56, Type (0, 0), BuildingBlock: AJUNOK_clean_linker_0, # of connection points: 2
#     Edge 57, Type (0, 0), BuildingBlock: AJUNOK_clean_linker_0, # of connection points: 2
#     Edge 58, Type (0, 0), BuildingBlock: AJUNOK_clean_linker_0, # of connection points: 2
#     Edge 59, Type (0, 0), BuildingBlock: AJUNOK_clean_linker_0, # of connection points: 2
#     Edge 60, Type (0, 0), BuildingBlock: AJUNOK_clean_linker_0, # of connection points: 2
#     Edge 61, Type (0, 0), BuildingBlock: AJUNOK_clean_linker_0, # of connection points: 2
#     Edge 62, Type (0, 0), BuildingBlock: AJUNOK_clean_linker_0, # of connection points: 2
#     Edge 63, Type (0, 0), BuildingBlock: AJUNOK_clean_linker_0, # of connection points: 2
#     Edge 64, Type (0, 0), BuildingBlock: AJUNOK_clean_linker_0, # of connection points: 2
#     Edge 65, Type (0, 0), BuildingBlock: AJUNOK_clean_linker_0, # of connection points: 2
#     Edge 66, Type (0, 0), BuildingBlock: AJUNOK_clean_linker_0, # of connection points: 2
#     Edge 67, Type (0, 0), BuildingBlock: AJUNOK_clean_linker_0, # of connection points: 2
#     Edge 68, Type (0, 0), BuildingBlock: AJUNOK_clean_linker_0, # of connection points: 2
#     Edge 69, Type (0, 0), BuildingBlock: AJUNOK_clean_linker_0, # of connection points: 2
#     Edge 70, Type (0, 0), BuildingBlock: AJUNOK_clean_linker_0, # of connection points: 2
#     Edge 71, Type (0, 0), BuildingBlock: AJUNOK_clean_linker_0, # of connection points: 2
#     Edge 72, Type (0, 0), BuildingBlock: AJUNOK_clean_linker_0, # of connection points: 2
#     Edge 73, Type (0, 0), BuildingBlock: AJUNOK_clean_linker_0, # of connection points: 2
#     Edge 74, Type (0, 0), BuildingBlock: AJUNOK_clean_linker_0, # of connection points: 2
#     Edge 75, Type (0, 0), BuildingBlock: AJUNOK_clean_linker_0, # of connection points: 2
#     Edge 76, Type (0, 0), BuildingBlock: AJUNOK_clean_linker_0, # of connection points: 2
#     Edge 77, Type (0, 0), BuildingBlock: AJUNOK_clean_linker_0, # of connection points: 2
#     Edge 78, Type (0, 0), BuildingBlock: AJUNOK_clean_linker_0, # of connection points: 2
#     Edge 79, Type (0, 0), BuildingBlock: AJUNOK_clean_linker_0, # of connection points: 2
#     Edge 80, Type (0, 0), BuildingBlock: AJUNOK_clean_linker_0, # of connection points: 2
#     Edge 81, Type (0, 0), BuildingBlock: AJUNOK_clean_linker_0, # of connection points: 2
#     Edge 82, Type (0, 0), BuildingBlock: AJUNOK_clean_linker_0, # of connection points: 2
#     Edge 83, Type (0, 0), BuildingBlock: AJUNOK_clean_linker_0, # of connection points: 2
#     Edge 84, Type (0, 0), BuildingBlock: AJUNOK_clean_linker_0, # of connection points: 2
#     Edge 85, Type (0, 0), BuildingBlock: AJUNOK_clean_linker_0, # of connection points: 2
#     Edge 86, Type (0, 0), BuildingBlock: AJUNOK_clean_linker_0, # of connection points: 2
#     Edge 87, Type (0, 0), BuildingBlock: AJUNOK_clean_linker_0, # of connection points: 2
#     Edge 88, Type (0, 0), BuildingBlock: AJUNOK_clean_linker_0, # of connection points: 2
#     Edge 89, Type (0, 0), BuildingBlock: AJUNOK_clean_linker_0, # of connection points: 2
#     Edge 90, Type (0, 0), BuildingBlock: AJUNOK_clean_linker_0, # of connection points: 2
#     Edge 91, Type (0, 0), BuildingBlock: AJUNOK_clean_linker_0, # of connection points: 2
#     Edge 92, Type (0, 0), BuildingBlock: AJUNOK_clean_linker_0, # of connection points: 2
#     Edge 93, Type (0, 0), BuildingBlock: AJUNOK_clean_linker_0, # of connection points: 2
#     Edge 94, Type (0, 0), BuildingBlock: AJUNOK_clean_linker_0, # of connection points: 2
#     Edge 95, Type (0, 0), BuildingBlock: AJUNOK_clean_linker_0, # of connection points: 2
#     Edge 96, Type (0, 0), BuildingBlock: AJUNOK_clean_linker_0, # of connection points: 2
#     Edge 97, Type (0, 0), BuildingBlock: AJUNOK_clean_linker_0, # of connection points: 2
#     Edge 98, Type (0, 0), BuildingBlock: AJUNOK_clean_linker_0, # of connection points: 2
#     Edge 99, Type (0, 0), BuildingBlock: AJUNOK_clean_linker_0, # of connection points: 2
#     Edge 100, Type (0, 0), BuildingBlock: AJUNOK_clean_linker_0, # of connection points: 2
#     Edge 101, Type (0, 0), BuildingBlock: AJUNOK_clean_linker_0, # of connection points: 2
#     Edge 102, Type (0, 0), BuildingBlock: AJUNOK_clean_linker_0, # of connection points: 2
#     Edge 103, Type (0, 0), BuildingBlock: AJUNOK_clean_linker_0, # of connection points: 2
#     Edge 104, Type (0, 0), BuildingBlock: AJUNOK_clean_linker_0, # of connection points: 2
#     Edge 105, Type (0, 0), BuildingBlock: AJUNOK_clean_linker_0, # of connection points: 2
#     Edge 106, Type (0, 0), BuildingBlock: AJUNOK_clean_linker_0, # of connection points: 2
#     Edge 107, Type (0, 0), BuildingBlock: AJUNOK_clean_linker_0, # of connection points: 2
# Relax obj value: 0.129
# Max RMSD: 0.121
# Mean RMSD: 0.115
data_MOF--net-ums--node1-NAHDIM_clean_sbu_0--edge1-AJUNOK_clean_linker_0
_symmetry_space_group_name_H-M    P1
_symmetry_Int_Tables_number       1
_symmetry_cell_setting            triclinic
loop_
_symmetry_equiv_pos_as_xyz
'x, y, z'
_cell_length_a     75.420794
_cell_length_b     75.448132
_cell_length_c     17.533312
_cell_angle_alpha  89.997089
_cell_angle_beta   90.024961
_cell_angle_gamma 120.01087
loop_
_atom_site_label
_atom_site_type_symbol
_atom_site_fract_x
_atom_site_fract_y
_atom_site_fract_z
_atom_type_partial_charge
C0 C 0.19643 0.24062 0.17921 0.0
O1 O 0.20351 0.26009 0.19383 0.0
O2 O 0.1852 0.27382 0.06176 0.0
Zn3 Zn 0.16607 0.2453 0.1001 0.0
O4 O 0.15046 0.24673 0.19013 0.0
C5 C 0.13232 0.23352 0.00347 0.0
O6 O 0.12998 0.24555 0.0515 0.0
O7 O 0.18095 0.23115 0.13604 0.0
C8 C 0.13536 0.23093 0.21879 0.0
O9 O 0.12925 0.21299 0.18728 0.0
C10 C 0.19087 0.28945 0.10385 0.0
O11 O 0.18522 0.28687 0.17575 0.0
O12 O 0.14704 0.23014 0.01372 0.0
C13 C 0.7654 0.96504 0.12416 0.0
O14 O 0.75 0.96067 0.0781 0.0
O15 O 0.72417 0.91655 0.07484 0.0
Zn16 Zn 0.75232 0.92238 0.10421 0.0
O17 O 0.74951 0.90425 0.19187 0.0
C18 C 0.752 0.89684 0.99193 0.0
O19 O 0.7351 0.88541 0.03055 0.0
O20 O 0.76979 0.95126 0.13961 0.0
C21 C 0.76463 0.90318 0.21818 0.0
O22 O 0.78262 0.91391 0.18557 0.0
C23 C 0.71039 0.91266 0.12421 0.0
O24 O 0.71505 0.91366 0.1969 0.0
O25 O 0.76377 0.9151 0.01414 0.0
C26 C 0.04108 0.81511 0.19847 0.0
O27 O 0.05503 0.81673 0.24729 0.0
O28 O 0.07927 0.80669 0.07227 0.0
Zn29 Zn 0.07555 0.83042 0.10076 0.0
O30 O 0.09387 0.84468 0.1898 0.0
C31 C 0.10348 0.85462 0.99241 0.0
O32 O 0.11332 0.84785 0.03418 0.0
O33 O 0.04628 0.82043 0.12957 0.0
C34 C 0.09588 0.86084 0.22037 0.0
O35 O 0.08578 0.86932 0.19184 0.0
C36 C 0.08344 0.79701 0.12165 0.0
O37 O 0.08381 0.80167 0.19406 0.0
O38 O 0.08523 0.84946 0.01096 0.0
C39 C 0.23517 0.19906 0.31991 0.0
O40 O 0.25472 0.20643 0.30571 0.0
O41 O 0.26913 0.1863 0.41063 0.0
Zn42 Zn 0.24033 0.16704 0.3752 0.0
O43 O 0.24042 0.15387 0.27606 0.0
C44 C 0.23773 0.13662 0.46784 0.0
O45 O 0.25321 0.14096 0.4223 0.0
O46 O 0.22531 0.18214 0.35515 0.0
C47 C 0.22635 0.13607 0.25717 0.0
O48 O 0.21162 0.1251 0.30572 0.0
C49 C 0.28494 0.19145 0.37022 0.0
O50 O 0.28269 0.18507 0.29927 0.0
O51 O 0.22769 0.14582 0.45729 0.0
C52 C 0.80396 0.04387 0.27835 0.0
O53 O 0.80331 0.0591 0.24486 0.0
O54 O 0.80204 0.08166 0.41062 0.0
Zn55 Zn 0.82443 0.07567 0.38213 0.0
O56 O 0.84094 0.09434 0.29709 0.0
C57 C 0.84946 0.10047 0.49574 0.0
O58 O 0.84461 0.11221 0.45598 0.0
O59 O 0.81245 0.04688 0.34343 0.0
C60 C 0.85653 0.0945 0.26891 0.0
O61 O 0.86278 0.08256 0.29839 0.0
C62 C 0.79632 0.09099 0.36541 0.0
O63 O 0.80432 0.09571 0.29677 0.0
O64 O 0.84253 0.0821 0.47404 0.0
C65 C 0.95672 0.77459 0.30314 0.0
O66 O 0.94185 0.76336 0.2555 0.0
O67 O 0.91865 0.72758 0.43231 0.0
Zn68 Zn 0.92345 0.75558 0.40653 0.0
O69 O 0.90452 0.75198 0.32015 0.0
C70 C 0.89632 0.75306 0.51528 0.0
O71 O 0.88587 0.73689 0.47191 0.0
O72 O 0.95267 0.77403 0.37384 0.0
C73 C 0.90166 0.7658 0.29162 0.0
O74 O 0.91133 0.78432 0.32078 0.0
C75 C 0.9142 0.71432 0.38015 0.0
O76 O 0.91478 0.71988 0.3088 0.0
O77 O 0.91491 0.76541 0.49823 0.0
C78 C 0.81204 0.76985 0.80459 0.0
O79 O 0.81476 0.75787 0.75767 0.0
O80 O 0.80506 0.72393 0.93059 0.0
Zn81 Zn 0.82799 0.75218 0.90539 0.0
O82 O 0.84361 0.7498 0.81735 0.0
C83 C 0.85175 0.74968 0.01883 0.0
O84 O 0.84583 0.73298 0.97845 0.0
O85 O 0.81667 0.77022 0.87458 0.0
C86 C 0.86061 0.76413 0.7929 0.0
O87 O 0.86979 0.78165 0.82963 0.0
C88 C 0.79625 0.71046 0.87911 0.0
O89 O 0.80132 0.71565 0.80756 0.0
O90 O 0.84627 0.7623 0.99714 0.0
C91 C 0.23117 0.04343 0.78877 0.0
O92 O 0.24486 0.05774 0.74432 0.0
O93 O 0.27223 0.08818 0.90006 0.0
Zn94 Zn 0.24271 0.07859 0.87505 0.0
O95 O 0.24231 0.09271 0.77876 0.0
C96 C 0.23073 0.10298 0.96356 0.0
O97 O 0.2357 0.11385 0.90065 0.0
O98 O 0.2276 0.04846 0.85372 0.0
C99 C 0.22636 0.09095 0.74708 0.0
O100 O 0.2085 0.08039 0.78074 0.0
C101 C 0.28348 0.10738 0.90915 0.0
O102 O 0.27536 0.1191 0.89985 0.0
O103 O 0.23103 0.08628 0.96431 0.0
C104 C 0.95267 0.18653 0.78668 0.0
O105 O 0.93849 0.18266 0.73536 0.0
O106 O 0.91097 0.18996 0.91033 0.0
Zn107 Zn 0.91766 0.16817 0.88274 0.0
O108 O 0.90038 0.15251 0.7932 0.0
C109 C 0.89177 0.14287 0.99446 0.0
O110 O 0.88032 0.14818 0.95508 0.0
O111 O 0.94736 0.18125 0.85548 0.0
C112 C 0.89791 0.1354 0.77091 0.0
O113 O 0.90679 0.12693 0.80875 0.0
C114 C 0.90681 0.19944 0.86003 0.0
O115 O 0.90795 0.19557 0.78772 0.0
O116 O 0.9101 0.14948 0.97299 0.0
C117 C 0.77064 0.81307 0.7025 0.0
O118 O 0.76013 0.81684 0.75317 0.0
O119 O 0.72406 0.80704 0.57851 0.0
Zn120 Zn 0.75243 0.82947 0.60442 0.0
O121 O 0.75046 0.84524 0.69271 0.0
C122 C 0.75111 0.85422 0.49142 0.0
O123 O 0.73423 0.84866 0.53032 0.0
O124 O 0.76998 0.81748 0.63299 0.0
C125 C 0.76539 0.86193 0.71681 0.0
O126 O 0.78308 0.8698 0.68149 0.0
C127 C 0.71077 0.79762 0.62998 0.0
O128 O 0.7162 0.80188 0.70181 0.0
O129 O 0.76304 0.84791 0.51344 0.0
C130 C 0.18872 0.95814 0.69494 0.0
O131 O 0.18566 0.94428 0.74655 0.0
O132 O 0.19348 0.9171 0.57069 0.0
Zn133 Zn 0.17115 0.92278 0.60078 0.0
O134 O 0.15675 0.90552 0.69194 0.0
C135 C 0.146 0.89552 0.49223 0.0
O136 O 0.15228 0.88504 0.53263 0.0
O137 O 0.18328 0.95252 0.62645 0.0
C138 C 0.1401 0.90323 0.71872 0.0
O139 O 0.13117 0.91218 0.68441 0.0
C140 C 0.20352 0.91308 0.6189 0.0
O141 O 0.2002 0.91399 0.69197 0.0
O142 O 0.15167 0.91378 0.51234 0.0
C143 C 0.03783 0.22921 0.69084 0.0
O144 O 0.05252 0.24187 0.73665 0.0
O145 O 0.08503 0.26991 0.60613 0.0
Zn146 Zn 0.07288 0.23919 0.61055 0.0
O147 O 0.08349 0.23207 0.70345 0.0
C148 C 0.09983 0.24128 0.49783 0.0
O149 O 0.11184 0.25644 0.54326 0.0
O150 O 0.0426 0.22572 0.62525 0.0
C151 C 0.09325 0.22253 0.71106 0.0
O152 O 0.09832 0.2158 0.65051 0.0
C153 C 0.09811 0.28155 0.65521 0.0
O154 O 0.10287 0.27332 0.71181 0.0
O155 O 0.08104 0.2303 0.51526 0.0
C156 C 0.85697 0.57076 0.54764 0.0
O157 O 0.85296 0.58083 0.59942 0.0
O158 O 0.85875 0.6152 0.42258 0.0
Zn159 Zn 0.83758 0.58671 0.45286 0.0
O160 O 0.82232 0.58817 0.54411 0.0
C161 C 0.8103 0.58547 0.34446 0.0
O162 O 0.81476 0.60196 0.38425 0.0
O163 O 0.85154 0.57078 0.47897 0.0
C164 C 0.80603 0.57279 0.56855 0.0
O165 O 0.79853 0.5553 0.53199 0.0
C166 C 0.87001 0.62885 0.47045 0.0
O167 O 0.86818 0.62412 0.54325 0.0
O168 O 0.81825 0.57479 0.36434 0.0
C169 C 0.41576 0.29063 0.53131 0.0
O170 O 0.39569 0.27985 0.53381 0.0
O171 O 0.3825 0.24167 0.45236 0.0
Zn172 Zn 0.41151 0.25208 0.48722 0.0
O173 O 0.41142 0.23761 0.5832 0.0
C174 C 0.41738 0.22666 0.3894 0.0
O175 O 0.4025 0.21368 0.43387 0.0
O176 O 0.42579 0.28207 0.51041 0.0
C177 C 0.42629 0.23534 0.60412 0.0
O178 O 0.44261 0.24237 0.56061 0.0
C179 C 0.3673 0.23331 0.49747 0.0
O180 O 0.37061 0.23212 0.57034 0.0
O181 O 0.42531 0.24566 0.40286 0.0
C182 C 0.70419 0.14428 0.53398 0.0
O183 O 0.71757 0.14797 0.58843 0.0
O184 O 0.74745 0.1405 0.41593 0.0
Zn185 Zn 0.74052 0.1621 0.44381 0.0
O186 O 0.75682 0.17686 0.53629 0.0
C187 C 0.7678 0.18872 0.33633 0.0
O188 O 0.77917 0.1835 0.37663 0.0
O189 O 0.7105 0.14926 0.46588 0.0
C190 C 0.75888 0.19369 0.55996 0.0
O191 O 0.75023 0.20234 0.52178 0.0
C192 C 0.75126 0.1306 0.46556 0.0
O193 O 0.74935 0.13363 0.53812 0.0
O194 O 0.74921 0.18157 0.35557 0.0
C195 C 0.9036 0.53062 0.61974 0.0
O196 O 0.91514 0.52939 0.56626 0.0
O197 O 0.94604 0.52306 0.71131 0.0
Zn198 Zn 0.91575 0.50505 0.69066 0.0
O199 O 0.91207 0.4908 0.59027 0.0
C200 C 0.91173 0.47292 0.78375 0.0
O201 O 0.92412 0.47324 0.73053 0.0
O202 O 0.90177 0.5216 0.68287 0.0
C203 C 0.89859 0.47271 0.57206 0.0
O204 O 0.88504 0.46082 0.62285 0.0
C205 C 0.95848 0.51863 0.67947 0.0
O206 O 0.95159 0.50396 0.62836 0.0
O207 O 0.90454 0.48491 0.7774 0.0
C208 C 0.4608 0.37476 0.63632 0.0
O209 O 0.4567 0.38848 0.60854 0.0
O210 O 0.47674 0.42371 0.7068 0.0
Zn211 Zn 0.49438 0.41086 0.69032 0.0
O212 O 0.50985 0.42122 0.59235 0.0
C213 C 0.52462 0.43766 0.79102 0.0
O214 O 0.5235 0.45029 0.74225 0.0
O215 O 0.47659 0.38065 0.67784 0.0
C216 C 0.52837 0.42618 0.58057 0.0
O217 O 0.53926 0.42478 0.63625 0.0
C218 C 0.48003 0.43957 0.66992 0.0
O219 O 0.4949 0.44741 0.61955 0.0
O220 O 0.5135 0.41853 0.77988 0.0
C221 C 0.61781 0.10047 0.61385 0.0
O222 O 0.60413 0.08774 0.56518 0.0
O223 O 0.57676 0.05584 0.73767 0.0
Zn224 Zn 0.58224 0.08362 0.70453 0.0
O225 O 0.56593 0.08046 0.60979 0.0
C226 C 0.55345 0.08265 0.80375 0.0
O227 O 0.54294 0.06655 0.76007 0.0
O228 O 0.61213 0.10163 0.68104 0.0
C229 C 0.56261 0.09422 0.58358 0.0
O230 O 0.56912 0.11135 0.62181 0.0
C231 C 0.57254 0.04136 0.6912 0.0
O232 O 0.57273 0.04484 0.6177 0.0
O233 O 0.5724 0.09421 0.78992 0.0
C234 C 0.45489 0.08386 0.14874 0.0
O235 O 0.44737 0.06446 0.1316 0.0
O236 O 0.46668 0.04886 0.23477 0.0
Zn237 Zn 0.48669 0.07787 0.20362 0.0
O238 O 0.50058 0.07758 0.10666 0.0
C239 C 0.51594 0.07959 0.30313 0.0
O240 O 0.51173 0.06382 0.25945 0.0
O241 O 0.47201 0.09337 0.18296 0.0
C242 C 0.51783 0.09199 0.08442 0.0
O243 O 0.52807 0.10815 0.12808 0.0
C244 C 0.46061 0.03388 0.18897 0.0
O245 O 0.46679 0.03748 0.1177 0.0
O246 O 0.50713 0.08984 0.28885 0.0
C247 C 0.89939 0.37604 0.11258 0.0
O248 O 0.91112 0.38892 0.05974 0.0
O249 O 0.94362 0.42183 0.22032 0.0
Zn250 Zn 0.91452 0.41326 0.19324 0.0
O251 O 0.91508 0.42718 0.0952 0.0
C252 C 0.91041 0.4412 0.28671 0.0
O253 O 0.92468 0.45362 0.23905 0.0
O254 O 0.89834 0.38296 0.17742 0.0
C255 C 0.90074 0.42979 0.07031 0.0
O256 O 0.88427 0.42394 0.11207 0.0
C257 C 0.94914 0.42225 0.28911 0.0
O258 O 0.93526 0.41603 0.34319 0.0
O259 O 0.90265 0.42204 0.27749 0.0
C260 C 0.61965 0.52351 0.11358 0.0
O261 O 0.60664 0.52008 0.05797 0.0
O262 O 0.57164 0.51974 0.22619 0.0
Zn263 Zn 0.58248 0.50098 0.19773 0.0
O264 O 0.5685 0.48621 0.10129 0.0
C265 C 0.56004 0.4639 0.28708 0.0
O266 O 0.54797 0.45756 0.22716 0.0
O267 O 0.6128 0.51696 0.18002 0.0
C268 C 0.56967 0.47137 0.07259 0.0
O269 O 0.58033 0.46439 0.10772 0.0
C270 C 0.55236 0.511 0.23514 0.0
O271 O 0.5413 0.49129 0.22158 0.0
O272 O 0.57605 0.48147 0.28562 0.0
C273 C 0.41505 0.12811 0.04328 0.0
O274 O 0.39623 0.12242 0.06429 0.0
O275 O 0.38172 0.14349 0.96926 0.0
Zn276 Zn 0.41198 0.16165 0.99042 0.0
O277 O 0.41531 0.17684 0.08787 0.0
C278 C 0.41669 0.19274 0.89087 0.0
O279 O 0.40374 0.19268 0.9411 0.0
O280 O 0.42527 0.14475 0.00674 0.0
C281 C 0.42953 0.19468 0.1053 0.0
O282 O 0.44422 0.20522 0.05604 0.0
C283 C 0.36892 0.14747 0.00069 0.0
O284 O 0.37559 0.16291 0.04843 0.0
O285 O 0.42384 0.18085 0.90129 0.0
C286 C 0.85355 0.28948 0.03721 0.0
O287 O 0.85037 0.2754 0.08802 0.0
O288 O 0.85538 0.2471 0.91153 0.0
Zn289 Zn 0.83417 0.25424 0.94308 0.0
O290 O 0.81927 0.23747 0.03466 0.0
C291 C 0.80676 0.22787 0.83653 0.0
O292 O 0.81145 0.21609 0.87679 0.0
O293 O 0.84774 0.28407 0.96885 0.0
C294 C 0.80306 0.23649 0.06033 0.0
O295 O 0.79538 0.24648 0.02491 0.0
C296 C 0.86515 0.24258 0.95924 0.0
O297 O 0.86197 0.24348 0.03246 0.0
O298 O 0.8146 0.24655 0.85555 0.0
C299 C 0.70673 0.56625 0.04357 0.0
O300 O 0.72049 0.57756 0.09476 0.0
O301 O 0.74903 0.61117 0.92302 0.0
Zn302 Zn 0.74251 0.58284 0.95234 0.0
O303 O 0.75912 0.58483 0.04482 0.0
C304 C 0.76978 0.58373 0.84502 0.0
O305 O 0.78093 0.6003 0.88575 0.0
O306 O 0.71254 0.56578 0.97592 0.0
C307 C 0.76167 0.57036 0.06864 0.0
O308 O 0.75334 0.55302 0.03075 0.0
C309 C 0.75319 0.62517 0.9717 0.0
O310 O 0.75224 0.62077 0.04462 0.0
O311 O 0.75122 0.57204 0.86405 0.0
C312 C 0.52333 0.89843 0.87006 0.0
O313 O 0.5207 0.91027 0.91805 0.0
O314 O 0.52573 0.94294 0.74656 0.0
Zn315 Zn 0.50446 0.91411 0.77376 0.0
O316 O 0.48851 0.91489 0.86398 0.0
C317 C 0.47715 0.91337 0.66798 0.0
O318 O 0.48124 0.92914 0.71149 0.0
O319 O 0.51767 0.89754 0.80116 0.0
C320 C 0.47255 0.89918 0.88857 0.0
O321 O 0.46569 0.88169 0.8525 0.0
C322 C 0.53358 0.95707 0.7962 0.0
O323 O 0.52861 0.95242 0.86817 0.0
O324 O 0.48554 0.90282 0.68402 0.0
C325 C 0.09577 0.61934 0.89271 0.0
O326 O 0.08235 0.60586 0.94027 0.0
O327 O 0.0542 0.57344 0.78708 0.0
Zn328 Zn 0.08355 0.58276 0.81463 0.0
O329 O 0.08387 0.56959 0.914 0.0
C330 C 0.09091 0.5554 0.72642 0.0
O331 O 0.08238 0.5438 0.78634 0.0
O332 O 0.09902 0.61312 0.82973 0.0
C333 C 0.09833 0.56732 0.93986 0.0
O334 O 0.11487 0.5731 0.89863 0.0
C335 C 0.04128 0.55462 0.79725 0.0
O336 O 0.04718 0.5429 0.83092 0.0
O337 O 0.09477 0.57384 0.72756 0.0
C338 C 0.37441 0.47362 0.88684 0.0
O339 O 0.38784 0.47606 0.93944 0.0
O340 O 0.42074 0.47694 0.77108 0.0
Zn341 Zn 0.41081 0.49632 0.79998 0.0
O342 O 0.42542 0.5104 0.89623 0.0
C343 C 0.43307 0.5339 0.71386 0.0
O344 O 0.44418 0.54022 0.77617 0.0
O345 O 0.38065 0.48077 0.82042 0.0
C346 C 0.42349 0.52404 0.93153 0.0
O347 O 0.41201 0.5309 0.90245 0.0
C348 C 0.43927 0.48513 0.74951 0.0
O349 O 0.45039 0.50518 0.74738 0.0
O350 O 0.41743 0.51606 0.71273 0.0
C351 C 0.56526 0.85488 0.96265 0.0
O352 O 0.57538 0.85107 0.91036 0.0
O353 O 0.6117 0.85934 0.0841 0.0
Zn354 Zn 0.58317 0.83734 0.05728 0.0
O355 O 0.58481 0.82193 0.9669 0.0
C356 C 0.5837 0.81135 0.16758 0.0
O357 O 0.60026 0.81631 0.1275 0.0
O358 O 0.56602 0.85001 0.03148 0.0
C359 C 0.56987 0.80523 0.94288 0.0
O360 O 0.55234 0.79711 0.97942 0.0
C361 C 0.62491 0.86945 0.03314 0.0
O362 O 0.61938 0.86608 0.96115 0.0
O363 O 0.57232 0.81848 0.14725 0.0
C364 C 0.13861 0.70635 0.96202 0.0
O365 O 0.14288 0.71933 0.90562 0.0
O366 O 0.135 0.75019 0.07909 0.0
Zn367 Zn 0.15652 0.74325 0.04995 0.0
O368 O 0.17057 0.75922 0.95588 0.0
C369 C 0.18343 0.77039 0.15798 0.0
O370 O 0.17773 0.78182 0.12064 0.0
O371 O 0.14338 0.71315 0.02966 0.0
C372 C 0.18796 0.76274 0.9325 0.0
O373 O 0.19816 0.75607 0.9726 0.0
C374 C 0.12399 0.75233 0.02923 0.0
O375 O 0.12604 0.74876 0.95738 0.0
O376 O 0.17647 0.75201 0.1366 0.0
C377 C 0.28698 0.43056 0.94728 0.0
O378 O 0.27459 0.4184 0.89412 0.0
O379 O 0.23995 0.38738 0.03628 0.0
Zn380 Zn 0.24883 0.41684 0.0148 0.0
O381 O 0.23746 0.41942 0.91447 0.0
C382 C 0.21863 0.41376 0.11182 0.0
O383 O 0.20865 0.39848 0.06414 0.0
O384 O 0.27939 0.43279 0.00873 0.0
C385 C 0.23022 0.43113 0.90145 0.0
O386 O 0.22897 0.44209 0.9572 0.0
C387 C 0.23135 0.3729 0.98829 0.0
O388 O 0.2288 0.37715 0.91788 0.0
O389 O 0.23763 0.42583 0.10081 0.0
C390 C 0.12593 0.41216 0.43841 0.0
O391 O 0.12378 0.39544 0.40652 0.0
O392 O 0.13599 0.37759 0.55457 0.0
Zn393 Zn 0.1547 0.40679 0.5217 0.0
O394 O 0.16907 0.40597 0.42702 0.0
C395 C 0.19245 0.42419 0.60676 0.0
O396 O 0.19874 0.41914 0.54502 0.0
O397 O 0.13846 0.42013 0.49341 0.0
C398 C 0.18084 0.42181 0.38847 0.0
O399 O 0.18498 0.43991 0.41337 0.0
C400 C 0.14409 0.36869 0.5898 0.0
O401 O 0.1639 0.37877 0.60236 0.0
O402 O 0.17443 0.42155 0.60789 0.0
C403 C 0.56673 0.70932 0.46046 0.0
O404 O 0.57737 0.72363 0.4101 0.0
O405 O 0.61149 0.75074 0.58741 0.0
Zn406 Zn 0.58315 0.7441 0.55766 0.0
O407 O 0.58522 0.76142 0.46762 0.0
C408 C 0.58306 0.77027 0.66727 0.0
O409 O 0.59969 0.78184 0.62748 0.0
O410 O 0.56661 0.71439 0.52955 0.0
C411 C 0.57033 0.76321 0.44329 0.0
O412 O 0.55272 0.75372 0.47933 0.0
C413 C 0.62536 0.75461 0.53849 0.0
O414 O 0.62078 0.75336 0.46563 0.0
O415 O 0.5717 0.75176 0.64691 0.0
C416 C 0.28652 0.85047 0.45212 0.0
O417 O 0.27259 0.84863 0.40286 0.0
O418 O 0.24756 0.85876 0.57477 0.0
Zn419 Zn 0.25191 0.83528 0.54889 0.0
O420 O 0.23409 0.8204 0.45929 0.0
C421 C 0.22372 0.81012 0.65565 0.0
O422 O 0.21338 0.81596 0.61214 0.0
O423 O 0.28137 0.84563 0.5214 0.0
C424 C 0.23291 0.80431 0.43145 0.0
O425 O 0.24335 0.79664 0.46342 0.0
C426 C 0.2436 0.8682 0.52359 0.0
O427 O 0.24374 0.8633 0.4518 0.0
O428 O 0.24236 0.81643 0.63932 0.0
C429 C 0.08495 0.4545 0.32118 0.0
O430 O 0.06648 0.44465 0.29167 0.0
O431 O 0.0488 0.47087 0.29615 0.0
Zn432 Zn 0.07884 0.48953 0.31618 0.0
O433 O 0.08106 0.50428 0.41365 0.0
C434 C 0.08293 0.52082 0.22003 0.0
O435 O 0.06895 0.51922 0.26862 0.0
O436 O 0.09327 0.47364 0.33284 0.0
C437 C 0.09577 0.52147 0.43475 0.0
O438 O 0.11134 0.53182 0.38867 0.0
C439 C 0.03661 0.46215 0.35153 0.0
O440 O 0.04416 0.46459 0.42073 0.0
O441 O 0.09063 0.50935 0.22911 0.0
C442 C 0.52521 0.62303 0.38002 0.0
O443 O 0.52375 0.60984 0.43211 0.0
O444 O 0.51738 0.57331 0.29557 0.0
Zn445 Zn 0.49928 0.58581 0.30929 0.0
O446 O 0.48377 0.57617 0.40788 0.0
C447 C 0.46904 0.55738 0.21237 0.0
O448 O 0.47014 0.54556 0.26488 0.0
O449 O 0.51617 0.61631 0.31655 0.0
C450 C 0.46507 0.57053 0.41948 0.0
O451 O 0.45345 0.56984 0.36243 0.0
C452 C 0.51332 0.55709 0.33163 0.0
O453 O 0.49858 0.54981 0.3825 0.0
O454 O 0.47994 0.57667 0.21998 0.0
C455 C 0.3722 0.88955 0.36398 0.0
O456 O 0.38594 0.90007 0.41643 0.0
O457 O 0.41433 0.93551 0.24215 0.0
Zn458 Zn 0.40804 0.90729 0.27211 0.0
O459 O 0.42461 0.91007 0.3653 0.0
C460 C 0.43569 0.90857 0.16608 0.0
O461 O 0.44657 0.92515 0.20706 0.0
O462 O 0.37808 0.88993 0.29575 0.0
C463 C 0.42912 0.89701 0.38997 0.0
O464 O 0.42339 0.88011 0.35106 0.0
C465 C 0.41809 0.94928 0.29147 0.0
O466 O 0.4164 0.94447 0.36413 0.0
O467 O 0.41715 0.89662 0.18472 0.0
C468 C 0.2358 0.23048 0.27228 0.0
C469 C 0.22458 0.20939 0.28817 0.0
C470 C 0.22651 0.24049 0.23756 0.0
C471 C 0.2058 0.22968 0.21589 0.0
H472 H 0.2519 0.23934 0.2867 0.0
H473 H 0.23573 0.25675 0.22643 0.0
S474 S 0.1696 0.17429 0.24569 0.0
N475 N 0.19153 0.17807 0.28089 0.0
N476 N 0.17416 0.19683 0.21435 0.0
C477 C 0.19436 0.2086 0.23175 0.0
C478 C 0.20372 0.19848 0.26836 0.0
C479 C 0.78196 0.01989 0.17648 0.0
C480 C 0.79481 0.02371 0.23998 0.0
C481 C 0.77283 0.00102 0.13884 0.0
C482 C 0.7763 0.98522 0.16264 0.0
H483 H 0.77866 0.03147 0.15595 0.0
H484 H 0.76287 -0.00119 0.09087 0.0
S485 S 0.80934 0.98765 0.32439 0.0
N486 N 0.81098 0.0103 0.32407 0.0
N487 N 0.79392 0.97481 0.25312 0.0
C488 C 0.78943 0.98893 0.22535 0.0
C489 C 0.79862 0.00815 0.26412 0.0
C490 C 0.99443 0.79287 0.32702 0.0
C491 C 0.97808 0.7864 0.27538 0.0
C492 C 0.01472 0.8025 0.30154 0.0
C493 C 0.01952 0.80622 0.22345 0.0
H494 H 0.99155 0.78998 0.38755 0.0
H495 H 0.02672 0.80679 0.3436 0.0
S496 S 0.98234 0.79384 0.06535 0.0
N497 N 0.96806 0.78551 0.1428 0.0
N498 N 0.00621 0.80368 0.09493 0.0
C499 C 0.00335 0.80053 0.17137 0.0
C500 C 0.98264 0.79059 0.19732 0.0
C501 C 0.79471 0.79014 0.82933 0.0
C502 C 0.8027 0.78185 0.77691 0.0
C503 C 0.78466 0.80045 0.80456 0.0
C504 C 0.78233 0.80303 0.72637 0.0
H505 H 0.79581 0.78828 0.89011 0.0
H506 H 0.7785 0.80625 0.8473 0.0
S507 S 0.8017 0.78537 0.56574 0.0
N508 N 0.80848 0.77774 0.64305 0.0
N509 N 0.78963 0.79717 0.59652 0.0
C510 C 0.79077 0.79534 0.67326 0.0
C511 C 0.80092 0.78472 0.69851 0.0
C512 C 0.21078 0.00601 0.81691 0.0
C513 C 0.22003 0.02188 0.76312 0.0
C514 C 0.20058 0.98547 0.79412 0.0
C515 C 0.19899 0.98002 0.7166 0.0
H516 H 0.21169 0.00944 0.87727 0.0
H517 H 0.1939 0.97379 0.83781 0.0
S518 S 0.21979 0.01589 0.55283 0.0
N519 N 0.22645 0.03084 0.62863 0.0
N520 N 0.20713 0.99225 0.58575 0.0
C521 C 0.20782 0.99577 0.66204 0.0
C522 C 0.2184 0.01669 0.68532 0.0
C523 C 0.00032 0.20936 0.6633 0.0
C524 C 0.0163 0.21852 0.71678 0.0
C525 C 0.97982 0.19906 0.68658 0.0
C526 C 0.97451 0.19729 0.76429 0.0
H527 H 0.00364 0.21028 0.60285 0.0
H528 H 0.96806 0.19234 0.64313 0.0
S529 S 0.01067 0.21817 0.92736 0.0
N530 N 0.02548 0.22494 0.85119 0.0
N531 N 0.98697 0.20545 0.8949 0.0
C532 C 0.99035 0.20622 0.81849 0.0
C533 C 0.01124 0.21689 0.79474 0.0
C534 C 0.87814 0.55521 0.51059 0.0
C535 C 0.86856 0.56039 0.56812 0.0
C536 C 0.88966 0.54587 0.52819 0.0
C537 C 0.89186 0.54112 0.60396 0.0
H538 H 0.87695 0.55856 0.45135 0.0
H539 H 0.89669 0.54217 0.48168 0.0
S540 S 0.86959 0.55128 0.77582 0.0
N541 N 0.86193 0.56 0.70416 0.0
N542 N 0.88345 0.54228 0.73717 0.0
C543 C 0.88228 0.54612 0.66215 0.0
C544 C 0.87068 0.55581 0.64426 0.0
C545 C 0.44693 0.32063 0.58488 0.0
C546 C 0.42671 0.31206 0.55808 0.0
C547 C 0.45761 0.34074 0.6122 0.0
C548 C 0.4486 0.35315 0.61251 0.0
H549 H 0.45457 0.3117 0.58545 0.0
H550 H 0.47322 0.34671 0.63166 0.0
S551 S 0.39593 0.33796 0.5491 0.0
N552 N 0.39793 0.31741 0.53458 0.0
N553 N 0.41816 0.35538 0.58479 0.0
C554 C 0.42836 0.34477 0.58612 0.0
C555 C 0.41737 0.32417 0.55926 0.0
C556 C 0.67568 0.13145 0.62871 0.0
C557 C 0.68205 0.13391 0.55207 0.0
C558 C 0.65489 0.12103 0.64809 0.0
C559 C 0.63963 0.11247 0.59163 0.0
H560 H 0.68683 0.1375 0.67442 0.0
H561 H 0.65078 0.11932 0.70793 0.0
S562 S 0.64809 0.1154 0.38222 0.0
N563 N 0.67133 0.12752 0.41913 0.0
N564 N 0.63227 0.10786 0.45557 0.0
C565 C 0.64574 0.11513 0.51466 0.0
C566 C 0.66693 0.12589 0.49487 0.0
C567 C 0.45565 0.11591 0.10811 0.0
C568 C 0.4443 0.09479 0.12317 0.0
C569 C 0.44611 0.12647 0.08043 0.0
C570 C 0.42483 0.11636 0.06831 0.0
H571 H 0.47208 0.12431 0.11661 0.0
H572 H 0.45545 0.14274 0.06977 0.0
S573 S 0.38819 0.06119 0.09966 0.0
N574 N 0.41067 0.06411 0.12377 0.0
N575 N 0.39268 0.08407 0.07325 0.0
C576 C 0.41328 0.09528 0.08361 0.0
C577 C 0.42304 0.08446 0.1106 0.0
C578 C 0.87354 0.32637 0.00113 0.0
C579 C 0.86463 0.31139 0.05834 0.0
C580 C 0.88478 0.34719 0.01944 0.0
C581 C 0.88734 0.35388 0.09564 0.0
H582 H 0.87212 0.32201 0.9416 0.0
H583 H 0.89143 0.35811 0.97323 0.0
S584 S 0.8665 0.32082 0.26686 0.0
N585 N 0.85875 0.30467 0.19446 0.0
N586 N 0.87975 0.34384 0.22887 0.0
C587 C 0.87826 0.33909 0.15348 0.0
C588 C 0.86695 0.31783 0.13485 0.0
C589 C 0.64895 0.53773 0.02211 0.0
C590 C 0.64195 0.53434 0.098 0.0
C591 C 0.66988 0.54777 0.00516 0.0
C592 C 0.68469 0.55502 0.06342 0.0
H593 H 0.63819 0.53251 0.97507 0.0
H594 H 0.67446 0.55007 0.94578 0.0
S595 S 0.67448 0.54982 0.2718 0.0
N596 N 0.65156 0.53884 0.23219 0.0
N597 N 0.69091 0.55781 0.20032 0.0
C598 C 0.67794 0.55168 0.13966 0.0
C599 C 0.65658 0.54131 0.15695 0.0
C600 C 0.54088 0.87855 0.84126 0.0
C601 C 0.53323 0.88674 0.89548 0.0
C602 C 0.55101 0.86812 0.86369 0.0
C603 C 0.55375 0.8653 0.94128 0.0
H604 H 0.53936 0.88048 0.78082 0.0
H605 H 0.55683 0.86233 0.8196 0.0
S606 S 0.5356 0.88286 0.10606 0.0
N607 N 0.5284 0.89069 0.03042 0.0
N608 N 0.54737 0.87102 0.07258 0.0
C609 C 0.54577 0.87302 0.99621 0.0
C610 C 0.53555 0.88377 0.97332 0.0
C611 C 0.11636 0.65608 0.85451 0.0
C612 C 0.10686 0.64136 0.91225 0.0
C613 C 0.12661 0.67704 0.8713 0.0
C614 C 0.128 0.68408 0.9466 0.0
H615 H 0.11565 0.65143 0.79562 0.0
H616 H 0.13354 0.68777 0.8247 0.0
S617 S 0.10633 0.65169 0.11908 0.0
N618 N 0.09987 0.63522 0.04812 0.0
N619 N 0.11925 0.67457 0.07977 0.0
C620 C 0.11882 0.66949 0.00512 0.0
C621 C 0.10821 0.64815 0.98791 0.0
C622 C 0.3169 0.44408 0.85942 0.0
C623 C 0.30934 0.44168 0.9343 0.0
C624 C 0.33795 0.45454 0.84471 0.0
C625 C 0.35227 0.46272 0.90441 0.0
H626 H 0.30648 0.43802 0.81144 0.0
H627 H 0.343 0.45603 0.78604 0.0
S628 S 0.34045 0.46053 0.11092 0.0
N629 N 0.31783 0.44837 0.06902 0.0
N630 N 0.35746 0.46784 0.04148 0.0
C631 C 0.34496 0.46036 0.9797 0.0
C632 C 0.32348 0.44992 0.99461 0.0
C633 C 0.11222 0.45316 0.39737 0.0
C634 C 0.09529 0.44333 0.34795 0.0
C635 C 0.1218 0.44286 0.42689 0.0
C636 C 0.11502 0.42236 0.40764 0.0
H637 H 0.11802 0.46891 0.41444 0.0
H638 H 0.13476 0.45116 0.46468 0.0
S639 S 0.07148 0.38965 0.27973 0.0
N640 N 0.0722 0.41188 0.28064 0.0
N641 N 0.09035 0.39254 0.33572 0.0
C642 C 0.09822 0.41235 0.3578 0.0
C643 C 0.08832 0.42281 0.32812 0.0
C644 C 0.54057 0.65155 0.47434 0.0
C645 C 0.53597 0.64516 0.39792 0.0
C646 C 0.55024 0.67228 0.49398 0.0
C647 C 0.55593 0.6875 0.43791 0.0
H648 H 0.5365 0.64045 0.51979 0.0
H649 H 0.55348 0.67639 0.55364 0.0
S650 S 0.54728 0.67891 0.22934 0.0
N651 N 0.53772 0.65572 0.26573 0.0
N652 N 0.55608 0.69477 0.30255 0.0
C653 C 0.55146 0.68136 0.36116 0.0
C654 C 0.54142 0.66019 0.34119 0.0
C655 C 0.34438 0.87611 0.46157 0.0
C656 C 0.35019 0.87833 0.3843 0.0
C657 C 0.32376 0.86663 0.48299 0.0
C658 C 0.3081 0.85914 0.42798 0.0
H659 H 0.35585 0.88193 0.50621 0.0
H660 H 0.32014 0.86562 0.54318 0.0
S661 S 0.31497 0.86001 0.21795 0.0
N662 N 0.33847 0.87139 0.25254 0.0
N663 N 0.29972 0.85365 0.29277 0.0
C664 C 0.31362 0.86079 0.35049 0.0
C665 C 0.33465 0.87033 0.32867 0.0
C666 C 0.11866 0.21999 0.79549 0.0
C667 C 0.10092 0.22152 0.78762 0.0
C668 C 0.12813 0.22264 0.86675 0.0
C669 C 0.12018 0.22694 0.93237 0.0
H670 H 0.12592 0.21785 0.74582 0.0
H671 H 0.14238 0.22245 0.86949 0.0
S672 S 0.07184 0.22846 0.94443 0.0
N673 N 0.07414 0.22461 0.8532 0.0
N674 N 0.092 0.22971 0.98669 0.0
C675 C 0.10158 0.22689 0.92615 0.0
C676 C 0.09193 0.22415 0.85386 0.0
C677 C 0.7415 0.86918 0.89536 0.0
C678 C 0.75635 0.88859 0.92215 0.0
C679 C 0.74462 0.86088 0.82897 0.0
C680 C 0.76278 0.87156 0.78638 0.0
H681 H 0.72718 0.86024 0.92555 0.0
H682 H 0.73262 0.84586 0.81128 0.0
S683 S 0.80666 0.92297 0.8319 0.0
N684 N 0.79002 0.91834 0.90097 0.0
N685 N 0.79594 0.90266 0.77586 0.0
C686 C 0.77786 0.89098 0.81248 0.0
C687 C 0.77464 0.89951 0.88033 0.0
C688 C 0.10298 0.87513 0.88068 0.0
C689 C 0.11325 0.86726 0.92368 0.0
C690 C 0.11177 0.88677 0.81469 0.0
C691 C 0.13114 0.89093 0.78883 0.0
H692 H 0.08799 0.87228 0.89793 0.0
H693 H 0.10321 0.89244 0.78358 0.0
S694 S 0.16458 0.87402 0.88116 0.0
N695 N 0.14404 0.86462 0.93573 0.0
N696 N 0.16046 0.88637 0.81214 0.0
C697 C 0.14163 0.8832 0.83147 0.0
C698 C 0.13272 0.87142 0.89873 0.0
C699 C 0.21513 0.10852 0.6541 0.0
C700 C 0.22821 0.10094 0.67289 0.0
C701 C 0.2179 0.11955 0.58645 0.0
C702 C 0.23368 0.12313 0.53486 0.0
H703 H 0.20314 0.10655 0.6931 0.0
H704 H 0.20789 0.12571 0.57552 0.0
S705 S 0.2703 0.10397 0.55391 0.0
N706 N 0.25631 0.09613 0.63212 0.0
N707 N 0.26138 0.11648 0.50474 0.0
C708 C 0.24616 0.11464 0.55149 0.0
C709 C 0.24348 0.10366 0.62061 0.0
C710 C 0.86733 0.1284 0.59087 0.0
C711 C 0.86204 0.10866 0.5657 0.0
C712 C 0.87882 0.13673 0.65711 0.0
C713 C 0.88567 0.12575 0.70126 0.0
H714 H 0.86247 0.1376 0.55947 0.0
H715 H 0.88239 0.15201 0.6735 0.0
S716 S 0.87616 0.07341 0.66031 0.0
N717 N 0.86462 0.07826 0.59005 0.0
N718 N 0.88637 0.094 0.71493 0.0
C719 C 0.88061 0.10599 0.67679 0.0
C720 C 0.86878 0.09743 0.60904 0.0
C721 C 0.89007 0.77455 0.70321 0.0
C722 C 0.86937 0.7613 0.72142 0.0
C723 C 0.89865 0.77197 0.63605 0.0
C724 C 0.8868 0.7561 0.58435 0.0
H725 H 0.89984 0.78688 0.74155 0.0
H726 H 0.91474 0.78238 0.6251 0.0
S727 S 0.83132 0.71815 0.60281 0.0
N728 N 0.83695 0.73232 0.68037 0.0
N729 N 0.85292 0.72752 0.55451 0.0
C730 C 0.86593 0.74302 0.60117 0.0
C731 C 0.85726 0.74559 0.66958 0.0
C732 C 0.87351 0.77268 0.12447 0.0
C733 C 0.86414 0.75338 0.08885 0.0
C734 C 0.88546 0.77653 0.19033 0.0
C735 C 0.88841 0.76119 0.22339 0.0
H736 H 0.87179 0.78501 0.10097 0.0
H737 H 0.89252 0.7917 0.21513 0.0
S738 S 0.86641 0.70767 0.15403 0.0
N739 N 0.85814 0.71853 0.09289 0.0
N740 N 0.88042 0.72568 0.21632 0.0
C741 C 0.87885 0.7417 0.18888 0.0
C742 C 0.86678 0.73783 0.12173 0.0
C743 C 0.21827 0.09865 0.09826 0.0
C744 C 0.22815 0.11159 0.03579 0.0
C745 C 0.21731 0.10664 0.16933 0.0
C746 C 0.22657 0.12789 0.18086 0.0
H747 H 0.21142 0.08221 0.09247 0.0
H748 H 0.20975 0.09613 0.21608 0.0
S749 S 0.25363 0.16836 0.0353 0.0
N750 N 0.24672 0.14673 0.98964 0.0
N751 N 0.24516 0.1617 0.12333 0.0
C752 C 0.23615 0.14098 0.1186 0.0
C753 C 0.23685 0.13284 0.046 0.0
C754 C 0.85622 0.1154 0.15955 0.0
C755 C 0.86634 0.10695 0.20002 0.0
C756 C 0.86456 0.12678 0.09314 0.0
C757 C 0.88349 0.1304 0.06443 0.0
H758 H 0.84155 0.11306 0.17871 0.0
H759 H 0.85605 0.13288 0.06444 0.0
S760 S 0.91644 0.11194 0.14938 0.0
N761 N 0.89647 0.10309 0.2069 0.0
N762 N 0.91228 0.1247 0.08187 0.0
C763 C 0.89392 0.12217 0.10441 0.0
C764 C 0.88531 0.11039 0.17215 0.0
C765 C 0.74338 0.88237 0.32774 0.0
C766 C 0.7619 0.89067 0.28704 0.0
C767 C 0.74022 0.87079 0.39372 0.0
C768 C 0.75538 0.86685 0.4218 0.0
H769 H 0.73114 0.88492 0.30897 0.0
H770 H 0.72563 0.8648 0.4226 0.0
S771 S 0.80664 0.88487 0.33627 0.0
N772 N 0.7957 0.89407 0.27944 0.0
N773 N 0.78969 0.87213 0.40366 0.0
C774 C 0.774 0.87496 0.38167 0.0
C775 C 0.77727 0.8869 0.31434 0.0
C776 C 0.11149 0.88765 0.32229 0.0
C777 C 0.1089 0.86951 0.28913 0.0
C778 C 0.1235 0.89598 0.38787 0.0
C779 C 0.13329 0.88642 0.42318 0.0
H780 H 0.10419 0.89553 0.29755 0.0
H781 H 0.12501 0.90996 0.41126 0.0
S782 S 0.13187 0.83884 0.35817 0.0
N783 N 0.1175 0.84242 0.2962 0.0
N784 N 0.13993 0.858 0.41909 0.0
C785 C 0.13091 0.86831 0.39048 0.0
C786 C 0.11877 0.85989 0.32358 0.0
C787 C 0.12739 0.25328 0.40011 0.0
C788 C 0.10819 0.23787 0.42645 0.0
C789 C 0.13584 0.25089 0.33269 0.0
C790 C 0.12558 0.23289 0.28902 0.0
H791 H 0.13599 0.26747 0.43145 0.0
H792 H 0.15069 0.26326 0.31522 0.0
S793 S 0.07483 0.18782 0.33281 0.0
N794 N 0.07903 0.20393 0.40344 0.0
N795 N 0.09506 0.19934 0.27667 0.0
C796 C 0.10636 0.21728 0.31461 0.0
C797 C 0.09763 0.2198 0.38323 0.0
C798 C 0.79104 0.59428 0.25079 0.0
C799 C 0.7973 0.5805 0.27533 0.0
C800 C 0.77953 0.59075 0.1843 0.0
C801 C 0.77363 0.57322 0.13934 0.0
H802 H 0.79524 0.60813 0.28267 0.0
H803 H 0.77525 0.60197 0.16814 0.0
S804 S 0.78561 0.53198 0.17915 0.0
N805 N 0.79643 0.54835 0.25 0.0
N806 N 0.77466 0.54166 0.12479 0.0
C807 C 0.77951 0.5591 0.16357 0.0
C808 C 0.79137 0.56276 0.2315 0.0
C809 C 0.41496 0.19036 0.23579 0.0
C810 C 0.42862 0.20342 0.17986 0.0
C811 C 0.41216 0.19802 0.3044 0.0
C812 C 0.4228 0.21913 0.32013 0.0
H813 H 0.40599 0.174 0.22613 0.0
H814 H 0.40107 0.18725 0.34445 0.0
S815 S 0.46159 0.25982 0.19522 0.0
N816 N 0.4539 0.23845 0.14661 0.0
N817 N 0.44858 0.25296 0.27593 0.0
C818 C 0.43718 0.23236 0.26616 0.0
C819 C 0.44011 0.22449 0.19601 0.0
C820 C 0.80424 0.21742 0.17456 0.0
C821 C 0.79355 0.2247 0.1309 0.0
C822 C 0.79586 0.20614 0.24123 0.0
C823 C 0.77635 0.2015 0.26711 0.0
H824 H 0.81929 0.22045 0.15731 0.0
H825 H 0.80476 0.20083 0.27214 0.0
S826 S 0.74207 0.21722 0.17454 0.0
N827 N 0.76245 0.22671 0.11895 0.0
N828 N 0.74662 0.20537 0.24443 0.0
C829 C 0.7655 0.20881 0.2245 0.0
C830 C 0.77411 0.22044 0.15647 0.0
C831 C 0.89359 0.45898 0.90801 0.0
C832 C 0.90801 0.46047 0.85366 0.0
C833 C 0.89096 0.44863 0.97723 0.0
C834 C 0.90284 0.43958 0.9951 0.0
H835 H 0.88441 0.46611 0.89761 0.0
H836 H 0.87991 0.44817 0.01776 0.0
S837 S 0.94187 0.43798 0.87063 0.0
N838 N 0.93366 0.45108 0.82126 0.0
N839 N 0.92882 0.43181 0.95114 0.0
C840 C 0.91695 0.44049 0.9405 0.0
C841 C 0.9195 0.45086 0.86984 0.0
C842 C 0.55487 0.47437 0.94988 0.0
C843 C 0.55914 0.46239 -0.00029 0.0
C844 C 0.54423 0.46632 0.88176 0.0
C845 C 0.53712 0.44583 0.86103 0.0
H846 H 0.55976 0.49016 0.96359 0.0
H847 H 0.54117 0.47619 0.84601 0.0
S848 S 0.54473 0.40809 0.97094 0.0
N849 N 0.55595 0.42914 0.02305 0.0
N850 N 0.5356 0.41382 0.89505 0.0
C851 C 0.54153 0.4337 0.90977 0.0
C852 C 0.55265 0.44203 0.97902 0.0
C853 C 0.55592 0.10069 0.92684 0.0
C854 C 0.5438 0.08595 0.87186 0.0
C855 C 0.54735 0.10284 0.99477 0.0
C856 C 0.52636 0.0903 0.01044 0.0
H857 H 0.57225 0.11033 0.91833 0.0
H858 H 0.55738 0.11409 0.03603 0.0
S859 S 0.48753 0.05081 0.88189 0.0
N860 N 0.50936 0.05967 0.83542 0.0
N861 N 0.49336 0.06367 0.96281 0.0
C862 C 0.51394 0.07601 0.95479 0.0
C863 C 0.52262 0.07387 0.8856 0.0
C864 C 0.53147 0.09932 0.4235 0.0
C865 C 0.5291 0.08403 0.37158 0.0
C866 C 0.54259 0.10274 0.49137 0.0
C867 C 0.55165 0.09093 0.51019 0.0
H868 H 0.52439 0.1085 0.41246 0.0
H869 H 0.5437 0.11445 0.53007 0.0
S870 S 0.55159 0.05023 0.39085 0.0
N871 N 0.53797 0.05788 0.34173 0.0
N872 N 0.55867 0.06424 0.46911 0.0
C873 C 0.54991 0.07601 0.45783 0.0
C874 C 0.53871 0.07259 0.3886 0.0
C875 C 0.8941 0.43606 0.41533 0.0
C876 C 0.90538 0.44933 0.35523 0.0
C877 C 0.8912 0.44364 0.48438 0.0
C878 C 0.89955 0.46477 0.49594 0.0
H879 H 0.88804 0.41972 0.41022 0.0
H880 H 0.88307 0.43291 0.52995 0.0
S881 S 0.92777 0.50577 0.35307 0.0
N882 N 0.92307 0.48449 0.30929 0.0
N883 N 0.9177 0.4987 0.43892 0.0
C884 C 0.90989 0.47811 0.43494 0.0
C885 C 0.91278 0.4704 0.36463 0.0
C886 C 0.52446 0.42968 0.4414 0.0
C887 C 0.53746 0.4342 0.50482 0.0
C888 C 0.53212 0.43853 0.37021 0.0
C889 C 0.55308 0.45251 0.35976 0.0
H890 H 0.5081 0.41951 0.44703 0.0
H891 H 0.52134 0.43502 0.32395 0.0
S892 S 0.59387 0.46818 0.50584 0.0
N893 N 0.57254 0.45243 0.5514 0.0
N894 N 0.58698 0.46935 0.41741 0.0
C895 C 0.56642 0.45652 0.42182 0.0
C896 C 0.5586 0.44727 0.49436 0.0
C897 C 0.41037 0.22303 0.73179 0.0
C898 C 0.42511 0.22521 0.6778 0.0
C899 C 0.40829 0.21308 0.8012 0.0
C900 C 0.4207 0.20464 0.81942 0.0
H901 H 0.40022 0.22901 0.72041 0.0
H902 H 0.39647 0.21162 0.84006 0.0
S903 S 0.46217 0.20674 0.69885 0.0
N904 N 0.45283 0.21865 0.6481 0.0
N905 N 0.44876 0.19968 0.77868 0.0
C906 C 0.43579 0.20699 0.76662 0.0
C907 C 0.43804 0.21735 0.69587 0.0
C908 C 0.77674 0.19156 0.67619 0.0
C909 C 0.77057 0.20293 0.63097 0.0
C910 C 0.78806 0.19969 0.74295 0.0
C911 C 0.79384 0.21961 0.76743 0.0
H912 H 0.77286 0.17617 0.66002 0.0
H913 H 0.79252 0.19026 0.77499 0.0
S914 S 0.78117 0.25569 0.6708 0.0
N915 N 0.77074 0.23509 0.61623 0.0
N916 N 0.79216 0.25046 0.74198 0.0
C917 C 0.7876 0.23114 0.72342 0.0
C918 C 0.77593 0.22278 0.65523 0.0
C919 C 0.79811 0.59495 0.75073 0.0
C920 C 0.77857 0.57988 0.77557 0.0
C921 C 0.80673 0.59244 0.68396 0.0
C922 C 0.79625 0.57467 0.6391 0.0
H923 H 0.80687 0.60902 0.78258 0.0
H924 H 0.8218 0.6046 0.6676 0.0
S925 S 0.74475 0.53028 0.67955 0.0
N926 N 0.74902 0.54632 0.75052 0.0
N927 N 0.76529 0.54153 0.62482 0.0
C928 C 0.77677 0.5593 0.66356 0.0
C929 C 0.76791 0.56192 0.73173 0.0
C930 C 0.44965 0.8891 0.48213 0.0
C931 C 0.44066 0.90092 0.46236 0.0
C932 C 0.46116 0.893 0.54924 0.0
C933 C 0.46405 0.90882 0.59936 0.0
H934 H 0.44807 0.87693 0.44496 0.0
H935 H 0.46803 0.88368 0.56129 0.0
S936 S 0.44249 0.94334 0.5764 0.0
N937 N 0.43462 0.92851 0.50032 0.0
N938 N 0.45611 0.93579 0.62601 0.0
C939 C 0.45471 0.92044 0.58111 0.0
C940 C 0.44307 0.91651 0.51277 0.0
C941 C 0.10696 0.55871 0.59829 0.0
C942 C 0.09303 0.54629 0.65476 0.0
C943 C 0.1081 0.55051 0.52783 0.0
C944 C 0.09508 0.52967 0.51083 0.0
H945 H 0.11698 0.57492 0.6084 0.0
H946 H 0.11895 0.5607 0.48585 0.0
S947 S 0.05576 0.49063 0.63944 0.0
N948 N 0.06598 0.51207 0.68912 0.0
N949 N 0.06798 0.49671 0.55713 0.0
C950 C 0.08119 0.51705 0.56725 0.0
C951 C 0.08021 0.52534 0.63911 0.0
C952 C 0.42815 0.53903 0.57605 0.0
C953 C 0.44058 0.54562 0.64179 0.0
C954 C 0.43586 0.54787 0.5046 0.0
C955 C 0.45635 0.56342 0.4962 0.0
H956 H 0.41252 0.52647 0.57922 0.0
H957 H 0.42599 0.5418 0.45517 0.0
S958 S 0.49456 0.58805 0.65102 0.0
N959 N 0.4739 0.57019 0.69441 0.0
N960 N 0.48835 0.58652 0.56004 0.0
C961 C 0.46861 0.57094 0.56181 0.0
C962 C 0.46072 0.56214 0.63467 0.0
C963 C 0.59379 0.79341 0.26241 0.0
C964 C 0.5793 0.79865 0.23717 0.0
C965 C 0.59069 0.78203 0.32895 0.0
C966 C 0.57289 0.77526 0.37318 0.0
H967 H 0.60784 0.79826 0.23096 0.0
H968 H 0.60241 0.77849 0.34555 0.0
S969 S 0.52994 0.78459 0.33181 0.0
N970 N 0.54629 0.79603 0.26139 0.0
N971 N 0.54039 0.7745 0.38667 0.0
C972 C 0.55812 0.78021 0.34846 0.0
C973 C 0.56134 0.79193 0.28051 0.0
C974 C 0.21246 0.8057 0.32221 0.0
C975 C 0.22057 0.79511 0.36164 0.0
C976 C 0.20078 0.79767 0.25607 0.0
C977 C 0.19657 0.77861 0.22656 0.0
H978 H 0.21514 0.82041 0.34233 0.0
H979 H 0.19483 0.80646 0.22846 0.0
S980 S 0.21447 0.74477 0.30732 0.0
N981 N 0.22381 0.76459 0.36568 0.0
N982 N 0.20172 0.74942 0.24123 0.0
C983 C 0.20468 0.76785 0.26498 0.0
C984 C 0.21671 0.77611 0.33245 0.0
C985 C 0.21737 0.43422 0.22206 0.0
C986 C 0.20827 0.41586 0.18005 0.0
C987 C 0.20822 0.43619 0.28872 0.0
C988 C 0.18983 0.41975 0.31645 0.0
H989 H 0.23171 0.44717 0.20351 0.0
H990 H 0.21584 0.45055 0.31956 0.0
S991 S 0.15944 0.36859 0.22661 0.0
N992 N 0.17945 0.38108 0.17018 0.0
N993 N 0.16245 0.38475 0.29554 0.0
C994 C 0.18044 0.4014 0.27455 0.0
C995 C 0.18959 0.39947 0.2063 0.0
C996 C 0.20674 0.43632 0.8155 0.0
C997 C 0.22244 0.4316 0.82454 0.0
C998 C 0.19772 0.43477 0.74404 0.0
C999 C 0.20427 0.42874 0.6788 0.0
H1000 H 0.20078 0.44041 0.86445 0.0
H1001 H 0.18512 0.43776 0.74047 0.0
S1002 S 0.2468 0.4173 0.67102 0.0
N1003 N 0.24545 0.42244 0.76159 0.0
N1004 N 0.22879 0.41979 0.62725 0.0
C1005 C 0.22083 0.42518 0.68649 0.0
C1006 C 0.22981 0.4265 0.75939 0.0
C1007 C 0.59026 0.80655 0.82897 0.0
C1008 C 0.57234 0.79569 0.8727 0.0
C1009 C 0.59333 0.79823 0.76248 0.0
C1010 C 0.57867 0.77862 0.73675 0.0
H1011 H 0.60214 0.8217 0.84595 0.0
H1012 H 0.60749 0.8073 0.7315 0.0
S1013 S 0.5289 0.74381 0.82973 0.0
N1014 N 0.53952 0.76426 0.88505 0.0
N1015 N 0.54534 0.74855 0.75982 0.0
C1016 C 0.56057 0.76755 0.77952 0.0
C1017 C 0.5574 0.77611 0.84744 0.0
C1018 C 0.21704 0.78104 0.84056 0.0
C1019 C 0.19656 0.77427 0.86061 0.0
C1020 C 0.22562 0.79238 0.7738 0.0
C1021 C 0.21406 0.79735 0.72426 0.0
H1022 H 0.22665 0.7778 0.87712 0.0
H1023 H 0.24153 0.79745 0.76147 0.0
S1024 S 0.15932 0.78232 0.74856 0.0
N1025 N 0.16468 0.77274 0.82384 0.0
N1026 N 0.18072 0.79393 0.69879 0.0
C1027 C 0.19342 0.79033 0.74293 0.0
C1028 C 0.18471 0.77884 0.81093 0.0
C1029 C 0.10532 0.54553 0.02846 0.0
C1030 C 0.09583 0.55717 0.01433 0.0
C1031 C 0.10152 0.53425 0.09608 0.0
C1032 C 0.08822 0.53436 0.15233 0.0
H1033 H 0.1152 0.54454 0.98589 0.0
H1034 H 0.10868 0.525 0.10334 0.0
S1035 S 0.06174 0.5647 0.14643 0.0
N1036 N 0.07405 0.56965 0.06446 0.0
N1037 N 0.06704 0.54874 0.1917 0.0
C1038 C 0.07946 0.54681 0.14026 0.0
C1039 C 0.08321 0.55812 0.07122 0.0
C1040 C 0.44 0.55196 0.02867 0.0
C1041 C 0.43421 0.53199 0.00488 0.0
C1042 C 0.45113 0.56005 0.09627 0.0
C1043 C 0.4565 0.54831 0.1431 0.0
H1044 H 0.43635 0.56158 0.99394 0.0
H1045 H 0.45561 0.57564 0.11177 0.0
S1046 S 0.44388 0.49467 0.10803 0.0
N1047 N 0.43396 0.50037 0.03463 0.0
N1048 N 0.4546 0.51541 0.16175 0.0
C1049 C 0.45028 0.5281 0.12082 0.0
C1050 C 0.43922 0.51999 0.05166 0.0
C1051 C 0.47293 0.91824 0.00516 0.0
C1052 C 0.46262 0.90066 0.95931 0.0
C1053 C 0.46419 0.92036 0.0723 0.0
C1054 C 0.44467 0.90506 0.09646 0.0
H1055 H 0.48797 0.93057 0.98935 0.0
H1056 H 0.47281 0.93431 0.10493 0.0
S1057 S 0.41127 0.85583 0.99752 0.0
N1058 N 0.43186 0.86745 0.94322 0.0
N1059 N 0.41533 0.8715 0.06959 0.0
C1060 C 0.43419 0.88728 0.05159 0.0
C1061 C 0.44318 0.88506 0.98307 0.0
C1062 C 0.22213 0.34731 0.09309 0.0
C1063 C 0.22241 0.3514 0.01455 0.0
C1064 C 0.21231 0.32724 0.12097 0.0
C1065 C 0.20251 0.31037 0.07157 0.0
H1066 H 0.2291 0.3597 0.13399 0.0
H1067 H 0.21219 0.32499 0.18204 0.0
S1068 S 0.19957 0.31256 0.86053 0.0
N1069 N 0.21259 0.33676 0.88732 0.0
N1070 N 0.19423 0.29901 0.93976 0.0
C1071 C 0.2032 0.31415 0.99262 0.0
C1072 C 0.2131 0.33465 0.96416 0.0
C1073 C 0.67301 0.89516 0.15436 0.0
C1074 C 0.68879 0.90427 0.10005 0.0
C1075 C 0.65241 0.88467 0.13231 0.0
C1076 C 0.64668 0.88288 0.05497 0.0
H1077 H 0.67655 0.89541 0.21439 0.0
H1078 H 0.64093 0.87734 0.17634 0.0
S1079 S 0.68204 0.90632 0.89092 0.0
N1080 N 0.69723 0.91252 0.96592 0.0
N1081 N 0.65852 0.89284 0.92446 0.0
C1082 C 0.66226 0.89294 0.00036 0.0
C1083 C 0.68329 0.90361 0.02285 0.0
C1084 C 0.10977 0.76547 0.12884 0.0
C1085 C 0.11105 0.76118 0.05151 0.0
C1086 C 0.09991 0.77616 0.15122 0.0
C1087 C 0.09094 0.78309 0.09726 0.0
H1088 H 0.11703 0.76114 0.17258 0.0
H1089 H 0.10006 0.77969 0.2112 0.0
S1090 S 0.08783 0.77371 0.88833 0.0
N1091 N 0.10083 0.7631 0.92142 0.0
N1092 N 0.08231 0.78322 0.96348 0.0
C1093 C 0.09107 0.7779 0.02012 0.0
C1094 C 0.1011 0.76695 0.99729 0.0
C1095 C 0.32306 0.21108 0.35693 0.0
C1096 C 0.30569 0.20332 0.40416 0.0
C1097 C 0.34287 0.2212 0.38756 0.0
C1098 C 0.34616 0.22384 0.46684 0.0
H1099 H 0.3214 0.20914 0.29563 0.0
H1100 H 0.35568 0.22657 0.34862 0.0
S1101 S 0.30589 0.20718 0.61555 0.0
N1102 N 0.29311 0.19962 0.53448 0.0
N1103 N 0.33032 0.21857 0.59192 0.0
C1104 C 0.32895 0.21658 0.51475 0.0
C1105 C 0.30874 0.20636 0.4835 0.0
C1106 C 0.76507 0.11765 0.36379 0.0
C1107 C 0.7604 0.11805 0.4413 0.0
C1108 C 0.77597 0.10816 0.3397 0.0
C1109 C 0.78262 0.09857 0.39194 0.0
H1110 H 0.76089 0.12533 0.32126 0.0
H1111 H 0.77967 0.10888 0.27967 0.0
S1112 S 0.77253 0.09336 0.60049 0.0
N1113 N 0.7619 0.10656 0.56966 0.0
N1114 N 0.78238 0.08867 0.52434 0.0
C1115 C 0.77715 0.09788 0.46917 0.0
C1116 C 0.76605 0.10763 0.49382 0.0
C1117 C 0.90322 0.68665 0.47802 0.0
C1118 C 0.90538 0.69242 0.40067 0.0
C1119 C 0.89248 0.66604 0.49984 0.0
C1120 C 0.88339 0.65032 0.44529 0.0
H1121 H 0.90928 0.69815 0.5225 0.0
H1122 H 0.89071 0.66251 0.56021 0.0
S1123 S 0.88654 0.65704 0.23482 0.0
N1124 N 0.899 0.68055 0.26902 0.0
N1125 N 0.87881 0.64185 0.31001 0.0
C1126 C 0.88634 0.65579 0.36755 0.0
C1127 C 0.89734 0.67681 0.34529 0.0
C1128 C 0.7801 0.68312 0.97839 0.0
C1129 C 0.78276 0.68871 0.90082 0.0
C1130 C 0.76973 0.66255 0.00075 0.0
C1131 C 0.7616 0.64668 0.94652 0.0
H1132 H 0.78669 0.69469 0.02251 0.0
H1133 H 0.76877 0.65913 0.06112 0.0
S1134 S 0.76214 0.65306 0.73619 0.0
N1135 N 0.77472 0.67664 0.76972 0.0
N1136 N 0.75525 0.63799 0.81168 0.0
C1137 C 0.76313 0.65203 0.8688 0.0
C1138 C 0.7737 0.67302 0.84601 0.0
C1139 C 0.33517 0.14566 0.99024 0.0
C1140 C 0.34705 0.1363 0.97875 0.0
C1141 C 0.31469 0.13611 0.9674 0.0
C1142 C 0.30512 0.11666 0.93311 0.0
H1143 H 0.34181 0.16071 0.01588 0.0
H1144 H 0.3063 0.14409 0.9771 0.0
S1145 S 0.32924 0.08521 0.8924 0.0
N1146 N 0.34769 0.10627 0.93191 0.0
N1147 N 0.30894 0.08811 0.88991 0.0
C1148 C 0.31666 0.10689 0.92241 0.0
C1149 C 0.3377 0.11677 0.94485 0.0
C1150 C 0.89528 0.21471 0.96149 0.0
C1151 C 0.89843 0.2127 0.88353 0.0
C1152 C 0.88527 0.22513 0.98547 0.0
C1153 C 0.87795 0.23396 0.93256 0.0
H1154 H 0.9 0.20764 0.00461 0.0
H1155 H 0.88267 0.22563 0.046 0.0
S1156 S 0.88439 0.23517 0.72215 0.0
N1157 N 0.89497 0.222 0.75369 0.0
N1158 N 0.87615 0.24158 0.79871 0.0
C1159 C 0.88192 0.23301 0.85458 0.0
C1160 C 0.89216 0.22239 0.83012 0.0
C1161 C 0.68331 0.7819 0.53091 0.0
C1162 C 0.68899 0.78419 0.60839 0.0
C1163 C 0.66272 0.77152 0.50879 0.0
C1164 C 0.64691 0.76302 0.56316 0.0
H1165 H 0.69483 0.78876 0.48674 0.0
H1166 H 0.65923 0.77085 0.44855 0.0
S1167 S 0.65351 0.76244 0.77302 0.0
N1168 N 0.67707 0.77537 0.73936 0.0
N1169 N 0.63836 0.75588 0.69779 0.0
C1170 C 0.65235 0.76418 0.64066 0.0
C1171 C 0.67337 0.77474 0.66323 0.0
C1172 C 0.22402 0.8961 0.64668 0.0
C1173 C 0.21638 0.90445 0.59299 0.0
C1174 C 0.23366 0.88524 0.62361 0.0
C1175 C 0.23609 0.88228 0.54584 0.0
H1176 H 0.22186 0.89723 0.7072 0.0
H1177 H 0.23856 0.87848 0.66738 0.0
S1178 S 0.22121 0.90338 0.38232 0.0
N1179 N 0.21371 0.91076 0.45836 0.0
N1180 N 0.23182 0.89035 0.41507 0.0
C1181 C 0.22965 0.89162 0.49152 0.0
C1182 C 0.2198 0.90269 0.51504 0.0
C1183 C 0.11311 0.33399 0.57513 0.0
C1184 C 0.13178 0.3469 0.61207 0.0
C1185 C 0.1021 0.31295 0.59065 0.0
C1186 C 0.1092 0.30406 0.64443 0.0
H1187 H 0.10725 0.34004 0.53213 0.0
H1188 H 0.08806 0.30355 0.55936 0.0
S1189 S 0.15648 0.33161 0.76129 0.0
N1190 N 0.15633 0.34955 0.70791 0.0
N1191 N 0.13563 0.31013 0.7376 0.0
C1192 C 0.12747 0.31698 0.68393 0.0
C1193 C 0.13877 0.33836 0.66756 0.0
C1194 C 0.01008 0.55674 0.76437 0.0
C1195 C 0.02037 0.54552 0.76594 0.0
C1196 C 0.99001 0.54798 0.73616 0.0
C1197 C 0.97984 0.52796 0.70662 0.0
H1198 H 0.01743 0.57222 0.78646 0.0
H1199 H 0.98244 0.55698 0.73711 0.0
S1200 S 0.00055 0.49254 0.69518 0.0
N1201 N 0.01914 0.51354 0.73429 0.0
N1202 N 0.98171 0.49727 0.6799 0.0
C1203 C 0.99018 0.51676 0.70653 0.0
C1204 C 0.01037 0.5255 0.7366 0.0
C1205 C 0.46701 0.4818 0.68611 0.0
C1206 C 0.44853 0.47261 0.72733 0.0
C1207 C 0.47674 0.47081 0.66639 0.0
C1208 C 0.46855 0.45022 0.68789 0.0
H1209 H 0.47413 0.4977 0.66896 0.0
H1210 H 0.49106 0.47873 0.63542 0.0
S1211 S 0.42009 0.41871 0.79399 0.0
N1212 N 0.42202 0.44143 0.78702 0.0
N1213 N 0.44047 0.42078 0.75058 0.0
C1214 C 0.4499 0.44068 0.72814 0.0
C1215 C 0.43985 0.45186 0.74759 0.0
C1216 C 0.54803 0.98352 0.69316 0.0
C1217 C 0.54589 0.97875 0.77149 0.0
C1218 C 0.5574 0.00383 0.66784 0.0
C1219 C 0.56505 0.02025 0.71969 0.0
H1220 H 0.54181 0.97148 0.65072 0.0
H1221 H 0.55801 0.00657 0.60698 0.0
S1222 S 0.5655 0.0162 0.93087 0.0
N1223 N 0.55385 0.99227 0.90077 0.0
N1224 N 0.57145 0.03042 0.85325 0.0
C1225 C 0.56399 0.01577 0.79818 0.0
C1226 C 0.55443 0.99505 0.824 0.0
C1227 C 0.44138 0.99623 0.16443 0.0
C1228 C 0.44796 0.01252 0.21643 0.0
C1229 C 0.43103 0.97587 0.18904 0.0
C1230 C 0.42686 0.97088 0.26684 0.0
H1231 H 0.44463 -0.00083 0.1041 0.0
H1232 H 0.42682 0.96398 0.14664 0.0
S1233 S 0.43929 0.00779 0.42591 0.0
N1234 N 0.44838 0.02226 0.34918 0.0
N1235 N 0.42895 0.98396 0.39544 0.0
C1236 C 0.43258 0.98698 0.31927 0.0
C1237 C 0.44312 0.00779 0.29413 0.0
C1238 C 0.00657 0.44607 0.26325 0.0
C1239 C 0.01418 0.4506 0.33828 0.0
C1240 C 0.98554 0.43647 0.2483 0.0
C1241 C 0.97117 0.43101 0.30769 0.0
H1242 H 0.01695 0.45019 0.2153 0.0
H1243 H 0.98057 0.43359 0.18936 0.0
S1244 S 0.98307 0.43917 0.51476 0.0
N1245 N 0.00561 0.44854 0.47307 0.0
N1246 N 0.96609 0.43053 0.44499 0.0
C1247 C 0.97852 0.43505 0.38324 0.0
C1248 C -1e-05 0.44482 0.3985 0.0
C1249 C 0.55255 0.54404 0.25482 0.0
C1250 C 0.54242 0.52258 0.26171 0.0
C1251 C 0.54311 0.55516 0.27794 0.0
C1252 C 0.52339 0.54527 0.31024 0.0
H1253 H 0.56774 0.5523 0.23022 0.0
H1254 H 0.55134 0.57162 0.27063 0.0
S1255 S 0.49041 0.48936 0.34176 0.0
N1256 N 0.51156 0.4919 0.30366 0.0
N1257 N 0.49403 0.51277 0.34776 0.0
C1258 C 0.51322 0.52386 0.3184 0.0
C1259 C 0.52267 0.51253 0.29391 0.0
loop_
_geom_bond_atom_site_label_1
_geom_bond_atom_site_label_2
_geom_bond_distance
_geom_bond_site_symmetry_2
_ccdc_geom_bond_type
C0 O1 1.160 . S
C0 O7 1.185 . S
O1 C0 1.160 . S
O2 Zn3 1.899 . S
O2 C10 1.284 . S
Zn3 O2 1.899 . S
Zn3 O4 2.032 . S
Zn3 O7 2.086 . S
Zn3 O12 1.977 . S
O4 Zn3 2.032 . S
O4 C8 1.278 . S
C5 O6 1.203 . S
C5 O12 1.267 . S
O6 C5 1.203 . S
O7 C0 1.185 . S
O7 Zn3 2.086 . S
C8 O4 1.278 . S
C8 O9 1.211 . S
O9 C8 1.211 . S
C10 O2 1.284 . S
C10 O11 1.273 . S
O11 C10 1.273 . S
O12 Zn3 1.977 . S
O12 C5 1.267 . S
C13 O14 1.160 . S
C13 O20 1.185 . S
O14 C13 1.160 . S
O15 Zn16 1.899 . S
O15 C23 1.284 . S
Zn16 O15 1.899 . S
Zn16 O17 2.032 . S
Zn16 O20 2.086 . S
Zn16 O25 1.977 . S
O17 Zn16 2.032 . S
O17 C21 1.278 . S
C18 O19 1.203 . S
C18 O25 1.267 . S
O19 C18 1.203 . S
O20 C13 1.185 . S
O20 Zn16 2.086 . S
C21 O17 1.278 . S
C21 O22 1.211 . S
O22 C21 1.211 . S
C23 O15 1.284 . S
C23 O24 1.273 . S
O24 C23 1.273 . S
O25 Zn16 1.977 . S
O25 C18 1.267 . S
C26 O27 1.160 . S
C26 O33 1.185 . S
O27 C26 1.160 . S
O28 Zn29 1.899 . S
O28 C36 1.284 . S
Zn29 O28 1.899 . S
Zn29 O30 2.032 . S
Zn29 O33 2.086 . S
Zn29 O38 1.977 . S
O30 Zn29 2.032 . S
O30 C34 1.278 . S
C31 O32 1.203 . S
C31 O38 1.267 . S
O32 C31 1.203 . S
O33 C26 1.185 . S
O33 Zn29 2.086 . S
C34 O30 1.278 . S
C34 O35 1.211 . S
O35 C34 1.211 . S
C36 O28 1.284 . S
C36 O37 1.273 . S
O37 C36 1.273 . S
O38 Zn29 1.977 . S
O38 C31 1.267 . S
C39 O40 1.160 . S
C39 O46 1.185 . S
O40 C39 1.160 . S
O41 Zn42 1.899 . S
O41 C49 1.284 . S
Zn42 O41 1.899 . S
Zn42 O43 2.032 . S
Zn42 O46 2.086 . S
Zn42 O51 1.977 . S
O43 Zn42 2.032 . S
O43 C47 1.278 . S
C44 O45 1.203 . S
C44 O51 1.267 . S
O45 C44 1.203 . S
O46 C39 1.185 . S
O46 Zn42 2.086 . S
C47 O43 1.278 . S
C47 O48 1.211 . S
O48 C47 1.211 . S
C49 O41 1.284 . S
C49 O50 1.273 . S
O50 C49 1.273 . S
O51 Zn42 1.977 . S
O51 C44 1.267 . S
C52 O53 1.160 . S
C52 O59 1.185 . S
O53 C52 1.160 . S
O54 Zn55 1.899 . S
O54 C62 1.284 . S
Zn55 O54 1.899 . S
Zn55 O56 2.032 . S
Zn55 O59 2.086 . S
Zn55 O64 1.977 . S
O56 Zn55 2.032 . S
O56 C60 1.278 . S
C57 O58 1.203 . S
C57 O64 1.267 . S
O58 C57 1.203 . S
O59 C52 1.185 . S
O59 Zn55 2.086 . S
C60 O56 1.278 . S
C60 O61 1.211 . S
O61 C60 1.211 . S
C62 O54 1.284 . S
C62 O63 1.273 . S
O63 C62 1.273 . S
O64 Zn55 1.977 . S
O64 C57 1.267 . S
C65 O66 1.160 . S
C65 O72 1.185 . S
O66 C65 1.160 . S
O67 Zn68 1.899 . S
O67 C75 1.284 . S
Zn68 O67 1.899 . S
Zn68 O69 2.032 . S
Zn68 O72 2.086 . S
Zn68 O77 1.977 . S
O69 Zn68 2.032 . S
O69 C73 1.278 . S
C70 O71 1.203 . S
C70 O77 1.267 . S
O71 C70 1.203 . S
O72 C65 1.185 . S
O72 Zn68 2.086 . S
C73 O69 1.278 . S
C73 O74 1.211 . S
O74 C73 1.211 . S
C75 O67 1.284 . S
C75 O76 1.273 . S
O76 C75 1.273 . S
O77 Zn68 1.977 . S
O77 C70 1.267 . S
C78 O79 1.160 . S
C78 O85 1.185 . S
O79 C78 1.160 . S
O80 Zn81 1.899 . S
O80 C88 1.284 . S
Zn81 O80 1.899 . S
Zn81 O82 2.032 . S
Zn81 O85 2.086 . S
Zn81 O90 1.977 . S
O82 Zn81 2.032 . S
O82 C86 1.278 . S
C83 O84 1.203 . S
C83 O90 1.267 . S
O84 C83 1.203 . S
O85 C78 1.185 . S
O85 Zn81 2.086 . S
C86 O82 1.278 . S
C86 O87 1.211 . S
O87 C86 1.211 . S
C88 O80 1.284 . S
C88 O89 1.273 . S
O89 C88 1.273 . S
O90 Zn81 1.977 . S
O90 C83 1.267 . S
C91 O92 1.160 . S
C91 O98 1.185 . S
O92 C91 1.160 . S
O93 Zn94 1.899 . S
O93 C101 1.284 . S
Zn94 O93 1.899 . S
Zn94 O95 2.032 . S
Zn94 O98 2.086 . S
Zn94 O103 1.977 . S
O95 Zn94 2.032 . S
O95 C99 1.278 . S
C96 O97 1.203 . S
C96 O103 1.267 . S
O97 C96 1.203 . S
O98 C91 1.185 . S
O98 Zn94 2.086 . S
C99 O95 1.278 . S
C99 O100 1.211 . S
O100 C99 1.211 . S
C101 O93 1.284 . S
C101 O102 1.273 . S
O102 C101 1.273 . S
O103 Zn94 1.977 . S
O103 C96 1.267 . S
C104 O105 1.160 . S
C104 O111 1.185 . S
O105 C104 1.160 . S
O106 Zn107 1.899 . S
O106 C114 1.284 . S
Zn107 O106 1.899 . S
Zn107 O108 2.032 . S
Zn107 O111 2.086 . S
Zn107 O116 1.977 . S
O108 Zn107 2.032 . S
O108 C112 1.278 . S
C109 O110 1.203 . S
C109 O116 1.267 . S
O110 C109 1.203 . S
O111 C104 1.185 . S
O111 Zn107 2.086 . S
C112 O108 1.278 . S
C112 O113 1.211 . S
O113 C112 1.211 . S
C114 O106 1.284 . S
C114 O115 1.273 . S
O115 C114 1.273 . S
O116 Zn107 1.977 . S
O116 C109 1.267 . S
C117 O118 1.160 . S
C117 O124 1.185 . S
O118 C117 1.160 . S
O119 Zn120 1.899 . S
O119 C127 1.284 . S
Zn120 O119 1.899 . S
Zn120 O121 2.032 . S
Zn120 O124 2.086 . S
Zn120 O129 1.977 . S
O121 Zn120 2.032 . S
O121 C125 1.278 . S
C122 O123 1.203 . S
C122 O129 1.267 . S
O123 C122 1.203 . S
O124 C117 1.185 . S
O124 Zn120 2.086 . S
C125 O121 1.278 . S
C125 O126 1.211 . S
O126 C125 1.211 . S
C127 O119 1.284 . S
C127 O128 1.273 . S
O128 C127 1.273 . S
O129 Zn120 1.977 . S
O129 C122 1.267 . S
C130 O131 1.160 . S
C130 O137 1.185 . S
O131 C130 1.160 . S
O132 Zn133 1.899 . S
O132 C140 1.284 . S
Zn133 O132 1.899 . S
Zn133 O134 2.032 . S
Zn133 O137 2.086 . S
Zn133 O142 1.977 . S
O134 Zn133 2.032 . S
O134 C138 1.278 . S
C135 O136 1.203 . S
C135 O142 1.267 . S
O136 C135 1.203 . S
O137 C130 1.185 . S
O137 Zn133 2.086 . S
C138 O134 1.278 . S
C138 O139 1.211 . S
O139 C138 1.211 . S
C140 O132 1.284 . S
C140 O141 1.273 . S
O141 C140 1.273 . S
O142 Zn133 1.977 . S
O142 C135 1.267 . S
C143 O144 1.160 . S
C143 O150 1.185 . S
O144 C143 1.160 . S
O145 Zn146 1.899 . S
O145 C153 1.284 . S
Zn146 O145 1.899 . S
Zn146 O147 2.032 . S
Zn146 O150 2.086 . S
Zn146 O155 1.977 . S
O147 Zn146 2.032 . S
O147 C151 1.278 . S
C148 O149 1.203 . S
C148 O155 1.267 . S
O149 C148 1.203 . S
O150 C143 1.185 . S
O150 Zn146 2.086 . S
C151 O147 1.278 . S
C151 O152 1.211 . S
O152 C151 1.211 . S
C153 O145 1.284 . S
C153 O154 1.273 . S
O154 C153 1.273 . S
O155 Zn146 1.977 . S
O155 C148 1.267 . S
C156 O157 1.160 . S
C156 O163 1.185 . S
O157 C156 1.160 . S
O158 Zn159 1.899 . S
O158 C166 1.284 . S
Zn159 O158 1.899 . S
Zn159 O160 2.032 . S
Zn159 O163 2.086 . S
Zn159 O168 1.977 . S
O160 Zn159 2.032 . S
O160 C164 1.278 . S
C161 O162 1.203 . S
C161 O168 1.267 . S
O162 C161 1.203 . S
O163 C156 1.185 . S
O163 Zn159 2.086 . S
C164 O160 1.278 . S
C164 O165 1.211 . S
O165 C164 1.211 . S
C166 O158 1.284 . S
C166 O167 1.273 . S
O167 C166 1.273 . S
O168 Zn159 1.977 . S
O168 C161 1.267 . S
C169 O170 1.160 . S
C169 O176 1.185 . S
O170 C169 1.160 . S
O171 Zn172 1.899 . S
O171 C179 1.284 . S
Zn172 O171 1.899 . S
Zn172 O173 2.032 . S
Zn172 O176 2.086 . S
Zn172 O181 1.977 . S
O173 Zn172 2.032 . S
O173 C177 1.278 . S
C174 O175 1.203 . S
C174 O181 1.267 . S
O175 C174 1.203 . S
O176 C169 1.185 . S
O176 Zn172 2.086 . S
C177 O173 1.278 . S
C177 O178 1.211 . S
O178 C177 1.211 . S
C179 O171 1.284 . S
C179 O180 1.273 . S
O180 C179 1.273 . S
O181 Zn172 1.977 . S
O181 C174 1.267 . S
C182 O183 1.160 . S
C182 O189 1.185 . S
O183 C182 1.160 . S
O184 Zn185 1.899 . S
O184 C192 1.284 . S
Zn185 O184 1.899 . S
Zn185 O186 2.032 . S
Zn185 O189 2.086 . S
Zn185 O194 1.977 . S
O186 Zn185 2.032 . S
O186 C190 1.278 . S
C187 O188 1.203 . S
C187 O194 1.267 . S
O188 C187 1.203 . S
O189 C182 1.185 . S
O189 Zn185 2.086 . S
C190 O186 1.278 . S
C190 O191 1.211 . S
O191 C190 1.211 . S
C192 O184 1.284 . S
C192 O193 1.273 . S
O193 C192 1.273 . S
O194 Zn185 1.977 . S
O194 C187 1.267 . S
C195 O196 1.160 . S
C195 O202 1.185 . S
O196 C195 1.160 . S
O197 Zn198 1.899 . S
O197 C205 1.284 . S
Zn198 O197 1.899 . S
Zn198 O199 2.032 . S
Zn198 O202 2.086 . S
Zn198 O207 1.977 . S
O199 Zn198 2.032 . S
O199 C203 1.278 . S
C200 O201 1.203 . S
C200 O207 1.267 . S
O201 C200 1.203 . S
O202 C195 1.185 . S
O202 Zn198 2.086 . S
C203 O199 1.278 . S
C203 O204 1.211 . S
O204 C203 1.211 . S
C205 O197 1.284 . S
C205 O206 1.273 . S
O206 C205 1.273 . S
O207 Zn198 1.977 . S
O207 C200 1.267 . S
C208 O209 1.160 . S
C208 O215 1.185 . S
O209 C208 1.160 . S
O210 Zn211 1.899 . S
O210 C218 1.284 . S
Zn211 O210 1.899 . S
Zn211 O212 2.032 . S
Zn211 O215 2.086 . S
Zn211 O220 1.977 . S
O212 Zn211 2.032 . S
O212 C216 1.278 . S
C213 O214 1.203 . S
C213 O220 1.267 . S
O214 C213 1.203 . S
O215 C208 1.185 . S
O215 Zn211 2.086 . S
C216 O212 1.278 . S
C216 O217 1.211 . S
O217 C216 1.211 . S
C218 O210 1.284 . S
C218 O219 1.273 . S
O219 C218 1.273 . S
O220 Zn211 1.977 . S
O220 C213 1.267 . S
C221 O222 1.160 . S
C221 O228 1.185 . S
O222 C221 1.160 . S
O223 Zn224 1.899 . S
O223 C231 1.284 . S
Zn224 O223 1.899 . S
Zn224 O225 2.032 . S
Zn224 O228 2.086 . S
Zn224 O233 1.977 . S
O225 Zn224 2.032 . S
O225 C229 1.278 . S
C226 O227 1.203 . S
C226 O233 1.267 . S
O227 C226 1.203 . S
O228 C221 1.185 . S
O228 Zn224 2.086 . S
C229 O225 1.278 . S
C229 O230 1.211 . S
O230 C229 1.211 . S
C231 O223 1.284 . S
C231 O232 1.273 . S
O232 C231 1.273 . S
O233 Zn224 1.977 . S
O233 C226 1.267 . S
C234 O235 1.160 . S
C234 O241 1.185 . S
O235 C234 1.160 . S
O236 Zn237 1.899 . S
O236 C244 1.284 . S
Zn237 O236 1.899 . S
Zn237 O238 2.032 . S
Zn237 O241 2.086 . S
Zn237 O246 1.977 . S
O238 Zn237 2.032 . S
O238 C242 1.278 . S
C239 O240 1.203 . S
C239 O246 1.267 . S
O240 C239 1.203 . S
O241 C234 1.185 . S
O241 Zn237 2.086 . S
C242 O238 1.278 . S
C242 O243 1.211 . S
O243 C242 1.211 . S
C244 O236 1.284 . S
C244 O245 1.273 . S
O245 C244 1.273 . S
O246 Zn237 1.977 . S
O246 C239 1.267 . S
C247 O248 1.160 . S
C247 O254 1.185 . S
O248 C247 1.160 . S
O249 Zn250 1.899 . S
O249 C257 1.284 . S
Zn250 O249 1.899 . S
Zn250 O251 2.032 . S
Zn250 O254 2.086 . S
Zn250 O259 1.977 . S
O251 Zn250 2.032 . S
O251 C255 1.278 . S
C252 O253 1.203 . S
C252 O259 1.267 . S
O253 C252 1.203 . S
O254 C247 1.185 . S
O254 Zn250 2.086 . S
C255 O251 1.278 . S
C255 O256 1.211 . S
O256 C255 1.211 . S
C257 O249 1.284 . S
C257 O258 1.273 . S
O258 C257 1.273 . S
O259 Zn250 1.977 . S
O259 C252 1.267 . S
C260 O261 1.160 . S
C260 O267 1.185 . S
O261 C260 1.160 . S
O262 Zn263 1.899 . S
O262 C270 1.284 . S
Zn263 O262 1.899 . S
Zn263 O264 2.032 . S
Zn263 O267 2.086 . S
Zn263 O272 1.977 . S
O264 Zn263 2.032 . S
O264 C268 1.278 . S
C265 O266 1.203 . S
C265 O272 1.267 . S
O266 C265 1.203 . S
O267 C260 1.185 . S
O267 Zn263 2.086 . S
C268 O264 1.278 . S
C268 O269 1.211 . S
O269 C268 1.211 . S
C270 O262 1.284 . S
C270 O271 1.273 . S
O271 C270 1.273 . S
O272 Zn263 1.977 . S
O272 C265 1.267 . S
C273 O274 1.160 . S
C273 O280 1.185 1_554 S
O274 C273 1.160 . S
O275 Zn276 1.899 . S
O275 C283 1.284 . S
Zn276 O275 1.899 . S
Zn276 O277 2.032 1_556 S
Zn276 O280 2.086 . S
Zn276 O285 1.977 . S
O277 Zn276 2.032 1_554 S
O277 C281 1.278 . S
C278 O279 1.203 . S
C278 O285 1.267 . S
O279 C278 1.203 . S
O280 C273 1.185 1_556 S
O280 Zn276 2.086 . S
C281 O277 1.278 . S
C281 O282 1.211 . S
O282 C281 1.211 . S
C283 O275 1.284 . S
C283 O284 1.273 1_556 S
O284 C283 1.273 1_554 S
O285 Zn276 1.977 . S
O285 C278 1.267 . S
C286 O287 1.160 . S
C286 O293 1.185 1_554 S
O287 C286 1.160 . S
O288 Zn289 1.899 . S
O288 C296 1.284 . S
Zn289 O288 1.899 . S
Zn289 O290 2.032 1_556 S
Zn289 O293 2.086 . S
Zn289 O298 1.977 . S
O290 Zn289 2.032 1_554 S
O290 C294 1.278 . S
C291 O292 1.203 . S
C291 O298 1.267 . S
O292 C291 1.203 . S
O293 C286 1.185 1_556 S
O293 Zn289 2.086 . S
C294 O290 1.278 . S
C294 O295 1.211 . S
O295 C294 1.211 . S
C296 O288 1.284 . S
C296 O297 1.273 1_556 S
O297 C296 1.273 1_554 S
O298 Zn289 1.977 . S
O298 C291 1.267 . S
C299 O300 1.160 . S
C299 O306 1.185 1_554 S
O300 C299 1.160 . S
O301 Zn302 1.899 . S
O301 C309 1.284 . S
Zn302 O301 1.899 . S
Zn302 O303 2.032 1_556 S
Zn302 O306 2.086 . S
Zn302 O311 1.977 . S
O303 Zn302 2.032 1_554 S
O303 C307 1.278 . S
C304 O305 1.203 . S
C304 O311 1.267 . S
O305 C304 1.203 . S
O306 C299 1.185 1_556 S
O306 Zn302 2.086 . S
C307 O303 1.278 . S
C307 O308 1.211 . S
O308 C307 1.211 . S
C309 O301 1.284 . S
C309 O310 1.273 1_556 S
O310 C309 1.273 1_554 S
O311 Zn302 1.977 . S
O311 C304 1.267 . S
C312 O313 1.160 . S
C312 O319 1.185 . S
O313 C312 1.160 . S
O314 Zn315 1.899 . S
O314 C322 1.284 . S
Zn315 O314 1.899 . S
Zn315 O316 2.032 . S
Zn315 O319 2.086 . S
Zn315 O324 1.977 . S
O316 Zn315 2.032 . S
O316 C320 1.278 . S
C317 O318 1.203 . S
C317 O324 1.267 . S
O318 C317 1.203 . S
O319 C312 1.185 . S
O319 Zn315 2.086 . S
C320 O316 1.278 . S
C320 O321 1.211 . S
O321 C320 1.211 . S
C322 O314 1.284 . S
C322 O323 1.273 . S
O323 C322 1.273 . S
O324 Zn315 1.977 . S
O324 C317 1.267 . S
C325 O326 1.160 . S
C325 O332 1.185 . S
O326 C325 1.160 . S
O327 Zn328 1.899 . S
O327 C335 1.284 . S
Zn328 O327 1.899 . S
Zn328 O329 2.032 . S
Zn328 O332 2.086 . S
Zn328 O337 1.977 . S
O329 Zn328 2.032 . S
O329 C333 1.278 . S
C330 O331 1.203 . S
C330 O337 1.267 . S
O331 C330 1.203 . S
O332 C325 1.185 . S
O332 Zn328 2.086 . S
C333 O329 1.278 . S
C333 O334 1.211 . S
O334 C333 1.211 . S
C335 O327 1.284 . S
C335 O336 1.273 . S
O336 C335 1.273 . S
O337 Zn328 1.977 . S
O337 C330 1.267 . S
C338 O339 1.160 . S
C338 O345 1.185 . S
O339 C338 1.160 . S
O340 Zn341 1.899 . S
O340 C348 1.284 . S
Zn341 O340 1.899 . S
Zn341 O342 2.032 . S
Zn341 O345 2.086 . S
Zn341 O350 1.977 . S
O342 Zn341 2.032 . S
O342 C346 1.278 . S
C343 O344 1.203 . S
C343 O350 1.267 . S
O344 C343 1.203 . S
O345 C338 1.185 . S
O345 Zn341 2.086 . S
C346 O342 1.278 . S
C346 O347 1.211 . S
O347 C346 1.211 . S
C348 O340 1.284 . S
C348 O349 1.273 . S
O349 C348 1.273 . S
O350 Zn341 1.977 . S
O350 C343 1.267 . S
C351 O352 1.160 . S
C351 O358 1.185 1_556 S
O352 C351 1.160 . S
O353 Zn354 1.899 . S
O353 C361 1.284 . S
Zn354 O353 1.899 . S
Zn354 O355 2.032 1_554 S
Zn354 O358 2.086 . S
Zn354 O363 1.977 . S
O355 Zn354 2.032 1_556 S
O355 C359 1.278 . S
C356 O357 1.203 . S
C356 O363 1.267 . S
O357 C356 1.203 . S
O358 C351 1.185 1_554 S
O358 Zn354 2.086 . S
C359 O355 1.278 . S
C359 O360 1.211 . S
O360 C359 1.211 . S
C361 O353 1.284 . S
C361 O362 1.273 1_554 S
O362 C361 1.273 1_556 S
O363 Zn354 1.977 . S
O363 C356 1.267 . S
C364 O365 1.160 . S
C364 O371 1.185 1_556 S
O365 C364 1.160 . S
O366 Zn367 1.899 . S
O366 C374 1.284 . S
Zn367 O366 1.899 . S
Zn367 O368 2.032 1_554 S
Zn367 O371 2.086 . S
Zn367 O376 1.977 . S
O368 Zn367 2.032 1_556 S
O368 C372 1.278 . S
C369 O370 1.203 . S
C369 O376 1.267 . S
O370 C369 1.203 . S
O371 C364 1.185 1_554 S
O371 Zn367 2.086 . S
C372 O368 1.278 . S
C372 O373 1.211 . S
O373 C372 1.211 . S
C374 O366 1.284 . S
C374 O375 1.273 1_554 S
O375 C374 1.273 1_556 S
O376 Zn367 1.977 . S
O376 C369 1.267 . S
C377 O378 1.160 . S
C377 O384 1.185 1_556 S
O378 C377 1.160 . S
O379 Zn380 1.899 . S
O379 C387 1.284 . S
Zn380 O379 1.899 . S
Zn380 O381 2.032 1_554 S
Zn380 O384 2.086 . S
Zn380 O389 1.977 . S
O381 Zn380 2.032 1_556 S
O381 C385 1.278 . S
C382 O383 1.203 . S
C382 O389 1.267 . S
O383 C382 1.203 . S
O384 C377 1.185 1_554 S
O384 Zn380 2.086 . S
C385 O381 1.278 . S
C385 O386 1.211 . S
O386 C385 1.211 . S
C387 O379 1.284 . S
C387 O388 1.273 1_554 S
O388 C387 1.273 1_556 S
O389 Zn380 1.977 . S
O389 C382 1.267 . S
C390 O391 1.160 . S
C390 O397 1.185 . S
O391 C390 1.160 . S
O392 Zn393 1.899 . S
O392 C400 1.284 . S
Zn393 O392 1.899 . S
Zn393 O394 2.032 . S
Zn393 O397 2.086 . S
Zn393 O402 1.977 . S
O394 Zn393 2.032 . S
O394 C398 1.278 . S
C395 O396 1.203 . S
C395 O402 1.267 . S
O396 C395 1.203 . S
O397 C390 1.185 . S
O397 Zn393 2.086 . S
C398 O394 1.278 . S
C398 O399 1.211 . S
O399 C398 1.211 . S
C400 O392 1.284 . S
C400 O401 1.273 . S
O401 C400 1.273 . S
O402 Zn393 1.977 . S
O402 C395 1.267 . S
C403 O404 1.160 . S
C403 O410 1.185 . S
O404 C403 1.160 . S
O405 Zn406 1.899 . S
O405 C413 1.284 . S
Zn406 O405 1.899 . S
Zn406 O407 2.032 . S
Zn406 O410 2.086 . S
Zn406 O415 1.977 . S
O407 Zn406 2.032 . S
O407 C411 1.278 . S
C408 O409 1.203 . S
C408 O415 1.267 . S
O409 C408 1.203 . S
O410 C403 1.185 . S
O410 Zn406 2.086 . S
C411 O407 1.278 . S
C411 O412 1.211 . S
O412 C411 1.211 . S
C413 O405 1.284 . S
C413 O414 1.273 . S
O414 C413 1.273 . S
O415 Zn406 1.977 . S
O415 C408 1.267 . S
C416 O417 1.160 . S
C416 O423 1.185 . S
O417 C416 1.160 . S
O418 Zn419 1.899 . S
O418 C426 1.284 . S
Zn419 O418 1.899 . S
Zn419 O420 2.032 . S
Zn419 O423 2.086 . S
Zn419 O428 1.977 . S
O420 Zn419 2.032 . S
O420 C424 1.278 . S
C421 O422 1.203 . S
C421 O428 1.267 . S
O422 C421 1.203 . S
O423 C416 1.185 . S
O423 Zn419 2.086 . S
C424 O420 1.278 . S
C424 O425 1.211 . S
O425 C424 1.211 . S
C426 O418 1.284 . S
C426 O427 1.273 . S
O427 C426 1.273 . S
O428 Zn419 1.977 . S
O428 C421 1.267 . S
C429 O430 1.160 . S
C429 O436 1.185 . S
O430 C429 1.160 . S
O431 Zn432 1.899 . S
O431 C439 1.284 . S
Zn432 O431 1.899 . S
Zn432 O433 2.032 . S
Zn432 O436 2.086 . S
Zn432 O441 1.977 . S
O433 Zn432 2.032 . S
O433 C437 1.278 . S
C434 O435 1.203 . S
C434 O441 1.267 . S
O435 C434 1.203 . S
O436 C429 1.185 . S
O436 Zn432 2.086 . S
C437 O433 1.278 . S
C437 O438 1.211 . S
O438 C437 1.211 . S
C439 O431 1.284 . S
C439 O440 1.273 . S
O440 C439 1.273 . S
O441 Zn432 1.977 . S
O441 C434 1.267 . S
C442 O443 1.160 . S
C442 O449 1.185 . S
O443 C442 1.160 . S
O444 Zn445 1.899 . S
O444 C452 1.284 . S
Zn445 O444 1.899 . S
Zn445 O446 2.032 . S
Zn445 O449 2.086 . S
Zn445 O454 1.977 . S
O446 Zn445 2.032 . S
O446 C450 1.278 . S
C447 O448 1.203 . S
C447 O454 1.267 . S
O448 C447 1.203 . S
O449 C442 1.185 . S
O449 Zn445 2.086 . S
C450 O446 1.278 . S
C450 O451 1.211 . S
O451 C450 1.211 . S
C452 O444 1.284 . S
C452 O453 1.273 . S
O453 C452 1.273 . S
O454 Zn445 1.977 . S
O454 C447 1.267 . S
C455 O456 1.160 . S
C455 O462 1.185 . S
O456 C455 1.160 . S
O457 Zn458 1.899 . S
O457 C465 1.284 . S
Zn458 O457 1.899 . S
Zn458 O459 2.032 . S
Zn458 O462 2.086 . S
Zn458 O467 1.977 . S
O459 Zn458 2.032 . S
O459 C463 1.278 . S
C460 O461 1.203 . S
C460 O467 1.267 . S
O461 C460 1.203 . S
O462 C455 1.185 . S
O462 Zn458 2.086 . S
C463 O459 1.278 . S
C463 O464 1.211 . S
O464 C463 1.211 . S
C465 O457 1.284 . S
C465 O466 1.273 . S
O466 C465 1.273 . S
O467 Zn458 1.977 . S
O467 C460 1.267 . S
C468 C469 1.369 . S
C468 C470 1.419 . S
C468 H472 0.930 . S
C469 C468 1.369 . S
C469 C478 1.429 . S
C470 C468 1.419 . S
C470 C471 1.363 . S
C470 H473 0.929 . S
C471 C470 1.363 . S
C471 C477 1.428 . S
H472 C468 0.930 . S
H473 C470 0.929 . S
S474 N475 1.613 . S
S474 N476 1.610 . S
N475 S474 1.613 . S
N475 C478 1.350 . S
N476 S474 1.610 . S
N476 C477 1.351 . S
C477 C471 1.428 . S
C477 N476 1.351 . S
C477 C478 1.434 . S
C478 C469 1.429 . S
C478 N475 1.350 . S
C478 C477 1.434 . S
C479 C480 1.369 . S
C479 C481 1.419 1_545 S
C479 H483 0.930 . S
C480 C479 1.369 . S
C480 C489 1.429 . S
C481 C479 1.419 1_565 S
C481 C482 1.363 . S
C481 H484 0.929 . S
C482 C481 1.363 . S
C482 C488 1.428 . S
H483 C479 0.930 . S
H484 C481 0.929 . S
S485 N486 1.613 1_565 S
S485 N487 1.610 . S
N486 S485 1.613 1_545 S
N486 C489 1.350 . S
N487 S485 1.610 . S
N487 C488 1.351 . S
C488 C482 1.428 . S
C488 N487 1.351 . S
C488 C489 1.434 1_565 S
C489 C480 1.429 . S
C489 N486 1.350 . S
C489 C488 1.434 1_545 S
C490 C491 1.398 . S
C490 C492 1.390 1_655 S
C490 H494 0.930 . S
C491 C490 1.398 . S
C491 C500 1.429 . S
C492 C490 1.390 1_455 S
C492 C493 1.363 . S
C492 H495 0.929 . S
C493 C492 1.363 . S
C493 C499 1.433 1_455 S
H494 C490 0.930 . S
H495 C492 0.929 . S
S496 N497 1.613 . S
S496 N498 1.610 . S
N497 S496 1.613 . S
N497 C500 1.350 . S
N498 S496 1.610 . S
N498 C499 1.351 . S
C499 C493 1.433 1_655 S
C499 N498 1.351 . S
C499 C500 1.430 . S
C500 C491 1.429 . S
C500 N497 1.350 . S
C500 C499 1.430 . S
C501 C502 1.369 . S
C501 C503 1.419 . S
C501 H505 0.930 . S
C502 C501 1.369 . S
C502 C511 1.429 . S
C503 C501 1.419 . S
C503 C504 1.363 . S
C503 H506 0.929 . S
C504 C503 1.363 . S
C504 C510 1.428 . S
H505 C501 0.930 . S
H506 C503 0.929 . S
S507 N508 1.613 . S
S507 N509 1.610 . S
N508 S507 1.613 . S
N508 C511 1.350 . S
N509 S507 1.610 . S
N509 C510 1.351 . S
C510 C504 1.428 . S
C510 N509 1.351 . S
C510 C511 1.434 . S
C511 C502 1.429 . S
C511 N508 1.350 . S
C511 C510 1.434 . S
C512 C513 1.369 . S
C512 C514 1.419 1_545 S
C512 H516 0.930 . S
C513 C512 1.369 . S
C513 C522 1.429 . S
C514 C512 1.419 1_565 S
C514 C515 1.363 . S
C514 H517 0.929 . S
C515 C514 1.363 . S
C515 C521 1.428 . S
H516 C512 0.930 . S
H517 C514 0.929 . S
S518 N519 1.613 . S
S518 N520 1.610 1_545 S
N519 S518 1.613 . S
N519 C522 1.350 . S
N520 S518 1.610 1_565 S
N520 C521 1.351 . S
C521 C515 1.428 . S
C521 N520 1.351 . S
C521 C522 1.434 1_565 S
C522 C513 1.429 . S
C522 N519 1.350 . S
C522 C521 1.434 1_545 S
C523 C524 1.401 . S
C523 C525 1.387 1_455 S
C523 H527 0.931 . S
C524 C523 1.401 . S
C524 C533 1.429 . S
C525 C523 1.387 1_655 S
C525 C526 1.363 . S
C525 H528 0.929 . S
C526 C525 1.363 . S
C526 C532 1.424 . S
H527 C523 0.931 . S
H528 C525 0.929 . S
S529 N530 1.613 . S
S529 N531 1.610 . S
N530 S529 1.613 . S
N530 C533 1.350 . S
N531 S529 1.610 . S
N531 C532 1.352 1_455 S
C532 C526 1.424 . S
C532 N531 1.352 1_655 S
C532 C533 1.439 1_655 S
C533 C524 1.429 . S
C533 N530 1.350 . S
C533 C532 1.439 1_455 S
C534 C535 1.369 . S
C534 C536 1.419 . S
C534 H538 0.930 . S
C535 C534 1.369 . S
C535 C544 1.429 . S
C536 C534 1.419 . S
C536 C537 1.363 . S
C536 H539 0.929 . S
C537 C536 1.363 . S
C537 C543 1.428 . S
H538 C534 0.930 . S
H539 C536 0.929 . S
S540 N541 1.613 . S
S540 N542 1.610 . S
N541 S540 1.613 . S
N541 C544 1.350 . S
N542 S540 1.610 . S
N542 C543 1.351 . S
C543 C537 1.428 . S
C543 N542 1.351 . S
C543 C544 1.434 . S
C544 C535 1.429 . S
C544 N541 1.350 . S
C544 C543 1.434 . S
C545 C546 1.369 . S
C545 C547 1.419 . S
C545 H549 0.930 . S
C546 C545 1.369 . S
C546 C555 1.429 . S
C547 C545 1.419 . S
C547 C548 1.363 . S
C547 H550 0.929 . S
C548 C547 1.363 . S
C548 C554 1.428 . S
H549 C545 0.930 . S
H550 C547 0.929 . S
S551 N552 1.613 . S
S551 N553 1.610 . S
N552 S551 1.613 . S
N552 C555 1.350 . S
N553 S551 1.610 . S
N553 C554 1.351 . S
C554 C548 1.428 . S
C554 N553 1.351 . S
C554 C555 1.434 . S
C555 C546 1.429 . S
C555 N552 1.350 . S
C555 C554 1.434 . S
C556 C557 1.369 . S
C556 C558 1.419 . S
C556 H560 0.930 . S
C557 C556 1.369 . S
C557 C566 1.429 . S
C558 C556 1.419 . S
C558 C559 1.363 . S
C558 H561 0.929 . S
C559 C558 1.363 . S
C559 C565 1.428 . S
H560 C556 0.930 . S
H561 C558 0.929 . S
S562 N563 1.613 . S
S562 N564 1.610 . S
N563 S562 1.613 . S
N563 C566 1.350 . S
N564 S562 1.610 . S
N564 C565 1.351 . S
C565 C559 1.428 . S
C565 N564 1.351 . S
C565 C566 1.434 . S
C566 C557 1.429 . S
C566 N563 1.350 . S
C566 C565 1.434 . S
C567 C568 1.369 . S
C567 C569 1.419 . S
C567 H571 0.930 . S
C568 C567 1.369 . S
C568 C577 1.429 . S
C569 C567 1.419 . S
C569 C570 1.363 . S
C569 H572 0.929 . S
C570 C569 1.363 . S
C570 C576 1.428 . S
H571 C567 0.930 . S
H572 C569 0.929 . S
S573 N574 1.613 . S
S573 N575 1.610 . S
N574 S573 1.613 . S
N574 C577 1.350 . S
N575 S573 1.610 . S
N575 C576 1.351 . S
C576 C570 1.428 . S
C576 N575 1.351 . S
C576 C577 1.434 . S
C577 C568 1.429 . S
C577 N574 1.350 . S
C577 C576 1.434 . S
C578 C579 1.369 . S
C578 C580 1.419 . S
C578 H582 0.930 1_554 S
C579 C578 1.369 . S
C579 C588 1.429 . S
C580 C578 1.419 . S
C580 C581 1.363 . S
C580 H583 0.929 . S
C581 C580 1.363 . S
C581 C587 1.428 . S
H582 C578 0.930 1_556 S
H583 C580 0.929 . S
S584 N585 1.613 . S
S584 N586 1.610 . S
N585 S584 1.613 . S
N585 C588 1.350 . S
N586 S584 1.610 . S
N586 C587 1.351 . S
C587 C581 1.428 . S
C587 N586 1.351 . S
C587 C588 1.434 . S
C588 C579 1.429 . S
C588 N585 1.350 . S
C588 C587 1.434 . S
C589 C590 1.369 . S
C589 C591 1.419 . S
C589 H593 0.930 . S
C590 C589 1.369 . S
C590 C599 1.429 . S
C591 C589 1.419 . S
C591 C592 1.363 . S
C591 H594 0.929 1_554 S
C592 C591 1.363 . S
C592 C598 1.428 . S
H593 C589 0.930 . S
H594 C591 0.929 1_556 S
S595 N596 1.613 . S
S595 N597 1.610 . S
N596 S595 1.613 . S
N596 C599 1.350 . S
N597 S595 1.610 . S
N597 C598 1.351 . S
C598 C592 1.428 . S
C598 N597 1.351 . S
C598 C599 1.434 . S
C599 C590 1.429 . S
C599 N596 1.350 . S
C599 C598 1.434 . S
C600 C601 1.369 . S
C600 C602 1.419 . S
C600 H604 0.930 . S
C601 C600 1.369 . S
C601 C610 1.429 . S
C602 C600 1.419 . S
C602 C603 1.363 . S
C602 H605 0.929 . S
C603 C602 1.363 . S
C603 C609 1.428 . S
H604 C600 0.930 . S
H605 C602 0.929 . S
S606 N607 1.613 1_554 S
S606 N608 1.610 . S
N607 S606 1.613 1_556 S
N607 C610 1.350 . S
N608 S606 1.610 . S
N608 C609 1.351 1_554 S
C609 C603 1.428 . S
C609 N608 1.351 1_556 S
C609 C610 1.434 . S
C610 C601 1.429 . S
C610 N607 1.350 . S
C610 C609 1.434 . S
C611 C612 1.369 . S
C611 C613 1.419 . S
C611 H615 0.930 . S
C612 C611 1.369 . S
C612 C621 1.429 . S
C613 C611 1.419 . S
C613 C614 1.363 . S
C613 H616 0.929 . S
C614 C613 1.363 . S
C614 C620 1.428 . S
H615 C611 0.930 . S
H616 C613 0.929 . S
S617 N618 1.613 1_554 S
S617 N619 1.610 . S
N618 S617 1.613 1_556 S
N618 C621 1.350 . S
N619 S617 1.610 . S
N619 C620 1.351 1_554 S
C620 C614 1.428 . S
C620 N619 1.351 1_556 S
C620 C621 1.434 . S
C621 C612 1.429 . S
C621 N618 1.350 . S
C621 C620 1.434 . S
C622 C623 1.369 . S
C622 C624 1.419 . S
C622 H626 0.930 . S
C623 C622 1.369 . S
C623 C632 1.429 . S
C624 C622 1.419 . S
C624 C625 1.363 . S
C624 H627 0.929 . S
C625 C624 1.363 . S
C625 C631 1.428 . S
H626 C622 0.930 . S
H627 C624 0.929 . S
S628 N629 1.613 . S
S628 N630 1.610 1_554 S
N629 S628 1.613 . S
N629 C632 1.350 1_554 S
N630 S628 1.610 1_556 S
N630 C631 1.351 . S
C631 C625 1.428 . S
C631 N630 1.351 . S
C631 C632 1.434 . S
C632 C623 1.429 . S
C632 N629 1.350 1_556 S
C632 C631 1.434 . S
C633 C634 1.369 . S
C633 C635 1.419 . S
C633 H637 0.930 . S
C634 C633 1.369 . S
C634 C643 1.429 . S
C635 C633 1.419 . S
C635 C636 1.363 . S
C635 H638 0.929 . S
C636 C635 1.363 . S
C636 C642 1.428 . S
H637 C633 0.930 . S
H638 C635 0.929 . S
S639 N640 1.613 . S
S639 N641 1.610 . S
N640 S639 1.613 . S
N640 C643 1.350 . S
N641 S639 1.610 . S
N641 C642 1.351 . S
C642 C636 1.428 . S
C642 N641 1.351 . S
C642 C643 1.434 . S
C643 C634 1.429 . S
C643 N640 1.350 . S
C643 C642 1.434 . S
C644 C645 1.369 . S
C644 C646 1.419 . S
C644 H648 0.930 . S
C645 C644 1.369 . S
C645 C654 1.429 . S
C646 C644 1.419 . S
C646 C647 1.363 . S
C646 H649 0.929 . S
C647 C646 1.363 . S
C647 C653 1.428 . S
H648 C644 0.930 . S
H649 C646 0.929 . S
S650 N651 1.613 . S
S650 N652 1.610 . S
N651 S650 1.613 . S
N651 C654 1.350 . S
N652 S650 1.610 . S
N652 C653 1.351 . S
C653 C647 1.428 . S
C653 N652 1.351 . S
C653 C654 1.434 . S
C654 C645 1.429 . S
C654 N651 1.350 . S
C654 C653 1.434 . S
C655 C656 1.369 . S
C655 C657 1.419 . S
C655 H659 0.930 . S
C656 C655 1.369 . S
C656 C665 1.429 . S
C657 C655 1.419 . S
C657 C658 1.363 . S
C657 H660 0.929 . S
C658 C657 1.363 . S
C658 C664 1.428 . S
H659 C655 0.930 . S
H660 C657 0.929 . S
S661 N662 1.613 . S
S661 N663 1.610 . S
N662 S661 1.613 . S
N662 C665 1.350 . S
N663 S661 1.610 . S
N663 C664 1.351 . S
C664 C658 1.428 . S
C664 N663 1.351 . S
C664 C665 1.434 . S
C665 C656 1.429 . S
C665 N662 1.350 . S
C665 C664 1.434 . S
C666 C667 1.369 . S
C666 C668 1.419 . S
C666 H670 0.930 . S
C667 C666 1.369 . S
C667 C676 1.429 . S
C668 C666 1.419 . S
C668 C669 1.363 . S
C668 H671 0.929 . S
C669 C668 1.363 . S
C669 C675 1.428 . S
H670 C666 0.930 . S
H671 C668 0.929 . S
S672 N673 1.613 . S
S672 N674 1.610 1_556 S
N673 S672 1.613 . S
N673 C676 1.350 . S
N674 S672 1.610 1_554 S
N674 C675 1.351 1_554 S
C675 C669 1.428 . S
C675 N674 1.351 1_556 S
C675 C676 1.434 . S
C676 C667 1.429 . S
C676 N673 1.350 . S
C676 C675 1.434 . S
C677 C678 1.369 . S
C677 C679 1.419 . S
C677 H681 0.930 . S
C678 C677 1.369 . S
C678 C687 1.429 . S
C679 C677 1.419 . S
C679 C680 1.363 . S
C679 H682 0.929 . S
C680 C679 1.363 . S
C680 C686 1.428 . S
H681 C677 0.930 . S
H682 C679 0.929 . S
S683 N684 1.613 . S
S683 N685 1.610 . S
N684 S683 1.613 . S
N684 C687 1.350 . S
N685 S683 1.610 . S
N685 C686 1.351 . S
C686 C680 1.428 . S
C686 N685 1.351 . S
C686 C687 1.434 . S
C687 C678 1.429 . S
C687 N684 1.350 . S
C687 C686 1.434 . S
C688 C689 1.369 . S
C688 C690 1.419 . S
C688 H692 0.930 . S
C689 C688 1.369 . S
C689 C698 1.429 . S
C690 C688 1.419 . S
C690 C691 1.363 . S
C690 H693 0.929 . S
C691 C690 1.363 . S
C691 C697 1.428 . S
H692 C688 0.930 . S
H693 C690 0.929 . S
S694 N695 1.613 . S
S694 N696 1.610 . S
N695 S694 1.613 . S
N695 C698 1.350 . S
N696 S694 1.610 . S
N696 C697 1.351 . S
C697 C691 1.428 . S
C697 N696 1.351 . S
C697 C698 1.434 . S
C698 C689 1.429 . S
C698 N695 1.350 . S
C698 C697 1.434 . S
C699 C700 1.369 . S
C699 C701 1.419 . S
C699 H703 0.930 . S
C700 C699 1.369 . S
C700 C709 1.429 . S
C701 C699 1.419 . S
C701 C702 1.363 . S
C701 H704 0.929 . S
C702 C701 1.363 . S
C702 C708 1.428 . S
H703 C699 0.930 . S
H704 C701 0.929 . S
S705 N706 1.613 . S
S705 N707 1.610 . S
N706 S705 1.613 . S
N706 C709 1.350 . S
N707 S705 1.610 . S
N707 C708 1.351 . S
C708 C702 1.428 . S
C708 N707 1.351 . S
C708 C709 1.434 . S
C709 C700 1.429 . S
C709 N706 1.350 . S
C709 C708 1.434 . S
C710 C711 1.369 . S
C710 C712 1.419 . S
C710 H714 0.930 . S
C711 C710 1.369 . S
C711 C720 1.429 . S
C712 C710 1.419 . S
C712 C713 1.363 . S
C712 H715 0.929 . S
C713 C712 1.363 . S
C713 C719 1.428 . S
H714 C710 0.930 . S
H715 C712 0.929 . S
S716 N717 1.613 . S
S716 N718 1.610 . S
N717 S716 1.613 . S
N717 C720 1.350 . S
N718 S716 1.610 . S
N718 C719 1.351 . S
C719 C713 1.428 . S
C719 N718 1.351 . S
C719 C720 1.434 . S
C720 C711 1.429 . S
C720 N717 1.350 . S
C720 C719 1.434 . S
C721 C722 1.369 . S
C721 C723 1.419 . S
C721 H725 0.930 . S
C722 C721 1.369 . S
C722 C731 1.429 . S
C723 C721 1.419 . S
C723 C724 1.363 . S
C723 H726 0.929 . S
C724 C723 1.363 . S
C724 C730 1.428 . S
H725 C721 0.930 . S
H726 C723 0.929 . S
S727 N728 1.613 . S
S727 N729 1.610 . S
N728 S727 1.613 . S
N728 C731 1.350 . S
N729 S727 1.610 . S
N729 C730 1.351 . S
C730 C724 1.428 . S
C730 N729 1.351 . S
C730 C731 1.434 . S
C731 C722 1.429 . S
C731 N728 1.350 . S
C731 C730 1.434 . S
C732 C733 1.369 . S
C732 C734 1.419 . S
C732 H736 0.930 . S
C733 C732 1.369 . S
C733 C742 1.429 . S
C734 C732 1.419 . S
C734 C735 1.363 . S
C734 H737 0.929 . S
C735 C734 1.363 . S
C735 C741 1.428 . S
H736 C732 0.930 . S
H737 C734 0.929 . S
S738 N739 1.613 . S
S738 N740 1.610 . S
N739 S738 1.613 . S
N739 C742 1.350 . S
N740 S738 1.610 . S
N740 C741 1.351 . S
C741 C735 1.428 . S
C741 N740 1.351 . S
C741 C742 1.434 . S
C742 C733 1.429 . S
C742 N739 1.350 . S
C742 C741 1.434 . S
C743 C744 1.369 . S
C743 C745 1.419 . S
C743 H747 0.930 . S
C744 C743 1.369 . S
C744 C753 1.429 . S
C745 C743 1.419 . S
C745 C746 1.363 . S
C745 H748 0.929 . S
C746 C745 1.363 . S
C746 C752 1.428 . S
H747 C743 0.930 . S
H748 C745 0.929 . S
S749 N750 1.613 1_554 S
S749 N751 1.610 . S
N750 S749 1.613 1_556 S
N750 C753 1.350 1_556 S
N751 S749 1.610 . S
N751 C752 1.351 . S
C752 C746 1.428 . S
C752 N751 1.351 . S
C752 C753 1.434 . S
C753 C744 1.429 . S
C753 N750 1.350 1_554 S
C753 C752 1.434 . S
C754 C755 1.369 . S
C754 C756 1.419 . S
C754 H758 0.930 . S
C755 C754 1.369 . S
C755 C764 1.429 . S
C756 C754 1.419 . S
C756 C757 1.363 . S
C756 H759 0.929 . S
C757 C756 1.363 . S
C757 C763 1.428 . S
H758 C754 0.930 . S
H759 C756 0.929 . S
S760 N761 1.613 . S
S760 N762 1.610 . S
N761 S760 1.613 . S
N761 C764 1.350 . S
N762 S760 1.610 . S
N762 C763 1.351 . S
C763 C757 1.428 . S
C763 N762 1.351 . S
C763 C764 1.434 . S
C764 C755 1.429 . S
C764 N761 1.350 . S
C764 C763 1.434 . S
C765 C766 1.369 . S
C765 C767 1.419 . S
C765 H769 0.930 . S
C766 C765 1.369 . S
C766 C775 1.429 . S
C767 C765 1.419 . S
C767 C768 1.363 . S
C767 H770 0.929 . S
C768 C767 1.363 . S
C768 C774 1.428 . S
H769 C765 0.930 . S
H770 C767 0.929 . S
S771 N772 1.613 . S
S771 N773 1.610 . S
N772 S771 1.613 . S
N772 C775 1.350 . S
N773 S771 1.610 . S
N773 C774 1.351 . S
C774 C768 1.428 . S
C774 N773 1.351 . S
C774 C775 1.434 . S
C775 C766 1.429 . S
C775 N772 1.350 . S
C775 C774 1.434 . S
C776 C777 1.369 . S
C776 C778 1.419 . S
C776 H780 0.930 . S
C777 C776 1.369 . S
C777 C786 1.429 . S
C778 C776 1.419 . S
C778 C779 1.363 . S
C778 H781 0.929 . S
C779 C778 1.363 . S
C779 C785 1.428 . S
H780 C776 0.930 . S
H781 C778 0.929 . S
S782 N783 1.613 . S
S782 N784 1.610 . S
N783 S782 1.613 . S
N783 C786 1.350 . S
N784 S782 1.610 . S
N784 C785 1.351 . S
C785 C779 1.428 . S
C785 N784 1.351 . S
C785 C786 1.434 . S
C786 C777 1.429 . S
C786 N783 1.350 . S
C786 C785 1.434 . S
C787 C788 1.369 . S
C787 C789 1.419 . S
C787 H791 0.930 . S
C788 C787 1.369 . S
C788 C797 1.429 . S
C789 C787 1.419 . S
C789 C790 1.363 . S
C789 H792 0.929 . S
C790 C789 1.363 . S
C790 C796 1.428 . S
H791 C787 0.930 . S
H792 C789 0.929 . S
S793 N794 1.613 . S
S793 N795 1.610 . S
N794 S793 1.613 . S
N794 C797 1.350 . S
N795 S793 1.610 . S
N795 C796 1.351 . S
C796 C790 1.428 . S
C796 N795 1.351 . S
C796 C797 1.434 . S
C797 C788 1.429 . S
C797 N794 1.350 . S
C797 C796 1.434 . S
C798 C799 1.369 . S
C798 C800 1.419 . S
C798 H802 0.930 . S
C799 C798 1.369 . S
C799 C808 1.429 . S
C800 C798 1.419 . S
C800 C801 1.363 . S
C800 H803 0.929 . S
C801 C800 1.363 . S
C801 C807 1.428 . S
H802 C798 0.930 . S
H803 C800 0.929 . S
S804 N805 1.613 . S
S804 N806 1.610 . S
N805 S804 1.613 . S
N805 C808 1.350 . S
N806 S804 1.610 . S
N806 C807 1.351 . S
C807 C801 1.428 . S
C807 N806 1.351 . S
C807 C808 1.434 . S
C808 C799 1.429 . S
C808 N805 1.350 . S
C808 C807 1.434 . S
C809 C810 1.369 . S
C809 C811 1.419 . S
C809 H813 0.930 . S
C810 C809 1.369 . S
C810 C819 1.429 . S
C811 C809 1.419 . S
C811 C812 1.363 . S
C811 H814 0.929 . S
C812 C811 1.363 . S
C812 C818 1.428 . S
H813 C809 0.930 . S
H814 C811 0.929 . S
S815 N816 1.613 . S
S815 N817 1.610 . S
N816 S815 1.613 . S
N816 C819 1.350 . S
N817 S815 1.610 . S
N817 C818 1.351 . S
C818 C812 1.428 . S
C818 N817 1.351 . S
C818 C819 1.434 . S
C819 C810 1.429 . S
C819 N816 1.350 . S
C819 C818 1.434 . S
C820 C821 1.369 . S
C820 C822 1.419 . S
C820 H824 0.930 . S
C821 C820 1.369 . S
C821 C830 1.429 . S
C822 C820 1.419 . S
C822 C823 1.363 . S
C822 H825 0.929 . S
C823 C822 1.363 . S
C823 C829 1.428 . S
H824 C820 0.930 . S
H825 C822 0.929 . S
S826 N827 1.613 . S
S826 N828 1.610 . S
N827 S826 1.613 . S
N827 C830 1.350 . S
N828 S826 1.610 . S
N828 C829 1.351 . S
C829 C823 1.428 . S
C829 N828 1.351 . S
C829 C830 1.434 . S
C830 C821 1.429 . S
C830 N827 1.350 . S
C830 C829 1.434 . S
C831 C832 1.369 . S
C831 C833 1.419 1_556 S
C831 H835 0.930 . S
C832 C831 1.369 . S
C832 C841 1.429 . S
C833 C831 1.419 1_554 S
C833 C834 1.363 . S
C833 H836 0.929 . S
C834 C833 1.363 . S
C834 C840 1.428 1_554 S
H835 C831 0.930 . S
H836 C833 0.929 . S
S837 N838 1.613 . S
S837 N839 1.610 . S
N838 S837 1.613 . S
N838 C841 1.350 . S
N839 S837 1.610 . S
N839 C840 1.351 . S
C840 C834 1.428 1_556 S
C840 N839 1.351 . S
C840 C841 1.434 . S
C841 C832 1.429 . S
C841 N838 1.350 . S
C841 C840 1.434 . S
C842 C843 1.369 1_556 S
C842 C844 1.419 . S
C842 H846 0.930 . S
C843 C842 1.369 1_554 S
C843 C852 1.429 . S
C844 C842 1.419 . S
C844 C845 1.363 . S
C844 H847 0.929 . S
C845 C844 1.363 . S
C845 C851 1.428 . S
H846 C842 0.930 . S
H847 C844 0.929 . S
S848 N849 1.613 . S
S848 N850 1.610 1_554 S
N849 S848 1.613 . S
N849 C852 1.350 . S
N850 S848 1.610 1_556 S
N850 C851 1.351 . S
C851 C845 1.428 . S
C851 N850 1.351 . S
C851 C852 1.434 1_556 S
C852 C843 1.429 . S
C852 N849 1.350 . S
C852 C851 1.434 1_554 S
C853 C854 1.369 . S
C853 C855 1.419 1_556 S
C853 H857 0.930 . S
C854 C853 1.369 . S
C854 C863 1.429 . S
C855 C853 1.419 1_554 S
C855 C856 1.363 . S
C855 H858 0.929 . S
C856 C855 1.363 . S
C856 C862 1.428 1_554 S
H857 C853 0.930 . S
H858 C855 0.929 . S
S859 N860 1.613 . S
S859 N861 1.610 . S
N860 S859 1.613 . S
N860 C863 1.350 . S
N861 S859 1.610 . S
N861 C862 1.351 . S
C862 C856 1.428 1_556 S
C862 N861 1.351 . S
C862 C863 1.434 . S
C863 C854 1.429 . S
C863 N860 1.350 . S
C863 C862 1.434 . S
C864 C865 1.369 . S
C864 C866 1.419 . S
C864 H868 0.930 . S
C865 C864 1.369 . S
C865 C874 1.429 . S
C866 C864 1.419 . S
C866 C867 1.363 . S
C866 H869 0.929 . S
C867 C866 1.363 . S
C867 C873 1.428 . S
H868 C864 0.930 . S
H869 C866 0.929 . S
S870 N871 1.613 . S
S870 N872 1.610 . S
N871 S870 1.613 . S
N871 C874 1.350 . S
N872 S870 1.610 . S
N872 C873 1.351 . S
C873 C867 1.428 . S
C873 N872 1.351 . S
C873 C874 1.434 . S
C874 C865 1.429 . S
C874 N871 1.350 . S
C874 C873 1.434 . S
C875 C876 1.369 . S
C875 C877 1.419 . S
C875 H879 0.930 . S
C876 C875 1.369 . S
C876 C885 1.429 . S
C877 C875 1.419 . S
C877 C878 1.363 . S
C877 H880 0.929 . S
C878 C877 1.363 . S
C878 C884 1.428 . S
H879 C875 0.930 . S
H880 C877 0.929 . S
S881 N882 1.613 . S
S881 N883 1.610 . S
N882 S881 1.613 . S
N882 C885 1.350 . S
N883 S881 1.610 . S
N883 C884 1.351 . S
C884 C878 1.428 . S
C884 N883 1.351 . S
C884 C885 1.434 . S
C885 C876 1.429 . S
C885 N882 1.350 . S
C885 C884 1.434 . S
C886 C887 1.369 . S
C886 C888 1.419 . S
C886 H890 0.930 . S
C887 C886 1.369 . S
C887 C896 1.429 . S
C888 C886 1.419 . S
C888 C889 1.363 . S
C888 H891 0.929 . S
C889 C888 1.363 . S
C889 C895 1.428 . S
H890 C886 0.930 . S
H891 C888 0.929 . S
S892 N893 1.613 . S
S892 N894 1.610 . S
N893 S892 1.613 . S
N893 C896 1.350 . S
N894 S892 1.610 . S
N894 C895 1.351 . S
C895 C889 1.428 . S
C895 N894 1.351 . S
C895 C896 1.434 . S
C896 C887 1.429 . S
C896 N893 1.350 . S
C896 C895 1.434 . S
C897 C898 1.369 . S
C897 C899 1.419 . S
C897 H901 0.930 . S
C898 C897 1.369 . S
C898 C907 1.429 . S
C899 C897 1.419 . S
C899 C900 1.363 . S
C899 H902 0.929 . S
C900 C899 1.363 . S
C900 C906 1.428 . S
H901 C897 0.930 . S
H902 C899 0.929 . S
S903 N904 1.613 . S
S903 N905 1.610 . S
N904 S903 1.613 . S
N904 C907 1.350 . S
N905 S903 1.610 . S
N905 C906 1.351 . S
C906 C900 1.428 . S
C906 N905 1.351 . S
C906 C907 1.434 . S
C907 C898 1.429 . S
C907 N904 1.350 . S
C907 C906 1.434 . S
C908 C909 1.369 . S
C908 C910 1.419 . S
C908 H912 0.930 . S
C909 C908 1.369 . S
C909 C918 1.429 . S
C910 C908 1.419 . S
C910 C911 1.363 . S
C910 H913 0.929 . S
C911 C910 1.363 . S
C911 C917 1.428 . S
H912 C908 0.930 . S
H913 C910 0.929 . S
S914 N915 1.613 . S
S914 N916 1.610 . S
N915 S914 1.613 . S
N915 C918 1.350 . S
N916 S914 1.610 . S
N916 C917 1.351 . S
C917 C911 1.428 . S
C917 N916 1.351 . S
C917 C918 1.434 . S
C918 C909 1.429 . S
C918 N915 1.350 . S
C918 C917 1.434 . S
C919 C920 1.369 . S
C919 C921 1.419 . S
C919 H923 0.930 . S
C920 C919 1.369 . S
C920 C929 1.429 . S
C921 C919 1.419 . S
C921 C922 1.363 . S
C921 H924 0.929 . S
C922 C921 1.363 . S
C922 C928 1.428 . S
H923 C919 0.930 . S
H924 C921 0.929 . S
S925 N926 1.613 . S
S925 N927 1.610 . S
N926 S925 1.613 . S
N926 C929 1.350 . S
N927 S925 1.610 . S
N927 C928 1.351 . S
C928 C922 1.428 . S
C928 N927 1.351 . S
C928 C929 1.434 . S
C929 C920 1.429 . S
C929 N926 1.350 . S
C929 C928 1.434 . S
C930 C931 1.369 . S
C930 C932 1.419 . S
C930 H934 0.930 . S
C931 C930 1.369 . S
C931 C940 1.429 . S
C932 C930 1.419 . S
C932 C933 1.363 . S
C932 H935 0.929 . S
C933 C932 1.363 . S
C933 C939 1.428 . S
H934 C930 0.930 . S
H935 C932 0.929 . S
S936 N937 1.613 . S
S936 N938 1.610 . S
N937 S936 1.613 . S
N937 C940 1.350 . S
N938 S936 1.610 . S
N938 C939 1.351 . S
C939 C933 1.428 . S
C939 N938 1.351 . S
C939 C940 1.434 . S
C940 C931 1.429 . S
C940 N937 1.350 . S
C940 C939 1.434 . S
C941 C942 1.369 . S
C941 C943 1.419 . S
C941 H945 0.930 . S
C942 C941 1.369 . S
C942 C951 1.429 . S
C943 C941 1.419 . S
C943 C944 1.363 . S
C943 H946 0.929 . S
C944 C943 1.363 . S
C944 C950 1.428 . S
H945 C941 0.930 . S
H946 C943 0.929 . S
S947 N948 1.613 . S
S947 N949 1.610 . S
N948 S947 1.613 . S
N948 C951 1.350 . S
N949 S947 1.610 . S
N949 C950 1.351 . S
C950 C944 1.428 . S
C950 N949 1.351 . S
C950 C951 1.434 . S
C951 C942 1.429 . S
C951 N948 1.350 . S
C951 C950 1.434 . S
C952 C953 1.369 . S
C952 C954 1.419 . S
C952 H956 0.930 . S
C953 C952 1.369 . S
C953 C962 1.429 . S
C954 C952 1.419 . S
C954 C955 1.363 . S
C954 H957 0.929 . S
C955 C954 1.363 . S
C955 C961 1.428 . S
H956 C952 0.930 . S
H957 C954 0.929 . S
S958 N959 1.613 . S
S958 N960 1.610 . S
N959 S958 1.613 . S
N959 C962 1.350 . S
N960 S958 1.610 . S
N960 C961 1.351 . S
C961 C955 1.428 . S
C961 N960 1.351 . S
C961 C962 1.434 . S
C962 C953 1.429 . S
C962 N959 1.350 . S
C962 C961 1.434 . S
C963 C964 1.369 . S
C963 C965 1.419 . S
C963 H967 0.930 . S
C964 C963 1.369 . S
C964 C973 1.429 . S
C965 C963 1.419 . S
C965 C966 1.363 . S
C965 H968 0.929 . S
C966 C965 1.363 . S
C966 C972 1.428 . S
H967 C963 0.930 . S
H968 C965 0.929 . S
S969 N970 1.613 . S
S969 N971 1.610 . S
N970 S969 1.613 . S
N970 C973 1.350 . S
N971 S969 1.610 . S
N971 C972 1.351 . S
C972 C966 1.428 . S
C972 N971 1.351 . S
C972 C973 1.434 . S
C973 C964 1.429 . S
C973 N970 1.350 . S
C973 C972 1.434 . S
C974 C975 1.369 . S
C974 C976 1.419 . S
C974 H978 0.930 . S
C975 C974 1.369 . S
C975 C984 1.429 . S
C976 C974 1.419 . S
C976 C977 1.363 . S
C976 H979 0.929 . S
C977 C976 1.363 . S
C977 C983 1.428 . S
H978 C974 0.930 . S
H979 C976 0.929 . S
S980 N981 1.613 . S
S980 N982 1.610 . S
N981 S980 1.613 . S
N981 C984 1.350 . S
N982 S980 1.610 . S
N982 C983 1.351 . S
C983 C977 1.428 . S
C983 N982 1.351 . S
C983 C984 1.434 . S
C984 C975 1.429 . S
C984 N981 1.350 . S
C984 C983 1.434 . S
C985 C986 1.369 . S
C985 C987 1.419 . S
C985 H989 0.930 . S
C986 C985 1.369 . S
C986 C995 1.429 . S
C987 C985 1.419 . S
C987 C988 1.363 . S
C987 H990 0.929 . S
C988 C987 1.363 . S
C988 C994 1.428 . S
H989 C985 0.930 . S
H990 C987 0.929 . S
S991 N992 1.613 . S
S991 N993 1.610 . S
N992 S991 1.613 . S
N992 C995 1.350 . S
N993 S991 1.610 . S
N993 C994 1.351 . S
C994 C988 1.428 . S
C994 N993 1.351 . S
C994 C995 1.434 . S
C995 C986 1.429 . S
C995 N992 1.350 . S
C995 C994 1.434 . S
C996 C997 1.369 . S
C996 C998 1.419 . S
C996 H1000 0.930 . S
C997 C996 1.369 . S
C997 C1006 1.429 . S
C998 C996 1.419 . S
C998 C999 1.363 . S
C998 H1001 0.929 . S
C999 C998 1.363 . S
C999 C1005 1.428 . S
H1000 C996 0.930 . S
H1001 C998 0.929 . S
S1002 N1003 1.613 . S
S1002 N1004 1.610 . S
N1003 S1002 1.613 . S
N1003 C1006 1.350 . S
N1004 S1002 1.610 . S
N1004 C1005 1.351 . S
C1005 C999 1.428 . S
C1005 N1004 1.351 . S
C1005 C1006 1.434 . S
C1006 C997 1.429 . S
C1006 N1003 1.350 . S
C1006 C1005 1.434 . S
C1007 C1008 1.369 . S
C1007 C1009 1.419 . S
C1007 H1011 0.930 . S
C1008 C1007 1.369 . S
C1008 C1017 1.429 . S
C1009 C1007 1.419 . S
C1009 C1010 1.363 . S
C1009 H1012 0.929 . S
C1010 C1009 1.363 . S
C1010 C1016 1.428 . S
H1011 C1007 0.930 . S
H1012 C1009 0.929 . S
S1013 N1014 1.613 . S
S1013 N1015 1.610 . S
N1014 S1013 1.613 . S
N1014 C1017 1.350 . S
N1015 S1013 1.610 . S
N1015 C1016 1.351 . S
C1016 C1010 1.428 . S
C1016 N1015 1.351 . S
C1016 C1017 1.434 . S
C1017 C1008 1.429 . S
C1017 N1014 1.350 . S
C1017 C1016 1.434 . S
C1018 C1019 1.369 . S
C1018 C1020 1.419 . S
C1018 H1022 0.930 . S
C1019 C1018 1.369 . S
C1019 C1028 1.429 . S
C1020 C1018 1.419 . S
C1020 C1021 1.363 . S
C1020 H1023 0.929 . S
C1021 C1020 1.363 . S
C1021 C1027 1.428 . S
H1022 C1018 0.930 . S
H1023 C1020 0.929 . S
S1024 N1025 1.613 . S
S1024 N1026 1.610 . S
N1025 S1024 1.613 . S
N1025 C1028 1.350 . S
N1026 S1024 1.610 . S
N1026 C1027 1.351 . S
C1027 C1021 1.428 . S
C1027 N1026 1.351 . S
C1027 C1028 1.434 . S
C1028 C1019 1.429 . S
C1028 N1025 1.350 . S
C1028 C1027 1.434 . S
C1029 C1030 1.369 . S
C1029 C1031 1.419 1_556 S
C1029 H1033 0.930 . S
C1030 C1029 1.369 . S
C1030 C1039 1.429 1_556 S
C1031 C1029 1.419 1_554 S
C1031 C1032 1.363 . S
C1031 H1034 0.929 . S
C1032 C1031 1.363 . S
C1032 C1038 1.428 . S
H1033 C1029 0.930 . S
H1034 C1031 0.929 . S
S1035 N1036 1.613 . S
S1035 N1037 1.610 . S
N1036 S1035 1.613 . S
N1036 C1039 1.350 . S
N1037 S1035 1.610 . S
N1037 C1038 1.351 . S
C1038 C1032 1.428 . S
C1038 N1037 1.351 . S
C1038 C1039 1.434 . S
C1039 C1030 1.429 1_554 S
C1039 N1036 1.350 . S
C1039 C1038 1.434 . S
C1040 C1041 1.369 1_554 S
C1040 C1042 1.419 . S
C1040 H1044 0.930 1_554 S
C1041 C1040 1.369 1_556 S
C1041 C1050 1.429 1_556 S
C1042 C1040 1.419 . S
C1042 C1043 1.363 . S
C1042 H1045 0.929 . S
C1043 C1042 1.363 . S
C1043 C1049 1.428 . S
H1044 C1040 0.930 1_556 S
H1045 C1042 0.929 . S
S1046 N1047 1.613 . S
S1046 N1048 1.610 . S
N1047 S1046 1.613 . S
N1047 C1050 1.350 . S
N1048 S1046 1.610 . S
N1048 C1049 1.351 . S
C1049 C1043 1.428 . S
C1049 N1048 1.351 . S
C1049 C1050 1.434 . S
C1050 C1041 1.429 1_554 S
C1050 N1047 1.350 . S
C1050 C1049 1.434 . S
C1051 C1052 1.369 1_554 S
C1051 C1053 1.419 . S
C1051 H1055 0.930 . S
C1052 C1051 1.369 1_556 S
C1052 C1061 1.429 . S
C1053 C1051 1.419 . S
C1053 C1054 1.363 . S
C1053 H1056 0.929 . S
C1054 C1053 1.363 . S
C1054 C1060 1.428 . S
H1055 C1051 0.930 . S
H1056 C1053 0.929 . S
S1057 N1058 1.613 . S
S1057 N1059 1.610 1_556 S
N1058 S1057 1.613 . S
N1058 C1061 1.350 . S
N1059 S1057 1.610 1_554 S
N1059 C1060 1.351 . S
C1060 C1054 1.428 . S
C1060 N1059 1.351 . S
C1060 C1061 1.434 1_554 S
C1061 C1052 1.429 . S
C1061 N1058 1.350 . S
C1061 C1060 1.434 1_556 S
C1062 C1063 1.369 . S
C1062 C1064 1.419 . S
C1062 H1066 0.930 . S
C1063 C1062 1.369 . S
C1063 C1072 1.429 . S
C1064 C1062 1.419 . S
C1064 C1065 1.363 . S
C1064 H1067 0.929 . S
C1065 C1064 1.363 . S
C1065 C1071 1.428 . S
H1066 C1062 0.930 . S
H1067 C1064 0.929 . S
S1068 N1069 1.613 . S
S1068 N1070 1.610 . S
N1069 S1068 1.613 . S
N1069 C1072 1.350 1_556 S
N1070 S1068 1.610 . S
N1070 C1071 1.351 1_556 S
C1071 C1065 1.428 . S
C1071 N1070 1.351 1_554 S
C1071 C1072 1.434 . S
C1072 C1063 1.429 . S
C1072 N1069 1.350 1_554 S
C1072 C1071 1.434 . S
C1073 C1074 1.369 . S
C1073 C1075 1.419 . S
C1073 H1077 0.930 . S
C1074 C1073 1.369 . S
C1074 C1083 1.429 . S
C1075 C1073 1.419 . S
C1075 C1076 1.363 . S
C1075 H1078 0.929 . S
C1076 C1075 1.363 . S
C1076 C1082 1.428 . S
H1077 C1073 0.930 . S
H1078 C1075 0.929 . S
S1079 N1080 1.613 . S
S1079 N1081 1.610 . S
N1080 S1079 1.613 . S
N1080 C1083 1.350 1_556 S
N1081 S1079 1.610 . S
N1081 C1082 1.351 1_556 S
C1082 C1076 1.428 . S
C1082 N1081 1.351 1_554 S
C1082 C1083 1.434 . S
C1083 C1074 1.429 . S
C1083 N1080 1.350 1_554 S
C1083 C1082 1.434 . S
C1084 C1085 1.369 . S
C1084 C1086 1.419 . S
C1084 H1088 0.930 . S
C1085 C1084 1.369 . S
C1085 C1094 1.429 . S
C1086 C1084 1.419 . S
C1086 C1087 1.363 . S
C1086 H1089 0.929 . S
C1087 C1086 1.363 . S
C1087 C1093 1.428 . S
H1088 C1084 0.930 . S
H1089 C1086 0.929 . S
S1090 N1091 1.613 . S
S1090 N1092 1.610 1_556 S
N1091 S1090 1.613 . S
N1091 C1094 1.350 1_556 S
N1092 S1090 1.610 1_554 S
N1092 C1093 1.351 . S
C1093 C1087 1.428 . S
C1093 N1092 1.351 . S
C1093 C1094 1.434 . S
C1094 C1085 1.429 . S
C1094 N1091 1.350 1_554 S
C1094 C1093 1.434 . S
C1095 C1096 1.369 . S
C1095 C1097 1.419 . S
C1095 H1099 0.930 . S
C1096 C1095 1.369 . S
C1096 C1105 1.429 . S
C1097 C1095 1.419 . S
C1097 C1098 1.363 . S
C1097 H1100 0.929 . S
C1098 C1097 1.363 . S
C1098 C1104 1.428 . S
H1099 C1095 0.930 . S
H1100 C1097 0.929 . S
S1101 N1102 1.613 . S
S1101 N1103 1.610 . S
N1102 S1101 1.613 . S
N1102 C1105 1.350 . S
N1103 S1101 1.610 . S
N1103 C1104 1.351 . S
C1104 C1098 1.428 . S
C1104 N1103 1.351 . S
C1104 C1105 1.434 . S
C1105 C1096 1.429 . S
C1105 N1102 1.350 . S
C1105 C1104 1.434 . S
C1106 C1107 1.369 . S
C1106 C1108 1.419 . S
C1106 H1110 0.930 . S
C1107 C1106 1.369 . S
C1107 C1116 1.429 . S
C1108 C1106 1.419 . S
C1108 C1109 1.363 . S
C1108 H1111 0.929 . S
C1109 C1108 1.363 . S
C1109 C1115 1.428 . S
H1110 C1106 0.930 . S
H1111 C1108 0.929 . S
S1112 N1113 1.613 . S
S1112 N1114 1.610 . S
N1113 S1112 1.613 . S
N1113 C1116 1.350 . S
N1114 S1112 1.610 . S
N1114 C1115 1.351 . S
C1115 C1109 1.428 . S
C1115 N1114 1.351 . S
C1115 C1116 1.434 . S
C1116 C1107 1.429 . S
C1116 N1113 1.350 . S
C1116 C1115 1.434 . S
C1117 C1118 1.369 . S
C1117 C1119 1.419 . S
C1117 H1121 0.930 . S
C1118 C1117 1.369 . S
C1118 C1127 1.429 . S
C1119 C1117 1.419 . S
C1119 C1120 1.363 . S
C1119 H1122 0.929 . S
C1120 C1119 1.363 . S
C1120 C1126 1.428 . S
H1121 C1117 0.930 . S
H1122 C1119 0.929 . S
S1123 N1124 1.613 . S
S1123 N1125 1.610 . S
N1124 S1123 1.613 . S
N1124 C1127 1.350 . S
N1125 S1123 1.610 . S
N1125 C1126 1.351 . S
C1126 C1120 1.428 . S
C1126 N1125 1.351 . S
C1126 C1127 1.434 . S
C1127 C1118 1.429 . S
C1127 N1124 1.350 . S
C1127 C1126 1.434 . S
C1128 C1129 1.369 . S
C1128 C1130 1.419 . S
C1128 H1132 0.930 . S
C1129 C1128 1.369 . S
C1129 C1138 1.429 . S
C1130 C1128 1.419 . S
C1130 C1131 1.363 . S
C1130 H1133 0.929 1_556 S
C1131 C1130 1.363 . S
C1131 C1137 1.428 . S
H1132 C1128 0.930 . S
H1133 C1130 0.929 1_554 S
S1134 N1135 1.613 . S
S1134 N1136 1.610 . S
N1135 S1134 1.613 . S
N1135 C1138 1.350 . S
N1136 S1134 1.610 . S
N1136 C1137 1.351 . S
C1137 C1131 1.428 . S
C1137 N1136 1.351 . S
C1137 C1138 1.434 . S
C1138 C1129 1.429 . S
C1138 N1135 1.350 . S
C1138 C1137 1.434 . S
C1139 C1140 1.369 . S
C1139 C1141 1.419 . S
C1139 H1143 0.930 . S
C1140 C1139 1.369 . S
C1140 C1149 1.429 . S
C1141 C1139 1.419 . S
C1141 C1142 1.363 . S
C1141 H1144 0.929 . S
C1142 C1141 1.363 . S
C1142 C1148 1.428 . S
H1143 C1139 0.930 . S
H1144 C1141 0.929 . S
S1145 N1146 1.613 . S
S1145 N1147 1.610 . S
N1146 S1145 1.613 . S
N1146 C1149 1.350 . S
N1147 S1145 1.610 . S
N1147 C1148 1.351 . S
C1148 C1142 1.428 . S
C1148 N1147 1.351 . S
C1148 C1149 1.434 . S
C1149 C1140 1.429 . S
C1149 N1146 1.350 . S
C1149 C1148 1.434 . S
C1150 C1151 1.369 . S
C1150 C1152 1.419 . S
C1150 H1154 0.930 . S
C1151 C1150 1.369 . S
C1151 C1160 1.429 . S
C1152 C1150 1.419 . S
C1152 C1153 1.363 . S
C1152 H1155 0.929 1_556 S
C1153 C1152 1.363 . S
C1153 C1159 1.428 . S
H1154 C1150 0.930 . S
H1155 C1152 0.929 1_554 S
S1156 N1157 1.613 . S
S1156 N1158 1.610 . S
N1157 S1156 1.613 . S
N1157 C1160 1.350 . S
N1158 S1156 1.610 . S
N1158 C1159 1.351 . S
C1159 C1153 1.428 . S
C1159 N1158 1.351 . S
C1159 C1160 1.434 . S
C1160 C1151 1.429 . S
C1160 N1157 1.350 . S
C1160 C1159 1.434 . S
C1161 C1162 1.369 . S
C1161 C1163 1.419 . S
C1161 H1165 0.930 . S
C1162 C1161 1.369 . S
C1162 C1171 1.429 . S
C1163 C1161 1.419 . S
C1163 C1164 1.363 . S
C1163 H1166 0.929 . S
C1164 C1163 1.363 . S
C1164 C1170 1.428 . S
H1165 C1161 0.930 . S
H1166 C1163 0.929 . S
S1167 N1168 1.613 . S
S1167 N1169 1.610 . S
N1168 S1167 1.613 . S
N1168 C1171 1.350 . S
N1169 S1167 1.610 . S
N1169 C1170 1.351 . S
C1170 C1164 1.428 . S
C1170 N1169 1.351 . S
C1170 C1171 1.434 . S
C1171 C1162 1.429 . S
C1171 N1168 1.350 . S
C1171 C1170 1.434 . S
C1172 C1173 1.369 . S
C1172 C1174 1.419 . S
C1172 H1176 0.930 . S
C1173 C1172 1.369 . S
C1173 C1182 1.429 . S
C1174 C1172 1.419 . S
C1174 C1175 1.363 . S
C1174 H1177 0.929 . S
C1175 C1174 1.363 . S
C1175 C1181 1.428 . S
H1176 C1172 0.930 . S
H1177 C1174 0.929 . S
S1178 N1179 1.613 . S
S1178 N1180 1.610 . S
N1179 S1178 1.613 . S
N1179 C1182 1.350 . S
N1180 S1178 1.610 . S
N1180 C1181 1.351 . S
C1181 C1175 1.428 . S
C1181 N1180 1.351 . S
C1181 C1182 1.434 . S
C1182 C1173 1.429 . S
C1182 N1179 1.350 . S
C1182 C1181 1.434 . S
C1183 C1184 1.369 . S
C1183 C1185 1.419 . S
C1183 H1187 0.930 . S
C1184 C1183 1.369 . S
C1184 C1193 1.429 . S
C1185 C1183 1.419 . S
C1185 C1186 1.363 . S
C1185 H1188 0.929 . S
C1186 C1185 1.363 . S
C1186 C1192 1.428 . S
H1187 C1183 0.930 . S
H1188 C1185 0.929 . S
S1189 N1190 1.613 . S
S1189 N1191 1.610 . S
N1190 S1189 1.613 . S
N1190 C1193 1.350 . S
N1191 S1189 1.610 . S
N1191 C1192 1.351 . S
C1192 C1186 1.428 . S
C1192 N1191 1.351 . S
C1192 C1193 1.434 . S
C1193 C1184 1.429 . S
C1193 N1190 1.350 . S
C1193 C1192 1.434 . S
C1194 C1195 1.369 . S
C1194 C1196 1.419 1_455 S
C1194 H1198 0.930 . S
C1195 C1194 1.369 . S
C1195 C1204 1.429 . S
C1196 C1194 1.419 1_655 S
C1196 C1197 1.363 . S
C1196 H1199 0.929 . S
C1197 C1196 1.363 . S
C1197 C1203 1.428 . S
H1198 C1194 0.930 . S
H1199 C1196 0.929 . S
S1200 N1201 1.634 . S
S1200 N1202 1.550 1_455 S
N1201 S1200 1.634 . S
N1201 C1204 1.350 . S
N1202 S1200 1.550 1_655 S
N1202 C1203 1.351 . S
C1203 C1197 1.428 . S
C1203 N1202 1.351 . S
C1203 C1204 1.434 1_655 S
C1204 C1195 1.429 . S
C1204 N1201 1.350 . S
C1204 C1203 1.434 1_455 S
C1205 C1206 1.369 . S
C1205 C1207 1.419 . S
C1205 H1209 0.930 . S
C1206 C1205 1.369 . S
C1206 C1215 1.429 . S
C1207 C1205 1.419 . S
C1207 C1208 1.363 . S
C1207 H1210 0.929 . S
C1208 C1207 1.363 . S
C1208 C1214 1.428 . S
H1209 C1205 0.930 . S
H1210 C1207 0.929 . S
S1211 N1212 1.613 . S
S1211 N1213 1.610 . S
N1212 S1211 1.613 . S
N1212 C1215 1.350 . S
N1213 S1211 1.610 . S
N1213 C1214 1.351 . S
C1214 C1208 1.428 . S
C1214 N1213 1.351 . S
C1214 C1215 1.434 . S
C1215 C1206 1.429 . S
C1215 N1212 1.350 . S
C1215 C1214 1.434 . S
C1216 C1217 1.369 . S
C1216 C1218 1.419 1_565 S
C1216 H1220 0.930 . S
C1217 C1216 1.369 . S
C1217 C1226 1.429 . S
C1218 C1216 1.419 1_545 S
C1218 C1219 1.363 . S
C1218 H1221 0.929 . S
C1219 C1218 1.363 . S
C1219 C1225 1.428 . S
H1220 C1216 0.930 . S
H1221 C1218 0.929 . S
S1222 N1223 1.613 1_545 S
S1222 N1224 1.610 . S
N1223 S1222 1.613 1_565 S
N1223 C1226 1.350 . S
N1224 S1222 1.610 . S
N1224 C1225 1.351 . S
C1225 C1219 1.428 . S
C1225 N1224 1.351 . S
C1225 C1226 1.434 1_545 S
C1226 C1217 1.429 . S
C1226 N1223 1.350 . S
C1226 C1225 1.434 1_565 S
C1227 C1228 1.369 . S
C1227 C1229 1.419 1_545 S
C1227 H1231 0.930 . S
C1228 C1227 1.369 . S
C1228 C1237 1.429 . S
C1229 C1227 1.419 1_565 S
C1229 C1230 1.363 . S
C1229 H1232 0.929 . S
C1230 C1229 1.363 . S
C1230 C1236 1.428 . S
H1231 C1227 0.930 . S
H1232 C1229 0.929 . S
S1233 N1234 1.613 . S
S1233 N1235 1.610 1_545 S
N1234 S1233 1.613 . S
N1234 C1237 1.350 . S
N1235 S1233 1.610 1_565 S
N1235 C1236 1.351 . S
C1236 C1230 1.428 . S
C1236 N1235 1.351 . S
C1236 C1237 1.434 1_565 S
C1237 C1228 1.429 . S
C1237 N1234 1.350 . S
C1237 C1236 1.434 1_545 S
C1238 C1239 1.369 . S
C1238 C1240 1.419 1_455 S
C1238 H1242 0.930 . S
C1239 C1238 1.369 . S
C1239 C1248 1.429 . S
C1240 C1238 1.419 1_655 S
C1240 C1241 1.363 . S
C1240 H1243 0.929 . S
C1241 C1240 1.363 . S
C1241 C1247 1.428 . S
H1242 C1238 0.930 . S
H1243 C1240 0.929 . S
S1244 N1245 1.613 1_655 S
S1244 N1246 1.610 . S
N1245 S1244 1.613 1_455 S
N1245 C1248 1.350 . S
N1246 S1244 1.610 . S
N1246 C1247 1.351 . S
C1247 C1241 1.428 . S
C1247 N1246 1.351 . S
C1247 C1248 1.434 1_655 S
C1248 C1239 1.429 . S
C1248 N1245 1.350 . S
C1248 C1247 1.434 1_455 S
C1249 C1250 1.369 . S
C1249 C1251 1.419 . S
C1249 H1253 0.930 . S
C1250 C1249 1.369 . S
C1250 C1259 1.429 . S
C1251 C1249 1.419 . S
C1251 C1252 1.363 . S
C1251 H1254 0.929 . S
C1252 C1251 1.363 . S
C1252 C1258 1.428 . S
H1253 C1249 0.930 . S
H1254 C1251 0.929 . S
S1255 N1256 1.613 . S
S1255 N1257 1.610 . S
N1256 S1255 1.613 . S
N1256 C1259 1.350 . S
N1257 S1255 1.610 . S
N1257 C1258 1.351 . S
C1258 C1252 1.428 . S
C1258 N1257 1.351 . S
C1258 C1259 1.434 . S
C1259 C1250 1.429 . S
C1259 N1256 1.350 . S
C1259 C1258 1.434 . S
C469 C39 1.328 . S
C471 C0 1.329 . S
C480 C52 1.330 . S
C482 C13 1.328 . S
C491 C65 1.322 . S
C493 C26 1.326 . S
C502 C78 1.323 . S
C504 C117 1.328 . S
C513 C91 1.328 . S
C515 C130 1.329 . S
C524 C143 1.324 . S
C526 C104 1.327 . S
C535 C156 1.302 . S
C537 C195 1.303 . S
C546 C169 1.303 . S
C548 C208 1.299 . S
C557 C182 1.309 . S
C559 C221 1.302 . S
C568 C234 1.291 . S
C570 C273 1.297 . S
C579 C286 1.296 . S
C581 C247 1.295 . S
C590 C260 1.292 . S
C592 C299 1.295 . S
C601 C312 1.291 . S
C603 C351 1.297 . S
C612 C325 1.294 . S
C614 C364 1.301 . S
C623 C377 1.301 . S
C625 C338 1.293 . S
C634 C429 1.298 . S
C636 C390 1.303 . S
C645 C442 1.302 . S
C647 C403 1.303 . S
C656 C455 1.299 . S
C658 C416 1.302 . S
C667 C151 1.373 . S
C669 C5 1.293 1_556 S
C678 C18 1.288 1_556 S
C680 C125 1.368 . S
C689 C31 1.286 1_556 S
C691 C138 1.372 . S
C700 C99 1.382 . S
C702 C44 1.304 . S
C711 C57 1.305 . S
C713 C112 1.376 . S
C722 C86 1.382 . S
C724 C70 1.300 . S
C733 C83 1.289 1_554 S
C735 C73 1.368 . S
C744 C96 1.292 1_554 S
C746 C47 1.372 . S
C755 C60 1.368 . S
C757 C109 1.289 1_554 S
C766 C21 1.375 . S
C768 C122 1.304 . S
C777 C34 1.380 . S
C779 C135 1.298 . S
C788 C148 1.308 . S
C790 C8 1.379 . S
C799 C161 1.259 . S
C801 C307 1.328 . S
C810 C281 1.328 . S
C812 C174 1.261 . S
C821 C294 1.335 . S
C823 C187 1.263 . S
C832 C200 1.290 . S
C834 C255 1.362 . S
C843 C268 1.355 . S
C845 C213 1.294 . S
C854 C226 1.295 . S
C856 C242 1.361 . S
C865 C239 1.285 . S
C867 C229 1.357 . S
C876 C252 1.287 . S
C878 C203 1.357 . S
C887 C216 1.351 . S
C889 C265 1.292 . S
C898 C177 1.387 . S
C900 C278 1.324 . S
C909 C190 1.386 . S
C911 C291 1.324 . S
C920 C304 1.321 . S
C922 C164 1.387 . S
C931 C463 1.357 . S
C933 C317 1.282 . S
C942 C330 1.280 . S
C944 C437 1.355 . S
C953 C343 1.288 . S
C955 C450 1.357 . S
C964 C356 1.313 . S
C966 C411 1.388 . S
C975 C424 1.392 . S
C977 C369 1.320 . S
C986 C382 1.313 . S
C988 C398 1.393 . S
C997 C385 1.335 . S
C999 C395 1.262 . S
C1008 C359 1.329 . S
C1010 C408 1.266 . S
C1019 C372 1.335 . S
C1021 C421 1.261 . S
C1030 C333 1.360 . S
C1032 C434 1.295 . S
C1041 C346 1.361 . S
C1043 C447 1.286 . S
C1052 C320 1.355 . S
C1054 C460 1.294 . S
C1063 C387 1.445 . S
C1065 C10 1.446 . S
C1074 C23 1.444 . S
C1076 C361 1.445 . S
C1085 C374 1.447 . S
C1087 C36 1.447 . S
C1096 C49 1.444 . S
C1098 C179 1.443 . S
C1107 C192 1.441 . S
C1109 C62 1.442 . S
C1118 C75 1.440 . S
C1120 C166 1.441 . S
C1129 C88 1.443 . S
C1131 C309 1.445 . S
C1140 C283 1.448 . S
C1142 C101 1.447 . S
C1151 C114 1.443 . S
C1153 C296 1.445 . S
C1162 C127 1.445 . S
C1164 C413 1.445 . S
C1173 C140 1.442 . S
C1175 C426 1.442 . S
C1184 C400 1.440 . S
C1186 C153 1.441 . S
C1195 C335 1.429 . S
C1197 C205 1.429 . S
C1206 C348 1.434 . S
C1208 C218 1.434 . S
C1217 C322 1.428 . S
C1219 C231 1.430 . S
C1228 C244 1.431 . S
C1230 C465 1.430 . S
C1239 C439 1.428 . S
C1241 C257 1.430 . S
C1250 C270 1.428 . S
C1252 C452 1.429 . S
