# Generated by pormake.
# Topology fob, (5)-cn, num edge types: 1
# Building blocks:
#     Node 0, Type 0, BuildingBlock: XOMCOT_clean_sbu_1, # of connection points: 5
#     Node 1, Type 0, BuildingBlock: XOMCOT_clean_sbu_1, # of connection points: 5
#     Node 2, Type 0, BuildingBlock: XOMCOT_clean_sbu_1, # of connection points: 5
#     Node 3, Type 0, BuildingBlock: XOMCOT_clean_sbu_1, # of connection points: 5
#     Node 4, Type 0, BuildingBlock: XOMCOT_clean_sbu_1, # of connection points: 5
#     Node 5, Type 0, BuildingBlock: XOMCOT_clean_sbu_1, # of connection points: 5
#     Node 6, Type 0, BuildingBlock: XOMCOT_clean_sbu_1, # of connection points: 5
#     Node 7, Type 0, BuildingBlock: XOMCOT_clean_sbu_1, # of connection points: 5
#     Node 8, Type 0, BuildingBlock: XOMCOT_clean_sbu_1, # of connection points: 5
#     Node 9, Type 0, BuildingBlock: XOMCOT_clean_sbu_1, # of connection points: 5
#     Node 10, Type 0, BuildingBlock: XOMCOT_clean_sbu_1, # of connection points: 5
#     Node 11, Type 0, BuildingBlock: XOMCOT_clean_sbu_1, # of connection points: 5
#     Node 12, Type 0, BuildingBlock: XOMCOT_clean_sbu_1, # of connection points: 5
#     Node 13, Type 0, BuildingBlock: XOMCOT_clean_sbu_1, # of connection points: 5
#     Node 14, Type 0, BuildingBlock: XOMCOT_clean_sbu_1, # of connection points: 5
#     Node 15, Type 0, BuildingBlock: XOMCOT_clean_sbu_1, # of connection points: 5
#     Edge 16, Type (0, 0), BuildingBlock: ZUJKAS_clean_linker_0, # of connection points: 2
#     Edge 17, Type (0, 0), BuildingBlock: ZUJKAS_clean_linker_0, # of connection points: 2
#     Edge 18, Type (0, 0), BuildingBlock: ZUJKAS_clean_linker_0, # of connection points: 2
#     Edge 19, Type (0, 0), BuildingBlock: ZUJKAS_clean_linker_0, # of connection points: 2
#     Edge 20, Type (0, 0), BuildingBlock: ZUJKAS_clean_linker_0, # of connection points: 2
#     Edge 21, Type (0, 0), BuildingBlock: ZUJKAS_clean_linker_0, # of connection points: 2
#     Edge 22, Type (0, 0), BuildingBlock: ZUJKAS_clean_linker_0, # of connection points: 2
#     Edge 23, Type (0, 0), BuildingBlock: ZUJKAS_clean_linker_0, # of connection points: 2
#     Edge 24, Type (0, 0), BuildingBlock: ZUJKAS_clean_linker_0, # of connection points: 2
#     Edge 25, Type (0, 0), BuildingBlock: ZUJKAS_clean_linker_0, # of connection points: 2
#     Edge 26, Type (0, 0), BuildingBlock: ZUJKAS_clean_linker_0, # of connection points: 2
#     Edge 27, Type (0, 0), BuildingBlock: ZUJKAS_clean_linker_0, # of connection points: 2
#     Edge 28, Type (0, 0), BuildingBlock: ZUJKAS_clean_linker_0, # of connection points: 2
#     Edge 29, Type (0, 0), BuildingBlock: ZUJKAS_clean_linker_0, # of connection points: 2
#     Edge 30, Type (0, 0), BuildingBlock: ZUJKAS_clean_linker_0, # of connection points: 2
#     Edge 31, Type (0, 0), BuildingBlock: ZUJKAS_clean_linker_0, # of connection points: 2
#     Edge 32, Type (0, 0), BuildingBlock: ZUJKAS_clean_linker_0, # of connection points: 2
#     Edge 33, Type (0, 0), BuildingBlock: ZUJKAS_clean_linker_0, # of connection points: 2
#     Edge 34, Type (0, 0), BuildingBlock: ZUJKAS_clean_linker_0, # of connection points: 2
#     Edge 35, Type (0, 0), BuildingBlock: ZUJKAS_clean_linker_0, # of connection points: 2
#     Edge 36, Type (0, 0), BuildingBlock: ZUJKAS_clean_linker_0, # of connection points: 2
#     Edge 37, Type (0, 0), BuildingBlock: ZUJKAS_clean_linker_0, # of connection points: 2
#     Edge 38, Type (0, 0), BuildingBlock: ZUJKAS_clean_linker_0, # of connection points: 2
#     Edge 39, Type (0, 0), BuildingBlock: ZUJKAS_clean_linker_0, # of connection points: 2
#     Edge 40, Type (0, 0), BuildingBlock: ZUJKAS_clean_linker_0, # of connection points: 2
#     Edge 41, Type (0, 0), BuildingBlock: ZUJKAS_clean_linker_0, # of connection points: 2
#     Edge 42, Type (0, 0), BuildingBlock: ZUJKAS_clean_linker_0, # of connection points: 2
#     Edge 43, Type (0, 0), BuildingBlock: ZUJKAS_clean_linker_0, # of connection points: 2
#     Edge 44, Type (0, 0), BuildingBlock: ZUJKAS_clean_linker_0, # of connection points: 2
#     Edge 45, Type (0, 0), BuildingBlock: ZUJKAS_clean_linker_0, # of connection points: 2
#     Edge 46, Type (0, 0), BuildingBlock: ZUJKAS_clean_linker_0, # of connection points: 2
#     Edge 47, Type (0, 0), BuildingBlock: ZUJKAS_clean_linker_0, # of connection points: 2
#     Edge 48, Type (0, 0), BuildingBlock: ZUJKAS_clean_linker_0, # of connection points: 2
#     Edge 49, Type (0, 0), BuildingBlock: ZUJKAS_clean_linker_0, # of connection points: 2
#     Edge 50, Type (0, 0), BuildingBlock: ZUJKAS_clean_linker_0, # of connection points: 2
#     Edge 51, Type (0, 0), BuildingBlock: ZUJKAS_clean_linker_0, # of connection points: 2
#     Edge 52, Type (0, 0), BuildingBlock: ZUJKAS_clean_linker_0, # of connection points: 2
#     Edge 53, Type (0, 0), BuildingBlock: ZUJKAS_clean_linker_0, # of connection points: 2
#     Edge 54, Type (0, 0), BuildingBlock: ZUJKAS_clean_linker_0, # of connection points: 2
#     Edge 55, Type (0, 0), BuildingBlock: ZUJKAS_clean_linker_0, # of connection points: 2
# Relax obj value: 0.102
# Max RMSD: 0.151
# Mean RMSD: 0.151
data_MOF--net-fob--node1-XOMCOT_clean_sbu_1--edge1-ZUJKAS_clean_linker_0
_symmetry_space_group_name_H-M    P1
_symmetry_Int_Tables_number       1
_symmetry_cell_setting            triclinic
loop_
_symmetry_equiv_pos_as_xyz
'x, y, z'
_cell_length_a     31.905031
_cell_length_b     81.661293
_cell_length_c     65.064074
_cell_angle_alpha  100.30032
_cell_angle_beta   90.022295
_cell_angle_gamma 90.093076
loop_
_atom_site_label
_atom_site_type_symbol
_atom_site_fract_x
_atom_site_fract_y
_atom_site_fract_z
_atom_type_partial_charge
C0 C 0.08292 0.16851 0.48531 0.0
C1 C 0.09355 0.18512 0.48894 0.0
N2 N 0.13528 0.18641 0.48634 0.0
N3 N 0.1177 0.15932 0.48043 0.0
C4 C 0.14915 0.17056 0.48126 0.0
H5 H 0.05173 0.16342 0.48598 0.0
Co6 Co 0.11885 0.13613 0.47389 0.0
C7 C 0.20618 0.13069 0.46066 0.0
O8 O 0.21173 0.12063 0.47408 0.0
N9 N 0.11919 0.11287 0.46733 0.0
C10 C 0.12361 0.08703 0.44969 0.0
C11 C 0.13312 0.1034 0.44952 0.0
C12 C 0.10084 0.10199 0.47796 0.0
N13 N 0.10296 0.08609 0.46752 0.0
O14 O 0.14924 0.13555 0.49872 0.0
H15 H 0.14796 0.10814 0.43683 0.0
H16 H 0.08448 0.1058 0.49259 0.0
O17 O 0.17046 0.13726 0.45894 0.0
C18 C 0.12822 0.13851 0.51552 0.0
O19 O 0.08768 0.14108 0.51446 0.0
N20 N 0.08714 0.13686 0.45018 0.0
C21 C 0.03066 0.13884 0.41823 0.0
C22 C 0.07229 0.14408 0.41683 0.0
C23 C 0.10012 0.14314 0.43316 0.0
C24 C 0.04702 0.13154 0.45167 0.0
C25 C 0.01823 0.13237 0.43583 0.0
H26 H 0.13155 0.14788 0.4323 0.0
H27 H 0.03721 0.1269 0.46548 0.0
H28 H 0.18166 0.16718 0.47837 0.0
H29 H 0.07199 0.19543 0.49273 0.0
H30 H 0.13083 0.07666 0.43736 0.0
H31 H 0.08279 0.14941 0.40363 0.0
H32 H 0.98641 0.12812 0.43742 0.0
C33 C 0.08334 0.11213 0.75035 0.0
C34 C 0.0931 0.09545 0.74695 0.0
N35 N 0.13458 0.09389 0.75007 0.0
N36 N 0.11844 0.1211 0.75557 0.0
C37 C 0.14919 0.10966 0.75524 0.0
H38 H 0.05255 0.11743 0.74925 0.0
Co39 Co 0.12063 0.14432 0.76166 0.0
C40 C 0.20787 0.14955 0.77501 0.0
O41 O 0.21377 0.15919 0.76111 0.0
N42 N 0.12215 0.16765 0.76769 0.0
C43 C 0.12885 0.19372 0.78446 0.0
C44 C 0.13647 0.17731 0.78532 0.0
C45 C 0.1052 0.17846 0.75652 0.0
N46 N 0.10902 0.19447 0.76636 0.0
O47 O 0.15132 0.14436 0.73679 0.0
H48 H 0.1502 0.17269 0.79837 0.0
H49 H 0.08954 0.17462 0.74168 0.0
O50 O 0.17195 0.14316 0.77693 0.0
C51 C 0.13018 0.14138 0.72001 0.0
O52 O 0.08952 0.1391 0.72113 0.0
N53 N 0.08861 0.14411 0.78542 0.0
C54 C 0.0322 0.14286 0.8177 0.0
C55 C 0.07214 0.13568 0.81792 0.0
C56 C 0.09997 0.13639 0.80152 0.0
C57 C 0.0501 0.15115 0.78495 0.0
C58 C 0.0216 0.15087 0.80106 0.0
H59 H 0.12995 0.13026 0.80144 0.0
H60 H 0.04126 0.15684 0.7718 0.0
H61 H 0.18176 0.1128 0.75849 0.0
H62 H 0.07116 0.08527 0.7429 0.0
H63 H 0.1356 0.20425 0.79667 0.0
H64 H 0.08131 0.12909 0.83023 0.0
H65 H 0.99137 0.15675 0.80033 0.0
C66 C 0.90989 0.85597 0.50359 0.0
C67 C 0.89775 0.83986 0.50386 0.0
N68 N 0.85562 0.83942 0.5053 0.0
N69 N 0.87573 0.86578 0.50508 0.0
C70 C 0.84305 0.85534 0.50595 0.0
H71 H 0.9416 0.86017 0.50176 0.0
Co72 Co 0.87629 0.88836 0.50334 0.0
C73 C 0.8167 0.90454 0.53532 0.0
O74 O 0.84224 0.9173 0.54009 0.0
N75 N 0.87669 0.91118 0.50065 0.0
C76 C 0.85244 0.93511 0.4934 0.0
C77 C 0.84231 0.91911 0.49526 0.0
C78 C 0.90762 0.92274 0.50159 0.0
N79 N 0.89363 0.93743 0.49733 0.0
O80 O 0.83994 0.88395 0.47999 0.0
H81 H 0.81145 0.9136 0.49287 0.0
H82 H 0.94007 0.92046 0.50466 0.0
O83 O 0.82725 0.8921 0.52143 0.0
C84 C 0.85534 0.87765 0.46238 0.0
O85 O 0.89508 0.87337 0.46133 0.0
N86 N 0.91396 0.89216 0.52593 0.0
C87 C 0.97722 0.89439 0.55584 0.0
C88 C 0.93549 0.89197 0.56124 0.0
C89 C 0.90444 0.89039 0.54591 0.0
C90 C 0.95468 0.8938 0.52029 0.0
C91 C 0.98682 0.89514 0.53504 0.0
H92 H 0.87333 0.887 0.55006 0.0
H93 H 0.96235 0.89359 0.50406 0.0
H94 H 0.81067 0.85932 0.50666 0.0
H95 H 0.91837 0.8292 0.50222 0.0
H96 H 0.83089 0.94433 0.48956 0.0
H97 H 0.92723 0.89052 0.57697 0.0
H98 H 0.01889 0.89655 0.53017 0.0
C99 C 0.90609 0.93456 0.23312 0.0
C100 C 0.89543 0.9509 0.23358 0.0
N101 N 0.85339 0.95188 0.23223 0.0
N102 N 0.87102 0.9252 0.23131 0.0
C103 C 0.83933 0.93608 0.2308 0.0
H104 H 0.93737 0.92987 0.23471 0.0
Co105 Co 0.86977 0.90273 0.23298 0.0
C106 C 0.8098 0.88704 0.20102 0.0
O107 O 0.8352 0.87425 0.19645 0.0
N108 N 0.86852 0.88003 0.23576 0.0
C109 C 0.84292 0.85625 0.24295 0.0
C110 C 0.83348 0.87222 0.24072 0.0
C111 C 0.89915 0.86853 0.23573 0.0
N112 N 0.8843 0.85394 0.23983 0.0
O113 O 0.83413 0.90746 0.25655 0.0
H114 H 0.80277 0.87787 0.24276 0.0
H115 H 0.93183 0.87066 0.23302 0.0
O116 O 0.82022 0.89945 0.21502 0.0
C117 C 0.85056 0.91329 0.2741 0.0
O118 O 0.89067 0.91704 0.27486 0.0
N119 N 0.90674 0.89856 0.21004 0.0
C120 C 0.96793 0.89485 0.17882 0.0
C121 C 0.92624 0.8984 0.17438 0.0
C122 C 0.89653 0.90078 0.19032 0.0
C123 C 0.94748 0.89607 0.21492 0.0
C124 C 0.97847 0.89393 0.19954 0.0
H125 H 0.86579 0.90495 0.18676 0.0
H126 H 0.95623 0.89628 0.23102 0.0
H127 H 0.80655 0.9326 0.23046 0.0
H128 H 0.917 0.96129 0.23512 0.0
H129 H 0.8212 0.8472 0.24716 0.0
H130 H 0.9165 0.8996 0.15878 0.0
H131 H 0.01057 0.89213 0.20404 0.0
C132 C 0.07891 0.66219 -0.00526 0.0
C133 C 0.08947 0.67881 -0.00116 0.0
N134 N 0.12949 0.68041 0.9928 0.0
N135 N 0.11198 0.65333 0.98607 0.0
C136 C 0.14243 0.66473 0.9852 0.0
H137 H 0.04892 0.65687 -0.00231 0.0
Co138 Co 0.11236 0.63034 0.97786 0.0
C139 C 0.16893 0.62482 0.94143 0.0
O140 O 0.14128 0.61473 0.93079 0.0
N141 N 0.113 0.60673 0.9705 0.0
C142 C 0.13798 0.58081 0.96541 0.0
C143 C 0.14799 0.59733 0.96687 0.0
C144 C 0.08241 0.59549 0.9722 0.0
N145 N 0.09662 0.57963 0.96881 0.0
O146 O 0.149 0.62876 0.00025 0.0
H147 H 0.17951 0.60216 0.96665 0.0
H148 H 0.05089 0.59879 0.97715 0.0
O149 O 0.16103 0.63182 0.96019 0.0
C150 C 0.13337 0.62414 0.01621 0.0
O151 O 0.09333 0.62032 0.01612 0.0
N152 N 0.07457 0.63261 0.95617 0.0
C153 C 0.01519 0.63713 0.9262 0.0
C154 C 0.05492 0.64444 0.92629 0.0
C155 C 0.08378 0.64235 0.94169 0.0
C156 C 0.03479 0.62676 0.9574 0.0
C157 C 0.00493 0.62844 0.94222 0.0
H158 H 0.11336 0.64884 0.94208 0.0
H159 H 0.02536 0.62145 0.97065 0.0
H160 H 0.17361 0.66157 0.9793 0.0
H161 H 0.06891 0.68892 0.00539 0.0
H162 H 0.16003 0.57059 0.96342 0.0
H163 H 0.0637 0.65171 0.91458 0.0
H164 H 0.97373 0.62345 0.9434 0.0
C165 C 0.07659 0.62321 0.24411 0.0
C166 C 0.08582 0.60649 0.24044 0.0
N167 N 0.12697 0.6047 0.24419 0.0
N168 N 0.11163 0.63192 0.25033 0.0
C169 C 0.14191 0.62034 0.25006 0.0
H170 H 0.04628 0.62872 0.24238 0.0
Co171 Co 0.11465 0.65492 0.25704 0.0
C172 C 0.17558 0.66144 0.29166 0.0
O173 O 0.15014 0.67253 0.3022 0.0
N174 N 0.11784 0.67848 0.26288 0.0
C175 C 0.14504 0.70387 0.26462 0.0
C176 C 0.15389 0.68732 0.26374 0.0
C177 C 0.08757 0.69003 0.26247 0.0
N178 N 0.10319 0.70559 0.26374 0.0
O179 O 0.14946 0.655 0.23357 0.0
H180 H 0.18496 0.68197 0.26251 0.0
H181 H 0.05485 0.68713 0.26009 0.0
O182 O 0.16478 0.65348 0.27372 0.0
C183 C 0.1334 0.65921 0.21746 0.0
O184 O 0.09378 0.66364 0.21793 0.0
N185 N 0.07861 0.65412 0.27985 0.0
C186 C 0.01975 0.6506 0.31049 0.0
C187 C 0.06004 0.64394 0.31109 0.0
C188 C 0.08864 0.64549 0.29536 0.0
C189 C 0.03851 0.65947 0.27819 0.0
C190 C 0.00889 0.65829 0.29364 0.0
H191 H 0.11832 0.63918 0.29537 0.0
H192 H 0.02862 0.6638 0.26426 0.0
H193 H 0.17418 0.62331 0.25431 0.0
H194 H 0.06402 0.59646 0.23512 0.0
H195 H 0.16786 0.71367 0.26454 0.0
H196 H 0.06926 0.63739 0.32345 0.0
H197 H 0.97731 0.66272 0.29196 0.0
C198 C 0.91631 0.35172 0.00042 0.0
C199 C 0.90603 0.33511 -0.00264 0.0
N200 N 0.86486 0.33374 0.00143 0.0
N201 N 0.88192 0.36086 0.00643 0.0
C202 C 0.85096 0.34958 0.00681 0.0
H203 H 0.94693 0.35685 -0.00176 0.0
Co204 Co 0.8814 0.38401 0.01215 0.0
C205 C 0.794 0.39076 0.02405 0.0
O206 O 0.7907 0.40035 0.00992 0.0
N207 N 0.8821 0.40722 0.01779 0.0
C208 C 0.87925 0.43349 0.03416 0.0
C209 C 0.8687 0.41735 0.03523 0.0
C210 C 0.90094 0.41744 0.00642 0.0
N211 N 0.89971 0.43355 0.01606 0.0
O212 O 0.85225 0.38423 0.98687 0.0
H213 H 0.85341 0.41325 0.04825 0.0
H214 H 0.91699 0.41305 0.99184 0.0
O215 O 0.82872 0.38367 0.02655 0.0
C216 C 0.87271 0.38141 0.9699 0.0
O217 O 0.91304 0.37827 0.97048 0.0
N218 N 0.91194 0.38379 0.03641 0.0
C219 C 0.96654 0.38592 0.07021 0.0
C220 C 0.92335 0.38353 0.07275 0.0
C221 C 0.89651 0.38234 0.05557 0.0
C222 C 0.95368 0.38585 0.03354 0.0
C223 C 0.9816 0.38678 0.05014 0.0
H224 H 0.86347 0.38058 0.05793 0.0
H225 H 0.96522 0.38688 0.01819 0.0
H226 H 0.81894 0.3529 0.01111 0.0
H227 H 0.92722 0.32487 0.99218 0.0
H228 H 0.8729 0.44432 0.04598 0.0
H229 H 0.91014 0.38294 0.08792 0.0
H230 H 0.01469 0.38814 0.04718 0.0
C231 C 0.92407 0.42705 0.73398 0.0
C232 C 0.91195 0.44323 0.73429 0.0
N233 N 0.8698 0.44368 0.73292 0.0
N234 N 0.88985 0.41722 0.73225 0.0
C235 C 0.85718 0.42769 0.73176 0.0
H236 H 0.9558 0.42276 0.7354 0.0
Co237 Co 0.89069 0.39443 0.73268 0.0
C238 C 0.82992 0.37967 0.70062 0.0
O239 O 0.85674 0.36775 0.6937 0.0
N240 N 0.89124 0.3713 0.73397 0.0
C241 C 0.86635 0.34679 0.73913 0.0
C242 C 0.85651 0.36301 0.73828 0.0
C243 C 0.92218 0.35976 0.73292 0.0
N244 N 0.90772 0.34472 0.73576 0.0
O245 O 0.85664 0.39806 0.75688 0.0
H246 H 0.82567 0.36847 0.74085 0.0
H247 H 0.95478 0.36213 0.73033 0.0
O248 O 0.84 0.39127 0.71573 0.0
C249 C 0.87325 0.40473 0.77408 0.0
O250 O 0.91282 0.40926 0.77427 0.0
N251 N 0.92606 0.3915 0.7092 0.0
C252 C 0.98532 0.39011 0.67741 0.0
C253 C 0.94355 0.39425 0.67409 0.0
C254 C 0.91468 0.39532 0.69035 0.0
C255 C 0.96707 0.38859 0.71309 0.0
C256 C 0.99708 0.38745 0.69732 0.0
H257 H 0.88363 0.3998 0.68788 0.0
H258 H 0.97685 0.38776 0.72878 0.0
H259 H 0.82481 0.42366 0.73079 0.0
H260 H 0.93264 0.45391 0.73614 0.0
H261 H 0.84485 0.33737 0.74257 0.0
H262 H 0.93326 0.39687 0.65915 0.0
H263 H 0.02943 0.38511 0.7009 0.0
C264 C 0.58581 0.16263 0.99046 0.0
C265 C 0.5953 0.17929 0.99283 0.0
N266 N 0.63591 0.18084 0.98775 0.0
N267 N 0.62011 0.15366 0.98377 0.0
C268 C 0.65025 0.16507 0.9824 0.0
H269 H 0.55591 0.15734 -0.00638 0.0
Co270 Co 0.622 0.13059 0.97921 0.0
C271 C 0.68342 0.12106 0.9452 0.0
O272 O 0.65843 0.10908 0.93617 0.0
N273 N 0.62379 0.10704 0.97558 0.0
C274 C 0.64919 0.08175 0.97649 0.0
C275 C 0.65919 0.09811 0.97653 0.0
C276 C 0.59259 0.09577 0.97571 0.0
N277 N 0.6072 0.08029 0.97607 0.0
O278 O 0.65727 0.13171 0.00275 0.0
H279 H 0.69046 0.10331 0.9782 0.0
H280 H 0.55975 0.09883 0.97649 0.0
O281 O 0.6719 0.13063 0.96197 0.0
C282 C 0.64093 0.12829 0.01924 0.0
O283 O 0.60104 0.12422 0.01907 0.0
N284 N 0.58543 0.13016 0.95645 0.0
C285 C 0.52422 0.13235 0.92638 0.0
C286 C 0.56569 0.13712 0.92346 0.0
C287 C 0.59552 0.13638 0.93892 0.0
C288 C 0.54476 0.12647 0.96011 0.0
C289 C 0.51379 0.12712 0.94513 0.0
H290 H 0.62616 0.14147 0.93701 0.0
H291 H 0.53584 0.12379 0.97517 0.0
H292 H 0.68206 0.16186 0.97758 0.0
H293 H 0.5741 0.18945 -0.00163 0.0
H294 H 0.6711 0.07191 0.97795 0.0
H295 H 0.57503 0.14166 0.90948 0.0
H296 H 0.48173 0.12418 0.94856 0.0
C297 C 0.58066 0.12449 0.24649 0.0
C298 C 0.58938 0.10774 0.24285 0.0
N299 N 0.63046 0.10572 0.24661 0.0
N300 N 0.61592 0.13304 0.25269 0.0
C301 C 0.64581 0.12131 0.25252 0.0
H302 H 0.55053 0.13012 0.24471 0.0
Co303 Co 0.61944 0.15606 0.25864 0.0
C304 C 0.68063 0.16369 0.29299 0.0
O305 O 0.65591 0.1755 0.30259 0.0
N306 N 0.62301 0.17962 0.26371 0.0
C307 C 0.65048 0.20478 0.26402 0.0
C308 C 0.65912 0.18821 0.26308 0.0
C309 C 0.59278 0.19134 0.26443 0.0
N310 N 0.60863 0.20676 0.26478 0.0
O311 O 0.6548 0.15552 0.23525 0.0
H312 H 0.68992 0.18265 0.26097 0.0
H313 H 0.55973 0.18866 0.26375 0.0
O314 O 0.66919 0.15485 0.27567 0.0
C315 C 0.63928 0.15979 0.21906 0.0
O316 O 0.59979 0.16439 0.21931 0.0
N317 N 0.58279 0.15592 0.28129 0.0
C318 C 0.52177 0.15291 0.31115 0.0
C319 C 0.56281 0.14739 0.31336 0.0
C320 C 0.59246 0.14855 0.29798 0.0
C321 C 0.54243 0.16037 0.27825 0.0
C322 C 0.5116 0.15933 0.29318 0.0
H323 H 0.6226 0.14286 0.29921 0.0
H324 H 0.53353 0.16393 0.26366 0.0
H325 H 0.67836 0.12419 0.25619 0.0
H326 H 0.56697 0.09784 0.23798 0.0
H327 H 0.67325 0.21442 0.26294 0.0
H328 H 0.57192 0.14194 0.32669 0.0
H329 H 0.47976 0.16288 0.29025 0.0
C330 C 0.40435 0.85096 0.99198 0.0
C331 C 0.39371 0.83441 0.98973 0.0
N332 N 0.35346 0.83332 -0.00432 0.0
N333 N 0.37112 0.8603 -0.00058 0.0
C334 C 0.3405 0.84925 0.00148 0.0
H335 H 0.43434 0.85592 0.9883 0.0
Co336 Co 0.37043 0.88337 0.00376 0.0
C337 C 0.31744 0.89361 0.04065 0.0
O338 O 0.34594 0.90481 0.04794 0.0
N339 N 0.36933 0.90702 0.00721 0.0
C340 C 0.34295 0.93233 0.00735 0.0
C341 C 0.33359 0.91598 0.00771 0.0
C342 C 0.39998 0.9183 0.00581 0.0
N343 N 0.38481 0.9338 0.00608 0.0
O344 O 0.33243 0.88241 0.98112 0.0
H345 H 0.30233 0.9108 0.00739 0.0
H346 H 0.43266 0.91527 0.00369 0.0
O347 O 0.32319 0.88397 0.02309 0.0
C348 C 0.34992 0.88563 0.96476 0.0
O349 O 0.39029 0.88892 0.96526 0.0
N350 N 0.41016 0.88364 0.02527 0.0
C351 C 0.47338 0.88403 0.05494 0.0
C352 C 0.43373 0.87751 0.05809 0.0
C353 C 0.40292 0.87697 0.04278 0.0
C354 C 0.44978 0.88825 0.02097 0.0
C355 C 0.48164 0.889 0.0358 0.0
H356 H 0.37346 0.871 0.04497 0.0
H357 H 0.45705 0.89096 0.00573 0.0
H358 H 0.30902 0.85281 0.00659 0.0
H359 H 0.41419 0.824 0.98424 0.0
H360 H 0.32049 0.94218 0.00687 0.0
H361 H 0.42679 0.87255 0.07209 0.0
H362 H 0.51231 0.89349 0.03229 0.0
C363 C 0.40736 0.92222 0.74529 0.0
C364 C 0.3955 0.93864 0.74998 0.0
N365 N 0.35579 0.93996 0.74332 0.0
N366 N 0.37545 0.91312 0.73568 0.0
C367 C 0.34437 0.92423 0.73475 0.0
H368 H 0.43764 0.91721 0.74834 0.0
Co369 Co 0.3789 0.89032 0.72573 0.0
C370 C 0.29536 0.88268 0.70847 0.0
O371 O 0.29183 0.87089 0.71971 0.0
N372 N 0.38359 0.86734 0.71578 0.0
C373 C 0.38636 0.84273 0.69473 0.0
C374 C 0.3748 0.85912 0.69637 0.0
C375 C 0.40108 0.85572 0.72553 0.0
N376 N 0.40313 0.84057 0.71308 0.0
O377 O 0.34573 0.88632 0.74849 0.0
H378 H 0.36186 0.86477 0.68395 0.0
H379 H 0.4138 0.85851 0.74116 0.0
O380 O 0.32891 0.89126 0.70925 0.0
C381 C 0.36493 0.88543 0.76533 0.0
O382 O 0.4058 0.88749 0.76608 0.0
N383 N 0.41318 0.89437 0.70416 0.0
C384 C 0.47206 0.89907 0.67424 0.0
C385 C 0.43028 0.90405 0.67252 0.0
C386 C 0.40121 0.9017 0.68781 0.0
C387 C 0.45366 0.88974 0.70628 0.0
C388 C 0.48359 0.89188 0.69144 0.0
H389 H 0.36938 0.90589 0.68655 0.0
H390 H 0.46258 0.88423 0.71956 0.0
H391 H 0.31394 0.92087 0.72796 0.0
H392 H 0.41517 0.94887 0.75724 0.0
H393 H 0.38298 0.83322 0.68094 0.0
H394 H 0.42032 0.9099 0.65966 0.0
H395 H 0.51535 0.88772 0.69329 0.0
C396 C 0.57445 0.66743 0.47845 0.0
C397 C 0.58359 0.68416 0.48164 0.0
N398 N 0.6255 0.68599 0.48062 0.0
N399 N 0.61032 0.65867 0.4753 0.0
C400 C 0.64096 0.67031 0.47687 0.0
H401 H 0.54356 0.66198 0.47856 0.0
Co402 Co 0.61351 0.63545 0.47029 0.0
C403 C 0.70288 0.63111 0.46008 0.0
O404 O 0.70812 0.62226 0.47489 0.0
N405 N 0.61578 0.61222 0.46528 0.0
C406 C 0.62381 0.58592 0.4497 0.0
C407 C 0.6325 0.60222 0.44856 0.0
C408 C 0.59661 0.60174 0.47621 0.0
N409 N 0.60109 0.58557 0.46708 0.0
O410 O 0.64113 0.6363 0.4962 0.0
H411 H 0.64855 0.60649 0.43587 0.0
H412 H 0.57894 0.60597 0.49034 0.0
O413 O 0.66672 0.63668 0.45672 0.0
C414 C 0.6188 0.63973 0.51253 0.0
O415 O 0.57839 0.64215 0.51056 0.0
N416 N 0.58432 0.63466 0.44542 0.0
C417 C 0.53098 0.6338 0.41133 0.0
C418 C 0.57409 0.63677 0.40951 0.0
C419 C 0.60025 0.63731 0.42682 0.0
C420 C 0.54286 0.63143 0.44741 0.0
C421 C 0.51555 0.63107 0.43065 0.0
H422 H 0.63303 0.63997 0.42514 0.0
H423 H 0.53087 0.62947 0.46234 0.0
H424 H 0.67395 0.66736 0.4751 0.0
H425 H 0.56106 0.69418 0.48482 0.0
H426 H 0.63198 0.57522 0.43804 0.0
H427 H 0.5876 0.63874 0.39488 0.0
H428 H 0.48249 0.62911 0.43307 0.0
C429 C 0.57707 0.61205 0.75369 0.0
C430 C 0.5876 0.59548 0.75092 0.0
N431 N 0.62962 0.59427 0.75226 0.0
N432 N 0.61218 0.62134 0.75687 0.0
C433 C 0.64376 0.61017 0.75578 0.0
H434 H 0.54576 0.61705 0.75331 0.0
Co435 Co 0.61326 0.64456 0.76142 0.0
C436 C 0.70166 0.65056 0.77264 0.0
O437 O 0.70639 0.65909 0.75748 0.0
N438 N 0.61338 0.66782 0.76602 0.0
C439 C 0.61747 0.69423 0.78182 0.0
C440 C 0.62865 0.67817 0.78288 0.0
C441 C 0.59275 0.67787 0.75503 0.0
N442 N 0.59461 0.69406 0.76437 0.0
O443 O 0.64181 0.64383 0.7358 0.0
H444 H 0.64527 0.67426 0.79565 0.0
H445 H 0.57479 0.67326 0.74107 0.0
O446 O 0.66601 0.64441 0.77584 0.0
C447 C 0.61994 0.63995 0.71936 0.0
O448 O 0.57972 0.63699 0.72114 0.0
N449 N 0.58302 0.64521 0.7859 0.0
C450 C 0.52824 0.64648 0.81944 0.0
C451 C 0.57089 0.64287 0.82159 0.0
C452 C 0.59782 0.64215 0.80453 0.0
C453 C 0.54192 0.6488 0.78352 0.0
C454 C 0.51393 0.64943 0.80002 0.0
H455 H 0.63023 0.63901 0.80637 0.0
H456 H 0.53079 0.65095 0.76851 0.0
H457 H 0.67645 0.61364 0.75772 0.0
H458 H 0.56592 0.58513 0.7478 0.0
H459 H 0.62488 0.70515 0.79332 0.0
H460 H 0.58343 0.64059 0.83629 0.0
H461 H 0.48119 0.6518 0.79734 0.0
C462 C 0.42358 0.35523 0.49773 0.0
C463 C 0.41144 0.3388 0.49409 0.0
N464 N 0.37011 0.33803 0.49817 0.0
N465 N 0.39021 0.36486 0.50415 0.0
C466 C 0.35802 0.35406 0.5042 0.0
H467 H 0.45487 0.35988 0.49592 0.0
Co468 Co 0.39217 0.38802 0.51103 0.0
C469 C 0.30585 0.39557 0.52455 0.0
O470 O 0.30244 0.40589 0.51129 0.0
N471 N 0.39517 0.41124 0.51789 0.0
C472 C 0.39331 0.43722 0.53535 0.0
C473 C 0.38308 0.42095 0.5359 0.0
C474 C 0.41332 0.42184 0.50678 0.0
N475 N 0.41243 0.4378 0.51704 0.0
O476 O 0.36187 0.38958 0.48647 0.0
H477 H 0.36872 0.41646 0.54889 0.0
H478 H 0.42734 0.41786 0.49157 0.0
O479 O 0.34021 0.38794 0.52604 0.0
C480 C 0.38093 0.38691 0.46909 0.0
O481 O 0.42088 0.38297 0.46869 0.0
N482 N 0.4237 0.38646 0.53462 0.0
C483 C 0.47951 0.38609 0.56748 0.0
C484 C 0.43629 0.38394 0.57022 0.0
C485 C 0.40885 0.384 0.5535 0.0
C486 C 0.46542 0.38837 0.53154 0.0
C487 C 0.49394 0.38807 0.54767 0.0
H488 H 0.37584 0.38228 0.556 0.0
H489 H 0.47652 0.39017 0.51639 0.0
H490 H 0.32622 0.35786 0.50834 0.0
H491 H 0.43179 0.32824 0.48919 0.0
H492 H 0.38844 0.4477 0.54786 0.0
H493 H 0.42354 0.38252 0.58521 0.0
H494 H 0.52699 0.38932 0.54453 0.0
C495 C 0.41505 0.43712 0.23374 0.0
C496 C 0.40355 0.45319 0.2329 0.0
N497 N 0.36143 0.45379 0.23143 0.0
N498 N 0.38043 0.42755 0.23267 0.0
C499 C 0.34822 0.43802 0.23136 0.0
H500 H 0.44656 0.43275 0.2356 0.0
Co501 Co 0.37982 0.40523 0.23507 0.0
C502 C 0.31805 0.3894 0.20423 0.0
O503 O 0.34433 0.37708 0.19825 0.0
N504 N 0.37886 0.38262 0.23841 0.0
C505 C 0.35282 0.3591 0.24616 0.0
C506 C 0.34379 0.37507 0.24379 0.0
C507 C 0.40915 0.37096 0.23823 0.0
N508 N 0.394 0.35652 0.24267 0.0
O509 O 0.34631 0.41046 0.25936 0.0
H510 H 0.31331 0.38089 0.24607 0.0
H511 H 0.44178 0.37284 0.23513 0.0
O512 O 0.32874 0.40164 0.21839 0.0
C513 C 0.36376 0.41744 0.27619 0.0
O514 O 0.40353 0.42159 0.2758 0.0
N515 N 0.41481 0.4007 0.21147 0.0
C516 C 0.47368 0.39668 0.17926 0.0
C517 C 0.43214 0.40097 0.17563 0.0
C518 C 0.4035 0.40337 0.19207 0.0
C519 C 0.45569 0.39774 0.21558 0.0
C520 C 0.48548 0.3953 0.19964 0.0
H521 H 0.3727 0.40791 0.18922 0.0
H522 H 0.46555 0.39783 0.23149 0.0
H523 H 0.31572 0.43417 0.23069 0.0
H524 H 0.42463 0.46371 0.23411 0.0
H525 H 0.33097 0.35024 0.2507 0.0
H526 H 0.42185 0.40265 0.16028 0.0
H527 H 0.51771 0.39291 0.2034 0.0
H528 H 0.11696 0.21654 0.50968 0.0
H529 H 0.15619 0.24248 0.51137 0.0
H530 H 0.24839 0.21682 0.46907 0.0
H531 H 0.20875 0.19088 0.46685 0.0
H532 H 0.23934 0.24997 0.52409 0.0
H533 H 0.21508 0.25634 0.44138 0.0
H534 H 0.18458 0.24224 0.45383 0.0
H535 H 0.23684 0.23675 0.44488 0.0
C536 C 0.14536 0.21641 0.50057 0.0
C537 C 0.15945 0.20159 0.488 0.0
C538 C 0.1679 0.23125 0.50166 0.0
C539 C 0.20487 0.23167 0.4901 0.0
C540 C 0.21954 0.21686 0.47785 0.0
H541 H 0.38474 0.30787 0.474 0.0
H542 H 0.34412 0.28238 0.47277 0.0
C543 C 0.19706 0.20199 0.47678 0.0
C544 C 0.22821 0.24757 0.49106 0.0
H545 H 0.26208 0.27542 0.46124 0.0
C546 C 0.24417 0.25559 0.51038 0.0
C547 C 0.23445 0.25489 0.47315 0.0
C548 C 0.21656 0.24722 0.45215 0.0
C549 C 0.26702 0.27052 0.51219 0.0
C550 C 0.27335 0.27783 0.49426 0.0
C551 C 0.25721 0.26983 0.47497 0.0
C552 C 0.29753 0.29353 0.49507 0.0
C553 C 0.28518 0.27808 0.53317 0.0
C554 C 0.28456 0.30842 0.50777 0.0
C555 C 0.30801 0.32306 0.50865 0.0
C556 C 0.34484 0.32314 0.49675 0.0
C557 C 0.3571 0.30826 0.48369 0.0
C558 C 0.33369 0.29366 0.48284 0.0
H559 H 0.2868 0.2689 0.54385 0.0
H560 H 0.31713 0.28307 0.53146 0.0
H561 H 0.26495 0.28852 0.54059 0.0
H562 H 0.25628 0.30872 0.51703 0.0
H563 H 0.29763 0.33421 0.51894 0.0
H564 H 0.96669 0.94729 0.5176 0.0
H565 H 0.00577 0.97303 0.51672 0.0
H566 H 0.91388 0.98736 0.47473 0.0
H567 H 0.87511 0.96174 0.47528 0.0
H568 H 0.04093 0.9847 0.48261 0.0
H569 H 0.92054 0.02852 0.52102 0.0
H570 H 0.9193 1.00653 0.52182 0.0
H571 H 0.90035 1.01407 0.49919 0.0
C572 C 0.9549 0.95586 0.50809 0.0
C573 C 0.91743 0.95243 0.49666 0.0
C574 C 0.97716 0.97063 0.5077 0.0
C575 C 0.96227 0.9823 0.49602 0.0
C576 C 0.92537 0.97878 0.48433 0.0
H577 H 0.08028 0.05768 0.44138 0.0
H578 H 0.0497 0.03273 0.45071 0.0
C579 C 0.90319 0.96406 0.48467 0.0
C580 C 0.98579 0.99793 0.49532 0.0
H581 H 0.97459 0.0402 0.50244 0.0
C582 C 0.02664 0.99684 0.48719 0.0
C583 C 0.96743 1.01382 0.50161 0.0
C584 C 0.92465 1.01586 0.5116 0.0
C585 C 0.04876 1.01114 0.48422 0.0
C586 C 0.02931 0.02692 0.48924 0.0
C587 C 0.98932 0.02809 0.49836 0.0
C588 C 0.04886 0.04218 0.48394 0.0
C589 C 0.09265 1.00919 0.47552 0.0
C590 C 0.05765 0.05606 0.49948 0.0
C591 C 0.07543 0.07048 0.49418 0.0
C592 C 0.08447 0.07132 0.47321 0.0
C593 C 0.0749 0.05743 0.45773 0.0
C594 C 0.05729 0.04309 0.46303 0.0
H595 H 0.1074 0.99751 0.47846 0.0
H596 H 0.09144 1.00865 0.45836 0.0
H597 H 0.11278 0.01988 0.48242 0.0
H598 H 0.05107 0.05568 0.51572 0.0
H599 H 0.0825 0.08086 0.50653 0.0
H600 H 0.20494 0.08864 0.77151 0.0
H601 H 0.24276 0.06231 0.76984 0.0
H602 H 0.1544 0.03794 0.72423 0.0
H603 H 0.11687 0.0642 0.72557 0.0
H604 H 0.20816 0.03138 0.77825 0.0
H605 H 0.27053 0.02508 0.69751 0.0
H606 H 0.25198 0.04464 0.71208 0.0
H607 H 0.21524 0.0291 0.70019 0.0
C608 C 0.19389 0.07774 0.76091 0.0
C609 C 0.15786 0.07856 0.74865 0.0
C610 C 0.21539 0.06267 0.76007 0.0
C611 C 0.20165 0.04819 0.74676 0.0
C612 C 0.16589 0.04899 0.73442 0.0
H613 H 0.28992 0.94553 0.71878 0.0
H614 H 0.25088 0.97148 0.72031 0.0
C615 C 0.14424 0.064 0.73535 0.0
C616 C 0.22379 0.03212 0.74627 0.0
H617 H 0.27935 1.00197 0.71446 0.0
C618 C 0.22391 0.02497 0.76435 0.0
C619 C 0.244 0.02372 0.72806 0.0
C620 C 0.24586 0.03104 0.70837 0.0
C621 C 0.24316 1.00953 0.76463 0.0
C622 C 0.26377 1.00118 0.74647 0.0
C623 C 0.26352 1.00833 0.72837 0.0
C624 C 0.28656 0.98521 0.74605 0.0
C625 C 0.24033 1.00214 0.78425 0.0
C626 C 0.31977 0.98425 0.75994 0.0
C627 C 0.34188 0.96938 0.75925 0.0
C628 C 0.33169 0.95511 0.74448 0.0
C629 C 0.29837 0.95612 0.73056 0.0
C630 C 0.27617 0.97102 0.7313 0.0
H631 H 0.21345 1.00734 0.79416 0.0
H632 H 0.23694 0.9884 0.78053 0.0
H633 H 0.26939 1.00514 0.79354 0.0
H634 H 0.32901 0.99508 0.77118 0.0
H635 H 0.36698 0.96912 0.77036 0.0
H636 H 0.9884 0.34216 0.74822 0.0
H637 H 0.02637 0.31646 0.75069 0.0
H638 H 0.91809 0.28749 0.72693 0.0
H639 H 0.88023 0.31305 0.72423 0.0
H640 H 0.99819 0.29196 0.77505 0.0
H641 H 0.01702 0.26482 0.69099 0.0
H642 H 0.00644 0.28665 0.70006 0.0
H643 H 0.96495 0.27162 0.69887 0.0
C644 C 0.97295 0.33031 0.74319 0.0
C645 C 0.93125 0.32966 0.73605 0.0
C646 C 0.99459 0.31564 0.74471 0.0
C647 C 0.9752 0.30005 0.73879 0.0
C648 C 0.93388 0.29936 0.73131 0.0
H649 H 0.03866 0.19714 0.74361 0.0
H650 H 0.0072 0.2229 0.73632 0.0
C651 C 0.91215 0.31399 0.72997 0.0
C652 C 0.99707 0.28455 0.74163 0.0
H653 H 0.03404 0.24738 0.71532 0.0
C654 C 0.00638 0.28226 0.762 0.0
C655 C 0.00723 0.27184 0.72458 0.0
C656 C -0.00125 0.27383 0.70236 0.0
C657 C 0.02481 0.26748 0.76584 0.0
C658 C 0.03534 0.25478 0.74878 0.0
C659 C 0.02609 0.2571 0.72838 0.0
C660 C 0.05586 0.23903 0.75189 0.0
C661 C 0.03154 0.26542 0.7882 0.0
C662 C 0.09434 0.23942 0.76244 0.0
C663 C 0.1122 0.22476 0.76668 0.0
C664 C 0.09233 0.2093 0.7602 0.0
C665 C 0.05483 0.20881 0.74873 0.0
C666 C 0.03675 0.22354 0.74463 0.0
H667 H 0.0111 0.27388 0.79913 0.0
H668 H 0.02527 0.25242 0.79021 0.0
H669 H 0.06457 0.26849 0.79268 0.0
H670 H 0.11037 0.25113 0.76764 0.0
H671 H 0.14152 0.22552 0.77517 0.0
H672 H 0.7749 0.83466 0.49183 0.0
H673 H 0.73359 0.80904 0.48904 0.0
H674 H 0.83744 0.78489 0.51368 0.0
H675 H 0.87825 0.8105 0.51719 0.0
H676 H 0.75182 0.77832 0.4654 0.0
H677 H 0.74116 0.77312 0.54899 0.0
H678 H 0.75727 0.79205 0.54054 0.0
H679 H 0.79397 0.77533 0.54041 0.0
C680 C 0.78868 0.82402 0.49705 0.0
C681 C 0.83002 0.8247 0.50473 0.0
C682 C 0.7651 0.80932 0.4953 0.0
C683 C 0.78219 0.79507 0.50138 0.0
C684 C 0.82322 0.79578 0.50925 0.0
H685 H 0.70587 0.69176 0.49402 0.0
H686 H 0.74403 0.71824 0.49845 0.0
C687 C 0.84676 0.81042 0.51101 0.0
C688 C 0.75808 0.7792 0.49853 0.0
H689 H 0.7218 0.74904 0.52433 0.0
C690 C 0.74493 0.772 0.47832 0.0
C691 C 0.74927 0.77088 0.51537 0.0
C692 C 0.76078 0.77831 0.53758 0.0
C693 C 0.72408 0.75657 0.47442 0.0
C694 C 0.71558 0.7482 0.49123 0.0
C695 C 0.72853 0.75542 0.51145 0.0
C696 C 0.69268 0.73207 0.48819 0.0
C697 C 0.71219 0.74915 0.45225 0.0
C698 C 0.65108 0.73106 0.48108 0.0
C699 C 0.62927 0.71596 0.47848 0.0
C700 C 0.6485 0.7015 0.483 0.0
C701 C 0.69024 0.70256 0.49014 0.0
C702 C 0.71201 0.71772 0.49282 0.0
H703 H 0.72999 0.75493 0.44072 0.0
H704 H 0.7178 0.73552 0.44903 0.0
H705 H 0.67832 0.7513 0.44992 0.0
H706 H 0.6353 0.74201 0.4777 0.0
H707 H 0.59738 0.71561 0.47277 0.0
H708 H 0.87399 0.98257 0.25303 0.0
H709 H 0.83388 1.00817 0.25483 0.0
H710 H 0.73732 0.98115 0.21644 0.0
H711 H 0.7774 0.95532 0.21471 0.0
H712 H 0.8103 0.02386 0.22315 0.0
H713 H 0.66981 1.00636 0.26477 0.0
H714 H 0.71777 0.9945 0.26287 0.0
H715 H 0.68207 0.99217 0.24115 0.0
C716 C 0.8443 0.98204 0.24489 0.0
C717 C 0.82895 0.96689 0.23365 0.0
C718 C 0.8213 0.9967 0.24602 0.0
C719 C 0.78237 0.99658 0.23597 0.0
C720 C 0.76685 0.98149 0.22471 0.0
H721 H 0.60907 0.0761 0.22264 0.0
H722 H 0.64617 0.04969 0.21979 0.0
C723 C 0.7898 0.96674 0.22368 0.0
C724 C 0.75902 1.01242 0.23686 0.0
H725 H 0.66691 0.03202 0.25259 0.0
C726 C 0.77897 0.02565 0.22963 0.0
C727 C 0.71813 1.01474 0.2453 0.0
C728 C 0.69575 1.00126 0.25415 0.0
C729 C 0.75912 0.04109 0.2305 0.0
C730 C 0.71838 0.04343 0.23904 0.0
C731 C 0.69818 0.03017 0.24607 0.0
C732 C 0.69618 0.05957 0.24085 0.0
C733 C 0.78165 0.05471 0.22201 0.0
C734 C 0.71183 0.07388 0.25379 0.0
C735 C 0.69049 0.08904 0.2556 0.0
C736 C 0.65297 0.09016 0.24455 0.0
C737 C 0.63747 0.07573 0.23162 0.0
C738 C 0.65876 0.0606 0.22987 0.0
H739 H 0.8081 0.04977 0.21164 0.0
H740 H 0.7598 0.06142 0.21314 0.0
H741 H 0.79455 0.06383 0.23521 0.0
H742 H 0.7403 0.07329 0.2627 0.0
H743 H 0.70305 0.09977 0.26596 0.0
H744 H 0.9649 0.85209 0.25255 0.0
H745 H 0.0035 0.82682 0.25622 0.0
H746 H 0.89511 0.79702 0.23478 0.0
H747 H 0.85655 0.82216 0.23085 0.0
H748 H 0.97652 0.80235 0.28188 0.0
H749 H 0.9947 0.7753 0.19767 0.0
H750 H 0.98387 0.7971 0.20679 0.0
H751 H 0.94271 0.78198 0.20591 0.0
C752 C 0.9495 0.84014 0.24835 0.0
C753 C 0.90768 0.83912 0.24139 0.0
C754 C 0.97149 0.82575 0.25058 0.0
C755 C 0.95222 0.81008 0.24559 0.0
C756 C 0.91065 0.80899 0.23849 0.0
H757 H 0.02667 0.70821 0.24598 0.0
H758 H 0.98973 0.73376 0.24278 0.0
C759 C 0.88857 0.82337 0.23642 0.0
C760 C 0.97503 0.79487 0.24845 0.0
H761 H 0.01445 0.75831 0.22193 0.0
C762 C 0.98509 0.79274 0.2688 0.0
C763 C 0.98579 0.78236 0.23134 0.0
C764 C 0.97657 0.78427 0.20915 0.0
C765 C 0.00495 0.77822 0.27254 0.0
C766 C 0.01593 0.7657 0.2554 0.0
C767 C 0.00598 0.7679 0.23504 0.0
C768 C 0.03784 0.75022 0.2582 0.0
C769 C 0.01289 0.77623 0.29483 0.0
C770 C 0.07725 0.75096 0.2679 0.0
C771 C 0.09827 0.73635 0.27002 0.0
C772 C 0.08058 0.72065 0.26225 0.0
C773 C 0.04106 0.71999 0.25249 0.0
C774 C 0.01999 0.73462 0.25047 0.0
H775 H 0.99223 0.78444 0.30593 0.0
H776 H 0.00789 0.76315 0.29685 0.0
H777 H 0.04585 0.77969 0.29902 0.0
H778 H 0.09205 0.76284 0.27362 0.0
H779 H 0.12843 0.73737 0.27775 0.0
H780 H 0.36541 0.80339 0.97063 0.0
H781 H 0.32625 0.77772 0.97087 0.0
H782 H 0.24801 0.80313 0.0205 0.0
H783 H 0.28716 0.82893 0.02037 0.0
H784 H 0.3167 0.76013 0.003 0.0
H785 H 0.16197 0.78084 0.97824 0.0
H786 H 0.20969 0.79228 0.97597 0.0
H787 H 0.18379 0.79398 0.00079 0.0
C788 C 0.33999 0.80355 0.98167 0.0
C789 C 0.32949 0.81827 -0.00451 0.0
C790 C 0.31749 0.78886 0.98172 0.0
C791 C 0.28385 0.78853 -0.00448 0.0
C792 C 0.27325 0.80317 0.00939 0.0
H793 H 0.1168 0.70967 0.01932 0.0
H794 H 0.15503 0.73575 0.02033 0.0
C795 C 0.29569 0.81792 0.0093 0.0
C796 C 0.26084 0.7727 -0.00429 0.0
H797 H 0.1642 0.75446 0.98858 0.0
C798 C 0.28338 0.75887 -0.00021 0.0
C799 C 0.21734 0.77108 0.99155 0.0
C800 C 0.19176 0.78527 0.9862 0.0
C801 C 0.26355 0.74353 6e-05 0.0
C802 C 0.22011 0.74189 -0.0042 0.0
C803 C 0.1975 0.75574 0.99185 0.0
C804 C 0.19751 0.72589 -0.00471 0.0
C805 C 0.28916 0.7293 0.00528 0.0
C806 C 0.20844 0.71168 0.98075 0.0
C807 C 0.18651 0.69673 0.98007 0.0
C808 C 0.15293 0.69571 -0.00618 0.0
C809 C 0.14209 0.71001 0.00833 0.0
C810 C 0.16405 0.72494 0.00901 0.0
H811 H 0.31879 0.73373 0.01342 0.0
H812 H 0.27112 0.72215 0.0153 0.0
H813 H 0.29742 0.72073 0.99062 0.0
H814 H 0.23356 0.71222 0.9697 0.0
H815 H 0.1953 0.6861 0.96845 0.0
H816 H 0.9131 0.43809 0.97623 0.0
H817 H 0.94628 0.46228 0.96518 0.0
H818 H 0.96268 0.48529 0.02966 0.0
H819 H 0.93029 0.46123 0.04077 0.0
H820 H 0.92094 0.49757 0.97647 0.0
H821 H 0.08169 0.48522 0.00266 0.0
H822 H 0.04146 0.46939 -0.00172 0.0
H823 H 0.04129 0.48474 0.0218 0.0
C824 C 0.92405 0.44826 0.98802 0.0
C825 C 0.91901 0.44772 0.00938 0.0
C826 C 0.94275 0.46209 0.9817 0.0
C827 C 0.95721 0.47549 -0.00338 0.0
C828 C 0.95207 0.47501 0.0179 0.0
H829 H 0.02631 0.57698 0.99181 0.0
H830 H 0.99084 0.55136 -0.00354 0.0
C831 C 0.93319 0.46129 0.02422 0.0
C832 C 0.97762 0.49008 0.99014 0.0
H833 H 0.06975 0.51172 -0.0065 0.0
C834 C 0.95355 0.50062 0.98002 0.0
C835 C 0.02024 0.49392 -0.00535 0.0
C836 C 0.0479 0.48267 0.00479 0.0
C837 C 0.97075 0.51523 0.97484 0.0
C838 C 0.01295 0.5194 0.98009 0.0
C839 C 0.0373 0.50857 0.98964 0.0
C840 C 0.03253 0.53503 0.97607 0.0
C841 C 0.9437 0.52604 0.96375 0.0
C842 C 0.06792 0.53438 0.96318 0.0
C843 C 0.08824 0.54902 0.96044 0.0
C844 C 0.07386 0.56464 0.9707 0.0
C845 C 0.03796 0.56525 0.98339 0.0
C846 C 0.01759 0.55058 0.98608 0.0
H847 H 0.91615 0.51911 0.95617 0.0
H848 H 0.93197 0.53673 0.97527 0.0
H849 H 0.96195 0.53103 0.95171 0.0
H850 H 0.08001 0.52251 0.95533 0.0
H851 H 0.11538 0.54807 0.95033 0.0
H852 H 0.20971 0.5998 0.23556 0.0
H853 H 0.2483 0.5736 0.23242 0.0
H854 H 0.13523 0.54851 0.24588 0.0
H855 H 0.09648 0.57461 0.24895 0.0
H856 H 0.26071 0.55361 0.26142 0.0
H857 H 0.17546 0.51865 0.19303 0.0
H858 H 0.17085 0.5409 0.20099 0.0
H859 H 0.1418 0.52711 0.21438 0.0
C860 C 0.19308 0.58873 0.23791 0.0
C861 C 0.14992 0.5893 0.24238 0.0
C862 C 0.21513 0.57374 0.23601 0.0
C863 C 0.19449 0.55902 0.23852 0.0
C864 C 0.15157 0.5596 0.24329 0.0
H865 H 0.2796 0.45849 0.24299 0.0
H866 H 0.23852 0.48394 0.24436 0.0
C867 C 0.12946 0.57455 0.24508 0.0
C868 C 0.21817 0.5432 0.23681 0.0
H869 H 0.22206 0.50303 0.21056 0.0
C870 C 0.25239 0.54259 0.25022 0.0
C871 C 0.20722 0.5288 0.2222 0.0
C872 C 0.17208 0.52888 0.20669 0.0
C873 C 0.27561 0.52792 0.24962 0.0
C874 C 0.26455 0.51354 0.23509 0.0
C875 C 0.2303 0.51409 0.22172 0.0
C876 C 0.2888 0.4979 0.23335 0.0
C877 C 0.31144 0.52782 0.26474 0.0
C878 C 0.33031 0.49723 0.22622 0.0
C879 C 0.35376 0.48268 0.22522 0.0
C880 C 0.33622 0.46847 0.23136 0.0
C881 C 0.29414 0.46909 0.23799 0.0
C882 C 0.27063 0.48366 0.2389 0.0
H883 H 0.31025 0.53866 0.27777 0.0
H884 H 0.31119 0.51621 0.27139 0.0
H885 H 0.34154 0.52834 0.25634 0.0
H886 H 0.34462 0.50801 0.2215 0.0
H887 H 0.38567 0.48261 0.21959 0.0
H888 H 0.72006 0.18557 0.99262 0.0
H889 H 0.75838 0.21181 -0.00523 0.0
H890 H 0.64285 0.23719 0.9866 0.0
H891 H 0.60438 0.21107 0.98428 0.0
H892 H 0.76387 0.2334 0.96573 0.0
H893 H 0.69166 0.26504 0.03987 0.0
H894 H 0.68776 0.24286 0.03087 0.0
H895 H 0.6546 0.25685 0.01986 0.0
C896 C 0.70278 0.19669 0.99113 0.0
C897 C 0.65898 0.19618 0.98846 0.0
C898 C 0.72474 0.2117 0.99247 0.0
C899 C 0.70337 0.22652 0.99125 0.0
C900 C 0.65985 0.226 0.98812 0.0
H901 H 0.78077 0.32949 -0.00457 0.0
H902 H 0.74132 0.30344 0.99266 0.0
C903 C 0.63789 0.21102 0.9868 0.0
C904 C 0.72661 0.24248 0.99295 0.0
H905 H 0.73435 0.28166 0.02187 0.0
C906 C 0.75757 0.24393 0.97806 0.0
C907 C 0.71821 0.25622 0.009 0.0
C908 C 0.68653 0.25519 0.02594 0.0
C909 C 0.77995 0.25884 0.9786 0.0
C910 C 0.77162 0.27256 -0.00532 0.0
C911 C 0.74057 0.27113 0.00953 0.0
C912 C 0.79545 0.2884 -0.00339 0.0
C913 C 0.81177 0.25987 0.96173 0.0
C914 C 0.83882 0.28864 0.00016 0.0
C915 C 0.8614 0.3035 0.00188 0.0
C916 C 0.84111 0.31849 0.00015 0.0
C917 C 0.79744 0.31825 -0.00302 0.0
C918 C 0.77484 0.30335 -0.00471 0.0
H919 H 0.80662 0.25005 0.94776 0.0
H920 H 0.81072 0.27222 0.95685 0.0
H921 H 0.84363 0.25814 0.96784 0.0
H922 H 0.85521 0.27733 0.00175 0.0
H923 H 0.89475 0.30322 0.00478 0.0
H924 H 0.71101 0.58962 0.74007 0.0
H925 H 0.75112 0.5637 0.73619 0.0
H926 H 0.64375 0.53862 0.75631 0.0
H927 H 0.60361 0.56439 0.7603 0.0
H928 H 0.77092 0.54405 0.7655 0.0
H929 H 0.67476 0.50815 0.70187 0.0
H930 H 0.67089 0.53046 0.70941 0.0
H931 H 0.64503 0.51704 0.72453 0.0
C932 C 0.69596 0.57863 0.74377 0.0
C933 C 0.65386 0.57912 0.75032 0.0
C934 C 0.71889 0.56378 0.74145 0.0
C935 C 0.7002 0.54911 0.74554 0.0
C936 C 0.65852 0.54964 0.75249 0.0
H937 H 0.78846 0.44801 0.74554 0.0
H938 H 0.74698 0.47355 0.74847 0.0
C939 C 0.63558 0.56444 0.75478 0.0
C940 C 0.72451 0.53333 0.74303 0.0
H941 H 0.72538 0.4929 0.7175 0.0
C942 C 0.7611 0.5329 0.75491 0.0
C943 C 0.7116 0.51874 0.72927 0.0
C944 C 0.67365 0.5186 0.71539 0.0
C945 C 0.78471 0.51823 0.75368 0.0
C946 C 0.77177 0.50365 0.73994 0.0
C947 C 0.73517 0.50406 0.72807 0.0
C948 C 0.79633 0.48796 0.73741 0.0
C949 C 0.82288 0.51838 0.76741 0.0
C950 C 0.83744 0.48744 0.72971 0.0
C951 C 0.86111 0.47286 0.72789 0.0
C952 C 0.84421 0.4584 0.73368 0.0
C953 C 0.80249 0.45882 0.74082 0.0
C954 C 0.77878 0.47345 0.74261 0.0
H955 H 0.82244 0.52903 0.78069 0.0
H956 H 0.82521 0.50664 0.77372 0.0
H957 H 0.85142 0.51953 0.75803 0.0
H958 H 0.8513 0.49835 0.72511 0.0
H959 H 0.8927 0.47294 0.72188 0.0
H960 H 0.53059 0.07889 -0.00599 0.0
H961 H 0.49257 0.05383 -0.00106 0.0
H962 H 0.59165 0.02328 0.96759 0.0
H963 H 0.62981 0.04825 0.96257 0.0
H964 H 0.46341 0.02679 0.97003 0.0
H965 H 0.58152 1.00661 0.02294 0.0
H966 H 0.58158 0.02719 0.01644 0.0
H967 H 0.60246 1.00988 -0.00162 0.0
C968 C 0.54411 0.06685 0.98795 0.0
C969 C 0.58344 0.06559 0.97801 0.0
C970 C 0.52244 0.05254 0.99089 0.0
C971 C 0.53968 0.0367 0.98401 0.0
C972 C 0.57827 0.03538 0.97352 0.0
H973 H 0.45977 0.93541 0.98654 0.0
H974 H 0.49697 0.96055 0.98133 0.0
C975 C 0.60001 0.04967 0.97063 0.0
C976 C 0.51724 0.02157 0.98772 0.0
H977 H 0.52664 0.98754 0.01125 0.0
C978 C 0.47711 0.01824 0.97913 0.0
C979 C 0.53522 1.01044 -0.0004 0.0
C980 C 0.57739 1.01374 0.01005 0.0
C981 C 0.45479 1.00391 0.98174 0.0
C982 C 0.47285 0.99276 -0.00646 0.0
C983 C 0.51294 0.99609 0.00216 0.0
C984 C 0.45058 0.97757 -0.00284 0.0
C985 C 0.41246 1.00064 0.97146 0.0
C986 C 0.41261 0.97881 0.00818 0.0
C987 C 0.39138 0.96447 0.0113 0.0
C988 C 0.40778 0.94857 0.00357 0.0
C989 C 0.44637 0.9474 0.99292 0.0
C990 C 0.46758 0.96177 0.9898 0.0
H991 H 0.40779 1.00801 0.95885 0.0
H992 H 0.40852 0.98724 0.96476 0.0
H993 H 0.38758 1.0042 0.98332 0.0
H994 H 0.39943 0.99089 0.01442 0.0
H995 H 0.36219 0.96584 0.0199 0.0
H996 H 0.4751 0.35415 0.25442 0.0
H997 H 0.51263 0.32877 0.25834 0.0
H998 H 0.40236 0.29961 0.23833 0.0
H999 H 0.36466 0.32493 0.23456 0.0
H1000 H 0.43668 0.29135 0.27333 0.0
H1001 H 0.56017 0.2927 0.21363 0.0
H1002 H 0.55765 0.31138 0.2329 0.0
H1003 H 0.51424 0.30575 0.2154 0.0
C1004 C 0.45907 0.34231 0.25056 0.0
C1005 C 0.4169 0.34156 0.24415 0.0
C1006 C 0.48056 0.3278 0.25279 0.0
C1007 C 0.46049 0.31225 0.24835 0.0
C1008 C 0.4185 0.31146 0.24183 0.0
H1009 H 0.52984 0.20969 0.24969 0.0
H1010 H 0.49329 0.23541 0.24674 0.0
C1011 C 0.39694 0.32595 0.23975 0.0
C1012 C 0.48257 0.29682 0.25123 0.0
H1013 H 0.56811 0.27265 0.23569 0.0
C1014 C 0.46532 0.28722 0.26503 0.0
C1015 C 0.51996 0.29145 0.24039 0.0
C1016 C 0.53893 0.30076 0.2246 0.0
C1017 C 0.48469 0.27252 0.26847 0.0
C1018 C 0.52209 0.26721 0.2577 0.0
C1019 C 0.53947 0.27681 0.24397 0.0
C1020 C 0.54353 0.25163 0.26031 0.0
C1021 C 0.46539 0.26292 0.28386 0.0
C1022 C 0.584 0.25222 0.2688 0.0
C1023 C 0.60493 0.23753 0.27066 0.0
C1024 C 0.58598 0.22192 0.26385 0.0
C1025 C 0.54521 0.22142 0.25545 0.0
C1026 C 0.52425 0.23613 0.25367 0.0
H1027 H 0.44234 0.27053 0.29424 0.0
H1028 H 0.44882 0.25185 0.27518 0.0
H1029 H 0.48993 0.2585 0.29367 0.0
H1030 H 0.59939 0.26407 0.27401 0.0
H1031 H 0.636 0.23843 0.27744 0.0
H1032 H 0.43281 0.81404 0.68559 0.0
H1033 H 0.46256 0.78845 0.69362 0.0
H1034 H 0.44718 0.8072 0.75944 0.0
H1035 H 0.41567 0.83262 0.75154 0.0
H1036 H 0.53259 0.78383 0.71559 0.0
H1037 H 0.3935 0.76165 0.75375 0.0
H1038 H 0.39067 0.77829 0.73892 0.0
H1039 H 0.40958 0.78229 0.7654 0.0
C1040 C 0.435 0.81269 0.70179 0.0
C1041 C 0.42133 0.82546 0.71789 0.0
C1042 C 0.4524 0.79805 0.70635 0.0
C1043 C 0.45651 0.79574 0.72711 0.0
C1044 C 0.4435 0.80851 0.74327 0.0
H1045 H 0.56694 0.7219 0.7898 0.0
H1046 H 0.53357 0.74607 0.77955 0.0
C1047 C 0.42593 0.82317 0.73872 0.0
C1048 C 0.47545 0.78016 0.73179 0.0
H1049 H 0.4576 0.74737 0.75677 0.0
C1050 C 0.51606 0.77579 0.72445 0.0
C1051 C 0.45383 0.76962 0.74329 0.0
C1052 C 0.40934 0.77308 0.75063 0.0
C1053 C 0.53605 0.76145 0.72879 0.0
C1054 C 0.51468 0.75108 0.74058 0.0
C1055 C 0.47394 0.75534 0.74774 0.0
C1056 C 0.53473 0.73615 0.74644 0.0
C1057 C 0.58033 0.75776 0.72127 0.0
C1058 C 0.54605 0.7224 0.73123 0.0
C1059 C 0.56536 0.7085 0.73706 0.0
C1060 C 0.57379 0.70813 0.7582 0.0
C1061 C 0.56176 0.72186 0.77336 0.0
C1062 C 0.54234 0.73566 0.76754 0.0
H1063 H 0.59527 0.76863 0.7161 0.0
H1064 H 0.59986 0.75402 0.73378 0.0
H1065 H 0.57999 0.74726 0.70783 0.0
H1066 H 0.53991 0.72242 0.71486 0.0
H1067 H 0.57428 0.69817 0.72502 0.0
H1068 H 0.62895 0.55376 0.45721 0.0
H1069 H 0.59565 0.5288 0.46541 0.0
H1070 H 0.49968 0.55897 0.50011 0.0
H1071 H 0.53194 0.58402 0.49129 0.0
H1072 H 0.5792 0.51929 0.5028 0.0
H1073 H 0.43062 0.52529 0.46041 0.0
H1074 H 0.47655 0.53752 0.45727 0.0
H1075 H 0.44337 0.54318 0.47974 0.0
C1076 C 0.60053 0.55513 0.46641 0.0
C1077 C 0.58292 0.57096 0.47333 0.0
C1078 C 0.58167 0.54082 0.47121 0.0
C1079 C 0.54467 0.54194 0.48302 0.0
C1080 C 0.52767 0.55774 0.49056 0.0
H1081 H 0.38674 0.46972 0.52867 0.0
H1082 H 0.41955 0.49469 0.52004 0.0
C1083 C 0.54651 0.5721 0.48572 0.0
C1084 C 0.52424 0.52653 0.48746 0.0
H1085 H 0.43334 0.50396 0.4808 0.0
C1086 C 0.54736 0.51591 0.49792 0.0
C1087 C 0.48272 0.52208 0.48102 0.0
C1088 C 0.45693 0.53251 0.46882 0.0
C1089 C 0.52989 0.50114 0.50245 0.0
C1090 C 0.48834 0.49673 0.4961 0.0
C1091 C 0.4652 0.50734 0.48564 0.0
C1092 C 0.46796 0.48138 0.50065 0.0
C1093 C 0.55572 0.49056 0.51445 0.0
C1094 C 0.4837 0.46553 0.49225 0.0
C1095 C 0.46502 0.45118 0.49721 0.0
C1096 C 0.43022 0.45242 0.51068 0.0
C1097 C 0.41391 0.46831 0.51856 0.0
C1098 C 0.43248 0.48261 0.51355 0.0
H1099 H 0.583 0.49751 0.52229 0.0
H1100 H 0.53638 0.48597 0.52644 0.0
H1101 H 0.56777 0.4796 0.50349 0.0
H1102 H 0.51063 0.46427 0.48196 0.0
H1103 H 0.47849 0.43918 0.49093 0.0
H1104 H 0.27948 0.11346 0.4525 0.0
H1105 H 0.33447 0.11812 0.42797 0.0
H1106 H 0.26574 0.15999 0.41321 0.0
H1107 H 0.21032 0.15521 0.43732 0.0
H1108 H 0.29152 0.13891 0.37846 0.0
H1109 H 0.42413 0.15383 0.43384 0.0
H1110 H 0.39924 0.13434 0.43523 0.0
H1111 H 0.37041 0.15342 0.44242 0.0
C1112 C 0.2763 0.12374 0.44417 0.0
C1113 C 0.24056 0.13393 0.44677 0.0
C1114 C 0.30783 0.12645 0.43025 0.0
C1115 C 0.30441 0.13954 0.419 0.0
C1116 C 0.26899 0.14984 0.42178 0.0
H1117 H 0.4594 0.17487 0.32595 0.0
H1118 H 0.40581 0.17183 0.35196 0.0
C1119 C 0.23734 0.14707 0.43553 0.0
C1120 C 0.33664 0.14202 0.40351 0.0
H1121 H 0.44109 0.14901 0.39758 0.0
C1122 C 0.32416 0.14124 0.38266 0.0
C1123 C 0.37918 0.14508 0.40908 0.0
C1124 C 0.39405 0.14688 0.43139 0.0
C1125 C 0.35327 0.14313 0.36713 0.0
C1126 C 0.39579 0.14596 0.37266 0.0
C1127 C 0.40835 0.1468 0.39348 0.0
C1128 C 0.42786 0.14781 0.35694 0.0
C1129 C 0.33863 0.14177 0.34483 0.0
C1130 C 0.45794 0.13535 0.35135 0.0
C1131 C 0.48828 0.13696 0.3364 0.0
C1132 C 0.48932 0.15118 0.32696 0.0
C1133 C 0.45913 0.16369 0.33273 0.0
C1134 C 0.42863 0.16201 0.34761 0.0
H1135 H 0.30617 0.13683 0.34259 0.0
H1136 H 0.33935 0.15429 0.34041 0.0
H1137 H 0.35988 0.13356 0.33407 0.0
H1138 H 0.45762 0.12429 0.35839 0.0
H1139 H 0.51055 0.12695 0.33206 0.0
H1140 H 0.7425 0.14219 0.27618 0.0
H1141 H 0.80915 0.13682 0.29242 0.0
H1142 H 0.77585 0.17194 0.34768 0.0
H1143 H 0.7098 0.17765 0.3315 0.0
H1144 H 0.85698 0.17598 0.33445 0.0
H1145 H 0.82383 0.10972 0.33893 0.0
H1146 H 0.82033 0.11513 0.3134 0.0
H1147 H 0.78354 0.12376 0.33329 0.0
C1148 C 0.74938 0.14875 0.29181 0.0
C1149 C 0.72083 0.16031 0.30261 0.0
C1150 C 0.78737 0.14561 0.30107 0.0
C1151 C 0.79712 0.15384 0.32132 0.0
C1152 C 0.76884 0.16546 0.33203 0.0
H1153 H 0.95211 0.15158 0.42422 0.0
H1154 H 0.89992 0.15466 0.39767 0.0
C1155 C 0.73107 0.16868 0.32277 0.0
C1156 C 0.83668 0.1505 0.33164 0.0
H1157 H 0.88777 0.12092 0.3531 0.0
C1158 C 0.86402 0.16389 0.33828 0.0
C1159 C 0.84568 0.13469 0.33659 0.0
C1160 C 0.81674 0.12 0.33035 0.0
C1161 C 0.89936 0.16203 0.35043 0.0
C1162 C 0.90742 0.14642 0.35598 0.0
C1163 C 0.88132 0.13283 0.3486 0.0
C1164 C 0.93964 0.14457 0.37157 0.0
C1165 C 0.92704 0.17687 0.35801 0.0
C1166 C 0.97907 0.13787 0.36549 0.0
C1167 C 0.00905 0.13611 0.38064 0.0
C1168 C -0.00039 0.14086 0.40199 0.0
C1169 C 0.96 0.1476 0.4079 0.0
C1170 C 0.9303 0.14945 0.3928 0.0
H1171 H 0.92015 0.18745 0.34992 0.0
H1172 H 0.92215 0.18106 0.37503 0.0
H1173 H 0.96055 0.17339 0.35559 0.0
H1174 H 0.98655 0.13403 0.3491 0.0
H1175 H 0.0393 0.13081 0.37571 0.0
H1176 H 0.28178 0.16659 0.7821 0.0
H1177 H 0.33656 0.16277 0.80711 0.0
H1178 H 0.26619 0.12236 0.82491 0.0
H1179 H 0.2109 0.12632 0.8003 0.0
H1180 H 0.29334 0.14454 0.85851 0.0
H1181 H 0.42463 0.12671 0.80322 0.0
H1182 H 0.40055 0.14607 0.80058 0.0
H1183 H 0.37083 0.12706 0.79473 0.0
C1184 C 0.27817 0.15679 0.7912 0.0
C1185 C 0.24203 0.14678 0.78927 0.0
C1186 C 0.30959 0.15457 0.8054 0.0
C1187 C 0.30569 0.14212 0.81762 0.0
C1188 C 0.26983 0.13201 0.81557 0.0
H1189 H 0.45997 0.11063 0.91366 0.0
H1190 H 0.40607 0.11287 0.8875 0.0
C1191 C 0.23827 0.13431 0.80152 0.0
C1192 C 0.338 0.14015 0.8333 0.0
H1193 H 0.44229 0.13304 0.83939 0.0
C1194 C 0.32585 0.14189 0.85432 0.0
C1195 C 0.38036 0.13669 0.82775 0.0
C1196 C 0.39487 0.13386 0.80532 0.0
C1197 C 0.35512 0.1406 0.87002 0.0
C1198 C 0.39748 0.13737 0.86448 0.0
C1199 C 0.40969 0.13555 0.8435 0.0
C1200 C 0.42974 0.13603 0.88033 0.0
C1201 C 0.34082 0.14302 0.89246 0.0
C1202 C 0.46091 0.14825 0.88471 0.0
C1203 C 0.49149 0.1471 0.89972 0.0
C1204 C 0.49164 0.13358 0.91045 0.0
C1205 C 0.46039 0.1213 0.90587 0.0
C1206 C 0.42968 0.12252 0.89092 0.0
H1207 H 0.30877 0.14836 0.8945 0.0
H1208 H 0.3406 0.13082 0.89771 0.0
H1209 H 0.36277 0.15136 0.90271 0.0
H1210 H 0.46127 0.15878 0.87667 0.0
H1211 H 0.51463 0.15693 0.90311 0.0
H1212 H 0.94829 0.13692 0.81268 0.0
H1213 H 0.89622 0.13517 0.8396 0.0
H1214 H 0.99267 0.14285 0.88676 0.0
H1215 H 0.04529 0.14521 0.85991 0.0
H1216 H 0.93084 0.11385 0.88561 0.0
H1217 H 0.85886 0.17595 0.88691 0.0
H1218 H 0.86863 0.16398 0.86135 0.0
H1219 H 0.91197 0.17111 0.87822 0.0
C1220 C 0.95851 0.13853 0.82879 0.0
C1221 C 0.00093 0.14143 0.83417 0.0
C1222 C 0.92871 0.13742 0.84411 0.0
C1223 C 0.94071 0.13908 0.86508 0.0
C1224 C 0.98299 0.14163 0.8706 0.0
H1225 H 0.7419 0.1451 0.95899 0.0
H1226 H 0.80884 0.1497 0.94255 0.0
C1227 C 0.01293 0.14288 0.85524 0.0
C1228 C 0.90861 0.1378 0.88098 0.0
H1229 H 0.8191 0.1564 0.90206 0.0
C1230 C 0.90676 0.12325 0.88955 0.0
C1231 C 0.87765 0.15019 0.88615 0.0
C1232 C 0.87936 0.16628 0.87785 0.0
C1233 C 0.87316 0.12035 0.90233 0.0
C1234 C 0.84069 0.13225 0.90637 0.0
C1235 C 0.84392 0.14724 0.89879 0.0
C1236 C 0.80162 0.12891 0.91706 0.0
C1237 C 0.87223 0.10442 0.91104 0.0
C1238 C 0.77535 0.1158 0.908 0.0
C1239 C 0.73707 0.11319 0.91724 0.0
C1240 C 0.72428 0.12371 0.93567 0.0
C1241 C 0.7508 0.1368 0.94477 0.0
C1242 C 0.78908 0.13943 0.93546 0.0
H1243 H 0.90419 0.09918 0.91184 0.0
H1244 H 0.85814 0.10645 0.92689 0.0
H1245 H 0.85295 0.09506 0.90066 0.0
H1246 H 0.78408 0.10779 0.89352 0.0
H1247 H 0.71736 0.10302 0.90981 0.0
H1248 H 0.55281 0.90984 0.68062 0.0
H1249 H 0.60682 0.91097 0.65431 0.0
H1250 H 0.51722 0.89424 0.60539 0.0
H1251 H 0.46289 0.89288 0.63169 0.0
H1252 H 0.63228 0.88292 0.62408 0.0
H1253 H 0.57477 0.93551 0.5879 0.0
H1254 H 0.55753 0.93225 0.6133 0.0
H1255 H 0.53744 0.91938 0.59012 0.0
C1256 C 0.54454 0.90642 0.66427 0.0
C1257 C 0.50367 0.90116 0.65822 0.0
C1258 C 0.57536 0.90715 0.64928 0.0
C1259 C 0.56588 0.90276 0.62797 0.0
C1260 C 0.52492 0.8979 0.62179 0.0
H1261 H 0.75963 0.87911 0.53215 0.0
H1262 H 0.69615 0.87814 0.55303 0.0
C1263 C 0.49397 0.89715 0.63681 0.0
C1264 C 0.59968 0.90243 0.6124 0.0
H1265 H 0.63543 0.9215 0.57321 0.0
C1266 C 0.63292 0.89128 0.61286 0.0
C1267 C 0.60032 0.91342 0.59793 0.0
C1268 C 0.56583 0.92593 0.59726 0.0
C1269 C 0.66722 0.89096 0.59935 0.0
C1270 C 0.66792 0.90195 0.58486 0.0
C1271 C 0.63449 0.91301 0.58425 0.0
C1272 C 0.70444 0.90285 0.57117 0.0
C1273 C 0.70308 0.87926 0.60114 0.0
C1274 C 0.72937 0.91722 0.57414 0.0
C1275 C 0.76555 0.91784 0.56227 0.0
C1276 C 0.77733 0.90409 0.54714 0.0
C1277 C 0.75157 0.88987 0.54377 0.0
C1278 C 0.71537 0.88926 0.5557 0.0
H1279 H 0.70131 0.87397 0.61571 0.0
H1280 H 0.70221 0.86879 0.58767 0.0
H1281 H 0.73363 0.88574 0.60081 0.0
H1282 H 0.72132 0.92783 0.58601 0.0
H1283 H 0.78454 0.92902 0.56517 0.0
H1284 H 0.2324 0.86122 0.69355 0.0
H1285 H 0.17899 0.86482 0.66783 0.0
H1286 H 0.22793 0.91369 0.66515 0.0
H1287 H 0.28257 0.90988 0.69023 0.0
H1288 H 0.11738 0.88636 0.6684 0.0
H1289 H 0.22678 0.89353 0.60441 0.0
H1290 H 0.24407 0.88703 0.62808 0.0
H1291 H 0.23512 0.90873 0.6276 0.0
C1292 C 0.2318 0.87273 0.68747 0.0
C1293 C 0.26184 0.88521 0.69375 0.0
C1294 C 0.20127 0.87477 0.67278 0.0
C1295 C 0.19997 0.88938 0.66424 0.0
C1296 C 0.2291 0.90211 0.67104 0.0
H1297 H 0.98065 0.91361 0.59464 0.0
H1298 H 0.0351 0.91359 0.62122 0.0
C1299 C 0.2601 0.89996 0.68548 0.0
C1300 C 0.16785 0.89125 0.64837 0.0
H1301 H 0.15487 0.89862 0.59875 0.0
C1302 C 0.12556 0.88901 0.65315 0.0
C1303 C 0.17865 0.8945 0.62837 0.0
C1304 C 0.22363 0.89592 0.6217 0.0
C1305 C 0.09376 0.88984 0.63849 0.0
C1306 C 0.10444 0.89361 0.61874 0.0
C1307 C 0.14671 0.89592 0.61398 0.0
C1308 C 0.0725 0.89443 0.60241 0.0
C1309 C 0.04929 0.88608 0.64411 0.0
C1310 C 0.07643 0.88424 0.5827 0.0
C1311 C 0.04592 0.88452 0.56739 0.0
C1312 C 0.01079 0.89491 0.5716 0.0
C1313 C 0.00725 0.90535 0.59116 0.0
C1314 C 0.03815 0.90526 0.60636 0.0
H1315 H 0.04825 0.87884 0.65703 0.0
H1316 H 0.03238 0.89794 0.6494 0.0
H1317 H 0.03238 0.87894 0.63046 0.0
H1318 H 0.10273 0.87582 0.57928 0.0
H1319 H 0.04918 0.87627 0.55247 0.0
H1320 H 0.778 0.86238 0.17139 0.0
H1321 H 0.71729 0.86372 0.14899 0.0
H1322 H 0.69379 0.91419 0.17968 0.0
H1323 H 0.75505 0.91306 0.20215 0.0
H1324 H 0.6322 0.87065 0.15992 0.0
H1325 H 0.70265 0.91696 0.11679 0.0
H1326 H 0.73347 0.90558 0.13277 0.0
H1327 H 0.70143 0.92268 0.14478 0.0
C1328 C 0.75994 0.87378 0.17346 0.0
C1329 C 0.77152 0.88766 0.18844 0.0
C1330 C 0.7252 0.87449 0.16067 0.0
C1331 C 0.70148 0.8891 0.16255 0.0
C1332 C 0.71217 0.90288 0.17783 0.0
H1333 H 0.46376 0.89411 0.097 0.0
H1334 H 0.51765 0.89604 0.12411 0.0
C1335 C 0.747 0.90217 0.1907 0.0
C1336 C 0.66606 0.88983 0.14813 0.0
H1337 H 0.6344 0.90754 0.10704 0.0
C1338 C 0.63241 0.8788 0.14845 0.0
C1339 C 0.66691 0.90035 0.13308 0.0
C1340 C 0.70313 0.912 0.13161 0.0
C1341 C 0.59966 0.87787 0.13392 0.0
C1342 C 0.6005 0.8884 0.11888 0.0
C1343 C 0.63389 0.89956 0.1187 0.0
C1344 C 0.56792 0.88747 0.10259 0.0
C1345 C 0.56517 0.86525 0.1343 0.0
C1346 C 0.57863 0.88229 0.08153 0.0
C1347 C 0.54798 0.88113 0.06602 0.0
C1348 C 0.5061 0.88523 0.07133 0.0
C1349 C 0.49562 0.8906 0.09246 0.0
C1350 C 0.52631 0.89174 0.10795 0.0
H1351 H 0.57365 0.85585 0.14399 0.0
H1352 H 0.5364 0.87174 0.14096 0.0
H1353 H 0.55776 0.85871 0.11823 0.0
H1354 H 0.61065 0.87893 0.07713 0.0
H1355 H 0.55698 0.87678 0.04993 0.0
H1356 H 0.97374 0.91147 0.14576 0.0
H1357 H 0.02754 0.90874 0.11893 0.0
H1358 H 0.09231 0.87273 0.14836 0.0
H1359 H 0.03673 0.87432 0.17434 0.0
H1360 H 0.10533 0.91674 0.12341 0.0
H1361 H 0.09825 0.84981 0.08909 0.0
H1362 H 0.05829 0.8599 0.10646 0.0
H1363 H 0.1061 0.85286 0.11678 0.0
C1364 C -0.00137 0.90256 0.14624 0.0
C1365 C 0.00054 0.89301 0.16222 0.0
C1366 C 0.02968 0.90114 0.13094 0.0
C1367 C 0.06366 0.89033 0.13138 0.0
C1368 C 0.06583 0.88082 0.14732 0.0
H1369 H 0.30733 0.90469 0.0822 0.0
H1370 H 0.2445 0.90318 0.10305 0.0
C1371 C 0.03436 0.882 0.16243 0.0
C1372 C 0.09837 0.89006 0.11619 0.0
H1373 H 0.16111 0.8643 0.08227 0.0
C1374 C 0.11713 0.90527 0.11424 0.0
C1375 C 0.11341 0.87514 0.10392 0.0
C1376 C 0.09263 0.85854 0.10399 0.0
C1377 C 0.15121 0.90595 0.10088 0.0
C1378 C 0.16811 0.89094 0.08975 0.0
C1379 C 0.14854 0.87577 0.09109 0.0
C1380 C 0.2068 0.8908 0.07718 0.0
C1381 C 0.16848 0.92279 0.09875 0.0
C1382 C 0.20715 0.88353 0.05591 0.0
C1383 C 0.24345 0.88408 0.04399 0.0
C1384 C 0.27972 0.89201 0.05318 0.0
C1385 C 0.27959 0.89878 0.0746 0.0
C1386 C 0.24364 0.898 0.08652 0.0
H1387 H 0.14426 0.93265 0.10238 0.0
H1388 H 0.19462 0.92608 0.11 0.0
H1389 H 0.1805 0.92281 0.08274 0.0
H1390 H 0.17913 0.87775 0.04846 0.0
H1391 H 0.24281 0.87868 0.02753 0.0
H1392 H 0.24119 0.63729 0.96072 0.0
H1393 H 0.30796 0.64195 0.94412 0.0
H1394 H 0.2526 0.62524 0.88343 0.0
H1395 H 0.18653 0.61991 0.89992 0.0
H1396 H 0.32598 0.61122 0.88605 0.0
H1397 H 0.34143 0.67916 0.91491 0.0
H1398 H 0.33707 0.66713 0.93535 0.0
H1399 H 0.29379 0.66788 0.91781 0.0
C1400 C 0.2433 0.6347 0.94383 0.0
C1401 C 0.20877 0.62821 0.93158 0.0
C1402 C 0.28135 0.63747 0.93437 0.0
C1403 C 0.28509 0.63419 0.91253 0.0
C1404 C 0.25042 0.62786 0.90032 0.0
H1405 H 0.46037 0.6668 0.82981 0.0
H1406 H 0.40511 0.66377 0.85467 0.0
C1407 C 0.2127 0.62482 0.90975 0.0
C1408 C 0.32534 0.63666 0.90217 0.0
H1409 H 0.39867 0.66579 0.89572 0.0
C1410 C 0.34194 0.62315 0.88819 0.0
C1411 C 0.34593 0.65226 0.90494 0.0
C1412 C 0.32849 0.66748 0.91891 0.0
C1413 C 0.37782 0.62489 0.87638 0.0
C1414 C 0.39878 0.64043 0.87931 0.0
C1415 C 0.38281 0.65385 0.8937 0.0
C1416 C 0.43492 0.64338 0.86617 0.0
C1417 C 0.39154 0.61027 0.86017 0.0
C1418 C 0.47079 0.63333 0.8649 0.0
C1419 C 0.50193 0.63468 0.85021 0.0
C1420 C 0.49815 0.64639 0.83685 0.0
C1421 C 0.4637 0.6573 0.83936 0.0
C1422 C 0.43228 0.65573 0.85378 0.0
H1423 H 0.36612 0.6009 0.85628 0.0
H1424 H 0.40153 0.61436 0.84554 0.0
H1425 H 0.41844 0.60402 0.86632 0.0
H1426 H 0.47401 0.62403 0.87475 0.0
H1427 H 0.52794 0.62606 0.84875 0.0
H1428 H 0.70344 0.63237 0.80398 0.0
H1429 H 0.75949 0.63114 0.82917 0.0
H1430 H 0.83574 0.66341 0.79891 0.0
H1431 H 0.77941 0.66499 0.77368 0.0
H1432 H 0.87465 0.63162 0.80982 0.0
H1433 H 0.7948 0.67346 0.87497 0.0
H1434 H 0.76348 0.65712 0.86019 0.0
H1435 H 0.78291 0.67356 0.84783 0.0
C1436 C 0.73196 0.6393 0.80268 0.0
C1437 C 0.7367 0.649 0.78701 0.0
C1438 C 0.76396 0.63853 0.81707 0.0
C1439 C 0.80132 0.64735 0.81596 0.0
C1440 C 0.80688 0.65661 0.79999 0.0
H1441 H 0.9958 0.66533 0.91106 0.0
H1442 H 0.94551 0.66814 0.88344 0.0
C1443 C 0.77471 0.65748 0.78563 0.0
C1444 C 0.83427 0.64697 0.83174 0.0
H1445 H 0.85588 0.65963 0.88349 0.0
C1446 C 0.87081 0.63781 0.8259 0.0
C1447 C 0.82899 0.65518 0.8526 0.0
C1448 C 0.7906 0.6655 0.85936 0.0
C1449 C 0.90195 0.63628 0.84067 0.0
C1450 C 0.89605 0.64406 0.86167 0.0
C1451 C 0.86003 0.6536 0.86736 0.0
C1452 C 0.92672 0.64226 0.87808 0.0
C1453 C 0.9409 0.62637 0.83376 0.0
C1454 C 0.93218 0.62683 0.88429 0.0
C1455 C 0.96071 0.62519 0.90007 0.0
C1456 C 0.98428 0.63897 0.90981 0.0
C1457 C 0.97846 0.65445 0.90362 0.0
C1458 C 0.9497 0.6561 0.88795 0.0
H1459 H 0.94457 0.62407 0.8165 0.0
H1460 H 0.96924 0.63291 0.841 0.0
H1461 H 0.93897 0.61415 0.83891 0.0
H1462 H 0.91423 0.61608 0.87699 0.0
H1463 H 0.96476 0.61311 0.90446 0.0
H1464 H 0.19904 0.66895 0.33245 0.0
H1465 H 0.26622 0.66329 0.34761 0.0
H1466 H 0.31151 0.64083 0.28658 0.0
H1467 H 0.2435 0.64587 0.27139 0.0
H1468 H 0.33365 0.62276 0.31446 0.0
H1469 H 0.37328 0.68826 0.34573 0.0
H1470 H 0.32345 0.68307 0.35552 0.0
H1471 H 0.33023 0.68256 0.3279 0.0
C1472 C 0.22335 0.66288 0.32224 0.0
C1473 C 0.21621 0.65799 0.30073 0.0
C1474 C 0.26185 0.65975 0.3309 0.0
C1475 C 0.2943 0.65206 0.31814 0.0
C1476 C 0.28704 0.64693 0.29667 0.0
H1477 H 0.53512 0.65401 0.38187 0.0
H1478 H 0.48378 0.65666 0.35496 0.0
C1479 C 0.24823 0.64982 0.28803 0.0
C1480 C 0.33522 0.64896 0.32747 0.0
H1481 H 0.40944 0.66767 0.36143 0.0
C1482 C 0.35065 0.63262 0.32447 0.0
C1483 C 0.35808 0.66188 0.34002 0.0
C1484 C 0.34562 0.67994 0.34227 0.0
C1485 C 0.38703 0.6287 0.33469 0.0
C1486 C 0.40758 0.64138 0.34883 0.0
C1487 C 0.39344 0.65786 0.35085 0.0
C1488 C 0.44186 0.63782 0.36277 0.0
C1489 C 0.40285 0.61102 0.33022 0.0
C1490 C 0.43593 0.62609 0.37586 0.0
C1491 C 0.46585 0.62419 0.39089 0.0
C1492 C 0.50182 0.63435 0.39362 0.0
C1493 C 0.5082 0.64579 0.3801 0.0
C1494 C 0.47862 0.64744 0.36478 0.0
H1495 H 0.39483 0.60491 0.31404 0.0
H1496 H 0.43733 0.61044 0.33228 0.0
H1497 H 0.38749 0.60378 0.34103 0.0
H1498 H 0.40739 0.61881 0.37505 0.0
H1499 H 0.46018 0.61503 0.40072 0.0
H1500 H 0.78207 0.61801 0.45908 0.0
H1501 H 0.83895 0.62176 0.43499 0.0
H1502 H 0.76029 0.65415 0.40624 0.0
H1503 H 0.70366 0.65074 0.43029 0.0
H1504 H 0.80137 0.62539 0.37847 0.0
H1505 H 0.90893 0.66605 0.43281 0.0
H1506 H 0.88742 0.64798 0.44135 0.0
H1507 H 0.85344 0.66473 0.43786 0.0
C1508 C 0.77701 0.62605 0.44775 0.0
C1509 C 0.73818 0.63393 0.44645 0.0
C1510 C 0.80952 0.62818 0.43406 0.0
C1511 C 0.80362 0.63824 0.41894 0.0
C1512 C 0.76525 0.64632 0.41782 0.0
H1513 H 0.9663 0.67416 0.33069 0.0
H1514 H 0.91415 0.67088 0.35738 0.0
C1515 C 0.7329 0.64428 0.43153 0.0
C1516 C 0.83669 0.63981 0.4036 0.0
H1517 H 0.93194 0.65756 0.39802 0.0
C1518 C 0.83001 0.63236 0.38271 0.0
C1519 C 0.87369 0.64902 0.40929 0.0
C1520 C 0.8815 0.65752 0.43151 0.0
C1521 C 0.85967 0.63385 0.36727 0.0
C1522 C 0.89676 0.64299 0.37297 0.0
C1523 C 0.90341 0.65051 0.39384 0.0
C1524 C 0.92877 0.64502 0.3573 0.0
C1525 C 0.85101 0.62588 0.34491 0.0
C1526 C 0.95415 0.63156 0.34864 0.0
C1527 C 0.98388 0.63339 0.33349 0.0
C1528 C 0.98854 0.64871 0.32673 0.0
C1529 C 0.96309 0.66219 0.33551 0.0
C1530 C 0.93357 0.66038 0.35079 0.0
H1531 H 0.81822 0.6213 0.34263 0.0
H1532 H 0.85703 0.63488 0.33432 0.0
H1533 H 0.87246 0.61516 0.34032 0.0
H1534 H 0.95079 0.61963 0.35357 0.0
H1535 H 0.00274 0.62275 0.32682 0.0
H1536 H 0.48271 0.41519 0.14835 0.0
H1537 H 0.53506 0.4118 0.12055 0.0
H1538 H 0.58872 0.37029 0.14391 0.0
H1539 H 0.53591 0.37336 0.17163 0.0
H1540 H 0.64687 0.39552 0.1367 0.0
H1541 H 0.54354 0.37442 0.06832 0.0
H1542 H 0.5262 0.39284 0.0856 0.0
H1543 H 0.52807 0.37336 0.09476 0.0
C1544 C 0.50512 0.40513 0.14738 0.0
C1545 C 0.50499 0.39447 0.16214 0.0
C1546 C 0.53503 0.40324 0.13149 0.0
C1547 C 0.56526 0.39066 0.13005 0.0
C1548 C 0.5654 0.38002 0.14475 0.0
H1549 H 0.78687 0.36938 0.05167 0.0
H1550 H 0.73078 0.36828 0.07695 0.0
C1551 C 0.53541 0.38186 0.16062 0.0
C1552 C 0.59804 0.38918 0.11382 0.0
H1553 H 0.61328 0.38196 0.06108 0.0
C1554 C 0.63969 0.39241 0.12016 0.0
C1555 C 0.58831 0.3852 0.09232 0.0
C1556 C 0.54416 0.38111 0.08477 0.0
C1557 C 0.67192 0.39223 0.10549 0.0
C1558 C 0.66219 0.38834 0.08394 0.0
C1559 C 0.62056 0.38492 0.07761 0.0
C1560 C 0.69472 0.3882 0.06775 0.0
C1561 C 0.71581 0.39675 0.11317 0.0
C1562 C 0.69209 0.39931 0.05366 0.0
C1563 C 0.72389 0.39988 0.03906 0.0
C1564 C 0.75885 0.38934 0.03836 0.0
C1565 C 0.76064 0.37783 0.05203 0.0
C1566 C 0.72872 0.37721 0.06653 0.0
H1567 H 0.71602 0.40339 0.12964 0.0
H1568 H 0.73453 0.38522 0.11235 0.0
H1569 H 0.73144 0.40473 0.10332 0.0
H1570 H 0.66591 0.40782 0.0543 0.0
H1571 H 0.72155 0.40885 0.0287 0.0
H1572 H 0.96317 0.37015 0.10421 0.0
H1573 H 0.01284 0.37248 0.13312 0.0
H1574 H 0.08784 0.40658 0.10505 0.0
H1575 H 0.03673 0.40553 0.07724 0.0
H1576 H 0.08893 0.36314 0.1326 0.0
H1577 H 0.09032 0.43043 0.16327 0.0
H1578 H 0.051 0.42093 0.145 0.0
H1579 H 0.10097 0.42715 0.13584 0.0
C1580 C 0.98955 0.37854 0.10449 0.0
C1581 C 0.99585 0.38762 0.08827 0.0
C1582 C 0.01814 0.37975 0.12097 0.0
C1583 C 0.05377 0.38994 0.12152 0.0
C1584 C 0.06002 0.39903 0.1054 0.0
H1585 H 0.29651 0.37278 0.16573 0.0
H1586 H 0.22893 0.37281 0.14827 0.0
C1587 C 0.03111 0.3981 0.08917 0.0
C1588 C 0.08644 0.38996 0.13775 0.0
H1589 H 0.15433 0.41553 0.16892 0.0
C1590 C 0.10263 0.37462 0.14087 0.0
C1591 C 0.10377 0.40487 0.14903 0.0
C1592 C 0.08517 0.42173 0.14827 0.0
C1593 C 0.13729 0.3738 0.15387 0.0
C1594 C 0.15744 0.38872 0.16329 0.0
C1595 C 0.13958 0.40406 0.16131 0.0
C1596 C 0.19829 0.38869 0.17416 0.0
C1597 C 0.15193 0.3569 0.15723 0.0
C1598 C 0.20429 0.39827 0.19414 0.0
C1599 C 0.24341 0.39867 0.2039 0.0
C1600 C 0.27696 0.38934 0.19392 0.0
C1601 C 0.27099 0.37987 0.17391 0.0
C1602 C 0.23222 0.37975 0.16401 0.0
H1603 H 0.12532 0.34799 0.15613 0.0
H1604 H 0.1747 0.35184 0.14483 0.0
H1605 H 0.16721 0.35757 0.17269 0.0
H1606 H 0.1787 0.40541 0.20219 0.0
H1607 H 0.24725 0.40609 0.21935 0.0
H1608 H 0.75871 0.39564 0.71644 0.0
H1609 H 0.69092 0.39614 0.69884 0.0
H1610 H 0.74264 0.36618 0.64327 0.0
H1611 H 0.80947 0.36494 0.66108 0.0
H1612 H 0.6689 0.40852 0.66683 0.0
H1613 H 0.63761 0.34117 0.64752 0.0
H1614 H 0.6791 0.34962 0.66512 0.0
H1615 H 0.68763 0.34555 0.63725 0.0
C1616 C 0.75535 0.38902 0.70053 0.0
C1617 C 0.78912 0.38011 0.69016 0.0
C1618 C 0.71666 0.3893 0.69051 0.0
C1619 C 0.71131 0.38084 0.6699 0.0
C1620 C 0.74542 0.37225 0.65943 0.0
H1621 H 0.55119 0.4047 0.5756 0.0
H1622 H 0.60286 0.4036 0.6027 0.0
C1623 C 0.78376 0.37168 0.66956 0.0
C1624 C 0.67102 0.38175 0.6588 0.0
H1625 H 0.60235 0.35815 0.62582 0.0
C1626 C 0.6539 0.39748 0.65817 0.0
C1627 C 0.65061 0.36735 0.64797 0.0
C1628 C 0.66448 0.34999 0.64972 0.0
C1629 C 0.6185 0.39925 0.64599 0.0
C1630 C 0.60081 0.38496 0.63344 0.0
C1631 C 0.61634 0.36917 0.63509 0.0
C1632 C 0.56812 0.3861 0.61754 0.0
C1633 C 0.60063 0.41645 0.64674 0.0
C1634 C 0.53196 0.37614 0.61628 0.0
C1635 C 0.50301 0.37621 0.60017 0.0
C1636 C 0.50947 0.38634 0.58507 0.0
C1637 C 0.54539 0.39651 0.58666 0.0
C1638 C 0.57465 0.39619 0.60249 0.0
H1639 H 0.60613 0.42438 0.66226 0.0
H1640 H 0.61664 0.42249 0.63492 0.0
H1641 H 0.56644 0.41604 0.64351 0.0
H1642 H 0.52645 0.36812 0.62758 0.0
H1643 H 0.47615 0.368 0.5993 0.0
H1644 H 0.99345 0.41119 0.64934 0.0
H1645 H 0.0461 0.41027 0.62192 0.0
H1646 H 0.10204 0.36705 0.64025 0.0
H1647 H 0.04899 0.36768 0.66758 0.0
H1648 H 0.1589 0.3934 0.63611 0.0
H1649 H 0.05622 0.3764 0.56656 0.0
H1650 H 0.03827 0.39373 0.58552 0.0
H1651 H 0.04077 0.37338 0.59234 0.0
C1652 C 0.01646 0.4013 0.64732 0.0
C1653 C 0.01688 0.38943 0.66056 0.0
C1654 C 0.04653 0.40082 0.63166 0.0
C1655 C 0.07746 0.38845 0.62892 0.0
C1656 C 0.07819 0.37663 0.64211 0.0
H1657 H 0.29856 0.37241 0.54981 0.0
H1658 H 0.24268 0.36997 0.57473 0.0
C1659 C 0.04805 0.37707 0.65776 0.0
C1660 C 0.11025 0.38838 0.61291 0.0
H1661 H 0.12571 0.38487 0.56042 0.0
C1662 C 0.1518 0.39141 0.61954 0.0
C1663 C 0.10063 0.38585 0.59136 0.0
C1664 C 0.05662 0.38201 0.58343 0.0
C1665 C 0.18403 0.39239 0.60518 0.0
C1666 C 0.17441 0.38992 0.58361 0.0
C1667 C 0.13288 0.38676 0.57697 0.0
C1668 C 0.20705 0.39082 0.56775 0.0
C1669 C 0.22784 0.39655 0.61326 0.0
C1670 C 0.20463 0.40297 0.55504 0.0
C1671 C 0.23637 0.40434 0.54066 0.0
C1672 C 0.27099 0.39356 0.53879 0.0
C1673 C 0.27262 0.38107 0.55111 0.0
C1674 C 0.2408 0.37968 0.5654 0.0
H1675 H 0.22788 0.40217 0.63013 0.0
H1676 H 0.24671 0.38498 0.61127 0.0
H1677 H 0.24339 0.40531 0.60444 0.0
H1678 H 0.17862 0.41161 0.55656 0.0
H1679 H 0.23416 0.41405 0.53134 0.0
H1680 H 0.09757 0.12777 0.68237 0.0
H1681 H 0.1294 0.12633 0.64814 0.0
H1682 H 0.24089 0.15032 0.67667 0.0
H1683 H 0.20906 0.15173 0.71138 0.0
H1684 H 0.20471 0.16542 0.64472 0.0
H1685 H 0.22488 0.09801 0.61747 0.0
H1686 H 0.17471 0.10232 0.62965 0.0
H1687 H 0.22174 0.10721 0.64487 0.0
C1688 C 0.12904 0.13259 0.68145 0.0
C1689 C 0.15077 0.13993 0.69951 0.0
C1690 C 0.1474 0.13157 0.66189 0.0
C1691 C 0.18782 0.13789 0.65995 0.0
C1692 C 0.20993 0.14513 0.67794 0.0
H1693 H 0.20725 0.12822 0.52387 0.0
H1694 H 0.2396 0.12955 0.55846 0.0
C1695 C 0.19167 0.14598 0.69767 0.0
C1696 C 0.2037 0.13859 0.63884 0.0
H1697 H 0.20455 0.11424 0.59056 0.0
C1698 C 0.20642 0.15423 0.6329 0.0
C1699 C 0.20692 0.12403 0.62351 0.0
C1700 C 0.20738 0.10694 0.62926 0.0
C1701 C 0.2063 0.15564 0.61175 0.0
C1702 C 0.20298 0.14106 0.59644 0.0
C1703 C 0.20632 0.12543 0.60237 0.0
C1704 C 0.18657 0.1417 0.5754 0.0
C1705 C 0.20612 0.17272 0.60601 0.0
C1706 C 0.14598 0.14786 0.57364 0.0
C1707 C 0.12731 0.14689 0.55414 0.0
C1708 C 0.14892 0.13975 0.53598 0.0
C1709 C 0.18994 0.13381 0.53766 0.0
C1710 C 0.2085 0.13462 0.55732 0.0
H1711 H 0.22369 0.18175 0.61771 0.0
H1712 H 0.22007 0.17253 0.59032 0.0
H1713 H 0.17331 0.17719 0.60578 0.0
H1714 H 0.12813 0.15298 0.58747 0.0
H1715 H 0.09577 0.15162 0.55336 0.0
H1716 H 0.77648 0.89004 0.45862 0.0
H1717 H 0.7424 0.89456 0.42639 0.0
H1718 H 0.8462 0.87057 0.3906 0.0
H1719 H 0.87975 0.86571 0.42246 0.0
H1720 H 0.77452 0.91422 0.40266 0.0
H1721 H 0.75154 0.85324 0.35276 0.0
H1722 H 0.75975 0.85538 0.38061 0.0
H1723 H 0.80377 0.85396 0.36294 0.0
C1724 C 0.79139 0.88529 0.44381 0.0
C1725 C 0.83103 0.87766 0.44307 0.0
C1726 C 0.77184 0.88787 0.42542 0.0
C1727 C 0.79143 0.88273 0.40604 0.0
C1728 C 0.82982 0.87425 0.40527 0.0
H1729 H 0.87617 0.92524 0.31382 0.0
H1730 H 0.84419 0.92002 0.34591 0.0
C1731 C 0.84929 0.87165 0.42357 0.0
C1732 C 0.77632 0.88856 0.38707 0.0
H1733 H 0.7743 0.87593 0.33432 0.0
C1734 C 0.77296 0.9058 0.38776 0.0
C1735 C 0.77285 0.87767 0.36765 0.0
C1736 C 0.77167 0.85903 0.36604 0.0
C1737 C 0.77186 0.91245 0.36935 0.0
C1738 C 0.77521 0.9016 0.34991 0.0
C1739 C 0.77283 0.88433 0.34923 0.0
C1740 C 0.78929 0.90758 0.33086 0.0
C1741 C 0.76972 0.93108 0.37097 0.0
C1742 C 0.76905 0.9024 0.31164 0.0
C1743 C 0.78765 0.90523 0.29312 0.0
C1744 C 0.82701 0.9131 0.29358 0.0
C1745 C 0.84591 0.91912 0.31294 0.0
C1746 C 0.82734 0.91631 0.33137 0.0
H1747 H 0.74992 0.93671 0.38442 0.0
H1748 H 0.80167 0.93642 0.37375 0.0
H1749 H 0.75689 0.93462 0.35651 0.0
H1750 H 0.73987 0.89552 0.31087 0.0
H1751 H 0.7723 0.90043 0.27842 0.0
H1752 H 0.21254 0.63677 0.02436 0.0
H1753 H 0.24921 0.641 0.05803 0.0
H1754 H 0.14694 0.61715 0.08465 0.0
H1755 H 0.11081 0.61267 0.05129 0.0
H1756 H 0.21961 0.66046 0.09161 0.0
H1757 H 0.24371 0.59914 0.11262 0.0
H1758 H 0.23479 0.60162 0.0859 0.0
H1759 H 0.19124 0.59968 0.10304 0.0
C1760 C 0.19849 0.63203 0.03729 0.0
C1761 C 0.1586 0.62453 0.03528 0.0
C1762 C 0.21954 0.63442 0.05646 0.0
C1763 C 0.20121 0.62915 0.07378 0.0
C1764 C 0.16239 0.62089 0.0714 0.0
H1765 H 0.10987 0.66941 0.18166 0.0
H1766 H 0.14567 0.66428 0.1482 0.0
C1767 C 0.1414 0.61854 0.05235 0.0
C1768 C 0.21789 0.63467 0.09512 0.0
H1769 H 0.21872 0.62133 0.14174 0.0
C1770 C 0.22112 0.65187 0.10251 0.0
C1771 C 0.22151 0.62356 0.10936 0.0
C1772 C 0.22313 0.60497 0.10219 0.0
C1773 C 0.22126 0.65822 0.12399 0.0
C1774 C 0.21712 0.6471 0.13819 0.0
C1775 C 0.22059 0.62992 0.13084 0.0
C1776 C 0.20004 0.65264 0.15943 0.0
C1777 C 0.22259 0.67682 0.13118 0.0
C1778 C 0.21846 0.64769 0.17692 0.0
C1779 C 0.19765 0.65046 0.19614 0.0
C1780 C 0.15789 0.65803 0.19804 0.0
C1781 C 0.14039 0.66353 0.18071 0.0
C1782 C 0.16117 0.6608 0.1616 0.0
H1783 H 0.24319 0.68274 0.12083 0.0
H1784 H 0.19063 0.68199 0.13025 0.0
H1785 H 0.23407 0.6802 0.14751 0.0
H1786 H 0.24817 0.64118 0.1755 0.0
H1787 H 0.21192 0.64608 0.20926 0.0
H1788 H 0.79406 0.39308 0.96369 0.0
H1789 H 0.76277 0.39674 0.93036 0.0
H1790 H 0.87383 0.37602 0.89797 0.0
H1791 H 0.90506 0.37228 0.93094 0.0
H1792 H 0.79625 0.41656 0.90411 0.0
H1793 H 0.78034 0.35224 0.86157 0.0
H1794 H 0.78506 0.35715 0.8897 0.0
H1795 H 0.83116 0.35517 0.87342 0.0
C1796 C 0.81146 0.38906 0.9494 0.0
C1797 C 0.85208 0.38243 0.9499 0.0
C1798 C 0.7935 0.39113 0.93042 0.0
C1799 C 0.81566 0.38635 0.91171 0.0
C1800 C 0.85574 0.37938 0.91219 0.0
H1801 H 0.89843 0.41973 0.8128 0.0
H1802 H 0.86599 0.41753 0.84596 0.0
C1803 C 0.87376 0.37742 0.93108 0.0
C1804 C 0.79993 0.39027 0.8918 0.0
H1805 H 0.79857 0.37321 0.84014 0.0
C1806 C 0.79526 0.40706 0.89014 0.0
C1807 C 0.79724 0.37788 0.87367 0.0
C1808 C 0.79823 0.35959 0.87473 0.0
C1809 C 0.79362 0.41188 0.87053 0.0
C1810 C 0.79759 0.39959 0.85234 0.0
C1811 C 0.79645 0.3827 0.85408 0.0
C1812 C 0.81163 0.40378 0.83225 0.0
C1813 C 0.7904 0.43013 0.86951 0.0
C1814 C 0.7919 0.39682 0.81342 0.0
C1815 C 0.81081 0.39789 0.79432 0.0
C1816 C 0.84994 0.40578 0.79383 0.0
C1817 C 0.86839 0.41352 0.81266 0.0
C1818 C 0.84952 0.41246 0.83167 0.0
H1819 H 0.77035 0.43665 0.88237 0.0
H1820 H 0.82205 0.43585 0.87155 0.0
H1821 H 0.7773 0.43214 0.85435 0.0
H1822 H 0.76291 0.38991 0.81353 0.0
H1823 H 0.79579 0.39183 0.78003 0.0
H1824 H 0.71829 0.147 0.21143 0.0
H1825 H 0.75653 0.14321 0.17823 0.0
H1826 H 0.65513 0.16675 0.15066 0.0
H1827 H 0.61736 0.17076 0.18354 0.0
H1828 H 0.72909 0.12406 0.14351 0.0
H1829 H 0.7536 0.18631 0.1253 0.0
H1830 H 0.7438 0.18308 0.15167 0.0
H1831 H 0.70081 0.18533 0.13432 0.0
C1832 C 0.70466 0.15169 0.19837 0.0
C1833 C 0.66465 0.15905 0.19999 0.0
C1834 C 0.72663 0.14958 0.17949 0.0
C1835 C 0.70913 0.155 0.16209 0.0
C1836 C 0.66995 0.16294 0.16402 0.0
H1837 H 0.61799 0.11785 0.05493 0.0
H1838 H 0.65522 0.12212 0.088 0.0
C1839 C 0.64802 0.165 0.18278 0.0
C1840 C 0.7273 0.15005 0.141 0.0
H1841 H 0.72943 0.16466 0.09524 0.0
C1842 C 0.73095 0.13297 0.13302 0.0
C1843 C 0.73149 0.1616 0.12733 0.0
C1844 C 0.73272 0.18011 0.13524 0.0
C1845 C 0.73162 0.12713 0.11144 0.0
C1846 C 0.72762 0.13867 0.09775 0.0
C1847 C 0.73115 0.15575 0.10574 0.0
C1848 C 0.70966 0.13367 0.07662 0.0
C1849 C 0.73289 0.10863 0.10353 0.0
C1850 C 0.72761 0.13891 0.0592 0.0
C1851 C 0.70599 0.13661 0.04019 0.0
C1852 C 0.66588 0.12929 0.03849 0.0
C1853 C 0.64874 0.12358 0.05575 0.0
C1854 C 0.67034 0.12579 0.07462 0.0
H1855 H 0.75345 0.10243 0.1136 0.0
H1856 H 0.70092 0.10338 0.10422 0.0
H1857 H 0.74438 0.10567 0.08718 0.0
H1858 H 0.75761 0.14524 0.06052 0.0
H1859 H 0.71996 0.14114 0.02709 0.0
H1860 H 0.39792 0.87543 0.79943 0.0
H1861 H 0.36174 0.87172 0.83118 0.0
H1862 H 0.24414 0.88429 0.80524 0.0
H1863 H 0.28044 0.88798 0.77304 0.0
H1864 H 0.26295 0.90307 0.8448 0.0
H1865 H 0.28179 0.83627 0.84618 0.0
H1866 H 0.33006 0.84482 0.83869 0.0
H1867 H 0.28446 0.84465 0.82228 0.0
C1868 C 0.36429 0.8772 0.80031 0.0
C1869 C 0.34204 0.88208 0.78382 0.0
C1870 C 0.34354 0.87488 0.81838 0.0
C1871 C 0.30013 0.8774 0.82037 0.0
C1872 C 0.27755 0.88203 0.80382 0.0
H1873 H 0.27742 0.86885 0.95154 0.0
H1874 H 0.24397 0.86703 0.91707 0.0
C1875 C 0.29832 0.88418 0.78553 0.0
C1876 C 0.28052 0.87721 0.84089 0.0
H1877 H 0.2877 0.85506 0.88036 0.0
C1878 C 0.26665 0.89239 0.85245 0.0
C1879 C 0.28413 0.86321 0.85077 0.0
C1880 C 0.29547 0.84627 0.83872 0.0
C1881 C 0.26247 0.89452 0.87421 0.0
C1882 C 0.27293 0.8812 0.88444 0.0
C1883 C 0.28047 0.86539 0.87255 0.0
C1884 C 0.28692 0.88429 0.90645 0.0
C1885 C 0.25059 0.9114 0.88623 0.0
C1886 C 0.32193 0.89458 0.91181 0.0
C1887 C 0.34132 0.89538 0.9311 0.0
C1888 C 0.326 0.88597 0.94551 0.0
C1889 C 0.28969 0.87626 0.94066 0.0
C1890 C 0.27055 0.87525 0.92107 0.0
H1891 H 0.22829 0.91771 0.87711 0.0
H1892 H 0.23622 0.91046 0.90152 0.0
H1893 H 0.27909 0.91929 0.88908 0.0
H1894 H 0.33578 0.90132 0.9006 0.0
H1895 H 0.36909 0.90305 0.9345 0.0
H1896 H 0.58304 0.65271 0.54969 0.0
H1897 H 0.61221 0.65381 0.58448 0.0
H1898 H 0.72624 0.63098 0.55775 0.0
H1899 H 0.69713 0.62985 0.52256 0.0
H1900 H 0.68914 0.6151 0.58836 0.0
H1901 H 0.70429 0.68256 0.61744 0.0
H1902 H 0.65465 0.67773 0.60484 0.0
H1903 H 0.70224 0.67376 0.58989 0.0
C1904 C 0.6145 0.64808 0.55114 0.0
C1905 C 0.63774 0.64113 0.53343 0.0
C1906 C 0.63132 0.6489 0.57104 0.0
C1907 C 0.67167 0.64278 0.57363 0.0
C1908 C 0.69528 0.63598 0.556 0.0
H1909 H 0.69698 0.6513 0.70951 0.0
H1910 H 0.72595 0.65058 0.67437 0.0
C1911 C 0.67856 0.6353 0.53597 0.0
C1912 C 0.68625 0.6419 0.59493 0.0
H1913 H 0.68641 0.66552 0.64368 0.0
C1914 C 0.69008 0.62614 0.60044 0.0
C1915 C 0.68844 0.6563 0.61059 0.0
C1916 C 0.68765 0.67355 0.60534 0.0
C1917 C 0.69072 0.62437 0.62146 0.0
C1918 C 0.68697 0.6387 0.63713 0.0
C1919 C 0.68856 0.65452 0.63161 0.0
C1920 C 0.67289 0.63752 0.65841 0.0
C1921 C 0.69237 0.60713 0.62671 0.0
C1922 C 0.63345 0.63053 0.66094 0.0
C1923 C 0.6167 0.63112 0.68079 0.0
C1924 C 0.63909 0.63869 0.69854 0.0
C1925 C 0.6791 0.64535 0.69607 0.0
C1926 C 0.69573 0.64491 0.67608 0.0
H1927 H 0.71003 0.5985 0.61463 0.0
H1928 H 0.7072 0.60724 0.64218 0.0
H1929 H 0.65999 0.60221 0.62714 0.0
H1930 H 0.61488 0.62514 0.64746 0.0
H1931 H 0.58588 0.62584 0.68219 0.0
H1932 H 0.28672 0.40474 0.28342 0.0
H1933 H 0.25732 0.40201 0.31739 0.0
H1934 H 0.36268 0.42922 0.34815 0.0
H1935 H 0.39161 0.43227 0.31453 0.0
H1936 H 0.29653 0.38444 0.34163 0.0
H1937 H 0.27127 0.44664 0.38811 0.0
H1938 H 0.27535 0.44324 0.35995 0.0
H1939 H 0.32177 0.44637 0.37607 0.0
C1940 C 0.3029 0.41059 0.29747 0.0
C1941 C 0.34177 0.41854 0.29633 0.0
C1942 C 0.28599 0.40905 0.31685 0.0
C1943 C 0.3075 0.41557 0.33534 0.0
C1944 C 0.34487 0.42447 0.33418 0.0
H1945 H 0.41062 0.37934 0.42937 0.0
H1946 H 0.3773 0.38472 0.3976 0.0
C1947 C 0.36173 0.42602 0.31488 0.0
C1948 C 0.29615 0.41054 0.35537 0.0
H1949 H 0.3001 0.42557 0.40766 0.0
C1950 C 0.29574 0.39345 0.35606 0.0
C1951 C 0.29398 0.42219 0.37423 0.0
C1952 C 0.29012 0.44062 0.37448 0.0
C1953 C 0.29876 0.38781 0.3751 0.0
C1954 C 0.30303 0.39957 0.39374 0.0
C1955 C 0.29789 0.41656 0.39327 0.0
C1956 C 0.32026 0.39479 0.41289 0.0
C1957 C 0.30018 0.36933 0.37495 0.0
C1958 C 0.29947 0.3989 0.4321 0.0
C1959 C 0.31864 0.3959 0.4504 0.0
C1960 C 0.35912 0.38899 0.44973 0.0
C1961 C 0.37946 0.38467 0.43041 0.0
C1962 C 0.36024 0.38758 0.41219 0.0
H1963 H 0.28121 0.36244 0.36187 0.0
H1964 H 0.33303 0.36494 0.37263 0.0
H1965 H 0.28847 0.36626 0.38988 0.0
H1966 H 0.26882 0.40467 0.43296 0.0
H1967 H 0.30224 0.39939 0.46509 0.0
loop_
_geom_bond_atom_site_label_1
_geom_bond_atom_site_label_2
_geom_bond_distance
_geom_bond_site_symmetry_2
_ccdc_geom_bond_type
C0 C1 1.351 . S
C0 N3 1.368 . S
C0 H5 0.931 . S
C1 C0 1.351 . S
C1 N2 1.373 . S
C1 H29 0.930 . S
N2 C1 1.373 . S
N2 C4 1.340 . S
N3 C0 1.368 . S
N3 C4 1.321 . S
N3 Co6 2.135 . S
C4 N2 1.340 . S
C4 N3 1.321 . S
C4 H28 0.930 . S
H5 C0 0.931 . S
Co6 N3 2.135 . S
Co6 N9 2.121 . S
Co6 O14 2.055 . S
Co6 O17 2.039 . S
Co6 N20 2.140 . S
C7 O8 1.227 . S
C7 O17 1.265 . S
O8 C7 1.227 . S
N9 Co6 2.121 . S
N9 C11 1.375 . S
N9 C12 1.313 . S
C10 C11 1.338 . S
C10 N13 1.377 . S
C10 H30 0.930 . S
C11 N9 1.375 . S
C11 C10 1.338 . S
C11 H15 0.931 . S
C12 N9 1.313 . S
C12 N13 1.344 . S
C12 H16 0.930 . S
N13 C10 1.377 . S
N13 C12 1.344 . S
O14 Co6 2.055 . S
O14 C18 1.253 . S
H15 C11 0.931 . S
H16 C12 0.930 . S
O17 Co6 2.039 . S
O17 C7 1.265 . S
C18 O14 1.253 . S
C18 O19 1.227 . S
O19 C18 1.227 . S
N20 Co6 2.140 . S
N20 C23 1.346 . S
N20 C24 1.345 . S
C21 C22 1.387 1_655 S
C21 C25 1.391 . S
C22 C21 1.387 1_455 S
C22 C23 1.369 . S
C22 H31 0.929 . S
C23 N20 1.346 . S
C23 C22 1.369 . S
C23 H26 0.928 . S
C24 N20 1.345 . S
C24 C25 1.371 1_455 S
C24 H27 0.931 . S
C25 C21 1.391 . S
C25 C24 1.371 1_655 S
C25 H32 0.930 . S
H26 C23 0.928 . S
H27 C24 0.931 . S
H28 C4 0.930 . S
H29 C1 0.930 . S
H30 C10 0.930 . S
H31 C22 0.929 . S
H32 C25 0.930 . S
C33 C34 1.351 . S
C33 N36 1.368 . S
C33 H38 0.931 . S
C34 C33 1.351 . S
C34 N35 1.373 . S
C34 H62 0.930 . S
N35 C34 1.373 . S
N35 C37 1.340 . S
N36 C33 1.368 . S
N36 C37 1.321 . S
N36 Co39 2.135 . S
C37 N35 1.340 . S
C37 N36 1.321 . S
C37 H61 0.930 . S
H38 C33 0.931 . S
Co39 N36 2.135 . S
Co39 N42 2.121 . S
Co39 O47 2.055 . S
Co39 O50 2.039 . S
Co39 N53 2.140 . S
C40 O41 1.227 . S
C40 O50 1.265 . S
O41 C40 1.227 . S
N42 Co39 2.121 . S
N42 C44 1.375 . S
N42 C45 1.313 . S
C43 C44 1.338 . S
C43 N46 1.377 . S
C43 H63 0.930 . S
C44 N42 1.375 . S
C44 C43 1.338 . S
C44 H48 0.931 . S
C45 N42 1.313 . S
C45 N46 1.344 . S
C45 H49 0.930 . S
N46 C43 1.377 . S
N46 C45 1.344 . S
O47 Co39 2.055 . S
O47 C51 1.253 . S
H48 C44 0.931 . S
H49 C45 0.930 . S
O50 Co39 2.039 . S
O50 C40 1.265 . S
C51 O47 1.253 . S
C51 O52 1.227 . S
O52 C51 1.227 . S
N53 Co39 2.140 . S
N53 C56 1.346 . S
N53 C57 1.345 . S
C54 C55 1.387 1_655 S
C54 C58 1.391 . S
C55 C54 1.387 1_455 S
C55 C56 1.369 . S
C55 H64 0.929 . S
C56 N53 1.346 . S
C56 C55 1.369 . S
C56 H59 0.928 . S
C57 N53 1.345 . S
C57 C58 1.371 1_455 S
C57 H60 0.931 . S
C58 C54 1.391 . S
C58 C57 1.371 1_655 S
C58 H65 0.930 . S
H59 C56 0.928 . S
H60 C57 0.931 . S
H61 C37 0.930 . S
H62 C34 0.930 . S
H63 C43 0.930 . S
H64 C55 0.929 . S
H65 C58 0.930 . S
C66 C67 1.351 . S
C66 N69 1.368 . S
C66 H71 0.931 . S
C67 C66 1.351 . S
C67 N68 1.373 . S
C67 H95 0.930 . S
N68 C67 1.373 . S
N68 C70 1.340 . S
N69 C66 1.368 . S
N69 C70 1.321 . S
N69 Co72 2.135 . S
C70 N68 1.340 . S
C70 N69 1.321 . S
C70 H94 0.930 . S
H71 C66 0.931 . S
Co72 N69 2.135 . S
Co72 N75 2.121 . S
Co72 O80 2.055 . S
Co72 O83 2.039 . S
Co72 N86 2.140 . S
C73 O74 1.227 . S
C73 O83 1.265 . S
O74 C73 1.227 . S
N75 Co72 2.121 . S
N75 C77 1.375 . S
N75 C78 1.313 . S
C76 C77 1.338 . S
C76 N79 1.377 . S
C76 H96 0.930 . S
C77 N75 1.375 . S
C77 C76 1.338 . S
C77 H81 0.931 . S
C78 N75 1.313 . S
C78 N79 1.344 . S
C78 H82 0.930 . S
N79 C76 1.377 . S
N79 C78 1.344 . S
O80 Co72 2.055 . S
O80 C84 1.253 . S
H81 C77 0.931 . S
H82 C78 0.930 . S
O83 Co72 2.039 . S
O83 C73 1.265 . S
C84 O80 1.253 . S
C84 O85 1.227 . S
O85 C84 1.227 . S
N86 Co72 2.140 . S
N86 C89 1.346 . S
N86 C90 1.345 . S
C87 C88 1.387 1_455 S
C87 C91 1.391 . S
C88 C87 1.387 1_655 S
C88 C89 1.369 . S
C88 H97 0.929 . S
C89 N86 1.346 . S
C89 C88 1.369 . S
C89 H92 0.928 . S
C90 N86 1.345 . S
C90 C91 1.371 1_655 S
C90 H93 0.931 . S
C91 C87 1.391 . S
C91 C90 1.371 1_455 S
C91 H98 0.930 . S
H92 C89 0.928 . S
H93 C90 0.931 . S
H94 C70 0.930 . S
H95 C67 0.930 . S
H96 C76 0.930 . S
H97 C88 0.929 . S
H98 C91 0.930 . S
C99 C100 1.351 . S
C99 N102 1.368 . S
C99 H104 0.931 . S
C100 C99 1.351 . S
C100 N101 1.373 . S
C100 H128 0.930 . S
N101 C100 1.373 . S
N101 C103 1.340 . S
N102 C99 1.368 . S
N102 C103 1.321 . S
N102 Co105 2.135 . S
C103 N101 1.340 . S
C103 N102 1.321 . S
C103 H127 0.930 . S
H104 C99 0.931 . S
Co105 N102 2.135 . S
Co105 N108 2.121 . S
Co105 O113 2.055 . S
Co105 O116 2.039 . S
Co105 N119 2.140 . S
C106 O107 1.227 . S
C106 O116 1.265 . S
O107 C106 1.227 . S
N108 Co105 2.121 . S
N108 C110 1.375 . S
N108 C111 1.313 . S
C109 C110 1.338 . S
C109 N112 1.377 . S
C109 H129 0.930 . S
C110 N108 1.375 . S
C110 C109 1.338 . S
C110 H114 0.931 . S
C111 N108 1.313 . S
C111 N112 1.344 . S
C111 H115 0.930 . S
N112 C109 1.377 . S
N112 C111 1.344 . S
O113 Co105 2.055 . S
O113 C117 1.253 . S
H114 C110 0.931 . S
H115 C111 0.930 . S
O116 Co105 2.039 . S
O116 C106 1.265 . S
C117 O113 1.253 . S
C117 O118 1.227 . S
O118 C117 1.227 . S
N119 Co105 2.140 . S
N119 C122 1.346 . S
N119 C123 1.345 . S
C120 C121 1.387 1_455 S
C120 C124 1.391 . S
C121 C120 1.387 1_655 S
C121 C122 1.369 . S
C121 H130 0.929 . S
C122 N119 1.346 . S
C122 C121 1.369 . S
C122 H125 0.928 . S
C123 N119 1.345 . S
C123 C124 1.371 1_655 S
C123 H126 0.931 . S
C124 C120 1.391 . S
C124 C123 1.371 1_455 S
C124 H131 0.930 . S
H125 C122 0.928 . S
H126 C123 0.931 . S
H127 C103 0.930 . S
H128 C100 0.930 . S
H129 C109 0.930 . S
H130 C121 0.929 . S
H131 C124 0.930 . S
C132 C133 1.351 . S
C132 N135 1.368 1_554 S
C132 H137 0.931 . S
C133 C132 1.351 . S
C133 N134 1.373 1_554 S
C133 H161 0.930 . S
N134 C133 1.373 1_556 S
N134 C136 1.340 . S
N135 C132 1.368 1_556 S
N135 C136 1.321 . S
N135 Co138 2.135 . S
C136 N134 1.340 . S
C136 N135 1.321 . S
C136 H160 0.930 . S
H137 C132 0.931 . S
Co138 N135 2.135 . S
Co138 N141 2.121 . S
Co138 O146 2.055 1_556 S
Co138 O149 2.039 . S
Co138 N152 2.140 . S
C139 O140 1.227 . S
C139 O149 1.265 . S
O140 C139 1.227 . S
N141 Co138 2.121 . S
N141 C143 1.375 . S
N141 C144 1.313 . S
C142 C143 1.338 . S
C142 N145 1.377 . S
C142 H162 0.930 . S
C143 N141 1.375 . S
C143 C142 1.338 . S
C143 H147 0.931 . S
C144 N141 1.313 . S
C144 N145 1.344 . S
C144 H148 0.930 1_556 S
N145 C142 1.377 . S
N145 C144 1.344 . S
O146 Co138 2.055 1_554 S
O146 C150 1.253 . S
H147 C143 0.931 . S
H148 C144 0.930 1_554 S
O149 Co138 2.039 . S
O149 C139 1.265 . S
C150 O146 1.253 . S
C150 O151 1.227 . S
O151 C150 1.227 . S
N152 Co138 2.140 . S
N152 C155 1.346 . S
N152 C156 1.345 . S
C153 C154 1.387 1_655 S
C153 C157 1.391 . S
C154 C153 1.387 1_455 S
C154 C155 1.369 . S
C154 H163 0.929 . S
C155 N152 1.346 . S
C155 C154 1.369 . S
C155 H158 0.928 . S
C156 N152 1.345 . S
C156 C157 1.371 1_455 S
C156 H159 0.931 . S
C157 C153 1.391 . S
C157 C156 1.371 1_655 S
C157 H164 0.930 . S
H158 C155 0.928 . S
H159 C156 0.931 . S
H160 C136 0.930 . S
H161 C133 0.930 . S
H162 C142 0.930 . S
H163 C154 0.929 . S
H164 C157 0.930 . S
C165 C166 1.351 . S
C165 N168 1.368 . S
C165 H170 0.931 . S
C166 C165 1.351 . S
C166 N167 1.373 . S
C166 H194 0.930 . S
N167 C166 1.373 . S
N167 C169 1.340 . S
N168 C165 1.368 . S
N168 C169 1.321 . S
N168 Co171 2.135 . S
C169 N167 1.340 . S
C169 N168 1.321 . S
C169 H193 0.930 . S
H170 C165 0.931 . S
Co171 N168 2.135 . S
Co171 N174 2.121 . S
Co171 O179 2.055 . S
Co171 O182 2.039 . S
Co171 N185 2.140 . S
C172 O173 1.227 . S
C172 O182 1.265 . S
O173 C172 1.227 . S
N174 Co171 2.121 . S
N174 C176 1.375 . S
N174 C177 1.313 . S
C175 C176 1.338 . S
C175 N178 1.377 . S
C175 H195 0.930 . S
C176 N174 1.375 . S
C176 C175 1.338 . S
C176 H180 0.931 . S
C177 N174 1.313 . S
C177 N178 1.344 . S
C177 H181 0.930 . S
N178 C175 1.377 . S
N178 C177 1.344 . S
O179 Co171 2.055 . S
O179 C183 1.253 . S
H180 C176 0.931 . S
H181 C177 0.930 . S
O182 Co171 2.039 . S
O182 C172 1.265 . S
C183 O179 1.253 . S
C183 O184 1.227 . S
O184 C183 1.227 . S
N185 Co171 2.140 . S
N185 C188 1.346 . S
N185 C189 1.345 . S
C186 C187 1.387 1_655 S
C186 C190 1.391 . S
C187 C186 1.387 1_455 S
C187 C188 1.369 . S
C187 H196 0.929 . S
C188 N185 1.346 . S
C188 C187 1.369 . S
C188 H191 0.928 . S
C189 N185 1.345 . S
C189 C190 1.371 1_455 S
C189 H192 0.931 . S
C190 C186 1.391 . S
C190 C189 1.371 1_655 S
C190 H197 0.930 . S
H191 C188 0.928 . S
H192 C189 0.931 . S
H193 C169 0.930 . S
H194 C166 0.930 . S
H195 C175 0.930 . S
H196 C187 0.929 . S
H197 C190 0.930 . S
C198 C199 1.351 . S
C198 N201 1.368 1_556 S
C198 H203 0.931 . S
C199 C198 1.351 . S
C199 N200 1.373 1_556 S
C199 H227 0.930 . S
N200 C199 1.373 1_554 S
N200 C202 1.340 . S
N201 C198 1.368 1_554 S
N201 C202 1.321 . S
N201 Co204 2.135 . S
C202 N200 1.340 . S
C202 N201 1.321 . S
C202 H226 0.930 . S
H203 C198 0.931 . S
Co204 N201 2.135 . S
Co204 N207 2.121 . S
Co204 O212 2.055 1_554 S
Co204 O215 2.039 . S
Co204 N218 2.140 . S
C205 O206 1.227 . S
C205 O215 1.265 . S
O206 C205 1.227 . S
N207 Co204 2.121 . S
N207 C209 1.375 . S
N207 C210 1.313 . S
C208 C209 1.338 . S
C208 N211 1.377 . S
C208 H228 0.930 . S
C209 N207 1.375 . S
C209 C208 1.338 . S
C209 H213 0.931 . S
C210 N207 1.313 . S
C210 N211 1.344 . S
C210 H214 0.930 1_554 S
N211 C208 1.377 . S
N211 C210 1.344 . S
O212 Co204 2.055 1_556 S
O212 C216 1.253 . S
H213 C209 0.931 . S
H214 C210 0.930 1_556 S
O215 Co204 2.039 . S
O215 C205 1.265 . S
C216 O212 1.253 . S
C216 O217 1.227 . S
O217 C216 1.227 . S
N218 Co204 2.140 . S
N218 C221 1.346 . S
N218 C222 1.345 . S
C219 C220 1.387 1_455 S
C219 C223 1.391 . S
C220 C219 1.387 1_655 S
C220 C221 1.369 . S
C220 H229 0.929 . S
C221 N218 1.346 . S
C221 C220 1.369 . S
C221 H224 0.928 . S
C222 N218 1.345 . S
C222 C223 1.371 1_655 S
C222 H225 0.931 . S
C223 C219 1.391 . S
C223 C222 1.371 1_455 S
C223 H230 0.930 . S
H224 C221 0.928 . S
H225 C222 0.931 . S
H226 C202 0.930 . S
H227 C199 0.930 . S
H228 C208 0.930 . S
H229 C220 0.929 . S
H230 C223 0.930 . S
C231 C232 1.351 . S
C231 N234 1.368 . S
C231 H236 0.931 . S
C232 C231 1.351 . S
C232 N233 1.373 . S
C232 H260 0.930 . S
N233 C232 1.373 . S
N233 C235 1.340 . S
N234 C231 1.368 . S
N234 C235 1.321 . S
N234 Co237 2.135 . S
C235 N233 1.340 . S
C235 N234 1.321 . S
C235 H259 0.930 . S
H236 C231 0.931 . S
Co237 N234 2.135 . S
Co237 N240 2.121 . S
Co237 O245 2.055 . S
Co237 O248 2.039 . S
Co237 N251 2.140 . S
C238 O239 1.227 . S
C238 O248 1.265 . S
O239 C238 1.227 . S
N240 Co237 2.121 . S
N240 C242 1.375 . S
N240 C243 1.313 . S
C241 C242 1.338 . S
C241 N244 1.377 . S
C241 H261 0.930 . S
C242 N240 1.375 . S
C242 C241 1.338 . S
C242 H246 0.931 . S
C243 N240 1.313 . S
C243 N244 1.344 . S
C243 H247 0.930 . S
N244 C241 1.377 . S
N244 C243 1.344 . S
O245 Co237 2.055 . S
O245 C249 1.253 . S
H246 C242 0.931 . S
H247 C243 0.930 . S
O248 Co237 2.039 . S
O248 C238 1.265 . S
C249 O245 1.253 . S
C249 O250 1.227 . S
O250 C249 1.227 . S
N251 Co237 2.140 . S
N251 C254 1.346 . S
N251 C255 1.345 . S
C252 C253 1.387 1_455 S
C252 C256 1.391 . S
C253 C252 1.387 1_655 S
C253 C254 1.369 . S
C253 H262 0.929 . S
C254 N251 1.346 . S
C254 C253 1.369 . S
C254 H257 0.928 . S
C255 N251 1.345 . S
C255 C256 1.371 1_655 S
C255 H258 0.931 . S
C256 C252 1.391 . S
C256 C255 1.371 1_455 S
C256 H263 0.930 . S
H257 C254 0.928 . S
H258 C255 0.931 . S
H259 C235 0.930 . S
H260 C232 0.930 . S
H261 C241 0.930 . S
H262 C253 0.929 . S
H263 C256 0.930 . S
C264 C265 1.351 . S
C264 N267 1.368 1_554 S
C264 H269 0.931 . S
C265 C264 1.351 . S
C265 N266 1.373 1_554 S
C265 H293 0.930 . S
N266 C265 1.373 1_556 S
N266 C268 1.340 . S
N267 C264 1.368 1_556 S
N267 C268 1.321 . S
N267 Co270 2.135 . S
C268 N266 1.340 . S
C268 N267 1.321 . S
C268 H292 0.930 . S
H269 C264 0.931 . S
Co270 N267 2.135 . S
Co270 N273 2.121 . S
Co270 O278 2.055 1_556 S
Co270 O281 2.039 . S
Co270 N284 2.140 . S
C271 O272 1.227 . S
C271 O281 1.265 . S
O272 C271 1.227 . S
N273 Co270 2.121 . S
N273 C275 1.375 . S
N273 C276 1.313 . S
C274 C275 1.338 . S
C274 N277 1.377 . S
C274 H294 0.930 . S
C275 N273 1.375 . S
C275 C274 1.338 . S
C275 H279 0.931 . S
C276 N273 1.313 . S
C276 N277 1.344 . S
C276 H280 0.930 1_556 S
N277 C274 1.377 . S
N277 C276 1.344 . S
O278 Co270 2.055 1_554 S
O278 C282 1.253 . S
H279 C275 0.931 . S
H280 C276 0.930 1_554 S
O281 Co270 2.039 . S
O281 C271 1.265 . S
C282 O278 1.253 . S
C282 O283 1.227 . S
O283 C282 1.227 . S
N284 Co270 2.140 . S
N284 C287 1.346 . S
N284 C288 1.345 . S
C285 C286 1.387 . S
C285 C289 1.391 . S
C286 C285 1.387 . S
C286 C287 1.369 . S
C286 H295 0.929 . S
C287 N284 1.346 . S
C287 C286 1.369 . S
C287 H290 0.928 . S
C288 N284 1.345 . S
C288 C289 1.371 . S
C288 H291 0.931 . S
C289 C285 1.391 . S
C289 C288 1.371 . S
C289 H296 0.930 . S
H290 C287 0.928 . S
H291 C288 0.931 . S
H292 C268 0.930 . S
H293 C265 0.930 . S
H294 C274 0.930 . S
H295 C286 0.929 . S
H296 C289 0.930 . S
C297 C298 1.351 . S
C297 N300 1.368 . S
C297 H302 0.931 . S
C298 C297 1.351 . S
C298 N299 1.373 . S
C298 H326 0.930 . S
N299 C298 1.373 . S
N299 C301 1.340 . S
N300 C297 1.368 . S
N300 C301 1.321 . S
N300 Co303 2.135 . S
C301 N299 1.340 . S
C301 N300 1.321 . S
C301 H325 0.930 . S
H302 C297 0.931 . S
Co303 N300 2.135 . S
Co303 N306 2.121 . S
Co303 O311 2.055 . S
Co303 O314 2.039 . S
Co303 N317 2.140 . S
C304 O305 1.227 . S
C304 O314 1.265 . S
O305 C304 1.227 . S
N306 Co303 2.121 . S
N306 C308 1.375 . S
N306 C309 1.313 . S
C307 C308 1.338 . S
C307 N310 1.377 . S
C307 H327 0.930 . S
C308 N306 1.375 . S
C308 C307 1.338 . S
C308 H312 0.931 . S
C309 N306 1.313 . S
C309 N310 1.344 . S
C309 H313 0.930 . S
N310 C307 1.377 . S
N310 C309 1.344 . S
O311 Co303 2.055 . S
O311 C315 1.253 . S
H312 C308 0.931 . S
H313 C309 0.930 . S
O314 Co303 2.039 . S
O314 C304 1.265 . S
C315 O311 1.253 . S
C315 O316 1.227 . S
O316 C315 1.227 . S
N317 Co303 2.140 . S
N317 C320 1.346 . S
N317 C321 1.345 . S
C318 C319 1.387 . S
C318 C322 1.391 . S
C319 C318 1.387 . S
C319 C320 1.369 . S
C319 H328 0.929 . S
C320 N317 1.346 . S
C320 C319 1.369 . S
C320 H323 0.928 . S
C321 N317 1.345 . S
C321 C322 1.371 . S
C321 H324 0.931 . S
C322 C318 1.391 . S
C322 C321 1.371 . S
C322 H329 0.930 . S
H323 C320 0.928 . S
H324 C321 0.931 . S
H325 C301 0.930 . S
H326 C298 0.930 . S
H327 C307 0.930 . S
H328 C319 0.929 . S
H329 C322 0.930 . S
C330 C331 1.351 . S
C330 N333 1.368 1_556 S
C330 H335 0.931 . S
C331 C330 1.351 . S
C331 N332 1.373 1_556 S
C331 H359 0.930 . S
N332 C331 1.373 1_554 S
N332 C334 1.340 . S
N333 C330 1.368 1_554 S
N333 C334 1.321 . S
N333 Co336 2.135 . S
C334 N332 1.340 . S
C334 N333 1.321 . S
C334 H358 0.930 . S
H335 C330 0.931 . S
Co336 N333 2.135 . S
Co336 N339 2.121 . S
Co336 O344 2.055 1_554 S
Co336 O347 2.039 . S
Co336 N350 2.140 . S
C337 O338 1.227 . S
C337 O347 1.265 . S
O338 C337 1.227 . S
N339 Co336 2.121 . S
N339 C341 1.375 . S
N339 C342 1.313 . S
C340 C341 1.338 . S
C340 N343 1.377 . S
C340 H360 0.930 . S
C341 N339 1.375 . S
C341 C340 1.338 . S
C341 H345 0.931 . S
C342 N339 1.313 . S
C342 N343 1.344 . S
C342 H346 0.930 1_554 S
N343 C340 1.377 . S
N343 C342 1.344 . S
O344 Co336 2.055 1_556 S
O344 C348 1.253 . S
H345 C341 0.931 . S
H346 C342 0.930 1_556 S
O347 Co336 2.039 . S
O347 C337 1.265 . S
C348 O344 1.253 . S
C348 O349 1.227 . S
O349 C348 1.227 . S
N350 Co336 2.140 . S
N350 C353 1.346 . S
N350 C354 1.345 . S
C351 C352 1.387 . S
C351 C355 1.391 . S
C352 C351 1.387 . S
C352 C353 1.369 . S
C352 H361 0.929 . S
C353 N350 1.346 . S
C353 C352 1.369 . S
C353 H356 0.928 . S
C354 N350 1.345 . S
C354 C355 1.371 . S
C354 H357 0.931 . S
C355 C351 1.391 . S
C355 C354 1.371 . S
C355 H362 0.930 . S
H356 C353 0.928 . S
H357 C354 0.931 . S
H358 C334 0.930 . S
H359 C331 0.930 . S
H360 C340 0.930 . S
H361 C352 0.929 . S
H362 C355 0.930 . S
C363 C364 1.351 . S
C363 N366 1.368 . S
C363 H368 0.931 . S
C364 C363 1.351 . S
C364 N365 1.373 . S
C364 H392 0.930 . S
N365 C364 1.373 . S
N365 C367 1.340 . S
N366 C363 1.368 . S
N366 C367 1.321 . S
N366 Co369 2.135 . S
C367 N365 1.340 . S
C367 N366 1.321 . S
C367 H391 0.930 . S
H368 C363 0.931 . S
Co369 N366 2.135 . S
Co369 N372 2.121 . S
Co369 O377 2.055 . S
Co369 O380 2.039 . S
Co369 N383 2.140 . S
C370 O371 1.227 . S
C370 O380 1.265 . S
O371 C370 1.227 . S
N372 Co369 2.121 . S
N372 C374 1.375 . S
N372 C375 1.313 . S
C373 C374 1.338 . S
C373 N376 1.377 . S
C373 H393 0.930 . S
C374 N372 1.375 . S
C374 C373 1.338 . S
C374 H378 0.931 . S
C375 N372 1.313 . S
C375 N376 1.344 . S
C375 H379 0.930 . S
N376 C373 1.377 . S
N376 C375 1.344 . S
O377 Co369 2.055 . S
O377 C381 1.253 . S
H378 C374 0.931 . S
H379 C375 0.930 . S
O380 Co369 2.039 . S
O380 C370 1.265 . S
C381 O377 1.253 . S
C381 O382 1.227 . S
O382 C381 1.227 . S
N383 Co369 2.140 . S
N383 C386 1.346 . S
N383 C387 1.345 . S
C384 C385 1.387 . S
C384 C388 1.391 . S
C385 C384 1.387 . S
C385 C386 1.369 . S
C385 H394 0.929 . S
C386 N383 1.346 . S
C386 C385 1.369 . S
C386 H389 0.928 . S
C387 N383 1.345 . S
C387 C388 1.371 . S
C387 H390 0.931 . S
C388 C384 1.391 . S
C388 C387 1.371 . S
C388 H395 0.930 . S
H389 C386 0.928 . S
H390 C387 0.931 . S
H391 C367 0.930 . S
H392 C364 0.930 . S
H393 C373 0.930 . S
H394 C385 0.929 . S
H395 C388 0.930 . S
C396 C397 1.351 . S
C396 N399 1.368 . S
C396 H401 0.931 . S
C397 C396 1.351 . S
C397 N398 1.373 . S
C397 H425 0.930 . S
N398 C397 1.373 . S
N398 C400 1.340 . S
N399 C396 1.368 . S
N399 C400 1.321 . S
N399 Co402 2.135 . S
C400 N398 1.340 . S
C400 N399 1.321 . S
C400 H424 0.930 . S
H401 C396 0.931 . S
Co402 N399 2.135 . S
Co402 N405 2.121 . S
Co402 O410 2.055 . S
Co402 O413 2.039 . S
Co402 N416 2.140 . S
C403 O404 1.227 . S
C403 O413 1.265 . S
O404 C403 1.227 . S
N405 Co402 2.121 . S
N405 C407 1.375 . S
N405 C408 1.313 . S
C406 C407 1.338 . S
C406 N409 1.377 . S
C406 H426 0.930 . S
C407 N405 1.375 . S
C407 C406 1.338 . S
C407 H411 0.931 . S
C408 N405 1.313 . S
C408 N409 1.344 . S
C408 H412 0.930 . S
N409 C406 1.377 . S
N409 C408 1.344 . S
O410 Co402 2.055 . S
O410 C414 1.253 . S
H411 C407 0.931 . S
H412 C408 0.930 . S
O413 Co402 2.039 . S
O413 C403 1.265 . S
C414 O410 1.253 . S
C414 O415 1.227 . S
O415 C414 1.227 . S
N416 Co402 2.140 . S
N416 C419 1.346 . S
N416 C420 1.345 . S
C417 C418 1.387 . S
C417 C421 1.391 . S
C418 C417 1.387 . S
C418 C419 1.369 . S
C418 H427 0.929 . S
C419 N416 1.346 . S
C419 C418 1.369 . S
C419 H422 0.928 . S
C420 N416 1.345 . S
C420 C421 1.371 . S
C420 H423 0.931 . S
C421 C417 1.391 . S
C421 C420 1.371 . S
C421 H428 0.930 . S
H422 C419 0.928 . S
H423 C420 0.931 . S
H424 C400 0.930 . S
H425 C397 0.930 . S
H426 C406 0.930 . S
H427 C418 0.929 . S
H428 C421 0.930 . S
C429 C430 1.351 . S
C429 N432 1.368 . S
C429 H434 0.931 . S
C430 C429 1.351 . S
C430 N431 1.373 . S
C430 H458 0.930 . S
N431 C430 1.373 . S
N431 C433 1.340 . S
N432 C429 1.368 . S
N432 C433 1.321 . S
N432 Co435 2.135 . S
C433 N431 1.340 . S
C433 N432 1.321 . S
C433 H457 0.930 . S
H434 C429 0.931 . S
Co435 N432 2.135 . S
Co435 N438 2.121 . S
Co435 O443 2.055 . S
Co435 O446 2.039 . S
Co435 N449 2.140 . S
C436 O437 1.227 . S
C436 O446 1.265 . S
O437 C436 1.227 . S
N438 Co435 2.121 . S
N438 C440 1.375 . S
N438 C441 1.313 . S
C439 C440 1.338 . S
C439 N442 1.377 . S
C439 H459 0.930 . S
C440 N438 1.375 . S
C440 C439 1.338 . S
C440 H444 0.931 . S
C441 N438 1.313 . S
C441 N442 1.344 . S
C441 H445 0.930 . S
N442 C439 1.377 . S
N442 C441 1.344 . S
O443 Co435 2.055 . S
O443 C447 1.253 . S
H444 C440 0.931 . S
H445 C441 0.930 . S
O446 Co435 2.039 . S
O446 C436 1.265 . S
C447 O443 1.253 . S
C447 O448 1.227 . S
O448 C447 1.227 . S
N449 Co435 2.140 . S
N449 C452 1.346 . S
N449 C453 1.345 . S
C450 C451 1.387 . S
C450 C454 1.391 . S
C451 C450 1.387 . S
C451 C452 1.369 . S
C451 H460 0.929 . S
C452 N449 1.346 . S
C452 C451 1.369 . S
C452 H455 0.928 . S
C453 N449 1.345 . S
C453 C454 1.371 . S
C453 H456 0.931 . S
C454 C450 1.391 . S
C454 C453 1.371 . S
C454 H461 0.930 . S
H455 C452 0.928 . S
H456 C453 0.931 . S
H457 C433 0.930 . S
H458 C430 0.930 . S
H459 C439 0.930 . S
H460 C451 0.929 . S
H461 C454 0.930 . S
C462 C463 1.351 . S
C462 N465 1.368 . S
C462 H467 0.931 . S
C463 C462 1.351 . S
C463 N464 1.373 . S
C463 H491 0.930 . S
N464 C463 1.373 . S
N464 C466 1.340 . S
N465 C462 1.368 . S
N465 C466 1.321 . S
N465 Co468 2.135 . S
C466 N464 1.340 . S
C466 N465 1.321 . S
C466 H490 0.930 . S
H467 C462 0.931 . S
Co468 N465 2.135 . S
Co468 N471 2.121 . S
Co468 O476 2.055 . S
Co468 O479 2.039 . S
Co468 N482 2.140 . S
C469 O470 1.227 . S
C469 O479 1.265 . S
O470 C469 1.227 . S
N471 Co468 2.121 . S
N471 C473 1.375 . S
N471 C474 1.313 . S
C472 C473 1.338 . S
C472 N475 1.377 . S
C472 H492 0.930 . S
C473 N471 1.375 . S
C473 C472 1.338 . S
C473 H477 0.931 . S
C474 N471 1.313 . S
C474 N475 1.344 . S
C474 H478 0.930 . S
N475 C472 1.377 . S
N475 C474 1.344 . S
O476 Co468 2.055 . S
O476 C480 1.253 . S
H477 C473 0.931 . S
H478 C474 0.930 . S
O479 Co468 2.039 . S
O479 C469 1.265 . S
C480 O476 1.253 . S
C480 O481 1.227 . S
O481 C480 1.227 . S
N482 Co468 2.140 . S
N482 C485 1.346 . S
N482 C486 1.345 . S
C483 C484 1.387 . S
C483 C487 1.391 . S
C484 C483 1.387 . S
C484 C485 1.369 . S
C484 H493 0.929 . S
C485 N482 1.346 . S
C485 C484 1.369 . S
C485 H488 0.928 . S
C486 N482 1.345 . S
C486 C487 1.371 . S
C486 H489 0.931 . S
C487 C483 1.391 . S
C487 C486 1.371 . S
C487 H494 0.930 . S
H488 C485 0.928 . S
H489 C486 0.931 . S
H490 C466 0.930 . S
H491 C463 0.930 . S
H492 C472 0.930 . S
H493 C484 0.929 . S
H494 C487 0.930 . S
C495 C496 1.351 . S
C495 N498 1.368 . S
C495 H500 0.931 . S
C496 C495 1.351 . S
C496 N497 1.373 . S
C496 H524 0.930 . S
N497 C496 1.373 . S
N497 C499 1.340 . S
N498 C495 1.368 . S
N498 C499 1.321 . S
N498 Co501 2.135 . S
C499 N497 1.340 . S
C499 N498 1.321 . S
C499 H523 0.930 . S
H500 C495 0.931 . S
Co501 N498 2.135 . S
Co501 N504 2.121 . S
Co501 O509 2.055 . S
Co501 O512 2.039 . S
Co501 N515 2.140 . S
C502 O503 1.227 . S
C502 O512 1.265 . S
O503 C502 1.227 . S
N504 Co501 2.121 . S
N504 C506 1.375 . S
N504 C507 1.313 . S
C505 C506 1.338 . S
C505 N508 1.377 . S
C505 H525 0.930 . S
C506 N504 1.375 . S
C506 C505 1.338 . S
C506 H510 0.931 . S
C507 N504 1.313 . S
C507 N508 1.344 . S
C507 H511 0.930 . S
N508 C505 1.377 . S
N508 C507 1.344 . S
O509 Co501 2.055 . S
O509 C513 1.253 . S
H510 C506 0.931 . S
H511 C507 0.930 . S
O512 Co501 2.039 . S
O512 C502 1.265 . S
C513 O509 1.253 . S
C513 O514 1.227 . S
O514 C513 1.227 . S
N515 Co501 2.140 . S
N515 C518 1.346 . S
N515 C519 1.345 . S
C516 C517 1.387 . S
C516 C520 1.391 . S
C517 C516 1.387 . S
C517 C518 1.369 . S
C517 H526 0.929 . S
C518 N515 1.346 . S
C518 C517 1.369 . S
C518 H521 0.928 . S
C519 N515 1.345 . S
C519 C520 1.371 . S
C519 H522 0.931 . S
C520 C516 1.391 . S
C520 C519 1.371 . S
C520 H527 0.930 . S
H521 C518 0.928 . S
H522 C519 0.931 . S
H523 C499 0.930 . S
H524 C496 0.930 . S
H525 C505 0.930 . S
H526 C517 0.929 . S
H527 C520 0.930 . S
H528 C536 0.929 . S
H529 C538 0.930 . S
H530 C540 0.930 . S
H531 C543 0.929 . S
H532 C546 0.930 . S
H533 C548 0.960 . S
H534 C548 0.960 . S
H535 C548 0.960 . S
C536 H528 0.929 . S
C536 C537 1.377 . S
C536 C538 1.384 . S
C537 C536 1.377 . S
C537 C543 1.390 . S
C538 H529 0.930 . S
C538 C536 1.384 . S
C538 C539 1.372 . S
C539 C538 1.372 . S
C539 C540 1.400 . S
C539 C544 1.490 . S
C540 H530 0.930 . S
C540 C539 1.400 . S
C540 C543 1.386 . S
H541 C557 0.930 . S
H542 C558 0.931 . S
C543 H531 0.929 . S
C543 C537 1.390 . S
C543 C540 1.386 . S
C544 C539 1.490 . S
C544 C546 1.395 . S
C544 C547 1.403 . S
H545 C551 0.930 . S
C546 H532 0.930 . S
C546 C544 1.395 . S
C546 C549 1.403 . S
C547 C544 1.403 . S
C547 C548 1.524 . S
C547 C551 1.400 . S
C548 H533 0.960 . S
C548 H534 0.960 . S
C548 H535 0.960 . S
C548 C547 1.524 . S
C549 C546 1.403 . S
C549 C550 1.392 . S
C549 C553 1.495 . S
C550 C549 1.392 . S
C550 C551 1.385 . S
C550 C552 1.478 . S
C551 H545 0.930 . S
C551 C547 1.400 . S
C551 C550 1.385 . S
C552 C550 1.478 . S
C552 C554 1.381 . S
C552 C558 1.383 . S
C553 C549 1.495 . S
C553 H559 0.959 . S
C553 H560 0.961 . S
C553 H561 0.960 . S
C554 C552 1.381 . S
C554 C555 1.394 . S
C554 H562 0.930 . S
C555 C554 1.394 . S
C555 C556 1.383 . S
C555 H563 0.929 . S
C556 C555 1.383 . S
C556 C557 1.377 . S
C557 H541 0.930 . S
C557 C556 1.377 . S
C557 C558 1.379 . S
C558 H542 0.931 . S
C558 C552 1.383 . S
C558 C557 1.379 . S
H559 C553 0.959 . S
H560 C553 0.961 . S
H561 C553 0.960 . S
H562 C554 0.930 . S
H563 C555 0.929 . S
H564 C572 0.929 1_455 S
H565 C574 0.930 . S
H566 C576 0.930 . S
H567 C579 0.929 . S
H568 C582 0.930 . S
H569 C584 0.960 . S
H570 C584 0.960 1_565 S
H571 C584 0.960 1_565 S
C572 H564 0.929 1_655 S
C572 C573 1.377 . S
C572 C574 1.384 1_655 S
C573 C572 1.377 . S
C573 C579 1.390 . S
C574 H565 0.930 . S
C574 C572 1.384 1_455 S
C574 C575 1.372 1_455 S
C575 C574 1.372 1_655 S
C575 C576 1.400 . S
C575 C580 1.490 . S
C576 H566 0.930 . S
C576 C575 1.400 . S
C576 C579 1.386 . S
H577 C593 0.930 1_655 S
H578 C594 0.931 1_655 S
C579 H567 0.929 . S
C579 C573 1.390 . S
C579 C576 1.386 . S
C580 C575 1.490 . S
C580 C582 1.395 1_655 S
C580 C583 1.416 . S
H581 C587 0.930 . S
C582 H568 0.930 . S
C582 C580 1.395 1_455 S
C582 C585 1.403 . S
C583 C580 1.416 . S
C583 C584 1.525 1_565 S
C583 C587 1.385 1_565 S
C584 H569 0.960 . S
C584 H570 0.960 1_545 S
C584 H571 0.960 1_545 S
C584 C583 1.525 1_545 S
C585 C582 1.403 . S
C585 C586 1.392 1_565 S
C585 C589 1.495 . S
C586 C585 1.392 1_545 S
C586 C587 1.385 1_455 S
C586 C588 1.478 . S
C587 H581 0.930 . S
C587 C583 1.385 1_545 S
C587 C586 1.385 1_655 S
C588 C586 1.478 . S
C588 C590 1.381 . S
C588 C594 1.383 . S
C589 C585 1.495 . S
C589 H595 0.959 . S
C589 H596 0.961 1_565 S
C589 H597 0.960 1_565 S
C590 C588 1.381 . S
C590 C591 1.394 . S
C590 H598 0.930 . S
C591 C590 1.394 . S
C591 C592 1.383 . S
C591 H599 0.929 . S
C592 C591 1.383 . S
C592 C593 1.377 . S
C593 H577 0.930 1_455 S
C593 C592 1.377 . S
C593 C594 1.379 . S
C594 H578 0.931 1_455 S
C594 C588 1.383 . S
C594 C593 1.379 . S
H595 C589 0.959 . S
H596 C589 0.961 1_545 S
H597 C589 0.960 1_545 S
H598 C590 0.930 . S
H599 C591 0.929 . S
H600 C608 0.929 . S
H601 C610 0.930 . S
H602 C612 0.930 . S
H603 C615 0.929 . S
H604 C618 0.930 . S
H605 C620 0.960 . S
H606 C620 0.960 . S
H607 C620 0.960 . S
C608 H600 0.929 . S
C608 C609 1.377 . S
C608 C610 1.384 . S
C609 C608 1.377 . S
C609 C615 1.390 . S
C610 H601 0.930 . S
C610 C608 1.384 . S
C610 C611 1.372 . S
C611 C610 1.372 . S
C611 C612 1.400 . S
C611 C616 1.490 . S
C612 H602 0.930 . S
C612 C611 1.400 . S
C612 C615 1.386 . S
H613 C629 0.930 . S
H614 C630 0.931 . S
C615 H603 0.929 . S
C615 C609 1.390 . S
C615 C612 1.386 . S
C616 C611 1.490 . S
C616 C618 1.331 1_545 S
C616 C619 1.403 . S
H617 C623 0.930 . S
C618 H604 0.930 . S
C618 C616 1.331 1_565 S
C618 C621 1.467 . S
C619 C616 1.403 . S
C619 C620 1.524 . S
C619 C623 1.400 1_545 S
C620 H605 0.960 . S
C620 H606 0.960 . S
C620 H607 0.960 . S
C620 C619 1.524 . S
C621 C618 1.467 . S
C621 C622 1.392 . S
C621 C625 1.495 . S
C622 C621 1.392 . S
C622 C623 1.385 . S
C622 C624 1.478 . S
C623 H617 0.930 . S
C623 C619 1.400 1_565 S
C623 C622 1.385 . S
C624 C622 1.478 . S
C624 C626 1.381 . S
C624 C630 1.383 . S
C625 C621 1.495 . S
C625 H631 0.959 . S
C625 H632 0.961 . S
C625 H633 0.960 . S
C626 C624 1.381 . S
C626 C627 1.394 . S
C626 H634 0.930 . S
C627 C626 1.394 . S
C627 C628 1.383 . S
C627 H635 0.929 . S
C628 C627 1.383 . S
C628 C629 1.377 . S
C629 H613 0.930 . S
C629 C628 1.377 . S
C629 C630 1.379 . S
C630 H614 0.931 . S
C630 C624 1.383 . S
C630 C629 1.379 . S
H631 C625 0.959 . S
H632 C625 0.961 . S
H633 C625 0.960 . S
H634 C626 0.930 . S
H635 C627 0.929 . S
H636 C644 0.929 . S
H637 C646 0.930 1_455 S
H638 C648 0.930 . S
H639 C651 0.929 . S
H640 C654 0.930 . S
H641 C656 0.960 . S
H642 C656 0.960 . S
H643 C656 0.960 . S
C644 H636 0.929 . S
C644 C645 1.377 . S
C644 C646 1.384 . S
C645 C644 1.377 . S
C645 C651 1.390 . S
C646 H637 0.930 1_655 S
C646 C644 1.384 . S
C646 C647 1.372 . S
C647 C646 1.372 . S
C647 C648 1.400 . S
C647 C652 1.490 . S
C648 H638 0.930 . S
C648 C647 1.400 . S
C648 C651 1.386 . S
H649 C665 0.930 . S
H650 C666 0.931 1_655 S
C651 H639 0.929 . S
C651 C645 1.390 . S
C651 C648 1.386 . S
C652 C647 1.490 . S
C652 C654 1.395 . S
C652 C655 1.403 1_655 S
H653 C659 0.930 . S
C654 H640 0.930 . S
C654 C652 1.395 . S
C654 C657 1.403 . S
C655 C652 1.403 1_455 S
C655 C656 1.524 . S
C655 C659 1.400 . S
C656 H641 0.960 . S
C656 H642 0.960 . S
C656 H643 0.960 . S
C656 C655 1.524 . S
C657 C654 1.403 . S
C657 C658 1.392 1_655 S
C657 C661 1.495 . S
C658 C657 1.392 1_455 S
C658 C659 1.385 . S
C658 C660 1.478 . S
C659 H653 0.930 . S
C659 C655 1.400 . S
C659 C658 1.385 . S
C660 C658 1.478 . S
C660 C662 1.381 . S
C660 C666 1.383 . S
C661 C657 1.495 . S
C661 H667 0.959 . S
C661 H668 0.961 . S
C661 H669 0.960 . S
C662 C660 1.381 . S
C662 C663 1.394 . S
C662 H670 0.930 . S
C663 C662 1.394 . S
C663 C664 1.383 . S
C663 H671 0.929 . S
C664 C663 1.383 . S
C664 C665 1.377 . S
C665 H649 0.930 . S
C665 C664 1.377 . S
C665 C666 1.379 . S
C666 H650 0.931 1_455 S
C666 C660 1.383 . S
C666 C665 1.379 . S
H667 C661 0.959 . S
H668 C661 0.961 . S
H669 C661 0.960 . S
H670 C662 0.930 . S
H671 C663 0.929 . S
H672 C680 0.929 . S
H673 C682 0.930 . S
H674 C684 0.930 . S
H675 C687 0.929 . S
H676 C690 0.930 . S
H677 C692 0.960 . S
H678 C692 0.960 . S
H679 C692 0.960 . S
C680 H672 0.929 . S
C680 C681 1.377 . S
C680 C682 1.384 . S
C681 C680 1.377 . S
C681 C687 1.390 . S
C682 H673 0.930 . S
C682 C680 1.384 . S
C682 C683 1.372 . S
C683 C682 1.372 . S
C683 C684 1.400 . S
C683 C688 1.490 . S
C684 H674 0.930 . S
C684 C683 1.400 . S
C684 C687 1.386 . S
H685 C701 0.930 . S
H686 C702 0.931 . S
C687 H675 0.929 . S
C687 C681 1.390 . S
C687 C684 1.386 . S
C688 C683 1.490 . S
C688 C690 1.395 . S
C688 C691 1.403 . S
H689 C695 0.930 . S
C690 H676 0.930 . S
C690 C688 1.395 . S
C690 C693 1.403 . S
C691 C688 1.403 . S
C691 C692 1.524 . S
C691 C695 1.400 . S
C692 H677 0.960 . S
C692 H678 0.960 . S
C692 H679 0.960 . S
C692 C691 1.524 . S
C693 C690 1.403 . S
C693 C694 1.392 . S
C693 C697 1.495 . S
C694 C693 1.392 . S
C694 C695 1.385 . S
C694 C696 1.478 . S
C695 H689 0.930 . S
C695 C691 1.400 . S
C695 C694 1.385 . S
C696 C694 1.478 . S
C696 C698 1.381 . S
C696 C702 1.383 . S
C697 C693 1.495 . S
C697 H703 0.959 . S
C697 H704 0.961 . S
C697 H705 0.960 . S
C698 C696 1.381 . S
C698 C699 1.394 . S
C698 H706 0.930 . S
C699 C698 1.394 . S
C699 C700 1.383 . S
C699 H707 0.929 . S
C700 C699 1.383 . S
C700 C701 1.377 . S
C701 H685 0.930 . S
C701 C700 1.377 . S
C701 C702 1.379 . S
C702 H686 0.931 . S
C702 C696 1.383 . S
C702 C701 1.379 . S
H703 C697 0.959 . S
H704 C697 0.961 . S
H705 C697 0.960 . S
H706 C698 0.930 . S
H707 C699 0.929 . S
H708 C716 0.929 . S
H709 C718 0.930 . S
H710 C720 0.930 . S
H711 C723 0.929 . S
H712 C726 0.929 . S
H713 C728 0.960 . S
H714 C728 0.960 . S
H715 C728 0.960 . S
C716 H708 0.929 . S
C716 C717 1.377 . S
C716 C718 1.384 . S
C717 C716 1.377 . S
C717 C723 1.390 . S
C718 H709 0.930 . S
C718 C716 1.384 . S
C718 C719 1.372 . S
C719 C718 1.372 . S
C719 C720 1.400 . S
C719 C724 1.490 . S
C720 H710 0.930 . S
C720 C719 1.400 . S
C720 C723 1.386 . S
H721 C737 0.930 . S
H722 C738 0.931 . S
C723 H711 0.929 . S
C723 C717 1.390 . S
C723 C720 1.386 . S
C724 C719 1.490 . S
C724 C726 1.345 1_565 S
C724 C727 1.403 . S
H725 C731 0.930 . S
C726 H712 0.929 . S
C726 C724 1.345 1_545 S
C726 C729 1.457 . S
C727 C724 1.403 . S
C727 C728 1.524 . S
C727 C731 1.400 1_565 S
C728 H713 0.960 . S
C728 H714 0.960 . S
C728 H715 0.960 . S
C728 C727 1.524 . S
C729 C726 1.457 . S
C729 C730 1.392 . S
C729 C733 1.495 . S
C730 C729 1.392 . S
C730 C731 1.385 . S
C730 C732 1.478 . S
C731 H725 0.930 . S
C731 C727 1.400 1_545 S
C731 C730 1.385 . S
C732 C730 1.478 . S
C732 C734 1.381 . S
C732 C738 1.383 . S
C733 C729 1.495 . S
C733 H739 0.959 . S
C733 H740 0.961 . S
C733 H741 0.960 . S
C734 C732 1.381 . S
C734 C735 1.394 . S
C734 H742 0.930 . S
C735 C734 1.394 . S
C735 C736 1.383 . S
C735 H743 0.929 . S
C736 C735 1.383 . S
C736 C737 1.377 . S
C737 H721 0.930 . S
C737 C736 1.377 . S
C737 C738 1.379 . S
C738 H722 0.931 . S
C738 C732 1.383 . S
C738 C737 1.379 . S
H739 C733 0.959 . S
H740 C733 0.961 . S
H741 C733 0.960 . S
H742 C734 0.930 . S
H743 C735 0.929 . S
H744 C752 0.929 . S
H745 C754 0.930 . S
H746 C756 0.930 1_455 S
H747 C759 0.929 1_455 S
H748 C762 0.930 . S
H749 C764 0.960 . S
H750 C764 0.960 . S
H751 C764 0.960 . S
C752 H744 0.929 . S
C752 C753 1.377 . S
C752 C754 1.384 . S
C753 C752 1.377 . S
C753 C759 1.390 . S
C754 H745 0.930 . S
C754 C752 1.384 . S
C754 C755 1.372 . S
C755 C754 1.372 . S
C755 C756 1.400 . S
C755 C760 1.490 . S
C756 H746 0.930 1_655 S
C756 C755 1.400 . S
C756 C759 1.386 . S
H757 C773 0.930 . S
H758 C774 0.931 . S
C759 H747 0.929 1_655 S
C759 C753 1.390 . S
C759 C756 1.386 . S
C760 C755 1.490 . S
C760 C762 1.395 . S
C760 C763 1.403 1_655 S
H761 C767 0.930 . S
C762 H748 0.930 . S
C762 C760 1.395 . S
C762 C765 1.403 . S
C763 C760 1.403 1_455 S
C763 C764 1.524 . S
C763 C767 1.400 . S
C764 H749 0.960 . S
C764 H750 0.960 . S
C764 H751 0.960 . S
C764 C763 1.524 . S
C765 C762 1.403 . S
C765 C766 1.392 1_655 S
C765 C769 1.495 . S
C766 C765 1.392 1_455 S
C766 C767 1.385 . S
C766 C768 1.478 . S
C767 H761 0.930 . S
C767 C763 1.400 . S
C767 C766 1.385 . S
C768 C766 1.478 . S
C768 C770 1.381 1_455 S
C768 C774 1.383 . S
C769 C765 1.495 . S
C769 H775 0.959 . S
C769 H776 0.961 . S
C769 H777 0.960 . S
C770 C768 1.381 1_655 S
C770 C771 1.394 1_655 S
C770 H778 0.930 . S
C771 C770 1.394 1_455 S
C771 C772 1.383 . S
C771 H779 0.920 1_455 S
C772 C771 1.383 . S
C772 C773 1.377 . S
C773 H757 0.930 . S
C773 C772 1.377 . S
C773 C774 1.379 . S
C774 H758 0.931 . S
C774 C768 1.383 . S
C774 C773 1.379 . S
H775 C769 0.959 . S
H776 C769 0.961 . S
H777 C769 0.960 . S
H778 C770 0.930 . S
H779 C771 0.920 1_655 S
H780 C788 0.929 . S
H781 C790 0.930 . S
H782 C792 0.930 . S
H783 C795 0.929 . S
H784 C798 0.930 . S
H785 C800 0.960 . S
H786 C800 0.960 1_556 S
H787 C800 0.960 . S
C788 H780 0.929 . S
C788 C789 1.377 1_556 S
C788 C790 1.384 . S
C789 C788 1.377 1_554 S
C789 C795 1.390 . S
C790 H781 0.930 . S
C790 C788 1.384 . S
C790 C791 1.372 1_556 S
C791 C790 1.372 1_554 S
C791 C792 1.400 . S
C791 C796 1.490 . S
C792 H782 0.930 . S
C792 C791 1.400 . S
C792 C795 1.386 . S
H793 C809 0.930 . S
H794 C810 0.931 . S
C795 H783 0.929 . S
C795 C789 1.390 . S
C795 C792 1.386 . S
C796 C791 1.490 . S
C796 C798 1.395 1_554 S
C796 C799 1.403 . S
H797 C803 0.931 . S
C798 H784 0.930 . S
C798 C796 1.395 1_556 S
C798 C801 1.403 . S
C799 C796 1.403 . S
C799 C800 1.524 . S
C799 C803 1.400 . S
C800 H785 0.960 . S
C800 H786 0.960 1_554 S
C800 H787 0.960 . S
C800 C799 1.524 . S
C801 C798 1.403 . S
C801 C802 1.392 . S
C801 C805 1.495 . S
C802 C801 1.392 . S
C802 C803 1.384 1_556 S
C802 C804 1.478 . S
C803 H797 0.931 . S
C803 C799 1.400 . S
C803 C802 1.384 1_554 S
C804 C802 1.478 . S
C804 C806 1.381 . S
C804 C810 1.383 1_556 S
C805 C801 1.495 . S
C805 H811 0.959 . S
C805 H812 0.961 . S
C805 H813 0.960 . S
C806 C804 1.381 . S
C806 C807 1.394 . S
C806 H814 0.930 . S
C807 C806 1.394 . S
C807 C808 1.383 . S
C807 H815 0.929 . S
C808 C807 1.383 . S
C808 C809 1.377 1_556 S
C809 H793 0.930 . S
C809 C808 1.377 1_554 S
C809 C810 1.379 . S
C810 H794 0.931 . S
C810 C804 1.383 1_554 S
C810 C809 1.379 . S
H811 C805 0.959 . S
H812 C805 0.961 . S
H813 C805 0.960 . S
H814 C806 0.930 . S
H815 C807 0.929 . S
H816 C824 0.929 1_556 S
H817 C826 0.956 . S
H818 C828 0.930 1_455 S
H819 C831 0.929 . S
H820 C834 0.930 . S
H821 C836 0.960 . S
H822 C836 0.960 . S
H823 C836 0.960 . S
C824 H816 0.929 1_554 S
C824 C825 1.377 . S
C824 C826 1.371 1_554 S
C825 C824 1.377 . S
C825 C831 1.390 . S
C826 H817 0.956 . S
C826 C824 1.371 1_556 S
C826 C827 1.360 1_556 S
C827 C826 1.360 1_554 S
C827 C828 1.400 . S
C827 C832 1.490 . S
C828 H818 0.930 1_655 S
C828 C827 1.400 . S
C828 C831 1.386 . S
H829 C845 0.930 1_554 S
H830 C846 0.931 . S
C831 H819 0.929 . S
C831 C825 1.390 . S
C831 C828 1.386 . S
C832 C827 1.490 . S
C832 C834 1.395 . S
C832 C835 1.403 1_654 S
H833 C839 0.930 . S
C834 H820 0.930 . S
C834 C832 1.395 . S
C834 C837 1.403 . S
C835 C832 1.403 1_456 S
C835 C836 1.524 . S
C835 C839 1.400 . S
C836 H821 0.960 . S
C836 H822 0.960 . S
C836 H823 0.960 . S
C836 C835 1.524 . S
C837 C834 1.403 . S
C837 C838 1.392 1_654 S
C837 C841 1.495 . S
C838 C837 1.392 1_456 S
C838 C839 1.385 . S
C838 C840 1.478 . S
C839 H833 0.930 . S
C839 C835 1.400 . S
C839 C838 1.385 . S
C840 C838 1.478 . S
C840 C842 1.381 . S
C840 C846 1.383 1_556 S
C841 C837 1.495 . S
C841 H847 0.959 . S
C841 H848 0.961 . S
C841 H849 0.960 . S
C842 C840 1.381 . S
C842 C843 1.394 . S
C842 H850 0.930 1_455 S
C843 C842 1.394 . S
C843 C844 1.383 . S
C843 H851 0.929 . S
C844 C843 1.383 . S
C844 C845 1.377 . S
C845 H829 0.930 1_556 S
C845 C844 1.377 . S
C845 C846 1.379 1_556 S
C846 H830 0.931 . S
C846 C840 1.383 1_554 S
C846 C845 1.379 1_554 S
H847 C841 0.959 . S
H848 C841 0.961 . S
H849 C841 0.960 . S
H850 C842 0.930 1_655 S
H851 C843 0.929 . S
H852 C860 0.929 . S
H853 C862 0.930 . S
H854 C864 0.930 . S
H855 C867 0.929 . S
H856 C870 0.930 . S
H857 C872 0.960 . S
H858 C872 0.960 . S
H859 C872 0.960 . S
C860 H852 0.929 . S
C860 C861 1.377 . S
C860 C862 1.384 . S
C861 C860 1.377 . S
C861 C867 1.390 . S
C862 H853 0.930 . S
C862 C860 1.384 . S
C862 C863 1.372 . S
C863 C862 1.372 . S
C863 C864 1.400 . S
C863 C868 1.490 . S
C864 H854 0.930 . S
C864 C863 1.400 . S
C864 C867 1.386 . S
H865 C881 0.930 . S
H866 C882 0.931 . S
C867 H855 0.929 . S
C867 C861 1.390 . S
C867 C864 1.386 . S
C868 C863 1.490 . S
C868 C870 1.395 . S
C868 C871 1.403 . S
H869 C875 0.930 . S
C870 H856 0.930 . S
C870 C868 1.395 . S
C870 C873 1.403 . S
C871 C868 1.403 . S
C871 C872 1.524 . S
C871 C875 1.400 . S
C872 H857 0.960 . S
C872 H858 0.960 . S
C872 H859 0.960 . S
C872 C871 1.524 . S
C873 C870 1.403 . S
C873 C874 1.392 . S
C873 C877 1.495 . S
C874 C873 1.392 . S
C874 C875 1.385 . S
C874 C876 1.478 . S
C875 H869 0.930 . S
C875 C871 1.400 . S
C875 C874 1.385 . S
C876 C874 1.478 . S
C876 C878 1.381 . S
C876 C882 1.383 . S
C877 C873 1.495 . S
C877 H883 0.959 . S
C877 H884 0.961 . S
C877 H885 0.960 . S
C878 C876 1.381 . S
C878 C879 1.394 . S
C878 H886 0.930 . S
C879 C878 1.394 . S
C879 C880 1.383 . S
C879 H887 0.929 . S
C880 C879 1.383 . S
C880 C881 1.377 . S
C881 H865 0.930 . S
C881 C880 1.377 . S
C881 C882 1.379 . S
C882 H866 0.931 . S
C882 C876 1.383 . S
C882 C881 1.379 . S
H883 C877 0.959 . S
H884 C877 0.961 . S
H885 C877 0.960 . S
H886 C878 0.930 . S
H887 C879 0.929 . S
H888 C896 0.929 1_554 S
H889 C898 0.940 . S
H890 C900 0.930 . S
H891 C903 0.929 . S
H892 C906 0.930 . S
H893 C908 0.960 . S
H894 C908 0.960 . S
H895 C908 0.960 . S
C896 H888 0.929 1_556 S
C896 C897 1.377 . S
C896 C898 1.383 1_556 S
C897 C896 1.377 . S
C897 C903 1.390 . S
C898 H889 0.940 . S
C898 C896 1.383 1_554 S
C898 C899 1.363 1_554 S
C899 C898 1.363 1_556 S
C899 C900 1.400 . S
C899 C904 1.490 . S
C900 H890 0.930 . S
C900 C899 1.400 . S
C900 C903 1.386 . S
H901 C917 0.930 1_556 S
H902 C918 0.931 . S
C903 H891 0.929 . S
C903 C897 1.390 . S
C903 C900 1.386 . S
C904 C899 1.490 . S
C904 C906 1.395 . S
C904 C907 1.403 1_556 S
H905 C911 0.930 . S
C906 H892 0.930 . S
C906 C904 1.395 . S
C906 C909 1.403 . S
C907 C904 1.403 1_554 S
C907 C908 1.524 . S
C907 C911 1.400 . S
C908 H893 0.960 . S
C908 H894 0.960 . S
C908 H895 0.960 . S
C908 C907 1.524 . S
C909 C906 1.403 . S
C909 C910 1.392 1_556 S
C909 C913 1.495 . S
C910 C909 1.392 1_554 S
C910 C911 1.385 . S
C910 C912 1.478 . S
C911 H905 0.930 . S
C911 C907 1.400 . S
C911 C910 1.385 . S
C912 C910 1.478 . S
C912 C914 1.381 . S
C912 C918 1.383 1_554 S
C913 C909 1.495 . S
C913 H919 0.959 . S
C913 H920 0.961 . S
C913 H921 0.960 . S
C914 C912 1.381 . S
C914 C915 1.394 . S
C914 H922 0.930 . S
C915 C914 1.394 . S
C915 C916 1.383 . S
C915 H923 0.929 . S
C916 C915 1.383 . S
C916 C917 1.377 . S
C917 H901 0.930 1_554 S
C917 C916 1.377 . S
C917 C918 1.379 1_554 S
C918 H902 0.931 . S
C918 C912 1.383 1_556 S
C918 C917 1.379 1_556 S
H919 C913 0.959 . S
H920 C913 0.961 . S
H921 C913 0.960 . S
H922 C914 0.930 . S
H923 C915 0.929 . S
H924 C932 0.929 . S
H925 C934 0.930 . S
H926 C936 0.930 . S
H927 C939 0.929 . S
H928 C942 0.930 . S
H929 C944 0.960 . S
H930 C944 0.960 . S
H931 C944 0.960 . S
C932 H924 0.929 . S
C932 C933 1.377 . S
C932 C934 1.384 . S
C933 C932 1.377 . S
C933 C939 1.390 . S
C934 H925 0.930 . S
C934 C932 1.384 . S
C934 C935 1.372 . S
C935 C934 1.372 . S
C935 C936 1.400 . S
C935 C940 1.490 . S
C936 H926 0.930 . S
C936 C935 1.400 . S
C936 C939 1.386 . S
H937 C953 0.930 . S
H938 C954 0.931 . S
C939 H927 0.929 . S
C939 C933 1.390 . S
C939 C936 1.386 . S
C940 C935 1.490 . S
C940 C942 1.395 . S
C940 C943 1.403 . S
H941 C947 0.930 . S
C942 H928 0.930 . S
C942 C940 1.395 . S
C942 C945 1.403 . S
C943 C940 1.403 . S
C943 C944 1.524 . S
C943 C947 1.400 . S
C944 H929 0.960 . S
C944 H930 0.960 . S
C944 H931 0.960 . S
C944 C943 1.524 . S
C945 C942 1.403 . S
C945 C946 1.392 . S
C945 C949 1.495 . S
C946 C945 1.392 . S
C946 C947 1.385 . S
C946 C948 1.478 . S
C947 H941 0.930 . S
C947 C943 1.400 . S
C947 C946 1.385 . S
C948 C946 1.478 . S
C948 C950 1.381 . S
C948 C954 1.383 . S
C949 C945 1.495 . S
C949 H955 0.959 . S
C949 H956 0.961 . S
C949 H957 0.960 . S
C950 C948 1.381 . S
C950 C951 1.394 . S
C950 H958 0.930 . S
C951 C950 1.394 . S
C951 C952 1.383 . S
C951 H959 0.929 . S
C952 C951 1.383 . S
C952 C953 1.377 . S
C953 H937 0.930 . S
C953 C952 1.377 . S
C953 C954 1.379 . S
C954 H938 0.931 . S
C954 C948 1.383 . S
C954 C953 1.379 . S
H955 C949 0.959 . S
H956 C949 0.961 . S
H957 C949 0.960 . S
H958 C950 0.930 . S
H959 C951 0.929 . S
H960 C968 0.957 . S
H961 C970 0.930 . S
H962 C972 0.930 . S
H963 C975 0.929 . S
H964 C978 0.930 . S
H965 C980 0.960 . S
H966 C980 0.960 1_545 S
H967 C980 0.960 1_545 S
C968 H960 0.957 . S
C968 C969 1.332 1_554 S
C968 C970 1.404 . S
C969 C968 1.332 1_556 S
C969 C975 1.390 . S
C970 H961 0.930 . S
C970 C968 1.404 . S
C970 C971 1.372 1_554 S
C971 C970 1.372 1_556 S
C971 C972 1.400 . S
C971 C976 1.490 . S
C972 H962 0.930 . S
C972 C971 1.400 . S
C972 C975 1.386 . S
H973 C989 0.930 1_556 S
H974 C990 0.968 . S
C975 H963 0.929 . S
C975 C969 1.390 . S
C975 C972 1.386 . S
C976 C971 1.490 . S
C976 C978 1.395 1_556 S
C976 C979 1.418 . S
H977 C983 0.930 . S
C978 H964 0.930 . S
C978 C976 1.395 1_554 S
C978 C981 1.470 . S
C979 C976 1.418 . S
C979 C980 1.525 1_545 S
C979 C983 1.383 1_545 S
C980 H965 0.960 . S
C980 H966 0.960 1_565 S
C980 H967 0.960 1_565 S
C980 C979 1.525 1_565 S
C981 C978 1.470 . S
C981 C982 1.336 1_545 S
C981 C985 1.490 . S
C982 C981 1.336 1_565 S
C982 C983 1.385 1_554 S
C982 C984 1.478 . S
C983 H977 0.930 . S
C983 C979 1.383 1_565 S
C983 C982 1.385 1_556 S
C984 C982 1.478 . S
C984 C986 1.381 . S
C984 C990 1.360 1_554 S
C985 C981 1.490 . S
C985 H991 0.959 . S
C985 H992 0.961 1_545 S
C985 H993 0.960 1_545 S
C986 C984 1.381 . S
C986 C987 1.394 . S
C986 H994 0.930 . S
C987 C986 1.394 . S
C987 C988 1.383 . S
C987 H995 0.929 . S
C988 C987 1.383 . S
C988 C989 1.377 . S
C989 H973 0.930 1_554 S
C989 C988 1.377 . S
C989 C990 1.367 1_554 S
C990 H974 0.968 . S
C990 C984 1.360 1_556 S
C990 C989 1.367 1_556 S
H991 C985 0.959 . S
H992 C985 0.961 1_565 S
H993 C985 0.960 1_565 S
H994 C986 0.930 . S
H995 C987 0.929 . S
H996 C1004 0.929 . S
H997 C1006 0.930 . S
H998 C1008 0.930 . S
H999 C1011 0.929 . S
H1000 C1014 0.930 . S
H1001 C1016 0.960 . S
H1002 C1016 0.960 . S
H1003 C1016 0.960 . S
C1004 H996 0.929 . S
C1004 C1005 1.377 . S
C1004 C1006 1.384 . S
C1005 C1004 1.377 . S
C1005 C1011 1.390 . S
C1006 H997 0.930 . S
C1006 C1004 1.384 . S
C1006 C1007 1.372 . S
C1007 C1006 1.372 . S
C1007 C1008 1.400 . S
C1007 C1012 1.490 . S
C1008 H998 0.930 . S
C1008 C1007 1.400 . S
C1008 C1011 1.386 . S
H1009 C1025 0.930 . S
H1010 C1026 0.931 . S
C1011 H999 0.929 . S
C1011 C1005 1.390 . S
C1011 C1008 1.386 . S
C1012 C1007 1.490 . S
C1012 C1014 1.395 . S
C1012 C1015 1.403 . S
H1013 C1019 0.930 . S
C1014 H1000 0.930 . S
C1014 C1012 1.395 . S
C1014 C1017 1.403 . S
C1015 C1012 1.403 . S
C1015 C1016 1.524 . S
C1015 C1019 1.400 . S
C1016 H1001 0.960 . S
C1016 H1002 0.960 . S
C1016 H1003 0.960 . S
C1016 C1015 1.524 . S
C1017 C1014 1.403 . S
C1017 C1018 1.392 . S
C1017 C1021 1.495 . S
C1018 C1017 1.392 . S
C1018 C1019 1.385 . S
C1018 C1020 1.478 . S
C1019 H1013 0.930 . S
C1019 C1015 1.400 . S
C1019 C1018 1.385 . S
C1020 C1018 1.478 . S
C1020 C1022 1.381 . S
C1020 C1026 1.383 . S
C1021 C1017 1.495 . S
C1021 H1027 0.959 . S
C1021 H1028 0.961 . S
C1021 H1029 0.960 . S
C1022 C1020 1.381 . S
C1022 C1023 1.394 . S
C1022 H1030 0.930 . S
C1023 C1022 1.394 . S
C1023 C1024 1.383 . S
C1023 H1031 0.929 . S
C1024 C1023 1.383 . S
C1024 C1025 1.377 . S
C1025 H1009 0.930 . S
C1025 C1024 1.377 . S
C1025 C1026 1.379 . S
C1026 H1010 0.931 . S
C1026 C1020 1.383 . S
C1026 C1025 1.379 . S
H1027 C1021 0.959 . S
H1028 C1021 0.961 . S
H1029 C1021 0.960 . S
H1030 C1022 0.930 . S
H1031 C1023 0.929 . S
H1032 C1040 0.929 . S
H1033 C1042 0.930 . S
H1034 C1044 0.930 . S
H1035 C1047 0.929 . S
H1036 C1050 0.930 . S
H1037 C1052 0.960 . S
H1038 C1052 0.960 . S
H1039 C1052 0.960 . S
C1040 H1032 0.929 . S
C1040 C1041 1.377 . S
C1040 C1042 1.384 . S
C1041 C1040 1.377 . S
C1041 C1047 1.390 . S
C1042 H1033 0.930 . S
C1042 C1040 1.384 . S
C1042 C1043 1.372 . S
C1043 C1042 1.372 . S
C1043 C1044 1.400 . S
C1043 C1048 1.490 . S
C1044 H1034 0.930 . S
C1044 C1043 1.400 . S
C1044 C1047 1.386 . S
H1045 C1061 0.930 . S
H1046 C1062 0.931 . S
C1047 H1035 0.929 . S
C1047 C1041 1.390 . S
C1047 C1044 1.386 . S
C1048 C1043 1.490 . S
C1048 C1050 1.395 . S
C1048 C1051 1.403 . S
H1049 C1055 0.930 . S
C1050 H1036 0.930 . S
C1050 C1048 1.395 . S
C1050 C1053 1.403 . S
C1051 C1048 1.403 . S
C1051 C1052 1.524 . S
C1051 C1055 1.400 . S
C1052 H1037 0.960 . S
C1052 H1038 0.960 . S
C1052 H1039 0.960 . S
C1052 C1051 1.524 . S
C1053 C1050 1.403 . S
C1053 C1054 1.392 . S
C1053 C1057 1.495 . S
C1054 C1053 1.392 . S
C1054 C1055 1.385 . S
C1054 C1056 1.478 . S
C1055 H1049 0.930 . S
C1055 C1051 1.400 . S
C1055 C1054 1.385 . S
C1056 C1054 1.478 . S
C1056 C1058 1.381 . S
C1056 C1062 1.383 . S
C1057 C1053 1.495 . S
C1057 H1063 0.959 . S
C1057 H1064 0.961 . S
C1057 H1065 0.960 . S
C1058 C1056 1.381 . S
C1058 C1059 1.394 . S
C1058 H1066 0.930 . S
C1059 C1058 1.394 . S
C1059 C1060 1.383 . S
C1059 H1067 0.929 . S
C1060 C1059 1.383 . S
C1060 C1061 1.377 . S
C1061 H1045 0.930 . S
C1061 C1060 1.377 . S
C1061 C1062 1.379 . S
C1062 H1046 0.931 . S
C1062 C1056 1.383 . S
C1062 C1061 1.379 . S
H1063 C1057 0.959 . S
H1064 C1057 0.961 . S
H1065 C1057 0.960 . S
H1066 C1058 0.930 . S
H1067 C1059 0.929 . S
H1068 C1076 0.929 . S
H1069 C1078 0.930 . S
H1070 C1080 0.930 . S
H1071 C1083 0.929 . S
H1072 C1086 0.930 . S
H1073 C1088 0.960 . S
H1074 C1088 0.960 . S
H1075 C1088 0.960 . S
C1076 H1068 0.929 . S
C1076 C1077 1.377 . S
C1076 C1078 1.384 . S
C1077 C1076 1.377 . S
C1077 C1083 1.390 . S
C1078 H1069 0.930 . S
C1078 C1076 1.384 . S
C1078 C1079 1.372 . S
C1079 C1078 1.372 . S
C1079 C1080 1.400 . S
C1079 C1084 1.490 . S
C1080 H1070 0.930 . S
C1080 C1079 1.400 . S
C1080 C1083 1.386 . S
H1081 C1097 0.930 . S
H1082 C1098 0.931 . S
C1083 H1071 0.929 . S
C1083 C1077 1.390 . S
C1083 C1080 1.386 . S
C1084 C1079 1.490 . S
C1084 C1086 1.395 . S
C1084 C1087 1.403 . S
H1085 C1091 0.930 . S
C1086 H1072 0.930 . S
C1086 C1084 1.395 . S
C1086 C1089 1.403 . S
C1087 C1084 1.403 . S
C1087 C1088 1.524 . S
C1087 C1091 1.400 . S
C1088 H1073 0.960 . S
C1088 H1074 0.960 . S
C1088 H1075 0.960 . S
C1088 C1087 1.524 . S
C1089 C1086 1.403 . S
C1089 C1090 1.392 . S
C1089 C1093 1.495 . S
C1090 C1089 1.392 . S
C1090 C1091 1.385 . S
C1090 C1092 1.478 . S
C1091 H1085 0.930 . S
C1091 C1087 1.400 . S
C1091 C1090 1.385 . S
C1092 C1090 1.478 . S
C1092 C1094 1.381 . S
C1092 C1098 1.383 . S
C1093 C1089 1.495 . S
C1093 H1099 0.959 . S
C1093 H1100 0.961 . S
C1093 H1101 0.960 . S
C1094 C1092 1.381 . S
C1094 C1095 1.394 . S
C1094 H1102 0.930 . S
C1095 C1094 1.394 . S
C1095 C1096 1.383 . S
C1095 H1103 0.929 . S
C1096 C1095 1.383 . S
C1096 C1097 1.377 . S
C1097 H1081 0.930 . S
C1097 C1096 1.377 . S
C1097 C1098 1.379 . S
C1098 H1082 0.931 . S
C1098 C1092 1.383 . S
C1098 C1097 1.379 . S
H1099 C1093 0.959 . S
H1100 C1093 0.961 . S
H1101 C1093 0.960 . S
H1102 C1094 0.930 . S
H1103 C1095 0.929 . S
H1104 C1112 0.929 . S
H1105 C1114 0.930 . S
H1106 C1116 0.930 . S
H1107 C1119 0.929 . S
H1108 C1122 0.930 . S
H1109 C1124 0.960 . S
H1110 C1124 0.960 . S
H1111 C1124 0.960 . S
C1112 H1104 0.929 . S
C1112 C1113 1.377 . S
C1112 C1114 1.384 . S
C1113 C1112 1.377 . S
C1113 C1119 1.390 . S
C1114 H1105 0.930 . S
C1114 C1112 1.384 . S
C1114 C1115 1.372 . S
C1115 C1114 1.372 . S
C1115 C1116 1.400 . S
C1115 C1120 1.490 . S
C1116 H1106 0.930 . S
C1116 C1115 1.400 . S
C1116 C1119 1.386 . S
H1117 C1133 0.930 . S
H1118 C1134 0.931 . S
C1119 H1107 0.929 . S
C1119 C1113 1.390 . S
C1119 C1116 1.386 . S
C1120 C1115 1.490 . S
C1120 C1122 1.395 . S
C1120 C1123 1.403 . S
H1121 C1127 0.930 . S
C1122 H1108 0.930 . S
C1122 C1120 1.395 . S
C1122 C1125 1.403 . S
C1123 C1120 1.403 . S
C1123 C1124 1.524 . S
C1123 C1127 1.400 . S
C1124 H1109 0.960 . S
C1124 H1110 0.960 . S
C1124 H1111 0.960 . S
C1124 C1123 1.524 . S
C1125 C1122 1.403 . S
C1125 C1126 1.392 . S
C1125 C1129 1.495 . S
C1126 C1125 1.392 . S
C1126 C1127 1.385 . S
C1126 C1128 1.478 . S
C1127 H1121 0.930 . S
C1127 C1123 1.400 . S
C1127 C1126 1.385 . S
C1128 C1126 1.478 . S
C1128 C1130 1.381 . S
C1128 C1134 1.383 . S
C1129 C1125 1.495 . S
C1129 H1135 0.959 . S
C1129 H1136 0.961 . S
C1129 H1137 0.960 . S
C1130 C1128 1.381 . S
C1130 C1131 1.394 . S
C1130 H1138 0.930 . S
C1131 C1130 1.394 . S
C1131 C1132 1.383 . S
C1131 H1139 0.929 . S
C1132 C1131 1.383 . S
C1132 C1133 1.377 . S
C1133 H1117 0.930 . S
C1133 C1132 1.377 . S
C1133 C1134 1.379 . S
C1134 H1118 0.931 . S
C1134 C1128 1.383 . S
C1134 C1133 1.379 . S
H1135 C1129 0.959 . S
H1136 C1129 0.961 . S
H1137 C1129 0.960 . S
H1138 C1130 0.930 . S
H1139 C1131 0.929 . S
H1140 C1148 0.929 . S
H1141 C1150 0.930 . S
H1142 C1152 0.930 . S
H1143 C1155 0.929 . S
H1144 C1158 0.930 . S
H1145 C1160 0.960 . S
H1146 C1160 0.960 . S
H1147 C1160 0.960 . S
C1148 H1140 0.929 . S
C1148 C1149 1.377 . S
C1148 C1150 1.384 . S
C1149 C1148 1.377 . S
C1149 C1155 1.390 . S
C1150 H1141 0.930 . S
C1150 C1148 1.384 . S
C1150 C1151 1.372 . S
C1151 C1150 1.372 . S
C1151 C1152 1.400 . S
C1151 C1156 1.490 . S
C1152 H1142 0.930 . S
C1152 C1151 1.400 . S
C1152 C1155 1.386 . S
H1153 C1169 0.930 . S
H1154 C1170 0.931 . S
C1155 H1143 0.929 . S
C1155 C1149 1.390 . S
C1155 C1152 1.386 . S
C1156 C1151 1.490 . S
C1156 C1158 1.395 . S
C1156 C1159 1.403 . S
H1157 C1163 0.930 . S
C1158 H1144 0.930 . S
C1158 C1156 1.395 . S
C1158 C1161 1.403 . S
C1159 C1156 1.403 . S
C1159 C1160 1.524 . S
C1159 C1163 1.400 . S
C1160 H1145 0.960 . S
C1160 H1146 0.960 . S
C1160 H1147 0.960 . S
C1160 C1159 1.524 . S
C1161 C1158 1.403 . S
C1161 C1162 1.392 . S
C1161 C1165 1.495 . S
C1162 C1161 1.392 . S
C1162 C1163 1.385 . S
C1162 C1164 1.478 . S
C1163 H1157 0.930 . S
C1163 C1159 1.400 . S
C1163 C1162 1.385 . S
C1164 C1162 1.478 . S
C1164 C1166 1.381 . S
C1164 C1170 1.383 . S
C1165 C1161 1.495 . S
C1165 H1171 0.959 . S
C1165 H1172 0.961 . S
C1165 H1173 0.960 . S
C1166 C1164 1.381 . S
C1166 C1167 1.394 . S
C1166 H1174 0.930 . S
C1167 C1166 1.394 . S
C1167 C1168 1.383 . S
C1167 H1175 0.929 . S
C1168 C1167 1.383 . S
C1168 C1169 1.377 . S
C1169 H1153 0.930 . S
C1169 C1168 1.377 . S
C1169 C1170 1.379 . S
C1170 H1154 0.931 . S
C1170 C1164 1.383 . S
C1170 C1169 1.379 . S
H1171 C1165 0.959 . S
H1172 C1165 0.961 . S
H1173 C1165 0.960 . S
H1174 C1166 0.930 . S
H1175 C1167 0.929 . S
H1176 C1184 0.929 . S
H1177 C1186 0.930 . S
H1178 C1188 0.930 . S
H1179 C1191 0.929 . S
H1180 C1194 0.930 . S
H1181 C1196 0.960 . S
H1182 C1196 0.960 . S
H1183 C1196 0.960 . S
C1184 H1176 0.929 . S
C1184 C1185 1.377 . S
C1184 C1186 1.384 . S
C1185 C1184 1.377 . S
C1185 C1191 1.390 . S
C1186 H1177 0.930 . S
C1186 C1184 1.384 . S
C1186 C1187 1.372 . S
C1187 C1186 1.372 . S
C1187 C1188 1.400 . S
C1187 C1192 1.490 . S
C1188 H1178 0.930 . S
C1188 C1187 1.400 . S
C1188 C1191 1.386 . S
H1189 C1205 0.930 . S
H1190 C1206 0.931 . S
C1191 H1179 0.929 . S
C1191 C1185 1.390 . S
C1191 C1188 1.386 . S
C1192 C1187 1.490 . S
C1192 C1194 1.395 . S
C1192 C1195 1.403 . S
H1193 C1199 0.930 . S
C1194 H1180 0.930 . S
C1194 C1192 1.395 . S
C1194 C1197 1.403 . S
C1195 C1192 1.403 . S
C1195 C1196 1.524 . S
C1195 C1199 1.400 . S
C1196 H1181 0.960 . S
C1196 H1182 0.960 . S
C1196 H1183 0.960 . S
C1196 C1195 1.524 . S
C1197 C1194 1.403 . S
C1197 C1198 1.392 . S
C1197 C1201 1.495 . S
C1198 C1197 1.392 . S
C1198 C1199 1.385 . S
C1198 C1200 1.478 . S
C1199 H1193 0.930 . S
C1199 C1195 1.400 . S
C1199 C1198 1.385 . S
C1200 C1198 1.478 . S
C1200 C1202 1.381 . S
C1200 C1206 1.383 . S
C1201 C1197 1.495 . S
C1201 H1207 0.959 . S
C1201 H1208 0.961 . S
C1201 H1209 0.960 . S
C1202 C1200 1.381 . S
C1202 C1203 1.394 . S
C1202 H1210 0.930 . S
C1203 C1202 1.394 . S
C1203 C1204 1.383 . S
C1203 H1211 0.929 . S
C1204 C1203 1.383 . S
C1204 C1205 1.377 . S
C1205 H1189 0.930 . S
C1205 C1204 1.377 . S
C1205 C1206 1.379 . S
C1206 H1190 0.931 . S
C1206 C1200 1.383 . S
C1206 C1205 1.379 . S
H1207 C1201 0.959 . S
H1208 C1201 0.961 . S
H1209 C1201 0.960 . S
H1210 C1202 0.930 . S
H1211 C1203 0.929 . S
H1212 C1220 0.929 . S
H1213 C1222 0.930 . S
H1214 C1224 0.930 . S
H1215 C1227 0.929 . S
H1216 C1230 0.930 . S
H1217 C1232 0.960 . S
H1218 C1232 0.960 . S
H1219 C1232 0.960 . S
C1220 H1212 0.929 . S
C1220 C1221 1.377 . S
C1220 C1222 1.384 . S
C1221 C1220 1.377 . S
C1221 C1227 1.390 . S
C1222 H1213 0.930 . S
C1222 C1220 1.384 . S
C1222 C1223 1.372 . S
C1223 C1222 1.372 . S
C1223 C1224 1.400 . S
C1223 C1228 1.490 . S
C1224 H1214 0.930 . S
C1224 C1223 1.400 . S
C1224 C1227 1.386 . S
H1225 C1241 0.930 . S
H1226 C1242 0.931 . S
C1227 H1215 0.929 . S
C1227 C1221 1.390 . S
C1227 C1224 1.386 . S
C1228 C1223 1.490 . S
C1228 C1230 1.395 . S
C1228 C1231 1.403 . S
H1229 C1235 0.930 . S
C1230 H1216 0.930 . S
C1230 C1228 1.395 . S
C1230 C1233 1.403 . S
C1231 C1228 1.403 . S
C1231 C1232 1.524 . S
C1231 C1235 1.400 . S
C1232 H1217 0.960 . S
C1232 H1218 0.960 . S
C1232 H1219 0.960 . S
C1232 C1231 1.524 . S
C1233 C1230 1.403 . S
C1233 C1234 1.392 . S
C1233 C1237 1.495 . S
C1234 C1233 1.392 . S
C1234 C1235 1.385 . S
C1234 C1236 1.478 . S
C1235 H1229 0.930 . S
C1235 C1231 1.400 . S
C1235 C1234 1.385 . S
C1236 C1234 1.478 . S
C1236 C1238 1.381 . S
C1236 C1242 1.383 . S
C1237 C1233 1.495 . S
C1237 H1243 0.959 . S
C1237 H1244 0.961 . S
C1237 H1245 0.960 . S
C1238 C1236 1.381 . S
C1238 C1239 1.394 . S
C1238 H1246 0.930 . S
C1239 C1238 1.394 . S
C1239 C1240 1.383 . S
C1239 H1247 0.929 . S
C1240 C1239 1.383 . S
C1240 C1241 1.377 . S
C1241 H1225 0.930 . S
C1241 C1240 1.377 . S
C1241 C1242 1.379 . S
C1242 H1226 0.931 . S
C1242 C1236 1.383 . S
C1242 C1241 1.379 . S
H1243 C1237 0.959 . S
H1244 C1237 0.961 . S
H1245 C1237 0.960 . S
H1246 C1238 0.930 . S
H1247 C1239 0.929 . S
H1248 C1256 0.929 . S
H1249 C1258 0.930 . S
H1250 C1260 0.930 . S
H1251 C1263 0.929 . S
H1252 C1266 0.930 . S
H1253 C1268 0.960 . S
H1254 C1268 0.960 . S
H1255 C1268 0.960 . S
C1256 H1248 0.929 . S
C1256 C1257 1.377 . S
C1256 C1258 1.384 . S
C1257 C1256 1.377 . S
C1257 C1263 1.390 . S
C1258 H1249 0.930 . S
C1258 C1256 1.384 . S
C1258 C1259 1.372 . S
C1259 C1258 1.372 . S
C1259 C1260 1.400 . S
C1259 C1264 1.490 . S
C1260 H1250 0.930 . S
C1260 C1259 1.400 . S
C1260 C1263 1.386 . S
H1261 C1277 0.930 . S
H1262 C1278 0.931 . S
C1263 H1251 0.929 . S
C1263 C1257 1.390 . S
C1263 C1260 1.386 . S
C1264 C1259 1.490 . S
C1264 C1266 1.395 . S
C1264 C1267 1.403 . S
H1265 C1271 0.930 . S
C1266 H1252 0.930 . S
C1266 C1264 1.395 . S
C1266 C1269 1.403 . S
C1267 C1264 1.403 . S
C1267 C1268 1.524 . S
C1267 C1271 1.400 . S
C1268 H1253 0.960 . S
C1268 H1254 0.960 . S
C1268 H1255 0.960 . S
C1268 C1267 1.524 . S
C1269 C1266 1.403 . S
C1269 C1270 1.392 . S
C1269 C1273 1.495 . S
C1270 C1269 1.392 . S
C1270 C1271 1.385 . S
C1270 C1272 1.478 . S
C1271 H1265 0.930 . S
C1271 C1267 1.400 . S
C1271 C1270 1.385 . S
C1272 C1270 1.478 . S
C1272 C1274 1.381 . S
C1272 C1278 1.383 . S
C1273 C1269 1.495 . S
C1273 H1279 0.959 . S
C1273 H1280 0.961 . S
C1273 H1281 0.960 . S
C1274 C1272 1.381 . S
C1274 C1275 1.394 . S
C1274 H1282 0.930 . S
C1275 C1274 1.394 . S
C1275 C1276 1.383 . S
C1275 H1283 0.929 . S
C1276 C1275 1.383 . S
C1276 C1277 1.377 . S
C1277 H1261 0.930 . S
C1277 C1276 1.377 . S
C1277 C1278 1.379 . S
C1278 H1262 0.931 . S
C1278 C1272 1.383 . S
C1278 C1277 1.379 . S
H1279 C1273 0.959 . S
H1280 C1273 0.961 . S
H1281 C1273 0.960 . S
H1282 C1274 0.930 . S
H1283 C1275 0.929 . S
H1284 C1292 0.929 . S
H1285 C1294 0.930 . S
H1286 C1296 0.930 . S
H1287 C1299 0.929 . S
H1288 C1302 0.930 . S
H1289 C1304 0.960 . S
H1290 C1304 0.960 . S
H1291 C1304 0.960 . S
C1292 H1284 0.929 . S
C1292 C1293 1.377 . S
C1292 C1294 1.384 . S
C1293 C1292 1.377 . S
C1293 C1299 1.390 . S
C1294 H1285 0.930 . S
C1294 C1292 1.384 . S
C1294 C1295 1.372 . S
C1295 C1294 1.372 . S
C1295 C1296 1.400 . S
C1295 C1300 1.490 . S
C1296 H1286 0.930 . S
C1296 C1295 1.400 . S
C1296 C1299 1.386 . S
H1297 C1313 0.930 . S
H1298 C1314 0.931 . S
C1299 H1287 0.929 . S
C1299 C1293 1.390 . S
C1299 C1296 1.386 . S
C1300 C1295 1.490 . S
C1300 C1302 1.395 . S
C1300 C1303 1.403 . S
H1301 C1307 0.930 . S
C1302 H1288 0.930 . S
C1302 C1300 1.395 . S
C1302 C1305 1.403 . S
C1303 C1300 1.403 . S
C1303 C1304 1.524 . S
C1303 C1307 1.400 . S
C1304 H1289 0.960 . S
C1304 H1290 0.960 . S
C1304 H1291 0.960 . S
C1304 C1303 1.524 . S
C1305 C1302 1.403 . S
C1305 C1306 1.392 . S
C1305 C1309 1.495 . S
C1306 C1305 1.392 . S
C1306 C1307 1.385 . S
C1306 C1308 1.478 . S
C1307 H1301 0.930 . S
C1307 C1303 1.400 . S
C1307 C1306 1.385 . S
C1308 C1306 1.478 . S
C1308 C1310 1.381 . S
C1308 C1314 1.383 . S
C1309 C1305 1.495 . S
C1309 H1315 0.959 . S
C1309 H1316 0.961 . S
C1309 H1317 0.960 . S
C1310 C1308 1.381 . S
C1310 C1311 1.394 . S
C1310 H1318 0.930 . S
C1311 C1310 1.394 . S
C1311 C1312 1.383 . S
C1311 H1319 0.929 . S
C1312 C1311 1.383 . S
C1312 C1313 1.377 . S
C1313 H1297 0.930 . S
C1313 C1312 1.377 . S
C1313 C1314 1.379 . S
C1314 H1298 0.931 . S
C1314 C1308 1.383 . S
C1314 C1313 1.379 . S
H1315 C1309 0.959 . S
H1316 C1309 0.961 . S
H1317 C1309 0.960 . S
H1318 C1310 0.930 . S
H1319 C1311 0.929 . S
H1320 C1328 0.929 . S
H1321 C1330 0.930 . S
H1322 C1332 0.930 . S
H1323 C1335 0.929 . S
H1324 C1338 0.930 . S
H1325 C1340 0.960 . S
H1326 C1340 0.960 . S
H1327 C1340 0.960 . S
C1328 H1320 0.929 . S
C1328 C1329 1.377 . S
C1328 C1330 1.384 . S
C1329 C1328 1.377 . S
C1329 C1335 1.390 . S
C1330 H1321 0.930 . S
C1330 C1328 1.384 . S
C1330 C1331 1.372 . S
C1331 C1330 1.372 . S
C1331 C1332 1.400 . S
C1331 C1336 1.490 . S
C1332 H1322 0.930 . S
C1332 C1331 1.400 . S
C1332 C1335 1.386 . S
H1333 C1349 0.930 . S
H1334 C1350 0.931 . S
C1335 H1323 0.929 . S
C1335 C1329 1.390 . S
C1335 C1332 1.386 . S
C1336 C1331 1.490 . S
C1336 C1338 1.395 . S
C1336 C1339 1.403 . S
H1337 C1343 0.930 . S
C1338 H1324 0.930 . S
C1338 C1336 1.395 . S
C1338 C1341 1.403 . S
C1339 C1336 1.403 . S
C1339 C1340 1.524 . S
C1339 C1343 1.400 . S
C1340 H1325 0.960 . S
C1340 H1326 0.960 . S
C1340 H1327 0.960 . S
C1340 C1339 1.524 . S
C1341 C1338 1.403 . S
C1341 C1342 1.392 . S
C1341 C1345 1.495 . S
C1342 C1341 1.392 . S
C1342 C1343 1.385 . S
C1342 C1344 1.478 . S
C1343 H1337 0.930 . S
C1343 C1339 1.400 . S
C1343 C1342 1.385 . S
C1344 C1342 1.478 . S
C1344 C1346 1.381 . S
C1344 C1350 1.383 . S
C1345 C1341 1.495 . S
C1345 H1351 0.959 . S
C1345 H1352 0.961 . S
C1345 H1353 0.960 . S
C1346 C1344 1.381 . S
C1346 C1347 1.394 . S
C1346 H1354 0.930 . S
C1347 C1346 1.394 . S
C1347 C1348 1.383 . S
C1347 H1355 0.929 . S
C1348 C1347 1.383 . S
C1348 C1349 1.377 . S
C1349 H1333 0.930 . S
C1349 C1348 1.377 . S
C1349 C1350 1.379 . S
C1350 H1334 0.931 . S
C1350 C1344 1.383 . S
C1350 C1349 1.379 . S
H1351 C1345 0.959 . S
H1352 C1345 0.961 . S
H1353 C1345 0.960 . S
H1354 C1346 0.930 . S
H1355 C1347 0.929 . S
H1356 C1364 0.929 . S
H1357 C1366 0.930 . S
H1358 C1368 0.930 . S
H1359 C1371 0.929 . S
H1360 C1374 0.930 . S
H1361 C1376 0.960 . S
H1362 C1376 0.960 . S
H1363 C1376 0.960 . S
C1364 H1356 0.929 . S
C1364 C1365 1.377 . S
C1364 C1366 1.384 . S
C1365 C1364 1.377 . S
C1365 C1371 1.390 . S
C1366 H1357 0.930 . S
C1366 C1364 1.384 . S
C1366 C1367 1.372 . S
C1367 C1366 1.372 . S
C1367 C1368 1.400 . S
C1367 C1372 1.490 . S
C1368 H1358 0.930 . S
C1368 C1367 1.400 . S
C1368 C1371 1.386 . S
H1369 C1385 0.930 . S
H1370 C1386 0.931 . S
C1371 H1359 0.929 . S
C1371 C1365 1.390 . S
C1371 C1368 1.386 . S
C1372 C1367 1.490 . S
C1372 C1374 1.395 . S
C1372 C1375 1.403 . S
H1373 C1379 0.930 . S
C1374 H1360 0.930 . S
C1374 C1372 1.395 . S
C1374 C1377 1.403 . S
C1375 C1372 1.403 . S
C1375 C1376 1.524 . S
C1375 C1379 1.400 . S
C1376 H1361 0.960 . S
C1376 H1362 0.960 . S
C1376 H1363 0.960 . S
C1376 C1375 1.524 . S
C1377 C1374 1.403 . S
C1377 C1378 1.392 . S
C1377 C1381 1.495 . S
C1378 C1377 1.392 . S
C1378 C1379 1.385 . S
C1378 C1380 1.478 . S
C1379 H1373 0.930 . S
C1379 C1375 1.400 . S
C1379 C1378 1.385 . S
C1380 C1378 1.478 . S
C1380 C1382 1.381 . S
C1380 C1386 1.383 . S
C1381 C1377 1.495 . S
C1381 H1387 0.959 . S
C1381 H1388 0.961 . S
C1381 H1389 0.960 . S
C1382 C1380 1.381 . S
C1382 C1383 1.394 . S
C1382 H1390 0.930 . S
C1383 C1382 1.394 . S
C1383 C1384 1.383 . S
C1383 H1391 0.929 . S
C1384 C1383 1.383 . S
C1384 C1385 1.377 . S
C1385 H1369 0.930 . S
C1385 C1384 1.377 . S
C1385 C1386 1.379 . S
C1386 H1370 0.931 . S
C1386 C1380 1.383 . S
C1386 C1385 1.379 . S
H1387 C1381 0.959 . S
H1388 C1381 0.961 . S
H1389 C1381 0.960 . S
H1390 C1382 0.930 . S
H1391 C1383 0.929 . S
H1392 C1400 0.929 . S
H1393 C1402 0.930 . S
H1394 C1404 0.930 . S
H1395 C1407 0.929 . S
H1396 C1410 0.930 . S
H1397 C1412 0.960 . S
H1398 C1412 0.960 . S
H1399 C1412 0.960 . S
C1400 H1392 0.929 . S
C1400 C1401 1.377 . S
C1400 C1402 1.384 . S
C1401 C1400 1.377 . S
C1401 C1407 1.390 . S
C1402 H1393 0.930 . S
C1402 C1400 1.384 . S
C1402 C1403 1.372 . S
C1403 C1402 1.372 . S
C1403 C1404 1.400 . S
C1403 C1408 1.490 . S
C1404 H1394 0.930 . S
C1404 C1403 1.400 . S
C1404 C1407 1.386 . S
H1405 C1421 0.930 . S
H1406 C1422 0.931 . S
C1407 H1395 0.929 . S
C1407 C1401 1.390 . S
C1407 C1404 1.386 . S
C1408 C1403 1.490 . S
C1408 C1410 1.395 . S
C1408 C1411 1.403 . S
H1409 C1415 0.930 . S
C1410 H1396 0.930 . S
C1410 C1408 1.395 . S
C1410 C1413 1.403 . S
C1411 C1408 1.403 . S
C1411 C1412 1.524 . S
C1411 C1415 1.400 . S
C1412 H1397 0.960 . S
C1412 H1398 0.960 . S
C1412 H1399 0.960 . S
C1412 C1411 1.524 . S
C1413 C1410 1.403 . S
C1413 C1414 1.392 . S
C1413 C1417 1.495 . S
C1414 C1413 1.392 . S
C1414 C1415 1.385 . S
C1414 C1416 1.478 . S
C1415 H1409 0.930 . S
C1415 C1411 1.400 . S
C1415 C1414 1.385 . S
C1416 C1414 1.478 . S
C1416 C1418 1.381 . S
C1416 C1422 1.383 . S
C1417 C1413 1.495 . S
C1417 H1423 0.959 . S
C1417 H1424 0.961 . S
C1417 H1425 0.960 . S
C1418 C1416 1.381 . S
C1418 C1419 1.394 . S
C1418 H1426 0.930 . S
C1419 C1418 1.394 . S
C1419 C1420 1.383 . S
C1419 H1427 0.929 . S
C1420 C1419 1.383 . S
C1420 C1421 1.377 . S
C1421 H1405 0.930 . S
C1421 C1420 1.377 . S
C1421 C1422 1.379 . S
C1422 H1406 0.931 . S
C1422 C1416 1.383 . S
C1422 C1421 1.379 . S
H1423 C1417 0.959 . S
H1424 C1417 0.961 . S
H1425 C1417 0.960 . S
H1426 C1418 0.930 . S
H1427 C1419 0.929 . S
H1428 C1436 0.929 . S
H1429 C1438 0.930 . S
H1430 C1440 0.930 . S
H1431 C1443 0.929 . S
H1432 C1446 0.930 . S
H1433 C1448 0.960 . S
H1434 C1448 0.960 . S
H1435 C1448 0.960 . S
C1436 H1428 0.929 . S
C1436 C1437 1.377 . S
C1436 C1438 1.384 . S
C1437 C1436 1.377 . S
C1437 C1443 1.390 . S
C1438 H1429 0.930 . S
C1438 C1436 1.384 . S
C1438 C1439 1.372 . S
C1439 C1438 1.372 . S
C1439 C1440 1.400 . S
C1439 C1444 1.490 . S
C1440 H1430 0.930 . S
C1440 C1439 1.400 . S
C1440 C1443 1.386 . S
H1441 C1457 0.930 . S
H1442 C1458 0.931 . S
C1443 H1431 0.929 . S
C1443 C1437 1.390 . S
C1443 C1440 1.386 . S
C1444 C1439 1.490 . S
C1444 C1446 1.395 . S
C1444 C1447 1.403 . S
H1445 C1451 0.930 . S
C1446 H1432 0.930 . S
C1446 C1444 1.395 . S
C1446 C1449 1.403 . S
C1447 C1444 1.403 . S
C1447 C1448 1.524 . S
C1447 C1451 1.400 . S
C1448 H1433 0.960 . S
C1448 H1434 0.960 . S
C1448 H1435 0.960 . S
C1448 C1447 1.524 . S
C1449 C1446 1.403 . S
C1449 C1450 1.392 . S
C1449 C1453 1.495 . S
C1450 C1449 1.392 . S
C1450 C1451 1.385 . S
C1450 C1452 1.478 . S
C1451 H1445 0.930 . S
C1451 C1447 1.400 . S
C1451 C1450 1.385 . S
C1452 C1450 1.478 . S
C1452 C1454 1.381 . S
C1452 C1458 1.383 . S
C1453 C1449 1.495 . S
C1453 H1459 0.959 . S
C1453 H1460 0.961 . S
C1453 H1461 0.960 . S
C1454 C1452 1.381 . S
C1454 C1455 1.394 . S
C1454 H1462 0.930 . S
C1455 C1454 1.394 . S
C1455 C1456 1.383 . S
C1455 H1463 0.929 . S
C1456 C1455 1.383 . S
C1456 C1457 1.377 . S
C1457 H1441 0.930 . S
C1457 C1456 1.377 . S
C1457 C1458 1.379 . S
C1458 H1442 0.931 . S
C1458 C1452 1.383 . S
C1458 C1457 1.379 . S
H1459 C1453 0.959 . S
H1460 C1453 0.961 . S
H1461 C1453 0.960 . S
H1462 C1454 0.930 . S
H1463 C1455 0.929 . S
H1464 C1472 0.929 . S
H1465 C1474 0.930 . S
H1466 C1476 0.930 . S
H1467 C1479 0.929 . S
H1468 C1482 0.930 . S
H1469 C1484 0.960 . S
H1470 C1484 0.960 . S
H1471 C1484 0.960 . S
C1472 H1464 0.929 . S
C1472 C1473 1.377 . S
C1472 C1474 1.384 . S
C1473 C1472 1.377 . S
C1473 C1479 1.390 . S
C1474 H1465 0.930 . S
C1474 C1472 1.384 . S
C1474 C1475 1.372 . S
C1475 C1474 1.372 . S
C1475 C1476 1.400 . S
C1475 C1480 1.490 . S
C1476 H1466 0.930 . S
C1476 C1475 1.400 . S
C1476 C1479 1.386 . S
H1477 C1493 0.930 . S
H1478 C1494 0.931 . S
C1479 H1467 0.929 . S
C1479 C1473 1.390 . S
C1479 C1476 1.386 . S
C1480 C1475 1.490 . S
C1480 C1482 1.395 . S
C1480 C1483 1.403 . S
H1481 C1487 0.930 . S
C1482 H1468 0.930 . S
C1482 C1480 1.395 . S
C1482 C1485 1.403 . S
C1483 C1480 1.403 . S
C1483 C1484 1.524 . S
C1483 C1487 1.400 . S
C1484 H1469 0.960 . S
C1484 H1470 0.960 . S
C1484 H1471 0.960 . S
C1484 C1483 1.524 . S
C1485 C1482 1.403 . S
C1485 C1486 1.392 . S
C1485 C1489 1.495 . S
C1486 C1485 1.392 . S
C1486 C1487 1.385 . S
C1486 C1488 1.478 . S
C1487 H1481 0.930 . S
C1487 C1483 1.400 . S
C1487 C1486 1.385 . S
C1488 C1486 1.478 . S
C1488 C1490 1.381 . S
C1488 C1494 1.383 . S
C1489 C1485 1.495 . S
C1489 H1495 0.959 . S
C1489 H1496 0.961 . S
C1489 H1497 0.960 . S
C1490 C1488 1.381 . S
C1490 C1491 1.394 . S
C1490 H1498 0.930 . S
C1491 C1490 1.394 . S
C1491 C1492 1.383 . S
C1491 H1499 0.929 . S
C1492 C1491 1.383 . S
C1492 C1493 1.377 . S
C1493 H1477 0.930 . S
C1493 C1492 1.377 . S
C1493 C1494 1.379 . S
C1494 H1478 0.931 . S
C1494 C1488 1.383 . S
C1494 C1493 1.379 . S
H1495 C1489 0.959 . S
H1496 C1489 0.961 . S
H1497 C1489 0.960 . S
H1498 C1490 0.930 . S
H1499 C1491 0.929 . S
H1500 C1508 0.929 . S
H1501 C1510 0.930 . S
H1502 C1512 0.930 . S
H1503 C1515 0.929 . S
H1504 C1518 0.930 . S
H1505 C1520 0.960 . S
H1506 C1520 0.960 . S
H1507 C1520 0.960 . S
C1508 H1500 0.929 . S
C1508 C1509 1.377 . S
C1508 C1510 1.384 . S
C1509 C1508 1.377 . S
C1509 C1515 1.390 . S
C1510 H1501 0.930 . S
C1510 C1508 1.384 . S
C1510 C1511 1.372 . S
C1511 C1510 1.372 . S
C1511 C1512 1.400 . S
C1511 C1516 1.490 . S
C1512 H1502 0.930 . S
C1512 C1511 1.400 . S
C1512 C1515 1.386 . S
H1513 C1529 0.930 . S
H1514 C1530 0.931 . S
C1515 H1503 0.929 . S
C1515 C1509 1.390 . S
C1515 C1512 1.386 . S
C1516 C1511 1.490 . S
C1516 C1518 1.395 . S
C1516 C1519 1.403 . S
H1517 C1523 0.930 . S
C1518 H1504 0.930 . S
C1518 C1516 1.395 . S
C1518 C1521 1.403 . S
C1519 C1516 1.403 . S
C1519 C1520 1.524 . S
C1519 C1523 1.400 . S
C1520 H1505 0.960 . S
C1520 H1506 0.960 . S
C1520 H1507 0.960 . S
C1520 C1519 1.524 . S
C1521 C1518 1.403 . S
C1521 C1522 1.392 . S
C1521 C1525 1.495 . S
C1522 C1521 1.392 . S
C1522 C1523 1.385 . S
C1522 C1524 1.478 . S
C1523 H1517 0.930 . S
C1523 C1519 1.400 . S
C1523 C1522 1.385 . S
C1524 C1522 1.478 . S
C1524 C1526 1.381 . S
C1524 C1530 1.383 . S
C1525 C1521 1.495 . S
C1525 H1531 0.959 . S
C1525 H1532 0.961 . S
C1525 H1533 0.960 . S
C1526 C1524 1.381 . S
C1526 C1527 1.394 . S
C1526 H1534 0.930 . S
C1527 C1526 1.394 . S
C1527 C1528 1.383 . S
C1527 H1535 0.929 . S
C1528 C1527 1.383 . S
C1528 C1529 1.377 . S
C1529 H1513 0.930 . S
C1529 C1528 1.377 . S
C1529 C1530 1.379 . S
C1530 H1514 0.931 . S
C1530 C1524 1.383 . S
C1530 C1529 1.379 . S
H1531 C1525 0.959 . S
H1532 C1525 0.961 . S
H1533 C1525 0.960 . S
H1534 C1526 0.930 . S
H1535 C1527 0.929 . S
H1536 C1544 0.929 . S
H1537 C1546 0.930 . S
H1538 C1548 0.930 . S
H1539 C1551 0.929 . S
H1540 C1554 0.930 . S
H1541 C1556 0.960 . S
H1542 C1556 0.960 . S
H1543 C1556 0.960 . S
C1544 H1536 0.929 . S
C1544 C1545 1.377 . S
C1544 C1546 1.384 . S
C1545 C1544 1.377 . S
C1545 C1551 1.390 . S
C1546 H1537 0.930 . S
C1546 C1544 1.384 . S
C1546 C1547 1.372 . S
C1547 C1546 1.372 . S
C1547 C1548 1.400 . S
C1547 C1552 1.490 . S
C1548 H1538 0.930 . S
C1548 C1547 1.400 . S
C1548 C1551 1.386 . S
H1549 C1565 0.930 . S
H1550 C1566 0.931 . S
C1551 H1539 0.929 . S
C1551 C1545 1.390 . S
C1551 C1548 1.386 . S
C1552 C1547 1.490 . S
C1552 C1554 1.395 . S
C1552 C1555 1.403 . S
H1553 C1559 0.930 . S
C1554 H1540 0.930 . S
C1554 C1552 1.395 . S
C1554 C1557 1.403 . S
C1555 C1552 1.403 . S
C1555 C1556 1.524 . S
C1555 C1559 1.400 . S
C1556 H1541 0.960 . S
C1556 H1542 0.960 . S
C1556 H1543 0.960 . S
C1556 C1555 1.524 . S
C1557 C1554 1.403 . S
C1557 C1558 1.392 . S
C1557 C1561 1.495 . S
C1558 C1557 1.392 . S
C1558 C1559 1.385 . S
C1558 C1560 1.478 . S
C1559 H1553 0.930 . S
C1559 C1555 1.400 . S
C1559 C1558 1.385 . S
C1560 C1558 1.478 . S
C1560 C1562 1.381 . S
C1560 C1566 1.383 . S
C1561 C1557 1.495 . S
C1561 H1567 0.959 . S
C1561 H1568 0.961 . S
C1561 H1569 0.960 . S
C1562 C1560 1.381 . S
C1562 C1563 1.394 . S
C1562 H1570 0.930 . S
C1563 C1562 1.394 . S
C1563 C1564 1.383 . S
C1563 H1571 0.929 . S
C1564 C1563 1.383 . S
C1564 C1565 1.377 . S
C1565 H1549 0.930 . S
C1565 C1564 1.377 . S
C1565 C1566 1.379 . S
C1566 H1550 0.931 . S
C1566 C1560 1.383 . S
C1566 C1565 1.379 . S
H1567 C1561 0.959 . S
H1568 C1561 0.961 . S
H1569 C1561 0.960 . S
H1570 C1562 0.930 . S
H1571 C1563 0.929 . S
H1572 C1580 0.929 . S
H1573 C1582 0.930 . S
H1574 C1584 0.930 . S
H1575 C1587 0.929 . S
H1576 C1590 0.930 . S
H1577 C1592 0.960 . S
H1578 C1592 0.960 . S
H1579 C1592 0.960 . S
C1580 H1572 0.929 . S
C1580 C1581 1.377 . S
C1580 C1582 1.384 . S
C1581 C1580 1.377 . S
C1581 C1587 1.390 . S
C1582 H1573 0.930 . S
C1582 C1580 1.384 . S
C1582 C1583 1.372 . S
C1583 C1582 1.372 . S
C1583 C1584 1.400 . S
C1583 C1588 1.490 . S
C1584 H1574 0.930 . S
C1584 C1583 1.400 . S
C1584 C1587 1.386 . S
H1585 C1601 0.930 . S
H1586 C1602 0.931 . S
C1587 H1575 0.929 . S
C1587 C1581 1.390 . S
C1587 C1584 1.386 . S
C1588 C1583 1.490 . S
C1588 C1590 1.395 . S
C1588 C1591 1.403 . S
H1589 C1595 0.930 . S
C1590 H1576 0.930 . S
C1590 C1588 1.395 . S
C1590 C1593 1.403 . S
C1591 C1588 1.403 . S
C1591 C1592 1.524 . S
C1591 C1595 1.400 . S
C1592 H1577 0.960 . S
C1592 H1578 0.960 . S
C1592 H1579 0.960 . S
C1592 C1591 1.524 . S
C1593 C1590 1.403 . S
C1593 C1594 1.392 . S
C1593 C1597 1.495 . S
C1594 C1593 1.392 . S
C1594 C1595 1.385 . S
C1594 C1596 1.478 . S
C1595 H1589 0.930 . S
C1595 C1591 1.400 . S
C1595 C1594 1.385 . S
C1596 C1594 1.478 . S
C1596 C1598 1.381 . S
C1596 C1602 1.383 . S
C1597 C1593 1.495 . S
C1597 H1603 0.959 . S
C1597 H1604 0.961 . S
C1597 H1605 0.960 . S
C1598 C1596 1.381 . S
C1598 C1599 1.394 . S
C1598 H1606 0.930 . S
C1599 C1598 1.394 . S
C1599 C1600 1.383 . S
C1599 H1607 0.929 . S
C1600 C1599 1.383 . S
C1600 C1601 1.377 . S
C1601 H1585 0.930 . S
C1601 C1600 1.377 . S
C1601 C1602 1.379 . S
C1602 H1586 0.931 . S
C1602 C1596 1.383 . S
C1602 C1601 1.379 . S
H1603 C1597 0.959 . S
H1604 C1597 0.961 . S
H1605 C1597 0.960 . S
H1606 C1598 0.930 . S
H1607 C1599 0.929 . S
H1608 C1616 0.929 . S
H1609 C1618 0.930 . S
H1610 C1620 0.930 . S
H1611 C1623 0.929 . S
H1612 C1626 0.930 . S
H1613 C1628 0.960 . S
H1614 C1628 0.960 . S
H1615 C1628 0.960 . S
C1616 H1608 0.929 . S
C1616 C1617 1.377 . S
C1616 C1618 1.384 . S
C1617 C1616 1.377 . S
C1617 C1623 1.390 . S
C1618 H1609 0.930 . S
C1618 C1616 1.384 . S
C1618 C1619 1.372 . S
C1619 C1618 1.372 . S
C1619 C1620 1.400 . S
C1619 C1624 1.490 . S
C1620 H1610 0.930 . S
C1620 C1619 1.400 . S
C1620 C1623 1.386 . S
H1621 C1637 0.930 . S
H1622 C1638 0.931 . S
C1623 H1611 0.929 . S
C1623 C1617 1.390 . S
C1623 C1620 1.386 . S
C1624 C1619 1.490 . S
C1624 C1626 1.395 . S
C1624 C1627 1.403 . S
H1625 C1631 0.930 . S
C1626 H1612 0.930 . S
C1626 C1624 1.395 . S
C1626 C1629 1.403 . S
C1627 C1624 1.403 . S
C1627 C1628 1.524 . S
C1627 C1631 1.400 . S
C1628 H1613 0.960 . S
C1628 H1614 0.960 . S
C1628 H1615 0.960 . S
C1628 C1627 1.524 . S
C1629 C1626 1.403 . S
C1629 C1630 1.392 . S
C1629 C1633 1.495 . S
C1630 C1629 1.392 . S
C1630 C1631 1.385 . S
C1630 C1632 1.478 . S
C1631 H1625 0.930 . S
C1631 C1627 1.400 . S
C1631 C1630 1.385 . S
C1632 C1630 1.478 . S
C1632 C1634 1.381 . S
C1632 C1638 1.383 . S
C1633 C1629 1.495 . S
C1633 H1639 0.959 . S
C1633 H1640 0.961 . S
C1633 H1641 0.960 . S
C1634 C1632 1.381 . S
C1634 C1635 1.394 . S
C1634 H1642 0.930 . S
C1635 C1634 1.394 . S
C1635 C1636 1.383 . S
C1635 H1643 0.929 . S
C1636 C1635 1.383 . S
C1636 C1637 1.377 . S
C1637 H1621 0.930 . S
C1637 C1636 1.377 . S
C1637 C1638 1.379 . S
C1638 H1622 0.931 . S
C1638 C1632 1.383 . S
C1638 C1637 1.379 . S
H1639 C1633 0.959 . S
H1640 C1633 0.961 . S
H1641 C1633 0.960 . S
H1642 C1634 0.930 . S
H1643 C1635 0.929 . S
H1644 C1652 0.929 . S
H1645 C1654 0.930 . S
H1646 C1656 0.930 . S
H1647 C1659 0.929 . S
H1648 C1662 0.930 . S
H1649 C1664 0.960 . S
H1650 C1664 0.960 . S
H1651 C1664 0.960 . S
C1652 H1644 0.929 . S
C1652 C1653 1.377 . S
C1652 C1654 1.384 . S
C1653 C1652 1.377 . S
C1653 C1659 1.390 . S
C1654 H1645 0.930 . S
C1654 C1652 1.384 . S
C1654 C1655 1.372 . S
C1655 C1654 1.372 . S
C1655 C1656 1.400 . S
C1655 C1660 1.490 . S
C1656 H1646 0.930 . S
C1656 C1655 1.400 . S
C1656 C1659 1.386 . S
H1657 C1673 0.930 . S
H1658 C1674 0.931 . S
C1659 H1647 0.929 . S
C1659 C1653 1.390 . S
C1659 C1656 1.386 . S
C1660 C1655 1.490 . S
C1660 C1662 1.395 . S
C1660 C1663 1.403 . S
H1661 C1667 0.930 . S
C1662 H1648 0.930 . S
C1662 C1660 1.395 . S
C1662 C1665 1.403 . S
C1663 C1660 1.403 . S
C1663 C1664 1.524 . S
C1663 C1667 1.400 . S
C1664 H1649 0.960 . S
C1664 H1650 0.960 . S
C1664 H1651 0.960 . S
C1664 C1663 1.524 . S
C1665 C1662 1.403 . S
C1665 C1666 1.392 . S
C1665 C1669 1.495 . S
C1666 C1665 1.392 . S
C1666 C1667 1.385 . S
C1666 C1668 1.478 . S
C1667 H1661 0.930 . S
C1667 C1663 1.400 . S
C1667 C1666 1.385 . S
C1668 C1666 1.478 . S
C1668 C1670 1.381 . S
C1668 C1674 1.383 . S
C1669 C1665 1.495 . S
C1669 H1675 0.959 . S
C1669 H1676 0.961 . S
C1669 H1677 0.960 . S
C1670 C1668 1.381 . S
C1670 C1671 1.394 . S
C1670 H1678 0.930 . S
C1671 C1670 1.394 . S
C1671 C1672 1.383 . S
C1671 H1679 0.929 . S
C1672 C1671 1.383 . S
C1672 C1673 1.377 . S
C1673 H1657 0.930 . S
C1673 C1672 1.377 . S
C1673 C1674 1.379 . S
C1674 H1658 0.931 . S
C1674 C1668 1.383 . S
C1674 C1673 1.379 . S
H1675 C1669 0.959 . S
H1676 C1669 0.961 . S
H1677 C1669 0.960 . S
H1678 C1670 0.930 . S
H1679 C1671 0.929 . S
H1680 C1688 0.929 . S
H1681 C1690 0.930 . S
H1682 C1692 0.930 . S
H1683 C1695 0.929 . S
H1684 C1698 0.930 . S
H1685 C1700 0.960 . S
H1686 C1700 0.960 . S
H1687 C1700 0.960 . S
C1688 H1680 0.929 . S
C1688 C1689 1.377 . S
C1688 C1690 1.384 . S
C1689 C1688 1.377 . S
C1689 C1695 1.390 . S
C1690 H1681 0.930 . S
C1690 C1688 1.384 . S
C1690 C1691 1.372 . S
C1691 C1690 1.372 . S
C1691 C1692 1.400 . S
C1691 C1696 1.490 . S
C1692 H1682 0.930 . S
C1692 C1691 1.400 . S
C1692 C1695 1.386 . S
H1693 C1709 0.930 . S
H1694 C1710 0.931 . S
C1695 H1683 0.929 . S
C1695 C1689 1.390 . S
C1695 C1692 1.386 . S
C1696 C1691 1.490 . S
C1696 C1698 1.395 . S
C1696 C1699 1.403 . S
H1697 C1703 0.930 . S
C1698 H1684 0.930 . S
C1698 C1696 1.395 . S
C1698 C1701 1.403 . S
C1699 C1696 1.403 . S
C1699 C1700 1.524 . S
C1699 C1703 1.400 . S
C1700 H1685 0.960 . S
C1700 H1686 0.960 . S
C1700 H1687 0.960 . S
C1700 C1699 1.524 . S
C1701 C1698 1.403 . S
C1701 C1702 1.392 . S
C1701 C1705 1.495 . S
C1702 C1701 1.392 . S
C1702 C1703 1.385 . S
C1702 C1704 1.478 . S
C1703 H1697 0.930 . S
C1703 C1699 1.400 . S
C1703 C1702 1.385 . S
C1704 C1702 1.478 . S
C1704 C1706 1.381 . S
C1704 C1710 1.383 . S
C1705 C1701 1.495 . S
C1705 H1711 0.959 . S
C1705 H1712 0.961 . S
C1705 H1713 0.960 . S
C1706 C1704 1.381 . S
C1706 C1707 1.394 . S
C1706 H1714 0.930 . S
C1707 C1706 1.394 . S
C1707 C1708 1.383 . S
C1707 H1715 0.929 . S
C1708 C1707 1.383 . S
C1708 C1709 1.377 . S
C1709 H1693 0.930 . S
C1709 C1708 1.377 . S
C1709 C1710 1.379 . S
C1710 H1694 0.931 . S
C1710 C1704 1.383 . S
C1710 C1709 1.379 . S
H1711 C1705 0.959 . S
H1712 C1705 0.961 . S
H1713 C1705 0.960 . S
H1714 C1706 0.930 . S
H1715 C1707 0.929 . S
H1716 C1724 0.929 . S
H1717 C1726 0.930 . S
H1718 C1728 0.930 . S
H1719 C1731 0.929 . S
H1720 C1734 0.930 . S
H1721 C1736 0.960 . S
H1722 C1736 0.960 . S
H1723 C1736 0.960 . S
C1724 H1716 0.929 . S
C1724 C1725 1.377 . S
C1724 C1726 1.384 . S
C1725 C1724 1.377 . S
C1725 C1731 1.390 . S
C1726 H1717 0.930 . S
C1726 C1724 1.384 . S
C1726 C1727 1.372 . S
C1727 C1726 1.372 . S
C1727 C1728 1.400 . S
C1727 C1732 1.490 . S
C1728 H1718 0.930 . S
C1728 C1727 1.400 . S
C1728 C1731 1.386 . S
H1729 C1745 0.930 . S
H1730 C1746 0.931 . S
C1731 H1719 0.929 . S
C1731 C1725 1.390 . S
C1731 C1728 1.386 . S
C1732 C1727 1.490 . S
C1732 C1734 1.395 . S
C1732 C1735 1.403 . S
H1733 C1739 0.930 . S
C1734 H1720 0.930 . S
C1734 C1732 1.395 . S
C1734 C1737 1.403 . S
C1735 C1732 1.403 . S
C1735 C1736 1.524 . S
C1735 C1739 1.400 . S
C1736 H1721 0.960 . S
C1736 H1722 0.960 . S
C1736 H1723 0.960 . S
C1736 C1735 1.524 . S
C1737 C1734 1.403 . S
C1737 C1738 1.392 . S
C1737 C1741 1.495 . S
C1738 C1737 1.392 . S
C1738 C1739 1.385 . S
C1738 C1740 1.478 . S
C1739 H1733 0.930 . S
C1739 C1735 1.400 . S
C1739 C1738 1.385 . S
C1740 C1738 1.478 . S
C1740 C1742 1.381 . S
C1740 C1746 1.383 . S
C1741 C1737 1.495 . S
C1741 H1747 0.959 . S
C1741 H1748 0.961 . S
C1741 H1749 0.960 . S
C1742 C1740 1.381 . S
C1742 C1743 1.394 . S
C1742 H1750 0.930 . S
C1743 C1742 1.394 . S
C1743 C1744 1.383 . S
C1743 H1751 0.929 . S
C1744 C1743 1.383 . S
C1744 C1745 1.377 . S
C1745 H1729 0.930 . S
C1745 C1744 1.377 . S
C1745 C1746 1.379 . S
C1746 H1730 0.931 . S
C1746 C1740 1.383 . S
C1746 C1745 1.379 . S
H1747 C1741 0.959 . S
H1748 C1741 0.961 . S
H1749 C1741 0.960 . S
H1750 C1742 0.930 . S
H1751 C1743 0.929 . S
H1752 C1760 0.929 . S
H1753 C1762 0.930 . S
H1754 C1764 0.930 . S
H1755 C1767 0.929 . S
H1756 C1770 0.930 . S
H1757 C1772 0.960 . S
H1758 C1772 0.960 . S
H1759 C1772 0.960 . S
C1760 H1752 0.929 . S
C1760 C1761 1.377 . S
C1760 C1762 1.384 . S
C1761 C1760 1.377 . S
C1761 C1767 1.390 . S
C1762 H1753 0.930 . S
C1762 C1760 1.384 . S
C1762 C1763 1.372 . S
C1763 C1762 1.372 . S
C1763 C1764 1.400 . S
C1763 C1768 1.490 . S
C1764 H1754 0.930 . S
C1764 C1763 1.400 . S
C1764 C1767 1.386 . S
H1765 C1781 0.930 . S
H1766 C1782 0.931 . S
C1767 H1755 0.929 . S
C1767 C1761 1.390 . S
C1767 C1764 1.386 . S
C1768 C1763 1.490 . S
C1768 C1770 1.395 . S
C1768 C1771 1.403 . S
H1769 C1775 0.930 . S
C1770 H1756 0.930 . S
C1770 C1768 1.395 . S
C1770 C1773 1.403 . S
C1771 C1768 1.403 . S
C1771 C1772 1.524 . S
C1771 C1775 1.400 . S
C1772 H1757 0.960 . S
C1772 H1758 0.960 . S
C1772 H1759 0.960 . S
C1772 C1771 1.524 . S
C1773 C1770 1.403 . S
C1773 C1774 1.392 . S
C1773 C1777 1.495 . S
C1774 C1773 1.392 . S
C1774 C1775 1.385 . S
C1774 C1776 1.478 . S
C1775 H1769 0.930 . S
C1775 C1771 1.400 . S
C1775 C1774 1.385 . S
C1776 C1774 1.478 . S
C1776 C1778 1.381 . S
C1776 C1782 1.383 . S
C1777 C1773 1.495 . S
C1777 H1783 0.959 . S
C1777 H1784 0.961 . S
C1777 H1785 0.960 . S
C1778 C1776 1.381 . S
C1778 C1779 1.394 . S
C1778 H1786 0.930 . S
C1779 C1778 1.394 . S
C1779 C1780 1.383 . S
C1779 H1787 0.929 . S
C1780 C1779 1.383 . S
C1780 C1781 1.377 . S
C1781 H1765 0.930 . S
C1781 C1780 1.377 . S
C1781 C1782 1.379 . S
C1782 H1766 0.931 . S
C1782 C1776 1.383 . S
C1782 C1781 1.379 . S
H1783 C1777 0.959 . S
H1784 C1777 0.961 . S
H1785 C1777 0.960 . S
H1786 C1778 0.930 . S
H1787 C1779 0.929 . S
H1788 C1796 0.929 . S
H1789 C1798 0.930 . S
H1790 C1800 0.930 . S
H1791 C1803 0.929 . S
H1792 C1806 0.930 . S
H1793 C1808 0.960 . S
H1794 C1808 0.960 . S
H1795 C1808 0.960 . S
C1796 H1788 0.929 . S
C1796 C1797 1.377 . S
C1796 C1798 1.384 . S
C1797 C1796 1.377 . S
C1797 C1803 1.390 . S
C1798 H1789 0.930 . S
C1798 C1796 1.384 . S
C1798 C1799 1.372 . S
C1799 C1798 1.372 . S
C1799 C1800 1.400 . S
C1799 C1804 1.490 . S
C1800 H1790 0.930 . S
C1800 C1799 1.400 . S
C1800 C1803 1.386 . S
H1801 C1817 0.930 . S
H1802 C1818 0.931 . S
C1803 H1791 0.929 . S
C1803 C1797 1.390 . S
C1803 C1800 1.386 . S
C1804 C1799 1.490 . S
C1804 C1806 1.395 . S
C1804 C1807 1.403 . S
H1805 C1811 0.930 . S
C1806 H1792 0.930 . S
C1806 C1804 1.395 . S
C1806 C1809 1.403 . S
C1807 C1804 1.403 . S
C1807 C1808 1.524 . S
C1807 C1811 1.400 . S
C1808 H1793 0.960 . S
C1808 H1794 0.960 . S
C1808 H1795 0.960 . S
C1808 C1807 1.524 . S
C1809 C1806 1.403 . S
C1809 C1810 1.392 . S
C1809 C1813 1.495 . S
C1810 C1809 1.392 . S
C1810 C1811 1.385 . S
C1810 C1812 1.478 . S
C1811 H1805 0.930 . S
C1811 C1807 1.400 . S
C1811 C1810 1.385 . S
C1812 C1810 1.478 . S
C1812 C1814 1.381 . S
C1812 C1818 1.383 . S
C1813 C1809 1.495 . S
C1813 H1819 0.959 . S
C1813 H1820 0.961 . S
C1813 H1821 0.960 . S
C1814 C1812 1.381 . S
C1814 C1815 1.394 . S
C1814 H1822 0.930 . S
C1815 C1814 1.394 . S
C1815 C1816 1.383 . S
C1815 H1823 0.929 . S
C1816 C1815 1.383 . S
C1816 C1817 1.377 . S
C1817 H1801 0.930 . S
C1817 C1816 1.377 . S
C1817 C1818 1.379 . S
C1818 H1802 0.931 . S
C1818 C1812 1.383 . S
C1818 C1817 1.379 . S
H1819 C1813 0.959 . S
H1820 C1813 0.961 . S
H1821 C1813 0.960 . S
H1822 C1814 0.930 . S
H1823 C1815 0.929 . S
H1824 C1832 0.929 . S
H1825 C1834 0.930 . S
H1826 C1836 0.930 . S
H1827 C1839 0.929 . S
H1828 C1842 0.930 . S
H1829 C1844 0.960 . S
H1830 C1844 0.960 . S
H1831 C1844 0.960 . S
C1832 H1824 0.929 . S
C1832 C1833 1.377 . S
C1832 C1834 1.384 . S
C1833 C1832 1.377 . S
C1833 C1839 1.390 . S
C1834 H1825 0.930 . S
C1834 C1832 1.384 . S
C1834 C1835 1.372 . S
C1835 C1834 1.372 . S
C1835 C1836 1.400 . S
C1835 C1840 1.490 . S
C1836 H1826 0.930 . S
C1836 C1835 1.400 . S
C1836 C1839 1.386 . S
H1837 C1853 0.930 . S
H1838 C1854 0.931 . S
C1839 H1827 0.929 . S
C1839 C1833 1.390 . S
C1839 C1836 1.386 . S
C1840 C1835 1.490 . S
C1840 C1842 1.395 . S
C1840 C1843 1.403 . S
H1841 C1847 0.930 . S
C1842 H1828 0.930 . S
C1842 C1840 1.395 . S
C1842 C1845 1.403 . S
C1843 C1840 1.403 . S
C1843 C1844 1.524 . S
C1843 C1847 1.400 . S
C1844 H1829 0.960 . S
C1844 H1830 0.960 . S
C1844 H1831 0.960 . S
C1844 C1843 1.524 . S
C1845 C1842 1.403 . S
C1845 C1846 1.392 . S
C1845 C1849 1.495 . S
C1846 C1845 1.392 . S
C1846 C1847 1.385 . S
C1846 C1848 1.478 . S
C1847 H1841 0.930 . S
C1847 C1843 1.400 . S
C1847 C1846 1.385 . S
C1848 C1846 1.478 . S
C1848 C1850 1.381 . S
C1848 C1854 1.383 . S
C1849 C1845 1.495 . S
C1849 H1855 0.959 . S
C1849 H1856 0.961 . S
C1849 H1857 0.960 . S
C1850 C1848 1.381 . S
C1850 C1851 1.394 . S
C1850 H1858 0.930 . S
C1851 C1850 1.394 . S
C1851 C1852 1.383 . S
C1851 H1859 0.929 . S
C1852 C1851 1.383 . S
C1852 C1853 1.377 . S
C1853 H1837 0.930 . S
C1853 C1852 1.377 . S
C1853 C1854 1.379 . S
C1854 H1838 0.931 . S
C1854 C1848 1.383 . S
C1854 C1853 1.379 . S
H1855 C1849 0.959 . S
H1856 C1849 0.961 . S
H1857 C1849 0.960 . S
H1858 C1850 0.930 . S
H1859 C1851 0.929 . S
H1860 C1868 0.929 . S
H1861 C1870 0.930 . S
H1862 C1872 0.930 . S
H1863 C1875 0.929 . S
H1864 C1878 0.930 . S
H1865 C1880 0.960 . S
H1866 C1880 0.960 . S
H1867 C1880 0.960 . S
C1868 H1860 0.929 . S
C1868 C1869 1.377 . S
C1868 C1870 1.384 . S
C1869 C1868 1.377 . S
C1869 C1875 1.390 . S
C1870 H1861 0.930 . S
C1870 C1868 1.384 . S
C1870 C1871 1.372 . S
C1871 C1870 1.372 . S
C1871 C1872 1.400 . S
C1871 C1876 1.490 . S
C1872 H1862 0.930 . S
C1872 C1871 1.400 . S
C1872 C1875 1.386 . S
H1873 C1889 0.930 . S
H1874 C1890 0.931 . S
C1875 H1863 0.929 . S
C1875 C1869 1.390 . S
C1875 C1872 1.386 . S
C1876 C1871 1.490 . S
C1876 C1878 1.395 . S
C1876 C1879 1.403 . S
H1877 C1883 0.930 . S
C1878 H1864 0.930 . S
C1878 C1876 1.395 . S
C1878 C1881 1.403 . S
C1879 C1876 1.403 . S
C1879 C1880 1.524 . S
C1879 C1883 1.400 . S
C1880 H1865 0.960 . S
C1880 H1866 0.960 . S
C1880 H1867 0.960 . S
C1880 C1879 1.524 . S
C1881 C1878 1.403 . S
C1881 C1882 1.392 . S
C1881 C1885 1.495 . S
C1882 C1881 1.392 . S
C1882 C1883 1.385 . S
C1882 C1884 1.478 . S
C1883 H1877 0.930 . S
C1883 C1879 1.400 . S
C1883 C1882 1.385 . S
C1884 C1882 1.478 . S
C1884 C1886 1.381 . S
C1884 C1890 1.383 . S
C1885 C1881 1.495 . S
C1885 H1891 0.959 . S
C1885 H1892 0.961 . S
C1885 H1893 0.960 . S
C1886 C1884 1.381 . S
C1886 C1887 1.394 . S
C1886 H1894 0.930 . S
C1887 C1886 1.394 . S
C1887 C1888 1.383 . S
C1887 H1895 0.929 . S
C1888 C1887 1.383 . S
C1888 C1889 1.377 . S
C1889 H1873 0.930 . S
C1889 C1888 1.377 . S
C1889 C1890 1.379 . S
C1890 H1874 0.931 . S
C1890 C1884 1.383 . S
C1890 C1889 1.379 . S
H1891 C1885 0.959 . S
H1892 C1885 0.961 . S
H1893 C1885 0.960 . S
H1894 C1886 0.930 . S
H1895 C1887 0.929 . S
H1896 C1904 0.929 . S
H1897 C1906 0.930 . S
H1898 C1908 0.930 . S
H1899 C1911 0.929 . S
H1900 C1914 0.930 . S
H1901 C1916 0.960 . S
H1902 C1916 0.960 . S
H1903 C1916 0.960 . S
C1904 H1896 0.929 . S
C1904 C1905 1.377 . S
C1904 C1906 1.384 . S
C1905 C1904 1.377 . S
C1905 C1911 1.390 . S
C1906 H1897 0.930 . S
C1906 C1904 1.384 . S
C1906 C1907 1.372 . S
C1907 C1906 1.372 . S
C1907 C1908 1.400 . S
C1907 C1912 1.490 . S
C1908 H1898 0.930 . S
C1908 C1907 1.400 . S
C1908 C1911 1.386 . S
H1909 C1925 0.930 . S
H1910 C1926 0.931 . S
C1911 H1899 0.929 . S
C1911 C1905 1.390 . S
C1911 C1908 1.386 . S
C1912 C1907 1.490 . S
C1912 C1914 1.395 . S
C1912 C1915 1.403 . S
H1913 C1919 0.930 . S
C1914 H1900 0.930 . S
C1914 C1912 1.395 . S
C1914 C1917 1.403 . S
C1915 C1912 1.403 . S
C1915 C1916 1.524 . S
C1915 C1919 1.400 . S
C1916 H1901 0.960 . S
C1916 H1902 0.960 . S
C1916 H1903 0.960 . S
C1916 C1915 1.524 . S
C1917 C1914 1.403 . S
C1917 C1918 1.392 . S
C1917 C1921 1.495 . S
C1918 C1917 1.392 . S
C1918 C1919 1.385 . S
C1918 C1920 1.478 . S
C1919 H1913 0.930 . S
C1919 C1915 1.400 . S
C1919 C1918 1.385 . S
C1920 C1918 1.478 . S
C1920 C1922 1.381 . S
C1920 C1926 1.383 . S
C1921 C1917 1.495 . S
C1921 H1927 0.959 . S
C1921 H1928 0.961 . S
C1921 H1929 0.960 . S
C1922 C1920 1.381 . S
C1922 C1923 1.394 . S
C1922 H1930 0.930 . S
C1923 C1922 1.394 . S
C1923 C1924 1.383 . S
C1923 H1931 0.929 . S
C1924 C1923 1.383 . S
C1924 C1925 1.377 . S
C1925 H1909 0.930 . S
C1925 C1924 1.377 . S
C1925 C1926 1.379 . S
C1926 H1910 0.931 . S
C1926 C1920 1.383 . S
C1926 C1925 1.379 . S
H1927 C1921 0.959 . S
H1928 C1921 0.961 . S
H1929 C1921 0.960 . S
H1930 C1922 0.930 . S
H1931 C1923 0.929 . S
H1932 C1940 0.929 . S
H1933 C1942 0.930 . S
H1934 C1944 0.930 . S
H1935 C1947 0.929 . S
H1936 C1950 0.930 . S
H1937 C1952 0.960 . S
H1938 C1952 0.960 . S
H1939 C1952 0.960 . S
C1940 H1932 0.929 . S
C1940 C1941 1.377 . S
C1940 C1942 1.384 . S
C1941 C1940 1.377 . S
C1941 C1947 1.390 . S
C1942 H1933 0.930 . S
C1942 C1940 1.384 . S
C1942 C1943 1.372 . S
C1943 C1942 1.372 . S
C1943 C1944 1.400 . S
C1943 C1948 1.490 . S
C1944 H1934 0.930 . S
C1944 C1943 1.400 . S
C1944 C1947 1.386 . S
H1945 C1961 0.930 . S
H1946 C1962 0.931 . S
C1947 H1935 0.929 . S
C1947 C1941 1.390 . S
C1947 C1944 1.386 . S
C1948 C1943 1.490 . S
C1948 C1950 1.395 . S
C1948 C1951 1.403 . S
H1949 C1955 0.930 . S
C1950 H1936 0.930 . S
C1950 C1948 1.395 . S
C1950 C1953 1.403 . S
C1951 C1948 1.403 . S
C1951 C1952 1.524 . S
C1951 C1955 1.400 . S
C1952 H1937 0.960 . S
C1952 H1938 0.960 . S
C1952 H1939 0.960 . S
C1952 C1951 1.524 . S
C1953 C1950 1.403 . S
C1953 C1954 1.392 . S
C1953 C1957 1.495 . S
C1954 C1953 1.392 . S
C1954 C1955 1.385 . S
C1954 C1956 1.478 . S
C1955 H1949 0.930 . S
C1955 C1951 1.400 . S
C1955 C1954 1.385 . S
C1956 C1954 1.478 . S
C1956 C1958 1.381 . S
C1956 C1962 1.383 . S
C1957 C1953 1.495 . S
C1957 H1963 0.959 . S
C1957 H1964 0.961 . S
C1957 H1965 0.960 . S
C1958 C1956 1.381 . S
C1958 C1959 1.394 . S
C1958 H1966 0.930 . S
C1959 C1958 1.394 . S
C1959 C1960 1.383 . S
C1959 H1967 0.929 . S
C1960 C1959 1.383 . S
C1960 C1961 1.377 . S
C1961 H1945 0.930 . S
C1961 C1960 1.377 . S
C1961 C1962 1.379 . S
C1962 H1946 0.931 . S
C1962 C1956 1.383 . S
C1962 C1961 1.379 . S
H1963 C1957 0.959 . S
H1964 C1957 0.961 . S
H1965 C1957 0.960 . S
H1966 C1958 0.930 . S
H1967 C1959 0.929 . S
C537 N2 1.593 . S
C556 N464 1.600 . S
C573 N79 1.608 . S
C592 N13 1.597 . S
C609 N35 1.601 . S
C628 N365 1.586 . S
C645 N244 1.610 . S
C664 N46 1.600 . S
C681 N68 1.599 . S
C700 N398 1.621 . S
C717 N101 1.592 . S
C736 N299 1.590 . S
C753 N112 1.611 . S
C772 N178 1.614 . S
C789 N332 1.592 . S
C808 N134 1.589 . S
C825 N211 1.611 . S
C844 N145 1.613 . S
C861 N167 1.592 . S
C880 N497 1.570 . S
C897 N266 1.591 . S
C916 N200 1.587 . S
C933 N431 1.593 . S
C952 N233 1.600 . S
C969 N277 1.609 . S
C988 N343 1.597 . S
C1005 N508 1.611 . S
C1024 N310 1.612 . S
C1041 N376 1.608 . S
C1060 N442 1.598 . S
C1077 N409 1.608 . S
C1096 N475 1.608 . S
C1113 C7 1.022 . S
C1132 C318 1.031 . S
C1149 C304 1.013 . S
C1168 C21 1.020 . S
C1185 C40 1.023 . S
C1204 C285 1.037 . S
C1221 C54 1.022 . S
C1240 C271 1.007 . S
C1257 C384 1.029 . S
C1276 C73 0.990 . S
C1293 C370 1.015 . S
C1312 C87 1.026 . S
C1329 C106 1.013 . S
C1348 C351 1.042 . S
C1365 C120 1.025 . S
C1384 C337 1.005 . S
C1401 C139 1.022 . S
C1420 C450 1.042 . S
C1437 C436 1.012 . S
C1456 C153 1.008 . S
C1473 C172 1.012 . S
C1492 C417 1.006 . S
C1509 C403 1.023 . S
C1528 C186 1.039 . S
C1545 C516 1.028 . S
C1564 C205 0.992 . S
C1581 C219 1.023 . S
C1600 C502 1.023 . S
C1617 C238 1.020 . S
C1636 C483 1.009 . S
C1653 C252 1.027 . S
C1672 C469 0.993 . S
C1689 C51 0.967 . S
C1708 C18 0.971 . S
C1725 C84 0.966 . S
C1744 C117 0.970 . S
C1761 C150 0.965 . S
C1780 C183 0.960 . S
C1797 C216 0.966 . S
C1816 C249 0.971 . S
C1833 C315 0.965 . S
C1852 C282 0.958 . S
C1869 C381 0.967 . S
C1888 C348 0.960 . S
C1905 C414 0.967 . S
C1924 C447 0.969 . S
C1941 C513 0.965 . S
C1960 C480 0.967 . S
