# Generated by pormake.
# Topology ure, (4)-cn, num edge types: 1
# Building blocks:
#     Node 0, Type 0, BuildingBlock: NAHDIM_clean_sbu_0, # of connection points: 4
#     Node 1, Type 0, BuildingBlock: NAHDIM_clean_sbu_0, # of connection points: 4
#     Node 2, Type 0, BuildingBlock: NAHDIM_clean_sbu_0, # of connection points: 4
#     Node 3, Type 0, BuildingBlock: NAHDIM_clean_sbu_0, # of connection points: 4
#     Node 4, Type 0, BuildingBlock: NAHDIM_clean_sbu_0, # of connection points: 4
#     Node 5, Type 0, BuildingBlock: NAHDIM_clean_sbu_0, # of connection points: 4
#     Node 6, Type 0, BuildingBlock: NAHDIM_clean_sbu_0, # of connection points: 4
#     Node 7, Type 0, BuildingBlock: NAHDIM_clean_sbu_0, # of connection points: 4
#     Node 8, Type 0, BuildingBlock: NAHDIM_clean_sbu_0, # of connection points: 4
#     Node 9, Type 0, BuildingBlock: NAHDIM_clean_sbu_0, # of connection points: 4
#     Node 10, Type 0, BuildingBlock: NAHDIM_clean_sbu_0, # of connection points: 4
#     Node 11, Type 0, BuildingBlock: NAHDIM_clean_sbu_0, # of connection points: 4
#     Node 12, Type 0, BuildingBlock: NAHDIM_clean_sbu_0, # of connection points: 4
#     Node 13, Type 0, BuildingBlock: NAHDIM_clean_sbu_0, # of connection points: 4
#     Node 14, Type 0, BuildingBlock: NAHDIM_clean_sbu_0, # of connection points: 4
#     Node 15, Type 0, BuildingBlock: NAHDIM_clean_sbu_0, # of connection points: 4
#     Edge 16, Type (0, 0), BuildingBlock: UVAHIK_clean_linker_0, # of connection points: 2
#     Edge 17, Type (0, 0), BuildingBlock: UVAHIK_clean_linker_0, # of connection points: 2
#     Edge 18, Type (0, 0), BuildingBlock: UVAHIK_clean_linker_0, # of connection points: 2
#     Edge 19, Type (0, 0), BuildingBlock: UVAHIK_clean_linker_0, # of connection points: 2
#     Edge 20, Type (0, 0), BuildingBlock: UVAHIK_clean_linker_0, # of connection points: 2
#     Edge 21, Type (0, 0), BuildingBlock: UVAHIK_clean_linker_0, # of connection points: 2
#     Edge 22, Type (0, 0), BuildingBlock: UVAHIK_clean_linker_0, # of connection points: 2
#     Edge 23, Type (0, 0), BuildingBlock: UVAHIK_clean_linker_0, # of connection points: 2
#     Edge 24, Type (0, 0), BuildingBlock: UVAHIK_clean_linker_0, # of connection points: 2
#     Edge 25, Type (0, 0), BuildingBlock: UVAHIK_clean_linker_0, # of connection points: 2
#     Edge 26, Type (0, 0), BuildingBlock: UVAHIK_clean_linker_0, # of connection points: 2
#     Edge 27, Type (0, 0), BuildingBlock: UVAHIK_clean_linker_0, # of connection points: 2
#     Edge 28, Type (0, 0), BuildingBlock: UVAHIK_clean_linker_0, # of connection points: 2
#     Edge 29, Type (0, 0), BuildingBlock: UVAHIK_clean_linker_0, # of connection points: 2
#     Edge 30, Type (0, 0), BuildingBlock: UVAHIK_clean_linker_0, # of connection points: 2
#     Edge 31, Type (0, 0), BuildingBlock: UVAHIK_clean_linker_0, # of connection points: 2
#     Edge 32, Type (0, 0), BuildingBlock: UVAHIK_clean_linker_0, # of connection points: 2
#     Edge 33, Type (0, 0), BuildingBlock: UVAHIK_clean_linker_0, # of connection points: 2
#     Edge 34, Type (0, 0), BuildingBlock: UVAHIK_clean_linker_0, # of connection points: 2
#     Edge 35, Type (0, 0), BuildingBlock: UVAHIK_clean_linker_0, # of connection points: 2
#     Edge 36, Type (0, 0), BuildingBlock: UVAHIK_clean_linker_0, # of connection points: 2
#     Edge 37, Type (0, 0), BuildingBlock: UVAHIK_clean_linker_0, # of connection points: 2
#     Edge 38, Type (0, 0), BuildingBlock: UVAHIK_clean_linker_0, # of connection points: 2
#     Edge 39, Type (0, 0), BuildingBlock: UVAHIK_clean_linker_0, # of connection points: 2
#     Edge 40, Type (0, 0), BuildingBlock: UVAHIK_clean_linker_0, # of connection points: 2
#     Edge 41, Type (0, 0), BuildingBlock: UVAHIK_clean_linker_0, # of connection points: 2
#     Edge 42, Type (0, 0), BuildingBlock: UVAHIK_clean_linker_0, # of connection points: 2
#     Edge 43, Type (0, 0), BuildingBlock: UVAHIK_clean_linker_0, # of connection points: 2
#     Edge 44, Type (0, 0), BuildingBlock: UVAHIK_clean_linker_0, # of connection points: 2
#     Edge 45, Type (0, 0), BuildingBlock: UVAHIK_clean_linker_0, # of connection points: 2
#     Edge 46, Type (0, 0), BuildingBlock: UVAHIK_clean_linker_0, # of connection points: 2
#     Edge 47, Type (0, 0), BuildingBlock: UVAHIK_clean_linker_0, # of connection points: 2
# Relax obj value: 0.113
# Max RMSD: 0.077
# Mean RMSD: 0.068
data_MOF--net-ure--node1-NAHDIM_clean_sbu_0--edge1-UVAHIK_clean_linker_0
_symmetry_space_group_name_H-M    P1
_symmetry_Int_Tables_number       1
_symmetry_cell_setting            triclinic
loop_
_symmetry_equiv_pos_as_xyz
'x, y, z'
_cell_length_a     39.508869
_cell_length_b     41.095151
_cell_length_c     42.165956
_cell_angle_alpha  90.54753
_cell_angle_beta   91.261177
_cell_angle_gamma 93.414628
loop_
_atom_site_label
_atom_site_type_symbol
_atom_site_fract_x
_atom_site_fract_y
_atom_site_fract_z
_atom_type_partial_charge
C0 C 0.21476 0.23323 0.22991 0.0
O1 O 0.23545 0.25689 0.21975 0.0
O2 O 0.28858 0.25489 0.28356 0.0
Zn3 Zn 0.23865 0.25973 0.28926 0.0
O4 O 0.22757 0.30587 0.28065 0.0
C5 C 0.24523 0.23181 0.35142 0.0
O6 O 0.27008 0.21708 0.33829 0.0
O7 O 0.21165 0.22938 0.25958 0.0
C8 C 0.2389 0.32792 0.30008 0.0
O9 O 0.25734 0.31966 0.3247 0.0
C10 C 0.30732 0.27404 0.26705 0.0
O11 O 0.29381 0.29814 0.25205 0.0
O12 O 0.22751 0.25019 0.3346 0.0
C13 C -0.00032 0.93245 0.47625 0.0
O14 O 0.98665 0.92129 0.5027 0.0
O15 O 0.91497 0.9766 0.48477 0.0
Zn16 Zn 0.96446 0.9881 0.49394 0.0
O17 O 0.97592 0.98079 0.53985 0.0
C18 C 0.95857 0.05628 0.50007 0.0
O19 O 0.9385 0.0461 0.52282 0.0
O20 O 0.99322 0.96086 0.46718 0.0
C21 C 0.00202 0.99489 0.55322 0.0
O22 O 0.02192 0.01468 0.53665 0.0
C23 C 0.89353 0.97547 0.50682 0.0
O24 O 0.9042 0.98023 0.53632 0.0
O25 O 0.97352 0.03544 0.48391 0.0
C26 C 0.27869 0.78068 0.72654 0.0
O27 O 0.27672 0.74898 0.72185 0.0
O28 O 0.19486 0.7669 0.78281 0.0
Zn29 Zn 0.24519 0.76253 0.78414 0.0
O30 O 0.25433 0.71583 0.77527 0.0
C31 C 0.24846 0.7931 0.84611 0.0
O32 O 0.22322 0.80909 0.83456 0.0
O33 O 0.26729 0.79227 0.75196 0.0
C34 C 0.24415 0.69435 0.7949 0.0
O35 O 0.2277 0.70339 0.81994 0.0
C36 C 0.17814 0.77005 0.75706 0.0
O37 O 0.1941 0.77034 0.73005 0.0
O38 O 0.2627 0.77316 0.8283 0.0
C39 C 0.48738 0.02532 0.961 0.0
O40 O 0.50853 0.03832 0.98274 0.0
O41 O 0.56341 0.98319 0.97817 0.0
Zn42 Zn 0.51464 0.969 0.98563 0.0
O43 O 0.50284 0.97821 0.03082 0.0
C44 C 0.52531 0.90159 0.99145 0.0
O45 O 0.54725 0.91346 0.01306 0.0
O46 O 0.4852 0.99456 0.9573 0.0
C47 C 0.47956 0.96166 0.04482 0.0
O48 O 0.46272 0.93764 0.02947 0.0
C49 C 0.58513 0.98691 0.00079 0.0
O50 O 0.57554 0.98166 0.03002 0.0
O51 O 0.50757 0.92108 0.97599 0.0
C52 C 0.23112 0.74958 0.29791 0.0
O53 O 0.24348 0.72288 0.30907 0.0
O54 O 0.31821 0.74347 0.25872 0.0
Zn55 Zn 0.26982 0.73288 0.24454 0.0
O56 O 0.25799 0.68537 0.25146 0.0
C57 C 0.28301 0.73166 0.17797 0.0
O58 O 0.30462 0.71034 0.18707 0.0
O59 O 0.23913 0.75904 0.27034 0.0
C60 C 0.23546 0.66827 0.23581 0.0
O61 O 0.21825 0.68175 0.21294 0.0
C62 C 0.33936 0.72136 0.25987 0.0
O63 O 0.32918 0.69126 0.25213 0.0
O64 O 0.26465 0.74433 0.19855 0.0
C65 C 0.41825 0.99282 0.48717 0.0
O66 O 0.41183 0.0238 0.48643 0.0
O67 O 0.4662 0.05878 0.45533 0.0
Zn68 Zn 0.46994 0.01201 0.44215 0.0
O69 O 0.51849 0.00038 0.44738 0.0
C70 C 0.4623 0.02866 0.37677 0.0
O71 O 0.47674 0.0564 0.38734 0.0
O72 O 0.44125 0.98246 0.46975 0.0
C73 C 0.54275 0.02051 0.4403 0.0
O74 O 0.53585 0.04926 0.4294 0.0
C75 C 0.47978 0.07002 0.48108 0.0
O76 O 0.49616 0.05052 0.49967 0.0
O77 O 0.45592 0.0058 0.39624 0.0
C78 C 0.27893 0.22884 0.77361 0.0
O79 O 0.25609 0.2157 0.75346 0.0
O80 O 0.25297 0.27533 0.70605 0.0
Zn81 Zn 0.24873 0.28532 0.7524 0.0
O82 O 0.20122 0.2715 0.76459 0.0
C83 C 0.27512 0.3521 0.74329 0.0
O84 O 0.28963 0.3399 0.71848 0.0
O85 O 0.2811 0.25959 0.77742 0.0
C86 C 0.18441 0.28774 0.78388 0.0
O87 O 0.19862 0.31436 0.79713 0.0
C88 C 0.23039 0.28461 0.68682 0.0
O89 O 0.20568 0.30122 0.69778 0.0
O90 O 0.25735 0.33329 0.76095 0.0
C91 C 0.02998 0.01349 0.01177 0.0
O92 O 0.00589 0.99333 0.02243 0.0
O93 O 0.01256 0.93671 0.96671 0.0
Zn94 Zn 0.00647 0.98325 0.95448 0.0
O95 O 0.9577 0.99328 0.96003 0.0
C96 C 0.00552 0.9658 0.88987 0.0
O97 O 0.98504 0.94265 0.90131 0.0
O98 O 0.03578 0.01363 0.98226 0.0
C99 C 0.94 0.0078 0.93968 0.0
O100 O 0.95379 0.01768 0.91312 0.0
C101 C 0.99039 0.91978 0.98178 0.0
O102 O 0.96317 0.93345 0.99146 0.0
O103 O 0.01874 0.98757 0.90869 0.0
C104 C 0.72237 0.24291 0.79567 0.0
O105 O 0.73306 0.21488 0.80522 0.0
O106 O 0.80893 0.23345 0.759 0.0
Zn107 Zn 0.76099 0.22794 0.74178 0.0
O108 O 0.74378 0.18095 0.74359 0.0
C109 C 0.78301 0.24376 0.67838 0.0
O110 O 0.81123 0.2314 0.68821 0.0
O111 O 0.73144 0.25385 0.7689 0.0
C112 C 0.74426 0.16093 0.72049 0.0
O113 O 0.75669 0.17078 0.69335 0.0
C114 C 0.82919 0.21059 0.75804 0.0
O115 O 0.81864 0.18226 0.74561 0.0
O116 O 0.75831 0.24462 0.69711 0.0
C117 C 0.95371 0.485 0.00726 0.0
O118 O 0.97576 0.5076 0.01861 0.0
O119 O 0.97958 0.55351 0.95881 0.0
Zn120 Zn 0.98496 0.50586 0.9511 0.0
O121 O 0.03248 0.49673 0.96456 0.0
C122 C 0.96199 0.51225 0.88564 0.0
O123 O 0.94706 0.53763 0.8966 0.0
O124 O 0.95233 0.47943 0.97756 0.0
C125 C 0.04921 0.47543 0.95086 0.0
O126 O 0.03477 0.45779 0.9276 0.0
C127 C 0.0029 0.57358 0.94953 0.0
O128 O 0.02877 0.56242 0.93466 0.0
O129 O 0.97847 0.49501 0.90471 0.0
C130 C 0.78689 0.73261 0.26746 0.0
O131 O 0.76313 0.72015 0.24786 0.0
O132 O 0.76457 0.77895 0.19793 0.0
Zn133 Zn 0.76133 0.79078 0.24408 0.0
O134 O 0.71314 0.78071 0.25694 0.0
C135 C 0.78635 0.8575 0.23081 0.0
O136 O 0.79267 0.84586 0.20258 0.0
O137 O 0.79146 0.76339 0.26991 0.0
C138 C 0.69563 0.80122 0.27094 0.0
O139 O 0.70944 0.83029 0.27816 0.0
C140 C 0.7412 0.78674 0.17878 0.0
O141 O 0.71611 0.80292 0.1896 0.0
O142 O 0.77403 0.83842 0.25171 0.0
C143 C 0.98335 0.52496 0.46228 0.0
O144 O 0.00474 0.5377 0.48394 0.0
O145 O 0.05788 0.47383 0.47528 0.0
Zn146 Zn 0.00877 0.46669 0.48636 0.0
O147 O 0.00175 0.47789 0.5321 0.0
C148 C 0.008 0.40172 0.45941 0.0
O149 O 0.03088 0.41507 0.44063 0.0
O150 O 0.98048 0.49419 0.45872 0.0
C151 C 0.01289 0.45928 0.5533 0.0
O152 O 0.02951 0.43402 0.54463 0.0
C153 C 0.07903 0.49279 0.49064 0.0
O154 O 0.06882 0.50925 0.51515 0.0
O155 O 0.99456 0.41936 0.47999 0.0
C156 C 0.50703 0.43353 0.98353 0.0
O157 O 0.49284 0.42256 0.00953 0.0
O158 O 0.42824 0.48095 -0.00248 0.0
Zn159 Zn 0.47809 0.49127 0.00419 0.0
O160 O 0.49101 0.48243 0.04946 0.0
C161 C 0.47376 0.55391 0.97377 0.0
O162 O 0.45012 0.53837 0.95608 0.0
O163 O 0.50396 0.46303 0.97583 0.0
C164 C 0.51555 0.4986 0.06333 0.0
O165 O 0.5326 0.5215 0.04776 0.0
C166 C 0.40766 0.49536 0.0147 0.0
O167 O 0.41971 0.51636 0.03643 0.0
O168 O 0.48912 0.53852 0.99515 0.0
C169 C 0.72826 0.72472 0.72406 0.0
O170 O 0.75242 0.74417 0.71245 0.0
O171 O 0.79751 0.75991 0.77183 0.0
Zn172 Zn 0.74758 0.76114 0.77961 0.0
O173 O 0.73294 0.80521 0.76682 0.0
C174 C 0.75826 0.73708 0.84289 0.0
O175 O 0.7828 0.72215 0.82944 0.0
O176 O 0.72155 0.72704 0.75328 0.0
C177 C 0.71322 0.82147 0.78332 0.0
O178 O 0.70081 0.80882 0.80942 0.0
C179 C 0.81664 0.78505 0.77874 0.0
O180 O 0.80317 0.81084 0.79063 0.0
O181 O 0.73948 0.75441 0.826 0.0
C182 C 0.75908 0.28769 0.2255 0.0
O183 O 0.73854 0.26317 0.21562 0.0
O184 O 0.68861 0.2645 0.2769 0.0
Zn185 Zn 0.73883 0.26215 0.2846 0.0
O186 O 0.75214 0.21647 0.2756 0.0
C187 C 0.73315 0.29174 0.34686 0.0
O188 O 0.70615 0.30407 0.33417 0.0
O189 O 0.76352 0.29262 0.25512 0.0
C190 C 0.75556 0.19607 0.29775 0.0
O191 O 0.75031 0.20498 0.32715 0.0
C192 C 0.66771 0.24478 0.29042 0.0
O193 O 0.67931 0.22272 0.30949 0.0
O194 O 0.7511 0.27409 0.3299 0.0
C195 C 0.52368 0.51032 0.51586 0.0
O196 O 0.49565 0.49539 0.52588 0.0
O197 O 0.50711 0.42894 0.47473 0.0
Zn198 Zn 0.50439 0.47483 0.45912 0.0
O199 O 0.4557 0.4869 0.4592 0.0
C200 C 0.52171 0.45248 0.39687 0.0
O201 O 0.51115 0.42406 0.40815 0.0
O202 O 0.53269 0.50538 0.48758 0.0
C203 C 0.43455 0.4739 0.43901 0.0
O204 O 0.4451 0.45324 0.41798 0.0
C205 C 0.48521 0.41572 0.49295 0.0
O206 O 0.46036 0.43276 0.50293 0.0
O207 O 0.52161 0.47769 0.41458 0.0
C208 C 0.17218 0.18693 0.21789 0.0
C209 C 0.19547 0.21132 0.20712 0.0
C210 C 0.15409 0.16615 0.19634 0.0
C211 C 0.1566 0.13326 0.11512 0.0
H212 H 0.06077 0.11203 0.12686 0.0
C213 C 0.07332 0.05959 0.02221 0.0
C214 C 0.04941 0.03618 0.03374 0.0
C215 C 0.09113 0.08141 0.04302 0.0
C216 C 0.0876 0.11742 0.12345 0.0
H217 H 0.21795 0.23311 0.16526 0.0
H218 H 0.18626 0.19685 0.12766 0.0
H219 H 0.09178 0.1494 0.16389 0.0
H220 H 0.0257 0.01708 0.07618 0.0
H221 H 0.05712 0.05478 0.11247 0.0
H222 H 0.15253 0.10109 0.07485 0.0
C223 C 0.18224 0.19365 0.15279 0.0
C224 C 0.10534 0.13885 0.14464 0.0
C225 C 0.20025 0.21452 0.17434 0.0
C226 C 0.04384 0.03491 0.06651 0.0
C227 C 0.0617 0.05667 0.08731 0.0
C228 C 0.13888 0.11175 0.09397 0.0
C229 C 0.15899 0.16925 0.16357 0.0
C230 C 0.14004 0.14692 0.14076 0.0
C231 C 0.08545 0.08024 0.0758 0.0
C232 C 0.10421 0.10349 0.09796 0.0
H233 H 0.16795 0.1838 0.243 0.0
H234 H 0.13662 0.14733 0.20537 0.0
H235 H 0.18344 0.1387 0.11177 0.0
H236 H 0.07809 0.06128 -0.00294 0.0
H237 H 0.10896 0.09954 0.03336 0.0
C238 C 0.0323 0.88259 0.46928 0.0
C239 C 0.02261 0.91276 0.45789 0.0
C240 C 0.05488 0.86451 0.4524 0.0
C241 C 0.1208 0.87347 0.39192 0.0
H242 H 0.10655 0.77955 0.38371 0.0
C243 C 0.1962 0.79769 0.30575 0.0
C244 C 0.20783 0.76817 0.31698 0.0
C245 C 0.17396 0.81515 0.32359 0.0
C246 C 0.11104 0.80573 0.38611 0.0
H247 H 0.02854 0.94737 0.41956 0.0
H248 H 0.06747 0.91561 0.38991 0.0
H249 H 0.06649 0.81024 0.41338 0.0
H250 H 0.20528 0.73383 0.35576 0.0
H251 H 0.16643 0.76445 0.38695 0.0
H252 H 0.16518 0.86897 0.36442 0.0
C253 C 0.05812 0.90619 0.41218 0.0
C254 C 0.08813 0.8233 0.4031 0.0
C255 C 0.03563 0.92429 0.42908 0.0
C256 C 0.19676 0.75649 0.34644 0.0
C257 C 0.17437 0.77391 0.36423 0.0
C258 C 0.14362 0.85592 0.37487 0.0
C259 C 0.06818 0.8762 0.42375 0.0
C260 C 0.09268 0.85739 0.40607 0.0
C261 C 0.16276 0.80342 0.35297 0.0
C262 C 0.13891 0.8219 0.37168 0.0
H263 H 0.02279 0.87308 0.49146 0.0
H264 H 0.06241 0.84167 0.46212 0.0
H265 H 0.12538 0.89964 0.39428 0.0
H266 H 0.2042 0.80733 0.28312 0.0
H267 H 0.16511 0.83763 0.31414 0.0
C268 C 0.40513 0.93698 0.5084 0.0
C269 C 0.40078 0.97064 0.50972 0.0
C270 C 0.39046 0.91625 0.53097 0.0
C271 C 0.32527 0.91114 0.59302 0.0
H272 H 0.37958 0.84273 0.62552 0.0
C273 C 0.29025 0.8365 0.7044 0.0
C274 C 0.29284 0.80261 0.70194 0.0
C275 C 0.30282 0.85705 0.68062 0.0
C276 C 0.36401 0.86155 0.61647 0.0
H277 H 0.37709 0.0089 0.5354 0.0
H278 H 0.35207 0.97282 0.57517 0.0
H279 H 0.40192 0.8784 0.58417 0.0
H280 H 0.31083 0.76371 0.67277 0.0
H281 H 0.33292 0.79963 0.63142 0.0
H282 H 0.2876 0.89445 0.62586 0.0
C283 C 0.36634 0.96233 0.55639 0.0
C284 C 0.37673 0.88192 0.5927 0.0
C285 C 0.38082 0.98305 0.53367 0.0
C286 C 0.30848 0.78972 0.67539 0.0
C287 C 0.32127 0.81028 0.65177 0.0
C288 C 0.31264 0.89087 0.61698 0.0
C289 C 0.37132 0.92873 0.55552 0.0
C290 C 0.35749 0.90692 0.58062 0.0
C291 C 0.31846 0.84413 0.65409 0.0
C292 C 0.33187 0.86584 0.62888 0.0
H293 H 0.42014 0.92663 0.49008 0.0
H294 H 0.39423 0.89041 0.52921 0.0
H295 H 0.3096 0.92985 0.58396 0.0
H296 H 0.27829 0.84718 0.72455 0.0
H297 H 0.30062 0.88309 0.68316 0.0
C298 C 0.46914 0.08024 0.94533 0.0
C299 C 0.46641 0.0462 0.9413 0.0
C300 C 0.44924 0.10003 0.92684 0.0
C301 C 0.39956 0.1009 0.85187 0.0
H302 H 0.35799 0.17365 0.89154 0.0
C303 C 0.29875 0.17405 0.78783 0.0
C304 C 0.30125 0.20807 0.79204 0.0
C305 C 0.31939 0.15435 0.80566 0.0
C306 C 0.36974 0.15365 0.88005 0.0
H307 H 0.44063 0.0062 0.91474 0.0
H308 H 0.40565 0.04076 0.88269 0.0
H309 H 0.39298 0.13903 0.92351 0.0
H310 H 0.32759 0.24816 0.81805 0.0
H311 H 0.36377 0.21376 0.84901 0.0
H312 H 0.3762 0.11549 0.80842 0.0
C313 C 0.42349 0.05216 0.89987 0.0
C314 C 0.38978 0.13383 0.89835 0.0
C315 C 0.4434 0.03236 0.91836 0.0
C316 C 0.32497 0.22201 0.81431 0.0
C317 C 0.34556 0.2023 0.83218 0.0
C318 C 0.37949 0.12072 0.83357 0.0
C319 C 0.42618 0.08621 0.90394 0.0
C320 C 0.40491 0.10724 0.88446 0.0
C321 C 0.34291 0.16826 0.82812 0.0
C322 C 0.36438 0.14731 0.84747 0.0
H323 H 0.48671 0.09168 0.96273 0.0
H324 H 0.4522 0.12621 0.93025 0.0
H325 H 0.41128 0.08088 0.8404 0.0
H326 H 0.28069 0.16255 0.7709 0.0
H327 H 0.31651 0.12817 0.80226 0.0
C328 C 0.68736 0.24823 0.84402 0.0
C329 C 0.69947 0.26121 0.81543 0.0
C330 C 0.66522 0.26537 0.86235 0.0
C331 C 0.60532 0.33089 0.85709 0.0
H332 H 0.61782 0.33537 0.94854 0.0
C333 C 0.54043 0.42327 0.93513 0.0
C334 C 0.52703 0.41212 0.96392 0.0
C335 C 0.55997 0.40333 0.91693 0.0
C336 C 0.61376 0.33399 0.92306 0.0
H337 H 0.69818 0.30251 0.7838 0.0
H338 H 0.66006 0.33257 0.81599 0.0
H339 H 0.65519 0.30343 0.91702 0.0
H340 H 0.52337 0.37121 -0.00391 0.0
H341 H 0.55757 0.33637 0.9642 0.0
H342 H 0.56422 0.36185 0.86311 0.0
C343 C 0.66714 0.30889 0.82398 0.0
C344 C 0.63513 0.3157 0.90502 0.0
C345 C 0.68919 0.29175 0.80564 0.0
C346 C 0.53338 0.38052 0.97403 0.0
C347 C 0.55309 0.36063 0.95588 0.0
C348 C 0.58405 0.34925 0.87511 0.0
C349 C 0.65481 0.29586 0.85247 0.0
C350 C 0.63132 0.31419 0.8718 0.0
C351 C 0.56664 0.37188 0.9272 0.0
C352 C 0.58823 0.3512 0.90824 0.0
H353 H 0.69473 0.2247 0.85215 0.0
H354 H 0.65589 0.25454 0.88403 0.0
H355 H 0.60132 0.3297 0.8316 0.0
H356 H 0.53601 0.4475 0.92669 0.0
H357 H 0.57042 0.41279 0.8951 0.0
C358 C 0.90862 0.44097 0.01698 0.0
C359 C 0.93151 0.46586 0.02886 0.0
C360 C 0.88831 0.42239 0.03758 0.0
C361 C 0.8542 0.42246 0.11844 0.0
H362 H 0.84469 0.32874 0.10568 0.0
C363 C 0.7991 0.33514 0.21302 0.0
C364 C 0.77715 0.3089 0.20248 0.0
C365 C 0.81657 0.35485 0.19126 0.0
C366 C 0.84673 0.35492 0.10933 0.0
H367 H 0.95083 0.49096 0.07164 0.0
H368 H 0.91564 0.45837 0.10753 0.0
H369 H 0.87747 0.36228 0.06857 0.0
H370 H 0.75607 0.28295 0.16083 0.0
H371 H 0.78641 0.31752 0.12287 0.0
H372 H 0.82367 0.41505 0.15934 0.0
C373 C 0.9131 0.45345 0.08228 0.0
C374 C 0.8655 0.37413 0.08807 0.0
C375 C 0.93342 0.472 0.06171 0.0
C376 C 0.77288 0.30292 0.16973 0.0
C377 C 0.79039 0.32261 0.14797 0.0
C378 C 0.83544 0.40324 0.1397 0.0
C379 C 0.89044 0.42835 0.07047 0.0
C380 C 0.86958 0.40809 0.09248 0.0
C381 C 0.8125 0.34873 0.15851 0.0
C382 C 0.83165 0.36925 0.13547 0.0
H383 H 0.90647 0.4357 0.99178 0.0
H384 H 0.87079 0.40347 0.02773 0.0
H385 H 0.85646 0.44861 0.1222 0.0
H386 H 0.803 0.34037 0.23811 0.0
H387 H 0.83375 0.37455 0.20014 0.0
C388 C 0.93954 0.53247 0.4196 0.0
C389 C 0.96294 0.54612 0.44231 0.0
C390 C 0.92033 0.55249 0.40068 0.0
C391 C 0.88983 0.63552 0.39683 0.0
H392 H 0.87626 0.61506 0.3073 0.0
C393 C 0.83154 0.72448 0.30919 0.0
C394 C 0.80743 0.71114 0.28697 0.0
C395 C 0.85047 0.70419 0.32807 0.0
C396 C 0.87954 0.62089 0.33232 0.0
H397 H 0.98455 0.59147 0.46297 0.0
H398 H 0.9513 0.62639 0.4297 0.0
H399 H 0.90934 0.57988 0.34056 0.0
H400 H 0.78439 0.66603 0.267 0.0
H401 H 0.81738 0.63062 0.30007 0.0
H402 H 0.86013 0.67661 0.38854 0.0
C403 C 0.94748 0.6002 0.4268 0.0
C404 C 0.89846 0.60075 0.35138 0.0
C405 C 0.96668 0.58019 0.44574 0.0
C406 C 0.80281 0.67708 0.28386 0.0
C407 C 0.82182 0.65678 0.30268 0.0
C408 C 0.87097 0.6557 0.37777 0.0
C409 C 0.92411 0.58658 0.40405 0.0
C410 C 0.90384 0.60786 0.38384 0.0
C411 C 0.84575 0.67013 0.32506 0.0
C412 C 0.86566 0.64862 0.3453 0.0
H413 H 0.93597 0.5063 0.41644 0.0
H414 H 0.90222 0.54124 0.38365 0.0
H415 H 0.89305 0.64137 0.42186 0.0
H416 H 0.83576 0.75064 0.31213 0.0
H417 H 0.86904 0.71518 0.34482 0.0
C418 C 0.57398 0.54922 0.52623 0.0
C419 C 0.54469 0.53229 0.5373 0.0
C420 C 0.59401 0.56974 0.54657 0.0
C421 C 0.59168 0.61573 0.62207 0.0
H422 H 0.68968 0.61594 0.61807 0.0
C423 C 0.68031 0.68285 0.71486 0.0
C424 C 0.70826 0.7014 0.70315 0.0
C425 C 0.66067 0.6617 0.69481 0.0
C426 C 0.66235 0.61634 0.61926 0.0
H427 H 0.51347 0.52359 0.57841 0.0
H428 H 0.54867 0.55906 0.61399 0.0
H429 H 0.65454 0.58013 0.58264 0.0
H430 H 0.73783 0.71193 0.66131 0.0
H431 H 0.70349 0.67499 0.62632 0.0
H432 H 0.59954 0.65186 0.6588 0.0
C433 C 0.55589 0.55684 0.58947 0.0
C434 C 0.64222 0.59589 0.59895 0.0
C435 C 0.53581 0.53637 0.56911 0.0
C436 C 0.71646 0.69799 0.67107 0.0
C437 C 0.69691 0.67671 0.65105 0.0
C438 C 0.61182 0.6361 0.64244 0.0
C439 C 0.58524 0.57372 0.57843 0.0
C440 C 0.60665 0.59538 0.60009 0.0
C441 C 0.66867 0.65853 0.66267 0.0
C442 C 0.64736 0.63664 0.64123 0.0
H443 H 0.58145 0.54671 0.50181 0.0
H444 H 0.61618 0.58276 0.53721 0.0
H445 H 0.56436 0.61631 0.6232 0.0
H446 H 0.67336 0.68487 0.73948 0.0
H447 H 0.63931 0.64768 0.70451 0.0
C448 C 0.2144 0.24674 0.40017 0.0
C449 C 0.24043 0.23021 0.38606 0.0
C450 C 0.21198 0.24817 0.43313 0.0
C451 C 0.26516 0.24496 0.50507 0.0
H452 H 0.17911 0.24082 0.54778 0.0
C453 C 0.25673 0.25675 0.64122 0.0
C454 C 0.2314 0.27608 0.65272 0.0
C455 C 0.25732 0.2483 0.60908 0.0
C456 C 0.20332 0.2423 0.53615 0.0
H457 H 0.28347 0.20103 0.39546 0.0
H458 H 0.2791 0.20343 0.45306 0.0
H459 H 0.18035 0.22976 0.49086 0.0
H460 H 0.18692 0.3018 0.63947 0.0
H461 H 0.18827 0.28749 0.58336 0.0
H462 H 0.28811 0.25812 0.55015 0.0
C463 C 0.26084 0.21561 0.43858 0.0
C464 C 0.20402 0.23589 0.50359 0.0
C465 C 0.2632 0.21408 0.40558 0.0
C466 C 0.20673 0.28681 0.6314 0.0
C467 C 0.20734 0.27839 0.59926 0.0
C468 C 0.26446 0.25143 0.53761 0.0
C469 C 0.23557 0.23316 0.4527 0.0
C470 C 0.23492 0.23748 0.48764 0.0
C471 C 0.23262 0.25901 0.58773 0.0
C472 C 0.23349 0.25053 0.55346 0.0
H473 H 0.19641 0.2594 0.38581 0.0
H474 H 0.1924 0.26213 0.44329 0.0
H475 H 0.28932 0.24688 0.49338 0.0
H476 H 0.27603 0.24796 0.65706 0.0
H477 H 0.27691 0.23305 0.60101 0.0
C478 C 0.99487 0.94434 0.83471 0.0
C479 C 0.01189 0.96703 0.85549 0.0
C480 C -0.00034 0.9461 0.80208 0.0
C481 C 0.026 0.00432 0.74026 0.0
H482 H 0.02396 0.92626 0.68765 0.0
C483 C 0.0343 0.00933 0.60372 0.0
C484 C 0.00914 0.98981 0.58729 0.0
C485 C 0.03974 0.00549 0.63631 0.0
C486 C 0.02455 0.94825 0.70207 0.0
H487 H 0.04807 0.00884 0.85842 0.0
H488 H 0.05682 0.01166 0.80137 0.0
H489 H 0.02486 0.92145 0.7453 0.0
H490 H 0.97066 0.9503 0.59195 0.0
H491 H 0.98022 0.94361 0.6487 0.0
H492 H 0.02528 0.03106 0.69696 0.0
C493 C 0.03931 0.99282 0.8103 0.0
C494 C 0.02497 0.94553 0.73506 0.0
C495 C 0.0344 0.99112 0.84299 0.0
C496 C 0.99017 0.96581 0.60393 0.0
C497 C 0.99581 0.96179 0.6364 0.0
C498 C 0.02579 0.00705 0.70727 0.0
C499 C 0.02173 0.97051 0.78944 0.0
C500 C 0.02495 0.9735 0.75454 0.0
C501 C 0.02037 0.98183 0.65299 0.0
C502 C 0.02435 0.97902 0.68786 0.0
H503 H 0.97731 0.92549 0.84355 0.0
H504 H 0.98529 0.92885 0.7867 0.0
H505 H 0.02555 0.02635 0.75451 0.0
H506 H 0.04938 0.028 0.59155 0.0
H507 H 0.05901 0.02111 0.64849 0.0
C508 C 0.28206 0.77527 0.89315 0.0
C509 C 0.25702 0.79462 0.88045 0.0
C510 C 0.28723 0.77338 0.92593 0.0
C511 C 0.24097 0.78188 -0.00035 0.0
H512 H 0.32932 0.77317 0.03949 0.0
C513 C 0.25831 0.76497 0.13472 0.0
C514 C 0.28079 0.74152 0.14438 0.0
C515 C 0.25658 0.77459 0.10307 0.0
C516 C 0.30446 0.77535 0.02865 0.0
H517 H 0.21904 0.82854 0.89215 0.0
H518 H 0.22833 0.82547 0.94941 0.0
H519 H 0.32525 0.78607 0.9832 0.0
H520 H 0.31904 0.70976 0.12835 0.0
H521 H 0.3157 0.72626 0.07308 0.0
H522 H 0.22012 0.7706 0.04489 0.0
C523 C 0.24355 0.81134 0.93399 0.0
C524 C 0.30214 0.7828 -0.00356 0.0
C525 C 0.23839 0.81325 0.90118 0.0
C526 C 0.30149 0.72792 0.12171 0.0
C527 C 0.29978 0.73756 0.09007 0.0
C528 C 0.24329 0.77445 0.03183 0.0
C529 C 0.26749 0.79081 0.94674 0.0
C530 C 0.27034 0.78576 0.98149 0.0
C531 C 0.27731 0.76101 0.08038 0.0
C532 C 0.27503 0.77069 0.04661 0.0
H533 H 0.2969 0.76063 0.87785 0.0
H534 H 0.30566 0.75712 0.93495 0.0
H535 H 0.21605 0.78345 0.98875 0.0
H536 H 0.24209 0.77602 0.15162 0.0
H537 H 0.23925 0.79294 0.09642 0.0
C538 C 0.46905 0.04621 0.32055 0.0
C539 C 0.45625 0.02322 0.34235 0.0
C540 C 0.46593 0.03998 0.28798 0.0
C541 C 0.4544 0.97131 0.23105 0.0
H542 H 0.44428 0.04053 0.17031 0.0
C543 C 0.45019 0.94808 0.0955 0.0
C544 C 0.4719 0.9692 0.07815 0.0
C545 C 0.44387 0.95481 0.12732 0.0
C546 C 0.44717 0.02099 0.18703 0.0
H547 H 0.42879 0.97628 0.34707 0.0
H548 H 0.42266 0.96571 0.29016 0.0
H549 H 0.43989 0.0522 0.22688 0.0
H550 H 0.50342 0.0143 0.08034 0.0
H551 H 0.49225 0.02605 0.13577 0.0
H552 H 0.46184 0.94019 0.19112 0.0
C553 C 0.43583 0.98823 0.29825 0.0
C554 C 0.44475 0.02766 0.21942 0.0
C555 C 0.43917 0.99437 0.33087 0.0
C556 C 0.48663 -0.00251 0.09307 0.0
C557 C 0.48005 0.00436 0.12475 0.0
C558 C 0.45654 0.96461 0.19865 0.0
C559 C 0.44969 0.01071 0.27642 0.0
C560 C 0.44896 0.00303 0.24187 0.0
C561 C 0.45884 0.98297 0.14227 0.0
C562 C 0.45354 0.9895 0.17637 0.0
H563 H 0.48242 0.06865 0.3286 0.0
H564 H 0.47734 0.05765 0.27194 0.0
H565 H 0.4583 0.95186 0.24764 0.0
H566 H 0.43843 0.9261 0.08467 0.0
H567 H 0.42724 0.93802 0.14023 0.0
C568 C 0.36547 0.2917 0.24882 0.0
C569 C 0.34421 0.26994 0.26593 0.0
C570 C 0.4005 0.28848 0.24886 0.0
C571 C 0.46608 0.22989 0.26549 0.0
H572 H 0.52566 0.30775 0.277 0.0
C573 C 0.60767 0.22505 0.29997 0.0
C574 C 0.63078 0.24707 0.28527 0.0
C575 C 0.57277 0.22749 0.29553 0.0
C576 C 0.5094 0.28582 0.27335 0.0
H577 H 0.34304 0.22746 0.29619 0.0
H578 H 0.40404 0.22206 0.29646 0.0
H579 H 0.46454 0.31254 0.27257 0.0
H580 H 0.63539 0.28878 0.25415 0.0
H581 H 0.57446 0.29291 0.24628 0.0
H582 H 0.51093 0.20314 0.26664 0.0
C583 C 0.39364 0.24138 0.2827 0.0
C584 C 0.47437 0.28856 0.27078 0.0
C585 C 0.35867 0.24461 0.28269 0.0
C586 C 0.61825 0.27148 0.26588 0.0
C587 C 0.58335 0.27396 0.2615 0.0
C588 C 0.50109 0.22714 0.26807 0.0
C589 C 0.41499 0.26339 0.26596 0.0
C590 C 0.45229 0.2606 0.26709 0.0
C591 C 0.56022 0.25204 0.27634 0.0
C592 C 0.52312 0.25505 0.2723 0.0
H593 H 0.35512 0.31142 0.23559 0.0
H594 H 0.41623 0.30559 0.23542 0.0
H595 H 0.44978 0.20793 0.26214 0.0
H596 H 0.61647 0.206 0.3151 0.0
H597 H 0.55562 0.2105 0.30763 0.0
C598 C 0.0167 0.34587 0.43779 0.0
C599 C -9e-05 0.36612 0.45854 0.0
C600 C 0.01081 0.31202 0.43874 0.0
C601 C 0.95086 0.24678 0.46767 0.0
H602 H 0.02947 0.19457 0.46745 0.0
C603 C 0.9456 0.11417 0.51046 0.0
C604 C 0.96308 0.09143 0.49307 0.0
C605 C 0.9494 0.14735 0.5037 0.0
C606 C 0.00721 0.20875 0.4671 0.0
H607 H 0.9631 0.36675 0.49598 0.0
H608 H 0.95309 0.30785 0.49778 0.0
H609 H 0.03667 0.25322 0.45929 0.0
H610 H -0.00167 0.08569 0.45495 0.0
H611 H 0.00484 0.14372 0.44308 0.0
H612 H 0.92148 0.20238 0.476 0.0
C613 C 0.97054 0.31808 0.48055 0.0
C614 C 0.01132 0.24234 0.46238 0.0
C615 C 0.97644 0.35187 0.47963 0.0
C616 C 0.98455 0.1026 0.46883 0.0
C617 C 0.9884 0.13584 0.4621 0.0
C618 C 0.94676 0.21321 0.47241 0.0
C619 C 0.98795 0.29774 0.46039 0.0
C620 C 0.98324 0.26178 0.46301 0.0
C621 C 0.97078 0.15855 0.47942 0.0
C622 C 0.97494 0.19389 0.47258 0.0
H623 H 0.03485 0.3561 0.42119 0.0
H624 H 0.02429 0.297 0.42263 0.0
H625 H 0.92865 0.26102 0.46776 0.0
H626 H 0.92894 0.1064 0.52935 0.0
H627 H 0.9359 0.16429 0.5178 0.0
C628 C 0.87432 0.81374 0.77954 0.0
C629 C 0.85361 0.78516 0.77403 0.0
C630 C 0.90936 0.81374 0.77579 0.0
C631 C 0.97625 0.76729 0.73919 0.0
H632 H 0.03462 0.81305 0.80222 0.0
C633 C 0.12231 0.77772 0.72952 0.0
C634 C 0.14108 0.77334 0.75769 0.0
C635 C 0.08727 0.78071 0.73029 0.0
C636 C 0.01867 0.80001 0.78451 0.0
H637 H 0.85339 0.73422 0.76001 0.0
H638 H 0.91458 0.73407 0.75402 0.0
H639 H 0.97334 0.81478 0.80577 0.0
H640 H 0.13778 0.76865 0.80879 0.0
H641 H 0.07677 0.77339 0.81005 0.0
H642 H 0.02163 0.75166 0.71855 0.0
C643 C 0.9037 0.75664 0.76073 0.0
C644 C 0.98354 0.80133 0.78631 0.0
C645 C 0.86864 0.75667 0.76436 0.0
C646 C 0.12411 0.77209 0.78664 0.0
C647 C 0.08913 0.77504 0.7874 0.0
C648 C 0.01141 0.76593 0.73741 0.0
C649 C 0.92449 0.78514 0.76656 0.0
C650 C 0.96189 0.78478 0.76382 0.0
C651 C 0.07029 0.77938 0.75926 0.0
C652 C 0.03301 0.78203 0.76023 0.0
H653 H 0.86351 0.83617 0.78681 0.0
H654 H 0.92457 0.83623 0.78001 0.0
H655 H 0.96031 0.75461 0.72125 0.0
H656 H 0.13465 0.7789 0.70684 0.0
H657 H 0.07353 0.78438 0.70823 0.0
C658 C 0.46228 0.60744 0.94885 0.0
C659 C 0.48125 0.58936 0.97022 0.0
C660 C 0.46821 0.64125 0.94697 0.0
C661 C 0.53125 0.70881 0.96771 0.0
H662 H 0.453 0.76147 0.96825 0.0
C663 C 0.54111 0.84473 0.00254 0.0
C664 C 0.52117 0.86605 0.9855 0.0
C665 C 0.53703 0.81112 -0.00266 0.0
C666 C 0.47512 0.74714 0.96759 0.0
H667 H 0.52187 0.59249 0.00584 0.0
H668 H 0.53198 0.6513 0.00271 0.0
H669 H 0.44477 0.70228 0.96446 0.0
H670 H 0.4815 0.86882 0.94938 0.0
H671 H 0.47451 0.81005 0.94018 0.0
H672 H 0.5616 0.75363 0.97139 0.0
C673 C 0.51276 0.63939 0.98718 0.0
C674 C 0.4704 0.71322 0.9654 0.0
C675 C 0.50679 0.60567 0.98911 0.0
C676 C 0.4972 0.85303 0.96297 0.0
C677 C 0.49308 0.81937 0.95779 0.0
C678 C 0.53597 0.7427 0.96989 0.0
C679 C 0.49332 0.65761 0.96633 0.0
C680 C 0.49841 0.69367 0.96592 0.0
C681 C 0.51291 0.79804 0.97498 0.0
C682 C 0.50795 0.76222 0.97034 0.0
H683 H 0.44249 0.59559 0.9339 0.0
H684 H 0.45307 0.65461 0.93044 0.0
H685 H 0.55335 0.69442 0.96763 0.0
H686 H 0.55977 0.85394 0.02012 0.0
H687 H 0.55234 0.79532 0.01132 0.0
C688 C 0.63864 0.81692 0.28853 0.0
C689 C 0.65946 0.79304 0.27714 0.0
C690 C 0.60395 0.80972 0.29222 0.0
C691 C 0.53893 0.7418 0.29847 0.0
H692 H 0.47872 0.80279 0.26117 0.0
C693 C 0.39959 0.70623 0.26481 0.0
C694 C 0.37543 0.72971 0.26799 0.0
C695 C 0.43396 0.71453 0.2706 0.0
C696 C 0.49507 0.78576 0.27226 0.0
H697 H 0.66043 0.74256 0.26172 0.0
H698 H 0.59995 0.73008 0.2681 0.0
H699 H 0.53955 0.81632 0.2635 0.0
H700 H 0.36821 0.78003 0.28086 0.0
H701 H 0.42818 0.79438 0.29148 0.0
H702 H 0.49449 0.71104 0.30688 0.0
C703 C 0.61046 0.75431 0.27434 0.0
C704 C 0.52996 0.79352 0.27355 0.0
C705 C 0.64508 0.76154 0.27048 0.0
C706 C 0.38624 0.76144 0.27795 0.0
C707 C 0.42063 0.7697 0.2839 0.0
C708 C 0.504 0.7341 0.29733 0.0
C709 C 0.58945 0.77845 0.2848 0.0
C710 C 0.55229 0.7714 0.28619 0.0
C711 C 0.44494 0.74646 0.27987 0.0
C712 C 0.48172 0.75576 0.28372 0.0
H713 H 0.64896 0.84139 0.29398 0.0
H714 H 0.58839 0.8287 0.30064 0.0
H715 H 0.55553 0.72448 0.30875 0.0
H716 H 0.39211 0.68158 0.25711 0.0
H717 H 0.45202 0.69614 0.26681 0.0
C718 C 0.49613 0.11851 0.51584 0.0
C719 C 0.47818 0.10493 0.48926 0.0
C720 C 0.49586 0.15189 0.52252 0.0
C721 C 0.44934 0.22533 0.50464 0.0
H722 H 0.53598 0.27208 0.52228 0.0
C723 C 0.46038 0.36512 0.51832 0.0
C724 C 0.48618 0.38075 0.50058 0.0
C725 C 0.45974 0.33148 0.52307 0.0
C726 C 0.51159 0.25934 0.51746 0.0
H727 H 0.44526 0.11557 0.44928 0.0
H728 H 0.44497 0.17364 0.46082 0.0
H729 H 0.53288 0.21267 0.51858 0.0
H730 H 0.53228 0.37355 0.47502 0.0
H731 H 0.53094 0.31497 0.48304 0.0
H732 H 0.42827 0.27198 0.50211 0.0
C733 C 0.45898 0.15852 0.47669 0.0
C734 C 0.50975 0.22532 0.51566 0.0
C735 C 0.45936 0.12525 0.46994 0.0
C736 C 0.51201 0.36226 0.48875 0.0
C737 C 0.51138 0.32868 0.49355 0.0
C738 C 0.45116 0.25932 0.5065 0.0
C739 C 0.47747 0.17227 0.50287 0.0
C740 C 0.47873 0.208 0.5085 0.0
C741 C 0.48492 0.31282 0.51027 0.0
C742 C 0.48244 0.27673 0.51223 0.0
H743 H 0.51081 0.10348 0.53123 0.0
H744 H 0.51012 0.16177 0.54301 0.0
H745 H 0.425 0.21262 0.49949 0.0
H746 H 0.44021 0.3787 0.52791 0.0
H747 H 0.43924 0.31999 0.53639 0.0
C748 C 0.13406 0.24828 0.77698 0.0
C749 C 0.14846 0.27792 0.78945 0.0
C750 C 0.09951 0.24004 0.78007 0.0
C751 C 0.01925 0.27824 0.78778 0.0
H752 H 0.9834 0.19029 0.80435 0.0
C753 C 0.8756 0.24583 0.78447 0.0
C754 C 0.86495 0.21668 0.76857 0.0
C755 C 0.9098 0.25258 0.7925 0.0
C756 C 0.99301 0.21493 0.7995 0.0
H757 H 0.13814 0.32165 0.81589 0.0
H758 H 0.07766 0.30726 0.82112 0.0
H759 H 0.04444 0.20334 0.80874 0.0
H760 H 0.88166 0.17133 0.74937 0.0
H761 H 0.94136 0.18341 0.76263 0.0
H762 H 0.9682 0.28969 0.77735 0.0
C763 C 0.09315 0.29054 0.80882 0.0
C764 C 0.02794 0.22239 0.80211 0.0
C765 C 0.12779 0.29869 0.80593 0.0
C766 C 0.88904 0.194 0.76167 0.0
C767 C 0.92328 0.20085 0.76947 0.0
C768 C 0.98439 0.27075 0.78496 0.0
C769 C 0.0786 0.26134 0.79553 0.0
C770 C 0.04143 0.25402 0.79583 0.0
C771 C 0.93414 0.23043 0.78458 0.0
C772 C 0.97088 0.23889 0.79033 0.0
H773 H 0.14931 0.23168 0.76424 0.0
H774 H 0.08895 0.21753 0.76931 0.0
H775 H 0.02895 0.30272 0.78235 0.0
H776 H 0.85759 0.26368 0.7904 0.0
H777 H 0.91721 0.27532 0.80463 0.0
C778 C 0.96758 0.8648 -0.0008 0.0
C779 C 0.99351 0.88432 0.98527 0.0
C780 C 0.96901 0.83091 -0.00034 0.0
C781 C 0.02687 0.76404 0.98944 0.0
H782 H 0.94471 0.71371 0.96311 0.0
C783 C 0.02768 0.63084 0.94628 0.0
C784 C 0.00142 0.60887 0.95601 0.0
C785 C 0.02665 0.66414 0.95275 0.0
C786 C 0.96774 0.72735 0.97094 0.0
H787 H 0.0419 0.88365 0.96195 0.0
H788 H 0.04424 0.82464 0.96254 0.0
H789 H 0.94348 0.7725 0.97054 0.0
H790 H 0.95348 0.60461 0.98021 0.0
H791 H 0.95177 0.66281 0.9916 0.0
H792 H 0.05125 0.71891 0.98931 0.0
C793 C 0.02293 0.83548 0.97335 0.0
C794 C 0.96703 0.76103 0.97525 0.0
C795 C 0.02149 0.86933 0.97287 0.0
C796 C 0.97406 0.62092 0.9723 0.0
C797 C 0.97301 0.65426 0.97874 0.0
C798 C 0.02758 0.73036 0.98512 0.0
C799 C -0.00356 0.81586 0.98626 0.0
C800 C -0.00332 0.77981 0.98417 0.0
C801 C -0.00067 0.67622 0.96907 0.0
C802 C -0.00188 0.7117 0.97543 0.0
H803 H 0.94574 0.8756 0.0091 0.0
H804 H 0.94845 0.81646 0.01018 0.0
H805 H 0.05001 0.77777 -0.00321 0.0
H806 H 0.04909 0.62237 0.93362 0.0
H807 H 0.04705 0.68049 0.94454 0.0
C808 C 0.21201 0.37137 0.26867 0.0
C809 C 0.23234 0.36247 0.29458 0.0
C810 C 0.20676 0.40415 0.26297 0.0
C811 C 0.21416 0.48628 0.30073 0.0
H812 H 0.22212 0.51631 0.21414 0.0
C813 C 0.24574 0.62016 0.26967 0.0
C814 C 0.22931 0.63337 0.24328 0.0
C815 C 0.24101 0.58708 0.27643 0.0
C816 C 0.21925 0.50824 0.23836 0.0
H817 H 0.26269 0.38096 0.33508 0.0
H818 H 0.25404 0.43805 0.32484 0.0
H819 H 0.22328 0.45828 0.22515 0.0
H820 H 0.19455 0.62229 0.20358 0.0
H821 H 0.1864 0.56422 0.2154 0.0
H822 H 0.21115 0.53642 0.31399 0.0
C823 C 0.24168 0.41973 0.30919 0.0
C824 C 0.21991 0.47498 0.24469 0.0
C825 C 0.24685 0.38698 0.31493 0.0
C826 C 0.20763 0.61283 0.22404 0.0
C827 C 0.20305 0.57959 0.23072 0.0
C828 C 0.21363 0.51953 0.29441 0.0
C829 C 0.22178 0.42872 0.28301 0.0
C830 C 0.21798 0.46368 0.27602 0.0
C831 C 0.21985 0.56638 0.25691 0.0
C832 C 0.21679 0.53091 0.26322 0.0
H833 H 0.2003 0.35304 0.25264 0.0
H834 H 0.19095 0.41024 0.24283 0.0
H835 H 0.21194 0.47831 0.32505 0.0
H836 H 0.26258 0.63531 0.28503 0.0
H837 H 0.25468 0.57756 0.29651 0.0
C838 C 0.71657 0.11666 0.75292 0.0
C839 C 0.73282 0.12642 0.72495 0.0
C840 C 0.70765 0.0838 0.75815 0.0
C841 C 0.69716 0.00256 0.71837 0.0
H842 H 0.71791 0.97108 0.80259 0.0
C843 C 0.71895 0.86827 0.74596 0.0
C844 C 0.70693 0.85537 0.77463 0.0
C845 C 0.71586 0.9011 0.73898 0.0
C846 C 0.7114 0.97954 0.7791 0.0
H847 H 0.75163 0.10948 0.68015 0.0
H848 H 0.7368 0.05206 0.68958 0.0
H849 H 0.72432 0.02915 0.79205 0.0
H850 H 0.68098 0.8665 0.81789 0.0
H851 H 0.67572 0.92397 0.80568 0.0
H852 H 0.68541 0.95258 0.70529 0.0
C853 C 0.73038 0.06983 0.70726 0.0
C854 C 0.71505 0.01286 0.77304 0.0
C855 C 0.7391 0.10274 0.70193 0.0
C856 C 0.69063 0.87572 0.79565 0.0
C857 C 0.68774 0.90865 0.78875 0.0
C858 C 0.69368 0.96917 0.72442 0.0
C859 C 0.71499 0.05993 0.73564 0.0
C860 C 0.70842 0.02475 0.7425 0.0
C861 C 0.70085 0.92178 0.76059 0.0
C862 C 0.70122 0.9573 0.75475 0.0
H863 H 0.71105 0.13436 0.771 0.0
H864 H 0.69527 0.07709 0.78 0.0
H865 H 0.69129 0.01097 0.69473 0.0
H866 H 0.73153 0.8532 0.7292 0.0
H867 H 0.7265 0.91058 0.71724 0.0
C868 C 0.34787 0.5059 0.02811 0.0
C869 C 0.37066 0.48925 0.00973 0.0
C870 C 0.31293 0.50079 0.02287 0.0
C871 C 0.24991 0.47284 0.9615 0.0
H872 H 0.18829 0.46945 0.03189 0.0
C873 C 0.10516 0.45125 0.94258 0.0
C874 C 0.08527 0.4722 0.95972 0.0
C875 C 0.13976 0.4499 0.94973 0.0
C876 C 0.20519 0.47051 0.012 0.0
H877 H 0.37463 0.45378 0.97173 0.0
H878 H 0.31362 0.44469 0.96277 0.0
H879 H 0.24939 0.47358 0.04239 0.0
H880 H 0.08591 0.50755 -0.00165 0.0
H881 H 0.14617 0.50531 0.01065 0.0
H882 H 0.20572 0.47022 0.93111 0.0
C883 C 0.3228 0.462 0.98098 0.0
C884 C 0.24015 0.47292 0.018 0.0
C885 C 0.35775 0.4671 0.98623 0.0
C886 C 0.1005 0.49113 0.98468 0.0
C887 C 0.13502 0.48971 0.99187 0.0
C888 C 0.21494 0.4704 0.9555 0.0
C889 C 0.3 0.47892 -0.00087 0.0
C890 C 0.2629 0.47449 0.99281 0.0
C891 C 0.15512 0.46937 0.97425 0.0
C892 C 0.1922 0.4696 0.98068 0.0
H893 H 0.35699 0.52318 0.04636 0.0
H894 H 0.29605 0.51455 0.03697 0.0
H895 H 0.26674 0.47444 0.94157 0.0
H896 H 0.09416 0.43628 0.92326 0.0
H897 H 0.15453 0.43371 0.93598 0.0
C898 C 0.77264 0.15339 0.25942 0.0
C899 C 0.76438 0.16239 0.29042 0.0
C900 C 0.77999 0.12132 0.25236 0.0
C901 C 0.80294 0.04384 0.28962 0.0
H902 H 0.76377 0.00494 0.21202 0.0
C903 C 0.78501 0.90511 0.26811 0.0
C904 C 0.7908 0.89289 0.23757 0.0
C905 C 0.78657 0.93865 0.27401 0.0
C906 C 0.77534 0.01557 0.23354 0.0
H907 H 0.75772 0.14487 0.33838 0.0
H908 H 0.7698 0.08885 0.32595 0.0
H909 H 0.7572 0.06239 0.22333 0.0
H910 H 0.80386 0.90632 0.18953 0.0
H911 H 0.80653 0.96499 0.1999 0.0
H912 H 0.8202 -0.00338 0.30016 0.0
C913 C 0.77125 0.10666 0.30719 0.0
C914 C 0.77161 0.04853 0.24003 0.0
C915 C 0.76407 0.13876 0.31428 0.0
C916 C 0.79916 0.91494 0.21329 0.0
C917 C 0.80053 0.94853 0.21917 0.0
C918 C 0.80652 0.01082 0.28319 0.0
C919 C 0.77908 0.09749 0.2761 0.0
C920 C 0.78501 0.06298 0.26832 0.0
C921 C 0.7938 0.96072 0.24949 0.0
C922 C 0.79243 -0.00373 0.25524 0.0
H923 H 0.77334 0.17109 0.24054 0.0
H924 H 0.78641 0.1152 0.22828 0.0
H925 H 0.8141 0.05433 0.31136 0.0
H926 H 0.77854 0.88879 0.28736 0.0
H927 H 0.78092 0.9473 0.29755 0.0
C928 C 0.88218 0.02228 0.921 0.0
C929 C 0.90377 0.01213 0.94545 0.0
C930 C 0.84755 0.02451 0.92612 0.0
C931 C 0.78469 0.03075 0.98891 0.0
H932 H 0.72216 0.98765 0.92761 0.0
C933 C 0.64609 0.99413 0.01816 0.0
C934 C 0.62111 0.9954 0.99405 0.0
C935 C 0.6803 0.0004 0.01145 0.0
C936 C 0.73915 0.00035 0.9447 0.0
H937 H 0.90617 -0.00271 0.99467 0.0
H938 H 0.84586 0.00133 0.00357 0.0
H939 H 0.78262 0.9917 0.91711 0.0
H940 H 0.61232 0.00538 0.9442 0.0
H941 H 0.67195 0.01696 0.93263 0.0
H942 H 0.74133 0.03925 0.01663 0.0
C943 C 0.8557 0.00764 0.9805 0.0
C944 C 0.77383 0.00261 0.93868 0.0
C945 C 0.89021 0.00511 0.97532 0.0
C946 C 0.63099 0.00393 0.96326 0.0
C947 C 0.66519 0.01041 0.95659 0.0
C948 C 0.75 0.0287 0.99485 0.0
C949 C 0.83395 0.01699 0.95587 0.0
C950 C 0.79699 0.01734 0.96096 0.0
C951 C 0.6903 0.00833 0.98052 0.0
C952 C 0.72686 0.01297 0.97307 0.0
H953 H 0.89188 0.02787 0.89773 0.0
H954 H 0.83137 0.03201 0.90679 0.0
H955 H 0.80196 0.04264 0.0063 0.0
H956 H 0.63933 0.98755 0.04211 0.0
H957 H 0.69896 -0.00191 0.03036 0.0
C958 C 0.23923 0.63595 0.81132 0.0
C959 C 0.25096 0.65972 0.7898 0.0
C960 C 0.24555 0.60322 0.80654 0.0
C961 C 0.26612 0.5447 0.74421 0.0
H962 H 0.28799 0.49055 0.81576 0.0
C963 C 0.29419 0.40919 0.72869 0.0
C964 C 0.27761 0.38761 0.74974 0.0
C965 C 0.29466 0.44287 0.73393 0.0
C966 C 0.28174 0.50534 0.79557 0.0
H967 H 0.27881 0.66782 0.74651 0.0
H968 H 0.29007 0.61067 0.73833 0.0
H969 H 0.28159 0.54866 0.8241 0.0
H970 H 0.24923 0.38442 0.79322 0.0
H971 H 0.24992 0.443 0.80221 0.0
H972 H 0.26585 0.50129 0.71575 0.0
C973 C 0.27564 0.61731 0.7587 0.0
C974 C 0.27802 0.5386 0.80035 0.0
C975 C 0.2693 0.65007 0.76347 0.0
C976 C 0.26224 0.40036 0.77653 0.0
C977 C 0.26281 0.43396 0.78181 0.0
C978 C 0.26988 0.51144 0.73943 0.0
C979 C 0.26379 0.59351 0.78016 0.0
C980 C 0.26973 0.55857 0.77479 0.0
C981 C 0.2787 0.45561 0.7604 0.0
C982 C 0.2773 0.49132 0.76512 0.0
H983 H 0.22496 0.64256 0.83181 0.0
H984 H 0.23562 0.58543 0.82326 0.0
H985 H 0.25932 0.55933 0.72408 0.0
H986 H 0.30636 0.40015 0.70787 0.0
H987 H 0.30743 0.45895 0.71721 0.0
C988 C 0.13946 0.51322 0.50036 0.0
C989 C 0.11507 0.49506 0.48169 0.0
C990 C 0.17376 0.51381 0.49276 0.0
C991 C 0.23419 0.46548 0.45023 0.0
H992 H 0.29433 0.54309 0.46077 0.0
C993 C 0.37488 0.46566 0.41809 0.0
C994 C 0.39817 0.48029 0.44036 0.0
C995 C 0.34023 0.46997 0.42045 0.0
C996 C 0.27786 0.52118 0.4579 0.0
H997 H 0.10741 0.46423 0.43975 0.0
H998 H 0.16708 0.46563 0.42633 0.0
H999 H 0.23371 0.54619 0.4697 0.0
H1000 H 0.40344 0.51165 0.48209 0.0
H1001 H 0.3429 0.51886 0.4864 0.0
H1002 H 0.27823 0.44034 0.43884 0.0
C1003 C 0.15982 0.47891 0.44717 0.0
C1004 C 0.24317 0.52295 0.46303 0.0
C1005 C 0.12559 0.47824 0.4548 0.0
C1006 C 0.38616 0.50004 0.46454 0.0
C1007 C 0.35147 0.50434 0.46691 0.0
C1008 C 0.2688 0.46372 0.44508 0.0
C1009 C 0.18437 0.49632 0.46631 0.0
C1010 C 0.22098 0.49504 0.45947 0.0
C1011 C 0.32809 0.48897 0.44515 0.0
C1012 C 0.29108 0.49148 0.44908 0.0
H1013 H 0.1322 0.52644 0.52123 0.0
H1014 H 0.19206 0.52719 0.50818 0.0
H1015 H 0.21792 0.44339 0.44782 0.0
H1016 H 0.38332 0.45048 0.39903 0.0
H1017 H 0.3229 0.45822 0.40302 0.0
C1018 C 0.72782 0.75189 0.8919 0.0
C1019 C 0.75417 0.73596 0.87764 0.0
C1020 C 0.72538 0.75297 0.92487 0.0
C1021 C 0.77805 0.74954 -0.00283 0.0
H1022 H 0.69154 0.74213 0.03899 0.0
C1023 C 0.76815 0.75918 0.13332 0.0
C1024 C 0.74222 0.77779 0.14478 0.0
C1025 C 0.7691 0.75087 0.10115 0.0
C1026 C 0.71587 0.74451 0.02763 0.0
H1027 H 0.79801 0.70777 0.88679 0.0
H1028 H 0.79365 0.70962 0.94442 0.0
H1029 H 0.6937 0.73249 0.9819 0.0
H1030 H 0.69689 0.80217 0.13146 0.0
H1031 H 0.69886 0.78815 0.07534 0.0
H1032 H 0.80018 0.76223 0.04269 0.0
C1033 C 0.7751 0.72155 0.93005 0.0
C1034 C 0.7171 0.73892 0.99496 0.0
C1035 C 0.77748 0.72034 0.89704 0.0
C1036 C 0.71717 0.78775 0.12342 0.0
C1037 C 0.71816 0.7795 0.09127 0.0
C1038 C 0.77682 0.7552 0.02982 0.0
C1039 C 0.74928 0.73824 0.94431 0.0
C1040 C 0.74816 0.74174 0.97932 0.0
C1041 C 0.74417 0.76102 0.07974 0.0
C1042 C 0.74567 0.75313 0.04537 0.0
H1043 H 0.70943 0.76415 0.87765 0.0
H1044 H 0.7054 0.76632 0.93514 0.0
H1045 H 0.80232 0.75236 0.98573 0.0
H1046 H 0.78774 0.75097 0.14919 0.0
H1047 H 0.78924 0.73628 0.0931 0.0
C1048 C 0.52124 0.43021 0.34151 0.0
C1049 C 0.53038 0.45562 0.36311 0.0
C1050 C 0.52643 0.43426 0.30911 0.0
C1051 C 0.53705 0.49967 0.25008 0.0
H1052 H 0.55363 0.42749 0.19371 0.0
C1053 C 0.54537 0.51473 0.11457 0.0
C1054 C 0.52398 0.49241 0.09694 0.0
C1055 C 0.55172 0.50978 0.14684 0.0
C1056 C 0.54904 0.44785 0.20923 0.0
H1057 H 0.55388 0.5045 0.36798 0.0
H1058 H 0.56395 0.51123 0.31154 0.0
H1059 H 0.55605 0.41975 0.25105 0.0
H1060 H 0.49348 0.44681 0.09896 0.0
H1061 H 0.50481 0.4381 0.15526 0.0
H1062 H 0.52997 0.52767 0.20818 0.0
C1063 C 0.5518 0.48852 0.31946 0.0
C1064 C 0.55028 0.44343 0.24204 0.0
C1065 C 0.54621 0.48461 0.35184 0.0
C1066 C 0.50994 0.46453 0.11196 0.0
C1067 C 0.51662 0.4594 0.14411 0.0
C1068 C 0.53622 0.50416 0.21733 0.0
C1069 C 0.54127 0.46367 0.2976 0.0
C1070 C 0.5436 0.46911 0.26288 0.0
C1071 C 0.53715 0.48221 0.16195 0.0
C1072 C 0.54156 0.47815 0.19659 0.0
H1073 H 0.50889 0.40759 0.34945 0.0
H1074 H 0.51753 0.41474 0.29302 0.0
H1075 H 0.53118 0.51986 0.26528 0.0
H1076 H 0.55661 0.53641 0.10364 0.0
H1077 H 0.5678 0.52762 0.16006 0.0
C1078 C 0.71783 0.30972 0.40137 0.0
C1079 C 0.74083 0.29553 0.38122 0.0
C1080 C 0.7235 0.31023 0.43421 0.0
C1081 C 0.78872 0.30052 0.49716 0.0
H1082 H 0.71249 0.26795 0.54649 0.0
C1083 C 0.80471 0.25014 0.62333 0.0
C1084 C 0.77947 0.25535 0.64546 0.0
C1085 C 0.80065 0.25976 0.59186 0.0
C1086 C 0.73391 0.27768 0.53324 0.0
H1087 H 0.78858 0.2721 0.37961 0.0
H1088 H 0.79839 0.273 0.43682 0.0
H1089 H 0.70449 0.27756 0.49006 0.0
H1090 H 0.73069 0.27573 0.6522 0.0
H1091 H 0.7239 0.29301 0.59744 0.0
H1092 H 0.81827 0.30024 0.5403 0.0
C1093 C 0.77606 0.28383 0.42727 0.0
C1094 C 0.7293 0.28317 0.50086 0.0
C1095 C 0.77031 0.28313 0.39448 0.0
C1096 C 0.75048 0.2711 0.63565 0.0
C1097 C 0.74651 0.28089 0.60423 0.0
C1098 C 0.79331 0.29519 0.52962 0.0
C1099 C 0.75238 0.29679 0.44751 0.0
C1100 C 0.75676 0.29415 0.48239 0.0
C1101 C 0.77136 0.27497 0.58186 0.0
C1102 C 0.76607 0.2832 0.54794 0.0
H1103 H 0.69493 0.31957 0.39189 0.0
H1104 H 0.70501 0.3207 0.44925 0.0
H1105 H 0.81025 0.30937 0.48356 0.0
H1106 H 0.82732 0.23801 0.63011 0.0
H1107 H 0.82007 0.25439 0.57518 0.0
C1108 C 0.9873 0.49154 0.59645 0.0
C1109 C 0.0061 0.4652 0.58716 0.0
C1110 C 0.98006 0.49649 0.62837 0.0
C1111 C 0.97447 0.45358 0.70483 0.0
H1112 H 0.98265 0.5408 0.74119 0.0
C1113 C 0.97874 0.47841 0.83957 0.0
C1114 C 0.9621 0.50523 0.85117 0.0
C1115 C 0.98103 0.473 0.80699 0.0
C1116 C 0.97975 0.51635 0.73129 0.0
H1117 H 0.03237 0.42365 0.60414 0.0
H1118 H 0.02009 0.43253 0.6598 0.0
H1119 H 0.99331 0.53277 0.685 0.0
H1120 H 0.93398 0.54688 0.83762 0.0
H1121 H 0.93782 0.53725 0.78063 0.0
H1122 H 0.9613 0.43712 0.75121 0.0
C1123 C 0.01048 0.44905 0.64237 0.0
C1124 C 0.9859 0.51175 0.6991 0.0
C1125 C 0.01773 0.4441 0.61048 0.0
C1126 C 0.94707 0.52605 0.82946 0.0
C1127 C 0.94944 0.52066 0.79681 0.0
C1128 C 0.96834 0.45818 0.73701 0.0
C1129 C 0.99144 0.47521 0.65167 0.0
C1130 C 0.98366 0.48027 0.68558 0.0
C1131 C 0.96678 0.49428 0.78523 0.0
C1132 C 0.97122 0.48958 0.75066 0.0
H1133 H 0.9779 0.5082 0.57905 0.0
H1134 H 0.96507 0.51669 0.63473 0.0
H1135 H 0.97191 0.42909 0.695 0.0
H1136 H 0.99063 0.4619 0.85565 0.0
H1137 H 0.9949 0.45266 0.79884 0.0
C1138 C 0.83303 0.97678 0.52281 0.0
C1139 C 0.85679 0.97249 0.49905 0.0
C1140 C 0.79853 0.97731 0.51506 0.0
C1141 C 0.74176 0.99435 0.44768 0.0
H1142 H 0.67181 0.96131 0.50404 0.0
C1143 C 0.58593 0.9807 0.45514 0.0
C1144 C 0.57834 0.01195 0.44492 0.0
C1145 C 0.61958 0.9729 0.46003 0.0
C1146 C 0.69097 0.97032 0.48782 0.0
H1147 H 0.86282 0.96377 0.44871 0.0
H1148 H 0.80251 0.96408 0.43528 0.0
H1149 H 0.73087 0.95086 0.51556 0.0
H1150 H 0.60012 0.05947 0.43169 0.0
H1151 H 0.65868 0.04607 0.44073 0.0
H1152 H 0.70188 0.01353 0.41976 0.0
C1153 C 0.81063 0.96777 0.45982 0.0
C1154 C 0.72487 0.96466 0.49463 0.0
C1155 C 0.84517 0.96739 0.46755 0.0
C1156 C 0.60509 0.03514 0.43947 0.0
C1157 C 0.63871 0.02737 0.44445 0.0
C1158 C 0.70787 -8e-05 0.44082 0.0
C1159 C 0.78697 0.97337 0.4834 0.0
C1160 C 0.75071 0.97699 0.47487 0.0
C1161 C 0.64636 -0.00381 0.45488 0.0
C1162 C 0.68213 0.98839 0.46105 0.0
H1163 H 0.84113 0.98082 0.54731 0.0
H1164 H 0.78108 0.98206 0.53377 0.0
H1165 H 0.76101 0.00452 0.43212 0.0
H1166 H 0.56589 0.96223 0.45942 0.0
H1167 H 0.62462 0.94854 0.46769 0.0
loop_
_geom_bond_atom_site_label_1
_geom_bond_atom_site_label_2
_geom_bond_distance
_geom_bond_site_symmetry_2
_ccdc_geom_bond_type
C0 O1 1.160 . S
C0 O7 1.185 . S
O1 C0 1.160 . S
O2 Zn3 1.899 . S
O2 C10 1.284 . S
Zn3 O2 1.899 . S
Zn3 O4 2.032 . S
Zn3 O7 2.086 . S
Zn3 O12 1.977 . S
O4 Zn3 2.032 . S
O4 C8 1.278 . S
C5 O6 1.203 . S
C5 O12 1.267 . S
O6 C5 1.203 . S
O7 C0 1.185 . S
O7 Zn3 2.086 . S
C8 O4 1.278 . S
C8 O9 1.211 . S
O9 C8 1.211 . S
C10 O2 1.284 . S
C10 O11 1.273 . S
O11 C10 1.273 . S
O12 Zn3 1.977 . S
O12 C5 1.267 . S
C13 O14 1.160 1_455 S
C13 O20 1.185 . S
O14 C13 1.160 1_655 S
O15 Zn16 1.899 . S
O15 C23 1.284 . S
Zn16 O15 1.899 . S
Zn16 O17 2.032 1_545 S
Zn16 O20 2.086 1_645 S
Zn16 O25 1.977 1_655 S
O17 Zn16 2.032 1_565 S
O17 C21 1.278 1_565 S
C18 O19 1.203 . S
C18 O25 1.267 1_655 S
O19 C18 1.203 . S
O20 C13 1.185 . S
O20 Zn16 2.086 1_465 S
C21 O17 1.278 1_545 S
C21 O22 1.211 . S
O22 C21 1.211 . S
C23 O15 1.284 . S
C23 O24 1.273 . S
O24 C23 1.273 . S
O25 Zn16 1.977 1_455 S
O25 C18 1.267 1_455 S
C26 O27 1.160 . S
C26 O33 1.185 . S
O27 C26 1.160 . S
O28 Zn29 1.899 . S
O28 C36 1.284 . S
Zn29 O28 1.899 . S
Zn29 O30 2.032 . S
Zn29 O33 2.086 . S
Zn29 O38 1.977 . S
O30 Zn29 2.032 . S
O30 C34 1.278 . S
C31 O32 1.203 . S
C31 O38 1.267 . S
O32 C31 1.203 . S
O33 C26 1.185 . S
O33 Zn29 2.086 . S
C34 O30 1.278 . S
C34 O35 1.211 . S
O35 C34 1.211 . S
C36 O28 1.284 . S
C36 O37 1.273 . S
O37 C36 1.273 . S
O38 Zn29 1.977 . S
O38 C31 1.267 . S
C39 O40 1.160 . S
C39 O46 1.161 1_545 S
O40 C39 1.160 . S
O41 Zn42 1.899 1_556 S
O41 C49 1.284 1_556 S
Zn42 O41 1.899 1_554 S
Zn42 O43 2.032 1_565 S
Zn42 O46 2.099 1_554 S
Zn42 O51 1.977 . S
O43 Zn42 2.032 1_545 S
O43 C47 1.278 1_545 S
C44 O45 1.203 . S
C44 O51 1.267 . S
O45 C44 1.203 . S
O46 C39 1.161 1_565 S
O46 Zn42 2.099 1_556 S
C47 O43 1.278 1_565 S
C47 O48 1.211 . S
O48 C47 1.211 . S
C49 O41 1.284 1_554 S
C49 O50 1.273 . S
O50 C49 1.273 . S
O51 Zn42 1.977 . S
O51 C44 1.267 . S
C52 O53 1.160 . S
C52 O59 1.185 . S
O53 C52 1.160 . S
O54 Zn55 1.899 . S
O54 C62 1.284 . S
Zn55 O54 1.899 . S
Zn55 O56 2.032 . S
Zn55 O59 2.086 . S
Zn55 O64 1.977 . S
O56 Zn55 2.032 . S
O56 C60 1.278 . S
C57 O58 1.203 . S
C57 O64 1.267 . S
O58 C57 1.203 . S
O59 C52 1.185 . S
O59 Zn55 2.086 . S
C60 O56 1.278 . S
C60 O61 1.211 . S
O61 C60 1.211 . S
C62 O54 1.284 . S
C62 O63 1.273 . S
O63 C62 1.273 . S
O64 Zn55 1.977 . S
O64 C57 1.267 . S
C65 O66 1.160 1_565 S
C65 O72 1.185 . S
O66 C65 1.160 1_545 S
O67 Zn68 1.899 . S
O67 C75 1.284 . S
Zn68 O67 1.899 . S
Zn68 O69 2.032 . S
Zn68 O72 2.086 1_545 S
Zn68 O77 1.972 1_545 S
O69 Zn68 2.032 . S
O69 C73 1.278 . S
C70 O71 1.203 . S
C70 O77 1.259 1_545 S
O71 C70 1.203 . S
O72 C65 1.185 . S
O72 Zn68 2.086 1_565 S
C73 O69 1.278 . S
C73 O74 1.211 . S
O74 C73 1.211 . S
C75 O67 1.284 . S
C75 O76 1.273 . S
O76 C75 1.273 . S
O77 Zn68 1.972 1_565 S
O77 C70 1.259 1_565 S
C78 O79 1.160 . S
C78 O85 1.185 . S
O79 C78 1.160 . S
O80 Zn81 1.899 . S
O80 C88 1.284 . S
Zn81 O80 1.899 . S
Zn81 O82 2.032 . S
Zn81 O85 2.086 . S
Zn81 O90 1.977 . S
O82 Zn81 2.032 . S
O82 C86 1.278 . S
C83 O84 1.203 . S
C83 O90 1.267 . S
O84 C83 1.203 . S
O85 C78 1.185 . S
O85 Zn81 2.086 . S
C86 O82 1.278 . S
C86 O87 1.211 . S
O87 C86 1.211 . S
C88 O80 1.284 . S
C88 O89 1.273 . S
O89 C88 1.273 . S
O90 Zn81 1.977 . S
O90 C83 1.267 . S
C91 O92 1.160 1_545 S
C91 O98 1.185 1_554 S
O92 C91 1.160 1_565 S
O93 Zn94 1.899 1_455 S
O93 C101 1.284 1_455 S
Zn94 O93 1.899 1_655 S
Zn94 O95 2.032 . S
Zn94 O98 2.086 1_665 S
Zn94 O103 1.977 . S
O95 Zn94 2.032 . S
O95 C99 1.278 . S
C96 O97 1.203 . S
C96 O103 1.266 . S
O97 C96 1.203 . S
O98 C91 1.185 1_556 S
O98 Zn94 2.086 1_445 S
C99 O95 1.278 . S
C99 O100 1.211 . S
O100 C99 1.211 . S
C101 O93 1.284 1_655 S
C101 O102 1.273 . S
O102 C101 1.273 . S
O103 Zn94 1.977 . S
O103 C96 1.266 . S
C104 O105 1.160 . S
C104 O111 1.185 . S
O105 C104 1.160 . S
O106 Zn107 1.899 . S
O106 C114 1.284 . S
Zn107 O106 1.899 . S
Zn107 O108 2.032 . S
Zn107 O111 2.086 . S
Zn107 O116 1.977 . S
O108 Zn107 2.032 . S
O108 C112 1.278 . S
C109 O110 1.203 . S
C109 O116 1.267 . S
O110 C109 1.203 . S
O111 C104 1.185 . S
O111 Zn107 2.086 . S
C112 O108 1.278 . S
C112 O113 1.211 . S
O113 C112 1.211 . S
C114 O106 1.284 . S
C114 O115 1.273 . S
O115 C114 1.273 . S
O116 Zn107 1.977 . S
O116 C109 1.267 . S
C117 O118 1.160 . S
C117 O124 1.185 1_554 S
O118 C117 1.160 . S
O119 Zn120 1.899 1_655 S
O119 C127 1.284 1_655 S
Zn120 O119 1.899 1_455 S
Zn120 O121 2.032 . S
Zn120 O124 2.086 1_455 S
Zn120 O129 1.978 . S
O121 Zn120 2.032 . S
O121 C125 1.278 . S
C122 O123 1.203 . S
C122 O129 1.270 . S
O123 C122 1.203 . S
O124 C117 1.185 1_556 S
O124 Zn120 2.086 1_655 S
C125 O121 1.278 . S
C125 O126 1.211 . S
O126 C125 1.211 . S
C127 O119 1.284 1_455 S
C127 O128 1.273 . S
O128 C127 1.273 . S
O129 Zn120 1.978 . S
O129 C122 1.270 . S
C130 O131 1.160 . S
C130 O137 1.185 . S
O131 C130 1.160 . S
O132 Zn133 1.899 . S
O132 C140 1.284 . S
Zn133 O132 1.899 . S
Zn133 O134 2.032 . S
Zn133 O137 2.086 . S
Zn133 O142 1.977 . S
O134 Zn133 2.032 . S
O134 C138 1.278 . S
C135 O136 1.203 . S
C135 O142 1.267 . S
O136 C135 1.203 . S
O137 C130 1.185 . S
O137 Zn133 2.086 . S
C138 O134 1.278 . S
C138 O139 1.211 . S
O139 C138 1.211 . S
C140 O132 1.284 . S
C140 O141 1.273 . S
O141 C140 1.273 . S
O142 Zn133 1.977 . S
O142 C135 1.267 . S
C143 O144 1.160 1_655 S
C143 O150 1.185 . S
O144 C143 1.160 1_455 S
O145 Zn146 1.899 . S
O145 C153 1.284 . S
Zn146 O145 1.899 . S
Zn146 O147 2.032 . S
Zn146 O150 2.086 1_455 S
Zn146 O155 1.977 1_455 S
O147 Zn146 2.032 . S
O147 C151 1.278 . S
C148 O149 1.203 . S
C148 O155 1.267 1_455 S
O149 C148 1.203 . S
O150 C143 1.185 . S
O150 Zn146 2.086 1_655 S
C151 O147 1.278 . S
C151 O152 1.211 . S
O152 C151 1.211 . S
C153 O145 1.284 . S
C153 O154 1.273 . S
O154 C153 1.273 . S
O155 Zn146 1.977 1_655 S
O155 C148 1.267 1_655 S
C156 O157 1.160 . S
C156 O163 1.185 . S
O157 C156 1.160 . S
O158 Zn159 1.899 1_556 S
O158 C166 1.284 1_556 S
Zn159 O158 1.899 1_554 S
Zn159 O160 2.032 . S
Zn159 O163 2.086 1_554 S
Zn159 O168 1.977 . S
O160 Zn159 2.032 . S
O160 C164 1.278 . S
C161 O162 1.203 . S
C161 O168 1.267 . S
O162 C161 1.203 . S
O163 C156 1.185 . S
O163 Zn159 2.086 1_556 S
C164 O160 1.278 . S
C164 O165 1.211 . S
O165 C164 1.211 . S
C166 O158 1.284 1_554 S
C166 O167 1.273 . S
O167 C166 1.273 . S
O168 Zn159 1.977 . S
O168 C161 1.267 . S
C169 O170 1.160 . S
C169 O176 1.185 . S
O170 C169 1.160 . S
O171 Zn172 1.899 . S
O171 C179 1.284 . S
Zn172 O171 1.899 . S
Zn172 O173 2.032 . S
Zn172 O176 2.086 . S
Zn172 O181 1.977 . S
O173 Zn172 2.032 . S
O173 C177 1.278 . S
C174 O175 1.203 . S
C174 O181 1.267 . S
O175 C174 1.203 . S
O176 C169 1.185 . S
O176 Zn172 2.086 . S
C177 O173 1.278 . S
C177 O178 1.211 . S
O178 C177 1.211 . S
C179 O171 1.284 . S
C179 O180 1.273 . S
O180 C179 1.273 . S
O181 Zn172 1.977 . S
O181 C174 1.267 . S
C182 O183 1.160 . S
C182 O189 1.185 . S
O183 C182 1.160 . S
O184 Zn185 1.899 . S
O184 C192 1.284 . S
Zn185 O184 1.899 . S
Zn185 O186 2.032 . S
Zn185 O189 2.086 . S
Zn185 O194 1.977 . S
O186 Zn185 2.032 . S
O186 C190 1.278 . S
C187 O188 1.203 . S
C187 O194 1.267 . S
O188 C187 1.203 . S
O189 C182 1.185 . S
O189 Zn185 2.086 . S
C190 O186 1.278 . S
C190 O191 1.211 . S
O191 C190 1.211 . S
C192 O184 1.284 . S
C192 O193 1.273 . S
O193 C192 1.273 . S
O194 Zn185 1.977 . S
O194 C187 1.267 . S
C195 O196 1.160 . S
C195 O202 1.185 . S
O196 C195 1.160 . S
O197 Zn198 1.899 . S
O197 C205 1.284 . S
Zn198 O197 1.899 . S
Zn198 O199 2.032 . S
Zn198 O202 2.086 . S
Zn198 O207 1.977 . S
O199 Zn198 2.032 . S
O199 C203 1.278 . S
C200 O201 1.203 . S
C200 O207 1.267 . S
O201 C200 1.203 . S
O202 C195 1.185 . S
O202 Zn198 2.086 . S
C203 O199 1.278 . S
C203 O204 1.211 . S
O204 C203 1.211 . S
C205 O197 1.284 . S
C205 O206 1.273 . S
O206 C205 1.273 . S
O207 Zn198 1.977 . S
O207 C200 1.267 . S
C208 C209 1.349 . S
C208 C210 1.327 . S
C208 H233 0.950 . S
C209 C208 1.349 . S
C209 C225 1.349 . S
C210 C208 1.327 . S
C210 C229 1.429 . S
C210 H234 0.950 . S
C211 C228 1.574 . S
C211 C230 1.368 . S
C211 H235 0.949 . S
H212 C216 0.949 . S
C213 C214 1.349 . S
C213 C215 1.327 . S
C213 H236 0.950 . S
C214 C213 1.349 . S
C214 C226 1.349 . S
C215 C213 1.327 . S
C215 C231 1.429 . S
C215 H237 0.950 . S
C216 H212 0.949 . S
C216 C224 1.574 . S
C216 C232 1.368 . S
H217 C225 0.950 . S
H218 C223 0.950 . S
H219 C224 0.949 . S
H220 C226 0.950 . S
H221 C227 0.950 . S
H222 C228 0.949 . S
C223 H218 0.950 . S
C223 C225 1.327 . S
C223 C229 1.429 . S
C224 C216 1.574 . S
C224 H219 0.949 . S
C224 C230 1.368 . S
C225 C209 1.349 . S
C225 H217 0.950 . S
C225 C223 1.327 . S
C226 C214 1.349 . S
C226 H220 0.950 . S
C226 C227 1.327 . S
C227 H221 0.950 . S
C227 C226 1.327 . S
C227 C231 1.429 . S
C228 C211 1.574 . S
C228 H222 0.949 . S
C228 C232 1.368 . S
C229 C210 1.429 . S
C229 C223 1.429 . S
C229 C230 1.523 . S
C230 C211 1.368 . S
C230 C224 1.368 . S
C230 C229 1.523 . S
C231 C215 1.429 . S
C231 C227 1.429 . S
C231 C232 1.523 . S
C232 C216 1.368 . S
C232 C228 1.368 . S
C232 C231 1.523 . S
H233 C208 0.950 . S
H234 C210 0.950 . S
H235 C211 0.949 . S
H236 C213 0.950 . S
H237 C215 0.950 . S
C238 C239 1.349 . S
C238 C240 1.327 . S
C238 H263 0.950 . S
C239 C238 1.349 . S
C239 C255 1.349 . S
C240 C238 1.327 . S
C240 C259 1.429 . S
C240 H264 0.950 . S
C241 C258 1.574 . S
C241 C260 1.368 . S
C241 H265 0.949 . S
H242 C246 0.949 . S
C243 C244 1.349 . S
C243 C245 1.327 . S
C243 H266 0.950 . S
C244 C243 1.349 . S
C244 C256 1.349 . S
C245 C243 1.327 . S
C245 C261 1.429 . S
C245 H267 0.950 . S
C246 H242 0.949 . S
C246 C254 1.574 . S
C246 C262 1.368 . S
H247 C255 0.950 . S
H248 C253 0.950 . S
H249 C254 0.949 . S
H250 C256 0.950 . S
H251 C257 0.950 . S
H252 C258 0.949 . S
C253 H248 0.950 . S
C253 C255 1.327 . S
C253 C259 1.429 . S
C254 C246 1.574 . S
C254 H249 0.949 . S
C254 C260 1.368 . S
C255 C239 1.349 . S
C255 H247 0.950 . S
C255 C253 1.327 . S
C256 C244 1.349 . S
C256 H250 0.950 . S
C256 C257 1.327 . S
C257 H251 0.950 . S
C257 C256 1.327 . S
C257 C261 1.429 . S
C258 C241 1.574 . S
C258 H252 0.949 . S
C258 C262 1.368 . S
C259 C240 1.429 . S
C259 C253 1.429 . S
C259 C260 1.523 . S
C260 C241 1.368 . S
C260 C254 1.368 . S
C260 C259 1.523 . S
C261 C245 1.429 . S
C261 C257 1.429 . S
C261 C262 1.523 . S
C262 C246 1.368 . S
C262 C258 1.368 . S
C262 C261 1.523 . S
H263 C238 0.950 . S
H264 C240 0.950 . S
H265 C241 0.949 . S
H266 C243 0.950 . S
H267 C245 0.950 . S
C268 C269 1.349 . S
C268 C270 1.327 . S
C268 H293 0.950 . S
C269 C268 1.349 . S
C269 C285 1.349 . S
C270 C268 1.327 . S
C270 C289 1.429 . S
C270 H294 0.950 . S
C271 C288 1.574 . S
C271 C290 1.368 . S
C271 H295 0.949 . S
H272 C276 0.949 . S
C273 C274 1.349 . S
C273 C275 1.327 . S
C273 H296 0.950 . S
C274 C273 1.349 . S
C274 C286 1.349 . S
C275 C273 1.327 . S
C275 C291 1.429 . S
C275 H297 0.950 . S
C276 H272 0.949 . S
C276 C284 1.574 . S
C276 C292 1.368 . S
H277 C285 0.950 . S
H278 C283 0.950 . S
H279 C284 0.949 . S
H280 C286 0.950 . S
H281 C287 0.950 . S
H282 C288 0.949 . S
C283 H278 0.950 . S
C283 C285 1.327 . S
C283 C289 1.429 . S
C284 C276 1.574 . S
C284 H279 0.949 . S
C284 C290 1.368 . S
C285 C269 1.349 . S
C285 H277 0.950 . S
C285 C283 1.327 . S
C286 C274 1.349 . S
C286 H280 0.950 . S
C286 C287 1.327 . S
C287 H281 0.950 . S
C287 C286 1.327 . S
C287 C291 1.429 . S
C288 C271 1.574 . S
C288 H282 0.949 . S
C288 C292 1.368 . S
C289 C270 1.429 . S
C289 C283 1.429 . S
C289 C290 1.523 . S
C290 C271 1.368 . S
C290 C284 1.368 . S
C290 C289 1.523 . S
C291 C275 1.429 . S
C291 C287 1.429 . S
C291 C292 1.523 . S
C292 C276 1.368 . S
C292 C288 1.368 . S
C292 C291 1.523 . S
H293 C268 0.950 . S
H294 C270 0.950 . S
H295 C271 0.949 . S
H296 C273 0.950 . S
H297 C275 0.950 . S
C298 C299 1.349 . S
C298 C300 1.327 . S
C298 H323 0.950 . S
C299 C298 1.349 . S
C299 C315 1.349 . S
C300 C298 1.327 . S
C300 C319 1.429 . S
C300 H324 0.950 . S
C301 C318 1.574 . S
C301 C320 1.368 . S
C301 H325 0.949 . S
H302 C306 0.949 . S
C303 C304 1.349 . S
C303 C305 1.327 . S
C303 H326 0.950 . S
C304 C303 1.349 . S
C304 C316 1.349 . S
C305 C303 1.327 . S
C305 C321 1.429 . S
C305 H327 0.950 . S
C306 H302 0.949 . S
C306 C314 1.574 . S
C306 C322 1.368 . S
H307 C315 0.950 . S
H308 C313 0.950 . S
H309 C314 0.949 . S
H310 C316 0.950 . S
H311 C317 0.950 . S
H312 C318 0.949 . S
C313 H308 0.950 . S
C313 C315 1.327 . S
C313 C319 1.429 . S
C314 C306 1.574 . S
C314 H309 0.949 . S
C314 C320 1.368 . S
C315 C299 1.349 . S
C315 H307 0.950 . S
C315 C313 1.327 . S
C316 C304 1.349 . S
C316 H310 0.950 . S
C316 C317 1.327 . S
C317 H311 0.950 . S
C317 C316 1.327 . S
C317 C321 1.429 . S
C318 C301 1.574 . S
C318 H312 0.949 . S
C318 C322 1.368 . S
C319 C300 1.429 . S
C319 C313 1.429 . S
C319 C320 1.523 . S
C320 C301 1.368 . S
C320 C314 1.368 . S
C320 C319 1.523 . S
C321 C305 1.429 . S
C321 C317 1.429 . S
C321 C322 1.523 . S
C322 C306 1.368 . S
C322 C318 1.368 . S
C322 C321 1.523 . S
H323 C298 0.950 . S
H324 C300 0.950 . S
H325 C301 0.949 . S
H326 C303 0.950 . S
H327 C305 0.950 . S
C328 C329 1.349 . S
C328 C330 1.327 . S
C328 H353 0.950 . S
C329 C328 1.349 . S
C329 C345 1.349 . S
C330 C328 1.327 . S
C330 C349 1.429 . S
C330 H354 0.950 . S
C331 C348 1.574 . S
C331 C350 1.368 . S
C331 H355 0.949 . S
H332 C336 0.949 . S
C333 C334 1.349 . S
C333 C335 1.327 . S
C333 H356 0.950 . S
C334 C333 1.349 . S
C334 C346 1.349 . S
C335 C333 1.327 . S
C335 C351 1.429 . S
C335 H357 0.950 . S
C336 H332 0.949 . S
C336 C344 1.574 . S
C336 C352 1.368 . S
H337 C345 0.950 . S
H338 C343 0.950 . S
H339 C344 0.949 . S
H340 C346 0.950 . S
H341 C347 0.950 . S
H342 C348 0.949 . S
C343 H338 0.950 . S
C343 C345 1.327 . S
C343 C349 1.429 . S
C344 C336 1.574 . S
C344 H339 0.949 . S
C344 C350 1.368 . S
C345 C329 1.349 . S
C345 H337 0.950 . S
C345 C343 1.327 . S
C346 C334 1.349 . S
C346 H340 0.950 . S
C346 C347 1.327 . S
C347 H341 0.950 . S
C347 C346 1.327 . S
C347 C351 1.429 . S
C348 C331 1.574 . S
C348 H342 0.949 . S
C348 C352 1.368 . S
C349 C330 1.429 . S
C349 C343 1.429 . S
C349 C350 1.523 . S
C350 C331 1.368 . S
C350 C344 1.368 . S
C350 C349 1.523 . S
C351 C335 1.429 . S
C351 C347 1.429 . S
C351 C352 1.523 . S
C352 C336 1.368 . S
C352 C348 1.368 . S
C352 C351 1.523 . S
H353 C328 0.950 . S
H354 C330 0.950 . S
H355 C331 0.949 . S
H356 C333 0.950 . S
H357 C335 0.950 . S
C358 C359 1.349 . S
C358 C360 1.327 . S
C358 H383 0.950 . S
C359 C358 1.349 . S
C359 C375 1.349 . S
C360 C358 1.327 . S
C360 C379 1.429 . S
C360 H384 0.950 . S
C361 C378 1.574 . S
C361 C380 1.368 . S
C361 H385 0.949 . S
H362 C366 0.949 . S
C363 C364 1.349 . S
C363 C365 1.327 . S
C363 H386 0.950 . S
C364 C363 1.349 . S
C364 C376 1.349 . S
C365 C363 1.327 . S
C365 C381 1.429 . S
C365 H387 0.950 . S
C366 H362 0.949 . S
C366 C374 1.574 . S
C366 C382 1.368 . S
H367 C375 0.950 . S
H368 C373 0.950 . S
H369 C374 0.949 . S
H370 C376 0.950 . S
H371 C377 0.950 . S
H372 C378 0.949 . S
C373 H368 0.950 . S
C373 C375 1.327 . S
C373 C379 1.429 . S
C374 C366 1.574 . S
C374 H369 0.949 . S
C374 C380 1.368 . S
C375 C359 1.349 . S
C375 H367 0.950 . S
C375 C373 1.327 . S
C376 C364 1.349 . S
C376 H370 0.950 . S
C376 C377 1.327 . S
C377 H371 0.950 . S
C377 C376 1.327 . S
C377 C381 1.429 . S
C378 C361 1.574 . S
C378 H372 0.949 . S
C378 C382 1.368 . S
C379 C360 1.429 . S
C379 C373 1.429 . S
C379 C380 1.523 . S
C380 C361 1.368 . S
C380 C374 1.368 . S
C380 C379 1.523 . S
C381 C365 1.429 . S
C381 C377 1.429 . S
C381 C382 1.523 . S
C382 C366 1.368 . S
C382 C378 1.368 . S
C382 C381 1.523 . S
H383 C358 0.950 . S
H384 C360 0.950 . S
H385 C361 0.949 . S
H386 C363 0.950 . S
H387 C365 0.950 . S
C388 C389 1.349 . S
C388 C390 1.327 . S
C388 H413 0.950 . S
C389 C388 1.349 . S
C389 C405 1.349 . S
C390 C388 1.327 . S
C390 C409 1.429 . S
C390 H414 0.950 . S
C391 C408 1.574 . S
C391 C410 1.368 . S
C391 H415 0.949 . S
H392 C396 0.949 . S
C393 C394 1.349 . S
C393 C395 1.327 . S
C393 H416 0.950 . S
C394 C393 1.349 . S
C394 C406 1.349 . S
C395 C393 1.327 . S
C395 C411 1.429 . S
C395 H417 0.950 . S
C396 H392 0.949 . S
C396 C404 1.574 . S
C396 C412 1.368 . S
H397 C405 0.950 . S
H398 C403 0.950 . S
H399 C404 0.949 . S
H400 C406 0.950 . S
H401 C407 0.950 . S
H402 C408 0.949 . S
C403 H398 0.950 . S
C403 C405 1.327 . S
C403 C409 1.429 . S
C404 C396 1.574 . S
C404 H399 0.949 . S
C404 C410 1.368 . S
C405 C389 1.349 . S
C405 H397 0.950 . S
C405 C403 1.327 . S
C406 C394 1.349 . S
C406 H400 0.950 . S
C406 C407 1.327 . S
C407 H401 0.950 . S
C407 C406 1.327 . S
C407 C411 1.429 . S
C408 C391 1.574 . S
C408 H402 0.949 . S
C408 C412 1.368 . S
C409 C390 1.429 . S
C409 C403 1.429 . S
C409 C410 1.523 . S
C410 C391 1.368 . S
C410 C404 1.368 . S
C410 C409 1.523 . S
C411 C395 1.429 . S
C411 C407 1.429 . S
C411 C412 1.523 . S
C412 C396 1.368 . S
C412 C408 1.368 . S
C412 C411 1.523 . S
H413 C388 0.950 . S
H414 C390 0.950 . S
H415 C391 0.949 . S
H416 C393 0.950 . S
H417 C395 0.950 . S
C418 C419 1.349 . S
C418 C420 1.327 . S
C418 H443 0.950 . S
C419 C418 1.349 . S
C419 C435 1.349 . S
C420 C418 1.327 . S
C420 C439 1.429 . S
C420 H444 0.950 . S
C421 C438 1.574 . S
C421 C440 1.368 . S
C421 H445 0.949 . S
H422 C426 0.949 . S
C423 C424 1.349 . S
C423 C425 1.327 . S
C423 H446 0.950 . S
C424 C423 1.349 . S
C424 C436 1.349 . S
C425 C423 1.327 . S
C425 C441 1.429 . S
C425 H447 0.950 . S
C426 H422 0.949 . S
C426 C434 1.574 . S
C426 C442 1.368 . S
H427 C435 0.950 . S
H428 C433 0.950 . S
H429 C434 0.949 . S
H430 C436 0.950 . S
H431 C437 0.950 . S
H432 C438 0.949 . S
C433 H428 0.950 . S
C433 C435 1.327 . S
C433 C439 1.429 . S
C434 C426 1.574 . S
C434 H429 0.949 . S
C434 C440 1.368 . S
C435 C419 1.349 . S
C435 H427 0.950 . S
C435 C433 1.327 . S
C436 C424 1.349 . S
C436 H430 0.950 . S
C436 C437 1.327 . S
C437 H431 0.950 . S
C437 C436 1.327 . S
C437 C441 1.429 . S
C438 C421 1.574 . S
C438 H432 0.949 . S
C438 C442 1.368 . S
C439 C420 1.429 . S
C439 C433 1.429 . S
C439 C440 1.523 . S
C440 C421 1.368 . S
C440 C434 1.368 . S
C440 C439 1.523 . S
C441 C425 1.429 . S
C441 C437 1.429 . S
C441 C442 1.523 . S
C442 C426 1.368 . S
C442 C438 1.368 . S
C442 C441 1.523 . S
H443 C418 0.950 . S
H444 C420 0.950 . S
H445 C421 0.949 . S
H446 C423 0.950 . S
H447 C425 0.950 . S
C448 C449 1.349 . S
C448 C450 1.327 . S
C448 H473 0.950 . S
C449 C448 1.349 . S
C449 C465 1.349 . S
C450 C448 1.327 . S
C450 C469 1.429 . S
C450 H474 0.950 . S
C451 C468 1.574 . S
C451 C470 1.368 . S
C451 H475 0.949 . S
H452 C456 0.949 . S
C453 C454 1.349 . S
C453 C455 1.327 . S
C453 H476 0.950 . S
C454 C453 1.349 . S
C454 C466 1.349 . S
C455 C453 1.327 . S
C455 C471 1.429 . S
C455 H477 0.950 . S
C456 H452 0.949 . S
C456 C464 1.574 . S
C456 C472 1.368 . S
H457 C465 0.950 . S
H458 C463 0.950 . S
H459 C464 0.949 . S
H460 C466 0.950 . S
H461 C467 0.950 . S
H462 C468 0.949 . S
C463 H458 0.950 . S
C463 C465 1.327 . S
C463 C469 1.429 . S
C464 C456 1.574 . S
C464 H459 0.949 . S
C464 C470 1.368 . S
C465 C449 1.349 . S
C465 H457 0.950 . S
C465 C463 1.327 . S
C466 C454 1.349 . S
C466 H460 0.950 . S
C466 C467 1.327 . S
C467 H461 0.950 . S
C467 C466 1.327 . S
C467 C471 1.429 . S
C468 C451 1.574 . S
C468 H462 0.949 . S
C468 C472 1.368 . S
C469 C450 1.429 . S
C469 C463 1.429 . S
C469 C470 1.523 . S
C470 C451 1.368 . S
C470 C464 1.368 . S
C470 C469 1.523 . S
C471 C455 1.429 . S
C471 C467 1.429 . S
C471 C472 1.523 . S
C472 C456 1.368 . S
C472 C468 1.368 . S
C472 C471 1.523 . S
H473 C448 0.950 . S
H474 C450 0.950 . S
H475 C451 0.949 . S
H476 C453 0.950 . S
H477 C455 0.950 . S
C478 C479 1.349 . S
C478 C480 1.327 . S
C478 H503 0.950 . S
C479 C478 1.349 . S
C479 C495 1.349 1_665 S
C480 C478 1.327 . S
C480 C499 1.429 . S
C480 H504 0.950 . S
C481 C498 1.574 . S
C481 C500 1.368 1_445 S
C481 H505 0.949 . S
H482 C486 0.949 . S
C483 C484 1.349 1_445 S
C483 C485 1.327 . S
C483 H506 0.950 . S
C484 C483 1.349 1_665 S
C484 C496 1.349 . S
C485 C483 1.327 . S
C485 C501 1.429 1_445 S
C485 H507 0.950 . S
C486 H482 0.949 . S
C486 C494 1.574 . S
C486 C502 1.368 . S
H487 C495 0.950 . S
H488 C493 0.950 . S
H489 C494 0.949 . S
H490 C496 0.950 . S
H491 C497 0.950 . S
H492 C498 0.949 . S
C493 H488 0.950 . S
C493 C495 1.327 . S
C493 C499 1.429 1_445 S
C494 C486 1.574 . S
C494 H489 0.949 . S
C494 C500 1.368 . S
C495 C479 1.349 1_445 S
C495 H487 0.950 . S
C495 C493 1.327 . S
C496 C484 1.349 . S
C496 H490 0.950 . S
C496 C497 1.327 . S
C497 H491 0.950 . S
C497 C496 1.327 . S
C497 C501 1.429 . S
C498 C481 1.574 . S
C498 H492 0.949 . S
C498 C502 1.368 1_445 S
C499 C480 1.429 . S
C499 C493 1.429 1_665 S
C499 C500 1.523 . S
C500 C481 1.368 1_665 S
C500 C494 1.368 . S
C500 C499 1.523 . S
C501 C485 1.429 1_665 S
C501 C497 1.429 . S
C501 C502 1.523 . S
C502 C486 1.368 . S
C502 C498 1.368 1_665 S
C502 C501 1.523 . S
H503 C478 0.950 . S
H504 C480 0.950 . S
H505 C481 0.949 . S
H506 C483 0.950 . S
H507 C485 0.950 . S
C508 C509 1.349 . S
C508 C510 1.327 . S
C508 H533 0.950 . S
C509 C508 1.349 . S
C509 C525 1.349 . S
C510 C508 1.327 . S
C510 C529 1.429 . S
C510 H534 0.950 . S
C511 C528 1.574 1_556 S
C511 C530 1.368 . S
C511 H535 0.949 . S
H512 C516 0.949 . S
C513 C514 1.349 . S
C513 C515 1.327 . S
C513 H536 0.950 . S
C514 C513 1.349 . S
C514 C526 1.349 . S
C515 C513 1.327 . S
C515 C531 1.429 . S
C515 H537 0.950 . S
C516 H512 0.949 . S
C516 C524 1.574 1_554 S
C516 C532 1.368 . S
H517 C525 0.950 . S
H518 C523 0.950 . S
H519 C524 0.949 . S
H520 C526 0.950 . S
H521 C527 0.950 . S
H522 C528 0.949 . S
C523 H518 0.950 . S
C523 C525 1.327 . S
C523 C529 1.429 . S
C524 C516 1.574 1_556 S
C524 H519 0.949 . S
C524 C530 1.368 . S
C525 C509 1.349 . S
C525 H517 0.950 . S
C525 C523 1.327 . S
C526 C514 1.349 . S
C526 H520 0.950 . S
C526 C527 1.327 . S
C527 H521 0.950 . S
C527 C526 1.327 . S
C527 C531 1.429 . S
C528 C511 1.574 1_554 S
C528 H522 0.949 . S
C528 C532 1.368 . S
C529 C510 1.429 . S
C529 C523 1.429 . S
C529 C530 1.523 . S
C530 C511 1.368 . S
C530 C524 1.368 . S
C530 C529 1.523 . S
C531 C515 1.429 . S
C531 C527 1.429 . S
C531 C532 1.523 . S
C532 C516 1.368 . S
C532 C528 1.368 . S
C532 C531 1.523 . S
H533 C508 0.950 . S
H534 C510 0.950 . S
H535 C511 0.949 . S
H536 C513 0.950 . S
H537 C515 0.950 . S
C538 C539 1.349 . S
C538 C540 1.327 . S
C538 H563 0.950 . S
C539 C538 1.349 . S
C539 C555 1.349 1_545 S
C540 C538 1.327 . S
C540 C559 1.429 . S
C540 H564 0.950 . S
C541 C558 1.574 . S
C541 C560 1.368 1_565 S
C541 H565 0.949 . S
H542 C546 0.949 . S
C543 C544 1.349 . S
C543 C545 1.327 . S
C543 H566 0.950 . S
C544 C543 1.349 . S
C544 C556 1.349 1_565 S
C545 C543 1.327 . S
C545 C561 1.426 1_565 S
C545 H567 0.950 . S
C546 H542 0.949 . S
C546 C554 1.574 . S
C546 C562 1.368 . S
H547 C555 0.950 . S
H548 C553 0.950 . S
H549 C554 0.949 . S
H550 C556 0.950 . S
H551 C557 0.950 . S
H552 C558 0.949 . S
C553 H548 0.950 . S
C553 C555 1.327 . S
C553 C559 1.429 1_565 S
C554 C546 1.574 . S
C554 H549 0.949 . S
C554 C560 1.368 . S
C555 C539 1.349 1_565 S
C555 H547 0.950 . S
C555 C553 1.327 . S
C556 C544 1.349 1_545 S
C556 H550 0.950 . S
C556 C557 1.327 . S
C557 H551 0.950 . S
C557 C556 1.327 . S
C557 C561 1.431 . S
C558 C541 1.574 . S
C558 H552 0.949 . S
C558 C562 1.368 1_565 S
C559 C540 1.429 . S
C559 C553 1.429 1_545 S
C559 C560 1.523 . S
C560 C541 1.368 1_545 S
C560 C554 1.368 . S
C560 C559 1.523 . S
C561 C545 1.426 1_545 S
C561 C557 1.431 . S
C561 C562 1.523 . S
C562 C546 1.368 . S
C562 C558 1.368 1_545 S
C562 C561 1.523 . S
H563 C538 0.950 . S
H564 C540 0.950 . S
H565 C541 0.949 . S
H566 C543 0.950 . S
H567 C545 0.950 . S
C568 C569 1.349 . S
C568 C570 1.327 . S
C568 H593 0.950 . S
C569 C568 1.349 . S
C569 C585 1.349 . S
C570 C568 1.327 . S
C570 C589 1.429 . S
C570 H594 0.950 . S
C571 C588 1.574 . S
C571 C590 1.368 . S
C571 H595 0.949 . S
H572 C576 0.949 . S
C573 C574 1.349 . S
C573 C575 1.327 . S
C573 H596 0.950 . S
C574 C573 1.349 . S
C574 C586 1.349 . S
C575 C573 1.327 . S
C575 C591 1.429 . S
C575 H597 0.950 . S
C576 H572 0.949 . S
C576 C584 1.574 . S
C576 C592 1.368 . S
H577 C585 0.950 . S
H578 C583 0.950 . S
H579 C584 0.949 . S
H580 C586 0.950 . S
H581 C587 0.950 . S
H582 C588 0.949 . S
C583 H578 0.950 . S
C583 C585 1.327 . S
C583 C589 1.429 . S
C584 C576 1.574 . S
C584 H579 0.949 . S
C584 C590 1.368 . S
C585 C569 1.349 . S
C585 H577 0.950 . S
C585 C583 1.327 . S
C586 C574 1.349 . S
C586 H580 0.950 . S
C586 C587 1.327 . S
C587 H581 0.950 . S
C587 C586 1.327 . S
C587 C591 1.429 . S
C588 C571 1.574 . S
C588 H582 0.949 . S
C588 C592 1.368 . S
C589 C570 1.429 . S
C589 C583 1.429 . S
C589 C590 1.523 . S
C590 C571 1.368 . S
C590 C584 1.368 . S
C590 C589 1.523 . S
C591 C575 1.429 . S
C591 C587 1.429 . S
C591 C592 1.523 . S
C592 C576 1.368 . S
C592 C588 1.368 . S
C592 C591 1.523 . S
H593 C568 0.950 . S
H594 C570 0.950 . S
H595 C571 0.949 . S
H596 C573 0.950 . S
H597 C575 0.950 . S
C598 C599 1.349 1_455 S
C598 C600 1.327 . S
C598 H623 0.950 . S
C599 C598 1.349 1_655 S
C599 C615 1.349 . S
C600 C598 1.327 . S
C600 C619 1.429 1_455 S
C600 H624 0.950 . S
C601 C618 1.574 . S
C601 C620 1.368 . S
C601 H625 0.949 . S
H602 C606 0.949 . S
C603 C604 1.349 . S
C603 C605 1.327 . S
C603 H626 0.950 . S
C604 C603 1.349 . S
C604 C616 1.349 1_655 S
C605 C603 1.327 . S
C605 C621 1.429 . S
C605 H627 0.950 . S
C606 H602 0.949 . S
C606 C614 1.574 . S
C606 C622 1.368 1_455 S
H607 C615 0.950 . S
H608 C613 0.950 . S
H609 C614 0.949 . S
H610 C616 0.950 . S
H611 C617 0.950 . S
H612 C618 0.949 . S
C613 H608 0.950 . S
C613 C615 1.327 . S
C613 C619 1.429 . S
C614 C606 1.574 . S
C614 H609 0.949 . S
C614 C620 1.368 1_455 S
C615 C599 1.349 . S
C615 H607 0.950 . S
C615 C613 1.327 . S
C616 C604 1.349 1_455 S
C616 H610 0.950 . S
C616 C617 1.327 . S
C617 H611 0.950 . S
C617 C616 1.327 . S
C617 C621 1.429 1_455 S
C618 C601 1.574 . S
C618 H612 0.949 . S
C618 C622 1.368 . S
C619 C600 1.429 1_655 S
C619 C613 1.429 . S
C619 C620 1.523 . S
C620 C601 1.368 . S
C620 C614 1.368 1_655 S
C620 C619 1.523 . S
C621 C605 1.429 . S
C621 C617 1.429 1_655 S
C621 C622 1.523 . S
C622 C606 1.368 1_655 S
C622 C618 1.368 . S
C622 C621 1.523 . S
H623 C598 0.950 . S
H624 C600 0.950 . S
H625 C601 0.949 . S
H626 C603 0.950 . S
H627 C605 0.950 . S
C628 C629 1.349 . S
C628 C630 1.327 . S
C628 H653 0.950 . S
C629 C628 1.349 . S
C629 C645 1.349 . S
C630 C628 1.327 . S
C630 C649 1.429 . S
C630 H654 0.950 . S
C631 C648 1.574 1_655 S
C631 C650 1.368 . S
C631 H655 0.949 . S
H632 C636 0.949 . S
C633 C634 1.349 . S
C633 C635 1.327 . S
C633 H656 0.950 . S
C634 C633 1.349 . S
C634 C646 1.349 . S
C635 C633 1.327 . S
C635 C651 1.429 . S
C635 H657 0.950 . S
C636 H632 0.949 . S
C636 C644 1.574 1_455 S
C636 C652 1.368 . S
H637 C645 0.950 . S
H638 C643 0.950 . S
H639 C644 0.949 . S
H640 C646 0.950 . S
H641 C647 0.950 . S
H642 C648 0.949 . S
C643 H638 0.950 . S
C643 C645 1.327 . S
C643 C649 1.429 . S
C644 C636 1.574 1_655 S
C644 H639 0.949 . S
C644 C650 1.368 . S
C645 C629 1.349 . S
C645 H637 0.950 . S
C645 C643 1.327 . S
C646 C634 1.349 . S
C646 H640 0.950 . S
C646 C647 1.327 . S
C647 H641 0.950 . S
C647 C646 1.327 . S
C647 C651 1.429 . S
C648 C631 1.574 1_455 S
C648 H642 0.949 . S
C648 C652 1.368 . S
C649 C630 1.429 . S
C649 C643 1.429 . S
C649 C650 1.523 . S
C650 C631 1.368 . S
C650 C644 1.368 . S
C650 C649 1.523 . S
C651 C635 1.429 . S
C651 C647 1.429 . S
C651 C652 1.523 . S
C652 C636 1.368 . S
C652 C648 1.368 . S
C652 C651 1.523 . S
H653 C628 0.950 . S
H654 C630 0.950 . S
H655 C631 0.949 . S
H656 C633 0.950 . S
H657 C635 0.950 . S
C658 C659 1.349 1_556 S
C658 C660 1.327 . S
C658 H683 0.950 . S
C659 C658 1.349 1_554 S
C659 C675 1.349 . S
C660 C658 1.327 . S
C660 C679 1.429 1_556 S
C660 H684 0.950 . S
C661 C678 1.574 . S
C661 C680 1.368 . S
C661 H685 0.949 . S
H662 C666 0.949 . S
C663 C664 1.349 . S
C663 C665 1.327 . S
C663 H686 0.950 . S
C664 C663 1.349 . S
C664 C676 1.349 1_554 S
C665 C663 1.327 . S
C665 C681 1.429 . S
C665 H687 0.950 . S
C666 H662 0.949 . S
C666 C674 1.574 . S
C666 C682 1.368 1_556 S
H667 C675 0.950 . S
H668 C673 0.950 . S
H669 C674 0.949 . S
H670 C676 0.950 . S
H671 C677 0.950 . S
H672 C678 0.949 . S
C673 H668 0.950 . S
C673 C675 1.327 . S
C673 C679 1.429 . S
C674 C666 1.574 . S
C674 H669 0.949 . S
C674 C680 1.368 1_556 S
C675 C659 1.349 . S
C675 H667 0.950 . S
C675 C673 1.327 . S
C676 C664 1.349 1_556 S
C676 H670 0.950 . S
C676 C677 1.327 . S
C677 H671 0.950 . S
C677 C676 1.327 . S
C677 C681 1.429 1_556 S
C678 C661 1.574 . S
C678 H672 0.949 . S
C678 C682 1.368 . S
C679 C660 1.429 1_554 S
C679 C673 1.429 . S
C679 C680 1.523 . S
C680 C661 1.368 . S
C680 C674 1.368 1_554 S
C680 C679 1.523 . S
C681 C665 1.429 . S
C681 C677 1.429 1_554 S
C681 C682 1.523 . S
C682 C666 1.368 1_554 S
C682 C678 1.368 . S
C682 C681 1.523 . S
H683 C658 0.950 . S
H684 C660 0.950 . S
H685 C661 0.949 . S
H686 C663 0.950 . S
H687 C665 0.950 . S
C688 C689 1.349 . S
C688 C690 1.327 . S
C688 H713 0.950 . S
C689 C688 1.349 . S
C689 C705 1.349 . S
C690 C688 1.327 . S
C690 C709 1.429 . S
C690 H714 0.950 . S
C691 C708 1.574 . S
C691 C710 1.368 . S
C691 H715 0.949 . S
H692 C696 0.949 . S
C693 C694 1.349 . S
C693 C695 1.327 . S
C693 H716 0.950 . S
C694 C693 1.349 . S
C694 C706 1.349 . S
C695 C693 1.327 . S
C695 C711 1.429 . S
C695 H717 0.950 . S
C696 H692 0.949 . S
C696 C704 1.574 . S
C696 C712 1.368 . S
H697 C705 0.950 . S
H698 C703 0.950 . S
H699 C704 0.949 . S
H700 C706 0.950 . S
H701 C707 0.950 . S
H702 C708 0.949 . S
C703 H698 0.950 . S
C703 C705 1.327 . S
C703 C709 1.429 . S
C704 C696 1.574 . S
C704 H699 0.949 . S
C704 C710 1.368 . S
C705 C689 1.349 . S
C705 H697 0.950 . S
C705 C703 1.327 . S
C706 C694 1.349 . S
C706 H700 0.950 . S
C706 C707 1.327 . S
C707 H701 0.950 . S
C707 C706 1.327 . S
C707 C711 1.429 . S
C708 C691 1.574 . S
C708 H702 0.949 . S
C708 C712 1.368 . S
C709 C690 1.429 . S
C709 C703 1.429 . S
C709 C710 1.523 . S
C710 C691 1.368 . S
C710 C704 1.368 . S
C710 C709 1.523 . S
C711 C695 1.429 . S
C711 C707 1.429 . S
C711 C712 1.523 . S
C712 C696 1.368 . S
C712 C708 1.368 . S
C712 C711 1.523 . S
H713 C688 0.950 . S
H714 C690 0.950 . S
H715 C691 0.949 . S
H716 C693 0.950 . S
H717 C695 0.950 . S
C718 C719 1.349 . S
C718 C720 1.327 . S
C718 H743 0.950 . S
C719 C718 1.349 . S
C719 C735 1.349 . S
C720 C718 1.327 . S
C720 C739 1.429 . S
C720 H744 0.950 . S
C721 C738 1.574 . S
C721 C740 1.368 . S
C721 H745 0.949 . S
H722 C726 0.949 . S
C723 C724 1.349 . S
C723 C725 1.327 . S
C723 H746 0.950 . S
C724 C723 1.349 . S
C724 C736 1.349 . S
C725 C723 1.327 . S
C725 C741 1.429 . S
C725 H747 0.950 . S
C726 H722 0.949 . S
C726 C734 1.574 . S
C726 C742 1.368 . S
H727 C735 0.950 . S
H728 C733 0.950 . S
H729 C734 0.949 . S
H730 C736 0.950 . S
H731 C737 0.950 . S
H732 C738 0.949 . S
C733 H728 0.950 . S
C733 C735 1.327 . S
C733 C739 1.429 . S
C734 C726 1.574 . S
C734 H729 0.949 . S
C734 C740 1.368 . S
C735 C719 1.349 . S
C735 H727 0.950 . S
C735 C733 1.327 . S
C736 C724 1.349 . S
C736 H730 0.950 . S
C736 C737 1.327 . S
C737 H731 0.950 . S
C737 C736 1.327 . S
C737 C741 1.429 . S
C738 C721 1.574 . S
C738 H732 0.949 . S
C738 C742 1.368 . S
C739 C720 1.429 . S
C739 C733 1.429 . S
C739 C740 1.523 . S
C740 C721 1.368 . S
C740 C734 1.368 . S
C740 C739 1.523 . S
C741 C725 1.429 . S
C741 C737 1.429 . S
C741 C742 1.523 . S
C742 C726 1.368 . S
C742 C738 1.368 . S
C742 C741 1.523 . S
H743 C718 0.950 . S
H744 C720 0.950 . S
H745 C721 0.949 . S
H746 C723 0.950 . S
H747 C725 0.950 . S
C748 C749 1.349 . S
C748 C750 1.327 . S
C748 H773 0.950 . S
C749 C748 1.349 . S
C749 C765 1.349 . S
C750 C748 1.327 . S
C750 C769 1.429 . S
C750 H774 0.950 . S
C751 C768 1.574 1_455 S
C751 C770 1.368 . S
C751 H775 0.949 . S
H752 C756 0.949 . S
C753 C754 1.349 . S
C753 C755 1.327 . S
C753 H776 0.950 . S
C754 C753 1.349 . S
C754 C766 1.349 . S
C755 C753 1.327 . S
C755 C771 1.429 . S
C755 H777 0.950 . S
C756 H752 0.949 . S
C756 C764 1.574 1_655 S
C756 C772 1.368 . S
H757 C765 0.950 . S
H758 C763 0.950 . S
H759 C764 0.949 . S
H760 C766 0.950 . S
H761 C767 0.950 . S
H762 C768 0.949 . S
C763 H758 0.950 . S
C763 C765 1.327 . S
C763 C769 1.429 . S
C764 C756 1.574 1_455 S
C764 H759 0.949 . S
C764 C770 1.368 . S
C765 C749 1.349 . S
C765 H757 0.950 . S
C765 C763 1.327 . S
C766 C754 1.349 . S
C766 H760 0.950 . S
C766 C767 1.327 . S
C767 H761 0.950 . S
C767 C766 1.327 . S
C767 C771 1.429 . S
C768 C751 1.574 1_655 S
C768 H762 0.949 . S
C768 C772 1.368 . S
C769 C750 1.429 . S
C769 C763 1.429 . S
C769 C770 1.523 . S
C770 C751 1.368 . S
C770 C764 1.368 . S
C770 C769 1.523 . S
C771 C755 1.429 . S
C771 C767 1.429 . S
C771 C772 1.523 . S
C772 C756 1.368 . S
C772 C768 1.368 . S
C772 C771 1.523 . S
H773 C748 0.950 . S
H774 C750 0.950 . S
H775 C751 0.949 . S
H776 C753 0.950 . S
H777 C755 0.950 . S
C778 C779 1.349 1_655 S
C778 C780 1.327 . S
C778 H803 0.950 1_556 S
C779 C778 1.349 1_455 S
C779 C795 1.349 . S
C780 C778 1.327 . S
C780 C799 1.414 1_655 S
C780 H804 0.950 1_556 S
C781 C798 1.574 . S
C781 C800 1.371 . S
C781 H805 0.949 . S
H782 C786 0.949 1_554 S
C783 C784 1.349 1_455 S
C783 C785 1.327 . S
C783 H806 0.950 . S
C784 C783 1.349 1_655 S
C784 C796 1.349 . S
C785 C783 1.327 . S
C785 C801 1.429 1_455 S
C785 H807 0.950 . S
C786 H782 0.949 1_556 S
C786 C794 1.574 . S
C786 C802 1.386 . S
H787 C795 0.950 . S
H788 C793 0.950 . S
H789 C794 0.949 1_554 S
H790 C796 0.950 1_554 S
H791 C797 0.950 1_554 S
H792 C798 0.949 . S
C793 H788 0.950 . S
C793 C795 1.327 . S
C793 C799 1.442 . S
C794 C786 1.574 . S
C794 H789 0.949 1_556 S
C794 C800 1.366 1_655 S
C795 C779 1.349 . S
C795 H787 0.950 . S
C795 C793 1.327 . S
C796 C784 1.349 . S
C796 H790 0.950 1_556 S
C796 C797 1.327 . S
C797 H791 0.950 1_556 S
C797 C796 1.327 . S
C797 C801 1.429 . S
C798 C781 1.574 . S
C798 H792 0.949 . S
C798 C802 1.352 1_455 S
C799 C780 1.414 1_455 S
C799 C793 1.442 . S
C799 C800 1.524 . S
C800 C781 1.371 . S
C800 C794 1.366 1_455 S
C800 C799 1.524 . S
C801 C785 1.429 1_655 S
C801 C797 1.429 . S
C801 C802 1.522 . S
C802 C786 1.386 . S
C802 C798 1.352 1_655 S
C802 C801 1.522 . S
H803 C778 0.950 1_554 S
H804 C780 0.950 1_554 S
H805 C781 0.949 . S
H806 C783 0.950 . S
H807 C785 0.950 . S
C808 C809 1.349 . S
C808 C810 1.327 . S
C808 H833 0.950 . S
C809 C808 1.349 . S
C809 C825 1.349 . S
C810 C808 1.327 . S
C810 C829 1.429 . S
C810 H834 0.950 . S
C811 C828 1.574 . S
C811 C830 1.368 . S
C811 H835 0.949 . S
H812 C816 0.949 . S
C813 C814 1.349 . S
C813 C815 1.327 . S
C813 H836 0.950 . S
C814 C813 1.349 . S
C814 C826 1.349 . S
C815 C813 1.327 . S
C815 C831 1.429 . S
C815 H837 0.950 . S
C816 H812 0.949 . S
C816 C824 1.574 . S
C816 C832 1.368 . S
H817 C825 0.950 . S
H818 C823 0.950 . S
H819 C824 0.949 . S
H820 C826 0.950 . S
H821 C827 0.950 . S
H822 C828 0.949 . S
C823 H818 0.950 . S
C823 C825 1.327 . S
C823 C829 1.429 . S
C824 C816 1.574 . S
C824 H819 0.949 . S
C824 C830 1.368 . S
C825 C809 1.349 . S
C825 H817 0.950 . S
C825 C823 1.327 . S
C826 C814 1.349 . S
C826 H820 0.950 . S
C826 C827 1.327 . S
C827 H821 0.950 . S
C827 C826 1.327 . S
C827 C831 1.429 . S
C828 C811 1.574 . S
C828 H822 0.949 . S
C828 C832 1.368 . S
C829 C810 1.429 . S
C829 C823 1.429 . S
C829 C830 1.523 . S
C830 C811 1.368 . S
C830 C824 1.368 . S
C830 C829 1.523 . S
C831 C815 1.429 . S
C831 C827 1.429 . S
C831 C832 1.523 . S
C832 C816 1.368 . S
C832 C828 1.368 . S
C832 C831 1.523 . S
H833 C808 0.950 . S
H834 C810 0.950 . S
H835 C811 0.949 . S
H836 C813 0.950 . S
H837 C815 0.950 . S
C838 C839 1.349 . S
C838 C840 1.327 . S
C838 H863 0.950 . S
C839 C838 1.349 . S
C839 C855 1.349 . S
C840 C838 1.327 . S
C840 C859 1.429 . S
C840 H864 0.950 . S
C841 C858 1.574 1_545 S
C841 C860 1.368 . S
C841 H865 0.949 . S
H842 C846 0.949 . S
C843 C844 1.349 . S
C843 C845 1.327 . S
C843 H866 0.950 . S
C844 C843 1.349 . S
C844 C856 1.349 . S
C845 C843 1.327 . S
C845 C861 1.429 . S
C845 H867 0.950 . S
C846 H842 0.949 . S
C846 C854 1.574 1_565 S
C846 C862 1.368 . S
H847 C855 0.950 . S
H848 C853 0.950 . S
H849 C854 0.949 . S
H850 C856 0.950 . S
H851 C857 0.950 . S
H852 C858 0.949 . S
C853 H848 0.950 . S
C853 C855 1.327 . S
C853 C859 1.429 . S
C854 C846 1.574 1_545 S
C854 H849 0.949 . S
C854 C860 1.368 . S
C855 C839 1.349 . S
C855 H847 0.950 . S
C855 C853 1.327 . S
C856 C844 1.349 . S
C856 H850 0.950 . S
C856 C857 1.327 . S
C857 H851 0.950 . S
C857 C856 1.327 . S
C857 C861 1.429 . S
C858 C841 1.574 1_565 S
C858 H852 0.949 . S
C858 C862 1.368 . S
C859 C840 1.429 . S
C859 C853 1.429 . S
C859 C860 1.523 . S
C860 C841 1.368 . S
C860 C854 1.368 . S
C860 C859 1.523 . S
C861 C845 1.429 . S
C861 C857 1.429 . S
C861 C862 1.523 . S
C862 C846 1.368 . S
C862 C858 1.368 . S
C862 C861 1.523 . S
H863 C838 0.950 . S
H864 C840 0.950 . S
H865 C841 0.949 . S
H866 C843 0.950 . S
H867 C845 0.950 . S
C868 C869 1.351 1_554 S
C868 C870 1.327 . S
C868 H893 0.950 . S
C869 C868 1.351 1_556 S
C869 C885 1.347 . S
C870 C868 1.327 . S
C870 C889 1.429 1_554 S
C870 H894 0.950 . S
C871 C888 1.574 . S
C871 C890 1.368 . S
C871 H895 0.949 . S
H872 C876 0.949 . S
C873 C874 1.349 . S
C873 C875 1.327 . S
C873 H896 0.950 . S
C874 C873 1.349 . S
C874 C886 1.349 1_556 S
C875 C873 1.327 . S
C875 C891 1.429 . S
C875 H897 0.950 . S
C876 H872 0.949 . S
C876 C884 1.574 . S
C876 C892 1.368 1_554 S
H877 C885 0.950 . S
H878 C883 0.950 . S
H879 C884 0.949 . S
H880 C886 0.950 . S
H881 C887 0.950 . S
H882 C888 0.949 . S
C883 H878 0.950 . S
C883 C885 1.327 . S
C883 C889 1.429 . S
C884 C876 1.574 . S
C884 H879 0.949 . S
C884 C890 1.368 1_554 S
C885 C869 1.347 . S
C885 H877 0.950 . S
C885 C883 1.327 . S
C886 C874 1.349 1_554 S
C886 H880 0.950 . S
C886 C887 1.327 . S
C887 H881 0.950 . S
C887 C886 1.327 . S
C887 C891 1.429 1_554 S
C888 C871 1.574 . S
C888 H882 0.949 . S
C888 C892 1.368 . S
C889 C870 1.429 1_556 S
C889 C883 1.429 . S
C889 C890 1.523 . S
C890 C871 1.368 . S
C890 C884 1.368 1_556 S
C890 C889 1.523 . S
C891 C875 1.429 . S
C891 C887 1.429 1_556 S
C891 C892 1.523 . S
C892 C876 1.368 1_556 S
C892 C888 1.368 . S
C892 C891 1.523 . S
H893 C868 0.950 . S
H894 C870 0.950 . S
H895 C871 0.949 . S
H896 C873 0.950 . S
H897 C875 0.950 . S
C898 C899 1.349 . S
C898 C900 1.327 . S
C898 H923 0.950 . S
C899 C898 1.349 . S
C899 C915 1.349 . S
C900 C898 1.327 . S
C900 C919 1.429 . S
C900 H924 0.950 . S
C901 C918 1.574 1_545 S
C901 C920 1.368 . S
C901 H925 0.949 . S
H902 C906 0.949 1_565 S
C903 C904 1.349 . S
C903 C905 1.327 . S
C903 H926 0.950 . S
C904 C903 1.349 . S
C904 C916 1.349 . S
C905 C903 1.327 . S
C905 C921 1.429 . S
C905 H927 0.950 . S
C906 H902 0.949 1_545 S
C906 C914 1.574 . S
C906 C922 1.368 1_545 S
H907 C915 0.950 . S
H908 C913 0.950 . S
H909 C914 0.949 . S
H910 C916 0.950 . S
H911 C917 0.950 . S
H912 C918 0.949 . S
C913 H908 0.950 . S
C913 C915 1.327 . S
C913 C919 1.429 . S
C914 C906 1.574 . S
C914 H909 0.949 . S
C914 C920 1.368 . S
C915 C899 1.349 . S
C915 H907 0.950 . S
C915 C913 1.327 . S
C916 C904 1.349 . S
C916 H910 0.950 . S
C916 C917 1.327 . S
C917 H911 0.950 . S
C917 C916 1.327 . S
C917 C921 1.429 . S
C918 C901 1.574 1_565 S
C918 H912 0.949 . S
C918 C922 1.368 . S
C919 C900 1.429 . S
C919 C913 1.429 . S
C919 C920 1.523 . S
C920 C901 1.368 . S
C920 C914 1.368 . S
C920 C919 1.523 . S
C921 C905 1.429 . S
C921 C917 1.429 . S
C921 C922 1.523 . S
C922 C906 1.368 1_565 S
C922 C918 1.368 . S
C922 C921 1.523 . S
H923 C898 0.950 . S
H924 C900 0.950 . S
H925 C901 0.949 . S
H926 C903 0.950 . S
H927 C905 0.950 . S
C928 C929 1.349 . S
C928 C930 1.327 . S
C928 H953 0.950 . S
C929 C928 1.349 . S
C929 C945 1.349 1_556 S
C930 C928 1.327 . S
C930 C949 1.429 . S
C930 H954 0.950 . S
C931 C948 1.574 . S
C931 C950 1.368 1_554 S
C931 H955 0.949 . S
H932 C936 0.949 . S
C933 C934 1.349 1_554 S
C933 C935 1.327 . S
C933 H956 0.950 . S
C934 C933 1.349 1_556 S
C934 C946 1.349 . S
C935 C933 1.327 . S
C935 C951 1.429 1_554 S
C935 H957 0.950 . S
C936 H932 0.949 . S
C936 C944 1.574 . S
C936 C952 1.368 . S
H937 C945 0.950 . S
H938 C943 0.950 . S
H939 C944 0.949 . S
H940 C946 0.950 . S
H941 C947 0.950 . S
H942 C948 0.949 . S
C943 H938 0.950 . S
C943 C945 1.327 . S
C943 C949 1.429 1_554 S
C944 C936 1.574 . S
C944 H939 0.949 . S
C944 C950 1.368 . S
C945 C929 1.349 1_554 S
C945 H937 0.950 . S
C945 C943 1.327 . S
C946 C934 1.349 . S
C946 H940 0.950 . S
C946 C947 1.327 . S
C947 H941 0.950 . S
C947 C946 1.327 . S
C947 C951 1.429 . S
C948 C931 1.574 . S
C948 H942 0.949 . S
C948 C952 1.368 1_554 S
C949 C930 1.429 . S
C949 C943 1.429 1_556 S
C949 C950 1.523 . S
C950 C931 1.368 1_556 S
C950 C944 1.368 . S
C950 C949 1.523 . S
C951 C935 1.429 1_556 S
C951 C947 1.429 . S
C951 C952 1.523 . S
C952 C936 1.368 . S
C952 C948 1.368 1_556 S
C952 C951 1.523 . S
H953 C928 0.950 . S
H954 C930 0.950 . S
H955 C931 0.949 . S
H956 C933 0.950 . S
H957 C935 0.950 . S
C958 C959 1.349 . S
C958 C960 1.327 . S
C958 H983 0.950 . S
C959 C958 1.349 . S
C959 C975 1.349 . S
C960 C958 1.327 . S
C960 C979 1.429 . S
C960 H984 0.950 . S
C961 C978 1.574 . S
C961 C980 1.368 . S
C961 H985 0.949 . S
H962 C966 0.949 . S
C963 C964 1.349 . S
C963 C965 1.327 . S
C963 H986 0.950 . S
C964 C963 1.349 . S
C964 C976 1.349 . S
C965 C963 1.327 . S
C965 C981 1.429 . S
C965 H987 0.950 . S
C966 H962 0.949 . S
C966 C974 1.574 . S
C966 C982 1.368 . S
H967 C975 0.950 . S
H968 C973 0.950 . S
H969 C974 0.949 . S
H970 C976 0.950 . S
H971 C977 0.950 . S
H972 C978 0.949 . S
C973 H968 0.950 . S
C973 C975 1.327 . S
C973 C979 1.429 . S
C974 C966 1.574 . S
C974 H969 0.949 . S
C974 C980 1.368 . S
C975 C959 1.349 . S
C975 H967 0.950 . S
C975 C973 1.327 . S
C976 C964 1.349 . S
C976 H970 0.950 . S
C976 C977 1.327 . S
C977 H971 0.950 . S
C977 C976 1.327 . S
C977 C981 1.429 . S
C978 C961 1.574 . S
C978 H972 0.949 . S
C978 C982 1.368 . S
C979 C960 1.429 . S
C979 C973 1.429 . S
C979 C980 1.523 . S
C980 C961 1.368 . S
C980 C974 1.368 . S
C980 C979 1.523 . S
C981 C965 1.429 . S
C981 C977 1.429 . S
C981 C982 1.523 . S
C982 C966 1.368 . S
C982 C978 1.368 . S
C982 C981 1.523 . S
H983 C958 0.950 . S
H984 C960 0.950 . S
H985 C961 0.949 . S
H986 C963 0.950 . S
H987 C965 0.950 . S
C988 C989 1.349 . S
C988 C990 1.327 . S
C988 H1013 0.950 . S
C989 C988 1.349 . S
C989 C1005 1.349 . S
C990 C988 1.327 . S
C990 C1009 1.429 . S
C990 H1014 0.950 . S
C991 C1008 1.574 . S
C991 C1010 1.368 . S
C991 H1015 0.949 . S
H992 C996 0.949 . S
C993 C994 1.349 . S
C993 C995 1.327 . S
C993 H1016 0.950 . S
C994 C993 1.349 . S
C994 C1006 1.349 . S
C995 C993 1.327 . S
C995 C1011 1.429 . S
C995 H1017 0.950 . S
C996 H992 0.949 . S
C996 C1004 1.574 . S
C996 C1012 1.368 . S
H997 C1005 0.950 . S
H998 C1003 0.950 . S
H999 C1004 0.949 . S
H1000 C1006 0.950 . S
H1001 C1007 0.950 . S
H1002 C1008 0.949 . S
C1003 H998 0.950 . S
C1003 C1005 1.327 . S
C1003 C1009 1.429 . S
C1004 C996 1.574 . S
C1004 H999 0.949 . S
C1004 C1010 1.368 . S
C1005 C989 1.349 . S
C1005 H997 0.950 . S
C1005 C1003 1.327 . S
C1006 C994 1.349 . S
C1006 H1000 0.950 . S
C1006 C1007 1.327 . S
C1007 H1001 0.950 . S
C1007 C1006 1.327 . S
C1007 C1011 1.429 . S
C1008 C991 1.574 . S
C1008 H1002 0.949 . S
C1008 C1012 1.368 . S
C1009 C990 1.429 . S
C1009 C1003 1.429 . S
C1009 C1010 1.523 . S
C1010 C991 1.368 . S
C1010 C1004 1.368 . S
C1010 C1009 1.523 . S
C1011 C995 1.429 . S
C1011 C1007 1.429 . S
C1011 C1012 1.523 . S
C1012 C996 1.368 . S
C1012 C1008 1.368 . S
C1012 C1011 1.523 . S
H1013 C988 0.950 . S
H1014 C990 0.950 . S
H1015 C991 0.949 . S
H1016 C993 0.950 . S
H1017 C995 0.950 . S
C1018 C1019 1.349 . S
C1018 C1020 1.327 . S
C1018 H1043 0.950 . S
C1019 C1018 1.349 . S
C1019 C1035 1.349 . S
C1020 C1018 1.327 . S
C1020 C1039 1.429 . S
C1020 H1044 0.950 . S
C1021 C1038 1.574 1_556 S
C1021 C1040 1.368 . S
C1021 H1045 0.949 . S
H1022 C1026 0.949 . S
C1023 C1024 1.349 . S
C1023 C1025 1.327 . S
C1023 H1046 0.950 . S
C1024 C1023 1.349 . S
C1024 C1036 1.349 . S
C1025 C1023 1.327 . S
C1025 C1041 1.429 . S
C1025 H1047 0.950 . S
C1026 H1022 0.949 . S
C1026 C1034 1.574 1_554 S
C1026 C1042 1.368 . S
H1027 C1035 0.950 . S
H1028 C1033 0.950 . S
H1029 C1034 0.949 . S
H1030 C1036 0.950 . S
H1031 C1037 0.950 . S
H1032 C1038 0.949 . S
C1033 H1028 0.950 . S
C1033 C1035 1.327 . S
C1033 C1039 1.429 . S
C1034 C1026 1.574 1_556 S
C1034 H1029 0.949 . S
C1034 C1040 1.368 . S
C1035 C1019 1.349 . S
C1035 H1027 0.950 . S
C1035 C1033 1.327 . S
C1036 C1024 1.349 . S
C1036 H1030 0.950 . S
C1036 C1037 1.327 . S
C1037 H1031 0.950 . S
C1037 C1036 1.327 . S
C1037 C1041 1.429 . S
C1038 C1021 1.574 1_554 S
C1038 H1032 0.949 . S
C1038 C1042 1.368 . S
C1039 C1020 1.429 . S
C1039 C1033 1.429 . S
C1039 C1040 1.523 . S
C1040 C1021 1.368 . S
C1040 C1034 1.368 . S
C1040 C1039 1.523 . S
C1041 C1025 1.429 . S
C1041 C1037 1.429 . S
C1041 C1042 1.523 . S
C1042 C1026 1.368 . S
C1042 C1038 1.368 . S
C1042 C1041 1.523 . S
H1043 C1018 0.950 . S
H1044 C1020 0.950 . S
H1045 C1021 0.949 . S
H1046 C1023 0.950 . S
H1047 C1025 0.950 . S
C1048 C1049 1.349 . S
C1048 C1050 1.327 . S
C1048 H1073 0.950 . S
C1049 C1048 1.349 . S
C1049 C1065 1.349 . S
C1050 C1048 1.327 . S
C1050 C1069 1.429 . S
C1050 H1074 0.950 . S
C1051 C1068 1.574 . S
C1051 C1070 1.368 . S
C1051 H1075 0.949 . S
H1052 C1056 0.949 . S
C1053 C1054 1.349 . S
C1053 C1055 1.327 . S
C1053 H1076 0.950 . S
C1054 C1053 1.349 . S
C1054 C1066 1.349 . S
C1055 C1053 1.327 . S
C1055 C1071 1.429 . S
C1055 H1077 0.950 . S
C1056 H1052 0.949 . S
C1056 C1064 1.574 . S
C1056 C1072 1.368 . S
H1057 C1065 0.950 . S
H1058 C1063 0.950 . S
H1059 C1064 0.949 . S
H1060 C1066 0.950 . S
H1061 C1067 0.950 . S
H1062 C1068 0.949 . S
C1063 H1058 0.950 . S
C1063 C1065 1.327 . S
C1063 C1069 1.429 . S
C1064 C1056 1.574 . S
C1064 H1059 0.949 . S
C1064 C1070 1.368 . S
C1065 C1049 1.349 . S
C1065 H1057 0.950 . S
C1065 C1063 1.327 . S
C1066 C1054 1.349 . S
C1066 H1060 0.950 . S
C1066 C1067 1.327 . S
C1067 H1061 0.950 . S
C1067 C1066 1.327 . S
C1067 C1071 1.429 . S
C1068 C1051 1.574 . S
C1068 H1062 0.949 . S
C1068 C1072 1.368 . S
C1069 C1050 1.429 . S
C1069 C1063 1.429 . S
C1069 C1070 1.523 . S
C1070 C1051 1.368 . S
C1070 C1064 1.368 . S
C1070 C1069 1.523 . S
C1071 C1055 1.429 . S
C1071 C1067 1.429 . S
C1071 C1072 1.523 . S
C1072 C1056 1.368 . S
C1072 C1068 1.368 . S
C1072 C1071 1.523 . S
H1073 C1048 0.950 . S
H1074 C1050 0.950 . S
H1075 C1051 0.949 . S
H1076 C1053 0.950 . S
H1077 C1055 0.950 . S
C1078 C1079 1.349 . S
C1078 C1080 1.327 . S
C1078 H1103 0.950 . S
C1079 C1078 1.349 . S
C1079 C1095 1.349 . S
C1080 C1078 1.327 . S
C1080 C1099 1.429 . S
C1080 H1104 0.950 . S
C1081 C1098 1.574 . S
C1081 C1100 1.368 . S
C1081 H1105 0.949 . S
H1082 C1086 0.949 . S
C1083 C1084 1.349 . S
C1083 C1085 1.327 . S
C1083 H1106 0.950 . S
C1084 C1083 1.349 . S
C1084 C1096 1.349 . S
C1085 C1083 1.327 . S
C1085 C1101 1.429 . S
C1085 H1107 0.950 . S
C1086 H1082 0.949 . S
C1086 C1094 1.574 . S
C1086 C1102 1.368 . S
H1087 C1095 0.950 . S
H1088 C1093 0.950 . S
H1089 C1094 0.949 . S
H1090 C1096 0.950 . S
H1091 C1097 0.950 . S
H1092 C1098 0.949 . S
C1093 H1088 0.950 . S
C1093 C1095 1.327 . S
C1093 C1099 1.429 . S
C1094 C1086 1.574 . S
C1094 H1089 0.949 . S
C1094 C1100 1.368 . S
C1095 C1079 1.349 . S
C1095 H1087 0.950 . S
C1095 C1093 1.327 . S
C1096 C1084 1.349 . S
C1096 H1090 0.950 . S
C1096 C1097 1.327 . S
C1097 H1091 0.950 . S
C1097 C1096 1.327 . S
C1097 C1101 1.429 . S
C1098 C1081 1.574 . S
C1098 H1092 0.949 . S
C1098 C1102 1.368 . S
C1099 C1080 1.429 . S
C1099 C1093 1.429 . S
C1099 C1100 1.523 . S
C1100 C1081 1.368 . S
C1100 C1094 1.368 . S
C1100 C1099 1.523 . S
C1101 C1085 1.429 . S
C1101 C1097 1.429 . S
C1101 C1102 1.523 . S
C1102 C1086 1.368 . S
C1102 C1098 1.368 . S
C1102 C1101 1.523 . S
H1103 C1078 0.950 . S
H1104 C1080 0.950 . S
H1105 C1081 0.949 . S
H1106 C1083 0.950 . S
H1107 C1085 0.950 . S
C1108 C1109 1.349 1_655 S
C1108 C1110 1.327 . S
C1108 H1133 0.950 . S
C1109 C1108 1.349 1_455 S
C1109 C1125 1.349 . S
C1110 C1108 1.327 . S
C1110 C1129 1.429 1_655 S
C1110 H1134 0.950 . S
C1111 C1128 1.574 . S
C1111 C1130 1.368 . S
C1111 H1135 0.949 . S
H1112 C1116 0.949 . S
C1113 C1114 1.349 . S
C1113 C1115 1.327 . S
C1113 H1136 0.950 . S
C1114 C1113 1.349 . S
C1114 C1126 1.349 1_455 S
C1115 C1113 1.327 . S
C1115 C1131 1.429 . S
C1115 H1137 0.950 . S
C1116 H1112 0.949 . S
C1116 C1124 1.574 . S
C1116 C1132 1.368 1_655 S
H1117 C1125 0.950 . S
H1118 C1123 0.950 . S
H1119 C1124 0.949 . S
H1120 C1126 0.950 . S
H1121 C1127 0.950 . S
H1122 C1128 0.949 . S
C1123 H1118 0.950 . S
C1123 C1125 1.327 . S
C1123 C1129 1.429 . S
C1124 C1116 1.574 . S
C1124 H1119 0.949 . S
C1124 C1130 1.368 1_655 S
C1125 C1109 1.349 . S
C1125 H1117 0.950 . S
C1125 C1123 1.327 . S
C1126 C1114 1.349 1_655 S
C1126 H1120 0.950 . S
C1126 C1127 1.327 . S
C1127 H1121 0.950 . S
C1127 C1126 1.327 . S
C1127 C1131 1.429 1_655 S
C1128 C1111 1.574 . S
C1128 H1122 0.949 . S
C1128 C1132 1.368 . S
C1129 C1110 1.429 1_455 S
C1129 C1123 1.429 . S
C1129 C1130 1.523 . S
C1130 C1111 1.368 . S
C1130 C1124 1.368 1_455 S
C1130 C1129 1.523 . S
C1131 C1115 1.429 . S
C1131 C1127 1.429 1_455 S
C1131 C1132 1.523 . S
C1132 C1116 1.368 1_455 S
C1132 C1128 1.368 . S
C1132 C1131 1.523 . S
H1133 C1108 0.950 . S
H1134 C1110 0.950 . S
H1135 C1111 0.949 . S
H1136 C1113 0.950 . S
H1137 C1115 0.950 . S
C1138 C1139 1.349 . S
C1138 C1140 1.327 . S
C1138 H1163 0.950 . S
C1139 C1138 1.349 . S
C1139 C1155 1.349 1_545 S
C1140 C1138 1.327 . S
C1140 C1159 1.429 . S
C1140 H1164 0.950 . S
C1141 C1158 1.574 . S
C1141 C1160 1.368 1_565 S
C1141 H1165 0.949 . S
H1142 C1146 0.949 . S
C1143 C1144 1.349 1_565 S
C1143 C1145 1.327 . S
C1143 H1166 0.950 . S
C1144 C1143 1.349 1_545 S
C1144 C1156 1.349 . S
C1145 C1143 1.327 . S
C1145 C1161 1.429 1_565 S
C1145 H1167 0.950 . S
C1146 H1142 0.949 . S
C1146 C1154 1.574 . S
C1146 C1162 1.368 . S
H1147 C1155 0.950 . S
H1148 C1153 0.950 . S
H1149 C1154 0.949 . S
H1150 C1156 0.950 . S
H1151 C1157 0.950 . S
H1152 C1158 0.949 . S
C1153 H1148 0.950 . S
C1153 C1155 1.327 . S
C1153 C1159 1.429 1_565 S
C1154 C1146 1.574 . S
C1154 H1149 0.949 . S
C1154 C1160 1.368 . S
C1155 C1139 1.349 1_565 S
C1155 H1147 0.950 . S
C1155 C1153 1.327 . S
C1156 C1144 1.349 . S
C1156 H1150 0.950 . S
C1156 C1157 1.327 . S
C1157 H1151 0.950 . S
C1157 C1156 1.327 . S
C1157 C1161 1.429 . S
C1158 C1141 1.574 . S
C1158 H1152 0.949 . S
C1158 C1162 1.368 1_565 S
C1159 C1140 1.429 . S
C1159 C1153 1.429 1_545 S
C1159 C1160 1.523 . S
C1160 C1141 1.368 1_545 S
C1160 C1154 1.368 . S
C1160 C1159 1.523 . S
C1161 C1145 1.429 1_545 S
C1161 C1157 1.429 . S
C1161 C1162 1.523 . S
C1162 C1146 1.368 . S
C1162 C1158 1.368 1_545 S
C1162 C1161 1.523 . S
H1163 C1138 0.950 . S
H1164 C1140 0.950 . S
H1165 C1141 0.949 . S
H1166 C1143 0.950 . S
H1167 C1145 0.950 . S
C209 C0 1.789 . S
C214 C91 1.809 . S
C239 C13 1.750 . S
C244 C52 1.749 . S
C269 C65 1.777 . S
C274 C26 1.766 . S
C299 C39 1.746 . S
C304 C78 1.756 . S
C329 C104 1.749 . S
C334 C156 1.750 . S
C359 C117 1.777 . S
C364 C182 1.766 . S
C389 C143 1.746 . S
C394 C130 1.756 . S
C419 C195 1.809 . S
C424 C169 1.789 . S
C449 C5 1.061 . S
C454 C88 1.072 . S
C479 C96 1.013 . S
C484 C21 1.004 1_565 S
C509 C31 1.099 . S
C514 C57 1.110 . S
C539 C70 1.072 . S
C544 C47 1.065 . S
C569 C10 1.171 . S
C574 C192 1.170 . S
C599 C148 1.088 1_655 S
C604 C18 1.092 . S
C629 C179 1.171 . S
C634 C36 1.170 . S
C659 C161 1.092 . S
C664 C44 1.088 . S
C689 C138 1.116 . S
C694 C62 1.136 . S
C719 C75 1.141 . S
C724 C205 1.139 . S
C749 C86 1.116 . S
C754 C114 1.136 . S
C779 C101 1.139 1_455 S
C784 C127 1.141 1_655 S
C809 C8 1.047 . S
C814 C60 1.046 . S
C839 C112 1.046 . S
C844 C177 1.047 . S
C869 C166 1.053 1_556 S
C874 C125 1.039 . S
C899 C190 0.975 . S
C904 C135 0.981 . S
C929 C99 1.127 . S
C934 C49 1.144 1_556 S
C959 C34 0.975 . S
C964 C83 0.981 . S
C989 C153 1.144 . S
C994 C203 1.127 . S
C1019 C174 1.061 . S
C1024 C140 1.072 . S
C1049 C200 1.013 . S
C1054 C164 1.004 . S
C1079 C187 1.099 . S
C1084 C109 1.110 . S
C1109 C151 1.065 . S
C1114 C122 1.072 . S
C1139 C23 1.052 . S
C1144 C73 1.039 . S
