# Generated by pormake.
# Topology wfw, (7)-cn, num edge types: 1
# Building blocks:
#     Node 0, Type 0, BuildingBlock: HICVOG_clean_sbu_0, # of connection points: 7
#     Node 1, Type 0, BuildingBlock: HICVOG_clean_sbu_0, # of connection points: 7
#     Node 2, Type 0, BuildingBlock: HICVOG_clean_sbu_0, # of connection points: 7
#     Node 3, Type 0, BuildingBlock: HICVOG_clean_sbu_0, # of connection points: 7
#     Node 4, Type 0, BuildingBlock: HICVOG_clean_sbu_0, # of connection points: 7
#     Node 5, Type 0, BuildingBlock: HICVOG_clean_sbu_0, # of connection points: 7
#     Node 6, Type 0, BuildingBlock: HICVOG_clean_sbu_0, # of connection points: 7
#     Node 7, Type 0, BuildingBlock: HICVOG_clean_sbu_0, # of connection points: 7
#     Node 8, Type 0, BuildingBlock: HICVOG_clean_sbu_0, # of connection points: 7
#     Node 9, Type 0, BuildingBlock: HICVOG_clean_sbu_0, # of connection points: 7
#     Node 10, Type 0, BuildingBlock: HICVOG_clean_sbu_0, # of connection points: 7
#     Node 11, Type 0, BuildingBlock: HICVOG_clean_sbu_0, # of connection points: 7
#     Node 12, Type 0, BuildingBlock: HICVOG_clean_sbu_0, # of connection points: 7
#     Node 13, Type 0, BuildingBlock: HICVOG_clean_sbu_0, # of connection points: 7
#     Node 14, Type 0, BuildingBlock: HICVOG_clean_sbu_0, # of connection points: 7
#     Node 15, Type 0, BuildingBlock: HICVOG_clean_sbu_0, # of connection points: 7
#     Edge 16, Type (0, 0), BuildingBlock: OJICUG_clean_linker_0, # of connection points: 2
#     Edge 17, Type (0, 0), BuildingBlock: OJICUG_clean_linker_0, # of connection points: 2
#     Edge 18, Type (0, 0), BuildingBlock: OJICUG_clean_linker_0, # of connection points: 2
#     Edge 19, Type (0, 0), BuildingBlock: OJICUG_clean_linker_0, # of connection points: 2
#     Edge 20, Type (0, 0), BuildingBlock: OJICUG_clean_linker_0, # of connection points: 2
#     Edge 21, Type (0, 0), BuildingBlock: OJICUG_clean_linker_0, # of connection points: 2
#     Edge 22, Type (0, 0), BuildingBlock: OJICUG_clean_linker_0, # of connection points: 2
#     Edge 23, Type (0, 0), BuildingBlock: OJICUG_clean_linker_0, # of connection points: 2
#     Edge 24, Type (0, 0), BuildingBlock: OJICUG_clean_linker_0, # of connection points: 2
#     Edge 25, Type (0, 0), BuildingBlock: OJICUG_clean_linker_0, # of connection points: 2
#     Edge 26, Type (0, 0), BuildingBlock: OJICUG_clean_linker_0, # of connection points: 2
#     Edge 27, Type (0, 0), BuildingBlock: OJICUG_clean_linker_0, # of connection points: 2
#     Edge 28, Type (0, 0), BuildingBlock: OJICUG_clean_linker_0, # of connection points: 2
#     Edge 29, Type (0, 0), BuildingBlock: OJICUG_clean_linker_0, # of connection points: 2
#     Edge 30, Type (0, 0), BuildingBlock: OJICUG_clean_linker_0, # of connection points: 2
#     Edge 31, Type (0, 0), BuildingBlock: OJICUG_clean_linker_0, # of connection points: 2
#     Edge 32, Type (0, 0), BuildingBlock: OJICUG_clean_linker_0, # of connection points: 2
#     Edge 33, Type (0, 0), BuildingBlock: OJICUG_clean_linker_0, # of connection points: 2
#     Edge 34, Type (0, 0), BuildingBlock: OJICUG_clean_linker_0, # of connection points: 2
#     Edge 35, Type (0, 0), BuildingBlock: OJICUG_clean_linker_0, # of connection points: 2
#     Edge 36, Type (0, 0), BuildingBlock: OJICUG_clean_linker_0, # of connection points: 2
#     Edge 37, Type (0, 0), BuildingBlock: OJICUG_clean_linker_0, # of connection points: 2
#     Edge 38, Type (0, 0), BuildingBlock: OJICUG_clean_linker_0, # of connection points: 2
#     Edge 39, Type (0, 0), BuildingBlock: OJICUG_clean_linker_0, # of connection points: 2
#     Edge 40, Type (0, 0), BuildingBlock: OJICUG_clean_linker_0, # of connection points: 2
#     Edge 41, Type (0, 0), BuildingBlock: OJICUG_clean_linker_0, # of connection points: 2
#     Edge 42, Type (0, 0), BuildingBlock: OJICUG_clean_linker_0, # of connection points: 2
#     Edge 43, Type (0, 0), BuildingBlock: OJICUG_clean_linker_0, # of connection points: 2
#     Edge 44, Type (0, 0), BuildingBlock: OJICUG_clean_linker_0, # of connection points: 2
#     Edge 45, Type (0, 0), BuildingBlock: OJICUG_clean_linker_0, # of connection points: 2
#     Edge 46, Type (0, 0), BuildingBlock: OJICUG_clean_linker_0, # of connection points: 2
#     Edge 47, Type (0, 0), BuildingBlock: OJICUG_clean_linker_0, # of connection points: 2
#     Edge 48, Type (0, 0), BuildingBlock: OJICUG_clean_linker_0, # of connection points: 2
#     Edge 49, Type (0, 0), BuildingBlock: OJICUG_clean_linker_0, # of connection points: 2
#     Edge 50, Type (0, 0), BuildingBlock: OJICUG_clean_linker_0, # of connection points: 2
#     Edge 51, Type (0, 0), BuildingBlock: OJICUG_clean_linker_0, # of connection points: 2
#     Edge 52, Type (0, 0), BuildingBlock: OJICUG_clean_linker_0, # of connection points: 2
#     Edge 53, Type (0, 0), BuildingBlock: OJICUG_clean_linker_0, # of connection points: 2
#     Edge 54, Type (0, 0), BuildingBlock: OJICUG_clean_linker_0, # of connection points: 2
#     Edge 55, Type (0, 0), BuildingBlock: OJICUG_clean_linker_0, # of connection points: 2
#     Edge 56, Type (0, 0), BuildingBlock: OJICUG_clean_linker_0, # of connection points: 2
#     Edge 57, Type (0, 0), BuildingBlock: OJICUG_clean_linker_0, # of connection points: 2
#     Edge 58, Type (0, 0), BuildingBlock: OJICUG_clean_linker_0, # of connection points: 2
#     Edge 59, Type (0, 0), BuildingBlock: OJICUG_clean_linker_0, # of connection points: 2
#     Edge 60, Type (0, 0), BuildingBlock: OJICUG_clean_linker_0, # of connection points: 2
#     Edge 61, Type (0, 0), BuildingBlock: OJICUG_clean_linker_0, # of connection points: 2
#     Edge 62, Type (0, 0), BuildingBlock: OJICUG_clean_linker_0, # of connection points: 2
#     Edge 63, Type (0, 0), BuildingBlock: OJICUG_clean_linker_0, # of connection points: 2
#     Edge 64, Type (0, 0), BuildingBlock: OJICUG_clean_linker_0, # of connection points: 2
#     Edge 65, Type (0, 0), BuildingBlock: OJICUG_clean_linker_0, # of connection points: 2
#     Edge 66, Type (0, 0), BuildingBlock: OJICUG_clean_linker_0, # of connection points: 2
#     Edge 67, Type (0, 0), BuildingBlock: OJICUG_clean_linker_0, # of connection points: 2
#     Edge 68, Type (0, 0), BuildingBlock: OJICUG_clean_linker_0, # of connection points: 2
#     Edge 69, Type (0, 0), BuildingBlock: OJICUG_clean_linker_0, # of connection points: 2
#     Edge 70, Type (0, 0), BuildingBlock: OJICUG_clean_linker_0, # of connection points: 2
#     Edge 71, Type (0, 0), BuildingBlock: OJICUG_clean_linker_0, # of connection points: 2
# Relax obj value: 0.103
# Max RMSD: 0.171
# Mean RMSD: 0.171
data_MOF--net-wfw--node1-HICVOG_clean_sbu_0--edge1-OJICUG_clean_linker_0
_symmetry_space_group_name_H-M    P1
_symmetry_Int_Tables_number       1
_symmetry_cell_setting            triclinic
loop_
_symmetry_equiv_pos_as_xyz
'x, y, z'
_cell_length_a     33.836652
_cell_length_b     33.868391
_cell_length_c     27.322202
_cell_angle_alpha  90.085218
_cell_angle_beta   89.965627
_cell_angle_gamma 89.996397
loop_
_atom_site_label
_atom_site_type_symbol
_atom_site_fract_x
_atom_site_fract_y
_atom_site_fract_z
_atom_type_partial_charge
Zn0 Zn 0.58376 0.27238 0.40224 0.0
C1 C 0.59588 0.16555 0.33688 0.0
N2 N 0.61077 0.15649 0.38112 0.0
C3 C 0.60584 0.18969 0.40684 0.0
N4 N 0.5892 0.21838 0.37989 0.0
N5 N 0.58083 0.20298 0.33638 0.0
C6 C 0.55275 0.23455 0.20804 0.0
O7 O 0.57026 0.26197 0.23432 0.0
O8 O 0.57317 0.27334 0.47539 0.0
Zn9 Zn 0.53047 0.21727 0.30333 0.0
N10 N 0.63196 0.30156 0.38966 0.0
C11 C 0.67978 0.32927 0.33568 0.0
C12 C 0.6474 0.30439 0.34387 0.0
C13 C 0.64787 0.32205 0.42751 0.0
N14 N 0.69511 0.3505 0.37352 0.0
C15 C 0.68014 0.34708 0.41954 0.0
O16 O 0.51147 0.27494 0.30815 0.0
C17 C 0.51683 0.30483 0.33565 0.0
O18 O 0.5417 0.30398 0.37028 0.0
H19 H 0.63413 0.28823 0.31391 0.0
H20 H 0.63472 0.31984 0.46343 0.0
C21 C 0.46234 0.16113 0.32266 0.0
C22 C 0.43609 0.14401 0.35696 0.0
C23 C 0.46449 0.18304 0.41999 0.0
C24 C 0.49021 0.19984 0.38638 0.0
N25 N 0.48928 0.18842 0.33866 0.0
N26 N 0.43833 0.15549 0.40461 0.0
H27 H 0.46179 0.15245 0.28453 0.0
C28 C 0.55907 0.30391 0.49625 0.0
O29 O 0.55001 0.33482 0.46951 0.0
O30 O 0.53305 0.20791 0.2301 0.0
H31 H 0.51105 0.22203 0.39829 0.0
H32 H 0.69212 0.33223 0.29933 0.0
H33 H 0.46531 0.19173 0.45809 0.0
Zn34 Zn 0.33756 0.53182 0.30528 0.0
C35 C 0.3573 0.61514 0.40814 0.0
N36 N 0.38801 0.62599 0.38082 0.0
C37 C 0.38366 0.60435 0.33987 0.0
N38 N 0.35116 0.58047 0.34241 0.0
N39 N 0.33448 0.58848 0.38535 0.0
C40 C 0.24975 0.54947 0.4999 0.0
O41 O 0.2206 0.53655 0.47245 0.0
O42 O 0.34882 0.53572 0.23274 0.0
Zn43 Zn 0.28107 0.58038 0.40721 0.0
N44 N 0.36551 0.48915 0.33807 0.0
C45 C 0.37151 0.45965 0.41675 0.0
C46 C 0.35456 0.48744 0.3859 0.0
C47 C 0.39251 0.46318 0.31924 0.0
N48 N 0.39877 0.43433 0.39854 0.0
C49 C 0.40976 0.43494 0.35064 0.0
O50 O 0.24932 0.5416 0.3699 0.0
C51 C 0.24892 0.51866 0.33323 0.0
O52 O 0.27949 0.51374 0.3067 0.0
H53 H 0.33272 0.50781 0.4 0.0
H54 H 0.40088 0.46491 0.28106 0.0
C55 C 0.22212 0.63562 0.42989 0.0
C56 C 0.20189 0.67165 0.4294 0.0
C57 C 0.24536 0.69464 0.3676 0.0
C58 C 0.26552 0.6586 0.3685 0.0
N59 N 0.2537 0.63003 0.40019 0.0
N60 N 0.21437 0.70059 0.3985 0.0
H61 H 0.21386 0.61265 0.45518 0.0
C62 C 0.32541 0.55872 0.21007 0.0
O63 O 0.30026 0.57988 0.23574 0.0
O64 O 0.27901 0.56667 0.47968 0.0
H65 H 0.29067 0.65368 0.34479 0.0
H66 H 0.36321 0.45828 0.45495 0.0
H67 H 0.25467 0.71791 0.34309 0.0
Zn68 Zn 0.97337 0.28275 0.40463 0.0
C69 C 0.95587 0.3854 0.33249 0.0
N70 N 0.93545 0.39442 0.37326 0.0
C71 C 0.94154 0.36272 0.4017 0.0
N72 N 0.96397 0.33522 0.37951 0.0
N73 N 0.97424 0.34975 0.33633 0.0
C74 C 1.00664 0.31426 0.2071 0.0
O75 O 0.99572 0.28349 0.23303 0.0
O76 O 0.97966 0.28293 0.47852 0.0
Zn77 Zn 1.02448 0.33661 0.30272 0.0
N78 N 0.92877 0.24926 0.38826 0.0
C79 C 0.88835 0.21581 0.33011 0.0
C80 C 0.91861 0.24261 0.34084 0.0
C81 C 0.9095 0.23073 0.42526 0.0
N82 N 0.86969 0.19658 0.36723 0.0
C83 C 0.87922 0.20378 0.41478 0.0
O84 O 0.04825 0.28109 0.31128 0.0
C85 C 0.04633 0.2543 0.34376 0.0
O86 O 1.02115 0.25566 0.37811 0.0
H87 H 0.93437 0.25744 0.31171 0.0
H88 H 0.91843 0.23611 0.46263 0.0
C89 C 0.09036 0.39553 0.31392 0.0
C90 C 0.11547 0.41744 0.34503 0.0
C91 C 0.08629 0.38685 0.41425 0.0
C92 C 0.06168 0.36523 0.38371 0.0
N93 N 0.06352 0.37026 0.33439 0.0
N94 N 0.11234 0.41248 0.39429 0.0
H95 H 0.09174 0.39891 0.27458 0.0
C96 C 0.99359 0.25206 0.49885 0.0
O97 O 1.00394 0.22198 0.47126 0.0
O98 O 1.02017 0.34443 0.22941 0.0
H99 H 0.04107 0.34436 0.39927 0.0
H100 H 0.88023 0.20985 0.29253 0.0
H101 H 0.08476 0.38331 0.45355 0.0
Zn102 Zn 0.27394 0.96603 0.41324 0.0
C103 C 0.17363 0.94781 0.33722 0.0
N104 N 0.16499 0.92523 0.37633 0.0
C105 C 0.19586 0.93176 0.40605 0.0
N106 N 0.22242 0.95646 0.38622 0.0
N107 N 0.20802 0.96797 0.34353 0.0
C108 C 0.23826 1.00409 0.21933 0.0
O109 O 0.26885 0.99194 0.2448 0.0
O110 O 0.27121 0.97626 0.48648 0.0
Zn111 Zn 0.21745 1.02119 0.31584 0.0
N112 N 0.30466 0.91858 0.40353 0.0
C113 C 0.33679 0.87183 0.3519 0.0
C114 C 0.31249 0.90492 0.35776 0.0
C115 C 0.31941 0.9001 0.44357 0.0
N116 N 0.35246 0.85401 0.39205 0.0
C117 C 0.34392 0.8671 0.43797 0.0
O118 O 0.27359 0.04369 0.32399 0.0
C119 C 0.30424 0.03703 0.34977 0.0
O120 O 0.30464 1.0098 0.38172 0.0
H121 H 0.30046 0.91996 0.32619 0.0
H122 H 0.31303 0.9117 0.47955 0.0
C123 C 0.16432 0.09167 0.3352 0.0
C124 C 0.1412 0.11439 0.36827 0.0
C125 C 0.15274 0.06655 0.43017 0.0
C126 C 0.17632 0.04517 0.39835 0.0
N127 N 0.18142 0.05731 0.3513 0.0
N128 N 0.13606 0.10043 0.41454 0.0
H129 H 0.16962 0.10166 0.29818 0.0
C130 C 0.302 0.98913 0.50809 0.0
O131 O 0.33343 0.99751 0.48183 0.0
O132 O 0.2089 1.01892 0.24218 0.0
H133 H 0.19104 1.01932 0.41184 0.0
H134 H 0.34369 0.86084 0.31569 0.0
H135 H 0.14834 0.05676 0.46746 0.0
Zn136 Zn 0.03642 0.83941 0.19406 0.0
C137 C 0.12998 0.83435 0.10046 0.0
N138 N 0.14613 0.86205 0.12871 0.0
C139 C 0.12072 0.86501 0.16631 0.0
N140 N 0.08914 0.84006 0.16069 0.0
N141 N 0.0961 0.82036 0.11938 0.0
C142 C 0.04462 0.77606 0.00347 0.0
O143 O 1.02125 0.80255 0.02347 0.0
O144 O 0.04323 0.83915 0.26801 0.0
Zn145 Zn 0.08057 0.7674 0.10235 0.0
N146 N 1.00719 0.88739 0.17259 0.0
C147 C 1.0141 0.94915 0.13144 0.0
C148 C 0.03039 0.91471 0.14994 0.0
C149 C 0.96728 0.89371 0.17719 0.0
N150 N 0.97475 0.95506 0.13523 0.0
C151 C 0.95049 0.92855 0.15739 0.0
O152 O 0.03367 0.74602 0.13719 0.0
C153 C 1.00499 0.75519 0.16485 0.0
O154 O 1.00167 0.7896 0.18361 0.0
H155 H 0.06153 0.91005 0.14558 0.0
H156 H 0.94884 0.87164 0.19445 0.0
C157 C 0.1464 0.72007 0.08003 0.0
C158 C 0.17683 0.69286 0.08829 0.0
C159 C 0.16403 0.6964 0.17349 0.0
C160 C 0.13324 0.72305 0.16488 0.0
N161 N 0.12479 0.73387 0.11818 0.0
N162 N 0.18464 0.6813 0.13498 0.0
H163 H 0.13862 0.72878 0.04322 0.0
C164 C 0.05759 0.80893 0.2892 0.0
O165 O 0.06935 0.77892 0.26237 0.0
O166 O 0.07098 0.75957 0.02943 0.0
H167 H 0.1158 0.73446 0.19492 0.0
H168 H 0.03252 0.97085 0.11347 0.0
H169 H 0.17087 0.68708 0.21038 0.0
Zn170 Zn 0.71628 0.02846 0.18933 0.0
C171 C 0.70204 0.12384 0.10195 0.0
N172 N 0.6721 0.13281 0.13203 0.0
C173 C 0.67558 0.10546 0.16734 0.0
N174 N 0.70682 0.08085 0.15942 0.0
N175 N 0.72321 0.09281 0.1179 0.0
C176 C 0.80626 0.06042 0.99674 0.0
O177 O 0.8377 0.05366 0.02366 0.0
O178 O 0.7087 0.03099 0.26265 0.0
Zn179 Zn 0.77444 0.07993 0.09136 0.0
N180 N 0.67966 0.99345 0.15597 0.0
C181 C 0.65484 0.97862 0.07657 0.0
C182 C 0.68008 0.99976 0.10683 0.0
C183 C 0.65573 0.96537 0.1762 0.0
N184 N 0.6305 0.95134 0.0965 0.0
C185 C 0.63021 0.94372 0.1454 0.0
O186 O 0.80133 0.03282 0.11974 0.0
C187 C 0.80019 1.00572 0.1517 0.0
O188 O 0.77093 1.00224 0.18064 0.0
H189 H 0.69997 1.02122 0.09116 0.0
H190 H 0.65613 0.96046 0.21533 0.0
C191 C 0.82116 0.14575 0.06555 0.0
C192 C 0.84838 0.17638 0.07264 0.0
C193 C 0.84394 0.16654 0.15841 0.0
C194 C 0.81773 0.1352 0.15088 0.0
N195 N 0.80744 0.12512 0.10447 0.0
N196 N 0.85936 0.18583 0.11915 0.0
H197 H 0.81255 0.13687 0.02914 0.0
C198 C 0.73908 0.04439 0.28462 0.0
O199 O 0.76932 0.05624 0.25825 0.0
O200 O 0.77436 0.07116 0.01775 0.0
H201 H 0.8062 0.11865 0.18157 0.0
H202 H 0.65463 0.98372 0.03749 0.0
H203 H 0.85283 0.17472 0.19508 0.0
Zn204 Zn 0.5239 0.71979 0.20227 0.0
C205 C 0.44971 0.68565 0.09742 0.0
N206 N 0.44509 0.65406 0.12658 0.0
C207 C 0.4615 0.66595 0.1689 0.0
N208 N 0.4764 0.70305 0.16538 0.0
N209 N 0.4674 0.71592 0.12098 0.0
C210 C 0.49662 0.80335 0.00611 0.0
O211 O 0.50787 0.83297 0.0339 0.0
O212 O 0.51872 0.71048 0.27599 0.0
Zn213 Zn 0.46957 0.77035 0.09911 0.0
N214 N 0.56728 0.691 0.17162 0.0
C215 C 0.59898 0.68556 0.09409 0.0
C216 C 0.57104 0.70302 0.12439 0.0
C217 C 0.59113 0.66208 0.1903 0.0
N218 N 0.62226 0.65653 0.11212 0.0
C219 C 0.61945 0.64419 0.15935 0.0
O220 O 0.50926 0.80363 0.13287 0.0
C221 C 0.53392 0.80656 0.16757 0.0
O222 O 0.54103 0.77766 0.19592 0.0
H223 H 0.55195 0.72594 0.11026 0.0
H224 H 0.58758 0.65263 0.22787 0.0
C225 C 0.41023 0.82783 0.0836 0.0
C226 C 0.37256 0.84486 0.08634 0.0
C227 C 0.35499 0.79851 0.14747 0.0
C228 C 0.39251 0.78132 0.14414 0.0
N229 N 0.41916 0.79604 0.11168 0.0
N230 N 0.34559 0.82944 0.11793 0.0
H231 H 0.43165 0.83853 0.05744 0.0
C232 C 0.50336 0.73917 0.29964 0.0
O233 O 0.49039 0.76981 0.27498 0.0
O234 O 0.4808 0.77321 0.02596 0.0
H235 H 0.39993 0.75587 0.16617 0.0
H236 H 0.602 0.69476 0.05637 0.0
H237 H 0.33323 0.78677 0.17255 0.0
Zn238 Zn 0.83478 0.52243 0.19549 0.0
C239 C 0.85604 0.43908 0.0924 0.0
N240 N 0.88755 0.42936 0.11893 0.0
C241 C 0.88356 0.45114 0.15983 0.0
N242 N 0.85052 0.4745 0.1577 0.0
N243 N 0.83307 0.46545 0.1155 0.0
C244 C 0.7444 0.49666 1.00171 0.0
O245 O 0.71277 0.50135 0.02902 0.0
O246 O 0.84604 0.51887 0.26807 0.0
Zn247 Zn 0.77911 0.47192 0.09406 0.0
N248 N 0.85806 0.56851 0.16327 0.0
C249 C 0.84978 0.60646 0.09066 0.0
C250 C 0.84182 0.57287 0.1181 0.0
C251 C 0.88305 0.59651 0.18195 0.0
N252 N 0.87393 0.63459 0.10929 0.0
C253 C 0.89106 0.63081 0.15407 0.0
O254 O 0.74597 0.51054 0.13083 0.0
C255 C 0.74537 0.53291 0.1681 0.0
O256 O 0.77592 0.53749 0.1947 0.0
H257 H 0.82176 0.55071 0.1041 0.0
H258 H 0.8954 0.59284 0.21819 0.0
C259 C 0.73696 0.40437 0.06096 0.0
C260 C 0.71371 0.37036 0.06573 0.0
C261 C 0.72704 0.36983 0.15089 0.0
C262 C 0.74935 0.40436 0.14604 0.0
N263 N 0.75333 0.42123 0.10122 0.0
N264 N 0.70902 0.35407 0.11087 0.0
H265 H 0.74024 0.41849 0.02581 0.0
C266 C 0.82269 0.49558 0.2904 0.0
O267 O 0.7979 0.47431 0.26437 0.0
O268 O 0.77666 0.48613 0.02191 0.0
H269 H 0.76263 0.41813 0.17779 0.0
H270 H 0.83658 0.61035 0.05494 0.0
H271 H 0.72314 0.35632 0.18642 0.0
Zn272 Zn 0.46982 0.77398 0.60724 0.0
C273 C 0.44102 0.87249 0.68192 0.0
N274 N 0.41299 0.87427 0.64719 0.0
C275 C 0.42318 0.84462 0.61718 0.0
N276 N 0.45555 0.8253 0.6327 0.0
N277 N 0.46739 0.84285 0.67356 0.0
C278 C 0.50849 0.81415 0.7948 0.0
O279 O 0.49749 0.78379 0.76809 0.0
O280 O 0.48136 0.77405 0.53384 0.0
Zn281 Zn 0.52206 0.84014 0.69905 0.0
N282 N 0.4247 0.74022 0.61816 0.0
C283 C 0.38331 0.70307 0.67144 0.0
C284 C 0.41397 0.73013 0.66441 0.0
C285 C 0.40532 0.72535 0.57879 0.0
N286 N 0.3652 0.68668 0.63189 0.0
C287 C 0.37523 0.6974 0.58552 0.0
O288 O 0.55133 0.78728 0.68817 0.0
C289 C 0.54518 0.75388 0.66785 0.0
O290 O 0.5157 0.74802 0.64005 0.0
H291 H 0.42962 0.74244 0.69541 0.0
H292 H 0.4147 0.73366 0.54244 0.0
C293 C 0.58918 0.89609 0.67855 0.0
C294 C 0.60703 0.92586 0.64961 0.0
C295 C 0.5489 0.92956 0.60128 0.0
C296 C 0.53185 0.89974 0.62879 0.0
N297 N 0.55178 0.88344 0.6671 0.0
N298 N 0.58592 0.9416 0.61204 0.0
H299 H 0.60516 0.88239 0.70833 0.0
C300 C 0.49293 0.74286 0.51187 0.0
O301 O 0.49914 0.71071 0.5376 0.0
O302 O 0.52045 0.84526 0.77311 0.0
H303 H 0.50296 0.88943 0.61861 0.0
H304 H 0.37471 0.69435 0.708 0.0
H305 H 0.53312 0.94258 0.5709 0.0
Zn306 Zn 0.77175 0.46905 0.59389 0.0
C307 C 0.66581 0.45131 0.65745 0.0
N308 N 0.6605 0.43159 0.61521 0.0
C309 C 0.69251 0.44064 0.58906 0.0
N310 N 0.71714 0.46438 0.61389 0.0
N311 N 0.7002 0.47262 0.65663 0.0
C312 C 0.7318 0.49625 0.7902 0.0
O313 O 0.75972 0.47886 0.76458 0.0
O314 O 0.77552 0.4808 0.52106 0.0
Zn315 Zn 0.71602 0.52015 0.69479 0.0
N316 N 0.79636 0.41796 0.60173 0.0
C317 C 0.79919 0.35186 0.63109 0.0
C318 C 0.78208 0.38948 0.63195 0.0
C319 C 0.82766 0.41077 0.57207 0.0
N320 N 0.82968 0.3443 0.59993 0.0
C321 C 0.84471 0.37312 0.57067 0.0
O322 O 0.7747 0.5365 0.69246 0.0
C323 C 0.80546 0.53127 0.66635 0.0
O324 O 0.80514 0.5079 0.63002 0.0
H325 H 0.75702 0.39557 0.65537 0.0
H326 H 0.83801 0.43381 0.54798 0.0
C327 C 0.66565 0.5928 0.68298 0.0
C328 C 0.65526 0.62622 0.65483 0.0
C329 C 0.69535 0.6028 0.58977 0.0
C330 C 0.70574 0.57004 0.61749 0.0
N331 N 0.69111 0.5656 0.66352 0.0
N332 N 0.67057 0.63009 0.60907 0.0
H333 H 0.65451 0.58906 0.71983 0.0
C334 C 0.80453 0.49877 0.50135 0.0
O335 O 0.83211 0.51408 0.52938 0.0
O336 O 0.70526 0.51559 0.76755 0.0
H337 H 0.72623 0.54852 0.60287 0.0
H338 H 0.78774 0.32863 0.65425 0.0
H339 H 0.70713 0.60671 0.55328 0.0
Zn340 Zn 0.08253 0.76951 0.59702 0.0
C341 C 0.09189 0.66652 0.67058 0.0
N342 N 0.10995 0.65475 0.6292 0.0
C343 C 0.10553 0.68597 0.59949 0.0
N344 N 0.08627 0.71592 0.62172 0.0
N345 N 0.07614 0.70328 0.66589 0.0
C346 C 0.04184 0.74702 0.79491 0.0
O347 O 0.05295 0.77682 0.76749 0.0
O348 O 0.0749 0.76916 0.5229 0.0
Zn349 Zn 0.02674 0.71961 0.69952 0.0
N350 N 0.13149 0.7973 0.61058 0.0
C351 C 0.19411 0.80399 0.64951 0.0
C352 C 0.15686 0.78615 0.64658 0.0
C353 C 0.1413 0.8263 0.57865 0.0
N354 N 0.20453 0.83188 0.61606 0.0
C355 C 0.17871 0.84372 0.58088 0.0
O356 O 1.0074 0.77645 0.6881 0.0
C357 C 1.0143 0.80534 0.65965 0.0
O358 O 0.04045 0.80303 0.62652 0.0
H359 H 0.14879 0.76275 0.67159 0.0
H360 H 0.12096 0.83424 0.54987 0.0
C361 C 0.96034 0.66 0.68824 0.0
C362 C 0.93413 0.6398 0.65655 0.0
C363 C 0.95885 0.67666 0.58937 0.0
C364 C 0.98463 0.6964 0.62038 0.0
N365 N 0.9854 0.68766 0.66892 0.0
N366 N 0.9345 0.64882 0.60805 0.0
H367 H 0.96132 0.65329 0.72693 0.0
C368 C 0.05874 0.79818 0.50108 0.0
O369 O 0.04468 0.82754 0.52729 0.0
O370 O 0.03029 0.7152 0.77427 0.0
H371 H 1.00437 0.71858 0.6058 0.0
H372 H 0.21493 0.79501 0.67738 0.0
H373 H 0.95829 0.68324 0.55064 0.0
Zn374 Zn 0.83721 0.03473 0.68992 0.0
C375 C 0.85622 0.11796 0.58734 0.0
N376 N 0.88691 0.12895 0.61466 0.0
C377 C 0.88232 0.10787 0.65593 0.0
N378 N 0.84962 0.08416 0.65361 0.0
N379 N 0.83314 0.09175 0.61048 0.0
C380 C 0.7487 0.05601 0.49571 0.0
O381 O 0.71937 0.04372 0.52329 0.0
O382 O 0.84585 0.03987 0.76303 0.0
Zn383 Zn 0.77985 0.0829 0.58893 0.0
N384 N 0.86857 0.99415 0.65713 0.0
C385 C 0.87933 0.96942 0.57657 0.0
C386 C 0.86027 0.99502 0.60844 0.0
C387 C 0.89455 0.96712 0.6758 0.0
N388 N 0.90567 0.94321 0.59464 0.0
C389 C 0.91382 0.94087 0.6433 0.0
O390 O 0.75154 0.03809 0.62035 0.0
C391 C 0.75187 1.0137 0.65551 0.0
O392 O 0.78083 1.01171 0.6851 0.0
H393 H 0.83868 1.01557 0.59439 0.0
H394 H 0.90045 0.96638 0.71471 0.0
C395 C 0.71953 0.13952 0.57213 0.0
C396 C 0.70062 0.17621 0.57571 0.0
C397 C 0.74454 0.19439 0.63929 0.0
C398 C 0.7635 0.15782 0.6353 0.0
N399 N 0.75087 0.1313 0.6013 0.0
N400 N 0.71392 0.20305 0.6089 0.0
H401 H 0.71053 0.11842 0.54466 0.0
C402 C 0.8177 0.05742 0.78509 0.0
O403 O 0.78868 0.07217 0.75891 0.0
O404 O 0.77824 0.07283 0.51576 0.0
H405 H 0.78864 0.15106 0.65823 0.0
H406 H 0.87318 0.97024 0.53773 0.0
H407 H 0.75464 0.21602 0.66563 0.0
Zn408 Zn 1.02368 0.22024 0.80521 0.0
C409 C 0.9332 0.19718 0.89685 0.0
N410 N 0.926 0.16646 0.86718 0.0
C411 C 0.9513 0.17273 0.83 0.0
N412 N 0.97294 0.20623 0.83675 0.0
N413 N 0.96079 0.22156 0.87876 0.0
C414 C 0.99075 0.30742 0.99621 0.0
O415 O 0.99505 0.33941 0.96959 0.0
O416 O 1.02116 0.21187 0.73165 0.0
Zn417 Zn 0.96667 0.27463 0.90319 0.0
N418 N 0.06383 0.18983 0.84016 0.0
C419 C 0.08677 0.18129 0.92182 0.0
C420 C 0.06221 0.19983 0.88832 0.0
C421 C 0.0902 0.16215 0.82366 0.0
N422 N 0.11235 0.15336 0.90592 0.0
C423 C 0.11517 0.14316 0.85786 0.0
O424 O 1.00739 0.30754 0.86987 0.0
C425 C 0.03413 0.30832 0.83733 0.0
O426 O 0.04233 0.27779 0.81206 0.0
H427 H 0.04155 0.22209 0.90065 0.0
H428 H 0.09112 0.15447 0.78522 0.0
C429 C 0.89935 0.31955 0.93227 0.0
C430 C 0.86604 0.34343 0.9249 0.0
C431 C 0.86722 0.32716 0.84056 0.0
C432 C 0.901 0.30413 0.84794 0.0
N433 N 0.91669 0.3013 0.89358 0.0
N434 N 0.85097 0.34698 0.87897 0.0
H435 H 0.91261 0.31726 0.96811 0.0
C436 C 1.00423 0.24061 0.70997 0.0
O437 O 0.98926 0.26924 0.73668 0.0
O438 O 0.97959 0.27558 0.97556 0.0
H439 H 0.91517 0.28941 0.81745 0.0
H440 H 0.08542 0.18884 0.96027 0.0
H441 H 0.85469 0.33014 0.80434 0.0
Zn442 Zn 0.33183 1.01822 0.81538 0.0
C443 C 0.35841 0.94342 0.92089 0.0
N444 N 0.39196 0.93868 0.89577 0.0
C445 C 0.38344 0.95368 0.85144 0.0
N446 N 0.346 0.9687 0.85035 0.0
N447 N 0.32998 0.96018 0.89348 0.0
C448 C 0.24145 0.98471 0.00842 0.0
O449 O 0.20988 0.99194 0.98194 0.0
O450 O 0.33839 1.01335 0.74185 0.0
Zn451 Zn 0.27516 0.96376 0.91378 0.0
N452 N 0.36409 0.05962 0.84591 0.0
C453 C 0.377 0.08567 0.9253 0.0
C454 C 0.35682 0.05979 0.89485 0.0
C455 C 0.39049 0.08561 0.82567 0.0
N456 N 0.40366 0.11088 0.90569 0.0
C457 C 0.41108 0.11204 0.85677 0.0
O458 O 0.24372 1.00681 0.88251 0.0
C459 C 0.24417 0.03292 0.84922 0.0
O460 O 0.27479 0.03854 0.82299 0.0
H461 H 0.33538 0.03963 0.91017 0.0
H462 H 0.3959 0.08525 0.78663 0.0
C463 C 0.22951 0.89491 0.93499 0.0
C464 C 0.20808 0.8605 0.92453 0.0
C465 C 0.22444 0.86735 0.84072 0.0
C466 C 0.24605 0.90153 0.8514 0.0
N467 N 0.24797 0.91474 0.89834 0.0
N468 N 0.20562 0.84775 0.87742 0.0
H469 H 0.23113 0.90606 0.97204 0.0
C470 C 0.31101 0.99454 0.7199 0.0
O471 O 0.28275 0.97843 0.74614 0.0
O472 O 0.27277 0.97266 0.98727 0.0
H473 H 0.26073 0.9177 0.82252 0.0
H474 H 0.37163 0.08571 0.96434 0.0
H475 H 0.22236 0.8567 0.80346 0.0
Zn476 Zn 0.58398 0.27839 0.90331 0.0
C477 C 0.59963 0.38052 0.82979 0.0
N478 N 0.62561 0.38643 0.86625 0.0
C479 C 0.61901 0.35563 0.89581 0.0
N480 N 0.59081 0.33141 0.87834 0.0
N481 N 0.57805 0.34693 0.83667 0.0
C482 C 0.54697 0.3107 0.70768 0.0
O483 O 0.56109 0.28118 0.73345 0.0
O484 O 0.57125 0.27745 0.97606 0.0
Zn485 Zn 0.52801 0.33141 0.80381 0.0
N486 N 0.63393 0.25178 0.89448 0.0
C487 C 0.68358 0.22399 0.84317 0.0
C488 C 0.64929 0.24657 0.84897 0.0
C489 C 0.65203 0.23646 0.93445 0.0
N490 N 0.70058 0.20698 0.88301 0.0
C491 C 0.6858 0.213 0.92876 0.0
O492 O 0.50924 0.27376 0.81119 0.0
C493 C 0.51673 0.24362 0.83739 0.0
O494 O 0.54311 0.24484 0.87036 0.0
H495 H 0.63456 0.25913 0.81749 0.0
H496 H 0.63901 0.24069 0.97017 0.0
C497 C 0.45992 0.38751 0.81674 0.0
C498 C 0.43257 0.40626 0.84818 0.0
C499 C 0.45957 0.37164 0.91578 0.0
C500 C 0.48654 0.35326 0.88493 0.0
N501 N 0.4866 0.3616 0.83628 0.0
N502 N 0.4335 0.39778 0.89681 0.0
H503 H 0.46039 0.39386 0.77794 0.0
C504 C 0.55975 0.24565 0.99651 0.0
O505 O 0.55412 0.21407 0.96943 0.0
O506 O 0.53105 0.33961 0.73025 0.0
H507 H 0.50755 0.33233 0.89962 0.0
H508 H 0.69592 0.2191 0.80713 0.0
H509 H 0.45944 0.36536 0.95459 0.0
Zn510 Zn 0.21602 0.53314 0.80732 0.0
C511 C 0.20171 0.61941 0.90767 0.0
N512 N 0.17063 0.6309 0.88151 0.0
C513 C 0.17325 0.60872 0.84076 0.0
N514 N 0.20507 0.58371 0.84242 0.0
N515 N 0.22306 0.5918 0.88453 0.0
C516 C 0.30684 0.5526 0.99931 0.0
O517 O 0.33288 0.53422 0.97182 0.0
O518 O 0.20718 0.53636 0.73399 0.0
Zn519 Zn 0.27644 0.5823 0.90559 0.0
N520 N 0.18389 0.49369 0.84076 0.0
C521 C 0.17034 0.47054 0.92129 0.0
C522 C 0.19082 0.49527 0.88974 0.0
C523 C 0.15782 0.46695 0.82157 0.0
N524 N 0.14393 0.4446 0.90263 0.0
C525 C 0.13708 0.44168 0.85369 0.0
O526 O 0.30582 0.54018 0.87107 0.0
C527 C 0.30406 0.51498 0.83685 0.0
O528 O 0.2727 0.51048 0.81166 0.0
H529 H 0.21229 0.51578 0.90427 0.0
H530 H 0.1529 0.4658 0.78246 0.0
C531 C 0.33734 0.63555 0.92469 0.0
C532 C 0.3585 0.67104 0.92347 0.0
C533 C 0.31616 0.69394 0.86046 0.0
C534 C 0.29486 0.65858 0.86242 0.0
N535 N 0.30575 0.63033 0.89501 0.0
N536 N 0.34707 0.69967 0.89154 0.0
H537 H 0.34466 0.61285 0.95082 0.0
C538 C 0.23525 0.55345 0.71134 0.0
O539 O 0.26379 0.56962 0.73709 0.0
O540 O 0.27936 0.57238 0.97895 0.0
H541 H 0.26951 0.65403 0.83897 0.0
H542 H 0.17539 0.47189 0.96035 0.0
H543 H 0.30766 0.71698 0.83519 0.0
C544 C 0.59249 0.13595 0.25133 0.0
C545 C 0.61369 0.14543 0.29376 0.0
H546 H 0.59574 0.11422 0.1774 0.0
C547 C 0.65408 0.13511 0.29613 0.0
H548 H 0.56117 0.14189 0.24917 0.0
C549 C 0.67337 0.11801 0.25628 0.0
C550 C 0.65283 0.11015 0.21307 0.0
H551 H 0.67158 0.14212 0.32819 0.0
H552 H 0.7051 0.11433 0.25785 0.0
C553 C 0.61205 0.11891 0.21102 0.0
C554 C 0.41371 0.65792 0.29164 0.0
C555 C 0.40522 0.61727 0.29544 0.0
H556 H 0.43842 0.70462 0.24959 0.0
C557 C 0.4197 0.59166 0.25929 0.0
H558 H 0.40296 0.67878 0.31867 0.0
C559 C 0.44067 0.60702 0.21898 0.0
C560 C 0.44843 0.64792 0.21537 0.0
H561 H 0.41518 0.56015 0.26234 0.0
H562 H 0.45005 0.58716 0.19011 0.0
C563 C 0.43496 0.67292 0.25242 0.0
C564 C 0.91542 0.39705 0.2062 0.0
C565 C 0.90516 0.43748 0.20424 0.0
H566 H 0.93951 0.3495 0.2475 0.0
C567 C 0.91698 0.46199 0.24296 0.0
H568 H 0.90684 0.37679 0.17738 0.0
C569 C 0.93644 0.44566 0.28391 0.0
C570 C 0.94553 0.40492 0.28579 0.0
H571 H 0.91141 0.49337 0.24156 0.0
H572 H 0.94339 0.46459 0.3147 0.0
C573 C 0.93519 0.38114 0.24613 0.0
C574 C 0.1169 0.92699 0.28385 0.0
C575 C 0.15717 0.93688 0.28905 0.0
H576 H 0.07268 0.89897 0.23928 0.0
C577 C 0.18353 0.92583 0.25219 0.0
H578 H 0.09596 0.93472 0.3123 0.0
C579 C 0.17064 0.90371 0.21239 0.0
C580 C 0.13085 0.89162 0.20803 0.0
H581 H 0.21492 0.93105 0.25622 0.0
H582 H 0.19281 0.89439 0.1862 0.0
C583 C 0.10371 0.90521 0.24305 0.0
C584 C 0.41576 0.89612 0.81155 0.0
C585 C 0.40395 0.93604 0.80849 0.0
H586 H 0.4364 0.84494 0.77365 0.0
C587 C 0.41113 0.95654 0.76489 0.0
H588 H 0.41052 0.87906 0.84444 0.0
C589 C 0.42701 0.93658 0.72415 0.0
C590 C 0.43697 0.89618 0.72697 0.0
H591 H 0.4042 0.98757 0.76216 0.0
H592 H 0.4299 0.95224 0.68978 0.0
C593 C 0.43172 0.87647 0.7713 0.0
C594 C 0.63324 0.45953 0.74135 0.0
C595 C 0.64477 0.43612 0.70149 0.0
H596 H 0.60821 0.46004 0.81387 0.0
C597 C 0.63506 0.39553 0.70213 0.0
H598 H 0.63873 0.49096 0.74118 0.0
C599 C 0.61632 0.37835 0.74214 0.0
C600 C 0.60616 0.40108 0.78282 0.0
H601 H 0.64365 0.37617 0.67235 0.0
H602 H 0.6132 0.34658 0.74302 0.0
C603 C 0.61456 0.44199 0.78205 0.0
C604 C 0.11388 0.67377 0.75634 0.0
C605 C 0.10388 0.64869 0.71773 0.0
H606 H 0.14421 0.681 0.82346 0.0
C607 C 0.11491 0.60846 0.72059 0.0
H608 H 0.10768 0.70507 0.75445 0.0
C609 C 0.13666 0.59413 0.76084 0.0
C610 C 0.14864 0.62011 0.79791 0.0
H611 H 0.10795 0.58847 0.69084 0.0
H612 H 0.1439 0.56314 0.76294 0.0
C613 C 0.13583 0.65978 0.79563 0.0
C614 C 0.93538 0.11278 0.77954 0.0
C615 C 0.94339 0.15367 0.78246 0.0
H616 H 0.91134 0.06515 0.73608 0.0
C617 C 0.93221 0.17785 0.74362 0.0
H618 H 0.94264 0.09363 0.80995 0.0
C619 C 0.91283 0.16208 0.70327 0.0
C620 C 0.90362 0.12149 0.7004 0.0
H621 H 0.93521 0.20958 0.74627 0.0
H622 H 0.90349 0.18245 0.675 0.0
C623 C 0.91622 0.09664 0.73828 0.0
C624 C 0.56914 0.27449 0.08021 0.0
C625 C 0.55665 0.24298 0.05059 0.0
H626 H 0.57814 0.2963 0.15272 0.0
C627 C 0.54272 0.20833 0.07325 0.0
H628 H 0.58004 0.30154 0.0641 0.0
C629 C 0.54133 0.20535 0.1244 0.0
C630 C 0.55422 0.23681 0.15389 0.0
H631 H 0.53297 0.18342 0.0515 0.0
H632 H 0.53048 0.17834 0.14081 0.0
C633 C 0.56818 0.27136 0.13115 0.0
C634 C 0.29032 0.58106 0.08148 0.0
C635 C 0.3121 0.55409 0.0532 0.0
H636 H 0.27776 0.60405 0.15265 0.0
C637 C 0.34004 0.5299 0.07673 0.0
H638 H 0.2694 0.60084 0.06448 0.0
C639 C 0.34531 0.53202 0.12757 0.0
C640 C 0.32277 0.55844 0.15588 0.0
H641 H 0.35766 0.50909 0.05595 0.0
H642 H 0.36655 0.51254 0.14472 0.0
C643 C 0.29551 0.58318 0.13211 0.0
C644 C 1.00974 0.34677 0.12442 0.0
C645 C 1.00302 0.31304 0.1531 0.0
H646 H 1.01115 0.37149 0.05229 0.0
C647 C 0.99279 0.27747 0.12968 0.0
H648 H 1.01753 0.37463 0.14137 0.0
C649 C 0.98937 0.27557 0.07883 0.0
C650 C 0.99583 0.30926 0.05005 0.0
H651 H 0.98752 0.25085 0.15061 0.0
H652 H 0.98152 0.24766 0.06215 0.0
C653 C 1.0061 0.34491 0.07338 0.0
C654 C 0.20539 1.00932 0.13682 0.0
C655 C 0.23838 0.9992 0.16535 0.0
H656 H 0.18041 1.01268 0.06486 0.0
C657 C 0.27215 0.984 0.1418 0.0
H658 H 0.17887 1.02089 0.15382 0.0
C659 C 0.2731 0.97933 0.09101 0.0
C660 C 0.24026 0.98966 0.06237 0.0
H661 H 0.29811 0.97574 0.16258 0.0
H662 H 0.29964 0.96754 0.07425 0.0
C663 C 0.2063 1.00456 0.08585 0.0
C664 C 0.07411 0.77279 0.36684 0.0
C665 C 0.0589 0.80653 0.34342 0.0
H666 H 0.08596 0.74355 0.43484 0.0
C667 C 0.04388 0.83741 0.37235 0.0
H668 H 0.08599 0.74846 0.34569 0.0
C669 C 0.0436 0.83445 0.4234 0.0
C670 C 0.05848 0.80061 0.44685 0.0
H671 H 0.03202 0.86384 0.35558 0.0
H672 H 0.03174 0.85884 0.44447 0.0
C673 C 0.07397 0.76989 0.41798 0.0
C674 C 0.77554 0.06127 0.36132 0.0
C675 C 0.74094 0.04728 0.33865 0.0
H676 H 0.80525 0.07454 0.42829 0.0
C677 C 0.70888 0.03592 0.36811 0.0
H678 H 0.80088 0.07024 0.33979 0.0
C679 C 0.71148 0.03845 0.41918 0.0
C680 C 0.74617 0.05244 0.44176 0.0
H681 H 0.6818 1.02511 0.35176 0.0
H682 H 0.6862 0.02963 0.4409 0.0
C683 C 0.77812 0.06378 0.4122 0.0
C684 C 0.48929 0.77409 0.37858 0.0
C685 C 0.5008 0.73939 0.35395 0.0
H686 H 0.47853 0.80262 0.44719 0.0
C687 C 0.51012 0.70582 0.3818 0.0
H688 H 0.48203 0.80062 0.35842 0.0
C689 C 0.50784 0.70698 0.43308 0.0
C690 C 0.49642 0.7418 0.45762 0.0
H691 H 0.519 0.67862 0.36402 0.0
H692 H 0.51494 0.68051 0.45345 0.0
C693 C 0.48731 0.77532 0.42966 0.0
C694 C 0.83931 0.52076 0.42455 0.0
C695 C 0.80952 0.49836 0.44738 0.0
H696 H 0.86715 0.53738 0.35701 0.0
C697 C 0.78551 0.47404 0.41828 0.0
H698 H 0.8586 0.53955 0.44597 0.0
C699 C 0.7906 0.47251 0.36762 0.0
C700 C 0.81983 0.49539 0.34457 0.0
H701 H 0.76291 0.45582 0.43464 0.0
H702 H 0.77118 0.4536 0.34652 0.0
C703 C 0.84435 0.51939 0.37362 0.0
C704 C 0.48804 0.77465 0.92214 0.0
C705 C 0.50022 0.80609 0.9521 0.0
H706 H 0.4811 0.75259 0.84936 0.0
C707 C 0.51501 0.84056 0.92986 0.0
H708 H 0.47631 0.74777 0.93796 0.0
C709 C 0.51761 0.84344 0.8788 0.0
C710 C 0.50561 0.81187 0.84891 0.0
H711 H 0.52444 0.86545 0.95186 0.0
H712 H 0.52907 0.87035 0.8628 0.0
C713 C 0.49075 0.77749 0.87122 0.0
C714 C 0.76972 0.48552 0.86734 0.0
C715 C 0.73421 0.49643 0.84434 0.0
H716 H 0.80111 0.4783 0.93441 0.0
C717 C 0.70218 0.50851 0.87348 0.0
H718 H 0.79516 0.47643 0.84602 0.0
C719 C 0.70556 0.50915 0.92465 0.0
C720 C 0.7412 0.49823 0.94757 0.0
H721 H 0.67445 0.51711 0.85681 0.0
H722 H 0.68019 0.51803 0.9462 0.0
C723 C 0.77325 0.48673 0.91819 0.0
C724 C 0.02895 0.78947 0.86746 0.0
C725 C 0.0405 0.7526 0.84856 0.0
H726 H 1.02042 0.82544 0.93114 0.0
C727 C 0.05253 0.72288 0.88104 0.0
H728 H 1.01957 0.81292 0.84315 0.0
C729 C 0.05403 0.73047 0.93156 0.0
C730 C 0.04234 0.76745 0.95038 0.0
H731 H 0.06195 0.69437 0.86729 0.0
H732 H 0.06423 0.70742 0.95593 0.0
C733 C 0.02931 0.79663 0.91782 0.0
C734 C 0.84766 0.0472 0.86838 0.0
C735 C 0.81549 0.05873 0.83926 0.0
H736 H 0.87 0.03867 0.94095 0.0
C737 C 0.78024 0.07056 0.86239 0.0
H738 H 0.87522 0.038 0.8517 0.0
C739 C 0.77707 0.07052 0.91338 0.0
C740 C 0.80918 0.05908 0.94259 0.0
H741 H 0.75476 0.07945 0.8411 0.0
H742 H 0.74941 0.07952 0.92984 0.0
C743 C 0.84459 0.04752 0.91953 0.0
C744 C 1.01565 0.21233 0.62591 0.0
C745 C 1.00111 0.24271 0.65593 0.0
H746 H 1.02478 0.19151 0.55273 0.0
C747 C 0.98384 0.27605 0.63381 0.0
H748 H 0.02901 0.18626 0.64177 0.0
C749 C 0.98152 0.27918 0.58291 0.0
C750 C 0.99631 0.24898 0.55284 0.0
H751 H 0.97224 0.30003 0.65579 0.0
H752 H 0.96804 0.30526 0.5672 0.0
C753 C 1.01323 0.21542 0.57488 0.0
C754 C 0.27335 0.97558 0.59115 0.0
C755 C 0.30397 0.9911 0.56226 0.0
H756 H 0.25178 0.96414 0.66334 0.0
C757 C 0.33734 1.00723 0.58567 0.0
H758 H 0.24743 0.96258 0.57434 0.0
C759 C 0.3399 1.0081 0.63681 0.0
C760 C 0.30922 0.99269 0.66569 0.0
H761 H 0.36158 1.01925 0.56451 0.0
H762 H 0.36591 1.02086 0.65367 0.0
C763 C 0.276 0.97628 0.64224 0.0
C764 C 0.53694 0.34127 0.62465 0.0
C765 C 0.55011 0.30964 0.65356 0.0
H766 H 0.52932 0.36424 0.55224 0.0
C767 C 0.56616 0.27619 0.63025 0.0
H768 H 0.52455 0.36747 0.64146 0.0
C769 C 0.56879 0.27424 0.57929 0.0
C770 C 0.5555 0.30574 0.55029 0.0
H771 H 0.57666 0.25125 0.65134 0.0
H772 H 0.58142 0.24804 0.56268 0.0
C773 C 0.53965 0.33935 0.57352 0.0
C774 C 0.27316 0.56494 0.63417 0.0
C775 C 0.23819 0.55238 0.65719 0.0
H776 H 0.30457 0.57268 0.56713 0.0
C777 C 0.20723 0.53773 0.62808 0.0
H778 H 0.2978 0.57607 0.65539 0.0
C779 C 0.21116 0.53606 0.577 0.0
C780 C 0.24619 0.5488 0.55407 0.0
H781 H 0.17993 0.52775 0.64469 0.0
H782 H 0.18657 0.52516 0.55551 0.0
C783 C 0.27715 0.56297 0.58338 0.0
C784 C 0.61443 0.16418 0.49071 0.0
C785 C 0.62222 0.19388 0.45633 0.0
H786 H 0.63316 0.13569 0.55668 0.0
C787 C 0.65216 0.22145 0.46582 0.0
H788 H 0.59192 0.14214 0.48361 0.0
C789 C 0.67532 0.21824 0.50803 0.0
C790 C 0.66955 0.18654 0.54025 0.0
H791 H 0.66031 0.24285 0.43848 0.0
H792 H 0.70008 0.23815 0.51291 0.0
C793 C 0.63796 0.16047 0.53235 0.0
C794 C 0.34537 0.67589 0.45569 0.0
C795 C 0.34861 0.63462 0.45478 0.0
H796 H 0.35014 0.72852 0.49878 0.0
C797 C 0.35392 0.614 0.49866 0.0
H798 H 0.34198 0.69233 0.42195 0.0
C799 C 0.35869 0.63464 0.54266 0.0
C800 C 0.35897 0.6761 0.54288 0.0
H801 H 0.35776 0.58224 0.49835 0.0
H802 H 0.36574 0.61829 0.57557 0.0
C803 C 0.35032 0.69652 0.49948 0.0
C804 C 0.87123 0.33261 0.50166 0.0
C805 C 0.87575 0.36441 0.53423 0.0
H806 H 0.88802 0.30816 0.43229 0.0
C807 C 0.90639 0.39169 0.52643 0.0
H808 H 0.84738 0.31163 0.50649 0.0
C809 C 0.92994 0.38912 0.48467 0.0
C810 C 0.9235 0.35909 0.4503 0.0
H811 H 0.91056 0.41638 0.55117 0.0
H812 H 0.95176 0.41189 0.47785 0.0
C813 C 0.89471 0.33029 0.45953 0.0
C814 C 0.22259 0.88157 0.46378 0.0
C815 C 0.19854 0.91451 0.45506 0.0
H816 H 0.23583 0.83357 0.51237 0.0
C817 C 0.17188 0.92706 0.49112 0.0
H818 H 0.24205 0.87052 0.43544 0.0
C819 C 0.1678 0.90571 0.53446 0.0
C820 C 0.19048 0.87163 0.54234 0.0
H821 H 0.15265 0.95208 0.48455 0.0
H822 H 0.14529 0.91442 0.56056 0.0
C823 C 0.21891 0.86044 0.50754 0.0
C824 C 0.20765 0.82687 0.00521 0.0
C825 C 0.1867 0.84025 0.96417 0.0
H826 H 0.20494 0.81236 0.08136 0.0
C827 C 0.14529 0.8418 0.96588 0.0
H828 H 0.23964 0.82563 0.0046 0.0
C829 C 0.12548 0.83466 0.00999 0.0
C830 C 0.14683 0.82493 0.0523 0.0
H831 H 0.12869 0.85265 0.93478 0.0
H832 H 0.09426 0.84135 0.01229 0.0
C833 C 0.1878 0.81909 0.04893 0.0
C834 C 0.7067 0.12722 0.01139 0.0
C835 C 0.70942 0.14614 0.0569 0.0
H836 H 0.69827 0.13427 0.93413 0.0
C837 C 0.71049 0.1875 0.05895 0.0
H838 H 0.70368 0.09544 0.00932 0.0
C839 C 0.70643 0.20971 0.01627 0.0
C840 C 0.70116 0.19077 0.97099 0.0
H841 H 0.71187 0.20261 0.0939 0.0
H842 H 0.70479 0.2416 0.019 0.0
C843 C 0.7032 0.14944 0.96852 0.0
C844 C 0.41136 0.71798 0.02966 0.0
C845 C 0.4338 0.6862 0.04716 0.0
H846 H 0.37031 0.73847 0.97564 0.0
C847 C 0.43619 0.65164 0.01897 0.0
H848 H 0.40816 0.74442 0.05084 0.0
C849 C 0.41439 0.64794 0.97593 0.0
C850 C 0.38933 0.67862 0.9606 0.0
H851 H 0.45343 0.62666 0.03151 0.0
H852 H 0.41539 0.6202 0.95617 0.0
C853 C 0.38952 0.71442 0.98646 0.0
C854 C 0.84876 0.43346 0.00225 0.0
C855 C 0.84527 0.41638 0.0487 0.0
H856 H 0.85688 0.423 0.92541 0.0
C857 C 0.84149 0.37528 0.05289 0.0
H858 H 0.85304 0.46501 0.99856 0.0
C859 C 0.84447 0.35129 0.01152 0.0
C860 C 0.85121 0.36815 0.96539 0.0
H861 H 0.83936 0.36157 0.08861 0.0
H862 H 0.8444 0.3195 0.016 0.0
C863 C 0.8512 0.40944 0.96061 0.0
C864 C 0.42464 0.84178 0.52655 0.0
C865 C 0.4032 0.83823 0.57025 0.0
H866 H 0.42207 0.85269 0.44933 0.0
C867 C 0.3618 0.83794 0.56874 0.0
H868 H 0.45653 0.84432 0.52731 0.0
C869 C 0.3421 0.84373 0.52449 0.0
C870 C 0.36359 0.85008 0.48119 0.0
H871 H 0.34476 0.83596 0.60224 0.0
H872 H 0.31017 0.84592 0.52463 0.0
C873 C 0.40493 0.84709 0.48209 0.0
C874 C 0.70259 0.3542 0.5057 0.0
C875 C 0.69491 0.37168 0.46014 0.0
H876 H 0.70854 0.36322 0.58282 0.0
C877 C 0.69423 0.41301 0.45636 0.0
H878 H 0.70304 0.32235 0.50946 0.0
C879 C 0.69761 0.43645 0.49846 0.0
C880 C 0.70222 0.41868 0.5444 0.0
H881 H 0.68783 0.42703 0.42163 0.0
H882 H 0.69354 0.46809 0.49557 0.0
C883 C 0.70602 0.37754 0.54752 0.0
C884 C 0.1439 0.64916 0.47887 0.0
C885 C 0.17053 0.67924 0.46584 0.0
H886 H 0.10199 0.62833 0.53161 0.0
C887 C 0.17097 0.71433 0.49309 0.0
H888 H 0.14258 0.62193 0.45809 0.0
C889 C 0.14788 0.71774 0.53529 0.0
C890 C 0.12327 0.68672 0.5502 0.0
H891 H 0.19153 0.73778 0.48421 0.0
H892 H 0.15186 0.74321 0.55796 0.0
C893 C 0.12064 0.65283 0.52081 0.0
C894 C 0.84965 0.2003 0.49823 0.0
C895 C 0.86101 0.18099 0.45492 0.0
H896 H 0.83778 0.19444 0.57485 0.0
C897 C 0.86155 0.13954 0.45365 0.0
H898 H 0.84882 0.23225 0.49998 0.0
C899 C 0.8553 0.11792 0.49664 0.0
C900 C 0.84758 0.13758 0.54081 0.0
H901 H 0.87049 0.12407 0.42073 0.0
H902 H 0.86 0.08628 0.49623 0.0
C903 C 0.84304 0.17872 0.54088 0.0
C904 C 0.91058 0.19665 0.031 0.0
C905 C 0.86921 0.19336 0.03005 0.0
H906 H 0.96366 0.19978 0.98823 0.0
C907 C 0.84911 0.19915 0.98558 0.0
H908 H 0.92678 0.19198 0.06468 0.0
C909 C 0.87022 0.20368 0.9421 0.0
C910 C 0.9116 0.20331 0.94265 0.0
H911 H 0.81716 0.19741 0.98393 0.0
H912 H 0.8543 0.2051 0.90774 0.0
C913 C 0.93168 0.20123 0.98739 0.0
C914 C 0.33129 0.86945 0.01742 0.0
C915 C 0.36152 0.87622 0.05156 0.0
H916 H 0.30793 0.88498 0.94731 0.0
C917 C 0.38573 0.9096 0.04639 0.0
H918 H 0.313 0.84329 0.02008 0.0
C919 C 0.38164 0.93422 0.00577 0.0
C920 C 0.35347 0.92574 0.9696 0.0
H921 H 0.40945 0.91515 0.07213 0.0
H922 H 0.40243 0.95822 1.00077 0.0
C923 C 0.32779 0.89371 0.97621 0.0
C924 C 0.70808 0.35378 0.97692 0.0
C925 C 0.69058 0.35601 0.02348 0.0
H926 H 0.69847 0.35103 0.8995 0.0
C927 C 0.6495 0.35122 0.02789 0.0
H928 H 0.73973 0.35728 0.97261 0.0
C929 C 0.62593 0.34802 0.98599 0.0
C930 C 0.64328 0.3485 0.93943 0.0
H931 H 0.63534 0.35355 0.06335 0.0
H932 H 0.59409 0.34862 0.98988 0.0
C933 C 0.68457 0.35015 0.93523 0.0
C934 C 0.20742 0.69564 0.0053 0.0
C935 C 0.19591 0.67331 0.0462 0.0
H936 H 0.21948 0.69515 0.92831 0.0
C937 C 0.19535 0.63196 0.04281 0.0
H938 H 0.2081 0.7276 0.00711 0.0
C939 C 0.20207 0.61346 0.99777 0.0
C940 C 0.20991 0.63614 0.95601 0.0
H941 H 0.1862 0.6142 0.07375 0.0
H942 H 0.19759 0.58187 0.99471 0.0
C943 C 0.21418 0.67714 0.96042 0.0
C944 C 0.40681 0.07829 0.37221 0.0
C945 C 0.40661 0.11325 0.34478 0.0
H946 H 0.3754 0.02687 0.3947 0.0
C947 C 0.37389 0.12141 0.31477 0.0
H948 H 0.43148 0.07154 0.39606 0.0
C949 C 0.34096 0.09595 0.31453 0.0
C950 C 0.34033 0.062 0.34437 0.0
H951 H 0.37269 0.14863 0.29407 0.0
H952 H 0.31541 0.1038 0.29276 0.0
C953 C 0.37434 0.0529 0.37177 0.0
C954 C 0.43107 0.37379 0.30564 0.0
C955 C 0.44045 0.40654 0.33509 0.0
H956 H 0.44803 0.31546 0.28238 0.0
C957 C 0.47699 0.40745 0.35915 0.0
H958 H 0.40264 0.37214 0.28754 0.0
C959 C 0.50273 0.37535 0.35644 0.0
C960 C 0.49235 0.34112 0.33013 0.0
H961 H 0.48467 0.43219 0.38249 0.0
H962 H 0.52997 0.37669 0.37718 0.0
C963 C 0.45691 0.34128 0.30307 0.0
C964 C 0.2127 0.45865 0.30097 0.0
C965 C 0.21216 0.49578 0.32426 0.0
H966 H 0.18136 0.40417 0.2885 0.0
C967 C 0.17653 0.50913 0.34506 0.0
H968 H 0.23969 0.44754 0.28468 0.0
C969 C 0.14348 0.48462 0.34686 0.0
C970 C 0.145 0.44628 0.32759 0.0
H971 H 0.17483 0.53775 0.36272 0.0
H972 H 0.11751 0.49466 0.36652 0.0
C973 C 0.17928 0.43395 0.3028 0.0
C974 C 0.08428 0.19774 0.3048 0.0
C975 C 0.07581 0.22203 0.34536 0.0
H976 H 0.11159 0.14382 0.27967 0.0
C977 C 0.09308 0.21315 0.39056 0.0
H978 H 0.07114 0.20401 0.26951 0.0
C979 C 0.11648 0.17972 0.39614 0.0
C980 C 0.12282 0.15341 0.35695 0.0
H981 H 0.0875 0.23161 0.42227 0.0
H982 H 0.12836 0.17369 0.43218 0.0
C983 C 0.10751 0.16341 0.3106 0.0
C984 C 0.85525 0.97004 0.11063 0.0
C985 C 0.8343 0.97806 0.15389 0.0
H986 H 0.9077 0.94667 0.07814 0.0
C987 C 0.84878 0.96271 0.19833 0.0
H988 H 0.84464 0.98079 0.07569 0.0
C989 C 0.88541 0.94278 0.19969 0.0
C990 C 0.9076 0.93766 0.15654 0.0
H991 H 0.83325 0.96845 0.23228 0.0
H992 H 0.89763 0.93407 0.23468 0.0
C993 C 0.89127 0.95013 0.11195 0.0
C994 C 0.59307 0.84637 0.19534 0.0
C995 C 0.55594 0.84427 0.17223 0.0
H996 H 0.6462 0.88041 0.20555 0.0
C997 C 0.54137 0.87798 0.1483 0.0
H998 H 0.60504 0.82091 0.21415 0.0
C999 C 0.56467 0.91163 0.14359 0.0
C1000 C 0.603 0.91269 0.163 0.0
H1001 H 0.51262 0.87773 0.13086 0.0
H1002 H 0.55348 0.93615 0.12224 0.0
C1003 C 0.61653 0.88045 0.19071 0.0
C1004 C 0.67459 0.54878 0.1503 0.0
C1005 C 0.70933 0.55727 0.1766 0.0
H1006 H 0.61839 0.56973 0.12539 0.0
C1007 C 0.71042 0.59181 0.20543 0.0
H1008 H 0.67239 0.52235 0.12809 0.0
C1009 C 0.67887 0.61887 0.20427 0.0
C1010 C 0.64578 0.61162 0.17454 0.0
H1011 H 0.73669 0.59932 0.22606 0.0
H1012 H 0.68175 0.64675 0.22341 0.0
C1013 C 0.64337 0.57574 0.14907 0.0
C1014 C 0.9342 0.73302 0.16927 0.0
C1015 C 0.9746 0.72439 0.17346 0.0
H1016 H 0.87575 0.70951 0.15971 0.0
C1017 C 0.98628 0.68475 0.17939 0.0
H1018 H 0.92441 0.7632 0.16425 0.0
C1019 C 0.9584 0.65415 0.17826 0.0
C1020 C 0.91839 0.66255 0.16999 0.0
H1021 H 1.0173 0.67728 0.1827 0.0
H1022 H 0.96853 0.62383 0.17995 0.0
C1023 C 0.90642 0.70231 0.16676 0.0
C1024 C 0.70492 0.96893 0.61381 0.0
C1025 C 0.71892 0.98488 0.65789 0.0
H1026 H 0.65956 0.93657 0.57744 0.0
C1027 C 0.69898 0.97562 0.70168 0.0
H1028 H 0.72009 0.97481 0.57965 0.0
C1029 C 0.66365 0.95342 0.70043 0.0
C1030 C 0.64833 0.94005 0.65542 0.0
H1031 H 0.70926 0.98754 0.7362 0.0
H1032 H 0.64712 0.94902 0.73393 0.0
C1033 C 0.67032 0.94677 0.61262 0.0
C1034 C 0.64087 0.69596 0.67823 0.0
C1035 C 0.62744 0.65701 0.67166 0.0
H1036 H 0.62527 0.75735 0.68353 0.0
C1037 C 0.58669 0.64989 0.66946 0.0
H1038 H 0.67227 0.7022 0.67887 0.0
C1039 C 0.55992 0.68141 0.67066 0.0
C1040 C 0.57334 0.72068 0.67473 0.0
H1041 H 0.57569 0.62026 0.66323 0.0
H1042 H 0.5287 0.67516 0.66637 0.0
C1043 C 0.61402 0.7275 0.68056 0.0
C1044 C 0.90865 0.57169 0.64857 0.0
C1045 C 0.90654 0.60837 0.67233 0.0
H1046 H 0.87896 0.51836 0.62898 0.0
C1047 C 0.87292 0.61718 0.70057 0.0
H1048 H 0.93404 0.56439 0.6261 0.0
C1049 C 0.84073 0.59083 0.70183 0.0
C1050 C 0.8417 0.55544 0.67461 0.0
H1051 H 0.87025 0.64565 0.71837 0.0
H1052 H 0.81419 0.59945 0.72127 0.0
C1053 C 0.87682 0.54549 0.64988 0.0
C1054 C 0.95625 0.84523 0.69158 0.0
C1055 C 0.99114 0.84261 0.66353 0.0
H1056 H 0.90418 0.87943 0.70809 0.0
C1057 C 1.00291 0.87569 0.63605 0.0
H1058 H 0.94646 0.82041 0.71338 0.0
C1059 C 0.97903 0.90915 0.63342 0.0
C1060 C 0.94295 0.9108 0.65858 0.0
H1061 H 0.02987 0.87523 0.61467 0.0
H1062 H 0.9878 0.93306 0.60941 0.0
C1063 C 0.93226 0.87914 0.68905 0.0
C1064 C 0.17431 0.05008 0.87092 0.0
C1065 C 0.20851 0.05845 0.84348 0.0
H1066 H 0.11783 0.07015 0.89586 0.0
C1067 C 0.20872 0.09262 0.814 0.0
H1068 H 0.17259 1.02391 0.89355 0.0
C1069 C 0.17656 0.11904 0.81481 0.0
C1070 C 0.14378 0.11166 0.8451 0.0
H1071 H 0.23445 0.09994 0.79224 0.0
H1072 H 0.17848 0.14638 0.79444 0.0
C1073 C 0.14261 0.07642 0.87195 0.0
C1074 C 0.43099 0.17326 0.81048 0.0
C1075 C 0.44121 0.14077 0.83986 0.0
H1076 H 0.44689 0.23163 0.78637 0.0
C1077 C 0.4783 0.14054 0.8628 0.0
H1078 H 0.40221 0.17453 0.79322 0.0
C1079 C 0.50367 0.17293 0.85915 0.0
C1080 C 0.49249 0.20689 0.83294 0.0
H1081 H 0.48677 0.11606 0.88605 0.0
H1082 H 0.53131 0.17203 0.87911 0.0
C1083 C 0.45647 0.20608 0.80698 0.0
C1084 C 0.37578 0.50086 0.84937 0.0
C1085 C 0.3393 0.4894 0.82904 0.0
H1086 H 0.43421 0.48341 0.87006 0.0
C1087 C 0.33655 0.45206 0.80652 0.0
H1088 H 0.37925 0.52952 0.86651 0.0
C1089 C 0.36865 0.42563 0.80819 0.0
C1090 C 0.40392 0.4364 0.83191 0.0
H1091 H 0.30891 0.44231 0.79061 0.0
H1092 H 0.36493 0.39593 0.79418 0.0
C1093 C 0.40753 0.47464 0.85099 0.0
C1094 C 0.04569 0.37948 0.85724 0.0
C1095 C 0.05771 0.34523 0.83208 0.0
H1096 H 0.06141 0.43713 0.88268 0.0
C1097 C 0.09381 0.34607 0.80632 0.0
H1098 H 1.0179 0.38032 0.87692 0.0
C1099 C 0.11864 0.37934 0.8091 0.0
C1100 C 0.10764 0.41214 0.8376 0.0
H1101 H 0.10392 0.32028 0.78645 0.0
H1102 H 0.14753 0.37826 0.79205 0.0
C1103 C 0.07044 0.41231 0.86021 0.0
loop_
_geom_bond_atom_site_label_1
_geom_bond_atom_site_label_2
_geom_bond_distance
_geom_bond_site_symmetry_2
_ccdc_geom_bond_type
Zn0 N4 2.020 . S
Zn0 O8 2.019 . S
Zn0 N10 2.119 . S
Zn0 O18 1.975 . S
C1 N2 1.334 . S
C1 N5 1.336 . S
N2 C1 1.334 . S
N2 C3 1.334 . S
C3 N2 1.334 . S
C3 N4 1.336 . S
N4 Zn0 2.020 . S
N4 C3 1.336 . S
N4 N5 1.354 . S
N5 C1 1.336 . S
N5 N4 1.354 . S
N5 Zn9 2.020 . S
C6 O7 1.244 . S
C6 O30 1.257 . S
O7 C6 1.244 . S
O8 Zn0 2.019 . S
O8 C28 1.257 . S
Zn9 N5 2.020 . S
Zn9 O16 1.975 . S
Zn9 N25 2.119 . S
Zn9 O30 2.019 . S
N10 Zn0 2.119 . S
N10 C12 1.334 . S
N10 C13 1.328 . S
C11 C12 1.391 . S
C11 N14 1.329 . S
C11 H32 0.930 . S
C12 N10 1.334 . S
C12 C11 1.391 . S
C12 H19 0.930 . S
C13 N10 1.328 . S
C13 C15 1.392 . S
C13 H20 0.930 . S
N14 C11 1.329 . S
N14 C15 1.331 . S
C15 C13 1.392 . S
C15 N14 1.331 . S
O16 Zn9 1.975 . S
O16 C17 1.252 . S
C17 O16 1.252 . S
C17 O18 1.252 . S
O18 Zn0 1.975 . S
O18 C17 1.252 . S
H19 C12 0.930 . S
H20 C13 0.930 . S
C21 C22 1.392 . S
C21 N25 1.328 . S
C21 H27 0.930 . S
C22 C21 1.392 . S
C22 N26 1.331 . S
C23 C24 1.391 . S
C23 N26 1.329 . S
C23 H33 0.930 . S
C24 C23 1.391 . S
C24 N25 1.334 . S
C24 H31 0.930 . S
N25 Zn9 2.119 . S
N25 C21 1.328 . S
N25 C24 1.334 . S
N26 C22 1.331 . S
N26 C23 1.329 . S
H27 C21 0.930 . S
C28 O8 1.257 . S
C28 O29 1.244 . S
O29 C28 1.244 . S
O30 C6 1.257 . S
O30 Zn9 2.019 . S
H31 C24 0.930 . S
H32 C11 0.930 . S
H33 C23 0.930 . S
Zn34 N38 2.020 . S
Zn34 O42 2.019 . S
Zn34 N44 2.119 . S
Zn34 O52 1.975 . S
C35 N36 1.334 . S
C35 N39 1.336 . S
N36 C35 1.334 . S
N36 C37 1.334 . S
C37 N36 1.334 . S
C37 N38 1.336 . S
N38 Zn34 2.020 . S
N38 C37 1.336 . S
N38 N39 1.354 . S
N39 C35 1.336 . S
N39 N38 1.354 . S
N39 Zn43 2.020 . S
C40 O41 1.244 . S
C40 O64 1.257 . S
O41 C40 1.244 . S
O42 Zn34 2.019 . S
O42 C62 1.257 . S
Zn43 N39 2.020 . S
Zn43 O50 1.975 . S
Zn43 N59 2.119 . S
Zn43 O64 2.019 . S
N44 Zn34 2.119 . S
N44 C46 1.334 . S
N44 C47 1.328 . S
C45 C46 1.391 . S
C45 N48 1.329 . S
C45 H66 0.930 . S
C46 N44 1.334 . S
C46 C45 1.391 . S
C46 H53 0.930 . S
C47 N44 1.328 . S
C47 C49 1.392 . S
C47 H54 0.930 . S
N48 C45 1.329 . S
N48 C49 1.331 . S
C49 C47 1.392 . S
C49 N48 1.331 . S
O50 Zn43 1.975 . S
O50 C51 1.252 . S
C51 O50 1.252 . S
C51 O52 1.252 . S
O52 Zn34 1.975 . S
O52 C51 1.252 . S
H53 C46 0.930 . S
H54 C47 0.930 . S
C55 C56 1.392 . S
C55 N59 1.328 . S
C55 H61 0.930 . S
C56 C55 1.392 . S
C56 N60 1.331 . S
C57 C58 1.391 . S
C57 N60 1.329 . S
C57 H67 0.930 . S
C58 C57 1.391 . S
C58 N59 1.334 . S
C58 H65 0.930 . S
N59 Zn43 2.119 . S
N59 C55 1.328 . S
N59 C58 1.334 . S
N60 C56 1.331 . S
N60 C57 1.329 . S
H61 C55 0.930 . S
C62 O42 1.257 . S
C62 O63 1.244 . S
O63 C62 1.244 . S
O64 C40 1.257 . S
O64 Zn43 2.019 . S
H65 C58 0.930 . S
H66 C45 0.930 . S
H67 C57 0.930 . S
Zn68 N72 2.020 . S
Zn68 O76 2.019 . S
Zn68 N78 2.119 . S
Zn68 O86 1.975 1_655 S
C69 N70 1.334 . S
C69 N73 1.336 . S
N70 C69 1.334 . S
N70 C71 1.334 . S
C71 N70 1.334 . S
C71 N72 1.336 . S
N72 Zn68 2.020 . S
N72 C71 1.336 . S
N72 N73 1.354 . S
N73 C69 1.336 . S
N73 N72 1.354 . S
N73 Zn77 2.027 . S
C74 O75 1.244 . S
C74 O98 1.257 1_655 S
O75 C74 1.244 . S
O76 Zn68 2.019 . S
O76 C96 1.257 . S
Zn77 N73 2.027 . S
Zn77 O84 1.972 1_655 S
Zn77 N93 2.111 1_655 S
Zn77 O98 2.015 1_655 S
N78 Zn68 2.119 . S
N78 C80 1.334 . S
N78 C81 1.328 . S
C79 C80 1.391 . S
C79 N82 1.329 . S
C79 H100 0.930 . S
C80 N78 1.334 . S
C80 C79 1.391 . S
C80 H87 0.930 . S
C81 N78 1.328 . S
C81 C83 1.392 . S
C81 H88 0.930 . S
N82 C79 1.329 . S
N82 C83 1.331 . S
C83 C81 1.392 . S
C83 N82 1.331 . S
O84 Zn77 1.972 1_455 S
O84 C85 1.252 . S
C85 O84 1.252 . S
C85 O86 1.252 . S
O86 Zn68 1.975 1_455 S
O86 C85 1.252 . S
H87 C80 0.930 . S
H88 C81 0.930 . S
C89 C90 1.392 . S
C89 N93 1.328 . S
C89 H95 0.930 . S
C90 C89 1.392 . S
C90 N94 1.331 . S
C91 C92 1.391 . S
C91 N94 1.329 . S
C91 H101 0.930 . S
C92 C91 1.391 . S
C92 N93 1.334 . S
C92 H99 0.930 . S
N93 Zn77 2.111 1_455 S
N93 C89 1.328 . S
N93 C92 1.334 . S
N94 C90 1.331 . S
N94 C91 1.329 . S
H95 C89 0.930 . S
C96 O76 1.257 . S
C96 O97 1.244 . S
O97 C96 1.244 . S
O98 C74 1.257 1_455 S
O98 Zn77 2.015 1_455 S
H99 C92 0.930 . S
H100 C79 0.930 . S
H101 C91 0.930 . S
Zn102 N106 2.020 . S
Zn102 O110 2.019 . S
Zn102 N112 2.119 . S
Zn102 O120 1.975 1_565 S
C103 N104 1.334 . S
C103 N107 1.336 . S
N104 C103 1.334 . S
N104 C105 1.334 . S
C105 N104 1.334 . S
C105 N106 1.336 . S
N106 Zn102 2.020 . S
N106 C105 1.336 . S
N106 N107 1.354 . S
N107 C103 1.336 . S
N107 N106 1.354 . S
N107 Zn111 2.027 . S
C108 O109 1.244 . S
C108 O132 1.257 1_565 S
O109 C108 1.244 . S
O110 Zn102 2.019 . S
O110 C130 1.257 . S
Zn111 N107 2.027 . S
Zn111 O118 1.972 1_565 S
Zn111 N127 2.111 1_565 S
Zn111 O132 2.015 1_565 S
N112 Zn102 2.119 . S
N112 C114 1.334 . S
N112 C115 1.328 . S
C113 C114 1.391 . S
C113 N116 1.329 . S
C113 H134 0.930 . S
C114 N112 1.334 . S
C114 C113 1.391 . S
C114 H121 0.930 . S
C115 N112 1.328 . S
C115 C117 1.392 . S
C115 H122 0.930 . S
N116 C113 1.329 . S
N116 C117 1.331 . S
C117 C115 1.392 . S
C117 N116 1.331 . S
O118 Zn111 1.972 1_545 S
O118 C119 1.252 . S
C119 O118 1.252 . S
C119 O120 1.252 . S
O120 Zn102 1.975 1_545 S
O120 C119 1.252 . S
H121 C114 0.930 . S
H122 C115 0.930 . S
C123 C124 1.392 . S
C123 N127 1.328 . S
C123 H129 0.930 . S
C124 C123 1.392 . S
C124 N128 1.331 . S
C125 C126 1.391 . S
C125 N128 1.329 . S
C125 H135 0.930 . S
C126 C125 1.391 . S
C126 N127 1.334 . S
C126 H133 0.930 . S
N127 Zn111 2.111 1_545 S
N127 C123 1.328 . S
N127 C126 1.334 . S
N128 C124 1.331 . S
N128 C125 1.329 . S
H129 C123 0.930 . S
C130 O110 1.257 . S
C130 O131 1.244 . S
O131 C130 1.244 . S
O132 C108 1.257 1_545 S
O132 Zn111 2.015 1_545 S
H133 C126 0.930 . S
H134 C113 0.930 . S
H135 C125 0.930 . S
Zn136 N140 2.027 . S
Zn136 O144 2.015 1_455 S
Zn136 N146 2.111 1_455 S
Zn136 O154 1.972 1_455 S
C137 N138 1.334 . S
C137 N141 1.336 . S
N138 C137 1.334 . S
N138 C139 1.334 . S
C139 N138 1.334 . S
C139 N140 1.336 . S
N140 Zn136 2.027 . S
N140 C139 1.336 . S
N140 N141 1.354 . S
N141 C137 1.336 . S
N141 N140 1.354 . S
N141 Zn145 2.020 . S
C142 O143 1.244 1_556 S
C142 O166 1.257 . S
O143 C142 1.244 1_554 S
O144 Zn136 2.015 1_655 S
O144 C164 1.257 1_655 S
Zn145 N141 2.020 . S
Zn145 O152 1.975 1_455 S
Zn145 N161 2.119 . S
Zn145 O166 2.019 1_554 S
N146 Zn136 2.111 1_655 S
N146 C148 1.334 . S
N146 C149 1.328 . S
C147 C148 1.391 . S
C147 N150 1.329 . S
C147 H168 0.930 . S
C148 N146 1.334 . S
C148 C147 1.391 . S
C148 H155 0.930 . S
C149 N146 1.328 . S
C149 C151 1.392 . S
C149 H156 0.930 . S
N150 C147 1.329 . S
N150 C151 1.331 . S
C151 C149 1.392 . S
C151 N150 1.331 . S
O152 Zn145 1.975 1_655 S
O152 C153 1.252 . S
C153 O152 1.252 . S
C153 O154 1.252 . S
O154 Zn136 1.972 1_655 S
O154 C153 1.252 . S
H155 C148 0.930 . S
H156 C149 0.930 . S
C157 C158 1.392 . S
C157 N161 1.328 . S
C157 H163 0.930 . S
C158 C157 1.392 . S
C158 N162 1.331 . S
C159 C160 1.391 . S
C159 N162 1.329 . S
C159 H169 0.930 . S
C160 C159 1.391 . S
C160 N161 1.334 . S
C160 H167 0.930 . S
N161 Zn145 2.119 . S
N161 C157 1.328 . S
N161 C160 1.334 . S
N162 C158 1.331 . S
N162 C159 1.329 . S
H163 C157 0.930 . S
C164 O144 1.257 1_455 S
C164 O165 1.244 . S
O165 C164 1.244 . S
O166 C142 1.257 . S
O166 Zn145 2.019 1_556 S
H167 C160 0.930 . S
H168 C147 0.930 . S
H169 C159 0.930 . S
Zn170 N174 2.027 . S
Zn170 O178 2.015 1_545 S
Zn170 N180 2.111 1_545 S
Zn170 O188 1.972 1_545 S
C171 N172 1.334 . S
C171 N175 1.336 . S
N172 C171 1.334 . S
N172 C173 1.334 . S
C173 N172 1.334 . S
C173 N174 1.336 . S
N174 Zn170 2.027 . S
N174 C173 1.336 . S
N174 N175 1.354 . S
N175 C171 1.336 . S
N175 N174 1.354 . S
N175 Zn179 2.020 . S
C176 O177 1.244 1_556 S
C176 O200 1.257 . S
O177 C176 1.244 1_554 S
O178 Zn170 2.015 1_565 S
O178 C198 1.257 1_565 S
Zn179 N175 2.020 . S
Zn179 O186 1.975 1_545 S
Zn179 N195 2.119 . S
Zn179 O200 2.019 1_554 S
N180 Zn170 2.111 1_565 S
N180 C182 1.334 . S
N180 C183 1.328 . S
C181 C182 1.391 . S
C181 N184 1.329 . S
C181 H202 0.930 . S
C182 N180 1.334 . S
C182 C181 1.391 . S
C182 H189 0.930 . S
C183 N180 1.328 . S
C183 C185 1.392 . S
C183 H190 0.930 . S
N184 C181 1.329 . S
N184 C185 1.331 . S
C185 C183 1.392 . S
C185 N184 1.331 . S
O186 Zn179 1.975 1_565 S
O186 C187 1.252 . S
C187 O186 1.252 . S
C187 O188 1.252 . S
O188 Zn170 1.972 1_565 S
O188 C187 1.252 . S
H189 C182 0.930 . S
H190 C183 0.930 . S
C191 C192 1.392 . S
C191 N195 1.328 . S
C191 H197 0.930 . S
C192 C191 1.392 . S
C192 N196 1.331 . S
C193 C194 1.391 . S
C193 N196 1.329 . S
C193 H203 0.930 . S
C194 C193 1.391 . S
C194 N195 1.334 . S
C194 H201 0.930 . S
N195 Zn179 2.119 . S
N195 C191 1.328 . S
N195 C194 1.334 . S
N196 C192 1.331 . S
N196 C193 1.329 . S
H197 C191 0.930 . S
C198 O178 1.257 1_545 S
C198 O199 1.244 . S
O199 C198 1.244 . S
O200 C176 1.257 . S
O200 Zn179 2.019 1_556 S
H201 C194 0.930 . S
H202 C181 0.930 . S
H203 C193 0.930 . S
Zn204 N208 2.020 . S
Zn204 O212 2.019 . S
Zn204 N214 2.119 . S
Zn204 O222 1.975 . S
C205 N206 1.334 . S
C205 N209 1.336 . S
N206 C205 1.334 . S
N206 C207 1.334 . S
C207 N206 1.334 . S
C207 N208 1.336 . S
N208 Zn204 2.020 . S
N208 C207 1.336 . S
N208 N209 1.354 . S
N209 C205 1.336 . S
N209 N208 1.354 . S
N209 Zn213 2.020 . S
C210 O211 1.244 1_556 S
C210 O234 1.257 . S
O211 C210 1.244 1_554 S
O212 Zn204 2.019 . S
O212 C232 1.257 . S
Zn213 N209 2.020 . S
Zn213 O220 1.975 . S
Zn213 N229 2.119 . S
Zn213 O234 2.019 1_554 S
N214 Zn204 2.119 . S
N214 C216 1.334 . S
N214 C217 1.328 . S
C215 C216 1.391 . S
C215 N218 1.329 . S
C215 H236 0.930 . S
C216 N214 1.334 . S
C216 C215 1.391 . S
C216 H223 0.930 . S
C217 N214 1.328 . S
C217 C219 1.392 . S
C217 H224 0.930 . S
N218 C215 1.329 . S
N218 C219 1.331 . S
C219 C217 1.392 . S
C219 N218 1.331 . S
O220 Zn213 1.975 . S
O220 C221 1.252 . S
C221 O220 1.252 . S
C221 O222 1.252 . S
O222 Zn204 1.975 . S
O222 C221 1.252 . S
H223 C216 0.930 . S
H224 C217 0.930 . S
C225 C226 1.392 . S
C225 N229 1.328 . S
C225 H231 0.930 . S
C226 C225 1.392 . S
C226 N230 1.331 . S
C227 C228 1.391 . S
C227 N230 1.329 . S
C227 H237 0.930 . S
C228 C227 1.391 . S
C228 N229 1.334 . S
C228 H235 0.930 . S
N229 Zn213 2.119 . S
N229 C225 1.328 . S
N229 C228 1.334 . S
N230 C226 1.331 . S
N230 C227 1.329 . S
H231 C225 0.930 . S
C232 O212 1.257 . S
C232 O233 1.244 . S
O233 C232 1.244 . S
O234 C210 1.257 . S
O234 Zn213 2.019 1_556 S
H235 C228 0.930 . S
H236 C215 0.930 . S
H237 C227 0.930 . S
Zn238 N242 2.020 . S
Zn238 O246 2.019 . S
Zn238 N248 2.119 . S
Zn238 O256 1.975 . S
C239 N240 1.334 . S
C239 N243 1.336 . S
N240 C239 1.334 . S
N240 C241 1.334 . S
C241 N240 1.334 . S
C241 N242 1.336 . S
N242 Zn238 2.020 . S
N242 C241 1.336 . S
N242 N243 1.354 . S
N243 C239 1.336 . S
N243 N242 1.354 . S
N243 Zn247 2.020 . S
C244 O245 1.244 1_556 S
C244 O268 1.257 . S
O245 C244 1.244 1_554 S
O246 Zn238 2.019 . S
O246 C266 1.257 . S
Zn247 N243 2.020 . S
Zn247 O254 1.975 . S
Zn247 N263 2.119 . S
Zn247 O268 2.019 1_554 S
N248 Zn238 2.119 . S
N248 C250 1.334 . S
N248 C251 1.328 . S
C249 C250 1.391 . S
C249 N252 1.329 . S
C249 H270 0.930 . S
C250 N248 1.334 . S
C250 C249 1.391 . S
C250 H257 0.930 . S
C251 N248 1.328 . S
C251 C253 1.392 . S
C251 H258 0.930 . S
N252 C249 1.329 . S
N252 C253 1.331 . S
C253 C251 1.392 . S
C253 N252 1.331 . S
O254 Zn247 1.975 . S
O254 C255 1.252 . S
C255 O254 1.252 . S
C255 O256 1.252 . S
O256 Zn238 1.975 . S
O256 C255 1.252 . S
H257 C250 0.930 . S
H258 C251 0.930 . S
C259 C260 1.392 . S
C259 N263 1.328 . S
C259 H265 0.930 . S
C260 C259 1.392 . S
C260 N264 1.331 . S
C261 C262 1.391 . S
C261 N264 1.329 . S
C261 H271 0.930 . S
C262 C261 1.391 . S
C262 N263 1.334 . S
C262 H269 0.930 . S
N263 Zn247 2.119 . S
N263 C259 1.328 . S
N263 C262 1.334 . S
N264 C260 1.331 . S
N264 C261 1.329 . S
H265 C259 0.930 . S
C266 O246 1.257 . S
C266 O267 1.244 . S
O267 C266 1.244 . S
O268 C244 1.257 . S
O268 Zn247 2.019 1_556 S
H269 C262 0.930 . S
H270 C249 0.930 . S
H271 C261 0.930 . S
Zn272 N276 2.020 . S
Zn272 O280 2.019 . S
Zn272 N282 2.119 . S
Zn272 O290 1.975 . S
C273 N274 1.334 . S
C273 N277 1.336 . S
N274 C273 1.334 . S
N274 C275 1.334 . S
C275 N274 1.334 . S
C275 N276 1.336 . S
N276 Zn272 2.020 . S
N276 C275 1.336 . S
N276 N277 1.354 . S
N277 C273 1.336 . S
N277 N276 1.354 . S
N277 Zn281 2.020 . S
C278 O279 1.244 . S
C278 O302 1.257 . S
O279 C278 1.244 . S
O280 Zn272 2.019 . S
O280 C300 1.257 . S
Zn281 N277 2.020 . S
Zn281 O288 1.975 . S
Zn281 N297 2.119 . S
Zn281 O302 2.019 . S
N282 Zn272 2.119 . S
N282 C284 1.334 . S
N282 C285 1.328 . S
C283 C284 1.391 . S
C283 N286 1.329 . S
C283 H304 0.930 . S
C284 N282 1.334 . S
C284 C283 1.391 . S
C284 H291 0.930 . S
C285 N282 1.328 . S
C285 C287 1.392 . S
C285 H292 0.930 . S
N286 C283 1.329 . S
N286 C287 1.331 . S
C287 C285 1.392 . S
C287 N286 1.331 . S
O288 Zn281 1.975 . S
O288 C289 1.252 . S
C289 O288 1.252 . S
C289 O290 1.252 . S
O290 Zn272 1.975 . S
O290 C289 1.252 . S
H291 C284 0.930 . S
H292 C285 0.930 . S
C293 C294 1.392 . S
C293 N297 1.328 . S
C293 H299 0.930 . S
C294 C293 1.392 . S
C294 N298 1.331 . S
C295 C296 1.391 . S
C295 N298 1.329 . S
C295 H305 0.930 . S
C296 C295 1.391 . S
C296 N297 1.334 . S
C296 H303 0.930 . S
N297 Zn281 2.119 . S
N297 C293 1.328 . S
N297 C296 1.334 . S
N298 C294 1.331 . S
N298 C295 1.329 . S
H299 C293 0.930 . S
C300 O280 1.257 . S
C300 O301 1.244 . S
O301 C300 1.244 . S
O302 C278 1.257 . S
O302 Zn281 2.019 . S
H303 C296 0.930 . S
H304 C283 0.930 . S
H305 C295 0.930 . S
Zn306 N310 2.020 . S
Zn306 O314 2.019 . S
Zn306 N316 2.119 . S
Zn306 O324 1.975 . S
C307 N308 1.334 . S
C307 N311 1.336 . S
N308 C307 1.334 . S
N308 C309 1.334 . S
C309 N308 1.334 . S
C309 N310 1.336 . S
N310 Zn306 2.020 . S
N310 C309 1.336 . S
N310 N311 1.354 . S
N311 C307 1.336 . S
N311 N310 1.354 . S
N311 Zn315 2.020 . S
C312 O313 1.244 . S
C312 O336 1.257 . S
O313 C312 1.244 . S
O314 Zn306 2.019 . S
O314 C334 1.257 . S
Zn315 N311 2.020 . S
Zn315 O322 1.975 . S
Zn315 N331 2.119 . S
Zn315 O336 2.019 . S
N316 Zn306 2.119 . S
N316 C318 1.334 . S
N316 C319 1.328 . S
C317 C318 1.391 . S
C317 N320 1.329 . S
C317 H338 0.930 . S
C318 N316 1.334 . S
C318 C317 1.391 . S
C318 H325 0.930 . S
C319 N316 1.328 . S
C319 C321 1.392 . S
C319 H326 0.930 . S
N320 C317 1.329 . S
N320 C321 1.331 . S
C321 C319 1.392 . S
C321 N320 1.331 . S
O322 Zn315 1.975 . S
O322 C323 1.252 . S
C323 O322 1.252 . S
C323 O324 1.252 . S
O324 Zn306 1.975 . S
O324 C323 1.252 . S
H325 C318 0.930 . S
H326 C319 0.930 . S
C327 C328 1.392 . S
C327 N331 1.328 . S
C327 H333 0.930 . S
C328 C327 1.392 . S
C328 N332 1.331 . S
C329 C330 1.391 . S
C329 N332 1.329 . S
C329 H339 0.930 . S
C330 C329 1.391 . S
C330 N331 1.334 . S
C330 H337 0.930 . S
N331 Zn315 2.119 . S
N331 C327 1.328 . S
N331 C330 1.334 . S
N332 C328 1.331 . S
N332 C329 1.329 . S
H333 C327 0.930 . S
C334 O314 1.257 . S
C334 O335 1.244 . S
O335 C334 1.244 . S
O336 C312 1.257 . S
O336 Zn315 2.019 . S
H337 C330 0.930 . S
H338 C317 0.930 . S
H339 C329 0.930 . S
Zn340 N344 2.020 . S
Zn340 O348 2.019 . S
Zn340 N350 2.119 . S
Zn340 O358 1.975 1_455 S
C341 N342 1.334 . S
C341 N345 1.336 . S
N342 C341 1.334 . S
N342 C343 1.334 . S
C343 N342 1.334 . S
C343 N344 1.336 . S
N344 Zn340 2.020 . S
N344 C343 1.336 . S
N344 N345 1.354 . S
N345 C341 1.336 . S
N345 N344 1.354 . S
N345 Zn349 2.027 . S
C346 O347 1.244 . S
C346 O370 1.257 1_455 S
O347 C346 1.244 . S
O348 Zn340 2.019 . S
O348 C368 1.257 . S
Zn349 N345 2.027 . S
Zn349 O356 1.972 1_455 S
Zn349 N365 2.111 1_455 S
Zn349 O370 2.015 1_455 S
N350 Zn340 2.119 . S
N350 C352 1.334 . S
N350 C353 1.328 . S
C351 C352 1.391 . S
C351 N354 1.329 . S
C351 H372 0.930 . S
C352 N350 1.334 . S
C352 C351 1.391 . S
C352 H359 0.930 . S
C353 N350 1.328 . S
C353 C355 1.392 . S
C353 H360 0.930 . S
N354 C351 1.329 . S
N354 C355 1.331 . S
C355 C353 1.392 . S
C355 N354 1.331 . S
O356 Zn349 1.972 1_655 S
O356 C357 1.252 . S
C357 O356 1.252 . S
C357 O358 1.252 . S
O358 Zn340 1.975 1_655 S
O358 C357 1.252 . S
H359 C352 0.930 . S
H360 C353 0.930 . S
C361 C362 1.392 . S
C361 N365 1.328 . S
C361 H367 0.930 . S
C362 C361 1.392 . S
C362 N366 1.331 . S
C363 C364 1.391 . S
C363 N366 1.329 . S
C363 H373 0.930 . S
C364 C363 1.391 . S
C364 N365 1.334 . S
C364 H371 0.930 . S
N365 Zn349 2.111 1_655 S
N365 C361 1.328 . S
N365 C364 1.334 . S
N366 C362 1.331 . S
N366 C363 1.329 . S
H367 C361 0.930 . S
C368 O348 1.257 . S
C368 O369 1.244 . S
O369 C368 1.244 . S
O370 C346 1.257 1_655 S
O370 Zn349 2.015 1_655 S
H371 C364 0.930 . S
H372 C351 0.930 . S
H373 C363 0.930 . S
Zn374 N378 2.027 . S
Zn374 O382 2.015 1_545 S
Zn374 N384 2.111 1_545 S
Zn374 O392 1.972 1_545 S
C375 N376 1.334 . S
C375 N379 1.336 . S
N376 C375 1.334 . S
N376 C377 1.334 . S
C377 N376 1.334 . S
C377 N378 1.336 . S
N378 Zn374 2.027 . S
N378 C377 1.336 . S
N378 N379 1.354 . S
N379 C375 1.336 . S
N379 N378 1.354 . S
N379 Zn383 2.020 . S
C380 O381 1.244 . S
C380 O404 1.257 . S
O381 C380 1.244 . S
O382 Zn374 2.015 1_565 S
O382 C402 1.257 1_565 S
Zn383 N379 2.020 . S
Zn383 O390 1.975 1_545 S
Zn383 N399 2.119 . S
Zn383 O404 2.019 . S
N384 Zn374 2.111 1_565 S
N384 C386 1.334 . S
N384 C387 1.328 . S
C385 C386 1.391 . S
C385 N388 1.329 . S
C385 H406 0.930 . S
C386 N384 1.334 . S
C386 C385 1.391 . S
C386 H393 0.930 . S
C387 N384 1.328 . S
C387 C389 1.392 . S
C387 H394 0.930 . S
N388 C385 1.329 . S
N388 C389 1.331 . S
C389 C387 1.392 . S
C389 N388 1.331 . S
O390 Zn383 1.975 1_565 S
O390 C391 1.252 . S
C391 O390 1.252 . S
C391 O392 1.252 . S
O392 Zn374 1.972 1_565 S
O392 C391 1.252 . S
H393 C386 0.930 . S
H394 C387 0.930 . S
C395 C396 1.392 . S
C395 N399 1.328 . S
C395 H401 0.930 . S
C396 C395 1.392 . S
C396 N400 1.331 . S
C397 C398 1.391 . S
C397 N400 1.329 . S
C397 H407 0.930 . S
C398 C397 1.391 . S
C398 N399 1.334 . S
C398 H405 0.930 . S
N399 Zn383 2.119 . S
N399 C395 1.328 . S
N399 C398 1.334 . S
N400 C396 1.331 . S
N400 C397 1.329 . S
H401 C395 0.930 . S
C402 O382 1.257 1_545 S
C402 O403 1.244 . S
O403 C402 1.244 . S
O404 C380 1.257 . S
O404 Zn383 2.019 . S
H405 C398 0.930 . S
H406 C385 0.930 . S
H407 C397 0.930 . S
Zn408 N412 2.027 . S
Zn408 O416 2.015 1_655 S
Zn408 N418 2.111 1_655 S
Zn408 O426 1.972 1_655 S
C409 N410 1.334 . S
C409 N413 1.336 . S
N410 C409 1.334 . S
N410 C411 1.334 . S
C411 N410 1.334 . S
C411 N412 1.336 . S
N412 Zn408 2.027 . S
N412 C411 1.336 . S
N412 N413 1.354 . S
N413 C409 1.336 . S
N413 N412 1.354 . S
N413 Zn417 2.020 . S
C414 O415 1.244 1_554 S
C414 O438 1.257 . S
O415 C414 1.244 1_556 S
O416 Zn408 2.015 1_455 S
O416 C436 1.257 1_455 S
Zn417 N413 2.020 . S
Zn417 O424 1.975 1_655 S
Zn417 N433 2.119 . S
Zn417 O438 2.019 1_556 S
N418 Zn408 2.111 1_455 S
N418 C420 1.334 . S
N418 C421 1.328 . S
C419 C420 1.391 . S
C419 N422 1.329 . S
C419 H440 0.930 . S
C420 N418 1.334 . S
C420 C419 1.391 . S
C420 H427 0.930 . S
C421 N418 1.328 . S
C421 C423 1.392 . S
C421 H428 0.930 . S
N422 C419 1.329 . S
N422 C423 1.331 . S
C423 C421 1.392 . S
C423 N422 1.331 . S
O424 Zn417 1.975 1_455 S
O424 C425 1.252 . S
C425 O424 1.252 . S
C425 O426 1.252 . S
O426 Zn408 1.972 1_455 S
O426 C425 1.252 . S
H427 C420 0.930 . S
H428 C421 0.930 . S
C429 C430 1.392 . S
C429 N433 1.328 . S
C429 H435 0.930 . S
C430 C429 1.392 . S
C430 N434 1.331 . S
C431 C432 1.391 . S
C431 N434 1.329 . S
C431 H441 0.930 . S
C432 C431 1.391 . S
C432 N433 1.334 . S
C432 H439 0.930 . S
N433 Zn417 2.119 . S
N433 C429 1.328 . S
N433 C432 1.334 . S
N434 C430 1.331 . S
N434 C431 1.329 . S
H435 C429 0.930 . S
C436 O416 1.257 1_655 S
C436 O437 1.244 . S
O437 C436 1.244 . S
O438 C414 1.257 . S
O438 Zn417 2.019 1_554 S
H439 C432 0.930 . S
H440 C419 0.930 . S
H441 C431 0.930 . S
Zn442 N446 2.027 . S
Zn442 O450 2.015 1_565 S
Zn442 N452 2.111 1_565 S
Zn442 O460 1.972 1_565 S
C443 N444 1.334 . S
C443 N447 1.336 . S
N444 C443 1.334 . S
N444 C445 1.334 . S
C445 N444 1.334 . S
C445 N446 1.336 . S
N446 Zn442 2.027 . S
N446 C445 1.336 . S
N446 N447 1.354 . S
N447 C443 1.336 . S
N447 N446 1.354 . S
N447 Zn451 2.020 . S
C448 O449 1.244 1_554 S
C448 O472 1.257 . S
O449 C448 1.244 1_556 S
O450 Zn442 2.015 1_545 S
O450 C470 1.257 1_545 S
Zn451 N447 2.020 . S
Zn451 O458 1.975 1_565 S
Zn451 N467 2.119 . S
Zn451 O472 2.019 1_556 S
N452 Zn442 2.111 1_545 S
N452 C454 1.334 . S
N452 C455 1.328 . S
C453 C454 1.391 . S
C453 N456 1.329 . S
C453 H474 0.930 . S
C454 N452 1.334 . S
C454 C453 1.391 . S
C454 H461 0.930 . S
C455 N452 1.328 . S
C455 C457 1.392 . S
C455 H462 0.930 . S
N456 C453 1.329 . S
N456 C457 1.331 . S
C457 C455 1.392 . S
C457 N456 1.331 . S
O458 Zn451 1.975 1_545 S
O458 C459 1.252 . S
C459 O458 1.252 . S
C459 O460 1.252 . S
O460 Zn442 1.972 1_545 S
O460 C459 1.252 . S
H461 C454 0.930 . S
H462 C455 0.930 . S
C463 C464 1.392 . S
C463 N467 1.328 . S
C463 H469 0.930 . S
C464 C463 1.392 . S
C464 N468 1.331 . S
C465 C466 1.391 . S
C465 N468 1.329 . S
C465 H475 0.930 . S
C466 C465 1.391 . S
C466 N467 1.334 . S
C466 H473 0.930 . S
N467 Zn451 2.119 . S
N467 C463 1.328 . S
N467 C466 1.334 . S
N468 C464 1.331 . S
N468 C465 1.329 . S
H469 C463 0.930 . S
C470 O450 1.257 1_565 S
C470 O471 1.244 . S
O471 C470 1.244 . S
O472 C448 1.257 . S
O472 Zn451 2.019 1_554 S
H473 C466 0.930 . S
H474 C453 0.930 . S
H475 C465 0.930 . S
Zn476 N480 2.020 . S
Zn476 O484 2.019 1_556 S
Zn476 N486 2.119 . S
Zn476 O494 1.975 . S
C477 N478 1.334 . S
C477 N481 1.336 . S
N478 C477 1.334 . S
N478 C479 1.334 . S
C479 N478 1.334 . S
C479 N480 1.336 . S
N480 Zn476 2.020 . S
N480 C479 1.336 . S
N480 N481 1.354 . S
N481 C477 1.336 . S
N481 N480 1.354 . S
N481 Zn485 2.020 . S
C482 O483 1.244 . S
C482 O506 1.257 . S
O483 C482 1.244 . S
O484 Zn476 2.019 1_554 S
O484 C504 1.257 . S
Zn485 N481 2.020 . S
Zn485 O492 1.975 . S
Zn485 N501 2.119 . S
Zn485 O506 2.019 . S
N486 Zn476 2.119 . S
N486 C488 1.334 . S
N486 C489 1.328 . S
C487 C488 1.391 . S
C487 N490 1.329 . S
C487 H508 0.930 . S
C488 N486 1.334 . S
C488 C487 1.391 . S
C488 H495 0.930 . S
C489 N486 1.328 . S
C489 C491 1.392 . S
C489 H496 0.930 . S
N490 C487 1.329 . S
N490 C491 1.331 . S
C491 C489 1.392 . S
C491 N490 1.331 . S
O492 Zn485 1.975 . S
O492 C493 1.252 . S
C493 O492 1.252 . S
C493 O494 1.252 . S
O494 Zn476 1.975 . S
O494 C493 1.252 . S
H495 C488 0.930 . S
H496 C489 0.930 . S
C497 C498 1.392 . S
C497 N501 1.328 . S
C497 H503 0.930 . S
C498 C497 1.392 . S
C498 N502 1.331 . S
C499 C500 1.391 . S
C499 N502 1.329 . S
C499 H509 0.930 . S
C500 C499 1.391 . S
C500 N501 1.334 . S
C500 H507 0.930 . S
N501 Zn485 2.119 . S
N501 C497 1.328 . S
N501 C500 1.334 . S
N502 C498 1.331 . S
N502 C499 1.329 . S
H503 C497 0.930 . S
C504 O484 1.257 . S
C504 O505 1.244 1_554 S
O505 C504 1.244 1_556 S
O506 C482 1.257 . S
O506 Zn485 2.019 . S
H507 C500 0.930 . S
H508 C487 0.930 . S
H509 C499 0.930 . S
Zn510 N514 2.020 . S
Zn510 O518 2.019 . S
Zn510 N520 2.119 . S
Zn510 O528 1.975 . S
C511 N512 1.334 . S
C511 N515 1.336 . S
N512 C511 1.334 . S
N512 C513 1.334 . S
C513 N512 1.334 . S
C513 N514 1.336 . S
N514 Zn510 2.020 . S
N514 C513 1.336 . S
N514 N515 1.354 . S
N515 C511 1.336 . S
N515 N514 1.354 . S
N515 Zn519 2.020 . S
C516 O517 1.244 1_554 S
C516 O540 1.257 . S
O517 C516 1.244 1_556 S
O518 Zn510 2.019 . S
O518 C538 1.257 . S
Zn519 N515 2.020 . S
Zn519 O526 1.975 . S
Zn519 N535 2.119 . S
Zn519 O540 2.019 1_556 S
N520 Zn510 2.119 . S
N520 C522 1.334 . S
N520 C523 1.328 . S
C521 C522 1.391 . S
C521 N524 1.329 . S
C521 H542 0.930 . S
C522 N520 1.334 . S
C522 C521 1.391 . S
C522 H529 0.930 . S
C523 N520 1.328 . S
C523 C525 1.392 . S
C523 H530 0.930 . S
N524 C521 1.329 . S
N524 C525 1.331 . S
C525 C523 1.392 . S
C525 N524 1.331 . S
O526 Zn519 1.975 . S
O526 C527 1.252 . S
C527 O526 1.252 . S
C527 O528 1.252 . S
O528 Zn510 1.975 . S
O528 C527 1.252 . S
H529 C522 0.930 . S
H530 C523 0.930 . S
C531 C532 1.392 . S
C531 N535 1.328 . S
C531 H537 0.930 . S
C532 C531 1.392 . S
C532 N536 1.331 . S
C533 C534 1.391 . S
C533 N536 1.329 . S
C533 H543 0.930 . S
C534 C533 1.391 . S
C534 N535 1.334 . S
C534 H541 0.930 . S
N535 Zn519 2.119 . S
N535 C531 1.328 . S
N535 C534 1.334 . S
N536 C532 1.331 . S
N536 C533 1.329 . S
H537 C531 0.930 . S
C538 O518 1.257 . S
C538 O539 1.244 . S
O539 C538 1.244 . S
O540 C516 1.257 . S
O540 Zn519 2.019 1_554 S
H541 C534 0.930 . S
H542 C521 0.930 . S
H543 C533 0.930 . S
C544 C545 1.387 . S
C544 H548 0.950 . S
C544 C553 1.390 . S
C545 C544 1.387 . S
C545 C547 1.387 . S
H546 C553 0.950 . S
C547 C545 1.387 . S
C547 C549 1.390 . S
C547 H551 0.950 . S
H548 C544 0.950 . S
C549 C547 1.390 . S
C549 C550 1.387 . S
C549 H552 0.950 . S
C550 C549 1.387 . S
C550 C553 1.387 . S
H551 C547 0.950 . S
H552 C549 0.950 . S
C553 C544 1.390 . S
C553 H546 0.950 . S
C553 C550 1.387 . S
C554 C555 1.387 . S
C554 H558 0.950 . S
C554 C563 1.390 . S
C555 C554 1.387 . S
C555 C557 1.387 . S
H556 C563 0.950 . S
C557 C555 1.387 . S
C557 C559 1.390 . S
C557 H561 0.950 . S
H558 C554 0.950 . S
C559 C557 1.390 . S
C559 C560 1.387 . S
C559 H562 0.950 . S
C560 C559 1.387 . S
C560 C563 1.387 . S
H561 C557 0.950 . S
H562 C559 0.950 . S
C563 C554 1.390 . S
C563 H556 0.950 . S
C563 C560 1.387 . S
C564 C565 1.387 . S
C564 H568 0.950 . S
C564 C573 1.390 . S
C565 C564 1.387 . S
C565 C567 1.387 . S
H566 C573 0.950 . S
C567 C565 1.387 . S
C567 C569 1.390 . S
C567 H571 0.950 . S
H568 C564 0.950 . S
C569 C567 1.390 . S
C569 C570 1.387 . S
C569 H572 0.950 . S
C570 C569 1.387 . S
C570 C573 1.387 . S
H571 C567 0.950 . S
H572 C569 0.950 . S
C573 C564 1.390 . S
C573 H566 0.950 . S
C573 C570 1.387 . S
C574 C575 1.387 . S
C574 H578 0.950 . S
C574 C583 1.390 . S
C575 C574 1.387 . S
C575 C577 1.387 . S
H576 C583 0.950 . S
C577 C575 1.387 . S
C577 C579 1.390 . S
C577 H581 0.950 . S
H578 C574 0.950 . S
C579 C577 1.390 . S
C579 C580 1.387 . S
C579 H582 0.950 . S
C580 C579 1.387 . S
C580 C583 1.387 . S
H581 C577 0.950 . S
H582 C579 0.950 . S
C583 C574 1.390 . S
C583 H576 0.950 . S
C583 C580 1.387 . S
C584 C585 1.387 . S
C584 H588 0.950 . S
C584 C593 1.390 . S
C585 C584 1.387 . S
C585 C587 1.387 . S
H586 C593 0.950 . S
C587 C585 1.387 . S
C587 C589 1.390 . S
C587 H591 0.950 . S
H588 C584 0.950 . S
C589 C587 1.390 . S
C589 C590 1.387 . S
C589 H592 0.950 . S
C590 C589 1.387 . S
C590 C593 1.387 . S
H591 C587 0.950 . S
H592 C589 0.950 . S
C593 C584 1.390 . S
C593 H586 0.950 . S
C593 C590 1.387 . S
C594 C595 1.387 . S
C594 H598 0.950 . S
C594 C603 1.390 . S
C595 C594 1.387 . S
C595 C597 1.387 . S
H596 C603 0.950 . S
C597 C595 1.387 . S
C597 C599 1.390 . S
C597 H601 0.950 . S
H598 C594 0.950 . S
C599 C597 1.390 . S
C599 C600 1.387 . S
C599 H602 0.950 . S
C600 C599 1.387 . S
C600 C603 1.387 . S
H601 C597 0.950 . S
H602 C599 0.950 . S
C603 C594 1.390 . S
C603 H596 0.950 . S
C603 C600 1.387 . S
C604 C605 1.387 . S
C604 H608 0.950 . S
C604 C613 1.390 . S
C605 C604 1.387 . S
C605 C607 1.387 . S
H606 C613 0.950 . S
C607 C605 1.387 . S
C607 C609 1.390 . S
C607 H611 0.950 . S
H608 C604 0.950 . S
C609 C607 1.390 . S
C609 C610 1.387 . S
C609 H612 0.950 . S
C610 C609 1.387 . S
C610 C613 1.387 . S
H611 C607 0.950 . S
H612 C609 0.950 . S
C613 C604 1.390 . S
C613 H606 0.950 . S
C613 C610 1.387 . S
C614 C615 1.387 . S
C614 H618 0.950 . S
C614 C623 1.390 . S
C615 C614 1.387 . S
C615 C617 1.387 . S
H616 C623 0.950 . S
C617 C615 1.387 . S
C617 C619 1.390 . S
C617 H621 0.950 . S
H618 C614 0.950 . S
C619 C617 1.390 . S
C619 C620 1.387 . S
C619 H622 0.950 . S
C620 C619 1.387 . S
C620 C623 1.387 . S
H621 C617 0.950 . S
H622 C619 0.950 . S
C623 C614 1.390 . S
C623 H616 0.950 . S
C623 C620 1.387 . S
C624 C625 1.387 . S
C624 H628 0.950 . S
C624 C633 1.390 . S
C625 C624 1.387 . S
C625 C627 1.387 . S
H626 C633 0.950 . S
C627 C625 1.387 . S
C627 C629 1.390 . S
C627 H631 0.950 . S
H628 C624 0.950 . S
C629 C627 1.390 . S
C629 C630 1.387 . S
C629 H632 0.950 . S
C630 C629 1.387 . S
C630 C633 1.387 . S
H631 C627 0.950 . S
H632 C629 0.950 . S
C633 C624 1.390 . S
C633 H626 0.950 . S
C633 C630 1.387 . S
C634 C635 1.387 . S
C634 H638 0.950 . S
C634 C643 1.390 . S
C635 C634 1.387 . S
C635 C637 1.387 . S
H636 C643 0.950 . S
C637 C635 1.387 . S
C637 C639 1.390 . S
C637 H641 0.950 . S
H638 C634 0.950 . S
C639 C637 1.390 . S
C639 C640 1.387 . S
C639 H642 0.950 . S
C640 C639 1.387 . S
C640 C643 1.387 . S
H641 C637 0.950 . S
H642 C639 0.950 . S
C643 C634 1.390 . S
C643 H636 0.950 . S
C643 C640 1.387 . S
C644 C645 1.387 1_455 S
C644 H648 0.950 . S
C644 C653 1.390 . S
C645 C644 1.387 1_655 S
C645 C647 1.387 . S
H646 C653 0.950 . S
C647 C645 1.387 . S
C647 C649 1.390 . S
C647 H651 0.950 . S
H648 C644 0.950 . S
C649 C647 1.390 . S
C649 C650 1.387 . S
C649 H652 0.950 . S
C650 C649 1.387 . S
C650 C653 1.387 1_655 S
H651 C647 0.950 . S
H652 C649 0.950 . S
C653 C644 1.390 . S
C653 H646 0.950 . S
C653 C650 1.387 1_455 S
C654 C655 1.387 1_545 S
C654 H658 0.950 . S
C654 C663 1.390 . S
C655 C654 1.387 1_565 S
C655 C657 1.387 . S
H656 C663 0.950 . S
C657 C655 1.387 . S
C657 C659 1.390 . S
C657 H661 0.950 . S
H658 C654 0.950 . S
C659 C657 1.390 . S
C659 C660 1.387 . S
C659 H662 0.950 . S
C660 C659 1.387 . S
C660 C663 1.387 1_565 S
H661 C657 0.950 . S
H662 C659 0.950 . S
C663 C654 1.390 . S
C663 H656 0.950 . S
C663 C660 1.387 1_545 S
C664 C665 1.387 . S
C664 H668 0.950 . S
C664 C673 1.390 . S
C665 C664 1.387 . S
C665 C667 1.387 1_455 S
H666 C673 0.950 . S
C667 C665 1.387 1_655 S
C667 C669 1.390 . S
C667 H671 0.950 . S
H668 C664 0.950 . S
C669 C667 1.390 . S
C669 C670 1.387 1_655 S
C669 H672 0.950 . S
C670 C669 1.387 1_455 S
C670 C673 1.387 . S
H671 C667 0.950 . S
H672 C669 0.950 . S
C673 C664 1.390 . S
C673 H666 0.950 . S
C673 C670 1.387 . S
C674 C675 1.387 . S
C674 H678 0.950 . S
C674 C683 1.390 . S
C675 C674 1.387 . S
C675 C677 1.387 1_545 S
H676 C683 0.950 . S
C677 C675 1.387 1_565 S
C677 C679 1.390 . S
C677 H681 0.950 . S
H678 C674 0.950 . S
C679 C677 1.390 . S
C679 C680 1.387 1_565 S
C679 H682 0.950 . S
C680 C679 1.387 1_545 S
C680 C683 1.387 . S
H681 C677 0.950 . S
H682 C679 0.950 . S
C683 C674 1.390 . S
C683 H676 0.950 . S
C683 C680 1.387 . S
C684 C685 1.387 . S
C684 H688 0.950 . S
C684 C693 1.390 . S
C685 C684 1.387 . S
C685 C687 1.387 . S
H686 C693 0.950 . S
C687 C685 1.387 . S
C687 C689 1.390 . S
C687 H691 0.950 . S
H688 C684 0.950 . S
C689 C687 1.390 . S
C689 C690 1.387 . S
C689 H692 0.950 . S
C690 C689 1.387 . S
C690 C693 1.387 . S
H691 C687 0.950 . S
H692 C689 0.950 . S
C693 C684 1.390 . S
C693 H686 0.950 . S
C693 C690 1.387 . S
C694 C695 1.387 . S
C694 H698 0.950 . S
C694 C703 1.390 . S
C695 C694 1.387 . S
C695 C697 1.387 . S
H696 C703 0.950 . S
C697 C695 1.387 . S
C697 C699 1.390 . S
C697 H701 0.950 . S
H698 C694 0.950 . S
C699 C697 1.390 . S
C699 C700 1.387 . S
C699 H702 0.950 . S
C700 C699 1.387 . S
C700 C703 1.387 . S
H701 C697 0.950 . S
H702 C699 0.950 . S
C703 C694 1.390 . S
C703 H696 0.950 . S
C703 C700 1.387 . S
C704 C705 1.387 . S
C704 H708 0.950 . S
C704 C713 1.390 . S
C705 C704 1.387 . S
C705 C707 1.387 . S
H706 C713 0.950 . S
C707 C705 1.387 . S
C707 C709 1.390 . S
C707 H711 0.950 . S
H708 C704 0.950 . S
C709 C707 1.390 . S
C709 C710 1.387 . S
C709 H712 0.950 . S
C710 C709 1.387 . S
C710 C713 1.387 . S
H711 C707 0.950 . S
H712 C709 0.950 . S
C713 C704 1.390 . S
C713 H706 0.950 . S
C713 C710 1.387 . S
C714 C715 1.387 . S
C714 H718 0.950 . S
C714 C723 1.390 . S
C715 C714 1.387 . S
C715 C717 1.387 . S
H716 C723 0.950 . S
C717 C715 1.387 . S
C717 C719 1.390 . S
C717 H721 0.950 . S
H718 C714 0.950 . S
C719 C717 1.390 . S
C719 C720 1.387 . S
C719 H722 0.950 . S
C720 C719 1.387 . S
C720 C723 1.387 . S
H721 C717 0.950 . S
H722 C719 0.950 . S
C723 C714 1.390 . S
C723 H716 0.950 . S
C723 C720 1.387 . S
C724 C725 1.387 . S
C724 H728 0.950 . S
C724 C733 1.390 . S
C725 C724 1.387 . S
C725 C727 1.387 . S
H726 C733 0.950 . S
C727 C725 1.387 . S
C727 C729 1.390 . S
C727 H731 0.950 . S
H728 C724 0.950 . S
C729 C727 1.390 . S
C729 C730 1.387 . S
C729 H732 0.950 . S
C730 C729 1.387 . S
C730 C733 1.387 . S
H731 C727 0.950 . S
H732 C729 0.950 . S
C733 C724 1.390 . S
C733 H726 0.950 . S
C733 C730 1.387 . S
C734 C735 1.387 1_565 S
C734 H738 0.950 . S
C734 C743 1.390 . S
C735 C734 1.387 1_545 S
C735 C737 1.387 . S
H736 C743 0.950 . S
C737 C735 1.387 . S
C737 C739 1.390 . S
C737 H741 0.950 . S
H738 C734 0.950 . S
C739 C737 1.390 . S
C739 C740 1.387 . S
C739 H742 0.950 . S
C740 C739 1.387 . S
C740 C743 1.387 1_545 S
H741 C737 0.950 . S
H742 C739 0.950 . S
C743 C734 1.390 . S
C743 H736 0.950 . S
C743 C740 1.387 1_565 S
C744 C745 1.387 1_455 S
C744 H748 0.950 . S
C744 C753 1.390 . S
C745 C744 1.387 1_655 S
C745 C747 1.387 . S
H746 C753 0.950 . S
C747 C745 1.387 . S
C747 C749 1.390 . S
C747 H751 0.950 . S
H748 C744 0.950 . S
C749 C747 1.390 . S
C749 C750 1.387 . S
C749 H752 0.950 . S
C750 C749 1.387 . S
C750 C753 1.387 1_655 S
H751 C747 0.950 . S
H752 C749 0.950 . S
C753 C744 1.390 . S
C753 H746 0.950 . S
C753 C750 1.387 1_455 S
C754 C755 1.387 . S
C754 H758 0.950 . S
C754 C763 1.390 . S
C755 C754 1.387 . S
C755 C757 1.387 1_565 S
H756 C763 0.950 . S
C757 C755 1.387 1_545 S
C757 C759 1.390 . S
C757 H761 0.950 . S
H758 C754 0.950 . S
C759 C757 1.390 . S
C759 C760 1.387 1_545 S
C759 H762 0.950 . S
C760 C759 1.387 1_565 S
C760 C763 1.387 . S
H761 C757 0.950 . S
H762 C759 0.950 . S
C763 C754 1.390 . S
C763 H756 0.950 . S
C763 C760 1.387 . S
C764 C765 1.387 . S
C764 H768 0.950 . S
C764 C773 1.390 . S
C765 C764 1.387 . S
C765 C767 1.387 . S
H766 C773 0.950 . S
C767 C765 1.387 . S
C767 C769 1.390 . S
C767 H771 0.950 . S
H768 C764 0.950 . S
C769 C767 1.390 . S
C769 C770 1.387 . S
C769 H772 0.950 . S
C770 C769 1.387 . S
C770 C773 1.387 . S
H771 C767 0.950 . S
H772 C769 0.950 . S
C773 C764 1.390 . S
C773 H766 0.950 . S
C773 C770 1.387 . S
C774 C775 1.387 . S
C774 H778 0.950 . S
C774 C783 1.390 . S
C775 C774 1.387 . S
C775 C777 1.387 . S
H776 C783 0.950 . S
C777 C775 1.387 . S
C777 C779 1.390 . S
C777 H781 0.950 . S
H778 C774 0.950 . S
C779 C777 1.390 . S
C779 C780 1.387 . S
C779 H782 0.950 . S
C780 C779 1.387 . S
C780 C783 1.387 . S
H781 C777 0.950 . S
H782 C779 0.950 . S
C783 C774 1.390 . S
C783 H776 0.950 . S
C783 C780 1.387 . S
C784 C785 1.387 . S
C784 H788 0.950 . S
C784 C793 1.390 . S
C785 C784 1.387 . S
C785 C787 1.387 . S
H786 C793 0.950 . S
C787 C785 1.387 . S
C787 C789 1.390 . S
C787 H791 0.950 . S
H788 C784 0.950 . S
C789 C787 1.390 . S
C789 C790 1.387 . S
C789 H792 0.950 . S
C790 C789 1.387 . S
C790 C793 1.387 . S
H791 C787 0.950 . S
H792 C789 0.950 . S
C793 C784 1.390 . S
C793 H786 0.950 . S
C793 C790 1.387 . S
C794 C795 1.387 . S
C794 H798 0.950 . S
C794 C803 1.390 . S
C795 C794 1.387 . S
C795 C797 1.387 . S
H796 C803 0.950 . S
C797 C795 1.387 . S
C797 C799 1.390 . S
C797 H801 0.950 . S
H798 C794 0.950 . S
C799 C797 1.390 . S
C799 C800 1.387 . S
C799 H802 0.950 . S
C800 C799 1.387 . S
C800 C803 1.387 . S
H801 C797 0.950 . S
H802 C799 0.950 . S
C803 C794 1.390 . S
C803 H796 0.950 . S
C803 C800 1.387 . S
C804 C805 1.387 . S
C804 H808 0.950 . S
C804 C813 1.390 . S
C805 C804 1.387 . S
C805 C807 1.387 . S
H806 C813 0.950 . S
C807 C805 1.387 . S
C807 C809 1.390 . S
C807 H811 0.950 . S
H808 C804 0.950 . S
C809 C807 1.390 . S
C809 C810 1.387 . S
C809 H812 0.950 . S
C810 C809 1.387 . S
C810 C813 1.387 . S
H811 C807 0.950 . S
H812 C809 0.950 . S
C813 C804 1.390 . S
C813 H806 0.950 . S
C813 C810 1.387 . S
C814 C815 1.387 . S
C814 H818 0.950 . S
C814 C823 1.390 . S
C815 C814 1.387 . S
C815 C817 1.387 . S
H816 C823 0.950 . S
C817 C815 1.387 . S
C817 C819 1.390 . S
C817 H821 0.950 . S
H818 C814 0.950 . S
C819 C817 1.390 . S
C819 C820 1.387 . S
C819 H822 0.950 . S
C820 C819 1.387 . S
C820 C823 1.387 . S
H821 C817 0.950 . S
H822 C819 0.950 . S
C823 C814 1.390 . S
C823 H816 0.950 . S
C823 C820 1.387 . S
C824 C825 1.387 . S
C824 H828 0.950 . S
C824 C833 1.390 1_556 S
C825 C824 1.387 . S
C825 C827 1.387 1_556 S
H826 C833 0.950 . S
C827 C825 1.387 1_554 S
C827 C829 1.390 . S
C827 H831 0.950 . S
H828 C824 0.950 . S
C829 C827 1.390 . S
C829 C830 1.387 . S
C829 H832 0.950 . S
C830 C829 1.387 . S
C830 C833 1.387 . S
H831 C827 0.950 . S
H832 C829 0.950 . S
C833 C824 1.390 1_554 S
C833 H826 0.950 . S
C833 C830 1.387 . S
C834 C835 1.387 . S
C834 H838 0.950 . S
C834 C843 1.390 1_554 S
C835 C834 1.387 . S
C835 C837 1.387 . S
H836 C843 0.950 . S
C837 C835 1.387 . S
C837 C839 1.390 . S
C837 H841 0.950 . S
H838 C834 0.950 . S
C839 C837 1.390 . S
C839 C840 1.387 1_554 S
C839 H842 0.950 . S
C840 C839 1.387 1_556 S
C840 C843 1.387 . S
H841 C837 0.950 . S
H842 C839 0.950 . S
C843 C834 1.390 1_556 S
C843 H836 0.950 . S
C843 C840 1.387 . S
C844 C845 1.387 . S
C844 H848 0.950 . S
C844 C853 1.390 1_554 S
C845 C844 1.387 . S
C845 C847 1.387 . S
H846 C853 0.950 . S
C847 C845 1.387 . S
C847 C849 1.390 . S
C847 H851 0.950 . S
H848 C844 0.950 . S
C849 C847 1.390 . S
C849 C850 1.387 1_554 S
C849 H852 0.950 . S
C850 C849 1.387 1_556 S
C850 C853 1.387 . S
H851 C847 0.950 . S
H852 C849 0.950 . S
C853 C844 1.390 1_556 S
C853 H846 0.950 . S
C853 C850 1.387 . S
C854 C855 1.387 . S
C854 H858 0.950 . S
C854 C863 1.390 1_554 S
C855 C854 1.387 . S
C855 C857 1.387 . S
H856 C863 0.950 . S
C857 C855 1.387 . S
C857 C859 1.390 . S
C857 H861 0.950 . S
H858 C854 0.950 . S
C859 C857 1.390 . S
C859 C860 1.387 1_554 S
C859 H862 0.950 . S
C860 C859 1.387 1_556 S
C860 C863 1.387 . S
H861 C857 0.950 . S
H862 C859 0.950 . S
C863 C854 1.390 1_556 S
C863 H856 0.950 . S
C863 C860 1.387 . S
C864 C865 1.387 . S
C864 H868 0.950 . S
C864 C873 1.390 . S
C865 C864 1.387 . S
C865 C867 1.387 . S
H866 C873 0.950 . S
C867 C865 1.387 . S
C867 C869 1.390 . S
C867 H871 0.950 . S
H868 C864 0.950 . S
C869 C867 1.390 . S
C869 C870 1.387 . S
C869 H872 0.950 . S
C870 C869 1.387 . S
C870 C873 1.387 . S
H871 C867 0.950 . S
H872 C869 0.950 . S
C873 C864 1.390 . S
C873 H866 0.950 . S
C873 C870 1.387 . S
C874 C875 1.387 . S
C874 H878 0.950 . S
C874 C883 1.390 . S
C875 C874 1.387 . S
C875 C877 1.387 . S
H876 C883 0.950 . S
C877 C875 1.387 . S
C877 C879 1.390 . S
C877 H881 0.950 . S
H878 C874 0.950 . S
C879 C877 1.390 . S
C879 C880 1.387 . S
C879 H882 0.950 . S
C880 C879 1.387 . S
C880 C883 1.387 . S
H881 C877 0.950 . S
H882 C879 0.950 . S
C883 C874 1.390 . S
C883 H876 0.950 . S
C883 C880 1.387 . S
C884 C885 1.387 . S
C884 H888 0.950 . S
C884 C893 1.390 . S
C885 C884 1.387 . S
C885 C887 1.387 . S
H886 C893 0.950 . S
C887 C885 1.387 . S
C887 C889 1.390 . S
C887 H891 0.950 . S
H888 C884 0.950 . S
C889 C887 1.390 . S
C889 C890 1.387 . S
C889 H892 0.950 . S
C890 C889 1.387 . S
C890 C893 1.387 . S
H891 C887 0.950 . S
H892 C889 0.950 . S
C893 C884 1.390 . S
C893 H886 0.950 . S
C893 C890 1.387 . S
C894 C895 1.387 . S
C894 H898 0.950 . S
C894 C903 1.390 . S
C895 C894 1.387 . S
C895 C897 1.387 . S
H896 C903 0.950 . S
C897 C895 1.387 . S
C897 C899 1.390 . S
C897 H901 0.950 . S
H898 C894 0.950 . S
C899 C897 1.390 . S
C899 C900 1.387 . S
C899 H902 0.950 . S
C900 C899 1.387 . S
C900 C903 1.387 . S
H901 C897 0.950 . S
H902 C899 0.950 . S
C903 C894 1.390 . S
C903 H896 0.950 . S
C903 C900 1.387 . S
C904 C905 1.387 . S
C904 H908 0.950 . S
C904 C913 1.390 1_554 S
C905 C904 1.387 . S
C905 C907 1.387 1_554 S
H906 C913 0.951 . S
C907 C905 1.387 1_556 S
C907 C909 1.390 . S
C907 H911 0.950 . S
H908 C904 0.950 . S
C909 C907 1.390 . S
C909 C910 1.387 . S
C909 H912 0.950 . S
C910 C909 1.387 . S
C910 C913 1.387 . S
H911 C907 0.950 . S
H912 C909 0.950 . S
C913 C904 1.390 1_556 S
C913 H906 0.951 . S
C913 C910 1.387 . S
C914 C915 1.387 . S
C914 H918 0.950 . S
C914 C923 1.390 1_554 S
C915 C914 1.387 . S
C915 C917 1.387 1_554 S
H916 C923 0.950 . S
C917 C915 1.387 1_556 S
C917 C919 1.390 . S
C917 H921 0.950 . S
H918 C914 0.950 . S
C919 C917 1.390 . S
C919 C920 1.387 . S
C919 H922 0.950 . S
C920 C919 1.387 . S
C920 C923 1.387 . S
H921 C917 0.950 . S
H922 C919 0.950 . S
C923 C914 1.390 1_556 S
C923 H916 0.950 . S
C923 C920 1.387 . S
C924 C925 1.387 1_556 S
C924 H928 0.950 . S
C924 C933 1.390 . S
C925 C924 1.387 1_554 S
C925 C927 1.387 . S
H926 C933 0.950 . S
C927 C925 1.387 . S
C927 C929 1.390 1_554 S
C927 H931 0.950 . S
H928 C924 0.950 . S
C929 C927 1.390 1_556 S
C929 C930 1.387 . S
C929 H932 0.950 . S
C930 C929 1.387 . S
C930 C933 1.387 . S
H931 C927 0.950 . S
H932 C929 0.950 . S
C933 C924 1.390 . S
C933 H926 0.950 . S
C933 C930 1.387 . S
C934 C935 1.387 1_556 S
C934 H938 0.950 . S
C934 C943 1.390 . S
C935 C934 1.387 1_554 S
C935 C937 1.387 . S
H936 C943 0.950 . S
C937 C935 1.387 . S
C937 C939 1.390 1_554 S
C937 H941 0.950 . S
H938 C934 0.950 . S
C939 C937 1.390 1_556 S
C939 C940 1.387 . S
C939 H942 0.950 . S
C940 C939 1.387 . S
C940 C943 1.387 . S
H941 C937 0.950 . S
H942 C939 0.950 . S
C943 C934 1.390 . S
C943 H936 0.950 . S
C943 C940 1.387 . S
C944 C945 1.387 . S
C944 H948 0.950 . S
C944 C953 1.390 . S
C945 C944 1.387 . S
C945 C947 1.387 . S
H946 C953 0.950 . S
C947 C945 1.387 . S
C947 C949 1.390 . S
C947 H951 0.950 . S
H948 C944 0.950 . S
C949 C947 1.390 . S
C949 C950 1.387 . S
C949 H952 0.950 . S
C950 C949 1.387 . S
C950 C953 1.387 . S
H951 C947 0.950 . S
H952 C949 0.950 . S
C953 C944 1.390 . S
C953 H946 0.950 . S
C953 C950 1.387 . S
C954 C955 1.387 . S
C954 H958 0.950 . S
C954 C963 1.390 . S
C955 C954 1.387 . S
C955 C957 1.387 . S
H956 C963 0.950 . S
C957 C955 1.387 . S
C957 C959 1.390 . S
C957 H961 0.950 . S
H958 C954 0.950 . S
C959 C957 1.390 . S
C959 C960 1.387 . S
C959 H962 0.950 . S
C960 C959 1.387 . S
C960 C963 1.387 . S
H961 C957 0.950 . S
H962 C959 0.950 . S
C963 C954 1.390 . S
C963 H956 0.950 . S
C963 C960 1.387 . S
C964 C965 1.387 . S
C964 H968 0.950 . S
C964 C973 1.390 . S
C965 C964 1.387 . S
C965 C967 1.387 . S
H966 C973 0.950 . S
C967 C965 1.387 . S
C967 C969 1.390 . S
C967 H971 0.950 . S
H968 C964 0.950 . S
C969 C967 1.390 . S
C969 C970 1.387 . S
C969 H972 0.950 . S
C970 C969 1.387 . S
C970 C973 1.387 . S
H971 C967 0.950 . S
H972 C969 0.950 . S
C973 C964 1.390 . S
C973 H966 0.950 . S
C973 C970 1.387 . S
C974 C975 1.387 . S
C974 H978 0.950 . S
C974 C983 1.390 . S
C975 C974 1.387 . S
C975 C977 1.387 . S
H976 C983 0.950 . S
C977 C975 1.387 . S
C977 C979 1.390 . S
C977 H981 0.950 . S
H978 C974 0.950 . S
C979 C977 1.390 . S
C979 C980 1.387 . S
C979 H982 0.950 . S
C980 C979 1.387 . S
C980 C983 1.387 . S
H981 C977 0.950 . S
H982 C979 0.950 . S
C983 C974 1.390 . S
C983 H976 0.950 . S
C983 C980 1.387 . S
C984 C985 1.387 . S
C984 H988 0.950 . S
C984 C993 1.390 . S
C985 C984 1.387 . S
C985 C987 1.387 . S
H986 C993 0.950 . S
C987 C985 1.387 . S
C987 C989 1.390 . S
C987 H991 0.950 . S
H988 C984 0.950 . S
C989 C987 1.390 . S
C989 C990 1.387 . S
C989 H992 0.950 . S
C990 C989 1.387 . S
C990 C993 1.387 . S
H991 C987 0.950 . S
H992 C989 0.950 . S
C993 C984 1.390 . S
C993 H986 0.950 . S
C993 C990 1.387 . S
C994 C995 1.387 . S
C994 H998 0.950 . S
C994 C1003 1.390 . S
C995 C994 1.387 . S
C995 C997 1.387 . S
H996 C1003 0.950 . S
C997 C995 1.387 . S
C997 C999 1.390 . S
C997 H1001 0.950 . S
H998 C994 0.950 . S
C999 C997 1.390 . S
C999 C1000 1.387 . S
C999 H1002 0.950 . S
C1000 C999 1.387 . S
C1000 C1003 1.387 . S
H1001 C997 0.950 . S
H1002 C999 0.950 . S
C1003 C994 1.390 . S
C1003 H996 0.950 . S
C1003 C1000 1.387 . S
C1004 C1005 1.387 . S
C1004 H1008 0.950 . S
C1004 C1013 1.390 . S
C1005 C1004 1.387 . S
C1005 C1007 1.387 . S
H1006 C1013 0.950 . S
C1007 C1005 1.387 . S
C1007 C1009 1.390 . S
C1007 H1011 0.950 . S
H1008 C1004 0.950 . S
C1009 C1007 1.390 . S
C1009 C1010 1.387 . S
C1009 H1012 0.950 . S
C1010 C1009 1.387 . S
C1010 C1013 1.387 . S
H1011 C1007 0.950 . S
H1012 C1009 0.950 . S
C1013 C1004 1.390 . S
C1013 H1006 0.950 . S
C1013 C1010 1.387 . S
C1014 C1015 1.387 . S
C1014 H1018 0.950 . S
C1014 C1023 1.390 . S
C1015 C1014 1.387 . S
C1015 C1017 1.387 . S
H1016 C1023 0.950 . S
C1017 C1015 1.387 . S
C1017 C1019 1.390 . S
C1017 H1021 0.950 . S
H1018 C1014 0.950 . S
C1019 C1017 1.390 . S
C1019 C1020 1.387 . S
C1019 H1022 0.950 . S
C1020 C1019 1.387 . S
C1020 C1023 1.387 . S
H1021 C1017 0.950 . S
H1022 C1019 0.950 . S
C1023 C1014 1.390 . S
C1023 H1016 0.950 . S
C1023 C1020 1.387 . S
C1024 C1025 1.387 . S
C1024 H1028 0.950 . S
C1024 C1033 1.390 . S
C1025 C1024 1.387 . S
C1025 C1027 1.387 . S
H1026 C1033 0.950 . S
C1027 C1025 1.387 . S
C1027 C1029 1.390 . S
C1027 H1031 0.950 . S
H1028 C1024 0.950 . S
C1029 C1027 1.390 . S
C1029 C1030 1.387 . S
C1029 H1032 0.950 . S
C1030 C1029 1.387 . S
C1030 C1033 1.387 . S
H1031 C1027 0.950 . S
H1032 C1029 0.950 . S
C1033 C1024 1.390 . S
C1033 H1026 0.950 . S
C1033 C1030 1.387 . S
C1034 C1035 1.387 . S
C1034 H1038 0.950 . S
C1034 C1043 1.390 . S
C1035 C1034 1.387 . S
C1035 C1037 1.387 . S
H1036 C1043 0.950 . S
C1037 C1035 1.387 . S
C1037 C1039 1.390 . S
C1037 H1041 0.950 . S
H1038 C1034 0.950 . S
C1039 C1037 1.390 . S
C1039 C1040 1.387 . S
C1039 H1042 0.950 . S
C1040 C1039 1.387 . S
C1040 C1043 1.387 . S
H1041 C1037 0.950 . S
H1042 C1039 0.950 . S
C1043 C1034 1.390 . S
C1043 H1036 0.950 . S
C1043 C1040 1.387 . S
C1044 C1045 1.387 . S
C1044 H1048 0.950 . S
C1044 C1053 1.390 . S
C1045 C1044 1.387 . S
C1045 C1047 1.387 . S
H1046 C1053 0.950 . S
C1047 C1045 1.387 . S
C1047 C1049 1.390 . S
C1047 H1051 0.950 . S
H1048 C1044 0.950 . S
C1049 C1047 1.390 . S
C1049 C1050 1.387 . S
C1049 H1052 0.950 . S
C1050 C1049 1.387 . S
C1050 C1053 1.387 . S
H1051 C1047 0.950 . S
H1052 C1049 0.950 . S
C1053 C1044 1.390 . S
C1053 H1046 0.950 . S
C1053 C1050 1.387 . S
C1054 C1055 1.387 . S
C1054 H1058 0.950 . S
C1054 C1063 1.390 . S
C1055 C1054 1.387 . S
C1055 C1057 1.387 . S
H1056 C1063 0.950 . S
C1057 C1055 1.387 . S
C1057 C1059 1.390 . S
C1057 H1061 0.950 . S
H1058 C1054 0.950 . S
C1059 C1057 1.390 . S
C1059 C1060 1.387 . S
C1059 H1062 0.950 . S
C1060 C1059 1.387 . S
C1060 C1063 1.387 . S
H1061 C1057 0.950 . S
H1062 C1059 0.950 . S
C1063 C1054 1.390 . S
C1063 H1056 0.950 . S
C1063 C1060 1.387 . S
C1064 C1065 1.387 . S
C1064 H1068 0.950 . S
C1064 C1073 1.390 . S
C1065 C1064 1.387 . S
C1065 C1067 1.387 . S
H1066 C1073 0.950 . S
C1067 C1065 1.387 . S
C1067 C1069 1.390 . S
C1067 H1071 0.950 . S
H1068 C1064 0.950 . S
C1069 C1067 1.390 . S
C1069 C1070 1.387 . S
C1069 H1072 0.950 . S
C1070 C1069 1.387 . S
C1070 C1073 1.387 . S
H1071 C1067 0.950 . S
H1072 C1069 0.950 . S
C1073 C1064 1.390 . S
C1073 H1066 0.950 . S
C1073 C1070 1.387 . S
C1074 C1075 1.387 . S
C1074 H1078 0.950 . S
C1074 C1083 1.390 . S
C1075 C1074 1.387 . S
C1075 C1077 1.387 . S
H1076 C1083 0.950 . S
C1077 C1075 1.387 . S
C1077 C1079 1.390 . S
C1077 H1081 0.950 . S
H1078 C1074 0.950 . S
C1079 C1077 1.390 . S
C1079 C1080 1.387 . S
C1079 H1082 0.950 . S
C1080 C1079 1.387 . S
C1080 C1083 1.387 . S
H1081 C1077 0.950 . S
H1082 C1079 0.950 . S
C1083 C1074 1.390 . S
C1083 H1076 0.950 . S
C1083 C1080 1.387 . S
C1084 C1085 1.387 . S
C1084 H1088 0.950 . S
C1084 C1093 1.390 . S
C1085 C1084 1.387 . S
C1085 C1087 1.387 . S
H1086 C1093 0.950 . S
C1087 C1085 1.387 . S
C1087 C1089 1.390 . S
C1087 H1091 0.950 . S
H1088 C1084 0.950 . S
C1089 C1087 1.390 . S
C1089 C1090 1.387 . S
C1089 H1092 0.950 . S
C1090 C1089 1.387 . S
C1090 C1093 1.387 . S
H1091 C1087 0.950 . S
H1092 C1089 0.950 . S
C1093 C1084 1.390 . S
C1093 H1086 0.950 . S
C1093 C1090 1.387 . S
C1094 C1095 1.387 . S
C1094 H1098 0.950 . S
C1094 C1103 1.390 . S
C1095 C1094 1.387 . S
C1095 C1097 1.387 . S
H1096 C1103 0.950 . S
C1097 C1095 1.387 . S
C1097 C1099 1.390 . S
C1097 H1101 0.950 . S
H1098 C1094 0.950 . S
C1099 C1097 1.390 . S
C1099 C1100 1.387 . S
C1099 H1102 0.950 . S
C1100 C1099 1.387 . S
C1100 C1103 1.387 . S
H1101 C1097 0.950 . S
H1102 C1099 0.950 . S
C1103 C1094 1.390 . S
C1103 H1096 0.950 . S
C1103 C1100 1.387 . S
C545 C1 1.899 . S
C550 C173 1.898 . S
C555 C37 1.899 . S
C560 C207 1.901 . S
C565 C241 1.901 . S
C570 C69 1.901 . S
C575 C103 1.898 . S
C580 C139 1.900 . S
C585 C445 1.900 . S
C590 C273 1.899 . S
C595 C307 1.900 . S
C600 C477 1.901 . S
C605 C341 1.898 . S
C610 C513 1.899 . S
C615 C411 1.901 . S
C620 C377 1.900 . S
C625 C504 1.346 . S
C630 C6 1.356 . S
C635 C516 1.346 . S
C640 C62 1.356 . S
C645 C74 1.358 . S
C650 C414 1.347 . S
C655 C108 1.357 . S
C660 C448 1.348 . S
C665 C164 1.357 . S
C670 C368 1.346 . S
C675 C198 1.356 . S
C680 C380 1.346 . S
C685 C232 1.357 . S
C690 C300 1.347 . S
C695 C334 1.348 . S
C700 C266 1.358 . S
C705 C210 1.348 . S
C710 C278 1.357 . S
C715 C312 1.358 . S
C720 C244 1.348 . S
C725 C346 1.356 . S
C730 C142 1.347 . S
C735 C402 1.356 . S
C740 C176 1.346 . S
C745 C436 1.356 . S
C750 C96 1.346 . S
C755 C130 1.348 . S
C760 C470 1.358 . S
C765 C482 1.356 . S
C770 C28 1.346 . S
C775 C538 1.358 . S
C780 C40 1.348 . S
C785 C3 1.536 . S
C790 C396 1.590 . S
C795 C35 1.535 . S
C800 C287 1.590 . S
C805 C321 1.590 . S
C810 C71 1.537 . S
C815 C105 1.537 . S
C820 C355 1.590 . S
C825 C464 1.590 . S
C830 C137 1.536 . S
C835 C171 1.538 . S
C840 C491 1.590 . S
C845 C205 1.536 . S
C850 C532 1.590 . S
C855 C239 1.538 . S
C860 C430 1.590 . S
C865 C275 1.535 . S
C870 C117 1.590 . S
C875 C15 1.590 . S
C880 C309 1.538 . S
C885 C56 1.590 . S
C890 C343 1.537 . S
C895 C83 1.590 . S
C900 C375 1.538 . S
C905 C192 1.590 . S
C910 C409 1.536 . S
C915 C226 1.590 . S
C920 C443 1.537 . S
C925 C260 1.590 . S
C930 C479 1.538 . S
C935 C158 1.590 . S
C940 C511 1.537 . S
C945 C22 1.745 . S
C950 C119 2.066 . S
C955 C49 1.743 . S
C960 C17 2.065 . S
C965 C51 2.064 . S
C970 C90 1.741 . S
C975 C85 2.065 . S
C980 C124 1.744 . S
C985 C187 2.065 . S
C990 C151 1.742 . S
C995 C221 2.064 . S
C1000 C185 1.742 . S
C1005 C255 2.066 . S
C1010 C219 1.746 . S
C1015 C153 2.065 . S
C1020 C253 1.743 . S
C1025 C391 2.065 . S
C1030 C294 1.745 . S
C1035 C328 1.745 . S
C1040 C289 2.066 . S
C1045 C362 1.741 . S
C1050 C323 2.064 . S
C1055 C357 2.066 . S
C1060 C389 1.745 . S
C1065 C459 2.065 . S
C1070 C423 1.742 . S
C1075 C457 1.744 . S
C1080 C493 2.066 . S
C1085 C527 2.064 . S
C1090 C498 1.741 . S
C1095 C425 2.065 . S
C1100 C525 1.743 . S
