# Generated by pormake.
# Topology wna, (6)-cn, num edge types: 1
# Building blocks:
#     Node 0, Type 0, BuildingBlock: BETDEL_clean_sbu_0, # of connection points: 6
#     Node 1, Type 0, BuildingBlock: BETDEL_clean_sbu_0, # of connection points: 6
#     Node 2, Type 0, BuildingBlock: BETDEL_clean_sbu_0, # of connection points: 6
#     Node 3, Type 0, BuildingBlock: BETDEL_clean_sbu_0, # of connection points: 6
#     Node 4, Type 0, BuildingBlock: BETDEL_clean_sbu_0, # of connection points: 6
#     Node 5, Type 0, BuildingBlock: BETDEL_clean_sbu_0, # of connection points: 6
#     Node 6, Type 0, BuildingBlock: BETDEL_clean_sbu_0, # of connection points: 6
#     Node 7, Type 0, BuildingBlock: BETDEL_clean_sbu_0, # of connection points: 6
#     Node 8, Type 0, BuildingBlock: BETDEL_clean_sbu_0, # of connection points: 6
#     Node 9, Type 0, BuildingBlock: BETDEL_clean_sbu_0, # of connection points: 6
#     Node 10, Type 0, BuildingBlock: BETDEL_clean_sbu_0, # of connection points: 6
#     Node 11, Type 0, BuildingBlock: BETDEL_clean_sbu_0, # of connection points: 6
#     Node 12, Type 0, BuildingBlock: BETDEL_clean_sbu_0, # of connection points: 6
#     Node 13, Type 0, BuildingBlock: BETDEL_clean_sbu_0, # of connection points: 6
#     Node 14, Type 0, BuildingBlock: BETDEL_clean_sbu_0, # of connection points: 6
#     Node 15, Type 0, BuildingBlock: BETDEL_clean_sbu_0, # of connection points: 6
#     Node 16, Type 0, BuildingBlock: BETDEL_clean_sbu_0, # of connection points: 6
#     Node 17, Type 0, BuildingBlock: BETDEL_clean_sbu_0, # of connection points: 6
#     Node 18, Type 0, BuildingBlock: BETDEL_clean_sbu_0, # of connection points: 6
#     Node 19, Type 0, BuildingBlock: BETDEL_clean_sbu_0, # of connection points: 6
#     Node 20, Type 0, BuildingBlock: BETDEL_clean_sbu_0, # of connection points: 6
#     Node 21, Type 0, BuildingBlock: BETDEL_clean_sbu_0, # of connection points: 6
#     Node 22, Type 0, BuildingBlock: BETDEL_clean_sbu_0, # of connection points: 6
#     Node 23, Type 0, BuildingBlock: BETDEL_clean_sbu_0, # of connection points: 6
#     Node 24, Type 0, BuildingBlock: BETDEL_clean_sbu_0, # of connection points: 6
#     Node 25, Type 0, BuildingBlock: BETDEL_clean_sbu_0, # of connection points: 6
#     Node 26, Type 0, BuildingBlock: BETDEL_clean_sbu_0, # of connection points: 6
#     Node 27, Type 0, BuildingBlock: BETDEL_clean_sbu_0, # of connection points: 6
#     Node 28, Type 0, BuildingBlock: BETDEL_clean_sbu_0, # of connection points: 6
#     Node 29, Type 0, BuildingBlock: BETDEL_clean_sbu_0, # of connection points: 6
#     Node 30, Type 0, BuildingBlock: BETDEL_clean_sbu_0, # of connection points: 6
#     Node 31, Type 0, BuildingBlock: BETDEL_clean_sbu_0, # of connection points: 6
#     Node 32, Type 0, BuildingBlock: BETDEL_clean_sbu_0, # of connection points: 6
#     Node 33, Type 0, BuildingBlock: BETDEL_clean_sbu_0, # of connection points: 6
#     Node 34, Type 0, BuildingBlock: BETDEL_clean_sbu_0, # of connection points: 6
#     Node 35, Type 0, BuildingBlock: BETDEL_clean_sbu_0, # of connection points: 6
#     Edge 36, Type (0, 0), BuildingBlock: CIFDUS_clean_linker_0, # of connection points: 2
#     Edge 37, Type (0, 0), BuildingBlock: CIFDUS_clean_linker_0, # of connection points: 2
#     Edge 38, Type (0, 0), BuildingBlock: CIFDUS_clean_linker_0, # of connection points: 2
#     Edge 39, Type (0, 0), BuildingBlock: CIFDUS_clean_linker_0, # of connection points: 2
#     Edge 40, Type (0, 0), BuildingBlock: CIFDUS_clean_linker_0, # of connection points: 2
#     Edge 41, Type (0, 0), BuildingBlock: CIFDUS_clean_linker_0, # of connection points: 2
#     Edge 42, Type (0, 0), BuildingBlock: CIFDUS_clean_linker_0, # of connection points: 2
#     Edge 43, Type (0, 0), BuildingBlock: CIFDUS_clean_linker_0, # of connection points: 2
#     Edge 44, Type (0, 0), BuildingBlock: CIFDUS_clean_linker_0, # of connection points: 2
#     Edge 45, Type (0, 0), BuildingBlock: CIFDUS_clean_linker_0, # of connection points: 2
#     Edge 46, Type (0, 0), BuildingBlock: CIFDUS_clean_linker_0, # of connection points: 2
#     Edge 47, Type (0, 0), BuildingBlock: CIFDUS_clean_linker_0, # of connection points: 2
#     Edge 48, Type (0, 0), BuildingBlock: CIFDUS_clean_linker_0, # of connection points: 2
#     Edge 49, Type (0, 0), BuildingBlock: CIFDUS_clean_linker_0, # of connection points: 2
#     Edge 50, Type (0, 0), BuildingBlock: CIFDUS_clean_linker_0, # of connection points: 2
#     Edge 51, Type (0, 0), BuildingBlock: CIFDUS_clean_linker_0, # of connection points: 2
#     Edge 52, Type (0, 0), BuildingBlock: CIFDUS_clean_linker_0, # of connection points: 2
#     Edge 53, Type (0, 0), BuildingBlock: CIFDUS_clean_linker_0, # of connection points: 2
#     Edge 54, Type (0, 0), BuildingBlock: CIFDUS_clean_linker_0, # of connection points: 2
#     Edge 55, Type (0, 0), BuildingBlock: CIFDUS_clean_linker_0, # of connection points: 2
#     Edge 56, Type (0, 0), BuildingBlock: CIFDUS_clean_linker_0, # of connection points: 2
#     Edge 57, Type (0, 0), BuildingBlock: CIFDUS_clean_linker_0, # of connection points: 2
#     Edge 58, Type (0, 0), BuildingBlock: CIFDUS_clean_linker_0, # of connection points: 2
#     Edge 59, Type (0, 0), BuildingBlock: CIFDUS_clean_linker_0, # of connection points: 2
#     Edge 60, Type (0, 0), BuildingBlock: CIFDUS_clean_linker_0, # of connection points: 2
#     Edge 61, Type (0, 0), BuildingBlock: CIFDUS_clean_linker_0, # of connection points: 2
#     Edge 62, Type (0, 0), BuildingBlock: CIFDUS_clean_linker_0, # of connection points: 2
#     Edge 63, Type (0, 0), BuildingBlock: CIFDUS_clean_linker_0, # of connection points: 2
#     Edge 64, Type (0, 0), BuildingBlock: CIFDUS_clean_linker_0, # of connection points: 2
#     Edge 65, Type (0, 0), BuildingBlock: CIFDUS_clean_linker_0, # of connection points: 2
#     Edge 66, Type (0, 0), BuildingBlock: CIFDUS_clean_linker_0, # of connection points: 2
#     Edge 67, Type (0, 0), BuildingBlock: CIFDUS_clean_linker_0, # of connection points: 2
#     Edge 68, Type (0, 0), BuildingBlock: CIFDUS_clean_linker_0, # of connection points: 2
#     Edge 69, Type (0, 0), BuildingBlock: CIFDUS_clean_linker_0, # of connection points: 2
#     Edge 70, Type (0, 0), BuildingBlock: CIFDUS_clean_linker_0, # of connection points: 2
#     Edge 71, Type (0, 0), BuildingBlock: CIFDUS_clean_linker_0, # of connection points: 2
#     Edge 72, Type (0, 0), BuildingBlock: CIFDUS_clean_linker_0, # of connection points: 2
#     Edge 73, Type (0, 0), BuildingBlock: CIFDUS_clean_linker_0, # of connection points: 2
#     Edge 74, Type (0, 0), BuildingBlock: CIFDUS_clean_linker_0, # of connection points: 2
#     Edge 75, Type (0, 0), BuildingBlock: CIFDUS_clean_linker_0, # of connection points: 2
#     Edge 76, Type (0, 0), BuildingBlock: CIFDUS_clean_linker_0, # of connection points: 2
#     Edge 77, Type (0, 0), BuildingBlock: CIFDUS_clean_linker_0, # of connection points: 2
#     Edge 78, Type (0, 0), BuildingBlock: CIFDUS_clean_linker_0, # of connection points: 2
#     Edge 79, Type (0, 0), BuildingBlock: CIFDUS_clean_linker_0, # of connection points: 2
#     Edge 80, Type (0, 0), BuildingBlock: CIFDUS_clean_linker_0, # of connection points: 2
#     Edge 81, Type (0, 0), BuildingBlock: CIFDUS_clean_linker_0, # of connection points: 2
#     Edge 82, Type (0, 0), BuildingBlock: CIFDUS_clean_linker_0, # of connection points: 2
#     Edge 83, Type (0, 0), BuildingBlock: CIFDUS_clean_linker_0, # of connection points: 2
#     Edge 84, Type (0, 0), BuildingBlock: CIFDUS_clean_linker_0, # of connection points: 2
#     Edge 85, Type (0, 0), BuildingBlock: CIFDUS_clean_linker_0, # of connection points: 2
#     Edge 86, Type (0, 0), BuildingBlock: CIFDUS_clean_linker_0, # of connection points: 2
#     Edge 87, Type (0, 0), BuildingBlock: CIFDUS_clean_linker_0, # of connection points: 2
#     Edge 88, Type (0, 0), BuildingBlock: CIFDUS_clean_linker_0, # of connection points: 2
#     Edge 89, Type (0, 0), BuildingBlock: CIFDUS_clean_linker_0, # of connection points: 2
#     Edge 90, Type (0, 0), BuildingBlock: CIFDUS_clean_linker_0, # of connection points: 2
#     Edge 91, Type (0, 0), BuildingBlock: CIFDUS_clean_linker_0, # of connection points: 2
#     Edge 92, Type (0, 0), BuildingBlock: CIFDUS_clean_linker_0, # of connection points: 2
#     Edge 93, Type (0, 0), BuildingBlock: CIFDUS_clean_linker_0, # of connection points: 2
#     Edge 94, Type (0, 0), BuildingBlock: CIFDUS_clean_linker_0, # of connection points: 2
#     Edge 95, Type (0, 0), BuildingBlock: CIFDUS_clean_linker_0, # of connection points: 2
#     Edge 96, Type (0, 0), BuildingBlock: CIFDUS_clean_linker_0, # of connection points: 2
#     Edge 97, Type (0, 0), BuildingBlock: CIFDUS_clean_linker_0, # of connection points: 2
#     Edge 98, Type (0, 0), BuildingBlock: CIFDUS_clean_linker_0, # of connection points: 2
#     Edge 99, Type (0, 0), BuildingBlock: CIFDUS_clean_linker_0, # of connection points: 2
#     Edge 100, Type (0, 0), BuildingBlock: CIFDUS_clean_linker_0, # of connection points: 2
#     Edge 101, Type (0, 0), BuildingBlock: CIFDUS_clean_linker_0, # of connection points: 2
#     Edge 102, Type (0, 0), BuildingBlock: CIFDUS_clean_linker_0, # of connection points: 2
#     Edge 103, Type (0, 0), BuildingBlock: CIFDUS_clean_linker_0, # of connection points: 2
#     Edge 104, Type (0, 0), BuildingBlock: CIFDUS_clean_linker_0, # of connection points: 2
#     Edge 105, Type (0, 0), BuildingBlock: CIFDUS_clean_linker_0, # of connection points: 2
#     Edge 106, Type (0, 0), BuildingBlock: CIFDUS_clean_linker_0, # of connection points: 2
#     Edge 107, Type (0, 0), BuildingBlock: CIFDUS_clean_linker_0, # of connection points: 2
#     Edge 108, Type (0, 0), BuildingBlock: CIFDUS_clean_linker_0, # of connection points: 2
#     Edge 109, Type (0, 0), BuildingBlock: CIFDUS_clean_linker_0, # of connection points: 2
#     Edge 110, Type (0, 0), BuildingBlock: CIFDUS_clean_linker_0, # of connection points: 2
#     Edge 111, Type (0, 0), BuildingBlock: CIFDUS_clean_linker_0, # of connection points: 2
#     Edge 112, Type (0, 0), BuildingBlock: CIFDUS_clean_linker_0, # of connection points: 2
#     Edge 113, Type (0, 0), BuildingBlock: CIFDUS_clean_linker_0, # of connection points: 2
#     Edge 114, Type (0, 0), BuildingBlock: CIFDUS_clean_linker_0, # of connection points: 2
#     Edge 115, Type (0, 0), BuildingBlock: CIFDUS_clean_linker_0, # of connection points: 2
#     Edge 116, Type (0, 0), BuildingBlock: CIFDUS_clean_linker_0, # of connection points: 2
#     Edge 117, Type (0, 0), BuildingBlock: CIFDUS_clean_linker_0, # of connection points: 2
#     Edge 118, Type (0, 0), BuildingBlock: CIFDUS_clean_linker_0, # of connection points: 2
#     Edge 119, Type (0, 0), BuildingBlock: CIFDUS_clean_linker_0, # of connection points: 2
#     Edge 120, Type (0, 0), BuildingBlock: CIFDUS_clean_linker_0, # of connection points: 2
#     Edge 121, Type (0, 0), BuildingBlock: CIFDUS_clean_linker_0, # of connection points: 2
#     Edge 122, Type (0, 0), BuildingBlock: CIFDUS_clean_linker_0, # of connection points: 2
#     Edge 123, Type (0, 0), BuildingBlock: CIFDUS_clean_linker_0, # of connection points: 2
#     Edge 124, Type (0, 0), BuildingBlock: CIFDUS_clean_linker_0, # of connection points: 2
#     Edge 125, Type (0, 0), BuildingBlock: CIFDUS_clean_linker_0, # of connection points: 2
#     Edge 126, Type (0, 0), BuildingBlock: CIFDUS_clean_linker_0, # of connection points: 2
#     Edge 127, Type (0, 0), BuildingBlock: CIFDUS_clean_linker_0, # of connection points: 2
#     Edge 128, Type (0, 0), BuildingBlock: CIFDUS_clean_linker_0, # of connection points: 2
#     Edge 129, Type (0, 0), BuildingBlock: CIFDUS_clean_linker_0, # of connection points: 2
#     Edge 130, Type (0, 0), BuildingBlock: CIFDUS_clean_linker_0, # of connection points: 2
#     Edge 131, Type (0, 0), BuildingBlock: CIFDUS_clean_linker_0, # of connection points: 2
#     Edge 132, Type (0, 0), BuildingBlock: CIFDUS_clean_linker_0, # of connection points: 2
#     Edge 133, Type (0, 0), BuildingBlock: CIFDUS_clean_linker_0, # of connection points: 2
#     Edge 134, Type (0, 0), BuildingBlock: CIFDUS_clean_linker_0, # of connection points: 2
#     Edge 135, Type (0, 0), BuildingBlock: CIFDUS_clean_linker_0, # of connection points: 2
#     Edge 136, Type (0, 0), BuildingBlock: CIFDUS_clean_linker_0, # of connection points: 2
#     Edge 137, Type (0, 0), BuildingBlock: CIFDUS_clean_linker_0, # of connection points: 2
#     Edge 138, Type (0, 0), BuildingBlock: CIFDUS_clean_linker_0, # of connection points: 2
#     Edge 139, Type (0, 0), BuildingBlock: CIFDUS_clean_linker_0, # of connection points: 2
#     Edge 140, Type (0, 0), BuildingBlock: CIFDUS_clean_linker_0, # of connection points: 2
#     Edge 141, Type (0, 0), BuildingBlock: CIFDUS_clean_linker_0, # of connection points: 2
#     Edge 142, Type (0, 0), BuildingBlock: CIFDUS_clean_linker_0, # of connection points: 2
#     Edge 143, Type (0, 0), BuildingBlock: CIFDUS_clean_linker_0, # of connection points: 2
# Relax obj value: 0.163
# Max RMSD: 0.206
# Mean RMSD: 0.199
data_MOF--net-wna--node1-BETDEL_clean_sbu_0--edge1-CIFDUS_clean_linker_0
_symmetry_space_group_name_H-M    P1
_symmetry_Int_Tables_number       1
_symmetry_cell_setting            triclinic
loop_
_symmetry_equiv_pos_as_xyz
'x, y, z'
_cell_length_a     34.792978
_cell_length_b     34.837364
_cell_length_c     92.26108
_cell_angle_alpha  89.87058
_cell_angle_beta   90.003673
_cell_angle_gamma 119.83621
loop_
_atom_site_label
_atom_site_type_symbol
_atom_site_fract_x
_atom_site_fract_y
_atom_site_fract_z
_atom_type_partial_charge
Dy0 Dy 0.08737 0.25128 0.16689 0.0
C1 C 0.0485 0.21013 0.22731 0.0
C2 C 0.10976 0.28413 0.13929 0.0
Dy3 Dy 0.0719 0.23721 0.19903 0.0
O4 O 0.1305 0.26932 0.14712 0.0
O5 O 0.0763 0.28116 0.14654 0.0
O6 O 0.08087 0.18548 0.16336 0.0
O7 O 0.10649 0.2178 0.18324 0.0
C8 C 0.09418 0.18236 0.17623 0.0
C9 C 0.06361 0.30486 0.18794 0.0
O10 O 0.14583 0.27104 0.19857 0.0
O11 O 0.15127 0.30518 0.17666 0.0
O12 O 0.02116 0.19979 0.21655 0.0
O13 O 0.08866 0.2349 0.22259 0.0
O14 O 0.07865 0.30507 0.20079 0.0
O15 O 0.05091 0.26776 0.18232 0.0
O16 O 0.01559 0.19873 0.16653 0.0
O17 O 0.01521 0.17509 0.19006 0.0
C18 C 0.16998 0.30084 0.18863 0.0
C19 C 0.99643 0.16948 0.17715 0.0
Dy20 Dy 0.7492 0.83411 0.16327 0.0
C21 C 0.80366 0.85428 0.22296 0.0
C22 C 0.71306 0.79931 0.13685 0.0
Dy23 Dy 0.76996 0.84725 0.19575 0.0
O24 O 0.75426 0.82924 0.139 0.0
O25 O 0.69209 0.78798 0.14915 0.0
O26 O 0.77528 0.90733 0.15976 0.0
O27 O 0.80086 0.88588 0.17641 0.0
C28 C 0.80099 0.91919 0.17106 0.0
C29 C 0.6962 0.7712 0.18876 0.0
O30 O 0.73381 0.88519 0.19295 0.0
O31 O 0.69644 0.84586 0.1725 0.0
O32 O 0.79361 0.88249 0.21728 0.0
O33 O 0.79502 0.82276 0.21385 0.0
O34 O 0.70069 0.79389 0.20034 0.0
O35 O 0.73227 0.78896 0.18178 0.0
O36 O 0.80516 0.81953 0.16361 0.0
O37 O 0.82881 0.8443 0.18708 0.0
C38 C 0.70184 0.87346 0.18319 0.0
C39 C 0.83424 0.83007 0.17432 0.0
Dy40 Dy 0.17096 0.92278 0.161 0.0
C41 C 0.15876 0.94372 0.22211 0.0
C42 C 0.19608 0.9199 0.13304 0.0
Dy43 Dy 0.16532 0.92438 0.19364 0.0
O44 O 0.16656 0.93027 0.1369 0.0
O45 O 0.21221 0.91128 0.1445 0.0
O46 O 0.10581 0.91906 0.15744 0.0
O47 O 0.11537 0.8922 0.17656 0.0
C48 C 0.08962 0.90233 0.17006 0.0
C49 C 0.24491 0.94282 0.18307 0.0
O50 O 0.13344 0.85117 0.19052 0.0
O51 O 0.15939 0.85519 0.16709 0.0
O52 O 0.17473 0.972 0.21158 0.0
O53 O 0.14558 0.90423 0.21708 0.0
O54 O 0.22855 0.92201 0.19513 0.0
O55 O 0.21987 0.95581 0.17792 0.0
O56 O 0.19148 0.99366 0.16478 0.0
O57 O 0.15382 0.97896 0.18648 0.0
C58 C 0.1404 0.83239 0.17906 0.0
C59 C 0.17308 0.00507 0.17523 0.0
Dy60 Dy 0.25689 0.0892 0.36065 0.0
C61 C 0.21077 0.05434 0.30053 0.0
C62 C 0.28642 0.09704 0.3888 0.0
Dy63 Dy 0.24061 0.08094 0.32828 0.0
O64 O 0.2466 0.08596 0.38478 0.0
O65 O 0.31093 0.1042 0.37733 0.0
O66 O 0.19189 0.08452 0.36553 0.0
O67 O 0.22284 0.11161 0.34572 0.0
C68 C 0.18779 0.09872 0.35296 0.0
C69 C 0.31255 0.0774 0.33685 0.0
O70 O 0.27684 0.15474 0.3295 0.0
O71 O 0.30408 0.15918 0.35286 0.0
O72 O 0.2228 0.09341 0.30576 0.0
O73 O 0.2149 0.0303 0.31046 0.0
O74 O 0.31 0.0957 0.32495 0.0
O75 O 0.27555 0.05917 0.34329 0.0
O76 O 0.20999 0.01621 0.35842 0.0
O77 O 0.1794 0.02357 0.33718 0.0
C78 C 0.30307 0.17808 0.34037 0.0
C79 C 0.17744 1.00044 0.34878 0.0
Dy80 Dy 0.92283 0.17197 0.36724 0.0
C81 C 0.9436 0.15269 0.3068 0.0
C82 C 0.91873 0.20443 0.39382 0.0
Dy83 Dy 0.92327 0.15973 0.33514 0.0
O84 O 0.92717 0.1726 0.3916 0.0
O85 O 0.91297 0.2189 0.38149 0.0
O86 O 0.92239 0.11043 0.37294 0.0
O87 O 0.89174 0.11222 0.35334 0.0
C88 C 0.90364 0.08961 0.36107 0.0
C89 C 0.94237 0.24089 0.34413 0.0
O90 O 0.85021 0.13064 0.33753 0.0
O91 O 0.85427 0.15719 0.36083 0.0
O92 O 0.90405 0.13119 0.31241 0.0
O93 O 0.97138 0.17699 0.3167 0.0
O94 O 0.91925 0.22227 0.33265 0.0
O95 O 0.9557 0.21668 0.34957 0.0
O96 O 0.99357 0.19058 0.36375 0.0
O97 O 0.97786 0.149 0.34289 0.0
C98 C 0.83152 0.13803 0.34889 0.0
C99 C 0.00448 0.17023 0.35383 0.0
Dy100 Dy 0.83847 0.7598 0.36251 0.0
C101 C 0.85952 0.79664 0.30047 0.0
C102 C 0.80529 0.73088 0.38969 0.0
Dy103 Dy 0.85176 0.76872 0.32852 0.0
O104 O 0.82767 0.7721 0.38569 0.0
O105 O 0.79989 0.70537 0.37868 0.0
O106 O 0.9103 0.80467 0.36908 0.0
O107 O 0.89194 0.7946 0.34754 0.0
C108 C 0.92453 0.8148 0.35583 0.0
C109 C 0.77462 0.7006 0.33799 0.0
O110 O 0.88935 0.73395 0.33396 0.0
O111 O 0.85448 0.70692 0.35628 0.0
O112 O 0.8328 0.79753 0.31006 0.0
O113 O 0.88244 0.77998 0.30613 0.0
O114 O 0.79501 0.70013 0.3263 0.0
O115 O 0.79446 0.73886 0.34353 0.0
O116 O 0.82225 0.81332 0.35769 0.0
O117 O 0.85611 0.83236 0.33502 0.0
C118 C 0.87999 0.70751 0.34543 0.0
C119 C 0.83782 0.84036 0.34634 0.0
Dy120 Dy 0.91496 0.76779 0.8315 0.0
C121 C 0.89112 0.70428 0.88943 0.0
C122 C 0.94054 0.80059 0.80388 0.0
Dy123 Dy 0.90352 0.74575 0.86305 0.0
O124 O 0.89992 0.77488 0.80808 0.0
O125 O 0.96678 0.80909 0.81484 0.0
O126 O 0.90138 0.69864 0.82676 0.0
O127 O 0.93459 0.72966 0.84562 0.0
C128 C 0.91789 0.69397 0.83873 0.0
C129 C 0.90252 0.82091 0.85787 0.0
O130 O 0.97621 0.79561 0.86279 0.0
O131 O 0.97525 0.82514 0.8404 0.0
O132 O 0.86901 0.7228 0.88474 0.0
O133 O 0.91966 0.70813 0.87966 0.0
O134 O 0.91681 0.81218 0.86975 0.0
O135 O 0.88587 0.78739 0.84954 0.0
O136 O 0.84236 0.73962 0.83281 0.0
O137 O 0.83615 0.69896 0.85336 0.0
C138 C 0.99542 0.82643 0.85264 0.0
C139 C 0.81793 0.70764 0.84205 0.0
Dy140 Dy 0.23531 0.1539 0.83237 0.0
C141 C 0.27444 0.17109 0.89323 0.0
C142 C 0.20687 0.15123 0.80441 0.0
Dy143 Dy 0.24756 0.15396 0.8649 0.0
O144 O 0.22732 0.1309 0.80905 0.0
O145 O 0.20194 0.17264 0.81503 0.0
O146 O 0.30152 0.21627 0.83104 0.0
O147 O 0.26122 0.20509 0.84911 0.0
C148 C 0.29853 0.23053 0.84371 0.0
C149 C 0.18295 0.07634 0.85526 0.0
O150 O 0.1962 0.1747 0.86349 0.0
O151 O 0.17118 0.14353 0.84092 0.0
O152 O 0.23984 0.1359 0.8885 0.0
O153 O 0.2952 0.19727 0.8824 0.0
O154 O 0.18371 0.09208 0.86805 0.0
O155 O 0.21861 0.10123 0.84853 0.0
O156 O 0.27641 0.12145 0.83271 0.0
O157 O 0.3007 0.14006 0.85647 0.0
C158 C 0.16594 0.16023 0.85309 0.0
C159 C 0.30249 0.12393 0.84356 0.0
Dy160 Dy 0.84358 0.08523 0.82783 0.0
C161 C 0.8201 0.10783 0.88757 0.0
C162 C 0.84677 0.06002 0.80001 0.0
Dy163 Dy 0.83761 0.09207 0.86 0.0
O164 O 0.8188 0.03556 0.80987 0.0
O165 O 0.87352 0.09905 0.80527 0.0
O166 O 0.78853 0.10021 0.825 0.0
O167 O 0.78775 0.06353 0.84308 0.0
C168 C 0.76846 0.08173 0.837 0.0
C169 C 0.91448 0.09903 0.85204 0.0
O170 O 0.82024 0.02065 0.85891 0.0
O171 O 0.84547 0.02531 0.83537 0.0
O172 O 0.85686 0.13122 0.88057 0.0
O173 O 0.79222 0.07526 0.8795 0.0
O174 O 0.8955 0.08329 0.86446 0.0
O175 O 0.89353 0.114 0.84502 0.0
O176 O 0.88227 0.1587 0.82936 0.0
O177 O 0.85269 0.15957 0.85172 0.0
C178 C 0.83064 0.0037 0.84771 0.0
C179 C 0.87613 0.18054 0.84 0.0
Dy180 Dy 0.76649 0.92017 0.69461 0.0
C181 C 0.72312 0.88768 0.63498 0.0
C182 C 0.7921 0.94364 0.7228 0.0
Dy183 Dy 0.75486 0.90514 0.66265 0.0
O184 O 0.76264 0.90444 0.71849 0.0
O185 O 0.80791 0.96978 0.71171 0.0
O186 O 0.70039 0.9174 0.69568 0.0
O187 O 0.73997 0.94417 0.67747 0.0
C188 C 0.70279 0.93324 0.68282 0.0
C189 C 0.82032 0.8937 0.6728 0.0
O190 O 0.81074 0.97514 0.66233 0.0
O191 O 0.83072 0.97527 0.68629 0.0
O192 O 0.73815 0.86584 0.64211 0.0
O193 O 0.72535 0.91939 0.64296 0.0
O194 O 0.81914 0.90709 0.65973 0.0
O195 O 0.78456 0.88315 0.67944 0.0
O196 O 0.72989 0.84643 0.69434 0.0
O197 O 0.69806 0.84265 0.67213 0.0
C198 C 0.83871 0.9936 0.67326 0.0
C199 C 0.70002 0.82342 0.68433 0.0
Dy200 Dy 0.08789 0.84817 0.69951 0.0
C201 C 0.1057 0.82067 0.63868 0.0
C202 C 0.06066 0.85347 0.72699 0.0
Dy203 Dy 0.09698 0.84089 0.66695 0.0
O204 O 0.03617 0.8262 0.717 0.0
O205 O 0.10063 0.87834 0.72201 0.0
O206 O 0.1018 0.79315 0.70313 0.0
O207 O 0.06712 0.79205 0.68438 0.0
C208 C 0.08488 0.77306 0.69103 0.0
C209 C 0.1055 0.91896 0.67501 0.0
O210 O 0.02372 0.81218 0.66933 0.0
O211 O 0.02997 0.85048 0.69035 0.0
O212 O 0.09022 0.8458 0.64286 0.0
O213 O 0.1167 0.80608 0.65005 0.0
O214 O 0.09243 0.90172 0.66228 0.0
O215 O 0.11833 0.89641 0.68204 0.0
O216 O 0.16166 0.88569 0.6982 0.0
O217 O 0.16629 0.86253 0.67492 0.0
C218 C 0.00716 0.82843 0.67886 0.0
C219 C 0.18499 0.88237 0.68738 0.0
Dy220 Dy 0.1562 0.2394 0.69895 0.0
C221 C 0.19581 0.29243 0.63957 0.0
C222 C 0.14781 0.20727 0.72663 0.0
Dy223 Dy 0.16936 0.25722 0.66668 0.0
O224 O 0.17315 0.20599 0.7166 0.0
O225 O 0.12605 0.22583 0.72152 0.0
O226 O 0.21415 0.30644 0.70333 0.0
O227 O 0.21465 0.27225 0.68477 0.0
C228 C 0.23489 0.30847 0.69146 0.0
C229 C 0.08865 0.19022 0.67323 0.0
O230 O 0.18498 0.20251 0.66809 0.0
O231 O 0.15052 0.17674 0.69029 0.0
O232 O 0.15763 0.28093 0.64538 0.0
O233 O 0.21997 0.28495 0.64862 0.0
O234 O 0.10862 0.1938 0.661 0.0
O235 O 0.11059 0.22474 0.68073 0.0
O236 O 0.1232 0.28024 0.69626 0.0
O237 O 0.16168 0.31341 0.67518 0.0
C238 C 0.16853 0.17174 0.67832 0.0
C239 C 0.13589 0.31132 0.6861 0.0
Dy240 Dy 0.77043 0.58822 0.4948 0.0
C241 C 0.72824 0.54193 0.55649 0.0
C242 C 0.76994 0.61683 0.46725 0.0
Dy243 Dy 0.75463 0.57179 0.52882 0.0
O244 O 0.75813 0.57646 0.47095 0.0
O245 O 0.78248 0.64214 0.47867 0.0
O246 O 0.80216 0.54625 0.49065 0.0
O247 O 0.78133 0.55122 0.51131 0.0
C248 C 0.79842 0.53298 0.50404 0.0
C249 C 0.74363 0.63672 0.51706 0.0
O250 O 0.82839 0.61037 0.52771 0.0
O251 O 0.83495 0.64058 0.50454 0.0
O252 O 0.70242 0.54051 0.5461 0.0
O253 O 0.76883 0.55962 0.55176 0.0
O254 O 0.75792 0.63794 0.53013 0.0
O255 O 0.73307 0.59993 0.51147 0.0
O256 O 0.7009 0.53136 0.49583 0.0
O257 O 0.70226 0.50813 0.51946 0.0
C258 C 0.8523 0.63828 0.5172 0.0
C259 C 0.68399 0.50167 0.50644 0.0
Dy260 Dy 0.42497 0.17063 0.49591 0.0
C261 C 0.46811 0.18942 0.55665 0.0
C262 C 0.39658 0.1457 0.46783 0.0
Dy263 Dy 0.43831 0.18309 0.52863 0.0
O264 O 0.43729 0.17009 0.47195 0.0
O265 O 0.37085 0.13418 0.47915 0.0
O266 O 0.48812 0.23288 0.49087 0.0
O267 O 0.45527 0.22846 0.5103 0.0
C268 C 0.49056 0.25126 0.50328 0.0
C269 C 0.36923 0.10574 0.52038 0.0
O270 O 0.39848 0.21709 0.52544 0.0
O271 O 0.37347 0.18865 0.50234 0.0
O272 O 0.46845 0.16341 0.54671 0.0
O273 O 0.4516 0.21279 0.55128 0.0
O274 O 0.3701 0.12688 0.532 0.0
O275 O 0.40665 0.12489 0.51422 0.0
O276 O 0.47224 0.14588 0.49987 0.0
O277 O 0.50099 0.18802 0.52047 0.0
C278 C 0.3719 0.20976 0.51414 0.0
C279 C 0.50425 0.16527 0.50958 0.0
Dy280 Dy 0.83891 0.24529 0.50205 0.0
C281 C 0.81838 0.27836 0.56132 0.0
C282 C 0.87094 0.23623 0.47599 0.0
Dy283 Dy 0.82661 0.25234 0.5341 0.0
O284 O 0.8451 0.25276 0.47779 0.0
O285 O 0.87933 0.22457 0.48845 0.0
O286 O 0.77692 0.24572 0.49569 0.0
O287 O 0.78079 0.22143 0.51609 0.0
C288 C 0.75826 0.23268 0.50831 0.0
C289 C 0.90481 0.25983 0.52657 0.0
O290 O 0.79016 0.17842 0.5327 0.0
O291 O 0.81654 0.17561 0.50983 0.0
O292 O 0.84486 0.3038 0.5513 0.0
O293 O 0.79568 0.23803 0.5565 0.0
O294 O 0.88361 0.24112 0.53838 0.0
O295 O 0.88496 0.27644 0.51988 0.0
O296 O 0.86374 0.31792 0.50432 0.0
O297 O 0.82199 0.30906 0.52472 0.0
C298 C 0.79504 0.15584 0.52197 0.0
C299 C 0.84515 0.33303 0.51351 0.0
Dy300 Dy 0.92235 0.4327 0.69846 0.0
C301 C 0.87763 0.39507 0.63824 0.0
C302 C 0.95612 0.44207 0.72578 0.0
Dy303 Dy 0.90745 0.41915 0.66604 0.0
O304 O 0.93689 0.46304 0.7207 0.0
O305 O 0.95737 0.41631 0.71588 0.0
O306 O 0.8589 0.43166 0.70248 0.0
O307 O 0.89118 0.45488 0.6823 0.0
C308 C 0.85624 0.44457 0.68945 0.0
C309 C 0.97154 0.40537 0.67697 0.0
O310 O 0.94595 0.49268 0.6665 0.0
O311 O 0.97696 0.49699 0.68907 0.0
O312 O 0.86761 0.36826 0.64914 0.0
O313 O 0.90388 0.43537 0.64252 0.0
O314 O 0.97336 0.42141 0.66415 0.0
O315 O 0.93475 0.39468 0.68256 0.0
O316 O 0.86646 0.3627 0.69832 0.0
O317 O 0.84378 0.36498 0.67485 0.0
C318 C 0.9752 0.51572 0.67668 0.0
C319 C 0.8373 0.34547 0.68763 0.0
Dy320 Dy 0.57402 0.49835 0.69365 0.0
C321 C 0.61184 0.48258 0.63395 0.0
C322 C 0.56236 0.52434 0.72059 0.0
Dy323 Dy 0.58584 0.48955 0.66142 0.0
O324 O 0.53916 0.48487 0.71523 0.0
O325 O 0.59172 0.5499 0.71114 0.0
O326 O 0.57855 0.43823 0.69939 0.0
O327 O 0.55358 0.4419 0.67902 0.0
C328 C 0.56566 0.41981 0.68675 0.0
C329 C 0.58989 0.56597 0.66915 0.0
O330 O 0.51209 0.4517 0.66263 0.0
O331 O 0.50861 0.48448 0.68404 0.0
O332 O 0.57125 0.46125 0.6387 0.0
O333 O 0.63781 0.50694 0.64424 0.0
O334 O 0.57409 0.54598 0.65697 0.0
O335 O 0.60603 0.5461 0.67612 0.0
O336 O 0.6452 0.51582 0.69353 0.0
O337 O 0.64293 0.48586 0.67094 0.0
C338 C 0.48918 0.45987 0.67242 0.0
C339 C 0.6629 0.50235 0.68344 0.0
Dy340 Dy 0.50822 0.08244 0.69517 0.0
C341 C 0.52549 0.13366 0.63504 0.0
C342 C 0.49146 0.04616 0.72249 0.0
Dy343 Dy 0.51856 0.10143 0.66278 0.0
O344 O 0.52609 0.05605 0.71467 0.0
O345 O 0.46506 0.05582 0.71534 0.0
O346 O 0.56878 0.14605 0.70054 0.0
O347 O 0.56559 0.11581 0.68053 0.0
C348 C 0.58779 0.15009 0.6881 0.0
C349 C 0.44097 0.0313 0.67063 0.0
O350 O 0.55245 0.06115 0.66471 0.0
O351 O 0.51402 0.02631 0.68558 0.0
O352 O 0.54779 0.11557 0.64006 0.0
O353 O 0.50031 0.13455 0.64521 0.0
O354 O 0.46102 0.03432 0.65852 0.0
O355 O 0.46121 0.06729 0.67747 0.0
O356 O 0.49174 0.13687 0.69462 0.0
O357 O 0.52359 0.1631 0.67206 0.0
C358 C 0.53985 0.02926 0.67457 0.0
C359 C 0.50671 0.16771 0.68436 0.0
Dy360 Dy 0.59576 0.10215 0.16318 0.0
C361 C 0.59298 0.0753 0.22476 0.0
C362 C 0.61845 0.12478 0.13465 0.0
Dy363 Dy 0.58965 0.09621 0.19634 0.0
O364 O 0.64268 0.12003 0.14435 0.0
O365 O 0.58094 0.11659 0.14046 0.0
O366 O 0.5878 0.03377 0.16326 0.0
O367 O 0.62188 0.07719 0.1801 0.0
C368 C 0.60789 0.03859 0.17552 0.0
C369 C 0.54981 0.13854 0.18492 0.0
O370 O 0.65814 0.15445 0.19417 0.0
O371 O 0.65678 0.16476 0.16924 0.0
O372 O 0.59963 0.11347 0.22013 0.0
O373 O 0.58533 0.049 0.21382 0.0
O374 O 0.53775 0.11613 0.19696 0.0
O375 O 0.58474 0.14001 0.1802 0.0
O376 O 0.52243 0.06326 0.16611 0.0
O377 O 0.52711 0.0366 0.18866 0.0
C378 C 0.67622 0.17692 0.18205 0.0
C379 C 0.5038 0.03578 0.17716 0.0
Dy380 Dy 0.90228 0.49452 0.16684 0.0
C381 C 0.95768 0.53762 0.22529 0.0
C382 C 0.8711 0.47976 0.13881 0.0
Dy383 Dy 0.92022 0.51063 0.1986 0.0
O384 O 0.91206 0.49515 0.14263 0.0
O385 O 0.84679 0.47032 0.15037 0.0
O386 O 0.96807 0.55643 0.1626 0.0
O387 O 0.93046 0.55351 0.18047 0.0
C388 C 0.96666 0.57652 0.17416 0.0
C389 C 0.85161 0.43076 0.19338 0.0
O390 O 0.86611 0.52728 0.19737 0.0
O391 O 0.84338 0.49909 0.17424 0.0
O392 O 0.94084 0.49781 0.22023 0.0
O393 O 0.95403 0.56314 0.21576 0.0
O394 O 0.85568 0.45438 0.20474 0.0
O395 O 0.88639 0.44925 0.18558 0.0
O396 O 0.93875 0.45756 0.17054 0.0
O397 O 0.97562 0.50096 0.19018 0.0
C398 C 0.83723 0.51464 0.18658 0.0
C399 C 0.97127 0.47185 0.18016 0.0
Dy400 Dy 0.50638 0.41505 0.16452 0.0
C401 C 0.47922 0.42761 0.22448 0.0
C402 C 0.51193 0.39062 0.1368 0.0
Dy403 Dy 0.50063 0.42096 0.19629 0.0
O404 O 0.49002 0.36388 0.14728 0.0
O405 O 0.531 0.43123 0.14139 0.0
O406 O 0.44974 0.42706 0.16162 0.0
O407 O 0.44917 0.39036 0.17969 0.0
C408 C 0.42919 0.4078 0.17344 0.0
C409 C 0.58041 0.43404 0.18813 0.0
O410 O 0.47591 0.34799 0.19338 0.0
O411 O 0.51439 0.35911 0.17219 0.0
O412 O 0.49925 0.40682 0.22014 0.0
O413 O 0.47036 0.44483 0.21335 0.0
O414 O 0.56286 0.41895 0.20073 0.0
O415 O 0.55695 0.44617 0.1813 0.0
O416 O 0.54467 0.48841 0.16576 0.0
O417 O 0.52293 0.49195 0.18922 0.0
C418 C 0.49344 0.33398 0.18339 0.0
C419 C 0.54232 0.51154 0.17675 0.0
Dy420 Dy 0.42892 0.24452 0.03306 0.0
C421 C 0.37868 0.23662 0.9725 0.0
C422 C 0.46007 0.27191 0.06036 0.0
Dy423 Dy 0.41094 0.23643 0.9995 0.0
O424 O 0.44578 0.23187 0.05558 0.0
O425 O 0.45725 0.29635 0.05027 0.0
O426 O 0.35899 0.22884 0.03639 0.0
O427 O 0.39248 0.26389 0.01778 0.0
C428 C 0.35559 0.24565 0.02425 0.0
C429 C 0.47171 0.21282 1.00573 0.0
O430 O 0.46466 0.3074 1.00157 0.0
O431 O 0.49024 0.30174 0.02429 0.0
O432 O 0.4197 0.2605 0.97649 0.0
O433 O 0.35477 0.21286 0.98339 0.0
O434 O 0.45706 0.21158 0.99267 0.0
O435 O 0.45252 0.2261 0.01421 0.0
O436 O 0.39957 0.17197 0.03046 0.0
O437 O 0.365 0.16771 1.00833 0.0
C438 C 0.49499 0.32314 1.01198 0.0
C439 C 0.37161 0.14876 0.01994 0.0
Dy440 Dy 0.74807 0.17191 0.02763 0.0
C441 C 0.75584 0.1309 0.96882 0.0
C442 C 0.72845 0.18187 0.05583 0.0
Dy443 Dy 0.74761 0.15637 0.99617 0.0
O444 O 0.76816 0.19594 0.05076 0.0
O445 O 0.70016 0.16374 0.04543 0.0
O446 O 0.76106 0.11579 0.03193 0.0
O447 O 0.72146 0.11132 0.01442 0.0
C448 C 0.73988 0.09277 0.02073 0.0
C449 C 0.75425 0.23495 1.00141 0.0
O450 O 0.6757 0.13424 0.99896 0.0
O451 O 0.68641 0.17134 0.02057 0.0
O452 O 0.77935 0.17024 0.97417 0.0
O453 O 0.72756 0.10494 0.97846 0.0
O454 O 0.73405 0.21 0.99037 0.0
O455 O 0.77298 0.21829 1.00896 0.0
O456 O 0.82108 0.21134 0.02365 0.0
O457 O 0.81532 0.17052 1.00334 0.0
C458 C 0.66125 0.15003 1.00936 0.0
C459 C 0.83974 0.19913 1.01351 0.0
Dy460 Dy 0.83074 0.5638 0.02984 0.0
C461 C 0.83354 0.60255 0.96962 0.0
C462 C 0.84406 0.54303 0.05748 0.0
Dy463 Dy 0.8238 0.57155 0.99756 0.0
O464 O 0.87322 0.5594 0.04723 0.0
O465 O 0.80658 0.53828 0.05277 0.0
O466 O 0.88762 0.63359 0.02943 0.0
O467 O 0.87927 0.59156 1.01212 0.0
C468 C 0.90287 0.63018 0.01696 0.0
C469 C 0.74962 0.505 1.00861 0.0
O470 O 0.83976 0.51642 0.99759 0.0
O471 O 0.82611 0.501 0.02215 0.0
O472 O 0.7981 0.58802 0.97749 0.0
O473 O 0.86404 0.59991 0.97698 0.0
O474 O 0.764 0.50564 0.99556 0.0
O475 O 0.77401 0.54172 0.01487 0.0
O476 O 0.79546 0.6024 0.03052 0.0
O477 O 0.81401 0.6265 1.00677 0.0
C478 C 0.83461 0.49144 1.00913 0.0
C479 C 0.79691 0.62776 0.01956 0.0
Dy480 Dy 0.42601 0.92241 0.83155 0.0
C481 C 0.37381 0.87169 0.89015 0.0
C482 C 0.43725 0.96061 0.80464 0.0
Dy483 Dy 0.4138 0.90271 0.86385 0.0
O484 O 0.46031 0.94372 0.80983 0.0
O485 O 0.40843 0.95722 0.81425 0.0
O486 O 0.4207 0.85755 0.82602 0.0
O487 O 0.44563 0.88616 0.84638 0.0
C488 C 0.43345 0.852 0.83872 0.0
C489 C 0.41488 0.97708 0.85568 0.0
O490 O 0.48758 0.93868 0.86379 0.0
O491 O 0.49249 0.97152 0.8413 0.0
O492 O 0.3605 0.88773 0.87992 0.0
O493 O 0.41051 0.87289 0.8862 0.0
O494 O 0.43232 0.97293 0.86756 0.0
O495 O 0.39601 0.94065 0.84895 0.0
O496 O 0.35463 0.86866 0.83157 0.0
O497 O 0.35717 0.84238 0.85439 0.0
C498 C 0.51108 0.96772 0.85348 0.0
C499 C 0.33691 0.83833 0.84193 0.0
Dy500 Dy 0.07255 0.50984 0.83495 0.0
C501 C 0.12498 0.51778 0.89382 0.0
C502 C 0.03498 0.49381 0.80803 0.0
Dy503 Dy 0.09227 0.51429 0.86645 0.0
O504 O 0.04545 0.52848 0.81583 0.0
O505 O 0.04476 0.46726 0.81496 0.0
O506 O 0.13683 0.56953 0.82944 0.0
O507 O 0.10857 0.56575 0.84993 0.0
C508 C 0.14244 0.58792 0.84206 0.0
C509 C 0.02067 0.43773 0.85813 0.0
O510 O 0.0555 0.55172 0.86632 0.0
O511 O 0.01879 0.51892 0.84516 0.0
O512 O 0.10689 0.54066 0.88945 0.0
O513 O 0.12546 0.49368 0.88324 0.0
O514 O 0.02412 0.45711 0.87039 0.0
O515 O 0.05663 0.45862 0.85125 0.0
O516 O 0.12616 0.49229 0.83387 0.0
O517 O 0.15356 0.51957 0.85666 0.0
C518 C 0.02394 0.54345 0.85675 0.0
C519 C 0.15735 0.50467 0.84388 0.0
Dy520 Dy 0.48738 0.57132 0.82981 0.0
C521 C 0.46667 0.60091 0.88962 0.0
C522 C 0.5036 0.55216 0.8024 0.0
Dy523 Dy 0.47864 0.58021 0.86185 0.0
O524 O 0.53032 0.58752 0.80965 0.0
O525 O 0.46874 0.52772 0.81016 0.0
O526 O 0.42563 0.57417 0.82522 0.0
O527 O 0.43048 0.54606 0.84478 0.0
C528 C 0.40746 0.55833 0.83771 0.0
C529 C 0.55793 0.59161 0.85398 0.0
O530 O 0.44299 0.50658 0.85947 0.0
O531 O 0.48528 0.51135 0.83965 0.0
O532 O 0.47879 0.57244 0.88613 0.0
O533 O 0.45909 0.61659 0.87789 0.0
O534 O 0.53852 0.57472 0.86616 0.0
O535 O 0.53621 0.60578 0.847 0.0
O536 O 0.50444 0.64203 0.82956 0.0
O537 O 0.48251 0.64217 0.85327 0.0
C538 C 0.45831 0.48799 0.85034 0.0
C539 C 0.49503 0.66094 0.84036 0.0
Dy540 Dy 0.59379 0.75256 0.02799 0.0
C541 C 0.54299 0.69716 0.96937 0.0
C542 C 0.63185 0.75963 0.05452 0.0
Dy543 Dy 0.57368 0.73646 0.99576 0.0
O544 O 0.59007 0.74633 0.0524 0.0
O545 O 0.65249 0.76864 0.04216 0.0
O546 O 0.56647 0.79862 0.02977 0.0
O547 O 0.54088 0.74813 0.01411 0.0
C548 C 0.5404 0.78218 0.01862 0.0
C549 C 0.64898 0.73919 1.00472 0.0
O550 O 0.60488 0.81 0.99581 0.0
O551 O 0.6424 0.81724 0.01733 0.0
O552 O 0.5591 0.68358 0.97952 0.0
O553 O 0.54393 0.73347 0.97349 0.0
O554 O 0.64512 0.75624 0.9927 0.0
O555 O 0.61223 0.72085 1.01124 0.0
O556 O 0.53747 0.68239 0.02938 0.0
O557 O 0.51535 0.6768 1.00536 0.0
C558 C 0.63499 0.83482 1.00558 0.0
C559 C 0.50928 0.66071 0.01871 0.0
Dy560 Dy 0.25856 0.82899 0.02896 0.0
C561 C 0.27087 0.7935 0.9691 0.0
C562 C 0.25644 0.85879 0.05627 0.0
Dy563 Dy 0.25513 0.81104 0.9968 0.0
O564 O 0.26999 0.83134 0.053 0.0
O565 O 0.24411 0.87046 0.04455 0.0
O566 O 0.26063 0.76736 0.03452 0.0
O567 O 0.22785 0.7688 0.0157 0.0
C568 C 0.24167 0.74697 0.02264 0.0
C569 C 0.26987 0.89215 1.00354 0.0
O570 O 0.18198 0.77525 1.0013 0.0
O571 O 0.1887 0.81179 0.02296 0.0
O572 O 0.24539 0.80939 0.9726 0.0
O573 O 0.28574 0.7849 0.98082 0.0
O574 O 0.24835 0.87017 0.99224 0.0
O575 O 0.28639 0.87184 1.01005 0.0
O576 O 0.33083 0.85434 0.02496 0.0
O577 O 0.31935 0.81634 1.00349 0.0
C578 C 0.16416 0.78677 1.01201 0.0
C579 C 0.34481 0.83789 0.01462 0.0
Dy580 Dy 0.1762 0.40621 0.03041 0.0
C581 C 0.18553 0.45583 0.97047 0.0
C582 C 0.1482 0.37005 0.05738 0.0
Dy583 Dy 0.18028 0.42459 0.9982 0.0
O584 O 0.18812 0.38557 0.05237 0.0
O585 O 0.12347 0.37381 0.0476 0.0
O586 O 0.23932 0.46778 0.03529 0.0
O587 O 0.23111 0.43793 0.01476 0.0
C588 C 0.25596 0.47158 0.02238 0.0
C589 C 0.10102 0.36032 1.00818 0.0
O590 O 0.21395 0.38438 0.99852 0.0
O591 O 0.1849 0.35138 0.02068 0.0
O592 O 0.16819 0.46467 0.98148 0.0
O593 O 0.20083 0.43031 0.97464 0.0
O594 O 0.11677 0.35953 0.99555 0.0
O595 O 0.12687 0.39629 0.01424 0.0
O596 O 0.16558 0.46445 0.03084 0.0
O597 O 0.19156 0.4884 1.00753 0.0
C598 C 0.20645 0.35395 1.00848 0.0
C599 C 0.17889 0.49462 0.02041 0.0
Dy600 Dy 0.25862 0.43554 0.49948 0.0
C601 C 0.22444 0.38474 0.55878 0.0
C602 C 0.28359 0.46677 0.47173 0.0
Dy603 Dy 0.24387 0.41949 0.5314 0.0
O604 O 0.25705 0.4258 0.47529 0.0
O605 O 0.29528 0.49098 0.48331 0.0
O606 O 0.25655 0.3703 0.49721 0.0
O607 O 0.28346 0.40742 0.5159 0.0
C608 C 0.27275 0.37115 0.5099 0.0
C609 C 0.23232 0.4859 0.52237 0.0
O610 O 0.31395 0.47507 0.5325 0.0
O611 O 0.31875 0.49465 0.50824 0.0
O612 O 0.20332 0.40081 0.55178 0.0
O613 O 0.25649 0.38741 0.55081 0.0
O614 O 0.24706 0.48388 0.53512 0.0
O615 O 0.2212 0.4507 0.51538 0.0
O616 O 0.18469 0.39981 0.50001 0.0
O617 O 0.18159 0.36401 0.52135 0.0
C618 C 0.3349 0.50233 0.52156 0.0
C619 C 0.16187 0.36809 0.50959 0.0
Dy620 Dy 0.57768 0.82126 0.49565 0.0
C621 C 0.62864 0.86024 0.55476 0.0
C622 C 0.54536 0.81071 0.46799 0.0
Dy623 Dy 0.59394 0.83449 0.52764 0.0
O624 O 0.56891 0.79386 0.47286 0.0
O625 O 0.53921 0.83231 0.47825 0.0
O626 O 0.64447 0.87994 0.49119 0.0
O627 O 0.60969 0.88017 0.50959 0.0
C628 C 0.64606 0.90076 0.50296 0.0
C629 C 0.5271 0.75368 0.52117 0.0
O630 O 0.54078 0.85246 0.52573 0.0
O631 O 0.51471 0.81606 0.50396 0.0
O632 O 0.62171 0.88475 0.54571 0.0
O633 O 0.6167 0.82206 0.54898 0.0
O634 O 0.52966 0.77421 0.53318 0.0
O635 O 0.56215 0.77537 0.51385 0.0
O636 O 0.61736 0.78726 0.49867 0.0
O637 O 0.65068 0.82683 0.51942 0.0
C638 C 0.51009 0.83583 0.51551 0.0
C639 C 0.64856 0.80037 0.50875 0.0
Dy640 Dy 0.18335 0.74963 0.49781 0.0
C641 C 0.15998 0.76919 0.55884 0.0
C642 C 0.18434 0.71984 0.47047 0.0
Dy643 Dy 0.18072 0.76556 0.53028 0.0
O644 O 0.15165 0.70148 0.47958 0.0
O645 O 0.21695 0.75516 0.47624 0.0
O646 O 0.13309 0.77084 0.49446 0.0
O647 O 0.12998 0.73653 0.51342 0.0
C648 C 0.11264 0.75568 0.50666 0.0
C649 C 0.26226 0.79071 0.52019 0.0
O650 O 0.15999 0.69333 0.53076 0.0
O651 O 0.17492 0.68649 0.50667 0.0
O652 O 0.18628 0.75549 0.55418 0.0
O653 O 0.14451 0.78074 0.54782 0.0
O654 O 0.25459 0.8094 0.53112 0.0
O655 O 0.22656 0.75757 0.51611 0.0
O656 O 0.2265 0.82253 0.49856 0.0
O657 O 0.19631 0.83056 0.51999 0.0
C658 C 0.16386 0.67038 0.51996 0.0
C659 C 0.22099 0.84756 0.50815 0.0
Dy660 Dy 0.10257 0.58966 0.36423 0.0
C661 C 0.06001 0.56632 0.30433 0.0
C662 C 0.12624 0.60438 0.39296 0.0
Dy663 Dy 0.09118 0.58174 0.33208 0.0
O664 O 0.08884 0.57312 0.38799 0.0
O665 O 0.15136 0.62688 0.38218 0.0
O666 O 0.03852 0.59071 0.36631 0.0
O667 O 0.07814 0.61899 0.3482 0.0
C668 C 0.04147 0.60876 0.35381 0.0
C669 C 0.15502 0.56592 0.34134 0.0
O670 O 0.14428 0.6523 0.33291 0.0
O671 O 0.16524 0.64916 0.35654 0.0
O672 O 0.07258 0.54252 0.31152 0.0
O673 O 0.06462 0.59911 0.31227 0.0
O674 O 0.15531 0.58336 0.32886 0.0
O675 O 0.1189 0.55432 0.3479 0.0
O676 O 0.06365 0.51615 0.36146 0.0
O677 O 0.03054 0.52211 0.34075 0.0
C678 C 0.17225 0.66968 0.34388 0.0
C679 C 0.03183 0.49803 0.35162 0.0
Dy680 Dy 0.41789 0.50919 0.36439 0.0
C681 C 0.44205 0.49354 0.30411 0.0
C682 C 0.38127 0.49633 0.39152 0.0
Dy683 Dy 0.42928 0.50888 0.33243 0.0
O684 O 0.36792 0.46787 0.38109 0.0
O685 O 0.41593 0.533 0.38727 0.0
O686 O 0.43849 0.45819 0.36591 0.0
O687 O 0.39902 0.45582 0.34835 0.0
C688 C 0.4187 0.43744 0.35417 0.0
C689 C 0.43331 0.58378 0.34147 0.0
O690 O 0.35582 0.48126 0.3336 0.0
O691 O 0.35919 0.51175 0.35599 0.0
O692 O 0.43811 0.52644 0.30874 0.0
O693 O 0.4397 0.46881 0.31504 0.0
O694 O 0.41815 0.56577 0.32895 0.0
O695 O 0.44844 0.5625 0.34822 0.0
O696 O 0.49172 0.54941 0.36457 0.0
O697 O 0.49898 0.53229 0.34072 0.0
C698 C 0.3378 0.49377 0.34386 0.0
C699 C 0.51657 0.55019 0.35352 0.0
Dy700 Dy 0.49773 0.90699 0.36348 0.0
C701 C 0.53467 0.95801 0.30239 0.0
C702 C 0.49248 0.87449 0.39081 0.0
Dy703 Dy 0.50288 0.92474 0.32939 0.0
O704 O 0.51909 0.87596 0.38069 0.0
O705 O 0.46847 0.89099 0.38604 0.0
O706 O 0.5582 0.97414 0.36574 0.0
O707 O 0.54974 0.93764 0.34691 0.0
C708 C 0.57359 0.97437 0.35292 0.0
C709 C 0.41929 0.86798 0.33745 0.0
O710 O 0.51557 0.86757 0.33074 0.0
O711 O 0.4886 0.84423 0.35416 0.0
O712 O 0.51138 0.9163 0.30571 0.0
O713 O 0.54105 0.98197 0.31392 0.0
O714 O 0.43026 0.88165 0.32414 0.0
O715 O 0.45348 0.88643 0.34519 0.0
O716 O 0.45983 0.94268 0.36185 0.0
O717 O 0.48595 0.97429 0.33899 0.0
C718 C 0.50188 0.83786 0.3414 0.0
C719 C 0.46396 0.97043 0.35128 0.0
H720 H 0.12677 0.14999 0.15638 0.0
H721 H 0.10229 0.14945 0.2022 0.0
H722 H 0.12867 0.09661 0.20621 0.0
H723 H 0.15381 0.04725 0.19622 0.0
H724 H 0.18022 0.05051 0.15035 0.0
H725 H 0.15889 0.10684 0.14682 0.0
C726 C 0.12722 0.13829 0.16725 0.0
C727 C 0.11184 0.15256 0.17898 0.0
C728 C 0.14307 0.1089 0.16943 0.0
C729 C 0.11362 0.13829 0.19305 0.0
C730 C 0.1287 0.10826 0.1953 0.0
C731 C 0.15543 0.06072 0.18548 0.0
C732 C 0.16808 0.04442 0.17352 0.0
C733 C 0.14286 0.09287 0.18352 0.0
C734 C 0.17065 0.06254 0.15972 0.0
C735 C 0.1581 0.09446 0.15767 0.0
H736 H 0.95755 0.0976 0.19476 0.0
H737 H 0.94277 0.14515 0.15305 0.0
H738 H 0.87838 0.07263 0.14789 0.0
H739 H 0.82903 0.99401 0.1547 0.0
H740 H 0.84807 0.94695 0.19587 0.0
H741 H 0.90778 0.02108 0.20181 0.0
C742 C 0.94012 0.09247 0.18457 0.0
C743 C 0.95518 0.12695 0.1743 0.0
C744 C 0.90386 0.05058 0.18156 0.0
C745 C 0.93206 0.11928 0.16115 0.0
C746 C 0.89523 0.07775 0.15818 0.0
C747 C 0.846 1.00025 0.16503 0.0
C748 C 0.83425 0.96513 0.17485 0.0
C749 C 0.88122 0.04291 0.16823 0.0
C750 C 0.85662 0.97346 0.18814 0.0
C751 C 0.8908 0.01581 0.19153 0.0
H752 H 0.02253 0.87741 0.15104 0.0
H753 H 0.0505 0.88468 0.19677 0.0
H754 H 0.97222 0.85877 0.20226 0.0
H755 H 0.89731 0.83953 0.19387 0.0
H756 H 0.86993 0.83003 0.14795 0.0
H757 H 0.94641 0.85029 0.14272 0.0
C758 C 0.01143 0.8731 0.16221 0.0
C759 C 0.04217 0.88354 0.17352 0.0
C760 C 0.96652 0.85757 0.16522 0.0
C761 C 0.02732 0.87703 0.18793 0.0
C762 C 0.98267 0.86228 0.19104 0.0
C763 C 0.90786 0.84122 0.18271 0.0
C764 C 0.87785 0.83368 0.17132 0.0
C765 C 0.95211 0.85315 0.17976 0.0
C766 C 0.89209 0.83558 0.15694 0.0
C767 C 0.93601 0.84755 0.15393 0.0
H768 H 0.15062 0.12563 0.37316 0.0
H769 H 0.15623 0.1086 0.32709 0.0
H770 H 0.10171 0.13279 0.32311 0.0
H771 H 0.04969 0.15456 0.33303 0.0
H772 H 0.04716 0.17478 0.37909 0.0
H773 H 0.10437 0.15452 0.3828 0.0
C774 C 0.13986 0.12725 0.36225 0.0
C775 C 0.15648 0.11467 0.35042 0.0
C776 C 0.10957 0.14208 0.36008 0.0
C777 C 0.14333 0.11783 0.33631 0.0
C778 C 0.11234 0.13167 0.33407 0.0
C779 C 0.06211 0.15506 0.34386 0.0
C780 C 0.04406 0.16575 0.3558 0.0
C781 C 0.09488 0.14335 0.3459 0.0
C782 C 0.06071 0.16684 0.36974 0.0
C783 C 0.09309 0.15488 0.37188 0.0
H784 H 0.84204 0.88832 0.36997 0.0
H785 H 0.83953 0.8902 0.32326 0.0
H786 H 0.8555 0.96693 0.32352 0.0
H787 H 0.87795 0.03632 0.33709 0.0
H788 H 0.88544 0.03415 0.38375 0.0
H789 H 0.85967 0.95535 0.38343 0.0
C790 C 0.84399 0.90521 0.35987 0.0
C791 C 0.83968 0.88368 0.34665 0.0
C792 C 0.85473 0.94976 0.36007 0.0
C793 C 0.84294 0.90621 0.33362 0.0
C794 C 0.85222 0.95016 0.33374 0.0
C795 C 0.8733 0.01829 0.34714 0.0
C796 C 0.88388 0.04108 0.36037 0.0
C797 C 0.85945 0.97275 0.3469 0.0
C798 C 0.87799 0.0175 0.37336 0.0
C799 C 0.86313 0.97231 0.37323 0.0
H800 H 0.99634 0.84801 0.37324 0.0
H801 H 0.95679 0.84817 0.32895 0.0
H802 H 0.03329 0.90274 0.32254 0.0
H803 H 0.10971 0.95441 0.33002 0.0
H804 H 0.14922 0.95464 0.3744 0.0
H805 H 0.07451 0.89504 0.38023 0.0
C806 C 0.00461 0.85977 0.36216 0.0
C807 C 0.97106 0.8446 0.35159 0.0
C808 C 0.04856 0.89103 0.35859 0.0
C809 C 0.98212 0.85961 0.33726 0.0
C810 C 0.02579 0.89079 0.33361 0.0
C811 C 0.10223 0.9411 0.34095 0.0
C812 C 0.13502 0.95934 0.3518 0.0
C813 C 0.05907 0.90733 0.34426 0.0
C814 C 0.12475 0.94127 0.36584 0.0
C815 C 0.0819 0.90739 0.3692 0.0
H816 H 0.84777 0.83323 0.83921 0.0
H817 H 0.9346 0.89085 0.87592 0.0
H818 H 0.9154 0.94905 0.8773 0.0
H819 H 0.87558 0.98536 0.86779 0.0
H820 H 0.7932 0.93218 0.83004 0.0
H821 H 0.8079 0.87026 0.82954 0.0
C822 C 0.86259 0.8587 0.84744 0.0
C823 C 0.89246 0.85756 0.85747 0.0
C824 C 0.8515 0.89252 0.84817 0.0
C825 C 0.91136 0.89079 0.86809 0.0
C826 C 0.90029 0.92409 0.86894 0.0
C827 C 0.85994 0.95947 0.85972 0.0
C828 C 0.83236 0.96243 0.84923 0.0
C829 C 0.87027 0.92525 0.8591 0.0
C830 C 0.81373 0.92983 0.83843 0.0
C831 C 0.82255 0.89476 0.83804 0.0
H832 H 0.14045 0.01133 0.8748 0.0
H833 H 0.16199 0.03574 0.82886 0.0
H834 H 0.1093 0.95738 0.82402 0.0
H835 H 0.05238 0.88446 0.83297 0.0
H836 H 0.03138 0.86096 0.87902 0.0
H837 H 0.09017 0.93668 0.88379 0.0
C838 C 0.13377 0.99947 0.86372 0.0
C839 C 0.15416 0.02911 0.85214 0.0
C840 C 0.10406 0.95474 0.86111 0.0
C841 C 0.14616 0.01334 0.83787 0.0
C842 C 0.11619 0.96871 0.83515 0.0
C843 C 0.06122 0.89568 0.84407 0.0
C844 C 0.03726 0.86743 0.85565 0.0
C845 C 0.0943 0.93941 0.84669 0.0
C846 C 0.0494 0.88206 0.86995 0.0
C847 C 0.08264 0.92547 0.87266 0.0
H848 H 0.97543 0.1146 0.87257 0.0
H849 H 0.95875 0.11811 0.82635 0.0
H850 H 0.03728 0.14158 0.82265 0.0
H851 H 0.10895 0.15686 0.83263 0.0
H852 H 0.12574 0.1555 0.87895 0.0
H853 H 0.04865 0.13654 0.88263 0.0
C854 C 0.98902 0.1205 0.86169 0.0
C855 C 0.96156 0.11401 0.84969 0.0
C856 C 0.03402 0.13477 0.85972 0.0
C857 C 0.97951 0.12262 0.83568 0.0
C858 C 0.02423 0.13608 0.8336 0.0
C859 C 0.09585 0.15296 0.84354 0.0
C860 C 0.12271 0.15714 0.85552 0.0
C861 C 0.0516 0.14176 0.84554 0.0
C862 C 0.10569 0.15262 0.86959 0.0
C863 C 0.06156 0.14136 0.87168 0.0
H864 H 0.86081 0.86524 0.6544 0.0
H865 H 0.84559 0.88344 0.69982 0.0
H866 H 0.8993 0.85967 0.70592 0.0
H867 H 0.95464 0.83969 0.69801 0.0
H868 H 0.96798 0.81987 0.65252 0.0
H869 H 0.90965 0.83708 0.64675 0.0
C870 C 0.86916 0.86383 0.66564 0.0
C871 C 0.85016 0.87679 0.67667 0.0
C872 C 0.89925 0.84951 0.66901 0.0
C873 C 0.86029 0.87392 0.6912 0.0
C874 C 0.89086 0.86033 0.69465 0.0
C875 C 0.94424 0.83841 0.68685 0.0
C876 C 0.96587 0.82897 0.67568 0.0
C877 C 0.91109 0.84882 0.68362 0.0
C878 C 0.95176 0.82689 0.66131 0.0
C879 C 0.91874 0.83718 0.65799 0.0
H880 H 0.15538 0.10833 0.69809 0.0
H881 H 0.17028 0.13632 0.65218 0.0
H882 H 0.15173 0.06026 0.64718 0.0
H883 H 0.12695 0.98479 0.65571 0.0
H884 H 0.11568 0.95692 0.70154 0.0
H885 H 0.1368 0.03402 0.70677 0.0
C886 C 0.15504 0.09789 0.687 0.0
C887 C 0.16395 0.12789 0.67552 0.0
C888 C 0.14444 0.05408 0.6842 0.0
C889 C 0.16379 0.11402 0.66122 0.0
C890 C 0.15282 0.07041 0.65834 0.0
C891 C 0.12913 0.99565 0.66685 0.0
C892 C 0.11921 0.96537 0.67825 0.0
C893 C 0.14229 0.04001 0.66972 0.0
C894 C 0.12296 0.97983 0.69263 0.0
C895 C 0.13505 0.0238 0.69559 0.0
H896 H 0.89569 0.05007 0.69339 0.0
H897 H 0.88047 0.0254 0.64732 0.0
H898 H 0.95662 0.08453 0.64334 0.0
H899 H 0.02867 0.13997 0.65306 0.0
H900 H 0.04379 0.16702 0.69892 0.0
H901 H 0.96634 0.10978 0.70293 0.0
C902 C 0.9089 0.05789 0.68246 0.0
C903 C 0.88252 0.03313 0.67067 0.0
C904 C 0.95271 0.09192 0.68025 0.0
C905 C 0.89996 0.04399 0.65657 0.0
C906 C 0.94361 0.0776 0.6543 0.0
C907 C 0.01495 0.13338 0.66394 0.0
C908 C 0.04178 0.15716 0.67573 0.0
C909 C 0.97046 0.10117 0.66608 0.0
C910 C 0.0236 0.14889 0.68972 0.0
C911 C 0.97944 0.11625 0.69199 0.0
H912 H 0.81486 0.37544 0.53087 0.0
H913 H 0.87748 0.38592 0.48949 0.0
H914 H 0.8712 0.45087 0.48349 0.0
H915 H 0.84263 0.50084 0.48913 0.0
H916 H 0.7793 0.49041 0.53027 0.0
H917 H 0.79136 0.42923 0.5373 0.0
C918 C 0.82753 0.39211 0.52058 0.0
C919 C 0.84626 0.37546 0.51058 0.0
C920 C 0.82344 0.42924 0.51714 0.0
C921 C 0.86284 0.39784 0.49737 0.0
C922 C 0.85911 0.43493 0.49391 0.0
C923 C 0.83188 0.48545 0.4997 0.0
C924 C 0.80983 0.49974 0.50915 0.0
C925 C 0.83866 0.4503 0.50358 0.0
C926 C 0.79631 0.47985 0.52284 0.0
C927 C 0.80307 0.44483 0.52681 0.0
H928 H 0.54087 0.31419 0.48388 0.0
H929 H 0.512 0.29208 0.52957 0.0
H930 H 0.5683 0.36908 0.53461 0.0
H931 H 0.6277 0.44136 0.52595 0.0
H932 H 0.65378 0.46351 0.48004 0.0
H933 H 0.59576 0.38774 0.4751 0.0
C934 C 0.54689 0.32629 0.49494 0.0
C935 C 0.52294 0.29771 0.50639 0.0
C936 C 0.57847 0.37049 0.49767 0.0
C937 C 0.53035 0.31373 0.52064 0.0
C938 C 0.56244 0.3576 0.52349 0.0
C939 C 0.62044 0.42971 0.51486 0.0
C940 C 0.64525 0.4579 0.50338 0.0
C941 C 0.58697 0.38613 0.51209 0.0
C942 C 0.63511 0.44254 0.48906 0.0
C943 C 0.60214 0.39913 0.48623 0.0
H944 H 0.56649 0.18001 0.52976 0.0
H945 H 0.53977 0.15874 0.48394 0.0
H946 H 0.61663 0.17802 0.47948 0.0
H947 H 0.69274 0.20652 0.48844 0.0
H948 H 0.71869 0.22451 0.53434 0.0
H949 H 0.64075 0.20139 0.53897 0.0
C950 C 0.57735 0.17896 0.51882 0.0
C951 C 0.54761 0.16822 0.50718 0.0
C952 C 0.62153 0.19024 0.51635 0.0
C953 C 0.56194 0.16659 0.49308 0.0
C954 C 0.606 0.17807 0.49051 0.0
C955 C 0.68122 0.20534 0.49945 0.0
C956 C 0.71125 0.21783 0.51105 0.0
C957 C 0.6363 0.19099 0.50202 0.0
C958 C 0.696 0.21532 0.52528 0.0
C959 C 0.65154 0.20205 0.52791 0.0
H960 H 0.80963 0.46517 0.70803 0.0
H961 H 0.83177 0.45659 0.66246 0.0
H962 H 0.77553 0.47709 0.65647 0.0
H963 H 0.71746 0.49332 0.66439 0.0
H964 H 0.69783 0.50421 0.71009 0.0
H965 H 0.75666 0.48786 0.71585 0.0
C966 C 0.80221 0.4679 0.69677 0.0
C967 C 0.82417 0.45886 0.68566 0.0
C968 C 0.77064 0.48038 0.69348 0.0
C969 C 0.81496 0.46324 0.67115 0.0
C970 C 0.78291 0.47493 0.66776 0.0
C971 C 0.7264 0.49262 0.67561 0.0
C972 C 0.70303 0.49964 0.6868 0.0
C973 C 0.76019 0.48306 0.67885 0.0
C974 C 0.71533 0.4991 0.70127 0.0
C975 C 0.74874 0.48939 0.70458 0.0
H976 H 0.51587 0.22954 0.6646 0.0
H977 H 0.50805 0.2045 0.71065 0.0
H978 H 0.52624 0.28073 0.71542 0.0
H979 H 0.54854 0.35563 0.70651 0.0
H980 H 0.55321 0.3799 0.66052 0.0
H981 H 0.53257 0.30282 0.65568 0.0
C982 C 0.51767 0.24061 0.67569 0.0
C983 C 0.5108 0.2114 0.68726 0.0
C984 C 0.52821 0.28446 0.67834 0.0
C985 C 0.51288 0.22616 0.70155 0.0
C986 C 0.52368 0.26988 0.70428 0.0
C987 C 0.54506 0.34399 0.69543 0.0
C988 C 0.55289 0.37335 0.68385 0.0
C989 C 0.5322 0.2995 0.69277 0.0
C990 C 0.54755 0.35781 0.66957 0.0
C991 C 0.5357 0.31382 0.66682 0.0
H992 H 0.77975 0.29025 0.66753 0.0
H993 H 0.79723 0.31222 0.71369 0.0
H994 H 0.72119 0.25293 0.71781 0.0
H995 H 0.64868 0.19855 0.7082 0.0
H996 H 0.63123 0.17447 0.66219 0.0
H997 H 0.70868 0.23149 0.65803 0.0
C998 C 0.76704 0.28179 0.67851 0.0
C999 C 0.79389 0.30579 0.6903 0.0
C1000 C 0.72335 0.24782 0.68077 0.0
C1001 C 0.77725 0.29414 0.70445 0.0
C1002 C 0.7337 0.2605 0.7068 0.0
C1003 C 0.66188 0.20575 0.69726 0.0
C1004 C 0.63447 0.18297 0.68547 0.0
C1005 C 0.70628 0.2378 0.69503 0.0
C1006 C 0.65193 0.19192 0.67138 0.0
C1007 C 0.69606 0.2244 0.66903 0.0
H1008 H 0.49759 0.16027 0.20082 0.0
H1009 H 0.57398 0.19275 0.16131 0.0
H1010 H 0.55972 0.25384 0.15687 0.0
H1011 H 0.53059 0.3009 0.16508 0.0
H1012 H 0.45794 0.27202 0.20534 0.0
H1013 H 0.46552 0.20621 0.20859 0.0
C1014 C 0.5107 0.18042 0.19115 0.0
C1015 C 0.537 0.17214 0.18141 0.0
C1016 C 0.50332 0.2162 0.18888 0.0
C1017 C 0.5538 0.19855 0.16896 0.0
C1018 C 0.54574 0.23352 0.16645 0.0
C1019 C 0.51601 0.28019 0.17456 0.0
C1020 C 0.49386 0.2917 0.18501 0.0
C1021 C 0.52133 0.24314 0.17648 0.0
C1022 C 0.47519 0.26411 0.19714 0.0
C1023 C 0.47963 0.22653 0.19902 0.0
H1024 H 0.83932 0.36842 0.17298 0.0
H1025 H 0.78848 0.38698 0.21348 0.0
H1026 H 0.73387 0.30893 0.21446 0.0
H1027 H 0.69789 0.2359 0.20352 0.0
H1028 H 0.74235 0.21648 0.16202 0.0
H1029 H 0.80241 0.29372 0.16184 0.0
C1030 C 0.81624 0.35519 0.18197 0.0
C1031 C 0.81811 0.38339 0.19314 0.0
C1032 C 0.784 0.30997 0.18239 0.0
C1033 C 0.78789 0.366 0.20473 0.0
C1034 C 0.75662 0.32126 0.20536 0.0
C1035 C 0.72136 0.24836 0.1946 0.0
C1036 C 0.71628 0.22069 0.18292 0.0
C1037 C 0.75425 0.293 0.19426 0.0
C1038 C 0.74604 0.23738 0.1712 0.0
C1039 C 0.78011 0.28153 0.17105 0.0
H1040 H 0.77533 0.50252 0.16638 0.0
H1041 H 0.79956 0.5149 0.2125 0.0
H1042 H 0.72177 0.49106 0.217 0.0
H1043 H 0.64575 0.46021 0.20796 0.0
H1044 H 0.62129 0.44998 0.16194 0.0
H1045 H 0.70043 0.47893 0.15723 0.0
C1046 C 0.76378 0.50075 0.17741 0.0
C1047 C 0.7932 0.51015 0.18909 0.0
C1048 C 0.71888 0.48652 0.17993 0.0
C1049 C 0.77776 0.50806 0.20331 0.0
C1050 C 0.73313 0.49395 0.2059 0.0
C1051 C 0.65781 0.46433 0.1969 0.0
C1052 C 0.62795 0.45228 0.18528 0.0
C1053 C 0.70323 0.48187 0.19432 0.0
C1054 C 0.64389 0.45869 0.17101 0.0
C1055 C 0.68901 0.47532 0.16834 0.0
H1056 H 0.62119 0.17728 0.02881 0.0
H1057 H 0.60732 0.12478 0.98554 0.0
H1058 H 0.54538 0.13746 0.98105 0.0
H1059 H 0.50008 0.1698 0.98857 0.0
H1060 H 0.51409 0.22319 0.0316 0.0
H1061 H 0.57145 0.20389 0.03706 0.0
C1062 C 0.60433 0.16806 0.01844 0.0
C1063 C 0.61927 0.15053 1.00746 0.0
C1064 C 0.56923 0.17613 0.01585 0.0
C1065 C 0.59665 0.13839 0.99417 0.0
C1066 C 0.56139 0.14589 0.99156 0.0
C1067 C 0.51551 0.17692 0.99918 0.0
C1068 C 0.5035 0.19832 1.00963 0.0
C1069 C 0.54825 0.16581 1.00218 0.0
C1070 C 0.52315 0.20693 0.02339 0.0
C1071 C 0.55588 0.19594 0.02648 0.0
H1072 H 0.81638 0.30362 0.01792 0.0
H1073 H 0.7183 0.27204 0.98452 0.0
H1074 H 0.73892 0.34954 0.98246 0.0
H1075 H 0.78287 0.42641 0.9906 0.0
H1076 H 0.87678 0.45841 0.02524 0.0
H1077 H 0.86081 0.38149 0.02614 0.0
C1078 C 0.79951 0.31381 1.01026 0.0
C1079 C 0.76597 0.28207 1.00137 0.0
C1080 C 0.81137 0.3588 1.00916 0.0
C1081 C 0.74437 0.29577 0.99148 0.0
C1082 C 0.75622 0.34019 0.99023 0.0
C1083 C 0.80066 0.41666 0.99804 0.0
C1084 C 0.83173 0.448 1.00757 0.0
C1085 C 0.78971 0.37205 0.99897 0.0
C1086 C 0.85336 0.4348 0.0176 0.0
C1087 C 0.84386 0.39077 0.01822 0.0
H1088 H 0.55791 0.37294 0.03187 0.0
H1089 H 0.53022 0.36239 0.98595 0.0
H1090 H 0.60672 0.41913 0.98108 0.0
H1091 H 0.6825 0.46629 0.9896 0.0
H1092 H 0.71114 0.47909 0.03538 0.0
H1093 H 0.63282 0.42634 0.04062 0.0
C1094 C 0.56843 0.38346 0.0208 0.0
C1095 C 0.53846 0.36305 1.00926 0.0
C1096 C 0.61261 0.41584 0.01807 0.0
C1097 C 0.55249 0.3775 0.99502 0.0
C1098 C 0.59635 0.40968 0.99222 0.0
C1099 C 0.67163 0.45762 1.00075 0.0
C1100 C 0.70247 0.47572 1.01212 0.0
C1101 C 0.62686 0.42809 1.00361 0.0
C1102 C 0.68786 0.46514 0.02649 0.0
C1103 C 0.64322 0.43509 0.02946 0.0
H1104 H 0.45062 0.80573 0.81881 0.0
H1105 H 0.44861 0.82574 0.86485 0.0
H1106 H 0.47162 0.77075 0.86945 0.0
H1107 H 0.48886 0.71487 0.86031 0.0
H1108 H 0.49284 0.69662 0.81416 0.0
H1109 H 0.47376 0.75421 0.80965 0.0
C1110 C 0.45517 0.79797 0.82985 0.0
C1111 C 0.44736 0.81909 0.84152 0.0
C1112 C 0.46927 0.76718 0.83236 0.0
C1113 C 0.45415 0.8095 0.85574 0.0
C1114 C 0.46741 0.77825 0.85835 0.0
C1115 C 0.48616 0.72386 0.84925 0.0
C1116 C 0.49198 0.70119 0.83759 0.0
C1117 C 0.47473 0.75666 0.84673 0.0
C1118 C 0.48872 0.71359 0.82334 0.0
C1119 C 0.47738 0.74623 0.82074 0.0
H1120 H 0.19001 0.64936 0.82167 0.0
H1121 H 0.16755 0.63187 0.8678 0.0
H1122 H 0.22349 0.70965 0.8717 0.0
H1123 H 0.28113 0.78101 0.86202 0.0
H1124 H 0.30243 0.7989 0.81582 0.0
H1125 H 0.24341 0.72255 0.81186 0.0
C1126 C 0.19732 0.6626 0.83258 0.0
C1127 C 0.17521 0.63494 0.84448 0.0
C1128 C 0.22884 0.70734 0.83468 0.0
C1129 C 0.18442 0.65259 0.85852 0.0
C1130 C 0.21627 0.69698 0.86073 0.0
C1131 C 0.27251 0.76839 0.85105 0.0
C1132 C 0.29633 0.79549 0.83922 0.0
C1133 C 0.23896 0.72447 0.84889 0.0
C1134 C 0.28446 0.77885 0.82509 0.0
C1135 C 0.25103 0.73506 0.82284 0.0
H1136 H 0.3423 0.54503 0.81892 0.0
H1137 H 0.36918 0.54169 0.86438 0.0
H1138 H 0.29285 0.52202 0.87032 0.0
H1139 H 0.21965 0.50897 0.86256 0.0
H1140 H 0.19203 0.50913 0.81696 0.0
H1141 H 0.2673 0.5259 0.81105 0.0
C1142 C 0.33135 0.53992 0.83012 0.0
C1143 C 0.36123 0.54526 0.84124 0.0
C1144 C 0.28731 0.52772 0.83339 0.0
C1145 C 0.34664 0.53789 0.85568 0.0
C1146 C 0.30308 0.52664 0.85906 0.0
C1147 C 0.22995 0.5122 0.85132 0.0
C1148 C 0.20034 0.50805 0.84022 0.0
C1149 C 0.27325 0.52183 0.84801 0.0
C1150 C 0.21404 0.51192 0.8257 0.0
C1151 C 0.25721 0.52188 0.82232 0.0
H1152 H 0.52011 0.83815 0.03279 0.0
H1153 H 0.48327 0.7511 0.99589 0.0
H1154 H 0.42215 0.76466 0.99058 0.0
H1155 H 0.37624 0.79651 0.99746 0.0
H1156 H 0.40961 0.88007 0.03524 0.0
H1157 H 0.47547 0.873 0.03909 0.0
C1158 C 0.49891 0.82249 0.02352 0.0
C1159 C 0.50593 0.79342 0.01478 0.0
C1160 C 0.46324 0.82971 0.02073 0.0
C1161 C 0.47831 0.77337 1.0028 0.0
C1162 C 0.44339 0.78111 0.99978 0.0
C1163 C 0.39808 0.81374 1.00646 0.0
C1164 C 0.38776 0.83874 0.01608 0.0
C1165 C 0.43508 0.80855 1.00882 0.0
C1166 C 0.41662 0.8606 0.02767 0.0
C1167 C 0.45422 0.85642 0.02991 0.0
H1168 H 0.2316 0.68529 0.04239 0.0
H1169 H 0.21768 0.70399 0.99688 0.0
H1170 H 0.19436 0.62621 0.99224 0.0
H1171 H 0.18091 0.55403 1.00106 0.0
H1172 H 0.19153 0.53447 0.04678 0.0
H1173 H 0.21225 0.61142 0.0515 0.0
C1174 C 0.22343 0.67223 0.03147 0.0
C1175 C 0.22682 0.70012 0.01994 0.0
C1176 C 0.20914 0.62743 0.02897 0.0
C1177 C 0.21547 0.68292 1.00587 0.0
C1178 C 0.20212 0.63857 1.00324 0.0
C1179 C 0.18735 0.56652 1.01208 0.0
C1180 C 0.185 0.53878 0.02355 0.0
C1181 C 0.19918 0.61065 0.01469 0.0
C1182 C 0.19291 0.55515 0.03778 0.0
C1183 C 0.20511 0.59921 0.04047 0.0
H1184 H 0.32048 0.51986 0.04171 0.0
H1185 H 0.29725 0.49254 0.996 0.0
H1186 H 0.37523 0.54618 0.99092 0.0
H1187 H 0.44858 0.60345 0.99947 0.0
H1188 H 0.47158 0.62942 0.04533 0.0
H1189 H 0.39516 0.57261 0.05039 0.0
C1190 C 0.33249 0.52555 0.03062 0.0
C1191 C 0.30314 0.50273 0.0192 0.0
C1192 C 0.37731 0.55582 0.02785 0.0
C1193 C 0.31925 0.50994 1.00493 0.0
C1194 C 0.36378 0.54051 1.00205 0.0
C1195 C 0.43713 0.59636 1.0106 0.0
C1196 C 0.46586 0.62105 0.022 0.0
C1197 C 0.39296 0.56397 1.01343 0.0
C1198 C 0.45041 0.611 0.03635 0.0
C1199 C 0.40654 0.57873 0.03924 0.0
H1200 H 0.21336 0.53101 0.54209 0.0
H1201 H 0.20912 0.50503 0.49625 0.0
H1202 H 0.18081 0.55587 0.4916 0.0
H1203 H 0.16336 0.61176 0.50053 0.0
H1204 H 0.16789 0.6373 0.54648 0.0
H1205 H 0.18838 0.58087 0.5512 0.0
C1206 C 0.20618 0.53642 0.53107 0.0
C1207 C 0.21403 0.51516 0.51946 0.0
C1208 C 0.18946 0.565 0.52856 0.0
C1209 C 0.20371 0.52158 0.5053 0.0
C1210 C 0.18744 0.55043 0.50267 0.0
C1211 C 0.16806 0.6045 0.51161 0.0
C1212 C 0.16475 0.62923 0.52312 0.0
C1213 C 0.18091 0.57284 0.51421 0.0
C1214 C 0.17028 0.61889 0.53742 0.0
C1215 C 0.1825 0.58696 0.54011 0.0
H1216 H 0.47633 0.69391 0.54154 0.0
H1217 H 0.50735 0.70756 0.49591 0.0
H1218 H 0.45293 0.62923 0.49218 0.0
H1219 H 0.39409 0.55837 0.50177 0.0
H1220 H 0.36445 0.54446 0.54757 0.0
H1221 H 0.42187 0.62132 0.55145 0.0
C1222 C 0.47118 0.67968 0.53079 0.0
C1223 C 0.49524 0.70637 0.51896 0.0
C1224 C 0.44054 0.63463 0.52881 0.0
C1225 C 0.48891 0.68752 0.50513 0.0
C1226 C 0.45793 0.64283 0.50302 0.0
C1227 C 0.40054 0.57192 0.51264 0.0
C1228 C 0.37475 0.54573 0.52435 0.0
C1229 C 0.43327 0.61622 0.51477 0.0
C1230 C 0.38388 0.56375 0.53837 0.0
C1231 C 0.41644 0.60785 0.54058 0.0
H1232 H 0.43489 0.79107 0.49959 0.0
H1233 H 0.48985 0.8801 0.53592 0.0
H1234 H 0.41858 0.87637 0.53987 0.0
H1235 H 0.33973 0.84488 0.53377 0.0
H1236 H 0.28419 0.75316 0.49821 0.0
H1237 H 0.35689 0.76124 0.4931 0.0
C1238 C 0.43152 0.81 0.50832 0.0
C1239 C 0.46776 0.83579 0.51747 0.0
C1240 C 0.39031 0.80713 0.51067 0.0
C1241 C 0.46253 0.85986 0.52875 0.0
C1242 C 0.42177 0.85775 0.53101 0.0
C1243 C 0.34367 0.82696 0.52482 0.0
C1244 C 0.30673 0.79836 0.51639 0.0
C1245 C 0.38531 0.83108 0.52216 0.0
C1246 C 0.31218 0.77527 0.50486 0.0
C1247 C 0.35368 0.77983 0.50196 0.0
H1248 H 0.19739 0.54286 0.3217 0.0
H1249 H 0.17622 0.54576 0.36764 0.0
H1250 H 0.22784 0.51843 0.37249 0.0
H1251 H 0.28315 0.49959 0.36359 0.0
H1252 H 0.30241 0.49499 0.31754 0.0
H1253 H 0.24613 0.51587 0.31276 0.0
C1254 C 0.20398 0.53736 0.33278 0.0
C1255 C 0.18384 0.54702 0.34435 0.0
C1256 C 0.2329 0.52098 0.33542 0.0
C1257 C 0.19177 0.53885 0.35861 0.0
C1258 C 0.22116 0.52322 0.36136 0.0
C1259 C 0.27445 0.50238 0.35249 0.0
C1260 C 0.29722 0.49612 0.34093 0.0
C1261 C 0.24246 0.5149 0.34985 0.0
C1262 C 0.28529 0.49941 0.32663 0.0
C1263 C 0.25346 0.51183 0.3239 0.0
H1264 H 0.44768 0.64551 0.32123 0.0
H1265 H 0.45485 0.6277 0.36723 0.0
H1266 H 0.48035 0.70643 0.37118 0.0
H1267 H 0.49734 0.77902 0.36153 0.0
H1268 H 0.49253 0.79688 0.31537 0.0
H1269 H 0.47046 0.71922 0.31143 0.0
C1270 C 0.45473 0.65884 0.33213 0.0
C1271 C 0.44876 0.63094 0.34399 0.0
C1272 C 0.47025 0.70402 0.33423 0.0
C1273 C 0.45888 0.64868 0.358 0.0
C1274 C 0.47354 0.69357 0.36023 0.0
C1275 C 0.49193 0.76605 0.35058 0.0
C1276 C 0.49623 0.79356 0.33875 0.0
C1277 C 0.47899 0.72141 0.34842 0.0
C1278 C 0.48966 0.77647 0.32464 0.0
C1279 C 0.47662 0.73199 0.3224 0.0
H1280 H 0.24235 0.71084 0.3624 0.0
H1281 H 0.19655 0.72293 0.32 0.0
H1282 H 0.26829 0.78749 0.31489 0.0
H1283 H 0.34541 0.83673 0.32157 0.0
H1284 H 0.39291 0.82515 0.36359 0.0
H1285 H 0.31882 0.76422 0.36983 0.0
C1286 C 0.24785 0.72787 0.35211 0.0
C1287 C 0.21415 0.71169 0.34155 0.0
C1288 C 0.28949 0.76484 0.34914 0.0
C1289 C 0.2219 0.73433 0.32829 0.0
C1290 C 0.26297 0.77129 0.32533 0.0
C1291 C 0.33942 0.82112 0.33215 0.0
C1292 C 0.37435 0.83491 0.34208 0.0
C1293 C 0.29719 0.78618 0.33554 0.0
C1294 C 0.36631 0.81485 0.35579 0.0
C1295 C 0.32409 0.78001 0.35931 0.0
H1296 H 0.23072 0.36502 0.17084 0.0
H1297 H 0.2202 0.28662 0.20848 0.0
H1298 H 0.29987 0.31428 0.20776 0.0
H1299 H 0.37217 0.35604 0.19506 0.0
H1300 H 0.3815 0.43463 0.1576 0.0
H1301 H 0.30332 0.41179 0.15968 0.0
C1302 C 0.24586 0.35443 0.17903 0.0
C1303 C 0.21919 0.32347 0.18961 0.0
C1304 C 0.29176 0.37019 0.1785 0.0
C1305 C 0.2397 0.31042 0.20017 0.0
C1306 C 0.28538 0.32603 0.19973 0.0
C1307 C 0.35709 0.36842 0.18747 0.0
C1308 C 0.3826 0.39647 0.17606 0.0
C1309 C 0.31167 0.35514 0.18872 0.0
C1310 C 0.36264 0.4126 0.16639 0.0
C1311 C 0.31781 0.39958 0.16756 0.0
H1312 H 0.58295 0.95569 0.16629 0.0
H1313 H 0.66969 0.0557 0.19647 0.0
H1314 H 0.70392 0.01125 0.2028 0.0
H1315 H 0.71428 0.94725 0.19782 0.0
H1316 H 0.62652 0.84745 0.16762 0.0
H1317 H 0.58751 0.8881 0.16343 0.0
C1318 C 0.60897 0.96745 0.17438 0.0
C1319 C 0.62423 0.00912 0.18073 0.0
C1320 C 0.62857 0.9418 0.17793 0.0
C1321 C 0.65761 0.0238 0.19133 0.0
C1322 C 0.67727 0.99844 0.19494 0.0
C1323 C 0.68606 0.93396 0.19056 0.0
C1324 C 0.67386 0.8946 0.18292 0.0
C1325 C 0.66378 0.95784 0.18804 0.0
C1326 C 0.63714 0.87792 0.17354 0.0
C1327 C 0.61473 0.90119 0.17109 0.0
H1328 H 0.07427 0.77264 0.19621 0.0
H1329 H 0.15725 0.78278 0.15995 0.0
H1330 H 0.11238 0.70319 0.15583 0.0
H1331 H 0.04494 0.63208 0.16099 0.0
H1332 H 0.96006 0.62375 0.19637 0.0
H1333 H 0.01033 0.70104 0.20241 0.0
C1334 C 0.08318 0.75735 0.1876 0.0
C1335 C 0.11889 0.78365 0.17836 0.0
C1336 C 0.05647 0.71188 0.18501 0.0
C1337 C 0.12973 0.76329 0.16718 0.0
C1338 C 0.10397 0.71781 0.16476 0.0
C1339 C 0.03778 0.6472 0.17008 0.0
C1340 C 0.99891 0.6224 0.1782 0.0
C1341 C 0.06646 0.69201 0.17333 0.0
C1342 C 0.98992 0.64218 0.18999 0.0
C1343 C 0.01858 0.68642 0.19343 0.0
H1344 H 0.36879 0.23755 0.35788 0.0
H1345 H 0.2901 0.22903 0.32057 0.0
H1346 H 0.32135 0.30912 0.32076 0.0
H1347 H 0.36613 0.3812 0.33291 0.0
H1348 H 0.44553 0.38928 0.36994 0.0
H1349 H 0.41929 0.31024 0.36837 0.0
C1350 C 0.35883 0.25323 0.34969 0.0
C1351 C 0.32677 0.22711 0.33935 0.0
C1352 C 0.37689 0.29941 0.34985 0.0
C1353 C 0.31467 0.24817 0.3287 0.0
C1354 C 0.33239 0.29407 0.32883 0.0
C1355 C 0.37808 0.36569 0.34049 0.0
C1356 C 0.40721 0.39097 0.35164 0.0
C1357 C 0.36278 0.31996 0.33955 0.0
C1358 C 0.42277 0.37053 0.36132 0.0
C1359 C 0.40771 0.32524 0.36046 0.0
H1360 H 0.63116 0.05039 0.36633 0.0
H1361 H 0.6173 0.97076 0.32885 0.0
H1362 H 0.69585 0.01849 0.3231 0.0
H1363 H 0.77001 0.07722 0.33052 0.0
H1364 H 0.78347 0.15517 0.3685 0.0
H1365 H 0.70354 0.11414 0.37213 0.0
C1366 C 0.64523 0.0439 0.35679 0.0
C1367 C 0.61882 0.00681 0.34816 0.0
C1368 C 0.69043 0.07101 0.35369 0.0
C1369 C 0.63721 0.99896 0.33574 0.0
C1370 C 0.68211 0.02616 0.33247 0.0
C1371 C 0.7554 0.08586 0.33942 0.0
C1372 C 0.78283 0.11882 0.34934 0.0
C1373 C 0.70934 0.06148 0.34163 0.0
C1374 C 0.76325 0.12959 0.3608 0.0
C1375 C 0.71749 0.10608 0.36291 0.0
H1376 H 0.94877 0.71193 0.32972 0.0
H1377 H 0.85936 0.64132 0.36499 0.0
H1378 H 0.89989 0.6026 0.37006 0.0
H1379 H 0.96411 0.59295 0.36585 0.0
H1380 H 0.0543 0.66354 0.33089 0.0
H1381 H 0.00996 0.6977 0.32427 0.0
C1382 C 0.93773 0.68758 0.33837 0.0
C1383 C 0.90128 0.67996 0.34703 0.0
C1384 C 0.96158 0.66563 0.34138 0.0
C1385 C 0.88753 0.64828 0.35821 0.0
C1386 C 0.91073 0.62606 0.36116 0.0
C1387 C 0.97381 0.61554 0.35671 0.0
C1388 C 0.01258 0.62613 0.34897 0.0
C1389 C 0.94837 0.63521 0.35304 0.0
C1390 C 0.02464 0.65509 0.33706 0.0
C1391 C 0.99935 0.67468 0.33329 0.0
H1392 H 0.61598 0.64899 0.83379 0.0
H1393 H 0.60391 0.56064 0.86857 0.0
H1394 H 0.68282 0.58598 0.86722 0.0
H1395 H 0.75641 0.63794 0.85778 0.0
H1396 H 0.7696 0.72708 0.82309 0.0
H1397 H 0.68955 0.69653 0.8227 0.0
C1398 C 0.63065 0.63496 0.8409 0.0
C1399 C 0.60439 0.60356 0.8514 0.0
C1400 C 0.67641 0.65003 0.84018 0.0
C1401 C 0.62363 0.58535 0.86051 0.0
C1402 C 0.66879 0.5998 0.85977 0.0
C1403 C 0.74178 0.65038 0.85003 0.0
C1404 C 0.7691 0.68507 0.84063 0.0
C1405 C 0.69571 0.63294 0.84991 0.0
C1406 C 0.74945 0.70047 0.83053 0.0
C1407 C 0.70358 0.68313 0.83031 0.0
H1408 H 0.36595 0.12706 0.86164 0.0
H1409 H 0.29638 0.06806 0.82185 0.0
H1410 H 0.3281 0.0196 0.82132 0.0
H1411 H 0.36857 0.98775 0.8337 0.0
H1412 H 0.43934 0.0479 0.87317 0.0
H1413 H 0.41443 0.102 0.87221 0.0
C1414 C 0.35827 0.1041 0.85273 0.0
C1415 C 0.32829 0.10084 0.84195 0.0
C1416 C 0.37647 0.07604 0.8525 0.0
C1417 C 0.31918 0.07126 0.83037 0.0
C1418 C 0.33712 0.04324 0.83007 0.0
C1419 C 0.37912 0.01319 0.84193 0.0
C1420 C 0.40509 0.01336 0.85359 0.0
C1421 C 0.36471 0.04438 0.84132 0.0
C1422 C 0.41887 0.04673 0.86414 0.0
C1423 C 0.40461 0.07769 0.86363 0.0
H1424 H 0.87231 0.23683 0.85971 0.0
H1425 H 0.93675 0.23533 0.81991 0.0
H1426 H 0.9855 0.3153 0.82142 0.0
H1427 H 0.01435 0.38512 0.8352 0.0
H1428 H 0.9495 0.38581 0.87497 0.0
H1429 H 0.8966 0.30714 0.87226 0.0
C1430 C 0.89657 0.25398 0.85124 0.0
C1431 C 0.90092 0.22979 0.83978 0.0
C1432 C 0.9249 0.30002 0.85224 0.0
C1433 C 0.93255 0.25287 0.82889 0.0
C1434 C 0.96069 0.29871 0.82977 0.0
C1435 C 0.98833 0.36808 0.84317 0.0
C1436 C 0.98624 0.39119 0.85536 0.0
C1437 C 0.95789 0.32253 0.84157 0.0
C1438 C 0.95213 0.36875 0.86554 0.0
C1439 C 0.92181 0.32368 0.86402 0.0
H1440 H 0.63658 0.62067 0.69157 0.0
H1441 H 0.56627 0.61462 0.65235 0.0
H1442 H 0.59012 0.69306 0.65441 0.0
H1443 H 0.63687 0.76486 0.66593 0.0
H1444 H 0.70729 0.77157 0.70523 0.0
H1445 H 0.67674 0.69159 0.70472 0.0
C1446 C 0.62599 0.63644 0.68362 0.0
C1447 C 0.60025 0.61202 0.67173 0.0
C1448 C 0.63993 0.68181 0.68484 0.0
C1449 C 0.58652 0.6328 0.66154 0.0
C1450 C 0.60014 0.67771 0.66269 0.0
C1451 C 0.645 0.74882 0.67453 0.0
C1452 C 0.67481 0.77443 0.68549 0.0
C1453 C 0.62775 0.7028 0.67409 0.0
C1454 C 0.6846 0.75285 0.6966 0.0
C1455 C 0.66733 0.70703 0.69629 0.0
H1456 H 0.38707 0.02469 0.69315 0.0
H1457 H 0.39299 0.95767 0.65465 0.0
H1458 H 0.31497 0.9025 0.65734 0.0
H1459 H 0.24358 0.87761 0.66912 0.0
H1460 H 0.23645 0.94432 0.70754 0.0
H1461 H 0.31634 0.99457 0.70654 0.0
C1462 C 0.37129 0.99767 0.68548 0.0
C1463 C 0.39541 0.99563 0.67359 0.0
C1464 C 0.32616 0.96604 0.68703 0.0
C1465 C 0.37488 0.96025 0.6638 0.0
C1466 C 0.33026 0.92865 0.66531 0.0
C1467 C 0.25952 0.90275 0.67739 0.0
C1468 C 0.23393 0.90753 0.68824 0.0
C1469 C 0.30532 0.9319 0.67666 0.0
C1470 C 0.25528 0.93994 0.699 0.0
C1471 C 0.30099 0.96893 0.6984 0.0
H1472 H 0.05278 0.42714 0.6666 0.0
H1473 H 0.95684 0.34803 0.69919 0.0
H1474 H 1.00224 0.31562 0.70629 0.0
H1475 H 0.06538 0.30407 0.70146 0.0
H1476 H 0.16102 0.38325 0.6687 0.0
H1477 H 0.12008 0.42163 0.66366 0.0
C1478 C 0.04213 0.40315 0.67536 0.0
C1479 C 1.00139 0.38962 0.68224 0.0
C1480 C 0.06832 0.38451 0.67935 0.0
C1481 C 0.98809 0.35889 0.69368 0.0
C1482 C 0.01398 0.34024 0.69773 0.0
C1483 C 0.07781 0.33037 0.69344 0.0
C1484 C 0.11594 0.34026 0.68536 0.0
C1485 C 0.05367 0.35202 0.69041 0.0
C1486 C 0.13151 0.37452 0.675 0.0
C1487 C 0.10802 0.39647 0.67205 0.0
H1488 H 0.91322 0.70462 0.50001 0.0
H1489 H 0.90155 0.62909 0.53858 0.0
H1490 H 0.98179 0.66228 0.53966 0.0
H1491 H 0.05496 0.70655 0.52813 0.0
H1492 H 0.06641 0.78203 0.48963 0.0
H1493 H 0.98704 0.75559 0.49019 0.0
C1494 C 0.9282 0.69584 0.50877 0.0
C1495 C 0.90114 0.66391 0.51906 0.0
C1496 C 0.97453 0.71486 0.50931 0.0
C1497 C 0.92135 0.6534 0.53044 0.0
C1498 C 0.96737 0.67225 0.53106 0.0
C1499 C 0.04014 0.71774 0.52002 0.0
C1500 C 0.06638 0.74559 0.50873 0.0
C1501 C 0.99424 0.70209 0.52032 0.0
C1502 C 0.04684 0.76019 0.49836 0.0
C1503 C 1.00138 0.74499 0.49864 0.0
H1504 H 0.37544 0.27522 0.53142 0.0
H1505 H 0.30443 0.19056 0.49537 0.0
H1506 H 0.26494 0.23104 0.49166 0.0
H1507 H 0.25563 0.29472 0.49705 0.0
H1508 H 0.32678 0.38053 0.53274 0.0
H1509 H 0.36071 0.33521 0.53828 0.0
C1510 C 0.35076 0.26514 0.52292 0.0
C1511 C 0.34338 0.2302 0.51359 0.0
C1512 C 0.32845 0.28906 0.52068 0.0
C1513 C 0.31125 0.21763 0.50262 0.0
C1514 C 0.2886 0.2408 0.50046 0.0
C1515 C 0.27822 0.3032 0.50613 0.0
C1516 C 0.28917 0.34114 0.51435 0.0
C1517 C 0.29782 0.27729 0.50916 0.0
C1518 C 0.31808 0.35157 0.52619 0.0
C1519 C 0.33756 0.32573 0.52934 0.0
H1520 H 0.65092 0.9535 0.52556 0.0
H1521 H 0.71979 0.951 0.487 0.0
H1522 H 0.77481 0.02879 0.49033 0.0
H1523 H 0.79991 0.09887 0.50298 0.0
H1524 H 0.7315 0.10232 0.54156 0.0
H1525 H 0.68058 0.02279 0.53963 0.0
C1526 C 0.67827 0.96993 0.518 0.0
C1527 C 0.68099 0.94672 0.50596 0.0
C1528 C 0.70994 0.01486 0.51998 0.0
C1529 C 0.71672 0.96828 0.49629 0.0
C1530 C 0.74825 0.01278 0.49818 0.0
C1531 C 0.77426 0.08222 0.5111 0.0
C1532 C 0.76935 0.10677 0.5223 0.0
C1533 C 0.74469 0.03662 0.50982 0.0
C1534 C 0.73612 0.08439 0.53279 0.0
C1535 C 0.70672 0.03887 0.53165 0.0
H1536 H 0.03798 0.71797 0.66873 0.0
H1537 H 0.11049 0.72557 0.70758 0.0
H1538 H 0.087 0.64724 0.70572 0.0
H1539 H 0.03946 0.57494 0.69463 0.0
H1540 H 0.96697 0.56666 0.65568 0.0
H1541 H 0.99743 0.64657 0.65588 0.0
C1542 C 0.04905 0.70251 0.67665 0.0
C1543 C 0.07519 0.72728 0.68841 0.0
C1544 C 0.03529 0.65717 0.67556 0.0
C1545 C 0.08982 0.70705 0.69851 0.0
C1546 C 0.0764 0.6622 0.69748 0.0
C1547 C 0.03086 0.59064 0.68605 0.0
C1548 C 1.00044 0.56461 0.67531 0.0
C1549 C 0.04813 0.63665 0.68628 0.0
C1550 C 0.99012 0.58571 0.66417 0.0
C1551 C 0.00734 0.63151 0.66429 0.0
H1552 H 0.28789 0.31427 0.66881 0.0
H1553 H 0.28333 0.38335 0.70693 0.0
H1554 H 0.36065 0.43977 0.70336 0.0
H1555 H 0.4312 0.46547 0.69085 0.0
H1556 H 0.4367 0.39639 0.6528 0.0
H1557 H 0.35726 0.34486 0.65468 0.0
C1558 C 0.30374 0.34201 0.67619 0.0
C1559 C 0.2802 0.34436 0.68821 0.0
C1560 C 0.34838 0.37439 0.6741 0.0
C1561 C 0.30095 0.38057 0.69768 0.0
C1562 C 0.34516 0.41289 0.69565 0.0
C1563 C 0.415 0.43962 0.68281 0.0
C1564 C 0.44013 0.43455 0.67183 0.0
C1565 C 0.36948 0.40957 0.6841 0.0
C1566 C 0.41833 0.40104 0.66144 0.0
C1567 C 0.37286 0.37129 0.66255 0.0
H1568 H 0.62112 0.91087 0.69276 0.0
H1569 H 0.71864 0.99201 0.66087 0.0
H1570 H 0.67402 0.02574 0.65411 0.0
H1571 H 0.61101 0.03769 0.65918 0.0
H1572 H 0.51361 0.95552 0.69108 0.0
H1573 H 0.55394 0.91636 0.69569 0.0
C1574 C 0.6323 0.93558 0.68422 0.0
C1575 C 0.67335 0.94947 0.67749 0.0
C1576 C 0.60651 0.95479 0.68039 0.0
C1577 C 0.68725 0.98104 0.66629 0.0
C1578 C 0.66178 1.00039 0.66244 0.0
C1579 C 0.59808 0.01057 0.66689 0.0
C1580 C 0.55961 1.00009 0.67489 0.0
C1581 C 0.62184 0.98832 0.66967 0.0
C1582 C 0.54338 0.96476 0.68486 0.0
C1583 C 0.56652 0.94233 0.68756 0.0
H1584 H 0.30328 0.92187 0.19478 0.0
H1585 H 0.28976 0.99952 0.1608 0.0
H1586 H 0.36842 0.03167 0.15477 0.0
H1587 H 0.44231 0.04277 0.16077 0.0
H1588 H 0.45543 0.96622 0.1953 0.0
H1589 H 0.37561 0.92817 0.19935 0.0
C1590 C 0.31749 0.94552 0.18596 0.0
C1591 C 0.29103 0.9588 0.17837 0.0
C1592 C 0.3627 0.96412 0.18267 0.0
C1593 C 0.30965 0.9891 0.16688 0.0
C1594 C 0.3546 0.00749 0.16344 0.0
C1595 C 0.42762 0.01713 0.16898 0.0
C1596 C 0.45494 0.0076 0.17778 0.0
C1597 C 0.38167 0.99597 0.17148 0.0
C1598 C 0.4353 0.97445 0.18843 0.0
C1599 C 0.38962 0.95273 0.1908 0.0
H1600 H 0.96602 0.40346 0.1641 0.0
H1601 H 0.03843 0.49155 0.19928 0.0
H1602 H 0.07569 0.44943 0.20416 0.0
H1603 H 0.08269 0.38344 0.2 0.0
H1604 H 0.01082 0.29541 0.16484 0.0
H1605 H 0.97882 0.34167 0.15836 0.0
C1606 C 0.99048 0.41391 0.17267 0.0
C1607 C 0.99891 0.45042 0.18138 0.0
C1608 C 0.01167 0.38922 0.17555 0.0
C1609 C 0.0309 0.46346 0.19243 0.0
C1610 C 0.05223 0.43927 0.19529 0.0
C1611 C 0.0604 0.37471 0.19083 0.0
C1612 C 0.04869 0.3358 0.18304 0.0
C1613 C 0.04202 0.40143 0.18717 0.0
C1614 C 0.02014 0.32508 0.17108 0.0
C1615 C 1.00174 0.35148 0.16738 0.0
H1616 H 0.54533 0.57255 0.19606 0.0
H1617 H 0.59912 0.56116 0.15516 0.0
H1618 H 0.64983 0.64061 0.15474 0.0
H1619 H 0.68357 0.7131 0.16694 0.0
H1620 H 0.62836 0.72478 0.20744 0.0
H1621 H 0.57386 0.64611 0.20698 0.0
C1622 C 0.56775 0.58748 0.18697 0.0
C1623 C 0.56853 0.5606 0.17577 0.0
C1624 C 0.59706 0.6335 0.18675 0.0
C1625 C 0.59768 0.58078 0.16401 0.0
C1626 C 0.62698 0.62637 0.16375 0.0
C1627 C 0.65926 0.69844 0.17556 0.0
C1628 C 0.66045 0.72462 0.18729 0.0
C1629 C 0.62768 0.65299 0.17521 0.0
C1630 C 0.62847 0.70529 0.19833 0.0
C1631 C 0.59724 0.66021 0.1981 0.0
H1632 H 0.32118 0.94821 0.02506 0.0
H1633 H 0.24304 0.9395 0.98758 0.0
H1634 H 0.26466 0.01721 0.99 0.0
H1635 H 0.30959 0.08888 1.00163 0.0
H1636 H 0.38808 0.09871 0.03917 0.0
H1637 H 0.36203 0.0196 0.03797 0.0
C1638 C 0.30875 0.96339 0.01751 0.0
C1639 C 0.28112 0.93839 1.00605 0.0
C1640 C 0.32135 0.00836 0.01895 0.0
C1641 C 0.26478 0.9582 0.99642 0.0
C1642 C 0.27707 0.00267 0.99779 0.0
C1643 C 0.32067 0.07372 1.00966 0.0
C1644 C 0.35102 0.09992 0.02038 0.0
C1645 C 0.30593 0.02827 1.00885 0.0
C1646 C 0.36472 0.07947 0.03076 0.0
C1647 C 0.35002 0.03417 0.03005 0.0
H1648 H 0.04073 0.28365 0.99548 0.0
H1649 H 0.05616 0.37223 0.0304 0.0
H1650 H 0.9771 0.32817 0.03599 0.0
H1651 H 0.90239 0.26756 0.0297 0.0
H1652 H 0.88765 0.17955 0.99456 0.0
H1653 H 0.96729 0.21997 0.99043 0.0
C1654 C 0.02682 0.29303 1.0044 0.0
C1655 C 0.05418 0.33125 1.01245 0.0
C1656 C 0.98127 0.26772 1.00748 0.0
C1657 C 0.03579 0.3429 0.02404 0.0
C1658 C 0.99052 0.3178 0.0272 0.0
C1659 C 0.91663 0.25684 0.02127 0.0
C1660 C 0.88878 0.22069 1.0124 0.0
C1661 C 0.96274 0.28056 0.01883 0.0
C1662 C 0.90802 0.20735 1.00153 0.0
C1663 C 0.9537 0.23053 0.99911 0.0
H1664 H 0.80007 0.69014 1.00093 0.0
H1665 H 0.73882 0.62156 0.04072 0.0
H1666 H 0.68956 0.6527 0.04035 0.0
H1667 H 0.65837 0.69321 0.02728 0.0
H1668 H 0.7206 0.76195 0.98762 0.0
H1669 H 0.77478 0.7372 0.98945 0.0
C1670 C 0.77645 0.6825 1.00966 0.0
C1671 C 0.77301 0.65313 0.02075 0.0
C1672 C 0.74787 0.70022 1.00932 0.0
C1673 C 0.74236 0.64403 0.03202 0.0
C1674 C 0.71386 0.66162 0.03178 0.0
C1675 C 0.68419 0.70322 0.01916 0.0
C1676 C 0.685 0.72885 1.00722 0.0
C1677 C 0.71545 0.68877 0.02026 0.0
C1678 C 0.71892 0.74191 0.99686 0.0
C1679 C 0.74995 0.72771 0.99787 0.0
H1680 H 0.71447 0.03063 0.85894 0.0
H1681 H 0.71933 0.10882 0.82192 0.0
H1682 H 0.64073 0.08412 0.82475 0.0
H1683 H 0.56929 0.03472 0.83614 0.0
H1684 H 0.56337 0.95552 0.87303 0.0
H1685 H 0.64363 0.98682 0.87202 0.0
C1686 C 0.69837 0.04265 0.85163 0.0
C1687 C 0.72248 0.07095 0.84011 0.0
C1688 C 0.65291 0.02803 0.85326 0.0
C1689 C 0.70138 0.08663 0.83078 0.0
C1690 C 0.65639 0.0725 0.83238 0.0
C1691 C 0.58553 0.02469 0.8441 0.0
C1692 C 0.56013 0.99237 0.85452 0.0
C1693 C 0.63159 0.04232 0.84334 0.0
C1694 C 0.58197 0.98024 0.86485 0.0
C1695 C 0.62792 0.99794 0.86423 0.0
H1696 H 0.96491 0.68696 0.86116 0.0
H1697 H 0.89348 0.62033 0.82247 0.0
H1698 H 0.91583 0.56449 0.8256 0.0
H1699 H 0.96098 0.53858 0.83807 0.0
H1700 H 0.03303 0.60553 0.87671 0.0
H1701 H 0.00396 0.65636 0.87509 0.0
C1702 C 0.95358 0.65977 0.85357 0.0
C1703 C 0.9278 0.65793 0.84155 0.0
C1704 C 0.96664 0.62779 0.85542 0.0
C1705 C 0.91357 0.62264 0.83176 0.0
C1706 C 0.92634 0.59068 0.83354 0.0
C1707 C 0.9698 0.56377 0.8463 0.0
C1708 C 0.99958 0.56837 0.85742 0.0
C1709 C 0.95364 0.59347 0.84516 0.0
C1710 C 0.01033 0.60117 0.868 0.0
C1711 C 0.99394 0.63052 0.86704 0.0
H1712 H 0.3795 0.28896 0.83328 0.0
H1713 H 0.28397 0.27315 0.86592 0.0
H1714 H 0.3284 0.35139 0.87229 0.0
H1715 H 0.38974 0.42588 0.86649 0.0
H1716 H 0.48493 0.44102 0.83369 0.0
H1717 H 0.44577 0.36149 0.82969 0.0
C1718 C 0.36878 0.3026 0.84191 0.0
C1719 C 0.32828 0.27577 0.84893 0.0
C1720 C 0.39433 0.34754 0.84546 0.0
C1721 C 0.31492 0.29345 0.86025 0.0
C1722 C 0.34025 0.33817 0.86389 0.0
C1723 C 0.40243 0.4117 0.85869 0.0
C1724 C 0.43974 0.4395 0.85023 0.0
C1725 C 0.37936 0.36582 0.85626 0.0
C1726 C 0.45592 0.42051 0.84023 0.0
C1727 C 0.43348 0.37496 0.83788 0.0
H1728 H 0.70037 0.89573 0.02279 0.0
H1729 H 0.61766 0.88435 0.98631 0.0
H1730 H 0.64473 0.96384 0.9872 0.0
H1731 H 0.687 0.03566 0.99977 0.0
H1732 H 0.76881 0.04605 0.03636 0.0
H1733 H 0.74692 0.96803 0.034 0.0
C1734 C 0.68862 0.91061 0.01489 0.0
C1735 C 0.65674 0.88383 1.00456 0.0
C1736 C 0.7038 0.95624 0.0156 0.0
C1737 C 0.64221 0.90399 0.99438 0.0
C1738 C 0.65747 0.9495 0.99494 0.0
C1739 C 0.70032 0.02088 1.00712 0.0
C1740 C 0.7291 0.04647 0.01832 0.0
C1741 C 0.68746 0.97579 1.00572 0.0
C1742 C 0.74633 0.02698 0.02772 0.0
C1743 C 0.73383 0.98235 0.02638 0.0
H1744 H 0.96356 0.70684 0.02962 0.0
H1745 H 0.94628 0.61978 0.99399 0.0
H1746 H 0.02544 0.66302 0.98842 0.0
H1747 H 0.10067 0.72136 0.99516 0.0
H1748 H 0.11746 0.80706 0.03126 0.0
H1749 H 0.03763 0.76879 0.03506 0.0
C1750 C 0.97703 0.69769 0.02051 0.0
C1751 C 0.94921 0.65994 1.01232 0.0
C1752 C 0.02266 0.72227 0.01752 0.0
C1753 C 0.96707 0.64862 1.00051 0.0
C1754 C 0.01238 0.67324 0.99735 0.0
C1755 C 0.08686 0.73209 1.00373 0.0
C1756 C 0.11527 0.7668 1.013 0.0
C1757 C 0.04071 0.7095 1.00601 0.0
C1758 C 0.09661 0.78021 0.02403 0.0
C1759 C 0.05084 0.75831 0.02624 0.0
H1760 H 0.20127 0.28967 0.02665 0.0
H1761 H 0.26584 0.36158 0.98763 0.0
H1762 H 0.31565 0.33127 0.98826 0.0
H1763 H 0.34687 0.29136 1.00155 0.0
H1764 H 0.28194 0.21981 0.04054 0.0
H1765 H 0.22644 0.24265 0.03817 0.0
C1766 C 0.22568 0.29814 0.01813 0.0
C1767 C 0.23006 0.32841 1.00725 0.0
C1768 C 0.25472 0.28105 0.01863 0.0
C1769 C 0.26172 0.33858 0.99622 0.0
C1770 C 0.29051 0.32144 0.99659 0.0
C1771 C 0.32019 0.28033 1.00939 0.0
C1772 C 0.31899 0.25463 0.02133 0.0
C1773 C 0.28829 0.2938 1.00801 0.0
C1774 C 0.28394 0.24008 0.03133 0.0
C1775 C 0.25215 0.25316 0.03 0.0
H1776 H 0.10379 0.30528 0.52827 0.0
H1777 H 0.10917 0.37634 0.48922 0.0
H1778 H 0.02922 0.34664 0.49039 0.0
H1779 H 0.95873 0.30659 0.50395 0.0
H1780 H 0.9543 0.23641 0.54307 0.0
H1781 H 0.03257 0.25953 0.54038 0.0
C1782 C 0.08747 0.31374 0.51986 0.0
C1783 C 0.11272 0.34344 0.50877 0.0
C1784 C 0.04153 0.29713 0.52071 0.0
C1785 C 0.09074 0.35372 0.49794 0.0
C1786 C 0.04494 0.33694 0.49863 0.0
C1787 C 0.97489 0.29605 0.51178 0.0
C1788 C 0.95095 0.27042 0.52381 0.0
C1789 C 0.02017 0.30965 0.51021 0.0
C1790 C 0.97211 0.25655 0.5338 0.0
C1791 C 0.01691 0.26975 0.53227 0.0
H1792 H 0.64464 0.73282 0.49248 0.0
H1793 H 0.71748 0.82258 0.52727 0.0
H1794 H 0.75619 0.78188 0.53204 0.0
H1795 H 0.76341 0.71611 0.52825 0.0
H1796 H 0.69121 0.62592 0.49361 0.0
H1797 H 0.65869 0.67162 0.48679 0.0
C1798 C 0.66959 0.74401 0.50092 0.0
C1799 C 0.67756 0.78042 0.50962 0.0
C1800 C 0.69157 0.72004 0.50376 0.0
C1801 C 0.71019 0.79445 0.52047 0.0
C1802 C 0.73236 0.77109 0.52326 0.0
C1803 C 0.741 0.70681 0.51909 0.0
C1804 C 0.72915 0.66742 0.51159 0.0
C1805 C 0.72232 0.73307 0.51529 0.0
C1806 C 0.70054 0.65597 0.49963 0.0
C1807 C 0.68185 0.68203 0.49575 0.0
H1808 H 0.21315 0.90983 0.52345 0.0
H1809 H 0.28891 0.89457 0.48917 0.0
H1810 H 0.33983 0.9742 0.48892 0.0
H1811 H 0.36737 0.04747 0.50023 0.0
H1812 H 0.29124 0.06171 0.53458 0.0
H1813 H 0.23601 0.98356 0.5329 0.0
C1814 C 0.24045 0.92394 0.51579 0.0
C1815 C 0.24743 0.89618 0.50649 0.0
C1816 C 0.26991 0.96971 0.51579 0.0
C1817 C 0.28273 0.91512 0.49651 0.0
C1818 C 0.31209 0.96072 0.49639 0.0
C1819 C 0.33837 0.03346 0.50719 0.0
C1820 C 0.33374 0.06001 0.51767 0.0
C1821 C 0.30671 0.98821 0.50625 0.0
C1822 C 0.29583 0.04172 0.52654 0.0
C1823 C 0.2642 0.99701 0.52561 0.0
H1824 H 0.03859 0.43596 0.36764 0.0
H1825 H 0.96187 0.45057 0.33352 0.0
H1826 H 0.92483 0.37125 0.32883 0.0
H1827 H 0.92006 0.29901 0.33264 0.0
H1828 H 0.99805 0.28494 0.36637 0.0
H1829 H 0.02854 0.36254 0.37301 0.0
C1830 C 0.01314 0.42172 0.35938 0.0
C1831 C 0.00342 0.44932 0.35086 0.0
C1832 C 0.9926 0.37615 0.35651 0.0
C1833 C 0.97029 0.43019 0.34019 0.0
C1834 C 0.94919 0.3848 0.33744 0.0
C1835 C 0.94341 0.31292 0.34152 0.0
C1836 C 0.95728 0.28659 0.34887 0.0
C1837 C 0.96109 0.35769 0.34522 0.0
C1838 C 0.9872 0.30476 0.36046 0.0
C1839 C 0.00465 0.34911 0.36427 0.0
H1840 H 0.71765 0.69864 0.3591 0.0
H1841 H 0.72847 0.62298 0.32395 0.0
H1842 H 0.65057 0.56786 0.32643 0.0
H1843 H 0.57773 0.54421 0.33696 0.0
H1844 H 0.56531 0.61777 0.37241 0.0
H1845 H 0.64506 0.66987 0.37159 0.0
C1846 C 0.70296 0.6698 0.35213 0.0
C1847 C 0.72869 0.66538 0.3412 0.0
C1848 C 0.65769 0.63778 0.35361 0.0
C1849 C 0.70935 0.62756 0.33234 0.0
C1850 C 0.6647 0.5959 0.33373 0.0
C1851 C 0.59253 0.5713 0.34464 0.0
C1852 C 0.5655 0.57724 0.35463 0.0
C1853 C 0.6383 0.60118 0.34407 0.0
C1854 C 0.58534 0.61228 0.36461 0.0
C1855 C 0.63097 0.64234 0.36409 0.0
H1856 H 0.31923 0.0275 0.35856 0.0
H1857 H 0.38718 0.10582 0.32095 0.0
H1858 H 0.4428 0.08308 0.32287 0.0
H1859 H 0.46811 0.03538 0.33372 0.0
H1860 H 0.40074 0.95694 0.37142 0.0
H1861 H 0.34972 0.98577 0.37109 0.0
C1862 C 0.34655 0.03994 0.35092 0.0
C1863 C 0.34867 0.06764 0.3395 0.0
C1864 C 0.37854 0.02658 0.35205 0.0
C1865 C 0.38449 0.08398 0.32975 0.0
C1866 C 0.41636 0.07099 0.33082 0.0
C1867 C 0.44268 0.02501 0.34199 0.0
C1868 C 0.43809 0.99362 0.35245 0.0
C1869 C 0.41309 0.04141 0.34169 0.0
C1870 C 0.40514 0.98099 0.36318 0.0
C1871 C 0.37566 0.99728 0.36298 0.0
H1872 H 0.19488 0.35463 0.07774 0.0
H1873 H 0.0691 0.34728 0.07025 0.0
H1874 H 0.0461 0.32124 0.09513 0.0
H1875 H 0.06209 0.3006 0.11917 0.0
H1876 H 0.18714 0.3056 0.12602 0.0
H1877 H 0.21014 0.33263 0.10135 0.0
C1878 C 0.16241 0.34723 0.08156 0.0
C1879 C 0.13375 0.35289 0.07222 0.0
C1880 C 0.14935 0.33198 0.09581 0.0
C1881 C 0.09171 0.34307 0.07727 0.0
C1882 C 0.07859 0.32829 0.0915 0.0
C1883 C 0.09438 0.30779 0.11524 0.0
C1884 C 0.12295 0.3013 0.12439 0.0
C1885 C 0.10718 0.32271 0.10089 0.0
C1886 C 0.16456 0.31034 0.11916 0.0
C1887 C 0.17776 0.32578 0.10505 0.0
H1888 H 0.59246 0.73425 0.08099 0.0
H1889 H 0.7202 0.8013 0.06006 0.0
H1890 H 0.75701 0.81816 0.08365 0.0
H1891 H 0.75284 0.81703 0.11035 0.0
H1892 H 0.62514 0.74801 0.13126 0.0
H1893 H 0.58847 0.72846 0.10766 0.0
C1894 C 0.62834 0.7523 0.08162 0.0
C1895 C 0.65357 0.76682 0.06883 0.0
C1896 C 0.64932 0.7616 0.09524 0.0
C1897 C 0.70004 0.78986 0.06977 0.0
C1898 C 0.72113 0.79959 0.08326 0.0
C1899 C 0.71702 0.79738 0.10971 0.0
C1900 C 0.69173 0.78422 0.12252 0.0
C1901 C 0.69612 0.78609 0.09608 0.0
C1902 C 0.64535 0.75859 0.12155 0.0
C1903 C 0.62433 0.7475 0.10806 0.0
H1904 H 0.24744 0.88668 0.12347 0.0
H1905 H 0.16871 0.94306 0.1086 0.0
H1906 H 0.18266 0.9319 0.0834 0.0
H1907 H 0.21426 0.9025 0.06554 0.0
H1908 H 0.29027 0.84328 0.0806 0.0
H1909 H 0.28067 0.8593 0.10567 0.0
C1910 C 0.23367 0.89683 0.1147 0.0
C1911 C 0.20707 0.9156 0.11787 0.0
C1912 C 0.24125 0.88964 0.10024 0.0
C1913 C 0.18925 0.92845 0.10642 0.0
C1914 C 0.19718 0.92204 0.092 0.0
C1915 C 0.22902 0.89353 0.07432 0.0
C1916 C 0.25289 0.87173 0.07124 0.0
C1917 C 0.22269 0.90216 0.08877 0.0
C1918 C 0.27166 0.86003 0.08271 0.0
C1919 C 0.26615 0.86912 0.09706 0.0
H1920 H 0.31258 0.10738 0.4569 0.0
H1921 H 0.44929 0.16288 0.44419 0.0
H1922 H 0.42785 0.15154 0.41865 0.0
H1923 H 0.37018 0.12821 0.39968 0.0
H1924 H 0.23379 0.07489 0.41254 0.0
H1925 H 0.25497 0.08288 0.43803 0.0
C1926 C 0.33757 0.11664 0.44853 0.0
C1927 C 0.38243 0.1359 0.45245 0.0
C1928 C 0.32505 0.11061 0.4338 0.0
C1929 C 0.41449 0.14798 0.44147 0.0
C1930 C 0.40227 0.14157 0.42683 0.0
C1931 C 0.34517 0.11819 0.40808 0.0
C1932 C 0.3005 0.10106 0.40419 0.0
C1933 C 0.35766 0.12331 0.42283 0.0
C1934 C 0.26846 0.0883 0.41521 0.0
C1935 C 0.28052 0.09283 0.42983 0.0
H1936 H 0.93446 0.17985 0.42004 0.0
H1937 H 0.88762 0.26053 0.39974 0.0
H1938 H 0.86988 0.27872 0.4235 0.0
H1939 H 0.86401 0.26838 0.44997 0.0
H1940 H 0.91236 0.18907 0.47034 0.0
H1941 H 0.93338 0.17372 0.44665 0.0
C1942 C 0.92072 0.20171 0.42085 0.0
C1943 C 0.91205 0.21862 0.4082 0.0
C1944 C 0.91068 0.21204 0.43455 0.0
C1945 C 0.8945 0.24709 0.40935 0.0
C1946 C 0.88424 0.25738 0.42293 0.0
C1947 C 0.87939 0.24795 0.44921 0.0
C1948 C 0.88633 0.22954 0.46182 0.0
C1949 C 0.89158 0.23952 0.43558 0.0
C1950 C 0.90661 0.20348 0.46074 0.0
C1951 C 0.91855 0.19464 0.44721 0.0
H1952 H 0.76928 0.64687 0.39983 0.0
H1953 H 0.81901 0.7815 0.4137 0.0
H1954 H 0.81081 0.75814 0.43909 0.0
H1955 H 0.79412 0.69984 0.45738 0.0
H1956 H 0.74568 0.56559 0.44322 0.0
H1957 H 0.74872 0.58827 0.41801 0.0
C1958 C 0.77773 0.67096 0.40842 0.0
C1959 C 0.79479 0.71581 0.40491 0.0
C1960 C 0.7736 0.65739 0.42297 0.0
C1961 C 0.80576 0.74673 0.41614 0.0
C1962 C 0.80128 0.73343 0.43066 0.0
C1963 C 0.78403 0.67562 0.44876 0.0
C1964 C 0.77004 0.6312 0.45214 0.0
C1965 C 0.78603 0.68895 0.43422 0.0
C1966 C 0.75682 0.60005 0.44089 0.0
C1967 C 0.75852 0.61297 0.42646 0.0
H1968 H 0.82581 0.68417 0.90915 0.0
H1969 H 0.94525 0.67832 0.90211 0.0
H1970 H 0.93877 0.64687 0.92636 0.0
H1971 H 0.89931 0.62172 0.94984 0.0
H1972 H 0.77797 0.62458 0.9562 0.0
H1973 H 0.78494 0.65634 0.93207 0.0
C1974 C 0.85034 0.67591 0.91293 0.0
C1975 C 0.88605 0.68375 0.9039 0.0
C1976 C 0.84607 0.65731 0.92681 0.0
C1977 C 0.91744 0.6726 0.90888 0.0
C1978 C 0.91379 0.65468 0.92276 0.0
C1979 C 0.87445 0.62929 0.9459 0.0
C1980 C 0.83828 0.62097 0.95481 0.0
C1981 C 0.87832 0.64702 0.93186 0.0
C1982 C 0.80612 0.63064 0.94955 0.0
C1983 C 0.81009 0.64887 0.93575 0.0
H1984 H 0.34896 0.23965 0.90504 0.0
H1985 H 0.22754 0.12089 0.91613 0.0
H1986 H 0.24726 0.13232 0.94176 0.0
H1987 H 0.30039 0.17432 0.96104 0.0
H1988 H 0.42335 0.29133 0.95002 0.0
H1989 H 0.40163 0.28272 0.9245 0.0
C1990 C 0.32686 0.21644 0.9131 0.0
C1991 C 0.28698 0.17943 0.9087 0.0
C1992 C 0.33865 0.22296 0.92787 0.0
C1993 C 0.25857 0.14957 0.91924 0.0
C1994 C 0.26976 0.15609 0.93391 0.0
C1995 C 0.32213 0.19817 0.95306 0.0
C1996 C 0.36331 0.23342 0.95739 0.0
C1997 C 0.30986 0.19245 0.93836 0.0
C1998 C 0.39141 0.26389 0.94693 0.0
C1999 C 0.37909 0.25893 0.93233 0.0
H2000 H 0.75279 0.0552 0.90619 0.0
H2001 H 0.87069 0.18316 0.90233 0.0
H2002 H 0.86087 0.2014 0.92701 0.0
H2003 H 0.8196 0.18131 0.94974 0.0
H2004 H 0.70313 0.05297 0.95458 0.0
H2005 H 0.71153 0.03436 0.92955 0.0
C2006 C 0.77612 0.08705 0.91079 0.0
C2007 C 0.81234 0.11785 0.90246 0.0
C2008 C 0.77064 0.09717 0.92516 0.0
C2009 C 0.84258 0.15889 0.90854 0.0
C2010 C 0.83702 0.16939 0.92265 0.0
C2011 C 0.79603 0.14923 0.94532 0.0
C2012 C 0.76077 0.11858 0.95392 0.0
C2013 C 0.80133 0.13879 0.93107 0.0
C2014 C 0.7306 0.07708 0.94811 0.0
C2015 C 0.73537 0.0665 0.93381 0.0
H2016 H 0.65149 0.81403 0.57269 0.0
H2017 H 0.64631 0.9349 0.56977 0.0
H2018 H 0.67472 0.95424 0.59459 0.0
H2019 H 0.70059 0.936 0.61723 0.0
H2020 H 0.70728 0.81571 0.61939 0.0
H2021 H 0.67862 0.79681 0.59477 0.0
C2022 C 0.65661 0.84464 0.57749 0.0
C2023 C 0.64674 0.87296 0.56951 0.0
C2024 C 0.67314 0.85554 0.59163 0.0
C2025 C 0.65373 0.91261 0.57577 0.0
C2026 C 0.66988 0.92361 0.58994 0.0
C2027 C 0.69569 0.90569 0.61227 0.0
C2028 C 0.70585 0.87719 0.62008 0.0
C2029 C 0.67959 0.89522 0.598 0.0
C2030 C 0.69967 0.83814 0.61357 0.0
C2031 C 0.68329 0.82729 0.59949 0.0
H2032 H 0.11377 0.80614 0.57044 0.0
H2033 H 0.18688 0.74084 0.58222 0.0
H2034 H 0.17557 0.74922 0.60793 0.0
H2035 H 0.14659 0.77729 0.62729 0.0
H2036 H 0.0753 0.84434 0.61526 0.0
H2037 H 0.08403 0.83309 0.58966 0.0
C2038 C 0.127 0.79355 0.57864 0.0
C2039 C 0.15113 0.77291 0.57439 0.0
C2040 C 0.12078 0.79894 0.59345 0.0
C2041 C 0.1682 0.75692 0.58517 0.0
C2042 C 0.16178 0.76172 0.59991 0.0
C2043 C 0.13283 0.78919 0.61905 0.0
C2044 C 0.11037 0.81167 0.62322 0.0
C2045 C 0.13839 0.783 0.60421 0.0
C2046 C 0.09284 0.82703 0.61238 0.0
C2047 C 0.09781 0.82061 0.5977 0.0
H2048 H 0.2727 0.36277 0.57686 0.0
H2049 H 0.15119 0.3672 0.57402 0.0
H2050 H 0.13181 0.33909 0.59872 0.0
H2051 H 0.14918 0.31358 0.62116 0.0
H2052 H 0.27119 0.31059 0.62476 0.0
H2053 H 0.29081 0.33799 0.59981 0.0
C2054 C 0.24198 0.3574 0.58168 0.0
C2055 C 0.21333 0.36689 0.57365 0.0
C2056 C 0.23124 0.34169 0.59603 0.0
C2057 C 0.17376 0.36013 0.58 0.0
C2058 C 0.16264 0.34408 0.59413 0.0
C2059 C 0.1801 0.31898 0.61648 0.0
C2060 C 0.20868 0.31005 0.62472 0.0
C2061 C 0.19113 0.33486 0.60224 0.0
C2062 C 0.2487 0.31731 0.61859 0.0
C2063 C 0.25985 0.33287 0.60433 0.0
H2064 H 0.95903 0.49803 0.74649 0.0
H2065 H 0.98935 0.39404 0.73856 0.0
H2066 H 0.01476 0.39921 0.76362 0.0
H2067 H 0.02906 0.43419 0.78781 0.0
H2068 H 1.00082 0.53994 0.79514 0.0
H2069 H 0.9736 0.53303 0.77037 0.0
C2070 C 0.97124 0.47654 0.75026 0.0
C2071 C 0.97238 0.44575 0.74075 0.0
C2072 C 0.98599 0.47992 0.7646 0.0
C2073 C 0.98831 0.41811 0.74572 0.0
C2074 C 1.00273 0.42099 0.76004 0.0
C2075 C 0.01665 0.45543 0.78397 0.0
C2076 C 0.01677 0.48741 0.79325 0.0
C2077 C 1.00174 0.4518 0.76959 0.0
C2078 C 1.00103 0.51507 0.78816 0.0
C2079 C 0.98552 0.5112 0.774 0.0
H2080 H 0.50079 0.47367 0.74056 0.0
H2081 H 0.61303 0.60398 0.73399 0.0
H2082 H 0.60593 0.62429 0.75887 0.0
H2083 H 0.5674 0.60459 0.78268 0.0
H2084 H 0.45416 0.47435 0.78861 0.0
H2085 H 0.46216 0.45441 0.76393 0.0
C2086 C 0.52364 0.50655 0.74456 0.0
C2087 C 0.55737 0.53727 0.73546 0.0
C2088 C 0.51925 0.51796 0.75883 0.0
C2089 C 0.58672 0.57976 0.74079 0.0
C2090 C 0.58272 0.59135 0.75503 0.0
C2091 C 0.54466 0.57185 0.77855 0.0
C2092 C 0.51031 0.54095 0.78748 0.0
C2093 C 0.54913 0.56067 0.76419 0.0
C2094 C 0.48088 0.49874 0.78196 0.0
C2095 C 0.48538 0.48728 0.76783 0.0
H2096 H 0.42947 0.03673 0.7428 0.0
H2097 H 0.53973 0.01502 0.73567 0.0
H2098 H 0.53298 0.98709 0.76031 0.0
H2099 H 0.49649 0.9692 0.78404 0.0
H2100 H 0.38721 0.99179 0.79184 0.0
H2101 H 0.39289 0.01909 0.76697 0.0
C2102 C 0.45178 0.02566 0.74666 0.0
C2103 C 0.48498 0.02787 0.73739 0.0
C2104 C 0.44808 0.00999 0.76102 0.0
C2105 C 0.51389 0.0137 0.74257 0.0
C2106 C 0.51012 0.99773 0.75668 0.0
C2107 C 0.47398 0.9802 0.78031 0.0
C2108 C 0.44153 0.97851 0.78976 0.0
C2109 C 0.47751 0.99589 0.76603 0.0
C2110 C 0.41258 0.99286 0.78477 0.0
C2111 C 0.41576 0.00838 0.77053 0.0
H2112 H 0.56967 0.99398 0.23532 0.0
H2113 H 0.60789 0.12665 0.24876 0.0
H2114 H 0.59604 0.10296 0.27418 0.0
H2115 H 0.57042 0.04314 0.29254 0.0
H2116 H 0.5297 0.91017 0.27865 0.0
H2117 H 0.54705 0.93526 0.25356 0.0
C2118 C 0.57581 0.01779 0.24382 0.0
C2119 C 0.58956 0.06197 0.24017 0.0
C2120 C 0.56823 0.00376 0.25837 0.0
C2121 C 0.59727 0.09243 0.2513 0.0
C2122 C 0.59039 0.07887 0.26584 0.0
C2123 C 0.56579 0.01984 0.28402 0.0
C2124 C 0.54869 0.97484 0.28744 0.0
C2125 C 0.57523 0.03444 0.2695 0.0
C2126 C 0.54268 0.94495 0.27629 0.0
C2127 C 0.55256 0.95926 0.26193 0.0
H2128 H 0.04138 0.61726 0.28637 0.0
H2129 H 0.03737 0.49166 0.28933 0.0
H2130 H 0.00526 0.47192 0.26516 0.0
H2131 H 0.97768 0.48966 0.24334 0.0
H2132 H 0.9834 0.61572 0.23944 0.0
H2133 H 0.01563 0.6362 0.2638 0.0
C2134 C 0.03348 0.58567 0.28166 0.0
C2135 C 0.04154 0.55587 0.28958 0.0
C2136 C 0.01538 0.57466 0.26764 0.0
C2137 C 0.03146 0.51513 0.28341 0.0
C2138 C 0.01305 0.50377 0.2696 0.0
C2139 C 0.98599 0.52164 0.24782 0.0
C2140 C 0.97804 0.55108 0.23972 0.0
C2141 C 0.00478 0.53318 0.26166 0.0
C2142 C 0.98926 0.59254 0.24555 0.0
C2143 C 0.0076 0.60419 0.25946 0.0
H2144 H 0.45607 0.48519 0.23598 0.0
H2145 H 0.48417 0.38169 0.24751 0.0
H2146 H 0.47416 0.39177 0.27317 0.0
H2147 H 0.45926 0.43153 0.29253 0.0
H2148 H 0.43465 0.53738 0.28096 0.0
H2149 H 0.44147 0.52504 0.25529 0.0
C2150 C 0.45965 0.46468 0.24412 0.0
C2151 C 0.47066 0.43267 0.23987 0.0
C2152 C 0.45473 0.47129 0.25891 0.0
C2153 C 0.47566 0.40657 0.25053 0.0
C2154 C 0.47 0.41235 0.26521 0.0
C2155 C 0.45537 0.45179 0.28436 0.0
C2156 C 0.44653 0.48532 0.28864 0.0
C2157 C 0.45989 0.44486 0.26956 0.0
C2158 C 0.44165 0.51143 0.27795 0.0
C2159 C 0.44546 0.50436 0.26325 0.0
H2160 H 0.02587 0.19347 0.29527 0.0
H2161 H 0.88809 0.1154 0.28357 0.0
H2162 H 0.90842 0.12453 0.25781 0.0
H2163 H 0.96554 0.15875 0.23857 0.0
H2164 H 0.1031 0.23668 0.25067 0.0
H2165 H 0.08278 0.22351 0.27629 0.0
C2166 C 1.00028 0.1781 0.28709 0.0
C2167 C 0.9555 0.15396 0.29131 0.0
C2168 C 0.01224 0.18373 0.27236 0.0
C2169 C 0.92277 0.1341 0.28059 0.0
C2170 C 0.93441 0.13948 0.26586 0.0
C2171 C 0.99103 0.1725 0.24683 0.0
C2172 C 0.03578 0.19888 0.24273 0.0
C2173 C 0.97903 0.16483 0.2616 0.0
C2174 C 0.06846 0.21637 0.25354 0.0
C2175 C 0.05685 0.20891 0.2682 0.0
H2176 H 0.83332 0.85233 0.29013 0.0
H2177 H 0.88623 0.76939 0.27668 0.0
H2178 H 0.8761 0.78248 0.25119 0.0
H2179 H 0.84568 0.81205 0.23296 0.0
H2180 H 0.79547 0.8973 0.24641 0.0
H2181 H 0.81144 0.88922 0.27176 0.0
C2182 C 0.84316 0.83761 0.28159 0.0
C2183 C 0.86001 0.80954 0.2852 0.0
C2184 C 0.83747 0.84554 0.26703 0.0
C2185 C 0.87319 0.79108 0.27411 0.0
C2186 C 0.86717 0.79839 0.25957 0.0
C2187 C 0.83878 0.82928 0.24145 0.0
C2188 C 0.81895 0.8548 0.23792 0.0
C2189 C 0.84835 0.8247 0.25593 0.0
C2190 C 0.81066 0.87745 0.24892 0.0
C2191 C 0.8196 0.87266 0.26339 0.0
H2192 H 0.17686 0.97127 0.28991 0.0
H2193 H 0.21602 0.10492 0.27711 0.0
H2194 H 0.201 0.08184 0.2517 0.0
H2195 H 0.18109 0.02444 0.233 0.0
H2196 H 0.14104 0.89062 0.24587 0.0
H2197 H 0.15165 0.9128 0.27139 0.0
C2198 C 0.18175 0.99526 0.28156 0.0
C2199 C 0.19783 0.03983 0.28535 0.0
C2200 C 0.17299 0.98169 0.267 0.0
C2201 C 0.20371 0.07047 0.27446 0.0
C2202 C 0.19524 0.05728 0.25993 0.0
C2203 C 0.17427 1.00006 0.24141 0.0
C2204 C 0.16055 0.95597 0.23757 0.0
C2205 C 0.18052 0.01312 0.25605 0.0
C2206 C 0.15162 0.92471 0.24856 0.0
C2207 C 0.15785 0.93744 0.26314 0.0
H2208 H 0.02461 0.85374 0.79411 0.0
H2209 H 0.88986 0.77288 0.77951 0.0
H2210 H 0.91516 0.78413 0.75432 0.0
H2211 H 0.97601 0.81233 0.73659 0.0
H2212 H 0.11081 0.89401 0.75094 0.0
H2213 H 0.08518 0.88732 0.77607 0.0
C2214 C 1.00077 0.83908 0.78538 0.0
C2215 C 0.95542 0.81229 0.78866 0.0
C2216 C 0.01564 0.84557 0.77091 0.0
C2217 C 0.9249 0.79361 0.77727 0.0
C2218 C 0.93938 0.79988 0.76287 0.0
C2219 C 0.99974 0.82898 0.74521 0.0
C2220 C 0.04527 0.85331 0.74196 0.0
C2221 C 0.98472 0.82504 0.75958 0.0
C2222 C 0.07562 0.87505 0.7532 0.0
C2223 C 0.06096 0.87111 0.76756 0.0
H2224 H 0.18548 0.16108 0.73686 0.0
H2225 H 0.11283 0.22512 0.75056 0.0
H2226 H 0.1229 0.21143 0.776 0.0
H2227 H 0.15715 0.18587 0.79432 0.0
H2228 H 0.22896 0.12112 0.78039 0.0
H2229 H 0.21434 0.13029 0.75505 0.0
C2230 C 0.17142 0.17162 0.74542 0.0
C2231 C 0.14869 0.19435 0.74187 0.0
C2232 C 0.17751 0.16375 0.75996 0.0
C2233 C 0.13042 0.20755 0.75304 0.0
C2234 C 0.13638 0.1999 0.76757 0.0
C2235 C 0.16925 0.17344 0.78572 0.0
C2236 C 0.19443 0.15316 0.78919 0.0
C2237 C 0.1606 0.17878 0.77116 0.0
C2238 C 0.20961 0.13691 0.77798 0.0
C2239 C 0.20133 0.14224 0.76349 0.0
H2240 H 0.79848 0.97697 0.78993 0.0
H2241 H 0.89333 0.10966 0.7765 0.0
H2242 H 0.88682 0.08467 0.75131 0.0
H2243 H 0.85043 0.02556 0.73298 0.0
H2244 H 0.75558 0.89318 0.7468 0.0
H2245 H 0.76604 0.91746 0.77203 0.0
C2246 C 0.81795 1.00039 0.7815 0.0
C2247 C 0.84606 0.04514 0.78499 0.0
C2248 C 0.81393 0.9858 0.76714 0.0
C2249 C 0.87139 0.07507 0.77402 0.0
C2250 C 0.86758 0.06078 0.75964 0.0
C2251 C 0.83245 0.00201 0.74155 0.0
C2252 C 0.80209 0.9577 0.73807 0.0
C2253 C 0.83844 0.01632 0.75605 0.0
C2254 C 0.77904 0.92745 0.74924 0.0
C2255 C 0.78492 0.94134 0.76365 0.0
H2256 H 0.69598 0.5185 0.62399 0.0
H2257 H 0.5598 0.45023 0.60992 0.0
H2258 H 0.58394 0.46073 0.58457 0.0
H2259 H 0.64393 0.49417 0.56643 0.0
H2260 H 0.78008 0.56089 0.58053 0.0
H2261 H 0.75592 0.54598 0.60585 0.0
C2262 C 0.67162 0.5055 0.61536 0.0
C2263 C 0.62618 0.48392 0.61878 0.0
C2264 C 0.68579 0.51165 0.60084 0.0
C2265 C 0.59494 0.46695 0.60754 0.0
C2266 C 0.60875 0.47313 0.59305 0.0
C2267 C 0.66827 0.50506 0.57506 0.0
C2268 C 0.71372 0.52895 0.57165 0.0
C2269 C 0.65408 0.49617 0.58957 0.0
C2270 C 0.74493 0.54253 0.5829 0.0
C2271 C 0.73111 0.53412 0.59737 0.0
H2272 H 0.48876 0.18113 0.62455 0.0
H2273 H 0.5587 0.11401 0.61115 0.0
H2274 H 0.5489 0.12729 0.58569 0.0
H2275 H 0.51595 0.15351 0.56721 0.0
H2276 H 0.44809 0.22276 0.5805 0.0
H2277 H 0.46181 0.21352 0.606 0.0
C2278 C 0.50228 0.16985 0.61604 0.0
C2279 C 0.52418 0.14631 0.61973 0.0
C2280 C 0.49667 0.17783 0.60141 0.0
C2281 C 0.54176 0.13218 0.60861 0.0
C2282 C 0.53599 0.13963 0.59404 0.0
C2283 C 0.50456 0.16698 0.57569 0.0
C2284 C 0.48071 0.18852 0.57198 0.0
C2285 C 0.51283 0.16172 0.59031 0.0
C2286 C 0.4665 0.2061 0.58307 0.0
C2287 C 0.4742 0.20063 0.59765 0.0
H2288 H 0.82239 0.31201 0.6285 0.0
H2289 H 0.90519 0.44667 0.61406 0.0
H2290 H 0.89106 0.4224 0.5888 0.0
H2291 H 0.86006 0.36237 0.57099 0.0
H2292 H 0.77768 0.22747 0.5852 0.0
H2293 H 0.78627 0.25231 0.61045 0.0
C2294 C 0.83691 0.33604 0.61981 0.0
C2295 C 0.86508 0.38101 0.62309 0.0
C2296 C 0.82885 0.32176 0.60532 0.0
C2297 C 0.88352 0.41189 0.61177 0.0
C2298 C 0.87554 0.39801 0.59734 0.0
C2299 C 0.84359 0.33845 0.57961 0.0
C2300 C 0.81858 0.29315 0.57631 0.0
C2301 C 0.84901 0.35296 0.59402 0.0
C2302 C 0.79714 0.26251 0.58752 0.0
C2303 C 0.80221 0.27671 0.60193 0.0
H2304 H 0.64687 0.15641 0.06697 0.0
H2305 H 0.7821 0.2014 0.07948 0.0
H2306 H 0.75997 0.18867 0.10502 0.0
H2307 H 0.70142 0.16038 0.12366 0.0
H2308 H 0.56648 0.11735 0.11135 0.0
H2309 H 0.58912 0.13365 0.08587 0.0
C2310 C 0.67157 0.16393 0.07531 0.0
C2311 C 0.71609 0.17967 0.07133 0.0
C2312 C 0.65853 0.15647 0.08998 0.0
C2313 C 0.74771 0.18938 0.08225 0.0
C2314 C 0.735 0.18186 0.09685 0.0
C2315 C 0.677 0.15478 0.11539 0.0
C2316 C 0.63222 0.13724 0.11935 0.0
C2317 C 0.6904 0.16468 0.10082 0.0
C2318 C 0.60107 0.13068 0.10857 0.0
C2319 C 0.61403 0.13995 0.094 0.0
H2320 H 0.92211 0.50964 0.11479 0.0
H2321 H 0.78775 0.45781 0.12957 0.0
H2322 H 0.76644 0.47205 0.10566 0.0
H2323 H 0.78742 0.50319 0.08066 0.0
H2324 H 0.92295 0.55591 0.06674 0.0
H2325 H 0.94224 0.53774 0.09007 0.0
C2326 C 0.88801 0.50088 0.11273 0.0
C2327 C 0.85657 0.48256 0.12391 0.0
C2328 C 0.87627 0.50992 0.09908 0.0
C2329 C 0.81257 0.4717 0.12109 0.0
C2330 C 0.80044 0.48013 0.10744 0.0
C2331 C 0.82108 0.51061 0.08278 0.0
C2332 C 0.85371 0.53115 0.07196 0.0
C2333 C 0.8322 0.49995 0.09638 0.0
C2334 C 0.89716 0.54032 0.07485 0.0
C2335 C 0.90831 0.52985 0.08821 0.0
H2336 H 0.48374 0.30739 0.12746 0.0
H2337 H 0.53924 0.44207 0.11251 0.0
H2338 H 0.53082 0.41708 0.08733 0.0
H2339 H 0.50218 0.35634 0.06968 0.0
H2340 H 0.44765 0.22171 0.08455 0.0
H2341 H 0.46162 0.24724 0.10974 0.0
C2342 C 0.49437 0.33127 0.11867 0.0
C2343 C 0.51162 0.37642 0.12175 0.0
C2344 C 0.48946 0.31662 0.10427 0.0
C2345 C 0.52575 0.40715 0.11035 0.0
C2346 C 0.52082 0.39285 0.09597 0.0
C2347 C 0.49381 0.33266 0.07845 0.0
C2348 C 0.47352 0.28721 0.07535 0.0
C2349 C 0.50188 0.3476 0.09283 0.0
C2350 C 0.46324 0.25684 0.08673 0.0
C2351 C 0.47104 0.27143 0.1011 0.0
H2352 H 0.39037 0.83137 0.91332 0.0
H2353 H 0.30052 0.87401 0.89777 0.0
H2354 H 0.25813 0.84921 0.92006 0.0
H2355 H 0.24841 0.81966 0.94456 0.0
H2356 H 0.33734 0.77744 0.96102 0.0
H2357 H 0.37736 0.79674 0.93787 0.0
C2358 C 0.36146 0.83503 0.91485 0.0
C2359 C 0.34899 0.85494 0.90392 0.0
C2360 C 0.33673 0.82048 0.92786 0.0
C2361 C 0.31118 0.85912 0.90601 0.0
C2362 C 0.28669 0.84483 0.91877 0.0
C2363 C 0.27606 0.81393 0.943 0.0
C2364 C 0.28985 0.79716 0.95446 0.0
C2365 C 0.29936 0.82594 0.92983 0.0
C2366 C 0.32589 0.7901 0.9523 0.0
C2367 C 0.34904 0.80151 0.9391 0.0
H2368 H 0.15528 0.50985 0.96101 0.0
H2369 H 0.20924 0.4293 0.94592 0.0
H2370 H 0.19749 0.4435 0.92077 0.0
H2371 H 0.16726 0.47474 0.90314 0.0
H2372 H 0.11345 0.55548 0.91815 0.0
H2373 H 0.12999 0.5456 0.94325 0.0
C2374 C 0.16489 0.4958 0.9522 0.0
C2375 C 0.18288 0.46835 0.9553 0.0
C2376 C 0.15783 0.50398 0.93777 0.0
C2377 C 0.19532 0.4505 0.9438 0.0
C2378 C 0.18846 0.4585 0.92942 0.0
C2379 C 0.15954 0.4905 0.91191 0.0
C2380 C 0.1389 0.51557 0.90883 0.0
C2381 C 0.16904 0.48455 0.92629 0.0
C2382 C 0.1293 0.536 0.92026 0.0
C2383 C 0.13863 0.53024 0.93461 0.0
H2384 H 0.49019 0.57543 0.91412 0.0
H2385 H 0.45558 0.6703 0.89785 0.0
H2386 H 0.4748 0.70855 0.92127 0.0
H2387 H 0.50661 0.71774 0.94608 0.0
H2388 H 0.54184 0.62225 0.96152 0.0
H2389 H 0.51752 0.58194 0.93885 0.0
C2390 C 0.4862 0.60408 0.91576 0.0
C2391 C 0.47147 0.61997 0.90429 0.0
C2392 C 0.49806 0.62626 0.92912 0.0
C2393 C 0.46665 0.65727 0.90656 0.0
C2394 C 0.47796 0.67934 0.91992 0.0
C2395 C 0.50874 0.68804 0.94445 0.0
C2396 C 0.52639 0.67332 0.95546 0.0
C2397 C 0.49459 0.66467 0.93123 0.0
C2398 C 0.5287 0.63458 0.95323 0.0
C2399 C 0.51469 0.61133 0.94025 0.0
H2400 H 0.26402 0.41742 0.44751 0.0
H2401 H 0.3486 0.54953 0.46346 0.0
H2402 H 0.38685 0.57149 0.44 0.0
H2403 H 0.39825 0.55159 0.41502 0.0
H2404 H 0.31254 0.41836 0.39989 0.0
H2405 H 0.27318 0.39853 0.42284 0.0
C2406 C 0.2905 0.45116 0.44581 0.0
C2407 C 0.30341 0.48178 0.45717 0.0
C2408 C 0.31257 0.46329 0.43241 0.0
C2409 C 0.3379 0.52537 0.45482 0.0
C2410 C 0.35995 0.53787 0.44144 0.0
C2411 C 0.37097 0.51833 0.4168 0.0
C2412 C 0.35861 0.48649 0.40577 0.0
C2413 C 0.348 0.5069 0.43017 0.0
C2414 C 0.32296 0.44354 0.40819 0.0
C2415 C 0.30025 0.43206 0.42133 0.0
H2416 H 0.53297 0.83015 0.40055 0.0
H2417 H 0.45201 0.88489 0.41457 0.0
H2418 H 0.4583 0.86635 0.43974 0.0
H2419 H 0.49175 0.84002 0.45786 0.0
H2420 H 0.57241 0.78488 0.44393 0.0
H2421 H 0.56081 0.79748 0.41856 0.0
C2422 C 0.51638 0.83763 0.40912 0.0
C2423 C 0.49244 0.85927 0.40577 0.0
C2424 C 0.52015 0.82683 0.42354 0.0
C2425 C 0.47073 0.86839 0.41691 0.0
C2426 C 0.47441 0.85787 0.43129 0.0
C2427 C 0.50629 0.83021 0.44925 0.0
C2428 C 0.53317 0.81185 0.45272 0.0
C2429 C 0.49973 0.83788 0.43475 0.0
C2430 C 0.5516 0.79904 0.4415 0.0
C2431 C 0.54516 0.80648 0.42701 0.0
H2432 H 0.12219 0.64173 0.45945 0.0
H2433 H 0.24409 0.75989 0.44841 0.0
H2434 H 0.23888 0.733 0.42353 0.0
H2435 H 0.19678 0.67756 0.40453 0.0
H2436 H 0.07469 0.55993 0.41598 0.0
H2437 H 0.08311 0.58459 0.44111 0.0
C2438 C 0.14776 0.66151 0.45162 0.0
C2439 C 0.18326 0.7029 0.4557 0.0
C2440 C 0.14449 0.64583 0.43741 0.0
C2441 C 0.21636 0.72799 0.44549 0.0
C2442 C 0.21335 0.71262 0.43127 0.0
C2443 C 0.17243 0.65709 0.4126 0.0
C2444 C 0.13508 0.61701 0.40841 0.0
C2445 C 0.17721 0.67182 0.42705 0.0
C2446 C 0.10368 0.59088 0.41893 0.0
C2447 C 0.10838 0.60506 0.4333 0.0
loop_
_geom_bond_atom_site_label_1
_geom_bond_atom_site_label_2
_geom_bond_distance
_geom_bond_site_symmetry_2
_ccdc_geom_bond_type
Dy0 O4 2.398 . S
Dy0 O5 2.491 . S
Dy0 O6 2.403 . S
Dy0 O7 2.664 . S
Dy0 O11 2.326 . S
Dy0 O15 2.310 . S
Dy0 O16 2.351 . S
C1 O12 1.185 . S
C1 O13 1.355 . S
C2 O4 1.185 . S
C2 O5 1.355 . S
Dy3 O7 2.310 . S
Dy3 O10 2.351 . S
Dy3 O12 2.398 . S
Dy3 O13 2.491 . S
Dy3 O14 2.403 . S
Dy3 O15 2.664 . S
Dy3 O17 2.326 . S
O4 Dy0 2.398 . S
O4 C2 1.185 . S
O5 Dy0 2.491 . S
O5 C2 1.355 . S
O6 Dy0 2.403 . S
O6 C8 1.254 . S
O7 Dy0 2.664 . S
O7 Dy3 2.310 . S
O7 C8 1.268 . S
C8 O6 1.254 . S
C8 O7 1.268 . S
C9 O14 1.254 . S
C9 O15 1.268 . S
O10 Dy3 2.351 . S
O10 C18 1.249 . S
O11 Dy0 2.326 . S
O11 C18 1.267 . S
O12 C1 1.185 . S
O12 Dy3 2.398 . S
O13 C1 1.355 . S
O13 Dy3 2.491 . S
O14 Dy3 2.403 . S
O14 C9 1.254 . S
O15 Dy0 2.310 . S
O15 Dy3 2.664 . S
O15 C9 1.268 . S
O16 Dy0 2.351 . S
O16 C19 1.249 . S
O17 Dy3 2.326 . S
O17 C19 1.267 . S
C18 O10 1.249 . S
C18 O11 1.267 . S
C19 O16 1.249 . S
C19 O17 1.267 . S
Dy20 O24 2.398 . S
Dy20 O25 2.491 . S
Dy20 O26 2.403 . S
Dy20 O27 2.664 . S
Dy20 O31 2.326 . S
Dy20 O35 2.310 . S
Dy20 O36 2.351 . S
C21 O32 1.185 . S
C21 O33 1.355 . S
C22 O24 1.185 . S
C22 O25 1.355 . S
Dy23 O27 2.310 . S
Dy23 O30 2.351 . S
Dy23 O32 2.398 . S
Dy23 O33 2.491 . S
Dy23 O34 2.403 . S
Dy23 O35 2.664 . S
Dy23 O37 2.326 . S
O24 Dy20 2.398 . S
O24 C22 1.185 . S
O25 Dy20 2.491 . S
O25 C22 1.355 . S
O26 Dy20 2.403 . S
O26 C28 1.254 . S
O27 Dy20 2.664 . S
O27 Dy23 2.310 . S
O27 C28 1.268 . S
C28 O26 1.254 . S
C28 O27 1.268 . S
C29 O34 1.254 . S
C29 O35 1.268 . S
O30 Dy23 2.351 . S
O30 C38 1.249 . S
O31 Dy20 2.326 . S
O31 C38 1.267 . S
O32 C21 1.185 . S
O32 Dy23 2.398 . S
O33 C21 1.355 . S
O33 Dy23 2.491 . S
O34 Dy23 2.403 . S
O34 C29 1.254 . S
O35 Dy20 2.310 . S
O35 Dy23 2.664 . S
O35 C29 1.268 . S
O36 Dy20 2.351 . S
O36 C39 1.249 . S
O37 Dy23 2.326 . S
O37 C39 1.267 . S
C38 O30 1.249 . S
C38 O31 1.267 . S
C39 O36 1.249 . S
C39 O37 1.267 . S
Dy40 O44 2.398 . S
Dy40 O45 2.491 . S
Dy40 O46 2.403 . S
Dy40 O47 2.664 . S
Dy40 O51 2.326 . S
Dy40 O55 2.310 . S
Dy40 O56 2.351 . S
C41 O52 1.185 . S
C41 O53 1.355 . S
C42 O44 1.185 . S
C42 O45 1.355 . S
Dy43 O47 2.310 . S
Dy43 O50 2.351 . S
Dy43 O52 2.398 . S
Dy43 O53 2.491 . S
Dy43 O54 2.403 . S
Dy43 O55 2.664 . S
Dy43 O57 2.326 . S
O44 Dy40 2.398 . S
O44 C42 1.185 . S
O45 Dy40 2.491 . S
O45 C42 1.355 . S
O46 Dy40 2.403 . S
O46 C48 1.254 . S
O47 Dy40 2.664 . S
O47 Dy43 2.310 . S
O47 C48 1.268 . S
C48 O46 1.254 . S
C48 O47 1.268 . S
C49 O54 1.254 . S
C49 O55 1.268 . S
O50 Dy43 2.351 . S
O50 C58 1.249 . S
O51 Dy40 2.326 . S
O51 C58 1.267 . S
O52 C41 1.185 . S
O52 Dy43 2.398 . S
O53 C41 1.355 . S
O53 Dy43 2.491 . S
O54 Dy43 2.403 . S
O54 C49 1.254 . S
O55 Dy40 2.310 . S
O55 Dy43 2.664 . S
O55 C49 1.268 . S
O56 Dy40 2.351 . S
O56 C59 1.249 . S
O57 Dy43 2.326 . S
O57 C59 1.267 . S
C58 O50 1.249 . S
C58 O51 1.267 . S
C59 O56 1.249 . S
C59 O57 1.267 . S
Dy60 O64 2.398 . S
Dy60 O65 2.491 . S
Dy60 O66 2.403 . S
Dy60 O67 2.664 . S
Dy60 O71 2.326 . S
Dy60 O75 2.310 . S
Dy60 O76 2.351 . S
C61 O72 1.185 . S
C61 O73 1.355 . S
C62 O64 1.185 . S
C62 O65 1.355 . S
Dy63 O67 2.310 . S
Dy63 O70 2.351 . S
Dy63 O72 2.398 . S
Dy63 O73 2.491 . S
Dy63 O74 2.403 . S
Dy63 O75 2.664 . S
Dy63 O77 2.326 . S
O64 Dy60 2.398 . S
O64 C62 1.185 . S
O65 Dy60 2.491 . S
O65 C62 1.355 . S
O66 Dy60 2.403 . S
O66 C68 1.254 . S
O67 Dy60 2.664 . S
O67 Dy63 2.310 . S
O67 C68 1.268 . S
C68 O66 1.254 . S
C68 O67 1.268 . S
C69 O74 1.254 . S
C69 O75 1.268 . S
O70 Dy63 2.351 . S
O70 C78 1.249 . S
O71 Dy60 2.326 . S
O71 C78 1.267 . S
O72 C61 1.185 . S
O72 Dy63 2.398 . S
O73 C61 1.355 . S
O73 Dy63 2.491 . S
O74 Dy63 2.403 . S
O74 C69 1.254 . S
O75 Dy60 2.310 . S
O75 Dy63 2.664 . S
O75 C69 1.268 . S
O76 Dy60 2.351 . S
O76 C79 1.249 . S
O77 Dy63 2.326 . S
O77 C79 1.267 . S
C78 O70 1.249 . S
C78 O71 1.267 . S
C79 O76 1.249 . S
C79 O77 1.267 . S
Dy80 O84 2.398 . S
Dy80 O85 2.491 . S
Dy80 O86 2.403 . S
Dy80 O87 2.664 . S
Dy80 O91 2.326 . S
Dy80 O95 2.310 . S
Dy80 O96 2.351 . S
C81 O92 1.185 . S
C81 O93 1.355 . S
C82 O84 1.185 . S
C82 O85 1.355 . S
Dy83 O87 2.310 . S
Dy83 O90 2.351 . S
Dy83 O92 2.398 . S
Dy83 O93 2.491 . S
Dy83 O94 2.403 . S
Dy83 O95 2.664 . S
Dy83 O97 2.326 . S
O84 Dy80 2.398 . S
O84 C82 1.185 . S
O85 Dy80 2.491 . S
O85 C82 1.355 . S
O86 Dy80 2.403 . S
O86 C88 1.254 . S
O87 Dy80 2.664 . S
O87 Dy83 2.310 . S
O87 C88 1.268 . S
C88 O86 1.254 . S
C88 O87 1.268 . S
C89 O94 1.254 . S
C89 O95 1.268 . S
O90 Dy83 2.351 . S
O90 C98 1.249 . S
O91 Dy80 2.326 . S
O91 C98 1.267 . S
O92 C81 1.185 . S
O92 Dy83 2.398 . S
O93 C81 1.355 . S
O93 Dy83 2.491 . S
O94 Dy83 2.403 . S
O94 C89 1.254 . S
O95 Dy80 2.310 . S
O95 Dy83 2.664 . S
O95 C89 1.268 . S
O96 Dy80 2.351 . S
O96 C99 1.249 . S
O97 Dy83 2.326 . S
O97 C99 1.267 . S
C98 O90 1.249 . S
C98 O91 1.267 . S
C99 O96 1.249 . S
C99 O97 1.267 . S
Dy100 O104 2.398 . S
Dy100 O105 2.491 . S
Dy100 O106 2.403 . S
Dy100 O107 2.664 . S
Dy100 O111 2.326 . S
Dy100 O115 2.310 . S
Dy100 O116 2.351 . S
C101 O112 1.185 . S
C101 O113 1.355 . S
C102 O104 1.185 . S
C102 O105 1.355 . S
Dy103 O107 2.310 . S
Dy103 O110 2.351 . S
Dy103 O112 2.398 . S
Dy103 O113 2.491 . S
Dy103 O114 2.403 . S
Dy103 O115 2.664 . S
Dy103 O117 2.326 . S
O104 Dy100 2.398 . S
O104 C102 1.185 . S
O105 Dy100 2.491 . S
O105 C102 1.355 . S
O106 Dy100 2.403 . S
O106 C108 1.254 . S
O107 Dy100 2.664 . S
O107 Dy103 2.310 . S
O107 C108 1.268 . S
C108 O106 1.254 . S
C108 O107 1.268 . S
C109 O114 1.254 . S
C109 O115 1.268 . S
O110 Dy103 2.351 . S
O110 C118 1.249 . S
O111 Dy100 2.326 . S
O111 C118 1.267 . S
O112 C101 1.185 . S
O112 Dy103 2.398 . S
O113 C101 1.355 . S
O113 Dy103 2.491 . S
O114 Dy103 2.403 . S
O114 C109 1.254 . S
O115 Dy100 2.310 . S
O115 Dy103 2.664 . S
O115 C109 1.268 . S
O116 Dy100 2.351 . S
O116 C119 1.249 . S
O117 Dy103 2.326 . S
O117 C119 1.267 . S
C118 O110 1.249 . S
C118 O111 1.267 . S
C119 O116 1.249 . S
C119 O117 1.267 . S
Dy120 O124 2.398 . S
Dy120 O125 2.491 . S
Dy120 O126 2.403 . S
Dy120 O127 2.664 . S
Dy120 O131 2.326 . S
Dy120 O135 2.310 . S
Dy120 O136 2.351 . S
C121 O132 1.185 . S
C121 O133 1.355 . S
C122 O124 1.185 . S
C122 O125 1.355 . S
Dy123 O127 2.310 . S
Dy123 O130 2.351 . S
Dy123 O132 2.398 . S
Dy123 O133 2.491 . S
Dy123 O134 2.403 . S
Dy123 O135 2.664 . S
Dy123 O137 2.326 . S
O124 Dy120 2.398 . S
O124 C122 1.185 . S
O125 Dy120 2.491 . S
O125 C122 1.355 . S
O126 Dy120 2.403 . S
O126 C128 1.254 . S
O127 Dy120 2.664 . S
O127 Dy123 2.310 . S
O127 C128 1.268 . S
C128 O126 1.254 . S
C128 O127 1.268 . S
C129 O134 1.254 . S
C129 O135 1.268 . S
O130 Dy123 2.351 . S
O130 C138 1.249 . S
O131 Dy120 2.326 . S
O131 C138 1.267 . S
O132 C121 1.185 . S
O132 Dy123 2.398 . S
O133 C121 1.355 . S
O133 Dy123 2.491 . S
O134 Dy123 2.403 . S
O134 C129 1.254 . S
O135 Dy120 2.310 . S
O135 Dy123 2.664 . S
O135 C129 1.268 . S
O136 Dy120 2.351 . S
O136 C139 1.249 . S
O137 Dy123 2.326 . S
O137 C139 1.267 . S
C138 O130 1.249 . S
C138 O131 1.267 . S
C139 O136 1.249 . S
C139 O137 1.267 . S
Dy140 O144 2.398 . S
Dy140 O145 2.491 . S
Dy140 O146 2.403 . S
Dy140 O147 2.664 . S
Dy140 O151 2.326 . S
Dy140 O155 2.310 . S
Dy140 O156 2.351 . S
C141 O152 1.185 . S
C141 O153 1.355 . S
C142 O144 1.185 . S
C142 O145 1.355 . S
Dy143 O147 2.310 . S
Dy143 O150 2.351 . S
Dy143 O152 2.398 . S
Dy143 O153 2.491 . S
Dy143 O154 2.403 . S
Dy143 O155 2.664 . S
Dy143 O157 2.326 . S
O144 Dy140 2.398 . S
O144 C142 1.185 . S
O145 Dy140 2.491 . S
O145 C142 1.355 . S
O146 Dy140 2.403 . S
O146 C148 1.254 . S
O147 Dy140 2.664 . S
O147 Dy143 2.310 . S
O147 C148 1.268 . S
C148 O146 1.254 . S
C148 O147 1.268 . S
C149 O154 1.254 . S
C149 O155 1.268 . S
O150 Dy143 2.351 . S
O150 C158 1.249 . S
O151 Dy140 2.326 . S
O151 C158 1.267 . S
O152 C141 1.185 . S
O152 Dy143 2.398 . S
O153 C141 1.355 . S
O153 Dy143 2.491 . S
O154 Dy143 2.403 . S
O154 C149 1.254 . S
O155 Dy140 2.310 . S
O155 Dy143 2.664 . S
O155 C149 1.268 . S
O156 Dy140 2.351 . S
O156 C159 1.249 . S
O157 Dy143 2.326 . S
O157 C159 1.267 . S
C158 O150 1.249 . S
C158 O151 1.267 . S
C159 O156 1.249 . S
C159 O157 1.267 . S
Dy160 O164 2.398 . S
Dy160 O165 2.491 . S
Dy160 O166 2.403 . S
Dy160 O167 2.664 . S
Dy160 O171 2.326 . S
Dy160 O175 2.310 . S
Dy160 O176 2.351 . S
C161 O172 1.185 . S
C161 O173 1.355 . S
C162 O164 1.185 . S
C162 O165 1.355 . S
Dy163 O167 2.310 . S
Dy163 O170 2.351 . S
Dy163 O172 2.398 . S
Dy163 O173 2.491 . S
Dy163 O174 2.403 . S
Dy163 O175 2.664 . S
Dy163 O177 2.326 . S
O164 Dy160 2.398 . S
O164 C162 1.185 . S
O165 Dy160 2.491 . S
O165 C162 1.355 . S
O166 Dy160 2.403 . S
O166 C168 1.254 . S
O167 Dy160 2.664 . S
O167 Dy163 2.310 . S
O167 C168 1.268 . S
C168 O166 1.254 . S
C168 O167 1.268 . S
C169 O174 1.254 . S
C169 O175 1.268 . S
O170 Dy163 2.351 . S
O170 C178 1.249 . S
O171 Dy160 2.326 . S
O171 C178 1.267 . S
O172 C161 1.185 . S
O172 Dy163 2.398 . S
O173 C161 1.355 . S
O173 Dy163 2.491 . S
O174 Dy163 2.403 . S
O174 C169 1.254 . S
O175 Dy160 2.310 . S
O175 Dy163 2.664 . S
O175 C169 1.268 . S
O176 Dy160 2.351 . S
O176 C179 1.249 . S
O177 Dy163 2.326 . S
O177 C179 1.267 . S
C178 O170 1.249 . S
C178 O171 1.267 . S
C179 O176 1.249 . S
C179 O177 1.267 . S
Dy180 O184 2.398 . S
Dy180 O185 2.491 . S
Dy180 O186 2.403 . S
Dy180 O187 2.664 . S
Dy180 O191 2.326 . S
Dy180 O195 2.310 . S
Dy180 O196 2.351 . S
C181 O192 1.185 . S
C181 O193 1.355 . S
C182 O184 1.185 . S
C182 O185 1.355 . S
Dy183 O187 2.310 . S
Dy183 O190 2.351 . S
Dy183 O192 2.398 . S
Dy183 O193 2.491 . S
Dy183 O194 2.403 . S
Dy183 O195 2.664 . S
Dy183 O197 2.326 . S
O184 Dy180 2.398 . S
O184 C182 1.185 . S
O185 Dy180 2.491 . S
O185 C182 1.355 . S
O186 Dy180 2.403 . S
O186 C188 1.254 . S
O187 Dy180 2.664 . S
O187 Dy183 2.310 . S
O187 C188 1.268 . S
C188 O186 1.254 . S
C188 O187 1.268 . S
C189 O194 1.254 . S
C189 O195 1.268 . S
O190 Dy183 2.351 . S
O190 C198 1.249 . S
O191 Dy180 2.326 . S
O191 C198 1.267 . S
O192 C181 1.185 . S
O192 Dy183 2.398 . S
O193 C181 1.355 . S
O193 Dy183 2.491 . S
O194 Dy183 2.403 . S
O194 C189 1.254 . S
O195 Dy180 2.310 . S
O195 Dy183 2.664 . S
O195 C189 1.268 . S
O196 Dy180 2.351 . S
O196 C199 1.249 . S
O197 Dy183 2.326 . S
O197 C199 1.267 . S
C198 O190 1.249 . S
C198 O191 1.267 . S
C199 O196 1.249 . S
C199 O197 1.267 . S
Dy200 O204 2.398 . S
Dy200 O205 2.491 . S
Dy200 O206 2.403 . S
Dy200 O207 2.664 . S
Dy200 O211 2.326 . S
Dy200 O215 2.310 . S
Dy200 O216 2.351 . S
C201 O212 1.185 . S
C201 O213 1.355 . S
C202 O204 1.185 . S
C202 O205 1.355 . S
Dy203 O207 2.310 . S
Dy203 O210 2.351 . S
Dy203 O212 2.398 . S
Dy203 O213 2.491 . S
Dy203 O214 2.403 . S
Dy203 O215 2.664 . S
Dy203 O217 2.326 . S
O204 Dy200 2.398 . S
O204 C202 1.185 . S
O205 Dy200 2.491 . S
O205 C202 1.355 . S
O206 Dy200 2.403 . S
O206 C208 1.254 . S
O207 Dy200 2.664 . S
O207 Dy203 2.310 . S
O207 C208 1.268 . S
C208 O206 1.254 . S
C208 O207 1.268 . S
C209 O214 1.254 . S
C209 O215 1.268 . S
O210 Dy203 2.351 . S
O210 C218 1.249 . S
O211 Dy200 2.326 . S
O211 C218 1.267 . S
O212 C201 1.185 . S
O212 Dy203 2.398 . S
O213 C201 1.355 . S
O213 Dy203 2.491 . S
O214 Dy203 2.403 . S
O214 C209 1.254 . S
O215 Dy200 2.310 . S
O215 Dy203 2.664 . S
O215 C209 1.268 . S
O216 Dy200 2.351 . S
O216 C219 1.249 . S
O217 Dy203 2.326 . S
O217 C219 1.267 . S
C218 O210 1.249 . S
C218 O211 1.267 . S
C219 O216 1.249 . S
C219 O217 1.267 . S
Dy220 O224 2.398 . S
Dy220 O225 2.491 . S
Dy220 O226 2.403 . S
Dy220 O227 2.664 . S
Dy220 O231 2.326 . S
Dy220 O235 2.310 . S
Dy220 O236 2.351 . S
C221 O232 1.185 . S
C221 O233 1.355 . S
C222 O224 1.185 . S
C222 O225 1.355 . S
Dy223 O227 2.310 . S
Dy223 O230 2.351 . S
Dy223 O232 2.398 . S
Dy223 O233 2.491 . S
Dy223 O234 2.403 . S
Dy223 O235 2.664 . S
Dy223 O237 2.326 . S
O224 Dy220 2.398 . S
O224 C222 1.185 . S
O225 Dy220 2.491 . S
O225 C222 1.355 . S
O226 Dy220 2.403 . S
O226 C228 1.254 . S
O227 Dy220 2.664 . S
O227 Dy223 2.310 . S
O227 C228 1.268 . S
C228 O226 1.254 . S
C228 O227 1.268 . S
C229 O234 1.254 . S
C229 O235 1.268 . S
O230 Dy223 2.351 . S
O230 C238 1.249 . S
O231 Dy220 2.326 . S
O231 C238 1.267 . S
O232 C221 1.185 . S
O232 Dy223 2.398 . S
O233 C221 1.355 . S
O233 Dy223 2.491 . S
O234 Dy223 2.403 . S
O234 C229 1.254 . S
O235 Dy220 2.310 . S
O235 Dy223 2.664 . S
O235 C229 1.268 . S
O236 Dy220 2.351 . S
O236 C239 1.249 . S
O237 Dy223 2.326 . S
O237 C239 1.267 . S
C238 O230 1.249 . S
C238 O231 1.267 . S
C239 O236 1.249 . S
C239 O237 1.267 . S
Dy240 O244 2.398 . S
Dy240 O245 2.491 . S
Dy240 O246 2.403 . S
Dy240 O247 2.664 . S
Dy240 O251 2.326 . S
Dy240 O255 2.310 . S
Dy240 O256 2.351 . S
C241 O252 1.185 . S
C241 O253 1.355 . S
C242 O244 1.185 . S
C242 O245 1.355 . S
Dy243 O247 2.310 . S
Dy243 O250 2.351 . S
Dy243 O252 2.398 . S
Dy243 O253 2.491 . S
Dy243 O254 2.403 . S
Dy243 O255 2.664 . S
Dy243 O257 2.326 . S
O244 Dy240 2.398 . S
O244 C242 1.185 . S
O245 Dy240 2.491 . S
O245 C242 1.355 . S
O246 Dy240 2.403 . S
O246 C248 1.254 . S
O247 Dy240 2.664 . S
O247 Dy243 2.310 . S
O247 C248 1.268 . S
C248 O246 1.254 . S
C248 O247 1.268 . S
C249 O254 1.254 . S
C249 O255 1.268 . S
O250 Dy243 2.351 . S
O250 C258 1.249 . S
O251 Dy240 2.326 . S
O251 C258 1.267 . S
O252 C241 1.185 . S
O252 Dy243 2.398 . S
O253 C241 1.355 . S
O253 Dy243 2.491 . S
O254 Dy243 2.403 . S
O254 C249 1.254 . S
O255 Dy240 2.310 . S
O255 Dy243 2.664 . S
O255 C249 1.268 . S
O256 Dy240 2.351 . S
O256 C259 1.249 . S
O257 Dy243 2.326 . S
O257 C259 1.267 . S
C258 O250 1.249 . S
C258 O251 1.267 . S
C259 O256 1.249 . S
C259 O257 1.267 . S
Dy260 O264 2.398 . S
Dy260 O265 2.491 . S
Dy260 O266 2.403 . S
Dy260 O267 2.664 . S
Dy260 O271 2.326 . S
Dy260 O275 2.310 . S
Dy260 O276 2.351 . S
C261 O272 1.185 . S
C261 O273 1.355 . S
C262 O264 1.185 . S
C262 O265 1.355 . S
Dy263 O267 2.310 . S
Dy263 O270 2.351 . S
Dy263 O272 2.398 . S
Dy263 O273 2.491 . S
Dy263 O274 2.403 . S
Dy263 O275 2.664 . S
Dy263 O277 2.326 . S
O264 Dy260 2.398 . S
O264 C262 1.185 . S
O265 Dy260 2.491 . S
O265 C262 1.355 . S
O266 Dy260 2.403 . S
O266 C268 1.254 . S
O267 Dy260 2.664 . S
O267 Dy263 2.310 . S
O267 C268 1.268 . S
C268 O266 1.254 . S
C268 O267 1.268 . S
C269 O274 1.254 . S
C269 O275 1.268 . S
O270 Dy263 2.351 . S
O270 C278 1.249 . S
O271 Dy260 2.326 . S
O271 C278 1.267 . S
O272 C261 1.185 . S
O272 Dy263 2.398 . S
O273 C261 1.355 . S
O273 Dy263 2.491 . S
O274 Dy263 2.403 . S
O274 C269 1.254 . S
O275 Dy260 2.310 . S
O275 Dy263 2.664 . S
O275 C269 1.268 . S
O276 Dy260 2.351 . S
O276 C279 1.249 . S
O277 Dy263 2.326 . S
O277 C279 1.267 . S
C278 O270 1.249 . S
C278 O271 1.267 . S
C279 O276 1.249 . S
C279 O277 1.267 . S
Dy280 O284 2.398 . S
Dy280 O285 2.491 . S
Dy280 O286 2.403 . S
Dy280 O287 2.664 . S
Dy280 O291 2.326 . S
Dy280 O295 2.310 . S
Dy280 O296 2.351 . S
C281 O292 1.185 . S
C281 O293 1.355 . S
C282 O284 1.185 . S
C282 O285 1.355 . S
Dy283 O287 2.310 . S
Dy283 O290 2.351 . S
Dy283 O292 2.398 . S
Dy283 O293 2.491 . S
Dy283 O294 2.403 . S
Dy283 O295 2.664 . S
Dy283 O297 2.326 . S
O284 Dy280 2.398 . S
O284 C282 1.185 . S
O285 Dy280 2.491 . S
O285 C282 1.355 . S
O286 Dy280 2.403 . S
O286 C288 1.254 . S
O287 Dy280 2.664 . S
O287 Dy283 2.310 . S
O287 C288 1.268 . S
C288 O286 1.254 . S
C288 O287 1.268 . S
C289 O294 1.254 . S
C289 O295 1.268 . S
O290 Dy283 2.351 . S
O290 C298 1.249 . S
O291 Dy280 2.326 . S
O291 C298 1.267 . S
O292 C281 1.185 . S
O292 Dy283 2.398 . S
O293 C281 1.355 . S
O293 Dy283 2.491 . S
O294 Dy283 2.403 . S
O294 C289 1.254 . S
O295 Dy280 2.310 . S
O295 Dy283 2.664 . S
O295 C289 1.268 . S
O296 Dy280 2.351 . S
O296 C299 1.249 . S
O297 Dy283 2.326 . S
O297 C299 1.267 . S
C298 O290 1.249 . S
C298 O291 1.267 . S
C299 O296 1.249 . S
C299 O297 1.267 . S
Dy300 O304 2.398 . S
Dy300 O305 2.491 . S
Dy300 O306 2.403 . S
Dy300 O307 2.664 . S
Dy300 O311 2.326 . S
Dy300 O315 2.310 . S
Dy300 O316 2.351 . S
C301 O312 1.185 . S
C301 O313 1.355 . S
C302 O304 1.185 . S
C302 O305 1.355 . S
Dy303 O307 2.310 . S
Dy303 O310 2.351 . S
Dy303 O312 2.398 . S
Dy303 O313 2.491 . S
Dy303 O314 2.403 . S
Dy303 O315 2.664 . S
Dy303 O317 2.326 . S
O304 Dy300 2.398 . S
O304 C302 1.185 . S
O305 Dy300 2.491 . S
O305 C302 1.355 . S
O306 Dy300 2.403 . S
O306 C308 1.254 . S
O307 Dy300 2.664 . S
O307 Dy303 2.310 . S
O307 C308 1.268 . S
C308 O306 1.254 . S
C308 O307 1.268 . S
C309 O314 1.254 . S
C309 O315 1.268 . S
O310 Dy303 2.351 . S
O310 C318 1.249 . S
O311 Dy300 2.326 . S
O311 C318 1.267 . S
O312 C301 1.185 . S
O312 Dy303 2.398 . S
O313 C301 1.355 . S
O313 Dy303 2.491 . S
O314 Dy303 2.403 . S
O314 C309 1.254 . S
O315 Dy300 2.310 . S
O315 Dy303 2.664 . S
O315 C309 1.268 . S
O316 Dy300 2.351 . S
O316 C319 1.249 . S
O317 Dy303 2.326 . S
O317 C319 1.267 . S
C318 O310 1.249 . S
C318 O311 1.267 . S
C319 O316 1.249 . S
C319 O317 1.267 . S
Dy320 O324 2.398 . S
Dy320 O325 2.491 . S
Dy320 O326 2.403 . S
Dy320 O327 2.664 . S
Dy320 O331 2.326 . S
Dy320 O335 2.310 . S
Dy320 O336 2.351 . S
C321 O332 1.185 . S
C321 O333 1.355 . S
C322 O324 1.185 . S
C322 O325 1.355 . S
Dy323 O327 2.310 . S
Dy323 O330 2.351 . S
Dy323 O332 2.398 . S
Dy323 O333 2.491 . S
Dy323 O334 2.403 . S
Dy323 O335 2.664 . S
Dy323 O337 2.326 . S
O324 Dy320 2.398 . S
O324 C322 1.185 . S
O325 Dy320 2.491 . S
O325 C322 1.355 . S
O326 Dy320 2.403 . S
O326 C328 1.254 . S
O327 Dy320 2.664 . S
O327 Dy323 2.310 . S
O327 C328 1.268 . S
C328 O326 1.254 . S
C328 O327 1.268 . S
C329 O334 1.254 . S
C329 O335 1.268 . S
O330 Dy323 2.351 . S
O330 C338 1.249 . S
O331 Dy320 2.326 . S
O331 C338 1.267 . S
O332 C321 1.185 . S
O332 Dy323 2.398 . S
O333 C321 1.355 . S
O333 Dy323 2.491 . S
O334 Dy323 2.403 . S
O334 C329 1.254 . S
O335 Dy320 2.310 . S
O335 Dy323 2.664 . S
O335 C329 1.268 . S
O336 Dy320 2.351 . S
O336 C339 1.249 . S
O337 Dy323 2.326 . S
O337 C339 1.267 . S
C338 O330 1.249 . S
C338 O331 1.267 . S
C339 O336 1.249 . S
C339 O337 1.267 . S
Dy340 O344 2.398 . S
Dy340 O345 2.491 . S
Dy340 O346 2.403 . S
Dy340 O347 2.664 . S
Dy340 O351 2.326 . S
Dy340 O355 2.310 . S
Dy340 O356 2.351 . S
C341 O352 1.185 . S
C341 O353 1.355 . S
C342 O344 1.185 . S
C342 O345 1.355 . S
Dy343 O347 2.310 . S
Dy343 O350 2.351 . S
Dy343 O352 2.398 . S
Dy343 O353 2.491 . S
Dy343 O354 2.403 . S
Dy343 O355 2.664 . S
Dy343 O357 2.326 . S
O344 Dy340 2.398 . S
O344 C342 1.185 . S
O345 Dy340 2.491 . S
O345 C342 1.355 . S
O346 Dy340 2.403 . S
O346 C348 1.254 . S
O347 Dy340 2.664 . S
O347 Dy343 2.310 . S
O347 C348 1.268 . S
C348 O346 1.254 . S
C348 O347 1.268 . S
C349 O354 1.254 . S
C349 O355 1.268 . S
O350 Dy343 2.351 . S
O350 C358 1.249 . S
O351 Dy340 2.326 . S
O351 C358 1.267 . S
O352 C341 1.185 . S
O352 Dy343 2.398 . S
O353 C341 1.355 . S
O353 Dy343 2.491 . S
O354 Dy343 2.403 . S
O354 C349 1.254 . S
O355 Dy340 2.310 . S
O355 Dy343 2.664 . S
O355 C349 1.268 . S
O356 Dy340 2.351 . S
O356 C359 1.249 . S
O357 Dy343 2.326 . S
O357 C359 1.267 . S
C358 O350 1.249 . S
C358 O351 1.267 . S
C359 O356 1.249 . S
C359 O357 1.267 . S
Dy360 O364 2.398 . S
Dy360 O365 2.491 . S
Dy360 O366 2.403 . S
Dy360 O367 2.664 . S
Dy360 O371 2.326 . S
Dy360 O375 2.310 . S
Dy360 O376 2.351 . S
C361 O372 1.185 . S
C361 O373 1.355 . S
C362 O364 1.185 . S
C362 O365 1.355 . S
Dy363 O367 2.310 . S
Dy363 O370 2.351 . S
Dy363 O372 2.398 . S
Dy363 O373 2.491 . S
Dy363 O374 2.403 . S
Dy363 O375 2.664 . S
Dy363 O377 2.326 . S
O364 Dy360 2.398 . S
O364 C362 1.185 . S
O365 Dy360 2.491 . S
O365 C362 1.355 . S
O366 Dy360 2.403 . S
O366 C368 1.254 . S
O367 Dy360 2.664 . S
O367 Dy363 2.310 . S
O367 C368 1.268 . S
C368 O366 1.254 . S
C368 O367 1.268 . S
C369 O374 1.254 . S
C369 O375 1.268 . S
O370 Dy363 2.351 . S
O370 C378 1.249 . S
O371 Dy360 2.326 . S
O371 C378 1.267 . S
O372 C361 1.185 . S
O372 Dy363 2.398 . S
O373 C361 1.355 . S
O373 Dy363 2.491 . S
O374 Dy363 2.403 . S
O374 C369 1.254 . S
O375 Dy360 2.310 . S
O375 Dy363 2.664 . S
O375 C369 1.268 . S
O376 Dy360 2.351 . S
O376 C379 1.249 . S
O377 Dy363 2.326 . S
O377 C379 1.267 . S
C378 O370 1.249 . S
C378 O371 1.267 . S
C379 O376 1.249 . S
C379 O377 1.267 . S
Dy380 O384 2.398 . S
Dy380 O385 2.491 . S
Dy380 O386 2.403 . S
Dy380 O387 2.664 . S
Dy380 O391 2.326 . S
Dy380 O395 2.310 . S
Dy380 O396 2.351 . S
C381 O392 1.185 . S
C381 O393 1.355 . S
C382 O384 1.185 . S
C382 O385 1.355 . S
Dy383 O387 2.310 . S
Dy383 O390 2.351 . S
Dy383 O392 2.398 . S
Dy383 O393 2.491 . S
Dy383 O394 2.403 . S
Dy383 O395 2.664 . S
Dy383 O397 2.326 . S
O384 Dy380 2.398 . S
O384 C382 1.185 . S
O385 Dy380 2.491 . S
O385 C382 1.355 . S
O386 Dy380 2.403 . S
O386 C388 1.254 . S
O387 Dy380 2.664 . S
O387 Dy383 2.310 . S
O387 C388 1.268 . S
C388 O386 1.254 . S
C388 O387 1.268 . S
C389 O394 1.254 . S
C389 O395 1.268 . S
O390 Dy383 2.351 . S
O390 C398 1.249 . S
O391 Dy380 2.326 . S
O391 C398 1.267 . S
O392 C381 1.185 . S
O392 Dy383 2.398 . S
O393 C381 1.355 . S
O393 Dy383 2.491 . S
O394 Dy383 2.403 . S
O394 C389 1.254 . S
O395 Dy380 2.310 . S
O395 Dy383 2.664 . S
O395 C389 1.268 . S
O396 Dy380 2.351 . S
O396 C399 1.249 . S
O397 Dy383 2.326 . S
O397 C399 1.267 . S
C398 O390 1.249 . S
C398 O391 1.267 . S
C399 O396 1.249 . S
C399 O397 1.267 . S
Dy400 O404 2.398 . S
Dy400 O405 2.491 . S
Dy400 O406 2.403 . S
Dy400 O407 2.664 . S
Dy400 O411 2.326 . S
Dy400 O415 2.310 . S
Dy400 O416 2.351 . S
C401 O412 1.185 . S
C401 O413 1.355 . S
C402 O404 1.185 . S
C402 O405 1.355 . S
Dy403 O407 2.310 . S
Dy403 O410 2.351 . S
Dy403 O412 2.398 . S
Dy403 O413 2.491 . S
Dy403 O414 2.403 . S
Dy403 O415 2.664 . S
Dy403 O417 2.326 . S
O404 Dy400 2.398 . S
O404 C402 1.185 . S
O405 Dy400 2.491 . S
O405 C402 1.355 . S
O406 Dy400 2.403 . S
O406 C408 1.254 . S
O407 Dy400 2.664 . S
O407 Dy403 2.310 . S
O407 C408 1.268 . S
C408 O406 1.254 . S
C408 O407 1.268 . S
C409 O414 1.254 . S
C409 O415 1.268 . S
O410 Dy403 2.351 . S
O410 C418 1.249 . S
O411 Dy400 2.326 . S
O411 C418 1.267 . S
O412 C401 1.185 . S
O412 Dy403 2.398 . S
O413 C401 1.355 . S
O413 Dy403 2.491 . S
O414 Dy403 2.403 . S
O414 C409 1.254 . S
O415 Dy400 2.310 . S
O415 Dy403 2.664 . S
O415 C409 1.268 . S
O416 Dy400 2.351 . S
O416 C419 1.249 . S
O417 Dy403 2.326 . S
O417 C419 1.267 . S
C418 O410 1.249 . S
C418 O411 1.267 . S
C419 O416 1.249 . S
C419 O417 1.267 . S
Dy420 O424 2.398 . S
Dy420 O425 2.491 . S
Dy420 O426 2.403 . S
Dy420 O427 2.664 1_554 S
Dy420 O431 2.326 . S
Dy420 O435 2.310 . S
Dy420 O436 2.351 . S
C421 O432 1.185 . S
C421 O433 1.355 . S
C422 O424 1.185 . S
C422 O425 1.355 . S
Dy423 O427 2.310 . S
Dy423 O430 2.351 . S
Dy423 O432 2.398 . S
Dy423 O433 2.491 . S
Dy423 O434 2.403 . S
Dy423 O435 2.664 1_556 S
Dy423 O437 2.326 . S
O424 Dy420 2.398 . S
O424 C422 1.185 . S
O425 Dy420 2.491 . S
O425 C422 1.355 . S
O426 Dy420 2.403 . S
O426 C428 1.254 . S
O427 Dy420 2.664 1_556 S
O427 Dy423 2.310 . S
O427 C428 1.268 1_556 S
C428 O426 1.254 . S
C428 O427 1.268 1_554 S
C429 O434 1.254 . S
C429 O435 1.268 1_556 S
O430 Dy423 2.351 . S
O430 C438 1.249 1_556 S
O431 Dy420 2.326 . S
O431 C438 1.267 . S
O432 C421 1.185 . S
O432 Dy423 2.398 . S
O433 C421 1.355 . S
O433 Dy423 2.491 . S
O434 Dy423 2.403 . S
O434 C429 1.254 . S
O435 Dy420 2.310 . S
O435 Dy423 2.664 1_554 S
O435 C429 1.268 1_554 S
O436 Dy420 2.351 . S
O436 C439 1.249 1_554 S
O437 Dy423 2.326 . S
O437 C439 1.267 . S
C438 O430 1.249 1_554 S
C438 O431 1.267 . S
C439 O436 1.249 1_556 S
C439 O437 1.267 . S
Dy440 O444 2.398 . S
Dy440 O445 2.491 . S
Dy440 O446 2.403 . S
Dy440 O447 2.664 1_554 S
Dy440 O451 2.326 . S
Dy440 O455 2.310 . S
Dy440 O456 2.351 . S
C441 O452 1.185 . S
C441 O453 1.355 . S
C442 O444 1.185 . S
C442 O445 1.355 . S
Dy443 O447 2.310 . S
Dy443 O450 2.351 . S
Dy443 O452 2.398 . S
Dy443 O453 2.491 . S
Dy443 O454 2.403 . S
Dy443 O455 2.664 1_556 S
Dy443 O457 2.326 . S
O444 Dy440 2.398 . S
O444 C442 1.185 . S
O445 Dy440 2.491 . S
O445 C442 1.355 . S
O446 Dy440 2.403 . S
O446 C448 1.254 . S
O447 Dy440 2.664 1_556 S
O447 Dy443 2.310 . S
O447 C448 1.268 1_556 S
C448 O446 1.254 . S
C448 O447 1.268 1_554 S
C449 O454 1.254 . S
C449 O455 1.268 1_556 S
O450 Dy443 2.351 . S
O450 C458 1.249 1_556 S
O451 Dy440 2.326 . S
O451 C458 1.267 . S
O452 C441 1.185 . S
O452 Dy443 2.398 . S
O453 C441 1.355 . S
O453 Dy443 2.491 . S
O454 Dy443 2.403 . S
O454 C449 1.254 . S
O455 Dy440 2.310 . S
O455 Dy443 2.664 1_554 S
O455 C449 1.268 1_554 S
O456 Dy440 2.351 . S
O456 C459 1.249 1_554 S
O457 Dy443 2.326 . S
O457 C459 1.267 . S
C458 O450 1.249 1_554 S
C458 O451 1.267 . S
C459 O456 1.249 1_556 S
C459 O457 1.267 . S
Dy460 O464 2.398 . S
Dy460 O465 2.491 . S
Dy460 O466 2.403 . S
Dy460 O467 2.664 1_554 S
Dy460 O471 2.326 . S
Dy460 O475 2.310 . S
Dy460 O476 2.351 . S
C461 O472 1.185 . S
C461 O473 1.355 . S
C462 O464 1.185 . S
C462 O465 1.355 . S
Dy463 O467 2.310 . S
Dy463 O470 2.351 . S
Dy463 O472 2.398 . S
Dy463 O473 2.491 . S
Dy463 O474 2.403 . S
Dy463 O475 2.664 1_556 S
Dy463 O477 2.326 . S
O464 Dy460 2.398 . S
O464 C462 1.185 . S
O465 Dy460 2.491 . S
O465 C462 1.355 . S
O466 Dy460 2.403 . S
O466 C468 1.254 . S
O467 Dy460 2.664 1_556 S
O467 Dy463 2.310 . S
O467 C468 1.268 1_556 S
C468 O466 1.254 . S
C468 O467 1.268 1_554 S
C469 O474 1.254 . S
C469 O475 1.268 1_556 S
O470 Dy463 2.351 . S
O470 C478 1.249 1_556 S
O471 Dy460 2.326 . S
O471 C478 1.267 . S
O472 C461 1.185 . S
O472 Dy463 2.398 . S
O473 C461 1.355 . S
O473 Dy463 2.491 . S
O474 Dy463 2.403 . S
O474 C469 1.254 . S
O475 Dy460 2.310 . S
O475 Dy463 2.664 1_554 S
O475 C469 1.268 1_554 S
O476 Dy460 2.351 . S
O476 C479 1.249 1_554 S
O477 Dy463 2.326 . S
O477 C479 1.267 . S
C478 O470 1.249 1_554 S
C478 O471 1.267 . S
C479 O476 1.249 1_556 S
C479 O477 1.267 . S
Dy480 O484 2.398 . S
Dy480 O485 2.491 . S
Dy480 O486 2.403 . S
Dy480 O487 2.664 . S
Dy480 O491 2.326 . S
Dy480 O495 2.310 . S
Dy480 O496 2.351 . S
C481 O492 1.185 . S
C481 O493 1.355 . S
C482 O484 1.185 . S
C482 O485 1.355 . S
Dy483 O487 2.310 . S
Dy483 O490 2.351 . S
Dy483 O492 2.398 . S
Dy483 O493 2.491 . S
Dy483 O494 2.403 . S
Dy483 O495 2.664 . S
Dy483 O497 2.326 . S
O484 Dy480 2.398 . S
O484 C482 1.185 . S
O485 Dy480 2.491 . S
O485 C482 1.355 . S
O486 Dy480 2.403 . S
O486 C488 1.254 . S
O487 Dy480 2.664 . S
O487 Dy483 2.310 . S
O487 C488 1.268 . S
C488 O486 1.254 . S
C488 O487 1.268 . S
C489 O494 1.254 . S
C489 O495 1.268 . S
O490 Dy483 2.351 . S
O490 C498 1.249 . S
O491 Dy480 2.326 . S
O491 C498 1.267 . S
O492 C481 1.185 . S
O492 Dy483 2.398 . S
O493 C481 1.355 . S
O493 Dy483 2.491 . S
O494 Dy483 2.403 . S
O494 C489 1.254 . S
O495 Dy480 2.310 . S
O495 Dy483 2.664 . S
O495 C489 1.268 . S
O496 Dy480 2.351 . S
O496 C499 1.249 . S
O497 Dy483 2.326 . S
O497 C499 1.267 . S
C498 O490 1.249 . S
C498 O491 1.267 . S
C499 O496 1.249 . S
C499 O497 1.267 . S
Dy500 O504 2.398 . S
Dy500 O505 2.491 . S
Dy500 O506 2.403 . S
Dy500 O507 2.664 . S
Dy500 O511 2.326 . S
Dy500 O515 2.310 . S
Dy500 O516 2.351 . S
C501 O512 1.185 . S
C501 O513 1.355 . S
C502 O504 1.185 . S
C502 O505 1.355 . S
Dy503 O507 2.310 . S
Dy503 O510 2.351 . S
Dy503 O512 2.398 . S
Dy503 O513 2.491 . S
Dy503 O514 2.403 . S
Dy503 O515 2.664 . S
Dy503 O517 2.326 . S
O504 Dy500 2.398 . S
O504 C502 1.185 . S
O505 Dy500 2.491 . S
O505 C502 1.355 . S
O506 Dy500 2.403 . S
O506 C508 1.254 . S
O507 Dy500 2.664 . S
O507 Dy503 2.310 . S
O507 C508 1.268 . S
C508 O506 1.254 . S
C508 O507 1.268 . S
C509 O514 1.254 . S
C509 O515 1.268 . S
O510 Dy503 2.351 . S
O510 C518 1.249 . S
O511 Dy500 2.326 . S
O511 C518 1.267 . S
O512 C501 1.185 . S
O512 Dy503 2.398 . S
O513 C501 1.355 . S
O513 Dy503 2.491 . S
O514 Dy503 2.403 . S
O514 C509 1.254 . S
O515 Dy500 2.310 . S
O515 Dy503 2.664 . S
O515 C509 1.268 . S
O516 Dy500 2.351 . S
O516 C519 1.249 . S
O517 Dy503 2.326 . S
O517 C519 1.267 . S
C518 O510 1.249 . S
C518 O511 1.267 . S
C519 O516 1.249 . S
C519 O517 1.267 . S
Dy520 O524 2.398 . S
Dy520 O525 2.491 . S
Dy520 O526 2.403 . S
Dy520 O527 2.664 . S
Dy520 O531 2.326 . S
Dy520 O535 2.310 . S
Dy520 O536 2.351 . S
C521 O532 1.185 . S
C521 O533 1.355 . S
C522 O524 1.185 . S
C522 O525 1.355 . S
Dy523 O527 2.310 . S
Dy523 O530 2.351 . S
Dy523 O532 2.398 . S
Dy523 O533 2.491 . S
Dy523 O534 2.403 . S
Dy523 O535 2.664 . S
Dy523 O537 2.326 . S
O524 Dy520 2.398 . S
O524 C522 1.185 . S
O525 Dy520 2.491 . S
O525 C522 1.355 . S
O526 Dy520 2.403 . S
O526 C528 1.254 . S
O527 Dy520 2.664 . S
O527 Dy523 2.310 . S
O527 C528 1.268 . S
C528 O526 1.254 . S
C528 O527 1.268 . S
C529 O534 1.254 . S
C529 O535 1.268 . S
O530 Dy523 2.351 . S
O530 C538 1.249 . S
O531 Dy520 2.326 . S
O531 C538 1.267 . S
O532 C521 1.185 . S
O532 Dy523 2.398 . S
O533 C521 1.355 . S
O533 Dy523 2.491 . S
O534 Dy523 2.403 . S
O534 C529 1.254 . S
O535 Dy520 2.310 . S
O535 Dy523 2.664 . S
O535 C529 1.268 . S
O536 Dy520 2.351 . S
O536 C539 1.249 . S
O537 Dy523 2.326 . S
O537 C539 1.267 . S
C538 O530 1.249 . S
C538 O531 1.267 . S
C539 O536 1.249 . S
C539 O537 1.267 . S
Dy540 O544 2.398 . S
Dy540 O545 2.491 . S
Dy540 O546 2.403 . S
Dy540 O547 2.664 1_554 S
Dy540 O551 2.326 . S
Dy540 O555 2.310 . S
Dy540 O556 2.351 . S
C541 O552 1.185 . S
C541 O553 1.355 . S
C542 O544 1.185 . S
C542 O545 1.355 . S
Dy543 O547 2.310 . S
Dy543 O550 2.351 . S
Dy543 O552 2.398 . S
Dy543 O553 2.491 . S
Dy543 O554 2.403 . S
Dy543 O555 2.664 1_556 S
Dy543 O557 2.326 . S
O544 Dy540 2.398 . S
O544 C542 1.185 . S
O545 Dy540 2.491 . S
O545 C542 1.355 . S
O546 Dy540 2.403 . S
O546 C548 1.254 . S
O547 Dy540 2.664 1_556 S
O547 Dy543 2.310 . S
O547 C548 1.268 1_556 S
C548 O546 1.254 . S
C548 O547 1.268 1_554 S
C549 O554 1.254 . S
C549 O555 1.268 1_556 S
O550 Dy543 2.351 . S
O550 C558 1.249 1_556 S
O551 Dy540 2.326 . S
O551 C558 1.267 . S
O552 C541 1.185 . S
O552 Dy543 2.398 . S
O553 C541 1.355 . S
O553 Dy543 2.491 . S
O554 Dy543 2.403 . S
O554 C549 1.254 . S
O555 Dy540 2.310 . S
O555 Dy543 2.664 1_554 S
O555 C549 1.268 1_554 S
O556 Dy540 2.351 . S
O556 C559 1.249 1_554 S
O557 Dy543 2.326 . S
O557 C559 1.267 . S
C558 O550 1.249 1_554 S
C558 O551 1.267 . S
C559 O556 1.249 1_556 S
C559 O557 1.267 . S
Dy560 O564 2.398 . S
Dy560 O565 2.491 . S
Dy560 O566 2.403 . S
Dy560 O567 2.664 1_554 S
Dy560 O571 2.326 . S
Dy560 O575 2.310 . S
Dy560 O576 2.351 . S
C561 O572 1.185 . S
C561 O573 1.355 . S
C562 O564 1.185 . S
C562 O565 1.355 . S
Dy563 O567 2.310 . S
Dy563 O570 2.351 . S
Dy563 O572 2.398 . S
Dy563 O573 2.491 . S
Dy563 O574 2.403 . S
Dy563 O575 2.664 1_556 S
Dy563 O577 2.326 . S
O564 Dy560 2.398 . S
O564 C562 1.185 . S
O565 Dy560 2.491 . S
O565 C562 1.355 . S
O566 Dy560 2.403 . S
O566 C568 1.254 . S
O567 Dy560 2.664 1_556 S
O567 Dy563 2.310 . S
O567 C568 1.268 1_556 S
C568 O566 1.254 . S
C568 O567 1.268 1_554 S
C569 O574 1.254 . S
C569 O575 1.268 1_556 S
O570 Dy563 2.351 . S
O570 C578 1.249 1_556 S
O571 Dy560 2.326 . S
O571 C578 1.267 . S
O572 C561 1.185 . S
O572 Dy563 2.398 . S
O573 C561 1.355 . S
O573 Dy563 2.491 . S
O574 Dy563 2.403 . S
O574 C569 1.254 . S
O575 Dy560 2.310 . S
O575 Dy563 2.664 1_554 S
O575 C569 1.268 1_554 S
O576 Dy560 2.351 . S
O576 C579 1.249 1_554 S
O577 Dy563 2.326 . S
O577 C579 1.267 . S
C578 O570 1.249 1_554 S
C578 O571 1.267 . S
C579 O576 1.249 1_556 S
C579 O577 1.267 . S
Dy580 O584 2.398 . S
Dy580 O585 2.491 . S
Dy580 O586 2.403 . S
Dy580 O587 2.664 1_554 S
Dy580 O591 2.326 . S
Dy580 O595 2.310 . S
Dy580 O596 2.351 . S
C581 O592 1.185 . S
C581 O593 1.355 . S
C582 O584 1.185 . S
C582 O585 1.355 . S
Dy583 O587 2.310 . S
Dy583 O590 2.351 . S
Dy583 O592 2.398 . S
Dy583 O593 2.491 . S
Dy583 O594 2.403 . S
Dy583 O595 2.664 1_556 S
Dy583 O597 2.326 . S
O584 Dy580 2.398 . S
O584 C582 1.185 . S
O585 Dy580 2.491 . S
O585 C582 1.355 . S
O586 Dy580 2.403 . S
O586 C588 1.254 . S
O587 Dy580 2.664 1_556 S
O587 Dy583 2.310 . S
O587 C588 1.268 1_556 S
C588 O586 1.254 . S
C588 O587 1.268 1_554 S
C589 O594 1.254 . S
C589 O595 1.268 1_556 S
O590 Dy583 2.351 . S
O590 C598 1.249 1_556 S
O591 Dy580 2.326 . S
O591 C598 1.267 . S
O592 C581 1.185 . S
O592 Dy583 2.398 . S
O593 C581 1.355 . S
O593 Dy583 2.491 . S
O594 Dy583 2.403 . S
O594 C589 1.254 . S
O595 Dy580 2.310 . S
O595 Dy583 2.664 1_554 S
O595 C589 1.268 1_554 S
O596 Dy580 2.351 . S
O596 C599 1.249 1_554 S
O597 Dy583 2.326 . S
O597 C599 1.267 . S
C598 O590 1.249 1_554 S
C598 O591 1.267 . S
C599 O596 1.249 1_556 S
C599 O597 1.267 . S
Dy600 O604 2.398 . S
Dy600 O605 2.491 . S
Dy600 O606 2.403 . S
Dy600 O607 2.664 . S
Dy600 O611 2.326 . S
Dy600 O615 2.310 . S
Dy600 O616 2.351 . S
C601 O612 1.185 . S
C601 O613 1.355 . S
C602 O604 1.185 . S
C602 O605 1.355 . S
Dy603 O607 2.310 . S
Dy603 O610 2.351 . S
Dy603 O612 2.398 . S
Dy603 O613 2.491 . S
Dy603 O614 2.403 . S
Dy603 O615 2.664 . S
Dy603 O617 2.326 . S
O604 Dy600 2.398 . S
O604 C602 1.185 . S
O605 Dy600 2.491 . S
O605 C602 1.355 . S
O606 Dy600 2.403 . S
O606 C608 1.254 . S
O607 Dy600 2.664 . S
O607 Dy603 2.310 . S
O607 C608 1.268 . S
C608 O606 1.254 . S
C608 O607 1.268 . S
C609 O614 1.254 . S
C609 O615 1.268 . S
O610 Dy603 2.351 . S
O610 C618 1.249 . S
O611 Dy600 2.326 . S
O611 C618 1.267 . S
O612 C601 1.185 . S
O612 Dy603 2.398 . S
O613 C601 1.355 . S
O613 Dy603 2.491 . S
O614 Dy603 2.403 . S
O614 C609 1.254 . S
O615 Dy600 2.310 . S
O615 Dy603 2.664 . S
O615 C609 1.268 . S
O616 Dy600 2.351 . S
O616 C619 1.249 . S
O617 Dy603 2.326 . S
O617 C619 1.267 . S
C618 O610 1.249 . S
C618 O611 1.267 . S
C619 O616 1.249 . S
C619 O617 1.267 . S
Dy620 O624 2.398 . S
Dy620 O625 2.491 . S
Dy620 O626 2.403 . S
Dy620 O627 2.664 . S
Dy620 O631 2.326 . S
Dy620 O635 2.310 . S
Dy620 O636 2.351 . S
C621 O632 1.185 . S
C621 O633 1.355 . S
C622 O624 1.185 . S
C622 O625 1.355 . S
Dy623 O627 2.310 . S
Dy623 O630 2.351 . S
Dy623 O632 2.398 . S
Dy623 O633 2.491 . S
Dy623 O634 2.403 . S
Dy623 O635 2.664 . S
Dy623 O637 2.326 . S
O624 Dy620 2.398 . S
O624 C622 1.185 . S
O625 Dy620 2.491 . S
O625 C622 1.355 . S
O626 Dy620 2.403 . S
O626 C628 1.254 . S
O627 Dy620 2.664 . S
O627 Dy623 2.310 . S
O627 C628 1.268 . S
C628 O626 1.254 . S
C628 O627 1.268 . S
C629 O634 1.254 . S
C629 O635 1.268 . S
O630 Dy623 2.351 . S
O630 C638 1.249 . S
O631 Dy620 2.326 . S
O631 C638 1.267 . S
O632 C621 1.185 . S
O632 Dy623 2.398 . S
O633 C621 1.355 . S
O633 Dy623 2.491 . S
O634 Dy623 2.403 . S
O634 C629 1.254 . S
O635 Dy620 2.310 . S
O635 Dy623 2.664 . S
O635 C629 1.268 . S
O636 Dy620 2.351 . S
O636 C639 1.249 . S
O637 Dy623 2.326 . S
O637 C639 1.267 . S
C638 O630 1.249 . S
C638 O631 1.267 . S
C639 O636 1.249 . S
C639 O637 1.267 . S
Dy640 O644 2.398 . S
Dy640 O645 2.491 . S
Dy640 O646 2.403 . S
Dy640 O647 2.664 . S
Dy640 O651 2.326 . S
Dy640 O655 2.310 . S
Dy640 O656 2.351 . S
C641 O652 1.185 . S
C641 O653 1.355 . S
C642 O644 1.185 . S
C642 O645 1.355 . S
Dy643 O647 2.310 . S
Dy643 O650 2.351 . S
Dy643 O652 2.398 . S
Dy643 O653 2.491 . S
Dy643 O654 2.403 . S
Dy643 O655 2.664 . S
Dy643 O657 2.326 . S
O644 Dy640 2.398 . S
O644 C642 1.185 . S
O645 Dy640 2.491 . S
O645 C642 1.355 . S
O646 Dy640 2.403 . S
O646 C648 1.254 . S
O647 Dy640 2.664 . S
O647 Dy643 2.310 . S
O647 C648 1.268 . S
C648 O646 1.254 . S
C648 O647 1.268 . S
C649 O654 1.254 . S
C649 O655 1.268 . S
O650 Dy643 2.351 . S
O650 C658 1.249 . S
O651 Dy640 2.326 . S
O651 C658 1.267 . S
O652 C641 1.185 . S
O652 Dy643 2.398 . S
O653 C641 1.355 . S
O653 Dy643 2.491 . S
O654 Dy643 2.403 . S
O654 C649 1.254 . S
O655 Dy640 2.310 . S
O655 Dy643 2.664 . S
O655 C649 1.268 . S
O656 Dy640 2.351 . S
O656 C659 1.249 . S
O657 Dy643 2.326 . S
O657 C659 1.267 . S
C658 O650 1.249 . S
C658 O651 1.267 . S
C659 O656 1.249 . S
C659 O657 1.267 . S
Dy660 O664 2.398 . S
Dy660 O665 2.491 . S
Dy660 O666 2.403 . S
Dy660 O667 2.664 . S
Dy660 O671 2.326 . S
Dy660 O675 2.310 . S
Dy660 O676 2.351 . S
C661 O672 1.185 . S
C661 O673 1.355 . S
C662 O664 1.185 . S
C662 O665 1.355 . S
Dy663 O667 2.310 . S
Dy663 O670 2.351 . S
Dy663 O672 2.398 . S
Dy663 O673 2.491 . S
Dy663 O674 2.403 . S
Dy663 O675 2.664 . S
Dy663 O677 2.326 . S
O664 Dy660 2.398 . S
O664 C662 1.185 . S
O665 Dy660 2.491 . S
O665 C662 1.355 . S
O666 Dy660 2.403 . S
O666 C668 1.254 . S
O667 Dy660 2.664 . S
O667 Dy663 2.310 . S
O667 C668 1.268 . S
C668 O666 1.254 . S
C668 O667 1.268 . S
C669 O674 1.254 . S
C669 O675 1.268 . S
O670 Dy663 2.351 . S
O670 C678 1.249 . S
O671 Dy660 2.326 . S
O671 C678 1.267 . S
O672 C661 1.185 . S
O672 Dy663 2.398 . S
O673 C661 1.355 . S
O673 Dy663 2.491 . S
O674 Dy663 2.403 . S
O674 C669 1.254 . S
O675 Dy660 2.310 . S
O675 Dy663 2.664 . S
O675 C669 1.268 . S
O676 Dy660 2.351 . S
O676 C679 1.249 . S
O677 Dy663 2.326 . S
O677 C679 1.267 . S
C678 O670 1.249 . S
C678 O671 1.267 . S
C679 O676 1.249 . S
C679 O677 1.267 . S
Dy680 O684 2.398 . S
Dy680 O685 2.491 . S
Dy680 O686 2.403 . S
Dy680 O687 2.664 . S
Dy680 O691 2.326 . S
Dy680 O695 2.310 . S
Dy680 O696 2.351 . S
C681 O692 1.185 . S
C681 O693 1.355 . S
C682 O684 1.185 . S
C682 O685 1.355 . S
Dy683 O687 2.310 . S
Dy683 O690 2.351 . S
Dy683 O692 2.398 . S
Dy683 O693 2.491 . S
Dy683 O694 2.403 . S
Dy683 O695 2.664 . S
Dy683 O697 2.326 . S
O684 Dy680 2.398 . S
O684 C682 1.185 . S
O685 Dy680 2.491 . S
O685 C682 1.355 . S
O686 Dy680 2.403 . S
O686 C688 1.254 . S
O687 Dy680 2.664 . S
O687 Dy683 2.310 . S
O687 C688 1.268 . S
C688 O686 1.254 . S
C688 O687 1.268 . S
C689 O694 1.254 . S
C689 O695 1.268 . S
O690 Dy683 2.351 . S
O690 C698 1.249 . S
O691 Dy680 2.326 . S
O691 C698 1.267 . S
O692 C681 1.185 . S
O692 Dy683 2.398 . S
O693 C681 1.355 . S
O693 Dy683 2.491 . S
O694 Dy683 2.403 . S
O694 C689 1.254 . S
O695 Dy680 2.310 . S
O695 Dy683 2.664 . S
O695 C689 1.268 . S
O696 Dy680 2.351 . S
O696 C699 1.249 . S
O697 Dy683 2.326 . S
O697 C699 1.267 . S
C698 O690 1.249 . S
C698 O691 1.267 . S
C699 O696 1.249 . S
C699 O697 1.267 . S
Dy700 O704 2.398 . S
Dy700 O705 2.491 . S
Dy700 O706 2.403 . S
Dy700 O707 2.664 . S
Dy700 O711 2.326 . S
Dy700 O715 2.310 . S
Dy700 O716 2.351 . S
C701 O712 1.185 . S
C701 O713 1.355 . S
C702 O704 1.185 . S
C702 O705 1.355 . S
Dy703 O707 2.310 . S
Dy703 O710 2.351 . S
Dy703 O712 2.398 . S
Dy703 O713 2.491 . S
Dy703 O714 2.403 . S
Dy703 O715 2.664 . S
Dy703 O717 2.326 . S
O704 Dy700 2.398 . S
O704 C702 1.185 . S
O705 Dy700 2.491 . S
O705 C702 1.355 . S
O706 Dy700 2.403 . S
O706 C708 1.254 . S
O707 Dy700 2.664 . S
O707 Dy703 2.310 . S
O707 C708 1.268 . S
C708 O706 1.254 . S
C708 O707 1.268 . S
C709 O714 1.254 . S
C709 O715 1.268 . S
O710 Dy703 2.351 . S
O710 C718 1.249 . S
O711 Dy700 2.326 . S
O711 C718 1.267 . S
O712 C701 1.185 . S
O712 Dy703 2.398 . S
O713 C701 1.355 . S
O713 Dy703 2.491 . S
O714 Dy703 2.403 . S
O714 C709 1.254 . S
O715 Dy700 2.310 . S
O715 Dy703 2.664 . S
O715 C709 1.268 . S
O716 Dy700 2.351 . S
O716 C719 1.249 . S
O717 Dy703 2.326 . S
O717 C719 1.267 . S
C718 O710 1.249 . S
C718 O711 1.267 . S
C719 O716 1.249 . S
C719 O717 1.267 . S
H720 C726 0.930 . S
H721 C729 0.930 . S
H722 C730 0.930 . S
H723 C731 0.930 . S
H724 C734 0.930 . S
H725 C735 0.930 . S
C726 H720 0.930 . S
C726 C727 1.355 . S
C726 C728 1.415 . S
C727 C726 1.355 . S
C727 C729 1.419 . S
C728 C726 1.415 . S
C728 C733 1.425 . S
C728 C735 1.409 . S
C729 H721 0.930 . S
C729 C727 1.419 . S
C729 C730 1.362 . S
C730 H722 0.930 . S
C730 C729 1.362 . S
C730 C733 1.409 . S
C731 H723 0.930 . S
C731 C732 1.355 . S
C731 C733 1.415 . S
C732 C731 1.355 . S
C732 C734 1.419 1_545 S
C733 C728 1.425 . S
C733 C730 1.409 . S
C733 C731 1.415 . S
C734 H724 0.930 . S
C734 C732 1.419 1_565 S
C734 C735 1.362 1_565 S
C735 H725 0.930 . S
C735 C728 1.409 . S
C735 C734 1.362 1_545 S
H736 C742 0.930 1_455 S
H737 C745 0.930 . S
H738 C746 0.930 . S
H739 C747 0.930 . S
H740 C750 0.930 . S
H741 C751 0.930 . S
C742 H736 0.930 1_655 S
C742 C743 1.355 . S
C742 C744 1.415 . S
C743 C742 1.355 . S
C743 C745 1.419 . S
C744 C742 1.415 . S
C744 C749 1.425 . S
C744 C751 1.409 . S
C745 H737 0.930 . S
C745 C743 1.419 . S
C745 C746 1.362 . S
C746 H738 0.930 . S
C746 C745 1.362 . S
C746 C749 1.409 . S
C747 H739 0.930 . S
C747 C748 1.357 1_545 S
C747 C749 1.415 . S
C748 C747 1.357 1_565 S
C748 C750 1.417 . S
C749 C744 1.425 . S
C749 C746 1.409 . S
C749 C747 1.415 . S
C750 H740 0.930 . S
C750 C748 1.417 . S
C750 C751 1.362 1_565 S
C751 H741 0.930 . S
C751 C744 1.409 . S
C751 C750 1.362 1_545 S
H752 C758 0.930 . S
H753 C761 0.930 . S
H754 C762 0.930 . S
H755 C763 0.930 . S
H756 C766 0.930 . S
H757 C767 0.930 . S
C758 H752 0.930 . S
C758 C759 1.357 1_655 S
C758 C760 1.415 . S
C759 C758 1.357 1_455 S
C759 C761 1.420 . S
C760 C758 1.415 . S
C760 C765 1.425 . S
C760 C767 1.409 . S
C761 H753 0.930 . S
C761 C759 1.420 . S
C761 C762 1.362 1_455 S
C762 H754 0.930 . S
C762 C761 1.362 1_655 S
C762 C765 1.409 . S
C763 H755 0.930 . S
C763 C764 1.355 . S
C763 C765 1.415 . S
C764 C763 1.355 . S
C764 C766 1.419 . S
C765 C760 1.425 . S
C765 C762 1.409 . S
C765 C763 1.415 . S
C766 H756 0.930 . S
C766 C764 1.419 . S
C766 C767 1.362 . S
C767 H757 0.930 . S
C767 C760 1.409 . S
C767 C766 1.362 . S
H768 C774 0.930 . S
H769 C777 0.930 . S
H770 C778 0.930 . S
H771 C779 0.930 . S
H772 C782 0.930 . S
H773 C783 0.930 . S
C774 H768 0.930 . S
C774 C775 1.355 . S
C774 C776 1.415 . S
C775 C774 1.355 . S
C775 C777 1.419 . S
C776 C774 1.415 . S
C776 C781 1.425 . S
C776 C783 1.409 . S
C777 H769 0.930 . S
C777 C775 1.419 . S
C777 C778 1.362 . S
C778 H770 0.930 . S
C778 C777 1.362 . S
C778 C781 1.409 . S
C779 H771 0.930 . S
C779 C780 1.355 . S
C779 C781 1.415 . S
C780 C779 1.355 . S
C780 C782 1.419 . S
C781 C776 1.425 . S
C781 C778 1.409 . S
C781 C779 1.415 . S
C782 H772 0.930 . S
C782 C780 1.419 . S
C782 C783 1.362 . S
C783 H773 0.930 . S
C783 C776 1.409 . S
C783 C782 1.362 . S
H784 C790 0.930 . S
H785 C793 0.930 . S
H786 C794 0.930 . S
H787 C795 0.930 1_545 S
H788 C798 0.930 . S
H789 C799 0.930 . S
C790 H784 0.930 . S
C790 C791 1.355 . S
C790 C792 1.415 . S
C791 C790 1.355 . S
C791 C793 1.419 . S
C792 C790 1.415 . S
C792 C797 1.425 . S
C792 C799 1.409 . S
C793 H785 0.930 . S
C793 C791 1.419 . S
C793 C794 1.362 . S
C794 H786 0.930 . S
C794 C793 1.362 . S
C794 C797 1.409 . S
C795 H787 0.930 1_565 S
C795 C796 1.355 . S
C795 C797 1.415 . S
C796 C795 1.355 . S
C796 C798 1.419 . S
C797 C792 1.425 . S
C797 C794 1.409 . S
C797 C795 1.415 . S
C798 H788 0.930 . S
C798 C796 1.419 . S
C798 C799 1.362 . S
C799 H789 0.930 . S
C799 C792 1.409 . S
C799 C798 1.362 . S
H800 C806 0.930 . S
H801 C809 0.930 . S
H802 C810 0.930 . S
H803 C811 0.930 1_545 S
H804 C814 0.930 . S
H805 C815 0.930 . S
C806 H800 0.930 . S
C806 C807 1.372 . S
C806 C808 1.415 . S
C807 C806 1.372 . S
C807 C809 1.407 1_455 S
C808 C806 1.415 . S
C808 C813 1.425 . S
C808 C815 1.409 . S
C809 H801 0.930 . S
C809 C807 1.407 1_655 S
C809 C810 1.362 1_655 S
C810 H802 0.930 . S
C810 C809 1.362 1_455 S
C810 C813 1.409 . S
C811 H803 0.930 1_565 S
C811 C812 1.355 . S
C811 C813 1.415 . S
C812 C811 1.355 . S
C812 C814 1.419 . S
C813 C808 1.425 . S
C813 C810 1.409 . S
C813 C811 1.415 . S
C814 H804 0.930 . S
C814 C812 1.419 . S
C814 C815 1.362 . S
C815 H805 0.930 . S
C815 C808 1.409 . S
C815 C814 1.362 . S
H816 C822 0.930 . S
H817 C825 0.930 . S
H818 C826 0.930 . S
H819 C827 0.930 . S
H820 C830 0.930 1_545 S
H821 C831 0.930 . S
C822 H816 0.930 . S
C822 C823 1.355 . S
C822 C824 1.415 . S
C823 C822 1.355 . S
C823 C825 1.419 . S
C824 C822 1.415 . S
C824 C829 1.425 . S
C824 C831 1.409 . S
C825 H817 0.930 . S
C825 C823 1.419 . S
C825 C826 1.362 . S
C826 H818 0.930 . S
C826 C825 1.362 . S
C826 C829 1.409 . S
C827 H819 0.930 . S
C827 C828 1.355 . S
C827 C829 1.415 . S
C828 C827 1.355 . S
C828 C830 1.419 . S
C829 C824 1.425 . S
C829 C826 1.409 . S
C829 C827 1.415 . S
C830 H820 0.930 1_565 S
C830 C828 1.419 . S
C830 C831 1.362 . S
C831 H821 0.930 . S
C831 C824 1.409 . S
C831 C830 1.362 . S
H832 C838 0.930 . S
H833 C841 0.930 1_545 S
H834 C842 0.930 . S
H835 C843 0.930 . S
H836 C846 0.930 . S
H837 C847 0.930 . S
C838 H832 0.930 . S
C838 C839 1.355 . S
C838 C840 1.415 . S
C839 C838 1.355 . S
C839 C841 1.419 . S
C840 C838 1.415 . S
C840 C845 1.425 . S
C840 C847 1.409 . S
C841 H833 0.930 1_565 S
C841 C839 1.419 . S
C841 C842 1.362 . S
C842 H834 0.930 . S
C842 C841 1.362 . S
C842 C845 1.409 . S
C843 H835 0.930 . S
C843 C844 1.355 . S
C843 C845 1.415 . S
C844 C843 1.355 . S
C844 C846 1.419 . S
C845 C840 1.425 . S
C845 C842 1.409 . S
C845 C843 1.415 . S
C846 H836 0.930 . S
C846 C844 1.419 . S
C846 C847 1.362 . S
C847 H837 0.930 . S
C847 C840 1.409 . S
C847 C846 1.362 . S
H848 C854 0.930 1_655 S
H849 C857 0.930 . S
H850 C858 0.930 . S
H851 C859 0.930 . S
H852 C862 0.930 . S
H853 C863 0.930 . S
C854 H848 0.930 1_455 S
C854 C855 1.355 . S
C854 C856 1.415 . S
C855 C854 1.355 . S
C855 C857 1.419 . S
C856 C854 1.415 . S
C856 C861 1.425 . S
C856 C863 1.409 . S
C857 H849 0.930 . S
C857 C855 1.419 . S
C857 C858 1.362 . S
C858 H850 0.930 . S
C858 C857 1.362 . S
C858 C861 1.409 . S
C859 H851 0.930 . S
C859 C860 1.355 . S
C859 C861 1.415 . S
C860 C859 1.355 . S
C860 C862 1.419 . S
C861 C856 1.425 . S
C861 C858 1.409 . S
C861 C859 1.415 . S
C862 H852 0.930 . S
C862 C860 1.419 . S
C862 C863 1.362 . S
C863 H853 0.930 . S
C863 C856 1.409 . S
C863 C862 1.362 . S
H864 C870 0.930 . S
H865 C873 0.930 . S
H866 C874 0.930 . S
H867 C875 0.930 . S
H868 C878 0.930 1_455 S
H869 C879 0.930 . S
C870 H864 0.930 . S
C870 C871 1.355 . S
C870 C872 1.415 . S
C871 C870 1.355 . S
C871 C873 1.419 . S
C872 C870 1.415 . S
C872 C877 1.425 . S
C872 C879 1.409 . S
C873 H865 0.930 . S
C873 C871 1.419 . S
C873 C874 1.362 . S
C874 H866 0.930 . S
C874 C873 1.362 . S
C874 C877 1.409 . S
C875 H867 0.930 . S
C875 C876 1.355 . S
C875 C877 1.415 . S
C876 C875 1.355 . S
C876 C878 1.419 . S
C877 C872 1.425 . S
C877 C874 1.409 . S
C877 C875 1.415 . S
C878 H868 0.930 1_655 S
C878 C876 1.419 . S
C878 C879 1.362 . S
C879 H869 0.930 . S
C879 C872 1.409 . S
C879 C878 1.362 . S
H880 C886 0.930 . S
H881 C889 0.930 . S
H882 C890 0.930 . S
H883 C891 0.930 . S
H884 C894 0.930 . S
H885 C895 0.930 . S
C886 H880 0.930 . S
C886 C887 1.355 . S
C886 C888 1.415 . S
C887 C886 1.355 . S
C887 C889 1.419 . S
C888 C886 1.415 . S
C888 C893 1.425 . S
C888 C895 1.409 . S
C889 H881 0.930 . S
C889 C887 1.419 . S
C889 C890 1.362 . S
C890 H882 0.930 . S
C890 C889 1.362 . S
C890 C893 1.409 . S
C891 H883 0.930 . S
C891 C892 1.364 . S
C891 C893 1.415 . S
C892 C891 1.364 . S
C892 C894 1.424 1_545 S
C893 C888 1.425 . S
C893 C890 1.409 . S
C893 C891 1.415 . S
C894 H884 0.930 . S
C894 C892 1.424 1_565 S
C894 C895 1.362 1_565 S
C895 H885 0.930 . S
C895 C888 1.409 . S
C895 C894 1.362 1_545 S
H896 C902 0.930 . S
H897 C905 0.930 1_565 S
H898 C906 0.930 . S
H899 C907 0.930 1_455 S
H900 C910 0.930 . S
H901 C911 0.930 . S
C902 H896 0.930 . S
C902 C903 1.355 . S
C902 C904 1.415 . S
C903 C902 1.355 . S
C903 C905 1.419 . S
C904 C902 1.415 . S
C904 C909 1.425 . S
C904 C911 1.409 . S
C905 H897 0.930 1_545 S
C905 C903 1.419 . S
C905 C906 1.362 . S
C906 H898 0.930 . S
C906 C905 1.362 . S
C906 C909 1.409 . S
C907 H899 0.930 1_655 S
C907 C908 1.355 . S
C907 C909 1.415 . S
C908 C907 1.355 . S
C908 C910 1.419 . S
C909 C904 1.425 . S
C909 C906 1.409 . S
C909 C907 1.415 . S
C910 H900 0.930 . S
C910 C908 1.419 . S
C910 C911 1.362 . S
C911 H901 0.930 . S
C911 C904 1.409 . S
C911 C910 1.362 . S
H912 C918 0.930 . S
H913 C921 0.930 . S
H914 C922 0.930 . S
H915 C923 0.930 . S
H916 C926 0.930 . S
H917 C927 0.930 . S
C918 H912 0.930 . S
C918 C919 1.355 . S
C918 C920 1.415 . S
C919 C918 1.355 . S
C919 C921 1.419 . S
C920 C918 1.415 . S
C920 C925 1.425 . S
C920 C927 1.409 . S
C921 H913 0.930 . S
C921 C919 1.419 . S
C921 C922 1.362 . S
C922 H914 0.930 . S
C922 C921 1.362 . S
C922 C925 1.409 . S
C923 H915 0.930 . S
C923 C924 1.355 . S
C923 C925 1.415 . S
C924 C923 1.355 . S
C924 C926 1.419 . S
C925 C920 1.425 . S
C925 C922 1.409 . S
C925 C923 1.415 . S
C926 H916 0.930 . S
C926 C924 1.419 . S
C926 C927 1.362 . S
C927 H917 0.930 . S
C927 C920 1.409 . S
C927 C926 1.362 . S
H928 C934 0.930 . S
H929 C937 0.930 . S
H930 C938 0.930 . S
H931 C939 0.930 . S
H932 C942 0.930 . S
H933 C943 0.930 . S
C934 H928 0.930 . S
C934 C935 1.355 . S
C934 C936 1.415 . S
C935 C934 1.355 . S
C935 C937 1.419 . S
C936 C934 1.415 . S
C936 C941 1.425 . S
C936 C943 1.409 . S
C937 H929 0.930 . S
C937 C935 1.419 . S
C937 C938 1.362 . S
C938 H930 0.930 . S
C938 C937 1.362 . S
C938 C941 1.409 . S
C939 H931 0.930 . S
C939 C940 1.355 . S
C939 C941 1.415 . S
C940 C939 1.355 . S
C940 C942 1.419 . S
C941 C936 1.425 . S
C941 C938 1.409 . S
C941 C939 1.415 . S
C942 H932 0.930 . S
C942 C940 1.419 . S
C942 C943 1.362 . S
C943 H933 0.930 . S
C943 C936 1.409 . S
C943 C942 1.362 . S
H944 C950 0.930 . S
H945 C953 0.930 . S
H946 C954 0.930 . S
H947 C955 0.930 . S
H948 C958 0.930 . S
H949 C959 0.930 . S
C950 H944 0.930 . S
C950 C951 1.355 . S
C950 C952 1.415 . S
C951 C950 1.355 . S
C951 C953 1.419 . S
C952 C950 1.415 . S
C952 C957 1.425 . S
C952 C959 1.409 . S
C953 H945 0.930 . S
C953 C951 1.419 . S
C953 C954 1.362 . S
C954 H946 0.930 . S
C954 C953 1.362 . S
C954 C957 1.409 . S
C955 H947 0.930 . S
C955 C956 1.355 . S
C955 C957 1.415 . S
C956 C955 1.355 . S
C956 C958 1.419 . S
C957 C952 1.425 . S
C957 C954 1.409 . S
C957 C955 1.415 . S
C958 H948 0.930 . S
C958 C956 1.419 . S
C958 C959 1.362 . S
C959 H949 0.930 . S
C959 C952 1.409 . S
C959 C958 1.362 . S
H960 C966 0.930 . S
H961 C969 0.930 . S
H962 C970 0.930 . S
H963 C971 0.930 . S
H964 C974 0.930 . S
H965 C975 0.930 . S
C966 H960 0.930 . S
C966 C967 1.355 . S
C966 C968 1.415 . S
C967 C966 1.355 . S
C967 C969 1.419 . S
C968 C966 1.415 . S
C968 C973 1.425 . S
C968 C975 1.409 . S
C969 H961 0.930 . S
C969 C967 1.419 . S
C969 C970 1.362 . S
C970 H962 0.930 . S
C970 C969 1.362 . S
C970 C973 1.409 . S
C971 H963 0.930 . S
C971 C972 1.355 . S
C971 C973 1.415 . S
C972 C971 1.355 . S
C972 C974 1.419 . S
C973 C968 1.425 . S
C973 C970 1.409 . S
C973 C971 1.415 . S
C974 H964 0.930 . S
C974 C972 1.419 . S
C974 C975 1.362 . S
C975 H965 0.930 . S
C975 C968 1.409 . S
C975 C974 1.362 . S
H976 C982 0.930 . S
H977 C985 0.930 . S
H978 C986 0.930 . S
H979 C987 0.930 . S
H980 C990 0.930 . S
H981 C991 0.930 . S
C982 H976 0.930 . S
C982 C983 1.355 . S
C982 C984 1.415 . S
C983 C982 1.355 . S
C983 C985 1.419 . S
C984 C982 1.415 . S
C984 C989 1.425 . S
C984 C991 1.409 . S
C985 H977 0.930 . S
C985 C983 1.419 . S
C985 C986 1.362 . S
C986 H978 0.930 . S
C986 C985 1.362 . S
C986 C989 1.409 . S
C987 H979 0.930 . S
C987 C988 1.355 . S
C987 C989 1.415 . S
C988 C987 1.355 . S
C988 C990 1.419 . S
C989 C984 1.425 . S
C989 C986 1.409 . S
C989 C987 1.415 . S
C990 H980 0.930 . S
C990 C988 1.419 . S
C990 C991 1.362 . S
C991 H981 0.930 . S
C991 C984 1.409 . S
C991 C990 1.362 . S
H992 C998 0.930 . S
H993 C1001 0.930 . S
H994 C1002 0.930 . S
H995 C1003 0.930 . S
H996 C1006 0.930 . S
H997 C1007 0.930 . S
C998 H992 0.930 . S
C998 C999 1.355 . S
C998 C1000 1.415 . S
C999 C998 1.355 . S
C999 C1001 1.419 . S
C1000 C998 1.415 . S
C1000 C1005 1.425 . S
C1000 C1007 1.409 . S
C1001 H993 0.930 . S
C1001 C999 1.419 . S
C1001 C1002 1.362 . S
C1002 H994 0.930 . S
C1002 C1001 1.362 . S
C1002 C1005 1.409 . S
C1003 H995 0.930 . S
C1003 C1004 1.355 . S
C1003 C1005 1.415 . S
C1004 C1003 1.355 . S
C1004 C1006 1.419 . S
C1005 C1000 1.425 . S
C1005 C1002 1.409 . S
C1005 C1003 1.415 . S
C1006 H996 0.930 . S
C1006 C1004 1.419 . S
C1006 C1007 1.362 . S
C1007 H997 0.930 . S
C1007 C1000 1.409 . S
C1007 C1006 1.362 . S
H1008 C1014 0.930 . S
H1009 C1017 0.930 . S
H1010 C1018 0.930 . S
H1011 C1019 0.930 . S
H1012 C1022 0.930 . S
H1013 C1023 0.930 . S
C1014 H1008 0.930 . S
C1014 C1015 1.355 . S
C1014 C1016 1.415 . S
C1015 C1014 1.355 . S
C1015 C1017 1.419 . S
C1016 C1014 1.415 . S
C1016 C1021 1.425 . S
C1016 C1023 1.409 . S
C1017 H1009 0.930 . S
C1017 C1015 1.419 . S
C1017 C1018 1.362 . S
C1018 H1010 0.930 . S
C1018 C1017 1.362 . S
C1018 C1021 1.409 . S
C1019 H1011 0.930 . S
C1019 C1020 1.355 . S
C1019 C1021 1.415 . S
C1020 C1019 1.355 . S
C1020 C1022 1.419 . S
C1021 C1016 1.425 . S
C1021 C1018 1.409 . S
C1021 C1019 1.415 . S
C1022 H1012 0.930 . S
C1022 C1020 1.419 . S
C1022 C1023 1.362 . S
C1023 H1013 0.930 . S
C1023 C1016 1.409 . S
C1023 C1022 1.362 . S
H1024 C1030 0.930 . S
H1025 C1033 0.930 . S
H1026 C1034 0.930 . S
H1027 C1035 0.930 . S
H1028 C1038 0.930 . S
H1029 C1039 0.930 . S
C1030 H1024 0.930 . S
C1030 C1031 1.355 . S
C1030 C1032 1.415 . S
C1031 C1030 1.355 . S
C1031 C1033 1.419 . S
C1032 C1030 1.415 . S
C1032 C1037 1.425 . S
C1032 C1039 1.409 . S
C1033 H1025 0.930 . S
C1033 C1031 1.419 . S
C1033 C1034 1.362 . S
C1034 H1026 0.930 . S
C1034 C1033 1.362 . S
C1034 C1037 1.409 . S
C1035 H1027 0.930 . S
C1035 C1036 1.355 . S
C1035 C1037 1.415 . S
C1036 C1035 1.355 . S
C1036 C1038 1.419 . S
C1037 C1032 1.425 . S
C1037 C1034 1.409 . S
C1037 C1035 1.415 . S
C1038 H1028 0.930 . S
C1038 C1036 1.419 . S
C1038 C1039 1.362 . S
C1039 H1029 0.930 . S
C1039 C1032 1.409 . S
C1039 C1038 1.362 . S
H1040 C1046 0.930 . S
H1041 C1049 0.930 . S
H1042 C1050 0.930 . S
H1043 C1051 0.930 . S
H1044 C1054 0.930 . S
H1045 C1055 0.930 . S
C1046 H1040 0.930 . S
C1046 C1047 1.355 . S
C1046 C1048 1.415 . S
C1047 C1046 1.355 . S
C1047 C1049 1.419 . S
C1048 C1046 1.415 . S
C1048 C1053 1.425 . S
C1048 C1055 1.409 . S
C1049 H1041 0.930 . S
C1049 C1047 1.419 . S
C1049 C1050 1.362 . S
C1050 H1042 0.930 . S
C1050 C1049 1.362 . S
C1050 C1053 1.409 . S
C1051 H1043 0.930 . S
C1051 C1052 1.355 . S
C1051 C1053 1.415 . S
C1052 C1051 1.355 . S
C1052 C1054 1.419 . S
C1053 C1048 1.425 . S
C1053 C1050 1.409 . S
C1053 C1051 1.415 . S
C1054 H1044 0.930 . S
C1054 C1052 1.419 . S
C1054 C1055 1.362 . S
C1055 H1045 0.930 . S
C1055 C1048 1.409 . S
C1055 C1054 1.362 . S
H1056 C1062 0.925 1_556 S
H1057 C1065 0.930 . S
H1058 C1066 0.930 . S
H1059 C1067 0.930 . S
H1060 C1070 0.930 . S
H1061 C1071 0.930 . S
C1062 H1056 0.925 1_554 S
C1062 C1063 1.360 . S
C1062 C1064 1.414 1_554 S
C1063 C1062 1.360 . S
C1063 C1065 1.419 . S
C1064 C1062 1.414 1_556 S
C1064 C1069 1.426 1_556 S
C1064 C1071 1.408 . S
C1065 H1057 0.930 . S
C1065 C1063 1.419 . S
C1065 C1066 1.362 . S
C1066 H1058 0.930 . S
C1066 C1065 1.362 . S
C1066 C1069 1.409 . S
C1067 H1059 0.930 . S
C1067 C1068 1.353 1_554 S
C1067 C1069 1.415 . S
C1068 C1067 1.353 1_556 S
C1068 C1070 1.421 . S
C1069 C1064 1.426 1_554 S
C1069 C1066 1.409 . S
C1069 C1067 1.415 . S
C1070 H1060 0.930 . S
C1070 C1068 1.421 . S
C1070 C1071 1.362 . S
C1071 H1061 0.930 . S
C1071 C1064 1.408 . S
C1071 C1070 1.362 . S
H1072 C1078 0.930 . S
H1073 C1081 0.930 . S
H1074 C1082 0.930 . S
H1075 C1083 0.930 . S
H1076 C1086 0.930 . S
H1077 C1087 0.930 . S
C1078 H1072 0.930 . S
C1078 C1079 1.308 1_554 S
C1078 C1080 1.415 . S
C1079 C1078 1.308 1_556 S
C1079 C1081 1.475 . S
C1080 C1078 1.415 . S
C1080 C1085 1.425 1_554 S
C1080 C1087 1.409 . S
C1081 H1073 0.930 . S
C1081 C1079 1.475 . S
C1081 C1082 1.362 . S
C1082 H1074 0.930 . S
C1082 C1081 1.362 . S
C1082 C1085 1.409 . S
C1083 H1075 0.930 . S
C1083 C1084 1.355 1_556 S
C1083 C1085 1.415 . S
C1084 C1083 1.355 1_554 S
C1084 C1086 1.419 . S
C1085 C1080 1.425 1_556 S
C1085 C1082 1.409 . S
C1085 C1083 1.415 . S
C1086 H1076 0.930 . S
C1086 C1084 1.419 . S
C1086 C1087 1.362 . S
C1087 H1077 0.930 . S
C1087 C1080 1.409 . S
C1087 C1086 1.362 . S
H1088 C1094 0.930 . S
H1089 C1097 0.930 . S
H1090 C1098 0.930 . S
H1091 C1099 0.930 . S
H1092 C1102 0.930 . S
H1093 C1103 0.930 . S
C1094 H1088 0.930 . S
C1094 C1095 1.355 1_556 S
C1094 C1096 1.415 . S
C1095 C1094 1.355 1_554 S
C1095 C1097 1.419 . S
C1096 C1094 1.415 . S
C1096 C1101 1.425 1_556 S
C1096 C1103 1.409 . S
C1097 H1089 0.930 . S
C1097 C1095 1.419 . S
C1097 C1098 1.362 . S
C1098 H1090 0.930 . S
C1098 C1097 1.362 . S
C1098 C1101 1.409 . S
C1099 H1091 0.930 . S
C1099 C1100 1.369 . S
C1099 C1101 1.415 . S
C1100 C1099 1.369 . S
C1100 C1102 1.404 1_554 S
C1101 C1096 1.425 1_554 S
C1101 C1098 1.409 . S
C1101 C1099 1.415 . S
C1102 H1092 0.930 . S
C1102 C1100 1.404 1_556 S
C1102 C1103 1.362 . S
C1103 H1093 0.930 . S
C1103 C1096 1.409 . S
C1103 C1102 1.362 . S
H1104 C1110 0.930 . S
H1105 C1113 0.930 . S
H1106 C1114 0.930 . S
H1107 C1115 0.930 . S
H1108 C1118 0.930 . S
H1109 C1119 0.930 . S
C1110 H1104 0.930 . S
C1110 C1111 1.355 . S
C1110 C1112 1.415 . S
C1111 C1110 1.355 . S
C1111 C1113 1.419 . S
C1112 C1110 1.415 . S
C1112 C1117 1.425 . S
C1112 C1119 1.409 . S
C1113 H1105 0.930 . S
C1113 C1111 1.419 . S
C1113 C1114 1.362 . S
C1114 H1106 0.930 . S
C1114 C1113 1.362 . S
C1114 C1117 1.409 . S
C1115 H1107 0.930 . S
C1115 C1116 1.355 . S
C1115 C1117 1.415 . S
C1116 C1115 1.355 . S
C1116 C1118 1.419 . S
C1117 C1112 1.425 . S
C1117 C1114 1.409 . S
C1117 C1115 1.415 . S
C1118 H1108 0.930 . S
C1118 C1116 1.419 . S
C1118 C1119 1.362 . S
C1119 H1109 0.930 . S
C1119 C1112 1.409 . S
C1119 C1118 1.362 . S
H1120 C1126 0.930 . S
H1121 C1129 0.930 . S
H1122 C1130 0.930 . S
H1123 C1131 0.930 . S
H1124 C1134 0.930 . S
H1125 C1135 0.930 . S
C1126 H1120 0.930 . S
C1126 C1127 1.355 . S
C1126 C1128 1.415 . S
C1127 C1126 1.355 . S
C1127 C1129 1.419 . S
C1128 C1126 1.415 . S
C1128 C1133 1.425 . S
C1128 C1135 1.409 . S
C1129 H1121 0.930 . S
C1129 C1127 1.419 . S
C1129 C1130 1.362 . S
C1130 H1122 0.930 . S
C1130 C1129 1.362 . S
C1130 C1133 1.409 . S
C1131 H1123 0.930 . S
C1131 C1132 1.355 . S
C1131 C1133 1.415 . S
C1132 C1131 1.355 . S
C1132 C1134 1.419 . S
C1133 C1128 1.425 . S
C1133 C1130 1.409 . S
C1133 C1131 1.415 . S
C1134 H1124 0.930 . S
C1134 C1132 1.419 . S
C1134 C1135 1.362 . S
C1135 H1125 0.930 . S
C1135 C1128 1.409 . S
C1135 C1134 1.362 . S
H1136 C1142 0.930 . S
H1137 C1145 0.930 . S
H1138 C1146 0.930 . S
H1139 C1147 0.930 . S
H1140 C1150 0.930 . S
H1141 C1151 0.930 . S
C1142 H1136 0.930 . S
C1142 C1143 1.355 . S
C1142 C1144 1.415 . S
C1143 C1142 1.355 . S
C1143 C1145 1.419 . S
C1144 C1142 1.415 . S
C1144 C1149 1.425 . S
C1144 C1151 1.409 . S
C1145 H1137 0.930 . S
C1145 C1143 1.419 . S
C1145 C1146 1.362 . S
C1146 H1138 0.930 . S
C1146 C1145 1.362 . S
C1146 C1149 1.409 . S
C1147 H1139 0.930 . S
C1147 C1148 1.355 . S
C1147 C1149 1.415 . S
C1148 C1147 1.355 . S
C1148 C1150 1.419 . S
C1149 C1144 1.425 . S
C1149 C1146 1.409 . S
C1149 C1147 1.415 . S
C1150 H1140 0.930 . S
C1150 C1148 1.419 . S
C1150 C1151 1.362 . S
C1151 H1141 0.930 . S
C1151 C1144 1.409 . S
C1151 C1150 1.362 . S
H1152 C1158 0.930 . S
H1153 C1161 0.930 . S
H1154 C1162 0.930 . S
H1155 C1163 0.930 . S
H1156 C1166 0.930 . S
H1157 C1167 0.930 . S
C1158 H1152 0.930 . S
C1158 C1159 1.346 1_556 S
C1158 C1160 1.415 . S
C1159 C1158 1.346 1_554 S
C1159 C1161 1.430 . S
C1160 C1158 1.415 . S
C1160 C1165 1.425 1_556 S
C1160 C1167 1.409 . S
C1161 H1153 0.930 . S
C1161 C1159 1.430 . S
C1161 C1162 1.362 . S
C1162 H1154 0.930 . S
C1162 C1161 1.362 . S
C1162 C1165 1.409 . S
C1163 H1155 0.930 . S
C1163 C1164 1.355 1_554 S
C1163 C1165 1.415 . S
C1164 C1163 1.355 1_556 S
C1164 C1166 1.419 . S
C1165 C1160 1.425 1_554 S
C1165 C1162 1.409 . S
C1165 C1163 1.415 . S
C1166 H1156 0.930 . S
C1166 C1164 1.419 . S
C1166 C1167 1.362 . S
C1167 H1157 0.930 . S
C1167 C1160 1.409 . S
C1167 C1166 1.362 . S
H1168 C1174 0.930 . S
H1169 C1177 0.930 . S
H1170 C1178 0.930 . S
H1171 C1179 0.930 . S
H1172 C1182 0.930 . S
H1173 C1183 0.930 . S
C1174 H1168 0.930 . S
C1174 C1175 1.355 1_554 S
C1174 C1176 1.415 . S
C1175 C1174 1.355 1_556 S
C1175 C1177 1.419 . S
C1176 C1174 1.415 . S
C1176 C1181 1.425 1_554 S
C1176 C1183 1.409 . S
C1177 H1169 0.930 . S
C1177 C1175 1.419 . S
C1177 C1178 1.362 . S
C1178 H1170 0.930 . S
C1178 C1177 1.362 . S
C1178 C1181 1.409 . S
C1179 H1171 0.930 . S
C1179 C1180 1.355 . S
C1179 C1181 1.415 . S
C1180 C1179 1.355 . S
C1180 C1182 1.419 1_556 S
C1181 C1176 1.425 1_556 S
C1181 C1178 1.409 . S
C1181 C1179 1.415 . S
C1182 H1172 0.930 . S
C1182 C1180 1.419 1_554 S
C1182 C1183 1.362 . S
C1183 H1173 0.930 . S
C1183 C1176 1.409 . S
C1183 C1182 1.362 . S
H1184 C1190 0.930 . S
H1185 C1193 0.930 . S
H1186 C1194 0.930 . S
H1187 C1195 0.930 . S
H1188 C1198 0.930 . S
H1189 C1199 0.930 . S
C1190 H1184 0.930 . S
C1190 C1191 1.355 1_554 S
C1190 C1192 1.415 . S
C1191 C1190 1.355 1_556 S
C1191 C1193 1.419 . S
C1192 C1190 1.415 . S
C1192 C1197 1.425 1_554 S
C1192 C1199 1.409 . S
C1193 H1185 0.930 . S
C1193 C1191 1.419 . S
C1193 C1194 1.362 . S
C1194 H1186 0.930 . S
C1194 C1193 1.362 . S
C1194 C1197 1.409 . S
C1195 H1187 0.930 . S
C1195 C1196 1.355 . S
C1195 C1197 1.415 . S
C1196 C1195 1.355 . S
C1196 C1198 1.419 1_556 S
C1197 C1192 1.425 1_556 S
C1197 C1194 1.409 . S
C1197 C1195 1.415 . S
C1198 H1188 0.930 . S
C1198 C1196 1.419 1_554 S
C1198 C1199 1.362 . S
C1199 H1189 0.930 . S
C1199 C1192 1.409 . S
C1199 C1198 1.362 . S
H1200 C1206 0.930 . S
H1201 C1209 0.930 . S
H1202 C1210 0.930 . S
H1203 C1211 0.930 . S
H1204 C1214 0.930 . S
H1205 C1215 0.930 . S
C1206 H1200 0.930 . S
C1206 C1207 1.355 . S
C1206 C1208 1.415 . S
C1207 C1206 1.355 . S
C1207 C1209 1.419 . S
C1208 C1206 1.415 . S
C1208 C1213 1.425 . S
C1208 C1215 1.409 . S
C1209 H1201 0.930 . S
C1209 C1207 1.419 . S
C1209 C1210 1.362 . S
C1210 H1202 0.930 . S
C1210 C1209 1.362 . S
C1210 C1213 1.409 . S
C1211 H1203 0.930 . S
C1211 C1212 1.355 . S
C1211 C1213 1.415 . S
C1212 C1211 1.355 . S
C1212 C1214 1.419 . S
C1213 C1208 1.425 . S
C1213 C1210 1.409 . S
C1213 C1211 1.415 . S
C1214 H1204 0.930 . S
C1214 C1212 1.419 . S
C1214 C1215 1.362 . S
C1215 H1205 0.930 . S
C1215 C1208 1.409 . S
C1215 C1214 1.362 . S
H1216 C1222 0.930 . S
H1217 C1225 0.930 . S
H1218 C1226 0.930 . S
H1219 C1227 0.930 . S
H1220 C1230 0.930 . S
H1221 C1231 0.930 . S
C1222 H1216 0.930 . S
C1222 C1223 1.355 . S
C1222 C1224 1.415 . S
C1223 C1222 1.355 . S
C1223 C1225 1.419 . S
C1224 C1222 1.415 . S
C1224 C1229 1.425 . S
C1224 C1231 1.409 . S
C1225 H1217 0.930 . S
C1225 C1223 1.419 . S
C1225 C1226 1.362 . S
C1226 H1218 0.930 . S
C1226 C1225 1.362 . S
C1226 C1229 1.409 . S
C1227 H1219 0.930 . S
C1227 C1228 1.355 . S
C1227 C1229 1.415 . S
C1228 C1227 1.355 . S
C1228 C1230 1.419 . S
C1229 C1224 1.425 . S
C1229 C1226 1.409 . S
C1229 C1227 1.415 . S
C1230 H1220 0.930 . S
C1230 C1228 1.419 . S
C1230 C1231 1.362 . S
C1231 H1221 0.930 . S
C1231 C1224 1.409 . S
C1231 C1230 1.362 . S
H1232 C1238 0.930 . S
H1233 C1241 0.930 . S
H1234 C1242 0.930 . S
H1235 C1243 0.930 . S
H1236 C1246 0.930 . S
H1237 C1247 0.930 . S
C1238 H1232 0.930 . S
C1238 C1239 1.355 . S
C1238 C1240 1.415 . S
C1239 C1238 1.355 . S
C1239 C1241 1.419 . S
C1240 C1238 1.415 . S
C1240 C1245 1.425 . S
C1240 C1247 1.409 . S
C1241 H1233 0.930 . S
C1241 C1239 1.419 . S
C1241 C1242 1.362 . S
C1242 H1234 0.930 . S
C1242 C1241 1.362 . S
C1242 C1245 1.409 . S
C1243 H1235 0.930 . S
C1243 C1244 1.355 . S
C1243 C1245 1.415 . S
C1244 C1243 1.355 . S
C1244 C1246 1.419 . S
C1245 C1240 1.425 . S
C1245 C1242 1.409 . S
C1245 C1243 1.415 . S
C1246 H1236 0.930 . S
C1246 C1244 1.419 . S
C1246 C1247 1.362 . S
C1247 H1237 0.930 . S
C1247 C1240 1.409 . S
C1247 C1246 1.362 . S
H1248 C1254 0.930 . S
H1249 C1257 0.930 . S
H1250 C1258 0.930 . S
H1251 C1259 0.930 . S
H1252 C1262 0.930 . S
H1253 C1263 0.930 . S
C1254 H1248 0.930 . S
C1254 C1255 1.355 . S
C1254 C1256 1.415 . S
C1255 C1254 1.355 . S
C1255 C1257 1.419 . S
C1256 C1254 1.415 . S
C1256 C1261 1.425 . S
C1256 C1263 1.409 . S
C1257 H1249 0.930 . S
C1257 C1255 1.419 . S
C1257 C1258 1.362 . S
C1258 H1250 0.930 . S
C1258 C1257 1.362 . S
C1258 C1261 1.409 . S
C1259 H1251 0.930 . S
C1259 C1260 1.355 . S
C1259 C1261 1.415 . S
C1260 C1259 1.355 . S
C1260 C1262 1.419 . S
C1261 C1256 1.425 . S
C1261 C1258 1.409 . S
C1261 C1259 1.415 . S
C1262 H1252 0.930 . S
C1262 C1260 1.419 . S
C1262 C1263 1.362 . S
C1263 H1253 0.930 . S
C1263 C1256 1.409 . S
C1263 C1262 1.362 . S
H1264 C1270 0.930 . S
H1265 C1273 0.930 . S
H1266 C1274 0.930 . S
H1267 C1275 0.930 . S
H1268 C1278 0.930 . S
H1269 C1279 0.930 . S
C1270 H1264 0.930 . S
C1270 C1271 1.355 . S
C1270 C1272 1.415 . S
C1271 C1270 1.355 . S
C1271 C1273 1.419 . S
C1272 C1270 1.415 . S
C1272 C1277 1.425 . S
C1272 C1279 1.409 . S
C1273 H1265 0.930 . S
C1273 C1271 1.419 . S
C1273 C1274 1.362 . S
C1274 H1266 0.930 . S
C1274 C1273 1.362 . S
C1274 C1277 1.409 . S
C1275 H1267 0.930 . S
C1275 C1276 1.355 . S
C1275 C1277 1.415 . S
C1276 C1275 1.355 . S
C1276 C1278 1.419 . S
C1277 C1272 1.425 . S
C1277 C1274 1.409 . S
C1277 C1275 1.415 . S
C1278 H1268 0.930 . S
C1278 C1276 1.419 . S
C1278 C1279 1.362 . S
C1279 H1269 0.930 . S
C1279 C1272 1.409 . S
C1279 C1278 1.362 . S
H1280 C1286 0.930 . S
H1281 C1289 0.930 . S
H1282 C1290 0.930 . S
H1283 C1291 0.930 . S
H1284 C1294 0.930 . S
H1285 C1295 0.930 . S
C1286 H1280 0.930 . S
C1286 C1287 1.355 . S
C1286 C1288 1.415 . S
C1287 C1286 1.355 . S
C1287 C1289 1.419 . S
C1288 C1286 1.415 . S
C1288 C1293 1.425 . S
C1288 C1295 1.409 . S
C1289 H1281 0.930 . S
C1289 C1287 1.419 . S
C1289 C1290 1.362 . S
C1290 H1282 0.930 . S
C1290 C1289 1.362 . S
C1290 C1293 1.409 . S
C1291 H1283 0.930 . S
C1291 C1292 1.355 . S
C1291 C1293 1.415 . S
C1292 C1291 1.355 . S
C1292 C1294 1.419 . S
C1293 C1288 1.425 . S
C1293 C1290 1.409 . S
C1293 C1291 1.415 . S
C1294 H1284 0.930 . S
C1294 C1292 1.419 . S
C1294 C1295 1.362 . S
C1295 H1285 0.930 . S
C1295 C1288 1.409 . S
C1295 C1294 1.362 . S
H1296 C1302 0.930 . S
H1297 C1305 0.930 . S
H1298 C1306 0.930 . S
H1299 C1307 0.930 . S
H1300 C1310 0.930 . S
H1301 C1311 0.930 . S
C1302 H1296 0.930 . S
C1302 C1303 1.355 . S
C1302 C1304 1.415 . S
C1303 C1302 1.355 . S
C1303 C1305 1.419 . S
C1304 C1302 1.415 . S
C1304 C1309 1.425 . S
C1304 C1311 1.409 . S
C1305 H1297 0.930 . S
C1305 C1303 1.419 . S
C1305 C1306 1.362 . S
C1306 H1298 0.930 . S
C1306 C1305 1.362 . S
C1306 C1309 1.409 . S
C1307 H1299 0.930 . S
C1307 C1308 1.355 . S
C1307 C1309 1.415 . S
C1308 C1307 1.355 . S
C1308 C1310 1.419 . S
C1309 C1304 1.425 . S
C1309 C1306 1.409 . S
C1309 C1307 1.415 . S
C1310 H1300 0.930 . S
C1310 C1308 1.419 . S
C1310 C1311 1.362 . S
C1311 H1301 0.930 . S
C1311 C1304 1.409 . S
C1311 C1310 1.362 . S
H1312 C1318 0.930 1_545 S
H1313 C1321 0.930 . S
H1314 C1322 0.930 . S
H1315 C1323 0.930 . S
H1316 C1326 0.930 . S
H1317 C1327 0.930 . S
C1318 H1312 0.930 1_565 S
C1318 C1319 1.355 . S
C1318 C1320 1.415 . S
C1319 C1318 1.355 . S
C1319 C1321 1.419 . S
C1320 C1318 1.415 . S
C1320 C1325 1.425 . S
C1320 C1327 1.409 . S
C1321 H1313 0.930 . S
C1321 C1319 1.419 . S
C1321 C1322 1.362 . S
C1322 H1314 0.930 . S
C1322 C1321 1.362 . S
C1322 C1325 1.409 . S
C1323 H1315 0.930 . S
C1323 C1324 1.355 . S
C1323 C1325 1.415 . S
C1324 C1323 1.355 . S
C1324 C1326 1.419 . S
C1325 C1320 1.425 . S
C1325 C1322 1.409 . S
C1325 C1323 1.415 . S
C1326 H1316 0.930 . S
C1326 C1324 1.419 . S
C1326 C1327 1.362 . S
C1327 H1317 0.930 . S
C1327 C1320 1.409 . S
C1327 C1326 1.362 . S
H1328 C1334 0.930 . S
H1329 C1337 0.930 . S
H1330 C1338 0.930 . S
H1331 C1339 0.930 . S
H1332 C1342 0.930 . S
H1333 C1343 0.930 . S
C1334 H1328 0.930 . S
C1334 C1335 1.355 . S
C1334 C1336 1.415 . S
C1335 C1334 1.355 . S
C1335 C1337 1.419 . S
C1336 C1334 1.415 . S
C1336 C1341 1.425 . S
C1336 C1343 1.409 . S
C1337 H1329 0.930 . S
C1337 C1335 1.419 . S
C1337 C1338 1.362 . S
C1338 H1330 0.930 . S
C1338 C1337 1.362 . S
C1338 C1341 1.409 . S
C1339 H1331 0.930 . S
C1339 C1340 1.355 1_455 S
C1339 C1341 1.415 . S
C1340 C1339 1.355 1_655 S
C1340 C1342 1.419 . S
C1341 C1336 1.425 . S
C1341 C1338 1.409 . S
C1341 C1339 1.415 . S
C1342 H1332 0.930 . S
C1342 C1340 1.419 . S
C1342 C1343 1.362 1_655 S
C1343 H1333 0.930 . S
C1343 C1336 1.409 . S
C1343 C1342 1.362 1_455 S
H1344 C1350 0.930 . S
H1345 C1353 0.930 . S
H1346 C1354 0.930 . S
H1347 C1355 0.930 . S
H1348 C1358 0.930 . S
H1349 C1359 0.930 . S
C1350 H1344 0.930 . S
C1350 C1351 1.355 . S
C1350 C1352 1.415 . S
C1351 C1350 1.355 . S
C1351 C1353 1.419 . S
C1352 C1350 1.415 . S
C1352 C1357 1.425 . S
C1352 C1359 1.409 . S
C1353 H1345 0.930 . S
C1353 C1351 1.419 . S
C1353 C1354 1.362 . S
C1354 H1346 0.930 . S
C1354 C1353 1.362 . S
C1354 C1357 1.409 . S
C1355 H1347 0.930 . S
C1355 C1356 1.355 . S
C1355 C1357 1.415 . S
C1356 C1355 1.355 . S
C1356 C1358 1.419 . S
C1357 C1352 1.425 . S
C1357 C1354 1.409 . S
C1357 C1355 1.415 . S
C1358 H1348 0.930 . S
C1358 C1356 1.419 . S
C1358 C1359 1.362 . S
C1359 H1349 0.930 . S
C1359 C1352 1.409 . S
C1359 C1358 1.362 . S
H1360 C1366 0.930 . S
H1361 C1369 0.930 . S
H1362 C1370 0.930 . S
H1363 C1371 0.930 . S
H1364 C1374 0.930 . S
H1365 C1375 0.930 . S
C1366 H1360 0.930 . S
C1366 C1367 1.355 1_545 S
C1366 C1368 1.415 . S
C1367 C1366 1.355 1_565 S
C1367 C1369 1.419 . S
C1368 C1366 1.415 . S
C1368 C1373 1.425 . S
C1368 C1375 1.409 . S
C1369 H1361 0.930 . S
C1369 C1367 1.419 . S
C1369 C1370 1.362 . S
C1370 H1362 0.930 . S
C1370 C1369 1.362 . S
C1370 C1373 1.409 1_565 S
C1371 H1363 0.930 . S
C1371 C1372 1.355 . S
C1371 C1373 1.415 . S
C1372 C1371 1.355 . S
C1372 C1374 1.419 . S
C1373 C1368 1.425 . S
C1373 C1370 1.409 1_545 S
C1373 C1371 1.415 . S
C1374 H1364 0.930 . S
C1374 C1372 1.419 . S
C1374 C1375 1.362 . S
C1375 H1365 0.930 . S
C1375 C1368 1.409 . S
C1375 C1374 1.362 . S
H1376 C1382 0.930 . S
H1377 C1385 0.930 . S
H1378 C1386 0.930 . S
H1379 C1387 0.930 . S
H1380 C1390 0.930 . S
H1381 C1391 0.930 . S
C1382 H1376 0.930 . S
C1382 C1383 1.355 . S
C1382 C1384 1.415 . S
C1383 C1382 1.355 . S
C1383 C1385 1.419 . S
C1384 C1382 1.415 . S
C1384 C1389 1.425 . S
C1384 C1391 1.409 1_655 S
C1385 H1377 0.930 . S
C1385 C1383 1.419 . S
C1385 C1386 1.362 . S
C1386 H1378 0.930 . S
C1386 C1385 1.362 . S
C1386 C1389 1.409 . S
C1387 H1379 0.930 . S
C1387 C1388 1.355 1_655 S
C1387 C1389 1.415 . S
C1388 C1387 1.355 1_455 S
C1388 C1390 1.419 . S
C1389 C1384 1.425 . S
C1389 C1386 1.409 . S
C1389 C1387 1.415 . S
C1390 H1380 0.930 . S
C1390 C1388 1.419 . S
C1390 C1391 1.362 . S
C1391 H1381 0.930 . S
C1391 C1384 1.409 1_455 S
C1391 C1390 1.362 . S
H1392 C1398 0.930 . S
H1393 C1401 0.930 . S
H1394 C1402 0.930 . S
H1395 C1403 0.930 . S
H1396 C1406 0.930 . S
H1397 C1407 0.930 . S
C1398 H1392 0.930 . S
C1398 C1399 1.355 . S
C1398 C1400 1.415 . S
C1399 C1398 1.355 . S
C1399 C1401 1.419 . S
C1400 C1398 1.415 . S
C1400 C1405 1.425 . S
C1400 C1407 1.409 . S
C1401 H1393 0.930 . S
C1401 C1399 1.419 . S
C1401 C1402 1.362 . S
C1402 H1394 0.930 . S
C1402 C1401 1.362 . S
C1402 C1405 1.409 . S
C1403 H1395 0.930 . S
C1403 C1404 1.355 . S
C1403 C1405 1.415 . S
C1404 C1403 1.355 . S
C1404 C1406 1.419 . S
C1405 C1400 1.425 . S
C1405 C1402 1.409 . S
C1405 C1403 1.415 . S
C1406 H1396 0.930 . S
C1406 C1404 1.419 . S
C1406 C1407 1.362 . S
C1407 H1397 0.930 . S
C1407 C1400 1.409 . S
C1407 C1406 1.362 . S
H1408 C1414 0.930 . S
H1409 C1417 0.930 . S
H1410 C1418 0.930 1_565 S
H1411 C1419 0.930 . S
H1412 C1422 0.930 . S
H1413 C1423 0.930 . S
C1414 H1408 0.930 . S
C1414 C1415 1.355 . S
C1414 C1416 1.415 . S
C1415 C1414 1.355 . S
C1415 C1417 1.419 . S
C1416 C1414 1.415 . S
C1416 C1421 1.425 . S
C1416 C1423 1.409 . S
C1417 H1409 0.930 . S
C1417 C1415 1.419 . S
C1417 C1418 1.362 . S
C1418 H1410 0.930 1_545 S
C1418 C1417 1.362 . S
C1418 C1421 1.409 . S
C1419 H1411 0.930 . S
C1419 C1420 1.355 1_565 S
C1419 C1421 1.415 1_565 S
C1420 C1419 1.355 1_545 S
C1420 C1422 1.419 . S
C1421 C1416 1.425 . S
C1421 C1418 1.409 . S
C1421 C1419 1.415 1_545 S
C1422 H1412 0.930 . S
C1422 C1420 1.419 . S
C1422 C1423 1.362 . S
C1423 H1413 0.930 . S
C1423 C1416 1.409 . S
C1423 C1422 1.362 . S
H1424 C1430 0.930 . S
H1425 C1433 0.930 . S
H1426 C1434 0.930 1_455 S
H1427 C1435 0.930 . S
H1428 C1438 0.930 . S
H1429 C1439 0.930 . S
C1430 H1424 0.930 . S
C1430 C1431 1.355 . S
C1430 C1432 1.415 . S
C1431 C1430 1.355 . S
C1431 C1433 1.419 . S
C1432 C1430 1.415 . S
C1432 C1437 1.425 . S
C1432 C1439 1.409 . S
C1433 H1425 0.930 . S
C1433 C1431 1.419 . S
C1433 C1434 1.362 . S
C1434 H1426 0.930 1_655 S
C1434 C1433 1.362 . S
C1434 C1437 1.409 . S
C1435 H1427 0.930 . S
C1435 C1436 1.355 1_455 S
C1435 C1437 1.415 1_455 S
C1436 C1435 1.355 1_655 S
C1436 C1438 1.419 . S
C1437 C1432 1.425 . S
C1437 C1434 1.409 . S
C1437 C1435 1.415 1_655 S
C1438 H1428 0.930 . S
C1438 C1436 1.419 . S
C1438 C1439 1.362 . S
C1439 H1429 0.930 . S
C1439 C1432 1.409 . S
C1439 C1438 1.362 . S
H1440 C1446 0.930 . S
H1441 C1449 0.930 . S
H1442 C1450 0.930 . S
H1443 C1451 0.930 . S
H1444 C1454 0.930 . S
H1445 C1455 0.930 . S
C1446 H1440 0.930 . S
C1446 C1447 1.355 . S
C1446 C1448 1.415 . S
C1447 C1446 1.355 . S
C1447 C1449 1.419 . S
C1448 C1446 1.415 . S
C1448 C1453 1.425 . S
C1448 C1455 1.409 . S
C1449 H1441 0.930 . S
C1449 C1447 1.419 . S
C1449 C1450 1.362 . S
C1450 H1442 0.930 . S
C1450 C1449 1.362 . S
C1450 C1453 1.409 . S
C1451 H1443 0.930 . S
C1451 C1452 1.355 . S
C1451 C1453 1.415 . S
C1452 C1451 1.355 . S
C1452 C1454 1.419 . S
C1453 C1448 1.425 . S
C1453 C1450 1.409 . S
C1453 C1451 1.415 . S
C1454 H1444 0.930 . S
C1454 C1452 1.419 . S
C1454 C1455 1.362 . S
C1455 H1445 0.930 . S
C1455 C1448 1.409 . S
C1455 C1454 1.362 . S
H1456 C1462 0.930 . S
H1457 C1465 0.930 1_545 S
H1458 C1466 0.930 . S
H1459 C1467 0.930 . S
H1460 C1470 0.930 . S
H1461 C1471 0.930 . S
C1462 H1456 0.930 . S
C1462 C1463 1.355 . S
C1462 C1464 1.415 . S
C1463 C1462 1.355 . S
C1463 C1465 1.419 . S
C1464 C1462 1.415 . S
C1464 C1469 1.425 . S
C1464 C1471 1.409 . S
C1465 H1457 0.930 1_565 S
C1465 C1463 1.419 . S
C1465 C1466 1.362 . S
C1466 H1458 0.930 . S
C1466 C1465 1.362 . S
C1466 C1469 1.409 . S
C1467 H1459 0.930 . S
C1467 C1468 1.355 . S
C1467 C1469 1.415 . S
C1468 C1467 1.355 . S
C1468 C1470 1.419 . S
C1469 C1464 1.425 . S
C1469 C1466 1.409 . S
C1469 C1467 1.415 . S
C1470 H1460 0.930 . S
C1470 C1468 1.419 . S
C1470 C1471 1.362 . S
C1471 H1461 0.930 . S
C1471 C1464 1.409 . S
C1471 C1470 1.362 . S
H1472 C1478 0.930 . S
H1473 C1481 0.930 . S
H1474 C1482 0.930 . S
H1475 C1483 0.930 . S
H1476 C1486 0.930 . S
H1477 C1487 0.930 . S
C1478 H1472 0.930 . S
C1478 C1479 1.355 1_455 S
C1478 C1480 1.415 . S
C1479 C1478 1.355 1_655 S
C1479 C1481 1.419 . S
C1480 C1478 1.415 . S
C1480 C1485 1.425 . S
C1480 C1487 1.409 . S
C1481 H1473 0.930 . S
C1481 C1479 1.419 . S
C1481 C1482 1.362 . S
C1482 H1474 0.930 . S
C1482 C1481 1.362 . S
C1482 C1485 1.409 1_655 S
C1483 H1475 0.930 . S
C1483 C1484 1.355 . S
C1483 C1485 1.415 . S
C1484 C1483 1.355 . S
C1484 C1486 1.419 . S
C1485 C1480 1.425 . S
C1485 C1482 1.409 1_455 S
C1485 C1483 1.415 . S
C1486 H1476 0.930 . S
C1486 C1484 1.419 . S
C1486 C1487 1.362 . S
C1487 H1477 0.930 . S
C1487 C1480 1.409 . S
C1487 C1486 1.362 . S
H1488 C1494 0.930 . S
H1489 C1497 0.930 . S
H1490 C1498 0.930 . S
H1491 C1499 0.930 . S
H1492 C1502 0.930 . S
H1493 C1503 0.930 . S
C1494 H1488 0.930 . S
C1494 C1495 1.355 . S
C1494 C1496 1.415 . S
C1495 C1494 1.355 . S
C1495 C1497 1.419 . S
C1496 C1494 1.415 . S
C1496 C1501 1.425 1_655 S
C1496 C1503 1.409 1_655 S
C1497 H1489 0.930 . S
C1497 C1495 1.419 . S
C1497 C1498 1.362 . S
C1498 H1490 0.930 . S
C1498 C1497 1.362 . S
C1498 C1501 1.409 1_655 S
C1499 H1491 0.930 . S
C1499 C1500 1.355 . S
C1499 C1501 1.415 . S
C1500 C1499 1.355 . S
C1500 C1502 1.419 . S
C1501 C1496 1.425 1_455 S
C1501 C1498 1.409 1_455 S
C1501 C1499 1.415 . S
C1502 H1492 0.930 . S
C1502 C1500 1.419 . S
C1502 C1503 1.362 . S
C1503 H1493 0.930 . S
C1503 C1496 1.409 1_455 S
C1503 C1502 1.362 . S
H1504 C1510 0.930 . S
H1505 C1513 0.930 . S
H1506 C1514 0.930 . S
H1507 C1515 0.930 . S
H1508 C1518 0.930 . S
H1509 C1519 0.930 . S
C1510 H1504 0.930 . S
C1510 C1511 1.355 . S
C1510 C1512 1.415 . S
C1511 C1510 1.355 . S
C1511 C1513 1.419 . S
C1512 C1510 1.415 . S
C1512 C1517 1.425 . S
C1512 C1519 1.409 . S
C1513 H1505 0.930 . S
C1513 C1511 1.419 . S
C1513 C1514 1.362 . S
C1514 H1506 0.930 . S
C1514 C1513 1.362 . S
C1514 C1517 1.409 . S
C1515 H1507 0.930 . S
C1515 C1516 1.355 . S
C1515 C1517 1.415 . S
C1516 C1515 1.355 . S
C1516 C1518 1.419 . S
C1517 C1512 1.425 . S
C1517 C1514 1.409 . S
C1517 C1515 1.415 . S
C1518 H1508 0.930 . S
C1518 C1516 1.419 . S
C1518 C1519 1.362 . S
C1519 H1509 0.930 . S
C1519 C1512 1.409 . S
C1519 C1518 1.362 . S
H1520 C1526 0.930 . S
H1521 C1529 0.930 . S
H1522 C1530 0.930 . S
H1523 C1531 0.930 . S
H1524 C1534 0.930 . S
H1525 C1535 0.928 1_565 S
C1526 H1520 0.930 . S
C1526 C1527 1.355 . S
C1526 C1528 1.415 . S
C1527 C1526 1.355 . S
C1527 C1529 1.419 . S
C1528 C1526 1.415 . S
C1528 C1533 1.425 1_565 S
C1528 C1535 1.409 1_565 S
C1529 H1521 0.930 . S
C1529 C1527 1.419 . S
C1529 C1530 1.362 . S
C1530 H1522 0.930 . S
C1530 C1529 1.362 . S
C1530 C1533 1.409 1_565 S
C1531 H1523 0.930 . S
C1531 C1532 1.355 . S
C1531 C1533 1.415 . S
C1532 C1531 1.355 . S
C1532 C1534 1.419 . S
C1533 C1528 1.425 1_545 S
C1533 C1530 1.409 1_545 S
C1533 C1531 1.415 . S
C1534 H1524 0.930 . S
C1534 C1532 1.419 . S
C1534 C1535 1.362 . S
C1535 H1525 0.928 1_545 S
C1535 C1528 1.409 1_545 S
C1535 C1534 1.362 . S
H1536 C1542 0.930 . S
H1537 C1545 0.930 . S
H1538 C1546 0.930 . S
H1539 C1547 0.930 1_655 S
H1540 C1550 0.930 . S
H1541 C1551 0.930 . S
C1542 H1536 0.930 . S
C1542 C1543 1.355 . S
C1542 C1544 1.415 . S
C1543 C1542 1.355 . S
C1543 C1545 1.419 . S
C1544 C1542 1.415 . S
C1544 C1549 1.425 . S
C1544 C1551 1.409 . S
C1545 H1537 0.930 . S
C1545 C1543 1.419 . S
C1545 C1546 1.362 . S
C1546 H1538 0.930 . S
C1546 C1545 1.362 . S
C1546 C1549 1.409 . S
C1547 H1539 0.930 1_455 S
C1547 C1548 1.355 . S
C1547 C1549 1.415 . S
C1548 C1547 1.355 . S
C1548 C1550 1.419 . S
C1549 C1544 1.425 . S
C1549 C1546 1.409 . S
C1549 C1547 1.415 . S
C1550 H1540 0.930 . S
C1550 C1548 1.419 . S
C1550 C1551 1.362 . S
C1551 H1541 0.930 . S
C1551 C1544 1.409 . S
C1551 C1550 1.362 . S
H1552 C1558 0.930 . S
H1553 C1561 0.930 . S
H1554 C1562 0.930 . S
H1555 C1563 0.930 . S
H1556 C1566 0.930 . S
H1557 C1567 0.930 . S
C1558 H1552 0.930 . S
C1558 C1559 1.355 . S
C1558 C1560 1.415 . S
C1559 C1558 1.355 . S
C1559 C1561 1.419 . S
C1560 C1558 1.415 . S
C1560 C1565 1.425 . S
C1560 C1567 1.409 . S
C1561 H1553 0.930 . S
C1561 C1559 1.419 . S
C1561 C1562 1.362 . S
C1562 H1554 0.930 . S
C1562 C1561 1.362 . S
C1562 C1565 1.409 . S
C1563 H1555 0.930 . S
C1563 C1564 1.355 . S
C1563 C1565 1.415 . S
C1564 C1563 1.355 . S
C1564 C1566 1.419 . S
C1565 C1560 1.425 . S
C1565 C1562 1.409 . S
C1565 C1563 1.415 . S
C1566 H1556 0.930 . S
C1566 C1564 1.419 . S
C1566 C1567 1.362 . S
C1567 H1557 0.930 . S
C1567 C1560 1.409 . S
C1567 C1566 1.362 . S
H1568 C1574 0.930 . S
H1569 C1577 0.930 . S
H1570 C1578 0.930 1_545 S
H1571 C1579 0.913 1_545 S
H1572 C1582 0.930 . S
H1573 C1583 0.930 . S
C1574 H1568 0.930 . S
C1574 C1575 1.355 . S
C1574 C1576 1.415 . S
C1575 C1574 1.355 . S
C1575 C1577 1.419 . S
C1576 C1574 1.415 . S
C1576 C1581 1.425 . S
C1576 C1583 1.409 . S
C1577 H1569 0.930 . S
C1577 C1575 1.419 . S
C1577 C1578 1.362 . S
C1578 H1570 0.930 1_565 S
C1578 C1577 1.362 . S
C1578 C1581 1.409 . S
C1579 H1571 0.913 1_565 S
C1579 C1580 1.349 . S
C1579 C1581 1.437 . S
C1580 C1579 1.349 . S
C1580 C1582 1.419 . S
C1581 C1576 1.425 . S
C1581 C1578 1.409 . S
C1581 C1579 1.437 . S
C1582 H1572 0.930 . S
C1582 C1580 1.419 . S
C1582 C1583 1.362 . S
C1583 H1573 0.930 . S
C1583 C1576 1.409 . S
C1583 C1582 1.362 . S
H1584 C1590 0.930 . S
H1585 C1593 0.930 . S
H1586 C1594 0.930 . S
H1587 C1595 0.930 . S
H1588 C1598 0.930 1_545 S
H1589 C1599 0.930 . S
C1590 H1584 0.930 . S
C1590 C1591 1.355 . S
C1590 C1592 1.415 . S
C1591 C1590 1.355 . S
C1591 C1593 1.419 . S
C1592 C1590 1.415 . S
C1592 C1597 1.425 . S
C1592 C1599 1.409 . S
C1593 H1585 0.930 . S
C1593 C1591 1.419 . S
C1593 C1594 1.362 . S
C1594 H1586 0.930 . S
C1594 C1593 1.362 . S
C1594 C1597 1.409 . S
C1595 H1587 0.930 . S
C1595 C1596 1.355 . S
C1595 C1597 1.415 . S
C1596 C1595 1.355 . S
C1596 C1598 1.419 . S
C1597 C1592 1.425 . S
C1597 C1594 1.409 . S
C1597 C1595 1.415 . S
C1598 H1588 0.930 1_565 S
C1598 C1596 1.419 . S
C1598 C1599 1.362 . S
C1599 H1589 0.930 . S
C1599 C1592 1.409 . S
C1599 C1598 1.362 . S
H1600 C1606 0.930 . S
H1601 C1609 0.930 . S
H1602 C1610 0.930 . S
H1603 C1611 0.930 . S
H1604 C1614 0.930 . S
H1605 C1615 0.930 1_655 S
C1606 H1600 0.930 . S
C1606 C1607 1.355 1_655 S
C1606 C1608 1.415 1_655 S
C1607 C1606 1.355 1_455 S
C1607 C1609 1.419 . S
C1608 C1606 1.415 1_455 S
C1608 C1613 1.425 . S
C1608 C1615 1.409 . S
C1609 H1601 0.930 . S
C1609 C1607 1.419 . S
C1609 C1610 1.362 . S
C1610 H1602 0.930 . S
C1610 C1609 1.362 . S
C1610 C1613 1.409 . S
C1611 H1603 0.930 . S
C1611 C1612 1.355 . S
C1611 C1613 1.415 . S
C1612 C1611 1.355 . S
C1612 C1614 1.419 . S
C1613 C1608 1.425 . S
C1613 C1610 1.409 . S
C1613 C1611 1.415 . S
C1614 H1604 0.930 . S
C1614 C1612 1.419 . S
C1614 C1615 1.362 . S
C1615 H1605 0.930 1_455 S
C1615 C1608 1.409 . S
C1615 C1614 1.362 . S
H1616 C1622 0.930 . S
H1617 C1625 0.930 . S
H1618 C1626 0.930 . S
H1619 C1627 0.930 . S
H1620 C1630 0.930 . S
H1621 C1631 0.930 . S
C1622 H1616 0.930 . S
C1622 C1623 1.355 . S
C1622 C1624 1.415 . S
C1623 C1622 1.355 . S
C1623 C1625 1.419 . S
C1624 C1622 1.415 . S
C1624 C1629 1.425 . S
C1624 C1631 1.409 . S
C1625 H1617 0.930 . S
C1625 C1623 1.419 . S
C1625 C1626 1.362 . S
C1626 H1618 0.930 . S
C1626 C1625 1.362 . S
C1626 C1629 1.409 . S
C1627 H1619 0.930 . S
C1627 C1628 1.355 . S
C1627 C1629 1.415 . S
C1628 C1627 1.355 . S
C1628 C1630 1.419 . S
C1629 C1624 1.425 . S
C1629 C1626 1.409 . S
C1629 C1627 1.415 . S
C1630 H1620 0.930 . S
C1630 C1628 1.419 . S
C1630 C1631 1.362 . S
C1631 H1621 0.930 . S
C1631 C1624 1.409 . S
C1631 C1630 1.362 . S
H1632 C1638 0.930 . S
H1633 C1641 0.930 . S
H1634 C1642 0.930 . S
H1635 C1643 0.930 . S
H1636 C1646 0.930 . S
H1637 C1647 0.930 . S
C1638 H1632 0.930 . S
C1638 C1639 1.355 1_554 S
C1638 C1640 1.415 . S
C1639 C1638 1.355 1_556 S
C1639 C1641 1.419 . S
C1640 C1638 1.415 . S
C1640 C1645 1.425 1_564 S
C1640 C1647 1.409 1_565 S
C1641 H1633 0.930 . S
C1641 C1639 1.419 . S
C1641 C1642 1.362 . S
C1642 H1634 0.930 . S
C1642 C1641 1.362 . S
C1642 C1645 1.409 1_565 S
C1643 H1635 0.930 . S
C1643 C1644 1.355 . S
C1643 C1645 1.415 . S
C1644 C1643 1.355 . S
C1644 C1646 1.419 1_556 S
C1645 C1640 1.425 1_546 S
C1645 C1642 1.409 1_545 S
C1645 C1643 1.415 . S
C1646 H1636 0.930 . S
C1646 C1644 1.419 1_554 S
C1646 C1647 1.362 . S
C1647 H1637 0.930 . S
C1647 C1640 1.409 1_545 S
C1647 C1646 1.362 . S
H1648 C1654 0.930 . S
H1649 C1657 0.930 . S
H1650 C1658 0.930 . S
H1651 C1659 0.930 . S
H1652 C1662 0.930 . S
H1653 C1663 0.930 . S
C1654 H1648 0.930 . S
C1654 C1655 1.336 1_556 S
C1654 C1656 1.415 . S
C1655 C1654 1.336 1_554 S
C1655 C1657 1.441 . S
C1656 C1654 1.415 . S
C1656 C1661 1.425 1_456 S
C1656 C1663 1.409 1_455 S
C1657 H1649 0.930 . S
C1657 C1655 1.441 . S
C1657 C1658 1.362 . S
C1658 H1650 0.930 . S
C1658 C1657 1.362 . S
C1658 C1661 1.409 1_455 S
C1659 H1651 0.930 . S
C1659 C1660 1.355 1_554 S
C1659 C1661 1.415 . S
C1660 C1659 1.355 1_556 S
C1660 C1662 1.419 . S
C1661 C1656 1.425 1_654 S
C1661 C1658 1.409 1_655 S
C1661 C1659 1.415 . S
C1662 H1652 0.930 . S
C1662 C1660 1.419 . S
C1662 C1663 1.362 . S
C1663 H1653 0.930 . S
C1663 C1656 1.409 1_655 S
C1663 C1662 1.362 . S
H1664 C1670 0.930 . S
H1665 C1673 0.930 . S
H1666 C1674 0.930 . S
H1667 C1675 0.930 . S
H1668 C1678 0.930 . S
H1669 C1679 0.930 . S
C1670 H1664 0.930 . S
C1670 C1671 1.355 . S
C1670 C1672 1.415 . S
C1671 C1670 1.355 . S
C1671 C1673 1.419 1_556 S
C1672 C1670 1.415 . S
C1672 C1677 1.425 1_556 S
C1672 C1679 1.409 . S
C1673 H1665 0.930 . S
C1673 C1671 1.419 1_554 S
C1673 C1674 1.362 . S
C1674 H1666 0.930 . S
C1674 C1673 1.362 . S
C1674 C1677 1.409 . S
C1675 H1667 0.930 . S
C1675 C1676 1.355 1_554 S
C1675 C1677 1.415 . S
C1676 C1675 1.355 1_556 S
C1676 C1678 1.419 . S
C1677 C1672 1.425 1_554 S
C1677 C1674 1.409 . S
C1677 C1675 1.415 . S
C1678 H1668 0.930 . S
C1678 C1676 1.419 . S
C1678 C1679 1.362 . S
C1679 H1669 0.930 . S
C1679 C1672 1.409 . S
C1679 C1678 1.362 . S
H1680 C1686 0.930 . S
H1681 C1689 0.930 . S
H1682 C1690 0.930 1_565 S
H1683 C1691 0.916 1_565 S
H1684 C1694 0.930 . S
H1685 C1695 0.930 . S
C1686 H1680 0.930 . S
C1686 C1687 1.355 . S
C1686 C1688 1.415 . S
C1687 C1686 1.355 . S
C1687 C1689 1.419 . S
C1688 C1686 1.415 . S
C1688 C1693 1.425 . S
C1688 C1695 1.409 . S
C1689 H1681 0.930 . S
C1689 C1687 1.419 . S
C1689 C1690 1.362 . S
C1690 H1682 0.930 1_545 S
C1690 C1689 1.362 . S
C1690 C1693 1.409 . S
C1691 H1683 0.916 1_545 S
C1691 C1692 1.367 . S
C1691 C1693 1.417 . S
C1692 C1691 1.367 . S
C1692 C1694 1.419 . S
C1693 C1688 1.425 . S
C1693 C1690 1.409 . S
C1693 C1691 1.417 . S
C1694 H1684 0.930 . S
C1694 C1692 1.419 . S
C1694 C1695 1.362 . S
C1695 H1685 0.930 . S
C1695 C1688 1.409 . S
C1695 C1694 1.362 . S
H1696 C1702 0.930 . S
H1697 C1705 0.930 . S
H1698 C1706 0.930 . S
H1699 C1707 0.930 . S
H1700 C1710 0.930 . S
H1701 C1711 0.930 . S
C1702 H1696 0.930 . S
C1702 C1703 1.355 . S
C1702 C1704 1.415 . S
C1703 C1702 1.355 . S
C1703 C1705 1.419 . S
C1704 C1702 1.415 . S
C1704 C1709 1.425 . S
C1704 C1711 1.409 1_655 S
C1705 H1697 0.930 . S
C1705 C1703 1.419 . S
C1705 C1706 1.362 . S
C1706 H1698 0.930 . S
C1706 C1705 1.362 . S
C1706 C1709 1.409 . S
C1707 H1699 0.930 . S
C1707 C1708 1.355 . S
C1707 C1709 1.415 . S
C1708 C1707 1.355 . S
C1708 C1710 1.419 1_655 S
C1709 C1704 1.425 . S
C1709 C1706 1.409 . S
C1709 C1707 1.415 . S
C1710 H1700 0.930 . S
C1710 C1708 1.419 1_455 S
C1710 C1711 1.362 . S
C1711 H1701 0.930 . S
C1711 C1704 1.409 1_455 S
C1711 C1710 1.362 . S
H1712 C1718 0.930 . S
H1713 C1721 0.930 . S
H1714 C1722 0.930 . S
H1715 C1723 0.930 . S
H1716 C1726 0.930 . S
H1717 C1727 0.930 . S
C1718 H1712 0.930 . S
C1718 C1719 1.355 . S
C1718 C1720 1.415 . S
C1719 C1718 1.355 . S
C1719 C1721 1.419 . S
C1720 C1718 1.415 . S
C1720 C1725 1.425 . S
C1720 C1727 1.409 . S
C1721 H1713 0.930 . S
C1721 C1719 1.419 . S
C1721 C1722 1.362 . S
C1722 H1714 0.930 . S
C1722 C1721 1.362 . S
C1722 C1725 1.409 . S
C1723 H1715 0.930 . S
C1723 C1724 1.355 . S
C1723 C1725 1.415 . S
C1724 C1723 1.355 . S
C1724 C1726 1.419 . S
C1725 C1720 1.425 . S
C1725 C1722 1.409 . S
C1725 C1723 1.415 . S
C1726 H1716 0.930 . S
C1726 C1724 1.419 . S
C1726 C1727 1.362 . S
C1727 H1717 0.930 . S
C1727 C1720 1.409 . S
C1727 C1726 1.362 . S
H1728 C1734 0.930 . S
H1729 C1737 0.930 . S
H1730 C1738 0.928 . S
H1731 C1739 0.938 . S
H1732 C1742 0.930 . S
H1733 C1743 0.930 . S
C1734 H1728 0.930 . S
C1734 C1735 1.355 . S
C1734 C1736 1.415 . S
C1735 C1734 1.355 . S
C1735 C1737 1.419 . S
C1736 C1734 1.415 . S
C1736 C1741 1.434 1_565 S
C1736 C1743 1.409 1_565 S
C1737 H1729 0.930 . S
C1737 C1735 1.419 . S
C1737 C1738 1.369 . S
C1738 H1730 0.928 . S
C1738 C1737 1.369 . S
C1738 C1741 1.409 1_565 S
C1739 H1731 0.938 . S
C1739 C1740 1.354 . S
C1739 C1741 1.408 1_556 S
C1740 C1739 1.354 . S
C1740 C1742 1.418 1_556 S
C1741 C1736 1.434 1_545 S
C1741 C1738 1.409 1_545 S
C1741 C1739 1.408 1_554 S
C1742 H1732 0.930 . S
C1742 C1740 1.418 1_554 S
C1742 C1743 1.362 . S
C1743 H1733 0.930 . S
C1743 C1736 1.409 1_545 S
C1743 C1742 1.362 . S
H1744 C1750 0.930 . S
H1745 C1753 0.930 . S
H1746 C1754 0.930 . S
H1747 C1755 0.920 1_556 S
H1748 C1758 0.930 . S
H1749 C1759 0.930 . S
C1750 H1744 0.930 . S
C1750 C1751 1.343 1_554 S
C1750 C1752 1.415 . S
C1751 C1750 1.343 1_556 S
C1751 C1753 1.433 . S
C1752 C1750 1.415 . S
C1752 C1757 1.425 1_655 S
C1752 C1759 1.409 1_655 S
C1753 H1745 0.930 . S
C1753 C1751 1.433 . S
C1753 C1754 1.362 . S
C1754 H1746 0.930 . S
C1754 C1753 1.362 . S
C1754 C1757 1.410 1_656 S
C1755 H1747 0.920 1_554 S
C1755 C1756 1.370 . S
C1755 C1757 1.413 . S
C1756 C1755 1.370 . S
C1756 C1758 1.419 . S
C1757 C1752 1.425 1_455 S
C1757 C1754 1.410 1_454 S
C1757 C1755 1.413 . S
C1758 H1748 0.930 . S
C1758 C1756 1.419 . S
C1758 C1759 1.362 . S
C1759 H1749 0.930 . S
C1759 C1752 1.409 1_455 S
C1759 C1758 1.362 . S
H1760 C1766 0.930 . S
H1761 C1769 0.930 . S
H1762 C1770 0.930 . S
H1763 C1771 0.930 . S
H1764 C1774 0.930 . S
H1765 C1775 0.930 . S
C1766 H1760 0.930 . S
C1766 C1767 1.355 . S
C1766 C1768 1.415 . S
C1767 C1766 1.355 . S
C1767 C1769 1.419 1_554 S
C1768 C1766 1.415 . S
C1768 C1773 1.425 1_554 S
C1768 C1775 1.409 . S
C1769 H1761 0.930 . S
C1769 C1767 1.419 1_556 S
C1769 C1770 1.362 . S
C1770 H1762 0.930 . S
C1770 C1769 1.362 . S
C1770 C1773 1.409 . S
C1771 H1763 0.930 . S
C1771 C1772 1.355 1_556 S
C1771 C1773 1.415 . S
C1772 C1771 1.355 1_554 S
C1772 C1774 1.419 . S
C1773 C1768 1.425 1_556 S
C1773 C1770 1.409 . S
C1773 C1771 1.415 . S
C1774 H1764 0.930 . S
C1774 C1772 1.419 . S
C1774 C1775 1.362 . S
C1775 H1765 0.930 . S
C1775 C1768 1.409 . S
C1775 C1774 1.362 . S
H1776 C1782 0.930 . S
H1777 C1785 0.930 . S
H1778 C1786 0.930 1_655 S
H1779 C1787 0.930 . S
H1780 C1790 0.930 . S
H1781 C1791 0.930 . S
C1782 H1776 0.930 . S
C1782 C1783 1.355 . S
C1782 C1784 1.415 . S
C1783 C1782 1.355 . S
C1783 C1785 1.419 . S
C1784 C1782 1.415 . S
C1784 C1789 1.425 1_455 S
C1784 C1791 1.409 1_455 S
C1785 H1777 0.930 . S
C1785 C1783 1.419 . S
C1785 C1786 1.362 . S
C1786 H1778 0.930 1_455 S
C1786 C1785 1.362 . S
C1786 C1789 1.409 1_455 S
C1787 H1779 0.930 . S
C1787 C1788 1.355 . S
C1787 C1789 1.415 . S
C1788 C1787 1.355 . S
C1788 C1790 1.419 . S
C1789 C1784 1.425 1_655 S
C1789 C1786 1.409 1_655 S
C1789 C1787 1.415 . S
C1790 H1780 0.930 . S
C1790 C1788 1.419 . S
C1790 C1791 1.362 . S
C1791 H1781 0.930 . S
C1791 C1784 1.409 1_655 S
C1791 C1790 1.362 . S
H1792 C1798 0.930 . S
H1793 C1801 0.930 . S
H1794 C1802 0.930 . S
H1795 C1803 0.930 . S
H1796 C1806 0.930 . S
H1797 C1807 0.930 . S
C1798 H1792 0.930 . S
C1798 C1799 1.355 . S
C1798 C1800 1.415 . S
C1799 C1798 1.355 . S
C1799 C1801 1.419 . S
C1800 C1798 1.415 . S
C1800 C1805 1.425 . S
C1800 C1807 1.409 . S
C1801 H1793 0.930 . S
C1801 C1799 1.419 . S
C1801 C1802 1.362 . S
C1802 H1794 0.930 . S
C1802 C1801 1.362 . S
C1802 C1805 1.409 . S
C1803 H1795 0.930 . S
C1803 C1804 1.355 . S
C1803 C1805 1.415 . S
C1804 C1803 1.355 . S
C1804 C1806 1.419 . S
C1805 C1800 1.425 . S
C1805 C1802 1.409 . S
C1805 C1803 1.415 . S
C1806 H1796 0.930 . S
C1806 C1804 1.419 . S
C1806 C1807 1.362 . S
C1807 H1797 0.930 . S
C1807 C1800 1.409 . S
C1807 C1806 1.362 . S
H1808 C1814 0.930 . S
H1809 C1817 0.930 . S
H1810 C1818 0.930 . S
H1811 C1819 0.930 . S
H1812 C1822 0.930 . S
H1813 C1823 0.930 . S
C1814 H1808 0.930 . S
C1814 C1815 1.355 . S
C1814 C1816 1.415 . S
C1815 C1814 1.355 . S
C1815 C1817 1.419 . S
C1816 C1814 1.415 . S
C1816 C1821 1.425 1_565 S
C1816 C1823 1.409 1_565 S
C1817 H1809 0.930 . S
C1817 C1815 1.419 . S
C1817 C1818 1.362 . S
C1818 H1810 0.930 . S
C1818 C1817 1.362 . S
C1818 C1821 1.409 1_565 S
C1819 H1811 0.930 . S
C1819 C1820 1.355 . S
C1819 C1821 1.415 . S
C1820 C1819 1.355 . S
C1820 C1822 1.419 . S
C1821 C1816 1.425 1_545 S
C1821 C1818 1.409 1_545 S
C1821 C1819 1.415 . S
C1822 H1812 0.930 . S
C1822 C1820 1.419 . S
C1822 C1823 1.362 . S
C1823 H1813 0.930 . S
C1823 C1816 1.409 1_545 S
C1823 C1822 1.362 . S
H1824 C1830 0.916 1_455 S
H1825 C1833 0.930 . S
H1826 C1834 0.930 . S
H1827 C1835 0.930 . S
H1828 C1838 0.930 . S
H1829 C1839 0.930 1_455 S
C1830 H1824 0.916 1_655 S
C1830 C1831 1.365 . S
C1830 C1832 1.417 . S
C1831 C1830 1.365 . S
C1831 C1833 1.419 . S
C1832 C1830 1.417 . S
C1832 C1837 1.425 . S
C1832 C1839 1.409 . S
C1833 H1825 0.930 . S
C1833 C1831 1.419 . S
C1833 C1834 1.362 . S
C1834 H1826 0.930 . S
C1834 C1833 1.362 . S
C1834 C1837 1.409 . S
C1835 H1827 0.930 . S
C1835 C1836 1.355 . S
C1835 C1837 1.415 . S
C1836 C1835 1.355 . S
C1836 C1838 1.419 . S
C1837 C1832 1.425 . S
C1837 C1834 1.409 . S
C1837 C1835 1.415 . S
C1838 H1828 0.930 . S
C1838 C1836 1.419 . S
C1838 C1839 1.362 . S
C1839 H1829 0.930 1_655 S
C1839 C1832 1.409 . S
C1839 C1838 1.362 . S
H1840 C1846 0.930 . S
H1841 C1849 0.930 . S
H1842 C1850 0.930 . S
H1843 C1851 0.930 . S
H1844 C1854 0.930 . S
H1845 C1855 0.930 . S
C1846 H1840 0.930 . S
C1846 C1847 1.355 . S
C1846 C1848 1.415 . S
C1847 C1846 1.355 . S
C1847 C1849 1.419 . S
C1848 C1846 1.415 . S
C1848 C1853 1.425 . S
C1848 C1855 1.409 . S
C1849 H1841 0.930 . S
C1849 C1847 1.419 . S
C1849 C1850 1.362 . S
C1850 H1842 0.930 . S
C1850 C1849 1.362 . S
C1850 C1853 1.409 . S
C1851 H1843 0.930 . S
C1851 C1852 1.355 . S
C1851 C1853 1.415 . S
C1852 C1851 1.355 . S
C1852 C1854 1.419 . S
C1853 C1848 1.425 . S
C1853 C1850 1.409 . S
C1853 C1851 1.415 . S
C1854 H1844 0.930 . S
C1854 C1852 1.419 . S
C1854 C1855 1.362 . S
C1855 H1845 0.930 . S
C1855 C1848 1.409 . S
C1855 C1854 1.362 . S
H1856 C1862 0.930 . S
H1857 C1865 0.930 . S
H1858 C1866 0.930 . S
H1859 C1867 0.930 1_565 S
H1860 C1870 0.930 . S
H1861 C1871 0.930 . S
C1862 H1856 0.930 . S
C1862 C1863 1.355 . S
C1862 C1864 1.415 . S
C1863 C1862 1.355 . S
C1863 C1865 1.419 . S
C1864 C1862 1.415 . S
C1864 C1869 1.425 . S
C1864 C1871 1.409 . S
C1865 H1857 0.930 . S
C1865 C1863 1.419 . S
C1865 C1866 1.362 . S
C1866 H1858 0.930 . S
C1866 C1865 1.362 . S
C1866 C1869 1.409 . S
C1867 H1859 0.930 1_545 S
C1867 C1868 1.355 . S
C1867 C1869 1.415 . S
C1868 C1867 1.355 . S
C1868 C1870 1.419 . S
C1869 C1864 1.425 . S
C1869 C1866 1.409 . S
C1869 C1867 1.415 . S
C1870 H1860 0.930 . S
C1870 C1868 1.419 . S
C1870 C1871 1.362 . S
C1871 H1861 0.930 . S
C1871 C1864 1.409 . S
C1871 C1870 1.362 . S
H1872 C1878 0.930 . S
H1873 C1881 0.930 . S
H1874 C1882 0.930 . S
H1875 C1883 0.930 . S
H1876 C1886 0.930 . S
H1877 C1887 0.930 . S
C1878 H1872 0.930 . S
C1878 C1879 1.355 . S
C1878 C1880 1.415 . S
C1879 C1878 1.355 . S
C1879 C1881 1.419 . S
C1880 C1878 1.415 . S
C1880 C1885 1.425 . S
C1880 C1887 1.409 . S
C1881 H1873 0.930 . S
C1881 C1879 1.419 . S
C1881 C1882 1.362 . S
C1882 H1874 0.930 . S
C1882 C1881 1.362 . S
C1882 C1885 1.409 . S
C1883 H1875 0.930 . S
C1883 C1884 1.355 . S
C1883 C1885 1.415 . S
C1884 C1883 1.355 . S
C1884 C1886 1.419 . S
C1885 C1880 1.425 . S
C1885 C1882 1.409 . S
C1885 C1883 1.415 . S
C1886 H1876 0.930 . S
C1886 C1884 1.419 . S
C1886 C1887 1.362 . S
C1887 H1877 0.930 . S
C1887 C1880 1.409 . S
C1887 C1886 1.362 . S
H1888 C1894 0.930 . S
H1889 C1897 0.930 . S
H1890 C1898 0.930 . S
H1891 C1899 0.930 . S
H1892 C1902 0.930 . S
H1893 C1903 0.930 . S
C1894 H1888 0.930 . S
C1894 C1895 1.355 . S
C1894 C1896 1.415 . S
C1895 C1894 1.355 . S
C1895 C1897 1.419 . S
C1896 C1894 1.415 . S
C1896 C1901 1.425 . S
C1896 C1903 1.409 . S
C1897 H1889 0.930 . S
C1897 C1895 1.419 . S
C1897 C1898 1.362 . S
C1898 H1890 0.930 . S
C1898 C1897 1.362 . S
C1898 C1901 1.409 . S
C1899 H1891 0.930 . S
C1899 C1900 1.355 . S
C1899 C1901 1.415 . S
C1900 C1899 1.355 . S
C1900 C1902 1.419 . S
C1901 C1896 1.425 . S
C1901 C1898 1.409 . S
C1901 C1899 1.415 . S
C1902 H1892 0.930 . S
C1902 C1900 1.419 . S
C1902 C1903 1.362 . S
C1903 H1893 0.930 . S
C1903 C1896 1.409 . S
C1903 C1902 1.362 . S
H1904 C1910 0.930 . S
H1905 C1913 0.930 . S
H1906 C1914 0.930 . S
H1907 C1915 0.930 . S
H1908 C1918 0.930 . S
H1909 C1919 0.930 . S
C1910 H1904 0.930 . S
C1910 C1911 1.355 . S
C1910 C1912 1.415 . S
C1911 C1910 1.355 . S
C1911 C1913 1.419 . S
C1912 C1910 1.415 . S
C1912 C1917 1.425 . S
C1912 C1919 1.409 . S
C1913 H1905 0.930 . S
C1913 C1911 1.419 . S
C1913 C1914 1.362 . S
C1914 H1906 0.930 . S
C1914 C1913 1.362 . S
C1914 C1917 1.409 . S
C1915 H1907 0.930 . S
C1915 C1916 1.355 . S
C1915 C1917 1.415 . S
C1916 C1915 1.355 . S
C1916 C1918 1.419 . S
C1917 C1912 1.425 . S
C1917 C1914 1.409 . S
C1917 C1915 1.415 . S
C1918 H1908 0.930 . S
C1918 C1916 1.419 . S
C1918 C1919 1.362 . S
C1919 H1909 0.930 . S
C1919 C1912 1.409 . S
C1919 C1918 1.362 . S
H1920 C1926 0.930 . S
H1921 C1929 0.930 . S
H1922 C1930 0.930 . S
H1923 C1931 0.930 . S
H1924 C1934 0.930 . S
H1925 C1935 0.930 . S
C1926 H1920 0.930 . S
C1926 C1927 1.355 . S
C1926 C1928 1.415 . S
C1927 C1926 1.355 . S
C1927 C1929 1.419 . S
C1928 C1926 1.415 . S
C1928 C1933 1.425 . S
C1928 C1935 1.409 . S
C1929 H1921 0.930 . S
C1929 C1927 1.419 . S
C1929 C1930 1.362 . S
C1930 H1922 0.930 . S
C1930 C1929 1.362 . S
C1930 C1933 1.409 . S
C1931 H1923 0.930 . S
C1931 C1932 1.355 . S
C1931 C1933 1.415 . S
C1932 C1931 1.355 . S
C1932 C1934 1.419 . S
C1933 C1928 1.425 . S
C1933 C1930 1.409 . S
C1933 C1931 1.415 . S
C1934 H1924 0.930 . S
C1934 C1932 1.419 . S
C1934 C1935 1.362 . S
C1935 H1925 0.930 . S
C1935 C1928 1.409 . S
C1935 C1934 1.362 . S
H1936 C1942 0.930 . S
H1937 C1945 0.930 . S
H1938 C1946 0.930 . S
H1939 C1947 0.930 . S
H1940 C1950 0.930 . S
H1941 C1951 0.930 . S
C1942 H1936 0.930 . S
C1942 C1943 1.355 . S
C1942 C1944 1.415 . S
C1943 C1942 1.355 . S
C1943 C1945 1.419 . S
C1944 C1942 1.415 . S
C1944 C1949 1.425 . S
C1944 C1951 1.409 . S
C1945 H1937 0.930 . S
C1945 C1943 1.419 . S
C1945 C1946 1.362 . S
C1946 H1938 0.930 . S
C1946 C1945 1.362 . S
C1946 C1949 1.409 . S
C1947 H1939 0.930 . S
C1947 C1948 1.355 . S
C1947 C1949 1.415 . S
C1948 C1947 1.355 . S
C1948 C1950 1.419 . S
C1949 C1944 1.425 . S
C1949 C1946 1.409 . S
C1949 C1947 1.415 . S
C1950 H1940 0.930 . S
C1950 C1948 1.419 . S
C1950 C1951 1.362 . S
C1951 H1941 0.930 . S
C1951 C1944 1.409 . S
C1951 C1950 1.362 . S
H1952 C1958 0.930 . S
H1953 C1961 0.930 . S
H1954 C1962 0.930 . S
H1955 C1963 0.930 . S
H1956 C1966 0.930 . S
H1957 C1967 0.930 . S
C1958 H1952 0.930 . S
C1958 C1959 1.355 . S
C1958 C1960 1.415 . S
C1959 C1958 1.355 . S
C1959 C1961 1.419 . S
C1960 C1958 1.415 . S
C1960 C1965 1.425 . S
C1960 C1967 1.409 . S
C1961 H1953 0.930 . S
C1961 C1959 1.419 . S
C1961 C1962 1.362 . S
C1962 H1954 0.930 . S
C1962 C1961 1.362 . S
C1962 C1965 1.409 . S
C1963 H1955 0.930 . S
C1963 C1964 1.355 . S
C1963 C1965 1.415 . S
C1964 C1963 1.355 . S
C1964 C1966 1.419 . S
C1965 C1960 1.425 . S
C1965 C1962 1.409 . S
C1965 C1963 1.415 . S
C1966 H1956 0.930 . S
C1966 C1964 1.419 . S
C1966 C1967 1.362 . S
C1967 H1957 0.930 . S
C1967 C1960 1.409 . S
C1967 C1966 1.362 . S
H1968 C1974 0.930 . S
H1969 C1977 0.930 . S
H1970 C1978 0.930 . S
H1971 C1979 0.930 . S
H1972 C1982 0.930 . S
H1973 C1983 0.930 . S
C1974 H1968 0.930 . S
C1974 C1975 1.355 . S
C1974 C1976 1.415 . S
C1975 C1974 1.355 . S
C1975 C1977 1.419 . S
C1976 C1974 1.415 . S
C1976 C1981 1.425 . S
C1976 C1983 1.409 . S
C1977 H1969 0.930 . S
C1977 C1975 1.419 . S
C1977 C1978 1.362 . S
C1978 H1970 0.930 . S
C1978 C1977 1.362 . S
C1978 C1981 1.409 . S
C1979 H1971 0.930 . S
C1979 C1980 1.355 . S
C1979 C1981 1.415 . S
C1980 C1979 1.355 . S
C1980 C1982 1.419 . S
C1981 C1976 1.425 . S
C1981 C1978 1.409 . S
C1981 C1979 1.415 . S
C1982 H1972 0.930 . S
C1982 C1980 1.419 . S
C1982 C1983 1.362 . S
C1983 H1973 0.930 . S
C1983 C1976 1.409 . S
C1983 C1982 1.362 . S
H1984 C1990 0.930 . S
H1985 C1993 0.930 . S
H1986 C1994 0.930 . S
H1987 C1995 0.930 . S
H1988 C1998 0.930 . S
H1989 C1999 0.930 . S
C1990 H1984 0.930 . S
C1990 C1991 1.355 . S
C1990 C1992 1.415 . S
C1991 C1990 1.355 . S
C1991 C1993 1.419 . S
C1992 C1990 1.415 . S
C1992 C1997 1.425 . S
C1992 C1999 1.409 . S
C1993 H1985 0.930 . S
C1993 C1991 1.419 . S
C1993 C1994 1.362 . S
C1994 H1986 0.930 . S
C1994 C1993 1.362 . S
C1994 C1997 1.409 . S
C1995 H1987 0.930 . S
C1995 C1996 1.355 . S
C1995 C1997 1.415 . S
C1996 C1995 1.355 . S
C1996 C1998 1.419 . S
C1997 C1992 1.425 . S
C1997 C1994 1.409 . S
C1997 C1995 1.415 . S
C1998 H1988 0.930 . S
C1998 C1996 1.419 . S
C1998 C1999 1.362 . S
C1999 H1989 0.930 . S
C1999 C1992 1.409 . S
C1999 C1998 1.362 . S
H2000 C2006 0.930 . S
H2001 C2009 0.930 . S
H2002 C2010 0.930 . S
H2003 C2011 0.930 . S
H2004 C2014 0.930 . S
H2005 C2015 0.930 . S
C2006 H2000 0.930 . S
C2006 C2007 1.355 . S
C2006 C2008 1.415 . S
C2007 C2006 1.355 . S
C2007 C2009 1.419 . S
C2008 C2006 1.415 . S
C2008 C2013 1.425 . S
C2008 C2015 1.409 . S
C2009 H2001 0.930 . S
C2009 C2007 1.419 . S
C2009 C2010 1.362 . S
C2010 H2002 0.930 . S
C2010 C2009 1.362 . S
C2010 C2013 1.409 . S
C2011 H2003 0.930 . S
C2011 C2012 1.355 . S
C2011 C2013 1.415 . S
C2012 C2011 1.355 . S
C2012 C2014 1.419 . S
C2013 C2008 1.425 . S
C2013 C2010 1.409 . S
C2013 C2011 1.415 . S
C2014 H2004 0.930 . S
C2014 C2012 1.419 . S
C2014 C2015 1.362 . S
C2015 H2005 0.930 . S
C2015 C2008 1.409 . S
C2015 C2014 1.362 . S
H2016 C2022 0.930 . S
H2017 C2025 0.930 . S
H2018 C2026 0.930 . S
H2019 C2027 0.930 . S
H2020 C2030 0.930 . S
H2021 C2031 0.930 . S
C2022 H2016 0.930 . S
C2022 C2023 1.355 . S
C2022 C2024 1.415 . S
C2023 C2022 1.355 . S
C2023 C2025 1.419 . S
C2024 C2022 1.415 . S
C2024 C2029 1.425 . S
C2024 C2031 1.409 . S
C2025 H2017 0.930 . S
C2025 C2023 1.419 . S
C2025 C2026 1.362 . S
C2026 H2018 0.930 . S
C2026 C2025 1.362 . S
C2026 C2029 1.409 . S
C2027 H2019 0.930 . S
C2027 C2028 1.355 . S
C2027 C2029 1.415 . S
C2028 C2027 1.355 . S
C2028 C2030 1.419 . S
C2029 C2024 1.425 . S
C2029 C2026 1.409 . S
C2029 C2027 1.415 . S
C2030 H2020 0.930 . S
C2030 C2028 1.419 . S
C2030 C2031 1.362 . S
C2031 H2021 0.930 . S
C2031 C2024 1.409 . S
C2031 C2030 1.362 . S
H2032 C2038 0.930 . S
H2033 C2041 0.930 . S
H2034 C2042 0.930 . S
H2035 C2043 0.930 . S
H2036 C2046 0.930 . S
H2037 C2047 0.930 . S
C2038 H2032 0.930 . S
C2038 C2039 1.355 . S
C2038 C2040 1.415 . S
C2039 C2038 1.355 . S
C2039 C2041 1.419 . S
C2040 C2038 1.415 . S
C2040 C2045 1.425 . S
C2040 C2047 1.409 . S
C2041 H2033 0.930 . S
C2041 C2039 1.419 . S
C2041 C2042 1.362 . S
C2042 H2034 0.930 . S
C2042 C2041 1.362 . S
C2042 C2045 1.409 . S
C2043 H2035 0.930 . S
C2043 C2044 1.355 . S
C2043 C2045 1.415 . S
C2044 C2043 1.355 . S
C2044 C2046 1.419 . S
C2045 C2040 1.425 . S
C2045 C2042 1.409 . S
C2045 C2043 1.415 . S
C2046 H2036 0.930 . S
C2046 C2044 1.419 . S
C2046 C2047 1.362 . S
C2047 H2037 0.930 . S
C2047 C2040 1.409 . S
C2047 C2046 1.362 . S
H2048 C2054 0.930 . S
H2049 C2057 0.930 . S
H2050 C2058 0.930 . S
H2051 C2059 0.930 . S
H2052 C2062 0.930 . S
H2053 C2063 0.930 . S
C2054 H2048 0.930 . S
C2054 C2055 1.355 . S
C2054 C2056 1.415 . S
C2055 C2054 1.355 . S
C2055 C2057 1.419 . S
C2056 C2054 1.415 . S
C2056 C2061 1.425 . S
C2056 C2063 1.409 . S
C2057 H2049 0.930 . S
C2057 C2055 1.419 . S
C2057 C2058 1.362 . S
C2058 H2050 0.930 . S
C2058 C2057 1.362 . S
C2058 C2061 1.409 . S
C2059 H2051 0.930 . S
C2059 C2060 1.355 . S
C2059 C2061 1.415 . S
C2060 C2059 1.355 . S
C2060 C2062 1.419 . S
C2061 C2056 1.425 . S
C2061 C2058 1.409 . S
C2061 C2059 1.415 . S
C2062 H2052 0.930 . S
C2062 C2060 1.419 . S
C2062 C2063 1.362 . S
C2063 H2053 0.930 . S
C2063 C2056 1.409 . S
C2063 C2062 1.362 . S
H2064 C2070 0.930 . S
H2065 C2073 0.930 . S
H2066 C2074 0.930 . S
H2067 C2075 0.930 . S
H2068 C2078 0.929 1_655 S
H2069 C2079 0.930 . S
C2070 H2064 0.930 . S
C2070 C2071 1.355 . S
C2070 C2072 1.415 . S
C2071 C2070 1.355 . S
C2071 C2073 1.419 1_655 S
C2072 C2070 1.415 . S
C2072 C2077 1.425 1_655 S
C2072 C2079 1.409 . S
C2073 H2065 0.930 . S
C2073 C2071 1.419 1_455 S
C2073 C2074 1.362 . S
C2074 H2066 0.930 . S
C2074 C2073 1.362 . S
C2074 C2077 1.409 . S
C2075 H2067 0.930 . S
C2075 C2076 1.355 . S
C2075 C2077 1.415 . S
C2076 C2075 1.355 . S
C2076 C2078 1.421 . S
C2077 C2072 1.425 1_455 S
C2077 C2074 1.409 . S
C2077 C2075 1.415 . S
C2078 H2068 0.929 1_455 S
C2078 C2076 1.421 . S
C2078 C2079 1.362 1_455 S
C2079 H2069 0.930 . S
C2079 C2072 1.409 . S
C2079 C2078 1.362 1_655 S
H2080 C2086 0.930 . S
H2081 C2089 0.930 . S
H2082 C2090 0.930 . S
H2083 C2091 0.930 . S
H2084 C2094 0.930 . S
H2085 C2095 0.930 . S
C2086 H2080 0.930 . S
C2086 C2087 1.355 . S
C2086 C2088 1.415 . S
C2087 C2086 1.355 . S
C2087 C2089 1.419 . S
C2088 C2086 1.415 . S
C2088 C2093 1.425 . S
C2088 C2095 1.409 . S
C2089 H2081 0.930 . S
C2089 C2087 1.419 . S
C2089 C2090 1.362 . S
C2090 H2082 0.930 . S
C2090 C2089 1.362 . S
C2090 C2093 1.409 . S
C2091 H2083 0.930 . S
C2091 C2092 1.355 . S
C2091 C2093 1.415 . S
C2092 C2091 1.355 . S
C2092 C2094 1.419 . S
C2093 C2088 1.425 . S
C2093 C2090 1.409 . S
C2093 C2091 1.415 . S
C2094 H2084 0.930 . S
C2094 C2092 1.419 . S
C2094 C2095 1.362 . S
C2095 H2085 0.930 . S
C2095 C2088 1.409 . S
C2095 C2094 1.362 . S
H2096 C2102 0.930 . S
H2097 C2105 0.930 . S
H2098 C2106 0.930 . S
H2099 C2107 0.930 . S
H2100 C2110 0.939 . S
H2101 C2111 0.930 . S
C2102 H2096 0.930 . S
C2102 C2103 1.355 . S
C2102 C2104 1.415 . S
C2103 C2102 1.355 . S
C2103 C2105 1.419 1_545 S
C2104 C2102 1.415 . S
C2104 C2109 1.425 1_545 S
C2104 C2111 1.409 . S
C2105 H2097 0.930 . S
C2105 C2103 1.419 1_565 S
C2105 C2106 1.362 . S
C2106 H2098 0.930 . S
C2106 C2105 1.362 . S
C2106 C2109 1.409 . S
C2107 H2099 0.930 . S
C2107 C2108 1.355 . S
C2107 C2109 1.415 . S
C2108 C2107 1.355 . S
C2108 C2110 1.403 1_565 S
C2109 C2104 1.425 1_565 S
C2109 C2106 1.409 . S
C2109 C2107 1.415 . S
C2110 H2100 0.939 . S
C2110 C2108 1.403 1_545 S
C2110 C2111 1.369 . S
C2111 H2101 0.930 . S
C2111 C2104 1.409 . S
C2111 C2110 1.369 . S
H2112 C2118 0.930 . S
H2113 C2121 0.930 . S
H2114 C2122 0.930 . S
H2115 C2123 0.930 . S
H2116 C2126 0.930 . S
H2117 C2127 0.930 . S
C2118 H2112 0.930 . S
C2118 C2119 1.355 1_565 S
C2118 C2120 1.415 . S
C2119 C2118 1.355 1_545 S
C2119 C2121 1.419 . S
C2120 C2118 1.415 . S
C2120 C2125 1.425 1_565 S
C2120 C2127 1.409 . S
C2121 H2113 0.930 . S
C2121 C2119 1.419 . S
C2121 C2122 1.362 . S
C2122 H2114 0.930 . S
C2122 C2121 1.362 . S
C2122 C2125 1.409 . S
C2123 H2115 0.930 . S
C2123 C2124 1.355 1_545 S
C2123 C2125 1.415 . S
C2124 C2123 1.355 1_565 S
C2124 C2126 1.419 . S
C2125 C2120 1.425 1_545 S
C2125 C2122 1.409 . S
C2125 C2123 1.415 . S
C2126 H2116 0.930 . S
C2126 C2124 1.419 . S
C2126 C2127 1.362 . S
C2127 H2117 0.930 . S
C2127 C2120 1.409 . S
C2127 C2126 1.362 . S
H2128 C2134 0.930 . S
H2129 C2137 0.930 . S
H2130 C2138 0.931 1_655 S
H2131 C2139 0.930 . S
H2132 C2142 0.930 . S
H2133 C2143 0.930 . S
C2134 H2128 0.930 . S
C2134 C2135 1.355 . S
C2134 C2136 1.415 . S
C2135 C2134 1.355 . S
C2135 C2137 1.419 . S
C2136 C2134 1.415 . S
C2136 C2141 1.427 1_455 S
C2136 C2143 1.407 1_455 S
C2137 H2129 0.930 . S
C2137 C2135 1.419 . S
C2137 C2138 1.362 . S
C2138 H2130 0.931 1_455 S
C2138 C2137 1.362 . S
C2138 C2141 1.409 1_455 S
C2139 H2131 0.930 . S
C2139 C2140 1.355 . S
C2139 C2141 1.415 . S
C2140 C2139 1.355 . S
C2140 C2142 1.419 . S
C2141 C2136 1.427 1_655 S
C2141 C2138 1.409 1_655 S
C2141 C2139 1.415 . S
C2142 H2132 0.930 . S
C2142 C2140 1.419 . S
C2142 C2143 1.362 . S
C2143 H2133 0.930 . S
C2143 C2136 1.407 1_655 S
C2143 C2142 1.362 . S
H2144 C2150 0.930 . S
H2145 C2153 0.930 . S
H2146 C2154 0.930 . S
H2147 C2155 0.930 . S
H2148 C2158 0.930 . S
H2149 C2159 0.930 . S
C2150 H2144 0.930 . S
C2150 C2151 1.355 . S
C2150 C2152 1.415 . S
C2151 C2150 1.355 . S
C2151 C2153 1.419 . S
C2152 C2150 1.415 . S
C2152 C2157 1.425 . S
C2152 C2159 1.409 . S
C2153 H2145 0.930 . S
C2153 C2151 1.419 . S
C2153 C2154 1.362 . S
C2154 H2146 0.930 . S
C2154 C2153 1.362 . S
C2154 C2157 1.409 . S
C2155 H2147 0.930 . S
C2155 C2156 1.355 . S
C2155 C2157 1.415 . S
C2156 C2155 1.355 . S
C2156 C2158 1.419 . S
C2157 C2152 1.425 . S
C2157 C2154 1.409 . S
C2157 C2155 1.415 . S
C2158 H2148 0.930 . S
C2158 C2156 1.419 . S
C2158 C2159 1.362 . S
C2159 H2149 0.930 . S
C2159 C2152 1.409 . S
C2159 C2158 1.362 . S
H2160 C2166 0.930 1_455 S
H2161 C2169 0.930 . S
H2162 C2170 0.930 . S
H2163 C2171 0.930 1_655 S
H2164 C2174 0.930 . S
H2165 C2175 0.930 . S
C2166 H2160 0.930 1_655 S
C2166 C2167 1.355 . S
C2166 C2168 1.415 1_655 S
C2167 C2166 1.355 . S
C2167 C2169 1.419 . S
C2168 C2166 1.415 1_455 S
C2168 C2173 1.425 1_455 S
C2168 C2175 1.409 . S
C2169 H2161 0.930 . S
C2169 C2167 1.419 . S
C2169 C2170 1.362 . S
C2170 H2162 0.930 . S
C2170 C2169 1.362 . S
C2170 C2173 1.409 . S
C2171 H2163 0.930 1_455 S
C2171 C2172 1.355 . S
C2171 C2173 1.415 1_455 S
C2172 C2171 1.355 . S
C2172 C2174 1.419 . S
C2173 C2168 1.425 1_655 S
C2173 C2170 1.409 . S
C2173 C2171 1.415 1_655 S
C2174 H2164 0.930 . S
C2174 C2172 1.419 . S
C2174 C2175 1.362 . S
C2175 H2165 0.930 . S
C2175 C2168 1.409 . S
C2175 C2174 1.362 . S
H2176 C2182 0.930 . S
H2177 C2185 0.930 . S
H2178 C2186 0.930 . S
H2179 C2187 0.930 . S
H2180 C2190 0.930 . S
H2181 C2191 0.930 . S
C2182 H2176 0.930 . S
C2182 C2183 1.355 . S
C2182 C2184 1.415 . S
C2183 C2182 1.355 . S
C2183 C2185 1.419 . S
C2184 C2182 1.415 . S
C2184 C2189 1.425 . S
C2184 C2191 1.409 . S
C2185 H2177 0.930 . S
C2185 C2183 1.419 . S
C2185 C2186 1.362 . S
C2186 H2178 0.930 . S
C2186 C2185 1.362 . S
C2186 C2189 1.409 . S
C2187 H2179 0.930 . S
C2187 C2188 1.355 . S
C2187 C2189 1.415 . S
C2188 C2187 1.355 . S
C2188 C2190 1.419 . S
C2189 C2184 1.425 . S
C2189 C2186 1.409 . S
C2189 C2187 1.415 . S
C2190 H2180 0.930 . S
C2190 C2188 1.419 . S
C2190 C2191 1.362 . S
C2191 H2181 0.930 . S
C2191 C2184 1.409 . S
C2191 C2190 1.362 . S
H2192 C2198 0.930 . S
H2193 C2201 0.930 . S
H2194 C2202 0.930 . S
H2195 C2203 0.930 . S
H2196 C2206 0.930 . S
H2197 C2207 0.930 . S
C2198 H2192 0.930 . S
C2198 C2199 1.355 . S
C2198 C2200 1.415 . S
C2199 C2198 1.355 . S
C2199 C2201 1.419 . S
C2200 C2198 1.415 . S
C2200 C2205 1.425 1_545 S
C2200 C2207 1.409 1_545 S
C2201 H2193 0.930 . S
C2201 C2199 1.419 . S
C2201 C2202 1.362 . S
C2202 H2194 0.930 . S
C2202 C2201 1.362 . S
C2202 C2205 1.409 1_545 S
C2203 H2195 0.930 . S
C2203 C2204 1.355 . S
C2203 C2205 1.415 . S
C2204 C2203 1.355 . S
C2204 C2206 1.419 . S
C2205 C2200 1.425 1_565 S
C2205 C2202 1.409 1_565 S
C2205 C2203 1.415 . S
C2206 H2196 0.930 . S
C2206 C2204 1.419 . S
C2206 C2207 1.362 . S
C2207 H2197 0.930 . S
C2207 C2200 1.409 1_565 S
C2207 C2206 1.362 . S
H2208 C2214 0.930 . S
H2209 C2217 0.930 . S
H2210 C2218 0.930 1_455 S
H2211 C2219 0.930 . S
H2212 C2222 0.930 . S
H2213 C2223 0.930 1_655 S
C2214 H2208 0.930 . S
C2214 C2215 1.355 . S
C2214 C2216 1.415 . S
C2215 C2214 1.355 . S
C2215 C2217 1.419 . S
C2216 C2214 1.415 . S
C2216 C2221 1.425 1_655 S
C2216 C2223 1.409 1_655 S
C2217 H2209 0.930 . S
C2217 C2215 1.419 . S
C2217 C2218 1.362 . S
C2218 H2210 0.930 1_655 S
C2218 C2217 1.362 . S
C2218 C2221 1.409 1_655 S
C2219 H2211 0.930 . S
C2219 C2220 1.355 . S
C2219 C2221 1.415 . S
C2220 C2219 1.355 . S
C2220 C2222 1.419 . S
C2221 C2216 1.425 1_455 S
C2221 C2218 1.409 1_455 S
C2221 C2219 1.415 . S
C2222 H2212 0.930 . S
C2222 C2220 1.419 . S
C2222 C2223 1.362 . S
C2223 H2213 0.930 1_455 S
C2223 C2216 1.409 1_455 S
C2223 C2222 1.362 . S
H2224 C2230 0.930 . S
H2225 C2233 0.930 . S
H2226 C2234 0.930 . S
H2227 C2235 0.930 . S
H2228 C2238 0.930 . S
H2229 C2239 0.930 . S
C2230 H2224 0.930 . S
C2230 C2231 1.355 . S
C2230 C2232 1.415 . S
C2231 C2230 1.355 . S
C2231 C2233 1.419 . S
C2232 C2230 1.415 . S
C2232 C2237 1.425 . S
C2232 C2239 1.409 . S
C2233 H2225 0.930 . S
C2233 C2231 1.419 . S
C2233 C2234 1.362 . S
C2234 H2226 0.930 . S
C2234 C2233 1.362 . S
C2234 C2237 1.409 . S
C2235 H2227 0.930 . S
C2235 C2236 1.355 . S
C2235 C2237 1.415 . S
C2236 C2235 1.355 . S
C2236 C2238 1.419 . S
C2237 C2232 1.425 . S
C2237 C2234 1.409 . S
C2237 C2235 1.415 . S
C2238 H2228 0.930 . S
C2238 C2236 1.419 . S
C2238 C2239 1.362 . S
C2239 H2229 0.930 . S
C2239 C2232 1.409 . S
C2239 C2238 1.362 . S
H2240 C2246 0.930 . S
H2241 C2249 0.930 . S
H2242 C2250 0.930 . S
H2243 C2251 0.930 . S
H2244 C2254 0.930 . S
H2245 C2255 0.930 . S
C2246 H2240 0.930 . S
C2246 C2247 1.355 . S
C2246 C2248 1.415 1_545 S
C2247 C2246 1.355 . S
C2247 C2249 1.419 . S
C2248 C2246 1.415 1_565 S
C2248 C2253 1.425 1_565 S
C2248 C2255 1.409 . S
C2249 H2241 0.930 . S
C2249 C2247 1.419 . S
C2249 C2250 1.362 . S
C2250 H2242 0.930 . S
C2250 C2249 1.362 . S
C2250 C2253 1.409 . S
C2251 H2243 0.930 . S
C2251 C2252 1.355 . S
C2251 C2253 1.415 1_565 S
C2252 C2251 1.355 . S
C2252 C2254 1.419 . S
C2253 C2248 1.425 1_545 S
C2253 C2250 1.409 . S
C2253 C2251 1.415 1_545 S
C2254 H2244 0.930 . S
C2254 C2252 1.419 . S
C2254 C2255 1.362 . S
C2255 H2245 0.930 . S
C2255 C2248 1.409 . S
C2255 C2254 1.362 . S
H2256 C2262 0.930 . S
H2257 C2265 0.930 . S
H2258 C2266 0.930 . S
H2259 C2267 0.930 . S
H2260 C2270 0.930 . S
H2261 C2271 0.930 . S
C2262 H2256 0.930 . S
C2262 C2263 1.355 . S
C2262 C2264 1.415 . S
C2263 C2262 1.355 . S
C2263 C2265 1.419 . S
C2264 C2262 1.415 . S
C2264 C2269 1.425 . S
C2264 C2271 1.409 . S
C2265 H2257 0.930 . S
C2265 C2263 1.419 . S
C2265 C2266 1.362 . S
C2266 H2258 0.930 . S
C2266 C2265 1.362 . S
C2266 C2269 1.409 . S
C2267 H2259 0.930 . S
C2267 C2268 1.355 . S
C2267 C2269 1.415 . S
C2268 C2267 1.355 . S
C2268 C2270 1.419 . S
C2269 C2264 1.425 . S
C2269 C2266 1.409 . S
C2269 C2267 1.415 . S
C2270 H2260 0.930 . S
C2270 C2268 1.419 . S
C2270 C2271 1.362 . S
C2271 H2261 0.930 . S
C2271 C2264 1.409 . S
C2271 C2270 1.362 . S
H2272 C2278 0.930 . S
H2273 C2281 0.930 . S
H2274 C2282 0.930 . S
H2275 C2283 0.930 . S
H2276 C2286 0.930 . S
H2277 C2287 0.930 . S
C2278 H2272 0.930 . S
C2278 C2279 1.355 . S
C2278 C2280 1.415 . S
C2279 C2278 1.355 . S
C2279 C2281 1.419 . S
C2280 C2278 1.415 . S
C2280 C2285 1.425 . S
C2280 C2287 1.409 . S
C2281 H2273 0.930 . S
C2281 C2279 1.419 . S
C2281 C2282 1.362 . S
C2282 H2274 0.930 . S
C2282 C2281 1.362 . S
C2282 C2285 1.409 . S
C2283 H2275 0.930 . S
C2283 C2284 1.355 . S
C2283 C2285 1.415 . S
C2284 C2283 1.355 . S
C2284 C2286 1.419 . S
C2285 C2280 1.425 . S
C2285 C2282 1.409 . S
C2285 C2283 1.415 . S
C2286 H2276 0.930 . S
C2286 C2284 1.419 . S
C2286 C2287 1.362 . S
C2287 H2277 0.930 . S
C2287 C2280 1.409 . S
C2287 C2286 1.362 . S
H2288 C2294 0.930 . S
H2289 C2297 0.930 . S
H2290 C2298 0.930 . S
H2291 C2299 0.930 . S
H2292 C2302 0.930 . S
H2293 C2303 0.930 . S
C2294 H2288 0.930 . S
C2294 C2295 1.355 . S
C2294 C2296 1.415 . S
C2295 C2294 1.355 . S
C2295 C2297 1.419 . S
C2296 C2294 1.415 . S
C2296 C2301 1.425 . S
C2296 C2303 1.409 . S
C2297 H2289 0.930 . S
C2297 C2295 1.419 . S
C2297 C2298 1.362 . S
C2298 H2290 0.930 . S
C2298 C2297 1.362 . S
C2298 C2301 1.409 . S
C2299 H2291 0.930 . S
C2299 C2300 1.355 . S
C2299 C2301 1.415 . S
C2300 C2299 1.355 . S
C2300 C2302 1.419 . S
C2301 C2296 1.425 . S
C2301 C2298 1.409 . S
C2301 C2299 1.415 . S
C2302 H2292 0.930 . S
C2302 C2300 1.419 . S
C2302 C2303 1.362 . S
C2303 H2293 0.930 . S
C2303 C2296 1.409 . S
C2303 C2302 1.362 . S
H2304 C2310 0.930 . S
H2305 C2313 0.930 . S
H2306 C2314 0.930 . S
H2307 C2315 0.930 . S
H2308 C2318 0.930 . S
H2309 C2319 0.930 . S
C2310 H2304 0.930 . S
C2310 C2311 1.355 . S
C2310 C2312 1.415 . S
C2311 C2310 1.355 . S
C2311 C2313 1.419 . S
C2312 C2310 1.415 . S
C2312 C2317 1.425 . S
C2312 C2319 1.409 . S
C2313 H2305 0.930 . S
C2313 C2311 1.419 . S
C2313 C2314 1.362 . S
C2314 H2306 0.930 . S
C2314 C2313 1.362 . S
C2314 C2317 1.409 . S
C2315 H2307 0.930 . S
C2315 C2316 1.355 . S
C2315 C2317 1.415 . S
C2316 C2315 1.355 . S
C2316 C2318 1.419 . S
C2317 C2312 1.425 . S
C2317 C2314 1.409 . S
C2317 C2315 1.415 . S
C2318 H2308 0.930 . S
C2318 C2316 1.419 . S
C2318 C2319 1.362 . S
C2319 H2309 0.930 . S
C2319 C2312 1.409 . S
C2319 C2318 1.362 . S
H2320 C2326 0.930 . S
H2321 C2329 0.930 . S
H2322 C2330 0.930 . S
H2323 C2331 0.930 . S
H2324 C2334 0.930 . S
H2325 C2335 0.930 . S
C2326 H2320 0.930 . S
C2326 C2327 1.355 . S
C2326 C2328 1.415 . S
C2327 C2326 1.355 . S
C2327 C2329 1.419 . S
C2328 C2326 1.415 . S
C2328 C2333 1.425 . S
C2328 C2335 1.409 . S
C2329 H2321 0.930 . S
C2329 C2327 1.419 . S
C2329 C2330 1.362 . S
C2330 H2322 0.930 . S
C2330 C2329 1.362 . S
C2330 C2333 1.409 . S
C2331 H2323 0.930 . S
C2331 C2332 1.355 . S
C2331 C2333 1.415 . S
C2332 C2331 1.355 . S
C2332 C2334 1.419 . S
C2333 C2328 1.425 . S
C2333 C2330 1.409 . S
C2333 C2331 1.415 . S
C2334 H2324 0.930 . S
C2334 C2332 1.419 . S
C2334 C2335 1.362 . S
C2335 H2325 0.930 . S
C2335 C2328 1.409 . S
C2335 C2334 1.362 . S
H2336 C2342 0.930 . S
H2337 C2345 0.930 . S
H2338 C2346 0.930 . S
H2339 C2347 0.930 . S
H2340 C2350 0.930 . S
H2341 C2351 0.930 . S
C2342 H2336 0.930 . S
C2342 C2343 1.355 . S
C2342 C2344 1.415 . S
C2343 C2342 1.355 . S
C2343 C2345 1.419 . S
C2344 C2342 1.415 . S
C2344 C2349 1.425 . S
C2344 C2351 1.409 . S
C2345 H2337 0.930 . S
C2345 C2343 1.419 . S
C2345 C2346 1.362 . S
C2346 H2338 0.930 . S
C2346 C2345 1.362 . S
C2346 C2349 1.409 . S
C2347 H2339 0.930 . S
C2347 C2348 1.355 . S
C2347 C2349 1.415 . S
C2348 C2347 1.355 . S
C2348 C2350 1.419 . S
C2349 C2344 1.425 . S
C2349 C2346 1.409 . S
C2349 C2347 1.415 . S
C2350 H2340 0.930 . S
C2350 C2348 1.419 . S
C2350 C2351 1.362 . S
C2351 H2341 0.930 . S
C2351 C2344 1.409 . S
C2351 C2350 1.362 . S
H2352 C2358 0.930 . S
H2353 C2361 0.930 . S
H2354 C2362 0.930 . S
H2355 C2363 0.930 . S
H2356 C2366 0.930 . S
H2357 C2367 0.930 . S
C2358 H2352 0.930 . S
C2358 C2359 1.355 . S
C2358 C2360 1.415 . S
C2359 C2358 1.355 . S
C2359 C2361 1.419 . S
C2360 C2358 1.415 . S
C2360 C2365 1.425 . S
C2360 C2367 1.409 . S
C2361 H2353 0.930 . S
C2361 C2359 1.419 . S
C2361 C2362 1.362 . S
C2362 H2354 0.930 . S
C2362 C2361 1.362 . S
C2362 C2365 1.409 . S
C2363 H2355 0.930 . S
C2363 C2364 1.355 . S
C2363 C2365 1.415 . S
C2364 C2363 1.355 . S
C2364 C2366 1.419 . S
C2365 C2360 1.425 . S
C2365 C2362 1.409 . S
C2365 C2363 1.415 . S
C2366 H2356 0.930 . S
C2366 C2364 1.419 . S
C2366 C2367 1.362 . S
C2367 H2357 0.930 . S
C2367 C2360 1.409 . S
C2367 C2366 1.362 . S
H2368 C2374 0.930 . S
H2369 C2377 0.930 . S
H2370 C2378 0.930 . S
H2371 C2379 0.930 . S
H2372 C2382 0.930 . S
H2373 C2383 0.930 . S
C2374 H2368 0.930 . S
C2374 C2375 1.355 . S
C2374 C2376 1.415 . S
C2375 C2374 1.355 . S
C2375 C2377 1.419 . S
C2376 C2374 1.415 . S
C2376 C2381 1.425 . S
C2376 C2383 1.409 . S
C2377 H2369 0.930 . S
C2377 C2375 1.419 . S
C2377 C2378 1.362 . S
C2378 H2370 0.930 . S
C2378 C2377 1.362 . S
C2378 C2381 1.409 . S
C2379 H2371 0.930 . S
C2379 C2380 1.355 . S
C2379 C2381 1.415 . S
C2380 C2379 1.355 . S
C2380 C2382 1.419 . S
C2381 C2376 1.425 . S
C2381 C2378 1.409 . S
C2381 C2379 1.415 . S
C2382 H2372 0.930 . S
C2382 C2380 1.419 . S
C2382 C2383 1.362 . S
C2383 H2373 0.930 . S
C2383 C2376 1.409 . S
C2383 C2382 1.362 . S
H2384 C2390 0.930 . S
H2385 C2393 0.930 . S
H2386 C2394 0.930 . S
H2387 C2395 0.930 . S
H2388 C2398 0.930 . S
H2389 C2399 0.930 . S
C2390 H2384 0.930 . S
C2390 C2391 1.355 . S
C2390 C2392 1.415 . S
C2391 C2390 1.355 . S
C2391 C2393 1.419 . S
C2392 C2390 1.415 . S
C2392 C2397 1.425 . S
C2392 C2399 1.409 . S
C2393 H2385 0.930 . S
C2393 C2391 1.419 . S
C2393 C2394 1.362 . S
C2394 H2386 0.930 . S
C2394 C2393 1.362 . S
C2394 C2397 1.409 . S
C2395 H2387 0.930 . S
C2395 C2396 1.355 . S
C2395 C2397 1.415 . S
C2396 C2395 1.355 . S
C2396 C2398 1.419 . S
C2397 C2392 1.425 . S
C2397 C2394 1.409 . S
C2397 C2395 1.415 . S
C2398 H2388 0.930 . S
C2398 C2396 1.419 . S
C2398 C2399 1.362 . S
C2399 H2389 0.930 . S
C2399 C2392 1.409 . S
C2399 C2398 1.362 . S
H2400 C2406 0.930 . S
H2401 C2409 0.930 . S
H2402 C2410 0.930 . S
H2403 C2411 0.930 . S
H2404 C2414 0.930 . S
H2405 C2415 0.930 . S
C2406 H2400 0.930 . S
C2406 C2407 1.355 . S
C2406 C2408 1.415 . S
C2407 C2406 1.355 . S
C2407 C2409 1.419 . S
C2408 C2406 1.415 . S
C2408 C2413 1.425 . S
C2408 C2415 1.409 . S
C2409 H2401 0.930 . S
C2409 C2407 1.419 . S
C2409 C2410 1.362 . S
C2410 H2402 0.930 . S
C2410 C2409 1.362 . S
C2410 C2413 1.409 . S
C2411 H2403 0.930 . S
C2411 C2412 1.355 . S
C2411 C2413 1.415 . S
C2412 C2411 1.355 . S
C2412 C2414 1.419 . S
C2413 C2408 1.425 . S
C2413 C2410 1.409 . S
C2413 C2411 1.415 . S
C2414 H2404 0.930 . S
C2414 C2412 1.419 . S
C2414 C2415 1.362 . S
C2415 H2405 0.930 . S
C2415 C2408 1.409 . S
C2415 C2414 1.362 . S
H2416 C2422 0.930 . S
H2417 C2425 0.930 . S
H2418 C2426 0.930 . S
H2419 C2427 0.930 . S
H2420 C2430 0.930 . S
H2421 C2431 0.930 . S
C2422 H2416 0.930 . S
C2422 C2423 1.355 . S
C2422 C2424 1.415 . S
C2423 C2422 1.355 . S
C2423 C2425 1.419 . S
C2424 C2422 1.415 . S
C2424 C2429 1.425 . S
C2424 C2431 1.409 . S
C2425 H2417 0.930 . S
C2425 C2423 1.419 . S
C2425 C2426 1.362 . S
C2426 H2418 0.930 . S
C2426 C2425 1.362 . S
C2426 C2429 1.409 . S
C2427 H2419 0.930 . S
C2427 C2428 1.355 . S
C2427 C2429 1.415 . S
C2428 C2427 1.355 . S
C2428 C2430 1.419 . S
C2429 C2424 1.425 . S
C2429 C2426 1.409 . S
C2429 C2427 1.415 . S
C2430 H2420 0.930 . S
C2430 C2428 1.419 . S
C2430 C2431 1.362 . S
C2431 H2421 0.930 . S
C2431 C2424 1.409 . S
C2431 C2430 1.362 . S
H2432 C2438 0.930 . S
H2433 C2441 0.930 . S
H2434 C2442 0.930 . S
H2435 C2443 0.930 . S
H2436 C2446 0.930 . S
H2437 C2447 0.930 . S
C2438 H2432 0.930 . S
C2438 C2439 1.355 . S
C2438 C2440 1.415 . S
C2439 C2438 1.355 . S
C2439 C2441 1.419 . S
C2440 C2438 1.415 . S
C2440 C2445 1.425 . S
C2440 C2447 1.409 . S
C2441 H2433 0.930 . S
C2441 C2439 1.419 . S
C2441 C2442 1.362 . S
C2442 H2434 0.930 . S
C2442 C2441 1.362 . S
C2442 C2445 1.409 . S
C2443 H2435 0.930 . S
C2443 C2444 1.355 . S
C2443 C2445 1.415 . S
C2444 C2443 1.355 . S
C2444 C2446 1.419 . S
C2445 C2440 1.425 . S
C2445 C2442 1.409 . S
C2445 C2443 1.415 . S
C2446 H2436 0.930 . S
C2446 C2444 1.419 . S
C2446 C2447 1.362 . S
C2447 H2437 0.930 . S
C2447 C2440 1.409 . S
C2447 C2446 1.362 . S
C727 C8 1.507 . S
C732 C59 1.514 1_545 S
C743 C19 1.524 1_655 S
C748 C28 1.444 . S
C759 C48 1.446 . S
C764 C39 1.522 . S
C775 C68 1.512 . S
C780 C99 1.548 1_455 S
C791 C119 1.570 . S
C796 C88 1.503 1_565 S
C807 C108 1.462 1_455 S
C812 C79 1.566 1_565 S
C823 C129 1.438 . S
C828 C178 1.541 1_565 S
C839 C149 1.501 1_565 S
C844 C138 1.509 1_455 S
C855 C169 1.445 1_455 S
C860 C158 1.540 . S
C871 C189 1.485 . S
C876 C218 1.574 1_655 S
C887 C238 1.565 . S
C892 C209 1.459 1_545 S
C903 C198 1.567 1_545 S
C908 C229 1.512 1_655 S
C919 C299 1.550 . S
C924 C248 1.488 . S
C935 C268 1.537 . S
C940 C259 1.546 . S
C951 C279 1.570 . S
C956 C288 1.483 . S
C967 C308 1.480 . S
C972 C339 1.579 . S
C983 C359 1.562 . S
C988 C328 1.514 . S
C999 C319 1.564 . S
C1004 C348 1.506 . S
C1015 C369 1.450 . S
C1020 C418 1.558 . S
C1031 C389 1.454 . S
C1036 C378 1.561 . S
C1047 C398 1.554 . S
C1052 C409 1.494 . S
C1063 C458 1.506 . S
C1068 C429 1.416 . S
C1079 C449 1.432 . S
C1084 C478 1.511 . S
C1095 C438 1.498 . S
C1100 C469 1.458 1_554 S
C1111 C488 1.516 . S
C1116 C539 1.544 . S
C1127 C508 1.497 . S
C1132 C499 1.533 . S
C1143 C528 1.490 . S
C1148 C519 1.534 . S
C1159 C548 1.418 . S
C1164 C579 1.507 . S
C1175 C568 1.486 1_556 S
C1180 C599 1.485 . S
C1191 C588 1.476 1_556 S
C1196 C559 1.483 . S
C1207 C609 1.479 . S
C1212 C658 1.554 . S
C1223 C629 1.529 . S
C1228 C618 1.553 . S
C1239 C638 1.568 . S
C1244 C649 1.461 . S
C1255 C669 1.508 . S
C1260 C698 1.582 . S
C1271 C689 1.545 . S
C1276 C718 1.566 . S
C1287 C678 1.556 . S
C1292 C709 1.544 . S
C1303 C18 1.403 . S
C1308 C408 1.466 . S
C1319 C368 1.465 1_565 S
C1324 C38 1.400 . S
C1335 C58 1.447 . S
C1340 C388 1.454 . S
C1351 C78 1.329 . S
C1356 C688 1.375 . S
C1367 C708 1.385 . S
C1372 C98 1.403 . S
C1383 C118 1.397 . S
C1388 C668 1.357 . S
C1399 C529 1.437 . S
C1404 C139 1.387 . S
C1415 C159 1.397 . S
C1420 C489 1.424 1_545 S
C1431 C179 1.387 . S
C1436 C509 1.439 1_655 S
C1447 C329 1.365 . S
C1452 C199 1.333 . S
C1463 C349 1.348 1_565 S
C1468 C219 1.356 . S
C1479 C309 1.373 . S
C1484 C239 1.404 . S
C1495 C258 1.362 . S
C1500 C648 1.428 . S
C1511 C278 1.429 . S
C1516 C608 1.401 . S
C1527 C628 1.382 . S
C1532 C298 1.413 . S
C1543 C208 1.369 . S
C1548 C318 1.406 1_455 S
C1559 C228 1.393 . S
C1564 C338 1.347 . S
C1575 C188 1.415 . S
C1580 C358 1.413 1_565 S
C1591 C49 1.460 . S
C1596 C379 1.431 1_565 S
C1607 C399 1.449 1_455 S
C1612 C9 1.443 . S
C1623 C419 1.419 . S
C1628 C29 1.409 . S
C1639 C569 1.366 . S
C1644 C439 1.370 . S
C1655 C589 1.390 1_554 S
C1660 C459 1.433 . S
C1671 C479 1.386 . S
C1676 C549 1.357 . S
C1687 C168 1.420 . S
C1692 C498 1.448 1_545 S
C1703 C128 1.431 . S
C1708 C518 1.383 1_655 S
C1719 C148 1.461 . S
C1724 C538 1.428 . S
C1735 C558 1.364 . S
C1740 C448 1.410 1_556 S
C1751 C468 1.392 1_556 S
C1756 C578 1.433 . S
C1767 C598 1.369 . S
C1772 C428 1.364 . S
C1783 C619 1.413 . S
C1788 C289 1.382 . S
C1799 C639 1.419 . S
C1804 C249 1.427 . S
C1815 C659 1.423 . S
C1820 C269 1.389 . S
C1831 C679 1.414 1_655 S
C1836 C89 1.414 . S
C1847 C109 1.365 . S
C1852 C699 1.390 . S
C1863 C69 1.365 . S
C1868 C719 1.388 1_545 S
C1879 C582 1.841 . S
C1884 C2 1.861 . S
C1895 C542 1.851 . S
C1900 C22 1.858 . S
C1911 C42 1.833 . S
C1916 C562 1.807 . S
C1927 C262 1.971 . S
C1932 C62 1.985 . S
C1943 C82 2.014 . S
C1948 C282 2.007 . S
C1959 C102 1.969 . S
C1964 C242 1.988 . S
C1975 C121 1.817 . S
C1980 C461 1.845 . S
C1991 C141 1.846 . S
C1996 C421 1.804 . S
C2007 C161 1.861 . S
C2012 C441 1.811 . S
C2023 C621 1.970 . S
C2028 C181 1.990 . S
C2039 C641 1.979 . S
C2044 C201 1.975 . S
C2055 C601 2.018 . S
C2060 C221 1.982 . S
C2071 C302 2.033 . S
C2076 C502 2.062 . S
C2087 C322 2.043 . S
C2092 C522 2.060 . S
C2103 C342 2.056 . S
C2108 C482 2.022 . S
C2119 C361 2.024 . S
C2124 C701 2.019 . S
C2135 C661 2.058 . S
C2140 C381 2.026 . S
C2151 C401 2.038 . S
C2156 C681 2.011 . S
C2167 C81 1.370 . S
C2172 C1 1.398 . S
C2183 C101 1.399 . S
C2188 C21 1.370 . S
C2199 C61 1.364 . S
C2204 C41 1.406 . S
C2215 C122 1.365 . S
C2220 C202 1.405 . S
C2231 C222 1.405 . S
C2236 C142 1.364 . S
C2247 C162 1.406 . S
C2252 C182 1.363 . S
C2263 C321 1.416 . S
C2268 C241 1.457 . S
C2279 C341 1.419 . S
C2284 C261 1.452 . S
C2295 C301 1.429 . S
C2300 C281 1.442 . S
C2311 C442 1.548 . S
C2316 C362 1.585 . S
C2327 C382 1.578 . S
C2332 C462 1.577 . S
C2343 C402 1.588 . S
C2348 C422 1.549 . S
C2359 C481 1.579 . S
C2364 C561 1.575 . S
C2375 C581 1.581 . S
C2380 C501 1.564 . S
C2391 C521 1.590 . S
C2396 C541 1.554 . S
C2407 C602 1.452 . S
C2412 C682 1.425 . S
C2423 C702 1.447 . S
C2428 C622 1.424 . S
C2439 C642 1.452 . S
C2444 C662 1.424 . S
