# Generated by pormake.
# Topology wjv, (5)-cn, num edge types: 1
# Building blocks:
#     Node 0, Type 0, BuildingBlock: XOMCOT_clean_sbu_1, # of connection points: 5
#     Node 1, Type 0, BuildingBlock: XOMCOT_clean_sbu_1, # of connection points: 5
#     Node 2, Type 0, BuildingBlock: XOMCOT_clean_sbu_1, # of connection points: 5
#     Node 3, Type 0, BuildingBlock: XOMCOT_clean_sbu_1, # of connection points: 5
#     Node 4, Type 0, BuildingBlock: XOMCOT_clean_sbu_1, # of connection points: 5
#     Node 5, Type 0, BuildingBlock: XOMCOT_clean_sbu_1, # of connection points: 5
#     Node 6, Type 0, BuildingBlock: XOMCOT_clean_sbu_1, # of connection points: 5
#     Node 7, Type 0, BuildingBlock: XOMCOT_clean_sbu_1, # of connection points: 5
#     Node 8, Type 0, BuildingBlock: XOMCOT_clean_sbu_1, # of connection points: 5
#     Node 9, Type 0, BuildingBlock: XOMCOT_clean_sbu_1, # of connection points: 5
#     Node 10, Type 0, BuildingBlock: XOMCOT_clean_sbu_1, # of connection points: 5
#     Node 11, Type 0, BuildingBlock: XOMCOT_clean_sbu_1, # of connection points: 5
#     Edge 12, Type (0, 0), None
#     Edge 13, Type (0, 0), None
#     Edge 14, Type (0, 0), None
#     Edge 15, Type (0, 0), None
#     Edge 16, Type (0, 0), None
#     Edge 17, Type (0, 0), None
#     Edge 18, Type (0, 0), None
#     Edge 19, Type (0, 0), None
#     Edge 20, Type (0, 0), None
#     Edge 21, Type (0, 0), None
#     Edge 22, Type (0, 0), None
#     Edge 23, Type (0, 0), None
#     Edge 24, Type (0, 0), None
#     Edge 25, Type (0, 0), None
#     Edge 26, Type (0, 0), None
#     Edge 27, Type (0, 0), None
#     Edge 28, Type (0, 0), None
#     Edge 29, Type (0, 0), None
#     Edge 30, Type (0, 0), None
#     Edge 31, Type (0, 0), None
#     Edge 32, Type (0, 0), None
#     Edge 33, Type (0, 0), None
#     Edge 34, Type (0, 0), None
#     Edge 35, Type (0, 0), None
#     Edge 36, Type (0, 0), None
#     Edge 37, Type (0, 0), None
#     Edge 38, Type (0, 0), None
#     Edge 39, Type (0, 0), None
#     Edge 40, Type (0, 0), None
#     Edge 41, Type (0, 0), None
# Relax obj value: 0.282
# Max RMSD: 0.163
# Mean RMSD: 0.163
data_MOF--net-wjv--node1-XOMCOT_clean_sbu_1--edge1-none
_symmetry_space_group_name_H-M    P1
_symmetry_Int_Tables_number       1
_symmetry_cell_setting            triclinic
loop_
_symmetry_equiv_pos_as_xyz
'x, y, z'
_cell_length_a     16.428382
_cell_length_b     16.501599
_cell_length_c     25.341733
_cell_angle_alpha  90.840465
_cell_angle_beta   89.627613
_cell_angle_gamma 119.91432
loop_
_atom_site_label
_atom_site_type_symbol
_atom_site_fract_x
_atom_site_fract_y
_atom_site_fract_z
_atom_type_partial_charge
C0 C 0.25553 0.40511 0.35345 0.0
C1 C 0.28828 0.38242 0.39781 0.0
N2 N 0.3771 0.40191 0.38888 0.0
N3 N 0.32127 0.43365 0.31504 0.0
C4 C 0.3971 0.43846 0.34026 0.0
H5 H 0.18511 0.39232 0.34867 0.0
Co6 Co 0.30994 0.42871 0.23821 0.0
C7 C 0.46735 0.37692 0.22649 0.0
O8 O 0.40881 0.28785 0.21742 0.0
N9 N 0.31017 0.4323 0.16468 0.0
C10 C 0.33625 0.41294 0.08043 0.0
C11 C 0.33092 0.38118 0.13062 0.0
C12 C 0.30469 0.49604 0.13424 0.0
N13 N 0.32142 0.4858 0.08318 0.0
O14 O 0.17992 0.42345 0.23811 0.0
H15 H 0.33971 0.32296 0.14108 0.0
H16 H 0.2885 0.54824 0.14905 0.0
O17 O 0.43599 0.43402 0.23342 0.0
C18 C 0.09488 0.36036 0.2511 0.0
O19 O 0.08163 0.29142 0.28177 0.0
N20 N 0.24016 0.29548 0.23756 0.0
C21 C 0.11887 0.10509 0.24883 0.0
C22 C 0.18345 0.15689 0.2884 0.0
C23 C 0.24879 0.24874 0.27901 0.0
C24 C 0.16808 0.24795 0.20218 0.0
C25 C 0.1043 0.15307 0.20822 0.0
H26 H 0.30877 0.27985 0.30407 0.0
H27 H 0.15611 0.28361 0.17037 0.0
H28 H 0.46273 0.45556 0.32179 0.0
H29 H 0.24638 0.34544 0.43157 0.0
H30 H 0.34768 0.38375 1.04448 0.0
H31 H 0.1975 0.1231 0.32063 0.0
H32 H 0.05357 0.11526 0.17726 0.0
C33 C 0.83861 0.21969 0.69023 0.0
C34 C 0.8863 0.23897 0.73753 0.0
N35 N 0.96122 0.32585 0.73606 0.0
N36 N 0.8854 0.29199 0.65707 0.0
C37 C 0.95357 0.35898 0.68891 0.0
H38 H 0.77891 0.1532 0.67984 0.0
Co39 Co 0.88609 0.28953 0.57934 0.0
C40 C 0.0883 0.47143 0.58607 0.0
O41 O 0.13964 0.44182 0.6092 0.0
N42 N 0.88897 0.29568 0.50486 0.0
C43 C 0.94884 0.32726 0.42352 0.0
C44 C 0.96901 0.32953 0.47605 0.0
C45 C 0.82086 0.27605 0.4687 0.0
N46 N 0.8563 0.29459 0.41922 0.0
O47 O 0.76742 0.15967 0.57443 0.0
H48 H 0.03803 0.35245 0.49217 0.0
H49 H 0.74737 0.24767 0.47823 0.0
O50 O 1.00015 0.41638 0.57777 0.0
C51 C 0.75179 0.07636 0.58439 0.0
O52 O 0.81181 0.06507 0.61284 0.0
N53 N 0.95846 0.22781 0.5777 0.0
C54 C 0.05183 0.12692 0.58059 0.0
C55 C 0.05326 0.17992 0.62411 0.0
C56 C 1.01398 0.23589 0.61949 0.0
C57 C 0.9441 0.16372 0.53837 0.0
C58 C 0.98957 0.11175 0.53932 0.0
H59 H 0.03394 0.28821 0.64908 0.0
H60 H 0.89575 0.15026 0.50637 0.0
H61 H 1.00782 0.42545 0.67514 0.0
H62 H 0.87346 0.18867 0.76802 0.0
H63 H 0.99789 0.34772 0.39096 0.0
H64 H 0.10087 0.19428 0.65689 0.0
H65 H 0.98616 0.07041 0.50492 0.0
C66 C 0.70303 0.85734 1.00607 0.0
C67 C 0.74885 0.92204 1.04598 0.0
N68 N 0.71451 0.98089 1.04884 0.0
N69 N 0.64036 0.8751 0.98208 0.0
C70 C 0.64723 0.94964 1.01081 0.0
H71 H 0.72136 0.80608 0.99274 0.0
Co72 Co 0.58963 0.83076 0.91097 0.0
C73 C 0.4639 0.91281 0.8915 0.0
O74 O 0.49264 0.92988 0.84242 0.0
N75 N 0.54304 0.78974 0.84128 0.0
C76 C 0.478 0.69421 0.77142 0.0
C77 C 0.47865 0.70186 0.826 0.0
C78 C 0.57948 0.83386 0.79515 0.0
N79 N 0.5417 0.77786 0.75241 0.0
O80 O 0.67431 0.77659 0.89798 0.0
H81 H 0.44084 0.64451 0.8527 0.0
H82 H 0.63708 0.90458 0.79225 0.0
O83 O 0.4973 0.87542 0.92249 0.0
C84 C 0.67073 0.69678 0.89912 0.0
O85 O 0.59852 0.62489 0.9206 0.0
N86 N 0.68561 0.95081 0.88693 0.0
C87 C 0.84842 0.123 0.89165 0.0
C88 C 0.76299 0.1153 0.90532 0.0
C89 C 0.68274 0.02942 0.902 0.0
C90 C 0.76724 0.96086 0.8659 0.0
C91 C 0.85014 0.04645 0.86865 0.0
H92 H 0.62243 0.02794 0.91868 0.0
H93 H 0.77084 0.90285 0.84847 0.0
H94 H 0.60968 0.98576 1.00148 0.0
H95 H 0.80809 0.92958 0.06849 0.0
H96 H 0.4412 0.6304 0.74822 0.0
H97 H 0.75856 0.17326 0.9229 0.0
H98 H 0.91516 0.0518 0.85476 0.0
C99 C 0.837 0.68686 0.33853 0.0
C100 C 0.80866 0.7308 0.37512 0.0
N101 N 0.71633 0.69882 0.36847 0.0
N102 N 0.76354 0.62829 0.30766 0.0
C103 C 0.69046 0.63701 0.32761 0.0
H104 H 0.90849 0.70221 0.33273 0.0
Co105 Co 0.76899 0.57116 0.2413 0.0
C106 C 0.56996 0.40974 0.22628 0.0
O107 O 0.5991 0.35461 0.20665 0.0
N108 N 0.77316 0.51774 0.17614 0.0
C109 C 0.81893 0.44866 0.11657 0.0
C110 C 0.80216 0.45498 0.16945 0.0
C111 C 0.77063 0.54649 0.12667 0.0
N112 N 0.7986 0.50614 0.08966 0.0
O113 O 0.91241 0.64876 0.23826 0.0
H114 H 0.81933 0.42335 0.2014 0.0
H115 H 0.76005 0.60441 0.11785 0.0
O116 O 0.62984 0.49141 0.24313 0.0
C117 C 0.99162 0.65009 0.24227 0.0
O118 O 0.99354 0.5765 0.25949 0.0
N119 N 0.75864 0.66756 0.20709 0.0
C120 C 0.7594 0.83446 0.21082 0.0
C121 C 0.6746 0.75006 0.21351 0.0
C122 C 0.67527 0.66719 0.20879 0.0
C123 C 0.83806 0.74787 0.19298 0.0
C124 C 0.84064 0.83313 0.19578 0.0
H125 H 0.60843 0.60477 0.21273 0.0
H126 H 0.90108 0.74799 0.18152 0.0
H127 H 0.62117 0.6043 0.31025 0.0
H128 H 0.85359 0.78617 0.40234 0.0
H129 H 0.85459 0.41386 0.10012 0.0
H130 H 0.60867 0.74681 0.22284 0.0
H131 H 0.90594 0.89697 0.18815 0.0
C132 C 0.15665 0.84784 0.66025 0.0
C133 C 0.08285 0.81377 0.69535 0.0
N134 N 0.05996 0.72601 0.70771 0.0
N135 N 0.18033 0.78161 0.64933 0.0
C136 C 0.12172 0.7089 0.68104 0.0
H137 H 0.1826 0.9127 0.63935 0.0
Co138 Co 0.24092 0.77781 0.58406 0.0
C139 C 0.13353 0.56665 0.56453 0.0
O140 O 0.10763 0.57745 0.51741 0.0
N141 N 0.29934 0.7728 0.51893 0.0
C142 C 0.32717 0.72117 0.44208 0.0
C143 C 0.30547 0.70179 0.49498 0.0
C144 C 0.3289 0.83812 0.48102 0.0
N145 N 0.34087 0.80714 0.434 0.0
O146 O 0.2967 0.91837 0.57464 0.0
H147 H 0.29095 0.6375 0.5135 0.0
H148 H 0.33586 0.90592 0.486 0.0
O149 O 0.18773 0.63865 0.59322 0.0
C150 C 0.37293 0.99837 0.57859 0.0
O151 O 0.44725 1.00436 0.60122 0.0
N152 N 0.13046 0.75752 0.54782 0.0
C153 C 0.96567 0.75159 0.51781 0.0
C154 C 0.96283 0.68386 0.55097 0.0
C155 C 0.04539 0.68881 0.56586 0.0
C156 C 0.13266 0.81977 0.51181 0.0
C157 C 0.05087 0.81759 0.49597 0.0
H158 H 0.03913 0.63991 0.59513 0.0
H159 H 0.19681 0.87744 0.4982 0.0
H160 H 0.11512 0.64037 0.67912 0.0
H161 H 0.04405 0.84803 0.70748 0.0
H162 H 0.32938 0.67504 0.41203 0.0
H163 H 0.8984 0.63265 0.56979 0.0
H164 H 0.0551 0.87137 0.47016 0.0
C165 C 0.38569 0.17839 1.02511 0.0
C166 C 0.35798 0.11849 0.06733 0.0
N167 N 0.3905 0.05854 1.06038 0.0
N168 N 0.43061 0.15286 0.98952 0.0
C169 C 0.44 0.08576 1.01522 0.0
H170 H 0.36401 0.22905 1.01881 0.0
Co171 Co 0.43994 0.1656 0.91335 0.0
C172 C 0.41539 0.9607 0.91347 0.0
O173 O 0.33647 0.91222 0.93926 0.0
N174 N 0.45737 0.17533 0.84084 0.0
C175 C 0.45649 0.13626 0.75644 0.0
C176 C 0.42928 0.10281 0.80632 0.0
C177 C 0.50206 0.25223 0.81107 0.0
N178 N 0.50196 0.23004 0.75964 0.0
O179 O 0.42833 0.28684 0.9141 0.0
H180 H 0.38675 0.02982 0.81612 0.0
H181 H 0.52956 0.32278 0.82621 0.0
O182 O 0.4508 0.04921 0.90644 0.0
C183 C 0.35903 0.30296 0.92165 0.0
O184 O 0.28207 0.23999 0.9448 0.0
N185 N 0.3076 0.097 0.90428 0.0
C186 C 0.11403 0.02056 0.90187 0.0
C187 C 0.15782 1.00514 0.94455 0.0
C188 C 0.25271 0.03764 0.94261 0.0
C189 C 0.26637 0.12013 0.86466 0.0
C190 C 0.16984 0.08503 0.86372 0.0
H191 H 0.28037 1.01356 0.97252 0.0
H192 H 0.30758 0.17033 0.83497 0.0
H193 H 0.47431 0.0499 0.99928 0.0
H194 H 0.30878 0.11316 0.09732 0.0
H195 H 0.43659 0.09512 0.72027 0.0
H196 H 0.11802 0.95499 0.97488 0.0
H197 H 0.13824 0.09859 0.83005 0.0
C198 C 0.6625 0.85723 0.43304 0.0
C199 C 0.69554 0.83228 0.38901 0.0
N200 N 0.66552 0.74015 0.39054 0.0
N201 N 0.61349 0.78195 0.46401 0.0
C202 C 0.6127 0.71084 0.435 0.0
H203 H 0.6853 0.92855 0.44486 0.0
Co204 Co 0.61235 0.78856 0.54073 0.0
C205 C 0.51838 0.58885 0.57672 0.0
O206 O 0.57876 0.61292 0.61567 0.0
N207 N 0.61695 0.79615 0.6161 0.0
C208 C 0.68031 0.84255 0.69633 0.0
C209 C 0.69826 0.84368 0.64363 0.0
C210 C 0.54927 0.76657 0.65406 0.0
N211 N 0.58706 0.7941 0.70298 0.0
O212 O 0.68867 0.92742 0.54195 0.0
H213 H 0.76761 0.88016 0.62717 0.0
H214 H 0.47466 0.72722 0.64601 0.0
O215 O 0.52622 0.65043 0.54349 0.0
C216 C 0.67189 0.99021 0.56106 0.0
O217 O 0.58606 0.96664 0.57497 0.0
N218 N 0.72427 0.77721 0.53668 0.0
C219 C 0.88328 0.7627 0.51567 0.0
C220 C 0.79478 0.68396 0.51377 0.0
C221 C 0.71722 0.69236 0.52518 0.0
C222 C 0.81165 0.8558 0.53468 0.0
C223 C 0.8918 0.84982 0.52547 0.0
H224 H 0.65229 0.62905 0.52058 0.0
H225 H 0.82303 0.92494 0.54156 0.0
H226 H 0.58492 0.64074 0.44939 0.0
H227 H 0.74763 0.8804 0.36169 0.0
H228 H 0.73193 0.87483 0.72749 0.0
H229 H 0.78553 0.61539 0.50484 0.0
H230 H 0.95999 0.9125 0.52826 0.0
C231 C 0.84336 0.62779 0.7744 0.0
C232 C 0.89308 0.65918 0.7279 0.0
N233 N 0.97517 0.66015 0.73268 0.0
N234 N 0.89565 0.61375 0.81008 0.0
C235 C 0.97105 0.62487 0.78099 0.0
H236 H 0.77677 0.62336 0.78233 0.0
Co237 Co 0.8886 0.61259 0.88728 0.0
C238 C 0.09349 0.64796 0.89705 0.0
O239 O 0.13432 0.73892 0.90338 0.0
N240 N 0.88488 0.6053 0.96171 0.0
C241 C 0.93696 0.6253 1.0447 0.0
C242 C 0.95957 0.65591 0.99392 0.0
C243 C 0.81731 0.54292 0.99415 0.0
N244 N 0.8483 0.55419 1.04445 0.0
O245 O 0.76776 0.62276 0.889 0.0
H246 H 1.02686 0.71216 0.98151 0.0
H247 H 0.74829 0.48955 0.9811 0.0
O248 O 1.0039 0.59913 0.89065 0.0
C249 C 0.74853 0.68659 0.87462 0.0
O250 O 0.80626 0.75346 0.84314 0.0
N251 N 0.95664 0.74615 0.89097 0.0
C252 C 1.02787 0.93753 0.88489 0.0
C253 C 0.04388 0.8891 0.84433 0.0
C254 C 1.01655 0.7966 0.85151 0.0
C255 C 0.92928 0.79104 0.927 0.0
C256 C 0.96144 0.88641 0.92352 0.0
H257 H 0.04999 0.76937 0.82684 0.0
H258 H 0.87883 0.75298 0.95752 0.0
H259 H 0.03129 0.62498 0.79764 0.0
H260 H 0.87467 0.68852 0.69523 0.0
H261 H 0.98162 0.65265 0.07919 0.0
H262 H 0.09506 0.92548 0.81356 0.0
H263 H 0.94608 0.92166 0.95515 0.0
C264 C 0.22576 0.84547 0.11789 0.0
C265 C 0.25436 0.90351 0.07472 0.0
N266 N 0.34642 0.96598 0.07992 0.0
N267 N 0.29784 0.87482 0.15244 0.0
C268 C 0.37215 0.94132 0.12456 0.0
H269 H 0.1546 0.79197 0.12497 0.0
Co270 Co 0.29836 0.87097 0.22975 0.0
C271 C 0.48307 0.07491 0.22199 0.0
O272 O 0.45319 0.12328 0.19612 0.0
N273 N 0.31075 0.87196 0.30349 0.0
C274 C 0.36836 0.94046 0.3813 0.0
C275 C 0.348 0.95349 0.33125 0.0
C276 C 0.30973 0.80953 0.33813 0.0
N277 N 0.34464 0.85034 0.38575 0.0
O278 O 0.16478 0.75034 0.23335 0.0
H279 H 0.36172 1.01979 0.31564 0.0
H280 H 0.28506 0.73679 0.3286 0.0
O281 O 0.42776 0.98745 0.23167 0.0
C282 C 0.08015 0.73417 0.22315 0.0
O283 O 0.06895 0.79665 0.19785 0.0
N284 N 0.2352 0.94085 0.2363 0.0
C285 C 0.12034 1.01974 0.23506 0.0
C286 C 0.17936 0.03062 0.19262 0.0
C287 C 0.24128 0.99796 0.19658 0.0
C288 C 0.17026 0.92107 0.27574 0.0
C289 C 0.11065 0.95839 0.27529 0.0
H290 H 0.29408 1.01993 0.16726 0.0
H291 H 0.1606 0.87267 0.30664 0.0
H292 H 0.44309 0.97935 0.13876 0.0
H293 H 0.20862 0.90591 1.04505 0.0
H294 H 0.39794 0.99333 0.41216 0.0
H295 H 0.19029 0.07822 0.16085 0.0
H296 H 0.06574 0.94849 0.30895 0.0
C297 C 0.41551 0.23224 0.45008 0.0
C298 C 0.38785 0.26173 0.40646 0.0
N299 N 0.41947 0.35398 0.41179 0.0
N300 N 0.46007 0.30438 0.48463 0.0
C301 C 0.46823 0.37903 0.45733 0.0
H302 H 0.39536 0.16074 0.45763 0.0
Co303 Co 0.46999 0.30342 0.56114 0.0
C304 C 0.45845 0.48866 0.56439 0.0
O305 O 0.36849 0.45496 0.55626 0.0
N306 N 0.48658 0.31218 0.63419 0.0
C307 C 0.48155 0.34976 0.71835 0.0
C308 C 0.46552 0.36414 0.66745 0.0
C309 C 0.51602 0.26724 0.66601 0.0
N310 N 0.51212 0.28804 0.7173 0.0
O311 O 0.44778 0.16752 0.56264 0.0
H312 H 0.43257 0.40383 0.65636 0.0
H313 H 0.53243 0.21457 0.6524 0.0
O314 O 0.49439 0.43499 0.56512 0.0
C315 C 0.37712 0.08362 0.55514 0.0
O316 O 0.30164 0.07169 0.53068 0.0
N317 N 0.33821 0.25012 0.56965 0.0
C318 C 0.1439 0.13953 0.56804 0.0
C319 C 0.19121 0.20294 0.52787 0.0
C320 C 0.28674 0.26035 0.53116 0.0
C321 C 0.29284 0.18597 0.60864 0.0
C322 C 0.1959 0.12814 0.60772 0.0
H323 H 0.31761 0.31391 0.50261 0.0
H324 H 0.33088 0.17358 0.63895 0.0
H325 H 0.4983 0.44912 0.47279 0.0
H326 H 0.34009 0.21664 0.37623 0.0
H327 H 0.46153 0.37386 0.75342 0.0
H328 H 0.15409 0.21768 0.49769 0.0
H329 H 0.1612 0.08113 0.64018 0.0
C330 C 0.1593 0.33539 0.80013 0.0
C331 C 0.08561 0.29468 0.76483 0.0
N332 N 0.04864 0.35088 0.76026 0.0
N333 N 0.16855 0.41672 0.81904 0.0
C334 C 0.10099 0.42523 0.79228 0.0
H335 H 0.19582 0.30143 0.8153 0.0
Co336 Co 0.22129 0.4704 0.88719 0.0
C337 C 0.14566 0.60078 0.91357 0.0
O338 O 0.1472 0.58534 0.96408 0.0
N339 N 0.26956 0.52071 0.95381 0.0
C340 C 0.36961 0.60751 1.01738 0.0
C341 C 0.34643 0.60409 0.96474 0.0
C342 C 0.24626 0.47631 1.00043 0.0
N343 N 0.30542 0.527 1.0394 0.0
O344 O 0.2783 0.38582 0.89641 0.0
H345 H 0.38676 0.65633 0.93573 0.0
H346 H 0.19242 0.40487 1.00584 0.0
O347 O 0.17319 0.56077 0.87966 0.0
C348 C 0.35748 0.38711 0.9004 0.0
O349 O 0.43624 0.46364 0.8898 0.0
N350 N 0.1036 0.37527 0.91546 0.0
C351 C 0.93479 0.20995 0.90354 0.0
C352 C 0.93932 0.29524 0.89533 0.0
C353 C 1.02349 0.37694 0.90273 0.0
C354 C 0.09556 0.29238 0.93125 0.0
C355 C 1.01201 0.20868 0.92491 0.0
H356 H 1.02338 0.43826 0.89018 0.0
H357 H 0.15409 0.28796 0.94637 0.0
H358 H 0.08245 0.4784 0.80064 0.0
H359 H 0.05676 0.22571 0.74714 0.0
H360 H 0.43309 0.66047 1.03651 0.0
H361 H 0.8802 0.29912 0.87958 0.0
H362 H 1.00884 0.14359 0.9351 0.0
C363 C 0.87642 0.1889 0.11798 0.0
C364 C 0.85554 0.12492 0.07734 0.0
N365 N 0.76167 0.07144 0.07317 0.0
N366 N 0.79645 0.17606 0.1411 0.0
C367 C 0.72735 0.10573 0.11092 0.0
H368 H 0.94639 0.23492 0.13275 0.0
Co369 Co 0.78995 0.21517 0.21379 0.0
C370 C 0.5824 0.1209 0.23912 0.0
O371 O 0.60058 0.09777 0.28513 0.0
N372 N 0.78327 0.25081 0.28411 0.0
C373 C 0.75479 0.31361 0.35583 0.0
C374 C 0.74064 0.29807 0.30199 0.0
C375 C 0.82495 0.24104 0.32748 0.0
N376 N 0.80719 0.27666 0.37126 0.0
O377 O 0.93125 0.27342 0.22511 0.0
H378 H 0.70341 0.32164 0.27725 0.0
H379 H 0.87149 0.21282 0.32733 0.0
O380 O 0.64996 0.16602 0.20602 0.0
C381 C 1.00845 0.35317 0.22615 0.0
O382 O 1.00951 0.42816 0.20878 0.0
N383 N 0.76988 0.09443 0.23409 0.0
C384 C 0.76178 0.9226 0.22271 0.0
C385 C 0.68541 0.93212 0.20927 0.0
C386 C 0.69001 1.01681 0.2163 0.0
C387 C 0.84259 0.0835 0.25174 0.0
C388 C 0.83958 0.9979 0.24677 0.0
H389 H 0.63191 1.01874 0.19955 0.0
H390 H 0.90691 0.14088 0.26656 0.0
H391 H 0.65329 0.0734 0.11961 0.0
H392 H 0.90578 0.11318 1.05562 0.0
H393 H 0.73368 0.3537 0.38078 0.0
H394 H 0.62426 0.8768 0.18946 0.0
H395 H 0.8992 0.99207 0.25962 0.0
loop_
_geom_bond_atom_site_label_1
_geom_bond_atom_site_label_2
_geom_bond_distance
_geom_bond_site_symmetry_2
_ccdc_geom_bond_type
C0 C1 1.351 . S
C0 N3 1.368 . S
C0 H5 0.931 . S
C1 C0 1.351 . S
C1 N2 1.373 . S
C1 H29 0.930 . S
N2 C1 1.373 . S
N2 C4 1.340 . S
N3 C0 1.368 . S
N3 C4 1.321 . S
N3 Co6 2.135 . S
C4 N2 1.340 . S
C4 N3 1.321 . S
C4 H28 0.930 . S
H5 C0 0.931 . S
Co6 N3 2.135 . S
Co6 N9 2.121 . S
Co6 O14 2.055 . S
Co6 O17 2.039 . S
Co6 N20 2.140 . S
C7 O8 1.227 . S
C7 O17 1.265 . S
O8 C7 1.227 . S
N9 Co6 2.121 . S
N9 C11 1.375 . S
N9 C12 1.313 . S
C10 C11 1.338 . S
C10 N13 1.377 . S
C10 H30 0.930 . S
C11 N9 1.375 . S
C11 C10 1.338 . S
C11 H15 0.931 . S
C12 N9 1.313 . S
C12 N13 1.344 . S
C12 H16 0.930 . S
N13 C10 1.377 . S
N13 C12 1.344 . S
O14 Co6 2.055 . S
O14 C18 1.253 . S
H15 C11 0.931 . S
H16 C12 0.930 . S
O17 Co6 2.039 . S
O17 C7 1.265 . S
C18 O14 1.253 . S
C18 O19 1.227 . S
O19 C18 1.227 . S
N20 Co6 2.140 . S
N20 C23 1.346 . S
N20 C24 1.345 . S
C21 C22 1.387 . S
C21 C25 1.391 . S
C22 C21 1.387 . S
C22 C23 1.369 . S
C22 H31 0.929 . S
C23 N20 1.346 . S
C23 C22 1.369 . S
C23 H26 0.928 . S
C24 N20 1.345 . S
C24 C25 1.371 . S
C24 H27 0.931 . S
C25 C21 1.391 . S
C25 C24 1.371 . S
C25 H32 0.930 . S
H26 C23 0.928 . S
H27 C24 0.931 . S
H28 C4 0.930 . S
H29 C1 0.930 . S
H30 C10 0.930 . S
H31 C22 0.929 . S
H32 C25 0.930 . S
C33 C34 1.351 . S
C33 N36 1.368 . S
C33 H38 0.931 . S
C34 C33 1.351 . S
C34 N35 1.373 . S
C34 H62 0.930 . S
N35 C34 1.373 . S
N35 C37 1.340 . S
N36 C33 1.368 . S
N36 C37 1.321 . S
N36 Co39 2.135 . S
C37 N35 1.340 . S
C37 N36 1.321 . S
C37 H61 0.930 . S
H38 C33 0.931 . S
Co39 N36 2.135 . S
Co39 N42 2.121 . S
Co39 O47 2.055 . S
Co39 O50 2.039 . S
Co39 N53 2.140 . S
C40 O41 1.227 . S
C40 O50 1.265 . S
O41 C40 1.227 . S
N42 Co39 2.121 . S
N42 C44 1.375 . S
N42 C45 1.313 . S
C43 C44 1.338 . S
C43 N46 1.377 . S
C43 H63 0.930 . S
C44 N42 1.375 . S
C44 C43 1.338 . S
C44 H48 0.931 . S
C45 N42 1.313 . S
C45 N46 1.344 . S
C45 H49 0.930 . S
N46 C43 1.377 . S
N46 C45 1.344 . S
O47 Co39 2.055 . S
O47 C51 1.253 . S
H48 C44 0.931 . S
H49 C45 0.930 . S
O50 Co39 2.039 . S
O50 C40 1.265 . S
C51 O47 1.253 . S
C51 O52 1.227 . S
O52 C51 1.227 . S
N53 Co39 2.140 . S
N53 C56 1.346 1_655 S
N53 C57 1.345 . S
C54 C55 1.387 . S
C54 C58 1.391 . S
C55 C54 1.387 . S
C55 C56 1.369 . S
C55 H64 0.929 . S
C56 N53 1.346 1_455 S
C56 C55 1.369 . S
C56 H59 0.928 . S
C57 N53 1.345 . S
C57 C58 1.371 1_655 S
C57 H60 0.931 . S
C58 C54 1.391 . S
C58 C57 1.371 1_455 S
C58 H65 0.930 . S
H59 C56 0.928 . S
H60 C57 0.931 . S
H61 C37 0.930 . S
H62 C34 0.930 . S
H63 C43 0.930 . S
H64 C55 0.929 . S
H65 C58 0.930 . S
C66 C67 1.351 . S
C66 N69 1.368 . S
C66 H71 0.931 . S
C67 C66 1.351 . S
C67 N68 1.373 . S
C67 H95 0.930 1_556 S
N68 C67 1.373 . S
N68 C70 1.340 . S
N69 C66 1.368 . S
N69 C70 1.321 . S
N69 Co72 2.135 . S
C70 N68 1.340 . S
C70 N69 1.321 . S
C70 H94 0.930 . S
H71 C66 0.931 . S
Co72 N69 2.135 . S
Co72 N75 2.121 . S
Co72 O80 2.055 . S
Co72 O83 2.039 . S
Co72 N86 2.140 . S
C73 O74 1.227 . S
C73 O83 1.265 . S
O74 C73 1.227 . S
N75 Co72 2.121 . S
N75 C77 1.375 . S
N75 C78 1.313 . S
C76 C77 1.338 . S
C76 N79 1.377 . S
C76 H96 0.930 . S
C77 N75 1.375 . S
C77 C76 1.338 . S
C77 H81 0.931 . S
C78 N75 1.313 . S
C78 N79 1.344 . S
C78 H82 0.930 . S
N79 C76 1.377 . S
N79 C78 1.344 . S
O80 Co72 2.055 . S
O80 C84 1.253 . S
H81 C77 0.931 . S
H82 C78 0.930 . S
O83 Co72 2.039 . S
O83 C73 1.265 . S
C84 O80 1.253 . S
C84 O85 1.227 . S
O85 C84 1.227 . S
N86 Co72 2.140 . S
N86 C89 1.346 1_565 S
N86 C90 1.345 . S
C87 C88 1.387 . S
C87 C91 1.391 . S
C88 C87 1.387 . S
C88 C89 1.369 . S
C88 H97 0.929 . S
C89 N86 1.346 1_545 S
C89 C88 1.369 . S
C89 H92 0.928 . S
C90 N86 1.345 . S
C90 C91 1.371 1_565 S
C90 H93 0.931 . S
C91 C87 1.391 . S
C91 C90 1.371 1_545 S
C91 H98 0.930 . S
H92 C89 0.928 . S
H93 C90 0.931 . S
H94 C70 0.930 . S
H95 C67 0.930 1_554 S
H96 C76 0.930 . S
H97 C88 0.929 . S
H98 C91 0.930 . S
C99 C100 1.351 . S
C99 N102 1.368 . S
C99 H104 0.931 . S
C100 C99 1.351 . S
C100 N101 1.373 . S
C100 H128 0.930 . S
N101 C100 1.373 . S
N101 C103 1.340 . S
N102 C99 1.368 . S
N102 C103 1.321 . S
N102 Co105 2.135 . S
C103 N101 1.340 . S
C103 N102 1.321 . S
C103 H127 0.930 . S
H104 C99 0.931 . S
Co105 N102 2.135 . S
Co105 N108 2.121 . S
Co105 O113 2.055 . S
Co105 O116 2.039 . S
Co105 N119 2.140 . S
C106 O107 1.227 . S
C106 O116 1.265 . S
O107 C106 1.227 . S
N108 Co105 2.121 . S
N108 C110 1.375 . S
N108 C111 1.313 . S
C109 C110 1.338 . S
C109 N112 1.377 . S
C109 H129 0.930 . S
C110 N108 1.375 . S
C110 C109 1.338 . S
C110 H114 0.931 . S
C111 N108 1.313 . S
C111 N112 1.344 . S
C111 H115 0.930 . S
N112 C109 1.377 . S
N112 C111 1.344 . S
O113 Co105 2.055 . S
O113 C117 1.253 . S
H114 C110 0.931 . S
H115 C111 0.930 . S
O116 Co105 2.039 . S
O116 C106 1.265 . S
C117 O113 1.253 . S
C117 O118 1.227 . S
O118 C117 1.227 . S
N119 Co105 2.140 . S
N119 C122 1.346 . S
N119 C123 1.345 . S
C120 C121 1.387 . S
C120 C124 1.391 . S
C121 C120 1.387 . S
C121 C122 1.369 . S
C121 H130 0.929 . S
C122 N119 1.346 . S
C122 C121 1.369 . S
C122 H125 0.928 . S
C123 N119 1.345 . S
C123 C124 1.371 . S
C123 H126 0.931 . S
C124 C120 1.391 . S
C124 C123 1.371 . S
C124 H131 0.930 . S
H125 C122 0.928 . S
H126 C123 0.931 . S
H127 C103 0.930 . S
H128 C100 0.930 . S
H129 C109 0.930 . S
H130 C121 0.929 . S
H131 C124 0.930 . S
C132 C133 1.351 . S
C132 N135 1.368 . S
C132 H137 0.931 . S
C133 C132 1.351 . S
C133 N134 1.373 . S
C133 H161 0.930 . S
N134 C133 1.373 . S
N134 C136 1.340 . S
N135 C132 1.368 . S
N135 C136 1.321 . S
N135 Co138 2.135 . S
C136 N134 1.340 . S
C136 N135 1.321 . S
C136 H160 0.930 . S
H137 C132 0.931 . S
Co138 N135 2.135 . S
Co138 N141 2.121 . S
Co138 O146 2.055 . S
Co138 O149 2.039 . S
Co138 N152 2.140 . S
C139 O140 1.227 . S
C139 O149 1.265 . S
O140 C139 1.227 . S
N141 Co138 2.121 . S
N141 C143 1.375 . S
N141 C144 1.313 . S
C142 C143 1.338 . S
C142 N145 1.377 . S
C142 H162 0.930 . S
C143 N141 1.375 . S
C143 C142 1.338 . S
C143 H147 0.931 . S
C144 N141 1.313 . S
C144 N145 1.344 . S
C144 H148 0.930 . S
N145 C142 1.377 . S
N145 C144 1.344 . S
O146 Co138 2.055 . S
O146 C150 1.253 . S
H147 C143 0.931 . S
H148 C144 0.930 . S
O149 Co138 2.039 . S
O149 C139 1.265 . S
C150 O146 1.253 . S
C150 O151 1.227 . S
O151 C150 1.227 . S
N152 Co138 2.140 . S
N152 C155 1.346 1_455 S
N152 C156 1.345 . S
C153 C154 1.387 . S
C153 C157 1.391 . S
C154 C153 1.387 . S
C154 C155 1.369 . S
C154 H163 0.929 . S
C155 N152 1.346 1_655 S
C155 C154 1.369 . S
C155 H158 0.928 . S
C156 N152 1.345 . S
C156 C157 1.371 1_455 S
C156 H159 0.931 . S
C157 C153 1.391 . S
C157 C156 1.371 1_655 S
C157 H164 0.930 . S
H158 C155 0.928 . S
H159 C156 0.931 . S
H160 C136 0.930 . S
H161 C133 0.930 . S
H162 C142 0.930 . S
H163 C154 0.929 . S
H164 C157 0.930 . S
C165 C166 1.351 . S
C165 N168 1.368 . S
C165 H170 0.931 . S
C166 C165 1.351 . S
C166 N167 1.373 . S
C166 H194 0.930 1_556 S
N167 C166 1.373 . S
N167 C169 1.340 . S
N168 C165 1.368 . S
N168 C169 1.321 . S
N168 Co171 2.135 . S
C169 N167 1.340 . S
C169 N168 1.321 . S
C169 H193 0.930 . S
H170 C165 0.931 . S
Co171 N168 2.135 . S
Co171 N174 2.121 . S
Co171 O179 2.055 . S
Co171 O182 2.039 . S
Co171 N185 2.140 . S
C172 O173 1.227 . S
C172 O182 1.265 . S
O173 C172 1.227 . S
N174 Co171 2.121 . S
N174 C176 1.375 . S
N174 C177 1.313 . S
C175 C176 1.338 . S
C175 N178 1.377 . S
C175 H195 0.930 . S
C176 N174 1.375 . S
C176 C175 1.338 . S
C176 H180 0.931 . S
C177 N174 1.313 . S
C177 N178 1.344 . S
C177 H181 0.930 . S
N178 C175 1.377 . S
N178 C177 1.344 . S
O179 Co171 2.055 . S
O179 C183 1.253 . S
H180 C176 0.931 . S
H181 C177 0.930 . S
O182 Co171 2.039 . S
O182 C172 1.265 . S
C183 O179 1.253 . S
C183 O184 1.227 . S
O184 C183 1.227 . S
N185 Co171 2.140 . S
N185 C188 1.346 1_545 S
N185 C189 1.345 . S
C186 C187 1.387 . S
C186 C190 1.391 . S
C187 C186 1.387 . S
C187 C188 1.369 . S
C187 H196 0.929 . S
C188 N185 1.346 1_565 S
C188 C187 1.369 . S
C188 H191 0.928 . S
C189 N185 1.345 . S
C189 C190 1.371 1_545 S
C189 H192 0.931 . S
C190 C186 1.391 . S
C190 C189 1.371 1_565 S
C190 H197 0.930 . S
H191 C188 0.928 . S
H192 C189 0.931 . S
H193 C169 0.930 . S
H194 C166 0.930 1_554 S
H195 C175 0.930 . S
H196 C187 0.929 . S
H197 C190 0.930 . S
C198 C199 1.351 . S
C198 N201 1.368 . S
C198 H203 0.931 . S
C199 C198 1.351 . S
C199 N200 1.373 . S
C199 H227 0.930 . S
N200 C199 1.373 . S
N200 C202 1.340 . S
N201 C198 1.368 . S
N201 C202 1.321 . S
N201 Co204 2.135 . S
C202 N200 1.340 . S
C202 N201 1.321 . S
C202 H226 0.930 . S
H203 C198 0.931 . S
Co204 N201 2.135 . S
Co204 N207 2.121 . S
Co204 O212 2.055 . S
Co204 O215 2.039 . S
Co204 N218 2.140 . S
C205 O206 1.227 . S
C205 O215 1.265 . S
O206 C205 1.227 . S
N207 Co204 2.121 . S
N207 C209 1.375 . S
N207 C210 1.313 . S
C208 C209 1.338 . S
C208 N211 1.377 . S
C208 H228 0.930 . S
C209 N207 1.375 . S
C209 C208 1.338 . S
C209 H213 0.931 . S
C210 N207 1.313 . S
C210 N211 1.344 . S
C210 H214 0.930 . S
N211 C208 1.377 . S
N211 C210 1.344 . S
O212 Co204 2.055 . S
O212 C216 1.253 . S
H213 C209 0.931 . S
H214 C210 0.930 . S
O215 Co204 2.039 . S
O215 C205 1.265 . S
C216 O212 1.253 . S
C216 O217 1.227 . S
O217 C216 1.227 . S
N218 Co204 2.140 . S
N218 C221 1.346 . S
N218 C222 1.345 . S
C219 C220 1.387 . S
C219 C223 1.391 . S
C220 C219 1.387 . S
C220 C221 1.369 . S
C220 H229 0.929 . S
C221 N218 1.346 . S
C221 C220 1.369 . S
C221 H224 0.928 . S
C222 N218 1.345 . S
C222 C223 1.371 . S
C222 H225 0.931 . S
C223 C219 1.391 . S
C223 C222 1.371 . S
C223 H230 0.930 . S
H224 C221 0.928 . S
H225 C222 0.931 . S
H226 C202 0.930 . S
H227 C199 0.930 . S
H228 C208 0.930 . S
H229 C220 0.929 . S
H230 C223 0.930 . S
C231 C232 1.351 . S
C231 N234 1.368 . S
C231 H236 0.931 . S
C232 C231 1.351 . S
C232 N233 1.373 . S
C232 H260 0.930 . S
N233 C232 1.373 . S
N233 C235 1.340 . S
N234 C231 1.368 . S
N234 C235 1.321 . S
N234 Co237 2.135 . S
C235 N233 1.340 . S
C235 N234 1.321 . S
C235 H259 0.930 . S
H236 C231 0.931 . S
Co237 N234 2.135 . S
Co237 N240 2.121 . S
Co237 O245 2.055 . S
Co237 O248 2.039 . S
Co237 N251 2.140 . S
C238 O239 1.227 . S
C238 O248 1.265 . S
O239 C238 1.227 . S
N240 Co237 2.121 . S
N240 C242 1.375 . S
N240 C243 1.313 . S
C241 C242 1.338 . S
C241 N244 1.377 . S
C241 H261 0.930 . S
C242 N240 1.375 . S
C242 C241 1.338 . S
C242 H246 0.931 . S
C243 N240 1.313 . S
C243 N244 1.344 . S
C243 H247 0.930 . S
N244 C241 1.377 . S
N244 C243 1.344 . S
O245 Co237 2.055 . S
O245 C249 1.253 . S
H246 C242 0.931 . S
H247 C243 0.930 . S
O248 Co237 2.039 . S
O248 C238 1.265 . S
C249 O245 1.253 . S
C249 O250 1.227 . S
O250 C249 1.227 . S
N251 Co237 2.140 . S
N251 C254 1.346 1_655 S
N251 C255 1.345 . S
C252 C253 1.387 . S
C252 C256 1.391 . S
C253 C252 1.387 . S
C253 C254 1.369 . S
C253 H262 0.929 . S
C254 N251 1.346 1_455 S
C254 C253 1.369 . S
C254 H257 0.928 . S
C255 N251 1.345 . S
C255 C256 1.371 1_655 S
C255 H258 0.931 . S
C256 C252 1.391 . S
C256 C255 1.371 1_455 S
C256 H263 0.930 . S
H257 C254 0.928 . S
H258 C255 0.931 . S
H259 C235 0.930 . S
H260 C232 0.930 . S
H261 C241 0.930 . S
H262 C253 0.929 . S
H263 C256 0.930 . S
C264 C265 1.351 . S
C264 N267 1.368 . S
C264 H269 0.931 . S
C265 C264 1.351 . S
C265 N266 1.373 . S
C265 H293 0.930 1_554 S
N266 C265 1.373 . S
N266 C268 1.340 . S
N267 C264 1.368 . S
N267 C268 1.321 . S
N267 Co270 2.135 . S
C268 N266 1.340 . S
C268 N267 1.321 . S
C268 H292 0.930 . S
H269 C264 0.931 . S
Co270 N267 2.135 . S
Co270 N273 2.121 . S
Co270 O278 2.055 . S
Co270 O281 2.039 . S
Co270 N284 2.140 . S
C271 O272 1.227 . S
C271 O281 1.265 . S
O272 C271 1.227 . S
N273 Co270 2.121 . S
N273 C275 1.375 . S
N273 C276 1.313 . S
C274 C275 1.338 . S
C274 N277 1.377 . S
C274 H294 0.930 . S
C275 N273 1.375 . S
C275 C274 1.338 . S
C275 H279 0.931 . S
C276 N273 1.313 . S
C276 N277 1.344 . S
C276 H280 0.930 . S
N277 C274 1.377 . S
N277 C276 1.344 . S
O278 Co270 2.055 . S
O278 C282 1.253 . S
H279 C275 0.931 . S
H280 C276 0.930 . S
O281 Co270 2.039 . S
O281 C271 1.265 . S
C282 O278 1.253 . S
C282 O283 1.227 . S
O283 C282 1.227 . S
N284 Co270 2.140 . S
N284 C287 1.346 1_565 S
N284 C288 1.345 . S
C285 C286 1.387 . S
C285 C289 1.391 . S
C286 C285 1.387 . S
C286 C287 1.369 . S
C286 H295 0.929 . S
C287 N284 1.346 1_545 S
C287 C286 1.369 . S
C287 H290 0.928 . S
C288 N284 1.345 . S
C288 C289 1.371 1_565 S
C288 H291 0.931 . S
C289 C285 1.391 . S
C289 C288 1.371 1_545 S
C289 H296 0.930 . S
H290 C287 0.928 . S
H291 C288 0.931 . S
H292 C268 0.930 . S
H293 C265 0.930 1_556 S
H294 C274 0.930 . S
H295 C286 0.929 . S
H296 C289 0.930 . S
C297 C298 1.351 . S
C297 N300 1.368 . S
C297 H302 0.931 . S
C298 C297 1.351 . S
C298 N299 1.373 . S
C298 H326 0.930 . S
N299 C298 1.373 . S
N299 C301 1.340 . S
N300 C297 1.368 . S
N300 C301 1.321 . S
N300 Co303 2.135 . S
C301 N299 1.340 . S
C301 N300 1.321 . S
C301 H325 0.930 . S
H302 C297 0.931 . S
Co303 N300 2.135 . S
Co303 N306 2.121 . S
Co303 O311 2.055 . S
Co303 O314 2.039 . S
Co303 N317 2.140 . S
C304 O305 1.227 . S
C304 O314 1.265 . S
O305 C304 1.227 . S
N306 Co303 2.121 . S
N306 C308 1.375 . S
N306 C309 1.313 . S
C307 C308 1.338 . S
C307 N310 1.377 . S
C307 H327 0.930 . S
C308 N306 1.375 . S
C308 C307 1.338 . S
C308 H312 0.931 . S
C309 N306 1.313 . S
C309 N310 1.344 . S
C309 H313 0.930 . S
N310 C307 1.377 . S
N310 C309 1.344 . S
O311 Co303 2.055 . S
O311 C315 1.253 . S
H312 C308 0.931 . S
H313 C309 0.930 . S
O314 Co303 2.039 . S
O314 C304 1.265 . S
C315 O311 1.253 . S
C315 O316 1.227 . S
O316 C315 1.227 . S
N317 Co303 2.140 . S
N317 C320 1.346 . S
N317 C321 1.345 . S
C318 C319 1.387 . S
C318 C322 1.391 . S
C319 C318 1.387 . S
C319 C320 1.369 . S
C319 H328 0.929 . S
C320 N317 1.346 . S
C320 C319 1.369 . S
C320 H323 0.928 . S
C321 N317 1.345 . S
C321 C322 1.371 . S
C321 H324 0.931 . S
C322 C318 1.391 . S
C322 C321 1.371 . S
C322 H329 0.930 . S
H323 C320 0.928 . S
H324 C321 0.931 . S
H325 C301 0.930 . S
H326 C298 0.930 . S
H327 C307 0.930 . S
H328 C319 0.929 . S
H329 C322 0.930 . S
C330 C331 1.351 . S
C330 N333 1.368 . S
C330 H335 0.931 . S
C331 C330 1.351 . S
C331 N332 1.373 . S
C331 H359 0.930 . S
N332 C331 1.373 . S
N332 C334 1.340 . S
N333 C330 1.368 . S
N333 C334 1.321 . S
N333 Co336 2.135 . S
C334 N332 1.340 . S
C334 N333 1.321 . S
C334 H358 0.930 . S
H335 C330 0.931 . S
Co336 N333 2.135 . S
Co336 N339 2.121 . S
Co336 O344 2.055 . S
Co336 O347 2.039 . S
Co336 N350 2.140 . S
C337 O338 1.227 . S
C337 O347 1.265 . S
O338 C337 1.227 . S
N339 Co336 2.121 . S
N339 C341 1.375 . S
N339 C342 1.313 . S
C340 C341 1.338 . S
C340 N343 1.377 . S
C340 H360 0.930 . S
C341 N339 1.375 . S
C341 C340 1.338 . S
C341 H345 0.931 . S
C342 N339 1.313 . S
C342 N343 1.344 . S
C342 H346 0.930 . S
N343 C340 1.377 . S
N343 C342 1.344 . S
O344 Co336 2.055 . S
O344 C348 1.253 . S
H345 C341 0.931 . S
H346 C342 0.930 . S
O347 Co336 2.039 . S
O347 C337 1.265 . S
C348 O344 1.253 . S
C348 O349 1.227 . S
O349 C348 1.227 . S
N350 Co336 2.140 . S
N350 C353 1.346 1_455 S
N350 C354 1.345 . S
C351 C352 1.387 . S
C351 C355 1.391 . S
C352 C351 1.387 . S
C352 C353 1.369 . S
C352 H361 0.929 . S
C353 N350 1.346 1_655 S
C353 C352 1.369 . S
C353 H356 0.928 . S
C354 N350 1.345 . S
C354 C355 1.371 1_455 S
C354 H357 0.931 . S
C355 C351 1.391 . S
C355 C354 1.371 1_655 S
C355 H362 0.930 . S
H356 C353 0.928 . S
H357 C354 0.931 . S
H358 C334 0.930 . S
H359 C331 0.930 . S
H360 C340 0.930 . S
H361 C352 0.929 . S
H362 C355 0.930 . S
C363 C364 1.351 . S
C363 N366 1.368 . S
C363 H368 0.931 . S
C364 C363 1.351 . S
C364 N365 1.373 . S
C364 H392 0.930 1_554 S
N365 C364 1.373 . S
N365 C367 1.340 . S
N366 C363 1.368 . S
N366 C367 1.321 . S
N366 Co369 2.135 . S
C367 N365 1.340 . S
C367 N366 1.321 . S
C367 H391 0.930 . S
H368 C363 0.931 . S
Co369 N366 2.135 . S
Co369 N372 2.121 . S
Co369 O377 2.055 . S
Co369 O380 2.039 . S
Co369 N383 2.140 . S
C370 O371 1.227 . S
C370 O380 1.265 . S
O371 C370 1.227 . S
N372 Co369 2.121 . S
N372 C374 1.375 . S
N372 C375 1.313 . S
C373 C374 1.338 . S
C373 N376 1.377 . S
C373 H393 0.930 . S
C374 N372 1.375 . S
C374 C373 1.338 . S
C374 H378 0.931 . S
C375 N372 1.313 . S
C375 N376 1.344 . S
C375 H379 0.930 . S
N376 C373 1.377 . S
N376 C375 1.344 . S
O377 Co369 2.055 . S
O377 C381 1.253 . S
H378 C374 0.931 . S
H379 C375 0.930 . S
O380 Co369 2.039 . S
O380 C370 1.265 . S
C381 O377 1.253 . S
C381 O382 1.227 . S
O382 C381 1.227 . S
N383 Co369 2.140 . S
N383 C386 1.346 1_545 S
N383 C387 1.345 . S
C384 C385 1.387 . S
C384 C388 1.391 . S
C385 C384 1.387 . S
C385 C386 1.369 . S
C385 H394 0.929 . S
C386 N383 1.346 1_565 S
C386 C385 1.369 . S
C386 H389 0.928 . S
C387 N383 1.345 . S
C387 C388 1.371 1_545 S
C387 H390 0.931 . S
C388 C384 1.391 . S
C388 C387 1.371 1_565 S
C388 H395 0.930 . S
H389 C386 0.928 . S
H390 C387 0.931 . S
H391 C367 0.930 . S
H392 C364 0.930 1_556 S
H393 C373 0.930 . S
H394 C385 0.929 . S
H395 C388 0.930 . S
N299 N2 3.119 . S
N35 N332 3.119 1_655 S
N68 N365 3.119 1_566 S
N101 N200 3.119 . S
N134 N233 3.119 1_455 S
N167 N266 3.119 1_546 S
N343 N13 1.601 1_556 S
N376 N46 1.600 . S
N79 N211 1.601 . S
N244 N112 1.601 1_556 S
N145 N277 1.601 . S
N178 N310 1.601 . S
C106 C7 3.018 . S
C40 C139 3.018 1_655 S
C172 C73 3.018 1_545 S
C304 C205 3.018 . S
C238 C337 3.018 1_655 S
C370 C271 3.018 1_545 S
C18 C381 2.421 1_455 S
C216 C51 2.421 1_565 S
C84 C249 2.421 . S
C117 C282 2.421 1_655 S
C150 C315 2.421 1_565 S
C348 C183 2.421 . S
C21 C285 0.717 . S
C318 C54 0.718 . S
C87 C351 0.717 . S
C384 C120 0.718 . S
C219 C153 0.717 . S
C186 C252 0.718 . S
