# Generated by pormake.
# Topology wib, (6)-cn, num edge types: 1
# Building blocks:
#     Node 0, Type 0, BuildingBlock: MIDCAF_clean_sbu_0, # of connection points: 6
#     Node 1, Type 0, BuildingBlock: MIDCAF_clean_sbu_0, # of connection points: 6
#     Node 2, Type 0, BuildingBlock: MIDCAF_clean_sbu_0, # of connection points: 6
#     Node 3, Type 0, BuildingBlock: MIDCAF_clean_sbu_0, # of connection points: 6
#     Node 4, Type 0, BuildingBlock: MIDCAF_clean_sbu_0, # of connection points: 6
#     Node 5, Type 0, BuildingBlock: MIDCAF_clean_sbu_0, # of connection points: 6
#     Node 6, Type 0, BuildingBlock: MIDCAF_clean_sbu_0, # of connection points: 6
#     Node 7, Type 0, BuildingBlock: MIDCAF_clean_sbu_0, # of connection points: 6
#     Node 8, Type 0, BuildingBlock: MIDCAF_clean_sbu_0, # of connection points: 6
#     Node 9, Type 0, BuildingBlock: MIDCAF_clean_sbu_0, # of connection points: 6
#     Node 10, Type 0, BuildingBlock: MIDCAF_clean_sbu_0, # of connection points: 6
#     Node 11, Type 0, BuildingBlock: MIDCAF_clean_sbu_0, # of connection points: 6
#     Node 12, Type 0, BuildingBlock: MIDCAF_clean_sbu_0, # of connection points: 6
#     Node 13, Type 0, BuildingBlock: MIDCAF_clean_sbu_0, # of connection points: 6
#     Node 14, Type 0, BuildingBlock: MIDCAF_clean_sbu_0, # of connection points: 6
#     Node 15, Type 0, BuildingBlock: MIDCAF_clean_sbu_0, # of connection points: 6
#     Edge 16, Type (0, 0), BuildingBlock: CIFDUS_clean_linker_0, # of connection points: 2
#     Edge 17, Type (0, 0), BuildingBlock: CIFDUS_clean_linker_0, # of connection points: 2
#     Edge 18, Type (0, 0), BuildingBlock: CIFDUS_clean_linker_0, # of connection points: 2
#     Edge 19, Type (0, 0), BuildingBlock: CIFDUS_clean_linker_0, # of connection points: 2
#     Edge 20, Type (0, 0), BuildingBlock: CIFDUS_clean_linker_0, # of connection points: 2
#     Edge 21, Type (0, 0), BuildingBlock: CIFDUS_clean_linker_0, # of connection points: 2
#     Edge 22, Type (0, 0), BuildingBlock: CIFDUS_clean_linker_0, # of connection points: 2
#     Edge 23, Type (0, 0), BuildingBlock: CIFDUS_clean_linker_0, # of connection points: 2
#     Edge 24, Type (0, 0), BuildingBlock: CIFDUS_clean_linker_0, # of connection points: 2
#     Edge 25, Type (0, 0), BuildingBlock: CIFDUS_clean_linker_0, # of connection points: 2
#     Edge 26, Type (0, 0), BuildingBlock: CIFDUS_clean_linker_0, # of connection points: 2
#     Edge 27, Type (0, 0), BuildingBlock: CIFDUS_clean_linker_0, # of connection points: 2
#     Edge 28, Type (0, 0), BuildingBlock: CIFDUS_clean_linker_0, # of connection points: 2
#     Edge 29, Type (0, 0), BuildingBlock: CIFDUS_clean_linker_0, # of connection points: 2
#     Edge 30, Type (0, 0), BuildingBlock: CIFDUS_clean_linker_0, # of connection points: 2
#     Edge 31, Type (0, 0), BuildingBlock: CIFDUS_clean_linker_0, # of connection points: 2
#     Edge 32, Type (0, 0), BuildingBlock: CIFDUS_clean_linker_0, # of connection points: 2
#     Edge 33, Type (0, 0), BuildingBlock: CIFDUS_clean_linker_0, # of connection points: 2
#     Edge 34, Type (0, 0), BuildingBlock: CIFDUS_clean_linker_0, # of connection points: 2
#     Edge 35, Type (0, 0), BuildingBlock: CIFDUS_clean_linker_0, # of connection points: 2
#     Edge 36, Type (0, 0), BuildingBlock: CIFDUS_clean_linker_0, # of connection points: 2
#     Edge 37, Type (0, 0), BuildingBlock: CIFDUS_clean_linker_0, # of connection points: 2
#     Edge 38, Type (0, 0), BuildingBlock: CIFDUS_clean_linker_0, # of connection points: 2
#     Edge 39, Type (0, 0), BuildingBlock: CIFDUS_clean_linker_0, # of connection points: 2
#     Edge 40, Type (0, 0), BuildingBlock: CIFDUS_clean_linker_0, # of connection points: 2
#     Edge 41, Type (0, 0), BuildingBlock: CIFDUS_clean_linker_0, # of connection points: 2
#     Edge 42, Type (0, 0), BuildingBlock: CIFDUS_clean_linker_0, # of connection points: 2
#     Edge 43, Type (0, 0), BuildingBlock: CIFDUS_clean_linker_0, # of connection points: 2
#     Edge 44, Type (0, 0), BuildingBlock: CIFDUS_clean_linker_0, # of connection points: 2
#     Edge 45, Type (0, 0), BuildingBlock: CIFDUS_clean_linker_0, # of connection points: 2
#     Edge 46, Type (0, 0), BuildingBlock: CIFDUS_clean_linker_0, # of connection points: 2
#     Edge 47, Type (0, 0), BuildingBlock: CIFDUS_clean_linker_0, # of connection points: 2
#     Edge 48, Type (0, 0), BuildingBlock: CIFDUS_clean_linker_0, # of connection points: 2
#     Edge 49, Type (0, 0), BuildingBlock: CIFDUS_clean_linker_0, # of connection points: 2
#     Edge 50, Type (0, 0), BuildingBlock: CIFDUS_clean_linker_0, # of connection points: 2
#     Edge 51, Type (0, 0), BuildingBlock: CIFDUS_clean_linker_0, # of connection points: 2
#     Edge 52, Type (0, 0), BuildingBlock: CIFDUS_clean_linker_0, # of connection points: 2
#     Edge 53, Type (0, 0), BuildingBlock: CIFDUS_clean_linker_0, # of connection points: 2
#     Edge 54, Type (0, 0), BuildingBlock: CIFDUS_clean_linker_0, # of connection points: 2
#     Edge 55, Type (0, 0), BuildingBlock: CIFDUS_clean_linker_0, # of connection points: 2
#     Edge 56, Type (0, 0), BuildingBlock: CIFDUS_clean_linker_0, # of connection points: 2
#     Edge 57, Type (0, 0), BuildingBlock: CIFDUS_clean_linker_0, # of connection points: 2
#     Edge 58, Type (0, 0), BuildingBlock: CIFDUS_clean_linker_0, # of connection points: 2
#     Edge 59, Type (0, 0), BuildingBlock: CIFDUS_clean_linker_0, # of connection points: 2
#     Edge 60, Type (0, 0), BuildingBlock: CIFDUS_clean_linker_0, # of connection points: 2
#     Edge 61, Type (0, 0), BuildingBlock: CIFDUS_clean_linker_0, # of connection points: 2
#     Edge 62, Type (0, 0), BuildingBlock: CIFDUS_clean_linker_0, # of connection points: 2
#     Edge 63, Type (0, 0), BuildingBlock: CIFDUS_clean_linker_0, # of connection points: 2
# Relax obj value: 0.554
# Max RMSD: 0.279
# Mean RMSD: 0.273
data_MOF--net-wib--node1-MIDCAF_clean_sbu_0--edge1-CIFDUS_clean_linker_0
_symmetry_space_group_name_H-M    P1
_symmetry_Int_Tables_number       1
_symmetry_cell_setting            triclinic
loop_
_symmetry_equiv_pos_as_xyz
'x, y, z'
_cell_length_a     24.369526
_cell_length_b     24.358624
_cell_length_c     53.080425
_cell_angle_alpha  90.046167
_cell_angle_beta   89.912833
_cell_angle_gamma 89.510513
loop_
_atom_site_label
_atom_site_type_symbol
_atom_site_fract_x
_atom_site_fract_y
_atom_site_fract_z
_atom_type_partial_charge
Zn0 Zn 0.08789 0.5095 0.22287 0.0
Zn1 Zn 0.29114 0.53971 0.28385 0.0
Zn2 Zn 0.16534 0.54397 0.24755 0.0
C3 C 0.27779 0.48019 0.23218 0.0
C4 C 0.17907 0.50461 0.30508 0.0
O5 O 0.12105 0.61883 0.23856 0.0
O6 O 0.04379 0.57823 0.22872 0.0
C7 C 0.16361 0.51445 0.1875 0.0
O8 O 0.22869 0.4963 0.22627 0.0
O9 O 0.30102 0.4942 0.25254 0.0
O10 O 0.22933 0.51729 0.30564 0.0
O11 O 0.14992 0.50717 0.28483 0.0
O12 O 0.11265 0.50649 0.18784 0.0
O13 O 0.18975 0.51966 0.20851 0.0
O14 O 0.10148 0.49659 0.2698 0.0
O15 O 0.06522 0.44269 0.24096 0.0
C16 C 0.06808 0.45774 0.26366 0.0
O17 O 0.22686 0.5935 0.26107 0.0
O18 O 0.30147 0.62062 0.27962 0.0
C19 C 0.0701 0.62182 0.23291 0.0
C20 C 0.26016 0.63171 0.26618 0.0
Zn21 Zn 0.2248 0.50356 0.51482 0.0
Zn22 Zn 0.26979 0.33883 0.4729 0.0
Zn23 Zn 0.23277 0.42144 0.49256 0.0
C24 C 0.30661 0.31443 0.51487 0.0
C25 C 0.27262 0.40957 0.43472 0.0
O26 O 0.145 0.43846 0.49573 0.0
O27 O 0.15222 0.5277 0.50169 0.0
C28 C 0.25574 0.43403 0.55066 0.0
O29 O 0.27241 0.35507 0.5171 0.0
O30 O 0.32838 0.30536 0.49369 0.0
O31 O 0.28557 0.36019 0.43871 0.0
O32 O 0.25992 0.44106 0.45345 0.0
O33 O 0.22531 0.47602 0.54972 0.0
O34 O 0.27023 0.40987 0.53009 0.0
O35 O 0.27371 0.48724 0.46996 0.0
O36 O 0.29178 0.54075 0.5021 0.0
C37 C 0.29762 0.5299 0.47901 0.0
O38 O 0.15637 0.38498 0.48455 0.0
O39 O 0.19398 0.30452 0.47539 0.0
C40 C 0.12278 0.48638 0.49739 0.0
C41 C 0.15162 0.33423 0.47863 0.0
Zn42 Zn 0.29875 0.5231 0.77371 0.0
Zn43 Zn 0.43352 0.48745 0.72017 0.0
Zn44 Zn 0.36184 0.48531 0.74858 0.0
C45 C 0.44251 0.58726 0.74124 0.0
C46 C 0.34457 0.45306 0.69155 0.0
O47 O 0.28946 0.44307 0.73596 0.0
O48 O 0.26351 0.44466 0.77543 0.0
C49 C 0.37168 0.4909 0.80438 0.0
O50 O 0.40313 0.56513 0.75346 0.0
O51 O 0.46129 0.56314 0.722 0.0
O52 O 0.39515 0.46304 0.68974 0.0
O53 O 0.31982 0.46068 0.71288 0.0
O54 O 0.35923 0.53927 0.79778 0.0
O55 O 0.36897 0.45289 0.78761 0.0
O56 O 0.28055 0.50359 0.72736 0.0
O57 O 0.26775 0.57852 0.74952 0.0
C58 C 0.25354 0.54892 0.73112 0.0
O59 O 0.40607 0.4139 0.76242 0.0
O60 O 0.47669 0.42882 0.7375 0.0
C61 C 0.26493 0.41941 0.75453 0.0
C62 C 0.45387 0.40034 0.75436 0.0
Zn63 Zn 0.23903 0.6785 0.96437 0.0
Zn64 Zn 0.28678 0.4925 0.03319 0.0
Zn65 Zn 0.27602 0.60503 0.99243 0.0
C66 C 0.22598 0.48944 0.98636 0.0
C67 C 0.25794 0.59504 0.04932 0.0
O68 O 0.34104 0.65942 0.98864 0.0
O69 O 0.29956 0.73215 0.97308 0.0
C70 C 0.26468 0.58831 0.93369 0.0
O71 O 0.25631 0.52572 0.97558 0.0
O72 O 0.21826 0.49089 0.01005 0.0
O73 O 0.30254 0.56861 0.04771 0.0
O74 O 0.23356 0.61 0.02889 0.0
O75 O 0.25157 0.63848 0.93217 0.0
O76 O 0.26577 0.56516 0.95539 0.0
O77 O 0.21342 0.65425 0.0129 0.0
O78 O 0.16623 0.68778 0.9812 0.0
C79 C 0.17484 0.68595 0.00468 0.0
O80 O 0.32854 0.53944 0.00016 0.0
O81 O 0.35773 0.46327 0.01688 0.0
C82 C 0.34202 0.70976 0.98233 0.0
C83 C 0.36641 0.50351 0.00237 0.0
Zn84 Zn 0.89905 0.53221 0.77827 0.0
Zn85 Zn 0.73956 0.47563 0.73708 0.0
Zn86 Zn 0.82257 0.50121 0.75678 0.0
C87 C 0.71601 0.57151 0.76438 0.0
C88 C 0.81691 0.49607 0.69891 0.0
O89 O 0.85888 0.42663 0.77403 0.0
O90 O 0.9427 0.45974 0.77441 0.0
C91 C 0.82906 0.49023 0.81262 0.0
O92 O 0.76616 0.5654 0.77117 0.0
O93 O 0.69529 0.53848 0.74882 0.0
O94 O 0.76901 0.47842 0.70258 0.0
O95 O 0.84726 0.5085 0.71773 0.0
O96 O 0.85162 0.53669 0.8099 0.0
O97 O 0.82276 0.45958 0.79309 0.0
O98 O 0.89687 0.52334 0.73364 0.0
O99 O 0.93109 0.59092 0.75603 0.0
C100 C 0.93433 0.55994 0.73681 0.0
O101 O 0.80377 0.41466 0.7675 0.0
O102 O 0.72195 0.40269 0.7505 0.0
C103 C 0.91138 0.41872 0.77507 0.0
C104 C 0.76182 0.38414 0.76303 0.0
Zn105 Zn 0.68776 0.46225 0.46887 0.0
Zn106 Zn 0.73525 0.68085 0.53236 0.0
Zn107 Zn 0.76402 0.60372 0.505 0.0
C108 C 0.68289 0.7068 0.49156 0.0
C109 C 0.74015 0.60239 0.56583 0.0
O110 O 0.77565 0.52448 0.4885 0.0
O111 O 0.77158 0.4418 0.47214 0.0
C112 C 0.6991 0.58333 0.45757 0.0
O113 O 0.71838 0.66998 0.48512 0.0
O114 O 0.67037 0.71196 0.51455 0.0
O115 O 0.73211 0.65347 0.56709 0.0
O116 O 0.74547 0.57882 0.54424 0.0
O117 O 0.68018 0.54669 0.47212 0.0
O118 O 0.72623 0.62196 0.46796 0.0
O119 O 0.72373 0.5381 0.52717 0.0
O120 O 0.66789 0.52274 0.496 0.0
C121 C 0.68374 0.51029 0.51812 0.0
O122 O 0.84313 0.63855 0.51071 0.0
O123 O 0.80846 0.7155 0.52596 0.0
C124 C 0.79986 0.48037 0.48186 0.0
C125 C 0.84955 0.68771 0.51854 0.0
Zn126 Zn 0.56768 0.49452 0.28248 0.0
Zn127 Zn 0.79411 0.43087 0.24064 0.0
Zn128 Zn 0.65767 0.51243 0.25873 0.0
C129 C 0.75972 0.44463 0.28673 0.0
C130 C 0.68935 0.44463 0.20638 0.0
O131 O 0.62533 0.59357 0.25981 0.0
O132 O 0.54307 0.57269 0.274 0.0
C133 C 0.64301 0.48689 0.31871 0.0
O134 O 0.72811 0.48731 0.28453 0.0
O135 O 0.75167 0.40569 0.2716 0.0
O136 O 0.73748 0.4308 0.21328 0.0
O137 O 0.65559 0.47099 0.221 0.0
O138 O 0.59165 0.48187 0.31768 0.0
O139 O 0.67037 0.49641 0.29863 0.0
O140 O 0.60021 0.46395 0.23527 0.0
O141 O 0.53909 0.43277 0.26207 0.0
C142 C 0.5568 0.43576 0.23975 0.0
O143 O 0.73842 0.51219 0.24801 0.0
O144 O 0.82484 0.51104 0.23893 0.0
C145 C 0.57651 0.60805 0.26576 0.0
C146 C 0.78082 0.53853 0.2417 0.0
Zn147 Zn 0.73986 0.30892 0.02484 0.0
Zn148 Zn 0.7893 0.53488 0.9654 0.0
Zn149 Zn 0.72239 0.39473 0.00527 0.0
C150 C 0.79447 0.49233 0.01771 0.0
C151 C 0.79288 0.41599 0.95687 0.0
O152 O 0.6411 0.3656 0.01155 0.0
O153 O 0.66704 0.2793 0.01362 0.0
C154 C 0.74471 0.38104 0.06373 0.0
O155 O 0.76162 0.4586 0.02852 0.0
O156 O 0.80981 0.48099 0.99537 0.0
O157 O 0.81421 0.45338 0.97043 0.0
O158 O 0.75935 0.38324 0.96774 0.0
O159 O 0.74035 0.33034 0.05976 0.0
O160 O 0.74596 0.41463 0.04501 0.0
O161 O 0.76709 0.33045 0.98262 0.0
O162 O 0.80905 0.27876 0.01039 0.0
C163 C 0.80111 0.2914 0.98767 0.0
O164 O 0.70915 0.46502 0.98277 0.0
O165 O 0.70357 0.5397 0.96017 0.0
C166 C 0.62891 0.3148 0.0123 0.0
C167 C 0.67996 0.49877 0.97039 0.0
Zn168 Zn 0.58154 0.98459 0.72356 0.0
Zn169 Zn 0.8072 0.94709 0.77878 0.0
Zn170 Zn 0.6606 0.01652 0.74511 0.0
C171 C 0.75493 0.94096 0.73026 0.0
C172 C 0.68686 0.95736 0.79241 0.0
O173 O 0.62159 0.09426 0.74183 0.0
O174 O 0.5423 0.05446 0.73543 0.0
C175 C 0.64737 0.99735 0.68459 0.0
O176 O 0.72271 0.97648 0.72 0.0
O177 O 0.7442 0.92817 0.75295 0.0
O178 O 0.72328 0.94025 0.77714 0.0
O179 O 0.64465 0.97983 0.78247 0.0
O180 O 0.59761 0.98606 0.68795 0.0
O181 O 0.67929 0.0015 0.70385 0.0
O182 O 0.59474 0.97046 0.76732 0.0
O183 O 0.55959 0.91432 0.73935 0.0
C184 C 0.5608 0.93183 0.7617 0.0
O185 O 0.74068 0.03695 0.75957 0.0
O186 O 0.82463 0.03082 0.77502 0.0
C187 C 0.56936 0.09736 0.74038 0.0
C188 C 0.78476 0.06015 0.76672 0.0
Zn189 Zn 0.72136 0.98113 0.01811 0.0
Zn190 Zn 0.75031 0.81796 0.9703 0.0
Zn191 Zn 0.73534 0.89993 0.99368 0.0
C192 C 0.82322 0.8022 0.00253 0.0
C193 C 0.73534 0.9 0.93552 0.0
O194 O 0.64767 0.9136 0.00164 0.0
O195 O 0.64465 0.00262 0.00935 0.0
C196 C 0.76864 0.90612 0.04983 0.0
O197 O 0.78828 0.83622 0.01215 0.0
O198 O 0.82819 0.80055 0.97886 0.0
O199 O 0.72867 0.84902 0.93765 0.0
O200 O 0.75142 0.9281 0.95468 0.0
O201 O 0.73356 0.94442 0.05106 0.0
O202 O 0.78257 0.88625 0.0283 0.0
O203 O 0.77453 0.96511 0.97092 0.0
O204 O 0.78399 0.02143 0.00309 0.0
C205 C 0.79591 0.00821 0.98073 0.0
O206 O 0.65675 0.8609 0.99124 0.0
O207 O 0.68941 0.7765 0.98731 0.0
C208 C 0.62007 0.95804 0.00552 0.0
C209 C 0.64932 0.80878 0.99105 0.0
Zn210 Zn 0.7486 0.95583 0.25337 0.0
Zn211 Zn 0.90125 0.02649 0.21623 0.0
Zn212 Zn 0.83298 0.98913 0.2421 0.0
C213 C 0.91674 0.07431 0.25794 0.0
C214 C 0.83629 0.95581 0.18859 0.0
O215 O 0.83021 0.89774 0.23592 0.0
O216 O 0.75232 0.87625 0.25481 0.0
C217 C 0.80074 0.00592 0.29554 0.0
O218 O 0.89626 0.02793 0.26407 0.0
O219 O 0.90123 0.09574 0.23733 0.0
O220 O 0.85277 0.00493 0.18643 0.0
O221 O 0.83676 0.93285 0.21045 0.0
O222 O 0.75393 0.99388 0.2869 0.0
O223 O 0.84295 0.00301 0.28128 0.0
O224 O 0.77433 0.04703 0.22596 0.0
O225 O 0.70814 0.98748 0.22427 0.0
C226 C 0.72605 0.03437 0.21886 0.0
O227 O 0.8833 0.91874 0.22924 0.0
O228 O 0.95859 0.96789 0.22642 0.0
C229 C 0.79616 0.86145 0.24415 0.0
C230 C 0.93615 0.92146 0.22848 0.0
Zn231 Zn 0.76197 0.17381 0.47311 0.0
Zn232 Zn 0.73278 0.95004 0.53764 0.0
Zn233 Zn 0.78152 0.09219 0.49589 0.0
C234 C 0.70053 0.00677 0.48769 0.0
C235 C 0.73982 0.07428 0.54648 0.0
O236 O 0.86096 0.11987 0.48514 0.0
O237 O 0.83333 0.2057 0.48349 0.0
C238 C 0.75488 0.10247 0.43644 0.0
O239 O 0.72312 0.04253 0.47359 0.0
O240 O 0.71261 0.00945 0.51086 0.0
O241 O 0.72817 0.03318 0.53298 0.0
O242 O 0.75538 0.11679 0.53454 0.0
O243 O 0.76417 0.15311 0.43754 0.0
O244 O 0.7492 0.07466 0.45696 0.0
O245 O 0.74611 0.1628 0.51828 0.0
O246 O 0.69411 0.2021 0.48952 0.0
C247 C 0.71039 0.19984 0.51208 0.0
O248 O 0.82142 0.01946 0.51238 0.0
O249 O 0.81708 0.93937 0.53296 0.0
C250 C 0.87206 0.17086 0.48364 0.0
C251 C 0.84491 0.97702 0.522 0.0
Zn252 Zn 0.20199 0.0513 0.21527 0.0
Zn253 Zn 0.47545 0.00989 0.30742 0.0
Zn254 Zn 0.34365 0.99847 0.25883 0.0
C255 C 0.43845 0.06984 0.26056 0.0
C256 C 0.3515 0.01407 0.3119 0.0
O257 O 0.27096 0.97179 0.23959 0.0
O258 O 0.19201 0.96684 0.21947 0.0
C259 C 0.32618 0.06102 0.21089 0.0
O260 O 0.40318 0.05719 0.24391 0.0
O261 O 0.42719 0.05456 0.28282 0.0
O262 O 0.3959 0.03022 0.30202 0.0
O263 O 0.31109 0.01229 0.29687 0.0
O264 O 0.28246 0.07099 0.22322 0.0
O265 O 0.36711 0.04439 0.22405 0.0
O266 O 0.27004 0.0281 0.27932 0.0
O267 O 0.24961 0.07726 0.24619 0.0
C268 C 0.23604 0.06039 0.26806 0.0
O269 O 0.39797 0.92751 0.26798 0.0
O270 O 0.47335 0.93166 0.29309 0.0
C271 C 0.23125 0.94325 0.23134 0.0
C272 C 0.4405 0.90533 0.27863 0.0
Zn273 Zn 0.19743 0.96655 0.9557 0.0
Zn274 Zn 0.22986 0.14894 0.03658 0.0
Zn275 Zn 0.25623 0.08077 0.00889 0.0
C276 C 0.18152 0.18533 0.99864 0.0
C277 C 0.28211 0.07622 0.06517 0.0
O278 O 0.27293 0.01282 0.98562 0.0
O279 O 0.28116 0.94468 0.95926 0.0
C280 C 0.21935 0.08762 0.95499 0.0
O281 O 0.22352 0.15706 0.99172 0.0
O282 O 0.16016 0.17505 0.01986 0.0
O283 O 0.23459 0.09743 0.06653 0.0
O284 O 0.30639 0.07478 0.04369 0.0
O285 O 0.1878 0.05046 0.96361 0.0
O286 O 0.24713 0.11584 0.97089 0.0
O287 O 0.19589 0.02596 0.0245 0.0
O288 O 0.16904 0.01737 0.98567 0.0
C289 C 0.16714 0.00025 0.00836 0.0
O290 O 0.33397 0.10824 0.0228 0.0
O291 O 0.30166 0.19189 0.02685 0.0
C292 C 0.30333 0.97789 0.97468 0.0
C293 C 0.34252 0.16026 0.02317 0.0
Zn294 Zn 0.21166 0.98654 0.73061 0.0
Zn295 Zn 0.07632 0.02712 0.78712 0.0
Zn296 Zn 0.14511 0.0388 0.75269 0.0
C297 C 0.05824 0.93998 0.75795 0.0
C298 C 0.17317 0.0562 0.8118 0.0
O299 O 0.22017 0.0731 0.76469 0.0
O300 O 0.24838 0.06479 0.72587 0.0
C301 C 0.14764 0.0089 0.69573 0.0
O302 O 0.09358 0.96798 0.74581 0.0
O303 O 0.0486 0.95176 0.7807 0.0
O304 O 0.1237 0.04441 0.81604 0.0
O305 O 0.19278 0.05338 0.78901 0.0
O306 O 0.1589 0.96197 0.70454 0.0
O307 O 0.14862 0.05018 0.71076 0.0
O308 O 0.22415 0.01239 0.77442 0.0
O309 O 0.24388 0.93425 0.75563 0.0
C310 C 0.25384 0.96799 0.77307 0.0
O311 O 0.09905 0.11275 0.75301 0.0
O312 O 0.02938 0.09128 0.77718 0.0
C313 C 0.2455 0.09375 0.7457 0.0
C314 C 0.05337 0.12556 0.7632 0.0
Zn315 Zn 0.24953 0.03802 0.46843 0.0
Zn316 Zn 0.25325 0.82962 0.5247 0.0
Zn317 Zn 0.22531 0.90893 0.50225 0.0
C318 C 0.32426 0.82373 0.48962 0.0
C319 C 0.23025 0.90661 0.56129 0.0
O320 O 0.19318 0.98013 0.49032 0.0
O321 O 0.17046 0.06163 0.4788 0.0
C322 C 0.26673 0.92702 0.44381 0.0
O323 O 0.28496 0.85435 0.4811 0.0
O324 O 0.3304 0.82032 0.51318 0.0
O325 O 0.2351 0.85525 0.55903 0.0
O326 O 0.23729 0.93692 0.54176 0.0
O327 O 0.25475 0.97787 0.44297 0.0
O328 O 0.26565 0.89838 0.46443 0.0
O329 O 0.25636 0.97935 0.52502 0.0
O330 O 0.30692 0.01832 0.4953 0.0
C331 C 0.29276 0.01464 0.51818 0.0
O332 O 0.15201 0.86331 0.50717 0.0
O333 O 0.19371 0.78321 0.50874 0.0
C334 C 0.15682 0.0174 0.48942 0.0
C335 C 0.14999 0.81108 0.50641 0.0
H336 H 0.3483 0.51352 0.19617 0.0
H337 H 0.28965 0.37022 0.23465 0.0
H338 H 0.38198 0.33095 0.2345 0.0
H339 H 0.48022 0.35494 0.23696 0.0
H340 H 0.5378 0.49934 0.19865 0.0
H341 H 0.4453 0.51918 0.18391 0.0
C342 C 0.35452 0.47171 0.20253 0.0
C343 C 0.31214 0.44528 0.21574 0.0
C344 C 0.40839 0.45041 0.2032 0.0
C345 C 0.32154 0.3915 0.2244 0.0
C346 C 0.37483 0.36954 0.22485 0.0
C347 C 0.4731 0.3888 0.22407 0.0
C348 C 0.51554 0.42666 0.21969 0.0
C349 C 0.4191 0.40105 0.21632 0.0
C350 C 0.50595 0.46982 0.20263 0.0
C351 C 0.45257 0.48184 0.19453 0.0
H352 H 0.27495 0.76719 0.45148 0.0
H353 H 0.42335 0.77342 0.49544 0.0
H354 H 0.43802 0.67531 0.48915 0.0
H355 H 0.39205 0.58661 0.48341 0.0
H356 H 0.24227 0.57916 0.44078 0.0
H357 H 0.24547 0.67817 0.4336 0.0
C358 C 0.31214 0.74775 0.45846 0.0
C359 C 0.34718 0.77739 0.47457 0.0
C360 C 0.31915 0.69042 0.45562 0.0
C361 C 0.39531 0.75146 0.48331 0.0
C362 C 0.40333 0.69501 0.48001 0.0
C363 C 0.36199 0.60621 0.47124 0.0
C364 C 0.31649 0.57582 0.46304 0.0
C365 C 0.36312 0.66357 0.46801 0.0
C366 C 0.27775 0.60157 0.44731 0.0
C367 C 0.27903 0.65858 0.44362 0.0
H368 H 0.17371 0.47526 0.71747 0.0
H369 H 0.20676 0.64842 0.72299 0.0
H370 H 0.10875 0.66902 0.72185 0.0
H371 H 0.01379 0.63667 0.72781 0.0
H372 H 0.97987 0.46411 0.72001 0.0
H373 H 0.07714 0.44478 0.71316 0.0
C374 C 0.1597 0.51761 0.7171 0.0
C375 C 0.19795 0.56018 0.72042 0.0
C376 C 0.10263 0.52936 0.71669 0.0
C377 C 0.17845 0.61479 0.72049 0.0
C378 C 0.12218 0.62666 0.72011 0.0
C379 C 0.0274 0.59512 0.72367 0.0
C380 C 0.98923 0.55205 0.72465 0.0
C381 C 0.08378 0.58415 0.71952 0.0
C382 C 0.00791 0.49835 0.71927 0.0
C383 C 0.06391 0.48706 0.71556 0.0
H384 H 0.24575 0.24276 0.96608 0.0
H385 H 0.08915 0.24794 0.00416 0.0
H386 H 0.08286 0.34668 0.99719 0.0
H387 H 0.13293 0.4322 0.99066 0.0
H388 H 0.29234 0.42846 0.95554 0.0
H389 H 0.28616 0.32877 0.9504 0.0
C390 C 0.20927 0.26513 0.97201 0.0
C391 C 0.16863 0.23833 0.98627 0.0
C392 C 0.20703 0.32245 0.96887 0.0
C393 C 0.12142 0.2678 0.99357 0.0
C394 C 0.11797 0.32437 0.98973 0.0
C395 C 0.16518 0.4097 0.98088 0.0
C396 C 0.21327 0.43711 0.97382 0.0
C397 C 0.16218 0.35242 0.97897 0.0
C398 C 0.25487 0.40805 0.96109 0.0
C399 C 0.25163 0.35094 0.95849 0.0
H400 H 0.48471 0.58294 0.78832 0.0
H401 H 0.48856 0.67715 0.71977 0.0
H402 H 0.58436 0.69992 0.72723 0.0
H403 H 0.67088 0.66268 0.74407 0.0
H404 H 0.6686 0.56109 0.81021 0.0
H405 H 0.56933 0.57293 0.81359 0.0
C406 C 0.50546 0.61143 0.7759 0.0
C407 C 0.47992 0.62722 0.75316 0.0
C408 C 0.56193 0.62128 0.7795 0.0
C409 C 0.5074 0.66408 0.73727 0.0
C410 C 0.5627 0.67623 0.74131 0.0
C411 C 0.6491 0.64646 0.76025 0.0
C412 C 0.67678 0.60981 0.77643 0.0
C413 C 0.59142 0.65073 0.76104 0.0
C414 C 0.64825 0.58923 0.79738 0.0
C415 C 0.59102 0.59489 0.79894 0.0
H416 H 0.62095 0.26574 0.5144 0.0
H417 H 0.7854 0.24696 0.54297 0.0
H418 H 0.78919 0.34515 0.55205 0.0
H419 H 0.75383 0.43801 0.54174 0.0
H420 H 0.58963 0.45554 0.51244 0.0
H421 H 0.57739 0.3565 0.51401 0.0
C422 C 0.65658 0.28282 0.52371 0.0
C423 C 0.70303 0.24955 0.52761 0.0
C424 C 0.65907 0.33949 0.52813 0.0
C425 C 0.74899 0.27183 0.53979 0.0
C426 C 0.75154 0.32823 0.54461 0.0
C427 C 0.71465 0.42026 0.53675 0.0
C428 C 0.67291 0.45379 0.52666 0.0
C429 C 0.7081 0.3629 0.53735 0.0
C430 C 0.6225 0.43028 0.52002 0.0
C431 C 0.6155 0.37365 0.52083 0.0
H432 H 0.8404 0.36756 0.28892 0.0
H433 H 0.80999 0.5398 0.30267 0.0
H434 H 0.90876 0.55644 0.3032 0.0
H435 H 0.00142 0.52548 0.29017 0.0
H436 H 0.02888 0.35528 0.27154 0.0
H437 H 0.93433 0.33407 0.28307 0.0
C438 C 0.85528 0.40859 0.29272 0.0
C439 C 0.81755 0.45258 0.29506 0.0
C440 C 0.91202 0.41822 0.29192 0.0
C441 C 0.8378 0.5052 0.30047 0.0
C442 C 0.89445 0.51483 0.30059 0.0
C443 C 0.98736 0.48334 0.28987 0.0
C444 C 0.02213 0.44184 0.28022 0.0
C445 C 0.93178 0.47217 0.29501 0.0
C446 C 0.00305 0.38766 0.27922 0.0
C447 C 0.94872 0.37574 0.28546 0.0
H448 H 0.88083 0.55835 0.01106 0.0
H449 H 0.71825 0.55547 0.04302 0.0
H450 H 0.71934 0.65569 0.04753 0.0
H451 H 0.75934 0.74383 0.03417 0.0
H452 H 0.91925 0.74522 0.99937 0.0
H453 H 0.92787 0.64611 0.00539 0.0
C454 C 0.84628 0.57962 0.01968 0.0
C455 C 0.79929 0.54985 0.02639 0.0
C456 C 0.84698 0.63707 0.02179 0.0
C457 C 0.75488 0.57756 0.0377 0.0
C458 C 0.75544 0.6349 0.04014 0.0
C459 C 0.79718 0.72279 0.02906 0.0
C460 C 0.83864 0.7517 0.01625 0.0
C461 C 0.80033 0.66522 0.03121 0.0
C462 C 0.88702 0.72384 0.00934 0.0
C463 C 0.8915 0.66702 0.01241 0.0
H464 H 0.82333 0.85987 0.74438 0.0
H465 H 0.8173 0.00634 0.69888 0.0
H466 H 0.91786 0.00759 0.6974 0.0
H467 H 0.00471 0.98032 0.71774 0.0
H468 H 0.00728 0.84379 0.76931 0.0
H469 H 0.91152 0.82409 0.75927 0.0
C470 C 0.84404 0.89124 0.73351 0.0
C471 C 0.8129 0.93357 0.72214 0.0
C472 C 0.90155 0.89354 0.73412 0.0
C473 C 0.84015 0.97349 0.70789 0.0
C474 C 0.89773 0.97445 0.70729 0.0
C475 C 0.98506 0.94459 0.72581 0.0
C476 C 0.01314 0.91323 0.74414 0.0
C477 C 0.92868 0.93653 0.72153 0.0
C478 C 0.98678 0.86796 0.75494 0.0
C479 C 0.93173 0.85736 0.7495 0.0
H480 H 0.75835 0.07305 0.94329 0.0
H481 H 0.90155 0.03626 0.98767 0.0
H482 H 0.92875 0.13218 0.98637 0.0
H483 H 0.89146 0.22595 0.98684 0.0
H484 H 0.74362 0.26335 0.94569 0.0
H485 H 0.73952 0.16893 0.93062 0.0
C486 C 0.79738 0.08558 0.95116 0.0
C487 C 0.82724 0.04838 0.96612 0.0
C488 C 0.81074 0.14166 0.9517 0.0
C489 C 0.87777 0.06459 0.97624 0.0
C490 C 0.89277 0.11974 0.97591 0.0
C491 C 0.86012 0.21407 0.97344 0.0
C492 C 0.81655 0.2505 0.96833 0.0
C493 C 0.8566 0.15901 0.96587 0.0
C494 C 0.77698 0.23552 0.95041 0.0
C495 C 0.77414 0.18115 0.94206 0.0
H496 H 0.48535 0.07035 0.21373 0.0
H497 H 0.51781 0.10708 0.29182 0.0
H498 H 0.6144 0.12177 0.2821 0.0
H499 H 0.69121 0.10411 0.2537 0.0
H500 H 0.66077 0.05095 0.17778 0.0
H501 H 0.56232 0.06711 0.18352 0.0
C502 C 0.51339 0.08264 0.2285 0.0
C503 C 0.49474 0.08638 0.25357 0.0
C504 C 0.56944 0.08911 0.22293 0.0
C505 C 0.53142 0.10282 0.27247 0.0
C506 C 0.58663 0.11155 0.2669 0.0
C507 C 0.66323 0.09931 0.23796 0.0
C508 C 0.68297 0.07606 0.21543 0.0
C509 C 0.6065 0.10238 0.24244 0.0
C510 C 0.64648 0.06921 0.19524 0.0
C511 C 0.58999 0.07687 0.19882 0.0
H512 H 0.59959 0.7805 0.49491 0.0
H513 H 0.74303 0.73998 0.45088 0.0
H514 H 0.75404 0.83623 0.43961 0.0
H515 H 0.73983 0.93231 0.45382 0.0
H516 H 0.60179 0.97085 0.5016 0.0
H517 H 0.571 0.87603 0.49948 0.0
C518 C 0.63172 0.79247 0.48189 0.0
C519 C 0.6717 0.75376 0.47466 0.0
C520 C 0.63962 0.84823 0.47671 0.0
C521 C 0.71225 0.76925 0.4572 0.0
C522 C 0.71914 0.8246 0.45104 0.0
C523 C 0.70169 0.92017 0.4627 0.0
C524 C 0.67324 0.95772 0.47806 0.0
C525 C 0.6858 0.86476 0.46245 0.0
C526 C 0.62421 0.94206 0.48979 0.0
C527 C 0.60685 0.88783 0.48872 0.0
H528 H 0.98671 0.0116 0.28622 0.0
H529 H 0.97181 0.16977 0.25007 0.0
H530 H 0.07094 0.18145 0.25242 0.0
H531 H 0.16222 0.13984 0.25789 0.0
H532 H 0.17821 0.98169 0.29361 0.0
H533 H 0.07829 0.97662 0.2981 0.0
C534 C 0.00481 0.04952 0.27965 0.0
C535 C 0.97173 0.08942 0.26762 0.0
C536 C 0.06223 0.05525 0.28034 0.0
C537 C 0.99619 0.13824 0.25926 0.0
C538 C 0.05302 0.14471 0.26034 0.0
C539 C 0.14378 0.10478 0.26711 0.0
C540 C 0.17727 0.06085 0.27504 0.0
C541 C 0.08652 0.10234 0.26969 0.0
C542 C 0.15319 0.0159 0.28723 0.0
C543 C 0.09605 0.01298 0.28975 0.0
H544 H 0.21176 0.92294 0.04034 0.0
H545 H 0.08209 0.94949 0.98639 0.0
H546 H 0.06137 0.85176 0.98651 0.0
H547 H 0.09237 0.75816 0.99495 0.0
H548 H 0.22745 0.72967 0.04579 0.0
H549 H 0.232 0.82782 0.05478 0.0
C550 C 0.17802 0.90742 0.02918 0.0
C551 C 0.14889 0.94328 0.01309 0.0
C552 C 0.16743 0.85048 0.02869 0.0
C553 C 0.10547 0.92257 0.99866 0.0
C554 C 0.09359 0.86666 0.99873 0.0
C555 C 0.12141 0.77311 0.00878 0.0
C556 C 0.16031 0.7365 0.0191 0.0
C557 C 0.12598 0.82996 0.0127 0.0
C558 C 0.19712 0.75663 0.0373 0.0
C559 C 0.20046 0.81315 0.04214 0.0
H560 H 0.50182 0.00841 0.78702 0.0
H561 H 0.50601 0.83613 0.76854 0.0
H562 H 0.4077 0.82966 0.77699 0.0
H563 H 0.31895 0.8778 0.7788 0.0
H564 H 0.31403 0.05217 0.79299 0.0
H565 H 0.41356 0.05297 0.79745 0.0
C566 C 0.48173 0.96888 0.7861 0.0
C567 C 0.51113 0.92275 0.77714 0.0
C568 C 0.42444 0.9663 0.78948 0.0
C569 C 0.4843 0.87206 0.77553 0.0
C570 C 0.42788 0.86859 0.78001 0.0
C571 C 0.33946 0.91563 0.78378 0.0
C572 C 0.30893 0.96496 0.78506 0.0
C573 C 0.39708 0.91616 0.78535 0.0
C574 C 0.33619 0.01355 0.79174 0.0
C575 C 0.39342 0.01415 0.79408 0.0
H576 H 0.38727 0.24063 0.52613 0.0
H577 H 0.21782 0.28021 0.54138 0.0
H578 H 0.19947 0.18428 0.55108 0.0
H579 H 0.22629 0.08756 0.54262 0.0
H580 H 0.39559 0.04899 0.52672 0.0
H581 H 0.41976 0.14539 0.53088 0.0
C582 C 0.34708 0.22872 0.53293 0.0
C583 C 0.30383 0.26733 0.5325 0.0
C584 C 0.3365 0.17306 0.53794 0.0
C585 C 0.25195 0.25141 0.54145 0.0
C586 C 0.24115 0.19615 0.54665 0.0
C587 C 0.26893 0.0999 0.54168 0.0
C588 C 0.30905 0.0614 0.53411 0.0
C589 C 0.28225 0.15612 0.5432 0.0
C590 C 0.36407 0.07798 0.53258 0.0
C591 C 0.37778 0.13335 0.53454 0.0
H592 H 0.18821 0.71097 0.27682 0.0
H593 H 0.32715 0.67019 0.2301 0.0
H594 H 0.33015 0.76461 0.21414 0.0
H595 H 0.29557 0.86012 0.2157 0.0
H596 H 0.15868 0.90064 0.26389 0.0
H597 H 0.15646 0.80573 0.27929 0.0
C598 C 0.21819 0.72292 0.26275 0.0
C599 C 0.25656 0.68473 0.25408 0.0
C600 C 0.22077 0.77717 0.25449 0.0
C601 C 0.2966 0.69974 0.23645 0.0
C602 C 0.29854 0.75345 0.22753 0.0
C603 C 0.26425 0.84745 0.22899 0.0
C604 C 0.22686 0.88606 0.23854 0.0
C605 C 0.26111 0.79267 0.23667 0.0
C606 C 0.18703 0.8706 0.25611 0.0
C607 C 0.18499 0.8166 0.26451 0.0
H608 H 0.04193 0.41778 0.51175 0.0
H609 H 0.07182 0.57331 0.47576 0.0
H610 H 0.97364 0.58573 0.46834 0.0
H611 H 0.87943 0.55198 0.47175 0.0
H612 H 0.8496 0.39294 0.50424 0.0
H613 H 0.94749 0.38261 0.51411 0.0
C614 C 0.02667 0.4542 0.50222 0.0
C615 C 0.06359 0.49412 0.49388 0.0
C616 C 0.97034 0.46071 0.49778 0.0
C617 C 0.0438 0.54198 0.4822 0.0
C618 C 0.98781 0.54917 0.47802 0.0
C619 C 0.89469 0.51503 0.48088 0.0
C620 C 0.85826 0.47305 0.48714 0.0
C621 C 0.95081 0.50871 0.48561 0.0
C622 C 0.87765 0.42529 0.499 0.0
C623 C 0.9333 0.4196 0.50474 0.0
H624 H 0.30547 0.34078 0.72319 0.0
H625 H 0.18996 0.36696 0.78377 0.0
H626 H 0.17591 0.26794 0.78715 0.0
H627 H 0.20027 0.17397 0.77454 0.0
H628 H 0.31552 0.14704 0.71392 0.0
H629 H 0.32719 0.24636 0.70941 0.0
C630 C 0.27633 0.32487 0.73676 0.0
C631 C 0.24844 0.36119 0.75311 0.0
C632 C 0.26981 0.26775 0.73913 0.0
C633 C 0.21165 0.33986 0.77091 0.0
C634 C 0.20405 0.28324 0.77302 0.0
C635 C 0.22864 0.18974 0.76059 0.0
C636 C 0.25793 0.15311 0.74492 0.0
C637 C 0.23394 0.24678 0.75766 0.0
C638 C 0.29318 0.17437 0.72645 0.0
C639 C 0.29943 0.23113 0.72371 0.0
H640 H 0.60202 0.5776 0.97224 0.0
H641 H 0.62572 0.40288 0.96506 0.0
H642 H 0.52726 0.38816 0.971 0.0
H643 H 0.43769 0.42461 0.98571 0.0
H644 H 0.41633 0.59885 0.99355 0.0
H645 H 0.51004 0.61464 0.98004 0.0
C646 C 0.5853 0.53646 0.97155 0.0
C647 C 0.62055 0.49124 0.96904 0.0
C648 C 0.52925 0.52829 0.97569 0.0
C649 C 0.59892 0.43807 0.96789 0.0
C650 C 0.54287 0.42965 0.97132 0.0
C651 C 0.45347 0.46595 0.98393 0.0
C652 C 0.42014 0.51105 0.99038 0.0
C653 C 0.5081 0.4743 0.97654 0.0
C654 C 0.44079 0.56421 0.988 0.0
C655 C 0.49472 0.57303 0.98065 0.0
H656 H 0.83777 0.30953 0.74905 0.0
H657 H 0.6843 0.32825 0.7885 0.0
H658 H 0.67619 0.22828 0.79191 0.0
H659 H 0.71197 0.13579 0.78253 0.0
H660 H 0.86968 0.11692 0.74659 0.0
H661 H 0.87729 0.21691 0.74264 0.0
C662 C 0.80367 0.29153 0.75918 0.0
C663 C 0.76233 0.32557 0.76915 0.0
C664 C 0.79982 0.2343 0.76126 0.0
C665 C 0.7169 0.30228 0.78114 0.0
C666 C 0.7122 0.24538 0.78295 0.0
C667 C 0.74805 0.15387 0.77398 0.0
C668 C 0.79008 0.11979 0.76471 0.0
C669 C 0.75313 0.21104 0.77285 0.0
C670 C 0.83698 0.14293 0.75385 0.0
C671 C 0.84134 0.19986 0.75166 0.0
H672 H 0.72649 0.78778 0.22603 0.0
H673 H 0.88716 0.80479 0.25847 0.0
H674 H 0.89918 0.70468 0.25887 0.0
H675 H 0.86011 0.61226 0.25279 0.0
H676 H 0.6967 0.59707 0.22268 0.0
H677 H 0.68885 0.69664 0.21878 0.0
C678 C 0.76447 0.7693 0.2327 0.0
C679 C 0.80684 0.80279 0.24131 0.0
C680 C 0.76992 0.71227 0.23372 0.0
C681 C 0.85532 0.77921 0.25062 0.0
C682 C 0.86166 0.72218 0.25128 0.0
C683 C 0.82313 0.63103 0.24521 0.0
C684 C 0.77856 0.59811 0.23848 0.0
C685 C 0.81885 0.6883 0.24319 0.0
C686 C 0.73075 0.62223 0.22864 0.0
C687 C 0.72647 0.67892 0.22618 0.0
H688 H 0.55516 0.02752 0.97959 0.0
H689 H 0.55196 0.8869 0.02872 0.0
H690 H 0.45232 0.88026 0.0236 0.0
H691 H 0.36696 0.91154 0.00298 0.0
H692 H 0.3703 0.05253 0.95414 0.0
H693 H 0.46941 0.06151 0.96065 0.0
C694 C 0.53233 0.99577 0.98926 0.0
C695 C 0.56016 0.95725 0.0042 0.0
C696 C 0.47558 0.99161 0.98576 0.0
C697 C 0.53081 0.91645 0.01687 0.0
C698 C 0.4741 0.91266 0.01393 0.0
C699 C 0.38983 0.9438 0.99371 0.0
C700 C 0.36263 0.98063 0.97773 0.0
C701 C 0.44628 0.94918 0.99793 0.0
C702 C 0.39146 0.02328 0.96614 0.0
C703 C 0.44775 0.02854 0.96996 0.0
H704 H 0.08651 0.93233 0.48677 0.0
H705 H 0.10791 0.09243 0.51964 0.0
H706 H 0.01308 0.09215 0.5348 0.0
H707 H 0.92126 0.0513 0.53369 0.0
H708 H 0.90049 0.8888 0.50327 0.0
H709 H 0.99805 0.88473 0.49194 0.0
C710 C 0.07086 0.96612 0.49804 0.0
C711 C 0.10354 0.01244 0.50206 0.0
C712 C 0.01633 0.96562 0.50659 0.0
C713 C 0.08281 0.05673 0.51611 0.0
C714 C 0.0288 0.05652 0.52479 0.0
C715 C 0.93862 0.01462 0.52508 0.0
C716 C 0.90436 0.97068 0.519 0.0
C717 C 0.99465 0.01212 0.51928 0.0
C718 C 0.92662 0.92304 0.50804 0.0
C719 C 0.98222 0.92076 0.50157 0.0
H720 H 0.20536 0.406 0.32114 0.0
H721 H 0.11693 0.55228 0.34227 0.0
H722 H 0.14137 0.53731 0.38664 0.0
H723 H 0.20231 0.49072 0.41798 0.0
H724 H 0.30647 0.35718 0.39256 0.0
H725 H 0.26507 0.3613 0.35112 0.0
C726 C 0.18925 0.43306 0.33571 0.0
C727 C 0.15954 0.47998 0.32855 0.0
C728 C 0.2101 0.42872 0.36018 0.0
C729 C 0.13932 0.51533 0.3474 0.0
C730 C 0.15509 0.50787 0.37261 0.0
C731 C 0.21696 0.4636 0.40318 0.0
C732 C 0.25798 0.42402 0.40846 0.0
C733 C 0.19348 0.46668 0.37891 0.0
C734 C 0.27549 0.38844 0.38908 0.0
C735 C 0.25115 0.39002 0.36543 0.0
H736 H 0.39111 0.413 0.64918 0.0
H737 H 0.23366 0.45368 0.68184 0.0
H738 H 0.19011 0.44166 0.64064 0.0
H739 H 0.20018 0.43483 0.5945 0.0
H740 H 0.35828 0.39662 0.56207 0.0
H741 H 0.39867 0.39221 0.60426 0.0
C742 C 0.34707 0.41867 0.64743 0.0
C743 C 0.31571 0.43584 0.66841 0.0
C744 C 0.32283 0.41261 0.62373 0.0
C745 C 0.25868 0.44139 0.66594 0.0
C746 C 0.23392 0.4347 0.64237 0.0
C747 C 0.2432 0.42416 0.5968 0.0
C748 C 0.27659 0.41671 0.5754 0.0
C749 C 0.26603 0.42261 0.621 0.0
C750 C 0.33198 0.40229 0.57836 0.0
C751 C 0.35505 0.40031 0.60243 0.0
H752 H 0.41604 0.55335 0.83987 0.0
H753 H 0.3166 0.40989 0.83008 0.0
H754 H 0.27704 0.42334 0.87229 0.0
H755 H 0.25691 0.48824 0.90819 0.0
H756 H 0.34946 0.63824 0.91268 0.0
H757 H 0.40392 0.61114 0.87644 0.0
C758 C 0.38738 0.52366 0.84743 0.0
C759 C 0.36927 0.48087 0.83187 0.0
C760 C 0.36141 0.53459 0.87048 0.0
C761 C 0.33185 0.44286 0.84178 0.0
C762 C 0.30813 0.45145 0.8657 0.0
C763 C 0.2894 0.51438 0.90128 0.0
C764 C 0.29826 0.56579 0.91274 0.0
C765 C 0.32014 0.49915 0.8796 0.0
C766 C 0.34093 0.59911 0.90381 0.0
C767 C 0.37253 0.58347 0.88319 0.0
H768 H 0.30222 0.6 0.09541 0.0
H769 H 0.14874 0.57479 0.057 0.0
H770 H 0.10708 0.54299 0.09642 0.0
H771 H 0.11644 0.51733 0.14103 0.0
H772 H 0.26886 0.5473 0.17965 0.0
H773 H 0.30978 0.5803 0.14058 0.0
C774 C 0.25926 0.58861 0.09583 0.0
C775 C 0.22841 0.58994 0.07345 0.0
C776 C 0.23621 0.56938 0.11831 0.0
C777 C 0.17295 0.57503 0.0741 0.0
C778 C 0.1495 0.55597 0.09653 0.0
C779 C 0.15889 0.53032 0.14088 0.0
C780 C 0.19036 0.5277 0.16317 0.0
C781 C 0.1812 0.55175 0.11858 0.0
C782 C 0.2447 0.54631 0.16264 0.0
C783 C 0.26767 0.56634 0.14039 0.0
H784 H 0.80089 0.63951 0.60425 0.0
H785 H 0.71563 0.49647 0.57765 0.0
H786 H 0.74661 0.44463 0.61457 0.0
H787 H 0.78847 0.44419 0.65645 0.0
H788 H 0.87019 0.58849 0.68401 0.0
H789 H 0.85281 0.63514 0.64395 0.0
C790 C 0.78868 0.59711 0.60673 0.0
C791 C 0.75484 0.57194 0.58873 0.0
C792 C 0.80724 0.56771 0.62776 0.0
C793 C 0.74103 0.51656 0.59149 0.0
C794 C 0.75901 0.48701 0.61247 0.0
C795 C 0.80424 0.48515 0.65327 0.0
C796 C 0.82992 0.51322 0.6731 0.0
C797 C 0.79129 0.51252 0.63089 0.0
C798 C 0.85066 0.566 0.66891 0.0
C799 C 0.83955 0.59308 0.64624 0.0
H800 H 0.65492 0.58369 0.34116 0.0
H801 H 0.68576 0.41072 0.35104 0.0
H802 H 0.71319 0.42693 0.39496 0.0
H803 H 0.71791 0.48923 0.43123 0.0
H804 H 0.68191 0.66151 0.42204 0.0
H805 H 0.66805 0.64734 0.37675 0.0
C806 C 0.66869 0.54985 0.35292 0.0
C807 C 0.66837 0.49616 0.34329 0.0
C808 C 0.68273 0.55947 0.37813 0.0
C809 C 0.68583 0.45226 0.35835 0.0
C810 C 0.70117 0.46159 0.38337 0.0
C811 C 0.70657 0.52354 0.41942 0.0
C812 C 0.69903 0.576 0.43001 0.0
C813 C 0.69787 0.51475 0.39364 0.0
C814 C 0.68734 0.62071 0.41423 0.0
C815 C 0.6792 0.61253 0.38843 0.0
H816 H 0.68349 0.46169 0.08781 0.0
H817 H 0.80495 0.33405 0.09935 0.0
H818 H 0.78478 0.3328 0.14401 0.0
H819 H 0.73178 0.36375 0.17914 0.0
H820 H 0.62609 0.50568 0.17254 0.0
H821 H 0.63684 0.5028 0.12627 0.0
C822 C 0.7069 0.43537 0.10036 0.0
C823 C 0.7458 0.39793 0.09033 0.0
C824 C 0.6956 0.43535 0.12653 0.0
C825 C 0.77521 0.36336 0.10667 0.0
C826 C 0.76296 0.36182 0.13213 0.0
C827 C 0.71064 0.39415 0.16767 0.0
C828 C 0.6783 0.43482 0.17931 0.0
C829 C 0.72248 0.39652 0.14205 0.0
C830 C 0.6505 0.4732 0.16407 0.0
C831 C 0.65797 0.47247 0.13769 0.0
H832 H 0.74102 0.4678 0.84273 0.0
H833 H 0.91752 0.46027 0.83895 0.0
H834 H 0.92224 0.43441 0.88337 0.0
H835 H 0.8767 0.42271 0.92425 0.0
H836 H 0.70024 0.42482 0.92829 0.0
H837 H 0.69455 0.44496 0.88313 0.0
C838 C 0.78021 0.45951 0.85167 0.0
C839 C 0.82894 0.4663 0.83796 0.0
C840 C 0.7826 0.44493 0.87734 0.0
C841 C 0.87968 0.4556 0.84946 0.0
C842 C 0.88239 0.44106 0.8748 0.0
C843 C 0.83713 0.42718 0.91509 0.0
C844 C 0.78909 0.42335 0.92942 0.0
C845 C 0.83427 0.43718 0.8891 0.0
C846 C 0.73781 0.4282 0.91751 0.0
C847 C 0.73455 0.4396 0.89172 0.0
H848 H 0.6213 0.93248 0.83179 0.0
H849 H 0.77948 0.99881 0.81369 0.0
H850 H 0.80582 0.99747 0.85781 0.0
H851 H 0.7893 0.963 0.90094 0.0
H852 H 0.63287 0.89132 0.91846 0.0
H853 H 0.6002 0.90958 0.87586 0.0
C854 C 0.66111 0.94742 0.83767 0.0
C855 C 0.69902 0.96424 0.81944 0.0
C856 C 0.67649 0.94511 0.86318 0.0
C857 C 0.75031 0.98391 0.8272 0.0
C858 C 0.76531 0.98347 0.85256 0.0
C859 C 0.74759 0.95321 0.89554 0.0
C860 C 0.71355 0.92582 0.91257 0.0
C861 C 0.72964 0.96201 0.87064 0.0
C862 C 0.65969 0.91254 0.90545 0.0
C863 C 0.64108 0.92257 0.88107 0.0
H864 H 0.72136 0.86984 0.09228 0.0
H865 H 0.87721 0.91278 0.0598 0.0
H866 H 0.91582 0.9255 0.10195 0.0
H867 H 0.89811 0.94368 0.14698 0.0
H868 H 0.74272 0.89959 0.17964 0.0
H869 H 0.71066 0.86714 0.13847 0.0
C870 C 0.76446 0.8795 0.09458 0.0
C871 C 0.79656 0.89071 0.07323 0.0
C872 C 0.78574 0.88781 0.11879 0.0
C873 C 0.85216 0.90349 0.07611 0.0
C874 C 0.87387 0.9116 0.10017 0.0
C875 C 0.85777 0.92561 0.14508 0.0
C876 C 0.82208 0.92491 0.16586 0.0
C877 C 0.84002 0.90696 0.1215 0.0
C878 C 0.77037 0.90074 0.16365 0.0
C879 C 0.75212 0.88246 0.14016 0.0
H880 H 0.82754 0.123 0.40005 0.0
H881 H 0.69058 0.01951 0.41849 0.0
H882 H 0.6949 0.97823 0.37626 0.0
H883 H 0.73468 0.9761 0.33369 0.0
H884 H 0.87539 0.07567 0.31631 0.0
H885 H 0.87339 0.11377 0.35905 0.0
C886 C 0.79855 0.09146 0.39473 0.0
C887 C 0.75777 0.07512 0.41185 0.0
C888 C 0.80231 0.06733 0.37088 0.0
C889 C 0.72164 0.03305 0.40532 0.0
C890 C 0.72422 0.00958 0.38129 0.0
C891 C 0.76513 0.0059 0.33935 0.0
C892 C 0.80463 0.02387 0.32191 0.0
C893 C 0.76389 0.02707 0.36385 0.0
C894 C 0.84458 0.0615 0.32947 0.0
C895 C 0.8432 0.08343 0.35379 0.0
H896 H 0.65708 0.10137 0.57652 0.0
H897 H 0.81977 0.03198 0.57688 0.0
H898 H 0.80851 0.00404 0.62116 0.0
H899 H 0.74701 0.99143 0.65868 0.0
H900 H 0.58132 0.05542 0.65458 0.0
H901 H 0.59889 0.09307 0.61333 0.0
C902 C 0.69053 0.0816 0.58663 0.0
C903 C 0.7394 0.06981 0.57399 0.0
C904 C 0.68264 0.06348 0.61138 0.0
C905 C 0.78214 0.04254 0.58672 0.0
C906 C 0.7754 0.026 0.61187 0.0
C907 C 0.71509 0.01369 0.64868 0.0
C908 C 0.66256 0.01934 0.65954 0.0
C909 C 0.72503 0.0348 0.62425 0.0
C910 C 0.62168 0.04892 0.64645 0.0
C911 C 0.63168 0.07109 0.62286 0.0
H912 H 0.25495 0.00368 0.10084 0.0
H913 H 0.37193 0.12907 0.08295 0.0
H914 H 0.40126 0.13251 0.12718 0.0
H915 H 0.38245 0.10911 0.17218 0.0
H916 H 0.26597 0.98239 0.18842 0.0
H917 H 0.24812 0.96927 0.14399 0.0
C918 C 0.28822 0.03027 0.10655 0.0
C919 C 0.31146 0.06583 0.08889 0.0
C920 C 0.30407 0.03253 0.13191 0.0
C921 C 0.35413 0.10071 0.09632 0.0
C922 C 0.37033 0.10317 0.12165 0.0
C923 C 0.35386 0.07817 0.16584 0.0
C924 C 0.32368 0.04816 0.18368 0.0
C925 C 0.34392 0.07082 0.13984 0.0
C926 C 0.28765 0.00756 0.17527 0.0
C927 C 0.27786 0.99967 0.14972 0.0
H928 H 0.26883 0.02667 0.91875 0.0
H929 H 0.17206 0.17305 0.93093 0.0
H930 H 0.15846 0.18303 0.88543 0.0
H931 H 0.16163 0.14114 0.84328 0.0
H932 H 0.25513 0.99281 0.83122 0.0
H933 H 0.2851 0.99367 0.87518 0.0
C934 C 0.24606 0.06142 0.91125 0.0
C935 C 0.22113 0.099 0.92786 0.0
C936 C 0.23841 0.06668 0.88508 0.0
C937 C 0.19161 0.14392 0.91827 0.0
C938 C 0.18374 0.14946 0.89232 0.0
C939 C 0.19057 0.11048 0.8501 0.0
C940 C 0.20728 0.06766 0.83399 0.0
C941 C 0.20535 0.11002 0.87565 0.0
C942 C 0.24348 0.02721 0.84302 0.0
C943 C 0.25951 0.02706 0.86834 0.0
H944 H 0.10432 0.93864 0.6632 0.0
H945 H 0.19796 0.08737 0.6664 0.0
H946 H 0.2294 0.07237 0.62281 0.0
H947 H 0.24257 0.00692 0.58639 0.0
H948 H 0.15433 0.85378 0.58785 0.0
H949 H 0.10969 0.87987 0.62674 0.0
C950 C 0.13021 0.96876 0.65405 0.0
C951 C 0.14887 0.01381 0.66795 0.0
C952 C 0.15092 0.95782 0.62995 0.0
C953 C 0.18245 0.05258 0.65596 0.0
C954 C 0.20136 0.04331 0.6312 0.0
C955 C 0.21338 0.97967 0.59525 0.0
C956 C 0.2032 0.92769 0.58451 0.0
C957 C 0.18811 0.99445 0.61843 0.0
C958 C 0.16448 0.8932 0.59602 0.0
C959 C 0.13828 0.90826 0.61821 0.0
H960 H 0.27382 0.94435 0.33057 0.0
H961 H 0.42645 0.02273 0.34954 0.0
H962 H 0.42197 0.98454 0.39198 0.0
H963 H 0.367 0.94285 0.42542 0.0
H964 H 0.21115 0.871 0.4078 0.0
H965 H 0.22598 0.88918 0.36294 0.0
C966 C 0.30635 0.95262 0.34393 0.0
C967 C 0.34993 0.98732 0.33702 0.0
C968 C 0.3034 0.93058 0.36846 0.0
C969 C 0.39223 0.99671 0.35441 0.0
C970 C 0.38979 0.97467 0.37869 0.0
C971 C 0.33783 0.92832 0.41154 0.0
C972 C 0.28821 0.9054 0.41986 0.0
C973 C 0.3448 0.94298 0.38614 0.0
C974 C 0.25008 0.88783 0.40183 0.0
C975 C 0.25791 0.89974 0.37623 0.0
H976 H 0.09039 0.721 0.25545 0.0
H977 H 0.98406 0.64149 0.20197 0.0
H978 H 0.93511 0.72753 0.19467 0.0
H979 H 0.9212 0.82566 0.20381 0.0
H980 H 0.02343 0.90479 0.25881 0.0
H981 H 0.07196 0.81857 0.26632 0.0
C982 C 0.0568 0.72274 0.2421 0.0
C983 C 0.04142 0.67503 0.2291 0.0
C984 C 0.02786 0.77238 0.23825 0.0
C985 C 0.99696 0.67765 0.2122 0.0
C986 C 0.96899 0.72691 0.20788 0.0
C987 C 0.95536 0.82407 0.21689 0.0
C988 C 0.96952 0.87126 0.23048 0.0
C989 C 0.98416 0.77458 0.22073 0.0
C990 C 0.01289 0.869 0.24773 0.0
C991 C 0.0411 0.81977 0.25188 0.0
H992 H 0.12379 0.22726 0.48433 0.0
H993 H 0.05822 0.38612 0.46416 0.0
H994 H 0.96543 0.34906 0.46371 0.0
H995 H 0.90328 0.27384 0.47243 0.0
H996 H 0.96794 0.1118 0.4875 0.0
H997 H 0.06175 0.14795 0.4859 0.0
C998 C 0.08911 0.25366 0.4798 0.0
C999 C 0.097 0.31007 0.47577 0.0
C1000 C 0.03614 0.23175 0.47899 0.0
C1001 C 0.05229 0.34344 0.469 0.0
C1002 C 0.99951 0.32216 0.46846 0.0
C1003 C 0.93774 0.24619 0.47555 0.0
C1004 C 0.92881 0.19056 0.48115 0.0
C1005 C 0.99091 0.26683 0.47424 0.0
C1006 C 0.97398 0.15511 0.48414 0.0
C1007 C 0.02736 0.17567 0.48322 0.0
H1008 H 0.4074 0.29965 0.75446 0.0
H1009 H 0.56092 0.38318 0.76465 0.0
H1010 H 0.61078 0.29634 0.76087 0.0
H1011 H 0.61192 0.19767 0.75187 0.0
H1012 H 0.45853 0.11447 0.73954 0.0
H1013 H 0.40803 0.19953 0.74727 0.0
C1014 C 0.45156 0.29831 0.75706 0.0
C1015 C 0.48038 0.34746 0.76052 0.0
C1016 C 0.48034 0.24829 0.75409 0.0
C1017 C 0.53783 0.3456 0.76267 0.0
C1018 C 0.56647 0.29603 0.76028 0.0
C1019 C 0.56746 0.19807 0.75099 0.0
C1020 C 0.53933 0.14967 0.74505 0.0
C1021 C 0.53837 0.2473 0.75541 0.0
C1022 C 0.48154 0.1511 0.74396 0.0
C1023 C 0.4524 0.19977 0.74849 0.0
H1024 H 0.55679 0.84847 0.97022 0.0
H1025 H 0.61959 0.71933 0.0179 0.0
H1026 H 0.52748 0.68078 0.02171 0.0
H1027 H 0.4306 0.6827 0.01038 0.0
H1028 H 0.36869 0.80698 0.95972 0.0
H1029 H 0.45873 0.85059 0.95911 0.0
C1030 C 0.54991 0.81221 0.98162 0.0
C1031 C 0.59411 0.78682 0.99402 0.0
C1032 C 0.49731 0.7899 0.98328 0.0
C1033 C 0.58564 0.73938 0.00836 0.0
C1034 C 0.53319 0.71759 0.01057 0.0
C1035 C 0.43693 0.71872 0.99884 0.0
C1036 C 0.39366 0.74041 0.98442 0.0
C1037 C 0.48895 0.74221 0.99789 0.0
C1038 C 0.40166 0.78903 0.97072 0.0
C1039 C 0.45314 0.81372 0.97021 0.0
H1040 H 0.96449 0.16805 0.78728 0.0
H1041 H 0.09572 0.21097 0.73632 0.0
H1042 H 0.06537 0.30674 0.737 0.0
H1043 H 0.00103 0.3781 0.75182 0.0
H1044 H 0.87138 0.33536 0.80333 0.0
H1045 H 0.90261 0.23954 0.80327 0.0
C1046 C 0.9863 0.19819 0.77615 0.0
C1047 C 0.03196 0.18226 0.76155 0.0
C1048 C 0.96945 0.25323 0.77706 0.0
C1049 C 0.05999 0.22201 0.74745 0.0
C1050 C 0.04296 0.27685 0.74798 0.0
C1051 C 0.9802 0.34775 0.76323 0.0
C1052 C 0.93391 0.36304 0.77739 0.0
C1053 C 0.99787 0.29289 0.76277 0.0
C1054 C 0.90697 0.32392 0.79217 0.0
C1055 C 0.92469 0.26932 0.79207 0.0
H1056 H 0.94121 0.6633 0.49093 0.0
H1057 H 0.87971 0.77097 0.5492 0.0
H1058 H 0.96646 0.81961 0.55006 0.0
H1059 H 0.05939 0.83339 0.53365 0.0
H1060 H 0.1237 0.72429 0.47674 0.0
H1061 H 0.03639 0.67496 0.47555 0.0
C1062 C 0.94727 0.69691 0.50395 0.0
C1063 C 0.9041 0.71358 0.5198 0.0
C1064 C 0.99748 0.72501 0.50434 0.0
C1065 C 0.91212 0.75767 0.53653 0.0
C1066 C 0.96174 0.78557 0.53709 0.0
C1067 C 0.05396 0.79898 0.52092 0.0
C1068 C 0.0971 0.78277 0.50503 0.0
C1069 C 0.00443 0.77008 0.52087 0.0
C1070 C 0.0905 0.73748 0.48899 0.0
C1071 C 0.04081 0.70922 0.48839 0.0
H1072 H 0.47229 0.64949 0.26437 0.0
H1073 H 0.64231 0.69785 0.26603 0.0
H1074 H 0.61454 0.7941 0.26914 0.0
H1075 H 0.5425 0.86381 0.27388 0.0
H1076 H 0.37218 0.81757 0.27103 0.0
H1077 H 0.39948 0.72083 0.26595 0.0
C1078 C 0.50324 0.68117 0.26519 0.0
C1079 C 0.55939 0.66649 0.26499 0.0
C1080 C 0.4869 0.73658 0.26694 0.0
C1081 C 0.59895 0.708 0.26589 0.0
C1082 C 0.58308 0.76304 0.26786 0.0
C1083 C 0.51128 0.83258 0.272 0.0
C1084 C 0.45542 0.84758 0.2731 0.0
C1085 C 0.52727 0.77764 0.26877 0.0
C1086 C 0.41541 0.80694 0.27021 0.0
C1087 C 0.43104 0.75173 0.26738 0.0
H1088 H 0.37591 0.26701 0.02605 0.0
H1089 H 0.43586 0.10126 0.01515 0.0
H1090 H 0.52865 0.13509 0.00943 0.0
H1091 H 0.59282 0.2109 0.00772 0.0
H1092 H 0.53588 0.37677 0.02076 0.0
H1093 H 0.44164 0.34385 0.02505 0.0
C1094 C 0.40935 0.23835 0.02254 0.0
C1095 C 0.3989 0.18167 0.02102 0.0
C1096 C 0.463 0.25811 0.01943 0.0
C1097 C 0.44267 0.14505 0.01642 0.0
C1098 C 0.49581 0.16435 0.0131 0.0
C1099 C 0.55987 0.24004 0.01143 0.0
C1100 C 0.57129 0.29634 0.01354 0.0
C1101 C 0.50638 0.2207 0.01454 0.0
C1102 C 0.52805 0.33334 0.01853 0.0
C1103 C 0.47425 0.31446 0.02122 0.0
loop_
_geom_bond_atom_site_label_1
_geom_bond_atom_site_label_2
_geom_bond_distance
_geom_bond_site_symmetry_2
_ccdc_geom_bond_type
Zn0 O6 1.920 . S
Zn0 O12 1.898 . S
Zn0 O15 1.905 . S
Zn1 O9 1.905 . S
Zn1 O10 1.898 . S
Zn1 O18 1.920 . S
Zn2 O5 2.080 . S
Zn2 O8 2.114 . S
Zn2 O11 2.120 . S
Zn2 O13 2.120 . S
Zn2 O14 2.114 . S
Zn2 O17 2.080 . S
C3 O8 1.166 . S
C3 O9 1.182 . S
C4 O10 1.167 . S
C4 O11 1.299 . S
O5 Zn2 2.080 . S
O5 C19 1.305 . S
O6 Zn0 1.920 . S
O6 C19 1.234 . S
C7 O12 1.167 . S
C7 O13 1.299 . S
O8 Zn2 2.114 . S
O8 C3 1.166 . S
O9 Zn1 1.905 . S
O9 C3 1.182 . S
O10 Zn1 1.898 . S
O10 C4 1.167 . S
O11 Zn2 2.120 . S
O11 C4 1.299 . S
O12 Zn0 1.898 . S
O12 C7 1.167 . S
O13 Zn2 2.120 . S
O13 C7 1.299 . S
O14 Zn2 2.114 . S
O14 C16 1.166 . S
O15 Zn0 1.905 . S
O15 C16 1.182 . S
C16 O14 1.166 . S
C16 O15 1.182 . S
O17 Zn2 2.080 . S
O17 C20 1.305 . S
O18 Zn1 1.920 . S
O18 C20 1.234 . S
C19 O5 1.305 . S
C19 O6 1.234 . S
C20 O17 1.305 . S
C20 O18 1.234 . S
Zn21 O27 1.920 . S
Zn21 O33 1.898 . S
Zn21 O36 1.905 . S
Zn22 O30 1.905 . S
Zn22 O31 1.898 . S
Zn22 O39 1.920 . S
Zn23 O26 2.080 . S
Zn23 O29 2.114 . S
Zn23 O32 2.120 . S
Zn23 O34 2.120 . S
Zn23 O35 2.114 . S
Zn23 O38 2.080 . S
C24 O29 1.166 . S
C24 O30 1.182 . S
C25 O31 1.167 . S
C25 O32 1.299 . S
O26 Zn23 2.080 . S
O26 C40 1.305 . S
O27 Zn21 1.920 . S
O27 C40 1.234 . S
C28 O33 1.167 . S
C28 O34 1.299 . S
O29 Zn23 2.114 . S
O29 C24 1.166 . S
O30 Zn22 1.905 . S
O30 C24 1.182 . S
O31 Zn22 1.898 . S
O31 C25 1.167 . S
O32 Zn23 2.120 . S
O32 C25 1.299 . S
O33 Zn21 1.898 . S
O33 C28 1.167 . S
O34 Zn23 2.120 . S
O34 C28 1.299 . S
O35 Zn23 2.114 . S
O35 C37 1.166 . S
O36 Zn21 1.905 . S
O36 C37 1.182 . S
C37 O35 1.166 . S
C37 O36 1.182 . S
O38 Zn23 2.080 . S
O38 C41 1.305 . S
O39 Zn22 1.920 . S
O39 C41 1.234 . S
C40 O26 1.305 . S
C40 O27 1.234 . S
C41 O38 1.305 . S
C41 O39 1.234 . S
Zn42 O48 1.920 . S
Zn42 O54 1.898 . S
Zn42 O57 1.905 . S
Zn43 O51 1.905 . S
Zn43 O52 1.898 . S
Zn43 O60 1.920 . S
Zn44 O47 2.080 . S
Zn44 O50 2.114 . S
Zn44 O53 2.120 . S
Zn44 O55 2.120 . S
Zn44 O56 2.114 . S
Zn44 O59 2.080 . S
C45 O50 1.166 . S
C45 O51 1.182 . S
C46 O52 1.167 . S
C46 O53 1.299 . S
O47 Zn44 2.080 . S
O47 C61 1.305 . S
O48 Zn42 1.920 . S
O48 C61 1.234 . S
C49 O54 1.167 . S
C49 O55 1.299 . S
O50 Zn44 2.114 . S
O50 C45 1.166 . S
O51 Zn43 1.905 . S
O51 C45 1.182 . S
O52 Zn43 1.898 . S
O52 C46 1.167 . S
O53 Zn44 2.120 . S
O53 C46 1.299 . S
O54 Zn42 1.898 . S
O54 C49 1.167 . S
O55 Zn44 2.120 . S
O55 C49 1.299 . S
O56 Zn44 2.114 . S
O56 C58 1.166 . S
O57 Zn42 1.905 . S
O57 C58 1.182 . S
C58 O56 1.166 . S
C58 O57 1.182 . S
O59 Zn44 2.080 . S
O59 C62 1.305 . S
O60 Zn43 1.920 . S
O60 C62 1.234 . S
C61 O47 1.305 . S
C61 O48 1.234 . S
C62 O59 1.305 . S
C62 O60 1.234 . S
Zn63 O69 1.920 . S
Zn63 O75 1.898 . S
Zn63 O78 1.905 . S
Zn64 O72 1.905 . S
Zn64 O73 1.898 . S
Zn64 O81 1.920 . S
Zn65 O68 2.080 . S
Zn65 O71 2.114 1_554 S
Zn65 O74 2.119 . S
Zn65 O76 2.121 1_554 S
Zn65 O77 2.114 1_554 S
Zn65 O80 2.080 . S
C66 O71 1.166 1_554 S
C66 O72 1.204 . S
C67 O73 1.167 . S
C67 O74 1.299 . S
O68 Zn65 2.080 . S
O68 C82 1.305 1_554 S
O69 Zn63 1.920 . S
O69 C82 1.234 . S
C70 O75 1.167 . S
C70 O76 1.299 . S
O71 Zn65 2.114 1_556 S
O71 C66 1.166 1_556 S
O72 Zn64 1.905 . S
O72 C66 1.204 . S
O73 Zn64 1.898 . S
O73 C67 1.167 . S
O74 Zn65 2.119 . S
O74 C67 1.299 . S
O75 Zn63 1.898 . S
O75 C70 1.167 . S
O76 Zn65 2.121 1_556 S
O76 C70 1.299 . S
O77 Zn65 2.114 1_556 S
O77 C79 1.166 . S
O78 Zn63 1.905 . S
O78 C79 1.182 . S
C79 O77 1.166 . S
C79 O78 1.182 . S
O80 Zn65 2.080 . S
O80 C83 1.305 . S
O81 Zn64 1.920 . S
O81 C83 1.234 . S
C82 O68 1.305 1_556 S
C82 O69 1.234 . S
C83 O80 1.305 . S
C83 O81 1.234 . S
Zn84 O90 1.920 . S
Zn84 O96 1.898 . S
Zn84 O99 1.905 . S
Zn85 O93 1.905 . S
Zn85 O94 1.898 . S
Zn85 O102 1.920 . S
Zn86 O89 2.080 . S
Zn86 O92 2.114 . S
Zn86 O95 2.120 . S
Zn86 O97 2.120 . S
Zn86 O98 2.114 . S
Zn86 O101 2.080 . S
C87 O92 1.166 . S
C87 O93 1.182 . S
C88 O94 1.167 . S
C88 O95 1.299 . S
O89 Zn86 2.080 . S
O89 C103 1.305 . S
O90 Zn84 1.920 . S
O90 C103 1.234 . S
C91 O96 1.167 . S
C91 O97 1.299 . S
O92 Zn86 2.114 . S
O92 C87 1.166 . S
O93 Zn85 1.905 . S
O93 C87 1.182 . S
O94 Zn85 1.898 . S
O94 C88 1.167 . S
O95 Zn86 2.120 . S
O95 C88 1.299 . S
O96 Zn84 1.898 . S
O96 C91 1.167 . S
O97 Zn86 2.120 . S
O97 C91 1.299 . S
O98 Zn86 2.114 . S
O98 C100 1.166 . S
O99 Zn84 1.905 . S
O99 C100 1.182 . S
C100 O98 1.166 . S
C100 O99 1.182 . S
O101 Zn86 2.080 . S
O101 C104 1.305 . S
O102 Zn85 1.920 . S
O102 C104 1.234 . S
C103 O89 1.305 . S
C103 O90 1.234 . S
C104 O101 1.305 . S
C104 O102 1.234 . S
Zn105 O111 1.920 . S
Zn105 O117 1.898 . S
Zn105 O120 1.905 . S
Zn106 O114 1.905 . S
Zn106 O115 1.898 . S
Zn106 O123 1.920 . S
Zn107 O110 2.080 . S
Zn107 O113 2.114 . S
Zn107 O116 2.120 . S
Zn107 O118 2.120 . S
Zn107 O119 2.114 . S
Zn107 O122 2.080 . S
C108 O113 1.166 . S
C108 O114 1.182 . S
C109 O115 1.167 . S
C109 O116 1.299 . S
O110 Zn107 2.080 . S
O110 C124 1.305 . S
O111 Zn105 1.920 . S
O111 C124 1.234 . S
C112 O117 1.167 . S
C112 O118 1.299 . S
O113 Zn107 2.114 . S
O113 C108 1.166 . S
O114 Zn106 1.905 . S
O114 C108 1.182 . S
O115 Zn106 1.898 . S
O115 C109 1.167 . S
O116 Zn107 2.120 . S
O116 C109 1.299 . S
O117 Zn105 1.898 . S
O117 C112 1.167 . S
O118 Zn107 2.120 . S
O118 C112 1.299 . S
O119 Zn107 2.114 . S
O119 C121 1.166 . S
O120 Zn105 1.905 . S
O120 C121 1.182 . S
C121 O119 1.166 . S
C121 O120 1.182 . S
O122 Zn107 2.080 . S
O122 C125 1.305 . S
O123 Zn106 1.920 . S
O123 C125 1.234 . S
C124 O110 1.305 . S
C124 O111 1.234 . S
C125 O122 1.305 . S
C125 O123 1.234 . S
Zn126 O132 1.920 . S
Zn126 O138 1.898 . S
Zn126 O141 1.905 . S
Zn127 O135 1.905 . S
Zn127 O136 1.898 . S
Zn127 O144 1.920 . S
Zn128 O131 2.080 . S
Zn128 O134 2.114 . S
Zn128 O137 2.120 . S
Zn128 O139 2.120 . S
Zn128 O140 2.114 . S
Zn128 O143 2.080 . S
C129 O134 1.166 . S
C129 O135 1.182 . S
C130 O136 1.167 . S
C130 O137 1.299 . S
O131 Zn128 2.080 . S
O131 C145 1.305 . S
O132 Zn126 1.920 . S
O132 C145 1.234 . S
C133 O138 1.167 . S
C133 O139 1.299 . S
O134 Zn128 2.114 . S
O134 C129 1.166 . S
O135 Zn127 1.905 . S
O135 C129 1.182 . S
O136 Zn127 1.898 . S
O136 C130 1.167 . S
O137 Zn128 2.120 . S
O137 C130 1.299 . S
O138 Zn126 1.898 . S
O138 C133 1.167 . S
O139 Zn128 2.120 . S
O139 C133 1.299 . S
O140 Zn128 2.114 . S
O140 C142 1.166 . S
O141 Zn126 1.905 . S
O141 C142 1.182 . S
C142 O140 1.166 . S
C142 O141 1.182 . S
O143 Zn128 2.080 . S
O143 C146 1.305 . S
O144 Zn127 1.920 . S
O144 C146 1.234 . S
C145 O131 1.305 . S
C145 O132 1.234 . S
C146 O143 1.305 . S
C146 O144 1.234 . S
Zn147 O153 1.920 . S
Zn147 O159 1.898 . S
Zn147 O162 1.905 . S
Zn148 O156 1.905 . S
Zn148 O157 1.898 . S
Zn148 O165 1.920 . S
Zn149 O152 2.080 . S
Zn149 O155 2.114 1_556 S
Zn149 O158 2.119 . S
Zn149 O160 2.121 1_556 S
Zn149 O161 2.114 1_556 S
Zn149 O164 2.080 . S
C150 O155 1.166 1_556 S
C150 O156 1.204 . S
C151 O157 1.167 . S
C151 O158 1.299 . S
O152 Zn149 2.080 . S
O152 C166 1.305 1_556 S
O153 Zn147 1.920 . S
O153 C166 1.234 . S
C154 O159 1.167 . S
C154 O160 1.299 . S
O155 Zn149 2.114 1_554 S
O155 C150 1.166 1_554 S
O156 Zn148 1.905 . S
O156 C150 1.204 . S
O157 Zn148 1.898 . S
O157 C151 1.167 . S
O158 Zn149 2.119 . S
O158 C151 1.299 . S
O159 Zn147 1.898 . S
O159 C154 1.167 . S
O160 Zn149 2.121 1_554 S
O160 C154 1.299 . S
O161 Zn149 2.114 1_554 S
O161 C163 1.166 . S
O162 Zn147 1.905 . S
O162 C163 1.182 . S
C163 O161 1.166 . S
C163 O162 1.182 . S
O164 Zn149 2.080 . S
O164 C167 1.305 . S
O165 Zn148 1.920 . S
O165 C167 1.234 . S
C166 O152 1.305 1_554 S
C166 O153 1.234 . S
C167 O164 1.305 . S
C167 O165 1.234 . S
Zn168 O174 1.920 . S
Zn168 O180 1.898 . S
Zn168 O183 1.905 1_545 S
Zn169 O177 1.905 1_545 S
Zn169 O178 1.898 1_545 S
Zn169 O186 1.920 . S
Zn170 O173 2.080 . S
Zn170 O176 2.114 1_545 S
Zn170 O179 2.120 . S
Zn170 O181 2.120 . S
Zn170 O182 2.114 1_545 S
Zn170 O185 2.080 . S
C171 O176 1.166 . S
C171 O177 1.182 . S
C172 O178 1.167 . S
C172 O179 1.299 1_565 S
O173 Zn170 2.080 . S
O173 C187 1.305 . S
O174 Zn168 1.920 . S
O174 C187 1.234 . S
C175 O180 1.167 . S
C175 O181 1.299 . S
O176 Zn170 2.114 1_565 S
O176 C171 1.166 . S
O177 Zn169 1.905 1_565 S
O177 C171 1.182 . S
O178 Zn169 1.898 1_565 S
O178 C172 1.167 . S
O179 Zn170 2.120 . S
O179 C172 1.299 1_545 S
O180 Zn168 1.898 . S
O180 C175 1.167 . S
O181 Zn170 2.120 . S
O181 C175 1.299 . S
O182 Zn170 2.114 1_565 S
O182 C184 1.166 . S
O183 Zn168 1.905 1_565 S
O183 C184 1.182 . S
C184 O182 1.166 . S
C184 O183 1.182 . S
O185 Zn170 2.080 . S
O185 C188 1.305 . S
O186 Zn169 1.920 . S
O186 C188 1.234 . S
C187 O173 1.305 . S
C187 O174 1.234 . S
C188 O185 1.305 . S
C188 O186 1.234 . S
Zn189 O195 1.920 . S
Zn189 O201 1.898 1_545 S
Zn189 O204 1.905 . S
Zn190 O198 1.905 . S
Zn190 O199 1.898 . S
Zn190 O207 1.920 . S
Zn191 O194 2.080 . S
Zn191 O197 2.114 1_554 S
Zn191 O200 2.121 1_554 S
Zn191 O202 2.119 . S
Zn191 O203 2.114 1_554 S
Zn191 O206 2.080 . S
C192 O197 1.166 . S
C192 O198 1.182 . S
C193 O199 1.167 . S
C193 O200 1.299 . S
O194 Zn191 2.080 . S
O194 C208 1.305 . S
O195 Zn189 1.920 . S
O195 C208 1.234 1_545 S
C196 O201 1.167 . S
C196 O202 1.299 . S
O197 Zn191 2.114 1_556 S
O197 C192 1.166 . S
O198 Zn190 1.905 . S
O198 C192 1.182 . S
O199 Zn190 1.898 . S
O199 C193 1.167 . S
O200 Zn191 2.121 1_556 S
O200 C193 1.299 . S
O201 Zn189 1.898 1_565 S
O201 C196 1.167 . S
O202 Zn191 2.119 . S
O202 C196 1.299 . S
O203 Zn191 2.114 1_556 S
O203 C205 1.166 1_566 S
O204 Zn189 1.905 . S
O204 C205 1.204 . S
C205 O203 1.166 1_544 S
C205 O204 1.204 . S
O206 Zn191 2.080 . S
O206 C209 1.305 1_554 S
O207 Zn190 1.920 . S
O207 C209 1.234 . S
C208 O194 1.305 . S
C208 O195 1.234 1_565 S
C209 O206 1.305 1_556 S
C209 O207 1.234 . S
Zn210 O216 1.920 . S
Zn210 O222 1.898 1_565 S
Zn210 O225 1.905 1_565 S
Zn211 O219 1.905 1_565 S
Zn211 O220 1.898 . S
Zn211 O228 1.920 . S
Zn212 O215 2.080 . S
Zn212 O218 2.114 1_565 S
Zn212 O221 2.120 . S
Zn212 O223 2.120 . S
Zn212 O224 2.114 1_565 S
Zn212 O227 2.080 . S
C213 O218 1.166 . S
C213 O219 1.182 . S
C214 O220 1.167 . S
C214 O221 1.299 . S
O215 Zn212 2.080 . S
O215 C229 1.305 . S
O216 Zn210 1.920 . S
O216 C229 1.234 . S
C217 O222 1.167 . S
C217 O223 1.299 1_545 S
O218 Zn212 2.114 1_545 S
O218 C213 1.166 . S
O219 Zn211 1.905 1_545 S
O219 C213 1.182 . S
O220 Zn211 1.898 . S
O220 C214 1.167 . S
O221 Zn212 2.120 . S
O221 C214 1.299 . S
O222 Zn210 1.898 1_545 S
O222 C217 1.167 . S
O223 Zn212 2.120 . S
O223 C217 1.299 1_565 S
O224 Zn212 2.114 1_545 S
O224 C226 1.166 . S
O225 Zn210 1.905 1_545 S
O225 C226 1.182 . S
C226 O224 1.166 . S
C226 O225 1.182 . S
O227 Zn212 2.080 . S
O227 C230 1.305 . S
O228 Zn211 1.920 . S
O228 C230 1.234 . S
C229 O215 1.305 . S
C229 O216 1.234 . S
C230 O227 1.305 . S
C230 O228 1.234 . S
Zn231 O237 1.920 . S
Zn231 O243 1.898 . S
Zn231 O246 1.905 . S
Zn232 O240 1.905 . S
Zn232 O241 1.898 1_565 S
Zn232 O249 1.920 . S
Zn233 O236 2.080 . S
Zn233 O239 2.114 . S
Zn233 O242 2.120 . S
Zn233 O244 2.120 . S
Zn233 O245 2.114 . S
Zn233 O248 2.080 . S
C234 O239 1.166 1_565 S
C234 O240 1.182 . S
C235 O241 1.167 . S
C235 O242 1.299 . S
O236 Zn233 2.080 . S
O236 C250 1.305 . S
O237 Zn231 1.920 . S
O237 C250 1.234 . S
C238 O243 1.167 . S
C238 O244 1.299 . S
O239 Zn233 2.114 . S
O239 C234 1.166 1_545 S
O240 Zn232 1.905 . S
O240 C234 1.182 . S
O241 Zn232 1.898 1_545 S
O241 C235 1.167 . S
O242 Zn233 2.120 . S
O242 C235 1.299 . S
O243 Zn231 1.898 . S
O243 C238 1.167 . S
O244 Zn233 2.120 . S
O244 C238 1.299 . S
O245 Zn233 2.114 . S
O245 C247 1.166 . S
O246 Zn231 1.905 . S
O246 C247 1.182 . S
C247 O245 1.166 . S
C247 O246 1.182 . S
O248 Zn233 2.080 . S
O248 C251 1.305 . S
O249 Zn232 1.920 . S
O249 C251 1.234 1_565 S
C250 O236 1.305 . S
C250 O237 1.234 . S
C251 O248 1.305 . S
C251 O249 1.234 1_545 S
Zn252 O258 1.920 . S
Zn252 O264 1.898 1_565 S
Zn252 O267 1.905 1_565 S
Zn253 O261 1.905 1_565 S
Zn253 O262 1.898 . S
Zn253 O270 1.920 . S
Zn254 O257 2.080 . S
Zn254 O260 2.114 1_565 S
Zn254 O263 2.120 . S
Zn254 O265 2.120 . S
Zn254 O266 2.114 1_565 S
Zn254 O269 2.080 . S
C255 O260 1.166 . S
C255 O261 1.182 . S
C256 O262 1.167 . S
C256 O263 1.299 . S
O257 Zn254 2.080 . S
O257 C271 1.305 . S
O258 Zn252 1.920 . S
O258 C271 1.234 . S
C259 O264 1.167 . S
C259 O265 1.299 1_545 S
O260 Zn254 2.114 1_545 S
O260 C255 1.166 . S
O261 Zn253 1.905 1_545 S
O261 C255 1.182 . S
O262 Zn253 1.898 . S
O262 C256 1.167 . S
O263 Zn254 2.120 . S
O263 C256 1.299 . S
O264 Zn252 1.898 1_545 S
O264 C259 1.167 . S
O265 Zn254 2.120 . S
O265 C259 1.299 1_565 S
O266 Zn254 2.114 1_545 S
O266 C268 1.166 . S
O267 Zn252 1.905 1_545 S
O267 C268 1.182 . S
C268 O266 1.166 . S
C268 O267 1.182 . S
O269 Zn254 2.080 . S
O269 C272 1.305 . S
O270 Zn253 1.920 . S
O270 C272 1.234 . S
C271 O257 1.305 . S
C271 O258 1.234 . S
C272 O269 1.305 . S
C272 O270 1.234 . S
Zn273 O279 1.920 . S
Zn273 O285 1.898 1_565 S
Zn273 O288 1.905 . S
Zn274 O282 1.905 . S
Zn274 O283 1.898 . S
Zn274 O291 1.920 . S
Zn275 O278 2.080 . S
Zn275 O281 2.114 1_556 S
Zn275 O284 2.121 1_556 S
Zn275 O286 2.119 . S
Zn275 O287 2.114 1_556 S
Zn275 O290 2.080 . S
C276 O281 1.166 . S
C276 O282 1.182 . S
C277 O283 1.167 . S
C277 O284 1.299 . S
O278 Zn275 2.080 . S
O278 C292 1.305 . S
O279 Zn273 1.920 . S
O279 C292 1.234 1_565 S
C280 O285 1.167 . S
C280 O286 1.299 . S
O281 Zn275 2.114 1_554 S
O281 C276 1.166 . S
O282 Zn274 1.905 . S
O282 C276 1.182 . S
O283 Zn274 1.898 . S
O283 C277 1.167 . S
O284 Zn275 2.121 1_554 S
O284 C277 1.299 . S
O285 Zn273 1.898 1_545 S
O285 C280 1.167 . S
O286 Zn275 2.119 . S
O286 C280 1.299 . S
O287 Zn275 2.114 1_554 S
O287 C289 1.166 1_544 S
O288 Zn273 1.905 . S
O288 C289 1.204 . S
C289 O287 1.166 1_566 S
C289 O288 1.204 . S
O290 Zn275 2.080 . S
O290 C293 1.305 1_556 S
O291 Zn274 1.920 . S
O291 C293 1.234 . S
C292 O278 1.305 . S
C292 O279 1.234 1_545 S
C293 O290 1.305 1_554 S
C293 O291 1.234 . S
Zn294 O300 1.920 . S
Zn294 O306 1.898 1_545 S
Zn294 O309 1.905 1_545 S
Zn295 O303 1.905 1_545 S
Zn295 O304 1.898 . S
Zn295 O312 1.920 . S
Zn296 O299 2.080 . S
Zn296 O302 2.114 1_545 S
Zn296 O305 2.120 . S
Zn296 O307 2.120 . S
Zn296 O308 2.114 1_545 S
Zn296 O311 2.080 . S
C297 O302 1.166 . S
C297 O303 1.182 . S
C298 O304 1.167 . S
C298 O305 1.299 . S
O299 Zn296 2.080 . S
O299 C313 1.305 . S
O300 Zn294 1.920 . S
O300 C313 1.234 . S
C301 O306 1.167 . S
C301 O307 1.299 1_565 S
O302 Zn296 2.114 1_565 S
O302 C297 1.166 . S
O303 Zn295 1.905 1_565 S
O303 C297 1.182 . S
O304 Zn295 1.898 . S
O304 C298 1.167 . S
O305 Zn296 2.120 . S
O305 C298 1.299 . S
O306 Zn294 1.898 1_565 S
O306 C301 1.167 . S
O307 Zn296 2.120 . S
O307 C301 1.299 1_545 S
O308 Zn296 2.114 1_565 S
O308 C310 1.166 . S
O309 Zn294 1.905 1_565 S
O309 C310 1.182 . S
C310 O308 1.166 . S
C310 O309 1.182 . S
O311 Zn296 2.080 . S
O311 C314 1.305 . S
O312 Zn295 1.920 . S
O312 C314 1.234 . S
C313 O299 1.305 . S
C313 O300 1.234 . S
C314 O311 1.305 . S
C314 O312 1.234 . S
Zn315 O321 1.920 . S
Zn315 O327 1.898 1_545 S
Zn315 O330 1.905 . S
Zn316 O324 1.905 . S
Zn316 O325 1.898 . S
Zn316 O333 1.920 . S
Zn317 O320 2.080 . S
Zn317 O323 2.114 . S
Zn317 O326 2.120 . S
Zn317 O328 2.120 . S
Zn317 O329 2.114 . S
Zn317 O332 2.080 . S
C318 O323 1.166 . S
C318 O324 1.182 . S
C319 O325 1.167 . S
C319 O326 1.299 . S
O320 Zn317 2.080 . S
O320 C334 1.305 . S
O321 Zn315 1.920 . S
O321 C334 1.234 1_545 S
C322 O327 1.167 . S
C322 O328 1.299 . S
O323 Zn317 2.114 . S
O323 C318 1.166 . S
O324 Zn316 1.905 . S
O324 C318 1.182 . S
O325 Zn316 1.898 . S
O325 C319 1.167 . S
O326 Zn317 2.120 . S
O326 C319 1.299 . S
O327 Zn315 1.898 1_565 S
O327 C322 1.167 . S
O328 Zn317 2.120 . S
O328 C322 1.299 . S
O329 Zn317 2.114 . S
O329 C331 1.166 1_565 S
O330 Zn315 1.905 . S
O330 C331 1.182 . S
C331 O329 1.166 1_545 S
C331 O330 1.182 . S
O332 Zn317 2.080 . S
O332 C335 1.305 . S
O333 Zn316 1.920 . S
O333 C335 1.234 . S
C334 O320 1.305 . S
C334 O321 1.234 1_565 S
C335 O332 1.305 . S
C335 O333 1.234 . S
H336 C342 0.930 . S
H337 C345 0.930 . S
H338 C346 0.930 . S
H339 C347 0.930 . S
H340 C350 0.930 . S
H341 C351 0.930 . S
C342 H336 0.930 . S
C342 C343 1.355 . S
C342 C344 1.415 . S
C343 C342 1.355 . S
C343 C345 1.419 . S
C344 C342 1.415 . S
C344 C349 1.425 . S
C344 C351 1.409 . S
C345 H337 0.930 . S
C345 C343 1.419 . S
C345 C346 1.362 . S
C346 H338 0.930 . S
C346 C345 1.362 . S
C346 C349 1.409 . S
C347 H339 0.930 . S
C347 C348 1.355 . S
C347 C349 1.415 . S
C348 C347 1.355 . S
C348 C350 1.419 . S
C349 C344 1.425 . S
C349 C346 1.409 . S
C349 C347 1.415 . S
C350 H340 0.930 . S
C350 C348 1.419 . S
C350 C351 1.362 . S
C351 H341 0.930 . S
C351 C344 1.409 . S
C351 C350 1.362 . S
H352 C358 0.930 . S
H353 C361 0.930 . S
H354 C362 0.930 . S
H355 C363 0.930 . S
H356 C366 0.930 . S
H357 C367 0.930 . S
C358 H352 0.930 . S
C358 C359 1.355 . S
C358 C360 1.415 . S
C359 C358 1.355 . S
C359 C361 1.419 . S
C360 C358 1.415 . S
C360 C365 1.425 . S
C360 C367 1.409 . S
C361 H353 0.930 . S
C361 C359 1.419 . S
C361 C362 1.362 . S
C362 H354 0.930 . S
C362 C361 1.362 . S
C362 C365 1.409 . S
C363 H355 0.930 . S
C363 C364 1.355 . S
C363 C365 1.415 . S
C364 C363 1.355 . S
C364 C366 1.419 . S
C365 C360 1.425 . S
C365 C362 1.409 . S
C365 C363 1.415 . S
C366 H356 0.930 . S
C366 C364 1.419 . S
C366 C367 1.362 . S
C367 H357 0.930 . S
C367 C360 1.409 . S
C367 C366 1.362 . S
H368 C374 0.930 . S
H369 C377 0.930 . S
H370 C378 0.930 . S
H371 C379 0.930 . S
H372 C382 0.931 1_655 S
H373 C383 0.930 . S
C374 H368 0.930 . S
C374 C375 1.355 . S
C374 C376 1.415 . S
C375 C374 1.355 . S
C375 C377 1.419 . S
C376 C374 1.415 . S
C376 C381 1.425 . S
C376 C383 1.409 . S
C377 H369 0.930 . S
C377 C375 1.419 . S
C377 C378 1.362 . S
C378 H370 0.930 . S
C378 C377 1.362 . S
C378 C381 1.409 . S
C379 H371 0.930 . S
C379 C380 1.355 1_455 S
C379 C381 1.415 . S
C380 C379 1.355 1_655 S
C380 C382 1.420 1_655 S
C381 C376 1.425 . S
C381 C378 1.409 . S
C381 C379 1.415 . S
C382 H372 0.931 1_455 S
C382 C380 1.420 1_455 S
C382 C383 1.360 . S
C383 H373 0.930 . S
C383 C376 1.409 . S
C383 C382 1.360 . S
H384 C390 0.930 . S
H385 C393 0.927 1_554 S
H386 C394 0.932 . S
H387 C395 0.930 . S
H388 C398 0.930 . S
H389 C399 0.930 . S
C390 H384 0.930 . S
C390 C391 1.355 . S
C390 C392 1.415 . S
C391 C390 1.355 . S
C391 C393 1.419 . S
C392 C390 1.415 . S
C392 C397 1.425 . S
C392 C399 1.409 . S
C393 H385 0.927 1_556 S
C393 C391 1.419 . S
C393 C394 1.362 . S
C394 H386 0.932 . S
C394 C393 1.362 . S
C394 C397 1.409 . S
C395 H387 0.930 . S
C395 C396 1.355 . S
C395 C397 1.415 . S
C396 C395 1.355 . S
C396 C398 1.419 . S
C397 C392 1.425 . S
C397 C394 1.409 . S
C397 C395 1.415 . S
C398 H388 0.930 . S
C398 C396 1.419 . S
C398 C399 1.362 . S
C399 H389 0.930 . S
C399 C392 1.409 . S
C399 C398 1.362 . S
H400 C406 0.930 . S
H401 C409 0.930 . S
H402 C410 0.930 . S
H403 C411 0.930 . S
H404 C414 0.930 . S
H405 C415 0.930 . S
C406 H400 0.930 . S
C406 C407 1.355 . S
C406 C408 1.415 . S
C407 C406 1.355 . S
C407 C409 1.419 . S
C408 C406 1.415 . S
C408 C413 1.425 . S
C408 C415 1.409 . S
C409 H401 0.930 . S
C409 C407 1.419 . S
C409 C410 1.362 . S
C410 H402 0.930 . S
C410 C409 1.362 . S
C410 C413 1.409 . S
C411 H403 0.930 . S
C411 C412 1.355 . S
C411 C413 1.415 . S
C412 C411 1.355 . S
C412 C414 1.419 . S
C413 C408 1.425 . S
C413 C410 1.409 . S
C413 C411 1.415 . S
C414 H404 0.930 . S
C414 C412 1.419 . S
C414 C415 1.362 . S
C415 H405 0.930 . S
C415 C408 1.409 . S
C415 C414 1.362 . S
H416 C422 0.930 . S
H417 C425 0.930 . S
H418 C426 0.930 . S
H419 C427 0.930 . S
H420 C430 0.930 . S
H421 C431 0.930 . S
C422 H416 0.930 . S
C422 C423 1.355 . S
C422 C424 1.415 . S
C423 C422 1.355 . S
C423 C425 1.419 . S
C424 C422 1.415 . S
C424 C429 1.425 . S
C424 C431 1.409 . S
C425 H417 0.930 . S
C425 C423 1.419 . S
C425 C426 1.362 . S
C426 H418 0.930 . S
C426 C425 1.362 . S
C426 C429 1.409 . S
C427 H419 0.930 . S
C427 C428 1.355 . S
C427 C429 1.415 . S
C428 C427 1.355 . S
C428 C430 1.419 . S
C429 C424 1.425 . S
C429 C426 1.409 . S
C429 C427 1.415 . S
C430 H420 0.930 . S
C430 C428 1.419 . S
C430 C431 1.362 . S
C431 H421 0.930 . S
C431 C424 1.409 . S
C431 C430 1.362 . S
H432 C438 0.930 . S
H433 C441 0.930 . S
H434 C442 0.930 . S
H435 C443 0.933 . S
H436 C446 0.930 1_455 S
H437 C447 0.930 . S
C438 H432 0.930 . S
C438 C439 1.355 . S
C438 C440 1.415 . S
C439 C438 1.355 . S
C439 C441 1.419 . S
C440 C438 1.415 . S
C440 C445 1.425 . S
C440 C447 1.409 . S
C441 H433 0.930 . S
C441 C439 1.419 . S
C441 C442 1.362 . S
C442 H434 0.930 . S
C442 C441 1.362 . S
C442 C445 1.409 . S
C443 H435 0.933 . S
C443 C444 1.355 1_655 S
C443 C445 1.415 . S
C444 C443 1.355 1_455 S
C444 C446 1.419 1_455 S
C445 C440 1.425 . S
C445 C442 1.409 . S
C445 C443 1.415 . S
C446 H436 0.930 1_655 S
C446 C444 1.419 1_655 S
C446 C447 1.362 . S
C447 H437 0.930 . S
C447 C440 1.409 . S
C447 C446 1.362 . S
H448 C454 0.930 . S
H449 C457 0.930 . S
H450 C458 0.930 . S
H451 C459 0.930 . S
H452 C462 0.926 1_556 S
H453 C463 0.928 1_556 S
C454 H448 0.930 . S
C454 C455 1.355 . S
C454 C456 1.415 . S
C455 C454 1.355 . S
C455 C457 1.419 . S
C456 C454 1.415 . S
C456 C461 1.425 . S
C456 C463 1.409 . S
C457 H449 0.930 . S
C457 C455 1.419 . S
C457 C458 1.362 . S
C458 H450 0.930 . S
C458 C457 1.362 . S
C458 C461 1.409 . S
C459 H451 0.930 . S
C459 C460 1.355 . S
C459 C461 1.415 . S
C460 C459 1.355 . S
C460 C462 1.423 . S
C461 C456 1.425 . S
C461 C458 1.409 . S
C461 C459 1.415 . S
C462 H452 0.926 1_554 S
C462 C460 1.423 . S
C462 C463 1.364 . S
C463 H453 0.928 1_554 S
C463 C456 1.409 . S
C463 C462 1.364 . S
H464 C470 0.930 . S
H465 C473 0.927 1_545 S
H466 C474 0.930 . S
H467 C475 0.930 1_455 S
H468 C478 0.930 1_455 S
H469 C479 0.930 . S
C470 H464 0.930 . S
C470 C471 1.355 . S
C470 C472 1.415 . S
C471 C470 1.355 . S
C471 C473 1.422 . S
C472 C470 1.415 . S
C472 C477 1.425 . S
C472 C479 1.409 . S
C473 H465 0.927 1_565 S
C473 C471 1.422 . S
C473 C474 1.362 1_565 S
C474 H466 0.930 . S
C474 C473 1.362 1_545 S
C474 C477 1.409 1_545 S
C475 H467 0.930 1_655 S
C475 C476 1.355 1_655 S
C475 C477 1.415 . S
C476 C475 1.355 1_455 S
C476 C478 1.419 1_455 S
C477 C472 1.425 . S
C477 C474 1.409 1_565 S
C477 C475 1.415 . S
C478 H468 0.930 1_655 S
C478 C476 1.419 1_655 S
C478 C479 1.362 . S
C479 H469 0.930 . S
C479 C472 1.409 . S
C479 C478 1.362 . S
H480 C486 0.930 . S
H481 C489 0.930 . S
H482 C490 0.930 . S
H483 C491 0.930 . S
H484 C494 0.930 . S
H485 C495 0.930 . S
C486 H480 0.930 . S
C486 C487 1.355 . S
C486 C488 1.415 . S
C487 C486 1.355 . S
C487 C489 1.419 1_556 S
C488 C486 1.415 . S
C488 C493 1.425 . S
C488 C495 1.409 . S
C489 H481 0.930 . S
C489 C487 1.419 1_554 S
C489 C490 1.362 . S
C490 H482 0.930 . S
C490 C489 1.362 . S
C490 C493 1.409 1_554 S
C491 H483 0.930 . S
C491 C492 1.355 1_554 S
C491 C493 1.415 1_554 S
C492 C491 1.355 1_556 S
C492 C494 1.419 . S
C493 C488 1.425 . S
C493 C490 1.409 1_556 S
C493 C491 1.415 1_556 S
C494 H484 0.930 . S
C494 C492 1.419 . S
C494 C495 1.362 . S
C495 H485 0.930 . S
C495 C488 1.409 . S
C495 C494 1.362 . S
H496 C502 0.930 . S
H497 C505 0.930 . S
H498 C506 0.930 . S
H499 C507 0.930 . S
H500 C510 0.930 . S
H501 C511 0.930 . S
C502 H496 0.930 . S
C502 C503 1.355 . S
C502 C504 1.415 . S
C503 C502 1.355 . S
C503 C505 1.419 . S
C504 C502 1.415 . S
C504 C509 1.425 . S
C504 C511 1.409 . S
C505 H497 0.930 . S
C505 C503 1.419 . S
C505 C506 1.362 . S
C506 H498 0.930 . S
C506 C505 1.362 . S
C506 C509 1.409 . S
C507 H499 0.930 . S
C507 C508 1.355 . S
C507 C509 1.415 . S
C508 C507 1.355 . S
C508 C510 1.419 . S
C509 C504 1.425 . S
C509 C506 1.409 . S
C509 C507 1.415 . S
C510 H500 0.930 . S
C510 C508 1.419 . S
C510 C511 1.362 . S
C511 H501 0.930 . S
C511 C504 1.409 . S
C511 C510 1.362 . S
H512 C518 0.930 . S
H513 C521 0.930 . S
H514 C522 0.930 . S
H515 C523 0.930 . S
H516 C526 0.930 . S
H517 C527 0.930 . S
C518 H512 0.930 . S
C518 C519 1.355 . S
C518 C520 1.415 . S
C519 C518 1.355 . S
C519 C521 1.419 . S
C520 C518 1.415 . S
C520 C525 1.425 . S
C520 C527 1.409 . S
C521 H513 0.930 . S
C521 C519 1.419 . S
C521 C522 1.362 . S
C522 H514 0.930 . S
C522 C521 1.362 . S
C522 C525 1.409 . S
C523 H515 0.930 . S
C523 C524 1.355 . S
C523 C525 1.415 . S
C524 C523 1.355 . S
C524 C526 1.419 . S
C525 C520 1.425 . S
C525 C522 1.409 . S
C525 C523 1.415 . S
C526 H516 0.930 . S
C526 C524 1.419 . S
C526 C527 1.362 . S
C527 H517 0.930 . S
C527 C520 1.409 . S
C527 C526 1.362 . S
H528 C534 0.947 1_655 S
H529 C537 0.930 1_655 S
H530 C538 0.930 . S
H531 C539 0.930 . S
H532 C542 0.930 . S
H533 C543 0.930 . S
C534 H528 0.947 1_455 S
C534 C535 1.355 1_455 S
C534 C536 1.415 . S
C535 C534 1.355 1_655 S
C535 C537 1.419 1_655 S
C536 C534 1.415 . S
C536 C541 1.425 . S
C536 C543 1.409 1_545 S
C537 H529 0.930 1_455 S
C537 C535 1.419 1_455 S
C537 C538 1.362 . S
C538 H530 0.930 . S
C538 C537 1.362 . S
C538 C541 1.409 . S
C539 H531 0.930 . S
C539 C540 1.355 . S
C539 C541 1.415 . S
C540 C539 1.355 . S
C540 C542 1.419 1_545 S
C541 C536 1.425 . S
C541 C538 1.409 . S
C541 C539 1.415 . S
C542 H532 0.930 . S
C542 C540 1.419 1_565 S
C542 C543 1.362 . S
C543 H533 0.930 . S
C543 C536 1.409 1_565 S
C543 C542 1.362 . S
H544 C550 0.930 . S
H545 C553 0.932 . S
H546 C554 0.928 1_556 S
H547 C555 0.927 1_556 S
H548 C558 0.930 . S
H549 C559 0.930 . S
C550 H544 0.930 . S
C550 C551 1.355 . S
C550 C552 1.415 . S
C551 C550 1.355 . S
C551 C553 1.419 . S
C552 C550 1.415 . S
C552 C557 1.425 . S
C552 C559 1.409 . S
C553 H545 0.932 . S
C553 C551 1.419 . S
C553 C554 1.363 . S
C554 H546 0.928 1_554 S
C554 C553 1.363 . S
C554 C557 1.410 . S
C555 H547 0.927 1_554 S
C555 C556 1.355 . S
C555 C557 1.415 . S
C556 C555 1.355 . S
C556 C558 1.419 . S
C557 C552 1.425 . S
C557 C554 1.410 . S
C557 C555 1.415 . S
C558 H548 0.930 . S
C558 C556 1.419 . S
C558 C559 1.362 . S
C559 H549 0.930 . S
C559 C552 1.409 . S
C559 C558 1.362 . S
H560 C566 0.930 . S
H561 C569 0.930 . S
H562 C570 0.930 . S
H563 C571 0.930 . S
H564 C574 0.930 1_545 S
H565 C575 0.930 1_545 S
C566 H560 0.930 . S
C566 C567 1.355 . S
C566 C568 1.415 . S
C567 C566 1.355 . S
C567 C569 1.419 . S
C568 C566 1.415 . S
C568 C573 1.425 . S
C568 C575 1.409 . S
C569 H561 0.930 . S
C569 C567 1.419 . S
C569 C570 1.362 . S
C570 H562 0.930 . S
C570 C569 1.362 . S
C570 C573 1.409 . S
C571 H563 0.930 . S
C571 C572 1.355 . S
C571 C573 1.415 . S
C572 C571 1.355 . S
C572 C574 1.419 . S
C573 C568 1.425 . S
C573 C570 1.409 . S
C573 C571 1.415 . S
C574 H564 0.930 1_565 S
C574 C572 1.419 . S
C574 C575 1.362 . S
C575 H565 0.930 1_565 S
C575 C568 1.409 . S
C575 C574 1.362 . S
H576 C582 0.930 . S
H577 C585 0.930 . S
H578 C586 0.930 . S
H579 C587 0.930 . S
H580 C590 0.930 . S
H581 C591 0.930 . S
C582 H576 0.930 . S
C582 C583 1.355 . S
C582 C584 1.415 . S
C583 C582 1.355 . S
C583 C585 1.419 . S
C584 C582 1.415 . S
C584 C589 1.425 . S
C584 C591 1.409 . S
C585 H577 0.930 . S
C585 C583 1.419 . S
C585 C586 1.362 . S
C586 H578 0.930 . S
C586 C585 1.362 . S
C586 C589 1.409 . S
C587 H579 0.930 . S
C587 C588 1.355 . S
C587 C589 1.415 . S
C588 C587 1.355 . S
C588 C590 1.419 . S
C589 C584 1.425 . S
C589 C586 1.409 . S
C589 C587 1.415 . S
C590 H580 0.930 . S
C590 C588 1.419 . S
C590 C591 1.362 . S
C591 H581 0.930 . S
C591 C584 1.409 . S
C591 C590 1.362 . S
H592 C598 0.930 . S
H593 C601 0.930 . S
H594 C602 0.930 . S
H595 C603 0.930 . S
H596 C606 0.930 . S
H597 C607 0.930 . S
C598 H592 0.930 . S
C598 C599 1.355 . S
C598 C600 1.415 . S
C599 C598 1.355 . S
C599 C601 1.419 . S
C600 C598 1.415 . S
C600 C605 1.425 . S
C600 C607 1.409 . S
C601 H593 0.930 . S
C601 C599 1.419 . S
C601 C602 1.362 . S
C602 H594 0.930 . S
C602 C601 1.362 . S
C602 C605 1.409 . S
C603 H595 0.930 . S
C603 C604 1.355 . S
C603 C605 1.415 . S
C604 C603 1.355 . S
C604 C606 1.419 . S
C605 C600 1.425 . S
C605 C602 1.409 . S
C605 C603 1.415 . S
C606 H596 0.930 . S
C606 C604 1.419 . S
C606 C607 1.362 . S
C607 H597 0.930 . S
C607 C600 1.409 . S
C607 C606 1.362 . S
H608 C614 0.930 . S
H609 C617 0.930 . S
H610 C618 0.930 . S
H611 C619 0.930 . S
H612 C622 0.930 . S
H613 C623 0.930 . S
C614 H608 0.930 . S
C614 C615 1.355 . S
C614 C616 1.415 . S
C615 C614 1.355 . S
C615 C617 1.419 . S
C616 C614 1.415 . S
C616 C621 1.425 1_455 S
C616 C623 1.409 1_455 S
C617 H609 0.930 . S
C617 C615 1.419 . S
C617 C618 1.362 . S
C618 H610 0.930 . S
C618 C617 1.362 . S
C618 C621 1.409 1_455 S
C619 H611 0.930 . S
C619 C620 1.355 . S
C619 C621 1.415 . S
C620 C619 1.355 . S
C620 C622 1.419 . S
C621 C616 1.425 1_655 S
C621 C618 1.409 1_655 S
C621 C619 1.415 . S
C622 H612 0.930 . S
C622 C620 1.419 . S
C622 C623 1.362 . S
C623 H613 0.930 . S
C623 C616 1.409 1_655 S
C623 C622 1.362 . S
H624 C630 0.930 . S
H625 C633 0.930 . S
H626 C634 0.930 . S
H627 C635 0.930 . S
H628 C638 0.930 . S
H629 C639 0.930 . S
C630 H624 0.930 . S
C630 C631 1.355 . S
C630 C632 1.415 . S
C631 C630 1.355 . S
C631 C633 1.419 . S
C632 C630 1.415 . S
C632 C637 1.425 . S
C632 C639 1.409 . S
C633 H625 0.930 . S
C633 C631 1.419 . S
C633 C634 1.362 . S
C634 H626 0.930 . S
C634 C633 1.362 . S
C634 C637 1.409 . S
C635 H627 0.930 . S
C635 C636 1.355 . S
C635 C637 1.415 . S
C636 C635 1.355 . S
C636 C638 1.419 . S
C637 C632 1.425 . S
C637 C634 1.409 . S
C637 C635 1.415 . S
C638 H628 0.930 . S
C638 C636 1.419 . S
C638 C639 1.362 . S
C639 H629 0.930 . S
C639 C632 1.409 . S
C639 C638 1.362 . S
H640 C646 0.930 . S
H641 C649 0.930 . S
H642 C650 0.930 . S
H643 C651 0.930 . S
H644 C654 0.930 . S
H645 C655 0.930 . S
C646 H640 0.930 . S
C646 C647 1.355 . S
C646 C648 1.415 . S
C647 C646 1.355 . S
C647 C649 1.419 . S
C648 C646 1.415 . S
C648 C653 1.425 1_556 S
C648 C655 1.409 . S
C649 H641 0.930 . S
C649 C647 1.419 . S
C649 C650 1.362 1_556 S
C650 H642 0.930 . S
C650 C649 1.362 1_554 S
C650 C653 1.409 . S
C651 H643 0.930 . S
C651 C652 1.355 . S
C651 C653 1.415 . S
C652 C651 1.355 . S
C652 C654 1.419 . S
C653 C648 1.425 1_554 S
C653 C650 1.409 . S
C653 C651 1.415 . S
C654 H644 0.930 . S
C654 C652 1.419 . S
C654 C655 1.362 1_554 S
C655 H645 0.930 . S
C655 C648 1.409 . S
C655 C654 1.362 1_556 S
H656 C662 0.930 . S
H657 C665 0.930 . S
H658 C666 0.930 . S
H659 C667 0.930 . S
H660 C670 0.930 . S
H661 C671 0.930 . S
C662 H656 0.930 . S
C662 C663 1.355 . S
C662 C664 1.415 . S
C663 C662 1.355 . S
C663 C665 1.419 . S
C664 C662 1.415 . S
C664 C669 1.425 . S
C664 C671 1.409 . S
C665 H657 0.930 . S
C665 C663 1.419 . S
C665 C666 1.362 . S
C666 H658 0.930 . S
C666 C665 1.362 . S
C666 C669 1.409 . S
C667 H659 0.930 . S
C667 C668 1.355 . S
C667 C669 1.415 . S
C668 C667 1.355 . S
C668 C670 1.419 . S
C669 C664 1.425 . S
C669 C666 1.409 . S
C669 C667 1.415 . S
C670 H660 0.930 . S
C670 C668 1.419 . S
C670 C671 1.362 . S
C671 H661 0.930 . S
C671 C664 1.409 . S
C671 C670 1.362 . S
H672 C678 0.930 . S
H673 C681 0.930 . S
H674 C682 0.930 . S
H675 C683 0.930 . S
H676 C686 0.930 . S
H677 C687 0.930 . S
C678 H672 0.930 . S
C678 C679 1.355 . S
C678 C680 1.415 . S
C679 C678 1.355 . S
C679 C681 1.419 . S
C680 C678 1.415 . S
C680 C685 1.425 . S
C680 C687 1.409 . S
C681 H673 0.930 . S
C681 C679 1.419 . S
C681 C682 1.362 . S
C682 H674 0.930 . S
C682 C681 1.362 . S
C682 C685 1.409 . S
C683 H675 0.930 . S
C683 C684 1.355 . S
C683 C685 1.415 . S
C684 C683 1.355 . S
C684 C686 1.419 . S
C685 C680 1.425 . S
C685 C682 1.409 . S
C685 C683 1.415 . S
C686 H676 0.930 . S
C686 C684 1.419 . S
C686 C687 1.362 . S
C687 H677 0.930 . S
C687 C680 1.409 . S
C687 C686 1.362 . S
H688 C694 0.930 . S
H689 C697 0.930 . S
H690 C698 0.930 . S
H691 C699 0.930 . S
H692 C702 0.930 . S
H693 C703 0.930 . S
C694 H688 0.930 . S
C694 C695 1.355 1_545 S
C694 C696 1.415 1_554 S
C695 C694 1.355 1_565 S
C695 C697 1.419 . S
C696 C694 1.415 1_556 S
C696 C701 1.425 1_546 S
C696 C703 1.409 . S
C697 H689 0.930 . S
C697 C695 1.419 . S
C697 C698 1.362 . S
C698 H690 0.930 . S
C698 C697 1.362 . S
C698 C701 1.409 . S
C699 H691 0.930 . S
C699 C700 1.355 1_565 S
C699 C701 1.415 1_556 S
C700 C699 1.355 1_545 S
C700 C702 1.419 . S
C701 C696 1.425 1_564 S
C701 C698 1.409 . S
C701 C699 1.415 1_554 S
C702 H692 0.930 . S
C702 C700 1.419 . S
C702 C703 1.362 . S
C703 H693 0.930 . S
C703 C696 1.409 . S
C703 C702 1.362 . S
H704 C710 0.930 . S
H705 C713 0.930 . S
H706 C714 0.930 . S
H707 C715 0.930 . S
H708 C718 0.930 . S
H709 C719 0.930 . S
C710 H704 0.930 . S
C710 C711 1.355 . S
C710 C712 1.415 . S
C711 C710 1.355 . S
C711 C713 1.419 1_565 S
C712 C710 1.415 . S
C712 C717 1.425 1_465 S
C712 C719 1.409 1_455 S
C713 H705 0.930 . S
C713 C711 1.419 1_545 S
C713 C714 1.362 . S
C714 H706 0.930 . S
C714 C713 1.362 . S
C714 C717 1.409 1_455 S
C715 H707 0.930 . S
C715 C716 1.355 . S
C715 C717 1.415 . S
C716 C715 1.355 . S
C716 C718 1.419 1_545 S
C717 C712 1.425 1_645 S
C717 C714 1.409 1_655 S
C717 C715 1.415 . S
C718 H708 0.930 . S
C718 C716 1.419 1_565 S
C718 C719 1.362 . S
C719 H709 0.930 . S
C719 C712 1.409 1_655 S
C719 C718 1.362 . S
H720 C726 0.930 . S
H721 C729 0.930 . S
H722 C730 0.930 . S
H723 C731 0.930 . S
H724 C734 0.930 . S
H725 C735 0.930 . S
C726 H720 0.930 . S
C726 C727 1.355 . S
C726 C728 1.415 . S
C727 C726 1.355 . S
C727 C729 1.419 . S
C728 C726 1.415 . S
C728 C733 1.425 . S
C728 C735 1.409 . S
C729 H721 0.930 . S
C729 C727 1.419 . S
C729 C730 1.362 . S
C730 H722 0.930 . S
C730 C729 1.362 . S
C730 C733 1.409 . S
C731 H723 0.930 . S
C731 C732 1.355 . S
C731 C733 1.415 . S
C732 C731 1.355 . S
C732 C734 1.419 . S
C733 C728 1.425 . S
C733 C730 1.409 . S
C733 C731 1.415 . S
C734 H724 0.930 . S
C734 C732 1.419 . S
C734 C735 1.362 . S
C735 H725 0.930 . S
C735 C728 1.409 . S
C735 C734 1.362 . S
H736 C742 0.930 . S
H737 C745 0.930 . S
H738 C746 0.930 . S
H739 C747 0.930 . S
H740 C750 0.930 . S
H741 C751 0.930 . S
C742 H736 0.930 . S
C742 C743 1.355 . S
C742 C744 1.415 . S
C743 C742 1.355 . S
C743 C745 1.419 . S
C744 C742 1.415 . S
C744 C749 1.425 . S
C744 C751 1.409 . S
C745 H737 0.930 . S
C745 C743 1.419 . S
C745 C746 1.362 . S
C746 H738 0.930 . S
C746 C745 1.362 . S
C746 C749 1.409 . S
C747 H739 0.930 . S
C747 C748 1.355 . S
C747 C749 1.415 . S
C748 C747 1.355 . S
C748 C750 1.419 . S
C749 C744 1.425 . S
C749 C746 1.409 . S
C749 C747 1.415 . S
C750 H740 0.930 . S
C750 C748 1.419 . S
C750 C751 1.362 . S
C751 H741 0.930 . S
C751 C744 1.409 . S
C751 C750 1.362 . S
H752 C758 0.930 . S
H753 C761 0.930 . S
H754 C762 0.930 . S
H755 C763 0.930 . S
H756 C766 0.930 . S
H757 C767 0.930 . S
C758 H752 0.930 . S
C758 C759 1.355 . S
C758 C760 1.415 . S
C759 C758 1.355 . S
C759 C761 1.419 . S
C760 C758 1.415 . S
C760 C765 1.425 . S
C760 C767 1.409 . S
C761 H753 0.930 . S
C761 C759 1.419 . S
C761 C762 1.362 . S
C762 H754 0.930 . S
C762 C761 1.362 . S
C762 C765 1.409 . S
C763 H755 0.930 . S
C763 C764 1.355 . S
C763 C765 1.415 . S
C764 C763 1.355 . S
C764 C766 1.419 . S
C765 C760 1.425 . S
C765 C762 1.409 . S
C765 C763 1.415 . S
C766 H756 0.930 . S
C766 C764 1.419 . S
C766 C767 1.362 . S
C767 H757 0.930 . S
C767 C760 1.409 . S
C767 C766 1.362 . S
H768 C774 0.930 . S
H769 C777 0.930 . S
H770 C778 0.930 . S
H771 C779 0.930 . S
H772 C782 0.930 . S
H773 C783 0.930 . S
C774 H768 0.930 . S
C774 C775 1.355 . S
C774 C776 1.415 . S
C775 C774 1.355 . S
C775 C777 1.419 . S
C776 C774 1.415 . S
C776 C781 1.425 . S
C776 C783 1.409 . S
C777 H769 0.930 . S
C777 C775 1.419 . S
C777 C778 1.362 . S
C778 H770 0.930 . S
C778 C777 1.362 . S
C778 C781 1.409 . S
C779 H771 0.930 . S
C779 C780 1.355 . S
C779 C781 1.415 . S
C780 C779 1.355 . S
C780 C782 1.419 . S
C781 C776 1.425 . S
C781 C778 1.409 . S
C781 C779 1.415 . S
C782 H772 0.930 . S
C782 C780 1.419 . S
C782 C783 1.362 . S
C783 H773 0.930 . S
C783 C776 1.409 . S
C783 C782 1.362 . S
H784 C790 0.930 . S
H785 C793 0.930 . S
H786 C794 0.930 . S
H787 C795 0.930 . S
H788 C798 0.930 . S
H789 C799 0.930 . S
C790 H784 0.930 . S
C790 C791 1.355 . S
C790 C792 1.415 . S
C791 C790 1.355 . S
C791 C793 1.419 . S
C792 C790 1.415 . S
C792 C797 1.425 . S
C792 C799 1.409 . S
C793 H785 0.930 . S
C793 C791 1.419 . S
C793 C794 1.362 . S
C794 H786 0.930 . S
C794 C793 1.362 . S
C794 C797 1.409 . S
C795 H787 0.930 . S
C795 C796 1.355 . S
C795 C797 1.415 . S
C796 C795 1.355 . S
C796 C798 1.419 . S
C797 C792 1.425 . S
C797 C794 1.409 . S
C797 C795 1.415 . S
C798 H788 0.930 . S
C798 C796 1.419 . S
C798 C799 1.362 . S
C799 H789 0.930 . S
C799 C792 1.409 . S
C799 C798 1.362 . S
H800 C806 0.930 . S
H801 C809 0.930 . S
H802 C810 0.930 . S
H803 C811 0.930 . S
H804 C814 0.930 . S
H805 C815 0.930 . S
C806 H800 0.930 . S
C806 C807 1.355 . S
C806 C808 1.415 . S
C807 C806 1.355 . S
C807 C809 1.419 . S
C808 C806 1.415 . S
C808 C813 1.425 . S
C808 C815 1.409 . S
C809 H801 0.930 . S
C809 C807 1.419 . S
C809 C810 1.362 . S
C810 H802 0.930 . S
C810 C809 1.362 . S
C810 C813 1.409 . S
C811 H803 0.930 . S
C811 C812 1.355 . S
C811 C813 1.415 . S
C812 C811 1.355 . S
C812 C814 1.419 . S
C813 C808 1.425 . S
C813 C810 1.409 . S
C813 C811 1.415 . S
C814 H804 0.930 . S
C814 C812 1.419 . S
C814 C815 1.362 . S
C815 H805 0.930 . S
C815 C808 1.409 . S
C815 C814 1.362 . S
H816 C822 0.930 . S
H817 C825 0.930 . S
H818 C826 0.930 . S
H819 C827 0.930 . S
H820 C830 0.930 . S
H821 C831 0.930 . S
C822 H816 0.930 . S
C822 C823 1.355 . S
C822 C824 1.415 . S
C823 C822 1.355 . S
C823 C825 1.419 . S
C824 C822 1.415 . S
C824 C829 1.425 . S
C824 C831 1.409 . S
C825 H817 0.930 . S
C825 C823 1.419 . S
C825 C826 1.362 . S
C826 H818 0.930 . S
C826 C825 1.362 . S
C826 C829 1.409 . S
C827 H819 0.930 . S
C827 C828 1.355 . S
C827 C829 1.415 . S
C828 C827 1.355 . S
C828 C830 1.419 . S
C829 C824 1.425 . S
C829 C826 1.409 . S
C829 C827 1.415 . S
C830 H820 0.930 . S
C830 C828 1.419 . S
C830 C831 1.362 . S
C831 H821 0.930 . S
C831 C824 1.409 . S
C831 C830 1.362 . S
H832 C838 0.930 . S
H833 C841 0.930 . S
H834 C842 0.930 . S
H835 C843 0.930 . S
H836 C846 0.930 . S
H837 C847 0.930 . S
C838 H832 0.930 . S
C838 C839 1.355 . S
C838 C840 1.415 . S
C839 C838 1.355 . S
C839 C841 1.419 . S
C840 C838 1.415 . S
C840 C845 1.425 . S
C840 C847 1.409 . S
C841 H833 0.930 . S
C841 C839 1.419 . S
C841 C842 1.362 . S
C842 H834 0.930 . S
C842 C841 1.362 . S
C842 C845 1.409 . S
C843 H835 0.930 . S
C843 C844 1.355 . S
C843 C845 1.415 . S
C844 C843 1.355 . S
C844 C846 1.419 . S
C845 C840 1.425 . S
C845 C842 1.409 . S
C845 C843 1.415 . S
C846 H836 0.930 . S
C846 C844 1.419 . S
C846 C847 1.362 . S
C847 H837 0.930 . S
C847 C840 1.409 . S
C847 C846 1.362 . S
H848 C854 0.930 . S
H849 C857 0.930 . S
H850 C858 0.930 . S
H851 C859 0.930 . S
H852 C862 0.930 . S
H853 C863 0.930 . S
C854 H848 0.930 . S
C854 C855 1.355 . S
C854 C856 1.415 . S
C855 C854 1.355 . S
C855 C857 1.419 1_565 S
C856 C854 1.415 . S
C856 C861 1.425 . S
C856 C863 1.409 . S
C857 H849 0.930 . S
C857 C855 1.419 1_545 S
C857 C858 1.362 . S
C858 H850 0.930 . S
C858 C857 1.362 . S
C858 C861 1.409 1_545 S
C859 H851 0.930 . S
C859 C860 1.355 . S
C859 C861 1.415 . S
C860 C859 1.355 . S
C860 C862 1.419 . S
C861 C856 1.425 . S
C861 C858 1.409 1_565 S
C861 C859 1.415 . S
C862 H852 0.930 . S
C862 C860 1.419 . S
C862 C863 1.362 . S
C863 H853 0.930 . S
C863 C856 1.409 . S
C863 C862 1.362 . S
H864 C870 0.930 . S
H865 C873 0.930 . S
H866 C874 0.930 1_545 S
H867 C875 0.930 1_545 S
H868 C878 0.930 . S
H869 C879 0.930 . S
C870 H864 0.930 . S
C870 C871 1.355 . S
C870 C872 1.415 . S
C871 C870 1.355 . S
C871 C873 1.419 . S
C872 C870 1.415 . S
C872 C877 1.425 . S
C872 C879 1.409 . S
C873 H865 0.930 . S
C873 C871 1.419 . S
C873 C874 1.362 . S
C874 H866 0.930 1_565 S
C874 C873 1.362 . S
C874 C877 1.409 . S
C875 H867 0.930 1_565 S
C875 C876 1.355 . S
C875 C877 1.415 . S
C876 C875 1.355 . S
C876 C878 1.419 . S
C877 C872 1.425 . S
C877 C874 1.409 . S
C877 C875 1.415 . S
C878 H868 0.930 . S
C878 C876 1.419 . S
C878 C879 1.362 . S
C879 H869 0.930 . S
C879 C872 1.409 . S
C879 C878 1.362 . S
H880 C886 0.930 . S
H881 C889 0.930 . S
H882 C890 0.930 1_565 S
H883 C891 0.930 1_565 S
H884 C894 0.930 . S
H885 C895 0.930 . S
C886 H880 0.930 . S
C886 C887 1.355 . S
C886 C888 1.415 . S
C887 C886 1.355 . S
C887 C889 1.419 . S
C888 C886 1.415 . S
C888 C893 1.425 . S
C888 C895 1.409 . S
C889 H881 0.930 . S
C889 C887 1.419 . S
C889 C890 1.362 . S
C890 H882 0.930 1_545 S
C890 C889 1.362 . S
C890 C893 1.409 . S
C891 H883 0.930 1_545 S
C891 C892 1.355 . S
C891 C893 1.415 . S
C892 C891 1.355 . S
C892 C894 1.419 . S
C893 C888 1.425 . S
C893 C890 1.409 . S
C893 C891 1.415 . S
C894 H884 0.930 . S
C894 C892 1.419 . S
C894 C895 1.362 . S
C895 H885 0.930 . S
C895 C888 1.409 . S
C895 C894 1.362 . S
H896 C902 0.930 . S
H897 C905 0.930 . S
H898 C906 0.930 . S
H899 C907 0.930 . S
H900 C910 0.930 . S
H901 C911 0.930 . S
C902 H896 0.930 . S
C902 C903 1.355 . S
C902 C904 1.415 . S
C903 C902 1.355 . S
C903 C905 1.419 . S
C904 C902 1.415 . S
C904 C909 1.425 . S
C904 C911 1.409 . S
C905 H897 0.930 . S
C905 C903 1.419 . S
C905 C906 1.362 . S
C906 H898 0.930 . S
C906 C905 1.362 . S
C906 C909 1.409 . S
C907 H899 0.930 . S
C907 C908 1.355 . S
C907 C909 1.415 . S
C908 C907 1.355 . S
C908 C910 1.419 . S
C909 C904 1.425 . S
C909 C906 1.409 . S
C909 C907 1.415 . S
C910 H900 0.930 . S
C910 C908 1.419 . S
C910 C911 1.362 . S
C911 H901 0.930 . S
C911 C904 1.409 . S
C911 C910 1.362 . S
H912 C918 0.930 . S
H913 C921 0.930 . S
H914 C922 0.930 . S
H915 C923 0.930 . S
H916 C926 0.930 . S
H917 C927 0.930 . S
C918 H912 0.930 . S
C918 C919 1.355 . S
C918 C920 1.415 . S
C919 C918 1.355 . S
C919 C921 1.419 . S
C920 C918 1.415 . S
C920 C925 1.425 . S
C920 C927 1.409 1_545 S
C921 H913 0.930 . S
C921 C919 1.419 . S
C921 C922 1.362 . S
C922 H914 0.930 . S
C922 C921 1.362 . S
C922 C925 1.409 . S
C923 H915 0.930 . S
C923 C924 1.355 . S
C923 C925 1.415 . S
C924 C923 1.355 . S
C924 C926 1.419 1_545 S
C925 C920 1.425 . S
C925 C922 1.409 . S
C925 C923 1.415 . S
C926 H916 0.930 . S
C926 C924 1.419 1_565 S
C926 C927 1.362 . S
C927 H917 0.930 . S
C927 C920 1.409 1_565 S
C927 C926 1.362 . S
H928 C934 0.930 . S
H929 C937 0.930 . S
H930 C938 0.930 . S
H931 C939 0.930 . S
H932 C942 0.930 . S
H933 C943 0.930 1_565 S
C934 H928 0.930 . S
C934 C935 1.355 . S
C934 C936 1.415 . S
C935 C934 1.355 . S
C935 C937 1.419 . S
C936 C934 1.415 . S
C936 C941 1.425 . S
C936 C943 1.409 . S
C937 H929 0.930 . S
C937 C935 1.419 . S
C937 C938 1.362 . S
C938 H930 0.930 . S
C938 C937 1.362 . S
C938 C941 1.409 . S
C939 H931 0.930 . S
C939 C940 1.355 . S
C939 C941 1.415 . S
C940 C939 1.355 . S
C940 C942 1.419 1_545 S
C941 C936 1.425 . S
C941 C938 1.409 . S
C941 C939 1.415 . S
C942 H932 0.930 . S
C942 C940 1.419 1_565 S
C942 C943 1.362 1_565 S
C943 H933 0.930 1_545 S
C943 C936 1.409 . S
C943 C942 1.362 1_545 S
H944 C950 0.930 . S
H945 C953 0.930 . S
H946 C954 0.930 . S
H947 C955 0.930 1_545 S
H948 C958 0.930 . S
H949 C959 0.930 . S
C950 H944 0.930 . S
C950 C951 1.355 . S
C950 C952 1.415 . S
C951 C950 1.355 . S
C951 C953 1.419 1_565 S
C952 C950 1.415 . S
C952 C957 1.425 . S
C952 C959 1.409 . S
C953 H945 0.930 . S
C953 C951 1.419 1_545 S
C953 C954 1.362 . S
C954 H946 0.930 . S
C954 C953 1.362 . S
C954 C957 1.409 1_545 S
C955 H947 0.930 1_565 S
C955 C956 1.355 . S
C955 C957 1.415 . S
C956 C955 1.355 . S
C956 C958 1.419 . S
C957 C952 1.425 . S
C957 C954 1.409 1_565 S
C957 C955 1.415 . S
C958 H948 0.930 . S
C958 C956 1.419 . S
C958 C959 1.362 . S
C959 H949 0.930 . S
C959 C952 1.409 . S
C959 C958 1.362 . S
H960 C966 0.930 . S
H961 C969 0.930 . S
H962 C970 0.926 1_545 S
H963 C971 0.930 . S
H964 C974 0.930 . S
H965 C975 0.930 . S
C966 H960 0.930 . S
C966 C967 1.355 . S
C966 C968 1.415 . S
C967 C966 1.355 . S
C967 C969 1.419 1_565 S
C968 C966 1.415 . S
C968 C973 1.425 . S
C968 C975 1.409 . S
C969 H961 0.930 . S
C969 C967 1.419 1_545 S
C969 C970 1.362 1_545 S
C970 H962 0.926 1_565 S
C970 C969 1.362 1_565 S
C970 C973 1.409 . S
C971 H963 0.930 . S
C971 C972 1.355 . S
C971 C973 1.415 . S
C972 C971 1.355 . S
C972 C974 1.419 . S
C973 C968 1.425 . S
C973 C970 1.409 . S
C973 C971 1.415 . S
C974 H964 0.930 . S
C974 C972 1.419 . S
C974 C975 1.362 . S
C975 H965 0.930 . S
C975 C968 1.409 . S
C975 C974 1.362 . S
H976 C982 0.930 . S
H977 C985 0.930 . S
H978 C986 0.930 . S
H979 C987 0.930 . S
H980 C990 0.930 . S
H981 C991 0.930 . S
C982 H976 0.930 . S
C982 C983 1.355 . S
C982 C984 1.415 . S
C983 C982 1.355 . S
C983 C985 1.419 1_455 S
C984 C982 1.415 . S
C984 C989 1.425 1_455 S
C984 C991 1.409 . S
C985 H977 0.930 . S
C985 C983 1.419 1_655 S
C985 C986 1.362 . S
C986 H978 0.930 . S
C986 C985 1.362 . S
C986 C989 1.409 . S
C987 H979 0.930 . S
C987 C988 1.355 . S
C987 C989 1.415 . S
C988 C987 1.355 . S
C988 C990 1.419 1_655 S
C989 C984 1.425 1_655 S
C989 C986 1.409 . S
C989 C987 1.415 . S
C990 H980 0.930 . S
C990 C988 1.419 1_455 S
C990 C991 1.362 . S
C991 H981 0.930 . S
C991 C984 1.409 . S
C991 C990 1.362 . S
H992 C998 0.930 . S
H993 C1001 0.930 . S
H994 C1002 0.930 . S
H995 C1003 0.930 . S
H996 C1006 0.930 . S
H997 C1007 0.930 . S
C998 H992 0.930 . S
C998 C999 1.355 . S
C998 C1000 1.415 . S
C999 C998 1.355 . S
C999 C1001 1.419 . S
C1000 C998 1.415 . S
C1000 C1005 1.425 1_455 S
C1000 C1007 1.409 . S
C1001 H993 0.930 . S
C1001 C999 1.419 . S
C1001 C1002 1.362 1_455 S
C1002 H994 0.930 . S
C1002 C1001 1.362 1_655 S
C1002 C1005 1.409 . S
C1003 H995 0.930 . S
C1003 C1004 1.355 . S
C1003 C1005 1.415 . S
C1004 C1003 1.355 . S
C1004 C1006 1.419 . S
C1005 C1000 1.425 1_655 S
C1005 C1002 1.409 . S
C1005 C1003 1.415 . S
C1006 H996 0.930 . S
C1006 C1004 1.419 . S
C1006 C1007 1.362 1_655 S
C1007 H997 0.930 . S
C1007 C1000 1.409 . S
C1007 C1006 1.362 1_455 S
H1008 C1014 0.930 . S
H1009 C1017 0.930 . S
H1010 C1018 0.930 . S
H1011 C1019 0.930 . S
H1012 C1022 0.930 . S
H1013 C1023 0.930 . S
C1014 H1008 0.930 . S
C1014 C1015 1.355 . S
C1014 C1016 1.415 . S
C1015 C1014 1.355 . S
C1015 C1017 1.419 . S
C1016 C1014 1.415 . S
C1016 C1021 1.425 . S
C1016 C1023 1.409 . S
C1017 H1009 0.930 . S
C1017 C1015 1.419 . S
C1017 C1018 1.362 . S
C1018 H1010 0.930 . S
C1018 C1017 1.362 . S
C1018 C1021 1.409 . S
C1019 H1011 0.930 . S
C1019 C1020 1.355 . S
C1019 C1021 1.415 . S
C1020 C1019 1.355 . S
C1020 C1022 1.419 . S
C1021 C1016 1.425 . S
C1021 C1018 1.409 . S
C1021 C1019 1.415 . S
C1022 H1012 0.930 . S
C1022 C1020 1.419 . S
C1022 C1023 1.362 . S
C1023 H1013 0.930 . S
C1023 C1016 1.409 . S
C1023 C1022 1.362 . S
H1024 C1030 0.930 . S
H1025 C1033 0.932 . S
H1026 C1034 0.925 1_554 S
H1027 C1035 0.930 . S
H1028 C1038 0.930 . S
H1029 C1039 0.930 . S
C1030 H1024 0.930 . S
C1030 C1031 1.355 . S
C1030 C1032 1.415 . S
C1031 C1030 1.355 . S
C1031 C1033 1.419 . S
C1032 C1030 1.415 . S
C1032 C1037 1.425 . S
C1032 C1039 1.409 . S
C1033 H1025 0.932 . S
C1033 C1031 1.419 . S
C1033 C1034 1.362 . S
C1034 H1026 0.925 1_556 S
C1034 C1033 1.362 . S
C1034 C1037 1.409 . S
C1035 H1027 0.930 . S
C1035 C1036 1.355 . S
C1035 C1037 1.415 . S
C1036 C1035 1.355 . S
C1036 C1038 1.419 . S
C1037 C1032 1.425 . S
C1037 C1034 1.409 . S
C1037 C1035 1.415 . S
C1038 H1028 0.930 . S
C1038 C1036 1.419 . S
C1038 C1039 1.362 . S
C1039 H1029 0.930 . S
C1039 C1032 1.409 . S
C1039 C1038 1.362 . S
H1040 C1046 0.930 1_655 S
H1041 C1049 0.930 . S
H1042 C1050 0.930 . S
H1043 C1051 0.930 1_455 S
H1044 C1054 0.930 . S
H1045 C1055 0.930 . S
C1046 H1040 0.930 1_455 S
C1046 C1047 1.355 . S
C1046 C1048 1.415 1_455 S
C1047 C1046 1.355 . S
C1047 C1049 1.419 . S
C1048 C1046 1.415 1_655 S
C1048 C1053 1.425 1_655 S
C1048 C1055 1.409 . S
C1049 H1041 0.930 . S
C1049 C1047 1.419 . S
C1049 C1050 1.362 . S
C1050 H1042 0.930 . S
C1050 C1049 1.362 . S
C1050 C1053 1.409 . S
C1051 H1043 0.930 1_655 S
C1051 C1052 1.355 . S
C1051 C1053 1.415 1_655 S
C1052 C1051 1.355 . S
C1052 C1054 1.419 . S
C1053 C1048 1.425 1_455 S
C1053 C1050 1.409 . S
C1053 C1051 1.415 1_455 S
C1054 H1044 0.930 . S
C1054 C1052 1.419 . S
C1054 C1055 1.362 . S
C1055 H1045 0.930 . S
C1055 C1048 1.409 . S
C1055 C1054 1.362 . S
H1056 C1062 0.930 . S
H1057 C1065 0.930 . S
H1058 C1066 0.930 . S
H1059 C1067 0.930 . S
H1060 C1070 0.930 . S
H1061 C1071 0.930 . S
C1062 H1056 0.930 . S
C1062 C1063 1.355 . S
C1062 C1064 1.421 . S
C1063 C1062 1.355 . S
C1063 C1065 1.419 . S
C1064 C1062 1.421 . S
C1064 C1069 1.425 1_655 S
C1064 C1071 1.403 1_655 S
C1065 H1057 0.930 . S
C1065 C1063 1.419 . S
C1065 C1066 1.362 . S
C1066 H1058 0.930 . S
C1066 C1065 1.362 . S
C1066 C1069 1.403 1_655 S
C1067 H1059 0.930 . S
C1067 C1068 1.355 . S
C1067 C1069 1.421 . S
C1068 C1067 1.355 . S
C1068 C1070 1.419 . S
C1069 C1064 1.425 1_455 S
C1069 C1066 1.403 1_455 S
C1069 C1067 1.421 . S
C1070 H1060 0.930 . S
C1070 C1068 1.419 . S
C1070 C1071 1.362 . S
C1071 H1061 0.930 . S
C1071 C1064 1.403 1_455 S
C1071 C1070 1.362 . S
H1072 C1078 0.930 . S
H1073 C1081 0.930 . S
H1074 C1082 0.930 . S
H1075 C1083 0.930 . S
H1076 C1086 0.930 . S
H1077 C1087 0.930 . S
C1078 H1072 0.930 . S
C1078 C1079 1.355 . S
C1078 C1080 1.415 . S
C1079 C1078 1.355 . S
C1079 C1081 1.419 . S
C1080 C1078 1.415 . S
C1080 C1085 1.425 . S
C1080 C1087 1.409 . S
C1081 H1073 0.930 . S
C1081 C1079 1.419 . S
C1081 C1082 1.362 . S
C1082 H1074 0.930 . S
C1082 C1081 1.362 . S
C1082 C1085 1.409 . S
C1083 H1075 0.930 . S
C1083 C1084 1.355 . S
C1083 C1085 1.415 . S
C1084 C1083 1.355 . S
C1084 C1086 1.419 . S
C1085 C1080 1.425 . S
C1085 C1082 1.409 . S
C1085 C1083 1.415 . S
C1086 H1076 0.930 . S
C1086 C1084 1.419 . S
C1086 C1087 1.362 . S
C1087 H1077 0.930 . S
C1087 C1080 1.409 . S
C1087 C1086 1.362 . S
H1088 C1094 0.930 . S
H1089 C1097 0.928 1_556 S
H1090 C1098 0.925 1_556 S
H1091 C1099 0.930 . S
H1092 C1102 0.930 . S
H1093 C1103 0.930 . S
C1094 H1088 0.930 . S
C1094 C1095 1.355 . S
C1094 C1096 1.415 . S
C1095 C1094 1.355 . S
C1095 C1097 1.419 . S
C1096 C1094 1.415 . S
C1096 C1101 1.425 . S
C1096 C1103 1.409 . S
C1097 H1089 0.928 1_554 S
C1097 C1095 1.419 . S
C1097 C1098 1.364 . S
C1098 H1090 0.925 1_554 S
C1098 C1097 1.364 . S
C1098 C1101 1.415 . S
C1099 H1091 0.930 . S
C1099 C1100 1.355 . S
C1099 C1101 1.415 . S
C1100 C1099 1.355 . S
C1100 C1102 1.419 . S
C1101 C1096 1.425 . S
C1101 C1098 1.415 . S
C1101 C1099 1.415 . S
C1102 H1092 0.930 . S
C1102 C1100 1.419 . S
C1102 C1103 1.362 . S
C1103 H1093 0.930 . S
C1103 C1096 1.409 . S
C1103 C1102 1.362 . S
C343 C3 1.336 . S
C348 C142 1.243 . S
C359 C318 1.259 . S
C364 C37 1.331 . S
C375 C58 1.352 . S
C380 C100 1.220 . S
C391 C276 1.230 1_556 S
C396 C66 1.253 1_556 S
C407 C45 1.266 . S
C412 C87 1.344 . S
C423 C247 1.223 . S
C428 C121 1.343 . S
C439 C129 1.241 . S
C444 C16 1.348 . S
C455 C150 1.249 1_554 S
C460 C192 1.225 1_554 S
C471 C171 1.244 . S
C476 C297 1.346 . S
C487 C205 1.304 1_556 S
C492 C163 1.128 1_556 S
C503 C255 1.228 . S
C508 C226 1.361 . S
C519 C108 1.285 . S
C524 C234 1.268 . S
C535 C213 1.352 . S
C540 C268 1.236 . S
C551 C289 1.272 1_554 S
C556 C79 1.162 1_554 S
C567 C184 1.372 . S
C572 C310 1.211 . S
C583 C24 1.222 . S
C588 C331 1.347 . S
C599 C20 0.630 . S
C604 C271 0.630 . S
C615 C40 0.633 . S
C620 C124 0.633 . S
C631 C61 0.613 . S
C636 C313 0.613 . S
C647 C167 0.743 . S
C652 C83 0.746 . S
C663 C104 0.611 . S
C668 C188 0.612 . S
C679 C229 0.690 . S
C684 C146 0.690 . S
C695 C208 0.748 . S
C700 C292 0.749 . S
C711 C334 0.598 . S
C716 C251 0.598 . S
C727 C4 1.365 . S
C732 C25 1.464 . S
C743 C46 1.542 . S
C748 C28 1.348 . S
C759 C49 1.535 . S
C764 C70 1.664 . S
C775 C67 1.074 . S
C780 C7 1.258 . S
C791 C109 1.512 . S
C796 C88 1.341 . S
C807 C133 1.565 . S
C812 C112 1.427 . S
C823 C154 1.687 . S
C828 C130 1.578 . S
C839 C91 1.218 . S
C844 C151 1.103 . S
C855 C172 1.500 . S
C860 C193 1.649 . S
C871 C196 1.081 . S
C876 C214 1.265 . S
C887 C238 1.506 . S
C892 C217 1.391 . S
C903 C235 1.344 . S
C908 C175 1.472 . S
C919 C277 1.643 . S
C924 C259 1.497 . S
C935 C280 1.220 . S
C940 C298 1.327 . S
C951 C301 1.260 . S
C956 C319 1.413 . S
C967 C256 1.508 . S
C972 C322 1.401 . S
C983 C19 1.201 . S
C988 C230 1.218 . S
C999 C41 1.264 . S
C1004 C250 1.275 . S
C1015 C62 1.232 . S
C1020 C187 1.209 . S
C1031 C209 1.186 . S
C1036 C82 1.155 . S
C1047 C314 1.288 . S
C1052 C103 1.257 . S
C1063 C125 1.194 . S
C1068 C335 1.258 . S
C1079 C145 1.298 . S
C1084 C272 1.266 . S
C1095 C293 1.251 . S
C1100 C166 1.220 . S
