# Generated by pormake.
# Topology wne, (6)-cn, num edge types: 1
# Building blocks:
#     Node 0, Type 0, BuildingBlock: BETDIP_clean_sbu_0, # of connection points: 6
#     Node 1, Type 0, BuildingBlock: BETDIP_clean_sbu_0, # of connection points: 6
#     Node 2, Type 0, BuildingBlock: BETDIP_clean_sbu_0, # of connection points: 6
#     Node 3, Type 0, BuildingBlock: BETDIP_clean_sbu_0, # of connection points: 6
#     Node 4, Type 0, BuildingBlock: BETDIP_clean_sbu_0, # of connection points: 6
#     Node 5, Type 0, BuildingBlock: BETDIP_clean_sbu_0, # of connection points: 6
#     Node 6, Type 0, BuildingBlock: BETDIP_clean_sbu_0, # of connection points: 6
#     Node 7, Type 0, BuildingBlock: BETDIP_clean_sbu_0, # of connection points: 6
#     Node 8, Type 0, BuildingBlock: BETDIP_clean_sbu_0, # of connection points: 6
#     Node 9, Type 0, BuildingBlock: BETDIP_clean_sbu_0, # of connection points: 6
#     Node 10, Type 0, BuildingBlock: BETDIP_clean_sbu_0, # of connection points: 6
#     Node 11, Type 0, BuildingBlock: BETDIP_clean_sbu_0, # of connection points: 6
#     Node 12, Type 0, BuildingBlock: BETDIP_clean_sbu_0, # of connection points: 6
#     Node 13, Type 0, BuildingBlock: BETDIP_clean_sbu_0, # of connection points: 6
#     Node 14, Type 0, BuildingBlock: BETDIP_clean_sbu_0, # of connection points: 6
#     Node 15, Type 0, BuildingBlock: BETDIP_clean_sbu_0, # of connection points: 6
#     Node 16, Type 0, BuildingBlock: BETDIP_clean_sbu_0, # of connection points: 6
#     Node 17, Type 0, BuildingBlock: BETDIP_clean_sbu_0, # of connection points: 6
#     Node 18, Type 0, BuildingBlock: BETDIP_clean_sbu_0, # of connection points: 6
#     Node 19, Type 0, BuildingBlock: BETDIP_clean_sbu_0, # of connection points: 6
#     Node 20, Type 0, BuildingBlock: BETDIP_clean_sbu_0, # of connection points: 6
#     Node 21, Type 0, BuildingBlock: BETDIP_clean_sbu_0, # of connection points: 6
#     Node 22, Type 0, BuildingBlock: BETDIP_clean_sbu_0, # of connection points: 6
#     Node 23, Type 0, BuildingBlock: BETDIP_clean_sbu_0, # of connection points: 6
#     Node 24, Type 0, BuildingBlock: BETDIP_clean_sbu_0, # of connection points: 6
#     Node 25, Type 0, BuildingBlock: BETDIP_clean_sbu_0, # of connection points: 6
#     Node 26, Type 0, BuildingBlock: BETDIP_clean_sbu_0, # of connection points: 6
#     Node 27, Type 0, BuildingBlock: BETDIP_clean_sbu_0, # of connection points: 6
#     Node 28, Type 0, BuildingBlock: BETDIP_clean_sbu_0, # of connection points: 6
#     Node 29, Type 0, BuildingBlock: BETDIP_clean_sbu_0, # of connection points: 6
#     Node 30, Type 0, BuildingBlock: BETDIP_clean_sbu_0, # of connection points: 6
#     Node 31, Type 0, BuildingBlock: BETDIP_clean_sbu_0, # of connection points: 6
#     Node 32, Type 0, BuildingBlock: BETDIP_clean_sbu_0, # of connection points: 6
#     Node 33, Type 0, BuildingBlock: BETDIP_clean_sbu_0, # of connection points: 6
#     Node 34, Type 0, BuildingBlock: BETDIP_clean_sbu_0, # of connection points: 6
#     Node 35, Type 0, BuildingBlock: BETDIP_clean_sbu_0, # of connection points: 6
#     Edge 36, Type (0, 0), BuildingBlock: CIFDUS_clean_linker_0, # of connection points: 2
#     Edge 37, Type (0, 0), BuildingBlock: CIFDUS_clean_linker_0, # of connection points: 2
#     Edge 38, Type (0, 0), BuildingBlock: CIFDUS_clean_linker_0, # of connection points: 2
#     Edge 39, Type (0, 0), BuildingBlock: CIFDUS_clean_linker_0, # of connection points: 2
#     Edge 40, Type (0, 0), BuildingBlock: CIFDUS_clean_linker_0, # of connection points: 2
#     Edge 41, Type (0, 0), BuildingBlock: CIFDUS_clean_linker_0, # of connection points: 2
#     Edge 42, Type (0, 0), BuildingBlock: CIFDUS_clean_linker_0, # of connection points: 2
#     Edge 43, Type (0, 0), BuildingBlock: CIFDUS_clean_linker_0, # of connection points: 2
#     Edge 44, Type (0, 0), BuildingBlock: CIFDUS_clean_linker_0, # of connection points: 2
#     Edge 45, Type (0, 0), BuildingBlock: CIFDUS_clean_linker_0, # of connection points: 2
#     Edge 46, Type (0, 0), BuildingBlock: CIFDUS_clean_linker_0, # of connection points: 2
#     Edge 47, Type (0, 0), BuildingBlock: CIFDUS_clean_linker_0, # of connection points: 2
#     Edge 48, Type (0, 0), BuildingBlock: CIFDUS_clean_linker_0, # of connection points: 2
#     Edge 49, Type (0, 0), BuildingBlock: CIFDUS_clean_linker_0, # of connection points: 2
#     Edge 50, Type (0, 0), BuildingBlock: CIFDUS_clean_linker_0, # of connection points: 2
#     Edge 51, Type (0, 0), BuildingBlock: CIFDUS_clean_linker_0, # of connection points: 2
#     Edge 52, Type (0, 0), BuildingBlock: CIFDUS_clean_linker_0, # of connection points: 2
#     Edge 53, Type (0, 0), BuildingBlock: CIFDUS_clean_linker_0, # of connection points: 2
#     Edge 54, Type (0, 0), BuildingBlock: CIFDUS_clean_linker_0, # of connection points: 2
#     Edge 55, Type (0, 0), BuildingBlock: CIFDUS_clean_linker_0, # of connection points: 2
#     Edge 56, Type (0, 0), BuildingBlock: CIFDUS_clean_linker_0, # of connection points: 2
#     Edge 57, Type (0, 0), BuildingBlock: CIFDUS_clean_linker_0, # of connection points: 2
#     Edge 58, Type (0, 0), BuildingBlock: CIFDUS_clean_linker_0, # of connection points: 2
#     Edge 59, Type (0, 0), BuildingBlock: CIFDUS_clean_linker_0, # of connection points: 2
#     Edge 60, Type (0, 0), BuildingBlock: CIFDUS_clean_linker_0, # of connection points: 2
#     Edge 61, Type (0, 0), BuildingBlock: CIFDUS_clean_linker_0, # of connection points: 2
#     Edge 62, Type (0, 0), BuildingBlock: CIFDUS_clean_linker_0, # of connection points: 2
#     Edge 63, Type (0, 0), BuildingBlock: CIFDUS_clean_linker_0, # of connection points: 2
#     Edge 64, Type (0, 0), BuildingBlock: CIFDUS_clean_linker_0, # of connection points: 2
#     Edge 65, Type (0, 0), BuildingBlock: CIFDUS_clean_linker_0, # of connection points: 2
#     Edge 66, Type (0, 0), BuildingBlock: CIFDUS_clean_linker_0, # of connection points: 2
#     Edge 67, Type (0, 0), BuildingBlock: CIFDUS_clean_linker_0, # of connection points: 2
#     Edge 68, Type (0, 0), BuildingBlock: CIFDUS_clean_linker_0, # of connection points: 2
#     Edge 69, Type (0, 0), BuildingBlock: CIFDUS_clean_linker_0, # of connection points: 2
#     Edge 70, Type (0, 0), BuildingBlock: CIFDUS_clean_linker_0, # of connection points: 2
#     Edge 71, Type (0, 0), BuildingBlock: CIFDUS_clean_linker_0, # of connection points: 2
#     Edge 72, Type (0, 0), BuildingBlock: CIFDUS_clean_linker_0, # of connection points: 2
#     Edge 73, Type (0, 0), BuildingBlock: CIFDUS_clean_linker_0, # of connection points: 2
#     Edge 74, Type (0, 0), BuildingBlock: CIFDUS_clean_linker_0, # of connection points: 2
#     Edge 75, Type (0, 0), BuildingBlock: CIFDUS_clean_linker_0, # of connection points: 2
#     Edge 76, Type (0, 0), BuildingBlock: CIFDUS_clean_linker_0, # of connection points: 2
#     Edge 77, Type (0, 0), BuildingBlock: CIFDUS_clean_linker_0, # of connection points: 2
#     Edge 78, Type (0, 0), BuildingBlock: CIFDUS_clean_linker_0, # of connection points: 2
#     Edge 79, Type (0, 0), BuildingBlock: CIFDUS_clean_linker_0, # of connection points: 2
#     Edge 80, Type (0, 0), BuildingBlock: CIFDUS_clean_linker_0, # of connection points: 2
#     Edge 81, Type (0, 0), BuildingBlock: CIFDUS_clean_linker_0, # of connection points: 2
#     Edge 82, Type (0, 0), BuildingBlock: CIFDUS_clean_linker_0, # of connection points: 2
#     Edge 83, Type (0, 0), BuildingBlock: CIFDUS_clean_linker_0, # of connection points: 2
#     Edge 84, Type (0, 0), BuildingBlock: CIFDUS_clean_linker_0, # of connection points: 2
#     Edge 85, Type (0, 0), BuildingBlock: CIFDUS_clean_linker_0, # of connection points: 2
#     Edge 86, Type (0, 0), BuildingBlock: CIFDUS_clean_linker_0, # of connection points: 2
#     Edge 87, Type (0, 0), BuildingBlock: CIFDUS_clean_linker_0, # of connection points: 2
#     Edge 88, Type (0, 0), BuildingBlock: CIFDUS_clean_linker_0, # of connection points: 2
#     Edge 89, Type (0, 0), BuildingBlock: CIFDUS_clean_linker_0, # of connection points: 2
#     Edge 90, Type (0, 0), BuildingBlock: CIFDUS_clean_linker_0, # of connection points: 2
#     Edge 91, Type (0, 0), BuildingBlock: CIFDUS_clean_linker_0, # of connection points: 2
#     Edge 92, Type (0, 0), BuildingBlock: CIFDUS_clean_linker_0, # of connection points: 2
#     Edge 93, Type (0, 0), BuildingBlock: CIFDUS_clean_linker_0, # of connection points: 2
#     Edge 94, Type (0, 0), BuildingBlock: CIFDUS_clean_linker_0, # of connection points: 2
#     Edge 95, Type (0, 0), BuildingBlock: CIFDUS_clean_linker_0, # of connection points: 2
#     Edge 96, Type (0, 0), BuildingBlock: CIFDUS_clean_linker_0, # of connection points: 2
#     Edge 97, Type (0, 0), BuildingBlock: CIFDUS_clean_linker_0, # of connection points: 2
#     Edge 98, Type (0, 0), BuildingBlock: CIFDUS_clean_linker_0, # of connection points: 2
#     Edge 99, Type (0, 0), BuildingBlock: CIFDUS_clean_linker_0, # of connection points: 2
#     Edge 100, Type (0, 0), BuildingBlock: CIFDUS_clean_linker_0, # of connection points: 2
#     Edge 101, Type (0, 0), BuildingBlock: CIFDUS_clean_linker_0, # of connection points: 2
#     Edge 102, Type (0, 0), BuildingBlock: CIFDUS_clean_linker_0, # of connection points: 2
#     Edge 103, Type (0, 0), BuildingBlock: CIFDUS_clean_linker_0, # of connection points: 2
#     Edge 104, Type (0, 0), BuildingBlock: CIFDUS_clean_linker_0, # of connection points: 2
#     Edge 105, Type (0, 0), BuildingBlock: CIFDUS_clean_linker_0, # of connection points: 2
#     Edge 106, Type (0, 0), BuildingBlock: CIFDUS_clean_linker_0, # of connection points: 2
#     Edge 107, Type (0, 0), BuildingBlock: CIFDUS_clean_linker_0, # of connection points: 2
#     Edge 108, Type (0, 0), BuildingBlock: CIFDUS_clean_linker_0, # of connection points: 2
#     Edge 109, Type (0, 0), BuildingBlock: CIFDUS_clean_linker_0, # of connection points: 2
#     Edge 110, Type (0, 0), BuildingBlock: CIFDUS_clean_linker_0, # of connection points: 2
#     Edge 111, Type (0, 0), BuildingBlock: CIFDUS_clean_linker_0, # of connection points: 2
#     Edge 112, Type (0, 0), BuildingBlock: CIFDUS_clean_linker_0, # of connection points: 2
#     Edge 113, Type (0, 0), BuildingBlock: CIFDUS_clean_linker_0, # of connection points: 2
#     Edge 114, Type (0, 0), BuildingBlock: CIFDUS_clean_linker_0, # of connection points: 2
#     Edge 115, Type (0, 0), BuildingBlock: CIFDUS_clean_linker_0, # of connection points: 2
#     Edge 116, Type (0, 0), BuildingBlock: CIFDUS_clean_linker_0, # of connection points: 2
#     Edge 117, Type (0, 0), BuildingBlock: CIFDUS_clean_linker_0, # of connection points: 2
#     Edge 118, Type (0, 0), BuildingBlock: CIFDUS_clean_linker_0, # of connection points: 2
#     Edge 119, Type (0, 0), BuildingBlock: CIFDUS_clean_linker_0, # of connection points: 2
#     Edge 120, Type (0, 0), BuildingBlock: CIFDUS_clean_linker_0, # of connection points: 2
#     Edge 121, Type (0, 0), BuildingBlock: CIFDUS_clean_linker_0, # of connection points: 2
#     Edge 122, Type (0, 0), BuildingBlock: CIFDUS_clean_linker_0, # of connection points: 2
#     Edge 123, Type (0, 0), BuildingBlock: CIFDUS_clean_linker_0, # of connection points: 2
#     Edge 124, Type (0, 0), BuildingBlock: CIFDUS_clean_linker_0, # of connection points: 2
#     Edge 125, Type (0, 0), BuildingBlock: CIFDUS_clean_linker_0, # of connection points: 2
#     Edge 126, Type (0, 0), BuildingBlock: CIFDUS_clean_linker_0, # of connection points: 2
#     Edge 127, Type (0, 0), BuildingBlock: CIFDUS_clean_linker_0, # of connection points: 2
#     Edge 128, Type (0, 0), BuildingBlock: CIFDUS_clean_linker_0, # of connection points: 2
#     Edge 129, Type (0, 0), BuildingBlock: CIFDUS_clean_linker_0, # of connection points: 2
#     Edge 130, Type (0, 0), BuildingBlock: CIFDUS_clean_linker_0, # of connection points: 2
#     Edge 131, Type (0, 0), BuildingBlock: CIFDUS_clean_linker_0, # of connection points: 2
#     Edge 132, Type (0, 0), BuildingBlock: CIFDUS_clean_linker_0, # of connection points: 2
#     Edge 133, Type (0, 0), BuildingBlock: CIFDUS_clean_linker_0, # of connection points: 2
#     Edge 134, Type (0, 0), BuildingBlock: CIFDUS_clean_linker_0, # of connection points: 2
#     Edge 135, Type (0, 0), BuildingBlock: CIFDUS_clean_linker_0, # of connection points: 2
#     Edge 136, Type (0, 0), BuildingBlock: CIFDUS_clean_linker_0, # of connection points: 2
#     Edge 137, Type (0, 0), BuildingBlock: CIFDUS_clean_linker_0, # of connection points: 2
#     Edge 138, Type (0, 0), BuildingBlock: CIFDUS_clean_linker_0, # of connection points: 2
#     Edge 139, Type (0, 0), BuildingBlock: CIFDUS_clean_linker_0, # of connection points: 2
#     Edge 140, Type (0, 0), BuildingBlock: CIFDUS_clean_linker_0, # of connection points: 2
#     Edge 141, Type (0, 0), BuildingBlock: CIFDUS_clean_linker_0, # of connection points: 2
#     Edge 142, Type (0, 0), BuildingBlock: CIFDUS_clean_linker_0, # of connection points: 2
#     Edge 143, Type (0, 0), BuildingBlock: CIFDUS_clean_linker_0, # of connection points: 2
# Relax obj value: 0.462
# Max RMSD: 0.277
# Mean RMSD: 0.277
data_MOF--net-wne--node1-BETDIP_clean_sbu_0--edge1-CIFDUS_clean_linker_0
_symmetry_space_group_name_H-M    P1
_symmetry_Int_Tables_number       1
_symmetry_cell_setting            triclinic
loop_
_symmetry_equiv_pos_as_xyz
'x, y, z'
_cell_length_a     77.265308
_cell_length_b     77.110548
_cell_length_c     28.129324
_cell_angle_alpha  89.917126
_cell_angle_beta   90.027182
_cell_angle_gamma 120.05524
loop_
_atom_site_label
_atom_site_type_symbol
_atom_site_fract_x
_atom_site_fract_y
_atom_site_fract_z
_atom_type_partial_charge
Tb0 Tb 0.30428 0.21156 0.10072 0.0
Tb1 Tb 0.33329 0.25096 0.12193 0.0
C2 C 0.28394 0.17432 0.07815 0.0
C3 C 0.28264 0.1541 0.07035 0.0
C4 C 0.29204 0.15006 0.0322 0.0
C5 C 0.28826 0.13029 0.02291 0.0
C6 C 0.27464 0.11368 0.05078 0.0
C7 C 0.26567 0.11796 0.0894 0.0
C8 C 0.26959 0.13762 0.09891 0.0
C9 C 0.29249 0.22823 0.17254 0.0
C10 C 0.34501 0.21819 0.14808 0.0
C11 C 0.35357 0.28432 0.1611 0.0
C12 C 0.34868 0.3004 0.16014 0.0
C13 C 0.32857 0.29562 0.16326 0.0
C14 C 0.32303 0.30968 0.15097 0.0
C15 C 0.33762 0.32878 0.13632 0.0
C16 C 0.35783 0.33394 0.13535 0.0
C17 C 0.36334 0.3198 0.14713 0.0
C18 C 0.34026 0.24373 0.03271 0.0
C19 C 0.29426 0.24409 0.0666 0.0
O20 O 0.29301 0.18896 0.04734 0.0
O21 O 0.28599 0.18125 0.12146 0.0
O22 O 0.30946 0.22941 0.16593 0.0
O23 O 0.28123 0.21589 0.13989 0.0
O24 O 0.32635 0.20539 0.13552 0.0
O25 O 0.35158 0.23765 0.1451 0.0
O26 O 0.34108 0.26818 0.18433 0.0
O27 O 0.3581 0.28011 0.11974 0.0
O28 O 0.33438 0.23118 0.06792 0.0
O29 O 0.33946 0.25923 0.04737 0.0
O30 O 0.3086 0.25553 0.09705 0.0
O31 O 0.29212 0.22643 0.05496 0.0
H32 H 0.30199 0.1621 1.00875 0.0
H33 H 0.29549 0.12793 0.99266 0.0
H34 H 0.25535 0.10598 0.11248 0.0
H35 H 0.26183 0.13982 0.12826 0.0
H36 H 0.31698 0.28068 0.17271 0.0
H37 H 0.30739 0.30549 0.15155 0.0
H38 H 0.36923 0.34869 0.1236 0.0
H39 H 0.37885 0.32369 0.14384 0.0
Tb40 Tb 0.87967 0.11533 0.09872 0.0
Tb41 Tb 0.83859 0.10013 0.11552 0.0
C42 C 0.91682 0.13502 0.07643 0.0
C43 C 0.93542 0.15499 0.06497 0.0
C44 C 0.93861 0.164 0.01968 0.0
C45 C 0.95713 0.18103 1.00726 0.0
C46 C 0.97345 0.1898 0.03937 0.0
C47 C 0.97011 0.18085 0.08489 0.0
C48 C 0.95156 0.16384 0.09731 0.0
C49 C 0.86369 0.08499 0.16673 0.0
C50 C 0.86776 0.14556 0.14735 0.0
C51 C 0.80525 0.08306 0.15467 0.0
C52 C 0.79324 0.06118 0.16056 0.0
C53 C 0.79068 0.05252 0.20581 0.0
C54 C 0.78157 1.03173 0.21085 0.0
C55 C 0.77463 1.01912 0.1707 0.0
C56 C 0.77807 1.02809 0.12537 0.0
C57 C 0.7872 0.04874 0.12043 0.0
C58 C 0.84758 0.11809 0.02963 0.0
C59 C 0.85056 0.07211 0.05956 0.0
O60 O 0.90212 0.12683 0.04557 0.0
O61 O 0.91008 0.13113 0.12018 0.0
O62 O 0.86059 0.09957 0.16019 0.0
O63 O 0.87817 0.08891 0.13758 0.0
O64 O 0.88241 0.14239 0.13407 0.0
O65 O 0.84891 0.13089 0.14259 0.0
O66 O 0.82192 0.09147 0.1787 0.0
O67 O 0.80782 0.08986 0.11112 0.0
O68 O 0.85852 0.1239 0.0674 0.0
O69 O 0.83243 0.10066 0.03973 0.0
O70 O 0.83769 0.07244 0.09004 0.0
O71 O 0.86712 0.08928 0.04962 0.0
H72 H 0.92692 0.15758 0.99309 0.0
H73 H 0.95877 0.18692 0.97158 0.0
H74 H 0.98186 0.18695 0.11131 0.0
H75 H 0.95004 0.15729 0.13223 0.0
H76 H 0.79593 0.06185 0.23725 0.0
H77 H 0.7796 1.02556 0.24632 0.0
H78 H 0.77281 1.01926 0.09324 0.0
H79 H 0.7895 0.05488 0.08483 0.0
Tb80 Tb 0.9754 0.78576 0.10458 0.0
Tb81 Tb 0.99163 0.75817 0.11848 0.0
C82 C 0.95737 0.80436 0.07807 0.0
C83 C 0.93845 0.80521 0.06802 0.0
C84 C 0.92769 0.79887 0.02483 0.0
C85 C 0.91176 0.80257 1.0147 0.0
C86 C 0.90632 0.81314 0.0469 0.0
C87 C 0.91688 0.81903 0.0903 0.0
C88 C 0.93249 0.81514 0.10058 0.0
C89 C 1.00354 0.79941 0.17942 0.0
C90 C 0.94569 0.7432 0.15144 0.0
C91 C 1.00667 0.73969 0.15866 0.0
C92 C 1.02757 0.74662 0.17092 0.0
C93 C 1.04229 0.76606 0.15825 0.0
C94 C 0.06245 0.77199 0.16138 0.0
C95 C 0.06819 0.75812 0.17495 0.0
C96 C 1.05351 0.73921 0.1922 0.0
C97 C 1.03325 0.73346 0.18994 0.0
C98 C 0.97396 0.7513 0.03334 0.0
C99 C 1.01946 0.80062 0.06788 0.0
O100 O 0.96446 0.79631 0.04821 0.0
O101 O 0.96108 0.80193 0.12222 0.0
O102 O 0.99666 0.78427 0.15227 0.0
O103 O 0.99284 0.8071 0.16523 0.0
O104 O 0.94857 0.76094 0.13821 0.0
O105 O 0.96052 0.73911 0.14717 0.0
O106 O 0.99839 0.74837 0.18179 0.0
O107 O 1.00312 0.73876 0.11298 0.0
O108 O 0.96792 0.75597 0.07191 0.0
O109 O 0.99048 0.75156 0.04343 0.0
O110 O 1.01884 0.78595 0.09415 0.0
O111 O 1.00275 0.80123 0.06025 0.0
H112 H 0.93187 0.79149 0.99829 0.0
H113 H 0.90422 0.79784 0.98075 0.0
H114 H 0.91323 0.82697 0.11652 0.0
H115 H 0.94042 0.82058 0.13391 0.0
H116 H 1.03822 0.77611 0.14204 0.0
H117 H 0.07338 0.7866 0.14778 0.0
H118 H 0.05744 0.72806 0.20241 0.0
H119 H 1.02205 0.71829 0.1994 0.0
Tb120 Tb 0.22737 0.28678 0.44181 0.0
Tb121 Tb 0.26609 0.31442 0.42177 0.0
C122 C 0.1904 0.26732 0.46658 0.0
C123 C 0.17159 0.26829 0.47763 0.0
C124 C 0.16916 0.27616 0.52077 0.0
C125 C 0.15071 0.27473 0.53318 0.0
C126 C 0.13369 0.26524 0.50324 0.0
C127 C 0.13621 0.25747 0.45991 0.0
C128 C 0.1547 0.25895 0.44748 0.0
C129 C 0.2436 0.27419 0.37004 0.0
C130 C 0.2342 0.32715 0.39449 0.0
C131 C 0.29704 0.33438 0.37402 0.0
C132 C 0.30731 0.32693 0.34358 0.0
C133 C 0.30877 0.33072 0.29463 0.0
C134 C 0.31993 0.32517 0.26612 0.0
C135 C 0.33052 0.31657 0.28654 0.0
C136 C 0.32634 0.31002 0.33414 0.0
C137 C 0.3149 0.31524 0.36244 0.0
C138 C 0.25917 0.32376 0.50949 0.0
C139 C 0.25857 0.27581 0.47792 0.0
O140 O 0.20549 0.27528 0.4963 0.0
O141 O 0.19671 0.2695 0.42265 0.0
O142 O 0.24496 0.29114 0.37694 0.0
O143 O 0.23156 0.26309 0.40352 0.0
O144 O 0.22132 0.30811 0.40323 0.0
O145 O 0.25339 0.3339 0.40313 0.0
O146 O 0.27939 0.33008 0.35906 0.0
O147 O 0.29738 0.3316 0.41976 0.0
O148 O 0.24686 0.31729 0.47391 0.0
O149 O 0.27432 0.32216 0.49593 0.0
O150 O 0.26981 0.28873 0.44459 0.0
O151 O 0.24196 0.2756 0.49046 0.0
H152 H 0.18145 0.2831 0.54573 0.0
H153 H 0.14972 0.28068 0.56725 0.0
H154 H 0.12387 0.25023 0.4352 0.0
H155 H 0.15566 0.25234 0.41434 0.0
H156 H 0.30211 0.33882 0.27882 0.0
H157 H 0.32206 0.32973 0.22938 0.0
H158 H 0.33371 0.30294 0.3515 0.0
H159 H 0.31304 0.31108 0.39968 0.0
Tb160 Tb 0.80131 0.95968 0.43033 0.0
Tb161 Tb 0.77519 0.97328 0.40869 0.0
C162 C 0.81976 0.94092 0.45385 0.0
C163 C 0.81926 0.9214 0.46717 0.0
C164 C 0.82703 0.91258 0.436 0.0
C165 C 0.82918 0.89601 0.44989 0.0
C166 C 0.82368 0.88739 0.4958 0.0
C167 C 0.8158 0.89624 0.52683 0.0
C168 C 0.81372 0.91283 0.51297 0.0
C169 C 0.81397 0.98685 0.35488 0.0
C170 C 0.76022 0.92847 0.37967 0.0
C171 C 0.75481 0.98829 0.38273 0.0
C172 C 0.75439 1.00423 0.4104 0.0
C173 C 0.77255 1.02126 0.42356 0.0
C174 C 0.77355 1.03239 0.46346 0.0
C175 C 0.7563 1.02702 0.49028 0.0
C176 C 0.7378 1.01124 0.47417 0.0
C177 C 0.73687 0.99991 0.4347 0.0
C178 C 0.76819 0.96002 0.49966 0.0
C179 C 0.8154 1.0039 0.46065 0.0
O180 O 0.81342 0.94948 0.48407 0.0
O181 O 0.81612 0.94387 0.41 0.0
O182 O 0.79661 0.97206 0.3636 0.0
O183 O 0.82505 0.98581 0.38807 0.0
O184 O 0.77647 0.93116 0.40193 0.0
O185 O 0.75732 0.94385 0.37444 0.0
O186 O 0.77193 0.99302 0.36294 0.0
O187 O 0.74704 0.97109 0.40486 0.0
O188 O 0.7719 0.95185 0.46407 0.0
O189 O 0.77317 0.97776 0.4846 0.0
O190 O 0.8015 1.00171 0.42998 0.0
O191 O 0.81594 0.98763 0.47408 0.0
H192 H 0.83192 0.9188 0.40076 0.0
H193 H 0.83513 0.88991 0.42423 0.0
H194 H 0.81164 0.89071 0.5628 0.0
H195 H 0.80813 0.91922 0.53881 0.0
H196 H 0.78633 1.02518 0.40519 0.0
H197 H 0.78796 0.04464 0.47433 0.0
H198 H 0.72403 1.00728 0.49272 0.0
H199 H 0.72272 0.98687 0.42539 0.0
Tb200 Tb 0.13063 0.86281 0.43875 0.0
Tb201 Tb 0.11867 0.82281 0.41573 0.0
C202 C 0.14876 0.89971 0.46458 0.0
C203 C 0.16863 0.91858 0.4755 0.0
C204 C 0.17696 0.93503 0.44374 0.0
C205 C 0.194 0.95363 0.45592 0.0
C206 C 0.20353 0.95672 0.5006 0.0
C207 C 0.19519 0.94014 0.53219 0.0
C208 C 0.17816 0.92158 0.52002 0.0
C209 C 0.10167 0.84703 0.36776 0.0
C210 C 0.16355 0.85549 0.38926 0.0
C211 C 0.10636 0.79141 0.36716 0.0
C212 C 0.08636 0.77853 0.34737 0.0
C213 C 0.07161 0.78387 0.35356 0.0
C214 C 1.05152 0.76984 0.34633 0.0
C215 C 1.04592 0.75011 0.33394 0.0
C216 C 0.06093 0.74561 0.32157 0.0
C217 C 0.08108 0.75976 0.32859 0.0
C218 C 0.1347 0.82954 0.50336 0.0
C219 C 0.08839 0.8312 0.47473 0.0
O220 O 0.14167 0.88443 0.49393 0.0
O221 O 0.14432 0.89363 0.42053 0.0
O222 O 0.11694 0.84511 0.37455 0.0
O223 O 0.1032 0.8595 0.40068 0.0
O224 O 0.15778 0.86849 0.40015 0.0
O225 O 0.15082 0.83606 0.39545 0.0
O226 O 0.11617 0.80939 0.34926 0.0
O227 O 0.10714 0.79172 0.4135 0.0
O228 O 0.14068 0.84231 0.46856 0.0
O229 O 0.11883 0.81359 0.48863 0.0
O230 O 0.08983 0.81967 0.44169 0.0
O231 O 0.10485 0.8479 0.48706 0.0
H232 H 0.17001 0.93368 0.40945 0.0
H233 H 0.19971 0.9656 0.42994 0.0
H234 H 0.20147 0.94156 0.56732 0.0
H235 H 0.17217 0.90969 0.54624 0.0
H236 H 0.07542 0.79834 0.36784 0.0
H237 H 1.0403 0.77374 0.35583 0.0
H238 H 0.05709 0.73049 0.31202 0.0
H239 H 0.09232 0.75546 0.32323 0.0
Tb240 Tb 0.7753 0.82091 0.90287 0.0
Tb241 Tb 0.80289 0.86242 0.93146 0.0
C242 C 0.76438 0.78893 0.85877 0.0
C243 C 0.76622 0.77181 0.87517 0.0
C244 C 0.77979 0.76737 0.85262 0.0
C245 C 0.78504 0.75424 0.87384 0.0
C246 C 0.77677 0.74536 0.91791 0.0
C247 C 0.76261 0.74928 0.93927 0.0
C248 C 0.75747 0.76239 0.91832 0.0
C249 C 0.76053 0.82348 0.98726 0.0
C250 C 0.8139 0.83045 0.96693 0.0
C251 C 0.82065 0.89958 0.95554 0.0
C252 C 0.82002 0.91858 0.96819 0.0
C253 C 0.81411 0.92158 1.01352 0.0
C254 C 0.81608 0.94025 0.02681 0.0
C255 C 0.82422 0.95702 0.99567 0.0
C256 C 0.83009 0.95393 0.95024 0.0
C257 C 0.82805 0.93521 0.93692 0.0
C258 C 0.81584 0.84792 0.85828 0.0
C259 C 0.76127 0.85159 0.87919 0.0
O260 O 0.78152 0.80511 0.85186 0.0
O261 O 0.75186 0.79268 0.88164 0.0
O262 O 0.77627 0.8381 0.96704 0.0
O263 O 0.75406 0.80785 0.96057 0.0
O264 O 0.79858 0.81761 0.9405 0.0
O265 O 0.81715 0.84889 0.9742 0.0
O266 O 0.81407 0.88458 0.98568 0.0
O267 O 0.81753 0.89314 0.91156 0.0
O268 O 0.79845 0.84567 0.86548 0.0
O269 O 0.82689 0.86044 0.89085 0.0
O270 O 0.77657 0.86433 0.90586 0.0
O271 O 0.75919 0.83399 0.86807 0.0
H272 H 0.78693 0.77469 0.81955 0.0
H273 H 0.79574 0.75126 0.85623 0.0
H274 H 0.75529 0.74206 0.97224 0.0
H275 H 0.7471 0.76557 0.93688 0.0
H276 H 0.80832 0.90957 0.03942 0.0
H277 H 0.81163 0.94161 0.06244 0.0
H278 H 0.83625 0.96601 0.92453 0.0
H279 H 0.83321 0.93391 0.90204 0.0
Tb280 Tb 0.27124 0.97538 0.91385 0.0
Tb281 Tb 0.2293 0.96073 0.93633 0.0
C282 C 0.30476 0.99522 0.87377 0.0
C283 C 0.31819 1.01673 0.8657 0.0
C284 C 0.33796 1.0235 0.85206 0.0
C285 C 0.3522 0.04382 0.85512 0.0
C286 C 0.347 0.05755 0.87368 0.0
C287 C 0.3269 0.05099 0.88384 0.0
C288 C 0.31268 1.03071 0.88039 0.0
C289 C 0.2664 0.95443 0.99368 0.0
C290 C 0.25943 1.00385 0.97388 0.0
C291 C 0.19207 0.9411 0.95894 0.0
C292 C 0.17303 0.92163 0.97193 0.0
C293 C 0.17044 0.91206 1.01633 0.0
C294 C 0.15176 0.89548 0.03009 0.0
C295 C 0.13462 0.88773 1.00039 0.0
C296 C 0.13731 0.89733 0.95588 0.0
C297 C 0.15604 0.91384 0.94206 0.0
C298 C 0.24446 0.98956 0.86491 0.0
C299 C 0.24113 0.93019 0.88641 0.0
O300 O 0.28784 0.98643 0.85047 0.0
O301 O 0.30235 0.99021 0.91852 0.0
O302 O 0.25222 0.95638 0.97353 0.0
O303 O 0.28226 0.96378 0.96818 0.0
O304 O 0.2726 1.00196 0.94751 0.0
O305 O 0.24139 0.98806 0.98083 0.0
O306 O 0.20681 0.94975 0.98957 0.0
O307 O 0.19881 0.94415 0.9152 0.0
O308 O 0.24776 0.97507 0.87269 0.0
O309 O 0.23044 0.9862 0.89502 0.0
O310 O 0.22727 0.93287 0.90744 0.0
O311 O 0.25959 0.94554 0.88138 0.0
H312 H 0.34273 1.01294 0.84248 0.0
H313 H 0.3677 0.04835 0.84826 0.0
H314 H 0.3226 0.06117 0.89911 0.0
H315 H 0.29771 1.02586 0.89243 0.0
H316 H 0.1828 0.91763 0.04114 0.0
H317 H 0.15069 0.8891 0.06498 0.0
H318 H 0.12492 0.89206 0.93127 0.0
H319 H 0.15708 0.92087 0.90799 0.0
Tb320 Tb 0.11924 0.316 0.91651 0.0
Tb321 Tb 0.13051 0.28774 0.94091 0.0
C322 C 0.09949 0.3309 0.88243 0.0
C323 C 0.07811 0.32166 0.87148 0.0
C324 C 0.0656 0.30079 0.87491 0.0
C325 C 1.04488 0.29238 0.87721 0.0
C326 C 1.03646 0.30477 0.87552 0.0
C327 C 1.04891 0.32537 0.86607 0.0
C328 C 0.06964 0.33378 0.86449 0.0
C329 C 0.14327 0.33049 0.99279 0.0
C330 C 0.08904 0.27626 0.979 0.0
C331 C 0.14843 0.26831 0.96321 0.0
C332 C 0.16787 0.26793 0.9701 0.0
C333 C 0.17916 0.27426 1.01264 0.0
C334 C 0.19539 0.27085 0.02115 0.0
C335 C 0.20083 0.26064 0.98788 0.0
C336 C 0.1898 0.25482 0.94494 0.0
C337 C 0.17376 0.25836 0.93633 0.0
C338 C 0.1029 0.27581 0.86708 0.0
C339 C 0.1634 0.32809 0.88983 0.0
O340 O 0.10954 0.32496 0.85652 0.0
O341 O 0.10363 0.33139 0.92763 0.0
O342 O 0.13007 0.31176 0.98528 0.0
O343 O 0.14298 0.3405 0.95622 0.0
O344 O 0.09122 0.29089 0.9499 0.0
O345 O 0.10455 0.27394 0.98716 0.0
O346 O 0.14303 0.2775 0.99378 0.0
O347 O 0.14272 0.26963 0.92025 0.0
O348 O 0.11851 0.29283 0.87452 0.0
O349 O 0.10342 0.26452 0.90063 0.0
O350 O 0.15941 0.31224 0.91561 0.0
O351 O 0.14889 0.33208 0.88087 0.0
H352 H 0.07184 0.29113 0.87942 0.0
H353 H 1.03559 0.2765 0.88437 0.0
H354 H 1.04283 0.33533 0.86514 0.0
H355 H 0.07905 0.34989 0.86153 0.0
H356 H 0.17509 0.28135 0.04018 0.0
H357 H 0.20316 0.27553 0.05483 0.0
H358 H 0.1934 0.24723 0.91771 0.0
H359 H 0.16549 0.25293 0.90343 0.0
Tb360 Tb 0.83864 0.75917 0.61873 0.0
Tb361 Tb 0.8796 0.78494 0.59929 0.0
C362 C 0.80613 0.74165 0.66339 0.0
C363 C 0.79395 0.75016 0.67952 0.0
C364 C 0.8014 0.77086 0.67484 0.0
C365 C 0.78852 0.77856 0.67708 0.0
C366 C 0.76806 0.7656 0.68457 0.0
C367 C 0.76116 0.74535 0.69576 0.0
C368 C 0.77404 0.73761 0.69269 0.0
C369 C 0.84643 0.74955 0.53174 0.0
C370 C 0.85035 0.79906 0.56192 0.0
C371 C 0.9167 0.80242 0.57565 0.0
C372 C 0.93535 0.80121 0.56336 0.0
C373 C 0.93868 0.79636 0.51714 0.0
C374 C 0.95716 0.79798 0.50396 0.0
C375 C 0.97339 0.80467 0.53618 0.0
C376 C 0.96997 0.8094 0.58259 0.0
C377 C 0.95144 0.80776 0.59577 0.0
C378 C 0.86425 0.79872 0.67012 0.0
C379 C 0.86769 0.74257 0.64726 0.0
O380 O 0.82354 0.74904 0.68374 0.0
O381 O 0.80742 0.74072 0.6173 0.0
O382 O 0.85789 0.75506 0.56869 0.0
O383 O 0.83154 0.75194 0.54368 0.0
O384 O 0.83789 0.78616 0.59369 0.0
O385 O 0.86669 0.79829 0.55088 0.0
O386 O 0.90178 0.79572 0.54543 0.0
O387 O 0.91022 0.79975 0.6196 0.0
O388 O 0.86148 0.7813 0.66225 0.0
O389 O 0.87742 0.80964 0.63837 0.0
O390 O 0.88237 0.76062 0.63494 0.0
O391 O 0.84887 0.73824 0.6418 0.0
H392 H 0.81682 0.78081 0.6654 0.0
H393 H 0.79414 0.79416 0.6681 0.0
H394 H 0.74536 0.73499 0.7011 0.0
H395 H 0.76809 0.72163 0.6967 0.0
H396 H 0.92711 0.79175 0.49041 0.0
H397 H 0.95882 0.79448 0.46761 0.0
H398 H 0.98163 0.81442 0.60915 0.0
H399 H 0.94988 0.81209 0.63141 0.0
Tb400 Tb 0.33381 0.10001 0.61258 0.0
Tb401 Tb 0.30707 0.11455 0.59786 0.0
C402 C 0.35141 0.08386 0.65028 0.0
C403 C 0.34138 0.06256 0.66399 0.0
C404 C 0.34156 0.05697 0.71126 0.0
C405 C 0.33051 1.03682 0.72474 0.0
C406 C 0.31953 1.02165 0.69099 0.0
C407 C 0.31855 1.02772 0.64418 0.0
C408 C 0.32924 0.04778 0.63103 0.0
C409 C 0.34154 0.11694 0.52585 0.0
C410 C 0.29307 0.07149 0.56004 0.0
C411 C 0.28892 0.13371 0.57637 0.0
C412 C 0.28989 0.15344 0.5638 0.0
C413 C 0.29371 0.16107 0.51696 0.0
C414 C 0.29184 0.17782 0.50387 0.0
C415 C 0.28593 0.18776 0.53686 0.0
C416 C 0.28225 0.18017 0.58387 0.0
C417 C 0.28414 0.1634 0.59695 0.0
C418 C 0.29416 0.08509 0.66833 0.0
C419 C 0.34957 0.14537 0.64357 0.0
O420 O 0.34589 0.09473 0.67422 0.0
O421 O 0.35233 0.08751 0.60477 0.0
O422 O 0.33632 0.12311 0.563 0.0
O423 O 0.34098 0.10048 0.53773 0.0
O424 O 0.30645 0.07208 0.59044 0.0
O425 O 0.29356 0.0885 0.54947 0.0
O426 O 0.29496 0.12516 0.54539 0.0
O427 O 0.29262 0.13047 0.61995 0.0
O428 O 0.31167 0.09953 0.65888 0.0
O429 O 0.28292 0.08811 0.63919 0.0
O430 O 0.3314 0.14176 0.63239 0.0
O431 O 0.3542 0.13109 0.63728 0.0
H432 H 0.35002 0.0682 0.73792 0.0
H433 H 0.33103 1.03327 0.76158 0.0
H434 H 0.31051 1.01708 0.61624 0.0
H435 H 0.32813 0.05161 0.59452 0.0
H436 H 0.29768 0.15376 0.48975 0.0
H437 H 0.2945 0.18256 0.46709 0.0
H438 H 0.27788 0.18718 0.61095 0.0
H439 H 0.28063 0.15792 0.63315 0.0
Tb440 Tb 0.99232 0.25477 0.61935 0.0
Tb441 Tb 0.97584 0.21056 0.60539 0.0
C442 C 1.00816 0.28847 0.65898 0.0
C443 C 1.02928 0.3028 0.66878 0.0
C444 C 1.04398 0.29849 0.65357 0.0
C445 C 0.06408 0.3132 0.65384 0.0
C446 C 0.06976 0.33282 0.66744 0.0
C447 C 0.05521 0.33667 0.68702 0.0
C448 C 1.03504 0.3217 0.68767 0.0
C449 C 0.97384 0.24394 0.53497 0.0
C450 C 1.01951 0.23978 0.56729 0.0
C451 C 0.95762 0.17381 0.57938 0.0
C452 C 0.93861 0.15414 0.56823 0.0
C453 C 0.93195 0.14794 0.5212 0.0
C454 C 0.9162 0.12822 0.51101 0.0
C455 C 0.90671 0.11374 0.54734 0.0
C456 C 0.91313 0.12018 0.59437 0.0
C457 C 0.92866 0.13985 0.60453 0.0
C458 C 1.00434 0.22541 0.67959 0.0
C459 C 0.94645 0.22365 0.65276 0.0
O460 O 1.00047 0.27156 0.68246 0.0
O461 O 1.00363 0.28568 0.61378 0.0
O462 O 0.96846 0.23299 0.57336 0.0
O463 O 0.9901 0.26053 0.54493 0.0
O464 O 1.01915 0.25397 0.59348 0.0
O465 O 1.00274 0.22245 0.56008 0.0
O466 O 0.96538 0.18894 0.5493 0.0
O467 O 0.96082 0.18002 0.62352 0.0
O468 O 0.99726 0.23349 0.65246 0.0
O469 O 0.99363 0.20695 0.66566 0.0
O470 O 0.94908 0.20879 0.63832 0.0
O471 O 0.96146 0.24261 0.64963 0.0
H472 H 1.03986 0.28421 0.63807 0.0
H473 H 0.07492 0.30973 0.63886 0.0
H474 H 0.05904 0.3517 0.69738 0.0
H475 H 1.02389 0.32532 0.69955 0.0
H476 H 0.93933 0.15815 0.49192 0.0
H477 H 0.91201 0.1241 0.47426 0.0
H478 H 0.90625 0.1099 0.62378 0.0
H479 H 0.93333 0.14362 0.64117 0.0
Tb480 Tb 0.97174 0.54502 0.43424 0.0
Tb481 Tb 1.0 0.58548 0.44993 0.0
C482 C 0.95263 0.50773 0.41146 0.0
C483 C 0.95335 0.48869 0.40057 0.0
C484 C 0.94343 0.47163 0.43022 0.0
C485 C 0.94168 0.45296 0.41781 0.0
C486 C 0.94975 0.4504 0.37499 0.0
C487 C 0.95981 0.46759 0.34555 0.0
C488 C 0.9615 0.48622 0.35792 0.0
C489 C 0.95985 0.56249 0.50411 0.0
C490 C 1.01243 0.55344 0.48241 0.0
C491 C 1.02092 0.61943 0.48651 0.0
C492 C 1.01552 0.63492 0.49317 0.0
C493 C 0.99526 0.62961 0.49614 0.0
C494 C 0.98974 0.64423 0.49218 0.0
C495 C 1.00448 0.66431 0.48631 0.0
C496 C 1.02477 0.66973 0.48653 0.0
C497 C 1.03024 0.65507 0.489 0.0
C498 C 1.00695 0.57567 0.36339 0.0
C499 C 0.96036 0.57581 0.39534 0.0
O500 O 0.96019 0.52261 0.38096 0.0
O501 O 0.95516 0.5144 0.45516 0.0
O502 O 0.97703 0.56448 0.49609 0.0
O503 O 0.94832 0.54899 0.47359 0.0
O504 O 0.99364 0.54015 0.47282 0.0
O505 O 1.01895 0.57273 0.47412 0.0
O506 O 1.01066 0.60313 0.51139 0.0
O507 O 1.02253 0.61553 0.44224 0.0
O508 O 1.00179 0.56459 0.40115 0.0
O509 O 1.00529 0.59113 0.37374 0.0
O510 O 0.97396 0.58818 0.42606 0.0
O511 O 0.95984 0.55878 0.38512 0.0
H512 H 0.93658 0.47259 0.46294 0.0
H513 H 0.93399 0.44051 0.44216 0.0
H514 H 0.96603 0.46663 0.31185 0.0
H515 H 0.96888 0.49863 0.33329 0.0
H516 H 0.98363 0.61405 0.49828 0.0
H517 H 0.97404 0.63977 0.49076 0.0
H518 H 1.03632 0.68517 0.48083 0.0
H519 H 1.04587 0.65937 0.48586 0.0
Tb520 Tb 0.5465 0.44703 0.43694 0.0
Tb521 Tb 0.50569 0.43415 0.44928 0.0
C522 C 0.58394 0.4652 0.41688 0.0
C523 C 0.60299 0.48468 0.40431 0.0
C524 C 0.6051 0.49521 0.36162 0.0
C525 C 0.6237 0.51188 0.34793 0.0
C526 C 0.64119 0.5188 0.37603 0.0
C527 C 0.63898 0.50825 0.41887 0.0
C528 C 0.62035 0.49161 0.43261 0.0
C529 C 0.52876 0.41871 0.50914 0.0
C530 C 0.53626 0.47833 0.48558 0.0
C531 C 0.46963 0.42055 0.46787 0.0
C532 C 0.45344 0.40617 0.43705 0.0
C533 C 0.43949 0.41093 0.41874 0.0
C534 C 0.42753 0.40025 0.3802 0.0
C535 C 0.42957 0.38483 0.35875 0.0
C536 C 0.44299 0.3796 0.37849 0.0
C537 C 0.45462 0.39002 0.4175 0.0
C538 C 0.51667 0.45047 0.36181 0.0
C539 C 0.51646 0.40344 0.40097 0.0
O540 O 0.56949 0.45681 0.38545 0.0
O541 O 0.57678 0.46234 0.46023 0.0
O542 O 0.52634 0.43354 0.49891 0.0
O543 O 0.54281 0.42076 0.4805 0.0
O544 O 0.55032 0.47531 0.46733 0.0
O545 O 0.51748 0.46333 0.48613 0.0
O546 O 0.4804 0.41398 0.48854 0.0
O547 O 0.48072 0.43811 0.44849 0.0
O548 O 0.52693 0.45652 0.40045 0.0
O549 O 0.50177 0.43295 0.3718 0.0
O550 O 0.50362 0.40569 0.42759 0.0
O551 O 0.53408 0.41954 0.39173 0.0
H552 H 0.59241 0.49033 0.33805 0.0
H553 H 0.62438 0.51904 0.31431 0.0
H554 H 0.65168 0.51287 0.44222 0.0
H555 H 0.61963 0.48384 0.46531 0.0
H556 H 0.43847 0.42346 0.43288 0.0
H557 H 0.41678 0.4042 0.36705 0.0
H558 H 0.44493 0.36782 0.36316 0.0
H559 H 0.46521 0.38596 0.43086 0.0
Tb560 Tb 0.64283 0.11716 0.43064 0.0
Tb561 Tb 0.65675 0.08806 0.45095 0.0
C562 C 0.62525 0.13586 0.40116 0.0
C563 C 0.60597 0.13626 0.39178 0.0
C564 C 0.59601 0.13138 0.34738 0.0
C565 C 0.57985 0.13486 0.33804 0.0
C566 C 0.57333 0.14378 0.37233 0.0
C567 C 0.58304 0.14814 0.4169 0.0
C568 C 0.59888 0.14448 0.42635 0.0
C569 C 0.67045 0.13062 0.50661 0.0
C570 C 0.61146 0.07537 0.48013 0.0
C571 C 0.6692 0.07 0.50109 0.0
C572 C 0.6882 0.07775 0.52685 0.0
C573 C 0.68821 0.07536 0.5763 0.0
C574 C 0.70618 0.08158 0.60047 0.0
C575 C 0.72433 0.08983 0.57528 0.0
C576 C 0.72431 0.09413 0.52654 0.0
C577 C 0.70647 0.0882 0.50268 0.0
C578 C 0.63938 0.07973 0.36501 0.0
C579 C 0.68735 0.12983 0.40122 0.0
O580 O 0.63179 0.12688 0.37252 0.0
O581 O 0.62968 0.13464 0.44549 0.0
O582 O 0.66259 0.11491 0.48134 0.0
O583 O 0.661 0.13923 0.48956 0.0
O584 O 0.61531 0.0934 0.46602 0.0
O585 O 0.6255 0.07028 0.47672 0.0
O586 O 0.65736 0.07617 0.5174 0.0
O587 O 0.67016 0.07031 0.45446 0.0
O588 O 0.63417 0.08649 0.40149 0.0
O589 O 0.65499 0.07867 0.37787 0.0
O590 O 0.68495 0.11477 0.42896 0.0
O591 O 0.67155 0.13171 0.38983 0.0
H592 H 0.60104 0.12538 0.31929 0.0
H593 H 0.57303 0.13134 0.30314 0.0
H594 H 0.57857 0.15477 0.44476 0.0
H595 H 0.60609 0.14881 0.46076 0.0
H596 H 0.67428 0.06797 0.59592 0.0
H597 H 0.70565 0.07837 0.63805 0.0
H598 H 0.73784 0.10048 0.50547 0.0
H599 H 0.70701 0.09105 0.46483 0.0
Tb600 Tb 0.89531 0.6231 0.77108 0.0
Tb601 Tb 0.93872 0.65169 0.75739 0.0
C602 C 0.85889 0.60495 0.79949 0.0
C603 C 0.84017 0.60575 0.8132 0.0
C604 C 0.83604 0.60841 0.86065 0.0
C605 C 0.81741 0.60647 0.87387 0.0
C606 C 0.80188 0.60155 0.8404 0.0
C607 C 0.80612 0.59897 0.79289 0.0
C608 C 0.82476 0.601 0.77968 0.0
C609 C 0.9099 0.6102 0.69508 0.0
C610 C 0.9076 0.66562 0.72313 0.0
C611 C 0.97193 0.67101 0.71727 0.0
C612 C 0.98429 0.66337 0.69736 0.0
C613 C 0.98253 0.64567 0.7154 0.0
C614 C 0.9934 0.63753 0.69597 0.0
C615 C 1.0072 0.64744 0.65906 0.0
C616 C 1.00828 0.66502 0.63989 0.0
C617 C 0.99679 0.67273 0.65862 0.0
C618 C 0.92748 0.65835 0.84266 0.0
C619 C 0.92547 0.60851 0.80252 0.0
O620 O 0.87438 0.61169 0.82827 0.0
O621 O 0.86455 0.60797 0.75491 0.0
O622 O 0.9182 0.62542 0.72223 0.0
O623 O 0.89155 0.60211 0.71001 0.0
O624 O 0.89293 0.64773 0.73642 0.0
O625 O 0.92654 0.67018 0.72819 0.0
O626 O 0.95495 0.66489 0.69517 0.0
O627 O 0.9698 0.66959 0.76356 0.0
O628 O 0.91683 0.65303 0.804 0.0
O629 O 0.94414 0.65898 0.83236 0.0
O630 O 0.93887 0.62404 0.77724 0.0
O631 O 0.90773 0.6068 0.81178 0.0
H632 H 0.84707 0.61156 0.88806 0.0
H633 H 0.81505 0.60831 0.911 0.0
H634 H 0.795 0.59541 0.76547 0.0
H635 H 0.82693 0.59837 0.74292 0.0
H636 H 0.97283 0.63816 0.74505 0.0
H637 H 0.99117 0.62372 0.71132 0.0
H638 H 1.01867 0.67372 0.61211 0.0
H639 H 0.99808 0.68629 0.64366 0.0
Tb640 Tb 0.46717 0.29144 0.76977 0.0
Tb641 Tb 0.44247 0.30779 0.75375 0.0
C642 C 0.48468 0.27149 0.78997 0.0
C643 C 0.48558 0.25243 0.79928 0.0
C644 C 0.48063 0.2424 0.84366 0.0
C645 C 0.48468 0.22667 0.85371 0.0
C646 C 0.49423 0.22055 0.82017 0.0
C647 C 0.49868 0.23032 0.7755 0.0
C648 C 0.49446 0.24582 0.76537 0.0
C649 C 0.48171 0.32117 0.69992 0.0
C650 C 0.42511 0.26229 0.72128 0.0
C651 C 0.42623 0.32664 0.72289 0.0
C652 C 0.43401 0.348 0.73258 0.0
C653 C 0.43155 0.36032 0.70003 0.0
C654 C 0.44042 0.38091 0.70876 0.0
C655 C 0.45249 0.38961 0.74942 0.0
C656 C 0.45596 0.37721 0.77981 0.0
C657 C 0.44625 0.35665 0.77245 0.0
C658 C 0.43534 0.29268 0.8421 0.0
C659 C 0.48325 0.33468 0.80821 0.0
O660 O 0.47757 0.2787 0.82181 0.0
O661 O 0.48174 0.27582 0.74678 0.0
O662 O 0.4638 0.30709 0.7073 0.0
O663 O 0.49207 0.31719 0.72964 0.0
O664 O 0.4425 0.26476 0.73556 0.0
O665 O 0.42161 0.27746 0.72474 0.0
O666 O 0.43819 0.32312 0.69735 0.0
O667 O 0.41946 0.31474 0.7597 0.0
O668 O 0.43825 0.28452 0.80507 0.0
O669 O 0.43961 0.31056 0.82972 0.0
O670 O 0.47031 0.3347 0.77757 0.0
O671 O 0.48208 0.31734 0.81847 0.0
H672 H 0.47414 0.2471 0.87133 0.0
H673 H 0.48105 0.21985 0.88864 0.0
H674 H 0.50572 0.22615 0.74807 0.0
H675 H 0.49886 0.25316 0.73107 0.0
H676 H 0.42251 0.35399 0.66847 0.0
H677 H 0.43699 0.38972 0.68466 0.0
H678 H 0.46552 0.38318 0.81068 0.0
H679 H 0.44827 0.34751 0.79846 0.0
Tb680 Tb 0.79878 0.19582 0.76295 0.0
Tb681 Tb 0.78312 0.1543 0.75347 0.0
C682 C 0.81869 0.23345 0.78107 0.0
C683 C 0.8386 0.25192 0.7936 0.0
C684 C 0.8477 0.25435 0.83852 0.0
C685 C 0.86468 0.27271 0.85209 0.0
C686 C 0.87332 0.28964 0.82157 0.0
C687 C 0.86429 0.28705 0.77637 0.0
C688 C 0.84734 0.26865 0.7628 0.0
C689 C 0.76977 0.17843 0.69199 0.0
C690 C 0.82827 0.18243 0.71783 0.0
C691 C 0.76399 0.11787 0.73393 0.0
C692 C 0.74396 0.10463 0.7536 0.0
C693 C 0.72983 0.08793 0.72842 0.0
C694 C 0.71012 0.0769 0.74485 0.0
C695 C 0.7042 0.08267 0.78658 0.0
C696 C 0.71836 0.09979 0.81093 0.0
C697 C 0.73804 0.11039 0.79509 0.0
C698 C 0.8011 0.16588 0.83948 0.0
C699 C 0.75582 0.16876 0.80342 0.0
O700 O 0.80956 0.21934 0.81306 0.0
O701 O 0.8156 0.2259 0.73809 0.0
O702 O 0.78404 0.17529 0.70262 0.0
O703 O 0.77258 0.19292 0.72014 0.0
O704 O 0.82585 0.19741 0.73222 0.0
O705 O 0.81293 0.16369 0.72065 0.0
O706 O 0.76482 0.13161 0.70545 0.0
O707 O 0.77859 0.12533 0.7647 0.0
O708 O 0.80696 0.17527 0.79964 0.0
O709 O 0.78288 0.15201 0.83124 0.0
O710 O 0.75603 0.15526 0.7751 0.0
O711 O 0.77302 0.18532 0.81206 0.0
H712 H 0.84141 0.24216 0.86397 0.0
H713 H 0.87062 0.27374 0.88747 0.0
H714 H 0.8703 0.29928 0.7511 0.0
H715 H 0.84073 0.2677 0.72825 0.0
H716 H 0.73412 0.0834 0.69647 0.0
H717 H 0.69978 0.06343 0.72587 0.0
H718 H 0.71437 0.10468 0.8431 0.0
H719 H 0.7486 0.12317 0.81549 0.0
Tb720 Tb 0.44233 0.1569 0.23839 0.0
Tb721 Tb 0.47132 0.19562 0.26842 0.0
C722 C 0.42721 0.12387 0.19598 0.0
C723 C 0.43597 0.11208 0.17834 0.0
C724 C 0.42355 0.09307 0.15942 0.0
C725 C 0.43106 0.08024 0.15113 0.0
C726 C 0.45099 0.08615 0.16297 0.0
C727 C 0.46393 0.10599 0.17699 0.0
C728 C 0.45644 0.11892 0.18432 0.0
C729 C 0.42793 0.16518 0.31689 0.0
C730 C 0.48136 0.16318 0.29879 0.0
C731 C 0.49128 0.23257 0.29441 0.0
C732 C 0.49237 0.25275 0.30213 0.0
C733 C 0.48639 0.25781 0.34503 0.0
C734 C 0.4903 0.27763 0.35405 0.0
C735 C 0.50069 0.29341 0.32097 0.0
C736 C 0.50624 0.28813 0.27776 0.0
C737 C 0.50222 0.26838 0.26866 0.0
C738 C 0.48321 0.18107 0.19278 0.0
C739 C 0.43119 0.18991 0.21754 0.0
O740 O 0.43325 0.14095 0.1744 0.0
O741 O 0.42702 0.12552 0.24225 0.0
O742 O 0.44655 0.17043 0.30943 0.0
O743 O 0.41793 0.15547 0.27974 0.0
O744 O 0.46598 0.15179 0.27047 0.0
O745 O 0.48516 0.18149 0.30933 0.0
O746 O 0.48125 0.21751 0.32359 0.0
O747 O 0.49043 0.22617 0.251 0.0
O748 O 0.46641 0.18014 0.19998 0.0
O749 O 0.49436 0.19191 0.22758 0.0
O750 O 0.44723 0.20114 0.24359 0.0
O751 O 0.42686 0.17154 0.2063 0.0
H752 H 0.40776 0.08763 0.15437 0.0
H753 H 0.42065 0.06495 0.14072 0.0
H754 H 0.47928 0.11087 0.18656 0.0
H755 H 0.46636 0.13373 0.19789 0.0
H756 H 0.47913 0.24655 0.3724 0.0
H757 H 0.48579 0.28072 0.38796 0.0
H758 H 0.51393 0.29937 0.25059 0.0
H759 H 0.50743 0.26549 0.23549 0.0
Tb760 Tb 0.93625 0.30757 0.25026 0.0
Tb761 Tb 0.89567 0.2929 0.26935 0.0
C762 C 0.97189 0.32845 0.22196 0.0
C763 C 0.98566 0.34989 0.21383 0.0
C764 C 0.98082 0.36416 0.22964 0.0
C765 C 0.99518 0.38444 0.23024 0.0
C766 C 1.01483 0.3907 0.21599 0.0
C767 C 1.0191 0.37661 0.19539 0.0
C768 C 1.00458 0.35629 0.19446 0.0
C769 C 0.9262 0.28195 0.32411 0.0
C770 C 0.92292 0.33541 0.30947 0.0
C771 C 0.85803 0.27333 0.28846 0.0
C772 C 0.8381 0.2542 0.29743 0.0
C773 C 0.83273 0.24461 0.3423 0.0
C774 C 0.81296 0.22883 0.352 0.0
C775 C 0.79756 0.22217 0.31753 0.0
C776 C 0.80316 0.23152 0.27241 0.0
C777 C 0.82288 0.24711 0.26267 0.0
C778 C 0.91106 0.32182 0.19776 0.0
C779 C 0.90729 0.26306 0.21816 0.0
O780 O 0.95654 0.3198 0.19344 0.0
O781 O 0.96683 0.32328 0.26625 0.0
O782 O 0.91982 0.29449 0.31683 0.0
O783 O 0.93753 0.28372 0.28858 0.0
O784 O 0.93664 0.33441 0.28294 0.0
O785 O 0.90539 0.31902 0.31528 0.0
O786 O 0.87222 0.28038 0.32053 0.0
O787 O 0.86554 0.27766 0.24554 0.0
O788 O 0.91401 0.30713 0.20495 0.0
O789 O 0.89731 0.31882 0.22841 0.0
O790 O 0.89416 0.26486 0.2446 0.0
O791 O 0.92492 0.27922 0.21008 0.0
H792 H 0.96629 0.35958 0.244 0.0
H793 H 0.99144 0.39496 0.24604 0.0
H794 H 1.03418 0.3809 0.18454 0.0
H795 H 1.00856 0.34549 0.18175 0.0
H796 H 0.84368 0.2497 0.37062 0.0
H797 H 0.80958 0.22239 0.38733 0.0
H798 H 0.79218 0.22692 0.24426 0.0
H799 H 0.82604 0.25411 0.22793 0.0
Tb800 Tb 0.78215 0.65002 0.25875 0.0
Tb801 Tb 0.79934 0.62249 0.2659 0.0
C802 C 0.76532 0.66865 0.22903 0.0
C803 C 0.74391 0.66147 0.22211 0.0
C804 C 0.73737 0.67441 0.20611 0.0
C805 C 0.7169 0.66797 0.20538 0.0
C806 C 0.70279 0.64854 0.22112 0.0
C807 C 0.70939 0.63528 0.23388 0.0
C808 C 0.72971 0.64185 0.23532 0.0
C809 C 0.80198 0.65634 0.34091 0.0
C810 C 0.75556 0.60655 0.30574 0.0
C811 C 0.81862 0.60492 0.29018 0.0
C812 C 0.83821 0.60604 0.30418 0.0
C813 C 0.84574 0.61037 0.35103 0.0
C814 C 0.86253 0.60875 0.36491 0.0
C815 C 0.87249 0.60254 0.33275 0.0
C816 C 0.86497 0.59835 0.2858 0.0
C817 C 0.84824 0.60004 0.27191 0.0
C818 C 0.77036 0.61047 0.19306 0.0
C819 C 0.82778 0.66594 0.22081 0.0
O820 O 0.77311 0.66088 0.20086 0.0
O821 O 0.77059 0.6689 0.27329 0.0
O822 O 0.80678 0.65192 0.30036 0.0
O823 O 0.78453 0.6546 0.33518 0.0
O824 O 0.75566 0.62136 0.2813 0.0
O825 O 0.77249 0.60621 0.31153 0.0
O826 O 0.80922 0.61039 0.32031 0.0
O827 O 0.81622 0.60895 0.24614 0.0
O828 O 0.77845 0.62529 0.22105 0.0
O829 O 0.7801 0.60145 0.20552 0.0
O830 O 0.82543 0.64824 0.23268 0.0
O831 O 0.81275 0.6697 0.22709 0.0
H832 H 0.74807 0.68974 0.19665 0.0
H833 H 0.7123 0.67871 0.19626 0.0
H834 H 0.69892 0.62029 0.24632 0.0
H835 H 0.73425 0.63173 0.24875 0.0
H836 H 0.83837 0.61458 0.37752 0.0
H837 H 0.86733 0.61187 0.40159 0.0
H838 H 0.87204 0.59375 0.25937 0.0
H839 H 0.84284 0.59617 0.23576 0.0
Tb840 Tb 0.50548 0.08804 0.95068 0.0
Tb841 Tb 0.5476 0.11913 0.93254 0.0
C842 C 0.47319 0.06622 0.99314 0.0
C843 C 0.45878 0.0715 1.0118 0.0
C844 C 0.43852 0.05702 1.015 0.0
C845 C 0.42435 0.06291 0.02246 0.0
C846 C 0.43031 0.08338 0.02527 0.0
C847 C 0.45069 0.0977 0.02546 0.0
C848 C 0.46483 0.09174 0.01916 0.0
C849 C 0.51631 0.08185 0.86474 0.0
C850 C 0.51421 0.12946 0.90263 0.0
C851 C 0.58348 0.13865 0.90075 0.0
C852 C 0.60258 0.13837 0.8884 0.0
C853 C 0.60563 0.13197 0.84379 0.0
C854 C 0.62433 0.13392 0.83128 0.0
C855 C 0.64098 0.14257 0.86254 0.0
C856 C 0.63786 0.14895 0.90716 0.0
C857 C 0.61915 0.14691 0.91972 0.0
C858 C 0.53245 0.13155 1.00764 0.0
C859 C 0.54039 0.07878 0.98268 0.0
O860 O 0.49062 0.0748 1.01437 0.0
O861 O 0.47485 0.06722 0.94679 0.0
O862 O 0.52747 0.08815 0.90256 0.0
O863 O 0.4997 0.08124 0.87557 0.0
O864 O 0.50197 0.11385 0.92965 0.0
O865 O 0.53238 0.13255 0.89198 0.0
O866 O 0.56754 0.12979 0.87337 0.0
O867 O 0.57847 0.13721 0.94563 0.0
O868 O 0.52472 0.11568 0.98267 0.0
O869 O 0.55059 0.14081 0.99111 0.0
O870 O 0.55327 0.09756 0.97107 0.0
O871 O 0.52088 0.07166 0.97652 0.0
H872 H 0.4336 0.04134 1.00902 0.0
H873 H 0.40864 0.05162 0.02128 0.0
H874 H 0.45552 0.1135 0.02662 0.0
H875 H 0.48043 0.10297 1.01624 0.0
H876 H 0.59363 0.12574 0.81797 0.0
H877 H 0.6258 0.12903 0.79623 0.0
H878 H 0.64988 0.15549 0.93286 0.0
H879 H 0.61778 0.15243 0.95408 0.0
Tb880 Tb 0.99942 0.43447 0.95196 0.0
Tb881 Tb 0.97128 0.44593 0.9298 0.0
C882 C 1.01449 0.41442 0.9833 0.0
C883 C 1.00534 0.3929 0.99302 0.0
C884 C 0.98451 0.38033 0.98978 0.0
C885 C 0.97621 0.35962 0.98564 0.0
C886 C 0.98867 0.35129 0.98568 0.0
C887 C 1.00923 0.36371 0.99498 0.0
C888 C 1.01754 0.38443 0.99816 0.0
C889 C 1.01386 0.45907 0.87652 0.0
C890 C 0.9596 0.40466 0.88961 0.0
C891 C 0.95132 0.46353 0.90978 0.0
C892 C 0.95013 0.48252 0.90204 0.0
C893 C 0.95573 0.49338 0.85879 0.0
C894 C 0.95162 0.50912 0.8497 0.0
C895 C 0.94141 0.51451 0.8831 0.0
C896 C 0.93624 0.50388 0.92667 0.0
C897 C 0.94047 0.4883 0.93583 0.0
C898 C 0.95954 0.41789 1.00304 0.0
C899 C 1.01189 0.47868 0.98 0.0
O900 O 1.00869 0.42424 1.01046 0.0
O901 O 1.01475 0.41897 0.93845 0.0
O902 O 0.99514 0.44584 0.88397 0.0
O903 O 1.02384 0.45855 0.91281 0.0
O904 O 0.97421 0.40658 0.91826 0.0
O905 O 0.95738 0.42032 0.88253 0.0
O906 O 0.95983 0.45777 0.8782 0.0
O907 O 0.95387 0.45866 0.95268 0.0
O908 O 0.97652 0.43352 0.99542 0.0
O909 O 0.9482 0.4186 0.97 0.0
O910 O 0.99613 0.47488 0.95416 0.0
O911 O 1.01561 0.46395 0.98873 0.0
H912 H 0.97478 0.38656 0.98684 0.0
H913 H 0.96036 0.35034 0.97856 0.0
H914 H 1.01923 0.35767 0.99459 0.0
H915 H 1.03362 0.39388 1.00089 0.0
H916 H 0.96284 0.48935 0.8312 0.0
H917 H 0.95582 0.51656 0.81551 0.0
H918 H 0.9287 0.50746 0.95405 0.0
H919 H 0.93555 0.4803 0.96926 0.0
Tb920 Tb 0.65648 0.58282 0.95582 0.0
Tb921 Tb 0.64413 0.54323 0.93187 0.0
C922 C 0.66874 0.61406 1.00502 0.0
C923 C 0.68841 0.6266 0.02673 0.0
C924 C 0.70368 0.62217 1.01847 0.0
C925 C 0.72326 0.63553 0.03208 0.0
C926 C 0.72808 0.6541 0.05192 0.0
C927 C 0.71239 0.65755 0.06473 0.0
C928 C 0.69264 0.64384 0.05213 0.0
C929 C 0.64074 0.57673 0.86781 0.0
C930 C 0.68658 0.57478 0.89619 0.0
C931 C 0.62594 0.50653 0.90489 0.0
C932 C 0.60623 0.48759 0.89407 0.0
C933 C 0.59676 0.48444 0.84949 0.0
C934 C 0.57991 0.46578 0.8374 0.0
C935 C 0.57177 0.44927 0.86917 0.0
C936 C 0.58125 0.45249 0.9139 0.0
C937 C 0.5981 0.4712 0.926 0.0
C938 C 0.67408 0.55775 1.00009 0.0
C939 C 0.61155 0.55041 0.98286 0.0
O940 O 0.65842 0.59601 0.02236 0.0
O941 O 0.66872 0.61398 0.95865 0.0
O942 O 0.63441 0.56389 0.90238 0.0
O943 O 0.65645 0.59264 0.88325 0.0
O944 O 0.68521 0.58614 0.92962 0.0
O945 O 0.67005 0.55819 0.88352 0.0
O946 O 0.63278 0.52194 0.87596 0.0
O947 O 0.63043 0.51238 0.94905 0.0
O948 O 0.65921 0.56068 0.99645 0.0
O949 O 0.67106 0.54503 0.96656 0.0
O950 O 0.61734 0.53742 0.97232 0.0
O951 O 0.62432 0.56979 0.97613 0.0
H952 H 0.70066 0.60884 0.99928 0.0
H953 H 0.73488 0.6322 0.02268 0.0
H954 H 0.71547 0.6717 0.07997 0.0
H955 H 0.68098 0.64739 0.05921 0.0
H956 H 0.60265 0.4963 0.82319 0.0
H957 H 0.57362 0.46421 0.80223 0.0
H958 H 0.57564 0.44054 0.93993 0.0
H959 H 0.60506 0.47269 0.96033 0.0
Tb960 Tb 0.64119 0.87939 0.76786 0.0
Tb961 Tb 0.66741 0.92051 0.78491 0.0
C962 C 0.62301 0.84202 0.74577 0.0
C963 C 0.62344 0.82294 0.73353 0.0
C964 C 0.63079 0.82039 0.68971 0.0
C965 C 0.6287 0.80168 0.67634 0.0
C966 C 0.619 0.78447 0.7059 0.0
C967 C 0.61173 0.78711 0.74987 0.0
C968 C 0.61389 0.80586 0.76328 0.0
C969 C 0.62788 0.89516 0.83906 0.0
C970 C 0.68378 0.89141 0.81363 0.0
C971 C 0.6851 0.9536 0.82631 0.0
C972 C 0.6763 0.96572 0.84224 0.0
C973 C 0.67339 0.96757 0.89085 0.0
C974 C 0.66402 0.97815 0.90575 0.0
C975 C 0.65788 0.98761 0.8723 0.0
C976 C 0.66003 0.98477 0.82353 0.0
C977 C 0.66901 0.97397 0.80883 0.0
C978 C 0.67573 0.91226 0.69781 0.0
C979 C 0.62734 0.90872 0.73083 0.0
O980 O 0.62956 0.85678 0.71498 0.0
O981 O 0.62641 0.84882 0.78945 0.0
O982 O 0.64536 0.8982 0.83018 0.0
O983 O 0.61682 0.88152 0.80839 0.0
O984 O 0.66575 0.87671 0.80165 0.0
O985 O 0.68815 0.91027 0.80833 0.0
O986 O 0.67856 0.93659 0.84839 0.0
O987 O 0.68614 0.95168 0.78044 0.0
O988 O 0.67072 0.9007 0.73468 0.0
O989 O 0.67388 0.92748 0.70962 0.0
O990 O 0.64028 0.9212 0.76239 0.0
O991 O 0.62806 0.89238 0.7195 0.0
H992 H 0.63784 0.8328 0.66498 0.0
H993 H 0.63431 0.80067 0.64183 0.0
H994 H 0.60435 0.77466 0.77435 0.0
H995 H 0.60763 0.80687 0.79689 0.0
H996 H 0.67839 0.96084 0.91736 0.0
H997 H 0.66232 0.97955 0.94351 0.0
H998 H 0.656 0.99191 0.79599 0.0
H999 H 0.67054 0.97247 0.77101 0.0
Tb1000 Tb 0.21275 0.78221 0.77123 0.0
Tb1001 Tb 0.17199 0.76757 0.77887 0.0
C1002 C 0.25042 0.80098 0.75374 0.0
C1003 C 0.26955 0.82023 0.74084 0.0
C1004 C 0.27183 0.8305 0.69766 0.0
C1005 C 0.29055 0.8469 0.68372 0.0
C1006 C 0.30797 0.85376 0.71207 0.0
C1007 C 0.30558 0.84347 0.75539 0.0
C1008 C 0.28682 0.82711 0.76939 0.0
C1009 C 0.19534 0.75272 0.84169 0.0
C1010 C 0.20052 0.81244 0.81559 0.0
C1011 C 0.13534 0.75197 0.79084 0.0
C1012 C 0.12172 0.73368 0.76431 0.0
C1013 C 0.12417 0.71677 0.767 0.0
C1014 C 0.11599 0.70186 0.73248 0.0
C1015 C 0.10493 0.70333 0.6948 0.0
C1016 C 0.10175 0.71979 0.69324 0.0
C1017 C 0.11007 0.73481 0.72758 0.0
C1018 C 0.18327 0.78262 0.69141 0.0
C1019 C 0.1853 0.73895 0.73179 0.0
O1020 O 0.23639 0.79203 0.72161 0.0
O1021 O 0.24274 0.79867 0.7964 0.0
O1022 O 0.19172 0.76681 0.83123 0.0
O1023 O 0.21036 0.75637 0.81463 0.0
O1024 O 0.21531 0.80983 0.80118 0.0
O1025 O 0.18188 0.79721 0.81277 0.0
O1026 O 0.14689 0.75025 0.82189 0.0
O1027 O 0.14537 0.76779 0.76428 0.0
O1028 O 0.19296 0.79051 0.73018 0.0
O1029 O 0.16978 0.76451 0.70196 0.0
O1030 O 0.17156 0.7395 0.75876 0.0
O1031 O 0.20208 0.75601 0.72353 0.0
H1032 H 0.25919 0.82562 0.67394 0.0
H1033 H 0.2914 0.85389 0.64975 0.0
H1034 H 0.31823 0.84808 0.77891 0.0
H1035 H 0.28594 0.81951 0.80248 0.0
H1036 H 0.13319 0.7154 0.79446 0.0
H1037 H 0.11838 0.6892 0.73518 0.0
H1038 H 0.09257 0.721 0.66578 0.0
H1039 H 0.10817 0.74776 0.72421 0.0
Tb1040 Tb 0.30932 0.45404 0.76718 0.0
Tb1041 Tb 0.32281 0.42464 0.78456 0.0
C1042 C 0.29144 0.47212 0.73575 0.0
C1043 C 0.27161 0.4706 0.7221 0.0
C1044 C 0.26516 0.46826 0.6744 0.0
C1045 C 0.24811 0.46952 0.66101 0.0
C1046 C 0.23678 0.47337 0.69461 0.0
C1047 C 0.24321 0.47557 0.74242 0.0
C1048 C 0.26022 0.47424 0.75579 0.0
C1049 C 0.33741 0.46731 0.84174 0.0
C1050 C 0.27816 0.41331 0.81866 0.0
C1051 C 0.33745 0.40607 0.82408 0.0
C1052 C 0.35898 0.41351 0.83085 0.0
C1053 C 0.36862 0.4228 0.87359 0.0
C1054 C 0.38947 0.43233 0.87715 0.0
C1055 C 0.40103 0.43293 0.83798 0.0
C1056 C 0.39122 0.42338 0.79561 0.0
C1057 C 0.37055 0.41375 0.79218 0.0
C1058 C 0.30472 0.41744 0.69976 0.0
C1059 C 0.35287 0.46612 0.73281 0.0
O1060 O 0.2997 0.46446 0.70826 0.0
O1061 O 0.29472 0.47041 0.78073 0.0
O1062 O 0.3296 0.45168 0.81617 0.0
O1063 O 0.32788 0.47603 0.82577 0.0
O1064 O 0.28278 0.4315 0.80483 0.0
O1065 O 0.29152 0.40723 0.81412 0.0
O1066 O 0.33018 0.41553 0.84808 0.0
O1067 O 0.33121 0.40281 0.77993 0.0
O1068 O 0.2997 0.42322 0.73811 0.0
O1069 O 0.32146 0.41803 0.70911 0.0
O1070 O 0.35121 0.45125 0.76026 0.0
O1071 O 0.33679 0.46765 0.72355 0.0
H1072 H 0.2736 0.46594 0.64694 0.0
H1073 H 0.24421 0.46803 0.6237 0.0
H1074 H 0.23509 0.4783 0.76992 0.0
H1075 H 0.26468 0.47654 0.79279 0.0
H1076 H 0.3601 0.42297 0.90398 0.0
H1077 H 0.39655 0.43912 0.91051 0.0
H1078 H 0.3994 0.4226 0.76522 0.0
H1079 H 0.36372 0.40671 0.75872 0.0
Tb1080 Tb 0.55998 0.95234 0.1039 0.0
Tb1081 Tb 0.60052 0.97886 0.08995 0.0
C1082 C 0.52272 0.93445 0.12568 0.0
C1083 C 0.50433 0.936 0.13802 0.0
C1084 C 0.50145 0.94166 0.18375 0.0
C1085 C 0.48316 0.94042 0.19696 0.0
C1086 C 0.46675 0.93333 0.16524 0.0
C1087 C 0.46974 0.92783 0.1193 0.0
C1088 C 0.48807 0.92911 0.10609 0.0
C1089 C 0.57642 0.93962 0.03339 0.0
C1090 C 0.5705 0.99358 0.05437 0.0
C1091 C 0.63658 0.99693 0.06638 0.0
C1092 C 0.65073 0.9914 0.08674 0.0
C1093 C 0.66797 0.99472 0.06259 0.0
C1094 C 0.68008 0.98771 0.08198 0.0
C1095 C 0.67476 0.97685 0.12516 0.0
C1096 C 0.65696 0.97274 0.1475 0.0
C1097 C 0.6455 0.98037 0.12924 0.0
C1098 C 0.59064 0.98444 0.17807 0.0
C1099 C 0.58823 0.93764 0.14241 0.0
O1100 O 0.53735 0.94051 0.1565 0.0
O1101 O 0.52956 0.93785 0.08206 0.0
O1102 O 0.57952 0.95728 0.04146 0.0
O1103 O 0.56201 0.92848 0.06236 0.0
O1104 O 0.55652 0.97562 0.06825 0.0
O1105 O 0.58967 0.99864 0.05867 0.0
O1106 O 0.62263 0.98292 0.04039 0.0
O1107 O 0.62913 1.00438 0.09639 0.0
O1108 O 0.58028 0.98152 0.13998 0.0
O1109 O 0.60466 0.9808 0.1669 0.0
O1110 O 0.60109 0.95147 0.11302 0.0
O1111 O 0.57148 0.93768 0.15195 0.0
H1112 H 0.51322 0.94661 0.21007 0.0
H1113 H 0.48178 0.94452 0.23294 0.0
H1114 H 0.45789 0.9225 0.09317 0.0
H1115 H 0.48935 0.92422 0.07085 0.0
H1116 H 0.67221 1.00293 0.02947 0.0
H1117 H 0.69395 0.99148 0.06415 0.0
H1118 H 0.6522 0.96422 0.18028 0.0
H1119 H 0.63252 0.97757 0.149 0.0
Tb1120 Tb 0.13644 0.62647 0.10589 0.0
Tb1121 Tb 0.10933 0.63843 0.07961 0.0
C1122 C 0.15415 0.6078 0.13536 0.0
C1123 C 0.15286 0.58782 0.14708 0.0
C1124 C 0.14797 0.57944 0.19315 0.0
C1125 C 0.1494 0.56238 0.20579 0.0
C1126 C 0.15595 0.55287 0.17312 0.0
C1127 C 0.16072 0.56124 0.12687 0.0
C1128 C 0.15925 0.5783 0.11423 0.0
C1129 C 0.15196 0.65586 0.03571 0.0
C1130 C 0.09699 0.59343 0.05424 0.0
C1131 C 0.09018 0.65104 0.03236 0.0
C1132 C 0.09683 0.67181 1.01892 0.0
C1133 C 0.11687 0.68653 0.02628 0.0
C1134 C 0.12275 0.70675 0.02472 0.0
C1135 C 0.1085 0.71254 1.01658 0.0
C1136 C 0.08884 0.6979 1.00421 0.0
C1137 C 0.08299 0.67757 1.00563 0.0
C1138 C 0.09974 0.62343 0.1686 0.0
C1139 C 0.14765 0.66975 0.13752 0.0
O1140 O 0.14565 0.61501 0.16329 0.0
O1141 O 0.15333 0.61236 0.0909 0.0
O1142 O 0.13415 0.64096 0.03982 0.0
O1143 O 0.16167 0.65301 0.0696 0.0
O1144 O 0.11571 0.59938 0.06578 0.0
O1145 O 0.09037 0.60624 0.05922 0.0
O1146 O 0.10018 0.64338 1.01311 0.0
O1147 O 0.08789 0.64757 0.07794 0.0
O1148 O 0.10565 0.61664 0.13386 0.0
O1149 O 0.10251 0.64057 0.15373 0.0
O1150 O 0.13419 0.6673 0.10513 0.0
O1151 O 0.14882 0.65383 0.1509 0.0
H1152 H 0.14348 0.58639 0.22015 0.0
H1153 H 0.14587 0.55704 0.24204 0.0
H1154 H 0.16561 0.5546 0.10002 0.0
H1155 H 0.16358 0.58431 0.07865 0.0
H1156 H 0.12775 0.68243 0.03674 0.0
H1157 H 0.13792 0.71773 0.03464 0.0
H1158 H 0.07748 0.70201 0.9985 0.0
H1159 H 0.06744 0.66642 1.0 0.0
Tb1160 Tb 0.46408 0.52858 0.10246 0.0
Tb1161 Tb 0.45163 0.48889 0.08314 0.0
C1162 C 0.4821 0.56574 0.12611 0.0
C1163 C 0.50138 0.5856 0.13389 0.0
C1164 C 0.5131 0.58998 0.17559 0.0
C1165 C 0.52921 0.60963 0.18505 0.0
C1166 C 0.53405 0.6258 0.15364 0.0
C1167 C 0.5226 0.62118 0.11147 0.0
C1168 C 0.5067 0.60162 0.1019 0.0
C1169 C 0.43506 0.51268 0.03137 0.0
C1170 C 0.4966 0.52075 0.05395 0.0
C1171 C 0.43923 0.45623 0.04009 0.0
C1172 C 0.41932 0.4429 0.02075 0.0
C1173 C 0.40493 0.44895 0.02038 0.0
C1174 C 0.38505 0.43528 1.00942 0.0
C1175 C 0.37936 0.41538 0.99869 0.0
C1176 C 0.39416 0.40983 0.99559 0.0
C1177 C 0.41397 0.42346 1.00717 0.0
C1178 C 0.4682 0.4964 0.17061 0.0
C1179 C 0.42157 0.4981 0.13938 0.0
O1180 O 0.47648 0.5509 0.15631 0.0
O1181 O 0.47668 0.55908 0.08279 0.0
O1182 O 0.45016 0.5105 0.0385 0.0
O1183 O 0.43668 0.52523 0.06415 0.0
O1184 O 0.4909 0.53393 0.06302 0.0
O1185 O 0.48379 0.50149 0.06241 0.0
O1186 O 0.44905 0.47366 0.01946 0.0
O1187 O 0.43996 0.45779 0.08625 0.0
O1188 O 0.47427 0.5083 0.13411 0.0
O1189 O 0.4509 0.48166 0.15826 0.0
O1190 O 0.42277 0.48627 0.1069 0.0
O1191 O 0.43828 0.51465 0.15119 0.0
H1192 H 0.50947 0.57835 0.20177 0.0
H1193 H 0.53736 0.61228 0.21806 0.0
H1194 H 0.52576 0.63282 0.08566 0.0
H1195 H 0.49807 0.59919 0.06974 0.0
H1196 H 0.40882 0.46388 0.03145 0.0
H1197 H 0.37391 0.43982 1.01292 0.0
H1198 H 0.39014 0.39445 0.98858 0.0
H1199 H 0.42489 0.41856 1.00753 0.0
Tb1200 Tb 0.10928 0.49098 0.57797 0.0
Tb1201 Tb 0.13741 0.53047 0.60317 0.0
C1202 C 0.09069 0.45988 0.52854 0.0
C1203 C 0.09776 0.44639 0.51285 0.0
C1204 C 0.11829 0.45284 0.51469 0.0
C1205 C 0.12483 0.43896 0.51311 0.0
C1206 C 0.11087 0.41851 0.50906 0.0
C1207 C 0.09057 0.41237 0.50178 0.0
C1208 C 0.08402 0.42622 0.50464 0.0
C1209 C 0.09982 0.49676 0.6661 0.0
C1210 C 0.14708 0.49816 0.63843 0.0
C1211 C 0.15662 0.56724 0.63002 0.0
C1212 C 0.15587 0.58621 0.64125 0.0
C1213 C 0.14821 0.58872 0.68464 0.0
C1214 C 0.14987 0.60729 0.69727 0.0
C1215 C 0.15938 0.62437 0.66731 0.0
C1216 C 0.16695 0.62177 0.62376 0.0
C1217 C 0.16526 0.60316 0.61112 0.0
C1218 C 0.15064 0.51494 0.5319 0.0
C1219 C 0.09745 0.5239 0.55306 0.0
O1220 O 0.10009 0.47788 0.51053 0.0
O1221 O 0.08853 0.4602 0.57443 0.0
O1222 O 0.10688 0.51004 0.6324 0.0
O1223 O 0.09917 0.48072 0.65002 0.0
O1224 O 0.13442 0.48711 0.60443 0.0
O1225 O 0.14744 0.51484 0.65147 0.0
O1226 O 0.14809 0.55183 0.65892 0.0
O1227 O 0.15506 0.56134 0.58585 0.0
O1228 O 0.13365 0.51359 0.53768 0.0
O1229 O 0.16138 0.52662 0.5662 0.0
O1230 O 0.1161 0.53672 0.56533 0.0
O1231 O 0.09067 0.50441 0.55759 0.0
H1232 H 0.12907 0.46834 0.52171 0.0
H1233 H 0.14047 0.44397 0.51958 0.0
H1234 H 0.07947 0.3966 0.49947 0.0
H1235 H 0.06812 0.42096 0.50394 0.0
H1236 H 0.14127 0.5764 0.70963 0.0
H1237 H 0.14408 0.60831 0.73152 0.0
H1238 H 0.17421 0.63414 0.59903 0.0
H1239 H 0.17173 0.60217 0.5778 0.0
Tb1240 Tb 0.60696 0.64234 0.58826 0.0
Tb1241 Tb 0.56273 0.62484 0.60378 0.0
C1242 C 0.64035 0.65858 0.54717 0.0
C1243 C 0.65402 0.67976 0.53585 0.0
C1244 C 0.67235 0.68598 0.51335 0.0
C1245 C 0.68661 0.70642 0.51112 0.0
C1246 C 0.68251 0.7208 0.53099 0.0
C1247 C 0.66318 0.71447 0.54783 0.0
C1248 C 0.64941 0.69417 0.55171 0.0
C1249 C 0.59683 0.62499 0.67381 0.0
C1250 C 0.59149 0.66936 0.63927 0.0
C1251 C 0.52627 0.60566 0.63182 0.0
C1252 C 0.50739 0.58624 0.64559 0.0
C1253 C 0.504 0.57821 0.69202 0.0
C1254 C 0.48527 0.56162 0.70553 0.0
C1255 C 0.46893 0.55243 0.67347 0.0
C1256 C 0.47245 0.56048 0.62698 0.0
C1257 C 0.49118 0.57695 0.61344 0.0
C1258 C 0.57669 0.65291 0.52851 0.0
C1259 C 0.57674 0.59611 0.55622 0.0
O1260 O 0.62329 0.65024 0.52447 0.0
O1261 O 0.63798 0.65444 0.59265 0.0
O1262 O 0.58588 0.61848 0.6357 0.0
O1263 O 0.61286 0.64168 0.66311 0.0
O1264 O 0.6056 0.66907 0.61271 0.0
O1265 O 0.57435 0.65241 0.64734 0.0
O1266 O 0.54168 0.61455 0.66077 0.0
O1267 O 0.53199 0.60832 0.58728 0.0
O1268 O 0.58502 0.64616 0.55566 0.0
O1269 O 0.55834 0.64208 0.54308 0.0
O1270 O 0.56168 0.59835 0.57079 0.0
O1271 O 0.59553 0.61137 0.55928 0.0
H1272 H 0.67616 0.67505 0.50062 0.0
H1273 H 0.70139 0.71069 0.49798 0.0
H1274 H 0.65936 0.7251 0.56259 0.0
H1275 H 0.63565 0.68978 0.57006 0.0
H1276 H 0.51572 0.58501 0.71845 0.0
H1277 H 0.48349 0.55638 0.74188 0.0
H1278 H 0.46068 0.55402 0.60061 0.0
H1279 H 0.49281 0.58274 0.57763 0.0
Tb1280 Tb 0.44939 0.98222 0.59037 0.0
Tb1281 Tb 0.46646 0.95525 0.59901 0.0
C1282 C 0.43177 1.00055 0.56649 0.0
C1283 C 0.41134 0.99506 0.58046 0.0
C1284 C 0.40826 1.00933 0.60359 0.0
C1285 C 0.391 1.00324 0.63037 0.0
C1286 C 0.37653 0.98281 0.63406 0.0
C1287 C 0.37866 0.96871 0.60752 0.0
C1288 C 0.39609 0.97479 0.58125 0.0
C1289 C 0.46963 0.98917 0.67281 0.0
C1290 C 0.42253 0.93967 0.63963 0.0
C1291 C 0.4855 0.93762 0.62502 0.0
C1292 C 0.50493 0.93848 0.63933 0.0
C1293 C 0.51234 0.94267 0.68626 0.0
C1294 C 0.529 0.94085 0.70028 0.0
C1295 C 0.53889 0.93454 0.66818 0.0
C1296 C 0.53145 0.93043 0.62119 0.0
C1297 C 0.51487 0.93234 0.60715 0.0
C1298 C 0.43821 0.942 0.52495 0.0
C1299 C 0.49409 0.99778 0.54958 0.0
O1300 O 0.43361 0.98815 0.53803 0.0
O1301 O 0.44425 1.00608 0.60213 0.0
O1302 O 0.47424 0.98481 0.63202 0.0
O1303 O 0.45164 0.98615 0.66734 0.0
O1304 O 0.42272 0.95472 0.61622 0.0
O1305 O 0.43931 0.93889 0.64402 0.0
O1306 O 0.47616 0.94339 0.65456 0.0
O1307 O 0.48328 0.9415 0.58078 0.0
O1308 O 0.44469 0.95681 0.55308 0.0
O1309 O 0.44931 0.93452 0.53757 0.0
O1310 O 0.49256 0.98099 0.56624 0.0
O1311 O 0.47852 1.00078 0.55228 0.0
H1312 H 0.41984 1.02498 0.60385 0.0
H1313 H 0.38928 1.01442 0.64977 0.0
H1314 H 0.36742 0.95299 0.60924 0.0
H1315 H 0.39815 0.96341 0.56439 0.0
H1316 H 0.505 0.94697 0.71267 0.0
H1317 H 0.53375 0.94391 0.737 0.0
H1318 H 0.53848 0.92575 0.59484 0.0
H1319 H 0.50953 0.92854 0.57094 0.0
Tb1320 Tb 0.17398 0.42547 0.29197 0.0
Tb1321 Tb 0.21384 0.45329 0.26734 0.0
C1322 C 0.14279 0.40683 0.3413 0.0
C1323 C 0.12964 0.41402 0.35872 0.0
C1324 C 0.1099 0.40039 0.37128 0.0
C1325 C 0.09611 0.40694 0.37623 0.0
C1326 C 0.10188 0.42711 0.36735 0.0
C1327 C 0.1221 0.44104 0.35945 0.0
C1328 C 0.13589 0.43449 0.35525 0.0
C1329 C 0.18009 0.41599 0.20412 0.0
C1330 C 0.18205 0.46384 0.2319 0.0
C1331 C 0.25055 0.47164 0.23998 0.0
C1332 C 0.26922 0.47039 0.22799 0.0
C1333 C 0.27235 0.46502 0.18216 0.0
C1334 C 0.29074 0.46641 0.16909 0.0
C1335 C 0.30709 0.47337 0.20105 0.0
C1336 C 0.30388 0.47866 0.24706 0.0
C1337 C 0.28543 0.47725 0.26012 0.0
C1338 C 0.1984 0.46698 0.33787 0.0
C1339 C 0.20625 0.41298 0.3183 0.0
O1340 O 0.16077 0.41575 0.35919 0.0
O1341 O 0.14308 0.40537 0.29517 0.0
O1342 O 0.19311 0.42284 0.23824 0.0
O1343 O 0.16404 0.41538 0.21976 0.0
O1344 O 0.17063 0.45098 0.2653 0.0
O1345 O 0.19871 0.46409 0.21938 0.0
O1346 O 0.23509 0.46357 0.2113 0.0
O1347 O 0.24477 0.47015 0.28428 0.0
O1348 O 0.19666 0.44976 0.3323 0.0
O1349 O 0.2107 0.47768 0.30437 0.0
O1350 O 0.21933 0.43164 0.30629 0.0
O1351 O 0.18689 0.40643 0.3129 0.0
H1352 H 0.10481 0.38452 0.37374 0.0
H1353 H 0.08053 0.39583 0.38178 0.0
H1354 H 0.12686 0.45659 0.35206 0.0
H1355 H 0.15107 0.44512 0.3452 0.0
H1356 H 0.26067 0.46015 0.15562 0.0
H1357 H 0.29223 0.46249 0.13301 0.0
H1358 H 0.31564 0.48392 0.27341 0.0
H1359 H 0.28404 0.48197 0.29546 0.0
Tb1360 Tb 0.66791 0.76612 0.29263 0.0
Tb1361 Tb 0.64052 0.77879 0.26653 0.0
C1362 C 0.6817 0.7464 0.33234 0.0
C1363 C 0.67159 0.72593 0.35125 0.0
C1364 C 0.65088 0.71349 0.34535 0.0
C1365 C 0.64188 0.69296 0.35352 0.0
C1366 C 0.65363 0.68463 0.3671 0.0
C1367 C 0.67374 0.69756 0.38006 0.0
C1368 C 0.68273 0.71813 0.37167 0.0
C1369 C 0.6828 0.78959 0.21509 0.0
C1370 C 0.62753 0.73552 0.234 0.0
C1371 C 0.6221 0.79759 0.24304 0.0
C1372 C 0.62236 0.81709 0.2313 0.0
C1373 C 0.62896 0.82685 0.18698 0.0
C1374 C 0.62668 0.84343 0.17433 0.0
C1375 C 0.61749 0.85103 0.20513 0.0
C1376 C 0.61096 0.84125 0.24956 0.0
C1377 C 0.61333 0.82471 0.26226 0.0
C1378 C 0.6279 0.75172 0.34164 0.0
C1379 C 0.6819 0.8106 0.31717 0.0
O1380 O 0.6778 0.75882 0.3548 0.0
O1381 O 0.68083 0.74791 0.28615 0.0
O1382 O 0.66399 0.77709 0.22332 0.0
O1383 O 0.69277 0.7885 0.25076 0.0
O1384 O 0.64284 0.73836 0.26102 0.0
O1385 O 0.62469 0.75081 0.22532 0.0
O1386 O 0.62922 0.78982 0.21272 0.0
O1387 O 0.6251 0.79397 0.28682 0.0
O1388 O 0.64515 0.7668 0.33323 0.0
O1389 O 0.61673 0.75269 0.30858 0.0
O1390 O 0.6669 0.80776 0.28925 0.0
O1391 O 0.68387 0.7951 0.32872 0.0
H1392 H 0.64188 0.71934 0.33117 0.0
H1393 H 0.62636 0.68338 0.34363 0.0
H1394 H 0.68323 0.69162 0.39075 0.0
H1395 H 0.69865 0.72761 0.37758 0.0
H1396 H 0.63556 0.8214 0.16134 0.0
H1397 H 0.6317 0.84995 0.13943 0.0
H1398 H 0.60401 0.84639 0.27497 0.0
H1399 H 0.60763 0.81755 0.29633 0.0
Tb1400 Tb 0.32279 0.91726 0.28661 0.0
Tb1401 Tb 0.31052 0.87681 0.26845 0.0
C1402 C 0.33742 0.95147 0.32253 0.0
C1403 C 0.35778 0.96856 0.31487 0.0
C1404 C 0.37339 0.97202 0.34636 0.0
C1405 C 0.39327 0.98576 0.33477 0.0
C1406 C 0.39781 0.99615 0.29143 0.0
C1407 C 0.38214 0.9933 0.26107 0.0
C1408 C 0.36238 0.97972 0.27266 0.0
C1409 C 0.30838 0.90891 0.19812 0.0
C1410 C 0.35252 0.90758 0.22922 0.0
C1411 C 0.29281 0.83942 0.24706 0.0
C1412 C 0.27348 0.8196 0.23917 0.0
C1413 C 0.26299 0.81457 0.19548 0.0
C1414 C 0.24685 0.79492 0.18642 0.0
C1415 C 0.24072 0.77933 0.22032 0.0
C1416 C 0.25095 0.7846 0.26435 0.0
C1417 C 0.2669 0.8042 0.27348 0.0
C1418 C 0.33933 0.89389 0.33927 0.0
C1419 C 0.27814 0.88505 0.31732 0.0
O1420 O 0.33667 0.93624 0.34453 0.0
O1421 O 0.32533 0.94572 0.28607 0.0
O1422 O 0.30114 0.89707 0.23439 0.0
O1423 O 0.32488 0.92452 0.21141 0.0
O1424 O 0.35133 0.92003 0.25993 0.0
O1425 O 0.33607 0.89046 0.2194 0.0
O1426 O 0.29882 0.85396 0.21584 0.0
O1427 O 0.29778 0.84653 0.29023 0.0
O1428 O 0.32392 0.89556 0.33162 0.0
O1429 O 0.33805 0.88116 0.30739 0.0
O1430 O 0.28316 0.87173 0.3043 0.0
O1431 O 0.29143 0.90446 0.31314 0.0
H1432 H 0.37029 0.96363 0.37923 0.0
H1433 H 0.40506 0.98802 0.35917 0.0
H1434 H 0.38515 1.00171 0.22825 0.0
H1435 H 0.35077 0.97757 0.24774 0.0
H1436 H 0.26763 0.82569 0.16754 0.0
H1437 H 0.23971 0.79177 0.15191 0.0
H1438 H 0.24677 0.77344 0.29205 0.0
H1439 H 0.27457 0.80711 0.30729 0.0
H1440 H 0.29839 0.09801 1.01829 0.0
H1441 H 0.2375 0.07956 0.05615 0.0
H1442 H 0.22748 0.04477 0.03883 0.0
H1443 H 0.23549 1.01874 1.01086 0.0
H1444 H 0.29663 0.03738 0.97498 0.0
H1445 H 0.3066 0.07199 0.99306 0.0
C1446 C 0.28289 0.08647 0.02268 0.0
C1447 C 0.26889 0.09197 0.03903 0.0
C1448 C 0.27706 0.06603 1.01284 0.0
C1449 C 0.2489 0.07627 0.04452 0.0
C1450 C 0.24304 0.05613 0.03431 0.0
C1451 C 0.25105 1.03027 1.00754 0.0
C1452 C 0.26513 1.02489 0.99109 0.0
C1453 C 0.25693 0.05068 1.01842 0.0
C1454 C 0.2852 0.04055 0.98697 0.0
C1455 C 0.29103 0.06062 0.99744 0.0
H1456 H 1.05058 0.26858 0.95483 0.0
H1457 H 0.08102 0.24736 0.04578 0.0
H1458 H 1.04904 0.21969 0.07233 0.0
H1459 H 1.01209 0.20015 0.06824 0.0
H1460 H 0.98118 0.22117 0.97808 0.0
H1461 H 1.01311 0.24946 0.95296 0.0
C1462 C 1.05027 0.25807 0.98083 0.0
C1463 C 0.06865 0.26048 0.99802 0.0
C1464 C 1.03146 0.24169 0.99601 0.0
C1465 C 0.06749 0.24628 0.03155 0.0
C1466 C 1.04903 0.23024 0.04686 0.0
C1467 C 1.01214 0.21096 0.04353 0.0
C1468 C 0.99366 0.20792 0.02524 0.0
C1469 C 1.03084 0.22759 0.02912 0.0
C1470 C 0.99473 0.2224 0.99256 0.0
C1471 C 1.01319 0.23889 0.97826 0.0
H1472 H 0.85077 0.8525 1.01363 0.0
H1473 H 0.81117 0.79384 0.95571 0.0
H1474 H 0.83554 0.78353 0.97321 0.0
H1475 H 0.86883 0.79091 1.00373 0.0
H1476 H 0.9082 0.84918 0.06338 0.0
H1477 H 0.88364 0.85949 0.04671 0.0
C1478 C 0.8473 0.83737 1.00532 0.0
C1479 C 0.82874 0.8241 0.98334 0.0
C1480 C 0.86164 0.83131 1.01562 0.0
C1481 C 0.82501 0.80459 0.97273 0.0
C1482 C 0.83912 0.7986 0.9826 0.0
C1483 C 0.87213 0.8059 1.01299 0.0
C1484 C 0.89066 0.81911 0.03515 0.0
C1485 C 0.85763 0.81182 1.00369 0.0
C1486 C 0.8942 0.83843 0.04696 0.0
C1487 C 0.88007 0.84444 0.03722 0.0
H1488 H 0.05848 0.27094 0.58377 0.0
H1489 H 1.02581 0.21463 0.50974 0.0
H1490 H 0.05722 0.21739 0.48344 0.0
H1491 H 0.09439 0.23517 0.48265 0.0
H1492 H 0.12708 0.29175 0.55581 0.0
H1493 H 0.09573 0.28925 0.58093 0.0
C1494 C 0.05812 0.2593 0.56153 0.0
C1495 C 1.03933 0.24257 0.5489 0.0
C1496 C 0.07653 0.26089 0.54642 0.0
C1497 C 1.03968 0.22772 0.52028 0.0
C1498 C 0.05781 0.22927 0.50514 0.0
C1499 C 0.09483 0.24714 0.50367 0.0
C1500 C 0.11369 0.2636 0.51728 0.0
C1501 C 0.07642 0.24572 0.51811 0.0
C1502 C 0.11327 0.27863 0.54518 0.0
C1503 C 0.09514 0.27731 0.55945 0.0
H1504 H 0.85201 0.87638 0.46861 0.0
H1505 H 0.80021 0.85671 0.55854 0.0
H1506 H 0.80355 0.82853 0.5858 0.0
H1507 H 0.82117 0.80887 0.5857 0.0
H1508 H 0.87269 0.82812 0.49534 0.0
H1509 H 0.86919 0.85624 0.46709 0.0
C1510 C 0.84126 0.86592 0.49387 0.0
C1511 C 0.8259 0.86938 0.51135 0.0
C1512 C 0.84316 0.84925 0.50966 0.0
C1513 C 0.81248 0.85527 0.54462 0.0
C1514 C 0.81427 0.83881 0.56021 0.0
C1515 C 0.8316 0.81907 0.55949 0.0
C1516 C 0.84718 0.81588 0.54277 0.0
C1517 C 0.82958 0.83559 0.54325 0.0
C1518 C 0.86048 0.82974 0.50909 0.0
C1519 C 0.85851 0.84602 0.49283 0.0
H1520 H 0.21414 0.99599 0.47406 0.0
H1521 H 0.23539 0.96367 0.55861 0.0
H1522 H 0.2642 0.99519 0.5834 0.0
H1523 H 0.28388 1.03253 0.5827 0.0
H1524 H 0.263 0.06486 0.49731 0.0
H1525 H 0.23433 1.03324 0.47142 0.0
C1526 C 0.22509 0.99565 0.49754 0.0
C1527 C 0.22193 0.97684 0.5144 0.0
C1528 C 0.24209 1.01418 0.51179 0.0
C1529 C 0.23664 0.97743 0.54537 0.0
C1530 C 0.25344 0.99566 0.55949 0.0
C1531 C 0.2732 1.03275 0.55808 0.0
C1532 C 0.27604 0.05151 0.54207 0.0
C1533 C 0.25638 1.01422 0.54321 0.0
C1534 C 0.26161 0.05101 0.51042 0.0
C1535 C 0.24502 1.03276 0.49554 0.0
H1536 H 0.82098 1.03303 0.08217 0.0
H1537 H 0.8735 0.0655 0.99482 0.0
H1538 H 0.87017 1.03385 0.96741 0.0
H1539 H 0.85287 0.99646 0.96906 0.0
H1540 H 0.8002 0.96416 0.05637 0.0
H1541 H 0.80334 0.99571 0.08257 0.0
C1542 C 0.83167 1.03331 0.0568 0.0
C1543 C 0.84749 0.05214 0.04066 0.0
C1544 C 0.82977 1.01476 0.04117 0.0
C1545 C 0.86112 0.05163 1.00807 0.0
C1546 C 0.85923 1.03335 0.99231 0.0
C1547 C 0.84188 0.99613 0.99349 0.0
C1548 C 0.82633 0.97727 1.01057 0.0
C1549 C 0.84367 1.01471 1.00866 0.0
C1550 C 0.81261 0.97792 0.0428 0.0
C1551 C 0.81428 0.99618 0.05774 0.0
H1552 H 0.09541 0.87887 0.9792 0.0
H1553 H 0.12726 0.85519 0.0567 0.0
H1554 H 0.09562 0.82695 0.0833 0.0
H1555 H 0.05833 0.80836 0.08594 0.0
H1556 H 1.02644 0.83189 1.00826 0.0
H1557 H 0.05812 0.85999 0.98067 0.0
C1558 C 0.09561 0.86753 1.00157 0.0
C1559 C 0.11436 0.8698 1.01576 0.0
C1560 C 0.07699 0.85089 1.01702 0.0
C1561 C 0.11358 0.8546 0.04542 0.0
C1562 C 0.09527 0.83813 0.06059 0.0
C1563 C 0.05819 0.81951 0.06268 0.0
C1564 C 1.0395 0.81753 0.04934 0.0
C1565 C 0.07679 0.83604 0.04686 0.0
C1566 C 1.04018 0.83258 0.01941 0.0
C1567 C 0.05849 0.84885 1.0035 0.0
H1568 H 0.25848 0.22298 1.01474 0.0
H1569 H 0.29515 0.27936 0.08553 0.0
H1570 H 0.27033 0.28929 0.06941 0.0
H1571 H 0.23749 0.28216 0.03597 0.0
H1572 H 0.20099 0.22601 0.96389 0.0
H1573 H 0.22603 0.21628 0.97918 0.0
C1574 C 0.26121 0.23754 0.02627 0.0
C1575 C 0.27908 0.25029 0.05163 0.0
C1576 C 0.24661 0.24337 1.01658 0.0
C1577 C 0.28183 0.26904 0.06617 0.0
C1578 C 0.26747 0.2748 0.05694 0.0
C1579 C 0.23488 0.26775 0.02362 0.0
C1580 C 0.21698 0.25504 0.99825 0.0
C1581 C 0.24965 0.26209 0.03243 0.0
C1582 C 0.21445 0.23648 0.98265 0.0
C1583 C 0.22887 0.23075 0.99169 0.0
H1584 H 1.04951 0.8027 0.44621 0.0
H1585 H 0.08107 0.85125 0.54524 0.0
H1586 H 1.04944 0.84753 0.57273 0.0
H1587 H 1.01243 0.83133 0.56793 0.0
H1588 H 0.98062 0.78229 0.47007 0.0
H1589 H 1.01215 0.78562 0.44347 0.0
C1590 C 1.04954 0.81235 0.47422 0.0
C1591 C 0.06815 0.82723 0.49351 0.0
C1592 C 1.03094 0.81023 0.49012 0.0
C1593 C 0.06737 0.8396 0.52943 0.0
C1594 C 1.0491 0.83752 0.54529 0.0
C1595 C 1.01218 0.82113 0.54114 0.0
C1596 C 0.99351 0.80663 0.5212 0.0
C1597 C 1.0307 0.82297 0.52583 0.0
C1598 C 0.99427 0.79394 0.48594 0.0
C1599 C 1.01251 0.79571 0.47072 0.0
H1600 H 0.25985 0.20031 0.57121 0.0
H1601 H 0.30707 0.21676 0.46848 0.0
H1602 H 0.30327 0.24478 0.44214 0.0
H1603 H 0.28637 0.26514 0.44676 0.0
H1604 H 0.23952 0.2489 0.55018 0.0
H1605 H 0.24368 0.22113 0.57744 0.0
C1606 C 0.26955 0.21006 0.5434 0.0
C1607 C 0.28369 0.20577 0.52204 0.0
C1608 C 0.26743 0.22662 0.52825 0.0
C1609 C 0.29572 0.2189 0.48549 0.0
C1610 C 0.29368 0.23526 0.47043 0.0
C1611 C 0.27719 0.2557 0.47566 0.0
C1612 C 0.26267 0.25957 0.49633 0.0
C1613 C 0.27955 0.23933 0.49131 0.0
C1614 C 0.25087 0.24669 0.53335 0.0
C1615 C 0.25322 0.23061 0.54906 0.0
H1616 H 0.87616 0.09848 0.47979 0.0
H1617 H 0.90114 0.07907 0.59073 0.0
H1618 H 0.87594 0.04418 0.57546 0.0
H1619 H 0.84621 1.01823 0.52982 0.0
H1620 H 0.82165 0.03856 0.41961 0.0
H1621 H 0.84676 0.07304 0.43529 0.0
C1622 C 0.87625 0.0867 0.50062 0.0
C1623 C 0.89085 0.09195 0.53676 0.0
C1624 C 0.86144 0.06632 0.49182 0.0
C1625 C 0.89018 0.076 0.56321 0.0
C1626 C 0.87569 0.0558 0.55427 0.0
C1627 C 0.84626 1.03017 0.50934 0.0
C1628 C 0.83146 1.02523 0.47369 0.0
C1629 C 0.8611 0.05062 0.51866 0.0
C1630 C 0.83226 0.04134 0.44778 0.0
C1631 C 0.84687 0.06136 0.45652 0.0
H1632 H 0.91915 0.411 0.39439 0.0
H1633 H 0.9763 0.44338 0.32376 0.0
H1634 H 0.97357 0.41186 0.29884 0.0
H1635 H 0.9549 0.37457 0.29544 0.0
H1636 H 0.89791 0.34213 0.36631 0.0
H1637 H 0.90096 0.37368 0.39283 0.0
C1638 C 0.93119 0.41134 0.37394 0.0
C1639 C 0.9479 0.43021 0.36102 0.0
C1640 C 0.92962 0.39279 0.35954 0.0
C1641 C 0.963 0.42961 0.33387 0.0
C1642 C 0.96154 0.41136 0.31971 0.0
C1643 C 0.94314 0.37423 0.31689 0.0
C1644 C 0.92614 0.35543 0.3285 0.0
C1645 C 0.94488 0.39277 0.33201 0.0
C1646 C 0.91123 0.35595 0.35647 0.0
C1647 C 0.91293 0.37419 0.37173 0.0
H1648 H 0.71665 0.59939 0.29339 0.0
H1649 H 0.74921 0.57395 0.35976 0.0
H1650 H 0.71777 0.54541 0.38725 0.0
H1651 H 0.68049 0.52678 0.39168 0.0
H1652 H 0.64813 0.5526 0.32568 0.0
H1653 H 0.67952 0.58115 0.29917 0.0
C1654 C 0.71701 0.58773 0.31412 0.0
C1655 C 0.73578 0.58928 0.32431 0.0
C1656 C 0.69858 0.57101 0.3299 0.0
C1657 C 0.73538 0.57359 0.3511 0.0
C1658 C 0.71722 0.55708 0.36693 0.0
C1659 C 0.68015 0.53865 0.37187 0.0
C1660 C 0.66132 0.53689 0.36079 0.0
C1661 C 0.69863 0.55549 0.35651 0.0
C1662 C 0.66187 0.55279 0.33439 0.0
C1663 C 0.68004 0.56943 0.31931 0.0
H1664 H 0.51735 0.18322 0.34906 0.0
H1665 H 0.47923 0.12729 0.27779 0.0
H1666 H 0.50371 0.11664 0.29172 0.0
H1667 H 0.53666 0.12303 0.32374 0.0
H1668 H 0.57419 0.17865 0.39683 0.0
H1669 H 0.54966 0.18917 0.38288 0.0
C1670 C 0.51421 0.16859 0.33693 0.0
C1671 C 0.49607 0.1562 0.31224 0.0
C1672 C 0.52854 0.16235 0.34536 0.0
C1673 C 0.49278 0.13734 0.29683 0.0
C1674 C 0.50693 0.13117 0.30475 0.0
C1675 C 0.53957 0.13749 0.33654 0.0
C1676 C 0.5576 0.14986 0.36178 0.0
C1677 C 0.52502 0.14355 0.32876 0.0
C1678 C 0.5606 0.1685 0.37802 0.0
C1679 C 0.54648 0.17465 0.36984 0.0
H1680 H 0.76343 0.57624 0.80384 0.0
H1681 H 0.79388 0.6218 0.91051 0.0
H1682 H 0.76205 0.61817 0.93586 0.0
H1683 H 0.72491 0.60183 0.92931 0.0
H1684 H 0.69453 0.55632 0.82269 0.0
H1685 H 0.7265 0.56045 0.79611 0.0
C1686 C 0.76331 0.58559 0.83236 0.0
C1687 C 0.78164 0.59927 0.85504 0.0
C1688 C 0.74462 0.5835 0.84705 0.0
C1689 C 0.78045 0.61086 0.89245 0.0
C1690 C 0.76206 0.6089 0.90695 0.0
C1691 C 0.72522 0.59294 0.89985 0.0
C1692 C 0.70689 0.57882 0.87801 0.0
C1693 C 0.74394 0.59523 0.88474 0.0
C1694 C 0.70804 0.56737 0.84035 0.0
C1695 C 0.72649 0.5697 0.82507 0.0
H1696 H 0.53407 0.16486 0.84842 0.0
H1697 H 0.47939 0.12875 0.92636 0.0
H1698 H 0.46871 0.15297 0.90973 0.0
H1699 H 0.47446 0.18493 0.87322 0.0
H1700 H 0.52875 0.22079 0.7939 0.0
H1701 H 0.53951 0.19657 0.81049 0.0
C1702 C 0.51975 0.16215 0.86158 0.0
C1703 C 0.5077 0.14457 0.88879 0.0
C1704 C 0.51341 0.17635 0.85154 0.0
C1705 C 0.48919 0.1418 0.90528 0.0
C1706 C 0.48298 0.15582 0.89583 0.0
C1707 C 0.48869 0.18758 0.85959 0.0
C1708 C 0.50055 0.20502 0.83176 0.0
C1709 C 0.49492 0.17326 0.8691 0.0
C1710 C 0.51891 0.20764 0.81459 0.0
C1711 C 0.52523 0.1937 0.82437 0.0
H1712 H 0.88356 0.32881 0.79686 0.0
H1713 H 0.90472 0.29652 0.8817 0.0
H1714 H 0.93295 0.32814 0.9087 0.0
H1715 H 0.95198 0.36573 0.91005 0.0
H1716 H 0.9306 0.39748 0.82413 0.0
H1717 H 0.903 0.36585 0.79585 0.0
C1718 C 0.89438 0.32848 0.82081 0.0
C1719 C 0.89139 0.30969 0.837 0.0
C1720 C 0.91097 0.347 0.83633 0.0
C1721 C 0.90589 0.31029 0.8688 0.0
C1722 C 0.92235 0.32858 0.8842 0.0
C1723 C 0.94144 0.36579 0.8848 0.0
C1724 C 0.9438 0.38445 0.86958 0.0
C1725 C 0.92509 0.34715 0.86851 0.0
C1726 C 0.92958 0.38374 0.8369 0.0
C1727 C 0.91356 0.36547 0.82058 0.0
H1728 H 0.47993 0.30856 0.37189 0.0
H1729 H 0.53492 0.32853 0.29467 0.0
H1730 H 0.54456 0.36336 0.3102 0.0
H1731 H 0.53789 0.38918 0.34711 0.0
H1732 H 0.48272 0.36842 0.42431 0.0
H1733 H 0.47315 0.33395 0.40757 0.0
C1734 C 0.4941 0.32042 0.35848 0.0
C1735 C 0.50644 0.31527 0.33157 0.0
C1736 C 0.49972 0.34085 0.36755 0.0
C1737 C 0.52467 0.33144 0.31465 0.0
C1738 C 0.53036 0.35164 0.32385 0.0
C1739 C 0.5237 0.37719 0.36003 0.0
C1740 C 0.5111 0.38209 0.38681 0.0
C1741 C 0.51805 0.3567 0.35029 0.0
C1742 C 0.49285 0.36579 0.40316 0.0
C1743 C 0.48729 0.34574 0.39379 0.0
H1744 H 0.70199 0.1642 0.34244 0.0
H1745 H 0.72203 0.13166 0.43003 0.0
H1746 H 0.75663 0.15644 0.41357 0.0
H1747 H 0.78222 0.18778 0.37458 0.0
H1748 H 0.76279 0.22047 0.28599 0.0
H1749 H 0.72793 0.19566 0.30214 0.0
C1750 C 0.71386 0.16241 0.35777 0.0
C1751 C 0.70878 0.14557 0.38752 0.0
C1752 C 0.73434 0.177 0.34788 0.0
C1753 C 0.72488 0.14403 0.40681 0.0
C1754 C 0.74496 0.1584 0.3975 0.0
C1755 C 0.77045 0.18964 0.35882 0.0
C1756 C 0.77574 0.20634 0.32857 0.0
C1757 C 0.75002 0.17503 0.36816 0.0
C1758 C 0.75974 0.2079 0.30865 0.0
C1759 C 0.73954 0.19362 0.31818 0.0
H1760 H 0.88434 0.5755 0.3022 0.0
H1761 H 0.90201 0.62505 0.39862 0.0
H1762 H 0.9303 0.62178 0.42518 0.0
H1763 H 0.95043 0.60459 0.4226 0.0
H1764 H 0.93263 0.55513 0.32594 0.0
H1765 H 0.90476 0.55892 0.29819 0.0
C1766 C 0.89441 0.5858 0.32869 0.0
C1767 C 0.89047 0.6005 0.34816 0.0
C1768 C 0.91101 0.5839 0.34406 0.0
C1769 C 0.90397 0.61332 0.3831 0.0
C1770 C 0.92044 0.61156 0.39827 0.0
C1771 C 0.94061 0.59474 0.39508 0.0
C1772 C 0.94406 0.5796 0.37645 0.0
C1773 C 0.92417 0.59686 0.37924 0.0
C1774 C 0.93073 0.56696 0.34117 0.0
C1775 C 0.9146 0.56909 0.32519 0.0
H1776 H 0.71715 0.13847 0.78306 0.0
H1777 H 0.74913 0.19322 0.86321 0.0
H1778 H 0.71737 0.19009 0.88865 0.0
H1779 H 0.68005 0.17226 0.88702 0.0
H1780 H 0.64831 0.11737 0.80688 0.0
H1781 H 0.67998 0.12028 0.78298 0.0
C1782 C 0.71729 0.1497 0.80644 0.0
C1783 C 0.73596 0.16609 0.82115 0.0
C1784 C 0.69872 0.14788 0.82088 0.0
C1785 C 0.73534 0.18041 0.85116 0.0
C1786 C 0.71702 0.17863 0.86575 0.0
C1787 C 0.6799 0.16077 0.86462 0.0
C1788 C 0.66121 0.14463 0.8488 0.0
C1789 C 0.69852 0.16248 0.85073 0.0
C1790 C 0.66199 0.13022 0.81926 0.0
C1791 C 0.68029 0.13179 0.80566 0.0
H1792 H 0.90409 0.57282 0.85697 0.0
H1793 H 0.95875 0.60682 0.77744 0.0
H1794 H 0.96824 0.58194 0.794 0.0
H1795 H 0.96172 0.55008 0.83078 0.0
H1796 H 0.90735 0.51538 0.91065 0.0
H1797 H 0.8976 0.54045 0.89474 0.0
C1798 C 0.91813 0.5749 0.8434 0.0
C1799 C 0.93061 0.59231 0.81596 0.0
C1800 C 0.92379 0.56011 0.85325 0.0
C1801 C 0.94868 0.59414 0.79893 0.0
C1802 C 0.95422 0.57966 0.80829 0.0
C1803 C 0.94765 0.5478 0.84465 0.0
C1804 C 0.93553 0.53047 0.87242 0.0
C1805 C 0.94197 0.56251 0.83534 0.0
C1806 C 0.91743 0.52843 0.88998 0.0
C1807 C 0.91167 0.54287 0.88056 0.0
H1808 H 0.56187 0.41017 0.89508 0.0
H1809 H 0.53968 0.44213 0.81232 0.0
H1810 H 0.51113 0.41049 0.78727 0.0
H1811 H 0.49226 0.37336 0.78662 0.0
H1812 H 0.5135 0.34104 0.87069 0.0
H1813 H 0.54205 0.37279 0.89709 0.0
C1814 C 0.55077 0.41037 0.87192 0.0
C1815 C 0.55357 0.42909 0.85551 0.0
C1816 C 0.53393 0.39177 0.85755 0.0
C1817 C 0.53868 0.42841 0.82506 0.0
C1818 C 0.52206 0.41013 0.8108 0.0
C1819 C 0.50293 0.37315 0.81125 0.0
C1820 C 0.5003 0.35443 0.8267 0.0
C1821 C 0.51952 0.39167 0.82647 0.0
C1822 C 0.51477 0.35491 0.85808 0.0
C1823 C 0.53126 0.37321 0.87323 0.0
H1824 H 0.58847 0.7451 0.72639 0.0
H1825 H 0.64457 0.77726 0.65125 0.0
H1826 H 0.64132 0.74566 0.62503 0.0
H1827 H 0.62261 0.70836 0.62206 0.0
H1828 H 0.5667 0.67605 0.69757 0.0
H1829 H 0.57007 0.70772 0.72474 0.0
C1830 C 0.60016 0.74537 0.70463 0.0
C1831 C 0.61675 0.76421 0.69092 0.0
C1832 C 0.59828 0.72677 0.68944 0.0
C1833 C 0.63139 0.76352 0.66208 0.0
C1834 C 0.62963 0.74523 0.64714 0.0
C1835 C 0.61116 0.70811 0.64474 0.0
C1836 C 0.59438 0.68933 0.65759 0.0
C1837 C 0.61312 0.72668 0.66034 0.0
C1838 C 0.57982 0.68988 0.68682 0.0
C1839 C 0.58173 0.70817 0.70248 0.0
H1840 H 0.34699 0.86104 0.72787 0.0
H1841 H 0.31537 0.88748 0.66103 0.0
H1842 H 0.34694 0.91556 0.63393 0.0
H1843 H 0.384 0.93311 0.62762 0.0
H1844 H 0.41592 0.90718 0.69469 0.0
H1845 H 0.38428 0.87909 0.72303 0.0
C1846 C 0.34687 0.87296 0.70775 0.0
C1847 C 0.3282 0.87153 0.69657 0.0
C1848 C 0.36546 0.88951 0.69204 0.0
C1849 C 0.32899 0.88744 0.66981 0.0
C1850 C 0.34726 0.90381 0.65439 0.0
C1851 C 0.38417 0.92147 0.64882 0.0
C1852 C 0.40278 0.92272 0.65895 0.0
C1853 C 0.36566 0.90506 0.66503 0.0
C1854 C 0.40218 0.90702 0.68612 0.0
C1855 C 0.38392 0.89079 0.70242 0.0
H1856 H 0.15915 0.47182 0.60401 0.0
H1857 H 0.17223 0.51554 0.71419 0.0
H1858 H 0.20019 0.51176 0.74123 0.0
H1859 H 0.2222 0.49712 0.73266 0.0
H1860 H 0.20942 0.45346 0.62242 0.0
H1861 H 0.18087 0.45647 0.5967 0.0
C1862 C 0.16793 0.48038 0.63432 0.0
C1863 C 0.16315 0.49394 0.65694 0.0
C1864 C 0.18451 0.47837 0.64964 0.0
C1865 C 0.17518 0.50495 0.69581 0.0
C1866 C 0.19137 0.50284 0.71138 0.0
C1867 C 0.21313 0.48801 0.70332 0.0
C1868 C 0.21855 0.4751 0.67977 0.0
C1869 C 0.19637 0.48973 0.68845 0.0
C1870 C 0.20632 0.46383 0.64124 0.0
C1871 C 0.18969 0.46542 0.62652 0.0
H1872 H 0.39149 0.93702 0.25377 0.0
H1873 H 0.35919 0.88606 0.16151 0.0
H1874 H 0.39062 0.88939 0.13375 0.0
H1875 H 0.42761 0.90588 0.13677 0.0
H1876 H 0.4602 0.95719 0.22801 0.0
H1877 H 0.42885 0.95437 0.25457 0.0
C1878 C 0.39126 0.92675 0.22718 0.0
C1879 C 0.37254 0.91129 0.20991 0.0
C1880 C 0.40972 0.92863 0.21119 0.0
C1881 C 0.37301 0.89814 0.17575 0.0
C1882 C 0.39115 0.9 0.15974 0.0
C1883 C 0.42805 0.91667 0.16207 0.0
C1884 C 0.44684 0.93169 0.18022 0.0
C1885 C 0.40967 0.91508 0.17735 0.0
C1886 C 0.4464 0.94516 0.21362 0.0
C1887 C 0.42829 0.94367 0.22878 0.0
H1888 H 0.18259 0.54066 0.14101 0.0
H1889 H 0.13324 0.52277 0.23807 0.0
H1890 H 0.1363 0.49419 0.26351 0.0
H1891 H 0.15322 0.47378 0.2598 0.0
H1892 H 0.20235 0.49169 0.1622 0.0
H1893 H 0.19875 0.51983 0.13552 0.0
C1894 C 0.17227 0.53049 0.16737 0.0
C1895 C 0.15774 0.53454 0.18743 0.0
C1896 C 0.17399 0.51363 0.18201 0.0
C1897 C 0.14489 0.52082 0.22213 0.0
C1898 C 0.14652 0.50414 0.23666 0.0
C1899 C 0.16307 0.48369 0.23237 0.0
C1900 C 0.17809 0.48017 0.21326 0.0
C1901 C 0.16106 0.50034 0.21712 0.0
C1902 C 0.19062 0.4936 0.17788 0.0
C1903 C 0.1886 0.50992 0.16252 0.0
H1904 H 0.59082 0.7209 0.18678 0.0
H1905 H 0.62928 0.70117 0.24778 0.0
H1906 H 0.60456 0.66647 0.23025 0.0
H1907 H 0.57141 0.6408 0.19805 0.0
H1908 H 0.53308 0.6605 0.13613 0.0
H1909 H 0.55795 0.69525 0.15303 0.0
C1910 C 0.59395 0.70909 0.19589 0.0
C1911 C 0.61231 0.71419 0.21875 0.0
C1912 C 0.57943 0.6887 0.18546 0.0
C1913 C 0.61559 0.69821 0.23027 0.0
C1914 C 0.6013 0.67811 0.22025 0.0
C1915 C 0.56837 0.65262 0.18829 0.0
C1916 C 0.55003 0.64748 0.16522 0.0
C1917 C 0.58303 0.67303 0.19805 0.0
C1918 C 0.54691 0.6635 0.15298 0.0
C1919 C 0.56122 0.68361 0.16296 0.0
H1920 H 0.15461 0.69996 0.74983 0.0
H1921 H 0.21018 0.73262 0.67329 0.0
H1922 H 0.20726 0.70109 0.64664 0.0
H1923 H 0.18941 0.66377 0.64601 0.0
H1924 H 0.13331 0.63119 0.72103 0.0
H1925 H 0.1361 0.66265 0.74665 0.0
C1926 C 0.166 0.70028 0.72682 0.0
C1927 C 0.18258 0.71909 0.71359 0.0
C1928 C 0.16425 0.6818 0.71135 0.0
C1929 C 0.1972 0.71872 0.68425 0.0
C1930 C 0.19555 0.70052 0.66891 0.0
C1931 C 0.17761 0.66337 0.66758 0.0
C1932 C 0.16121 0.64449 0.68158 0.0
C1933 C 0.17918 0.68187 0.6823 0.0
C1934 C 0.1464 0.64499 0.71012 0.0
C1935 C 0.14788 0.66319 0.7247 0.0
H1936 H 0.43034 0.5424 0.64428 0.0
H1937 H 0.46077 0.52164 0.7368 0.0
H1938 H 0.42866 0.49356 0.76201 0.0
H1939 H 0.39127 0.47444 0.75915 0.0
H1940 H 0.3611 0.49552 0.66678 0.0
H1941 H 0.39326 0.52315 0.64045 0.0
C1942 C 0.43014 0.53171 0.66964 0.0
C1943 C 0.44855 0.53469 0.68837 0.0
C1944 C 0.41131 0.51527 0.6843 0.0
C1945 C 0.44729 0.52041 0.72187 0.0
C1946 C 0.42873 0.50406 0.73626 0.0
C1947 C 0.39165 0.48493 0.7329 0.0
C1948 C 0.3733 0.48244 0.71504 0.0
C1949 C 0.41054 0.50127 0.71793 0.0
C1950 C 0.37459 0.49666 0.68143 0.0
C1951 C 0.39315 0.51265 0.66624 0.0
H1952 H 0.61698 0.93707 0.75747 0.0
H1953 H 0.59912 0.88707 0.66256 0.0
H1954 H 0.57097 0.89052 0.6349 0.0
H1955 H 0.55051 0.9072 0.63834 0.0
H1956 H 0.5685 0.95725 0.73338 0.0
H1957 H 0.59683 0.95409 0.75994 0.0
C1958 C 0.60707 0.92699 0.73042 0.0
C1959 C 0.61058 0.91184 0.71216 0.0
C1960 C 0.59054 0.92893 0.71469 0.0
C1961 C 0.59716 0.89892 0.67744 0.0
C1962 C 0.58089 0.90087 0.66153 0.0
C1963 C 0.56065 0.9176 0.66456 0.0
C1964 C 0.55681 0.93244 0.68365 0.0
C1965 C 0.5773 0.91577 0.67994 0.0
C1966 C 0.5704 0.94542 0.7182 0.0
C1967 C 0.58689 0.94372 0.73336 0.0
H1968 H 0.34636 0.50012 0.23153 0.0
H1969 H 0.31384 0.45013 0.13653 0.0
H1970 H 0.34513 0.45288 0.11007 0.0
H1971 H 0.38248 0.46967 0.11214 0.0
H1972 H 0.41478 0.51917 0.2083 0.0
H1973 H 0.38338 0.51609 0.23564 0.0
C1974 C 0.34589 0.4896 0.20539 0.0
C1975 C 0.32709 0.475 0.18619 0.0
C1976 C 0.3643 0.49111 0.19016 0.0
C1977 C 0.32759 0.46188 0.15178 0.0
C1978 C 0.34571 0.46332 0.13665 0.0
C1979 C 0.38272 0.47969 0.13947 0.0
C1980 C 0.40147 0.49464 0.158 0.0
C1981 C 0.36426 0.47792 0.1553 0.0
C1982 C 0.40097 0.50746 0.19308 0.0
C1983 C 0.38283 0.50574 0.20886 0.0
H1984 H 0.5873 0.85977 0.22916 0.0
H1985 H 0.64211 0.88375 0.1487 0.0
H1986 H 0.63832 0.91191 0.12351 0.0
H1987 H 0.61932 0.93021 0.12243 0.0
H1988 H 0.56475 0.90658 0.20337 0.0
H1989 H 0.56879 0.87859 0.22995 0.0
C1990 C 0.5986 0.87116 0.20644 0.0
C1991 C 0.61497 0.86897 0.1909 0.0
C1992 C 0.59639 0.88777 0.19182 0.0
C1993 C 0.6291 0.88425 0.16092 0.0
C1994 C 0.62702 0.90068 0.14656 0.0
C1995 C 0.60833 0.91906 0.14621 0.0
C1996 C 0.59169 0.92093 0.16072 0.0
C1997 C 0.61069 0.90264 0.16145 0.0
C1998 C 0.57773 0.90594 0.19136 0.0
C1999 C 0.58003 0.88974 0.20664 0.0
H2000 H 0.20518 0.76451 0.16811 0.0
H2001 H 0.23948 0.74431 0.2478 0.0
H2002 H 0.21431 0.70953 0.23193 0.0
H2003 H 0.18233 0.68395 0.19372 0.0
H2004 H 0.14807 0.70447 0.11487 0.0
H2005 H 0.17298 0.73911 0.13182 0.0
C2006 C 0.20729 0.75258 0.18199 0.0
C2007 C 0.22458 0.7576 0.20964 0.0
C2008 C 0.19247 0.73219 0.17279 0.0
C2009 C 0.22647 0.74143 0.22721 0.0
C2010 C 0.21198 0.72129 0.21784 0.0
C2011 C 0.18015 0.69594 0.1806 0.0
C2012 C 0.16291 0.69106 0.15288 0.0
C2013 C 0.19483 0.71634 0.19064 0.0
C2014 C 0.16086 0.70725 0.13624 0.0
C2015 C 0.17528 0.72732 0.14589 0.0
H2016 H 0.38536 0.23876 0.17546 0.0
H2017 H 0.33627 0.17904 0.15025 0.0
H2018 H 0.35791 0.1652 0.16695 0.0
H2019 H 0.39114 0.16953 0.18884 0.0
H2020 H 0.43997 0.22906 0.21674 0.0
H2021 H 0.41845 0.24303 0.19898 0.0
C2022 C 0.37929 0.2227 0.17383 0.0
C2023 C 0.35885 0.21015 0.16148 0.0
C2024 C 0.392 0.21458 0.18381 0.0
C2025 C 0.35169 0.18932 0.15967 0.0
C2026 C 0.36418 0.18128 0.16915 0.0
C2027 C 0.39718 0.18558 0.19071 0.0
C2028 C 0.4175 0.19808 0.20393 0.0
C2029 C 0.38444 0.19369 0.18112 0.0
C2030 C 0.42461 0.21886 0.20665 0.0
C2031 C 0.4122 0.22696 0.1965 0.0
H2032 H 0.9035 0.18229 0.14219 0.0
H2033 H 0.84244 0.15641 0.18964 0.0
H2034 H 0.84887 0.18947 0.21478 0.0
H2035 H 0.87179 0.22628 0.22388 0.0
H2036 H 0.93256 0.25243 0.17407 0.0
H2037 H 0.92625 0.21931 0.14967 0.0
C2038 C 0.89156 0.18377 0.15826 0.0
C2039 C 0.87241 0.16634 0.16407 0.0
C2040 C 0.89531 0.20321 0.17226 0.0
C2041 C 0.85731 0.16912 0.18457 0.0
C2042 C 0.861 0.18822 0.19904 0.0
C2043 C 0.88371 0.22486 0.20752 0.0
C2044 C 0.90276 0.24235 0.20106 0.0
C2045 C 0.87993 0.20547 0.19308 0.0
C2046 C 0.91776 0.23967 0.17963 0.0
C2047 C 0.91416 0.22053 0.16567 0.0
H2048 H 0.86326 0.66492 0.21434 0.0
H2049 H 0.84015 0.70493 0.19248 0.0
H2050 H 0.8737 0.73184 0.17063 0.0
H2051 H 0.91018 0.74455 0.15751 0.0
H2052 H 0.93307 0.70438 0.18011 0.0
H2053 H 0.89955 0.67759 0.20169 0.0
C2054 C 0.86538 0.67946 0.20456 0.0
C2055 C 0.8486 0.68246 0.20501 0.0
C2056 C 0.88504 0.69517 0.19224 0.0
C2057 C 0.8523 0.70175 0.19245 0.0
C2058 C 0.87169 0.71731 0.17998 0.0
C2059 C 0.90798 0.73 0.16739 0.0
C2060 C 0.92473 0.72692 0.16711 0.0
C2061 C 0.88829 0.7143 0.17981 0.0
C2062 C 0.92096 0.70763 0.17992 0.0
C2063 C 0.90159 0.69212 0.19226 0.0
H2064 H 0.18584 0.37139 0.33203 0.0
H2065 H 0.24477 0.42344 0.34113 0.0
H2066 H 0.25864 0.40236 0.36404 0.0
H2067 H 0.25455 0.36879 0.38168 0.0
H2068 H 0.19566 0.31673 0.37199 0.0
H2069 H 0.18177 0.33783 0.34951 0.0
C2070 C 0.2017 0.3782 0.33929 0.0
C2071 C 0.21404 0.39929 0.33477 0.0
C2072 C 0.20985 0.3658 0.35233 0.0
C2073 C 0.23465 0.40745 0.34414 0.0
C2074 C 0.24272 0.3953 0.3573 0.0
C2075 C 0.23869 0.36199 0.37445 0.0
C2076 C 0.22637 0.34089 0.37866 0.0
C2077 C 0.23055 0.3744 0.36141 0.0
C2078 C 0.20576 0.33273 0.3692 0.0
C2079 C 0.19768 0.34489 0.35629 0.0
H2080 H 0.68507 0.84779 0.29857 0.0
H2081 H 0.71526 0.82121 0.37144 0.0
H2082 H 0.74181 0.85434 0.39547 0.0
H2083 H 0.7571 0.8914 0.39664 0.0
H2084 H 0.72683 0.91817 0.32517 0.0
H2085 H 0.70032 0.88503 0.30028 0.0
C2086 C 0.69739 0.84916 0.31986 0.0
C2087 C 0.69778 0.83154 0.33297 0.0
C2088 C 0.71295 0.86861 0.33395 0.0
C2089 C 0.71416 0.83411 0.36057 0.0
C2090 C 0.72955 0.85323 0.37442 0.0
C2091 C 0.7448 0.89009 0.37537 0.0
C2092 C 0.74436 0.90771 0.36285 0.0
C2093 C 0.72922 0.87068 0.36133 0.0
C2094 C 0.72793 0.90523 0.33554 0.0
C2095 C 0.71259 0.8861 0.32122 0.0
H2096 H 0.25646 0.90517 0.32886 0.0
H2097 H 0.25051 0.84669 0.34246 0.0
H2098 H 0.21545 0.83234 0.36389 0.0
H2099 H 0.18548 0.83572 0.37876 0.0
H2100 H 0.19128 0.89412 0.36533 0.0
H2101 H 0.22644 0.90858 0.34422 0.0
C2102 C 0.2476 0.88932 0.33691 0.0
C2103 C 0.25667 0.87726 0.33393 0.0
C2104 C 0.22691 0.88084 0.34913 0.0
C2105 C 0.24442 0.85663 0.34421 0.0
C2106 C 0.22411 0.84825 0.35652 0.0
C2107 C 0.19434 0.85159 0.37093 0.0
C2108 C 0.1852 0.86358 0.37369 0.0
C2109 C 0.21502 0.8601 0.35889 0.0
C2110 C 0.19743 0.88423 0.36364 0.0
C2111 C 0.21779 0.89266 0.35154 0.0
H2112 H 0.76039 0.88727 0.88782 0.0
H2113 H 0.7255 0.82681 0.83525 0.0
H2114 H 0.69878 0.83324 0.8123 0.0
H2115 H 0.68466 0.8559 0.80663 0.0
H2116 H 0.71984 0.91673 0.85622 0.0
H2117 H 0.74651 0.91026 0.88042 0.0
C2118 C 0.747 0.87548 0.87119 0.0
C2119 C 0.74532 0.85648 0.86349 0.0
C2120 C 0.73142 0.87932 0.85746 0.0
C2121 C 0.72761 0.84159 0.84174 0.0
C2122 C 0.71212 0.84524 0.82859 0.0
C2123 C 0.69809 0.86776 0.82296 0.0
C2124 C 0.69988 0.88684 0.82966 0.0
C2125 C 0.71375 0.86402 0.83629 0.0
C2126 C 0.71773 0.90191 0.85046 0.0
C2127 C 0.73313 0.8982 0.86439 0.0
H2128 H 0.23639 0.84878 0.81316 0.0
H2129 H 0.17478 0.82359 0.8554 0.0
H2130 H 0.18142 0.85684 0.88011 0.0
H2131 H 0.20481 0.89372 0.89004 0.0
H2132 H 0.26624 0.91866 0.84603 0.0
H2133 H 0.25953 0.88544 0.82212 0.0
C2134 C 0.22434 0.85042 0.82798 0.0
C2135 C 0.20499 0.83317 0.83239 0.0
C2136 C 0.22825 0.8699 0.84185 0.0
C2137 C 0.1898 0.83617 0.85143 0.0
C2138 C 0.19362 0.85538 0.86562 0.0
C2139 C 0.21678 0.892 0.87505 0.0
C2140 C 0.23616 0.90924 0.87005 0.0
C2141 C 0.21279 0.87247 0.86098 0.0
C2142 C 0.25122 0.90614 0.8505 0.0
C2143 C 0.24737 0.88693 0.83677 0.0
H2144 H 0.18449 0.36931 0.87073 0.0
H2145 H 0.19171 0.31742 0.87429 0.0
H2146 H 0.22709 0.33819 0.85448 0.0
H2147 H 0.25695 0.3716 0.8361 0.0
H2148 H 0.24962 0.42353 0.83607 0.0
H2149 H 0.21434 0.40264 0.85432 0.0
C2150 C 0.1937 0.36246 0.86665 0.0
C2151 C 0.18495 0.34153 0.87369 0.0
C2152 C 0.21454 0.37473 0.85614 0.0
C2153 C 0.19763 0.33333 0.86902 0.0
C2154 C 0.21809 0.3453 0.85774 0.0
C2155 C 0.24775 0.37844 0.84056 0.0
C2156 C 0.25656 0.39947 0.83453 0.0
C2157 C 0.2269 0.36612 0.85145 0.0
C2158 C 0.24382 0.4076 0.84027 0.0
C2159 C 0.22334 0.39555 0.8507 0.0
H2160 H 0.90431 0.74355 0.6534 0.0
H2161 H 0.84124 0.70423 0.67741 0.0
H2162 H 0.84751 0.6774 0.70132 0.0
H2163 H 0.87089 0.66447 0.71615 0.0
H2164 H 0.93396 0.70379 0.6918 0.0
H2165 H 0.92765 0.73056 0.66767 0.0
C2166 C 0.89188 0.72917 0.66403 0.0
C2167 C 0.87221 0.72632 0.66352 0.0
C2168 C 0.89559 0.71344 0.67774 0.0
C2169 C 0.85652 0.70726 0.67731 0.0
C2170 C 0.86011 0.69173 0.69104 0.0
C2171 C 0.88331 0.67883 0.70533 0.0
C2172 C 0.903 0.6817 0.70596 0.0
C2173 C 0.87958 0.69453 0.69141 0.0
C2174 C 0.91866 0.70073 0.69187 0.0
C2175 C 0.91506 0.71624 0.67802 0.0
H2176 H 0.34784 0.18069 0.65049 0.0
H2177 H 0.38785 0.15772 0.67401 0.0
H2178 H 0.41415 0.19096 0.69865 0.0
H2179 H 0.42641 0.227 0.71393 0.0
H2180 H 0.38674 0.25033 0.69034 0.0
H2181 H 0.36026 0.21704 0.66562 0.0
C2182 C 0.36226 0.18285 0.66117 0.0
C2183 C 0.36549 0.16621 0.66025 0.0
C2184 C 0.37769 0.20238 0.6753 0.0
C2185 C 0.38456 0.16982 0.67414 0.0
C2186 C 0.39978 0.18902 0.68831 0.0
C2187 C 0.41203 0.22495 0.70323 0.0
C2188 C 0.40894 0.24166 0.70413 0.0
C2189 C 0.39662 0.20549 0.68901 0.0
C2190 C 0.38992 0.23816 0.69011 0.0
C2191 C 0.37461 0.21894 0.67596 0.0
H2192 H 0.91069 0.18695 0.65417 0.0
H2193 H 0.93415 0.24954 0.68561 0.0
H2194 H 0.90056 0.24262 0.70681 0.0
H2195 H 0.86403 0.21891 0.71652 0.0
H2196 H 0.84044 0.1563 0.68533 0.0
H2197 H 0.87406 0.16317 0.6641 0.0
C2198 C 0.9086 0.19916 0.66592 0.0
C2199 C 0.92551 0.2189 0.66826 0.0
C2200 C 0.88889 0.19505 0.67798 0.0
C2201 C 0.9219 0.23424 0.68339 0.0
C2202 C 0.90249 0.23026 0.6955 0.0
C2203 C 0.86609 0.20667 0.70484 0.0
C2204 C 0.84916 0.18696 0.7025 0.0
C2205 C 0.88578 0.21075 0.69284 0.0
C2206 C 0.85273 0.17157 0.68749 0.0
C2207 C 0.87215 0.17553 0.67538 0.0
H2208 H 0.05428 0.57351 0.49199 0.0
H2209 H 1.00176 0.51521 0.50856 0.0
H2210 H 1.02254 0.5009 0.52959 0.0
H2211 H 0.05588 0.50428 0.54347 0.0
H2212 H 0.10851 0.56252 0.52834 0.0
H2213 H 0.08778 0.57697 0.50693 0.0
C2214 C 1.04732 0.55771 0.50058 0.0
C2215 C 1.02617 0.54568 0.49857 0.0
C2216 C 0.05955 0.54928 0.51281 0.0
C2217 C 1.01781 0.52512 0.5096 0.0
C2218 C 1.02977 0.51677 0.52167 0.0
C2219 C 0.06289 0.52011 0.53519 0.0
C2220 C 0.08402 0.53208 0.53748 0.0
C2221 C 1.05071 0.5286 0.52323 0.0
C2222 C 0.09246 0.55268 0.52697 0.0
C2223 C 0.08052 0.56109 0.51471 0.0
H2224 H 0.54076 0.55984 0.55687 0.0
H2225 H 0.60284 0.58475 0.51933 0.0
H2226 H 0.59632 0.55142 0.49563 0.0
H2227 H 0.57286 0.51457 0.48497 0.0
H2228 H 0.5109 0.49 0.52368 0.0
H2229 H 0.51756 0.52326 0.54717 0.0
C2230 C 0.55295 0.55814 0.54332 0.0
C2231 C 0.5724 0.57534 0.53993 0.0
C2232 C 0.54909 0.53863 0.52995 0.0
C2233 C 0.58775 0.57222 0.52247 0.0
C2234 C 0.58399 0.55297 0.50888 0.0
C2235 C 0.56077 0.51637 0.49883 0.0
C2236 C 0.54126 0.49923 0.50246 0.0
C2237 C 0.56472 0.53594 0.51246 0.0
C2238 C 0.52603 0.50244 0.52037 0.0
C2239 C 0.52984 0.52167 0.53382 0.0
H2240 H 0.57537 0.07613 0.47973 0.0
H2241 H 0.59953 0.0381 0.5165 0.0
H2242 H 0.56634 1.01139 0.53894 0.0
H2243 H 0.53007 0.99808 0.54855 0.0
H2244 H 0.50509 1.03545 0.51313 0.0
H2245 H 0.53841 0.06255 0.48998 0.0
C2246 C 0.57346 0.06207 0.49294 0.0
C2247 C 0.59049 0.05955 0.49626 0.0
C2248 C 0.55387 0.04631 0.50592 0.0
C2249 C 0.58718 0.0409 0.5133 0.0
C2250 C 0.56799 1.02541 0.52619 0.0
C2251 C 0.53173 1.01206 0.53549 0.0
C2252 C 0.51457 1.0143 0.53251 0.0
C2253 C 0.55116 1.02782 0.52255 0.0
C2254 C 0.51762 1.03289 0.51575 0.0
C2255 C 0.53686 0.04855 0.50258 0.0
H2256 H 0.59045 1.03606 0.04744 0.0
H2257 H 0.53344 0.9831 0.02111 0.0
H2258 H 0.51903 1.00366 0.99929 0.0
H2259 H 0.52169 1.0369 0.98793 0.0
H2260 H 0.57851 0.09015 1.01279 0.0
H2261 H 0.59328 0.06967 0.03441 0.0
C2262 C 0.57496 1.02896 0.03636 0.0
C2263 C 0.56331 1.00767 0.03616 0.0
C2264 C 0.56635 0.04112 0.02377 0.0
C2265 C 0.54309 0.99922 0.02203 0.0
C2266 C 0.53465 1.01107 1.00947 0.0
C2267 C 0.53726 0.04412 0.99846 0.0
C2268 C 0.54869 0.06537 0.99886 0.0
C2269 C 0.54597 1.03208 1.01053 0.0
C2270 C 0.56902 0.07401 1.0121 0.0
C2271 C 0.57763 0.0622 0.02447 0.0
H2272 H 1.05272 0.49907 1.00487 0.0
H2273 H 1.00204 0.50783 0.99089 0.0
H2274 H 1.02291 0.54312 1.01115 0.0
H2275 H 0.05597 0.57252 0.03237 0.0
H2276 H 0.10692 0.56407 0.04435 0.0
H2277 H 0.08594 0.52864 0.02561 0.0
C2278 C 1.04615 0.5086 1.00671 0.0
C2279 C 1.02549 0.50026 0.9964 0.0
C2280 C 0.05851 0.52945 1.01782 0.0
C2281 C 1.0177 0.51338 0.99849 0.0
C2282 C 1.02973 0.5338 1.0101 0.0
C2283 C 0.06258 0.56303 0.03065 0.0
C2284 C 0.08335 0.57155 0.03984 0.0
C2285 C 1.05025 0.54219 0.01958 0.0
C2286 C 0.0912 0.55847 0.03746 0.0
C2287 C 0.0791 0.53793 0.02677 0.0
H2288 H 0.51878 0.50093 0.04567 0.0
H2289 H 0.5241 0.55892 0.02679 0.0
H2290 H 0.55917 0.57329 1.00533 0.0
H2291 H 0.58932 0.57004 0.99146 0.0
H2292 H 0.58409 0.51207 1.0097 0.0
H2293 H 0.54899 0.49765 0.03142 0.0
C2294 C 0.52751 0.51668 0.03655 0.0
C2295 C 0.51821 0.52858 0.038 0.0
C2296 C 0.5482 0.52517 0.02414 0.0
C2297 C 0.53032 0.54908 0.02623 0.0
C2298 C 0.55065 0.55747 1.01389 0.0
C2299 C 0.58061 0.55428 1.00051 0.0
C2300 C 0.58992 0.54241 0.99889 0.0
C2301 C 0.55992 0.54577 1.01283 0.0
C2302 C 0.57783 0.52188 1.01046 0.0
C2303 C 0.5575 0.51347 0.02294 0.0
H2304 H 0.37749 0.27765 0.02104 0.0
H2305 H 0.34161 0.21905 0.96025 0.0
H2306 H 0.36717 0.22748 0.89797 0.0
H2307 H 0.3999 0.25306 0.85622 0.0
H2308 H 0.43521 0.31065 0.92342 0.0
H2309 H 0.41036 0.30106 0.98579 0.0
C2310 C 0.37515 0.26646 0.99463 0.0
C2311 C 0.35708 0.24752 0.99659 0.0
C2312 C 0.39023 0.27139 0.95886 0.0
C2313 C 0.35503 0.23363 0.96107 0.0
C2314 C 0.36983 0.23859 0.92483 0.0
C2315 C 0.40248 0.26338 0.88502 0.0
C2316 C 0.42019 0.2829 0.88383 0.0
C2317 C 0.38759 0.2576 0.92266 0.0
C2318 C 0.4223 0.29569 0.92213 0.0
C2319 C 0.40784 0.2902 0.95832 0.0
H2320 H 0.8387 0.11538 0.93231 0.0
H2321 H 0.84517 0.15152 0.05481 0.0
H2322 H 0.83235 0.16981 1.00895 0.0
H2323 H 0.81651 0.17426 0.93417 0.0
H2324 H 0.81355 0.14023 0.81005 0.0
H2325 H 0.82753 0.12305 0.85527 0.0
C2326 C 0.83781 0.12758 0.94891 0.0
C2327 C 0.84336 0.13192 0.99775 0.0
C2328 C 0.83067 0.13856 0.92153 0.0
C2329 C 0.84156 0.14777 1.01767 0.0
C2330 C 0.83396 0.15824 0.99121 0.0
C2331 C 0.81934 0.16345 0.9165 0.0
C2332 C 0.81373 0.15886 0.86762 0.0
C2333 C 0.82811 0.15367 0.94308 0.0
C2334 C 0.81754 0.14443 0.84684 0.0
C2335 C 0.82557 0.1344 0.87307 0.0
H2336 H 0.94839 0.70033 0.83926 0.0
H2337 H 0.91235 0.65165 0.93422 0.0
H2338 H 0.92134 0.67543 1.0004 0.0
H2339 H 0.94267 0.71039 0.03464 0.0
H2340 H 0.97869 0.75867 0.93845 0.0
H2341 H 0.96656 0.73536 0.87146 0.0
C2342 C 0.94184 0.69487 0.87401 0.0
C2343 C 0.92891 0.67374 0.88016 0.0
C2344 C 0.94739 0.70891 0.91285 0.0
C2345 C 0.92163 0.6675 0.92682 0.0
C2346 C 0.92707 0.68128 0.9653 0.0
C2347 C 0.94729 0.71606 0.99887 0.0
C2348 C 0.96131 0.73702 0.99263 0.0
C2349 C 0.94029 0.70211 0.95932 0.0
C2350 C 0.96756 0.74319 0.94536 0.0
C2351 C 0.96073 0.72962 0.90657 0.0
H2352 H 0.24835 0.33067 0.6025 0.0
H2353 H 0.2849 0.3618 0.48123 0.0
H2354 H 0.30113 0.39297 0.52641 0.0
H2355 H 0.30775 0.41163 0.60302 0.0
H2356 H 0.26996 0.3821 0.7234 0.0
H2357 H 0.25179 0.35108 0.67688 0.0
C2358 C 0.25942 0.34434 0.5853 0.0
C2359 C 0.26496 0.34331 0.53715 0.0
C2360 C 0.26885 0.36292 0.61202 0.0
C2361 C 0.27984 0.36161 0.51725 0.0
C2362 C 0.28937 0.37967 0.54352 0.0
C2363 C 0.29512 0.39865 0.61892 0.0
C2364 C 0.29029 0.3999 0.66733 0.0
C2365 C 0.28438 0.38059 0.59128 0.0
C2366 C 0.27403 0.38229 0.68648 0.0
C2367 C 0.26366 0.36425 0.65966 0.0
H2368 H 0.68881 0.93811 0.62111 0.0
H2369 H 0.70109 0.89572 0.69063 0.0
H2370 H 0.72965 0.90529 0.63655 0.0
H2371 H 0.75311 0.92768 0.56987 0.0
H2372 H 0.73874 0.96944 0.50327 0.0
H2373 H 0.71005 0.95828 0.55441 0.0
C2374 C 0.69747 0.93063 0.62442 0.0
C2375 C 0.69212 0.91588 0.66074 0.0
C2376 C 0.71414 0.93638 0.59302 0.0
C2377 C 0.70416 0.90684 0.66341 0.0
C2378 C 0.72081 0.91251 0.63225 0.0
C2379 C 0.74362 0.9342 0.5659 0.0
C2380 C 0.74894 0.94979 0.53116 0.0
C2381 C 0.72627 0.92753 0.59681 0.0
C2382 C 0.73588 0.9577 0.52854 0.0
C2383 C 0.7191 0.95125 0.55831 0.0
H2384 H 0.14215 0.79802 0.50974 0.0
H2385 H 0.15759 0.85334 0.58043 0.0
H2386 H 0.17495 0.84532 0.64298 0.0
H2387 H 0.18403 0.82071 0.68212 0.0
H2388 H 0.16888 0.76639 0.60599 0.0
H2389 H 0.15374 0.77589 0.54296 0.0
C2390 C 0.14954 0.80863 0.53833 0.0
C2391 C 0.14832 0.82651 0.53905 0.0
C2392 C 0.15975 0.80392 0.57438 0.0
C2393 C 0.15817 0.83964 0.57745 0.0
C2394 C 0.16811 0.8349 0.61384 0.0
C2395 C 0.17795 0.81116 0.65122 0.0
C2396 C 0.17813 0.7926 0.64988 0.0
C2397 C 0.16888 0.81687 0.61339 0.0
C2398 C 0.16945 0.78067 0.60905 0.0
C2399 C 0.16053 0.78609 0.57254 0.0
H2400 H 0.72205 0.81927 0.1953 0.0
H2401 H 0.669 0.77445 0.12416 0.0
H2402 H 0.688 0.78156 0.04966 0.0
H2403 H 0.72028 0.7989 1.00473 0.0
H2404 H 0.77315 0.8451 0.07349 0.0
H2405 H 0.75385 0.83926 0.14753 0.0
C2406 C 0.71444 0.81122 0.16337 0.0
C2407 C 0.69365 0.79618 0.16655 0.0
C2408 C 0.72566 0.81562 0.11969 0.0
C2409 C 0.68457 0.78612 0.12395 0.0
C2410 C 0.69564 0.79016 0.08099 0.0
C2411 C 0.72771 0.808 0.03562 0.0
C2412 C 0.74859 0.8226 0.03228 0.0
C2413 C 0.71626 0.80464 0.07838 0.0
C2414 C 0.75739 0.83398 0.0736 0.0
C2415 C 0.74622 0.83046 0.11644 0.0
H2416 H 0.28669 0.93398 0.99939 0.0
H2417 H 0.24872 0.94711 0.08571 0.0
H2418 H 0.25662 0.93275 0.15549 0.0
H2419 H 0.27754 0.91921 0.19465 0.0
H2420 H 0.31515 0.90679 0.10468 0.0
H2421 H 0.30425 0.91784 0.03527 0.0
C2422 C 0.27964 0.93337 0.03315 0.0
C2423 C 0.26673 0.94166 0.03585 0.0
C2424 C 0.28446 0.92518 0.07345 0.0
C2425 C 0.25826 0.94068 0.08098 0.0
C2426 C 0.26306 0.93258 0.12143 0.0
C2427 C 0.28284 0.91822 0.15968 0.0
C2428 C 0.29697 0.9113 0.15581 0.0
C2429 C 0.27651 0.92506 0.1186 0.0
C2430 C 0.30403 0.91126 0.10966 0.0
C2431 C 0.29788 0.91786 0.06956 0.0
H2432 H 0.14932 0.37648 0.1898 0.0
H2433 H 0.20537 0.4207 0.12859 0.0
H2434 H 0.19959 0.3983 0.06079 0.0
H2435 H 0.17733 0.36674 1.01476 0.0
H2436 H 0.12251 0.32151 0.07883 0.0
H2437 H 0.12913 0.34322 0.14844 0.0
C2438 C 0.16053 0.38121 0.16211 0.0
C2439 C 0.17798 0.40073 0.16548 0.0
C2440 C 0.15721 0.36782 0.12297 0.0
C2441 C 0.192 0.40607 0.12832 0.0
C2442 C 0.18856 0.39313 0.08899 0.0
C2443 C 0.16699 0.3613 0.04442 0.0
C2444 C 0.14937 0.34192 0.04063 0.0
C2445 C 0.17109 0.37403 0.08534 0.0
C2446 C 0.13629 0.33579 0.07996 0.0
C2447 C 0.14004 0.34848 0.11999 0.0
H2448 H 0.85748 0.74297 0.43905 0.0
H2449 H 0.82034 0.71149 0.55927 0.0
H2450 H 0.80455 0.68037 0.51378 0.0
H2451 H 0.79858 0.66189 0.43725 0.0
H2452 H 0.83669 0.6919 0.31763 0.0
H2453 H 0.85448 0.72284 0.36456 0.0
C2454 C 0.84633 0.72924 0.45589 0.0
C2455 C 0.84049 0.73009 0.5038 0.0
C2456 C 0.83715 0.71073 0.42899 0.0
C2457 C 0.82557 0.71176 0.52339 0.0
C2458 C 0.81632 0.69375 0.49697 0.0
C2459 C 0.81119 0.67498 0.42162 0.0
C2460 C 0.81623 0.6739 0.37332 0.0
C2461 C 0.82162 0.69298 0.4494 0.0
C2462 C 0.83246 0.69159 0.35446 0.0
C2463 C 0.8426 0.70958 0.3815 0.0
H2464 H 0.38118 0.12589 0.51392 0.0
H2465 H 0.33741 0.13758 0.44977 0.0
H2466 H 0.36015 0.15406 0.38244 0.0
H2467 H 0.3918 0.16316 0.33758 0.0
H2468 H 0.4365 0.15344 0.40382 0.0
H2469 H 0.41457 0.13871 0.47334 0.0
C2470 C 0.37666 0.13238 0.48574 0.0
C2471 C 0.35717 0.13035 0.48819 0.0
C2472 C 0.3902 0.14227 0.44671 0.0
C2473 C 0.35204 0.1389 0.45028 0.0
C2474 C 0.36516 0.14829 0.4112 0.0
C2475 C 0.39707 0.15828 0.36765 0.0
C2476 C 0.41635 0.15989 0.36452 0.0
C2477 C 0.38421 0.14985 0.40842 0.0
C2478 C 0.42228 0.15302 0.40441 0.0
C2479 C 0.40947 0.1443 0.44439 0.0
H2480 H 0.96052 0.27164 0.52638 0.0
H2481 H 0.95711 0.22079 0.45437 0.0
H2482 H 0.94154 0.2273 0.38562 0.0
H2483 H 0.93125 0.24923 0.34179 0.0
H2484 H 0.93294 0.29907 0.41495 0.0
H2485 H 0.94631 0.29115 0.48598 0.0
C2486 C 0.95588 0.26154 0.49627 0.0
C2487 C 0.95991 0.24526 0.4972 0.0
C2488 C 0.94663 0.26542 0.45609 0.0
C2489 C 0.95401 0.23299 0.45641 0.0
C2490 C 0.9452 0.23693 0.41642 0.0
C2491 C 0.93404 0.25817 0.37359 0.0
C2492 C 0.93059 0.27481 0.3719 0.0
C2493 C 0.9417 0.25331 0.41523 0.0
C2494 C 0.93483 0.28607 0.41417 0.0
C2495 C 0.94276 0.28158 0.45511 0.0
H2496 H 0.09121 0.60109 0.25656 0.0
H2497 H 0.06309 0.61796 0.14773 0.0
H2498 H 1.03277 0.60463 0.19525 0.0
H2499 H 1.0141 0.59035 0.27073 0.0
H2500 H 1.04007 0.57083 0.37858 0.0
H2501 H 0.07029 0.58249 0.32952 0.0
C2502 C 0.07834 0.60144 0.2425 0.0
C2503 C 0.08008 0.61081 0.19721 0.0
C2504 C 0.06013 0.59325 0.27063 0.0
C2505 C 0.0628 0.61105 0.1815 0.0
C2506 C 1.0452 0.6034 0.20912 0.0
C2507 C 1.02612 0.58814 0.28332 0.0
C2508 C 1.02413 0.57924 0.32902 0.0
C2509 C 1.04365 0.59476 0.25418 0.0
C2510 C 1.04046 0.57709 0.34383 0.0
C2511 C 0.05806 0.58403 0.31556 0.0
H2512 H 0.50496 0.44553 0.26595 0.0
H2513 H 0.51649 0.48555 0.38347 0.0
H2514 H 0.5039 0.50385 0.33671 0.0
H2515 H 0.48686 0.50742 0.26271 0.0
H2516 H 0.47819 0.46872 0.14382 0.0
H2517 H 0.49224 0.45176 0.18954 0.0
C2518 C 0.50522 0.45855 0.28125 0.0
C2519 C 0.51218 0.46397 0.32901 0.0
C2520 C 0.49816 0.46949 0.2533 0.0
C2521 C 0.5118 0.48088 0.34718 0.0
C2522 C 0.50433 0.4914 0.32018 0.0
C2523 C 0.48853 0.49568 0.24609 0.0
C2524 C 0.48138 0.48984 0.19839 0.0
C2525 C 0.49715 0.48579 0.27313 0.0
C2526 C 0.48357 0.47407 0.1794 0.0
C2527 C 0.49158 0.4641 0.20602 0.0
H2528 H 0.62821 0.03957 0.3632 0.0
H2529 H 0.61922 0.08217 0.28408 0.0
H2530 H 0.60212 0.05698 0.22109 0.0
H2531 H 0.59194 1.02274 0.18383 0.0
H2532 H 0.60151 0.9812 0.2667 0.0
H2533 H 0.6156 1.00547 0.33095 0.0
C2534 C 0.62215 0.04339 0.33277 0.0
C2535 C 0.62504 0.06318 0.32997 0.0
C2536 C 0.61232 1.02865 0.29613 0.0
C2537 C 0.61715 0.06732 0.28892 0.0
C2538 C 0.60742 0.05275 0.25222 0.0
C2539 C 0.59651 1.01869 0.21645 0.0
C2540 C 0.59499 0.99934 0.21956 0.0
C2541 C 0.6051 1.03329 0.25469 0.0
C2542 C 0.60189 0.99535 0.26243 0.0
C2543 C 0.61022 1.00948 0.2996 0.0
H2544 H 0.48351 0.99491 0.76849 0.0
H2545 H 0.48612 1.02784 0.64232 0.0
H2546 H 0.50157 0.05906 0.68783 0.0
H2547 H 0.51168 0.07735 0.76585 0.0
H2548 H 0.51203 0.04537 0.89098 0.0
H2549 H 0.49875 1.01439 0.84447 0.0
C2550 C 0.48802 1.00895 0.75039 0.0
C2551 C 0.48366 1.00849 0.70074 0.0
C2552 C 0.49749 1.02744 0.77726 0.0
C2553 C 0.48941 1.02724 0.67954 0.0
C2554 C 0.49819 0.04531 0.70599 0.0
C2555 C 0.50957 0.06381 0.78286 0.0
C2556 C 0.51357 0.06438 0.83266 0.0
C2557 C 0.50203 0.04571 0.75518 0.0
C2558 C 0.50988 0.04608 0.85312 0.0
C2559 C 0.50193 1.02806 0.82627 0.0
H2560 H 0.06036 0.46583 0.67988 0.0
H2561 H 0.10424 0.52185 0.74194 0.0
H2562 H 0.08165 0.51582 0.80946 0.0
H2563 H 1.05002 0.49334 0.85502 0.0
H2564 H 1.00515 0.43855 0.79014 0.0
H2565 H 1.02703 0.44543 0.72077 0.0
C2566 C 0.06498 0.47698 0.7077 0.0
C2567 C 0.08447 0.4945 0.70464 0.0
C2568 C 1.05148 0.47352 0.74667 0.0
C2569 C 0.08965 0.50843 0.74197 0.0
C2570 C 0.0766 0.50485 0.78114 0.0
C2571 C 1.04469 0.48307 0.82522 0.0
C2572 C 1.02534 0.46538 0.82871 0.0
C2573 C 0.05753 0.48732 0.78446 0.0
C2574 C 1.01938 0.45239 0.78922 0.0
C2575 C 1.03218 0.45628 0.74935 0.0
H2576 H 0.60088 0.58987 0.67715 0.0
H2577 H 0.60012 0.63481 0.76651 0.0
H2578 H 0.61217 0.62365 0.83348 0.0
H2579 H 0.62633 0.60341 0.86676 0.0
H2580 H 0.62681 0.55768 0.78038 0.0
H2581 H 0.6117 0.56652 0.71433 0.0
C2582 C 0.60256 0.59676 0.71167 0.0
C2583 C 0.59871 0.61308 0.71594 0.0
C2584 C 0.60995 0.59022 0.75134 0.0
C2585 C 0.60215 0.62202 0.76135 0.0
C2586 C 0.60939 0.61573 0.80005 0.0
C2587 C 0.62271 0.59493 0.83396 0.0
C2588 C 0.62768 0.57946 0.83 0.0
C2589 C 0.61381 0.60015 0.79557 0.0
C2590 C 0.62301 0.56927 0.78598 0.0
C2591 C 0.61442 0.57453 0.7476 0.0
H2592 H 0.25479 0.24386 0.36634 0.0
H2593 H 0.25607 0.29071 0.28024 0.0
H2594 H 0.27041 0.28128 0.21418 0.0
H2595 H 0.28169 0.25858 0.17722 0.0
H2596 H 0.28465 0.21468 0.26616 0.0
H2597 H 0.26977 0.2237 0.33206 0.0
C2598 C 0.2581 0.25208 0.33319 0.0
C2599 C 0.25351 0.26801 0.32948 0.0
C2600 C 0.26729 0.24691 0.29461 0.0
C2601 C 0.2588 0.27837 0.28551 0.0
C2602 C 0.26715 0.27288 0.24707 0.0
C2603 C 0.27957 0.25117 0.21122 0.0
C2604 C 0.28495 0.23584 0.21534 0.0
C2605 C 0.27139 0.25705 0.2506 0.0
C2606 C 0.28125 0.22655 0.26054 0.0
C2607 C 0.27251 0.23174 0.29878 0.0
H2608 H 0.82812 0.0467 0.17447 0.0
H2609 H 0.88203 0.0855 0.25158 0.0
H2610 H 0.87221 0.06003 0.31413 0.0
H2611 H 0.84848 1.02576 0.34848 0.0
H2612 H 0.79456 0.98685 0.27149 0.0
H2613 H 0.80455 1.01216 0.20865 0.0
C2614 C 0.83772 0.04983 0.20514 0.0
C2615 C 0.85595 0.06889 0.20743 0.0
C2616 C 0.83196 1.03457 0.24183 0.0
C2617 C 0.86792 0.07166 0.24792 0.0
C2618 C 0.86225 0.05681 0.28414 0.0
C2619 C 0.83868 1.02273 0.31825 0.0
C2620 C 0.82046 1.00368 0.31613 0.0
C2621 C 0.84432 0.03805 0.28183 0.0
C2622 C 0.80845 1.00087 0.27567 0.0
C2623 C 0.81417 1.01568 0.23932 0.0
H2624 H 1.04064 0.79908 0.19126 0.0
H2625 H 1.00582 0.82161 0.2576 0.0
H2626 H 1.03138 0.83764 0.31919 0.0
H2627 H 0.0645 0.84608 0.35643 0.0
H2628 H 0.1 0.82445 0.28878 0.0
H2629 H 0.07395 0.80747 0.22841 0.0
C2630 C 1.0382 0.80688 0.21969 0.0
C2631 C 1.02022 0.8081 0.21894 0.0
C2632 C 1.05361 0.81666 0.25587 0.0
C2633 C 1.01878 0.8197 0.25608 0.0
C2634 C 1.03368 0.8291 0.2919 0.0
C2635 C 0.06673 0.83772 0.32856 0.0
C2636 C 0.08488 0.83683 0.3289 0.0
C2637 C 1.05134 0.82785 0.29251 0.0
C2638 C 0.08669 0.82569 0.29116 0.0
C2639 C 0.07153 0.81582 0.25597 0.0
H2640 H 0.85945 0.83312 0.6757 0.0
H2641 H 0.84494 0.77931 0.75318 0.0
H2642 H 0.82883 0.78865 0.81519 0.0
H2643 H 0.81941 0.81288 0.85115 0.0
H2644 H 0.83208 0.86571 0.77172 0.0
H2645 H 0.84799 0.85626 0.70925 0.0
C2646 C 0.85286 0.82336 0.70613 0.0
C2647 C 0.85402 0.80533 0.70865 0.0
C2648 C 0.84299 0.82877 0.74239 0.0
C2649 C 0.84477 0.79318 0.74901 0.0
C2650 C 0.83539 0.79861 0.78506 0.0
C2651 C 0.82516 0.82221 0.81975 0.0
C2652 C 0.82369 0.84006 0.81693 0.0
C2653 C 0.83438 0.81643 0.78266 0.0
C2654 C 0.83225 0.85183 0.77573 0.0
C2655 C 0.8416 0.84639 0.73959 0.0
H2656 H 0.28264 1.01582 0.8213 0.0
H2657 H 0.22098 0.99974 0.81119 0.0
H2658 H 0.22964 1.0256 0.75024 0.0
H2659 H 0.25528 0.05469 0.69997 0.0
H2660 H 0.31747 0.07578 0.72671 0.0
H2661 H 0.30842 0.04805 0.78194 0.0
C2662 C 0.27107 1.01813 0.80717 0.0
C2663 C 0.25092 1.00507 0.82276 0.0
C2664 C 0.27647 1.03458 0.77405 0.0
C2665 C 0.23653 1.00879 0.80097 0.0
C2666 C 0.24157 1.02395 0.76575 0.0
C2667 C 0.26703 0.05328 0.71733 0.0
C2668 C 0.28751 0.06766 0.70585 0.0
C2669 C 0.26159 0.03725 0.7519 0.0
C2670 C 0.30184 0.06509 0.73137 0.0
C2671 C 0.29656 0.04893 0.76369 0.0
H2672 H 1.04053 0.26392 0.69389 0.0
H2673 H 1.00786 0.20496 0.75484 0.0
H2674 H 1.03366 0.21443 0.81561 0.0
H2675 H 0.06641 0.2393 0.85342 0.0
H2676 H 0.10047 0.29784 0.79048 0.0
H2677 H 0.07399 0.28902 0.73125 0.0
C2678 C 1.03873 0.25319 0.7207 0.0
C2679 C 1.02124 0.23354 0.71868 0.0
C2680 C 0.0544 0.25877 0.75631 0.0
C2681 C 1.02044 0.22012 0.75423 0.0
C2682 C 1.03549 0.22559 0.78958 0.0
C2683 C 0.06826 0.25027 0.82682 0.0
C2684 C 0.0861 0.26962 0.82828 0.0
C2685 C 1.05272 0.24485 0.79128 0.0
C2686 C 0.08738 0.28306 0.79216 0.0
C2687 C 0.07198 0.27789 0.75756 0.0
H2688 H 0.94882 0.61375 0.67728 0.0
H2689 H 0.88878 0.58494 0.6225 0.0
H2690 H 0.89787 0.56848 0.56134 0.0
H2691 H 0.92272 0.56112 0.52119 0.0
H2692 H 0.9825 0.58847 0.57722 0.0
H2693 H 0.97383 0.60573 0.63719 0.0
C2694 C 0.93773 0.60419 0.65167 0.0
C2695 C 0.91787 0.60138 0.65562 0.0
C2696 C 0.9431 0.59404 0.6156 0.0
C2697 C 0.90409 0.58804 0.62164 0.0
C2698 C 0.90935 0.57838 0.58601 0.0
C2699 C 0.93403 0.57089 0.54635 0.0
C2700 C 0.95365 0.57318 0.54274 0.0
C2701 C 0.92879 0.58107 0.58228 0.0
C2702 C 0.96748 0.58612 0.57712 0.0
C2703 C 0.96242 0.59623 0.6122 0.0
H2704 H 0.53442 0.38626 0.53472 0.0
H2705 H 0.49726 0.4112 0.57094 0.0
H2706 H 0.47902 0.38396 0.62848 0.0
H2707 H 0.47346 0.3525 0.67184 0.0
H2708 H 0.51222 0.32909 0.63802 0.0
H2709 H 0.52934 0.35552 0.57858 0.0
C2710 C 0.52235 0.38592 0.55502 0.0
C2711 C 0.51756 0.40146 0.54676 0.0
C2712 C 0.5118 0.36994 0.58948 0.0
C2713 C 0.50165 0.39998 0.57485 0.0
C2714 C 0.49106 0.38413 0.60839 0.0
C2715 C 0.48531 0.35272 0.65089 0.0
C2716 C 0.4907 0.3376 0.65981 0.0
C2717 C 0.49584 0.36882 0.61636 0.0
C2718 C 0.50703 0.33965 0.6326 0.0
C2719 C 0.51707 0.35508 0.59817 0.0
H2720 H 0.70445 0.1248 0.52582 0.0
H2721 H 0.67696 0.15827 0.57472 0.0
H2722 H 0.70336 0.1751 0.63377 0.0
H2723 H 0.73528 0.18161 0.67333 0.0
H2724 H 0.76422 0.14976 0.6234 0.0
H2725 H 0.73746 0.1322 0.56489 0.0
C2726 C 0.70396 0.13558 0.54959 0.0
C2727 C 0.68772 0.13962 0.54473 0.0
C2728 C 0.72003 0.14598 0.58431 0.0
C2729 C 0.68854 0.15428 0.57641 0.0
C2730 C 0.70394 0.16414 0.61078 0.0
C2731 C 0.73586 0.17076 0.64996 0.0
C2732 C 0.75244 0.16734 0.65462 0.0
C2733 C 0.71995 0.16033 0.61536 0.0
C2734 C 0.75211 0.15299 0.6226 0.0
C2735 C 0.73647 0.1427 0.58855 0.0
H2736 H 0.51559 0.17374 0.18938 0.0
H2737 H 0.4649 0.16421 0.1058 0.0
H2738 H 0.4746 0.1485 0.04329 0.0
H2739 H 0.49814 0.13734 1.00968 0.0
H2740 H 0.54821 0.14638 0.09518 0.0
H2741 H 0.53823 0.16179 0.15734 0.0
C2742 C 0.50649 0.1682 0.15764 0.0
C2743 C 0.48929 0.17065 0.1536 0.0
C2744 C 0.51203 0.15853 0.12131 0.0
C2745 C 0.47806 0.16289 0.11135 0.0
C2746 C 0.48366 0.15366 0.07512 0.0
C2747 C 0.50657 0.14195 0.04247 0.0
C2748 C 0.52382 0.13953 0.0471 0.0
C2749 C 0.50062 0.1512 0.07933 0.0
C2750 C 0.53479 0.14725 0.08965 0.0
C2751 C 0.52904 0.15628 0.12574 0.0
H2752 H 0.94937 0.35489 0.17296 0.0
H2753 H 0.88818 0.32546 0.12705 0.0
H2754 H 0.897 0.35085 0.06474 0.0
H2755 H 0.92214 0.38268 0.0223 0.0
H2756 H 0.98253 0.41434 0.0751 0.0
H2757 H 0.97423 0.3877 0.1335 0.0
C2758 C 0.93793 0.35379 0.1493 0.0
C2759 C 0.91794 0.33728 0.15556 0.0
C2760 C 0.94311 0.36939 0.11376 0.0
C2761 C 0.90365 0.33719 0.12389 0.0
C2762 C 0.90876 0.35205 0.08787 0.0
C2763 C 0.93363 0.38395 0.04648 0.0
C2764 C 0.95342 0.40109 0.04198 0.0
C2765 C 0.92844 0.36845 0.08227 0.0
C2766 C 0.96746 0.40172 0.07534 0.0
C2767 C 0.96259 0.38626 0.10959 0.0
H2768 H 0.75295 0.57798 0.1272 0.0
H2769 H 0.74524 0.62589 0.1788 0.0
H2770 H 0.71457 0.61371 0.13172 0.0
H2771 H 0.68876 0.58862 0.07354 0.0
H2772 H 0.70066 0.54461 1.01156 0.0
H2773 H 0.72949 0.55542 0.06362 0.0
C2774 C 0.74467 0.58589 0.12844 0.0
C2775 C 0.75168 0.60287 0.15947 0.0
C2776 C 0.72717 0.57917 0.09828 0.0
C2777 C 0.74031 0.61259 0.15803 0.0
C2778 C 0.72262 0.60557 0.13011 0.0
C2779 C 0.69777 0.58155 0.07045 0.0
C2780 C 0.69182 0.56555 0.03671 0.0
C2781 C 0.71564 0.58874 0.09978 0.0
C2782 C 0.70413 0.55676 0.03598 0.0
C2783 C 0.72099 0.56308 0.06616 0.0
H2784 H 0.58984 0.89174 0.8577 0.0
H2785 H 0.65019 0.92206 0.91069 0.0
H2786 H 0.64099 0.93916 0.97033 0.0
H2787 H 0.61542 0.94566 1.01105 0.0
H2788 H 0.55454 0.91341 0.96168 0.0
H2789 H 0.56416 0.89761 0.89948 0.0
C2790 C 0.60115 0.9021 0.88206 0.0
C2791 C 0.62116 0.90546 0.87754 0.0
C2792 C 0.59552 0.91196 0.91802 0.0
C2793 C 0.63495 0.91907 0.91104 0.0
C2794 C 0.62955 0.92895 0.94599 0.0
C2795 C 0.6042 0.93551 0.98625 0.0
C2796 C 0.584 0.93158 0.99164 0.0
C2797 C 0.60987 0.9257 0.95018 0.0
C2798 C 0.5701 0.91745 0.95916 0.0
C2799 C 0.57568 0.90817 0.92314 0.0
H2800 H 0.13556 0.67194 0.9659 0.0
H2801 H 0.19181 0.68106 1.01893 0.0
H2802 H 0.2097 0.70981 0.96607 0.0
H2803 H 0.2104 0.73401 0.90413 0.0
H2804 H 0.15447 0.72809 0.86058 0.0
H2805 H 0.13635 0.69828 0.90973 0.0
C2806 C 0.15172 0.68032 0.96704 0.0
C2807 C 0.16185 0.67356 0.99849 0.0
C2808 C 0.16242 0.69822 0.93751 0.0
C2809 C 0.18302 0.68512 0.99642 0.0
C2810 C 0.19351 0.70197 0.96577 0.0
C2811 C 0.19423 0.72644 0.90537 0.0
C2812 C 0.18426 0.73439 0.87707 0.0
C2813 C 0.18353 0.70897 0.93607 0.0
C2814 C 0.16315 0.72348 0.88099 0.0
C2815 C 0.15254 0.70589 0.90951 0.0
H2816 H 0.39842 0.51259 1.01909 0.0
H2817 H 0.43319 0.48995 0.95226 0.0
H2818 H 0.40756 0.47409 0.89045 0.0
H2819 H 0.37363 0.46495 0.85423 0.0
H2820 H 0.34041 0.48981 0.91931 0.0
H2821 H 0.36583 0.50511 0.98129 0.0
C2822 C 0.4005 0.5041 0.99131 0.0
C2823 C 0.41839 0.50275 0.99211 0.0
C2824 C 0.38519 0.49455 0.95497 0.0
C2825 C 0.42005 0.49151 0.95435 0.0
C2826 C 0.40502 0.48209 0.91859 0.0
C2827 C 0.37169 0.47349 0.88214 0.0
C2828 C 0.35412 0.47551 0.88112 0.0
C2829 C 0.38722 0.48316 0.91835 0.0
C2830 C 0.35306 0.4874 0.91804 0.0
C2831 C 0.36788 0.49637 0.95407 0.0
H2832 H 0.17608 0.49799 0.53319 0.0
H2833 H 0.14122 0.51118 0.43577 0.0
H2834 H 0.15294 0.49905 0.36939 0.0
H2835 H 0.174 0.48504 0.33652 0.0
H2836 H 0.20433 0.46669 0.4353 0.0
H2837 H 0.19378 0.48012 0.50139 0.0
C2838 C 0.17095 0.49828 0.49752 0.0
C2839 C 0.15777 0.50622 0.49079 0.0
C2840 C 0.17716 0.49018 0.45867 0.0
C2841 C 0.15132 0.50564 0.44344 0.0
C2842 C 0.15814 0.49859 0.40489 0.0
C2843 C 0.17833 0.48383 0.37243 0.0
C2844 C 0.19045 0.47469 0.37941 0.0
C2845 C 0.17123 0.4909 0.41159 0.0
C2846 C 0.19526 0.4734 0.42734 0.0
C2847 C 0.18914 0.48123 0.4657 0.0
H2848 H 0.59124 0.71533 0.35453 0.0
H2849 H 0.64935 0.7492 0.41897 0.0
H2850 H 0.64009 0.72264 0.47832 0.0
H2851 H 0.6148 0.68912 0.51508 0.0
H2852 H 0.55633 0.65649 0.45288 0.0
H2853 H 0.5661 0.68247 0.39205 0.0
C2854 C 0.60201 0.7171 0.38152 0.0
C2855 C 0.62139 0.73491 0.38049 0.0
C2856 C 0.59635 0.70148 0.41706 0.0
C2857 C 0.63456 0.73614 0.41707 0.0
C2858 C 0.62915 0.72069 0.45169 0.0
C2859 C 0.60429 0.68737 0.48794 0.0
C2860 C 0.5847 0.66987 0.48956 0.0
C2861 C 0.61005 0.7031 0.45242 0.0
C2862 C 0.57145 0.6691 0.45375 0.0
C2863 C 0.5771 0.68424 0.41839 0.0
H2864 H 0.40275 0.94531 0.5098 0.0
H2865 H 0.43392 0.91712 0.45138 0.0
H2866 H 0.40793 0.90071 0.39112 0.0
H2867 H 0.37538 0.89324 0.35319 0.0
H2868 H 0.34243 0.91903 0.41477 0.0
H2869 H 0.36923 0.93694 0.47301 0.0
C2870 C 0.40408 0.93578 0.48386 0.0
C2871 C 0.4212 0.93311 0.48636 0.0
C2872 C 0.38827 0.92561 0.44866 0.0
C2873 C 0.42159 0.92003 0.45162 0.0
C2874 C 0.40644 0.91042 0.41657 0.0
C2875 C 0.37388 0.90275 0.37921 0.0
C2876 C 0.35634 0.9047 0.37737 0.0
C2877 C 0.38952 0.91289 0.41445 0.0
C2878 C 0.35543 0.91723 0.41289 0.0
C2879 C 0.37096 0.92752 0.44711 0.0
H2880 H 0.32834 0.33064 0.04607 0.0
H2881 H 0.33619 0.35906 0.1822 0.0
H2882 H 0.34171 0.38974 0.14365 0.0
H2883 H 0.35639 0.41058 0.07401 0.0
H2884 H 0.35613 0.38369 0.93981 0.0
H2885 H 0.33445 0.35037 0.9731 0.0
C2886 C 0.33024 0.3433 0.067 0.0
C2887 C 0.33211 0.34291 0.11649 0.0
C2888 C 0.3351 0.36134 0.04436 0.0
C2889 C 0.3347 0.35918 0.14398 0.0
C2890 C 0.33807 0.37677 0.12182 0.0
C2891 C 0.35061 0.39747 0.05133 0.0
C2892 C 0.35846 0.39933 1.00538 0.0
C2893 C 0.3401 0.3785 0.07222 0.0
C2894 C 0.35059 0.38242 0.97578 0.0
C2895 C 0.33854 0.36338 0.99515 0.0
H2896 H 0.69978 0.96447 0.08938 0.0
H2897 H 0.68229 0.98066 0.22044 0.0
H2898 H 0.71278 0.98655 0.25812 0.0
H2899 H 0.74789 0.9998 0.2429 0.0
H2900 H 0.76739 0.98727 0.1107 0.0
H2901 H 0.73272 0.96612 0.08595 0.0
C2902 C 0.70241 0.96868 0.12659 0.0
C2903 C 0.68922 0.97304 0.15115 0.0
C2904 C 0.72057 0.97302 0.14781 0.0
C2905 C 0.6923 0.97755 0.20005 0.0
C2906 C 0.7099 0.98107 0.22185 0.0
C2907 C 0.74475 0.99179 0.20951 0.0
C2908 C 0.75994 0.99729 0.17553 0.0
C2909 C 0.72486 0.98082 0.19454 0.0
C2910 C 0.75564 0.98484 0.13543 0.0
C2911 C 0.73578 0.97294 0.12088 0.0
H2912 H 0.083 0.77015 0.08725 0.0
H2913 H 0.09508 0.75022 0.22008 0.0
H2914 H 0.11623 0.73985 0.17856 0.0
H2915 H 0.12113 0.72678 0.10397 0.0
H2916 H 0.10249 0.7406 0.97167 0.0
H2917 H 0.09462 0.76368 1.01303 0.0
C2918 C 0.09104 0.76446 0.10758 0.0
C2919 C 0.08714 0.76046 0.15647 0.0
C2920 C 0.10163 0.75702 0.08299 0.0
C2921 C 0.09764 0.75309 0.18229 0.0
C2922 C 0.10954 0.747 0.15843 0.0
C2923 C 0.11627 0.73562 0.08391 0.0
C2924 C 0.11204 0.73189 0.03512 0.0
C2925 C 0.11017 0.74737 0.10852 0.0
C2926 C 0.10565 0.74322 1.00934 0.0
C2927 C 0.10098 0.75621 0.03311 0.0
H2928 H 0.41252 0.34474 0.34101 0.0
H2929 H 0.41791 0.39926 0.28378 0.0
H2930 H 0.38819 0.37973 0.23547 0.0
H2931 H 0.3562 0.34917 0.23436 0.0
H2932 H 0.35 0.29454 0.29236 0.0
H2933 H 0.38548 0.31213 0.31256 0.0
C2934 C 0.4078 0.35243 0.31649 0.0
C2935 C 0.41662 0.37343 0.3182 0.0
C2936 C 0.39056 0.34112 0.28927 0.0
C2937 C 0.41061 0.38307 0.28514 0.0
C2938 C 0.39373 0.37192 0.25717 0.0
C2939 C 0.36259 0.34065 0.24919 0.0
C2940 C 0.35012 0.32107 0.26631 0.0
C2941 C 0.38266 0.35108 0.26258 0.0
C2942 C 0.35912 0.31011 0.28202 0.0
C2943 C 0.37938 0.32022 0.29409 0.0
H2944 H 0.77912 0.06735 0.50535 0.0
H2945 H 0.73576 1.01228 0.57341 0.0
H2946 H 0.72672 1.03103 0.62762 0.0
H2947 H 0.72244 0.06005 0.63041 0.0
H2948 H 0.76513 0.11516 0.56235 0.0
H2949 H 0.78423 0.09959 0.53587 0.0
C2950 C 0.76839 0.05947 0.53342 0.0
C2951 C 0.75705 0.0384 0.53332 0.0
C2952 C 0.76306 0.07032 0.5641 0.0
C2953 C 0.74375 1.02849 0.571 0.0
C2954 C 0.73869 0.03919 0.60228 0.0
C2955 C 0.73659 0.0692 0.61241 0.0
C2956 C 0.74136 0.08804 0.59398 0.0
C2957 C 0.74682 0.05982 0.59561 0.0
C2958 C 0.76045 0.10004 0.57398 0.0
C2959 C 0.77121 0.09103 0.55812 0.0
H2960 H 1.02842 0.74674 0.41835 0.0
H2961 H 1.02023 0.71579 0.28552 0.0
H2962 H 0.99819 0.68384 0.32445 0.0
H2963 H 0.992 0.66523 0.39893 0.0
H2964 H 1.00749 0.69677 0.53224 0.0
H2965 H 1.01523 0.72786 0.49139 0.0
C2966 C 1.02098 0.73313 0.39735 0.0
C2967 C 1.02625 0.73349 0.34931 0.0
C2968 C 1.00996 0.7148 0.42092 0.0
C2969 C 1.01653 0.71579 0.32259 0.0
C2970 C 1.00415 0.69751 0.34508 0.0
C2971 C 0.99602 0.67874 0.41901 0.0
C2972 C 0.99939 0.67901 0.4681 0.0
C2973 C 1.00229 0.69678 0.39478 0.0
C2974 C 1.00482 0.69643 0.49433 0.0
C2975 C 1.00951 0.7142 0.47083 0.0
H2976 H 0.75244 0.66149 0.97642 0.0
H2977 H 0.74942 0.68632 0.11131 0.0
H2978 H 0.77262 0.71996 0.08229 0.0
H2979 H 0.78293 0.74135 1.01134 0.0
H2980 H 0.77932 0.71521 0.87364 0.0
H2981 H 0.77073 0.6834 0.91089 0.0
C2982 C 0.75756 0.67408 1.00052 0.0
C2983 C 0.74851 0.6715 0.04542 0.0
C2984 C 0.76951 0.69337 0.98219 0.0
C2985 C 0.75573 0.68801 0.0762 0.0
C2986 C 0.76884 0.70727 0.05933 0.0
C2987 C 0.78086 0.72881 0.98972 0.0
C2988 C 0.78073 0.73024 0.93985 0.0
C2989 C 0.77416 0.71011 1.01108 0.0
C2990 C 0.77904 0.71435 0.91209 0.0
C2991 C 0.77385 0.69604 0.93341 0.0
H2992 H 0.34861 0.06657 0.96556 0.0
H2993 H 0.38132 0.08808 0.83435 0.0
H2994 H 0.41271 0.10578 0.8786 0.0
H2995 H 0.43018 0.10407 0.94937 0.0
H2996 H 0.39655 0.07438 0.07517 0.0
H2997 H 0.36639 0.07151 0.03983 0.0
C2998 C 0.36252 0.07604 0.94685 0.0
C2999 C 0.36286 0.07571 0.89691 0.0
C3000 C 0.38048 0.08425 0.97215 0.0
C3001 C 0.38086 0.088 0.87285 0.0
C3002 C 0.39879 0.09783 0.89818 0.0
C3003 C 0.41643 0.09792 0.9698 0.0
C3004 C 0.4154 0.08937 1.01461 0.0
C3005 C 0.39882 0.09443 0.94724 0.0
C3006 C 0.3976 0.08118 0.04083 0.0
C3007 C 0.38032 0.07927 0.02022 0.0
H3008 H 0.99059 0.31955 0.02163 0.0
H3009 H 0.97327 0.33998 0.89758 0.0
H3010 H 0.98156 0.31968 0.84675 0.0
H3011 H 1.00543 0.30752 0.83814 0.0
H3012 H 1.02388 0.28826 0.96239 0.0
H3013 H 1.0028 0.29576 1.01239 0.0
C3014 C 0.98749 0.31853 0.98378 0.0
C3015 C 0.98216 0.33174 0.96302 0.0
C3016 C 0.99305 0.3074 0.9546 0.0
C3017 C 0.97775 0.33015 0.91419 0.0
C3018 C 0.98279 0.31876 0.88495 0.0
C3019 C 1.00384 0.30387 0.87574 0.0
C3020 C 1.01669 0.29817 0.89694 0.0
C3021 C 0.99227 0.30897 0.90457 0.0
C3022 C 1.01434 0.29301 0.94542 0.0
C3023 C 1.0025 0.2976 0.97424 0.0
H3024 H 0.76723 0.77746 0.59585 0.0
H3025 H 0.73568 0.76364 0.72928 0.0
H3026 H 0.7045 0.75423 0.68742 0.0
H3027 H 0.68602 0.73887 0.61556 0.0
H3028 H 0.717 0.7467 0.48255 0.0
H3029 H 0.74868 0.7698 0.52112 0.0
C3030 C 0.7537 0.77344 0.6158 0.0
C3031 C 0.75347 0.77073 0.66532 0.0
C3032 C 0.73564 0.76622 0.59123 0.0
C3033 C 0.73602 0.7656 0.69108 0.0
C3034 C 0.71819 0.75992 0.66701 0.0
C3035 C 0.69947 0.74631 0.59413 0.0
C3036 C 0.69926 0.74048 0.54654 0.0
C3037 C 0.71763 0.7584 0.61722 0.0
C3038 C 0.7169 0.75047 0.51959 0.0
C3039 C 0.735 0.76361 0.54173 0.0
H3040 H 0.33726 0.96523 0.61144 0.0
H3041 H 0.37829 0.98744 0.72933 0.0
H3042 H 0.35515 0.99384 0.77426 0.0
H3043 H 0.33197 1.00579 0.763 0.0
H3044 H 0.29178 0.98612 0.64382 0.0
H3045 H 0.30478 0.96469 0.61793 0.0
C3046 C 0.34053 0.97039 0.64796 0.0
C3047 C 0.35962 0.9768 0.66661 0.0
C3048 C 0.32756 0.97497 0.67262 0.0
C3049 C 0.36377 0.98303 0.71416 0.0
C3050 C 0.35058 0.98677 0.7397 0.0
C3051 C 0.32536 0.99641 0.73235 0.0
C3052 C 0.31356 1.00018 0.70056 0.0
C3053 C 0.33362 0.98491 0.71689 0.0
C3054 C 0.30315 0.98561 0.66528 0.0
C3055 C 0.31056 0.97328 0.65034 0.0
H3056 H 0.12395 0.41768 0.59625 0.0
H3057 H 0.10659 0.38516 0.46423 0.0
H3058 H 0.09807 0.35416 0.50604 0.0
H3059 H 0.08505 0.33596 0.57989 0.0
H3060 H 0.09618 0.36794 0.7124 0.0
H3061 H 0.11795 0.39951 0.67132 0.0
C3062 C 0.11933 0.40397 0.57649 0.0
C3063 C 0.11561 0.4035 0.52745 0.0
C3064 C 0.11266 0.38599 0.6014 0.0
C3065 C 0.10952 0.38576 0.50196 0.0
C3066 C 0.10434 0.368 0.52608 0.0
C3067 C 0.09299 0.34968 0.60033 0.0
C3068 C 0.08863 0.34974 0.64892 0.0
C3069 C 0.10421 0.36776 0.57597 0.0
C3070 C 0.09902 0.36764 0.67479 0.0
C3071 C 0.11135 0.38567 0.65121 0.0
H3072 H 1.0326 0.65829 0.58181 0.0
H3073 H 1.0183 0.62289 0.70973 0.0
H3074 H 1.05291 0.63327 0.72076 0.0
H3075 H 0.08529 0.66391 0.71701 0.0
H3076 H 0.09924 0.70423 0.59839 0.0
H3077 H 0.0675 0.68088 0.56096 0.0
C3078 C 1.0369 0.65251 0.61158 0.0
C3079 C 1.02306 0.6422 0.64811 0.0
C3080 C 0.05726 0.66018 0.6204 0.0
C3081 C 1.02859 0.63264 0.68298 0.0
C3082 C 1.04868 0.63862 0.68967 0.0
C3083 C 0.08196 0.66714 0.68173 0.0
C3084 C 0.09374 0.6863 0.66197 0.0
C3085 C 0.0631 0.65443 0.66241 0.0
C3086 C 0.08972 0.68991 0.61537 0.0
C3087 C 0.07152 0.67659 0.59408 0.0
H3088 H 0.45558 0.40311 0.84054 0.0
H3089 H 0.46146 0.42309 0.69479 0.0
H3090 H 0.45277 0.44817 0.71868 0.0
H3091 H 0.43103 0.45345 0.77345 0.0
H3092 H 0.41993 0.42738 0.91321 0.0
H3093 H 0.44487 0.41765 0.90124 0.0
C3094 C 0.45601 0.41345 0.81386 0.0
C3095 C 0.45765 0.41012 0.7652 0.0
C3096 C 0.44995 0.427 0.82741 0.0
C3097 C 0.45889 0.42441 0.7321 0.0
C3098 C 0.45399 0.43884 0.7458 0.0
C3099 C 0.43479 0.4464 0.80193 0.0
C3100 C 0.42262 0.4397 0.84276 0.0
C3101 C 0.44738 0.43864 0.79232 0.0
C3102 C 0.42849 0.43201 0.88078 0.0
C3103 C 0.44253 0.426 0.8734 0.0
H3104 H 0.69762 0.07309 0.87965 0.0
H3105 H 0.66716 0.06063 0.74469 0.0
H3106 H 0.64072 1.02852 0.77526 0.0
H3107 H 0.63453 1.00064 0.82786 0.0
H3108 H 0.6721 1.01243 0.95079 0.0
H3109 H 0.68517 0.04788 0.94165 0.0
C3110 C 0.68472 0.0639 0.85752 0.0
C3111 C 0.68479 0.06874 0.80929 0.0
C3112 C 0.67053 0.04493 0.87405 0.0
C3113 C 0.66779 0.05677 0.78145 0.0
C3114 C 0.65268 0.03841 0.79896 0.0
C3115 C 0.64529 1.01102 0.85327 0.0
C3116 C 0.65395 1.00397 0.88667 0.0
C3117 C 0.65511 1.03159 0.84336 0.0
C3118 C 0.66594 1.01723 0.92268 0.0
C3119 C 0.67388 0.03778 0.91684 0.0
H3120 H 0.46249 0.08039 0.24841 0.0
H3121 H 0.44818 0.05564 0.10748 0.0
H3122 H 0.4349 1.02195 0.13954 0.0
H3123 H 0.4164 1.00058 0.20712 0.0
H3124 H 0.4254 1.02619 0.34728 0.0
H3125 H 0.45208 0.05815 0.3172 0.0
C3126 C 0.45754 0.06771 0.22458 0.0
C3127 C 0.45545 0.07024 0.17581 0.0
C3128 C 0.44823 0.04836 0.24382 0.0
C3129 C 0.44944 0.05388 0.14515 0.0
C3130 C 0.44152 1.03459 0.16371 0.0
C3131 C 0.42478 1.013 0.23126 0.0
C3132 C 0.41849 1.01144 0.27873 0.0
C3133 C 0.43901 1.03167 0.21301 0.0
C3134 C 0.42975 1.02722 0.31033 0.0
C3135 C 0.44488 0.04558 0.29299 0.0
H3136 H 1.01847 0.40393 0.30552 0.0
H3137 H 1.04899 0.41879 0.1705 0.0
H3138 H 0.08098 0.43917 0.21088 0.0
H3139 H 0.09981 0.44236 0.28337 0.0
H3140 H 0.06852 0.4205 0.4161 0.0
H3141 H 1.03744 0.41405 0.37882 0.0
C3142 C 1.03199 0.41244 0.28468 0.0
C3143 C 1.03153 0.40948 0.23526 0.0
C3144 C 1.05032 0.42259 0.30834 0.0
C3145 C 1.04911 0.42061 0.2087 0.0
C3146 C 0.0674 0.43206 0.23187 0.0
C3147 C 0.08637 0.43715 0.30459 0.0
C3148 C 0.08633 0.43174 0.35238 0.0
C3149 C 0.06825 0.43166 0.2817 0.0
C3150 C 0.06888 0.42486 0.3795 0.0
C3151 C 1.05104 0.42087 0.35784 0.0
H3152 H 0.64055 0.66977 0.28017 0.0
H3153 H 0.65567 0.65469 0.41558 0.0
H3154 H 0.66738 0.63436 0.37568 0.0
H3155 H 0.68476 0.63307 0.30479 0.0
H3156 H 0.676 0.65489 0.17083 0.0
H3157 H 0.65034 0.66034 0.20698 0.0
C3158 C 0.64538 0.66113 0.30114 0.0
C3159 C 0.64813 0.66436 0.3505 0.0
C3160 C 0.65412 0.65146 0.27767 0.0
C3161 C 0.6539 0.65274 0.3774 0.0
C3162 C 0.66096 0.64147 0.35443 0.0
C3163 C 0.67656 0.63809 0.28286 0.0
C3164 C 0.6826 0.64416 0.2356 0.0
C3165 C 0.66302 0.64255 0.30474 0.0
C3166 C 0.67186 0.6506 0.20759 0.0
C3167 C 0.65727 0.65377 0.22835 0.0
loop_
_geom_bond_atom_site_label_1
_geom_bond_atom_site_label_2
_geom_bond_distance
_geom_bond_site_symmetry_2
_ccdc_geom_bond_type
Tb0 C2 2.809 . S
Tb0 O20 2.484 . S
Tb0 O21 2.440 . S
Tb0 O22 2.658 . S
Tb0 O23 2.409 . S
Tb0 O24 2.378 . S
Tb0 O28 2.325 . S
Tb0 O31 2.341 . S
Tb1 C11 2.809 . S
Tb1 O22 2.325 . S
Tb1 O25 2.341 . S
Tb1 O26 2.484 . S
Tb1 O27 2.440 . S
Tb1 O28 2.658 . S
Tb1 O29 2.409 . S
Tb1 O30 2.378 . S
C2 Tb0 2.809 . S
C2 C3 1.514 . S
C2 O20 1.248 . S
C2 O21 1.266 . S
C3 C2 1.514 . S
C3 C4 1.359 . S
C3 C8 1.348 . S
C4 C3 1.359 . S
C4 C5 1.380 . S
C4 H32 0.929 . S
C5 C4 1.380 . S
C5 C6 1.347 . S
C5 H33 0.931 . S
C6 C5 1.347 . S
C6 C7 1.369 . S
C7 C6 1.369 . S
C7 C8 1.408 . S
C7 H34 0.930 . S
C8 C3 1.348 . S
C8 C7 1.408 . S
C8 H35 0.930 . S
C9 O22 1.281 . S
C9 O23 1.254 . S
C10 O24 1.236 . S
C10 O25 1.266 . S
C11 Tb1 2.809 . S
C11 C12 1.514 . S
C11 O26 1.248 . S
C11 O27 1.266 . S
C12 C11 1.514 . S
C12 C13 1.359 . S
C12 C17 1.348 . S
C13 C12 1.359 . S
C13 C14 1.380 . S
C13 H36 0.929 . S
C14 C13 1.380 . S
C14 C15 1.347 . S
C14 H37 0.931 . S
C15 C14 1.347 . S
C15 C16 1.369 . S
C16 C15 1.369 . S
C16 C17 1.408 . S
C16 H38 0.930 . S
C17 C12 1.348 . S
C17 C16 1.408 . S
C17 H39 0.930 . S
C18 O28 1.281 . S
C18 O29 1.254 . S
C19 O30 1.236 . S
C19 O31 1.266 . S
O20 Tb0 2.484 . S
O20 C2 1.248 . S
O21 Tb0 2.440 . S
O21 C2 1.266 . S
O22 Tb0 2.658 . S
O22 Tb1 2.325 . S
O22 C9 1.281 . S
O23 Tb0 2.409 . S
O23 C9 1.254 . S
O24 Tb0 2.378 . S
O24 C10 1.236 . S
O25 Tb1 2.341 . S
O25 C10 1.266 . S
O26 Tb1 2.484 . S
O26 C11 1.248 . S
O27 Tb1 2.440 . S
O27 C11 1.266 . S
O28 Tb0 2.325 . S
O28 Tb1 2.658 . S
O28 C18 1.281 . S
O29 Tb1 2.409 . S
O29 C18 1.254 . S
O30 Tb1 2.378 . S
O30 C19 1.236 . S
O31 Tb0 2.341 . S
O31 C19 1.266 . S
H32 C4 0.929 . S
H33 C5 0.931 . S
H34 C7 0.930 . S
H35 C8 0.930 . S
H36 C13 0.929 . S
H37 C14 0.931 . S
H38 C16 0.930 . S
H39 C17 0.930 . S
Tb40 C42 2.809 . S
Tb40 O60 2.484 . S
Tb40 O61 2.440 . S
Tb40 O62 2.658 . S
Tb40 O63 2.409 . S
Tb40 O64 2.378 . S
Tb40 O68 2.325 . S
Tb40 O71 2.341 . S
Tb41 C51 2.809 . S
Tb41 O62 2.325 . S
Tb41 O65 2.341 . S
Tb41 O66 2.484 . S
Tb41 O67 2.440 . S
Tb41 O68 2.658 . S
Tb41 O69 2.409 . S
Tb41 O70 2.378 . S
C42 Tb40 2.809 . S
C42 C43 1.514 . S
C42 O60 1.248 . S
C42 O61 1.266 . S
C43 C42 1.514 . S
C43 C44 1.359 . S
C43 C48 1.348 . S
C44 C43 1.359 . S
C44 C45 1.380 . S
C44 H72 0.929 . S
C45 C44 1.380 . S
C45 C46 1.347 . S
C45 H73 0.931 . S
C46 C45 1.347 . S
C46 C47 1.369 . S
C47 C46 1.369 . S
C47 C48 1.408 . S
C47 H74 0.930 . S
C48 C43 1.348 . S
C48 C47 1.408 . S
C48 H75 0.930 . S
C49 O62 1.281 . S
C49 O63 1.254 . S
C50 O64 1.236 . S
C50 O65 1.266 . S
C51 Tb41 2.809 . S
C51 C52 1.514 . S
C51 O66 1.248 . S
C51 O67 1.266 . S
C52 C51 1.514 . S
C52 C53 1.359 . S
C52 C57 1.348 . S
C53 C52 1.359 . S
C53 C54 1.380 1_545 S
C53 H76 0.929 . S
C54 C53 1.380 1_565 S
C54 C55 1.347 . S
C54 H77 0.931 . S
C55 C54 1.347 . S
C55 C56 1.369 1_565 S
C56 C55 1.369 1_545 S
C56 C57 1.408 . S
C56 H78 0.930 . S
C57 C52 1.348 . S
C57 C56 1.408 . S
C57 H79 0.930 . S
C58 O68 1.281 . S
C58 O69 1.254 . S
C59 O70 1.236 . S
C59 O71 1.266 . S
O60 Tb40 2.484 . S
O60 C42 1.248 . S
O61 Tb40 2.440 . S
O61 C42 1.266 . S
O62 Tb40 2.658 . S
O62 Tb41 2.325 . S
O62 C49 1.281 . S
O63 Tb40 2.409 . S
O63 C49 1.254 . S
O64 Tb40 2.378 . S
O64 C50 1.236 . S
O65 Tb41 2.341 . S
O65 C50 1.266 . S
O66 Tb41 2.484 . S
O66 C51 1.248 . S
O67 Tb41 2.440 . S
O67 C51 1.266 . S
O68 Tb40 2.325 . S
O68 Tb41 2.658 . S
O68 C58 1.281 . S
O69 Tb41 2.409 . S
O69 C58 1.254 . S
O70 Tb41 2.378 . S
O70 C59 1.236 . S
O71 Tb40 2.341 . S
O71 C59 1.266 . S
H72 C44 0.929 . S
H73 C45 0.931 . S
H74 C47 0.930 . S
H75 C48 0.930 . S
H76 C53 0.929 . S
H77 C54 0.931 . S
H78 C56 0.930 . S
H79 C57 0.930 . S
Tb80 C82 2.809 . S
Tb80 O100 2.484 . S
Tb80 O101 2.440 . S
Tb80 O102 2.658 . S
Tb80 O103 2.409 . S
Tb80 O104 2.378 . S
Tb80 O108 2.325 . S
Tb80 O111 2.341 . S
Tb81 C91 2.809 . S
Tb81 O102 2.325 . S
Tb81 O105 2.341 . S
Tb81 O106 2.484 . S
Tb81 O107 2.440 . S
Tb81 O108 2.658 . S
Tb81 O109 2.409 . S
Tb81 O110 2.378 . S
C82 Tb80 2.809 . S
C82 C83 1.514 . S
C82 O100 1.248 . S
C82 O101 1.266 . S
C83 C82 1.514 . S
C83 C84 1.359 . S
C83 C88 1.348 . S
C84 C83 1.359 . S
C84 C85 1.380 . S
C84 H112 0.929 . S
C85 C84 1.380 . S
C85 C86 1.347 . S
C85 H113 0.931 . S
C86 C85 1.347 . S
C86 C87 1.369 . S
C87 C86 1.369 . S
C87 C88 1.408 . S
C87 H114 0.930 . S
C88 C83 1.348 . S
C88 C87 1.408 . S
C88 H115 0.930 . S
C89 O102 1.281 . S
C89 O103 1.254 . S
C90 O104 1.236 . S
C90 O105 1.266 . S
C91 Tb81 2.809 . S
C91 C92 1.514 . S
C91 O106 1.248 . S
C91 O107 1.266 . S
C92 C91 1.514 . S
C92 C93 1.359 . S
C92 C97 1.348 . S
C93 C92 1.359 . S
C93 C94 1.380 1_655 S
C93 H116 0.929 . S
C94 C93 1.380 1_455 S
C94 C95 1.347 . S
C94 H117 0.931 . S
C95 C94 1.347 . S
C95 C96 1.369 1_455 S
C96 C95 1.369 1_655 S
C96 C97 1.408 . S
C96 H118 0.930 . S
C97 C92 1.348 . S
C97 C96 1.408 . S
C97 H119 0.930 . S
C98 O108 1.281 . S
C98 O109 1.254 . S
C99 O110 1.236 . S
C99 O111 1.266 . S
O100 Tb80 2.484 . S
O100 C82 1.248 . S
O101 Tb80 2.440 . S
O101 C82 1.266 . S
O102 Tb80 2.658 . S
O102 Tb81 2.325 . S
O102 C89 1.281 . S
O103 Tb80 2.409 . S
O103 C89 1.254 . S
O104 Tb80 2.378 . S
O104 C90 1.236 . S
O105 Tb81 2.341 . S
O105 C90 1.266 . S
O106 Tb81 2.484 . S
O106 C91 1.248 . S
O107 Tb81 2.440 . S
O107 C91 1.266 . S
O108 Tb80 2.325 . S
O108 Tb81 2.658 . S
O108 C98 1.281 . S
O109 Tb81 2.409 . S
O109 C98 1.254 . S
O110 Tb81 2.378 . S
O110 C99 1.236 . S
O111 Tb80 2.341 . S
O111 C99 1.266 . S
H112 C84 0.929 . S
H113 C85 0.931 . S
H114 C87 0.930 . S
H115 C88 0.930 . S
H116 C93 0.929 . S
H117 C94 0.931 . S
H118 C96 0.930 . S
H119 C97 0.930 . S
Tb120 C122 2.809 . S
Tb120 O140 2.484 . S
Tb120 O141 2.440 . S
Tb120 O142 2.658 . S
Tb120 O143 2.409 . S
Tb120 O144 2.378 . S
Tb120 O148 2.325 . S
Tb120 O151 2.341 . S
Tb121 C131 2.809 . S
Tb121 O142 2.325 . S
Tb121 O145 2.341 . S
Tb121 O146 2.484 . S
Tb121 O147 2.440 . S
Tb121 O148 2.658 . S
Tb121 O149 2.409 . S
Tb121 O150 2.378 . S
C122 Tb120 2.809 . S
C122 C123 1.514 . S
C122 O140 1.248 . S
C122 O141 1.266 . S
C123 C122 1.514 . S
C123 C124 1.359 . S
C123 C128 1.348 . S
C124 C123 1.359 . S
C124 C125 1.380 . S
C124 H152 0.929 . S
C125 C124 1.380 . S
C125 C126 1.347 . S
C125 H153 0.931 . S
C126 C125 1.347 . S
C126 C127 1.369 . S
C127 C126 1.369 . S
C127 C128 1.408 . S
C127 H154 0.930 . S
C128 C123 1.348 . S
C128 C127 1.408 . S
C128 H155 0.930 . S
C129 O142 1.281 . S
C129 O143 1.254 . S
C130 O144 1.236 . S
C130 O145 1.266 . S
C131 Tb121 2.809 . S
C131 C132 1.514 . S
C131 O146 1.248 . S
C131 O147 1.266 . S
C132 C131 1.514 . S
C132 C133 1.359 . S
C132 C137 1.348 . S
C133 C132 1.359 . S
C133 C134 1.380 . S
C133 H156 0.929 . S
C134 C133 1.380 . S
C134 C135 1.347 . S
C134 H157 0.931 . S
C135 C134 1.347 . S
C135 C136 1.369 . S
C136 C135 1.369 . S
C136 C137 1.408 . S
C136 H158 0.930 . S
C137 C132 1.348 . S
C137 C136 1.408 . S
C137 H159 0.930 . S
C138 O148 1.281 . S
C138 O149 1.254 . S
C139 O150 1.236 . S
C139 O151 1.266 . S
O140 Tb120 2.484 . S
O140 C122 1.248 . S
O141 Tb120 2.440 . S
O141 C122 1.266 . S
O142 Tb120 2.658 . S
O142 Tb121 2.325 . S
O142 C129 1.281 . S
O143 Tb120 2.409 . S
O143 C129 1.254 . S
O144 Tb120 2.378 . S
O144 C130 1.236 . S
O145 Tb121 2.341 . S
O145 C130 1.266 . S
O146 Tb121 2.484 . S
O146 C131 1.248 . S
O147 Tb121 2.440 . S
O147 C131 1.266 . S
O148 Tb120 2.325 . S
O148 Tb121 2.658 . S
O148 C138 1.281 . S
O149 Tb121 2.409 . S
O149 C138 1.254 . S
O150 Tb121 2.378 . S
O150 C139 1.236 . S
O151 Tb120 2.341 . S
O151 C139 1.266 . S
H152 C124 0.929 . S
H153 C125 0.931 . S
H154 C127 0.930 . S
H155 C128 0.930 . S
H156 C133 0.929 . S
H157 C134 0.931 . S
H158 C136 0.930 . S
H159 C137 0.930 . S
Tb160 C162 2.809 . S
Tb160 O180 2.484 . S
Tb160 O181 2.440 . S
Tb160 O182 2.658 . S
Tb160 O183 2.409 . S
Tb160 O184 2.378 . S
Tb160 O188 2.325 . S
Tb160 O191 2.341 . S
Tb161 C171 2.809 . S
Tb161 O182 2.325 . S
Tb161 O185 2.341 . S
Tb161 O186 2.484 . S
Tb161 O187 2.440 . S
Tb161 O188 2.658 . S
Tb161 O189 2.409 . S
Tb161 O190 2.378 . S
C162 Tb160 2.809 . S
C162 C163 1.514 . S
C162 O180 1.248 . S
C162 O181 1.266 . S
C163 C162 1.514 . S
C163 C164 1.359 . S
C163 C168 1.348 . S
C164 C163 1.359 . S
C164 C165 1.380 . S
C164 H192 0.929 . S
C165 C164 1.380 . S
C165 C166 1.347 . S
C165 H193 0.931 . S
C166 C165 1.347 . S
C166 C167 1.369 . S
C167 C166 1.369 . S
C167 C168 1.408 . S
C167 H194 0.930 . S
C168 C163 1.348 . S
C168 C167 1.408 . S
C168 H195 0.930 . S
C169 O182 1.281 . S
C169 O183 1.254 . S
C170 O184 1.236 . S
C170 O185 1.266 . S
C171 Tb161 2.809 . S
C171 C172 1.514 . S
C171 O186 1.248 . S
C171 O187 1.266 . S
C172 C171 1.514 . S
C172 C173 1.359 . S
C172 C177 1.348 . S
C173 C172 1.359 . S
C173 C174 1.380 1_565 S
C173 H196 0.929 . S
C174 C173 1.380 1_545 S
C174 C175 1.347 . S
C174 H197 0.931 . S
C175 C174 1.347 . S
C175 C176 1.369 1_545 S
C176 C175 1.369 1_565 S
C176 C177 1.408 . S
C176 H198 0.930 . S
C177 C172 1.348 . S
C177 C176 1.408 . S
C177 H199 0.930 . S
C178 O188 1.281 . S
C178 O189 1.254 . S
C179 O190 1.236 . S
C179 O191 1.266 . S
O180 Tb160 2.484 . S
O180 C162 1.248 . S
O181 Tb160 2.440 . S
O181 C162 1.266 . S
O182 Tb160 2.658 . S
O182 Tb161 2.325 . S
O182 C169 1.281 . S
O183 Tb160 2.409 . S
O183 C169 1.254 . S
O184 Tb160 2.378 . S
O184 C170 1.236 . S
O185 Tb161 2.341 . S
O185 C170 1.266 . S
O186 Tb161 2.484 . S
O186 C171 1.248 . S
O187 Tb161 2.440 . S
O187 C171 1.266 . S
O188 Tb160 2.325 . S
O188 Tb161 2.658 . S
O188 C178 1.281 . S
O189 Tb161 2.409 . S
O189 C178 1.254 . S
O190 Tb161 2.378 . S
O190 C179 1.236 . S
O191 Tb160 2.341 . S
O191 C179 1.266 . S
H192 C164 0.929 . S
H193 C165 0.931 . S
H194 C167 0.930 . S
H195 C168 0.930 . S
H196 C173 0.929 . S
H197 C174 0.931 . S
H198 C176 0.930 . S
H199 C177 0.930 . S
Tb200 C202 2.809 . S
Tb200 O220 2.484 . S
Tb200 O221 2.440 . S
Tb200 O222 2.658 . S
Tb200 O223 2.409 . S
Tb200 O224 2.378 . S
Tb200 O228 2.325 . S
Tb200 O231 2.341 . S
Tb201 C211 2.809 . S
Tb201 O222 2.325 . S
Tb201 O225 2.341 . S
Tb201 O226 2.484 . S
Tb201 O227 2.440 . S
Tb201 O228 2.658 . S
Tb201 O229 2.409 . S
Tb201 O230 2.378 . S
C202 Tb200 2.809 . S
C202 C203 1.514 . S
C202 O220 1.248 . S
C202 O221 1.266 . S
C203 C202 1.514 . S
C203 C204 1.359 . S
C203 C208 1.348 . S
C204 C203 1.359 . S
C204 C205 1.380 . S
C204 H232 0.929 . S
C205 C204 1.380 . S
C205 C206 1.347 . S
C205 H233 0.931 . S
C206 C205 1.347 . S
C206 C207 1.369 . S
C207 C206 1.369 . S
C207 C208 1.408 . S
C207 H234 0.930 . S
C208 C203 1.348 . S
C208 C207 1.408 . S
C208 H235 0.930 . S
C209 O222 1.281 . S
C209 O223 1.254 . S
C210 O224 1.236 . S
C210 O225 1.266 . S
C211 Tb201 2.809 . S
C211 C212 1.514 . S
C211 O226 1.248 . S
C211 O227 1.266 . S
C212 C211 1.514 . S
C212 C213 1.359 . S
C212 C217 1.348 . S
C213 C212 1.359 . S
C213 C214 1.380 1_455 S
C213 H236 0.929 . S
C214 C213 1.380 1_655 S
C214 C215 1.347 . S
C214 H237 0.931 . S
C215 C214 1.347 . S
C215 C216 1.369 1_655 S
C216 C215 1.369 1_455 S
C216 C217 1.408 . S
C216 H238 0.930 . S
C217 C212 1.348 . S
C217 C216 1.408 . S
C217 H239 0.930 . S
C218 O228 1.281 . S
C218 O229 1.254 . S
C219 O230 1.236 . S
C219 O231 1.266 . S
O220 Tb200 2.484 . S
O220 C202 1.248 . S
O221 Tb200 2.440 . S
O221 C202 1.266 . S
O222 Tb200 2.658 . S
O222 Tb201 2.325 . S
O222 C209 1.281 . S
O223 Tb200 2.409 . S
O223 C209 1.254 . S
O224 Tb200 2.378 . S
O224 C210 1.236 . S
O225 Tb201 2.341 . S
O225 C210 1.266 . S
O226 Tb201 2.484 . S
O226 C211 1.248 . S
O227 Tb201 2.440 . S
O227 C211 1.266 . S
O228 Tb200 2.325 . S
O228 Tb201 2.658 . S
O228 C218 1.281 . S
O229 Tb201 2.409 . S
O229 C218 1.254 . S
O230 Tb201 2.378 . S
O230 C219 1.236 . S
O231 Tb200 2.341 . S
O231 C219 1.266 . S
H232 C204 0.929 . S
H233 C205 0.931 . S
H234 C207 0.930 . S
H235 C208 0.930 . S
H236 C213 0.929 . S
H237 C214 0.931 . S
H238 C216 0.930 . S
H239 C217 0.930 . S
Tb240 C242 2.809 . S
Tb240 O260 2.484 . S
Tb240 O261 2.440 . S
Tb240 O262 2.658 . S
Tb240 O263 2.409 . S
Tb240 O264 2.378 . S
Tb240 O268 2.325 . S
Tb240 O271 2.341 . S
Tb241 C251 2.809 . S
Tb241 O262 2.325 . S
Tb241 O265 2.341 . S
Tb241 O266 2.484 . S
Tb241 O267 2.440 . S
Tb241 O268 2.658 . S
Tb241 O269 2.409 . S
Tb241 O270 2.378 . S
C242 Tb240 2.809 . S
C242 C243 1.514 . S
C242 O260 1.248 . S
C242 O261 1.266 . S
C243 C242 1.514 . S
C243 C244 1.359 . S
C243 C248 1.348 . S
C244 C243 1.359 . S
C244 C245 1.380 . S
C244 H272 0.929 . S
C245 C244 1.380 . S
C245 C246 1.347 . S
C245 H273 0.931 . S
C246 C245 1.347 . S
C246 C247 1.369 . S
C247 C246 1.369 . S
C247 C248 1.408 . S
C247 H274 0.930 . S
C248 C243 1.348 . S
C248 C247 1.408 . S
C248 H275 0.930 . S
C249 O262 1.281 . S
C249 O263 1.254 . S
C250 O264 1.236 . S
C250 O265 1.266 . S
C251 Tb241 2.809 . S
C251 C252 1.514 . S
C251 O266 1.248 . S
C251 O267 1.266 . S
C252 C251 1.514 . S
C252 C253 1.359 . S
C252 C257 1.348 . S
C253 C252 1.359 . S
C253 C254 1.380 . S
C253 H276 0.929 . S
C254 C253 1.380 . S
C254 C255 1.347 . S
C254 H277 0.931 . S
C255 C254 1.347 . S
C255 C256 1.369 . S
C256 C255 1.369 . S
C256 C257 1.408 . S
C256 H278 0.930 . S
C257 C252 1.348 . S
C257 C256 1.408 . S
C257 H279 0.930 . S
C258 O268 1.281 . S
C258 O269 1.254 . S
C259 O270 1.236 . S
C259 O271 1.266 . S
O260 Tb240 2.484 . S
O260 C242 1.248 . S
O261 Tb240 2.440 . S
O261 C242 1.266 . S
O262 Tb240 2.658 . S
O262 Tb241 2.325 . S
O262 C249 1.281 . S
O263 Tb240 2.409 . S
O263 C249 1.254 . S
O264 Tb240 2.378 . S
O264 C250 1.236 . S
O265 Tb241 2.341 . S
O265 C250 1.266 . S
O266 Tb241 2.484 . S
O266 C251 1.248 . S
O267 Tb241 2.440 . S
O267 C251 1.266 . S
O268 Tb240 2.325 . S
O268 Tb241 2.658 . S
O268 C258 1.281 . S
O269 Tb241 2.409 . S
O269 C258 1.254 . S
O270 Tb241 2.378 . S
O270 C259 1.236 . S
O271 Tb240 2.341 . S
O271 C259 1.266 . S
H272 C244 0.929 . S
H273 C245 0.931 . S
H274 C247 0.930 . S
H275 C248 0.930 . S
H276 C253 0.929 . S
H277 C254 0.931 . S
H278 C256 0.930 . S
H279 C257 0.930 . S
Tb280 C282 2.809 . S
Tb280 O300 2.484 . S
Tb280 O301 2.440 . S
Tb280 O302 2.658 . S
Tb280 O303 2.409 . S
Tb280 O304 2.378 . S
Tb280 O308 2.325 . S
Tb280 O311 2.341 . S
Tb281 C291 2.809 . S
Tb281 O302 2.325 . S
Tb281 O305 2.341 . S
Tb281 O306 2.484 . S
Tb281 O307 2.440 . S
Tb281 O308 2.658 . S
Tb281 O309 2.409 . S
Tb281 O310 2.378 . S
C282 Tb280 2.809 . S
C282 C283 1.514 . S
C282 O300 1.248 . S
C282 O301 1.266 . S
C283 C282 1.514 . S
C283 C284 1.359 . S
C283 C288 1.348 . S
C284 C283 1.359 . S
C284 C285 1.380 1_565 S
C284 H312 0.929 . S
C285 C284 1.380 1_545 S
C285 C286 1.347 . S
C285 H313 0.931 . S
C286 C285 1.347 . S
C286 C287 1.369 1_545 S
C287 C286 1.369 1_565 S
C287 C288 1.408 . S
C287 H314 0.930 . S
C288 C283 1.348 . S
C288 C287 1.408 . S
C288 H315 0.930 . S
C289 O302 1.281 . S
C289 O303 1.254 . S
C290 O304 1.236 . S
C290 O305 1.266 . S
C291 Tb281 2.809 . S
C291 C292 1.514 . S
C291 O306 1.248 . S
C291 O307 1.266 . S
C292 C291 1.514 . S
C292 C293 1.359 . S
C292 C297 1.348 . S
C293 C292 1.359 . S
C293 C294 1.380 . S
C293 H316 0.929 . S
C294 C293 1.380 . S
C294 C295 1.347 . S
C294 H317 0.931 . S
C295 C294 1.347 . S
C295 C296 1.369 . S
C296 C295 1.369 . S
C296 C297 1.408 . S
C296 H318 0.930 . S
C297 C292 1.348 . S
C297 C296 1.408 . S
C297 H319 0.930 . S
C298 O308 1.281 . S
C298 O309 1.254 . S
C299 O310 1.236 . S
C299 O311 1.266 . S
O300 Tb280 2.484 . S
O300 C282 1.248 . S
O301 Tb280 2.440 . S
O301 C282 1.266 . S
O302 Tb280 2.658 . S
O302 Tb281 2.325 . S
O302 C289 1.281 . S
O303 Tb280 2.409 . S
O303 C289 1.254 . S
O304 Tb280 2.378 . S
O304 C290 1.236 . S
O305 Tb281 2.341 . S
O305 C290 1.266 . S
O306 Tb281 2.484 . S
O306 C291 1.248 . S
O307 Tb281 2.440 . S
O307 C291 1.266 . S
O308 Tb280 2.325 . S
O308 Tb281 2.658 . S
O308 C298 1.281 . S
O309 Tb281 2.409 . S
O309 C298 1.254 . S
O310 Tb281 2.378 . S
O310 C299 1.236 . S
O311 Tb280 2.341 . S
O311 C299 1.266 . S
H312 C284 0.929 . S
H313 C285 0.931 . S
H314 C287 0.930 . S
H315 C288 0.930 . S
H316 C293 0.929 . S
H317 C294 0.931 . S
H318 C296 0.930 . S
H319 C297 0.930 . S
Tb320 C322 2.809 . S
Tb320 O340 2.484 . S
Tb320 O341 2.440 . S
Tb320 O342 2.658 . S
Tb320 O343 2.409 . S
Tb320 O344 2.378 . S
Tb320 O348 2.325 . S
Tb320 O351 2.341 . S
Tb321 C331 2.809 . S
Tb321 O342 2.325 . S
Tb321 O345 2.341 . S
Tb321 O346 2.484 . S
Tb321 O347 2.440 . S
Tb321 O348 2.658 . S
Tb321 O349 2.409 . S
Tb321 O350 2.378 . S
C322 Tb320 2.809 . S
C322 C323 1.514 . S
C322 O340 1.248 . S
C322 O341 1.266 . S
C323 C322 1.514 . S
C323 C324 1.359 . S
C323 C328 1.348 . S
C324 C323 1.359 . S
C324 C325 1.380 1_455 S
C324 H352 0.929 . S
C325 C324 1.380 1_655 S
C325 C326 1.347 . S
C325 H353 0.931 . S
C326 C325 1.347 . S
C326 C327 1.369 1_655 S
C327 C326 1.369 1_455 S
C327 C328 1.408 . S
C327 H354 0.930 . S
C328 C323 1.348 . S
C328 C327 1.408 . S
C328 H355 0.930 . S
C329 O342 1.281 . S
C329 O343 1.254 . S
C330 O344 1.236 . S
C330 O345 1.266 . S
C331 Tb321 2.809 . S
C331 C332 1.514 . S
C331 O346 1.248 . S
C331 O347 1.266 . S
C332 C331 1.514 . S
C332 C333 1.359 . S
C332 C337 1.348 . S
C333 C332 1.359 . S
C333 C334 1.380 . S
C333 H356 0.929 . S
C334 C333 1.380 . S
C334 C335 1.347 . S
C334 H357 0.931 . S
C335 C334 1.347 . S
C335 C336 1.369 . S
C336 C335 1.369 . S
C336 C337 1.408 . S
C336 H358 0.930 . S
C337 C332 1.348 . S
C337 C336 1.408 . S
C337 H359 0.930 . S
C338 O348 1.281 . S
C338 O349 1.254 . S
C339 O350 1.236 . S
C339 O351 1.266 . S
O340 Tb320 2.484 . S
O340 C322 1.248 . S
O341 Tb320 2.440 . S
O341 C322 1.266 . S
O342 Tb320 2.658 . S
O342 Tb321 2.325 . S
O342 C329 1.281 . S
O343 Tb320 2.409 . S
O343 C329 1.254 . S
O344 Tb320 2.378 . S
O344 C330 1.236 . S
O345 Tb321 2.341 . S
O345 C330 1.266 . S
O346 Tb321 2.484 . S
O346 C331 1.248 . S
O347 Tb321 2.440 . S
O347 C331 1.266 . S
O348 Tb320 2.325 . S
O348 Tb321 2.658 . S
O348 C338 1.281 . S
O349 Tb321 2.409 . S
O349 C338 1.254 . S
O350 Tb321 2.378 . S
O350 C339 1.236 . S
O351 Tb320 2.341 . S
O351 C339 1.266 . S
H352 C324 0.929 . S
H353 C325 0.931 . S
H354 C327 0.930 . S
H355 C328 0.930 . S
H356 C333 0.929 . S
H357 C334 0.931 . S
H358 C336 0.930 . S
H359 C337 0.930 . S
Tb360 C362 2.809 . S
Tb360 O380 2.484 . S
Tb360 O381 2.440 . S
Tb360 O382 2.658 . S
Tb360 O383 2.409 . S
Tb360 O384 2.378 . S
Tb360 O388 2.325 . S
Tb360 O391 2.341 . S
Tb361 C371 2.809 . S
Tb361 O382 2.325 . S
Tb361 O385 2.341 . S
Tb361 O386 2.484 . S
Tb361 O387 2.440 . S
Tb361 O388 2.658 . S
Tb361 O389 2.409 . S
Tb361 O390 2.378 . S
C362 Tb360 2.809 . S
C362 C363 1.514 . S
C362 O380 1.248 . S
C362 O381 1.266 . S
C363 C362 1.514 . S
C363 C364 1.359 . S
C363 C368 1.348 . S
C364 C363 1.359 . S
C364 C365 1.380 . S
C364 H392 0.929 . S
C365 C364 1.380 . S
C365 C366 1.347 . S
C365 H393 0.931 . S
C366 C365 1.347 . S
C366 C367 1.369 . S
C367 C366 1.369 . S
C367 C368 1.408 . S
C367 H394 0.930 . S
C368 C363 1.348 . S
C368 C367 1.408 . S
C368 H395 0.930 . S
C369 O382 1.281 . S
C369 O383 1.254 . S
C370 O384 1.236 . S
C370 O385 1.266 . S
C371 Tb361 2.809 . S
C371 C372 1.514 . S
C371 O386 1.248 . S
C371 O387 1.266 . S
C372 C371 1.514 . S
C372 C373 1.359 . S
C372 C377 1.348 . S
C373 C372 1.359 . S
C373 C374 1.380 . S
C373 H396 0.929 . S
C374 C373 1.380 . S
C374 C375 1.347 . S
C374 H397 0.931 . S
C375 C374 1.347 . S
C375 C376 1.369 . S
C376 C375 1.369 . S
C376 C377 1.408 . S
C376 H398 0.930 . S
C377 C372 1.348 . S
C377 C376 1.408 . S
C377 H399 0.930 . S
C378 O388 1.281 . S
C378 O389 1.254 . S
C379 O390 1.236 . S
C379 O391 1.266 . S
O380 Tb360 2.484 . S
O380 C362 1.248 . S
O381 Tb360 2.440 . S
O381 C362 1.266 . S
O382 Tb360 2.658 . S
O382 Tb361 2.325 . S
O382 C369 1.281 . S
O383 Tb360 2.409 . S
O383 C369 1.254 . S
O384 Tb360 2.378 . S
O384 C370 1.236 . S
O385 Tb361 2.341 . S
O385 C370 1.266 . S
O386 Tb361 2.484 . S
O386 C371 1.248 . S
O387 Tb361 2.440 . S
O387 C371 1.266 . S
O388 Tb360 2.325 . S
O388 Tb361 2.658 . S
O388 C378 1.281 . S
O389 Tb361 2.409 . S
O389 C378 1.254 . S
O390 Tb361 2.378 . S
O390 C379 1.236 . S
O391 Tb360 2.341 . S
O391 C379 1.266 . S
H392 C364 0.929 . S
H393 C365 0.931 . S
H394 C367 0.930 . S
H395 C368 0.930 . S
H396 C373 0.929 . S
H397 C374 0.931 . S
H398 C376 0.930 . S
H399 C377 0.930 . S
Tb400 C402 2.809 . S
Tb400 O420 2.484 . S
Tb400 O421 2.440 . S
Tb400 O422 2.658 . S
Tb400 O423 2.409 . S
Tb400 O424 2.378 . S
Tb400 O428 2.325 . S
Tb400 O431 2.341 . S
Tb401 C411 2.809 . S
Tb401 O422 2.325 . S
Tb401 O425 2.341 . S
Tb401 O426 2.484 . S
Tb401 O427 2.440 . S
Tb401 O428 2.658 . S
Tb401 O429 2.409 . S
Tb401 O430 2.378 . S
C402 Tb400 2.809 . S
C402 C403 1.514 . S
C402 O420 1.248 . S
C402 O421 1.266 . S
C403 C402 1.514 . S
C403 C404 1.359 . S
C403 C408 1.348 . S
C404 C403 1.359 . S
C404 C405 1.380 1_545 S
C404 H432 0.929 . S
C405 C404 1.380 1_565 S
C405 C406 1.347 . S
C405 H433 0.931 . S
C406 C405 1.347 . S
C406 C407 1.369 1_565 S
C407 C406 1.369 1_545 S
C407 C408 1.408 . S
C407 H434 0.930 . S
C408 C403 1.348 . S
C408 C407 1.408 . S
C408 H435 0.930 . S
C409 O422 1.281 . S
C409 O423 1.254 . S
C410 O424 1.236 . S
C410 O425 1.266 . S
C411 Tb401 2.809 . S
C411 C412 1.514 . S
C411 O426 1.248 . S
C411 O427 1.266 . S
C412 C411 1.514 . S
C412 C413 1.359 . S
C412 C417 1.348 . S
C413 C412 1.359 . S
C413 C414 1.380 . S
C413 H436 0.929 . S
C414 C413 1.380 . S
C414 C415 1.347 . S
C414 H437 0.931 . S
C415 C414 1.347 . S
C415 C416 1.369 . S
C416 C415 1.369 . S
C416 C417 1.408 . S
C416 H438 0.930 . S
C417 C412 1.348 . S
C417 C416 1.408 . S
C417 H439 0.930 . S
C418 O428 1.281 . S
C418 O429 1.254 . S
C419 O430 1.236 . S
C419 O431 1.266 . S
O420 Tb400 2.484 . S
O420 C402 1.248 . S
O421 Tb400 2.440 . S
O421 C402 1.266 . S
O422 Tb400 2.658 . S
O422 Tb401 2.325 . S
O422 C409 1.281 . S
O423 Tb400 2.409 . S
O423 C409 1.254 . S
O424 Tb400 2.378 . S
O424 C410 1.236 . S
O425 Tb401 2.341 . S
O425 C410 1.266 . S
O426 Tb401 2.484 . S
O426 C411 1.248 . S
O427 Tb401 2.440 . S
O427 C411 1.266 . S
O428 Tb400 2.325 . S
O428 Tb401 2.658 . S
O428 C418 1.281 . S
O429 Tb401 2.409 . S
O429 C418 1.254 . S
O430 Tb401 2.378 . S
O430 C419 1.236 . S
O431 Tb400 2.341 . S
O431 C419 1.266 . S
H432 C404 0.929 . S
H433 C405 0.931 . S
H434 C407 0.930 . S
H435 C408 0.930 . S
H436 C413 0.929 . S
H437 C414 0.931 . S
H438 C416 0.930 . S
H439 C417 0.930 . S
Tb440 C442 2.809 . S
Tb440 O460 2.484 . S
Tb440 O461 2.440 . S
Tb440 O462 2.658 . S
Tb440 O463 2.409 . S
Tb440 O464 2.378 . S
Tb440 O468 2.325 . S
Tb440 O471 2.341 . S
Tb441 C451 2.809 . S
Tb441 O462 2.325 . S
Tb441 O465 2.341 . S
Tb441 O466 2.484 . S
Tb441 O467 2.440 . S
Tb441 O468 2.658 . S
Tb441 O469 2.409 . S
Tb441 O470 2.378 . S
C442 Tb440 2.809 . S
C442 C443 1.514 . S
C442 O460 1.248 . S
C442 O461 1.266 . S
C443 C442 1.514 . S
C443 C444 1.359 . S
C443 C448 1.348 . S
C444 C443 1.359 . S
C444 C445 1.380 1_655 S
C444 H472 0.929 . S
C445 C444 1.380 1_455 S
C445 C446 1.347 . S
C445 H473 0.931 . S
C446 C445 1.347 . S
C446 C447 1.369 1_455 S
C447 C446 1.369 1_655 S
C447 C448 1.408 . S
C447 H474 0.930 . S
C448 C443 1.348 . S
C448 C447 1.408 . S
C448 H475 0.930 . S
C449 O462 1.281 . S
C449 O463 1.254 . S
C450 O464 1.236 . S
C450 O465 1.266 . S
C451 Tb441 2.809 . S
C451 C452 1.514 . S
C451 O466 1.248 . S
C451 O467 1.266 . S
C452 C451 1.514 . S
C452 C453 1.359 . S
C452 C457 1.348 . S
C453 C452 1.359 . S
C453 C454 1.380 . S
C453 H476 0.929 . S
C454 C453 1.380 . S
C454 C455 1.347 . S
C454 H477 0.931 . S
C455 C454 1.347 . S
C455 C456 1.369 . S
C456 C455 1.369 . S
C456 C457 1.408 . S
C456 H478 0.930 . S
C457 C452 1.348 . S
C457 C456 1.408 . S
C457 H479 0.930 . S
C458 O468 1.281 . S
C458 O469 1.254 . S
C459 O470 1.236 . S
C459 O471 1.266 . S
O460 Tb440 2.484 . S
O460 C442 1.248 . S
O461 Tb440 2.440 . S
O461 C442 1.266 . S
O462 Tb440 2.658 . S
O462 Tb441 2.325 . S
O462 C449 1.281 . S
O463 Tb440 2.409 . S
O463 C449 1.254 . S
O464 Tb440 2.378 . S
O464 C450 1.236 . S
O465 Tb441 2.341 . S
O465 C450 1.266 . S
O466 Tb441 2.484 . S
O466 C451 1.248 . S
O467 Tb441 2.440 . S
O467 C451 1.266 . S
O468 Tb440 2.325 . S
O468 Tb441 2.658 . S
O468 C458 1.281 . S
O469 Tb441 2.409 . S
O469 C458 1.254 . S
O470 Tb441 2.378 . S
O470 C459 1.236 . S
O471 Tb440 2.341 . S
O471 C459 1.266 . S
H472 C444 0.929 . S
H473 C445 0.931 . S
H474 C447 0.930 . S
H475 C448 0.930 . S
H476 C453 0.929 . S
H477 C454 0.931 . S
H478 C456 0.930 . S
H479 C457 0.930 . S
Tb480 C482 2.809 . S
Tb480 O500 2.484 . S
Tb480 O501 2.440 . S
Tb480 O502 2.658 . S
Tb480 O503 2.409 . S
Tb480 O504 2.378 . S
Tb480 O508 2.325 . S
Tb480 O511 2.341 . S
Tb481 C491 2.809 . S
Tb481 O502 2.325 . S
Tb481 O505 2.341 . S
Tb481 O506 2.484 . S
Tb481 O507 2.440 . S
Tb481 O508 2.658 . S
Tb481 O509 2.409 . S
Tb481 O510 2.378 . S
C482 Tb480 2.809 . S
C482 C483 1.514 . S
C482 O500 1.248 . S
C482 O501 1.266 . S
C483 C482 1.514 . S
C483 C484 1.359 . S
C483 C488 1.348 . S
C484 C483 1.359 . S
C484 C485 1.380 . S
C484 H512 0.929 . S
C485 C484 1.380 . S
C485 C486 1.347 . S
C485 H513 0.931 . S
C486 C485 1.347 . S
C486 C487 1.369 . S
C487 C486 1.369 . S
C487 C488 1.408 . S
C487 H514 0.930 . S
C488 C483 1.348 . S
C488 C487 1.408 . S
C488 H515 0.930 . S
C489 O502 1.281 . S
C489 O503 1.254 . S
C490 O504 1.236 . S
C490 O505 1.266 . S
C491 Tb481 2.809 . S
C491 C492 1.514 . S
C491 O506 1.248 . S
C491 O507 1.266 . S
C492 C491 1.514 . S
C492 C493 1.359 . S
C492 C497 1.348 . S
C493 C492 1.359 . S
C493 C494 1.380 . S
C493 H516 0.929 . S
C494 C493 1.380 . S
C494 C495 1.347 . S
C494 H517 0.931 . S
C495 C494 1.347 . S
C495 C496 1.369 . S
C496 C495 1.369 . S
C496 C497 1.408 . S
C496 H518 0.930 . S
C497 C492 1.348 . S
C497 C496 1.408 . S
C497 H519 0.930 . S
C498 O508 1.281 . S
C498 O509 1.254 . S
C499 O510 1.236 . S
C499 O511 1.266 . S
O500 Tb480 2.484 . S
O500 C482 1.248 . S
O501 Tb480 2.440 . S
O501 C482 1.266 . S
O502 Tb480 2.658 . S
O502 Tb481 2.325 . S
O502 C489 1.281 . S
O503 Tb480 2.409 . S
O503 C489 1.254 . S
O504 Tb480 2.378 . S
O504 C490 1.236 . S
O505 Tb481 2.341 . S
O505 C490 1.266 . S
O506 Tb481 2.484 . S
O506 C491 1.248 . S
O507 Tb481 2.440 . S
O507 C491 1.266 . S
O508 Tb480 2.325 . S
O508 Tb481 2.658 . S
O508 C498 1.281 . S
O509 Tb481 2.409 . S
O509 C498 1.254 . S
O510 Tb481 2.378 . S
O510 C499 1.236 . S
O511 Tb480 2.341 . S
O511 C499 1.266 . S
H512 C484 0.929 . S
H513 C485 0.931 . S
H514 C487 0.930 . S
H515 C488 0.930 . S
H516 C493 0.929 . S
H517 C494 0.931 . S
H518 C496 0.930 . S
H519 C497 0.930 . S
Tb520 C522 2.809 . S
Tb520 O540 2.484 . S
Tb520 O541 2.440 . S
Tb520 O542 2.658 . S
Tb520 O543 2.409 . S
Tb520 O544 2.378 . S
Tb520 O548 2.325 . S
Tb520 O551 2.341 . S
Tb521 C531 2.809 . S
Tb521 O542 2.325 . S
Tb521 O545 2.341 . S
Tb521 O546 2.484 . S
Tb521 O547 2.440 . S
Tb521 O548 2.658 . S
Tb521 O549 2.409 . S
Tb521 O550 2.378 . S
C522 Tb520 2.809 . S
C522 C523 1.514 . S
C522 O540 1.248 . S
C522 O541 1.266 . S
C523 C522 1.514 . S
C523 C524 1.359 . S
C523 C528 1.348 . S
C524 C523 1.359 . S
C524 C525 1.380 . S
C524 H552 0.929 . S
C525 C524 1.380 . S
C525 C526 1.347 . S
C525 H553 0.931 . S
C526 C525 1.347 . S
C526 C527 1.369 . S
C527 C526 1.369 . S
C527 C528 1.408 . S
C527 H554 0.930 . S
C528 C523 1.348 . S
C528 C527 1.408 . S
C528 H555 0.930 . S
C529 O542 1.281 . S
C529 O543 1.254 . S
C530 O544 1.236 . S
C530 O545 1.266 . S
C531 Tb521 2.809 . S
C531 C532 1.514 . S
C531 O546 1.248 . S
C531 O547 1.266 . S
C532 C531 1.514 . S
C532 C533 1.359 . S
C532 C537 1.348 . S
C533 C532 1.359 . S
C533 C534 1.380 . S
C533 H556 0.929 . S
C534 C533 1.380 . S
C534 C535 1.347 . S
C534 H557 0.931 . S
C535 C534 1.347 . S
C535 C536 1.369 . S
C536 C535 1.369 . S
C536 C537 1.408 . S
C536 H558 0.930 . S
C537 C532 1.348 . S
C537 C536 1.408 . S
C537 H559 0.930 . S
C538 O548 1.281 . S
C538 O549 1.254 . S
C539 O550 1.236 . S
C539 O551 1.266 . S
O540 Tb520 2.484 . S
O540 C522 1.248 . S
O541 Tb520 2.440 . S
O541 C522 1.266 . S
O542 Tb520 2.658 . S
O542 Tb521 2.325 . S
O542 C529 1.281 . S
O543 Tb520 2.409 . S
O543 C529 1.254 . S
O544 Tb520 2.378 . S
O544 C530 1.236 . S
O545 Tb521 2.341 . S
O545 C530 1.266 . S
O546 Tb521 2.484 . S
O546 C531 1.248 . S
O547 Tb521 2.440 . S
O547 C531 1.266 . S
O548 Tb520 2.325 . S
O548 Tb521 2.658 . S
O548 C538 1.281 . S
O549 Tb521 2.409 . S
O549 C538 1.254 . S
O550 Tb521 2.378 . S
O550 C539 1.236 . S
O551 Tb520 2.341 . S
O551 C539 1.266 . S
H552 C524 0.929 . S
H553 C525 0.931 . S
H554 C527 0.930 . S
H555 C528 0.930 . S
H556 C533 0.929 . S
H557 C534 0.931 . S
H558 C536 0.930 . S
H559 C537 0.930 . S
Tb560 C562 2.809 . S
Tb560 O580 2.484 . S
Tb560 O581 2.440 . S
Tb560 O582 2.658 . S
Tb560 O583 2.409 . S
Tb560 O584 2.378 . S
Tb560 O588 2.325 . S
Tb560 O591 2.341 . S
Tb561 C571 2.809 . S
Tb561 O582 2.325 . S
Tb561 O585 2.341 . S
Tb561 O586 2.484 . S
Tb561 O587 2.440 . S
Tb561 O588 2.658 . S
Tb561 O589 2.409 . S
Tb561 O590 2.378 . S
C562 Tb560 2.809 . S
C562 C563 1.514 . S
C562 O580 1.248 . S
C562 O581 1.266 . S
C563 C562 1.514 . S
C563 C564 1.359 . S
C563 C568 1.348 . S
C564 C563 1.359 . S
C564 C565 1.380 . S
C564 H592 0.929 . S
C565 C564 1.380 . S
C565 C566 1.347 . S
C565 H593 0.931 . S
C566 C565 1.347 . S
C566 C567 1.369 . S
C567 C566 1.369 . S
C567 C568 1.408 . S
C567 H594 0.930 . S
C568 C563 1.348 . S
C568 C567 1.408 . S
C568 H595 0.930 . S
C569 O582 1.281 . S
C569 O583 1.254 . S
C570 O584 1.236 . S
C570 O585 1.266 . S
C571 Tb561 2.809 . S
C571 C572 1.514 . S
C571 O586 1.248 . S
C571 O587 1.266 . S
C572 C571 1.514 . S
C572 C573 1.359 . S
C572 C577 1.348 . S
C573 C572 1.359 . S
C573 C574 1.380 . S
C573 H596 0.929 . S
C574 C573 1.380 . S
C574 C575 1.347 . S
C574 H597 0.931 . S
C575 C574 1.347 . S
C575 C576 1.369 . S
C576 C575 1.369 . S
C576 C577 1.408 . S
C576 H598 0.930 . S
C577 C572 1.348 . S
C577 C576 1.408 . S
C577 H599 0.930 . S
C578 O588 1.281 . S
C578 O589 1.254 . S
C579 O590 1.236 . S
C579 O591 1.266 . S
O580 Tb560 2.484 . S
O580 C562 1.248 . S
O581 Tb560 2.440 . S
O581 C562 1.266 . S
O582 Tb560 2.658 . S
O582 Tb561 2.325 . S
O582 C569 1.281 . S
O583 Tb560 2.409 . S
O583 C569 1.254 . S
O584 Tb560 2.378 . S
O584 C570 1.236 . S
O585 Tb561 2.341 . S
O585 C570 1.266 . S
O586 Tb561 2.484 . S
O586 C571 1.248 . S
O587 Tb561 2.440 . S
O587 C571 1.266 . S
O588 Tb560 2.325 . S
O588 Tb561 2.658 . S
O588 C578 1.281 . S
O589 Tb561 2.409 . S
O589 C578 1.254 . S
O590 Tb561 2.378 . S
O590 C579 1.236 . S
O591 Tb560 2.341 . S
O591 C579 1.266 . S
H592 C564 0.929 . S
H593 C565 0.931 . S
H594 C567 0.930 . S
H595 C568 0.930 . S
H596 C573 0.929 . S
H597 C574 0.931 . S
H598 C576 0.930 . S
H599 C577 0.930 . S
Tb600 C602 2.809 . S
Tb600 O620 2.484 . S
Tb600 O621 2.440 . S
Tb600 O622 2.658 . S
Tb600 O623 2.409 . S
Tb600 O624 2.378 . S
Tb600 O628 2.325 . S
Tb600 O631 2.341 . S
Tb601 C611 2.809 . S
Tb601 O622 2.325 . S
Tb601 O625 2.341 . S
Tb601 O626 2.484 . S
Tb601 O627 2.440 . S
Tb601 O628 2.658 . S
Tb601 O629 2.409 . S
Tb601 O630 2.378 . S
C602 Tb600 2.809 . S
C602 C603 1.514 . S
C602 O620 1.248 . S
C602 O621 1.266 . S
C603 C602 1.514 . S
C603 C604 1.359 . S
C603 C608 1.348 . S
C604 C603 1.359 . S
C604 C605 1.380 . S
C604 H632 0.929 . S
C605 C604 1.380 . S
C605 C606 1.347 . S
C605 H633 0.931 . S
C606 C605 1.347 . S
C606 C607 1.369 . S
C607 C606 1.369 . S
C607 C608 1.408 . S
C607 H634 0.930 . S
C608 C603 1.348 . S
C608 C607 1.408 . S
C608 H635 0.930 . S
C609 O622 1.281 . S
C609 O623 1.254 . S
C610 O624 1.236 . S
C610 O625 1.266 . S
C611 Tb601 2.809 . S
C611 C612 1.514 . S
C611 O626 1.248 . S
C611 O627 1.266 . S
C612 C611 1.514 . S
C612 C613 1.359 . S
C612 C617 1.348 . S
C613 C612 1.359 . S
C613 C614 1.380 . S
C613 H636 0.929 . S
C614 C613 1.380 . S
C614 C615 1.347 . S
C614 H637 0.931 . S
C615 C614 1.347 . S
C615 C616 1.369 . S
C616 C615 1.369 . S
C616 C617 1.408 . S
C616 H638 0.930 . S
C617 C612 1.348 . S
C617 C616 1.408 . S
C617 H639 0.930 . S
C618 O628 1.281 . S
C618 O629 1.254 . S
C619 O630 1.236 . S
C619 O631 1.266 . S
O620 Tb600 2.484 . S
O620 C602 1.248 . S
O621 Tb600 2.440 . S
O621 C602 1.266 . S
O622 Tb600 2.658 . S
O622 Tb601 2.325 . S
O622 C609 1.281 . S
O623 Tb600 2.409 . S
O623 C609 1.254 . S
O624 Tb600 2.378 . S
O624 C610 1.236 . S
O625 Tb601 2.341 . S
O625 C610 1.266 . S
O626 Tb601 2.484 . S
O626 C611 1.248 . S
O627 Tb601 2.440 . S
O627 C611 1.266 . S
O628 Tb600 2.325 . S
O628 Tb601 2.658 . S
O628 C618 1.281 . S
O629 Tb601 2.409 . S
O629 C618 1.254 . S
O630 Tb601 2.378 . S
O630 C619 1.236 . S
O631 Tb600 2.341 . S
O631 C619 1.266 . S
H632 C604 0.929 . S
H633 C605 0.931 . S
H634 C607 0.930 . S
H635 C608 0.930 . S
H636 C613 0.929 . S
H637 C614 0.931 . S
H638 C616 0.930 . S
H639 C617 0.930 . S
Tb640 C642 2.809 . S
Tb640 O660 2.484 . S
Tb640 O661 2.440 . S
Tb640 O662 2.658 . S
Tb640 O663 2.409 . S
Tb640 O664 2.378 . S
Tb640 O668 2.325 . S
Tb640 O671 2.341 . S
Tb641 C651 2.809 . S
Tb641 O662 2.325 . S
Tb641 O665 2.341 . S
Tb641 O666 2.484 . S
Tb641 O667 2.440 . S
Tb641 O668 2.658 . S
Tb641 O669 2.409 . S
Tb641 O670 2.378 . S
C642 Tb640 2.809 . S
C642 C643 1.514 . S
C642 O660 1.248 . S
C642 O661 1.266 . S
C643 C642 1.514 . S
C643 C644 1.359 . S
C643 C648 1.348 . S
C644 C643 1.359 . S
C644 C645 1.380 . S
C644 H672 0.929 . S
C645 C644 1.380 . S
C645 C646 1.347 . S
C645 H673 0.931 . S
C646 C645 1.347 . S
C646 C647 1.369 . S
C647 C646 1.369 . S
C647 C648 1.408 . S
C647 H674 0.930 . S
C648 C643 1.348 . S
C648 C647 1.408 . S
C648 H675 0.930 . S
C649 O662 1.281 . S
C649 O663 1.254 . S
C650 O664 1.236 . S
C650 O665 1.266 . S
C651 Tb641 2.809 . S
C651 C652 1.514 . S
C651 O666 1.248 . S
C651 O667 1.266 . S
C652 C651 1.514 . S
C652 C653 1.359 . S
C652 C657 1.348 . S
C653 C652 1.359 . S
C653 C654 1.380 . S
C653 H676 0.929 . S
C654 C653 1.380 . S
C654 C655 1.347 . S
C654 H677 0.931 . S
C655 C654 1.347 . S
C655 C656 1.369 . S
C656 C655 1.369 . S
C656 C657 1.408 . S
C656 H678 0.930 . S
C657 C652 1.348 . S
C657 C656 1.408 . S
C657 H679 0.930 . S
C658 O668 1.281 . S
C658 O669 1.254 . S
C659 O670 1.236 . S
C659 O671 1.266 . S
O660 Tb640 2.484 . S
O660 C642 1.248 . S
O661 Tb640 2.440 . S
O661 C642 1.266 . S
O662 Tb640 2.658 . S
O662 Tb641 2.325 . S
O662 C649 1.281 . S
O663 Tb640 2.409 . S
O663 C649 1.254 . S
O664 Tb640 2.378 . S
O664 C650 1.236 . S
O665 Tb641 2.341 . S
O665 C650 1.266 . S
O666 Tb641 2.484 . S
O666 C651 1.248 . S
O667 Tb641 2.440 . S
O667 C651 1.266 . S
O668 Tb640 2.325 . S
O668 Tb641 2.658 . S
O668 C658 1.281 . S
O669 Tb641 2.409 . S
O669 C658 1.254 . S
O670 Tb641 2.378 . S
O670 C659 1.236 . S
O671 Tb640 2.341 . S
O671 C659 1.266 . S
H672 C644 0.929 . S
H673 C645 0.931 . S
H674 C647 0.930 . S
H675 C648 0.930 . S
H676 C653 0.929 . S
H677 C654 0.931 . S
H678 C656 0.930 . S
H679 C657 0.930 . S
Tb680 C682 2.809 . S
Tb680 O700 2.484 . S
Tb680 O701 2.440 . S
Tb680 O702 2.658 . S
Tb680 O703 2.409 . S
Tb680 O704 2.378 . S
Tb680 O708 2.325 . S
Tb680 O711 2.341 . S
Tb681 C691 2.809 . S
Tb681 O702 2.325 . S
Tb681 O705 2.341 . S
Tb681 O706 2.484 . S
Tb681 O707 2.440 . S
Tb681 O708 2.658 . S
Tb681 O709 2.409 . S
Tb681 O710 2.378 . S
C682 Tb680 2.809 . S
C682 C683 1.514 . S
C682 O700 1.248 . S
C682 O701 1.266 . S
C683 C682 1.514 . S
C683 C684 1.359 . S
C683 C688 1.348 . S
C684 C683 1.359 . S
C684 C685 1.380 . S
C684 H712 0.929 . S
C685 C684 1.380 . S
C685 C686 1.347 . S
C685 H713 0.931 . S
C686 C685 1.347 . S
C686 C687 1.369 . S
C687 C686 1.369 . S
C687 C688 1.408 . S
C687 H714 0.930 . S
C688 C683 1.348 . S
C688 C687 1.408 . S
C688 H715 0.930 . S
C689 O702 1.281 . S
C689 O703 1.254 . S
C690 O704 1.236 . S
C690 O705 1.266 . S
C691 Tb681 2.809 . S
C691 C692 1.514 . S
C691 O706 1.248 . S
C691 O707 1.266 . S
C692 C691 1.514 . S
C692 C693 1.359 . S
C692 C697 1.348 . S
C693 C692 1.359 . S
C693 C694 1.380 . S
C693 H716 0.929 . S
C694 C693 1.380 . S
C694 C695 1.347 . S
C694 H717 0.931 . S
C695 C694 1.347 . S
C695 C696 1.369 . S
C696 C695 1.369 . S
C696 C697 1.408 . S
C696 H718 0.930 . S
C697 C692 1.348 . S
C697 C696 1.408 . S
C697 H719 0.930 . S
C698 O708 1.281 . S
C698 O709 1.254 . S
C699 O710 1.236 . S
C699 O711 1.266 . S
O700 Tb680 2.484 . S
O700 C682 1.248 . S
O701 Tb680 2.440 . S
O701 C682 1.266 . S
O702 Tb680 2.658 . S
O702 Tb681 2.325 . S
O702 C689 1.281 . S
O703 Tb680 2.409 . S
O703 C689 1.254 . S
O704 Tb680 2.378 . S
O704 C690 1.236 . S
O705 Tb681 2.341 . S
O705 C690 1.266 . S
O706 Tb681 2.484 . S
O706 C691 1.248 . S
O707 Tb681 2.440 . S
O707 C691 1.266 . S
O708 Tb680 2.325 . S
O708 Tb681 2.658 . S
O708 C698 1.281 . S
O709 Tb681 2.409 . S
O709 C698 1.254 . S
O710 Tb681 2.378 . S
O710 C699 1.236 . S
O711 Tb680 2.341 . S
O711 C699 1.266 . S
H712 C684 0.929 . S
H713 C685 0.931 . S
H714 C687 0.930 . S
H715 C688 0.930 . S
H716 C693 0.929 . S
H717 C694 0.931 . S
H718 C696 0.930 . S
H719 C697 0.930 . S
Tb720 C722 2.809 . S
Tb720 O740 2.484 . S
Tb720 O741 2.440 . S
Tb720 O742 2.658 . S
Tb720 O743 2.409 . S
Tb720 O744 2.378 . S
Tb720 O748 2.325 . S
Tb720 O751 2.341 . S
Tb721 C731 2.809 . S
Tb721 O742 2.325 . S
Tb721 O745 2.341 . S
Tb721 O746 2.484 . S
Tb721 O747 2.440 . S
Tb721 O748 2.658 . S
Tb721 O749 2.409 . S
Tb721 O750 2.378 . S
C722 Tb720 2.809 . S
C722 C723 1.514 . S
C722 O740 1.248 . S
C722 O741 1.266 . S
C723 C722 1.514 . S
C723 C724 1.359 . S
C723 C728 1.348 . S
C724 C723 1.359 . S
C724 C725 1.380 . S
C724 H752 0.929 . S
C725 C724 1.380 . S
C725 C726 1.347 . S
C725 H753 0.931 . S
C726 C725 1.347 . S
C726 C727 1.369 . S
C727 C726 1.369 . S
C727 C728 1.408 . S
C727 H754 0.930 . S
C728 C723 1.348 . S
C728 C727 1.408 . S
C728 H755 0.930 . S
C729 O742 1.281 . S
C729 O743 1.254 . S
C730 O744 1.236 . S
C730 O745 1.266 . S
C731 Tb721 2.809 . S
C731 C732 1.514 . S
C731 O746 1.248 . S
C731 O747 1.266 . S
C732 C731 1.514 . S
C732 C733 1.359 . S
C732 C737 1.348 . S
C733 C732 1.359 . S
C733 C734 1.380 . S
C733 H756 0.929 . S
C734 C733 1.380 . S
C734 C735 1.347 . S
C734 H757 0.931 . S
C735 C734 1.347 . S
C735 C736 1.369 . S
C736 C735 1.369 . S
C736 C737 1.408 . S
C736 H758 0.930 . S
C737 C732 1.348 . S
C737 C736 1.408 . S
C737 H759 0.930 . S
C738 O748 1.281 . S
C738 O749 1.254 . S
C739 O750 1.236 . S
C739 O751 1.266 . S
O740 Tb720 2.484 . S
O740 C722 1.248 . S
O741 Tb720 2.440 . S
O741 C722 1.266 . S
O742 Tb720 2.658 . S
O742 Tb721 2.325 . S
O742 C729 1.281 . S
O743 Tb720 2.409 . S
O743 C729 1.254 . S
O744 Tb720 2.378 . S
O744 C730 1.236 . S
O745 Tb721 2.341 . S
O745 C730 1.266 . S
O746 Tb721 2.484 . S
O746 C731 1.248 . S
O747 Tb721 2.440 . S
O747 C731 1.266 . S
O748 Tb720 2.325 . S
O748 Tb721 2.658 . S
O748 C738 1.281 . S
O749 Tb721 2.409 . S
O749 C738 1.254 . S
O750 Tb721 2.378 . S
O750 C739 1.236 . S
O751 Tb720 2.341 . S
O751 C739 1.266 . S
H752 C724 0.929 . S
H753 C725 0.931 . S
H754 C727 0.930 . S
H755 C728 0.930 . S
H756 C733 0.929 . S
H757 C734 0.931 . S
H758 C736 0.930 . S
H759 C737 0.930 . S
Tb760 C762 2.809 . S
Tb760 O780 2.484 . S
Tb760 O781 2.440 . S
Tb760 O782 2.658 . S
Tb760 O783 2.409 . S
Tb760 O784 2.378 . S
Tb760 O788 2.325 . S
Tb760 O791 2.341 . S
Tb761 C771 2.809 . S
Tb761 O782 2.325 . S
Tb761 O785 2.341 . S
Tb761 O786 2.484 . S
Tb761 O787 2.440 . S
Tb761 O788 2.658 . S
Tb761 O789 2.409 . S
Tb761 O790 2.378 . S
C762 Tb760 2.809 . S
C762 C763 1.514 . S
C762 O780 1.248 . S
C762 O781 1.266 . S
C763 C762 1.514 . S
C763 C764 1.359 . S
C763 C768 1.348 . S
C764 C763 1.359 . S
C764 C765 1.380 . S
C764 H792 0.929 . S
C765 C764 1.380 . S
C765 C766 1.347 . S
C765 H793 0.931 . S
C766 C765 1.347 . S
C766 C767 1.369 . S
C767 C766 1.369 . S
C767 C768 1.408 . S
C767 H794 0.930 . S
C768 C763 1.348 . S
C768 C767 1.408 . S
C768 H795 0.930 . S
C769 O782 1.281 . S
C769 O783 1.254 . S
C770 O784 1.236 . S
C770 O785 1.266 . S
C771 Tb761 2.809 . S
C771 C772 1.514 . S
C771 O786 1.248 . S
C771 O787 1.266 . S
C772 C771 1.514 . S
C772 C773 1.359 . S
C772 C777 1.348 . S
C773 C772 1.359 . S
C773 C774 1.380 . S
C773 H796 0.929 . S
C774 C773 1.380 . S
C774 C775 1.347 . S
C774 H797 0.931 . S
C775 C774 1.347 . S
C775 C776 1.369 . S
C776 C775 1.369 . S
C776 C777 1.408 . S
C776 H798 0.930 . S
C777 C772 1.348 . S
C777 C776 1.408 . S
C777 H799 0.930 . S
C778 O788 1.281 . S
C778 O789 1.254 . S
C779 O790 1.236 . S
C779 O791 1.266 . S
O780 Tb760 2.484 . S
O780 C762 1.248 . S
O781 Tb760 2.440 . S
O781 C762 1.266 . S
O782 Tb760 2.658 . S
O782 Tb761 2.325 . S
O782 C769 1.281 . S
O783 Tb760 2.409 . S
O783 C769 1.254 . S
O784 Tb760 2.378 . S
O784 C770 1.236 . S
O785 Tb761 2.341 . S
O785 C770 1.266 . S
O786 Tb761 2.484 . S
O786 C771 1.248 . S
O787 Tb761 2.440 . S
O787 C771 1.266 . S
O788 Tb760 2.325 . S
O788 Tb761 2.658 . S
O788 C778 1.281 . S
O789 Tb761 2.409 . S
O789 C778 1.254 . S
O790 Tb761 2.378 . S
O790 C779 1.236 . S
O791 Tb760 2.341 . S
O791 C779 1.266 . S
H792 C764 0.929 . S
H793 C765 0.931 . S
H794 C767 0.930 . S
H795 C768 0.930 . S
H796 C773 0.929 . S
H797 C774 0.931 . S
H798 C776 0.930 . S
H799 C777 0.930 . S
Tb800 C802 2.809 . S
Tb800 O820 2.484 . S
Tb800 O821 2.440 . S
Tb800 O822 2.658 . S
Tb800 O823 2.409 . S
Tb800 O824 2.378 . S
Tb800 O828 2.325 . S
Tb800 O831 2.341 . S
Tb801 C811 2.809 . S
Tb801 O822 2.325 . S
Tb801 O825 2.341 . S
Tb801 O826 2.484 . S
Tb801 O827 2.440 . S
Tb801 O828 2.658 . S
Tb801 O829 2.409 . S
Tb801 O830 2.378 . S
C802 Tb800 2.809 . S
C802 C803 1.514 . S
C802 O820 1.248 . S
C802 O821 1.266 . S
C803 C802 1.514 . S
C803 C804 1.359 . S
C803 C808 1.348 . S
C804 C803 1.359 . S
C804 C805 1.380 . S
C804 H832 0.929 . S
C805 C804 1.380 . S
C805 C806 1.347 . S
C805 H833 0.931 . S
C806 C805 1.347 . S
C806 C807 1.369 . S
C807 C806 1.369 . S
C807 C808 1.408 . S
C807 H834 0.930 . S
C808 C803 1.348 . S
C808 C807 1.408 . S
C808 H835 0.930 . S
C809 O822 1.281 . S
C809 O823 1.254 . S
C810 O824 1.236 . S
C810 O825 1.266 . S
C811 Tb801 2.809 . S
C811 C812 1.514 . S
C811 O826 1.248 . S
C811 O827 1.266 . S
C812 C811 1.514 . S
C812 C813 1.359 . S
C812 C817 1.348 . S
C813 C812 1.359 . S
C813 C814 1.380 . S
C813 H836 0.929 . S
C814 C813 1.380 . S
C814 C815 1.347 . S
C814 H837 0.931 . S
C815 C814 1.347 . S
C815 C816 1.369 . S
C816 C815 1.369 . S
C816 C817 1.408 . S
C816 H838 0.930 . S
C817 C812 1.348 . S
C817 C816 1.408 . S
C817 H839 0.930 . S
C818 O828 1.281 . S
C818 O829 1.254 . S
C819 O830 1.236 . S
C819 O831 1.266 . S
O820 Tb800 2.484 . S
O820 C802 1.248 . S
O821 Tb800 2.440 . S
O821 C802 1.266 . S
O822 Tb800 2.658 . S
O822 Tb801 2.325 . S
O822 C809 1.281 . S
O823 Tb800 2.409 . S
O823 C809 1.254 . S
O824 Tb800 2.378 . S
O824 C810 1.236 . S
O825 Tb801 2.341 . S
O825 C810 1.266 . S
O826 Tb801 2.484 . S
O826 C811 1.248 . S
O827 Tb801 2.440 . S
O827 C811 1.266 . S
O828 Tb800 2.325 . S
O828 Tb801 2.658 . S
O828 C818 1.281 . S
O829 Tb801 2.409 . S
O829 C818 1.254 . S
O830 Tb801 2.378 . S
O830 C819 1.236 . S
O831 Tb800 2.341 . S
O831 C819 1.266 . S
H832 C804 0.929 . S
H833 C805 0.931 . S
H834 C807 0.930 . S
H835 C808 0.930 . S
H836 C813 0.929 . S
H837 C814 0.931 . S
H838 C816 0.930 . S
H839 C817 0.930 . S
Tb840 C842 2.809 . S
Tb840 O860 2.484 . S
Tb840 O861 2.440 . S
Tb840 O862 2.658 . S
Tb840 O863 2.409 . S
Tb840 O864 2.378 . S
Tb840 O868 2.325 . S
Tb840 O871 2.341 . S
Tb841 C851 2.809 . S
Tb841 O862 2.325 . S
Tb841 O865 2.341 . S
Tb841 O866 2.484 . S
Tb841 O867 2.440 . S
Tb841 O868 2.658 . S
Tb841 O869 2.409 . S
Tb841 O870 2.378 . S
C842 Tb840 2.809 . S
C842 C843 1.514 . S
C842 O860 1.248 . S
C842 O861 1.266 . S
C843 C842 1.514 . S
C843 C844 1.359 . S
C843 C848 1.348 . S
C844 C843 1.359 . S
C844 C845 1.380 . S
C844 H872 0.929 . S
C845 C844 1.380 . S
C845 C846 1.347 . S
C845 H873 0.931 . S
C846 C845 1.347 . S
C846 C847 1.369 . S
C847 C846 1.369 . S
C847 C848 1.408 . S
C847 H874 0.930 . S
C848 C843 1.348 . S
C848 C847 1.408 . S
C848 H875 0.930 . S
C849 O862 1.281 . S
C849 O863 1.254 . S
C850 O864 1.236 . S
C850 O865 1.266 . S
C851 Tb841 2.809 . S
C851 C852 1.514 . S
C851 O866 1.248 . S
C851 O867 1.266 . S
C852 C851 1.514 . S
C852 C853 1.359 . S
C852 C857 1.348 . S
C853 C852 1.359 . S
C853 C854 1.380 . S
C853 H876 0.929 . S
C854 C853 1.380 . S
C854 C855 1.347 . S
C854 H877 0.931 . S
C855 C854 1.347 . S
C855 C856 1.369 . S
C856 C855 1.369 . S
C856 C857 1.408 . S
C856 H878 0.930 . S
C857 C852 1.348 . S
C857 C856 1.408 . S
C857 H879 0.930 . S
C858 O868 1.281 . S
C858 O869 1.254 . S
C859 O870 1.236 . S
C859 O871 1.266 . S
O860 Tb840 2.484 . S
O860 C842 1.248 . S
O861 Tb840 2.440 . S
O861 C842 1.266 . S
O862 Tb840 2.658 . S
O862 Tb841 2.325 . S
O862 C849 1.281 . S
O863 Tb840 2.409 . S
O863 C849 1.254 . S
O864 Tb840 2.378 . S
O864 C850 1.236 . S
O865 Tb841 2.341 . S
O865 C850 1.266 . S
O866 Tb841 2.484 . S
O866 C851 1.248 . S
O867 Tb841 2.440 . S
O867 C851 1.266 . S
O868 Tb840 2.325 . S
O868 Tb841 2.658 . S
O868 C858 1.281 . S
O869 Tb841 2.409 . S
O869 C858 1.254 . S
O870 Tb841 2.378 . S
O870 C859 1.236 . S
O871 Tb840 2.341 . S
O871 C859 1.266 . S
H872 C844 0.929 . S
H873 C845 0.931 . S
H874 C847 0.930 . S
H875 C848 0.930 . S
H876 C853 0.929 . S
H877 C854 0.931 . S
H878 C856 0.930 . S
H879 C857 0.930 . S
Tb880 C882 2.809 . S
Tb880 O900 2.484 . S
Tb880 O901 2.440 . S
Tb880 O902 2.658 . S
Tb880 O903 2.409 . S
Tb880 O904 2.378 . S
Tb880 O908 2.325 . S
Tb880 O911 2.341 . S
Tb881 C891 2.809 . S
Tb881 O902 2.325 . S
Tb881 O905 2.341 . S
Tb881 O906 2.484 . S
Tb881 O907 2.440 . S
Tb881 O908 2.658 . S
Tb881 O909 2.409 . S
Tb881 O910 2.378 . S
C882 Tb880 2.809 . S
C882 C883 1.514 . S
C882 O900 1.248 . S
C882 O901 1.266 . S
C883 C882 1.514 . S
C883 C884 1.359 . S
C883 C888 1.348 . S
C884 C883 1.359 . S
C884 C885 1.380 . S
C884 H912 0.929 . S
C885 C884 1.380 . S
C885 C886 1.347 . S
C885 H913 0.931 . S
C886 C885 1.347 . S
C886 C887 1.369 . S
C887 C886 1.369 . S
C887 C888 1.408 . S
C887 H914 0.930 . S
C888 C883 1.348 . S
C888 C887 1.408 . S
C888 H915 0.930 . S
C889 O902 1.281 . S
C889 O903 1.254 . S
C890 O904 1.236 . S
C890 O905 1.266 . S
C891 Tb881 2.809 . S
C891 C892 1.514 . S
C891 O906 1.248 . S
C891 O907 1.266 . S
C892 C891 1.514 . S
C892 C893 1.359 . S
C892 C897 1.348 . S
C893 C892 1.359 . S
C893 C894 1.380 . S
C893 H916 0.929 . S
C894 C893 1.380 . S
C894 C895 1.347 . S
C894 H917 0.931 . S
C895 C894 1.347 . S
C895 C896 1.369 . S
C896 C895 1.369 . S
C896 C897 1.408 . S
C896 H918 0.930 . S
C897 C892 1.348 . S
C897 C896 1.408 . S
C897 H919 0.930 . S
C898 O908 1.281 . S
C898 O909 1.254 . S
C899 O910 1.236 . S
C899 O911 1.266 . S
O900 Tb880 2.484 . S
O900 C882 1.248 . S
O901 Tb880 2.440 . S
O901 C882 1.266 . S
O902 Tb880 2.658 . S
O902 Tb881 2.325 . S
O902 C889 1.281 . S
O903 Tb880 2.409 . S
O903 C889 1.254 . S
O904 Tb880 2.378 . S
O904 C890 1.236 . S
O905 Tb881 2.341 . S
O905 C890 1.266 . S
O906 Tb881 2.484 . S
O906 C891 1.248 . S
O907 Tb881 2.440 . S
O907 C891 1.266 . S
O908 Tb880 2.325 . S
O908 Tb881 2.658 . S
O908 C898 1.281 . S
O909 Tb881 2.409 . S
O909 C898 1.254 . S
O910 Tb881 2.378 . S
O910 C899 1.236 . S
O911 Tb880 2.341 . S
O911 C899 1.266 . S
H912 C884 0.929 . S
H913 C885 0.931 . S
H914 C887 0.930 . S
H915 C888 0.930 . S
H916 C893 0.929 . S
H917 C894 0.931 . S
H918 C896 0.930 . S
H919 C897 0.930 . S
Tb920 C922 2.809 . S
Tb920 O940 2.484 . S
Tb920 O941 2.440 . S
Tb920 O942 2.658 . S
Tb920 O943 2.409 . S
Tb920 O944 2.378 . S
Tb920 O948 2.325 . S
Tb920 O951 2.341 . S
Tb921 C931 2.809 . S
Tb921 O942 2.325 . S
Tb921 O945 2.341 . S
Tb921 O946 2.484 . S
Tb921 O947 2.440 . S
Tb921 O948 2.658 . S
Tb921 O949 2.409 . S
Tb921 O950 2.378 . S
C922 Tb920 2.809 . S
C922 C923 1.514 . S
C922 O940 1.248 . S
C922 O941 1.266 . S
C923 C922 1.514 . S
C923 C924 1.359 . S
C923 C928 1.348 . S
C924 C923 1.359 . S
C924 C925 1.380 . S
C924 H952 0.929 . S
C925 C924 1.380 . S
C925 C926 1.347 . S
C925 H953 0.931 . S
C926 C925 1.347 . S
C926 C927 1.369 . S
C927 C926 1.369 . S
C927 C928 1.408 . S
C927 H954 0.930 . S
C928 C923 1.348 . S
C928 C927 1.408 . S
C928 H955 0.930 . S
C929 O942 1.281 . S
C929 O943 1.254 . S
C930 O944 1.236 . S
C930 O945 1.266 . S
C931 Tb921 2.809 . S
C931 C932 1.514 . S
C931 O946 1.248 . S
C931 O947 1.266 . S
C932 C931 1.514 . S
C932 C933 1.359 . S
C932 C937 1.348 . S
C933 C932 1.359 . S
C933 C934 1.380 . S
C933 H956 0.929 . S
C934 C933 1.380 . S
C934 C935 1.347 . S
C934 H957 0.931 . S
C935 C934 1.347 . S
C935 C936 1.369 . S
C936 C935 1.369 . S
C936 C937 1.408 . S
C936 H958 0.930 . S
C937 C932 1.348 . S
C937 C936 1.408 . S
C937 H959 0.930 . S
C938 O948 1.281 . S
C938 O949 1.254 . S
C939 O950 1.236 . S
C939 O951 1.266 . S
O940 Tb920 2.484 . S
O940 C922 1.248 . S
O941 Tb920 2.440 . S
O941 C922 1.266 . S
O942 Tb920 2.658 . S
O942 Tb921 2.325 . S
O942 C929 1.281 . S
O943 Tb920 2.409 . S
O943 C929 1.254 . S
O944 Tb920 2.378 . S
O944 C930 1.236 . S
O945 Tb921 2.341 . S
O945 C930 1.266 . S
O946 Tb921 2.484 . S
O946 C931 1.248 . S
O947 Tb921 2.440 . S
O947 C931 1.266 . S
O948 Tb920 2.325 . S
O948 Tb921 2.658 . S
O948 C938 1.281 . S
O949 Tb921 2.409 . S
O949 C938 1.254 . S
O950 Tb921 2.378 . S
O950 C939 1.236 . S
O951 Tb920 2.341 . S
O951 C939 1.266 . S
H952 C924 0.929 . S
H953 C925 0.931 . S
H954 C927 0.930 . S
H955 C928 0.930 . S
H956 C933 0.929 . S
H957 C934 0.931 . S
H958 C936 0.930 . S
H959 C937 0.930 . S
Tb960 C962 2.809 . S
Tb960 O980 2.484 . S
Tb960 O981 2.440 . S
Tb960 O982 2.658 . S
Tb960 O983 2.409 . S
Tb960 O984 2.378 . S
Tb960 O988 2.325 . S
Tb960 O991 2.341 . S
Tb961 C971 2.809 . S
Tb961 O982 2.325 . S
Tb961 O985 2.341 . S
Tb961 O986 2.484 . S
Tb961 O987 2.440 . S
Tb961 O988 2.658 . S
Tb961 O989 2.409 . S
Tb961 O990 2.378 . S
C962 Tb960 2.809 . S
C962 C963 1.514 . S
C962 O980 1.248 . S
C962 O981 1.266 . S
C963 C962 1.514 . S
C963 C964 1.359 . S
C963 C968 1.348 . S
C964 C963 1.359 . S
C964 C965 1.380 . S
C964 H992 0.929 . S
C965 C964 1.380 . S
C965 C966 1.347 . S
C965 H993 0.931 . S
C966 C965 1.347 . S
C966 C967 1.369 . S
C967 C966 1.369 . S
C967 C968 1.408 . S
C967 H994 0.930 . S
C968 C963 1.348 . S
C968 C967 1.408 . S
C968 H995 0.930 . S
C969 O982 1.281 . S
C969 O983 1.254 . S
C970 O984 1.236 . S
C970 O985 1.266 . S
C971 Tb961 2.809 . S
C971 C972 1.514 . S
C971 O986 1.248 . S
C971 O987 1.266 . S
C972 C971 1.514 . S
C972 C973 1.359 . S
C972 C977 1.348 . S
C973 C972 1.359 . S
C973 C974 1.380 . S
C973 H996 0.929 . S
C974 C973 1.380 . S
C974 C975 1.347 . S
C974 H997 0.931 . S
C975 C974 1.347 . S
C975 C976 1.369 . S
C976 C975 1.369 . S
C976 C977 1.408 . S
C976 H998 0.930 . S
C977 C972 1.348 . S
C977 C976 1.408 . S
C977 H999 0.930 . S
C978 O988 1.281 . S
C978 O989 1.254 . S
C979 O990 1.236 . S
C979 O991 1.266 . S
O980 Tb960 2.484 . S
O980 C962 1.248 . S
O981 Tb960 2.440 . S
O981 C962 1.266 . S
O982 Tb960 2.658 . S
O982 Tb961 2.325 . S
O982 C969 1.281 . S
O983 Tb960 2.409 . S
O983 C969 1.254 . S
O984 Tb960 2.378 . S
O984 C970 1.236 . S
O985 Tb961 2.341 . S
O985 C970 1.266 . S
O986 Tb961 2.484 . S
O986 C971 1.248 . S
O987 Tb961 2.440 . S
O987 C971 1.266 . S
O988 Tb960 2.325 . S
O988 Tb961 2.658 . S
O988 C978 1.281 . S
O989 Tb961 2.409 . S
O989 C978 1.254 . S
O990 Tb961 2.378 . S
O990 C979 1.236 . S
O991 Tb960 2.341 . S
O991 C979 1.266 . S
H992 C964 0.929 . S
H993 C965 0.931 . S
H994 C967 0.930 . S
H995 C968 0.930 . S
H996 C973 0.929 . S
H997 C974 0.931 . S
H998 C976 0.930 . S
H999 C977 0.930 . S
Tb1000 C1002 2.809 . S
Tb1000 O1020 2.484 . S
Tb1000 O1021 2.440 . S
Tb1000 O1022 2.658 . S
Tb1000 O1023 2.409 . S
Tb1000 O1024 2.378 . S
Tb1000 O1028 2.325 . S
Tb1000 O1031 2.341 . S
Tb1001 C1011 2.809 . S
Tb1001 O1022 2.325 . S
Tb1001 O1025 2.341 . S
Tb1001 O1026 2.484 . S
Tb1001 O1027 2.440 . S
Tb1001 O1028 2.658 . S
Tb1001 O1029 2.409 . S
Tb1001 O1030 2.378 . S
C1002 Tb1000 2.809 . S
C1002 C1003 1.514 . S
C1002 O1020 1.248 . S
C1002 O1021 1.266 . S
C1003 C1002 1.514 . S
C1003 C1004 1.359 . S
C1003 C1008 1.348 . S
C1004 C1003 1.359 . S
C1004 C1005 1.380 . S
C1004 H1032 0.929 . S
C1005 C1004 1.380 . S
C1005 C1006 1.347 . S
C1005 H1033 0.931 . S
C1006 C1005 1.347 . S
C1006 C1007 1.369 . S
C1007 C1006 1.369 . S
C1007 C1008 1.408 . S
C1007 H1034 0.930 . S
C1008 C1003 1.348 . S
C1008 C1007 1.408 . S
C1008 H1035 0.930 . S
C1009 O1022 1.281 . S
C1009 O1023 1.254 . S
C1010 O1024 1.236 . S
C1010 O1025 1.266 . S
C1011 Tb1001 2.809 . S
C1011 C1012 1.514 . S
C1011 O1026 1.248 . S
C1011 O1027 1.266 . S
C1012 C1011 1.514 . S
C1012 C1013 1.359 . S
C1012 C1017 1.348 . S
C1013 C1012 1.359 . S
C1013 C1014 1.380 . S
C1013 H1036 0.929 . S
C1014 C1013 1.380 . S
C1014 C1015 1.347 . S
C1014 H1037 0.931 . S
C1015 C1014 1.347 . S
C1015 C1016 1.369 . S
C1016 C1015 1.369 . S
C1016 C1017 1.408 . S
C1016 H1038 0.930 . S
C1017 C1012 1.348 . S
C1017 C1016 1.408 . S
C1017 H1039 0.930 . S
C1018 O1028 1.281 . S
C1018 O1029 1.254 . S
C1019 O1030 1.236 . S
C1019 O1031 1.266 . S
O1020 Tb1000 2.484 . S
O1020 C1002 1.248 . S
O1021 Tb1000 2.440 . S
O1021 C1002 1.266 . S
O1022 Tb1000 2.658 . S
O1022 Tb1001 2.325 . S
O1022 C1009 1.281 . S
O1023 Tb1000 2.409 . S
O1023 C1009 1.254 . S
O1024 Tb1000 2.378 . S
O1024 C1010 1.236 . S
O1025 Tb1001 2.341 . S
O1025 C1010 1.266 . S
O1026 Tb1001 2.484 . S
O1026 C1011 1.248 . S
O1027 Tb1001 2.440 . S
O1027 C1011 1.266 . S
O1028 Tb1000 2.325 . S
O1028 Tb1001 2.658 . S
O1028 C1018 1.281 . S
O1029 Tb1001 2.409 . S
O1029 C1018 1.254 . S
O1030 Tb1001 2.378 . S
O1030 C1019 1.236 . S
O1031 Tb1000 2.341 . S
O1031 C1019 1.266 . S
H1032 C1004 0.929 . S
H1033 C1005 0.931 . S
H1034 C1007 0.930 . S
H1035 C1008 0.930 . S
H1036 C1013 0.929 . S
H1037 C1014 0.931 . S
H1038 C1016 0.930 . S
H1039 C1017 0.930 . S
Tb1040 C1042 2.809 . S
Tb1040 O1060 2.484 . S
Tb1040 O1061 2.440 . S
Tb1040 O1062 2.658 . S
Tb1040 O1063 2.409 . S
Tb1040 O1064 2.378 . S
Tb1040 O1068 2.325 . S
Tb1040 O1071 2.341 . S
Tb1041 C1051 2.809 . S
Tb1041 O1062 2.325 . S
Tb1041 O1065 2.341 . S
Tb1041 O1066 2.484 . S
Tb1041 O1067 2.440 . S
Tb1041 O1068 2.658 . S
Tb1041 O1069 2.409 . S
Tb1041 O1070 2.378 . S
C1042 Tb1040 2.809 . S
C1042 C1043 1.514 . S
C1042 O1060 1.248 . S
C1042 O1061 1.266 . S
C1043 C1042 1.514 . S
C1043 C1044 1.359 . S
C1043 C1048 1.348 . S
C1044 C1043 1.359 . S
C1044 C1045 1.380 . S
C1044 H1072 0.929 . S
C1045 C1044 1.380 . S
C1045 C1046 1.347 . S
C1045 H1073 0.931 . S
C1046 C1045 1.347 . S
C1046 C1047 1.369 . S
C1047 C1046 1.369 . S
C1047 C1048 1.408 . S
C1047 H1074 0.930 . S
C1048 C1043 1.348 . S
C1048 C1047 1.408 . S
C1048 H1075 0.930 . S
C1049 O1062 1.281 . S
C1049 O1063 1.254 . S
C1050 O1064 1.236 . S
C1050 O1065 1.266 . S
C1051 Tb1041 2.809 . S
C1051 C1052 1.514 . S
C1051 O1066 1.248 . S
C1051 O1067 1.266 . S
C1052 C1051 1.514 . S
C1052 C1053 1.359 . S
C1052 C1057 1.348 . S
C1053 C1052 1.359 . S
C1053 C1054 1.380 . S
C1053 H1076 0.929 . S
C1054 C1053 1.380 . S
C1054 C1055 1.347 . S
C1054 H1077 0.931 . S
C1055 C1054 1.347 . S
C1055 C1056 1.369 . S
C1056 C1055 1.369 . S
C1056 C1057 1.408 . S
C1056 H1078 0.930 . S
C1057 C1052 1.348 . S
C1057 C1056 1.408 . S
C1057 H1079 0.930 . S
C1058 O1068 1.281 . S
C1058 O1069 1.254 . S
C1059 O1070 1.236 . S
C1059 O1071 1.266 . S
O1060 Tb1040 2.484 . S
O1060 C1042 1.248 . S
O1061 Tb1040 2.440 . S
O1061 C1042 1.266 . S
O1062 Tb1040 2.658 . S
O1062 Tb1041 2.325 . S
O1062 C1049 1.281 . S
O1063 Tb1040 2.409 . S
O1063 C1049 1.254 . S
O1064 Tb1040 2.378 . S
O1064 C1050 1.236 . S
O1065 Tb1041 2.341 . S
O1065 C1050 1.266 . S
O1066 Tb1041 2.484 . S
O1066 C1051 1.248 . S
O1067 Tb1041 2.440 . S
O1067 C1051 1.266 . S
O1068 Tb1040 2.325 . S
O1068 Tb1041 2.658 . S
O1068 C1058 1.281 . S
O1069 Tb1041 2.409 . S
O1069 C1058 1.254 . S
O1070 Tb1041 2.378 . S
O1070 C1059 1.236 . S
O1071 Tb1040 2.341 . S
O1071 C1059 1.266 . S
H1072 C1044 0.929 . S
H1073 C1045 0.931 . S
H1074 C1047 0.930 . S
H1075 C1048 0.930 . S
H1076 C1053 0.929 . S
H1077 C1054 0.931 . S
H1078 C1056 0.930 . S
H1079 C1057 0.930 . S
Tb1080 C1082 2.809 . S
Tb1080 O1100 2.484 . S
Tb1080 O1101 2.440 . S
Tb1080 O1102 2.658 . S
Tb1080 O1103 2.409 . S
Tb1080 O1104 2.378 . S
Tb1080 O1108 2.325 . S
Tb1080 O1111 2.341 . S
Tb1081 C1091 2.809 . S
Tb1081 O1102 2.325 . S
Tb1081 O1105 2.341 . S
Tb1081 O1106 2.484 . S
Tb1081 O1107 2.440 . S
Tb1081 O1108 2.658 . S
Tb1081 O1109 2.409 . S
Tb1081 O1110 2.378 . S
C1082 Tb1080 2.809 . S
C1082 C1083 1.514 . S
C1082 O1100 1.248 . S
C1082 O1101 1.266 . S
C1083 C1082 1.514 . S
C1083 C1084 1.359 . S
C1083 C1088 1.348 . S
C1084 C1083 1.359 . S
C1084 C1085 1.380 . S
C1084 H1112 0.929 . S
C1085 C1084 1.380 . S
C1085 C1086 1.347 . S
C1085 H1113 0.931 . S
C1086 C1085 1.347 . S
C1086 C1087 1.369 . S
C1087 C1086 1.369 . S
C1087 C1088 1.408 . S
C1087 H1114 0.930 . S
C1088 C1083 1.348 . S
C1088 C1087 1.408 . S
C1088 H1115 0.930 . S
C1089 O1102 1.281 . S
C1089 O1103 1.254 . S
C1090 O1104 1.236 . S
C1090 O1105 1.266 . S
C1091 Tb1081 2.809 . S
C1091 C1092 1.514 . S
C1091 O1106 1.248 . S
C1091 O1107 1.266 . S
C1092 C1091 1.514 . S
C1092 C1093 1.359 . S
C1092 C1097 1.348 . S
C1093 C1092 1.359 . S
C1093 C1094 1.380 . S
C1093 H1116 0.929 . S
C1094 C1093 1.380 . S
C1094 C1095 1.347 . S
C1094 H1117 0.931 . S
C1095 C1094 1.347 . S
C1095 C1096 1.369 . S
C1096 C1095 1.369 . S
C1096 C1097 1.408 . S
C1096 H1118 0.930 . S
C1097 C1092 1.348 . S
C1097 C1096 1.408 . S
C1097 H1119 0.930 . S
C1098 O1108 1.281 . S
C1098 O1109 1.254 . S
C1099 O1110 1.236 . S
C1099 O1111 1.266 . S
O1100 Tb1080 2.484 . S
O1100 C1082 1.248 . S
O1101 Tb1080 2.440 . S
O1101 C1082 1.266 . S
O1102 Tb1080 2.658 . S
O1102 Tb1081 2.325 . S
O1102 C1089 1.281 . S
O1103 Tb1080 2.409 . S
O1103 C1089 1.254 . S
O1104 Tb1080 2.378 . S
O1104 C1090 1.236 . S
O1105 Tb1081 2.341 . S
O1105 C1090 1.266 . S
O1106 Tb1081 2.484 . S
O1106 C1091 1.248 . S
O1107 Tb1081 2.440 . S
O1107 C1091 1.266 . S
O1108 Tb1080 2.325 . S
O1108 Tb1081 2.658 . S
O1108 C1098 1.281 . S
O1109 Tb1081 2.409 . S
O1109 C1098 1.254 . S
O1110 Tb1081 2.378 . S
O1110 C1099 1.236 . S
O1111 Tb1080 2.341 . S
O1111 C1099 1.266 . S
H1112 C1084 0.929 . S
H1113 C1085 0.931 . S
H1114 C1087 0.930 . S
H1115 C1088 0.930 . S
H1116 C1093 0.929 . S
H1117 C1094 0.931 . S
H1118 C1096 0.930 . S
H1119 C1097 0.930 . S
Tb1120 C1122 2.809 . S
Tb1120 O1140 2.484 . S
Tb1120 O1141 2.440 . S
Tb1120 O1142 2.658 . S
Tb1120 O1143 2.409 . S
Tb1120 O1144 2.378 . S
Tb1120 O1148 2.325 . S
Tb1120 O1151 2.341 . S
Tb1121 C1131 2.809 . S
Tb1121 O1142 2.325 . S
Tb1121 O1145 2.341 . S
Tb1121 O1146 2.484 . S
Tb1121 O1147 2.440 . S
Tb1121 O1148 2.658 . S
Tb1121 O1149 2.409 . S
Tb1121 O1150 2.378 . S
C1122 Tb1120 2.809 . S
C1122 C1123 1.514 . S
C1122 O1140 1.248 . S
C1122 O1141 1.266 . S
C1123 C1122 1.514 . S
C1123 C1124 1.359 . S
C1123 C1128 1.348 . S
C1124 C1123 1.359 . S
C1124 C1125 1.380 . S
C1124 H1152 0.929 . S
C1125 C1124 1.380 . S
C1125 C1126 1.347 . S
C1125 H1153 0.931 . S
C1126 C1125 1.347 . S
C1126 C1127 1.369 . S
C1127 C1126 1.369 . S
C1127 C1128 1.408 . S
C1127 H1154 0.930 . S
C1128 C1123 1.348 . S
C1128 C1127 1.408 . S
C1128 H1155 0.930 . S
C1129 O1142 1.281 . S
C1129 O1143 1.254 . S
C1130 O1144 1.236 . S
C1130 O1145 1.266 . S
C1131 Tb1121 2.809 . S
C1131 C1132 1.514 . S
C1131 O1146 1.248 . S
C1131 O1147 1.266 . S
C1132 C1131 1.514 . S
C1132 C1133 1.359 . S
C1132 C1137 1.348 . S
C1133 C1132 1.359 . S
C1133 C1134 1.380 . S
C1133 H1156 0.929 . S
C1134 C1133 1.380 . S
C1134 C1135 1.347 . S
C1134 H1157 0.931 . S
C1135 C1134 1.347 . S
C1135 C1136 1.369 . S
C1136 C1135 1.369 . S
C1136 C1137 1.408 . S
C1136 H1158 0.930 . S
C1137 C1132 1.348 . S
C1137 C1136 1.408 . S
C1137 H1159 0.930 . S
C1138 O1148 1.281 . S
C1138 O1149 1.254 . S
C1139 O1150 1.236 . S
C1139 O1151 1.266 . S
O1140 Tb1120 2.484 . S
O1140 C1122 1.248 . S
O1141 Tb1120 2.440 . S
O1141 C1122 1.266 . S
O1142 Tb1120 2.658 . S
O1142 Tb1121 2.325 . S
O1142 C1129 1.281 . S
O1143 Tb1120 2.409 . S
O1143 C1129 1.254 . S
O1144 Tb1120 2.378 . S
O1144 C1130 1.236 . S
O1145 Tb1121 2.341 . S
O1145 C1130 1.266 . S
O1146 Tb1121 2.484 . S
O1146 C1131 1.248 . S
O1147 Tb1121 2.440 . S
O1147 C1131 1.266 . S
O1148 Tb1120 2.325 . S
O1148 Tb1121 2.658 . S
O1148 C1138 1.281 . S
O1149 Tb1121 2.409 . S
O1149 C1138 1.254 . S
O1150 Tb1121 2.378 . S
O1150 C1139 1.236 . S
O1151 Tb1120 2.341 . S
O1151 C1139 1.266 . S
H1152 C1124 0.929 . S
H1153 C1125 0.931 . S
H1154 C1127 0.930 . S
H1155 C1128 0.930 . S
H1156 C1133 0.929 . S
H1157 C1134 0.931 . S
H1158 C1136 0.930 . S
H1159 C1137 0.930 . S
Tb1160 C1162 2.809 . S
Tb1160 O1180 2.484 . S
Tb1160 O1181 2.440 . S
Tb1160 O1182 2.658 . S
Tb1160 O1183 2.409 . S
Tb1160 O1184 2.378 . S
Tb1160 O1188 2.325 . S
Tb1160 O1191 2.341 . S
Tb1161 C1171 2.809 . S
Tb1161 O1182 2.325 . S
Tb1161 O1185 2.341 . S
Tb1161 O1186 2.484 . S
Tb1161 O1187 2.440 . S
Tb1161 O1188 2.658 . S
Tb1161 O1189 2.409 . S
Tb1161 O1190 2.378 . S
C1162 Tb1160 2.809 . S
C1162 C1163 1.514 . S
C1162 O1180 1.248 . S
C1162 O1181 1.266 . S
C1163 C1162 1.514 . S
C1163 C1164 1.359 . S
C1163 C1168 1.348 . S
C1164 C1163 1.359 . S
C1164 C1165 1.380 . S
C1164 H1192 0.929 . S
C1165 C1164 1.380 . S
C1165 C1166 1.347 . S
C1165 H1193 0.931 . S
C1166 C1165 1.347 . S
C1166 C1167 1.369 . S
C1167 C1166 1.369 . S
C1167 C1168 1.408 . S
C1167 H1194 0.930 . S
C1168 C1163 1.348 . S
C1168 C1167 1.408 . S
C1168 H1195 0.930 . S
C1169 O1182 1.281 . S
C1169 O1183 1.254 . S
C1170 O1184 1.236 . S
C1170 O1185 1.266 . S
C1171 Tb1161 2.809 . S
C1171 C1172 1.514 . S
C1171 O1186 1.248 . S
C1171 O1187 1.266 . S
C1172 C1171 1.514 . S
C1172 C1173 1.359 . S
C1172 C1177 1.348 . S
C1173 C1172 1.359 . S
C1173 C1174 1.380 . S
C1173 H1196 0.929 . S
C1174 C1173 1.380 . S
C1174 C1175 1.347 . S
C1174 H1197 0.931 . S
C1175 C1174 1.347 . S
C1175 C1176 1.369 . S
C1176 C1175 1.369 . S
C1176 C1177 1.408 . S
C1176 H1198 0.930 . S
C1177 C1172 1.348 . S
C1177 C1176 1.408 . S
C1177 H1199 0.930 . S
C1178 O1188 1.281 . S
C1178 O1189 1.254 . S
C1179 O1190 1.236 . S
C1179 O1191 1.266 . S
O1180 Tb1160 2.484 . S
O1180 C1162 1.248 . S
O1181 Tb1160 2.440 . S
O1181 C1162 1.266 . S
O1182 Tb1160 2.658 . S
O1182 Tb1161 2.325 . S
O1182 C1169 1.281 . S
O1183 Tb1160 2.409 . S
O1183 C1169 1.254 . S
O1184 Tb1160 2.378 . S
O1184 C1170 1.236 . S
O1185 Tb1161 2.341 . S
O1185 C1170 1.266 . S
O1186 Tb1161 2.484 . S
O1186 C1171 1.248 . S
O1187 Tb1161 2.440 . S
O1187 C1171 1.266 . S
O1188 Tb1160 2.325 . S
O1188 Tb1161 2.658 . S
O1188 C1178 1.281 . S
O1189 Tb1161 2.409 . S
O1189 C1178 1.254 . S
O1190 Tb1161 2.378 . S
O1190 C1179 1.236 . S
O1191 Tb1160 2.341 . S
O1191 C1179 1.266 . S
H1192 C1164 0.929 . S
H1193 C1165 0.931 . S
H1194 C1167 0.930 . S
H1195 C1168 0.930 . S
H1196 C1173 0.929 . S
H1197 C1174 0.931 . S
H1198 C1176 0.930 . S
H1199 C1177 0.930 . S
Tb1200 C1202 2.809 . S
Tb1200 O1220 2.484 . S
Tb1200 O1221 2.440 . S
Tb1200 O1222 2.658 . S
Tb1200 O1223 2.409 . S
Tb1200 O1224 2.378 . S
Tb1200 O1228 2.325 . S
Tb1200 O1231 2.341 . S
Tb1201 C1211 2.809 . S
Tb1201 O1222 2.325 . S
Tb1201 O1225 2.341 . S
Tb1201 O1226 2.484 . S
Tb1201 O1227 2.440 . S
Tb1201 O1228 2.658 . S
Tb1201 O1229 2.409 . S
Tb1201 O1230 2.378 . S
C1202 Tb1200 2.809 . S
C1202 C1203 1.514 . S
C1202 O1220 1.248 . S
C1202 O1221 1.266 . S
C1203 C1202 1.514 . S
C1203 C1204 1.359 . S
C1203 C1208 1.348 . S
C1204 C1203 1.359 . S
C1204 C1205 1.380 . S
C1204 H1232 0.929 . S
C1205 C1204 1.380 . S
C1205 C1206 1.347 . S
C1205 H1233 0.931 . S
C1206 C1205 1.347 . S
C1206 C1207 1.369 . S
C1207 C1206 1.369 . S
C1207 C1208 1.408 . S
C1207 H1234 0.930 . S
C1208 C1203 1.348 . S
C1208 C1207 1.408 . S
C1208 H1235 0.930 . S
C1209 O1222 1.281 . S
C1209 O1223 1.254 . S
C1210 O1224 1.236 . S
C1210 O1225 1.266 . S
C1211 Tb1201 2.809 . S
C1211 C1212 1.514 . S
C1211 O1226 1.248 . S
C1211 O1227 1.266 . S
C1212 C1211 1.514 . S
C1212 C1213 1.359 . S
C1212 C1217 1.348 . S
C1213 C1212 1.359 . S
C1213 C1214 1.380 . S
C1213 H1236 0.929 . S
C1214 C1213 1.380 . S
C1214 C1215 1.347 . S
C1214 H1237 0.931 . S
C1215 C1214 1.347 . S
C1215 C1216 1.369 . S
C1216 C1215 1.369 . S
C1216 C1217 1.408 . S
C1216 H1238 0.930 . S
C1217 C1212 1.348 . S
C1217 C1216 1.408 . S
C1217 H1239 0.930 . S
C1218 O1228 1.281 . S
C1218 O1229 1.254 . S
C1219 O1230 1.236 . S
C1219 O1231 1.266 . S
O1220 Tb1200 2.484 . S
O1220 C1202 1.248 . S
O1221 Tb1200 2.440 . S
O1221 C1202 1.266 . S
O1222 Tb1200 2.658 . S
O1222 Tb1201 2.325 . S
O1222 C1209 1.281 . S
O1223 Tb1200 2.409 . S
O1223 C1209 1.254 . S
O1224 Tb1200 2.378 . S
O1224 C1210 1.236 . S
O1225 Tb1201 2.341 . S
O1225 C1210 1.266 . S
O1226 Tb1201 2.484 . S
O1226 C1211 1.248 . S
O1227 Tb1201 2.440 . S
O1227 C1211 1.266 . S
O1228 Tb1200 2.325 . S
O1228 Tb1201 2.658 . S
O1228 C1218 1.281 . S
O1229 Tb1201 2.409 . S
O1229 C1218 1.254 . S
O1230 Tb1201 2.378 . S
O1230 C1219 1.236 . S
O1231 Tb1200 2.341 . S
O1231 C1219 1.266 . S
H1232 C1204 0.929 . S
H1233 C1205 0.931 . S
H1234 C1207 0.930 . S
H1235 C1208 0.930 . S
H1236 C1213 0.929 . S
H1237 C1214 0.931 . S
H1238 C1216 0.930 . S
H1239 C1217 0.930 . S
Tb1240 C1242 2.809 . S
Tb1240 O1260 2.484 . S
Tb1240 O1261 2.440 . S
Tb1240 O1262 2.658 . S
Tb1240 O1263 2.409 . S
Tb1240 O1264 2.378 . S
Tb1240 O1268 2.325 . S
Tb1240 O1271 2.341 . S
Tb1241 C1251 2.809 . S
Tb1241 O1262 2.325 . S
Tb1241 O1265 2.341 . S
Tb1241 O1266 2.484 . S
Tb1241 O1267 2.440 . S
Tb1241 O1268 2.658 . S
Tb1241 O1269 2.409 . S
Tb1241 O1270 2.378 . S
C1242 Tb1240 2.809 . S
C1242 C1243 1.514 . S
C1242 O1260 1.248 . S
C1242 O1261 1.266 . S
C1243 C1242 1.514 . S
C1243 C1244 1.359 . S
C1243 C1248 1.348 . S
C1244 C1243 1.359 . S
C1244 C1245 1.380 . S
C1244 H1272 0.929 . S
C1245 C1244 1.380 . S
C1245 C1246 1.347 . S
C1245 H1273 0.931 . S
C1246 C1245 1.347 . S
C1246 C1247 1.369 . S
C1247 C1246 1.369 . S
C1247 C1248 1.408 . S
C1247 H1274 0.930 . S
C1248 C1243 1.348 . S
C1248 C1247 1.408 . S
C1248 H1275 0.930 . S
C1249 O1262 1.281 . S
C1249 O1263 1.254 . S
C1250 O1264 1.236 . S
C1250 O1265 1.266 . S
C1251 Tb1241 2.809 . S
C1251 C1252 1.514 . S
C1251 O1266 1.248 . S
C1251 O1267 1.266 . S
C1252 C1251 1.514 . S
C1252 C1253 1.359 . S
C1252 C1257 1.348 . S
C1253 C1252 1.359 . S
C1253 C1254 1.380 . S
C1253 H1276 0.929 . S
C1254 C1253 1.380 . S
C1254 C1255 1.347 . S
C1254 H1277 0.931 . S
C1255 C1254 1.347 . S
C1255 C1256 1.369 . S
C1256 C1255 1.369 . S
C1256 C1257 1.408 . S
C1256 H1278 0.930 . S
C1257 C1252 1.348 . S
C1257 C1256 1.408 . S
C1257 H1279 0.930 . S
C1258 O1268 1.281 . S
C1258 O1269 1.254 . S
C1259 O1270 1.236 . S
C1259 O1271 1.266 . S
O1260 Tb1240 2.484 . S
O1260 C1242 1.248 . S
O1261 Tb1240 2.440 . S
O1261 C1242 1.266 . S
O1262 Tb1240 2.658 . S
O1262 Tb1241 2.325 . S
O1262 C1249 1.281 . S
O1263 Tb1240 2.409 . S
O1263 C1249 1.254 . S
O1264 Tb1240 2.378 . S
O1264 C1250 1.236 . S
O1265 Tb1241 2.341 . S
O1265 C1250 1.266 . S
O1266 Tb1241 2.484 . S
O1266 C1251 1.248 . S
O1267 Tb1241 2.440 . S
O1267 C1251 1.266 . S
O1268 Tb1240 2.325 . S
O1268 Tb1241 2.658 . S
O1268 C1258 1.281 . S
O1269 Tb1241 2.409 . S
O1269 C1258 1.254 . S
O1270 Tb1241 2.378 . S
O1270 C1259 1.236 . S
O1271 Tb1240 2.341 . S
O1271 C1259 1.266 . S
H1272 C1244 0.929 . S
H1273 C1245 0.931 . S
H1274 C1247 0.930 . S
H1275 C1248 0.930 . S
H1276 C1253 0.929 . S
H1277 C1254 0.931 . S
H1278 C1256 0.930 . S
H1279 C1257 0.930 . S
Tb1280 C1282 2.809 . S
Tb1280 O1300 2.484 . S
Tb1280 O1301 2.440 . S
Tb1280 O1302 2.658 . S
Tb1280 O1303 2.409 . S
Tb1280 O1304 2.378 . S
Tb1280 O1308 2.325 . S
Tb1280 O1311 2.341 . S
Tb1281 C1291 2.809 . S
Tb1281 O1302 2.325 . S
Tb1281 O1305 2.341 . S
Tb1281 O1306 2.484 . S
Tb1281 O1307 2.440 . S
Tb1281 O1308 2.658 . S
Tb1281 O1309 2.409 . S
Tb1281 O1310 2.378 . S
C1282 Tb1280 2.809 . S
C1282 C1283 1.514 . S
C1282 O1300 1.248 . S
C1282 O1301 1.266 . S
C1283 C1282 1.514 . S
C1283 C1284 1.359 . S
C1283 C1288 1.348 . S
C1284 C1283 1.359 . S
C1284 C1285 1.380 . S
C1284 H1312 0.929 . S
C1285 C1284 1.380 . S
C1285 C1286 1.347 . S
C1285 H1313 0.931 . S
C1286 C1285 1.347 . S
C1286 C1287 1.369 . S
C1287 C1286 1.369 . S
C1287 C1288 1.408 . S
C1287 H1314 0.930 . S
C1288 C1283 1.348 . S
C1288 C1287 1.408 . S
C1288 H1315 0.930 . S
C1289 O1302 1.281 . S
C1289 O1303 1.254 . S
C1290 O1304 1.236 . S
C1290 O1305 1.266 . S
C1291 Tb1281 2.809 . S
C1291 C1292 1.514 . S
C1291 O1306 1.248 . S
C1291 O1307 1.266 . S
C1292 C1291 1.514 . S
C1292 C1293 1.359 . S
C1292 C1297 1.348 . S
C1293 C1292 1.359 . S
C1293 C1294 1.380 . S
C1293 H1316 0.929 . S
C1294 C1293 1.380 . S
C1294 C1295 1.347 . S
C1294 H1317 0.931 . S
C1295 C1294 1.347 . S
C1295 C1296 1.369 . S
C1296 C1295 1.369 . S
C1296 C1297 1.408 . S
C1296 H1318 0.930 . S
C1297 C1292 1.348 . S
C1297 C1296 1.408 . S
C1297 H1319 0.930 . S
C1298 O1308 1.281 . S
C1298 O1309 1.254 . S
C1299 O1310 1.236 . S
C1299 O1311 1.266 . S
O1300 Tb1280 2.484 . S
O1300 C1282 1.248 . S
O1301 Tb1280 2.440 . S
O1301 C1282 1.266 . S
O1302 Tb1280 2.658 . S
O1302 Tb1281 2.325 . S
O1302 C1289 1.281 . S
O1303 Tb1280 2.409 . S
O1303 C1289 1.254 . S
O1304 Tb1280 2.378 . S
O1304 C1290 1.236 . S
O1305 Tb1281 2.341 . S
O1305 C1290 1.266 . S
O1306 Tb1281 2.484 . S
O1306 C1291 1.248 . S
O1307 Tb1281 2.440 . S
O1307 C1291 1.266 . S
O1308 Tb1280 2.325 . S
O1308 Tb1281 2.658 . S
O1308 C1298 1.281 . S
O1309 Tb1281 2.409 . S
O1309 C1298 1.254 . S
O1310 Tb1281 2.378 . S
O1310 C1299 1.236 . S
O1311 Tb1280 2.341 . S
O1311 C1299 1.266 . S
H1312 C1284 0.929 . S
H1313 C1285 0.931 . S
H1314 C1287 0.930 . S
H1315 C1288 0.930 . S
H1316 C1293 0.929 . S
H1317 C1294 0.931 . S
H1318 C1296 0.930 . S
H1319 C1297 0.930 . S
Tb1320 C1322 2.809 . S
Tb1320 O1340 2.484 . S
Tb1320 O1341 2.440 . S
Tb1320 O1342 2.658 . S
Tb1320 O1343 2.409 . S
Tb1320 O1344 2.378 . S
Tb1320 O1348 2.325 . S
Tb1320 O1351 2.341 . S
Tb1321 C1331 2.809 . S
Tb1321 O1342 2.325 . S
Tb1321 O1345 2.341 . S
Tb1321 O1346 2.484 . S
Tb1321 O1347 2.440 . S
Tb1321 O1348 2.658 . S
Tb1321 O1349 2.409 . S
Tb1321 O1350 2.378 . S
C1322 Tb1320 2.809 . S
C1322 C1323 1.514 . S
C1322 O1340 1.248 . S
C1322 O1341 1.266 . S
C1323 C1322 1.514 . S
C1323 C1324 1.359 . S
C1323 C1328 1.348 . S
C1324 C1323 1.359 . S
C1324 C1325 1.380 . S
C1324 H1352 0.929 . S
C1325 C1324 1.380 . S
C1325 C1326 1.347 . S
C1325 H1353 0.931 . S
C1326 C1325 1.347 . S
C1326 C1327 1.369 . S
C1327 C1326 1.369 . S
C1327 C1328 1.408 . S
C1327 H1354 0.930 . S
C1328 C1323 1.348 . S
C1328 C1327 1.408 . S
C1328 H1355 0.930 . S
C1329 O1342 1.281 . S
C1329 O1343 1.254 . S
C1330 O1344 1.236 . S
C1330 O1345 1.266 . S
C1331 Tb1321 2.809 . S
C1331 C1332 1.514 . S
C1331 O1346 1.248 . S
C1331 O1347 1.266 . S
C1332 C1331 1.514 . S
C1332 C1333 1.359 . S
C1332 C1337 1.348 . S
C1333 C1332 1.359 . S
C1333 C1334 1.380 . S
C1333 H1356 0.929 . S
C1334 C1333 1.380 . S
C1334 C1335 1.347 . S
C1334 H1357 0.931 . S
C1335 C1334 1.347 . S
C1335 C1336 1.369 . S
C1336 C1335 1.369 . S
C1336 C1337 1.408 . S
C1336 H1358 0.930 . S
C1337 C1332 1.348 . S
C1337 C1336 1.408 . S
C1337 H1359 0.930 . S
C1338 O1348 1.281 . S
C1338 O1349 1.254 . S
C1339 O1350 1.236 . S
C1339 O1351 1.266 . S
O1340 Tb1320 2.484 . S
O1340 C1322 1.248 . S
O1341 Tb1320 2.440 . S
O1341 C1322 1.266 . S
O1342 Tb1320 2.658 . S
O1342 Tb1321 2.325 . S
O1342 C1329 1.281 . S
O1343 Tb1320 2.409 . S
O1343 C1329 1.254 . S
O1344 Tb1320 2.378 . S
O1344 C1330 1.236 . S
O1345 Tb1321 2.341 . S
O1345 C1330 1.266 . S
O1346 Tb1321 2.484 . S
O1346 C1331 1.248 . S
O1347 Tb1321 2.440 . S
O1347 C1331 1.266 . S
O1348 Tb1320 2.325 . S
O1348 Tb1321 2.658 . S
O1348 C1338 1.281 . S
O1349 Tb1321 2.409 . S
O1349 C1338 1.254 . S
O1350 Tb1321 2.378 . S
O1350 C1339 1.236 . S
O1351 Tb1320 2.341 . S
O1351 C1339 1.266 . S
H1352 C1324 0.929 . S
H1353 C1325 0.931 . S
H1354 C1327 0.930 . S
H1355 C1328 0.930 . S
H1356 C1333 0.929 . S
H1357 C1334 0.931 . S
H1358 C1336 0.930 . S
H1359 C1337 0.930 . S
Tb1360 C1362 2.809 . S
Tb1360 O1380 2.484 . S
Tb1360 O1381 2.440 . S
Tb1360 O1382 2.658 . S
Tb1360 O1383 2.409 . S
Tb1360 O1384 2.378 . S
Tb1360 O1388 2.325 . S
Tb1360 O1391 2.341 . S
Tb1361 C1371 2.809 . S
Tb1361 O1382 2.325 . S
Tb1361 O1385 2.341 . S
Tb1361 O1386 2.484 . S
Tb1361 O1387 2.440 . S
Tb1361 O1388 2.658 . S
Tb1361 O1389 2.409 . S
Tb1361 O1390 2.378 . S
C1362 Tb1360 2.809 . S
C1362 C1363 1.514 . S
C1362 O1380 1.248 . S
C1362 O1381 1.266 . S
C1363 C1362 1.514 . S
C1363 C1364 1.359 . S
C1363 C1368 1.348 . S
C1364 C1363 1.359 . S
C1364 C1365 1.380 . S
C1364 H1392 0.929 . S
C1365 C1364 1.380 . S
C1365 C1366 1.347 . S
C1365 H1393 0.931 . S
C1366 C1365 1.347 . S
C1366 C1367 1.369 . S
C1367 C1366 1.369 . S
C1367 C1368 1.408 . S
C1367 H1394 0.930 . S
C1368 C1363 1.348 . S
C1368 C1367 1.408 . S
C1368 H1395 0.930 . S
C1369 O1382 1.281 . S
C1369 O1383 1.254 . S
C1370 O1384 1.236 . S
C1370 O1385 1.266 . S
C1371 Tb1361 2.809 . S
C1371 C1372 1.514 . S
C1371 O1386 1.248 . S
C1371 O1387 1.266 . S
C1372 C1371 1.514 . S
C1372 C1373 1.359 . S
C1372 C1377 1.348 . S
C1373 C1372 1.359 . S
C1373 C1374 1.380 . S
C1373 H1396 0.929 . S
C1374 C1373 1.380 . S
C1374 C1375 1.347 . S
C1374 H1397 0.931 . S
C1375 C1374 1.347 . S
C1375 C1376 1.369 . S
C1376 C1375 1.369 . S
C1376 C1377 1.408 . S
C1376 H1398 0.930 . S
C1377 C1372 1.348 . S
C1377 C1376 1.408 . S
C1377 H1399 0.930 . S
C1378 O1388 1.281 . S
C1378 O1389 1.254 . S
C1379 O1390 1.236 . S
C1379 O1391 1.266 . S
O1380 Tb1360 2.484 . S
O1380 C1362 1.248 . S
O1381 Tb1360 2.440 . S
O1381 C1362 1.266 . S
O1382 Tb1360 2.658 . S
O1382 Tb1361 2.325 . S
O1382 C1369 1.281 . S
O1383 Tb1360 2.409 . S
O1383 C1369 1.254 . S
O1384 Tb1360 2.378 . S
O1384 C1370 1.236 . S
O1385 Tb1361 2.341 . S
O1385 C1370 1.266 . S
O1386 Tb1361 2.484 . S
O1386 C1371 1.248 . S
O1387 Tb1361 2.440 . S
O1387 C1371 1.266 . S
O1388 Tb1360 2.325 . S
O1388 Tb1361 2.658 . S
O1388 C1378 1.281 . S
O1389 Tb1361 2.409 . S
O1389 C1378 1.254 . S
O1390 Tb1361 2.378 . S
O1390 C1379 1.236 . S
O1391 Tb1360 2.341 . S
O1391 C1379 1.266 . S
H1392 C1364 0.929 . S
H1393 C1365 0.931 . S
H1394 C1367 0.930 . S
H1395 C1368 0.930 . S
H1396 C1373 0.929 . S
H1397 C1374 0.931 . S
H1398 C1376 0.930 . S
H1399 C1377 0.930 . S
Tb1400 C1402 2.809 . S
Tb1400 O1420 2.484 . S
Tb1400 O1421 2.440 . S
Tb1400 O1422 2.658 . S
Tb1400 O1423 2.409 . S
Tb1400 O1424 2.378 . S
Tb1400 O1428 2.325 . S
Tb1400 O1431 2.341 . S
Tb1401 C1411 2.809 . S
Tb1401 O1422 2.325 . S
Tb1401 O1425 2.341 . S
Tb1401 O1426 2.484 . S
Tb1401 O1427 2.440 . S
Tb1401 O1428 2.658 . S
Tb1401 O1429 2.409 . S
Tb1401 O1430 2.378 . S
C1402 Tb1400 2.809 . S
C1402 C1403 1.514 . S
C1402 O1420 1.248 . S
C1402 O1421 1.266 . S
C1403 C1402 1.514 . S
C1403 C1404 1.359 . S
C1403 C1408 1.348 . S
C1404 C1403 1.359 . S
C1404 C1405 1.380 . S
C1404 H1432 0.929 . S
C1405 C1404 1.380 . S
C1405 C1406 1.347 . S
C1405 H1433 0.931 . S
C1406 C1405 1.347 . S
C1406 C1407 1.369 . S
C1407 C1406 1.369 . S
C1407 C1408 1.408 . S
C1407 H1434 0.930 . S
C1408 C1403 1.348 . S
C1408 C1407 1.408 . S
C1408 H1435 0.930 . S
C1409 O1422 1.281 . S
C1409 O1423 1.254 . S
C1410 O1424 1.236 . S
C1410 O1425 1.266 . S
C1411 Tb1401 2.809 . S
C1411 C1412 1.514 . S
C1411 O1426 1.248 . S
C1411 O1427 1.266 . S
C1412 C1411 1.514 . S
C1412 C1413 1.359 . S
C1412 C1417 1.348 . S
C1413 C1412 1.359 . S
C1413 C1414 1.380 . S
C1413 H1436 0.929 . S
C1414 C1413 1.380 . S
C1414 C1415 1.347 . S
C1414 H1437 0.931 . S
C1415 C1414 1.347 . S
C1415 C1416 1.369 . S
C1416 C1415 1.369 . S
C1416 C1417 1.408 . S
C1416 H1438 0.930 . S
C1417 C1412 1.348 . S
C1417 C1416 1.408 . S
C1417 H1439 0.930 . S
C1418 O1428 1.281 . S
C1418 O1429 1.254 . S
C1419 O1430 1.236 . S
C1419 O1431 1.266 . S
O1420 Tb1400 2.484 . S
O1420 C1402 1.248 . S
O1421 Tb1400 2.440 . S
O1421 C1402 1.266 . S
O1422 Tb1400 2.658 . S
O1422 Tb1401 2.325 . S
O1422 C1409 1.281 . S
O1423 Tb1400 2.409 . S
O1423 C1409 1.254 . S
O1424 Tb1400 2.378 . S
O1424 C1410 1.236 . S
O1425 Tb1401 2.341 . S
O1425 C1410 1.266 . S
O1426 Tb1401 2.484 . S
O1426 C1411 1.248 . S
O1427 Tb1401 2.440 . S
O1427 C1411 1.266 . S
O1428 Tb1400 2.325 . S
O1428 Tb1401 2.658 . S
O1428 C1418 1.281 . S
O1429 Tb1401 2.409 . S
O1429 C1418 1.254 . S
O1430 Tb1401 2.378 . S
O1430 C1419 1.236 . S
O1431 Tb1400 2.341 . S
O1431 C1419 1.266 . S
H1432 C1404 0.929 . S
H1433 C1405 0.931 . S
H1434 C1407 0.930 . S
H1435 C1408 0.930 . S
H1436 C1413 0.929 . S
H1437 C1414 0.931 . S
H1438 C1416 0.930 . S
H1439 C1417 0.930 . S
H1440 C1446 0.930 . S
H1441 C1449 0.930 . S
H1442 C1450 0.919 1_565 S
H1443 C1451 0.930 . S
H1444 C1454 0.930 . S
H1445 C1455 0.930 . S
C1446 H1440 0.930 . S
C1446 C1447 1.355 . S
C1446 C1448 1.415 . S
C1447 C1446 1.355 . S
C1447 C1449 1.419 . S
C1448 C1446 1.415 . S
C1448 C1453 1.425 . S
C1448 C1455 1.409 1_554 S
C1449 H1441 0.930 . S
C1449 C1447 1.419 . S
C1449 C1450 1.362 . S
C1450 H1442 0.919 1_545 S
C1450 C1449 1.362 . S
C1450 C1453 1.409 . S
C1451 H1443 0.930 . S
C1451 C1452 1.355 1_554 S
C1451 C1453 1.415 1_565 S
C1452 C1451 1.355 1_556 S
C1452 C1454 1.419 . S
C1453 C1448 1.425 . S
C1453 C1450 1.409 . S
C1453 C1451 1.415 1_545 S
C1454 H1444 0.930 . S
C1454 C1452 1.419 . S
C1454 C1455 1.362 1_565 S
C1455 H1445 0.930 . S
C1455 C1448 1.409 1_556 S
C1455 C1454 1.362 1_545 S
H1456 C1462 0.930 . S
H1457 C1465 0.930 . S
H1458 C1466 0.930 . S
H1459 C1467 0.930 . S
H1460 C1470 0.930 . S
H1461 C1471 0.930 . S
C1462 H1456 0.930 . S
C1462 C1463 1.355 1_554 S
C1462 C1464 1.415 1_455 S
C1463 C1462 1.355 1_556 S
C1463 C1465 1.419 . S
C1464 C1462 1.415 1_655 S
C1464 C1469 1.425 . S
C1464 C1471 1.409 . S
C1465 H1457 0.930 . S
C1465 C1463 1.419 . S
C1465 C1466 1.358 1_556 S
C1466 H1458 0.930 . S
C1466 C1465 1.358 1_554 S
C1466 C1469 1.413 1_455 S
C1467 H1459 0.930 . S
C1467 C1468 1.355 . S
C1467 C1469 1.415 . S
C1468 C1467 1.355 . S
C1468 C1470 1.419 . S
C1469 C1464 1.425 . S
C1469 C1466 1.413 1_655 S
C1469 C1467 1.415 . S
C1470 H1460 0.930 . S
C1470 C1468 1.419 . S
C1470 C1471 1.362 . S
C1471 H1461 0.930 . S
C1471 C1464 1.409 . S
C1471 C1470 1.362 . S
H1472 C1478 0.930 . S
H1473 C1481 0.930 . S
H1474 C1482 0.930 . S
H1475 C1483 0.930 . S
H1476 C1486 0.930 . S
H1477 C1487 0.938 . S
C1478 H1472 0.930 . S
C1478 C1479 1.355 . S
C1478 C1480 1.415 1_556 S
C1479 C1478 1.355 . S
C1479 C1481 1.419 1_556 S
C1480 C1478 1.415 1_554 S
C1480 C1485 1.425 . S
C1480 C1487 1.408 1_554 S
C1481 H1473 0.930 . S
C1481 C1479 1.419 1_554 S
C1481 C1482 1.362 . S
C1482 H1474 0.930 . S
C1482 C1481 1.362 . S
C1482 C1485 1.409 . S
C1483 H1475 0.930 . S
C1483 C1484 1.355 . S
C1483 C1485 1.415 . S
C1484 C1483 1.355 . S
C1484 C1486 1.419 . S
C1485 C1480 1.425 . S
C1485 C1482 1.409 . S
C1485 C1483 1.415 . S
C1486 H1476 0.930 . S
C1486 C1484 1.419 . S
C1486 C1487 1.356 1_554 S
C1487 H1477 0.938 . S
C1487 C1480 1.408 1_556 S
C1487 C1486 1.356 1_556 S
H1488 C1494 0.930 . S
H1489 C1497 0.930 . S
H1490 C1498 0.930 . S
H1491 C1499 0.930 . S
H1492 C1502 0.930 . S
H1493 C1503 0.930 . S
C1494 H1488 0.930 . S
C1494 C1495 1.355 . S
C1494 C1496 1.415 1_655 S
C1495 C1494 1.355 . S
C1495 C1497 1.419 . S
C1496 C1494 1.415 1_455 S
C1496 C1501 1.425 . S
C1496 C1503 1.409 . S
C1497 H1489 0.930 . S
C1497 C1495 1.419 . S
C1497 C1498 1.362 . S
C1498 H1490 0.930 . S
C1498 C1497 1.362 . S
C1498 C1501 1.409 1_655 S
C1499 H1491 0.930 . S
C1499 C1500 1.355 . S
C1499 C1501 1.415 . S
C1500 C1499 1.355 . S
C1500 C1502 1.419 . S
C1501 C1496 1.425 . S
C1501 C1498 1.409 1_455 S
C1501 C1499 1.415 . S
C1502 H1492 0.930 . S
C1502 C1500 1.419 . S
C1502 C1503 1.362 . S
C1503 H1493 0.930 . S
C1503 C1496 1.409 . S
C1503 C1502 1.362 . S
H1504 C1510 0.930 . S
H1505 C1513 0.930 . S
H1506 C1514 0.930 . S
H1507 C1515 0.930 . S
H1508 C1518 0.930 . S
H1509 C1519 0.930 . S
C1510 H1504 0.930 . S
C1510 C1511 1.355 . S
C1510 C1512 1.415 . S
C1511 C1510 1.355 . S
C1511 C1513 1.419 . S
C1512 C1510 1.415 . S
C1512 C1517 1.425 . S
C1512 C1519 1.409 . S
C1513 H1505 0.930 . S
C1513 C1511 1.419 . S
C1513 C1514 1.362 . S
C1514 H1506 0.930 . S
C1514 C1513 1.362 . S
C1514 C1517 1.409 . S
C1515 H1507 0.930 . S
C1515 C1516 1.355 . S
C1515 C1517 1.415 . S
C1516 C1515 1.355 . S
C1516 C1518 1.419 . S
C1517 C1512 1.425 . S
C1517 C1514 1.409 . S
C1517 C1515 1.415 . S
C1518 H1508 0.930 . S
C1518 C1516 1.419 . S
C1518 C1519 1.362 . S
C1519 H1509 0.930 . S
C1519 C1512 1.409 . S
C1519 C1518 1.362 . S
H1520 C1526 0.930 . S
H1521 C1529 0.930 . S
H1522 C1530 0.930 . S
H1523 C1531 0.930 . S
H1524 C1534 0.930 . S
H1525 C1535 0.930 . S
C1526 H1520 0.930 . S
C1526 C1527 1.355 . S
C1526 C1528 1.415 . S
C1527 C1526 1.355 . S
C1527 C1529 1.419 . S
C1528 C1526 1.415 . S
C1528 C1533 1.425 . S
C1528 C1535 1.409 . S
C1529 H1521 0.930 . S
C1529 C1527 1.419 . S
C1529 C1530 1.362 . S
C1530 H1522 0.930 . S
C1530 C1529 1.362 . S
C1530 C1533 1.409 . S
C1531 H1523 0.930 . S
C1531 C1532 1.355 . S
C1531 C1533 1.415 1_545 S
C1532 C1531 1.355 . S
C1532 C1534 1.419 . S
C1533 C1528 1.425 . S
C1533 C1530 1.409 . S
C1533 C1531 1.415 1_565 S
C1534 H1524 0.930 . S
C1534 C1532 1.419 . S
C1534 C1535 1.362 1_545 S
C1535 H1525 0.930 . S
C1535 C1528 1.409 . S
C1535 C1534 1.362 1_565 S
H1536 C1542 0.930 . S
H1537 C1545 0.930 . S
H1538 C1546 0.930 . S
H1539 C1547 0.930 . S
H1540 C1550 0.930 1_554 S
H1541 C1551 0.930 . S
C1542 H1536 0.930 . S
C1542 C1543 1.355 . S
C1542 C1544 1.415 1_545 S
C1543 C1542 1.355 . S
C1543 C1545 1.419 1_554 S
C1544 C1542 1.415 1_565 S
C1544 C1549 1.425 1_554 S
C1544 C1551 1.409 . S
C1545 H1537 0.930 . S
C1545 C1543 1.419 1_556 S
C1545 C1546 1.362 . S
C1546 H1538 0.930 . S
C1546 C1545 1.362 . S
C1546 C1549 1.409 1_545 S
C1547 H1539 0.930 . S
C1547 C1548 1.355 . S
C1547 C1549 1.415 . S
C1548 C1547 1.355 . S
C1548 C1550 1.419 . S
C1549 C1544 1.425 1_556 S
C1549 C1546 1.409 1_565 S
C1549 C1547 1.415 . S
C1550 H1540 0.930 1_556 S
C1550 C1548 1.419 . S
C1550 C1551 1.362 1_556 S
C1551 H1541 0.930 . S
C1551 C1544 1.409 . S
C1551 C1550 1.362 1_554 S
H1552 C1558 0.930 . S
H1553 C1561 0.930 1_554 S
H1554 C1562 0.930 . S
H1555 C1563 0.930 . S
H1556 C1566 0.930 . S
H1557 C1567 0.930 . S
C1558 H1552 0.930 . S
C1558 C1559 1.355 . S
C1558 C1560 1.415 . S
C1559 C1558 1.355 . S
C1559 C1561 1.419 . S
C1560 C1558 1.415 . S
C1560 C1565 1.425 1_556 S
C1560 C1567 1.409 1_455 S
C1561 H1553 0.930 1_556 S
C1561 C1559 1.419 . S
C1561 C1562 1.362 1_556 S
C1562 H1554 0.930 . S
C1562 C1561 1.362 1_554 S
C1562 C1565 1.409 . S
C1563 H1555 0.930 . S
C1563 C1564 1.355 . S
C1563 C1565 1.415 1_655 S
C1564 C1563 1.355 . S
C1564 C1566 1.419 1_554 S
C1565 C1560 1.425 1_554 S
C1565 C1562 1.409 . S
C1565 C1563 1.415 1_455 S
C1566 H1556 0.930 . S
C1566 C1564 1.419 1_556 S
C1566 C1567 1.362 . S
C1567 H1557 0.930 . S
C1567 C1560 1.409 1_655 S
C1567 C1566 1.362 . S
H1568 C1574 0.930 . S
H1569 C1577 0.930 . S
H1570 C1578 0.930 . S
H1571 C1579 0.930 . S
H1572 C1582 0.930 . S
H1573 C1583 0.930 . S
C1574 H1568 0.930 . S
C1574 C1575 1.355 . S
C1574 C1576 1.415 1_554 S
C1575 C1574 1.355 . S
C1575 C1577 1.419 . S
C1576 C1574 1.415 1_556 S
C1576 C1581 1.425 . S
C1576 C1583 1.409 . S
C1577 H1569 0.930 . S
C1577 C1575 1.419 . S
C1577 C1578 1.362 1_554 S
C1578 H1570 0.930 . S
C1578 C1577 1.362 1_556 S
C1578 C1581 1.409 . S
C1579 H1571 0.930 . S
C1579 C1580 1.355 . S
C1579 C1581 1.415 . S
C1580 C1579 1.355 . S
C1580 C1582 1.419 . S
C1581 C1576 1.425 . S
C1581 C1578 1.409 . S
C1581 C1579 1.415 . S
C1582 H1572 0.930 . S
C1582 C1580 1.419 . S
C1582 C1583 1.362 . S
C1583 H1573 0.930 . S
C1583 C1576 1.409 . S
C1583 C1582 1.362 . S
H1584 C1590 0.930 . S
H1585 C1593 0.930 . S
H1586 C1594 0.930 . S
H1587 C1595 0.930 . S
H1588 C1598 0.930 . S
H1589 C1599 0.930 . S
C1590 H1584 0.930 . S
C1590 C1591 1.355 . S
C1590 C1592 1.415 1_455 S
C1591 C1590 1.355 . S
C1591 C1593 1.419 . S
C1592 C1590 1.415 1_655 S
C1592 C1597 1.425 . S
C1592 C1599 1.409 . S
C1593 H1585 0.930 . S
C1593 C1591 1.419 . S
C1593 C1594 1.362 . S
C1594 H1586 0.930 . S
C1594 C1593 1.362 . S
C1594 C1597 1.409 1_455 S
C1595 H1587 0.930 . S
C1595 C1596 1.355 . S
C1595 C1597 1.415 . S
C1596 C1595 1.355 . S
C1596 C1598 1.419 . S
C1597 C1592 1.425 . S
C1597 C1594 1.409 1_655 S
C1597 C1595 1.415 . S
C1598 H1588 0.930 . S
C1598 C1596 1.419 . S
C1598 C1599 1.362 . S
C1599 H1589 0.930 . S
C1599 C1592 1.409 . S
C1599 C1598 1.362 . S
H1600 C1606 0.930 . S
H1601 C1609 0.930 . S
H1602 C1610 0.930 . S
H1603 C1611 0.930 . S
H1604 C1614 0.930 . S
H1605 C1615 0.930 . S
C1606 H1600 0.930 . S
C1606 C1607 1.355 . S
C1606 C1608 1.415 . S
C1607 C1606 1.355 . S
C1607 C1609 1.419 . S
C1608 C1606 1.415 . S
C1608 C1613 1.425 . S
C1608 C1615 1.409 . S
C1609 H1601 0.930 . S
C1609 C1607 1.419 . S
C1609 C1610 1.362 . S
C1610 H1602 0.930 . S
C1610 C1609 1.362 . S
C1610 C1613 1.409 . S
C1611 H1603 0.930 . S
C1611 C1612 1.355 . S
C1611 C1613 1.415 . S
C1612 C1611 1.355 . S
C1612 C1614 1.419 . S
C1613 C1608 1.425 . S
C1613 C1610 1.409 . S
C1613 C1611 1.415 . S
C1614 H1604 0.930 . S
C1614 C1612 1.419 . S
C1614 C1615 1.362 . S
C1615 H1605 0.930 . S
C1615 C1608 1.409 . S
C1615 C1614 1.362 . S
H1616 C1622 0.930 . S
H1617 C1625 0.930 . S
H1618 C1626 0.958 . S
H1619 C1627 0.930 . S
H1620 C1630 0.930 . S
H1621 C1631 0.930 . S
C1622 H1616 0.930 . S
C1622 C1623 1.355 . S
C1622 C1624 1.415 . S
C1623 C1622 1.355 . S
C1623 C1625 1.419 . S
C1624 C1622 1.415 . S
C1624 C1629 1.425 . S
C1624 C1631 1.409 . S
C1625 H1617 0.930 . S
C1625 C1623 1.419 . S
C1625 C1626 1.362 . S
C1626 H1618 0.958 . S
C1626 C1625 1.362 . S
C1626 C1629 1.409 . S
C1627 H1619 0.930 . S
C1627 C1628 1.355 . S
C1627 C1629 1.415 1_565 S
C1628 C1627 1.355 . S
C1628 C1630 1.419 . S
C1629 C1624 1.425 . S
C1629 C1626 1.409 . S
C1629 C1627 1.415 1_545 S
C1630 H1620 0.930 . S
C1630 C1628 1.419 . S
C1630 C1631 1.362 1_565 S
C1631 H1621 0.930 . S
C1631 C1624 1.409 . S
C1631 C1630 1.362 1_545 S
H1632 C1638 0.930 . S
H1633 C1641 0.930 . S
H1634 C1642 0.930 . S
H1635 C1643 0.930 . S
H1636 C1646 0.930 . S
H1637 C1647 0.930 . S
C1638 H1632 0.930 . S
C1638 C1639 1.355 . S
C1638 C1640 1.415 . S
C1639 C1638 1.355 . S
C1639 C1641 1.419 . S
C1640 C1638 1.415 . S
C1640 C1645 1.425 . S
C1640 C1647 1.409 . S
C1641 H1633 0.930 . S
C1641 C1639 1.419 . S
C1641 C1642 1.362 . S
C1642 H1634 0.930 . S
C1642 C1641 1.362 . S
C1642 C1645 1.409 . S
C1643 H1635 0.930 . S
C1643 C1644 1.355 . S
C1643 C1645 1.415 . S
C1644 C1643 1.355 . S
C1644 C1646 1.419 . S
C1645 C1640 1.425 . S
C1645 C1642 1.409 . S
C1645 C1643 1.415 . S
C1646 H1636 0.930 . S
C1646 C1644 1.419 . S
C1646 C1647 1.362 . S
C1647 H1637 0.930 . S
C1647 C1640 1.409 . S
C1647 C1646 1.362 . S
H1648 C1654 0.930 . S
H1649 C1657 0.930 . S
H1650 C1658 0.930 . S
H1651 C1659 0.930 . S
H1652 C1662 0.930 . S
H1653 C1663 0.930 . S
C1654 H1648 0.930 . S
C1654 C1655 1.355 . S
C1654 C1656 1.415 . S
C1655 C1654 1.355 . S
C1655 C1657 1.419 . S
C1656 C1654 1.415 . S
C1656 C1661 1.425 . S
C1656 C1663 1.409 . S
C1657 H1649 0.930 . S
C1657 C1655 1.419 . S
C1657 C1658 1.362 . S
C1658 H1650 0.930 . S
C1658 C1657 1.362 . S
C1658 C1661 1.409 . S
C1659 H1651 0.930 . S
C1659 C1660 1.355 . S
C1659 C1661 1.415 . S
C1660 C1659 1.355 . S
C1660 C1662 1.419 . S
C1661 C1656 1.425 . S
C1661 C1658 1.409 . S
C1661 C1659 1.415 . S
C1662 H1652 0.930 . S
C1662 C1660 1.419 . S
C1662 C1663 1.362 . S
C1663 H1653 0.930 . S
C1663 C1656 1.409 . S
C1663 C1662 1.362 . S
H1664 C1670 0.930 . S
H1665 C1673 0.930 . S
H1666 C1674 0.930 . S
H1667 C1675 0.930 . S
H1668 C1678 0.930 . S
H1669 C1679 0.930 . S
C1670 H1664 0.930 . S
C1670 C1671 1.355 . S
C1670 C1672 1.415 . S
C1671 C1670 1.355 . S
C1671 C1673 1.419 . S
C1672 C1670 1.415 . S
C1672 C1677 1.425 . S
C1672 C1679 1.409 . S
C1673 H1665 0.930 . S
C1673 C1671 1.419 . S
C1673 C1674 1.362 . S
C1674 H1666 0.930 . S
C1674 C1673 1.362 . S
C1674 C1677 1.409 . S
C1675 H1667 0.930 . S
C1675 C1676 1.355 . S
C1675 C1677 1.415 . S
C1676 C1675 1.355 . S
C1676 C1678 1.419 . S
C1677 C1672 1.425 . S
C1677 C1674 1.409 . S
C1677 C1675 1.415 . S
C1678 H1668 0.930 . S
C1678 C1676 1.419 . S
C1678 C1679 1.362 . S
C1679 H1669 0.930 . S
C1679 C1672 1.409 . S
C1679 C1678 1.362 . S
H1680 C1686 0.930 . S
H1681 C1689 0.930 . S
H1682 C1690 0.930 . S
H1683 C1691 0.930 . S
H1684 C1694 0.930 . S
H1685 C1695 0.930 . S
C1686 H1680 0.930 . S
C1686 C1687 1.355 . S
C1686 C1688 1.415 . S
C1687 C1686 1.355 . S
C1687 C1689 1.419 . S
C1688 C1686 1.415 . S
C1688 C1693 1.425 . S
C1688 C1695 1.409 . S
C1689 H1681 0.930 . S
C1689 C1687 1.419 . S
C1689 C1690 1.362 . S
C1690 H1682 0.930 . S
C1690 C1689 1.362 . S
C1690 C1693 1.409 . S
C1691 H1683 0.930 . S
C1691 C1692 1.355 . S
C1691 C1693 1.415 . S
C1692 C1691 1.355 . S
C1692 C1694 1.419 . S
C1693 C1688 1.425 . S
C1693 C1690 1.409 . S
C1693 C1691 1.415 . S
C1694 H1684 0.930 . S
C1694 C1692 1.419 . S
C1694 C1695 1.362 . S
C1695 H1685 0.930 . S
C1695 C1688 1.409 . S
C1695 C1694 1.362 . S
H1696 C1702 0.930 . S
H1697 C1705 0.930 . S
H1698 C1706 0.930 . S
H1699 C1707 0.930 . S
H1700 C1710 0.930 . S
H1701 C1711 0.930 . S
C1702 H1696 0.930 . S
C1702 C1703 1.355 . S
C1702 C1704 1.415 . S
C1703 C1702 1.355 . S
C1703 C1705 1.419 . S
C1704 C1702 1.415 . S
C1704 C1709 1.425 . S
C1704 C1711 1.409 . S
C1705 H1697 0.930 . S
C1705 C1703 1.419 . S
C1705 C1706 1.362 . S
C1706 H1698 0.930 . S
C1706 C1705 1.362 . S
C1706 C1709 1.409 . S
C1707 H1699 0.930 . S
C1707 C1708 1.355 . S
C1707 C1709 1.415 . S
C1708 C1707 1.355 . S
C1708 C1710 1.419 . S
C1709 C1704 1.425 . S
C1709 C1706 1.409 . S
C1709 C1707 1.415 . S
C1710 H1700 0.930 . S
C1710 C1708 1.419 . S
C1710 C1711 1.362 . S
C1711 H1701 0.930 . S
C1711 C1704 1.409 . S
C1711 C1710 1.362 . S
H1712 C1718 0.930 . S
H1713 C1721 0.930 . S
H1714 C1722 0.930 . S
H1715 C1723 0.930 . S
H1716 C1726 0.930 . S
H1717 C1727 0.930 . S
C1718 H1712 0.930 . S
C1718 C1719 1.355 . S
C1718 C1720 1.415 . S
C1719 C1718 1.355 . S
C1719 C1721 1.419 . S
C1720 C1718 1.415 . S
C1720 C1725 1.425 . S
C1720 C1727 1.409 . S
C1721 H1713 0.930 . S
C1721 C1719 1.419 . S
C1721 C1722 1.362 . S
C1722 H1714 0.930 . S
C1722 C1721 1.362 . S
C1722 C1725 1.409 . S
C1723 H1715 0.930 . S
C1723 C1724 1.355 . S
C1723 C1725 1.415 . S
C1724 C1723 1.355 . S
C1724 C1726 1.419 . S
C1725 C1720 1.425 . S
C1725 C1722 1.409 . S
C1725 C1723 1.415 . S
C1726 H1716 0.930 . S
C1726 C1724 1.419 . S
C1726 C1727 1.362 . S
C1727 H1717 0.930 . S
C1727 C1720 1.409 . S
C1727 C1726 1.362 . S
H1728 C1734 0.930 . S
H1729 C1737 0.930 . S
H1730 C1738 0.930 . S
H1731 C1739 0.930 . S
H1732 C1742 0.930 . S
H1733 C1743 0.930 . S
C1734 H1728 0.930 . S
C1734 C1735 1.355 . S
C1734 C1736 1.415 . S
C1735 C1734 1.355 . S
C1735 C1737 1.419 . S
C1736 C1734 1.415 . S
C1736 C1741 1.425 . S
C1736 C1743 1.409 . S
C1737 H1729 0.930 . S
C1737 C1735 1.419 . S
C1737 C1738 1.362 . S
C1738 H1730 0.930 . S
C1738 C1737 1.362 . S
C1738 C1741 1.409 . S
C1739 H1731 0.930 . S
C1739 C1740 1.355 . S
C1739 C1741 1.415 . S
C1740 C1739 1.355 . S
C1740 C1742 1.419 . S
C1741 C1736 1.425 . S
C1741 C1738 1.409 . S
C1741 C1739 1.415 . S
C1742 H1732 0.930 . S
C1742 C1740 1.419 . S
C1742 C1743 1.362 . S
C1743 H1733 0.930 . S
C1743 C1736 1.409 . S
C1743 C1742 1.362 . S
H1744 C1750 0.930 . S
H1745 C1753 0.930 . S
H1746 C1754 0.930 . S
H1747 C1755 0.930 . S
H1748 C1758 0.930 . S
H1749 C1759 0.930 . S
C1750 H1744 0.930 . S
C1750 C1751 1.355 . S
C1750 C1752 1.415 . S
C1751 C1750 1.355 . S
C1751 C1753 1.419 . S
C1752 C1750 1.415 . S
C1752 C1757 1.425 . S
C1752 C1759 1.409 . S
C1753 H1745 0.930 . S
C1753 C1751 1.419 . S
C1753 C1754 1.362 . S
C1754 H1746 0.930 . S
C1754 C1753 1.362 . S
C1754 C1757 1.409 . S
C1755 H1747 0.930 . S
C1755 C1756 1.355 . S
C1755 C1757 1.415 . S
C1756 C1755 1.355 . S
C1756 C1758 1.419 . S
C1757 C1752 1.425 . S
C1757 C1754 1.409 . S
C1757 C1755 1.415 . S
C1758 H1748 0.930 . S
C1758 C1756 1.419 . S
C1758 C1759 1.362 . S
C1759 H1749 0.930 . S
C1759 C1752 1.409 . S
C1759 C1758 1.362 . S
H1760 C1766 0.930 . S
H1761 C1769 0.930 . S
H1762 C1770 0.930 . S
H1763 C1771 0.930 . S
H1764 C1774 0.930 . S
H1765 C1775 0.930 . S
C1766 H1760 0.930 . S
C1766 C1767 1.355 . S
C1766 C1768 1.415 . S
C1767 C1766 1.355 . S
C1767 C1769 1.419 . S
C1768 C1766 1.415 . S
C1768 C1773 1.425 . S
C1768 C1775 1.409 . S
C1769 H1761 0.930 . S
C1769 C1767 1.419 . S
C1769 C1770 1.362 . S
C1770 H1762 0.930 . S
C1770 C1769 1.362 . S
C1770 C1773 1.409 . S
C1771 H1763 0.930 . S
C1771 C1772 1.355 . S
C1771 C1773 1.415 . S
C1772 C1771 1.355 . S
C1772 C1774 1.419 . S
C1773 C1768 1.425 . S
C1773 C1770 1.409 . S
C1773 C1771 1.415 . S
C1774 H1764 0.930 . S
C1774 C1772 1.419 . S
C1774 C1775 1.362 . S
C1775 H1765 0.930 . S
C1775 C1768 1.409 . S
C1775 C1774 1.362 . S
H1776 C1782 0.930 . S
H1777 C1785 0.930 . S
H1778 C1786 0.930 . S
H1779 C1787 0.930 . S
H1780 C1790 0.930 . S
H1781 C1791 0.930 . S
C1782 H1776 0.930 . S
C1782 C1783 1.355 . S
C1782 C1784 1.415 . S
C1783 C1782 1.355 . S
C1783 C1785 1.419 . S
C1784 C1782 1.415 . S
C1784 C1789 1.425 . S
C1784 C1791 1.409 . S
C1785 H1777 0.930 . S
C1785 C1783 1.419 . S
C1785 C1786 1.362 . S
C1786 H1778 0.930 . S
C1786 C1785 1.362 . S
C1786 C1789 1.409 . S
C1787 H1779 0.930 . S
C1787 C1788 1.355 . S
C1787 C1789 1.415 . S
C1788 C1787 1.355 . S
C1788 C1790 1.419 . S
C1789 C1784 1.425 . S
C1789 C1786 1.409 . S
C1789 C1787 1.415 . S
C1790 H1780 0.930 . S
C1790 C1788 1.419 . S
C1790 C1791 1.362 . S
C1791 H1781 0.930 . S
C1791 C1784 1.409 . S
C1791 C1790 1.362 . S
H1792 C1798 0.930 . S
H1793 C1801 0.930 . S
H1794 C1802 0.930 . S
H1795 C1803 0.930 . S
H1796 C1806 0.930 . S
H1797 C1807 0.930 . S
C1798 H1792 0.930 . S
C1798 C1799 1.355 . S
C1798 C1800 1.415 . S
C1799 C1798 1.355 . S
C1799 C1801 1.419 . S
C1800 C1798 1.415 . S
C1800 C1805 1.425 . S
C1800 C1807 1.409 . S
C1801 H1793 0.930 . S
C1801 C1799 1.419 . S
C1801 C1802 1.362 . S
C1802 H1794 0.930 . S
C1802 C1801 1.362 . S
C1802 C1805 1.409 . S
C1803 H1795 0.930 . S
C1803 C1804 1.355 . S
C1803 C1805 1.415 . S
C1804 C1803 1.355 . S
C1804 C1806 1.419 . S
C1805 C1800 1.425 . S
C1805 C1802 1.409 . S
C1805 C1803 1.415 . S
C1806 H1796 0.930 . S
C1806 C1804 1.419 . S
C1806 C1807 1.362 . S
C1807 H1797 0.930 . S
C1807 C1800 1.409 . S
C1807 C1806 1.362 . S
H1808 C1814 0.930 . S
H1809 C1817 0.930 . S
H1810 C1818 0.930 . S
H1811 C1819 0.930 . S
H1812 C1822 0.930 . S
H1813 C1823 0.930 . S
C1814 H1808 0.930 . S
C1814 C1815 1.355 . S
C1814 C1816 1.415 . S
C1815 C1814 1.355 . S
C1815 C1817 1.419 . S
C1816 C1814 1.415 . S
C1816 C1821 1.425 . S
C1816 C1823 1.409 . S
C1817 H1809 0.930 . S
C1817 C1815 1.419 . S
C1817 C1818 1.362 . S
C1818 H1810 0.930 . S
C1818 C1817 1.362 . S
C1818 C1821 1.409 . S
C1819 H1811 0.930 . S
C1819 C1820 1.355 . S
C1819 C1821 1.415 . S
C1820 C1819 1.355 . S
C1820 C1822 1.419 . S
C1821 C1816 1.425 . S
C1821 C1818 1.409 . S
C1821 C1819 1.415 . S
C1822 H1812 0.930 . S
C1822 C1820 1.419 . S
C1822 C1823 1.362 . S
C1823 H1813 0.930 . S
C1823 C1816 1.409 . S
C1823 C1822 1.362 . S
H1824 C1830 0.930 . S
H1825 C1833 0.930 . S
H1826 C1834 0.930 . S
H1827 C1835 0.930 . S
H1828 C1838 0.930 . S
H1829 C1839 0.930 . S
C1830 H1824 0.930 . S
C1830 C1831 1.355 . S
C1830 C1832 1.415 . S
C1831 C1830 1.355 . S
C1831 C1833 1.419 . S
C1832 C1830 1.415 . S
C1832 C1837 1.425 . S
C1832 C1839 1.409 . S
C1833 H1825 0.930 . S
C1833 C1831 1.419 . S
C1833 C1834 1.362 . S
C1834 H1826 0.930 . S
C1834 C1833 1.362 . S
C1834 C1837 1.409 . S
C1835 H1827 0.930 . S
C1835 C1836 1.355 . S
C1835 C1837 1.415 . S
C1836 C1835 1.355 . S
C1836 C1838 1.419 . S
C1837 C1832 1.425 . S
C1837 C1834 1.409 . S
C1837 C1835 1.415 . S
C1838 H1828 0.930 . S
C1838 C1836 1.419 . S
C1838 C1839 1.362 . S
C1839 H1829 0.930 . S
C1839 C1832 1.409 . S
C1839 C1838 1.362 . S
H1840 C1846 0.930 . S
H1841 C1849 0.930 . S
H1842 C1850 0.930 . S
H1843 C1851 0.930 . S
H1844 C1854 0.930 . S
H1845 C1855 0.930 . S
C1846 H1840 0.930 . S
C1846 C1847 1.355 . S
C1846 C1848 1.415 . S
C1847 C1846 1.355 . S
C1847 C1849 1.419 . S
C1848 C1846 1.415 . S
C1848 C1853 1.425 . S
C1848 C1855 1.409 . S
C1849 H1841 0.930 . S
C1849 C1847 1.419 . S
C1849 C1850 1.362 . S
C1850 H1842 0.930 . S
C1850 C1849 1.362 . S
C1850 C1853 1.409 . S
C1851 H1843 0.930 . S
C1851 C1852 1.355 . S
C1851 C1853 1.415 . S
C1852 C1851 1.355 . S
C1852 C1854 1.419 . S
C1853 C1848 1.425 . S
C1853 C1850 1.409 . S
C1853 C1851 1.415 . S
C1854 H1844 0.930 . S
C1854 C1852 1.419 . S
C1854 C1855 1.362 . S
C1855 H1845 0.930 . S
C1855 C1848 1.409 . S
C1855 C1854 1.362 . S
H1856 C1862 0.930 . S
H1857 C1865 0.930 . S
H1858 C1866 0.930 . S
H1859 C1867 0.930 . S
H1860 C1870 0.930 . S
H1861 C1871 0.930 . S
C1862 H1856 0.930 . S
C1862 C1863 1.355 . S
C1862 C1864 1.415 . S
C1863 C1862 1.355 . S
C1863 C1865 1.419 . S
C1864 C1862 1.415 . S
C1864 C1869 1.425 . S
C1864 C1871 1.409 . S
C1865 H1857 0.930 . S
C1865 C1863 1.419 . S
C1865 C1866 1.362 . S
C1866 H1858 0.930 . S
C1866 C1865 1.362 . S
C1866 C1869 1.409 . S
C1867 H1859 0.930 . S
C1867 C1868 1.355 . S
C1867 C1869 1.415 . S
C1868 C1867 1.355 . S
C1868 C1870 1.419 . S
C1869 C1864 1.425 . S
C1869 C1866 1.409 . S
C1869 C1867 1.415 . S
C1870 H1860 0.930 . S
C1870 C1868 1.419 . S
C1870 C1871 1.362 . S
C1871 H1861 0.930 . S
C1871 C1864 1.409 . S
C1871 C1870 1.362 . S
H1872 C1878 0.930 . S
H1873 C1881 0.930 . S
H1874 C1882 0.930 . S
H1875 C1883 0.930 . S
H1876 C1886 0.930 . S
H1877 C1887 0.930 . S
C1878 H1872 0.930 . S
C1878 C1879 1.355 . S
C1878 C1880 1.415 . S
C1879 C1878 1.355 . S
C1879 C1881 1.419 . S
C1880 C1878 1.415 . S
C1880 C1885 1.425 . S
C1880 C1887 1.409 . S
C1881 H1873 0.930 . S
C1881 C1879 1.419 . S
C1881 C1882 1.362 . S
C1882 H1874 0.930 . S
C1882 C1881 1.362 . S
C1882 C1885 1.409 . S
C1883 H1875 0.930 . S
C1883 C1884 1.355 . S
C1883 C1885 1.415 . S
C1884 C1883 1.355 . S
C1884 C1886 1.419 . S
C1885 C1880 1.425 . S
C1885 C1882 1.409 . S
C1885 C1883 1.415 . S
C1886 H1876 0.930 . S
C1886 C1884 1.419 . S
C1886 C1887 1.362 . S
C1887 H1877 0.930 . S
C1887 C1880 1.409 . S
C1887 C1886 1.362 . S
H1888 C1894 0.930 . S
H1889 C1897 0.930 . S
H1890 C1898 0.930 . S
H1891 C1899 0.930 . S
H1892 C1902 0.930 . S
H1893 C1903 0.930 . S
C1894 H1888 0.930 . S
C1894 C1895 1.355 . S
C1894 C1896 1.415 . S
C1895 C1894 1.355 . S
C1895 C1897 1.419 . S
C1896 C1894 1.415 . S
C1896 C1901 1.425 . S
C1896 C1903 1.409 . S
C1897 H1889 0.930 . S
C1897 C1895 1.419 . S
C1897 C1898 1.362 . S
C1898 H1890 0.930 . S
C1898 C1897 1.362 . S
C1898 C1901 1.409 . S
C1899 H1891 0.930 . S
C1899 C1900 1.355 . S
C1899 C1901 1.415 . S
C1900 C1899 1.355 . S
C1900 C1902 1.419 . S
C1901 C1896 1.425 . S
C1901 C1898 1.409 . S
C1901 C1899 1.415 . S
C1902 H1892 0.930 . S
C1902 C1900 1.419 . S
C1902 C1903 1.362 . S
C1903 H1893 0.930 . S
C1903 C1896 1.409 . S
C1903 C1902 1.362 . S
H1904 C1910 0.930 . S
H1905 C1913 0.930 . S
H1906 C1914 0.930 . S
H1907 C1915 0.930 . S
H1908 C1918 0.930 . S
H1909 C1919 0.930 . S
C1910 H1904 0.930 . S
C1910 C1911 1.355 . S
C1910 C1912 1.415 . S
C1911 C1910 1.355 . S
C1911 C1913 1.419 . S
C1912 C1910 1.415 . S
C1912 C1917 1.425 . S
C1912 C1919 1.409 . S
C1913 H1905 0.930 . S
C1913 C1911 1.419 . S
C1913 C1914 1.362 . S
C1914 H1906 0.930 . S
C1914 C1913 1.362 . S
C1914 C1917 1.409 . S
C1915 H1907 0.930 . S
C1915 C1916 1.355 . S
C1915 C1917 1.415 . S
C1916 C1915 1.355 . S
C1916 C1918 1.419 . S
C1917 C1912 1.425 . S
C1917 C1914 1.409 . S
C1917 C1915 1.415 . S
C1918 H1908 0.930 . S
C1918 C1916 1.419 . S
C1918 C1919 1.362 . S
C1919 H1909 0.930 . S
C1919 C1912 1.409 . S
C1919 C1918 1.362 . S
H1920 C1926 0.930 . S
H1921 C1929 0.930 . S
H1922 C1930 0.930 . S
H1923 C1931 0.930 . S
H1924 C1934 0.930 . S
H1925 C1935 0.930 . S
C1926 H1920 0.930 . S
C1926 C1927 1.355 . S
C1926 C1928 1.415 . S
C1927 C1926 1.355 . S
C1927 C1929 1.419 . S
C1928 C1926 1.415 . S
C1928 C1933 1.425 . S
C1928 C1935 1.409 . S
C1929 H1921 0.930 . S
C1929 C1927 1.419 . S
C1929 C1930 1.362 . S
C1930 H1922 0.930 . S
C1930 C1929 1.362 . S
C1930 C1933 1.409 . S
C1931 H1923 0.930 . S
C1931 C1932 1.355 . S
C1931 C1933 1.415 . S
C1932 C1931 1.355 . S
C1932 C1934 1.419 . S
C1933 C1928 1.425 . S
C1933 C1930 1.409 . S
C1933 C1931 1.415 . S
C1934 H1924 0.930 . S
C1934 C1932 1.419 . S
C1934 C1935 1.362 . S
C1935 H1925 0.930 . S
C1935 C1928 1.409 . S
C1935 C1934 1.362 . S
H1936 C1942 0.930 . S
H1937 C1945 0.930 . S
H1938 C1946 0.930 . S
H1939 C1947 0.930 . S
H1940 C1950 0.930 . S
H1941 C1951 0.930 . S
C1942 H1936 0.930 . S
C1942 C1943 1.355 . S
C1942 C1944 1.415 . S
C1943 C1942 1.355 . S
C1943 C1945 1.419 . S
C1944 C1942 1.415 . S
C1944 C1949 1.425 . S
C1944 C1951 1.409 . S
C1945 H1937 0.930 . S
C1945 C1943 1.419 . S
C1945 C1946 1.362 . S
C1946 H1938 0.930 . S
C1946 C1945 1.362 . S
C1946 C1949 1.409 . S
C1947 H1939 0.930 . S
C1947 C1948 1.355 . S
C1947 C1949 1.415 . S
C1948 C1947 1.355 . S
C1948 C1950 1.419 . S
C1949 C1944 1.425 . S
C1949 C1946 1.409 . S
C1949 C1947 1.415 . S
C1950 H1940 0.930 . S
C1950 C1948 1.419 . S
C1950 C1951 1.362 . S
C1951 H1941 0.930 . S
C1951 C1944 1.409 . S
C1951 C1950 1.362 . S
H1952 C1958 0.930 . S
H1953 C1961 0.930 . S
H1954 C1962 0.930 . S
H1955 C1963 0.930 . S
H1956 C1966 0.930 . S
H1957 C1967 0.930 . S
C1958 H1952 0.930 . S
C1958 C1959 1.355 . S
C1958 C1960 1.415 . S
C1959 C1958 1.355 . S
C1959 C1961 1.419 . S
C1960 C1958 1.415 . S
C1960 C1965 1.425 . S
C1960 C1967 1.409 . S
C1961 H1953 0.930 . S
C1961 C1959 1.419 . S
C1961 C1962 1.362 . S
C1962 H1954 0.930 . S
C1962 C1961 1.362 . S
C1962 C1965 1.409 . S
C1963 H1955 0.930 . S
C1963 C1964 1.355 . S
C1963 C1965 1.415 . S
C1964 C1963 1.355 . S
C1964 C1966 1.419 . S
C1965 C1960 1.425 . S
C1965 C1962 1.409 . S
C1965 C1963 1.415 . S
C1966 H1956 0.930 . S
C1966 C1964 1.419 . S
C1966 C1967 1.362 . S
C1967 H1957 0.930 . S
C1967 C1960 1.409 . S
C1967 C1966 1.362 . S
H1968 C1974 0.930 . S
H1969 C1977 0.930 . S
H1970 C1978 0.930 . S
H1971 C1979 0.930 . S
H1972 C1982 0.930 . S
H1973 C1983 0.930 . S
C1974 H1968 0.930 . S
C1974 C1975 1.355 . S
C1974 C1976 1.415 . S
C1975 C1974 1.355 . S
C1975 C1977 1.419 . S
C1976 C1974 1.415 . S
C1976 C1981 1.425 . S
C1976 C1983 1.409 . S
C1977 H1969 0.930 . S
C1977 C1975 1.419 . S
C1977 C1978 1.362 . S
C1978 H1970 0.930 . S
C1978 C1977 1.362 . S
C1978 C1981 1.409 . S
C1979 H1971 0.930 . S
C1979 C1980 1.355 . S
C1979 C1981 1.415 . S
C1980 C1979 1.355 . S
C1980 C1982 1.419 . S
C1981 C1976 1.425 . S
C1981 C1978 1.409 . S
C1981 C1979 1.415 . S
C1982 H1972 0.930 . S
C1982 C1980 1.419 . S
C1982 C1983 1.362 . S
C1983 H1973 0.930 . S
C1983 C1976 1.409 . S
C1983 C1982 1.362 . S
H1984 C1990 0.930 . S
H1985 C1993 0.930 . S
H1986 C1994 0.930 . S
H1987 C1995 0.930 . S
H1988 C1998 0.930 . S
H1989 C1999 0.930 . S
C1990 H1984 0.930 . S
C1990 C1991 1.355 . S
C1990 C1992 1.415 . S
C1991 C1990 1.355 . S
C1991 C1993 1.419 . S
C1992 C1990 1.415 . S
C1992 C1997 1.425 . S
C1992 C1999 1.409 . S
C1993 H1985 0.930 . S
C1993 C1991 1.419 . S
C1993 C1994 1.362 . S
C1994 H1986 0.930 . S
C1994 C1993 1.362 . S
C1994 C1997 1.409 . S
C1995 H1987 0.930 . S
C1995 C1996 1.355 . S
C1995 C1997 1.415 . S
C1996 C1995 1.355 . S
C1996 C1998 1.419 . S
C1997 C1992 1.425 . S
C1997 C1994 1.409 . S
C1997 C1995 1.415 . S
C1998 H1988 0.930 . S
C1998 C1996 1.419 . S
C1998 C1999 1.362 . S
C1999 H1989 0.930 . S
C1999 C1992 1.409 . S
C1999 C1998 1.362 . S
H2000 C2006 0.930 . S
H2001 C2009 0.930 . S
H2002 C2010 0.930 . S
H2003 C2011 0.930 . S
H2004 C2014 0.930 . S
H2005 C2015 0.930 . S
C2006 H2000 0.930 . S
C2006 C2007 1.355 . S
C2006 C2008 1.415 . S
C2007 C2006 1.355 . S
C2007 C2009 1.419 . S
C2008 C2006 1.415 . S
C2008 C2013 1.425 . S
C2008 C2015 1.409 . S
C2009 H2001 0.930 . S
C2009 C2007 1.419 . S
C2009 C2010 1.362 . S
C2010 H2002 0.930 . S
C2010 C2009 1.362 . S
C2010 C2013 1.409 . S
C2011 H2003 0.930 . S
C2011 C2012 1.355 . S
C2011 C2013 1.415 . S
C2012 C2011 1.355 . S
C2012 C2014 1.419 . S
C2013 C2008 1.425 . S
C2013 C2010 1.409 . S
C2013 C2011 1.415 . S
C2014 H2004 0.930 . S
C2014 C2012 1.419 . S
C2014 C2015 1.362 . S
C2015 H2005 0.930 . S
C2015 C2008 1.409 . S
C2015 C2014 1.362 . S
H2016 C2022 0.930 . S
H2017 C2025 0.930 . S
H2018 C2026 0.930 . S
H2019 C2027 0.930 . S
H2020 C2030 0.930 . S
H2021 C2031 0.930 . S
C2022 H2016 0.930 . S
C2022 C2023 1.355 . S
C2022 C2024 1.415 . S
C2023 C2022 1.355 . S
C2023 C2025 1.419 . S
C2024 C2022 1.415 . S
C2024 C2029 1.425 . S
C2024 C2031 1.409 . S
C2025 H2017 0.930 . S
C2025 C2023 1.419 . S
C2025 C2026 1.362 . S
C2026 H2018 0.930 . S
C2026 C2025 1.362 . S
C2026 C2029 1.409 . S
C2027 H2019 0.930 . S
C2027 C2028 1.355 . S
C2027 C2029 1.415 . S
C2028 C2027 1.355 . S
C2028 C2030 1.419 . S
C2029 C2024 1.425 . S
C2029 C2026 1.409 . S
C2029 C2027 1.415 . S
C2030 H2020 0.930 . S
C2030 C2028 1.419 . S
C2030 C2031 1.362 . S
C2031 H2021 0.930 . S
C2031 C2024 1.409 . S
C2031 C2030 1.362 . S
H2032 C2038 0.930 . S
H2033 C2041 0.930 . S
H2034 C2042 0.930 . S
H2035 C2043 0.930 . S
H2036 C2046 0.930 . S
H2037 C2047 0.930 . S
C2038 H2032 0.930 . S
C2038 C2039 1.355 . S
C2038 C2040 1.415 . S
C2039 C2038 1.355 . S
C2039 C2041 1.419 . S
C2040 C2038 1.415 . S
C2040 C2045 1.425 . S
C2040 C2047 1.409 . S
C2041 H2033 0.930 . S
C2041 C2039 1.419 . S
C2041 C2042 1.362 . S
C2042 H2034 0.930 . S
C2042 C2041 1.362 . S
C2042 C2045 1.409 . S
C2043 H2035 0.930 . S
C2043 C2044 1.355 . S
C2043 C2045 1.415 . S
C2044 C2043 1.355 . S
C2044 C2046 1.419 . S
C2045 C2040 1.425 . S
C2045 C2042 1.409 . S
C2045 C2043 1.415 . S
C2046 H2036 0.930 . S
C2046 C2044 1.419 . S
C2046 C2047 1.362 . S
C2047 H2037 0.930 . S
C2047 C2040 1.409 . S
C2047 C2046 1.362 . S
H2048 C2054 0.930 . S
H2049 C2057 0.930 . S
H2050 C2058 0.930 . S
H2051 C2059 0.930 . S
H2052 C2062 0.930 . S
H2053 C2063 0.930 . S
C2054 H2048 0.930 . S
C2054 C2055 1.355 . S
C2054 C2056 1.415 . S
C2055 C2054 1.355 . S
C2055 C2057 1.419 . S
C2056 C2054 1.415 . S
C2056 C2061 1.425 . S
C2056 C2063 1.409 . S
C2057 H2049 0.930 . S
C2057 C2055 1.419 . S
C2057 C2058 1.362 . S
C2058 H2050 0.930 . S
C2058 C2057 1.362 . S
C2058 C2061 1.409 . S
C2059 H2051 0.930 . S
C2059 C2060 1.355 . S
C2059 C2061 1.415 . S
C2060 C2059 1.355 . S
C2060 C2062 1.419 . S
C2061 C2056 1.425 . S
C2061 C2058 1.409 . S
C2061 C2059 1.415 . S
C2062 H2052 0.930 . S
C2062 C2060 1.419 . S
C2062 C2063 1.362 . S
C2063 H2053 0.930 . S
C2063 C2056 1.409 . S
C2063 C2062 1.362 . S
H2064 C2070 0.930 . S
H2065 C2073 0.930 . S
H2066 C2074 0.930 . S
H2067 C2075 0.930 . S
H2068 C2078 0.930 . S
H2069 C2079 0.930 . S
C2070 H2064 0.930 . S
C2070 C2071 1.355 . S
C2070 C2072 1.415 . S
C2071 C2070 1.355 . S
C2071 C2073 1.419 . S
C2072 C2070 1.415 . S
C2072 C2077 1.425 . S
C2072 C2079 1.409 . S
C2073 H2065 0.930 . S
C2073 C2071 1.419 . S
C2073 C2074 1.362 . S
C2074 H2066 0.930 . S
C2074 C2073 1.362 . S
C2074 C2077 1.409 . S
C2075 H2067 0.930 . S
C2075 C2076 1.355 . S
C2075 C2077 1.415 . S
C2076 C2075 1.355 . S
C2076 C2078 1.419 . S
C2077 C2072 1.425 . S
C2077 C2074 1.409 . S
C2077 C2075 1.415 . S
C2078 H2068 0.930 . S
C2078 C2076 1.419 . S
C2078 C2079 1.362 . S
C2079 H2069 0.930 . S
C2079 C2072 1.409 . S
C2079 C2078 1.362 . S
H2080 C2086 0.930 . S
H2081 C2089 0.930 . S
H2082 C2090 0.930 . S
H2083 C2091 0.930 . S
H2084 C2094 0.930 . S
H2085 C2095 0.930 . S
C2086 H2080 0.930 . S
C2086 C2087 1.355 . S
C2086 C2088 1.415 . S
C2087 C2086 1.355 . S
C2087 C2089 1.419 . S
C2088 C2086 1.415 . S
C2088 C2093 1.425 . S
C2088 C2095 1.409 . S
C2089 H2081 0.930 . S
C2089 C2087 1.419 . S
C2089 C2090 1.362 . S
C2090 H2082 0.930 . S
C2090 C2089 1.362 . S
C2090 C2093 1.409 . S
C2091 H2083 0.930 . S
C2091 C2092 1.355 . S
C2091 C2093 1.415 . S
C2092 C2091 1.355 . S
C2092 C2094 1.419 . S
C2093 C2088 1.425 . S
C2093 C2090 1.409 . S
C2093 C2091 1.415 . S
C2094 H2084 0.930 . S
C2094 C2092 1.419 . S
C2094 C2095 1.362 . S
C2095 H2085 0.930 . S
C2095 C2088 1.409 . S
C2095 C2094 1.362 . S
H2096 C2102 0.930 . S
H2097 C2105 0.930 . S
H2098 C2106 0.930 . S
H2099 C2107 0.930 . S
H2100 C2110 0.930 . S
H2101 C2111 0.930 . S
C2102 H2096 0.930 . S
C2102 C2103 1.355 . S
C2102 C2104 1.415 . S
C2103 C2102 1.355 . S
C2103 C2105 1.419 . S
C2104 C2102 1.415 . S
C2104 C2109 1.425 . S
C2104 C2111 1.409 . S
C2105 H2097 0.930 . S
C2105 C2103 1.419 . S
C2105 C2106 1.362 . S
C2106 H2098 0.930 . S
C2106 C2105 1.362 . S
C2106 C2109 1.409 . S
C2107 H2099 0.930 . S
C2107 C2108 1.355 . S
C2107 C2109 1.415 . S
C2108 C2107 1.355 . S
C2108 C2110 1.419 . S
C2109 C2104 1.425 . S
C2109 C2106 1.409 . S
C2109 C2107 1.415 . S
C2110 H2100 0.930 . S
C2110 C2108 1.419 . S
C2110 C2111 1.362 . S
C2111 H2101 0.930 . S
C2111 C2104 1.409 . S
C2111 C2110 1.362 . S
H2112 C2118 0.930 . S
H2113 C2121 0.930 . S
H2114 C2122 0.930 . S
H2115 C2123 0.930 . S
H2116 C2126 0.930 . S
H2117 C2127 0.930 . S
C2118 H2112 0.930 . S
C2118 C2119 1.355 . S
C2118 C2120 1.415 . S
C2119 C2118 1.355 . S
C2119 C2121 1.419 . S
C2120 C2118 1.415 . S
C2120 C2125 1.425 . S
C2120 C2127 1.409 . S
C2121 H2113 0.930 . S
C2121 C2119 1.419 . S
C2121 C2122 1.362 . S
C2122 H2114 0.930 . S
C2122 C2121 1.362 . S
C2122 C2125 1.409 . S
C2123 H2115 0.930 . S
C2123 C2124 1.355 . S
C2123 C2125 1.415 . S
C2124 C2123 1.355 . S
C2124 C2126 1.419 . S
C2125 C2120 1.425 . S
C2125 C2122 1.409 . S
C2125 C2123 1.415 . S
C2126 H2116 0.930 . S
C2126 C2124 1.419 . S
C2126 C2127 1.362 . S
C2127 H2117 0.930 . S
C2127 C2120 1.409 . S
C2127 C2126 1.362 . S
H2128 C2134 0.930 . S
H2129 C2137 0.930 . S
H2130 C2138 0.930 . S
H2131 C2139 0.930 . S
H2132 C2142 0.930 . S
H2133 C2143 0.930 . S
C2134 H2128 0.930 . S
C2134 C2135 1.355 . S
C2134 C2136 1.415 . S
C2135 C2134 1.355 . S
C2135 C2137 1.419 . S
C2136 C2134 1.415 . S
C2136 C2141 1.425 . S
C2136 C2143 1.409 . S
C2137 H2129 0.930 . S
C2137 C2135 1.419 . S
C2137 C2138 1.362 . S
C2138 H2130 0.930 . S
C2138 C2137 1.362 . S
C2138 C2141 1.409 . S
C2139 H2131 0.930 . S
C2139 C2140 1.355 . S
C2139 C2141 1.415 . S
C2140 C2139 1.355 . S
C2140 C2142 1.419 . S
C2141 C2136 1.425 . S
C2141 C2138 1.409 . S
C2141 C2139 1.415 . S
C2142 H2132 0.930 . S
C2142 C2140 1.419 . S
C2142 C2143 1.362 . S
C2143 H2133 0.930 . S
C2143 C2136 1.409 . S
C2143 C2142 1.362 . S
H2144 C2150 0.930 . S
H2145 C2153 0.930 . S
H2146 C2154 0.930 . S
H2147 C2155 0.930 . S
H2148 C2158 0.930 . S
H2149 C2159 0.930 . S
C2150 H2144 0.930 . S
C2150 C2151 1.355 . S
C2150 C2152 1.415 . S
C2151 C2150 1.355 . S
C2151 C2153 1.419 . S
C2152 C2150 1.415 . S
C2152 C2157 1.425 . S
C2152 C2159 1.409 . S
C2153 H2145 0.930 . S
C2153 C2151 1.419 . S
C2153 C2154 1.362 . S
C2154 H2146 0.930 . S
C2154 C2153 1.362 . S
C2154 C2157 1.409 . S
C2155 H2147 0.930 . S
C2155 C2156 1.355 . S
C2155 C2157 1.415 . S
C2156 C2155 1.355 . S
C2156 C2158 1.419 . S
C2157 C2152 1.425 . S
C2157 C2154 1.409 . S
C2157 C2155 1.415 . S
C2158 H2148 0.930 . S
C2158 C2156 1.419 . S
C2158 C2159 1.362 . S
C2159 H2149 0.930 . S
C2159 C2152 1.409 . S
C2159 C2158 1.362 . S
H2160 C2166 0.930 . S
H2161 C2169 0.930 . S
H2162 C2170 0.930 . S
H2163 C2171 0.930 . S
H2164 C2174 0.930 . S
H2165 C2175 0.930 . S
C2166 H2160 0.930 . S
C2166 C2167 1.355 . S
C2166 C2168 1.415 . S
C2167 C2166 1.355 . S
C2167 C2169 1.419 . S
C2168 C2166 1.415 . S
C2168 C2173 1.425 . S
C2168 C2175 1.409 . S
C2169 H2161 0.930 . S
C2169 C2167 1.419 . S
C2169 C2170 1.362 . S
C2170 H2162 0.930 . S
C2170 C2169 1.362 . S
C2170 C2173 1.409 . S
C2171 H2163 0.930 . S
C2171 C2172 1.355 . S
C2171 C2173 1.415 . S
C2172 C2171 1.355 . S
C2172 C2174 1.419 . S
C2173 C2168 1.425 . S
C2173 C2170 1.409 . S
C2173 C2171 1.415 . S
C2174 H2164 0.930 . S
C2174 C2172 1.419 . S
C2174 C2175 1.362 . S
C2175 H2165 0.930 . S
C2175 C2168 1.409 . S
C2175 C2174 1.362 . S
H2176 C2182 0.930 . S
H2177 C2185 0.930 . S
H2178 C2186 0.930 . S
H2179 C2187 0.930 . S
H2180 C2190 0.930 . S
H2181 C2191 0.930 . S
C2182 H2176 0.930 . S
C2182 C2183 1.355 . S
C2182 C2184 1.415 . S
C2183 C2182 1.355 . S
C2183 C2185 1.419 . S
C2184 C2182 1.415 . S
C2184 C2189 1.425 . S
C2184 C2191 1.409 . S
C2185 H2177 0.930 . S
C2185 C2183 1.419 . S
C2185 C2186 1.362 . S
C2186 H2178 0.930 . S
C2186 C2185 1.362 . S
C2186 C2189 1.409 . S
C2187 H2179 0.930 . S
C2187 C2188 1.355 . S
C2187 C2189 1.415 . S
C2188 C2187 1.355 . S
C2188 C2190 1.419 . S
C2189 C2184 1.425 . S
C2189 C2186 1.409 . S
C2189 C2187 1.415 . S
C2190 H2180 0.930 . S
C2190 C2188 1.419 . S
C2190 C2191 1.362 . S
C2191 H2181 0.930 . S
C2191 C2184 1.409 . S
C2191 C2190 1.362 . S
H2192 C2198 0.930 . S
H2193 C2201 0.930 . S
H2194 C2202 0.930 . S
H2195 C2203 0.930 . S
H2196 C2206 0.930 . S
H2197 C2207 0.930 . S
C2198 H2192 0.930 . S
C2198 C2199 1.355 . S
C2198 C2200 1.415 . S
C2199 C2198 1.355 . S
C2199 C2201 1.419 . S
C2200 C2198 1.415 . S
C2200 C2205 1.425 . S
C2200 C2207 1.409 . S
C2201 H2193 0.930 . S
C2201 C2199 1.419 . S
C2201 C2202 1.362 . S
C2202 H2194 0.930 . S
C2202 C2201 1.362 . S
C2202 C2205 1.409 . S
C2203 H2195 0.930 . S
C2203 C2204 1.355 . S
C2203 C2205 1.415 . S
C2204 C2203 1.355 . S
C2204 C2206 1.419 . S
C2205 C2200 1.425 . S
C2205 C2202 1.409 . S
C2205 C2203 1.415 . S
C2206 H2196 0.930 . S
C2206 C2204 1.419 . S
C2206 C2207 1.362 . S
C2207 H2197 0.930 . S
C2207 C2200 1.409 . S
C2207 C2206 1.362 . S
H2208 C2214 0.930 . S
H2209 C2217 0.930 . S
H2210 C2218 0.930 . S
H2211 C2219 0.930 . S
H2212 C2222 0.930 . S
H2213 C2223 0.930 . S
C2214 H2208 0.930 . S
C2214 C2215 1.355 . S
C2214 C2216 1.385 1_655 S
C2215 C2214 1.355 . S
C2215 C2217 1.419 . S
C2216 C2214 1.385 1_455 S
C2216 C2221 1.439 1_455 S
C2216 C2223 1.433 . S
C2217 H2209 0.930 . S
C2217 C2215 1.419 . S
C2217 C2218 1.362 . S
C2218 H2210 0.930 . S
C2218 C2217 1.362 . S
C2218 C2221 1.433 . S
C2219 H2211 0.930 . S
C2219 C2220 1.355 . S
C2219 C2221 1.385 1_455 S
C2220 C2219 1.355 . S
C2220 C2222 1.419 . S
C2221 C2216 1.439 1_655 S
C2221 C2218 1.433 . S
C2221 C2219 1.385 1_655 S
C2222 H2212 0.930 . S
C2222 C2220 1.419 . S
C2222 C2223 1.362 . S
C2223 H2213 0.930 . S
C2223 C2216 1.433 . S
C2223 C2222 1.362 . S
H2224 C2230 0.930 . S
H2225 C2233 0.930 . S
H2226 C2234 0.930 . S
H2227 C2235 0.930 . S
H2228 C2238 0.930 . S
H2229 C2239 0.930 . S
C2230 H2224 0.930 . S
C2230 C2231 1.355 . S
C2230 C2232 1.415 . S
C2231 C2230 1.355 . S
C2231 C2233 1.419 . S
C2232 C2230 1.415 . S
C2232 C2237 1.425 . S
C2232 C2239 1.409 . S
C2233 H2225 0.930 . S
C2233 C2231 1.419 . S
C2233 C2234 1.362 . S
C2234 H2226 0.930 . S
C2234 C2233 1.362 . S
C2234 C2237 1.409 . S
C2235 H2227 0.930 . S
C2235 C2236 1.355 . S
C2235 C2237 1.415 . S
C2236 C2235 1.355 . S
C2236 C2238 1.419 . S
C2237 C2232 1.425 . S
C2237 C2234 1.409 . S
C2237 C2235 1.415 . S
C2238 H2228 0.930 . S
C2238 C2236 1.419 . S
C2238 C2239 1.362 . S
C2239 H2229 0.930 . S
C2239 C2232 1.409 . S
C2239 C2238 1.362 . S
H2240 C2246 0.930 . S
H2241 C2249 0.930 . S
H2242 C2250 0.930 1_565 S
H2243 C2251 0.930 . S
H2244 C2254 0.930 . S
H2245 C2255 0.930 1_545 S
C2246 H2240 0.930 . S
C2246 C2247 1.355 . S
C2246 C2248 1.415 . S
C2247 C2246 1.355 . S
C2247 C2249 1.419 . S
C2248 C2246 1.415 . S
C2248 C2253 1.425 1_545 S
C2248 C2255 1.409 1_545 S
C2249 H2241 0.930 . S
C2249 C2247 1.419 . S
C2249 C2250 1.362 . S
C2250 H2242 0.930 1_545 S
C2250 C2249 1.362 . S
C2250 C2253 1.409 1_545 S
C2251 H2243 0.930 . S
C2251 C2252 1.355 . S
C2251 C2253 1.415 . S
C2252 C2251 1.355 . S
C2252 C2254 1.419 . S
C2253 C2248 1.425 1_565 S
C2253 C2250 1.409 1_565 S
C2253 C2251 1.415 . S
C2254 H2244 0.930 . S
C2254 C2252 1.419 . S
C2254 C2255 1.362 . S
C2255 H2245 0.930 1_565 S
C2255 C2248 1.409 1_565 S
C2255 C2254 1.362 . S
H2256 C2262 0.930 . S
H2257 C2265 0.930 . S
H2258 C2266 0.930 1_545 S
H2259 C2267 0.930 . S
H2260 C2270 0.930 . S
H2261 C2271 0.930 1_565 S
C2262 H2256 0.930 . S
C2262 C2263 1.355 1_556 S
C2262 C2264 1.415 . S
C2263 C2262 1.355 1_554 S
C2263 C2265 1.419 . S
C2264 C2262 1.415 . S
C2264 C2269 1.425 1_566 S
C2264 C2271 1.409 1_565 S
C2265 H2257 0.930 . S
C2265 C2263 1.419 . S
C2265 C2266 1.362 . S
C2266 H2258 0.930 1_565 S
C2266 C2265 1.362 . S
C2266 C2269 1.409 1_565 S
C2267 H2259 0.930 . S
C2267 C2268 1.355 1_554 S
C2267 C2269 1.415 . S
C2268 C2267 1.355 1_556 S
C2268 C2270 1.419 . S
C2269 C2264 1.425 1_544 S
C2269 C2266 1.409 1_545 S
C2269 C2267 1.415 . S
C2270 H2260 0.930 . S
C2270 C2268 1.419 . S
C2270 C2271 1.362 . S
C2271 H2261 0.930 1_545 S
C2271 C2264 1.409 1_545 S
C2271 C2270 1.362 . S
H2272 C2278 0.930 . S
H2273 C2281 0.930 . S
H2274 C2282 0.930 . S
H2275 C2283 0.930 . S
H2276 C2286 0.930 . S
H2277 C2287 0.930 . S
C2278 H2272 0.930 . S
C2278 C2279 1.355 . S
C2278 C2280 1.415 1_655 S
C2279 C2278 1.355 . S
C2279 C2281 1.419 1_556 S
C2280 C2278 1.415 1_455 S
C2280 C2285 1.425 1_456 S
C2280 C2287 1.409 . S
C2281 H2273 0.930 . S
C2281 C2279 1.419 1_554 S
C2281 C2282 1.362 . S
C2282 H2274 0.930 . S
C2282 C2281 1.362 . S
C2282 C2285 1.409 . S
C2283 H2275 0.930 . S
C2283 C2284 1.355 . S
C2283 C2285 1.415 1_455 S
C2284 C2283 1.355 . S
C2284 C2286 1.419 1_554 S
C2285 C2280 1.425 1_654 S
C2285 C2282 1.409 . S
C2285 C2283 1.415 1_655 S
C2286 H2276 0.930 . S
C2286 C2284 1.419 1_556 S
C2286 C2287 1.362 . S
C2287 H2277 0.930 . S
C2287 C2280 1.409 . S
C2287 C2286 1.362 . S
H2288 C2294 0.930 . S
H2289 C2297 0.930 . S
H2290 C2298 0.930 . S
H2291 C2299 0.930 . S
H2292 C2302 0.930 . S
H2293 C2303 0.930 . S
C2294 H2288 0.930 . S
C2294 C2295 1.355 . S
C2294 C2296 1.415 . S
C2295 C2294 1.355 . S
C2295 C2297 1.419 1_554 S
C2296 C2294 1.415 . S
C2296 C2301 1.425 1_554 S
C2296 C2303 1.409 . S
C2297 H2289 0.930 . S
C2297 C2295 1.419 1_556 S
C2297 C2298 1.362 . S
C2298 H2290 0.930 . S
C2298 C2297 1.362 . S
C2298 C2301 1.409 . S
C2299 H2291 0.930 . S
C2299 C2300 1.355 . S
C2299 C2301 1.415 . S
C2300 C2299 1.355 . S
C2300 C2302 1.419 1_556 S
C2301 C2296 1.425 1_556 S
C2301 C2298 1.409 . S
C2301 C2299 1.415 . S
C2302 H2292 0.930 . S
C2302 C2300 1.419 1_554 S
C2302 C2303 1.362 . S
C2303 H2293 0.930 . S
C2303 C2296 1.409 . S
C2303 C2302 1.362 . S
H2304 C2310 0.930 1_554 S
H2305 C2313 0.930 . S
H2306 C2314 0.930 . S
H2307 C2315 0.930 . S
H2308 C2318 0.930 . S
H2309 C2319 0.930 . S
C2310 H2304 0.930 1_556 S
C2310 C2311 1.355 . S
C2310 C2312 1.415 . S
C2311 C2310 1.355 . S
C2311 C2313 1.419 . S
C2312 C2310 1.415 . S
C2312 C2317 1.425 . S
C2312 C2319 1.409 . S
C2313 H2305 0.930 . S
C2313 C2311 1.419 . S
C2313 C2314 1.362 . S
C2314 H2306 0.930 . S
C2314 C2313 1.362 . S
C2314 C2317 1.409 . S
C2315 H2307 0.930 . S
C2315 C2316 1.355 . S
C2315 C2317 1.415 . S
C2316 C2315 1.355 . S
C2316 C2318 1.419 . S
C2317 C2312 1.425 . S
C2317 C2314 1.409 . S
C2317 C2315 1.415 . S
C2318 H2308 0.930 . S
C2318 C2316 1.419 . S
C2318 C2319 1.362 . S
C2319 H2309 0.930 . S
C2319 C2312 1.409 . S
C2319 C2318 1.362 . S
H2320 C2326 0.930 . S
H2321 C2329 0.930 1_554 S
H2322 C2330 0.930 . S
H2323 C2331 0.930 . S
H2324 C2334 0.930 . S
H2325 C2335 0.930 . S
C2326 H2320 0.930 . S
C2326 C2327 1.355 . S
C2326 C2328 1.415 . S
C2327 C2326 1.355 . S
C2327 C2329 1.419 . S
C2328 C2326 1.415 . S
C2328 C2333 1.425 . S
C2328 C2335 1.409 . S
C2329 H2321 0.930 1_556 S
C2329 C2327 1.419 . S
C2329 C2330 1.362 . S
C2330 H2322 0.930 . S
C2330 C2329 1.362 . S
C2330 C2333 1.409 . S
C2331 H2323 0.930 . S
C2331 C2332 1.355 . S
C2331 C2333 1.415 . S
C2332 C2331 1.355 . S
C2332 C2334 1.419 . S
C2333 C2328 1.425 . S
C2333 C2330 1.409 . S
C2333 C2331 1.415 . S
C2334 H2324 0.930 . S
C2334 C2332 1.419 . S
C2334 C2335 1.362 . S
C2335 H2325 0.930 . S
C2335 C2328 1.409 . S
C2335 C2334 1.362 . S
H2336 C2342 0.930 . S
H2337 C2345 0.930 . S
H2338 C2346 0.930 . S
H2339 C2347 0.930 . S
H2340 C2350 0.930 . S
H2341 C2351 0.930 . S
C2342 H2336 0.930 . S
C2342 C2343 1.355 . S
C2342 C2344 1.415 . S
C2343 C2342 1.355 . S
C2343 C2345 1.419 . S
C2344 C2342 1.415 . S
C2344 C2349 1.425 . S
C2344 C2351 1.409 . S
C2345 H2337 0.930 . S
C2345 C2343 1.419 . S
C2345 C2346 1.362 . S
C2346 H2338 0.930 . S
C2346 C2345 1.362 . S
C2346 C2349 1.409 . S
C2347 H2339 0.930 . S
C2347 C2348 1.355 . S
C2347 C2349 1.415 . S
C2348 C2347 1.355 . S
C2348 C2350 1.419 . S
C2349 C2344 1.425 . S
C2349 C2346 1.409 . S
C2349 C2347 1.415 . S
C2350 H2340 0.930 . S
C2350 C2348 1.419 . S
C2350 C2351 1.362 . S
C2351 H2341 0.930 . S
C2351 C2344 1.409 . S
C2351 C2350 1.362 . S
H2352 C2358 0.930 . S
H2353 C2361 0.930 . S
H2354 C2362 0.930 . S
H2355 C2363 0.930 . S
H2356 C2366 0.930 . S
H2357 C2367 0.930 . S
C2358 H2352 0.930 . S
C2358 C2359 1.355 . S
C2358 C2360 1.415 . S
C2359 C2358 1.355 . S
C2359 C2361 1.419 . S
C2360 C2358 1.415 . S
C2360 C2365 1.425 . S
C2360 C2367 1.409 . S
C2361 H2353 0.930 . S
C2361 C2359 1.419 . S
C2361 C2362 1.362 . S
C2362 H2354 0.930 . S
C2362 C2361 1.362 . S
C2362 C2365 1.409 . S
C2363 H2355 0.930 . S
C2363 C2364 1.355 . S
C2363 C2365 1.415 . S
C2364 C2363 1.355 . S
C2364 C2366 1.419 . S
C2365 C2360 1.425 . S
C2365 C2362 1.409 . S
C2365 C2363 1.415 . S
C2366 H2356 0.930 . S
C2366 C2364 1.419 . S
C2366 C2367 1.362 . S
C2367 H2357 0.930 . S
C2367 C2360 1.409 . S
C2367 C2366 1.362 . S
H2368 C2374 0.930 . S
H2369 C2377 0.930 . S
H2370 C2378 0.930 . S
H2371 C2379 0.930 . S
H2372 C2382 0.930 . S
H2373 C2383 0.930 . S
C2374 H2368 0.930 . S
C2374 C2375 1.355 . S
C2374 C2376 1.415 . S
C2375 C2374 1.355 . S
C2375 C2377 1.419 . S
C2376 C2374 1.415 . S
C2376 C2381 1.425 . S
C2376 C2383 1.409 . S
C2377 H2369 0.930 . S
C2377 C2375 1.419 . S
C2377 C2378 1.362 . S
C2378 H2370 0.930 . S
C2378 C2377 1.362 . S
C2378 C2381 1.409 . S
C2379 H2371 0.930 . S
C2379 C2380 1.355 . S
C2379 C2381 1.415 . S
C2380 C2379 1.355 . S
C2380 C2382 1.419 . S
C2381 C2376 1.425 . S
C2381 C2378 1.409 . S
C2381 C2379 1.415 . S
C2382 H2372 0.930 . S
C2382 C2380 1.419 . S
C2382 C2383 1.362 . S
C2383 H2373 0.930 . S
C2383 C2376 1.409 . S
C2383 C2382 1.362 . S
H2384 C2390 0.930 . S
H2385 C2393 0.930 . S
H2386 C2394 0.930 . S
H2387 C2395 0.930 . S
H2388 C2398 0.930 . S
H2389 C2399 0.930 . S
C2390 H2384 0.930 . S
C2390 C2391 1.355 . S
C2390 C2392 1.415 . S
C2391 C2390 1.355 . S
C2391 C2393 1.419 . S
C2392 C2390 1.415 . S
C2392 C2397 1.425 . S
C2392 C2399 1.409 . S
C2393 H2385 0.930 . S
C2393 C2391 1.419 . S
C2393 C2394 1.362 . S
C2394 H2386 0.930 . S
C2394 C2393 1.362 . S
C2394 C2397 1.409 . S
C2395 H2387 0.930 . S
C2395 C2396 1.355 . S
C2395 C2397 1.415 . S
C2396 C2395 1.355 . S
C2396 C2398 1.419 . S
C2397 C2392 1.425 . S
C2397 C2394 1.409 . S
C2397 C2395 1.415 . S
C2398 H2388 0.930 . S
C2398 C2396 1.419 . S
C2398 C2399 1.362 . S
C2399 H2389 0.930 . S
C2399 C2392 1.409 . S
C2399 C2398 1.362 . S
H2400 C2406 0.930 . S
H2401 C2409 0.930 . S
H2402 C2410 0.930 . S
H2403 C2411 0.930 1_556 S
H2404 C2414 0.930 . S
H2405 C2415 0.930 . S
C2406 H2400 0.930 . S
C2406 C2407 1.355 . S
C2406 C2408 1.415 . S
C2407 C2406 1.355 . S
C2407 C2409 1.419 . S
C2408 C2406 1.415 . S
C2408 C2413 1.425 . S
C2408 C2415 1.409 . S
C2409 H2401 0.930 . S
C2409 C2407 1.419 . S
C2409 C2410 1.362 . S
C2410 H2402 0.930 . S
C2410 C2409 1.362 . S
C2410 C2413 1.409 . S
C2411 H2403 0.930 1_554 S
C2411 C2412 1.355 . S
C2411 C2413 1.415 . S
C2412 C2411 1.355 . S
C2412 C2414 1.419 . S
C2413 C2408 1.425 . S
C2413 C2410 1.409 . S
C2413 C2411 1.415 . S
C2414 H2404 0.930 . S
C2414 C2412 1.419 . S
C2414 C2415 1.362 . S
C2415 H2405 0.930 . S
C2415 C2408 1.409 . S
C2415 C2414 1.362 . S
H2416 C2422 0.930 1_556 S
H2417 C2425 0.930 . S
H2418 C2426 0.930 . S
H2419 C2427 0.930 . S
H2420 C2430 0.930 . S
H2421 C2431 0.930 . S
C2422 H2416 0.930 1_554 S
C2422 C2423 1.355 . S
C2422 C2424 1.415 . S
C2423 C2422 1.355 . S
C2423 C2425 1.419 . S
C2424 C2422 1.415 . S
C2424 C2429 1.425 . S
C2424 C2431 1.409 . S
C2425 H2417 0.930 . S
C2425 C2423 1.419 . S
C2425 C2426 1.362 . S
C2426 H2418 0.930 . S
C2426 C2425 1.362 . S
C2426 C2429 1.409 . S
C2427 H2419 0.930 . S
C2427 C2428 1.355 . S
C2427 C2429 1.415 . S
C2428 C2427 1.355 . S
C2428 C2430 1.419 . S
C2429 C2424 1.425 . S
C2429 C2426 1.409 . S
C2429 C2427 1.415 . S
C2430 H2420 0.930 . S
C2430 C2428 1.419 . S
C2430 C2431 1.362 . S
C2431 H2421 0.930 . S
C2431 C2424 1.409 . S
C2431 C2430 1.362 . S
H2432 C2438 0.930 . S
H2433 C2441 0.930 . S
H2434 C2442 0.930 . S
H2435 C2443 0.930 . S
H2436 C2446 0.930 . S
H2437 C2447 0.930 . S
C2438 H2432 0.930 . S
C2438 C2439 1.355 . S
C2438 C2440 1.415 . S
C2439 C2438 1.355 . S
C2439 C2441 1.419 . S
C2440 C2438 1.415 . S
C2440 C2445 1.425 . S
C2440 C2447 1.409 . S
C2441 H2433 0.930 . S
C2441 C2439 1.419 . S
C2441 C2442 1.362 . S
C2442 H2434 0.930 . S
C2442 C2441 1.362 . S
C2442 C2445 1.409 . S
C2443 H2435 0.930 . S
C2443 C2444 1.355 . S
C2443 C2445 1.415 . S
C2444 C2443 1.355 . S
C2444 C2446 1.419 . S
C2445 C2440 1.425 . S
C2445 C2442 1.409 . S
C2445 C2443 1.415 . S
C2446 H2436 0.930 . S
C2446 C2444 1.419 . S
C2446 C2447 1.362 . S
C2447 H2437 0.930 . S
C2447 C2440 1.409 . S
C2447 C2446 1.362 . S
H2448 C2454 0.930 . S
H2449 C2457 0.930 . S
H2450 C2458 0.930 . S
H2451 C2459 0.930 . S
H2452 C2462 0.930 . S
H2453 C2463 0.930 . S
C2454 H2448 0.930 . S
C2454 C2455 1.355 . S
C2454 C2456 1.415 . S
C2455 C2454 1.355 . S
C2455 C2457 1.419 . S
C2456 C2454 1.415 . S
C2456 C2461 1.425 . S
C2456 C2463 1.409 . S
C2457 H2449 0.930 . S
C2457 C2455 1.419 . S
C2457 C2458 1.362 . S
C2458 H2450 0.930 . S
C2458 C2457 1.362 . S
C2458 C2461 1.409 . S
C2459 H2451 0.930 . S
C2459 C2460 1.355 . S
C2459 C2461 1.415 . S
C2460 C2459 1.355 . S
C2460 C2462 1.419 . S
C2461 C2456 1.425 . S
C2461 C2458 1.409 . S
C2461 C2459 1.415 . S
C2462 H2452 0.930 . S
C2462 C2460 1.419 . S
C2462 C2463 1.362 . S
C2463 H2453 0.930 . S
C2463 C2456 1.409 . S
C2463 C2462 1.362 . S
H2464 C2470 0.930 . S
H2465 C2473 0.930 . S
H2466 C2474 0.930 . S
H2467 C2475 0.930 . S
H2468 C2478 0.930 . S
H2469 C2479 0.930 . S
C2470 H2464 0.930 . S
C2470 C2471 1.355 . S
C2470 C2472 1.415 . S
C2471 C2470 1.355 . S
C2471 C2473 1.419 . S
C2472 C2470 1.415 . S
C2472 C2477 1.425 . S
C2472 C2479 1.409 . S
C2473 H2465 0.930 . S
C2473 C2471 1.419 . S
C2473 C2474 1.362 . S
C2474 H2466 0.930 . S
C2474 C2473 1.362 . S
C2474 C2477 1.409 . S
C2475 H2467 0.930 . S
C2475 C2476 1.355 . S
C2475 C2477 1.415 . S
C2476 C2475 1.355 . S
C2476 C2478 1.419 . S
C2477 C2472 1.425 . S
C2477 C2474 1.409 . S
C2477 C2475 1.415 . S
C2478 H2468 0.930 . S
C2478 C2476 1.419 . S
C2478 C2479 1.362 . S
C2479 H2469 0.930 . S
C2479 C2472 1.409 . S
C2479 C2478 1.362 . S
H2480 C2486 0.930 . S
H2481 C2489 0.930 . S
H2482 C2490 0.930 . S
H2483 C2491 0.930 . S
H2484 C2494 0.930 . S
H2485 C2495 0.930 . S
C2486 H2480 0.930 . S
C2486 C2487 1.355 . S
C2486 C2488 1.415 . S
C2487 C2486 1.355 . S
C2487 C2489 1.419 . S
C2488 C2486 1.415 . S
C2488 C2493 1.425 . S
C2488 C2495 1.409 . S
C2489 H2481 0.930 . S
C2489 C2487 1.419 . S
C2489 C2490 1.362 . S
C2490 H2482 0.930 . S
C2490 C2489 1.362 . S
C2490 C2493 1.409 . S
C2491 H2483 0.930 . S
C2491 C2492 1.355 . S
C2491 C2493 1.415 . S
C2492 C2491 1.355 . S
C2492 C2494 1.419 . S
C2493 C2488 1.425 . S
C2493 C2490 1.409 . S
C2493 C2491 1.415 . S
C2494 H2484 0.930 . S
C2494 C2492 1.419 . S
C2494 C2495 1.362 . S
C2495 H2485 0.930 . S
C2495 C2488 1.409 . S
C2495 C2494 1.362 . S
H2496 C2502 0.930 . S
H2497 C2505 0.930 . S
H2498 C2506 0.930 . S
H2499 C2507 0.930 . S
H2500 C2510 0.930 . S
H2501 C2511 0.930 . S
C2502 H2496 0.930 . S
C2502 C2503 1.355 . S
C2502 C2504 1.415 . S
C2503 C2502 1.355 . S
C2503 C2505 1.419 . S
C2504 C2502 1.415 . S
C2504 C2509 1.425 1_455 S
C2504 C2511 1.409 . S
C2505 H2497 0.930 . S
C2505 C2503 1.419 . S
C2505 C2506 1.362 1_455 S
C2506 H2498 0.930 . S
C2506 C2505 1.362 1_655 S
C2506 C2509 1.409 . S
C2507 H2499 0.930 . S
C2507 C2508 1.355 . S
C2507 C2509 1.415 . S
C2508 C2507 1.355 . S
C2508 C2510 1.419 . S
C2509 C2504 1.425 1_655 S
C2509 C2506 1.409 . S
C2509 C2507 1.415 . S
C2510 H2500 0.930 . S
C2510 C2508 1.419 . S
C2510 C2511 1.362 1_655 S
C2511 H2501 0.930 . S
C2511 C2504 1.409 . S
C2511 C2510 1.362 1_455 S
H2512 C2518 0.930 . S
H2513 C2521 0.930 . S
H2514 C2522 0.930 . S
H2515 C2523 0.930 . S
H2516 C2526 0.930 . S
H2517 C2527 0.930 . S
C2518 H2512 0.930 . S
C2518 C2519 1.355 . S
C2518 C2520 1.415 . S
C2519 C2518 1.355 . S
C2519 C2521 1.419 . S
C2520 C2518 1.415 . S
C2520 C2525 1.425 . S
C2520 C2527 1.409 . S
C2521 H2513 0.930 . S
C2521 C2519 1.419 . S
C2521 C2522 1.362 . S
C2522 H2514 0.930 . S
C2522 C2521 1.362 . S
C2522 C2525 1.409 . S
C2523 H2515 0.930 . S
C2523 C2524 1.355 . S
C2523 C2525 1.415 . S
C2524 C2523 1.355 . S
C2524 C2526 1.419 . S
C2525 C2520 1.425 . S
C2525 C2522 1.409 . S
C2525 C2523 1.415 . S
C2526 H2516 0.930 . S
C2526 C2524 1.419 . S
C2526 C2527 1.362 . S
C2527 H2517 0.930 . S
C2527 C2520 1.409 . S
C2527 C2526 1.362 . S
H2528 C2534 0.930 . S
H2529 C2537 0.930 . S
H2530 C2538 0.930 . S
H2531 C2539 0.930 . S
H2532 C2542 0.930 . S
H2533 C2543 0.930 . S
C2534 H2528 0.930 . S
C2534 C2535 1.355 . S
C2534 C2536 1.417 . S
C2535 C2534 1.355 . S
C2535 C2537 1.419 . S
C2536 C2534 1.417 . S
C2536 C2541 1.429 1_545 S
C2536 C2543 1.405 1_545 S
C2537 H2529 0.930 . S
C2537 C2535 1.419 . S
C2537 C2538 1.362 . S
C2538 H2530 0.930 . S
C2538 C2537 1.362 . S
C2538 C2541 1.405 1_545 S
C2539 H2531 0.930 . S
C2539 C2540 1.355 . S
C2539 C2541 1.418 . S
C2540 C2539 1.355 . S
C2540 C2542 1.419 . S
C2541 C2536 1.429 1_565 S
C2541 C2538 1.405 1_565 S
C2541 C2539 1.418 . S
C2542 H2532 0.930 . S
C2542 C2540 1.419 . S
C2542 C2543 1.362 . S
C2543 H2533 0.930 . S
C2543 C2536 1.405 1_565 S
C2543 C2542 1.362 . S
H2544 C2550 0.930 . S
H2545 C2553 0.930 . S
H2546 C2554 0.907 1_545 S
H2547 C2555 0.930 . S
H2548 C2558 0.930 . S
H2549 C2559 0.907 1_565 S
C2550 H2544 0.930 . S
C2550 C2551 1.355 . S
C2550 C2552 1.415 . S
C2551 C2550 1.355 . S
C2551 C2553 1.419 . S
C2552 C2550 1.415 . S
C2552 C2557 1.425 1_565 S
C2552 C2559 1.409 1_565 S
C2553 H2545 0.930 . S
C2553 C2551 1.419 . S
C2553 C2554 1.362 . S
C2554 H2546 0.907 1_565 S
C2554 C2553 1.362 . S
C2554 C2557 1.409 1_565 S
C2555 H2547 0.930 . S
C2555 C2556 1.355 . S
C2555 C2557 1.415 . S
C2556 C2555 1.355 . S
C2556 C2558 1.419 . S
C2557 C2552 1.425 1_545 S
C2557 C2554 1.409 1_545 S
C2557 C2555 1.415 . S
C2558 H2548 0.930 . S
C2558 C2556 1.419 . S
C2558 C2559 1.362 . S
C2559 H2549 0.907 1_545 S
C2559 C2552 1.409 1_545 S
C2559 C2558 1.362 . S
H2560 C2566 0.930 . S
H2561 C2569 0.930 . S
H2562 C2570 0.930 1_655 S
H2563 C2571 0.930 . S
H2564 C2574 0.930 . S
H2565 C2575 0.930 1_455 S
C2566 H2560 0.930 . S
C2566 C2567 1.355 . S
C2566 C2568 1.415 . S
C2567 C2566 1.355 . S
C2567 C2569 1.419 . S
C2568 C2566 1.415 . S
C2568 C2573 1.425 1_455 S
C2568 C2575 1.409 1_455 S
C2569 H2561 0.930 . S
C2569 C2567 1.419 . S
C2569 C2570 1.362 . S
C2570 H2562 0.930 1_455 S
C2570 C2569 1.362 . S
C2570 C2573 1.409 1_455 S
C2571 H2563 0.930 . S
C2571 C2572 1.355 . S
C2571 C2573 1.415 . S
C2572 C2571 1.355 . S
C2572 C2574 1.419 . S
C2573 C2568 1.425 1_655 S
C2573 C2570 1.409 1_655 S
C2573 C2571 1.415 . S
C2574 H2564 0.930 . S
C2574 C2572 1.419 . S
C2574 C2575 1.362 . S
C2575 H2565 0.930 1_655 S
C2575 C2568 1.409 1_655 S
C2575 C2574 1.362 . S
H2576 C2582 0.930 . S
H2577 C2585 0.930 . S
H2578 C2586 0.930 . S
H2579 C2587 0.930 . S
H2580 C2590 0.930 . S
H2581 C2591 0.930 . S
C2582 H2576 0.930 . S
C2582 C2583 1.355 . S
C2582 C2584 1.415 . S
C2583 C2582 1.355 . S
C2583 C2585 1.419 . S
C2584 C2582 1.415 . S
C2584 C2589 1.425 . S
C2584 C2591 1.409 . S
C2585 H2577 0.930 . S
C2585 C2583 1.419 . S
C2585 C2586 1.362 . S
C2586 H2578 0.930 . S
C2586 C2585 1.362 . S
C2586 C2589 1.409 . S
C2587 H2579 0.930 . S
C2587 C2588 1.355 . S
C2587 C2589 1.415 . S
C2588 C2587 1.355 . S
C2588 C2590 1.419 . S
C2589 C2584 1.425 . S
C2589 C2586 1.409 . S
C2589 C2587 1.415 . S
C2590 H2580 0.930 . S
C2590 C2588 1.419 . S
C2590 C2591 1.362 . S
C2591 H2581 0.930 . S
C2591 C2584 1.409 . S
C2591 C2590 1.362 . S
H2592 C2598 0.930 . S
H2593 C2601 0.930 . S
H2594 C2602 0.930 . S
H2595 C2603 0.930 . S
H2596 C2606 0.930 . S
H2597 C2607 0.930 . S
C2598 H2592 0.930 . S
C2598 C2599 1.355 . S
C2598 C2600 1.415 . S
C2599 C2598 1.355 . S
C2599 C2601 1.419 . S
C2600 C2598 1.415 . S
C2600 C2605 1.425 . S
C2600 C2607 1.409 . S
C2601 H2593 0.930 . S
C2601 C2599 1.419 . S
C2601 C2602 1.362 . S
C2602 H2594 0.930 . S
C2602 C2601 1.362 . S
C2602 C2605 1.409 . S
C2603 H2595 0.930 . S
C2603 C2604 1.355 . S
C2603 C2605 1.415 . S
C2604 C2603 1.355 . S
C2604 C2606 1.419 . S
C2605 C2600 1.425 . S
C2605 C2602 1.409 . S
C2605 C2603 1.415 . S
C2606 H2596 0.930 . S
C2606 C2604 1.419 . S
C2606 C2607 1.362 . S
C2607 H2597 0.930 . S
C2607 C2600 1.409 . S
C2607 C2606 1.362 . S
H2608 C2614 0.930 . S
H2609 C2617 0.930 . S
H2610 C2618 0.930 . S
H2611 C2619 0.930 . S
H2612 C2622 0.930 . S
H2613 C2623 0.930 . S
C2614 H2608 0.930 . S
C2614 C2615 1.355 . S
C2614 C2616 1.415 . S
C2615 C2614 1.355 . S
C2615 C2617 1.419 . S
C2616 C2614 1.415 . S
C2616 C2621 1.425 1_545 S
C2616 C2623 1.409 . S
C2617 H2609 0.930 . S
C2617 C2615 1.419 . S
C2617 C2618 1.362 1_545 S
C2618 H2610 0.930 . S
C2618 C2617 1.362 1_565 S
C2618 C2621 1.409 . S
C2619 H2611 0.930 . S
C2619 C2620 1.355 . S
C2619 C2621 1.415 . S
C2620 C2619 1.355 . S
C2620 C2622 1.419 . S
C2621 C2616 1.425 1_565 S
C2621 C2618 1.409 . S
C2621 C2619 1.415 . S
C2622 H2612 0.930 . S
C2622 C2620 1.419 . S
C2622 C2623 1.362 1_565 S
C2623 H2613 0.930 . S
C2623 C2616 1.409 . S
C2623 C2622 1.362 1_545 S
H2624 C2630 0.930 . S
H2625 C2633 0.930 . S
H2626 C2634 0.930 . S
H2627 C2635 0.930 . S
H2628 C2638 0.930 . S
H2629 C2639 0.930 . S
C2630 H2624 0.930 . S
C2630 C2631 1.355 . S
C2630 C2632 1.400 1_655 S
C2631 C2630 1.355 . S
C2631 C2633 1.419 . S
C2632 C2630 1.400 1_455 S
C2632 C2637 1.412 1_455 S
C2632 C2639 1.431 . S
C2633 H2625 0.930 . S
C2633 C2631 1.419 . S
C2633 C2634 1.362 . S
C2634 H2626 0.930 . S
C2634 C2633 1.362 . S
C2634 C2637 1.430 . S
C2635 H2627 0.930 . S
C2635 C2636 1.355 . S
C2635 C2637 1.400 1_455 S
C2636 C2635 1.355 . S
C2636 C2638 1.419 . S
C2637 C2632 1.412 1_655 S
C2637 C2634 1.430 . S
C2637 C2635 1.400 1_655 S
C2638 H2628 0.930 . S
C2638 C2636 1.419 . S
C2638 C2639 1.362 . S
C2639 H2629 0.930 . S
C2639 C2632 1.431 . S
C2639 C2638 1.362 . S
H2640 C2646 0.930 . S
H2641 C2649 0.930 . S
H2642 C2650 0.930 . S
H2643 C2651 0.930 . S
H2644 C2654 0.930 . S
H2645 C2655 0.930 . S
C2646 H2640 0.930 . S
C2646 C2647 1.355 . S
C2646 C2648 1.415 . S
C2647 C2646 1.355 . S
C2647 C2649 1.419 . S
C2648 C2646 1.415 . S
C2648 C2653 1.425 . S
C2648 C2655 1.409 . S
C2649 H2641 0.930 . S
C2649 C2647 1.419 . S
C2649 C2650 1.362 . S
C2650 H2642 0.930 . S
C2650 C2649 1.362 . S
C2650 C2653 1.409 . S
C2651 H2643 0.930 . S
C2651 C2652 1.355 . S
C2651 C2653 1.415 . S
C2652 C2651 1.355 . S
C2652 C2654 1.419 . S
C2653 C2648 1.425 . S
C2653 C2650 1.409 . S
C2653 C2651 1.415 . S
C2654 H2644 0.930 . S
C2654 C2652 1.419 . S
C2654 C2655 1.362 . S
C2655 H2645 0.930 . S
C2655 C2648 1.409 . S
C2655 C2654 1.362 . S
H2656 C2662 0.930 . S
H2657 C2665 0.930 . S
H2658 C2666 0.930 . S
H2659 C2667 0.930 . S
H2660 C2670 0.930 . S
H2661 C2671 0.930 . S
C2662 H2656 0.930 . S
C2662 C2663 1.355 . S
C2662 C2664 1.415 . S
C2663 C2662 1.355 . S
C2663 C2665 1.419 . S
C2664 C2662 1.415 . S
C2664 C2669 1.425 1_565 S
C2664 C2671 1.409 1_565 S
C2665 H2657 0.930 . S
C2665 C2663 1.419 . S
C2665 C2666 1.362 . S
C2666 H2658 0.930 . S
C2666 C2665 1.362 . S
C2666 C2669 1.409 1_565 S
C2667 H2659 0.930 . S
C2667 C2668 1.355 . S
C2667 C2669 1.415 . S
C2668 C2667 1.355 . S
C2668 C2670 1.419 . S
C2669 C2664 1.425 1_545 S
C2669 C2666 1.409 1_545 S
C2669 C2667 1.415 . S
C2670 H2660 0.930 . S
C2670 C2668 1.419 . S
C2670 C2671 1.362 . S
C2671 H2661 0.930 . S
C2671 C2664 1.409 1_545 S
C2671 C2670 1.362 . S
H2672 C2678 0.930 . S
H2673 C2681 0.930 . S
H2674 C2682 0.930 . S
H2675 C2683 0.930 . S
H2676 C2686 0.930 . S
H2677 C2687 0.930 . S
C2678 H2672 0.930 . S
C2678 C2679 1.355 . S
C2678 C2680 1.415 1_655 S
C2679 C2678 1.355 . S
C2679 C2681 1.419 . S
C2680 C2678 1.415 1_455 S
C2680 C2685 1.425 1_455 S
C2680 C2687 1.409 . S
C2681 H2673 0.930 . S
C2681 C2679 1.419 . S
C2681 C2682 1.362 . S
C2682 H2674 0.930 . S
C2682 C2681 1.362 . S
C2682 C2685 1.409 . S
C2683 H2675 0.930 . S
C2683 C2684 1.355 . S
C2683 C2685 1.415 1_455 S
C2684 C2683 1.355 . S
C2684 C2686 1.419 . S
C2685 C2680 1.425 1_655 S
C2685 C2682 1.409 . S
C2685 C2683 1.415 1_655 S
C2686 H2676 0.930 . S
C2686 C2684 1.419 . S
C2686 C2687 1.362 . S
C2687 H2677 0.930 . S
C2687 C2680 1.409 . S
C2687 C2686 1.362 . S
H2688 C2694 0.930 . S
H2689 C2697 0.930 . S
H2690 C2698 0.930 . S
H2691 C2699 0.930 . S
H2692 C2702 0.930 . S
H2693 C2703 0.930 . S
C2694 H2688 0.930 . S
C2694 C2695 1.355 . S
C2694 C2696 1.415 . S
C2695 C2694 1.355 . S
C2695 C2697 1.419 . S
C2696 C2694 1.415 . S
C2696 C2701 1.425 . S
C2696 C2703 1.409 . S
C2697 H2689 0.930 . S
C2697 C2695 1.419 . S
C2697 C2698 1.362 . S
C2698 H2690 0.930 . S
C2698 C2697 1.362 . S
C2698 C2701 1.409 . S
C2699 H2691 0.930 . S
C2699 C2700 1.355 . S
C2699 C2701 1.415 . S
C2700 C2699 1.355 . S
C2700 C2702 1.419 . S
C2701 C2696 1.425 . S
C2701 C2698 1.409 . S
C2701 C2699 1.415 . S
C2702 H2692 0.930 . S
C2702 C2700 1.419 . S
C2702 C2703 1.362 . S
C2703 H2693 0.930 . S
C2703 C2696 1.409 . S
C2703 C2702 1.362 . S
H2704 C2710 0.930 . S
H2705 C2713 0.930 . S
H2706 C2714 0.930 . S
H2707 C2715 0.930 . S
H2708 C2718 0.930 . S
H2709 C2719 0.930 . S
C2710 H2704 0.930 . S
C2710 C2711 1.355 . S
C2710 C2712 1.415 . S
C2711 C2710 1.355 . S
C2711 C2713 1.419 . S
C2712 C2710 1.415 . S
C2712 C2717 1.425 . S
C2712 C2719 1.409 . S
C2713 H2705 0.930 . S
C2713 C2711 1.419 . S
C2713 C2714 1.362 . S
C2714 H2706 0.930 . S
C2714 C2713 1.362 . S
C2714 C2717 1.409 . S
C2715 H2707 0.930 . S
C2715 C2716 1.355 . S
C2715 C2717 1.415 . S
C2716 C2715 1.355 . S
C2716 C2718 1.419 . S
C2717 C2712 1.425 . S
C2717 C2714 1.409 . S
C2717 C2715 1.415 . S
C2718 H2708 0.930 . S
C2718 C2716 1.419 . S
C2718 C2719 1.362 . S
C2719 H2709 0.930 . S
C2719 C2712 1.409 . S
C2719 C2718 1.362 . S
H2720 C2726 0.930 . S
H2721 C2729 0.930 . S
H2722 C2730 0.930 . S
H2723 C2731 0.930 . S
H2724 C2734 0.930 . S
H2725 C2735 0.930 . S
C2726 H2720 0.930 . S
C2726 C2727 1.355 . S
C2726 C2728 1.415 . S
C2727 C2726 1.355 . S
C2727 C2729 1.419 . S
C2728 C2726 1.415 . S
C2728 C2733 1.425 . S
C2728 C2735 1.409 . S
C2729 H2721 0.930 . S
C2729 C2727 1.419 . S
C2729 C2730 1.362 . S
C2730 H2722 0.930 . S
C2730 C2729 1.362 . S
C2730 C2733 1.409 . S
C2731 H2723 0.930 . S
C2731 C2732 1.355 . S
C2731 C2733 1.415 . S
C2732 C2731 1.355 . S
C2732 C2734 1.419 . S
C2733 C2728 1.425 . S
C2733 C2730 1.409 . S
C2733 C2731 1.415 . S
C2734 H2724 0.930 . S
C2734 C2732 1.419 . S
C2734 C2735 1.362 . S
C2735 H2725 0.930 . S
C2735 C2728 1.409 . S
C2735 C2734 1.362 . S
H2736 C2742 0.930 . S
H2737 C2745 0.930 . S
H2738 C2746 0.930 . S
H2739 C2747 0.915 1_556 S
H2740 C2750 0.930 . S
H2741 C2751 0.930 . S
C2742 H2736 0.930 . S
C2742 C2743 1.355 . S
C2742 C2744 1.415 . S
C2743 C2742 1.355 . S
C2743 C2745 1.419 . S
C2744 C2742 1.415 . S
C2744 C2749 1.425 . S
C2744 C2751 1.409 . S
C2745 H2737 0.930 . S
C2745 C2743 1.419 . S
C2745 C2746 1.362 . S
C2746 H2738 0.930 . S
C2746 C2745 1.362 . S
C2746 C2749 1.409 . S
C2747 H2739 0.915 1_554 S
C2747 C2748 1.355 . S
C2747 C2749 1.415 . S
C2748 C2747 1.355 . S
C2748 C2750 1.419 . S
C2749 C2744 1.425 . S
C2749 C2746 1.409 . S
C2749 C2747 1.415 . S
C2750 H2740 0.930 . S
C2750 C2748 1.419 . S
C2750 C2751 1.362 . S
C2751 H2741 0.930 . S
C2751 C2744 1.409 . S
C2751 C2750 1.362 . S
H2752 C2758 0.930 . S
H2753 C2761 0.930 . S
H2754 C2762 0.930 . S
H2755 C2763 0.917 1_556 S
H2756 C2766 0.930 . S
H2757 C2767 0.930 . S
C2758 H2752 0.930 . S
C2758 C2759 1.355 . S
C2758 C2760 1.415 . S
C2759 C2758 1.355 . S
C2759 C2761 1.419 . S
C2760 C2758 1.415 . S
C2760 C2765 1.425 . S
C2760 C2767 1.409 . S
C2761 H2753 0.930 . S
C2761 C2759 1.419 . S
C2761 C2762 1.362 . S
C2762 H2754 0.930 . S
C2762 C2761 1.362 . S
C2762 C2765 1.409 . S
C2763 H2755 0.917 1_554 S
C2763 C2764 1.355 . S
C2763 C2765 1.415 . S
C2764 C2763 1.355 . S
C2764 C2766 1.419 . S
C2765 C2760 1.425 . S
C2765 C2762 1.409 . S
C2765 C2763 1.415 . S
C2766 H2756 0.930 . S
C2766 C2764 1.419 . S
C2766 C2767 1.362 . S
C2767 H2757 0.930 . S
C2767 C2760 1.409 . S
C2767 C2766 1.362 . S
H2768 C2774 0.930 . S
H2769 C2777 0.930 . S
H2770 C2778 0.930 . S
H2771 C2779 0.930 . S
H2772 C2782 0.930 1_556 S
H2773 C2783 0.930 . S
C2774 H2768 0.930 . S
C2774 C2775 1.355 . S
C2774 C2776 1.415 . S
C2775 C2774 1.355 . S
C2775 C2777 1.419 . S
C2776 C2774 1.415 . S
C2776 C2781 1.425 . S
C2776 C2783 1.409 . S
C2777 H2769 0.930 . S
C2777 C2775 1.419 . S
C2777 C2778 1.362 . S
C2778 H2770 0.930 . S
C2778 C2777 1.362 . S
C2778 C2781 1.409 . S
C2779 H2771 0.930 . S
C2779 C2780 1.355 . S
C2779 C2781 1.415 . S
C2780 C2779 1.355 . S
C2780 C2782 1.419 . S
C2781 C2776 1.425 . S
C2781 C2778 1.409 . S
C2781 C2779 1.415 . S
C2782 H2772 0.930 1_554 S
C2782 C2780 1.419 . S
C2782 C2783 1.362 . S
C2783 H2773 0.930 . S
C2783 C2776 1.409 . S
C2783 C2782 1.362 . S
H2784 C2790 0.930 . S
H2785 C2793 0.930 . S
H2786 C2794 0.930 . S
H2787 C2795 0.930 . S
H2788 C2798 0.930 . S
H2789 C2799 0.930 . S
C2790 H2784 0.930 . S
C2790 C2791 1.355 . S
C2790 C2792 1.415 . S
C2791 C2790 1.355 . S
C2791 C2793 1.419 . S
C2792 C2790 1.415 . S
C2792 C2797 1.425 . S
C2792 C2799 1.409 . S
C2793 H2785 0.930 . S
C2793 C2791 1.419 . S
C2793 C2794 1.362 . S
C2794 H2786 0.930 . S
C2794 C2793 1.362 . S
C2794 C2797 1.409 . S
C2795 H2787 0.930 . S
C2795 C2796 1.355 . S
C2795 C2797 1.415 . S
C2796 C2795 1.355 . S
C2796 C2798 1.419 . S
C2797 C2792 1.425 . S
C2797 C2794 1.409 . S
C2797 C2795 1.415 . S
C2798 H2788 0.930 . S
C2798 C2796 1.419 . S
C2798 C2799 1.362 . S
C2799 H2789 0.930 . S
C2799 C2792 1.409 . S
C2799 C2798 1.362 . S
H2800 C2806 0.930 . S
H2801 C2809 0.943 . S
H2802 C2810 0.930 . S
H2803 C2811 0.930 . S
H2804 C2814 0.930 . S
H2805 C2815 0.930 . S
C2806 H2800 0.930 . S
C2806 C2807 1.355 . S
C2806 C2808 1.415 . S
C2807 C2806 1.355 . S
C2807 C2809 1.419 . S
C2808 C2806 1.415 . S
C2808 C2813 1.425 . S
C2808 C2815 1.409 . S
C2809 H2801 0.943 . S
C2809 C2807 1.419 . S
C2809 C2810 1.362 . S
C2810 H2802 0.930 . S
C2810 C2809 1.362 . S
C2810 C2813 1.409 . S
C2811 H2803 0.930 . S
C2811 C2812 1.355 . S
C2811 C2813 1.415 . S
C2812 C2811 1.355 . S
C2812 C2814 1.419 . S
C2813 C2808 1.425 . S
C2813 C2810 1.409 . S
C2813 C2811 1.415 . S
C2814 H2804 0.930 . S
C2814 C2812 1.419 . S
C2814 C2815 1.362 . S
C2815 H2805 0.930 . S
C2815 C2808 1.409 . S
C2815 C2814 1.362 . S
H2816 C2822 0.930 . S
H2817 C2825 0.930 . S
H2818 C2826 0.930 . S
H2819 C2827 0.930 . S
H2820 C2830 0.930 . S
H2821 C2831 0.930 . S
C2822 H2816 0.930 . S
C2822 C2823 1.355 . S
C2822 C2824 1.415 . S
C2823 C2822 1.355 . S
C2823 C2825 1.419 . S
C2824 C2822 1.415 . S
C2824 C2829 1.425 . S
C2824 C2831 1.409 . S
C2825 H2817 0.930 . S
C2825 C2823 1.419 . S
C2825 C2826 1.362 . S
C2826 H2818 0.930 . S
C2826 C2825 1.362 . S
C2826 C2829 1.409 . S
C2827 H2819 0.930 . S
C2827 C2828 1.355 . S
C2827 C2829 1.415 . S
C2828 C2827 1.355 . S
C2828 C2830 1.419 . S
C2829 C2824 1.425 . S
C2829 C2826 1.409 . S
C2829 C2827 1.415 . S
C2830 H2820 0.930 . S
C2830 C2828 1.419 . S
C2830 C2831 1.362 . S
C2831 H2821 0.930 . S
C2831 C2824 1.409 . S
C2831 C2830 1.362 . S
H2832 C2838 0.930 . S
H2833 C2841 0.930 . S
H2834 C2842 0.930 . S
H2835 C2843 0.930 . S
H2836 C2846 0.930 . S
H2837 C2847 0.930 . S
C2838 H2832 0.930 . S
C2838 C2839 1.355 . S
C2838 C2840 1.415 . S
C2839 C2838 1.355 . S
C2839 C2841 1.419 . S
C2840 C2838 1.415 . S
C2840 C2845 1.425 . S
C2840 C2847 1.409 . S
C2841 H2833 0.930 . S
C2841 C2839 1.419 . S
C2841 C2842 1.362 . S
C2842 H2834 0.930 . S
C2842 C2841 1.362 . S
C2842 C2845 1.409 . S
C2843 H2835 0.930 . S
C2843 C2844 1.355 . S
C2843 C2845 1.415 . S
C2844 C2843 1.355 . S
C2844 C2846 1.419 . S
C2845 C2840 1.425 . S
C2845 C2842 1.409 . S
C2845 C2843 1.415 . S
C2846 H2836 0.930 . S
C2846 C2844 1.419 . S
C2846 C2847 1.362 . S
C2847 H2837 0.930 . S
C2847 C2840 1.409 . S
C2847 C2846 1.362 . S
H2848 C2854 0.930 . S
H2849 C2857 0.930 . S
H2850 C2858 0.930 . S
H2851 C2859 0.930 . S
H2852 C2862 0.930 . S
H2853 C2863 0.930 . S
C2854 H2848 0.930 . S
C2854 C2855 1.355 . S
C2854 C2856 1.415 . S
C2855 C2854 1.355 . S
C2855 C2857 1.419 . S
C2856 C2854 1.415 . S
C2856 C2861 1.425 . S
C2856 C2863 1.409 . S
C2857 H2849 0.930 . S
C2857 C2855 1.419 . S
C2857 C2858 1.362 . S
C2858 H2850 0.930 . S
C2858 C2857 1.362 . S
C2858 C2861 1.409 . S
C2859 H2851 0.930 . S
C2859 C2860 1.355 . S
C2859 C2861 1.415 . S
C2860 C2859 1.355 . S
C2860 C2862 1.419 . S
C2861 C2856 1.425 . S
C2861 C2858 1.409 . S
C2861 C2859 1.415 . S
C2862 H2852 0.930 . S
C2862 C2860 1.419 . S
C2862 C2863 1.362 . S
C2863 H2853 0.930 . S
C2863 C2856 1.409 . S
C2863 C2862 1.362 . S
H2864 C2870 0.930 . S
H2865 C2873 0.930 . S
H2866 C2874 0.930 . S
H2867 C2875 0.930 . S
H2868 C2878 0.930 . S
H2869 C2879 0.930 . S
C2870 H2864 0.930 . S
C2870 C2871 1.355 . S
C2870 C2872 1.415 . S
C2871 C2870 1.355 . S
C2871 C2873 1.419 . S
C2872 C2870 1.415 . S
C2872 C2877 1.425 . S
C2872 C2879 1.409 . S
C2873 H2865 0.930 . S
C2873 C2871 1.419 . S
C2873 C2874 1.362 . S
C2874 H2866 0.930 . S
C2874 C2873 1.362 . S
C2874 C2877 1.409 . S
C2875 H2867 0.930 . S
C2875 C2876 1.355 . S
C2875 C2877 1.415 . S
C2876 C2875 1.355 . S
C2876 C2878 1.419 . S
C2877 C2872 1.425 . S
C2877 C2874 1.409 . S
C2877 C2875 1.415 . S
C2878 H2868 0.930 . S
C2878 C2876 1.419 . S
C2878 C2879 1.362 . S
C2879 H2869 0.930 . S
C2879 C2872 1.409 . S
C2879 C2878 1.362 . S
H2880 C2886 0.930 . S
H2881 C2889 0.930 . S
H2882 C2890 0.930 . S
H2883 C2891 0.930 . S
H2884 C2894 0.930 1_556 S
H2885 C2895 0.930 1_556 S
C2886 H2880 0.930 . S
C2886 C2887 1.355 . S
C2886 C2888 1.415 . S
C2887 C2886 1.355 . S
C2887 C2889 1.419 . S
C2888 C2886 1.415 . S
C2888 C2893 1.425 . S
C2888 C2895 1.409 . S
C2889 H2881 0.930 . S
C2889 C2887 1.419 . S
C2889 C2890 1.362 . S
C2890 H2882 0.930 . S
C2890 C2889 1.362 . S
C2890 C2893 1.409 . S
C2891 H2883 0.930 . S
C2891 C2892 1.355 . S
C2891 C2893 1.415 . S
C2892 C2891 1.355 . S
C2892 C2894 1.419 . S
C2893 C2888 1.425 . S
C2893 C2890 1.409 . S
C2893 C2891 1.415 . S
C2894 H2884 0.930 1_554 S
C2894 C2892 1.419 . S
C2894 C2895 1.362 . S
C2895 H2885 0.930 1_554 S
C2895 C2888 1.409 . S
C2895 C2894 1.362 . S
H2896 C2902 0.930 . S
H2897 C2905 0.930 . S
H2898 C2906 0.930 . S
H2899 C2907 0.930 1_545 S
H2900 C2910 0.930 . S
H2901 C2911 0.930 . S
C2902 H2896 0.930 . S
C2902 C2903 1.355 . S
C2902 C2904 1.415 . S
C2903 C2902 1.355 . S
C2903 C2905 1.419 . S
C2904 C2902 1.415 . S
C2904 C2909 1.425 . S
C2904 C2911 1.409 . S
C2905 H2897 0.930 . S
C2905 C2903 1.419 . S
C2905 C2906 1.362 . S
C2906 H2898 0.930 . S
C2906 C2905 1.362 . S
C2906 C2909 1.409 . S
C2907 H2899 0.930 1_565 S
C2907 C2908 1.355 . S
C2907 C2909 1.415 . S
C2908 C2907 1.355 . S
C2908 C2910 1.419 . S
C2909 C2904 1.425 . S
C2909 C2906 1.409 . S
C2909 C2907 1.415 . S
C2910 H2900 0.930 . S
C2910 C2908 1.419 . S
C2910 C2911 1.362 . S
C2911 H2901 0.930 . S
C2911 C2904 1.409 . S
C2911 C2910 1.362 . S
H2912 C2918 0.930 . S
H2913 C2921 0.930 . S
H2914 C2922 0.930 . S
H2915 C2923 0.930 . S
H2916 C2926 0.930 1_556 S
H2917 C2927 0.930 1_556 S
C2918 H2912 0.930 . S
C2918 C2919 1.355 . S
C2918 C2920 1.415 . S
C2919 C2918 1.355 . S
C2919 C2921 1.419 . S
C2920 C2918 1.415 . S
C2920 C2925 1.425 . S
C2920 C2927 1.409 . S
C2921 H2913 0.930 . S
C2921 C2919 1.419 . S
C2921 C2922 1.362 . S
C2922 H2914 0.930 . S
C2922 C2921 1.362 . S
C2922 C2925 1.409 . S
C2923 H2915 0.930 . S
C2923 C2924 1.355 . S
C2923 C2925 1.415 . S
C2924 C2923 1.355 . S
C2924 C2926 1.419 . S
C2925 C2920 1.425 . S
C2925 C2922 1.409 . S
C2925 C2923 1.415 . S
C2926 H2916 0.930 1_554 S
C2926 C2924 1.419 . S
C2926 C2927 1.362 . S
C2927 H2917 0.930 1_554 S
C2927 C2920 1.409 . S
C2927 C2926 1.362 . S
H2928 C2934 0.930 . S
H2929 C2937 0.930 . S
H2930 C2938 0.930 . S
H2931 C2939 0.930 . S
H2932 C2942 0.930 . S
H2933 C2943 0.930 . S
C2934 H2928 0.930 . S
C2934 C2935 1.355 . S
C2934 C2936 1.415 . S
C2935 C2934 1.355 . S
C2935 C2937 1.419 . S
C2936 C2934 1.415 . S
C2936 C2941 1.425 . S
C2936 C2943 1.409 . S
C2937 H2929 0.930 . S
C2937 C2935 1.419 . S
C2937 C2938 1.362 . S
C2938 H2930 0.930 . S
C2938 C2937 1.362 . S
C2938 C2941 1.409 . S
C2939 H2931 0.930 . S
C2939 C2940 1.355 . S
C2939 C2941 1.415 . S
C2940 C2939 1.355 . S
C2940 C2942 1.419 . S
C2941 C2936 1.425 . S
C2941 C2938 1.409 . S
C2941 C2939 1.415 . S
C2942 H2932 0.930 . S
C2942 C2940 1.419 . S
C2942 C2943 1.362 . S
C2943 H2933 0.930 . S
C2943 C2936 1.409 . S
C2943 C2942 1.362 . S
H2944 C2950 0.930 . S
H2945 C2953 0.930 . S
H2946 C2954 0.930 . S
H2947 C2955 0.930 . S
H2948 C2958 0.930 . S
H2949 C2959 0.930 . S
C2950 H2944 0.930 . S
C2950 C2951 1.355 . S
C2950 C2952 1.415 . S
C2951 C2950 1.355 . S
C2951 C2953 1.419 . S
C2952 C2950 1.415 . S
C2952 C2957 1.425 . S
C2952 C2959 1.409 . S
C2953 H2945 0.930 . S
C2953 C2951 1.419 . S
C2953 C2954 1.362 . S
C2954 H2946 0.930 . S
C2954 C2953 1.362 . S
C2954 C2957 1.409 . S
C2955 H2947 0.930 . S
C2955 C2956 1.355 . S
C2955 C2957 1.415 . S
C2956 C2955 1.355 . S
C2956 C2958 1.419 . S
C2957 C2952 1.425 . S
C2957 C2954 1.409 . S
C2957 C2955 1.415 . S
C2958 H2948 0.930 . S
C2958 C2956 1.419 . S
C2958 C2959 1.362 . S
C2959 H2949 0.930 . S
C2959 C2952 1.409 . S
C2959 C2958 1.362 . S
H2960 C2966 0.930 . S
H2961 C2969 0.930 . S
H2962 C2970 0.930 . S
H2963 C2971 0.930 . S
H2964 C2974 0.930 . S
H2965 C2975 0.930 . S
C2966 H2960 0.930 . S
C2966 C2967 1.355 . S
C2966 C2968 1.415 . S
C2967 C2966 1.355 . S
C2967 C2969 1.419 . S
C2968 C2966 1.415 . S
C2968 C2973 1.425 . S
C2968 C2975 1.409 . S
C2969 H2961 0.930 . S
C2969 C2967 1.419 . S
C2969 C2970 1.362 . S
C2970 H2962 0.930 . S
C2970 C2969 1.362 . S
C2970 C2973 1.409 . S
C2971 H2963 0.930 . S
C2971 C2972 1.355 . S
C2971 C2973 1.415 . S
C2972 C2971 1.355 . S
C2972 C2974 1.419 . S
C2973 C2968 1.425 . S
C2973 C2970 1.409 . S
C2973 C2971 1.415 . S
C2974 H2964 0.930 . S
C2974 C2972 1.419 . S
C2974 C2975 1.362 . S
C2975 H2965 0.930 . S
C2975 C2968 1.409 . S
C2975 C2974 1.362 . S
H2976 C2982 0.930 . S
H2977 C2985 0.930 1_554 S
H2978 C2986 0.930 1_554 S
H2979 C2987 0.930 . S
H2980 C2990 0.930 . S
H2981 C2991 0.930 . S
C2982 H2976 0.930 . S
C2982 C2983 1.355 . S
C2982 C2984 1.415 . S
C2983 C2982 1.355 . S
C2983 C2985 1.419 . S
C2984 C2982 1.415 . S
C2984 C2989 1.425 . S
C2984 C2991 1.409 . S
C2985 H2977 0.930 1_556 S
C2985 C2983 1.419 . S
C2985 C2986 1.362 . S
C2986 H2978 0.930 1_556 S
C2986 C2985 1.362 . S
C2986 C2989 1.409 . S
C2987 H2979 0.930 . S
C2987 C2988 1.355 . S
C2987 C2989 1.415 . S
C2988 C2987 1.355 . S
C2988 C2990 1.419 . S
C2989 C2984 1.425 . S
C2989 C2986 1.409 . S
C2989 C2987 1.415 . S
C2990 H2980 0.930 . S
C2990 C2988 1.419 . S
C2990 C2991 1.362 . S
C2991 H2981 0.930 . S
C2991 C2984 1.409 . S
C2991 C2990 1.362 . S
H2992 C2998 0.930 . S
H2993 C3001 0.930 . S
H2994 C3002 0.930 1_565 S
H2995 C3003 0.930 . S
H2996 C3006 0.930 . S
H2997 C3007 0.930 . S
C2998 H2992 0.930 . S
C2998 C2999 1.355 . S
C2998 C3000 1.415 . S
C2999 C2998 1.355 . S
C2999 C3001 1.419 1_545 S
C3000 C2998 1.415 . S
C3000 C3005 1.425 . S
C3000 C3007 1.409 . S
C3001 H2993 0.930 . S
C3001 C2999 1.419 1_565 S
C3001 C3002 1.362 1_565 S
C3002 H2994 0.930 1_545 S
C3002 C3001 1.362 1_545 S
C3002 C3005 1.409 . S
C3003 H2995 0.930 . S
C3003 C3004 1.355 . S
C3003 C3005 1.415 . S
C3004 C3003 1.355 . S
C3004 C3006 1.419 . S
C3005 C3000 1.425 . S
C3005 C3002 1.409 . S
C3005 C3003 1.415 . S
C3006 H2996 0.930 . S
C3006 C3004 1.419 . S
C3006 C3007 1.362 . S
C3007 H2997 0.930 . S
C3007 C3000 1.409 . S
C3007 C3006 1.362 . S
H3008 C3014 0.930 . S
H3009 C3017 0.930 . S
H3010 C3018 0.930 . S
H3011 C3019 0.930 . S
H3012 C3022 0.971 . S
H3013 C3023 0.928 1_455 S
C3014 H3008 0.930 . S
C3014 C3015 1.355 . S
C3014 C3016 1.415 . S
C3015 C3014 1.355 . S
C3015 C3017 1.419 . S
C3016 C3014 1.415 . S
C3016 C3021 1.425 . S
C3016 C3023 1.409 . S
C3017 H3009 0.930 . S
C3017 C3015 1.419 . S
C3017 C3018 1.362 . S
C3018 H3010 0.930 . S
C3018 C3017 1.362 . S
C3018 C3021 1.409 . S
C3019 H3011 0.930 . S
C3019 C3020 1.355 . S
C3019 C3021 1.415 . S
C3020 C3019 1.355 . S
C3020 C3022 1.411 1_655 S
C3021 C3016 1.425 . S
C3021 C3018 1.409 . S
C3021 C3019 1.415 . S
C3022 H3012 0.971 . S
C3022 C3020 1.411 1_455 S
C3022 C3023 1.331 1_455 S
C3023 H3013 0.928 1_655 S
C3023 C3016 1.409 . S
C3023 C3022 1.331 1_655 S
H3024 C3030 0.930 . S
H3025 C3033 0.930 . S
H3026 C3034 0.930 . S
H3027 C3035 0.930 . S
H3028 C3038 0.930 . S
H3029 C3039 0.930 . S
C3030 H3024 0.930 . S
C3030 C3031 1.355 . S
C3030 C3032 1.415 . S
C3031 C3030 1.355 . S
C3031 C3033 1.419 . S
C3032 C3030 1.415 . S
C3032 C3037 1.425 . S
C3032 C3039 1.409 . S
C3033 H3025 0.930 . S
C3033 C3031 1.419 . S
C3033 C3034 1.362 . S
C3034 H3026 0.930 . S
C3034 C3033 1.362 . S
C3034 C3037 1.409 . S
C3035 H3027 0.930 . S
C3035 C3036 1.355 . S
C3035 C3037 1.415 . S
C3036 C3035 1.355 . S
C3036 C3038 1.419 . S
C3037 C3032 1.425 . S
C3037 C3034 1.409 . S
C3037 C3035 1.415 . S
C3038 H3028 0.930 . S
C3038 C3036 1.419 . S
C3038 C3039 1.362 . S
C3039 H3029 0.930 . S
C3039 C3032 1.409 . S
C3039 C3038 1.362 . S
H3040 C3046 0.930 . S
H3041 C3049 0.930 . S
H3042 C3050 0.955 . S
H3043 C3051 0.930 1_545 S
H3044 C3054 0.930 . S
H3045 C3055 0.930 . S
C3046 H3040 0.930 . S
C3046 C3047 1.355 . S
C3046 C3048 1.415 . S
C3047 C3046 1.355 . S
C3047 C3049 1.419 . S
C3048 C3046 1.415 . S
C3048 C3053 1.425 . S
C3048 C3055 1.409 . S
C3049 H3041 0.930 . S
C3049 C3047 1.419 . S
C3049 C3050 1.362 . S
C3050 H3042 0.955 . S
C3050 C3049 1.362 . S
C3050 C3053 1.409 . S
C3051 H3043 0.930 1_565 S
C3051 C3052 1.355 . S
C3051 C3053 1.415 . S
C3052 C3051 1.355 . S
C3052 C3054 1.419 . S
C3053 C3048 1.425 . S
C3053 C3050 1.409 . S
C3053 C3051 1.415 . S
C3054 H3044 0.930 . S
C3054 C3052 1.419 . S
C3054 C3055 1.362 . S
C3055 H3045 0.930 . S
C3055 C3048 1.409 . S
C3055 C3054 1.362 . S
H3056 C3062 0.930 . S
H3057 C3065 0.930 . S
H3058 C3066 0.930 . S
H3059 C3067 0.930 1_655 S
H3060 C3070 0.930 . S
H3061 C3071 0.930 . S
C3062 H3056 0.930 . S
C3062 C3063 1.355 . S
C3062 C3064 1.415 . S
C3063 C3062 1.355 . S
C3063 C3065 1.419 . S
C3064 C3062 1.415 . S
C3064 C3069 1.425 . S
C3064 C3071 1.409 . S
C3065 H3057 0.930 . S
C3065 C3063 1.419 . S
C3065 C3066 1.362 . S
C3066 H3058 0.930 . S
C3066 C3065 1.362 . S
C3066 C3069 1.409 . S
C3067 H3059 0.930 1_455 S
C3067 C3068 1.355 . S
C3067 C3069 1.415 . S
C3068 C3067 1.355 . S
C3068 C3070 1.419 . S
C3069 C3064 1.425 . S
C3069 C3066 1.409 . S
C3069 C3067 1.415 . S
C3070 H3060 0.930 . S
C3070 C3068 1.419 . S
C3070 C3071 1.362 . S
C3071 H3061 0.930 . S
C3071 C3064 1.409 . S
C3071 C3070 1.362 . S
H3072 C3078 0.930 . S
H3073 C3081 0.930 . S
H3074 C3082 0.930 . S
H3075 C3083 0.930 . S
H3076 C3086 0.930 . S
H3077 C3087 0.930 . S
C3078 H3072 0.930 . S
C3078 C3079 1.355 . S
C3078 C3080 1.415 . S
C3079 C3078 1.355 . S
C3079 C3081 1.419 . S
C3080 C3078 1.415 . S
C3080 C3085 1.425 1_655 S
C3080 C3087 1.409 1_655 S
C3081 H3073 0.930 . S
C3081 C3079 1.419 . S
C3081 C3082 1.362 . S
C3082 H3074 0.930 . S
C3082 C3081 1.362 . S
C3082 C3085 1.409 1_655 S
C3083 H3075 0.930 . S
C3083 C3084 1.355 . S
C3083 C3085 1.415 . S
C3084 C3083 1.355 . S
C3084 C3086 1.419 . S
C3085 C3080 1.425 1_455 S
C3085 C3082 1.409 1_455 S
C3085 C3083 1.415 . S
C3086 H3076 0.930 . S
C3086 C3084 1.419 . S
C3086 C3087 1.362 . S
C3087 H3077 0.930 . S
C3087 C3080 1.409 1_455 S
C3087 C3086 1.362 . S
H3088 C3094 0.930 . S
H3089 C3097 0.930 . S
H3090 C3098 0.930 . S
H3091 C3099 0.930 . S
H3092 C3102 0.930 . S
H3093 C3103 0.930 . S
C3094 H3088 0.930 . S
C3094 C3095 1.355 . S
C3094 C3096 1.415 . S
C3095 C3094 1.355 . S
C3095 C3097 1.419 . S
C3096 C3094 1.415 . S
C3096 C3101 1.425 . S
C3096 C3103 1.409 . S
C3097 H3089 0.930 . S
C3097 C3095 1.419 . S
C3097 C3098 1.362 . S
C3098 H3090 0.930 . S
C3098 C3097 1.362 . S
C3098 C3101 1.409 . S
C3099 H3091 0.930 . S
C3099 C3100 1.355 . S
C3099 C3101 1.415 . S
C3100 C3099 1.355 . S
C3100 C3102 1.419 . S
C3101 C3096 1.425 . S
C3101 C3098 1.409 . S
C3101 C3099 1.415 . S
C3102 H3092 0.930 . S
C3102 C3100 1.419 . S
C3102 C3103 1.362 . S
C3103 H3093 0.930 . S
C3103 C3096 1.409 . S
C3103 C3102 1.362 . S
H3104 C3110 0.930 . S
H3105 C3113 0.930 . S
H3106 C3114 0.930 . S
H3107 C3115 0.930 . S
H3108 C3118 0.930 . S
H3109 C3119 0.930 . S
C3110 H3104 0.930 . S
C3110 C3111 1.355 . S
C3110 C3112 1.415 . S
C3111 C3110 1.355 . S
C3111 C3113 1.419 . S
C3112 C3110 1.415 . S
C3112 C3117 1.425 1_545 S
C3112 C3119 1.409 1_545 S
C3113 H3105 0.930 . S
C3113 C3111 1.419 . S
C3113 C3114 1.362 . S
C3114 H3106 0.930 . S
C3114 C3113 1.362 . S
C3114 C3117 1.409 1_545 S
C3115 H3107 0.930 . S
C3115 C3116 1.355 . S
C3115 C3117 1.415 . S
C3116 C3115 1.355 . S
C3116 C3118 1.419 . S
C3117 C3112 1.425 1_565 S
C3117 C3114 1.409 1_565 S
C3117 C3115 1.415 . S
C3118 H3108 0.930 . S
C3118 C3116 1.419 . S
C3118 C3119 1.362 . S
C3119 H3109 0.930 . S
C3119 C3112 1.409 1_565 S
C3119 C3118 1.362 . S
H3120 C3126 0.930 . S
H3121 C3129 0.930 . S
H3122 C3130 0.930 . S
H3123 C3131 0.930 . S
H3124 C3134 0.930 . S
H3125 C3135 0.930 . S
C3126 H3120 0.930 . S
C3126 C3127 1.355 . S
C3126 C3128 1.415 . S
C3127 C3126 1.355 . S
C3127 C3129 1.419 . S
C3128 C3126 1.415 . S
C3128 C3133 1.425 1_545 S
C3128 C3135 1.409 1_545 S
C3129 H3121 0.930 . S
C3129 C3127 1.419 . S
C3129 C3130 1.362 . S
C3130 H3122 0.930 . S
C3130 C3129 1.362 . S
C3130 C3133 1.409 1_545 S
C3131 H3123 0.930 . S
C3131 C3132 1.355 . S
C3131 C3133 1.415 . S
C3132 C3131 1.355 . S
C3132 C3134 1.419 . S
C3133 C3128 1.425 1_565 S
C3133 C3130 1.409 1_565 S
C3133 C3131 1.415 . S
C3134 H3124 0.930 . S
C3134 C3132 1.419 . S
C3134 C3135 1.362 . S
C3135 H3125 0.930 . S
C3135 C3128 1.409 1_565 S
C3135 C3134 1.362 . S
H3136 C3142 0.930 . S
H3137 C3145 0.930 . S
H3138 C3146 0.981 . S
H3139 C3147 0.930 . S
H3140 C3150 0.930 . S
H3141 C3151 0.981 . S
C3142 H3136 0.930 . S
C3142 C3143 1.355 . S
C3142 C3144 1.415 . S
C3143 C3142 1.355 . S
C3143 C3145 1.419 . S
C3144 C3142 1.415 . S
C3144 C3149 1.425 1_655 S
C3144 C3151 1.409 1_655 S
C3145 H3137 0.930 . S
C3145 C3143 1.419 . S
C3145 C3146 1.362 . S
C3146 H3138 0.981 . S
C3146 C3145 1.362 . S
C3146 C3149 1.409 1_655 S
C3147 H3139 0.930 . S
C3147 C3148 1.355 . S
C3147 C3149 1.415 . S
C3148 C3147 1.355 . S
C3148 C3150 1.419 . S
C3149 C3144 1.425 1_455 S
C3149 C3146 1.409 1_455 S
C3149 C3147 1.415 . S
C3150 H3140 0.930 . S
C3150 C3148 1.419 . S
C3150 C3151 1.362 . S
C3151 H3141 0.981 . S
C3151 C3144 1.409 1_455 S
C3151 C3150 1.362 . S
H3152 C3158 0.930 . S
H3153 C3161 0.930 . S
H3154 C3162 0.930 . S
H3155 C3163 0.930 . S
H3156 C3166 0.930 . S
H3157 C3167 0.930 . S
C3158 H3152 0.930 . S
C3158 C3159 1.355 . S
C3158 C3160 1.415 . S
C3159 C3158 1.355 . S
C3159 C3161 1.419 . S
C3160 C3158 1.415 . S
C3160 C3165 1.425 . S
C3160 C3167 1.409 . S
C3161 H3153 0.930 . S
C3161 C3159 1.419 . S
C3161 C3162 1.362 . S
C3162 H3154 0.930 . S
C3162 C3161 1.362 . S
C3162 C3165 1.409 . S
C3163 H3155 0.930 . S
C3163 C3164 1.355 . S
C3163 C3165 1.415 . S
C3164 C3163 1.355 . S
C3164 C3166 1.419 . S
C3165 C3160 1.425 . S
C3165 C3162 1.409 . S
C3165 C3163 1.415 . S
C3166 H3156 0.930 . S
C3166 C3164 1.419 . S
C3166 C3167 1.362 . S
C3167 H3157 0.930 . S
C3167 C3160 1.409 . S
C3167 C3166 1.362 . S
C1447 C6 1.950 . S
C1452 C290 1.978 . S
C1463 C330 1.950 . S
C1468 C46 1.945 . S
C1479 C250 1.973 . S
C1484 C86 1.938 . S
C1495 C450 1.949 . S
C1500 C126 1.939 . S
C1511 C166 1.965 . S
C1516 C370 1.968 . S
C1527 C206 1.966 . S
C1532 C410 1.971 . S
C1543 C59 1.955 . S
C1548 C255 1.925 . S
C1559 C295 1.926 . S
C1564 C99 1.961 . S
C1575 C19 1.971 . S
C1580 C335 1.935 . S
C1591 C219 1.952 . S
C1596 C375 1.927 . S
C1607 C415 1.927 . S
C1612 C139 1.951 . S
C1623 C455 1.966 . S
C1628 C179 1.970 . S
C1639 C486 1.965 . S
C1644 C770 1.968 . S
C1655 C810 1.953 . S
C1660 C526 1.925 . S
C1671 C730 1.971 . S
C1676 C566 1.966 . S
C1687 C606 1.925 . S
C1692 C930 1.958 . S
C1703 C850 1.976 . S
C1708 C646 1.944 . S
C1719 C686 1.962 . S
C1724 C890 1.963 . S
C1735 C735 1.964 . S
C1740 C539 1.975 . S
C1751 C579 1.976 . S
C1756 C775 1.963 . S
C1767 C815 1.926 . S
C1772 C499 1.961 . S
C1783 C699 1.955 . S
C1788 C855 1.953 . S
C1799 C619 1.976 . S
C1804 C895 1.946 . S
C1815 C935 1.931 . S
C1820 C659 1.967 . S
C1831 C966 1.937 . S
C1836 C1250 1.949 . S
C1847 C1006 1.946 . S
C1852 C1290 1.951 . S
C1863 C1210 1.949 . S
C1868 C1046 1.938 . S
C1879 C1410 1.955 . S
C1884 C1086 1.925 . S
C1895 C1126 1.934 . S
C1900 C1330 1.949 . S
C1911 C1370 1.978 . S
C1916 C1166 1.953 . S
C1927 C1019 1.949 . S
C1932 C1215 1.932 . S
C1943 C1255 1.945 . S
C1948 C1059 1.951 . S
C1959 C979 1.956 . S
C1964 C1295 1.925 . S
C1975 C1335 1.941 . S
C1980 C1179 1.949 . S
C1991 C1375 1.925 . S
C1996 C1099 1.957 . S
C2007 C1415 1.953 . S
C2012 C1139 1.978 . S
C2023 C10 2.293 . S
C2028 C739 2.293 . S
C2039 C50 2.268 . S
C2044 C779 2.268 . S
C2055 C819 2.265 . S
C2060 C90 2.265 . S
C2071 C1339 2.277 . S
C2076 C130 2.277 . S
C2087 C1379 2.258 . S
C2092 C170 2.258 . S
C2103 C1419 2.285 . S
C2108 C210 2.285 . S
C2119 C259 2.259 . S
C2124 C970 2.259 . S
C2135 C1010 2.269 . S
C2140 C299 2.269 . S
C2151 C339 2.295 . S
C2156 C1050 2.295 . S
C2167 C379 2.264 . S
C2172 C610 2.264 . S
C2183 C419 2.260 . S
C2188 C650 2.260 . S
C2199 C459 2.274 . S
C2204 C690 2.274 . S
C2215 C490 2.301 . S
C2220 C1219 2.301 . S
C2231 C1259 2.258 . S
C2236 C530 2.258 . S
C2247 C570 2.269 . S
C2252 C1299 2.269 . S
C2263 C1090 2.270 . S
C2268 C859 2.270 . S
C2279 C899 2.295 . S
C2284 C1130 2.295 . S
C2295 C1170 2.294 . S
C2300 C939 2.294 . S
C2311 C18 2.309 1_556 S
C2316 C658 2.315 . S
C2327 C58 2.285 1_556 S
C2332 C698 2.249 . S
C2343 C618 2.318 . S
C2348 C98 2.301 1_556 S
C2359 C138 2.243 . S
C2364 C1058 2.249 . S
C2375 C978 2.271 . S
C2380 C178 2.242 . S
C2391 C218 2.314 . S
C2396 C1018 2.281 . S
C2407 C1369 2.318 . S
C2412 C249 2.295 1_554 S
C2423 C289 2.318 1_554 S
C2428 C1409 2.305 . S
C2439 C1329 2.314 . S
C2444 C329 2.282 1_554 S
C2455 C369 2.258 . S
C2460 C809 2.241 . S
C2471 C409 2.311 . S
C2476 C729 2.276 . S
C2487 C449 2.315 . S
C2492 C769 2.283 . S
C2503 C1138 2.243 . S
C2508 C498 2.249 . S
C2519 C538 2.286 . S
C2524 C1178 2.249 . S
C2535 C578 2.318 . S
C2540 C1098 2.295 . S
C2551 C1289 2.261 . S
C2556 C849 2.300 . S
C2567 C1209 2.274 . S
C2572 C889 2.243 . S
C2583 C1249 2.281 . S
C2588 C929 2.314 . S
C2599 C129 2.825 . S
C2604 C9 2.812 . S
C2615 C49 2.802 . S
C2620 C169 2.809 . S
C2631 C89 2.845 . S
C2636 C209 2.849 . S
C2647 C378 2.845 . S
C2652 C258 2.835 . S
C2663 C298 2.822 . S
C2668 C418 2.835 . S
C2679 C458 2.840 . S
C2684 C338 2.847 . S
C2695 C609 2.846 . S
C2700 C489 2.848 . S
C2711 C529 2.806 . S
C2716 C649 2.802 . S
C2727 C569 2.842 . S
C2732 C689 2.848 . S
C2743 C738 2.845 . S
C2748 C858 2.848 1_554 S
C2759 C778 2.845 . S
C2764 C898 2.849 1_554 S
C2775 C818 2.821 . S
C2780 C938 2.809 1_554 S
C2791 C969 2.833 . S
C2796 C1089 2.820 1_556 S
C2807 C1129 2.811 1_556 S
C2812 C1009 2.823 . S
C2823 C1169 2.844 1_556 S
C2828 C1049 2.833 . S
C2839 C1218 2.827 . S
C2844 C1338 2.814 . S
C2855 C1378 2.847 . S
C2860 C1258 2.839 . S
C2871 C1298 2.832 . S
C2876 C1418 2.843 . S
C2887 C15 0.365 . S
C2892 C1175 0.432 . S
C2903 C1095 0.182 . S
C2908 C55 0.335 . S
C2919 C95 0.396 . S
C2924 C1135 0.414 . S
C2935 C535 0.176 . S
C2940 C135 0.361 . S
C2951 C175 0.294 . S
C2956 C575 0.208 . S
C2967 C215 0.387 . S
C2972 C495 0.421 . S
C2983 C926 0.439 . S
C2988 C246 0.341 . S
C2999 C286 0.293 . S
C3004 C846 0.442 . S
C3015 C886 0.305 . S
C3020 C326 0.200 . S
C3031 C366 0.320 . S
C3036 C1246 0.442 . S
C3047 C1286 0.226 . S
C3052 C406 0.424 . S
C3063 C1206 0.372 . S
C3068 C446 0.429 . S
C3079 C615 0.210 . S
C3084 C1015 0.291 . S
C3095 C655 0.442 . S
C3100 C1055 0.308 . S
C3111 C695 0.442 . S
C3116 C975 0.305 . S
C3127 C726 0.397 . S
C3132 C1406 0.189 . S
C3143 C766 0.331 . S
C3148 C1326 0.441 . S
C3159 C1366 0.324 . S
C3164 C806 0.442 . S
