# Generated by pormake.
# Topology atn, (4)-cn, num edge types: 1
# Building blocks:
#     Node 0, Type 0, BuildingBlock: AZAVOO_clean_sbu_0, # of connection points: 4
#     Node 1, Type 0, BuildingBlock: AZAVOO_clean_sbu_0, # of connection points: 4
#     Node 2, Type 0, BuildingBlock: AZAVOO_clean_sbu_0, # of connection points: 4
#     Node 3, Type 0, BuildingBlock: AZAVOO_clean_sbu_0, # of connection points: 4
#     Node 4, Type 0, BuildingBlock: AZAVOO_clean_sbu_0, # of connection points: 4
#     Node 5, Type 0, BuildingBlock: AZAVOO_clean_sbu_0, # of connection points: 4
#     Node 6, Type 0, BuildingBlock: AZAVOO_clean_sbu_0, # of connection points: 4
#     Node 7, Type 0, BuildingBlock: AZAVOO_clean_sbu_0, # of connection points: 4
#     Node 8, Type 0, BuildingBlock: AZAVOO_clean_sbu_0, # of connection points: 4
#     Node 9, Type 0, BuildingBlock: AZAVOO_clean_sbu_0, # of connection points: 4
#     Node 10, Type 0, BuildingBlock: AZAVOO_clean_sbu_0, # of connection points: 4
#     Node 11, Type 0, BuildingBlock: AZAVOO_clean_sbu_0, # of connection points: 4
#     Node 12, Type 0, BuildingBlock: AZAVOO_clean_sbu_0, # of connection points: 4
#     Node 13, Type 0, BuildingBlock: AZAVOO_clean_sbu_0, # of connection points: 4
#     Node 14, Type 0, BuildingBlock: AZAVOO_clean_sbu_0, # of connection points: 4
#     Node 15, Type 0, BuildingBlock: AZAVOO_clean_sbu_0, # of connection points: 4
#     Edge 16, Type (0, 0), BuildingBlock: XIVTED_clean_linker_0, # of connection points: 2
#     Edge 17, Type (0, 0), BuildingBlock: XIVTED_clean_linker_0, # of connection points: 2
#     Edge 18, Type (0, 0), BuildingBlock: XIVTED_clean_linker_0, # of connection points: 2
#     Edge 19, Type (0, 0), BuildingBlock: XIVTED_clean_linker_0, # of connection points: 2
#     Edge 20, Type (0, 0), BuildingBlock: XIVTED_clean_linker_0, # of connection points: 2
#     Edge 21, Type (0, 0), BuildingBlock: XIVTED_clean_linker_0, # of connection points: 2
#     Edge 22, Type (0, 0), BuildingBlock: XIVTED_clean_linker_0, # of connection points: 2
#     Edge 23, Type (0, 0), BuildingBlock: XIVTED_clean_linker_0, # of connection points: 2
#     Edge 24, Type (0, 0), BuildingBlock: XIVTED_clean_linker_0, # of connection points: 2
#     Edge 25, Type (0, 0), BuildingBlock: XIVTED_clean_linker_0, # of connection points: 2
#     Edge 26, Type (0, 0), BuildingBlock: XIVTED_clean_linker_0, # of connection points: 2
#     Edge 27, Type (0, 0), BuildingBlock: XIVTED_clean_linker_0, # of connection points: 2
#     Edge 28, Type (0, 0), BuildingBlock: XIVTED_clean_linker_0, # of connection points: 2
#     Edge 29, Type (0, 0), BuildingBlock: XIVTED_clean_linker_0, # of connection points: 2
#     Edge 30, Type (0, 0), BuildingBlock: XIVTED_clean_linker_0, # of connection points: 2
#     Edge 31, Type (0, 0), BuildingBlock: XIVTED_clean_linker_0, # of connection points: 2
#     Edge 32, Type (0, 0), BuildingBlock: XIVTED_clean_linker_0, # of connection points: 2
#     Edge 33, Type (0, 0), BuildingBlock: XIVTED_clean_linker_0, # of connection points: 2
#     Edge 34, Type (0, 0), BuildingBlock: XIVTED_clean_linker_0, # of connection points: 2
#     Edge 35, Type (0, 0), BuildingBlock: XIVTED_clean_linker_0, # of connection points: 2
#     Edge 36, Type (0, 0), BuildingBlock: XIVTED_clean_linker_0, # of connection points: 2
#     Edge 37, Type (0, 0), BuildingBlock: XIVTED_clean_linker_0, # of connection points: 2
#     Edge 38, Type (0, 0), BuildingBlock: XIVTED_clean_linker_0, # of connection points: 2
#     Edge 39, Type (0, 0), BuildingBlock: XIVTED_clean_linker_0, # of connection points: 2
#     Edge 40, Type (0, 0), BuildingBlock: XIVTED_clean_linker_0, # of connection points: 2
#     Edge 41, Type (0, 0), BuildingBlock: XIVTED_clean_linker_0, # of connection points: 2
#     Edge 42, Type (0, 0), BuildingBlock: XIVTED_clean_linker_0, # of connection points: 2
#     Edge 43, Type (0, 0), BuildingBlock: XIVTED_clean_linker_0, # of connection points: 2
#     Edge 44, Type (0, 0), BuildingBlock: XIVTED_clean_linker_0, # of connection points: 2
#     Edge 45, Type (0, 0), BuildingBlock: XIVTED_clean_linker_0, # of connection points: 2
#     Edge 46, Type (0, 0), BuildingBlock: XIVTED_clean_linker_0, # of connection points: 2
#     Edge 47, Type (0, 0), BuildingBlock: XIVTED_clean_linker_0, # of connection points: 2
# Relax obj value: 0.125
# Max RMSD: 0.132
# Mean RMSD: 0.132
data_MOF--net-atn--node1-AZAVOO_clean_sbu_0--edge1-XIVTED_clean_linker_0
_symmetry_space_group_name_H-M    P1
_symmetry_Int_Tables_number       1
_symmetry_cell_setting            triclinic
loop_
_symmetry_equiv_pos_as_xyz
'x, y, z'
_cell_length_a     60.982963
_cell_length_b     61.031448
_cell_length_c     26.531974
_cell_angle_alpha  90.048179
_cell_angle_beta   90.018212
_cell_angle_gamma 90.01828
loop_
_atom_site_label
_atom_site_type_symbol
_atom_site_fract_x
_atom_site_fract_y
_atom_site_fract_z
_atom_type_partial_charge
Mg0 Mg 0.19723 0.38063 0.98454 0.0
O1 O 0.2256 0.35598 0.98342 0.0
O2 O 0.24172 0.3583 0.90792 0.0
Mg3 Mg 0.22485 0.38471 0.86161 0.0
C4 C 0.24011 0.34983 0.95172 0.0
C5 C 0.1721 0.36816 0.07718 0.0
O6 O 0.15804 0.36779 0.03969 0.0
O7 O 0.2215 0.40876 -0.0044 0.0
O8 O 0.23581 0.41081 0.91806 0.0
O9 O 0.17544 0.35577 0.94938 0.0
O10 O 0.19519 0.3796 0.90628 0.0
C11 C 0.23419 0.41781 0.9633 0.0
C12 C 0.18213 0.36307 0.90636 0.0
O13 O 0.19166 0.37445 0.06858 0.0
Mg14 Mg 0.60905 0.20061 0.99287 0.0
O15 O 0.63568 0.22687 0.98835 0.0
O16 O 0.63441 0.2423 0.91211 0.0
Mg17 Mg 0.60683 0.22615 0.86754 0.0
C18 C 0.64278 0.24059 0.956 0.0
C19 C 0.61796 0.17703 0.09031 0.0
O20 O 0.61398 0.16157 0.05705 0.0
O21 O 0.58289 0.22717 0.0016 0.0
O22 O 0.58141 0.23981 0.92246 0.0
O23 O 0.63178 0.17602 0.95944 0.0
O24 O 0.60938 0.19697 0.91517 0.0
C25 C 0.57447 0.2396 0.96789 0.0
C26 C 0.62464 0.18247 0.91599 0.0
O27 O 0.61576 0.19692 0.07692 0.0
Mg28 Mg 0.79385 0.60484 0.98749 0.0
O29 O 0.76777 0.6316 0.98061 0.0
O30 O 0.75282 0.63 0.90383 0.0
Mg31 Mg 0.76898 0.60189 0.86124 0.0
C32 C 0.75432 0.63862 0.94752 0.0
C33 C 0.802 0.63171 0.08266 0.0
O34 O 0.80208 0.64639 0.04647 0.0
O35 O 0.76675 0.57926 -0.00362 0.0
O36 O 0.7544 0.57737 0.91699 0.0
O37 O 0.81908 0.62681 0.95411 0.0
O38 O 0.79788 0.60457 0.90989 0.0
C39 C 0.75422 0.57088 0.96276 0.0
C40 C 0.81258 0.61966 0.91069 0.0
O41 O 0.79743 0.61191 0.07168 0.0
Mg42 Mg 0.38323 0.79217 -0.00281 0.0
O43 O 0.35746 0.76512 0.98917 0.0
O44 O 0.36052 0.7504 0.91234 0.0
Mg45 Mg 0.38842 0.76756 0.87118 0.0
C46 C 0.35133 0.75148 0.95547 0.0
C47 C 0.37293 0.81532 0.09426 0.0
O48 O 0.37757 0.83076 0.06147 0.0
O49 O 0.41002 0.76632 0.00756 0.0
O50 O 0.41307 0.75419 0.92821 0.0
O51 O 0.36036 0.81629 0.96255 0.0
O52 O 0.38408 0.79629 0.91957 0.0
C53 C 0.41927 0.75428 0.97421 0.0
C54 C 0.36835 0.81029 0.91954 0.0
O55 O 0.37509 0.79542 0.0808 0.0
Mg56 Mg 0.19524 0.60862 0.00037 0.0
O57 O 0.22309 0.6337 0.00649 0.0
O58 O 0.23797 0.63058 0.08316 0.0
Mg59 Mg 0.22027 0.60347 0.12578 0.0
C60 C 0.23701 0.63958 0.03983 0.0
C61 C 0.17385 0.60881 0.89736 0.0
O62 O 0.161 0.5963 0.92478 0.0
O63 O 0.22028 0.58115 0.99032 0.0
O64 O 0.23277 0.57808 0.06936 0.0
O65 O 0.17197 0.63248 0.0343 0.0
O66 O 0.19152 0.60859 0.07792 0.0
C67 C 0.23225 0.57173 0.02348 0.0
C68 C 0.17811 0.62484 0.07755 0.0
O69 O 0.19162 0.61575 0.91663 0.0
Mg70 Mg 0.38681 0.19783 -0.00367 0.0
O71 O 0.36036 0.22414 0.0042 0.0
O72 O 0.3627 0.23912 0.08086 0.0
Mg73 Mg 0.39104 0.22278 0.12227 0.0
C74 C 0.35372 0.23767 0.03757 0.0
C75 C 0.37616 0.17465 0.89899 0.0
O76 O 0.38067 0.15905 0.93149 0.0
O77 O 0.41281 0.22449 0.986 0.0
O78 O 0.41524 0.23691 0.06525 0.0
O79 O 0.36455 0.17318 0.03107 0.0
O80 O 0.38775 0.19384 0.074 0.0
C81 C 0.42152 0.23696 0.01932 0.0
C82 C 0.37234 0.17949 0.07407 0.0
O83 O 0.37859 0.19448 0.91272 0.0
Mg84 Mg 0.79495 0.38671 0.00828 0.0
O85 O 0.7689 0.35994 0.01495 0.0
O86 O 0.7533 0.36176 0.09097 0.0
Mg87 Mg 0.76891 0.39029 0.13324 0.0
C88 C 0.75522 0.35296 0.04757 0.0
C89 C 0.80351 0.35898 0.91447 0.0
O90 O 0.80319 0.34459 0.95127 0.0
O91 O 0.76783 0.41209 -0.00286 0.0
O92 O 0.75467 0.41428 0.07579 0.0
O93 O 0.81988 0.36505 0.04372 0.0
O94 O 0.79829 0.38752 0.08616 0.0
C95 C 0.75489 0.42052 0.02983 0.0
C96 C 0.81298 0.37245 0.08658 0.0
O97 O 0.7992 0.37893 0.92449 0.0
Mg98 Mg 0.60846 0.79159 -0.0012 0.0
O99 O 0.63441 0.76465 0.00355 0.0
O100 O 0.63307 0.74964 0.08024 0.0
Mg101 Mg 0.60588 0.76647 0.12455 0.0
C102 C 0.64134 0.75096 0.03619 0.0
C103 C 0.61786 0.81458 0.90082 0.0
O104 O 0.6143 0.83027 0.93377 0.0
O105 O 0.5815 0.76574 0.99076 0.0
O106 O 0.58017 0.75313 0.06992 0.0
O107 O 0.63205 0.81558 0.03156 0.0
O108 O 0.60912 0.79546 0.07648 0.0
C109 C 0.57303 0.75343 0.02465 0.0
C110 C 0.62491 0.8094 0.07521 0.0
O111 O 0.61514 0.79481 0.91462 0.0
Mg112 Mg 0.6998 0.88193 0.47952 0.0
O113 O 0.72741 0.85658 0.47602 0.0
O114 O 0.7453 0.86117 0.40309 0.0
Mg115 Mg 0.72761 0.88724 0.35716 0.0
C116 C 0.74278 0.85163 0.44545 0.0
C117 C 0.69046 0.85515 0.57461 0.0
O118 O 0.69158 0.84017 0.53912 0.0
O119 O 0.72488 0.90924 0.49213 0.0
O120 O 0.73877 0.91284 0.41447 0.0
O121 O 0.67684 0.85853 0.44347 0.0
O122 O 0.69774 0.88183 0.40148 0.0
C123 C 0.73741 0.9189 0.46045 0.0
C124 C 0.68392 0.8659 0.40075 0.0
O125 O 0.69461 0.87499 0.56326 0.0
Mg126 Mg 0.11008 0.70044 0.48456 0.0
O127 O 0.13565 0.72783 0.48372 0.0
O128 O 0.13128 0.74654 0.41184 0.0
Mg129 Mg 0.10572 0.72921 0.36345 0.0
C130 C 0.14065 0.74357 0.45426 0.0
C131 C 0.11193 0.67514 0.58232 0.0
O132 O 0.10207 0.66189 0.55049 0.0
O133 O 0.08266 0.72541 0.49716 0.0
O134 O 0.07938 0.7395 0.4196 0.0
O135 O 0.1337 0.67773 0.4484 0.0
O136 O 0.11066 0.69902 0.40667 0.0
C137 C 0.07299 0.73783 0.46527 0.0
C138 C 0.12648 0.6851 0.40577 0.0
O139 O 0.11651 0.69447 0.56794 0.0
Mg140 Mg 0.29448 0.10834 0.47708 0.0
O141 O 0.26751 0.13424 0.47144 0.0
O142 O 0.2515 0.13168 0.39592 0.0
Mg143 Mg 0.26811 0.10402 0.3526 0.0
C144 C 0.25333 0.14059 0.43923 0.0
C145 C 0.303 0.13563 0.57203 0.0
O146 O 0.30216 0.15041 0.53612 0.0
O147 O 0.26835 0.08198 0.48823 0.0
O148 O 0.25518 0.07913 0.40966 0.0
O149 O 0.31867 0.13081 0.44147 0.0
O150 O 0.29751 0.10783 0.39924 0.0
C151 C 0.2558 0.0729 0.45561 0.0
C152 C 0.31193 0.12318 0.39867 0.0
O153 O 0.29894 0.11572 0.561 0.0
Mg154 Mg 0.88173 0.29174 0.48902 0.0
O155 O 0.8552 0.26535 0.48384 0.0
O156 O 0.85717 0.24963 0.4079 0.0
Mg157 Mg 0.88501 0.2657 0.36418 0.0
C158 C 0.84844 0.25145 0.4514 0.0
C159 C 0.87252 0.31596 0.58563 0.0
O160 O 0.87697 0.33116 0.55211 0.0
O161 O 0.90785 0.26525 0.49942 0.0
O162 O 0.90993 0.25231 0.42055 0.0
O163 O 0.85936 0.31624 0.45394 0.0
O164 O 0.88209 0.29503 0.41122 0.0
C165 C 0.91652 0.25269 0.46627 0.0
C166 C 0.86693 0.30963 0.41098 0.0
O167 O 0.8744 0.29596 0.57276 0.0
Mg168 Mg 0.69629 0.10632 0.51211 0.0
O169 O 0.72322 0.13229 0.51772 0.0
O170 O 0.73911 0.12993 0.59339 0.0
Mg171 Mg 0.72267 0.10209 0.63644 0.0
C172 C 0.73728 0.1388 0.55006 0.0
C173 C 0.68792 0.13351 0.4175 0.0
O174 O 0.68855 0.14821 0.45368 0.0
O175 O 0.72238 0.08004 0.50089 0.0
O176 O 0.73571 0.07718 0.57928 0.0
O177 O 0.67226 0.12898 0.54715 0.0
O178 O 0.6932 0.10605 0.59004 0.0
C179 C 0.73501 0.07098 0.53328 0.0
C180 C 0.67904 0.12165 0.59016 0.0
O181 O 0.69202 0.11361 0.42826 0.0
Mg182 Mg 0.88334 0.69698 0.50731 0.0
O183 O 0.85743 0.72391 0.51362 0.0
O184 O 0.86181 0.74067 0.58804 0.0
Mg185 Mg 0.88833 0.72273 0.63211 0.0
C186 C 0.85223 0.73866 0.54556 0.0
C187 C 0.87281 0.67351 0.41028 0.0
O188 O 0.8766 0.65795 0.44334 0.0
O189 O 0.91025 0.72275 0.49667 0.0
O190 O 0.91348 0.7353 0.57566 0.0
O191 O 0.86038 0.67312 0.54195 0.0
O192 O 0.88377 0.69355 0.58498 0.0
C193 C 0.91962 0.7349 0.52966 0.0
C194 C 0.86808 0.67948 0.585 0.0
O195 O 0.87565 0.69334 0.42363 0.0
Mg196 Mg 0.29418 0.88483 0.51624 0.0
O197 O 0.26663 0.85954 0.52341 0.0
O198 O 0.24977 0.86494 0.59734 0.0
Mg199 Mg 0.26803 0.89162 0.64026 0.0
C200 C 0.25171 0.85492 0.55538 0.0
C201 C 0.302 0.85669 0.42212 0.0
O202 O 0.30102 0.84211 0.45846 0.0
O203 O 0.26879 0.9119 0.50361 0.0
O204 O 0.25604 0.91633 0.5821 0.0
O205 O 0.31767 0.86195 0.55246 0.0
O206 O 0.29725 0.8858 0.59405 0.0
C207 C 0.25668 0.92186 0.53571 0.0
C208 C 0.31108 0.86992 0.59507 0.0
O209 O 0.29833 0.87671 0.43264 0.0
Mg210 Mg 0.1052 0.29084 0.50497 0.0
O211 O 0.13085 0.26347 0.5049 0.0
O212 O 0.12985 0.24699 0.58009 0.0
Mg213 Mg 0.1032 0.26289 0.62775 0.0
C214 C 0.13784 0.24909 0.53591 0.0
C215 C 0.11688 0.31601 0.41162 0.0
O216 O 0.11712 0.33025 0.44873 0.0
O217 O 0.07789 0.26553 0.49493 0.0
O218 O 0.07691 0.25121 0.57257 0.0
O219 O 0.12955 0.31346 0.53942 0.0
O220 O 0.10673 0.29281 0.58321 0.0
C221 C 0.06948 0.25261 0.52767 0.0
C222 C 0.12282 0.30641 0.58263 0.0
O223 O 0.11083 0.29645 0.42076 0.0
H224 H 0.23672 0.55208 0.93076 0.0
H225 H 0.25959 0.44323 0.90151 0.0
H226 H 0.25228 0.54332 0.08836 0.0
H227 H 0.23279 0.441 0.05219 0.0
H228 H 0.26854 0.48179 0.91393 0.0
H229 H 0.24667 0.51392 0.91561 0.0
C230 C 0.2428 0.54235 0.96189 0.0
C231 C 0.24321 0.55081 0.01103 0.0
C232 C 0.26093 0.47276 0.94437 0.0
C233 C 0.25463 0.50718 0.99404 0.0
C234 C 0.25592 0.45069 0.93759 0.0
C235 C 0.2447 0.43901 0.97534 0.0
C236 C 0.25475 0.48315 0.98924 0.0
C237 C 0.24093 0.44947 0.02162 0.0
C238 C 0.24865 0.52057 0.95318 0.0
C239 C 0.25136 0.53744 0.04992 0.0
N240 N 0.24566 0.4711 0.02701 0.0
N241 N 0.25613 0.5161 0.04084 0.0
H242 H 0.44246 0.24083 0.92783 0.0
H243 H 0.55333 0.24445 0.05882 0.0
H244 H 0.44733 0.26054 0.0839 0.0
H245 H 0.54781 0.26079 0.9009 0.0
H246 H 0.51484 0.25437 0.06997 0.0
H247 H 0.48052 0.25211 0.9155 0.0
C248 C 0.4513 0.24801 0.95917 0.0
C249 C 0.44187 0.24908 0.0073 0.0
C250 C 0.52225 0.25634 0.03316 0.0
C251 C 0.48544 0.26162 0.99369 0.0
C252 C 0.54423 0.25062 0.02678 0.0
C253 C 0.55366 0.25114 0.97861 0.0
C254 C 0.5096 0.26209 0.99088 0.0
C255 C 0.54112 0.25961 0.93858 0.0
C256 C 0.47304 0.2545 0.95211 0.0
C257 C 0.45407 0.25886 0.04636 0.0
N258 N 0.51954 0.26413 0.94528 0.0
N259 N 0.47543 0.26415 0.03908 0.0
H260 H 0.73138 0.44676 0.09363 0.0
H261 H 0.73232 0.54426 0.89674 0.0
H262 H 0.75006 0.44025 0.93724 0.0
H263 H 0.74811 0.55103 0.05478 0.0
H264 H 0.72151 0.50638 0.91184 0.0
H265 H 0.72022 0.48444 0.07744 0.0
C266 C 0.73259 0.45298 0.05551 0.0
C267 C 0.74241 0.44053 0.017 0.0
C268 C 0.72677 0.5164 0.94335 0.0
C269 C 0.72935 0.48351 -0.00145 0.0
C270 C 0.73295 0.53805 0.93495 0.0
C271 C 0.74187 0.55065 0.97436 0.0
C272 C 0.72923 0.50743 0.99153 0.0
C273 C 0.74187 0.54175 0.02308 0.0
C274 C 0.72619 0.47451 0.04648 0.0
C275 C 0.74311 0.44942 0.9683 0.0
N276 N 0.73604 0.5205 0.03017 0.0
N277 N 0.73705 0.47057 0.96062 0.0
H278 H 0.54895 0.72819 0.08962 0.0
H279 H 0.43986 0.75064 0.06614 0.0
H280 H 0.54896 0.75275 0.9369 0.0
H281 H 0.44638 0.73236 0.90948 0.0
H282 H 0.47811 0.74045 0.07947 0.0
H283 H 0.51035 0.71856 0.08047 0.0
C284 C 0.54101 0.73119 0.05376 0.0
C285 C 0.55206 0.74205 0.01446 0.0
C286 C 0.47094 0.73793 0.04259 0.0
C287 C 0.50787 0.7312 0.00429 0.0
C288 C 0.4491 0.74389 0.03491 0.0
C289 C 0.44 0.74287 0.98641 0.0
C290 C 0.48376 0.73121 0.00131 0.0
C291 C 0.45277 0.73385 0.94739 0.0
C292 C 0.51892 0.72579 0.04884 0.0
C293 C 0.541 0.74492 0.96859 0.0
N294 N 0.47419 0.729 0.95535 0.0
N295 N 0.51936 0.73985 0.96503 0.0
H296 H 0.74082 0.05301 0.43929 0.0
H297 H 0.76345 0.94499 0.40156 0.0
H298 H 0.75499 0.04195 0.59678 0.0
H299 H 0.73612 0.94048 0.55145 0.0
H300 H 0.77292 0.98316 0.41778 0.0
H301 H 0.75139 0.01528 0.42142 0.0
C302 C 0.74675 0.04286 0.46988 0.0
C303 C 0.74655 0.05053 0.51971 0.0
C304 C 0.76508 0.97371 0.44722 0.0
C305 C 0.75869 0.00735 0.49962 0.0
C306 C 0.75976 0.95186 0.43824 0.0
C307 C 0.74821 0.93971 0.47464 0.0
C308 C 0.75883 0.98341 0.49287 0.0
C309 C 0.74447 0.94937 0.52183 0.0
C310 C 0.75297 0.02133 0.45962 0.0
C311 C 0.75455 0.03667 0.55783 0.0
N312 N 0.74945 0.97082 0.52931 0.0
N313 N 0.75967 0.01554 0.54721 0.0
H314 H 0.94443 0.76107 0.5911 0.0
H315 H 0.05352 0.74066 0.5585 0.0
H316 H 0.9422 0.7348 0.43987 0.0
H317 H 0.04388 0.75789 0.40212 0.0
H318 H 0.01517 0.74962 0.57482 0.0
H319 H 0.98264 0.77128 0.57787 0.0
C320 C 0.9518 0.75778 0.55473 0.0
C321 C 0.94029 0.74631 0.51706 0.0
C322 C 0.02166 0.75217 0.53731 0.0
C323 C 0.984 0.75785 0.50223 0.0
C324 C 0.04354 0.74689 0.52792 0.0
C325 C 0.05183 0.74808 0.47873 0.0
C326 C 0.00801 0.75835 0.49703 0.0
C327 C 0.03814 0.75639 0.44056 0.0
C328 C 0.97366 0.76354 0.54748 0.0
C329 C 0.95057 0.74311 0.47037 0.0
N330 N 0.01672 0.76059 0.45023 0.0
N331 N 0.97202 0.74854 0.46453 0.0
H332 H 0.23539 0.04434 0.39146 0.0
H333 H 0.23432 0.95009 0.59707 0.0
H334 H 0.2504 0.05419 0.54905 0.0
H335 H 0.25334 0.94061 0.44167 0.0
H336 H 0.22403 0.98769 0.57744 0.0
H337 H 0.22571 0.00641 0.40969 0.0
C338 C 0.2361 0.03877 0.43017 0.0
C339 C 0.24438 0.05232 0.46865 0.0
C340 C 0.22995 0.97717 0.5475 0.0
C341 C 0.23306 0.00903 0.48937 0.0
C342 C 0.23587 0.95568 0.5585 0.0
C343 C 0.24539 0.94234 0.52119 0.0
C344 C 0.23332 0.98527 0.49882 0.0
C345 C 0.24655 0.95045 0.47182 0.0
C346 C 0.23058 0.01709 0.44035 0.0
C347 C 0.24459 0.04419 0.51807 0.0
N348 N 0.24093 0.97158 0.46219 0.0
N349 N 0.23936 0.02291 0.52693 0.0
H350 H 0.04261 0.23128 0.59391 0.0
H351 H 0.94319 0.23048 0.401 0.0
H352 H 0.04816 0.24877 0.43663 0.0
H353 H 0.93733 0.24864 0.5579 0.0
H354 H 0.98143 0.22077 0.41541 0.0
H355 H 0.00435 0.22139 0.58004 0.0
C356 C 0.03602 0.23253 0.55611 0.0
C357 C 0.04849 0.24149 0.51655 0.0
C358 C 0.97156 0.22634 0.44685 0.0
C359 C 0.00482 0.22987 0.50077 0.0
C360 C 0.9497 0.23188 0.43886 0.0
C361 C 0.93717 0.24108 0.47807 0.0
C362 C 0.98084 0.22969 0.49445 0.0
C363 C 0.94649 0.2421 0.52635 0.0
C364 C 0.01416 0.22687 0.54842 0.0
C365 C 0.03905 0.24239 0.46839 0.0
N366 N 0.96794 0.23683 0.53304 0.0
N367 N 0.01762 0.23696 0.46197 0.0
H368 H 0.2485 0.33311 0.04583 0.0
H369 H 0.33509 0.24503 0.94522 0.0
H370 H 0.26688 0.32633 0.88937 0.0
H371 H 0.33067 0.2644 0.10154 0.0
H372 H 0.30616 0.27117 0.92485 0.0
H373 H 0.27491 0.30441 0.06754 0.0
C374 C 0.25801 0.32555 0.01605 0.0
C375 C 0.25557 0.33223 0.96574 0.0
C376 C 0.3115 0.26966 0.96362 0.0
C377 C 0.28562 0.29938 0.99029 0.0
C378 C 0.32796 0.25467 0.97533 0.0
C379 C 0.33544 0.25262 0.02513 0.0
C380 C 0.3023 0.28256 0.00199 0.0
C381 C 0.32555 0.26556 0.06256 0.0
C382 C 0.2731 0.30923 0.02849 0.0
C383 C 0.26833 0.32185 0.9287 0.0
N384 N 0.30949 0.28001 0.05021 0.0
N385 N 0.28278 0.30594 0.94173 0.0
H386 H 0.74897 0.3345 0.95451 0.0
H387 H 0.65969 0.24812 0.05015 0.0
H388 H 0.72817 0.32942 0.10972 0.0
H389 H 0.66743 0.26666 0.89406 0.0
H390 H 0.68878 0.27386 0.07289 0.0
H391 H 0.72312 0.30549 0.93223 0.0
C392 C 0.73908 0.32721 0.98398 0.0
C393 C 0.74062 0.33455 0.03403 0.0
C394 C 0.68412 0.27222 0.03367 0.0
C395 C 0.71107 0.30132 0.0087 0.0
C396 C 0.66757 0.2575 0.02061 0.0
C397 C 0.661 0.25534 0.97014 0.0
C398 C 0.6943 0.28472 -0.00404 0.0
C399 C 0.67182 0.26792 0.93349 0.0
C400 C 0.72429 0.3107 0.97117 0.0
C401 C 0.72741 0.32443 0.07059 0.0
N402 N 0.68794 0.28208 0.94715 0.0
N403 N 0.71316 0.30835 0.05717 0.0
H404 H 0.74724 0.65678 0.04059 0.0
H405 H 0.65834 0.743 0.9423 0.0
H406 H 0.72757 0.66211 0.88463 0.0
H407 H 0.66554 0.72473 0.0987 0.0
H408 H 0.68741 0.71714 0.92034 0.0
H409 H 0.72107 0.68559 0.06217 0.0
C410 C 0.73753 0.66408 0.01082 0.0
C411 C 0.73948 0.65688 0.96075 0.0
C412 C 0.68263 0.71885 0.95945 0.0
C413 C 0.70956 0.68987 0.98527 0.0
C414 C 0.66608 0.73364 0.97206 0.0
C415 C 0.65938 0.73594 0.02241 0.0
C416 C 0.69268 0.70642 -0.00252 0.0
C417 C 0.67003 0.72337 0.05936 0.0
C418 C 0.72254 0.68047 0.02322 0.0
C419 C 0.72649 0.667 0.92378 0.0
N420 N 0.68615 0.70915 0.04614 0.0
N421 N 0.71205 0.68296 0.93681 0.0
H422 H 0.26333 0.6622 0.1052 0.0
H423 H 0.32862 0.72533 0.88975 0.0
H424 H 0.24662 0.65722 0.94738 0.0
H425 H 0.33285 0.74262 0.04736 0.0
H426 H 0.29971 0.6991 0.91 0.0
H427 H 0.2901 0.69051 0.08463 0.0
C428 C 0.26526 0.66706 0.0662 0.0
C429 C 0.25276 0.65724 0.02791 0.0
C430 C 0.30689 0.70872 0.94009 0.0
C431 C 0.28346 0.68961 0.00416 0.0
C432 C 0.32346 0.72365 0.92861 0.0
C433 C 0.33326 0.73614 0.96696 0.0
C434 C 0.30023 0.70607 0.99033 0.0
C435 C 0.32578 0.73335 0.01658 0.0
C436 C 0.2805 0.6833 0.05454 0.0
C437 C 0.25589 0.66434 0.97811 0.0
N438 N 0.30982 0.71849 0.02688 0.0
N439 N 0.27105 0.68 0.96762 0.0
H440 H 0.81347 0.73098 0.49711 0.0
H441 H 0.78681 0.85211 0.43073 0.0
H442 H 0.85265 0.78247 0.56289 0.0
H443 H 0.73464 0.81289 0.49331 0.0
H444 H 0.81331 0.82402 0.45688 0.0
H445 H 0.78566 0.75847 0.47367 0.0
C446 C 0.81617 0.74805 0.5065 0.0
C447 C 0.8352 0.7546 0.53204 0.0
C448 C 0.79603 0.82165 0.46464 0.0
C449 C 0.80415 0.78572 0.50442 0.0
C450 C 0.78098 0.8375 0.44964 0.0
C451 C 0.75863 0.8347 0.46011 0.0
C452 C 0.78854 0.80265 0.48869 0.0
C453 C 0.75181 0.8156 0.48493 0.0
C454 C 0.80036 0.76358 0.49339 0.0
C455 C 0.83805 0.77684 0.54354 0.0
N456 N 0.76674 0.80006 0.49795 0.0
N457 N 0.8228 0.79172 0.52895 0.0
H458 H 0.20804 0.8554 0.57521 0.0
H459 H 0.17973 0.73487 0.5002 0.0
H460 H 0.25873 0.81618 0.50642 0.0
H461 H 0.1396 0.7878 0.44465 0.0
H462 H 0.20776 0.76181 0.52568 0.0
H463 H 0.18088 0.82762 0.55079 0.0
C464 C 0.21343 0.84083 0.55542 0.0
C465 C 0.23554 0.83797 0.54259 0.0
C466 C 0.19277 0.76737 0.50791 0.0
C467 C 0.20489 0.80628 0.51589 0.0
C468 C 0.17683 0.75215 0.49367 0.0
C469 C 0.15751 0.75927 0.47024 0.0
C470 C 0.18884 0.78973 0.50014 0.0
C471 C 0.15442 0.78175 0.46232 0.0
C472 C 0.19799 0.82515 0.5414 0.0
C473 C 0.24176 0.81893 0.51664 0.0
N474 N 0.16985 0.79629 0.47786 0.0
N475 N 0.22649 0.80359 0.50449 0.0
H476 H 0.24677 0.15868 0.53251 0.0
H477 H 0.15389 0.24195 0.44071 0.0
H478 H 0.22486 0.16288 0.37795 0.0
H479 H 0.16305 0.22289 0.59606 0.0
H480 H 0.18342 0.21694 0.41643 0.0
H481 H 0.21976 0.18643 0.55567 0.0
C482 C 0.23639 0.16551 0.50336 0.0
C483 C 0.23797 0.1583 0.45324 0.0
C484 C 0.17894 0.21828 0.4558 0.0
C485 C 0.20707 0.19008 0.47958 0.0
C486 C 0.16214 0.23258 0.46972 0.0
C487 C 0.15589 0.23441 0.52047 0.0
C488 C 0.18971 0.20595 0.49296 0.0
C489 C 0.16718 0.22187 0.55644 0.0
C490 C 0.22092 0.18129 0.51667 0.0
C491 C 0.22409 0.1678 0.41711 0.0
N492 N 0.18355 0.2082 0.54199 0.0
N493 N 0.20919 0.1832 0.43101 0.0
H494 H 0.82422 0.22521 0.38884 0.0
H495 H 0.7645 0.16209 0.61239 0.0
H496 H 0.83156 0.24342 0.5453 0.0
H497 H 0.7442 0.1568 0.45685 0.0
H498 H 0.79017 0.19097 0.58852 0.0
H499 H 0.79577 0.19909 0.41292 0.0
C500 C 0.81981 0.22378 0.42824 0.0
C501 C 0.83038 0.23646 0.46514 0.0
C502 C 0.78 0.18357 0.5597 0.0
C503 C 0.79792 0.20649 0.49292 0.0
C504 C 0.76539 0.16702 0.57324 0.0
C505 C 0.75225 0.15691 0.53652 0.0
C506 C 0.78167 0.1899 0.509 0.0
C507 C 0.75402 0.1641 0.48642 0.0
C508 C 0.80351 0.20891 0.44192 0.0
C509 C 0.82387 0.23399 0.51558 0.0
N510 N 0.7686 0.18004 0.47407 0.0
N511 N 0.80818 0.21916 0.52803 0.0
H512 H 0.1105 0.2959 0.31991 0.0
H513 H 0.1912 0.37563 0.16959 0.0
H514 H 0.14281 0.351 0.39003 0.0
H515 H 0.13739 0.34178 0.09801 0.0
H516 H 0.1784 0.36194 0.25161 0.0
H517 H 0.12501 0.30786 0.23798 0.0
C518 C 0.12065 0.31044 0.31807 0.0
C519 C 0.12531 0.32257 0.36167 0.0
C520 C 0.16947 0.35754 0.21779 0.0
C521 C 0.14218 0.33605 0.26879 0.0
C522 C 0.17678 0.36528 0.17113 0.0
C523 C 0.16523 0.35998 0.1271 0.0
C524 C 0.15078 0.34408 0.22009 0.0
C525 C 0.14665 0.34647 0.13111 0.0
C526 C 0.12888 0.31726 0.27145 0.0
C527 C 0.13861 0.34128 0.35726 0.0
N528 N 0.14005 0.33891 0.17674 0.0
N529 N 0.14666 0.34739 0.31171 0.0
H530 H 0.6781 0.10674 0.33732 0.0
H531 H 0.63144 0.20456 0.16639 0.0
H532 H 0.67857 0.17464 0.3831 0.0
H533 H 0.62643 0.1361 0.12683 0.0
H534 H 0.64968 0.19415 0.24503 0.0
H535 H 0.66093 0.11748 0.25776 0.0
C536 C 0.6748 0.12392 0.33047 0.0
C537 C 0.67971 0.1398 0.36704 0.0
C538 C 0.64452 0.18141 0.21917 0.0
C539 C 0.65985 0.15219 0.27629 0.0
C540 C 0.63402 0.18735 0.17438 0.0
C541 C 0.62738 0.17119 0.13994 0.0
C542 C 0.64847 0.15917 0.22951 0.0
C543 C 0.63125 0.14914 0.15221 0.0
C544 C 0.66488 0.13004 0.28515 0.0
C545 C 0.675 0.16182 0.35611 0.0
N546 N 0.64158 0.1438 0.19584 0.0
N547 N 0.66527 0.16735 0.31184 0.0
H548 H 0.85991 0.70136 0.33438 0.0
H549 H 0.81086 0.60471 0.16294 0.0
H550 H 0.863 0.63282 0.37392 0.0
H551 H 0.8121 0.67261 0.11753 0.0
H552 H 0.82808 0.61503 0.24279 0.0
H553 H 0.84132 0.6914 0.25582 0.0
C554 C 0.85682 0.68422 0.32642 0.0
C555 C 0.86304 0.66791 0.36082 0.0
C556 C 0.82449 0.62768 0.21543 0.0
C557 C 0.84155 0.6564 0.27131 0.0
C558 C 0.81453 0.6218 0.16994 0.0
C559 C 0.81011 0.63779 0.13337 0.0
C560 C 0.83004 0.64971 0.22445 0.0
C561 C 0.8153 0.6597 0.14451 0.0
C562 C 0.84613 0.67854 0.28167 0.0
C563 C 0.85853 0.64597 0.34858 0.0
N564 N 0.82505 0.66499 0.18892 0.0
N565 N 0.84802 0.64088 0.30497 0.0
H566 H 0.31018 0.81526 0.38764 0.0
H567 H 0.36516 0.85637 0.13092 0.0
H568 H 0.31297 0.88311 0.34224 0.0
H569 H 0.35793 0.78802 0.16934 0.0
H570 H 0.34665 0.86631 0.20897 0.0
H571 H 0.32739 0.80484 0.30808 0.0
C572 C 0.31424 0.82797 0.36077 0.0
C573 C 0.31019 0.85012 0.37178 0.0
C574 C 0.34912 0.84913 0.20046 0.0
C575 C 0.33015 0.83828 0.28069 0.0
C576 C 0.3598 0.84341 0.15592 0.0
C577 C 0.36314 0.82129 0.14347 0.0
C578 C 0.3417 0.83264 0.23311 0.0
C579 C 0.35576 0.80527 0.17742 0.0
C580 C 0.32413 0.822 0.31536 0.0
C581 C 0.31577 0.86585 0.33541 0.0
N582 N 0.34537 0.81127 0.22068 0.0
N583 N 0.32559 0.85963 0.29166 0.0
H584 H 0.14162 0.69397 0.64718 0.0
H585 H 0.13944 0.59379 0.84135 0.0
H586 H 0.10127 0.63646 0.62761 0.0
H587 H 0.18978 0.64352 0.84263 0.0
H588 H 0.12391 0.61036 0.76565 0.0
H589 H 0.15752 0.6774 0.72293 0.0
C590 C 0.13593 0.67797 0.65909 0.0
C591 C 0.1201 0.66656 0.63097 0.0
C592 C 0.13844 0.61758 0.78225 0.0
C593 C 0.13835 0.64747 0.71724 0.0
C594 C 0.14736 0.60809 0.82543 0.0
C595 C 0.16595 0.61727 0.84837 0.0
C596 C 0.14801 0.63657 0.76203 0.0
C597 C 0.17549 0.63583 0.82606 0.0
C598 C 0.14515 0.66846 0.70208 0.0
C599 C 0.11347 0.64583 0.648 0.0
N600 N 0.16631 0.64498 0.78433 0.0
N601 N 0.12261 0.63696 0.68997 0.0
H602 H 0.31169 0.17676 0.60764 0.0
H603 H 0.36779 0.13382 0.86157 0.0
H604 H 0.3142 0.10862 0.65076 0.0
H605 H 0.36113 0.2024 0.82486 0.0
H606 H 0.34875 0.12441 0.78378 0.0
H607 H 0.32948 0.18656 0.68695 0.0
C608 C 0.31581 0.16385 0.63397 0.0
C609 C 0.3115 0.1418 0.62237 0.0
C610 C 0.35146 0.14152 0.79261 0.0
C611 C 0.33214 0.15294 0.71318 0.0
C612 C 0.36245 0.14694 0.837 0.0
C613 C 0.3661 0.16897 0.84985 0.0
C614 C 0.34404 0.15822 0.76055 0.0
C615 C 0.35873 0.1852 0.81645 0.0
C616 C 0.32604 0.16947 0.67923 0.0
C617 C 0.31718 0.12582 0.65806 0.0
N618 N 0.34803 0.1795 0.77336 0.0
N619 N 0.32733 0.13169 0.70169 0.0
H620 H 0.81167 0.31748 0.88076 0.0
H621 H 0.86522 0.35727 0.62137 0.0
H622 H 0.81411 0.38515 0.8338 0.0
H623 H 0.85804 0.28917 0.66209 0.0
H624 H 0.84727 0.36771 0.69984 0.0
H625 H 0.82853 0.30676 0.8011 0.0
C626 C 0.81559 0.3301 0.85352 0.0
C627 C 0.81153 0.35229 0.8641 0.0
C628 C 0.84963 0.35048 0.69172 0.0
C629 C 0.83109 0.34008 0.77284 0.0
C630 C 0.85999 0.34448 0.64695 0.0
C631 C 0.86315 0.32228 0.63504 0.0
C632 C 0.84237 0.33419 0.72509 0.0
C633 C 0.85598 0.30647 0.66973 0.0
C634 C 0.82528 0.32394 0.80804 0.0
C635 C 0.81692 0.36786 0.82727 0.0
N636 N 0.8459 0.31274 0.71315 0.0
N637 N 0.82655 0.36147 0.78342 0.0
H638 H 0.63102 0.78642 0.82568 0.0
H639 H 0.6803 0.88252 0.65343 0.0
H640 H 0.62718 0.85515 0.86328 0.0
H641 H 0.68019 0.81434 0.60984 0.0
H642 H 0.66237 0.87251 0.73255 0.0
H643 H 0.64977 0.79609 0.74717 0.0
C644 C 0.63395 0.80354 0.81728 0.0
C645 C 0.62751 0.81999 0.85116 0.0
C646 C 0.66634 0.85972 0.70575 0.0
C647 C 0.64918 0.83116 0.76174 0.0
C648 C 0.6767 0.86543 0.66067 0.0
C649 C 0.68169 0.84927 0.62483 0.0
C650 C 0.66095 0.8377 0.71513 0.0
C651 C 0.67658 0.82738 0.63626 0.0
C652 C 0.64474 0.80905 0.77256 0.0
C653 C 0.63183 0.8419 0.83836 0.0
N654 N 0.66643 0.82225 0.68029 0.0
N655 N 0.64245 0.84683 0.79484 0.0
H656 H 0.83331 0.65179 0.59811 0.0
H657 H 0.8397 0.65504 0.89882 0.0
H658 H 0.88205 0.68867 0.68046 0.0
H659 H 0.80393 0.60599 0.81493 0.0
H660 H 0.8525 0.67065 0.81916 0.0
H661 H 0.81907 0.63789 0.67802 0.0
C662 C 0.84092 0.65707 0.63296 0.0
C663 C 0.85879 0.67151 0.6327 0.0
C664 C 0.84178 0.65651 0.81835 0.0
C665 C 0.84265 0.65573 0.7239 0.0
C666 C 0.83448 0.64761 0.86371 0.0
C667 C 0.82056 0.62934 0.86342 0.0
C668 C 0.835 0.64708 0.77262 0.0
C669 C 0.81433 0.62031 0.81693 0.0
C670 C 0.83283 0.64911 0.67849 0.0
C671 C 0.86807 0.67779 0.6789 0.0
N672 N 0.82156 0.62931 0.77336 0.0
N673 N 0.85988 0.66986 0.72271 0.0
H674 H 0.30125 0.88414 0.69013 0.0
H675 H 0.38322 0.80192 0.82455 0.0
H676 H 0.33793 0.83467 0.6098 0.0
H677 H 0.33301 0.83732 0.9055 0.0
H678 H 0.36821 0.81535 0.74559 0.0
H679 H 0.31402 0.86875 0.76955 0.0
C680 C 0.31179 0.86989 0.68913 0.0
C681 C 0.31838 0.86053 0.64326 0.0
C682 C 0.36036 0.82004 0.78058 0.0
C683 C 0.33336 0.84316 0.734 0.0
C684 C 0.36886 0.81231 0.82577 0.0
C685 C 0.35917 0.81828 0.87169 0.0
C686 C 0.34221 0.83411 0.7813 0.0
C687 C 0.34093 0.83225 0.87089 0.0
C688 C 0.31911 0.86117 0.73454 0.0
C689 C 0.33242 0.84237 0.64432 0.0
N690 N 0.33306 0.83979 0.82628 0.0
N691 N 0.33954 0.83431 0.68906 0.0
H692 H 0.15916 0.3322 0.59359 0.0
H693 H 0.15688 0.32647 0.89436 0.0
H694 H 0.1111 0.29573 0.67875 0.0
H695 H 0.19216 0.3758 0.81047 0.0
H696 H 0.14444 0.3105 0.81486 0.0
H697 H 0.17597 0.34404 0.67275 0.0
C698 C 0.15225 0.32655 0.62887 0.0
C699 C 0.13376 0.31291 0.62965 0.0
C700 C 0.15506 0.32472 0.81398 0.0
C701 C 0.15285 0.32629 0.71989 0.0
C702 C 0.16217 0.33382 0.85926 0.0
C703 C 0.17559 0.35246 0.85897 0.0
C704 C 0.16148 0.33435 0.76827 0.0
C705 C 0.18198 0.36132 0.81248 0.0
C706 C 0.16183 0.3333 0.67394 0.0
C707 C 0.12547 0.30605 0.67634 0.0
N708 N 0.1748 0.35221 0.76891 0.0
N709 N 0.13506 0.31286 0.71965 0.0
H710 H 0.65922 0.1543 0.90379 0.0
H711 H 0.65278 0.15748 0.60296 0.0
H712 H 0.61121 0.19157 0.82035 0.0
H713 H 0.68869 0.10829 0.68584 0.0
H714 H 0.64068 0.17336 0.68277 0.0
H715 H 0.67369 0.14024 0.82401 0.0
C716 C 0.65183 0.15963 0.86876 0.0
C717 C 0.63411 0.17425 0.86865 0.0
C718 C 0.65129 0.15913 0.6834 0.0
C719 C 0.65051 0.15834 0.77773 0.0
C720 C 0.65819 0.15008 0.63791 0.0
C721 C 0.67185 0.13163 0.63781 0.0
C722 C 0.65816 0.14967 0.72898 0.0
C723 C 0.67838 0.12269 0.68415 0.0
C724 C 0.66006 0.1516 0.82334 0.0
C725 C 0.62509 0.18059 0.82226 0.0
N726 N 0.67148 0.13181 0.72795 0.0
N727 N 0.6334 0.1726 0.77865 0.0
H728 H 0.88128 0.3001 0.31614 0.0
H729 H 0.80353 0.38661 0.1817 0.0
H730 H 0.83318 0.33855 0.39649 0.0
H731 H 0.83973 0.337 0.1007 0.0
H732 H 0.81558 0.37052 0.26089 0.0
H733 H 0.86749 0.31462 0.23702 0.0
C734 C 0.86762 0.31139 0.31719 0.0
C735 C 0.85819 0.31794 0.363 0.0
C736 C 0.82076 0.36307 0.22581 0.0
C737 C 0.84264 0.33498 0.27242 0.0
C738 C 0.81385 0.3722 0.18052 0.0
C739 C 0.82044 0.36295 0.13452 0.0
C740 C 0.83457 0.34472 0.22509 0.0
C741 C 0.83423 0.3446 0.13534 0.0
C742 C 0.85982 0.31975 0.2719 0.0
C743 C 0.84087 0.33301 0.36198 0.0
N744 N 0.8409 0.33609 0.18002 0.0
N745 N 0.83367 0.34112 0.3173 0.0
H746 H 0.66119 0.83551 0.08645 0.0
H747 H 0.65687 0.83076 0.38733 0.0
H748 H 0.61164 0.80091 0.1712 0.0
H749 H 0.69466 0.87876 0.30516 0.0
H750 H 0.64389 0.81577 0.30741 0.0
H751 H 0.67731 0.84812 0.16597 0.0
C752 C 0.65379 0.83047 0.1217 0.0
C753 C 0.63517 0.81699 0.12227 0.0
C754 C 0.65512 0.82952 0.30693 0.0
C755 C 0.65348 0.83119 0.21281 0.0
C756 C 0.66255 0.83805 0.3525 0.0
C757 C 0.67688 0.856 0.35286 0.0
C758 C 0.66211 0.839 0.26149 0.0
C759 C 0.68375 0.8648 0.30663 0.0
C760 C 0.66298 0.83766 0.16695 0.0
C761 C 0.62619 0.81098 0.16891 0.0
N762 N 0.67626 0.85623 0.26271 0.0
N763 N 0.63545 0.81811 0.2123 0.0
H764 H 0.16061 0.65681 0.39116 0.0
H765 H 0.1541 0.66236 0.09054 0.0
H766 H 0.11388 0.69687 0.31076 0.0
H767 H 0.18627 0.6105 0.17292 0.0
H768 H 0.14306 0.67885 0.17081 0.0
H769 H 0.17458 0.64343 0.31053 0.0
C770 C 0.15343 0.66294 0.3566 0.0
C771 C 0.13609 0.678 0.35765 0.0
C772 C 0.15265 0.66392 0.17112 0.0
C773 C 0.15191 0.66278 0.2656 0.0
C774 C 0.15892 0.65451 0.12543 0.0
C775 C 0.17128 0.63515 0.12511 0.0
C776 C 0.15889 0.65389 0.21654 0.0
C777 C 0.17707 0.62562 0.17133 0.0
C778 C 0.16136 0.65527 0.31065 0.0
C779 C 0.12738 0.68541 0.31176 0.0
N780 N 0.17084 0.63511 0.2152 0.0
N781 N 0.13536 0.67767 0.26752 0.0
H782 H 0.30208 0.10895 0.30377 0.0
H783 H 0.38719 0.18797 0.16905 0.0
H784 H 0.34018 0.15742 0.38397 0.0
H785 H 0.33669 0.15289 0.08817 0.0
H786 H 0.37159 0.17533 0.24817 0.0
H787 H 0.31588 0.12336 0.22444 0.0
C788 C 0.31314 0.1228 0.30475 0.0
C789 C 0.31981 0.13217 0.35057 0.0
C790 C 0.36382 0.17053 0.21315 0.0
C791 C 0.33601 0.1484 0.25983 0.0
C792 C 0.37267 0.17779 0.16788 0.0
C793 C 0.36303 0.1717 0.12194 0.0
C794 C 0.34538 0.15684 0.21247 0.0
C795 C 0.34458 0.15803 0.12278 0.0
C796 C 0.32107 0.13096 0.25936 0.0
C797 C 0.33457 0.14976 0.34947 0.0
N798 N 0.33635 0.15099 0.16746 0.0
N799 N 0.34227 0.15728 0.30471 0.0
loop_
_geom_bond_atom_site_label_1
_geom_bond_atom_site_label_2
_geom_bond_distance
_geom_bond_site_symmetry_2
_ccdc_geom_bond_type
Mg0 O1 2.026 1_556 S
Mg0 O7 1.984 1_556 S
Mg0 O9 2.120 . S
Mg0 O10 2.263 . S
Mg0 O13 1.999 1_556 S
O1 Mg0 2.026 1_554 S
O1 C4 1.250 1_554 S
O2 Mg3 2.028 . S
O2 C4 1.248 . S
Mg3 O2 2.028 . S
Mg3 O8 2.032 . S
Mg3 O10 2.079 . S
C4 O1 1.250 1_556 S
C4 O2 1.248 . S
C5 O6 1.264 . S
C5 O13 1.249 . S
O6 C5 1.264 . S
O7 Mg0 1.984 1_554 S
O7 C11 1.246 1_554 S
O8 Mg3 2.032 . S
O8 C11 1.259 . S
O9 Mg0 2.120 . S
O9 C12 1.252 . S
O10 Mg0 2.263 . S
O10 Mg3 2.079 . S
O10 C12 1.273 . S
C11 O7 1.246 1_556 S
C11 O8 1.259 . S
C12 O9 1.252 . S
C12 O10 1.273 . S
O13 Mg0 1.999 1_554 S
O13 C5 1.249 . S
Mg14 O15 2.026 1_556 S
Mg14 O21 1.984 1_556 S
Mg14 O23 2.120 . S
Mg14 O24 2.263 . S
Mg14 O27 1.999 1_556 S
O15 Mg14 2.026 1_554 S
O15 C18 1.250 1_554 S
O16 Mg17 2.028 . S
O16 C18 1.248 . S
Mg17 O16 2.028 . S
Mg17 O22 2.032 . S
Mg17 O24 2.079 . S
C18 O15 1.250 1_556 S
C18 O16 1.248 . S
C19 O20 1.264 . S
C19 O27 1.249 . S
O20 C19 1.264 . S
O21 Mg14 1.984 1_554 S
O21 C25 1.246 1_554 S
O22 Mg17 2.032 . S
O22 C25 1.259 . S
O23 Mg14 2.120 . S
O23 C26 1.252 . S
O24 Mg14 2.263 . S
O24 Mg17 2.079 . S
O24 C26 1.273 . S
C25 O21 1.246 1_556 S
C25 O22 1.259 . S
C26 O23 1.252 . S
C26 O24 1.273 . S
O27 Mg14 1.999 1_554 S
O27 C19 1.249 . S
Mg28 O29 2.026 1_556 S
Mg28 O35 1.984 1_556 S
Mg28 O37 2.120 . S
Mg28 O38 2.263 . S
Mg28 O41 1.999 1_556 S
O29 Mg28 2.026 1_554 S
O29 C32 1.250 1_554 S
O30 Mg31 2.028 . S
O30 C32 1.248 . S
Mg31 O30 2.028 . S
Mg31 O36 2.032 . S
Mg31 O38 2.079 . S
C32 O29 1.250 1_556 S
C32 O30 1.248 . S
C33 O34 1.264 . S
C33 O41 1.249 . S
O34 C33 1.264 . S
O35 Mg28 1.984 1_554 S
O35 C39 1.246 1_554 S
O36 Mg31 2.032 . S
O36 C39 1.259 . S
O37 Mg28 2.120 . S
O37 C40 1.252 . S
O38 Mg28 2.263 . S
O38 Mg31 2.079 . S
O38 C40 1.273 . S
C39 O35 1.246 1_556 S
C39 O36 1.259 . S
C40 O37 1.252 . S
C40 O38 1.273 . S
O41 Mg28 1.999 1_554 S
O41 C33 1.249 . S
Mg42 O43 2.026 1_556 S
Mg42 O49 1.984 1_556 S
Mg42 O51 2.120 . S
Mg42 O52 2.263 . S
Mg42 O55 1.999 1_556 S
O43 Mg42 2.026 1_554 S
O43 C46 1.250 1_554 S
O44 Mg45 2.028 . S
O44 C46 1.248 . S
Mg45 O44 2.028 . S
Mg45 O50 2.032 . S
Mg45 O52 2.079 . S
C46 O43 1.250 1_556 S
C46 O44 1.248 . S
C47 O48 1.264 . S
C47 O55 1.249 . S
O48 C47 1.264 . S
O49 Mg42 1.984 1_554 S
O49 C53 1.246 1_554 S
O50 Mg45 2.032 . S
O50 C53 1.259 . S
O51 Mg42 2.120 . S
O51 C54 1.252 . S
O52 Mg42 2.263 . S
O52 Mg45 2.079 . S
O52 C54 1.273 . S
C53 O49 1.246 1_556 S
C53 O50 1.259 . S
C54 O51 1.252 . S
C54 O52 1.273 . S
O55 Mg42 1.999 1_554 S
O55 C47 1.249 . S
Mg56 O57 2.028 1_554 S
Mg56 O63 1.986 1_554 S
Mg56 O65 2.114 . S
Mg56 O66 2.251 . S
Mg56 O69 2.010 1_554 S
O57 Mg56 2.028 1_556 S
O57 C60 1.250 1_556 S
O58 Mg59 2.028 . S
O58 C60 1.248 . S
Mg59 O58 2.028 . S
Mg59 O64 2.032 . S
Mg59 O66 2.079 . S
C60 O57 1.250 1_554 S
C60 O58 1.248 . S
C61 O62 1.264 . S
C61 O69 1.249 . S
O62 C61 1.264 . S
O63 Mg56 1.986 1_556 S
O63 C67 1.246 1_556 S
O64 Mg59 2.032 . S
O64 C67 1.259 . S
O65 Mg56 2.114 . S
O65 C68 1.252 . S
O66 Mg56 2.251 . S
O66 Mg59 2.079 . S
O66 C68 1.273 . S
C67 O63 1.246 1_554 S
C67 O64 1.259 . S
C68 O65 1.252 . S
C68 O66 1.273 . S
O69 Mg56 2.010 1_556 S
O69 C61 1.249 . S
Mg70 O71 2.028 1_554 S
Mg70 O77 1.986 1_554 S
Mg70 O79 2.114 . S
Mg70 O80 2.251 . S
Mg70 O83 2.010 1_554 S
O71 Mg70 2.028 1_556 S
O71 C74 1.250 1_556 S
O72 Mg73 2.028 . S
O72 C74 1.248 . S
Mg73 O72 2.028 . S
Mg73 O78 2.032 . S
Mg73 O80 2.079 . S
C74 O71 1.250 1_554 S
C74 O72 1.248 . S
C75 O76 1.264 . S
C75 O83 1.249 . S
O76 C75 1.264 . S
O77 Mg70 1.986 1_556 S
O77 C81 1.246 1_556 S
O78 Mg73 2.032 . S
O78 C81 1.259 . S
O79 Mg70 2.114 . S
O79 C82 1.252 . S
O80 Mg70 2.251 . S
O80 Mg73 2.079 . S
O80 C82 1.273 . S
C81 O77 1.246 1_554 S
C81 O78 1.259 . S
C82 O79 1.252 . S
C82 O80 1.273 . S
O83 Mg70 2.010 1_556 S
O83 C75 1.249 . S
Mg84 O85 2.028 1_554 S
Mg84 O91 1.986 1_554 S
Mg84 O93 2.114 . S
Mg84 O94 2.251 . S
Mg84 O97 2.010 1_554 S
O85 Mg84 2.028 1_556 S
O85 C88 1.250 1_556 S
O86 Mg87 2.028 . S
O86 C88 1.248 . S
Mg87 O86 2.028 . S
Mg87 O92 2.032 . S
Mg87 O94 2.079 . S
C88 O85 1.250 1_554 S
C88 O86 1.248 . S
C89 O90 1.264 . S
C89 O97 1.249 . S
O90 C89 1.264 . S
O91 Mg84 1.986 1_556 S
O91 C95 1.246 1_556 S
O92 Mg87 2.032 . S
O92 C95 1.259 . S
O93 Mg84 2.114 . S
O93 C96 1.252 . S
O94 Mg84 2.251 . S
O94 Mg87 2.079 . S
O94 C96 1.273 . S
C95 O91 1.246 1_554 S
C95 O92 1.259 . S
C96 O93 1.252 . S
C96 O94 1.273 . S
O97 Mg84 2.010 1_556 S
O97 C89 1.249 . S
Mg98 O99 2.028 1_554 S
Mg98 O105 1.986 1_554 S
Mg98 O107 2.114 . S
Mg98 O108 2.251 . S
Mg98 O111 2.010 1_554 S
O99 Mg98 2.028 1_556 S
O99 C102 1.250 1_556 S
O100 Mg101 2.028 . S
O100 C102 1.248 . S
Mg101 O100 2.028 . S
Mg101 O106 2.032 . S
Mg101 O108 2.079 . S
C102 O99 1.250 1_554 S
C102 O100 1.248 . S
C103 O104 1.264 . S
C103 O111 1.249 . S
O104 C103 1.264 . S
O105 Mg98 1.986 1_556 S
O105 C109 1.246 1_556 S
O106 Mg101 2.032 . S
O106 C109 1.259 . S
O107 Mg98 2.114 . S
O107 C110 1.252 . S
O108 Mg98 2.251 . S
O108 Mg101 2.079 . S
O108 C110 1.273 . S
C109 O105 1.246 1_554 S
C109 O106 1.259 . S
C110 O107 1.252 . S
C110 O108 1.273 . S
O111 Mg98 2.010 1_556 S
O111 C103 1.249 . S
Mg112 O113 2.028 . S
Mg112 O119 1.986 . S
Mg112 O121 2.114 . S
Mg112 O122 2.251 . S
Mg112 O125 2.010 . S
O113 Mg112 2.028 . S
O113 C116 1.250 . S
O114 Mg115 2.028 . S
O114 C116 1.248 . S
Mg115 O114 2.028 . S
Mg115 O120 2.032 . S
Mg115 O122 2.079 . S
C116 O113 1.250 . S
C116 O114 1.248 . S
C117 O118 1.264 . S
C117 O125 1.249 . S
O118 C117 1.264 . S
O119 Mg112 1.986 . S
O119 C123 1.246 . S
O120 Mg115 2.032 . S
O120 C123 1.259 . S
O121 Mg112 2.114 . S
O121 C124 1.252 . S
O122 Mg112 2.251 . S
O122 Mg115 2.079 . S
O122 C124 1.273 . S
C123 O119 1.246 . S
C123 O120 1.259 . S
C124 O121 1.252 . S
C124 O122 1.273 . S
O125 Mg112 2.010 . S
O125 C117 1.249 . S
Mg126 O127 2.028 . S
Mg126 O133 1.986 . S
Mg126 O135 2.114 . S
Mg126 O136 2.251 . S
Mg126 O139 2.010 . S
O127 Mg126 2.028 . S
O127 C130 1.250 . S
O128 Mg129 2.028 . S
O128 C130 1.248 . S
Mg129 O128 2.028 . S
Mg129 O134 2.032 . S
Mg129 O136 2.079 . S
C130 O127 1.250 . S
C130 O128 1.248 . S
C131 O132 1.264 . S
C131 O139 1.249 . S
O132 C131 1.264 . S
O133 Mg126 1.986 . S
O133 C137 1.246 . S
O134 Mg129 2.032 . S
O134 C137 1.259 . S
O135 Mg126 2.114 . S
O135 C138 1.252 . S
O136 Mg126 2.251 . S
O136 Mg129 2.079 . S
O136 C138 1.273 . S
C137 O133 1.246 . S
C137 O134 1.259 . S
C138 O135 1.252 . S
C138 O136 1.273 . S
O139 Mg126 2.010 . S
O139 C131 1.249 . S
Mg140 O141 2.028 . S
Mg140 O147 1.986 . S
Mg140 O149 2.114 . S
Mg140 O150 2.251 . S
Mg140 O153 2.010 . S
O141 Mg140 2.028 . S
O141 C144 1.250 . S
O142 Mg143 2.028 . S
O142 C144 1.248 . S
Mg143 O142 2.028 . S
Mg143 O148 2.032 . S
Mg143 O150 2.079 . S
C144 O141 1.250 . S
C144 O142 1.248 . S
C145 O146 1.264 . S
C145 O153 1.249 . S
O146 C145 1.264 . S
O147 Mg140 1.986 . S
O147 C151 1.246 . S
O148 Mg143 2.032 . S
O148 C151 1.259 . S
O149 Mg140 2.114 . S
O149 C152 1.252 . S
O150 Mg140 2.251 . S
O150 Mg143 2.079 . S
O150 C152 1.273 . S
C151 O147 1.246 . S
C151 O148 1.259 . S
C152 O149 1.252 . S
C152 O150 1.273 . S
O153 Mg140 2.010 . S
O153 C145 1.249 . S
Mg154 O155 2.028 . S
Mg154 O161 1.986 . S
Mg154 O163 2.114 . S
Mg154 O164 2.251 . S
Mg154 O167 2.010 . S
O155 Mg154 2.028 . S
O155 C158 1.250 . S
O156 Mg157 2.028 . S
O156 C158 1.248 . S
Mg157 O156 2.028 . S
Mg157 O162 2.032 . S
Mg157 O164 2.079 . S
C158 O155 1.250 . S
C158 O156 1.248 . S
C159 O160 1.264 . S
C159 O167 1.249 . S
O160 C159 1.264 . S
O161 Mg154 1.986 . S
O161 C165 1.246 . S
O162 Mg157 2.032 . S
O162 C165 1.259 . S
O163 Mg154 2.114 . S
O163 C166 1.252 . S
O164 Mg154 2.251 . S
O164 Mg157 2.079 . S
O164 C166 1.273 . S
C165 O161 1.246 . S
C165 O162 1.259 . S
C166 O163 1.252 . S
C166 O164 1.273 . S
O167 Mg154 2.010 . S
O167 C159 1.249 . S
Mg168 O169 2.028 . S
Mg168 O175 1.986 . S
Mg168 O177 2.114 . S
Mg168 O178 2.251 . S
Mg168 O181 2.010 . S
O169 Mg168 2.028 . S
O169 C172 1.250 . S
O170 Mg171 2.028 . S
O170 C172 1.248 . S
Mg171 O170 2.028 . S
Mg171 O176 2.032 . S
Mg171 O178 2.079 . S
C172 O169 1.250 . S
C172 O170 1.248 . S
C173 O174 1.264 . S
C173 O181 1.249 . S
O174 C173 1.264 . S
O175 Mg168 1.986 . S
O175 C179 1.246 . S
O176 Mg171 2.032 . S
O176 C179 1.259 . S
O177 Mg168 2.114 . S
O177 C180 1.252 . S
O178 Mg168 2.251 . S
O178 Mg171 2.079 . S
O178 C180 1.273 . S
C179 O175 1.246 . S
C179 O176 1.259 . S
C180 O177 1.252 . S
C180 O178 1.273 . S
O181 Mg168 2.010 . S
O181 C173 1.249 . S
Mg182 O183 2.028 . S
Mg182 O189 1.986 . S
Mg182 O191 2.114 . S
Mg182 O192 2.251 . S
Mg182 O195 2.010 . S
O183 Mg182 2.028 . S
O183 C186 1.250 . S
O184 Mg185 2.028 . S
O184 C186 1.248 . S
Mg185 O184 2.028 . S
Mg185 O190 2.032 . S
Mg185 O192 2.079 . S
C186 O183 1.250 . S
C186 O184 1.248 . S
C187 O188 1.264 . S
C187 O195 1.249 . S
O188 C187 1.264 . S
O189 Mg182 1.986 . S
O189 C193 1.246 . S
O190 Mg185 2.032 . S
O190 C193 1.259 . S
O191 Mg182 2.114 . S
O191 C194 1.252 . S
O192 Mg182 2.251 . S
O192 Mg185 2.079 . S
O192 C194 1.273 . S
C193 O189 1.246 . S
C193 O190 1.259 . S
C194 O191 1.252 . S
C194 O192 1.273 . S
O195 Mg182 2.010 . S
O195 C187 1.249 . S
Mg196 O197 2.028 . S
Mg196 O203 1.986 . S
Mg196 O205 2.114 . S
Mg196 O206 2.251 . S
Mg196 O209 2.010 . S
O197 Mg196 2.028 . S
O197 C200 1.250 . S
O198 Mg199 2.028 . S
O198 C200 1.248 . S
Mg199 O198 2.028 . S
Mg199 O204 2.032 . S
Mg199 O206 2.079 . S
C200 O197 1.250 . S
C200 O198 1.248 . S
C201 O202 1.264 . S
C201 O209 1.249 . S
O202 C201 1.264 . S
O203 Mg196 1.986 . S
O203 C207 1.246 . S
O204 Mg199 2.032 . S
O204 C207 1.259 . S
O205 Mg196 2.114 . S
O205 C208 1.252 . S
O206 Mg196 2.251 . S
O206 Mg199 2.079 . S
O206 C208 1.273 . S
C207 O203 1.246 . S
C207 O204 1.259 . S
C208 O205 1.252 . S
C208 O206 1.273 . S
O209 Mg196 2.010 . S
O209 C201 1.249 . S
Mg210 O211 2.028 . S
Mg210 O217 1.986 . S
Mg210 O219 2.114 . S
Mg210 O220 2.251 . S
Mg210 O223 2.010 . S
O211 Mg210 2.028 . S
O211 C214 1.250 . S
O212 Mg213 2.028 . S
O212 C214 1.248 . S
Mg213 O212 2.028 . S
Mg213 O218 2.032 . S
Mg213 O220 2.079 . S
C214 O211 1.250 . S
C214 O212 1.248 . S
C215 O216 1.264 . S
C215 O223 1.249 . S
O216 C215 1.264 . S
O217 Mg210 1.986 . S
O217 C221 1.246 . S
O218 Mg213 2.032 . S
O218 C221 1.259 . S
O219 Mg210 2.114 . S
O219 C222 1.252 . S
O220 Mg210 2.251 . S
O220 Mg213 2.079 . S
O220 C222 1.273 . S
C221 O217 1.246 . S
C221 O218 1.259 . S
C222 O219 1.252 . S
C222 O220 1.273 . S
O223 Mg210 2.010 . S
O223 C215 1.249 . S
H224 C230 0.930 . S
H225 C234 0.930 . S
H226 C239 0.929 . S
H227 C237 0.929 . S
H228 C232 0.929 . S
H229 C238 0.929 . S
C230 H224 0.930 . S
C230 C231 1.367 . S
C230 C238 1.378 . S
C231 C230 1.367 . S
C231 C239 1.433 1_554 S
C232 H228 0.929 . S
C232 C234 1.378 . S
C232 C236 1.350 . S
C233 C236 1.462 1_554 S
C233 C238 1.350 . S
C233 N241 1.427 1_554 S
C234 H225 0.930 . S
C234 C232 1.378 . S
C234 C235 1.367 . S
C235 C234 1.367 . S
C235 C237 1.433 1_556 S
C236 C232 1.350 . S
C236 C233 1.462 1_556 S
C236 N240 1.427 1_556 S
C237 H227 0.929 . S
C237 C235 1.433 1_554 S
C237 N240 1.384 . S
C238 H229 0.929 . S
C238 C230 1.378 . S
C238 C233 1.350 . S
C239 H226 0.929 . S
C239 C231 1.433 1_556 S
C239 N241 1.384 . S
N240 C236 1.427 1_554 S
N240 C237 1.384 . S
N241 C233 1.427 1_556 S
N241 C239 1.384 . S
H242 C248 0.930 . S
H243 C252 0.930 . S
H244 C257 0.929 . S
H245 C255 0.929 . S
H246 C250 0.929 . S
H247 C256 0.929 . S
C248 H242 0.930 . S
C248 C249 1.367 1_556 S
C248 C256 1.378 . S
C249 C248 1.367 1_554 S
C249 C257 1.433 . S
C250 H246 0.929 . S
C250 C252 1.378 . S
C250 C254 1.350 . S
C251 C254 1.463 . S
C251 C256 1.350 1_554 S
C251 N259 1.427 . S
C252 H243 0.930 . S
C252 C250 1.378 . S
C252 C253 1.367 1_554 S
C253 C252 1.367 1_556 S
C253 C255 1.433 . S
C254 C250 1.350 . S
C254 C251 1.463 . S
C254 N258 1.427 1_554 S
C255 H245 0.929 . S
C255 C253 1.433 . S
C255 N258 1.384 . S
C256 H247 0.929 . S
C256 C248 1.378 . S
C256 C251 1.350 1_556 S
C257 H244 0.929 . S
C257 C249 1.433 . S
C257 N259 1.384 . S
N258 C254 1.427 1_556 S
N258 C255 1.384 . S
N259 C251 1.427 . S
N259 C257 1.384 . S
H260 C266 0.930 . S
H261 C270 0.930 . S
H262 C275 0.929 . S
H263 C273 0.929 . S
H264 C268 0.929 . S
H265 C274 0.929 . S
C266 H260 0.930 . S
C266 C267 1.367 . S
C266 C274 1.378 . S
C267 C266 1.367 . S
C267 C275 1.433 1_554 S
C268 H264 0.929 . S
C268 C270 1.378 . S
C268 C272 1.350 . S
C269 C272 1.463 1_554 S
C269 C274 1.350 . S
C269 N277 1.427 1_554 S
C270 H261 0.930 . S
C270 C268 1.378 . S
C270 C271 1.367 . S
C271 C270 1.367 . S
C271 C273 1.433 1_556 S
C272 C268 1.350 . S
C272 C269 1.463 1_556 S
C272 N276 1.427 1_556 S
C273 H263 0.929 . S
C273 C271 1.433 1_554 S
C273 N276 1.384 . S
C274 H265 0.929 . S
C274 C266 1.378 . S
C274 C269 1.350 . S
C275 H262 0.929 . S
C275 C267 1.433 1_556 S
C275 N277 1.384 . S
N276 C272 1.427 1_554 S
N276 C273 1.384 . S
N277 C269 1.427 1_556 S
N277 C275 1.384 . S
H278 C284 0.930 . S
H279 C288 0.930 . S
H280 C293 0.929 . S
H281 C291 0.929 . S
H282 C286 0.929 . S
H283 C292 0.929 . S
C284 H278 0.930 . S
C284 C285 1.367 . S
C284 C292 1.378 . S
C285 C284 1.367 . S
C285 C293 1.433 1_554 S
C286 H282 0.929 . S
C286 C288 1.378 . S
C286 C290 1.350 1_556 S
C287 C290 1.462 . S
C287 C292 1.350 . S
C287 N295 1.427 1_554 S
C288 H279 0.930 . S
C288 C286 1.378 . S
C288 C289 1.367 . S
C289 C288 1.367 . S
C289 C291 1.433 1_556 S
C290 C286 1.350 1_554 S
C290 C287 1.462 . S
C290 N294 1.427 . S
C291 H281 0.929 . S
C291 C289 1.433 1_554 S
C291 N294 1.384 . S
C292 H283 0.929 . S
C292 C284 1.378 . S
C292 C287 1.350 . S
C293 H280 0.929 . S
C293 C285 1.433 1_556 S
C293 N295 1.384 . S
N294 C290 1.427 . S
N294 C291 1.384 . S
N295 C287 1.427 1_556 S
N295 C293 1.384 . S
H296 C302 0.930 . S
H297 C306 0.930 . S
H298 C311 0.929 . S
H299 C309 0.929 . S
H300 C304 0.929 . S
H301 C310 0.929 . S
C302 H296 0.930 . S
C302 C303 1.367 . S
C302 C310 1.378 . S
C303 C302 1.367 . S
C303 C311 1.433 . S
C304 H300 0.929 . S
C304 C306 1.378 . S
C304 C308 1.350 . S
C305 C308 1.463 1_545 S
C305 C310 1.350 . S
C305 N313 1.427 . S
C306 H297 0.930 . S
C306 C304 1.378 . S
C306 C307 1.367 . S
C307 C306 1.367 . S
C307 C309 1.433 . S
C308 C304 1.350 . S
C308 C305 1.463 1_565 S
C308 N312 1.427 . S
C309 H299 0.929 . S
C309 C307 1.433 . S
C309 N312 1.384 . S
C310 H301 0.929 . S
C310 C302 1.378 . S
C310 C305 1.350 . S
C311 H298 0.929 . S
C311 C303 1.433 . S
C311 N313 1.384 . S
N312 C308 1.427 . S
N312 C309 1.384 . S
N313 C305 1.427 . S
N313 C311 1.384 . S
H314 C320 0.930 . S
H315 C324 0.930 . S
H316 C329 0.929 . S
H317 C327 0.929 . S
H318 C322 0.929 . S
H319 C328 0.929 . S
C320 H314 0.930 . S
C320 C321 1.367 . S
C320 C328 1.378 . S
C321 C320 1.367 . S
C321 C329 1.433 . S
C322 H318 0.929 . S
C322 C324 1.378 . S
C322 C326 1.350 . S
C323 C326 1.463 1_655 S
C323 C328 1.350 . S
C323 N331 1.427 . S
C324 H315 0.930 . S
C324 C322 1.378 . S
C324 C325 1.367 . S
C325 C324 1.367 . S
C325 C327 1.433 . S
C326 C322 1.350 . S
C326 C323 1.463 1_455 S
C326 N330 1.427 . S
C327 H317 0.929 . S
C327 C325 1.433 . S
C327 N330 1.384 . S
C328 H319 0.929 . S
C328 C320 1.378 . S
C328 C323 1.350 . S
C329 H316 0.929 . S
C329 C321 1.433 . S
C329 N331 1.384 . S
N330 C326 1.427 . S
N330 C327 1.384 . S
N331 C323 1.427 . S
N331 C329 1.384 . S
H332 C338 0.930 . S
H333 C342 0.930 . S
H334 C347 0.929 . S
H335 C345 0.929 . S
H336 C340 0.929 . S
H337 C346 0.929 . S
C338 H332 0.930 . S
C338 C339 1.367 . S
C338 C346 1.378 . S
C339 C338 1.367 . S
C339 C347 1.433 . S
C340 H336 0.929 . S
C340 C342 1.378 . S
C340 C344 1.350 . S
C341 C344 1.463 1_545 S
C341 C346 1.350 . S
C341 N349 1.427 . S
C342 H333 0.930 . S
C342 C340 1.378 . S
C342 C343 1.367 . S
C343 C342 1.367 . S
C343 C345 1.433 . S
C344 C340 1.350 . S
C344 C341 1.463 1_565 S
C344 N348 1.427 . S
C345 H335 0.929 . S
C345 C343 1.433 . S
C345 N348 1.384 . S
C346 H337 0.929 . S
C346 C338 1.378 . S
C346 C341 1.350 . S
C347 H334 0.929 . S
C347 C339 1.433 . S
C347 N349 1.384 . S
N348 C344 1.427 . S
N348 C345 1.384 . S
N349 C341 1.427 . S
N349 C347 1.384 . S
H350 C356 0.930 . S
H351 C360 0.930 . S
H352 C365 0.929 . S
H353 C363 0.929 . S
H354 C358 0.929 . S
H355 C364 0.929 . S
C356 H350 0.930 . S
C356 C357 1.367 . S
C356 C364 1.378 . S
C357 C356 1.367 . S
C357 C365 1.433 . S
C358 H354 0.929 . S
C358 C360 1.378 . S
C358 C362 1.350 . S
C359 C362 1.463 1_455 S
C359 C364 1.350 . S
C359 N367 1.427 . S
C360 H351 0.930 . S
C360 C358 1.378 . S
C360 C361 1.367 . S
C361 C360 1.367 . S
C361 C363 1.433 . S
C362 C358 1.350 . S
C362 C359 1.463 1_655 S
C362 N366 1.427 . S
C363 H353 0.929 . S
C363 C361 1.433 . S
C363 N366 1.384 . S
C364 H355 0.929 . S
C364 C356 1.378 . S
C364 C359 1.350 . S
C365 H352 0.929 . S
C365 C357 1.433 . S
C365 N367 1.384 . S
N366 C362 1.427 . S
N366 C363 1.384 . S
N367 C359 1.427 . S
N367 C365 1.384 . S
H368 C374 0.930 . S
H369 C378 0.930 . S
H370 C383 0.929 . S
H371 C381 0.929 . S
H372 C376 0.929 . S
H373 C382 0.929 . S
C374 H368 0.930 . S
C374 C375 1.371 . S
C374 C382 1.378 . S
C375 C374 1.371 . S
C375 C383 1.429 1_554 S
C376 H372 0.929 . S
C376 C378 1.378 . S
C376 C380 1.341 1_556 S
C377 C380 1.463 . S
C377 C382 1.350 . S
C377 N385 1.427 1_554 S
C378 H369 0.930 . S
C378 C376 1.378 . S
C378 C379 1.367 1_556 S
C379 C378 1.367 1_554 S
C379 C381 1.433 . S
C380 C376 1.341 1_554 S
C380 C377 1.463 . S
C380 N384 1.437 . S
C381 H371 0.929 . S
C381 C379 1.433 . S
C381 N384 1.384 . S
C382 H373 0.929 . S
C382 C374 1.378 . S
C382 C377 1.350 . S
C383 H370 0.929 . S
C383 C375 1.429 1_556 S
C383 N385 1.384 . S
N384 C380 1.437 . S
N384 C381 1.384 . S
N385 C377 1.427 1_556 S
N385 C383 1.384 . S
H386 C392 0.930 . S
H387 C396 0.930 . S
H388 C401 0.929 . S
H389 C399 0.929 . S
H390 C394 0.929 . S
H391 C400 0.929 . S
C392 H386 0.930 . S
C392 C393 1.367 1_556 S
C392 C400 1.378 . S
C393 C392 1.367 1_554 S
C393 C401 1.433 . S
C394 H390 0.929 . S
C394 C396 1.378 . S
C394 C398 1.350 . S
C395 C398 1.463 . S
C395 C400 1.346 1_554 S
C395 N403 1.431 . S
C396 H387 0.930 . S
C396 C394 1.378 . S
C396 C397 1.378 . S
C397 C396 1.378 . S
C397 C399 1.422 1_554 S
C398 C394 1.350 . S
C398 C395 1.463 . S
C398 N402 1.427 1_554 S
C399 H389 0.929 . S
C399 C397 1.422 1_556 S
C399 N402 1.384 . S
C400 H391 0.929 . S
C400 C392 1.378 . S
C400 C395 1.346 1_556 S
C401 H388 0.929 . S
C401 C393 1.433 . S
C401 N403 1.384 . S
N402 C398 1.427 1_556 S
N402 C399 1.384 . S
N403 C395 1.431 . S
N403 C401 1.384 . S
H404 C410 0.930 . S
H405 C414 0.930 . S
H406 C419 0.929 . S
H407 C417 0.929 . S
H408 C412 0.929 . S
H409 C418 0.929 . S
C410 H404 0.930 . S
C410 C411 1.371 . S
C410 C418 1.378 . S
C411 C410 1.371 . S
C411 C419 1.429 1_554 S
C412 H408 0.929 . S
C412 C414 1.378 . S
C412 C416 1.341 1_556 S
C413 C416 1.463 . S
C413 C418 1.350 . S
C413 N421 1.427 1_554 S
C414 H405 0.930 . S
C414 C412 1.378 . S
C414 C415 1.367 1_556 S
C415 C414 1.367 1_554 S
C415 C417 1.433 . S
C416 C412 1.341 1_554 S
C416 C413 1.463 . S
C416 N420 1.437 . S
C417 H407 0.929 . S
C417 C415 1.433 . S
C417 N420 1.384 . S
C418 H409 0.929 . S
C418 C410 1.378 . S
C418 C413 1.350 . S
C419 H406 0.929 . S
C419 C411 1.429 1_556 S
C419 N421 1.384 . S
N420 C416 1.437 . S
N420 C417 1.384 . S
N421 C413 1.427 1_556 S
N421 C419 1.384 . S
H422 C428 0.930 . S
H423 C432 0.930 . S
H424 C437 0.929 . S
H425 C435 0.929 . S
H426 C430 0.929 . S
H427 C436 0.929 . S
C428 H422 0.930 . S
C428 C429 1.367 . S
C428 C436 1.378 . S
C429 C428 1.367 . S
C429 C437 1.433 1_554 S
C430 H426 0.929 . S
C430 C432 1.378 . S
C430 C434 1.359 . S
C431 C434 1.462 1_554 S
C431 C436 1.350 . S
C431 N439 1.427 1_554 S
C432 H423 0.930 . S
C432 C430 1.378 . S
C432 C433 1.367 . S
C433 C432 1.367 . S
C433 C435 1.433 1_556 S
C434 C430 1.359 . S
C434 C431 1.462 1_556 S
C434 N438 1.418 1_556 S
C435 H425 0.929 . S
C435 C433 1.433 1_554 S
C435 N438 1.384 . S
C436 H427 0.929 . S
C436 C428 1.378 . S
C436 C431 1.350 . S
C437 H424 0.929 . S
C437 C429 1.433 1_556 S
C437 N439 1.384 . S
N438 C434 1.418 1_554 S
N438 C435 1.384 . S
N439 C431 1.427 1_556 S
N439 C437 1.384 . S
H440 C446 0.930 . S
H441 C450 0.930 . S
H442 C455 0.929 . S
H443 C453 0.929 . S
H444 C448 0.929 . S
H445 C454 0.929 . S
C446 H440 0.930 . S
C446 C447 1.367 . S
C446 C454 1.378 . S
C447 C446 1.367 . S
C447 C455 1.433 . S
C448 H444 0.929 . S
C448 C450 1.378 . S
C448 C452 1.350 . S
C449 C452 1.463 . S
C449 C454 1.350 . S
C449 N457 1.427 . S
C450 H441 0.930 . S
C450 C448 1.378 . S
C450 C451 1.367 . S
C451 C450 1.367 . S
C451 C453 1.433 . S
C452 C448 1.350 . S
C452 C449 1.463 . S
C452 N456 1.427 . S
C453 H443 0.929 . S
C453 C451 1.433 . S
C453 N456 1.384 . S
C454 H445 0.929 . S
C454 C446 1.378 . S
C454 C449 1.350 . S
C455 H442 0.929 . S
C455 C447 1.433 . S
C455 N457 1.384 . S
N456 C452 1.427 . S
N456 C453 1.384 . S
N457 C449 1.427 . S
N457 C455 1.384 . S
H458 C464 0.930 . S
H459 C468 0.930 . S
H460 C473 0.929 . S
H461 C471 0.929 . S
H462 C466 0.929 . S
H463 C472 0.929 . S
C464 H458 0.930 . S
C464 C465 1.367 . S
C464 C472 1.378 . S
C465 C464 1.367 . S
C465 C473 1.433 . S
C466 H462 0.929 . S
C466 C468 1.378 . S
C466 C470 1.350 . S
C467 C470 1.463 . S
C467 C472 1.350 . S
C467 N475 1.427 . S
C468 H459 0.930 . S
C468 C466 1.378 . S
C468 C469 1.367 . S
C469 C468 1.367 . S
C469 C471 1.433 . S
C470 C466 1.350 . S
C470 C467 1.463 . S
C470 N474 1.427 . S
C471 H461 0.929 . S
C471 C469 1.433 . S
C471 N474 1.384 . S
C472 H463 0.929 . S
C472 C464 1.378 . S
C472 C467 1.350 . S
C473 H460 0.929 . S
C473 C465 1.433 . S
C473 N475 1.384 . S
N474 C470 1.427 . S
N474 C471 1.384 . S
N475 C467 1.427 . S
N475 C473 1.384 . S
H476 C482 0.930 . S
H477 C486 0.930 . S
H478 C491 0.929 . S
H479 C489 0.929 . S
H480 C484 0.929 . S
H481 C490 0.929 . S
C482 H476 0.930 . S
C482 C483 1.367 . S
C482 C490 1.378 . S
C483 C482 1.367 . S
C483 C491 1.433 . S
C484 H480 0.929 . S
C484 C486 1.378 . S
C484 C488 1.350 . S
C485 C488 1.463 . S
C485 C490 1.350 . S
C485 N493 1.427 . S
C486 H477 0.930 . S
C486 C484 1.378 . S
C486 C487 1.367 . S
C487 C486 1.367 . S
C487 C489 1.433 . S
C488 C484 1.350 . S
C488 C485 1.463 . S
C488 N492 1.427 . S
C489 H479 0.929 . S
C489 C487 1.433 . S
C489 N492 1.384 . S
C490 H481 0.929 . S
C490 C482 1.378 . S
C490 C485 1.350 . S
C491 H478 0.929 . S
C491 C483 1.433 . S
C491 N493 1.384 . S
N492 C488 1.427 . S
N492 C489 1.384 . S
N493 C485 1.427 . S
N493 C491 1.384 . S
H494 C500 0.930 . S
H495 C504 0.930 . S
H496 C509 0.929 . S
H497 C507 0.929 . S
H498 C502 0.929 . S
H499 C508 0.929 . S
C500 H494 0.930 . S
C500 C501 1.367 . S
C500 C508 1.378 . S
C501 C500 1.367 . S
C501 C509 1.433 . S
C502 H498 0.929 . S
C502 C504 1.378 . S
C502 C506 1.350 . S
C503 C506 1.463 . S
C503 C508 1.350 . S
C503 N511 1.427 . S
C504 H495 0.930 . S
C504 C502 1.378 . S
C504 C505 1.367 . S
C505 C504 1.367 . S
C505 C507 1.433 . S
C506 C502 1.350 . S
C506 C503 1.463 . S
C506 N510 1.427 . S
C507 H497 0.929 . S
C507 C505 1.433 . S
C507 N510 1.384 . S
C508 H499 0.929 . S
C508 C500 1.378 . S
C508 C503 1.350 . S
C509 H496 0.929 . S
C509 C501 1.433 . S
C509 N511 1.384 . S
N510 C506 1.427 . S
N510 C507 1.384 . S
N511 C503 1.427 . S
N511 C509 1.384 . S
H512 C518 0.930 . S
H513 C522 0.930 . S
H514 C527 0.929 . S
H515 C525 0.929 . S
H516 C520 0.929 . S
H517 C526 0.929 . S
C518 H512 0.930 . S
C518 C519 1.367 . S
C518 C526 1.378 . S
C519 C518 1.367 . S
C519 C527 1.433 . S
C520 H516 0.929 . S
C520 C522 1.378 . S
C520 C524 1.350 . S
C521 C524 1.463 . S
C521 C526 1.350 . S
C521 N529 1.427 . S
C522 H513 0.930 . S
C522 C520 1.378 . S
C522 C523 1.367 . S
C523 C522 1.367 . S
C523 C525 1.433 . S
C524 C520 1.350 . S
C524 C521 1.463 . S
C524 N528 1.427 . S
C525 H515 0.929 . S
C525 C523 1.433 . S
C525 N528 1.384 . S
C526 H517 0.929 . S
C526 C518 1.378 . S
C526 C521 1.350 . S
C527 H514 0.929 . S
C527 C519 1.433 . S
C527 N529 1.384 . S
N528 C524 1.427 . S
N528 C525 1.384 . S
N529 C521 1.427 . S
N529 C527 1.384 . S
H530 C536 0.930 . S
H531 C540 0.930 . S
H532 C545 0.929 . S
H533 C543 0.929 . S
H534 C538 0.929 . S
H535 C544 0.929 . S
C536 H530 0.930 . S
C536 C537 1.367 . S
C536 C544 1.378 . S
C537 C536 1.367 . S
C537 C545 1.433 . S
C538 H534 0.929 . S
C538 C540 1.378 . S
C538 C542 1.350 . S
C539 C542 1.463 . S
C539 C544 1.350 . S
C539 N547 1.427 . S
C540 H531 0.930 . S
C540 C538 1.378 . S
C540 C541 1.367 . S
C541 C540 1.367 . S
C541 C543 1.433 . S
C542 C538 1.350 . S
C542 C539 1.463 . S
C542 N546 1.427 . S
C543 H533 0.929 . S
C543 C541 1.433 . S
C543 N546 1.384 . S
C544 H535 0.929 . S
C544 C536 1.378 . S
C544 C539 1.350 . S
C545 H532 0.929 . S
C545 C537 1.433 . S
C545 N547 1.384 . S
N546 C542 1.427 . S
N546 C543 1.384 . S
N547 C539 1.427 . S
N547 C545 1.384 . S
H548 C554 0.930 . S
H549 C558 0.930 . S
H550 C563 0.929 . S
H551 C561 0.929 . S
H552 C556 0.929 . S
H553 C562 0.929 . S
C554 H548 0.930 . S
C554 C555 1.367 . S
C554 C562 1.378 . S
C555 C554 1.367 . S
C555 C563 1.433 . S
C556 H552 0.929 . S
C556 C558 1.378 . S
C556 C560 1.350 . S
C557 C560 1.463 . S
C557 C562 1.350 . S
C557 N565 1.427 . S
C558 H549 0.930 . S
C558 C556 1.378 . S
C558 C559 1.367 . S
C559 C558 1.367 . S
C559 C561 1.433 . S
C560 C556 1.350 . S
C560 C557 1.463 . S
C560 N564 1.427 . S
C561 H551 0.929 . S
C561 C559 1.433 . S
C561 N564 1.384 . S
C562 H553 0.929 . S
C562 C554 1.378 . S
C562 C557 1.350 . S
C563 H550 0.929 . S
C563 C555 1.433 . S
C563 N565 1.384 . S
N564 C560 1.427 . S
N564 C561 1.384 . S
N565 C557 1.427 . S
N565 C563 1.384 . S
H566 C572 0.930 . S
H567 C576 0.930 . S
H568 C581 0.929 . S
H569 C579 0.929 . S
H570 C574 0.929 . S
H571 C580 0.929 . S
C572 H566 0.930 . S
C572 C573 1.367 . S
C572 C580 1.378 . S
C573 C572 1.367 . S
C573 C581 1.433 . S
C574 H570 0.929 . S
C574 C576 1.378 . S
C574 C578 1.350 . S
C575 C578 1.463 . S
C575 C580 1.350 . S
C575 N583 1.427 . S
C576 H567 0.930 . S
C576 C574 1.378 . S
C576 C577 1.367 . S
C577 C576 1.367 . S
C577 C579 1.433 . S
C578 C574 1.350 . S
C578 C575 1.463 . S
C578 N582 1.427 . S
C579 H569 0.929 . S
C579 C577 1.433 . S
C579 N582 1.384 . S
C580 H571 0.929 . S
C580 C572 1.378 . S
C580 C575 1.350 . S
C581 H568 0.929 . S
C581 C573 1.433 . S
C581 N583 1.384 . S
N582 C578 1.427 . S
N582 C579 1.384 . S
N583 C575 1.427 . S
N583 C581 1.384 . S
H584 C590 0.930 . S
H585 C594 0.930 . S
H586 C599 0.929 . S
H587 C597 0.929 . S
H588 C592 0.929 . S
H589 C598 0.929 . S
C590 H584 0.930 . S
C590 C591 1.367 . S
C590 C598 1.378 . S
C591 C590 1.367 . S
C591 C599 1.433 . S
C592 H588 0.929 . S
C592 C594 1.378 . S
C592 C596 1.350 . S
C593 C596 1.463 . S
C593 C598 1.350 . S
C593 N601 1.427 . S
C594 H585 0.930 . S
C594 C592 1.378 . S
C594 C595 1.367 . S
C595 C594 1.367 . S
C595 C597 1.433 . S
C596 C592 1.350 . S
C596 C593 1.463 . S
C596 N600 1.427 . S
C597 H587 0.929 . S
C597 C595 1.433 . S
C597 N600 1.384 . S
C598 H589 0.929 . S
C598 C590 1.378 . S
C598 C593 1.350 . S
C599 H586 0.929 . S
C599 C591 1.433 . S
C599 N601 1.384 . S
N600 C596 1.427 . S
N600 C597 1.384 . S
N601 C593 1.427 . S
N601 C599 1.384 . S
H602 C608 0.930 . S
H603 C612 0.930 . S
H604 C617 0.929 . S
H605 C615 0.929 . S
H606 C610 0.929 . S
H607 C616 0.929 . S
C608 H602 0.930 . S
C608 C609 1.367 . S
C608 C616 1.378 . S
C609 C608 1.367 . S
C609 C617 1.433 . S
C610 H606 0.929 . S
C610 C612 1.378 . S
C610 C614 1.350 . S
C611 C614 1.463 . S
C611 C616 1.350 . S
C611 N619 1.427 . S
C612 H603 0.930 . S
C612 C610 1.378 . S
C612 C613 1.367 . S
C613 C612 1.367 . S
C613 C615 1.433 . S
C614 C610 1.350 . S
C614 C611 1.463 . S
C614 N618 1.427 . S
C615 H605 0.929 . S
C615 C613 1.433 . S
C615 N618 1.384 . S
C616 H607 0.929 . S
C616 C608 1.378 . S
C616 C611 1.350 . S
C617 H604 0.929 . S
C617 C609 1.433 . S
C617 N619 1.384 . S
N618 C614 1.427 . S
N618 C615 1.384 . S
N619 C611 1.427 . S
N619 C617 1.384 . S
H620 C626 0.930 . S
H621 C630 0.930 . S
H622 C635 0.929 . S
H623 C633 0.929 . S
H624 C628 0.929 . S
H625 C634 0.929 . S
C626 H620 0.930 . S
C626 C627 1.367 . S
C626 C634 1.378 . S
C627 C626 1.367 . S
C627 C635 1.433 . S
C628 H624 0.929 . S
C628 C630 1.378 . S
C628 C632 1.350 . S
C629 C632 1.463 . S
C629 C634 1.350 . S
C629 N637 1.427 . S
C630 H621 0.930 . S
C630 C628 1.378 . S
C630 C631 1.367 . S
C631 C630 1.367 . S
C631 C633 1.433 . S
C632 C628 1.350 . S
C632 C629 1.463 . S
C632 N636 1.427 . S
C633 H623 0.929 . S
C633 C631 1.433 . S
C633 N636 1.384 . S
C634 H625 0.929 . S
C634 C626 1.378 . S
C634 C629 1.350 . S
C635 H622 0.929 . S
C635 C627 1.433 . S
C635 N637 1.384 . S
N636 C632 1.427 . S
N636 C633 1.384 . S
N637 C629 1.427 . S
N637 C635 1.384 . S
H638 C644 0.930 . S
H639 C648 0.930 . S
H640 C653 0.929 . S
H641 C651 0.929 . S
H642 C646 0.929 . S
H643 C652 0.929 . S
C644 H638 0.930 . S
C644 C645 1.367 . S
C644 C652 1.378 . S
C645 C644 1.367 . S
C645 C653 1.433 . S
C646 H642 0.929 . S
C646 C648 1.378 . S
C646 C650 1.350 . S
C647 C650 1.463 . S
C647 C652 1.350 . S
C647 N655 1.427 . S
C648 H639 0.930 . S
C648 C646 1.378 . S
C648 C649 1.367 . S
C649 C648 1.367 . S
C649 C651 1.433 . S
C650 C646 1.350 . S
C650 C647 1.463 . S
C650 N654 1.427 . S
C651 H641 0.929 . S
C651 C649 1.433 . S
C651 N654 1.384 . S
C652 H643 0.929 . S
C652 C644 1.378 . S
C652 C647 1.350 . S
C653 H640 0.929 . S
C653 C645 1.433 . S
C653 N655 1.384 . S
N654 C650 1.427 . S
N654 C651 1.384 . S
N655 C647 1.427 . S
N655 C653 1.384 . S
H656 C662 0.930 . S
H657 C666 0.930 . S
H658 C671 0.929 . S
H659 C669 0.929 . S
H660 C664 0.929 . S
H661 C670 0.929 . S
C662 H656 0.930 . S
C662 C663 1.367 . S
C662 C670 1.378 . S
C663 C662 1.367 . S
C663 C671 1.433 . S
C664 H660 0.929 . S
C664 C666 1.378 . S
C664 C668 1.350 . S
C665 C668 1.463 . S
C665 C670 1.350 . S
C665 N673 1.427 . S
C666 H657 0.930 . S
C666 C664 1.378 . S
C666 C667 1.367 . S
C667 C666 1.367 . S
C667 C669 1.433 . S
C668 C664 1.350 . S
C668 C665 1.463 . S
C668 N672 1.427 . S
C669 H659 0.929 . S
C669 C667 1.433 . S
C669 N672 1.384 . S
C670 H661 0.929 . S
C670 C662 1.378 . S
C670 C665 1.350 . S
C671 H658 0.929 . S
C671 C663 1.433 . S
C671 N673 1.384 . S
N672 C668 1.427 . S
N672 C669 1.384 . S
N673 C665 1.427 . S
N673 C671 1.384 . S
H674 C680 0.930 . S
H675 C684 0.930 . S
H676 C689 0.929 . S
H677 C687 0.929 . S
H678 C682 0.929 . S
H679 C688 0.929 . S
C680 H674 0.930 . S
C680 C681 1.367 . S
C680 C688 1.378 . S
C681 C680 1.367 . S
C681 C689 1.433 . S
C682 H678 0.929 . S
C682 C684 1.378 . S
C682 C686 1.350 . S
C683 C686 1.463 . S
C683 C688 1.350 . S
C683 N691 1.427 . S
C684 H675 0.930 . S
C684 C682 1.378 . S
C684 C685 1.367 . S
C685 C684 1.367 . S
C685 C687 1.433 . S
C686 C682 1.350 . S
C686 C683 1.463 . S
C686 N690 1.427 . S
C687 H677 0.929 . S
C687 C685 1.433 . S
C687 N690 1.384 . S
C688 H679 0.929 . S
C688 C680 1.378 . S
C688 C683 1.350 . S
C689 H676 0.929 . S
C689 C681 1.433 . S
C689 N691 1.384 . S
N690 C686 1.427 . S
N690 C687 1.384 . S
N691 C683 1.427 . S
N691 C689 1.384 . S
H692 C698 0.930 . S
H693 C702 0.930 . S
H694 C707 0.929 . S
H695 C705 0.929 . S
H696 C700 0.929 . S
H697 C706 0.929 . S
C698 H692 0.930 . S
C698 C699 1.367 . S
C698 C706 1.378 . S
C699 C698 1.367 . S
C699 C707 1.433 . S
C700 H696 0.929 . S
C700 C702 1.378 . S
C700 C704 1.350 . S
C701 C704 1.463 . S
C701 C706 1.350 . S
C701 N709 1.427 . S
C702 H693 0.930 . S
C702 C700 1.378 . S
C702 C703 1.367 . S
C703 C702 1.367 . S
C703 C705 1.433 . S
C704 C700 1.350 . S
C704 C701 1.463 . S
C704 N708 1.427 . S
C705 H695 0.929 . S
C705 C703 1.433 . S
C705 N708 1.384 . S
C706 H697 0.929 . S
C706 C698 1.378 . S
C706 C701 1.350 . S
C707 H694 0.929 . S
C707 C699 1.433 . S
C707 N709 1.384 . S
N708 C704 1.427 . S
N708 C705 1.384 . S
N709 C701 1.427 . S
N709 C707 1.384 . S
H710 C716 0.930 . S
H711 C720 0.930 . S
H712 C725 0.929 . S
H713 C723 0.929 . S
H714 C718 0.929 . S
H715 C724 0.929 . S
C716 H710 0.930 . S
C716 C717 1.367 . S
C716 C724 1.378 . S
C717 C716 1.367 . S
C717 C725 1.433 . S
C718 H714 0.929 . S
C718 C720 1.378 . S
C718 C722 1.350 . S
C719 C722 1.463 . S
C719 C724 1.350 . S
C719 N727 1.427 . S
C720 H711 0.930 . S
C720 C718 1.378 . S
C720 C721 1.367 . S
C721 C720 1.367 . S
C721 C723 1.433 . S
C722 C718 1.350 . S
C722 C719 1.463 . S
C722 N726 1.427 . S
C723 H713 0.929 . S
C723 C721 1.433 . S
C723 N726 1.384 . S
C724 H715 0.929 . S
C724 C716 1.378 . S
C724 C719 1.350 . S
C725 H712 0.929 . S
C725 C717 1.433 . S
C725 N727 1.384 . S
N726 C722 1.427 . S
N726 C723 1.384 . S
N727 C719 1.427 . S
N727 C725 1.384 . S
H728 C734 0.930 . S
H729 C738 0.930 . S
H730 C743 0.929 . S
H731 C741 0.929 . S
H732 C736 0.929 . S
H733 C742 0.929 . S
C734 H728 0.930 . S
C734 C735 1.367 . S
C734 C742 1.378 . S
C735 C734 1.367 . S
C735 C743 1.433 . S
C736 H732 0.929 . S
C736 C738 1.378 . S
C736 C740 1.350 . S
C737 C740 1.463 . S
C737 C742 1.350 . S
C737 N745 1.427 . S
C738 H729 0.930 . S
C738 C736 1.378 . S
C738 C739 1.367 . S
C739 C738 1.367 . S
C739 C741 1.433 . S
C740 C736 1.350 . S
C740 C737 1.463 . S
C740 N744 1.427 . S
C741 H731 0.929 . S
C741 C739 1.433 . S
C741 N744 1.384 . S
C742 H733 0.929 . S
C742 C734 1.378 . S
C742 C737 1.350 . S
C743 H730 0.929 . S
C743 C735 1.433 . S
C743 N745 1.384 . S
N744 C740 1.427 . S
N744 C741 1.384 . S
N745 C737 1.427 . S
N745 C743 1.384 . S
H746 C752 0.930 . S
H747 C756 0.930 . S
H748 C761 0.929 . S
H749 C759 0.929 . S
H750 C754 0.929 . S
H751 C760 0.929 . S
C752 H746 0.930 . S
C752 C753 1.367 . S
C752 C760 1.378 . S
C753 C752 1.367 . S
C753 C761 1.433 . S
C754 H750 0.929 . S
C754 C756 1.378 . S
C754 C758 1.350 . S
C755 C758 1.463 . S
C755 C760 1.350 . S
C755 N763 1.427 . S
C756 H747 0.930 . S
C756 C754 1.378 . S
C756 C757 1.367 . S
C757 C756 1.367 . S
C757 C759 1.433 . S
C758 C754 1.350 . S
C758 C755 1.463 . S
C758 N762 1.427 . S
C759 H749 0.929 . S
C759 C757 1.433 . S
C759 N762 1.384 . S
C760 H751 0.929 . S
C760 C752 1.378 . S
C760 C755 1.350 . S
C761 H748 0.929 . S
C761 C753 1.433 . S
C761 N763 1.384 . S
N762 C758 1.427 . S
N762 C759 1.384 . S
N763 C755 1.427 . S
N763 C761 1.384 . S
H764 C770 0.930 . S
H765 C774 0.930 . S
H766 C779 0.929 . S
H767 C777 0.929 . S
H768 C772 0.929 . S
H769 C778 0.929 . S
C770 H764 0.930 . S
C770 C771 1.367 . S
C770 C778 1.378 . S
C771 C770 1.367 . S
C771 C779 1.433 . S
C772 H768 0.929 . S
C772 C774 1.378 . S
C772 C776 1.350 . S
C773 C776 1.463 . S
C773 C778 1.350 . S
C773 N781 1.427 . S
C774 H765 0.930 . S
C774 C772 1.378 . S
C774 C775 1.367 . S
C775 C774 1.367 . S
C775 C777 1.433 . S
C776 C772 1.350 . S
C776 C773 1.463 . S
C776 N780 1.427 . S
C777 H767 0.929 . S
C777 C775 1.433 . S
C777 N780 1.384 . S
C778 H769 0.929 . S
C778 C770 1.378 . S
C778 C773 1.350 . S
C779 H766 0.929 . S
C779 C771 1.433 . S
C779 N781 1.384 . S
N780 C776 1.427 . S
N780 C777 1.384 . S
N781 C773 1.427 . S
N781 C779 1.384 . S
H782 C788 0.930 . S
H783 C792 0.930 . S
H784 C797 0.929 . S
H785 C795 0.929 . S
H786 C790 0.929 . S
H787 C796 0.929 . S
C788 H782 0.930 . S
C788 C789 1.367 . S
C788 C796 1.378 . S
C789 C788 1.367 . S
C789 C797 1.433 . S
C790 H786 0.929 . S
C790 C792 1.378 . S
C790 C794 1.350 . S
C791 C794 1.463 . S
C791 C796 1.350 . S
C791 N799 1.427 . S
C792 H783 0.930 . S
C792 C790 1.378 . S
C792 C793 1.367 . S
C793 C792 1.367 . S
C793 C795 1.433 . S
C794 C790 1.350 . S
C794 C791 1.463 . S
C794 N798 1.427 . S
C795 H785 0.929 . S
C795 C793 1.433 . S
C795 N798 1.384 . S
C796 H787 0.929 . S
C796 C788 1.378 . S
C796 C791 1.350 . S
C797 H784 0.929 . S
C797 C789 1.433 . S
C797 N799 1.384 . S
N798 C794 1.427 . S
N798 C795 1.384 . S
N799 C791 1.427 . S
N799 C797 1.384 . S
C231 C67 1.191 . S
C235 C11 1.191 . S
C249 C81 1.195 . S
C253 C25 1.194 . S
C267 C95 1.188 . S
C271 C39 1.188 . S
C285 C109 1.191 . S
C289 C53 1.192 . S
C303 C179 1.192 . S
C307 C123 1.191 . S
C321 C193 1.191 . S
C325 C137 1.192 . S
C339 C151 1.188 . S
C343 C207 1.188 . S
C357 C221 1.189 . S
C361 C165 1.190 . S
C375 C4 1.107 1_554 S
C379 C74 1.110 . S
C393 C88 1.111 . S
C397 C18 1.107 1_554 S
C411 C32 1.108 1_554 S
C415 C102 1.108 . S
C429 C60 1.097 . S
C433 C46 1.097 . S
C447 C186 1.104 . S
C451 C116 1.107 . S
C465 C200 1.105 . S
C469 C130 1.103 . S
C483 C144 1.110 . S
C487 C214 1.108 . S
C501 C158 1.097 . S
C505 C172 1.098 . S
C519 C215 1.201 . S
C523 C5 1.204 . S
C537 C173 1.189 . S
C541 C19 1.212 . S
C555 C187 1.213 . S
C559 C33 1.186 . S
C573 C201 1.196 . S
C577 C47 1.190 . S
C591 C131 1.213 . S
C595 C61 1.184 . S
C609 C145 1.211 . S
C613 C75 1.183 . S
C627 C89 1.202 . S
C631 C159 1.185 . S
C645 C103 1.206 . S
C649 C117 1.199 . S
C663 C194 1.677 . S
C667 C40 1.676 . S
C681 C208 1.679 . S
C685 C54 1.677 . S
C699 C222 1.678 . S
C703 C12 1.676 . S
C717 C26 1.678 . S
C721 C180 1.676 . S
C735 C166 1.677 . S
C739 C96 1.679 . S
C753 C110 1.677 . S
C757 C124 1.676 . S
C771 C138 1.678 . S
C775 C68 1.676 . S
C789 C152 1.678 . S
C793 C82 1.678 . S
