# Generated by pormake.
# Topology umj, (4)-cn, num edge types: 1
# Building blocks:
#     Node 0, Type 0, BuildingBlock: NAWXER_clean_sbu_0, # of connection points: 4
#     Node 1, Type 0, BuildingBlock: NAWXER_clean_sbu_0, # of connection points: 4
#     Node 2, Type 0, BuildingBlock: NAWXER_clean_sbu_0, # of connection points: 4
#     Node 3, Type 0, BuildingBlock: NAWXER_clean_sbu_0, # of connection points: 4
#     Node 4, Type 0, BuildingBlock: NAWXER_clean_sbu_0, # of connection points: 4
#     Node 5, Type 0, BuildingBlock: NAWXER_clean_sbu_0, # of connection points: 4
#     Node 6, Type 0, BuildingBlock: NAWXER_clean_sbu_0, # of connection points: 4
#     Node 7, Type 0, BuildingBlock: NAWXER_clean_sbu_0, # of connection points: 4
#     Node 8, Type 0, BuildingBlock: NAWXER_clean_sbu_0, # of connection points: 4
#     Node 9, Type 0, BuildingBlock: NAWXER_clean_sbu_0, # of connection points: 4
#     Node 10, Type 0, BuildingBlock: NAWXER_clean_sbu_0, # of connection points: 4
#     Node 11, Type 0, BuildingBlock: NAWXER_clean_sbu_0, # of connection points: 4
#     Edge 12, Type (0, 0), BuildingBlock: CIFDUS_clean_linker_0, # of connection points: 2
#     Edge 13, Type (0, 0), BuildingBlock: CIFDUS_clean_linker_0, # of connection points: 2
#     Edge 14, Type (0, 0), BuildingBlock: CIFDUS_clean_linker_0, # of connection points: 2
#     Edge 15, Type (0, 0), BuildingBlock: CIFDUS_clean_linker_0, # of connection points: 2
#     Edge 16, Type (0, 0), BuildingBlock: CIFDUS_clean_linker_0, # of connection points: 2
#     Edge 17, Type (0, 0), BuildingBlock: CIFDUS_clean_linker_0, # of connection points: 2
#     Edge 18, Type (0, 0), BuildingBlock: CIFDUS_clean_linker_0, # of connection points: 2
#     Edge 19, Type (0, 0), BuildingBlock: CIFDUS_clean_linker_0, # of connection points: 2
#     Edge 20, Type (0, 0), BuildingBlock: CIFDUS_clean_linker_0, # of connection points: 2
#     Edge 21, Type (0, 0), BuildingBlock: CIFDUS_clean_linker_0, # of connection points: 2
#     Edge 22, Type (0, 0), BuildingBlock: CIFDUS_clean_linker_0, # of connection points: 2
#     Edge 23, Type (0, 0), BuildingBlock: CIFDUS_clean_linker_0, # of connection points: 2
#     Edge 24, Type (0, 0), BuildingBlock: CIFDUS_clean_linker_0, # of connection points: 2
#     Edge 25, Type (0, 0), BuildingBlock: CIFDUS_clean_linker_0, # of connection points: 2
#     Edge 26, Type (0, 0), BuildingBlock: CIFDUS_clean_linker_0, # of connection points: 2
#     Edge 27, Type (0, 0), BuildingBlock: CIFDUS_clean_linker_0, # of connection points: 2
#     Edge 28, Type (0, 0), BuildingBlock: CIFDUS_clean_linker_0, # of connection points: 2
#     Edge 29, Type (0, 0), BuildingBlock: CIFDUS_clean_linker_0, # of connection points: 2
#     Edge 30, Type (0, 0), BuildingBlock: CIFDUS_clean_linker_0, # of connection points: 2
#     Edge 31, Type (0, 0), BuildingBlock: CIFDUS_clean_linker_0, # of connection points: 2
#     Edge 32, Type (0, 0), BuildingBlock: CIFDUS_clean_linker_0, # of connection points: 2
#     Edge 33, Type (0, 0), BuildingBlock: CIFDUS_clean_linker_0, # of connection points: 2
#     Edge 34, Type (0, 0), BuildingBlock: CIFDUS_clean_linker_0, # of connection points: 2
#     Edge 35, Type (0, 0), BuildingBlock: CIFDUS_clean_linker_0, # of connection points: 2
# Relax obj value: 0.019
# Max RMSD: 0.123
# Mean RMSD: 0.123
data_MOF--net-umj--node1-NAWXER_clean_sbu_0--edge1-CIFDUS_clean_linker_0
_symmetry_space_group_name_H-M    P1
_symmetry_Int_Tables_number       1
_symmetry_cell_setting            triclinic
loop_
_symmetry_equiv_pos_as_xyz
'x, y, z'
_cell_length_a     25.727667
_cell_length_b     25.66626
_cell_length_c     73.770522
_cell_angle_alpha  89.958406
_cell_angle_beta   89.955471
_cell_angle_gamma 119.88965
loop_
_atom_site_label
_atom_site_type_symbol
_atom_site_fract_x
_atom_site_fract_y
_atom_site_fract_z
_atom_type_partial_charge
C0 C 0.05036 0.25985 0.13005 0.0
C1 C 0.14429 0.30953 0.06964 0.0
O2 O 0.10634 0.28421 0.12684 0.0
Zn3 Zn 0.10236 0.28576 0.10029 0.0
O4 O 0.01382 0.24604 0.1168 0.0
Zn5 Zn 0.01408 0.2503 0.08826 0.0
O6 O 0.97037 0.1655 0.08156 0.0
O7 O 0.05934 0.19343 0.0933 0.0
O8 O 0.08716 0.28555 0.06983 0.0
O9 O 0.17279 0.31726 0.08444 0.0
O10 O 0.07429 0.34981 0.09567 0.0
O11 O 0.9829 0.30454 0.08412 0.0
C12 C 0.01034 0.15273 0.08629 0.0
C13 C 0.02908 0.35234 0.08952 0.0
C14 C 0.80576 0.11333 0.39989 0.0
C15 C 0.77961 0.04556 0.463 0.0
O16 O 0.82511 0.14603 0.41399 0.0
Zn17 Zn 0.79535 0.08149 0.4315 0.0
O18 O 0.77774 0.05593 0.40149 0.0
Zn19 Zn 0.74918 0.99019 0.42285 0.0
O20 O 0.66296 0.94814 0.41971 0.0
O21 O 0.70049 0.04261 0.42822 0.0
O22 O 0.75713 1.00214 0.45162 0.0
O23 O 0.80625 0.09939 0.45719 0.0
O24 O 0.8518 0.04392 0.42653 0.0
O25 O 0.79457 0.94972 0.41807 0.0
C26 C 0.65531 0.99211 0.4237 0.0
C27 C 0.84641 0.99367 0.42152 0.0
C28 C 0.73423 0.79489 0.79846 0.0
C29 C 0.69861 0.81704 0.73455 0.0
O30 O 0.70796 0.82127 0.79176 0.0
Zn31 Zn 0.71681 0.80795 0.76645 0.0
O32 O 0.75579 0.77094 0.78781 0.0
Zn33 Zn 0.76168 0.76043 0.75918 0.0
O34 O 0.84755 0.80456 0.75483 0.0
O35 O 0.81104 0.86344 0.76195 0.0
O36 O 0.72687 0.78814 0.7369 0.0
O37 O 0.68453 0.83776 0.74818 0.0
O38 O 0.66028 0.7125 0.76369 0.0
O39 O 0.71752 0.67397 0.75657 0.0
C40 C 0.85575 0.85704 0.75759 0.0
C41 C 0.66579 0.66674 0.75989 0.0
C42 C 0.99828 0.64668 0.09266 0.0
C43 C 0.0186 0.84678 0.08879 0.0
O44 O 0.04639 0.69535 0.08899 0.0
Zn45 Zn 0.01375 0.74887 0.09161 0.0
O46 O 0.95089 0.64834 0.09697 0.0
Zn47 Zn 0.92135 0.71201 0.09995 0.0
O48 O 0.85831 0.68306 0.08156 0.0
O49 O 0.94933 0.71658 0.07035 0.0
O50 O 0.96691 0.80526 0.09398 0.0
O51 O 0.06022 0.83452 0.08606 0.0
O52 O 1.00164 0.74863 0.12 0.0
O53 O 0.90545 0.70959 0.12601 0.0
C54 C 0.89273 0.69277 0.06799 0.0
C55 C 0.95933 0.73299 0.13157 0.0
C56 C 0.16782 0.0166 0.42283 0.0
C57 C 0.35883 0.01812 0.4249 0.0
O58 O 0.21996 0.06099 0.42001 0.0
Zn59 Zn 0.26505 0.02 0.42436 0.0
O60 O 0.162 0.96569 0.42728 0.0
Zn61 Zn 0.21826 0.92773 0.43191 0.0
O62 O 0.20591 0.9064 0.45734 0.0
O63 O 0.25595 1.00436 0.453 0.0
O64 O 0.31346 0.96701 0.42891 0.0
O65 O 0.35135 0.06259 0.42154 0.0
O66 O 0.23835 0.95699 0.40228 0.0
O67 O 0.18965 0.86533 0.41378 0.0
C68 C 0.23271 0.9593 0.46383 0.0
C69 C 0.2104 0.89982 0.40007 0.0
C70 C 0.31213 0.22249 0.73142 0.0
C71 C 0.27792 0.23663 0.79616 0.0
O72 O 0.32686 0.19987 0.74443 0.0
Zn73 Zn 0.29484 0.22669 0.76384 0.0
O74 O 0.28349 0.25041 0.73474 0.0
Zn75 Zn 0.24895 0.27466 0.75766 0.0
O76 O 0.29276 0.36147 0.756 0.0
O77 O 0.35042 0.32248 0.76197 0.0
O78 O 0.25597 0.26104 0.78587 0.0
O79 O 0.30464 0.21119 0.78908 0.0
O80 O 0.20039 0.17131 0.75983 0.0
O81 O 0.16294 0.23014 0.75375 0.0
C82 C 0.34463 0.36853 0.75894 0.0
C83 C 0.15522 0.17764 0.75609 0.0
C84 C 0.66005 0.98588 0.60497 0.0
C85 C 0.8407 0.96653 0.60459 0.0
O86 O 0.71355 0.02726 0.60814 0.0
Zn87 Zn 0.75215 0.97964 0.60443 0.0
O88 O 0.64995 0.93324 0.60067 0.0
Zn89 Zn 0.6994 0.88722 0.59663 0.0
O90 O 0.6652 0.82474 0.61504 0.0
O91 O 0.71576 0.91663 0.62627 0.0
O92 O 0.79266 0.91825 0.60024 0.0
O93 O 0.83823 0.01387 0.60799 0.0
O94 O 0.74285 0.96483 0.57594 0.0
O95 O 0.68765 0.86754 0.57093 0.0
C96 C 0.68405 0.85973 0.62868 0.0
C97 C 0.71758 0.92089 0.56481 0.0
C98 C 0.79059 0.71105 0.96807 0.0
C99 C 0.78126 0.7414 0.90261 0.0
O100 O 0.81343 0.69437 0.95561 0.0
Zn101 Zn 0.78935 0.7258 0.93522 0.0
O102 O 0.76394 0.74025 0.96387 0.0
Zn103 Zn 0.74148 0.77313 0.94036 0.0
O104 O 0.65449 0.72884 0.94153 0.0
O105 O 0.69408 0.67106 0.93658 0.0
O106 O 0.75681 0.76414 0.91255 0.0
O107 O 0.80595 0.71452 0.9101 0.0
O108 O 0.84479 0.82044 0.93882 0.0
O109 O 0.78691 0.85973 0.94375 0.0
C110 C 0.64787 0.67676 0.93905 0.0
C111 C 0.83911 0.86645 0.94195 0.0
C112 C 0.17056 0.83729 0.29461 0.0
C113 C 0.09812 0.803 0.23169 0.0
O114 O 0.2039 0.85573 0.28057 0.0
Zn115 Zn 0.13856 0.82215 0.26301 0.0
O116 O 0.11344 0.80797 0.29289 0.0
Zn117 Zn 0.04657 0.77564 0.27221 0.0
O118 O 1.00766 0.68877 0.27645 0.0
O119 O 0.10198 0.72836 0.26778 0.0
O120 O 0.05619 0.78162 0.24356 0.0
O121 O 0.15249 0.82989 0.23691 0.0
O122 O 0.10158 0.87847 0.26813 0.0
O123 O 1.00779 0.82368 0.27716 0.0
C124 C 0.05278 0.68259 0.27288 0.0
C125 C 0.05273 0.87505 0.27356 0.0
C126 C 0.32812 0.11332 0.6322 0.0
C127 C 0.29701 0.0659 0.56732 0.0
O128 O 0.34745 0.15118 0.61924 0.0
Zn129 Zn 0.31405 0.09293 0.59968 0.0
O130 O 0.29628 0.05707 0.62877 0.0
Zn131 Zn 0.26056 0.99899 0.60584 0.0
O132 O 0.29867 0.95037 0.60814 0.0
O133 O 0.36289 0.04577 0.60235 0.0
O134 O 0.27119 0.01987 0.5777 0.0
O135 O 0.32716 0.11792 0.57432 0.0
O136 O 0.22066 0.06149 0.60311 0.0
O137 O 0.17431 0.96443 0.60911 0.0
C138 C 0.3524 0.99227 0.60555 0.0
C139 C 0.17223 0.01246 0.60665 0.0
C140 C 0.2241 0.28556 0.9001 0.0
C141 C 0.20522 0.3197 0.96449 0.0
O142 O 0.19833 0.31227 0.90696 0.0
Zn143 Zn 0.21223 0.30264 0.93225 0.0
O144 O 0.24783 0.26342 0.9106 0.0
Zn145 Zn 0.25939 0.25646 0.93902 0.0
O146 O 0.21422 0.17008 0.94309 0.0
O147 O 0.15645 0.20834 0.93657 0.0
O148 O 0.23294 0.29058 0.96163 0.0
O149 O 0.18465 0.33524 0.95113 0.0
O150 O 0.30716 0.35826 0.93468 0.0
O151 O 0.34607 0.30097 0.94133 0.0
C152 C 0.16209 0.16286 0.94061 0.0
C153 C 0.353 0.35286 0.9382 0.0
C154 C 0.96372 0.22991 0.23539 0.0
C155 C 0.86953 0.18788 0.29572 0.0
O156 O 0.90754 0.20198 0.23855 0.0
Zn157 Zn 0.91159 0.20666 0.26509 0.0
O158 O 1.00038 0.24988 0.24868 0.0
Zn159 Zn 1.0003 0.25261 0.27724 0.0
O160 O 0.03795 0.20421 0.2833 0.0
O161 O 0.94753 0.15046 0.2716 0.0
O162 O 0.92692 0.21759 0.29565 0.0
O163 O 0.8409 0.17079 0.2808 0.0
O164 O 0.94634 0.29992 0.27019 0.0
O165 O 0.03721 0.33908 0.28183 0.0
C166 C 0.99466 0.15342 0.27838 0.0
C167 C 0.99352 0.34537 0.2765 0.0
H168 H 0.90263 0.19234 0.20327 0.0
H169 H 0.08136 0.28975 0.22551 0.0
H170 H 0.12416 0.3064 0.19524 0.0
H171 H 0.11158 0.29452 0.16219 0.0
H172 H 0.93286 0.19762 0.13994 0.0
H173 H 0.89007 0.1797 0.17024 0.0
C174 C 0.95089 0.21722 0.20149 0.0
C175 C 0.98842 0.23969 0.21671 0.0
C176 C 0.97562 0.22682 0.18395 0.0
C177 C 0.05104 0.27181 0.2141 0.0
C178 C 0.07582 0.28144 0.19674 0.0
C179 C 0.06333 0.26927 0.16398 0.0
C180 C 0.02577 0.24767 0.14875 0.0
C181 C 0.03862 0.25923 0.18154 0.0
C182 C 0.96316 0.21511 0.15137 0.0
C183 C 0.93841 0.20474 0.16874 0.0
H184 H 0.7219 0.93565 0.47921 0.0
H185 H 0.82393 0.12539 0.49117 0.0
H186 H 0.81368 0.10307 0.5236 0.0
H187 H 0.77575 0.03013 0.54845 0.0
H188 H 0.6732 0.84032 0.53668 0.0
H189 H 0.68377 0.86244 0.50418 0.0
C190 C 0.74201 0.97224 0.48888 0.0
C191 C 0.77373 0.03221 0.48271 0.0
C192 C 0.73584 0.95909 0.50752 0.0
C193 C 0.79931 0.07889 0.4955 0.0
C194 C 0.79346 0.06615 0.51405 0.0
C195 C 0.75565 0.99341 0.53882 0.0
C196 C 0.7237 0.93354 0.54505 0.0
C197 C 0.76181 1.00646 0.5202 0.0
C198 C 0.69799 0.88675 0.5323 0.0
C199 C 0.70404 0.8994 0.51371 0.0
H200 H 0.78636 0.74045 0.81681 0.0
H201 H 0.69414 0.84053 0.82496 0.0
H202 H 0.70158 0.83311 0.85771 0.0
H203 H 0.73293 0.79769 0.8839 0.0
H204 H 0.82482 0.69716 0.87629 0.0
H205 H 0.81888 0.70548 0.84335 0.0
C206 C 0.76794 0.76075 0.82573 0.0
C207 C 0.73963 0.791 0.81837 0.0
C208 C 0.77227 0.75623 0.84461 0.0
C209 C 0.71609 0.81698 0.83019 0.0
C210 C 0.72032 0.81275 0.84894 0.0
C211 C 0.75183 0.77753 0.87511 0.0
C212 C 0.77926 0.74671 0.88262 0.0
C213 C 0.74812 0.78238 0.85628 0.0
C214 C 0.80347 0.72109 0.87091 0.0
C215 C 0.80003 0.72583 0.85207 0.0
H216 H 0.07054 0.78655 0.14647 0.0
H217 H 0.88301 0.70087 0.16081 0.0
H218 H 0.9098 0.71556 0.19299 0.0
H219 H 0.98636 0.7517 0.21694 0.0
H220 H 0.17377 0.83752 0.2024 0.0
H221 H 0.14685 0.8237 0.17029 0.0
C222 C 0.0353 0.77101 0.15659 0.0
C223 C 0.97468 0.74243 0.15116 0.0
C224 C 0.05103 0.7796 0.17501 0.0
C225 C 0.92993 0.72293 0.16455 0.0
C226 C 0.94526 0.73129 0.18295 0.0
C227 C 0.02148 0.76748 0.20677 0.0
C228 C 0.08216 0.79557 0.21214 0.0
C229 C 1.00566 0.7594 0.18833 0.0
C230 C 0.12683 0.81578 0.19871 0.0
C231 C 0.11143 0.80785 0.18034 0.0
H232 H 0.23653 0.96011 0.54935 0.0
H233 H 0.34331 0.15146 0.54042 0.0
H234 H 0.33209 0.13517 0.50762 0.0
H235 H 0.29232 0.06642 0.48157 0.0
H236 H 0.18613 0.87514 0.49084 0.0
H237 H 0.1968 0.89184 0.52352 0.0
C238 C 0.25745 0.99846 0.54028 0.0
C239 C 0.2908 0.05703 0.54739 0.0
C240 C 0.25087 0.98876 0.52151 0.0
C241 C 0.31747 0.10595 0.53536 0.0
C242 C 0.31103 0.09664 0.5166 0.0
C243 C 0.27135 0.02831 0.49072 0.0
C244 C 0.23839 0.96952 0.4837 0.0
C245 C 0.27785 0.03821 0.50953 0.0
C246 C 0.21172 0.92079 0.49581 0.0
C247 C 0.21782 0.93031 0.51452 0.0
H248 H 0.22278 0.28721 0.81453 0.0
H249 H 0.31989 0.19207 0.82271 0.0
H250 H 0.31101 0.19836 0.85555 0.0
H251 H 0.2767 0.23185 0.88184 0.0
H252 H 0.17996 0.32732 0.8735 0.0
H253 H 0.18773 0.31975 0.84071 0.0
C254 C 0.24203 0.2677 0.82345 0.0
C255 C 0.27208 0.23924 0.81611 0.0
C256 C 0.23686 0.27158 0.84228 0.0
C257 C 0.29658 0.21424 0.82795 0.0
C258 C 0.29153 0.21785 0.84674 0.0
C259 C 0.25718 0.25098 0.87288 0.0
C260 C 0.2278 0.28022 0.88018 0.0
C261 C 0.26191 0.24657 0.85404 0.0
C262 C 0.20282 0.30463 0.86831 0.0
C263 C 0.20727 0.30033 0.84954 0.0
H264 H 0.10993 0.34635 0.0403 0.0
H265 H 0.24452 0.30561 0.05894 0.0
H266 H 0.27901 0.3103 0.02762 0.0
H267 H 0.26205 0.31385 0.99483 0.0
H268 H 0.1261 0.35359 0.97657 0.0
H269 H 0.10098 0.36169 1.00798 0.0
C270 C 0.1475 0.33945 0.03752 0.0
C271 C 0.17428 0.32491 0.0518 0.0
C272 C 0.16617 0.34129 0.01959 0.0
C273 C 0.22339 0.31698 0.04814 0.0
C274 C 0.24263 0.3191 0.03024 0.0
C275 C 0.22729 0.32485 0.99772 0.0
C276 C 0.19523 0.3321 0.98337 0.0
C277 C 0.21296 0.32923 0.01583 0.0
C278 C 0.15113 0.3474 0.98733 0.0
C279 C 0.13667 0.3519 1.00529 0.0
H280 H 0.74743 0.06027 0.36866 0.0
H281 H 0.8896 0.22734 0.39003 0.0
H282 H 0.91653 0.26796 0.35934 0.0
H283 H 0.90695 0.25182 0.32652 0.0
H284 H 0.76549 0.08533 0.30482 0.0
H285 H 0.72991 0.04894 0.33564 0.0
C286 C 0.78397 0.10579 0.36661 0.0
C287 C 0.81721 0.14042 0.38158 0.0
C288 C 0.79917 0.12884 0.34891 0.0
C289 C 0.86361 0.19966 0.37875 0.0
C290 C 0.8791 0.22286 0.3612 0.0
C291 C 0.86761 0.20795 0.32854 0.0
C292 C 0.83918 0.17092 0.3135 0.0
C293 C 0.84822 0.18726 0.3462 0.0
C294 C 0.7879 0.11462 0.31621 0.0
C295 C 0.76802 0.09366 0.33383 0.0
H296 H 0.68312 0.74901 0.70476 0.0
H297 H 0.68418 0.90959 0.7226 0.0
H298 H 0.67441 0.93422 0.69121 0.0
H299 H 0.67508 0.91485 0.65865 0.0
H300 H 0.67084 0.75294 0.64067 0.0
H301 H 0.67136 0.72339 0.67224 0.0
C302 C 0.68065 0.78911 0.70176 0.0
C303 C 0.68525 0.82796 0.71592 0.0
C304 C 0.67454 0.80267 0.68371 0.0
C305 C 0.6809 0.87914 0.71193 0.0
C306 C 0.67554 0.89332 0.69399 0.0
C307 C 0.67344 0.87267 0.66167 0.0
C308 C 0.67364 0.83639 0.64741 0.0
C309 C 0.67372 0.85613 0.67977 0.0
C310 C 0.67062 0.78149 0.65144 0.0
C311 C 0.67137 0.76487 0.66947 0.0
H312 H 0.79972 0.70083 0.05336 0.0
H313 H 0.93715 0.65733 0.04045 0.0
H314 H 0.91402 0.6533 1.00825 0.0
H315 H 0.86251 0.67317 0.98349 0.0
H316 H 0.72864 0.72202 0.99631 0.0
H317 H 0.74232 0.71269 0.02857 0.0
C318 C 0.82348 0.6891 0.0435 0.0
C319 C 0.8701 0.67963 0.04922 0.0
C320 C 0.81127 0.68875 0.02489 0.0
C321 C 0.90121 0.66518 0.03631 0.0
C322 C 0.88819 0.66305 0.01789 0.0
C323 C 0.83581 0.68099 0.99334 0.0
C324 C 0.79525 0.69899 0.98746 0.0
C325 C 0.84459 0.67659 1.01196 0.0
C326 C 0.76088 0.70887 1.00043 0.0
C327 C 0.76852 0.70345 0.01893 0.0
H328 H 0.12191 0.77153 0.32473 0.0
H329 H 0.27344 0.93681 0.30604 0.0
H330 H 0.30159 0.96942 0.33751 0.0
H331 H 0.27614 0.95511 0.37007 0.0
H332 H 0.1248 0.7889 0.38848 0.0
H333 H 0.10347 0.75223 0.35728 0.0
C334 C 0.16168 0.81432 0.32756 0.0
C335 C 0.19526 0.85211 0.31314 0.0
C336 C 0.17704 0.83279 0.34558 0.0
C337 C 0.24707 0.90697 0.31694 0.0
C338 C 0.26277 0.92579 0.33491 0.0
C339 C 0.23875 0.91066 0.36725 0.0
C340 C 0.20143 0.87509 0.38152 0.0
C341 C 0.22697 0.88981 0.3493 0.0
C342 C 0.15393 0.8172 0.37774 0.0
C343 C 0.14166 0.7963 0.35991 0.0
H344 H 0.33791 0.21523 0.64666 0.0
H345 H 0.3396 0.05295 0.66063 0.0
H346 H 0.34147 0.07566 0.69284 0.0
H347 H 0.33215 0.13626 0.71707 0.0
H348 H 0.32231 0.29427 0.70299 0.0
H349 H 0.33442 0.27899 0.67097 0.0
C350 C 0.33995 0.18562 0.65678 0.0
C351 C 0.33858 0.13258 0.65133 0.0
C352 C 0.3388 0.19783 0.67531 0.0
C353 C 0.34035 0.094 0.66455 0.0
C354 C 0.34128 0.10685 0.68297 0.0
C355 C 0.33358 0.16777 0.70701 0.0
C356 C 0.32596 0.21602 0.71238 0.0
C357 C 0.33887 0.15779 0.68853 0.0
C358 C 0.32748 0.25634 0.69917 0.0
C359 C 0.33447 0.24772 0.68085 0.0
H360 H 0.09045 0.62294 0.09044 0.0
H361 H 0.89734 0.53699 0.09189 0.0
H362 H 0.88929 0.43858 0.09002 0.0
H363 H 0.93685 0.37601 0.0888 0.0
H364 H 0.12989 0.46171 0.08867 0.0
H365 H 0.138 0.56042 0.08906 0.0
C366 C 0.04668 0.58268 0.0903 0.0
C367 C 0.99475 0.58748 0.09138 0.0
C368 C 0.04218 0.52586 0.08944 0.0
C369 C 0.93824 0.53474 0.09122 0.0
C370 C 0.93344 0.47827 0.09009 0.0
C371 C 0.98059 0.41633 0.08871 0.0
C372 C 0.03255 0.4115 0.08874 0.0
C373 C 0.98508 0.47318 0.0893 0.0
C374 C 0.08905 0.46417 0.08878 0.0
C375 C 0.09384 0.52074 0.08899 0.0
H376 H 0.62957 0.0824 0.42384 0.0
H377 H 0.54605 0.88902 0.42215 0.0
H378 H 0.44697 0.88046 0.42227 0.0
H379 H 0.38454 0.92787 0.42347 0.0
H380 H 0.46811 0.12132 0.42435 0.0
H381 H 0.56717 0.12989 0.4239 0.0
C382 C 0.58972 0.0383 0.42352 0.0
C383 C 0.59517 0.98634 0.42313 0.0
C384 C 0.5331 0.03379 0.42346 0.0
C385 C 0.54309 0.92965 0.42246 0.0
C386 C 0.48648 0.92476 0.42257 0.0
C387 C 0.4244 0.97199 0.42359 0.0
C388 C 0.41897 0.02394 0.42409 0.0
C389 C 0.48102 0.97652 0.42318 0.0
C390 C 0.47106 0.08068 0.42399 0.0
C391 C 0.52766 0.08557 0.42376 0.0
H392 H 0.46066 0.39499 0.75825 0.0
H393 H 0.35023 0.47797 0.75917 0.0
H394 H 0.44013 0.57744 0.75955 0.0
H395 H 0.54971 0.64045 0.75996 0.0
H396 H 0.66003 0.5574 0.7583 0.0
H397 H 0.57014 0.45799 0.75784 0.0
C398 C 0.45612 0.43479 0.75856 0.0
C399 C 0.39871 0.42901 0.75879 0.0
C400 C 0.50789 0.4917 0.75865 0.0
C401 C 0.3938 0.48111 0.75899 0.0
C402 C 0.44519 0.53798 0.75924 0.0
C403 C 0.55421 0.60064 0.75953 0.0
C404 C 0.6116 0.60638 0.75927 0.0
C405 C 0.50241 0.54375 0.75913 0.0
C406 C 0.61648 0.55429 0.75852 0.0
C407 C 0.56509 0.49745 0.75828 0.0
H408 H 0.47107 0.0747 0.60709 0.0
H409 H 0.34821 0.88345 0.60543 0.0
H410 H 0.43275 0.86497 0.60534 0.0
H411 H 0.54127 0.90318 0.60505 0.0
H412 H 0.66407 0.09437 0.60735 0.0
H413 H 0.57951 0.11278 0.60793 0.0
C414 C 0.46265 0.0289 0.6067 0.0
C415 C 0.40326 0.9805 0.60614 0.0
C416 C 0.51141 0.01863 0.60676 0.0
C417 C 0.39335 0.9215 0.60585 0.0
C418 C 0.4417 0.91092 0.60577 0.0
C419 C 0.54967 0.94895 0.60568 0.0
C420 C 0.60907 0.99739 0.60604 0.0
C421 C 0.50088 0.95916 0.60611 0.0
C422 C 0.61893 0.0563 0.60706 0.0
C423 C 0.57057 0.06684 0.60735 0.0
H424 H 0.37779 0.46866 0.93789 0.0
H425 H 0.46287 0.36013 0.93996 0.0
H426 H 0.56143 0.45117 0.94043 0.0
H427 H 0.62294 0.56098 0.93996 0.0
H428 H 0.53788 0.66958 0.93851 0.0
H429 H 0.43928 0.57854 0.93813 0.0
C430 C 0.41785 0.46475 0.93841 0.0
C431 C 0.41294 0.40755 0.93879 0.0
C432 C 0.47417 0.51716 0.9388 0.0
C433 C 0.46534 0.4035 0.93965 0.0
C434 C 0.52168 0.45554 0.9399 0.0
C435 C 0.5829 0.56492 0.93953 0.0
C436 C 0.58783 0.62213 0.93916 0.0
C437 C 0.52655 0.51252 0.93942 0.0
C438 C 0.53539 0.6262 0.93879 0.0
C439 C 0.47905 0.57416 0.93855 0.0
H440 H 0.95416 0.56985 0.27509 0.0
H441 H 0.14761 0.66382 0.27516 0.0
H442 H 0.14699 0.56887 0.27738 0.0
H443 H 0.09178 0.45821 0.27814 0.0
H444 H 0.89847 0.36401 0.27667 0.0
H445 H 0.89892 0.45917 0.27628 0.0
C446 C 0.9961 0.5695 0.27569 0.0
C447 C 0.05072 0.62399 0.27487 0.0
C448 C 0.9956 0.51439 0.27669 0.0
C449 C 0.10475 0.6226 0.2756 0.0
C450 C 0.10456 0.56823 0.27692 0.0
C451 C 0.04983 0.4586 0.27789 0.0
C452 C 0.9953 0.40401 0.27739 0.0
C453 C 0.0503 0.51372 0.27731 0.0
C454 C 0.94124 0.40535 0.27694 0.0
C455 C 0.94135 0.45983 0.27672 0.0
H456 H 0.09646 0.12155 0.086 0.0
H457 H 0.90491 0.04661 0.08187 0.0
H458 H 0.89129 0.94511 0.0814 0.0
H459 H 0.9335 0.87818 0.0841 0.0
H460 H 0.12514 0.9532 0.08782 0.0
H461 H 0.13915 0.05477 0.08639 0.0
C462 C 0.05165 0.08303 0.08492 0.0
C463 C 1.00161 0.09153 0.0842 0.0
C464 C 0.04429 0.02509 0.08465 0.0
C465 C 0.94406 0.04126 0.08248 0.0
C466 C 0.9363 0.98328 0.08229 0.0
C467 C 0.97843 0.91674 0.08453 0.0
C468 C 0.02827 0.90821 0.0863 0.0
C469 C 0.98603 0.97474 0.08368 0.0
C470 C 0.08614 0.95857 0.08651 0.0
C471 C 0.09409 0.01657 0.08576 0.0
H472 H 0.96252 0.08343 0.42096 0.0
H473 H 0.85231 0.89022 0.41928 0.0
H474 H 0.94225 0.8806 0.41915 0.0
H475 H 0.05187 0.92696 0.42065 0.0
H476 H 0.16208 0.12023 0.42161 0.0
H477 H 0.07221 0.12989 0.42081 0.0
C478 C 0.95808 0.03914 0.42052 0.0
C479 C 0.90066 0.98755 0.42028 0.0
C480 C 0.00994 0.03399 0.42036 0.0
C481 C 0.89586 0.93063 0.41948 0.0
C482 C 0.94729 0.92511 0.41946 0.0
C483 C 0.05632 0.97127 0.42065 0.0
C484 C 0.1137 0.02284 0.42134 0.0
C485 C 1.0045 0.97647 0.42008 0.0
C486 C 0.11856 0.07984 0.4211 0.0
C487 C 0.06716 0.08537 0.42069 0.0
H488 H 0.12776 0.06087 0.75475 0.0
H489 H 0.04655 0.17299 0.75513 0.0
H490 H 0.9469 0.0835 0.75524 0.0
H491 H 0.88312 0.97374 0.75629 0.0
H492 H 0.96424 0.86157 0.75539 0.0
H493 H 0.06387 0.95104 0.75436 0.0
C494 C 0.0883 0.06585 0.75481 0.0
C495 C 0.0947 0.12368 0.75506 0.0
C496 C 0.0312 0.01424 0.75482 0.0
C497 C 0.043 0.12913 0.75494 0.0
C498 C 0.986 0.07795 0.75506 0.0
C499 C 0.92256 0.96875 0.75585 0.0
C500 C 0.91618 0.91093 0.75607 0.0
C501 C 0.97961 0.02033 0.75518 0.0
C502 C 0.9678 0.90543 0.75526 0.0
C503 C 0.02479 0.9566 0.75471 0.0
H504 H 0.95468 0.06187 0.60781 0.0
H505 H 0.85507 0.86838 0.60382 0.0
H506 H 0.94789 0.86492 0.60488 0.0
H507 H 0.05802 0.9167 0.60611 0.0
H508 H 0.15784 0.11033 0.60915 0.0
H509 H 0.06481 0.11361 0.60936 0.0
C510 C 0.95328 0.01897 0.60724 0.0
C511 C 0.89786 0.96561 0.60569 0.0
C512 C 1.00709 0.01717 0.60766 0.0
C513 C 0.89702 0.91035 0.60492 0.0
C514 C 0.95017 0.9082 0.60555 0.0
C515 C 0.05937 0.95955 0.60693 0.0
C516 C 0.11492 0.01308 0.60757 0.0
C517 C 1.00554 0.96131 0.6068 0.0
C518 C 0.11577 0.06831 0.60854 0.0
C519 C 0.06252 0.07033 0.60868 0.0
H520 H 0.9549 0.89179 0.94358 0.0
H521 H 0.84611 0.97656 0.94254 0.0
H522 H 0.93665 0.07554 0.94246 0.0
H523 H 0.04632 0.13764 0.94163 0.0
H524 H 0.15516 0.05296 0.94303 0.0
H525 H 0.06461 0.95402 0.94408 0.0
C526 C 0.95084 0.93187 0.94338 0.0
C527 C 0.89364 0.92666 0.94294 0.0
C528 C 1.00304 0.98855 0.94336 0.0
C529 C 0.88943 0.97917 0.94287 0.0
C530 C 0.94122 0.03579 0.94278 0.0
C531 C 0.05039 0.09759 0.94219 0.0
C532 C 0.10759 0.10278 0.94212 0.0
C533 C 0.9982 0.04096 0.94284 0.0
C534 C 0.11182 0.05034 0.94305 0.0
C535 C 0.06004 0.99375 0.94362 0.0
H536 H 0.95484 0.88968 0.27818 0.0
H537 H 0.14791 0.98869 0.27427 0.0
H538 H 0.14799 0.08319 0.27688 0.0
H539 H 0.09324 0.13904 0.27874 0.0
H540 H 0.90009 0.04038 0.28133 0.0
H541 H 0.90024 0.94551 0.28097 0.0
C542 C 0.99688 0.9319 0.27801 0.0
C543 C 0.0511 0.93175 0.27589 0.0
C544 C 0.99677 0.98667 0.27928 0.0
C545 C 0.10525 0.98714 0.27568 0.0
C546 C 0.10551 0.04148 0.27723 0.0
C547 C 0.05134 0.09677 0.27947 0.0
C548 C 0.99686 0.09693 0.28001 0.0
C549 C 0.05154 0.04197 0.27883 0.0
C550 C 0.94278 0.04164 0.28077 0.0
C551 C 0.94272 0.9872 0.28056 0.0
loop_
_geom_bond_atom_site_label_1
_geom_bond_atom_site_label_2
_geom_bond_distance
_geom_bond_site_symmetry_2
_ccdc_geom_bond_type
C0 O2 1.247 . S
C0 O4 1.258 1_455 S
C1 O8 1.247 . S
C1 O9 1.258 . S
O2 C0 1.247 . S
O2 Zn3 2.028 . S
Zn3 O2 2.028 . S
Zn3 O7 2.035 . S
Zn3 O9 2.035 . S
Zn3 O10 2.028 . S
O4 C0 1.258 1_655 S
O4 Zn5 2.035 . S
Zn5 O4 2.035 . S
Zn5 O6 2.028 . S
Zn5 O8 2.028 1_655 S
Zn5 O11 2.035 . S
O6 Zn5 2.028 . S
O6 C12 1.247 1_655 S
O7 Zn3 2.035 . S
O7 C12 1.258 . S
O8 C1 1.247 . S
O8 Zn5 2.028 1_455 S
O9 C1 1.258 . S
O9 Zn3 2.035 . S
O10 Zn3 2.028 . S
O10 C13 1.247 . S
O11 Zn5 2.035 . S
O11 C13 1.258 1_655 S
C12 O6 1.247 1_455 S
C12 O7 1.258 . S
C13 O10 1.247 . S
C13 O11 1.258 1_455 S
C14 O16 1.247 . S
C14 O18 1.258 . S
C15 O22 1.247 1_545 S
C15 O23 1.258 . S
O16 C14 1.247 . S
O16 Zn17 2.028 . S
Zn17 O16 2.028 . S
Zn17 O21 2.035 . S
Zn17 O23 2.035 . S
Zn17 O24 2.028 . S
O18 C14 1.258 . S
O18 Zn19 2.035 1_545 S
Zn19 O18 2.035 1_565 S
Zn19 O20 2.028 . S
Zn19 O22 2.028 . S
Zn19 O25 2.035 . S
O20 Zn19 2.028 . S
O20 C26 1.247 1_565 S
O21 Zn17 2.035 . S
O21 C26 1.258 . S
O22 C15 1.247 1_565 S
O22 Zn19 2.028 . S
O23 C15 1.258 . S
O23 Zn17 2.035 . S
O24 Zn17 2.028 . S
O24 C27 1.247 . S
O25 Zn19 2.035 . S
O25 C27 1.258 1_565 S
C26 O20 1.247 1_545 S
C26 O21 1.258 . S
C27 O24 1.247 . S
C27 O25 1.258 1_545 S
C28 O30 1.247 . S
C28 O32 1.258 . S
C29 O36 1.247 . S
C29 O37 1.258 . S
O30 C28 1.247 . S
O30 Zn31 2.028 . S
Zn31 O30 2.028 . S
Zn31 O35 2.035 . S
Zn31 O37 2.035 . S
Zn31 O38 2.028 . S
O32 C28 1.258 . S
O32 Zn33 2.035 . S
Zn33 O32 2.035 . S
Zn33 O34 2.028 . S
Zn33 O36 2.028 . S
Zn33 O39 2.035 . S
O34 Zn33 2.028 . S
O34 C40 1.247 . S
O35 Zn31 2.035 . S
O35 C40 1.258 . S
O36 C29 1.247 . S
O36 Zn33 2.028 . S
O37 C29 1.258 . S
O37 Zn31 2.035 . S
O38 Zn31 2.028 . S
O38 C41 1.247 . S
O39 Zn33 2.035 . S
O39 C41 1.258 . S
C40 O34 1.247 . S
C40 O35 1.258 . S
C41 O38 1.247 . S
C41 O39 1.258 . S
C42 O44 1.247 1_655 S
C42 O46 1.258 . S
C43 O50 1.247 . S
C43 O51 1.258 1_655 S
O44 C42 1.247 1_455 S
O44 Zn45 2.028 . S
Zn45 O44 2.028 . S
Zn45 O49 2.035 1_455 S
Zn45 O51 2.035 . S
Zn45 O52 2.028 . S
O46 C42 1.258 . S
O46 Zn47 2.035 . S
Zn47 O46 2.035 . S
Zn47 O48 2.028 . S
Zn47 O50 2.028 . S
Zn47 O53 2.035 . S
O48 Zn47 2.028 . S
O48 C54 1.247 . S
O49 Zn45 2.035 1_655 S
O49 C54 1.258 . S
O50 C43 1.247 . S
O50 Zn47 2.028 . S
O51 C43 1.258 1_455 S
O51 Zn45 2.035 . S
O52 Zn45 2.028 . S
O52 C55 1.247 1_455 S
O53 Zn47 2.035 . S
O53 C55 1.258 . S
C54 O48 1.247 . S
C54 O49 1.258 . S
C55 O52 1.247 1_655 S
C55 O53 1.258 . S
C56 O58 1.247 1_565 S
C56 O60 1.258 . S
C57 O64 1.247 . S
C57 O65 1.258 1_565 S
O58 C56 1.247 1_545 S
O58 Zn59 2.028 . S
Zn59 O58 2.028 . S
Zn59 O63 2.035 . S
Zn59 O65 2.035 . S
Zn59 O66 2.028 1_545 S
O60 C56 1.258 . S
O60 Zn61 2.035 . S
Zn61 O60 2.035 . S
Zn61 O62 2.028 . S
Zn61 O64 2.028 . S
Zn61 O67 2.035 . S
O62 Zn61 2.028 . S
O62 C68 1.247 . S
O63 Zn59 2.035 . S
O63 C68 1.258 1_545 S
O64 C57 1.247 . S
O64 Zn61 2.028 . S
O65 C57 1.258 1_545 S
O65 Zn59 2.035 . S
O66 Zn59 2.028 1_565 S
O66 C69 1.247 . S
O67 Zn61 2.035 . S
O67 C69 1.258 . S
C68 O62 1.247 . S
C68 O63 1.258 1_565 S
C69 O66 1.247 . S
C69 O67 1.258 . S
C70 O72 1.247 . S
C70 O74 1.258 . S
C71 O78 1.247 . S
C71 O79 1.258 . S
O72 C70 1.247 . S
O72 Zn73 2.028 . S
Zn73 O72 2.028 . S
Zn73 O77 2.035 . S
Zn73 O79 2.035 . S
Zn73 O80 2.028 . S
O74 C70 1.258 . S
O74 Zn75 2.035 . S
Zn75 O74 2.035 . S
Zn75 O76 2.028 . S
Zn75 O78 2.028 . S
Zn75 O81 2.035 . S
O76 Zn75 2.028 . S
O76 C82 1.247 . S
O77 Zn73 2.035 . S
O77 C82 1.258 . S
O78 C71 1.247 . S
O78 Zn75 2.028 . S
O79 C71 1.258 . S
O79 Zn73 2.035 . S
O80 Zn73 2.028 . S
O80 C83 1.247 . S
O81 Zn75 2.035 . S
O81 C83 1.258 . S
C82 O76 1.247 . S
C82 O77 1.258 . S
C83 O80 1.247 . S
C83 O81 1.258 . S
C84 O86 1.247 1_565 S
C84 O88 1.258 . S
C85 O92 1.247 . S
C85 O93 1.258 1_565 S
O86 C84 1.247 1_545 S
O86 Zn87 2.028 . S
Zn87 O86 2.028 . S
Zn87 O91 2.035 1_545 S
Zn87 O93 2.035 . S
Zn87 O94 2.028 . S
O88 C84 1.258 . S
O88 Zn89 2.035 . S
Zn89 O88 2.035 . S
Zn89 O90 2.028 . S
Zn89 O92 2.028 . S
Zn89 O95 2.035 . S
O90 Zn89 2.028 . S
O90 C96 1.247 . S
O91 Zn87 2.035 1_565 S
O91 C96 1.258 . S
O92 C85 1.247 . S
O92 Zn89 2.028 . S
O93 C85 1.258 1_545 S
O93 Zn87 2.035 . S
O94 Zn87 2.028 . S
O94 C97 1.247 1_545 S
O95 Zn89 2.035 . S
O95 C97 1.258 . S
C96 O90 1.247 . S
C96 O91 1.258 . S
C97 O94 1.247 1_565 S
C97 O95 1.258 . S
C98 O100 1.247 . S
C98 O102 1.258 . S
C99 O106 1.247 . S
C99 O107 1.258 . S
O100 C98 1.247 . S
O100 Zn101 2.028 . S
Zn101 O100 2.028 . S
Zn101 O105 2.035 . S
Zn101 O107 2.035 . S
Zn101 O108 2.028 . S
O102 C98 1.258 . S
O102 Zn103 2.035 . S
Zn103 O102 2.035 . S
Zn103 O104 2.028 . S
Zn103 O106 2.028 . S
Zn103 O109 2.035 . S
O104 Zn103 2.028 . S
O104 C110 1.247 . S
O105 Zn101 2.035 . S
O105 C110 1.258 . S
O106 C99 1.247 . S
O106 Zn103 2.028 . S
O107 C99 1.258 . S
O107 Zn101 2.035 . S
O108 Zn101 2.028 . S
O108 C111 1.247 . S
O109 Zn103 2.035 . S
O109 C111 1.258 . S
C110 O104 1.247 . S
C110 O105 1.258 . S
C111 O108 1.247 . S
C111 O109 1.258 . S
C112 O114 1.247 . S
C112 O116 1.258 . S
C113 O120 1.247 1_455 S
C113 O121 1.258 . S
O114 C112 1.247 . S
O114 Zn115 2.028 . S
Zn115 O114 2.028 . S
Zn115 O119 2.035 . S
Zn115 O121 2.035 . S
Zn115 O122 2.028 . S
O116 C112 1.258 . S
O116 Zn117 2.035 1_455 S
Zn117 O116 2.035 1_655 S
Zn117 O118 2.028 . S
Zn117 O120 2.028 . S
Zn117 O123 2.035 . S
O118 Zn117 2.028 . S
O118 C124 1.247 1_655 S
O119 Zn115 2.035 . S
O119 C124 1.258 . S
O120 C113 1.247 1_655 S
O120 Zn117 2.028 . S
O121 C113 1.258 . S
O121 Zn115 2.035 . S
O122 Zn115 2.028 . S
O122 C125 1.247 . S
O123 Zn117 2.035 . S
O123 C125 1.258 1_655 S
C124 O118 1.247 1_455 S
C124 O119 1.258 . S
C125 O122 1.247 . S
C125 O123 1.258 1_455 S
C126 O128 1.247 . S
C126 O130 1.258 . S
C127 O134 1.247 1_545 S
C127 O135 1.258 . S
O128 C126 1.247 . S
O128 Zn129 2.028 . S
Zn129 O128 2.028 . S
Zn129 O133 2.035 . S
Zn129 O135 2.035 . S
Zn129 O136 2.028 . S
O130 C126 1.258 . S
O130 Zn131 2.035 1_545 S
Zn131 O130 2.035 1_565 S
Zn131 O132 2.028 . S
Zn131 O134 2.028 . S
Zn131 O137 2.035 . S
O132 Zn131 2.028 . S
O132 C138 1.247 1_565 S
O133 Zn129 2.035 . S
O133 C138 1.258 . S
O134 C127 1.247 1_565 S
O134 Zn131 2.028 . S
O135 C127 1.258 . S
O135 Zn129 2.035 . S
O136 Zn129 2.028 . S
O136 C139 1.247 . S
O137 Zn131 2.035 . S
O137 C139 1.258 1_565 S
C138 O132 1.247 1_545 S
C138 O133 1.258 . S
C139 O136 1.247 . S
C139 O137 1.258 1_545 S
C140 O142 1.247 . S
C140 O144 1.258 . S
C141 O148 1.247 . S
C141 O149 1.258 . S
O142 C140 1.247 . S
O142 Zn143 2.028 . S
Zn143 O142 2.028 . S
Zn143 O147 2.035 . S
Zn143 O149 2.035 . S
Zn143 O150 2.028 . S
O144 C140 1.258 . S
O144 Zn145 2.035 . S
Zn145 O144 2.035 . S
Zn145 O146 2.028 . S
Zn145 O148 2.028 . S
Zn145 O151 2.035 . S
O146 Zn145 2.028 . S
O146 C152 1.247 . S
O147 Zn143 2.035 . S
O147 C152 1.258 . S
O148 C141 1.247 . S
O148 Zn145 2.028 . S
O149 C141 1.258 . S
O149 Zn143 2.035 . S
O150 Zn143 2.028 . S
O150 C153 1.247 . S
O151 Zn145 2.035 . S
O151 C153 1.258 . S
C152 O146 1.247 . S
C152 O147 1.258 . S
C153 O150 1.247 . S
C153 O151 1.258 . S
C154 O156 1.247 . S
C154 O158 1.258 1_655 S
C155 O162 1.247 . S
C155 O163 1.258 . S
O156 C154 1.247 . S
O156 Zn157 2.028 . S
Zn157 O156 2.028 . S
Zn157 O161 2.035 . S
Zn157 O163 2.035 . S
Zn157 O164 2.028 . S
O158 C154 1.258 1_455 S
O158 Zn159 2.035 . S
Zn159 O158 2.035 . S
Zn159 O160 2.028 . S
Zn159 O162 2.028 1_455 S
Zn159 O165 2.035 . S
O160 Zn159 2.028 . S
O160 C166 1.247 1_455 S
O161 Zn157 2.035 . S
O161 C166 1.258 . S
O162 C155 1.247 . S
O162 Zn159 2.028 1_655 S
O163 C155 1.258 . S
O163 Zn157 2.035 . S
O164 Zn157 2.028 . S
O164 C167 1.247 . S
O165 Zn159 2.035 . S
O165 C167 1.258 1_455 S
C166 O160 1.247 1_655 S
C166 O161 1.258 . S
C167 O164 1.247 . S
C167 O165 1.258 1_655 S
H168 C174 0.930 . S
H169 C177 0.930 . S
H170 C178 0.930 . S
H171 C179 0.930 . S
H172 C182 0.930 . S
H173 C183 0.930 . S
C174 H168 0.930 . S
C174 C175 1.355 . S
C174 C176 1.415 . S
C175 C174 1.355 . S
C175 C177 1.419 1_655 S
C176 C174 1.415 . S
C176 C181 1.425 1_655 S
C176 C183 1.409 . S
C177 H169 0.930 . S
C177 C175 1.419 1_455 S
C177 C178 1.362 . S
C178 H170 0.930 . S
C178 C177 1.362 . S
C178 C181 1.409 . S
C179 H171 0.930 . S
C179 C180 1.355 . S
C179 C181 1.415 . S
C180 C179 1.355 . S
C180 C182 1.419 1_455 S
C181 C176 1.425 1_455 S
C181 C178 1.409 . S
C181 C179 1.415 . S
C182 H172 0.930 . S
C182 C180 1.419 1_655 S
C182 C183 1.362 . S
C183 H173 0.930 . S
C183 C176 1.409 . S
C183 C182 1.362 . S
H184 C190 0.930 . S
H185 C193 0.930 . S
H186 C194 0.930 . S
H187 C195 0.930 . S
H188 C198 0.930 . S
H189 C199 0.930 . S
C190 H184 0.930 . S
C190 C191 1.355 1_565 S
C190 C192 1.415 . S
C191 C190 1.355 1_545 S
C191 C193 1.419 . S
C192 C190 1.415 . S
C192 C197 1.425 1_565 S
C192 C199 1.409 . S
C193 H185 0.930 . S
C193 C191 1.419 . S
C193 C194 1.362 . S
C194 H186 0.930 . S
C194 C193 1.362 . S
C194 C197 1.409 . S
C195 H187 0.930 . S
C195 C196 1.355 1_545 S
C195 C197 1.415 . S
C196 C195 1.355 1_565 S
C196 C198 1.419 . S
C197 C192 1.425 1_545 S
C197 C194 1.409 . S
C197 C195 1.415 . S
C198 H188 0.930 . S
C198 C196 1.419 . S
C198 C199 1.362 . S
C199 H189 0.930 . S
C199 C192 1.409 . S
C199 C198 1.362 . S
H200 C206 0.930 . S
H201 C209 0.930 . S
H202 C210 0.930 . S
H203 C211 0.930 . S
H204 C214 0.930 . S
H205 C215 0.930 . S
C206 H200 0.930 . S
C206 C207 1.355 . S
C206 C208 1.415 . S
C207 C206 1.355 . S
C207 C209 1.419 . S
C208 C206 1.415 . S
C208 C213 1.425 . S
C208 C215 1.409 . S
C209 H201 0.930 . S
C209 C207 1.419 . S
C209 C210 1.362 . S
C210 H202 0.930 . S
C210 C209 1.362 . S
C210 C213 1.409 . S
C211 H203 0.930 . S
C211 C212 1.355 . S
C211 C213 1.415 . S
C212 C211 1.355 . S
C212 C214 1.419 . S
C213 C208 1.425 . S
C213 C210 1.409 . S
C213 C211 1.415 . S
C214 H204 0.930 . S
C214 C212 1.419 . S
C214 C215 1.362 . S
C215 H205 0.930 . S
C215 C208 1.409 . S
C215 C214 1.362 . S
H216 C222 0.930 . S
H217 C225 0.930 . S
H218 C226 0.930 . S
H219 C227 0.930 . S
H220 C230 0.930 . S
H221 C231 0.930 . S
C222 H216 0.930 . S
C222 C223 1.355 1_455 S
C222 C224 1.415 . S
C223 C222 1.355 1_655 S
C223 C225 1.419 . S
C224 C222 1.415 . S
C224 C229 1.425 1_455 S
C224 C231 1.409 . S
C225 H217 0.930 . S
C225 C223 1.419 . S
C225 C226 1.362 . S
C226 H218 0.930 . S
C226 C225 1.362 . S
C226 C229 1.409 . S
C227 H219 0.930 . S
C227 C228 1.355 1_655 S
C227 C229 1.415 . S
C228 C227 1.355 1_455 S
C228 C230 1.419 . S
C229 C224 1.425 1_655 S
C229 C226 1.409 . S
C229 C227 1.415 . S
C230 H220 0.930 . S
C230 C228 1.419 . S
C230 C231 1.362 . S
C231 H221 0.930 . S
C231 C224 1.409 . S
C231 C230 1.362 . S
H232 C238 0.930 . S
H233 C241 0.930 . S
H234 C242 0.930 . S
H235 C243 0.930 . S
H236 C246 0.930 . S
H237 C247 0.930 . S
C238 H232 0.930 . S
C238 C239 1.355 1_565 S
C238 C240 1.415 . S
C239 C238 1.355 1_545 S
C239 C241 1.419 . S
C240 C238 1.415 . S
C240 C245 1.425 1_565 S
C240 C247 1.409 . S
C241 H233 0.930 . S
C241 C239 1.419 . S
C241 C242 1.362 . S
C242 H234 0.930 . S
C242 C241 1.362 . S
C242 C245 1.409 . S
C243 H235 0.930 . S
C243 C244 1.355 1_545 S
C243 C245 1.415 . S
C244 C243 1.355 1_565 S
C244 C246 1.419 . S
C245 C240 1.425 1_545 S
C245 C242 1.409 . S
C245 C243 1.415 . S
C246 H236 0.930 . S
C246 C244 1.419 . S
C246 C247 1.362 . S
C247 H237 0.930 . S
C247 C240 1.409 . S
C247 C246 1.362 . S
H248 C254 0.930 . S
H249 C257 0.930 . S
H250 C258 0.930 . S
H251 C259 0.930 . S
H252 C262 0.930 . S
H253 C263 0.930 . S
C254 H248 0.930 . S
C254 C255 1.355 . S
C254 C256 1.415 . S
C255 C254 1.355 . S
C255 C257 1.419 . S
C256 C254 1.415 . S
C256 C261 1.425 . S
C256 C263 1.409 . S
C257 H249 0.930 . S
C257 C255 1.419 . S
C257 C258 1.362 . S
C258 H250 0.930 . S
C258 C257 1.362 . S
C258 C261 1.409 . S
C259 H251 0.930 . S
C259 C260 1.355 . S
C259 C261 1.415 . S
C260 C259 1.355 . S
C260 C262 1.419 . S
C261 C256 1.425 . S
C261 C258 1.409 . S
C261 C259 1.415 . S
C262 H252 0.930 . S
C262 C260 1.419 . S
C262 C263 1.362 . S
C263 H253 0.930 . S
C263 C256 1.409 . S
C263 C262 1.362 . S
H264 C270 0.930 . S
H265 C273 0.930 . S
H266 C274 0.930 . S
H267 C275 0.930 . S
H268 C278 0.930 . S
H269 C279 0.930 . S
C270 H264 0.930 . S
C270 C271 1.355 . S
C270 C272 1.415 1_554 S
C271 C270 1.355 . S
C271 C273 1.419 . S
C272 C270 1.415 1_556 S
C272 C277 1.425 1_556 S
C272 C279 1.409 . S
C273 H265 0.930 . S
C273 C271 1.419 . S
C273 C274 1.362 . S
C274 H266 0.930 . S
C274 C273 1.362 . S
C274 C277 1.409 . S
C275 H267 0.930 . S
C275 C276 1.355 . S
C275 C277 1.415 1_556 S
C276 C275 1.355 . S
C276 C278 1.419 . S
C277 C272 1.425 1_554 S
C277 C274 1.409 . S
C277 C275 1.415 1_554 S
C278 H268 0.930 . S
C278 C276 1.419 . S
C278 C279 1.362 . S
C279 H269 0.930 . S
C279 C272 1.409 . S
C279 C278 1.362 . S
H280 C286 0.930 . S
H281 C289 0.930 . S
H282 C290 0.930 . S
H283 C291 0.930 . S
H284 C294 0.930 . S
H285 C295 0.930 . S
C286 H280 0.930 . S
C286 C287 1.355 . S
C286 C288 1.415 . S
C287 C286 1.355 . S
C287 C289 1.419 . S
C288 C286 1.415 . S
C288 C293 1.425 . S
C288 C295 1.409 . S
C289 H281 0.930 . S
C289 C287 1.419 . S
C289 C290 1.362 . S
C290 H282 0.930 . S
C290 C289 1.362 . S
C290 C293 1.409 . S
C291 H283 0.930 . S
C291 C292 1.355 . S
C291 C293 1.415 . S
C292 C291 1.355 . S
C292 C294 1.419 . S
C293 C288 1.425 . S
C293 C290 1.409 . S
C293 C291 1.415 . S
C294 H284 0.930 . S
C294 C292 1.419 . S
C294 C295 1.362 . S
C295 H285 0.930 . S
C295 C288 1.409 . S
C295 C294 1.362 . S
H296 C302 0.930 . S
H297 C305 0.930 . S
H298 C306 0.930 . S
H299 C307 0.930 . S
H300 C310 0.930 . S
H301 C311 0.930 . S
C302 H296 0.930 . S
C302 C303 1.355 . S
C302 C304 1.415 . S
C303 C302 1.355 . S
C303 C305 1.419 . S
C304 C302 1.415 . S
C304 C309 1.425 . S
C304 C311 1.409 . S
C305 H297 0.930 . S
C305 C303 1.419 . S
C305 C306 1.362 . S
C306 H298 0.930 . S
C306 C305 1.362 . S
C306 C309 1.409 . S
C307 H299 0.930 . S
C307 C308 1.355 . S
C307 C309 1.415 . S
C308 C307 1.355 . S
C308 C310 1.419 . S
C309 C304 1.425 . S
C309 C306 1.409 . S
C309 C307 1.415 . S
C310 H300 0.930 . S
C310 C308 1.419 . S
C310 C311 1.362 . S
C311 H301 0.930 . S
C311 C304 1.409 . S
C311 C310 1.362 . S
H312 C318 0.930 . S
H313 C321 0.930 . S
H314 C322 0.930 1_556 S
H315 C323 0.930 . S
H316 C326 0.930 . S
H317 C327 0.930 1_554 S
C318 H312 0.930 . S
C318 C319 1.355 . S
C318 C320 1.415 . S
C319 C318 1.355 . S
C319 C321 1.419 . S
C320 C318 1.415 . S
C320 C325 1.425 1_554 S
C320 C327 1.409 1_554 S
C321 H313 0.930 . S
C321 C319 1.419 . S
C321 C322 1.362 . S
C322 H314 0.930 1_554 S
C322 C321 1.362 . S
C322 C325 1.409 1_554 S
C323 H315 0.930 . S
C323 C324 1.355 . S
C323 C325 1.415 . S
C324 C323 1.355 . S
C324 C326 1.419 . S
C325 C320 1.425 1_556 S
C325 C322 1.409 1_556 S
C325 C323 1.415 . S
C326 H316 0.930 . S
C326 C324 1.419 . S
C326 C327 1.362 . S
C327 H317 0.930 1_556 S
C327 C320 1.409 1_556 S
C327 C326 1.362 . S
H328 C334 0.930 . S
H329 C337 0.930 . S
H330 C338 0.930 . S
H331 C339 0.930 . S
H332 C342 0.930 . S
H333 C343 0.930 . S
C334 H328 0.930 . S
C334 C335 1.355 . S
C334 C336 1.415 . S
C335 C334 1.355 . S
C335 C337 1.419 . S
C336 C334 1.415 . S
C336 C341 1.425 . S
C336 C343 1.409 . S
C337 H329 0.930 . S
C337 C335 1.419 . S
C337 C338 1.362 . S
C338 H330 0.930 . S
C338 C337 1.362 . S
C338 C341 1.409 . S
C339 H331 0.930 . S
C339 C340 1.355 . S
C339 C341 1.415 . S
C340 C339 1.355 . S
C340 C342 1.419 . S
C341 C336 1.425 . S
C341 C338 1.409 . S
C341 C339 1.415 . S
C342 H332 0.930 . S
C342 C340 1.419 . S
C342 C343 1.362 . S
C343 H333 0.930 . S
C343 C336 1.409 . S
C343 C342 1.362 . S
H344 C350 0.930 . S
H345 C353 0.930 . S
H346 C354 0.930 . S
H347 C355 0.930 . S
H348 C358 0.930 . S
H349 C359 0.930 . S
C350 H344 0.930 . S
C350 C351 1.355 . S
C350 C352 1.415 . S
C351 C350 1.355 . S
C351 C353 1.419 . S
C352 C350 1.415 . S
C352 C357 1.425 . S
C352 C359 1.409 . S
C353 H345 0.930 . S
C353 C351 1.419 . S
C353 C354 1.362 . S
C354 H346 0.930 . S
C354 C353 1.362 . S
C354 C357 1.409 . S
C355 H347 0.930 . S
C355 C356 1.355 . S
C355 C357 1.415 . S
C356 C355 1.355 . S
C356 C358 1.419 . S
C357 C352 1.425 . S
C357 C354 1.409 . S
C357 C355 1.415 . S
C358 H348 0.930 . S
C358 C356 1.419 . S
C358 C359 1.362 . S
C359 H349 0.930 . S
C359 C352 1.409 . S
C359 C358 1.362 . S
H360 C366 0.930 . S
H361 C369 0.930 . S
H362 C370 0.930 . S
H363 C371 0.930 . S
H364 C374 0.930 . S
H365 C375 0.930 . S
C366 H360 0.930 . S
C366 C367 1.355 1_455 S
C366 C368 1.415 . S
C367 C366 1.355 1_655 S
C367 C369 1.419 . S
C368 C366 1.415 . S
C368 C373 1.425 1_455 S
C368 C375 1.409 . S
C369 H361 0.930 . S
C369 C367 1.419 . S
C369 C370 1.362 . S
C370 H362 0.930 . S
C370 C369 1.362 . S
C370 C373 1.409 . S
C371 H363 0.930 . S
C371 C372 1.355 1_655 S
C371 C373 1.415 . S
C372 C371 1.355 1_455 S
C372 C374 1.419 . S
C373 C368 1.425 1_655 S
C373 C370 1.409 . S
C373 C371 1.415 . S
C374 H364 0.930 . S
C374 C372 1.419 . S
C374 C375 1.362 . S
C375 H365 0.930 . S
C375 C368 1.409 . S
C375 C374 1.362 . S
H376 C382 0.930 . S
H377 C385 0.930 . S
H378 C386 0.930 . S
H379 C387 0.930 . S
H380 C390 0.930 . S
H381 C391 0.930 . S
C382 H376 0.930 . S
C382 C383 1.355 . S
C382 C384 1.415 . S
C383 C382 1.355 . S
C383 C385 1.419 1_545 S
C384 C382 1.415 . S
C384 C389 1.425 1_545 S
C384 C391 1.409 . S
C385 H377 0.930 . S
C385 C383 1.419 1_565 S
C385 C386 1.362 . S
C386 H378 0.930 . S
C386 C385 1.362 . S
C386 C389 1.409 . S
C387 H379 0.930 . S
C387 C388 1.355 . S
C387 C389 1.415 . S
C388 C387 1.355 . S
C388 C390 1.419 1_565 S
C389 C384 1.425 1_565 S
C389 C386 1.409 . S
C389 C387 1.415 . S
C390 H380 0.930 . S
C390 C388 1.419 1_545 S
C390 C391 1.362 . S
C391 H381 0.930 . S
C391 C384 1.409 . S
C391 C390 1.362 . S
H392 C398 0.930 . S
H393 C401 0.930 . S
H394 C402 0.930 . S
H395 C403 0.930 . S
H396 C406 0.930 . S
H397 C407 0.930 . S
C398 H392 0.930 . S
C398 C399 1.355 . S
C398 C400 1.415 . S
C399 C398 1.355 . S
C399 C401 1.419 . S
C400 C398 1.415 . S
C400 C405 1.425 . S
C400 C407 1.409 . S
C401 H393 0.930 . S
C401 C399 1.419 . S
C401 C402 1.362 . S
C402 H394 0.930 . S
C402 C401 1.362 . S
C402 C405 1.409 . S
C403 H395 0.930 . S
C403 C404 1.355 . S
C403 C405 1.415 . S
C404 C403 1.355 . S
C404 C406 1.419 . S
C405 C400 1.425 . S
C405 C402 1.409 . S
C405 C403 1.415 . S
C406 H396 0.930 . S
C406 C404 1.419 . S
C406 C407 1.362 . S
C407 H397 0.930 . S
C407 C400 1.409 . S
C407 C406 1.362 . S
H408 C414 0.930 . S
H409 C417 0.930 . S
H410 C418 0.930 . S
H411 C419 0.930 . S
H412 C422 0.930 . S
H413 C423 0.930 . S
C414 H408 0.930 . S
C414 C415 1.355 . S
C414 C416 1.415 . S
C415 C414 1.355 . S
C415 C417 1.419 1_545 S
C416 C414 1.415 . S
C416 C421 1.425 1_545 S
C416 C423 1.409 . S
C417 H409 0.930 . S
C417 C415 1.419 1_565 S
C417 C418 1.362 . S
C418 H410 0.930 . S
C418 C417 1.362 . S
C418 C421 1.409 . S
C419 H411 0.930 . S
C419 C420 1.355 . S
C419 C421 1.415 . S
C420 C419 1.355 . S
C420 C422 1.419 1_565 S
C421 C416 1.425 1_565 S
C421 C418 1.409 . S
C421 C419 1.415 . S
C422 H412 0.930 . S
C422 C420 1.419 1_545 S
C422 C423 1.362 . S
C423 H413 0.930 . S
C423 C416 1.409 . S
C423 C422 1.362 . S
H424 C430 0.930 . S
H425 C433 0.930 . S
H426 C434 0.930 . S
H427 C435 0.930 . S
H428 C438 0.930 . S
H429 C439 0.930 . S
C430 H424 0.930 . S
C430 C431 1.355 . S
C430 C432 1.415 . S
C431 C430 1.355 . S
C431 C433 1.419 . S
C432 C430 1.415 . S
C432 C437 1.425 . S
C432 C439 1.409 . S
C433 H425 0.930 . S
C433 C431 1.419 . S
C433 C434 1.362 . S
C434 H426 0.930 . S
C434 C433 1.362 . S
C434 C437 1.409 . S
C435 H427 0.930 . S
C435 C436 1.355 . S
C435 C437 1.415 . S
C436 C435 1.355 . S
C436 C438 1.419 . S
C437 C432 1.425 . S
C437 C434 1.409 . S
C437 C435 1.415 . S
C438 H428 0.930 . S
C438 C436 1.419 . S
C438 C439 1.362 . S
C439 H429 0.930 . S
C439 C432 1.409 . S
C439 C438 1.362 . S
H440 C446 0.930 . S
H441 C449 0.930 . S
H442 C450 0.930 . S
H443 C451 0.930 . S
H444 C454 0.930 . S
H445 C455 0.930 . S
C446 H440 0.930 . S
C446 C447 1.355 1_655 S
C446 C448 1.415 . S
C447 C446 1.355 1_455 S
C447 C449 1.419 . S
C448 C446 1.415 . S
C448 C453 1.425 1_655 S
C448 C455 1.409 . S
C449 H441 0.930 . S
C449 C447 1.419 . S
C449 C450 1.362 . S
C450 H442 0.930 . S
C450 C449 1.362 . S
C450 C453 1.409 . S
C451 H443 0.930 . S
C451 C452 1.355 1_455 S
C451 C453 1.415 . S
C452 C451 1.355 1_655 S
C452 C454 1.419 . S
C453 C448 1.425 1_455 S
C453 C450 1.409 . S
C453 C451 1.415 . S
C454 H444 0.930 . S
C454 C452 1.419 . S
C454 C455 1.362 . S
C455 H445 0.930 . S
C455 C448 1.409 . S
C455 C454 1.362 . S
H456 C462 0.930 . S
H457 C465 0.930 . S
H458 C466 0.930 . S
H459 C467 0.930 . S
H460 C470 0.930 . S
H461 C471 0.930 . S
C462 H456 0.930 . S
C462 C463 1.355 . S
C462 C464 1.415 . S
C463 C462 1.355 . S
C463 C465 1.419 . S
C464 C462 1.415 . S
C464 C469 1.425 1_445 S
C464 C471 1.409 1_545 S
C465 H457 0.930 . S
C465 C463 1.419 . S
C465 C466 1.362 1_455 S
C466 H458 0.930 . S
C466 C465 1.362 1_655 S
C466 C469 1.409 1_545 S
C467 H459 0.930 . S
C467 C468 1.355 . S
C467 C469 1.415 . S
C468 C467 1.355 . S
C468 C470 1.419 . S
C469 C464 1.425 1_665 S
C469 C466 1.409 1_565 S
C469 C467 1.415 . S
C470 H460 0.930 . S
C470 C468 1.419 . S
C470 C471 1.362 1_655 S
C471 H461 0.930 . S
C471 C464 1.409 1_565 S
C471 C470 1.362 1_455 S
H472 C478 0.930 . S
H473 C481 0.930 . S
H474 C482 0.930 . S
H475 C483 0.930 . S
H476 C486 0.930 . S
H477 C487 0.930 . S
C478 H472 0.930 . S
C478 C479 1.355 . S
C478 C480 1.415 1_655 S
C479 C478 1.355 . S
C479 C481 1.419 1_545 S
C480 C478 1.415 1_455 S
C480 C485 1.425 1_445 S
C480 C487 1.409 . S
C481 H473 0.930 . S
C481 C479 1.419 1_565 S
C481 C482 1.362 . S
C482 H474 0.930 . S
C482 C481 1.362 . S
C482 C485 1.409 . S
C483 H475 0.930 . S
C483 C484 1.355 . S
C483 C485 1.415 1_455 S
C484 C483 1.355 . S
C484 C486 1.419 1_565 S
C485 C480 1.425 1_665 S
C485 C482 1.409 . S
C485 C483 1.415 1_655 S
C486 H476 0.930 . S
C486 C484 1.419 1_545 S
C486 C487 1.362 . S
C487 H477 0.930 . S
C487 C480 1.409 . S
C487 C486 1.362 . S
H488 C494 0.930 . S
H489 C497 0.930 . S
H490 C498 0.930 1_655 S
H491 C499 0.930 . S
H492 C502 0.930 . S
H493 C503 0.930 1_455 S
C494 H488 0.930 . S
C494 C495 1.355 . S
C494 C496 1.415 1_545 S
C495 C494 1.355 . S
C495 C497 1.419 . S
C496 C494 1.415 1_565 S
C496 C501 1.425 1_465 S
C496 C503 1.409 1_455 S
C497 H489 0.930 . S
C497 C495 1.419 . S
C497 C498 1.362 . S
C498 H490 0.930 1_455 S
C498 C497 1.362 . S
C498 C501 1.409 1_455 S
C499 H491 0.930 . S
C499 C500 1.355 . S
C499 C501 1.415 1_565 S
C500 C499 1.355 . S
C500 C502 1.419 . S
C501 C496 1.425 1_645 S
C501 C498 1.409 1_655 S
C501 C499 1.415 1_545 S
C502 H492 0.930 . S
C502 C500 1.419 . S
C502 C503 1.362 . S
C503 H493 0.930 1_655 S
C503 C496 1.409 1_655 S
C503 C502 1.362 . S
H504 C510 0.930 . S
H505 C513 0.930 . S
H506 C514 0.930 . S
H507 C515 0.930 . S
H508 C518 0.930 . S
H509 C519 0.930 . S
C510 H504 0.930 . S
C510 C511 1.355 1_545 S
C510 C512 1.415 . S
C511 C510 1.355 1_565 S
C511 C513 1.419 . S
C512 C510 1.415 . S
C512 C517 1.425 1_645 S
C512 C519 1.409 1_655 S
C513 H505 0.930 . S
C513 C511 1.419 . S
C513 C514 1.362 . S
C514 H506 0.930 . S
C514 C513 1.362 . S
C514 C517 1.409 1_655 S
C515 H507 0.930 . S
C515 C516 1.355 1_565 S
C515 C517 1.415 . S
C516 C515 1.355 1_545 S
C516 C518 1.419 . S
C517 C512 1.425 1_465 S
C517 C514 1.409 1_455 S
C517 C515 1.415 . S
C518 H508 0.930 . S
C518 C516 1.419 . S
C518 C519 1.362 . S
C519 H509 0.930 . S
C519 C512 1.409 1_455 S
C519 C518 1.362 . S
H520 C526 0.930 . S
H521 C529 0.930 . S
H522 C530 0.930 1_545 S
H523 C531 0.930 . S
H524 C534 0.930 . S
H525 C535 0.930 1_565 S
C526 H520 0.930 . S
C526 C527 1.355 . S
C526 C528 1.415 1_655 S
C527 C526 1.355 . S
C527 C529 1.419 . S
C528 C526 1.415 1_455 S
C528 C533 1.425 1_465 S
C528 C535 1.409 1_565 S
C529 H521 0.930 . S
C529 C527 1.419 . S
C529 C530 1.362 . S
C530 H522 0.930 1_565 S
C530 C529 1.362 . S
C530 C533 1.409 1_565 S
C531 H523 0.930 . S
C531 C532 1.355 . S
C531 C533 1.415 1_455 S
C532 C531 1.355 . S
C532 C534 1.419 . S
C533 C528 1.425 1_645 S
C533 C530 1.409 1_545 S
C533 C531 1.415 1_655 S
C534 H524 0.930 . S
C534 C532 1.419 . S
C534 C535 1.362 . S
C535 H525 0.930 1_545 S
C535 C528 1.409 1_545 S
C535 C534 1.362 . S
H536 C542 0.930 . S
H537 C545 0.930 . S
H538 C546 0.930 . S
H539 C547 0.930 . S
H540 C550 0.930 . S
H541 C551 0.930 . S
C542 H536 0.930 . S
C542 C543 1.355 1_655 S
C542 C544 1.415 . S
C543 C542 1.355 1_455 S
C543 C545 1.419 . S
C544 C542 1.415 . S
C544 C549 1.425 1_665 S
C544 C551 1.409 . S
C545 H537 0.930 . S
C545 C543 1.419 . S
C545 C546 1.362 1_565 S
C546 H538 0.930 . S
C546 C545 1.362 1_545 S
C546 C549 1.409 . S
C547 H539 0.930 . S
C547 C548 1.355 1_455 S
C547 C549 1.415 . S
C548 C547 1.355 1_655 S
C548 C550 1.419 . S
C549 C544 1.425 1_445 S
C549 C546 1.409 . S
C549 C547 1.415 . S
C550 H540 0.930 . S
C550 C548 1.419 . S
C550 C551 1.362 1_545 S
C551 H541 0.930 . S
C551 C544 1.409 . S
C551 C550 1.362 1_565 S
C175 C154 1.570 . S
C180 C0 1.564 . S
C191 C15 1.550 . S
C196 C97 1.544 . S
C207 C28 1.570 . S
C212 C99 1.545 . S
C223 C55 1.556 . S
C228 C113 1.541 . S
C239 C127 1.563 . S
C244 C68 1.539 . S
C255 C71 1.564 . S
C260 C140 1.539 . S
C271 C1 1.558 . S
C276 C141 1.554 . S
C287 C14 1.555 . S
C292 C155 1.564 . S
C303 C29 1.554 . S
C308 C96 1.556 . S
C319 C54 1.575 . S
C324 C98 1.570 . S
C335 C112 1.551 . S
C340 C69 1.555 . S
C351 C126 1.568 . S
C356 C70 1.574 . S
C367 C42 1.596 . S
C372 C13 1.605 . S
C383 C26 1.567 . S
C388 C57 1.571 . S
C399 C82 1.585 . S
C404 C41 1.574 . S
C415 C138 1.578 . S
C420 C84 1.568 . S
C431 C153 1.572 . S
C436 C110 1.566 . S
C447 C124 1.601 . S
C452 C167 1.605 . S
C463 C12 1.563 . S
C468 C43 1.550 . S
C479 C27 1.545 . S
C484 C56 1.535 . S
C495 C83 1.537 . S
C500 C40 1.536 . S
C511 C85 1.564 . S
C516 C139 1.576 . S
C527 C111 1.539 . S
C532 C152 1.535 . S
C543 C125 1.575 . S
C548 C166 1.579 . S
