# Generated by pormake.
# Topology cdl, (4)-cn, num edge types: 1
# Building blocks:
#     Node 0, Type 0, BuildingBlock: NAWXER_clean_sbu_0, # of connection points: 4
#     Node 1, Type 0, BuildingBlock: NAWXER_clean_sbu_0, # of connection points: 4
#     Node 2, Type 0, BuildingBlock: NAWXER_clean_sbu_0, # of connection points: 4
#     Node 3, Type 0, BuildingBlock: NAWXER_clean_sbu_0, # of connection points: 4
#     Edge 4, Type (0, 0), BuildingBlock: MIFKUJ_clean_linker_0, # of connection points: 2
#     Edge 5, Type (0, 0), BuildingBlock: MIFKUJ_clean_linker_0, # of connection points: 2
#     Edge 6, Type (0, 0), BuildingBlock: MIFKUJ_clean_linker_0, # of connection points: 2
#     Edge 7, Type (0, 0), BuildingBlock: MIFKUJ_clean_linker_0, # of connection points: 2
#     Edge 8, Type (0, 0), BuildingBlock: MIFKUJ_clean_linker_0, # of connection points: 2
#     Edge 9, Type (0, 0), BuildingBlock: MIFKUJ_clean_linker_0, # of connection points: 2
#     Edge 10, Type (0, 0), BuildingBlock: MIFKUJ_clean_linker_0, # of connection points: 2
#     Edge 11, Type (0, 0), BuildingBlock: MIFKUJ_clean_linker_0, # of connection points: 2
# Relax obj value: 0.000
# Max RMSD: 0.003
# Mean RMSD: 0.003
data_MOF--net-cdl--node1-NAWXER_clean_sbu_0--edge1-MIFKUJ_clean_linker_0
_symmetry_space_group_name_H-M    P1
_symmetry_Int_Tables_number       1
_symmetry_cell_setting            triclinic
loop_
_symmetry_equiv_pos_as_xyz
'x, y, z'
_cell_length_a     19.238154
_cell_length_b     19.246445
_cell_length_c     76.746184
_cell_angle_alpha  97.153859
_cell_angle_beta   96.831313
_cell_angle_gamma 88.555211
loop_
_atom_site_label
_atom_site_type_symbol
_atom_site_fract_x
_atom_site_fract_y
_atom_site_fract_z
_atom_type_partial_charge
C0 C 0.1612 0.22552 0.13439 0.0
C1 C 0.16034 0.97065 0.13299 0.0
O2 O 0.21375 0.18422 0.13542 0.0
Zn3 Zn 0.16195 0.0981 0.134 0.0
O4 O 0.09936 0.20054 0.1331 0.0
Zn5 Zn 0.05105 0.10029 0.13173 0.0
O6 O 1.00286 0.10982 0.15259 0.0
O7 O 0.11777 0.10896 0.15872 0.0
O8 O 0.09854 0.99771 0.13187 0.0
O9 O 0.21308 0.01033 0.13444 0.0
O10 O 0.1098 0.08865 0.10735 0.0
O11 O 0.99587 0.09397 0.10888 0.0
C12 C 0.05673 0.11263 0.16396 0.0
C13 C 0.04681 0.08825 0.09964 0.0
C14 C 0.17426 0.97389 0.62819 0.0
C15 C 0.919 0.97434 0.62616 0.0
O16 O 0.13432 0.92124 0.62646 0.0
Zn17 Zn 0.04697 0.97291 0.62758 0.0
O18 O 0.14771 0.03582 0.63015 0.0
Zn19 Zn 0.04573 0.08388 0.63131 0.0
O20 O 0.05142 0.13374 0.65488 0.0
O21 O 0.05548 0.01906 0.65471 0.0
O22 O 0.94449 0.03618 0.62837 0.0
O23 O 0.96014 0.92165 0.62508 0.0
O24 O 0.03862 0.02298 0.60373 0.0
O25 O 0.03887 0.13735 0.61148 0.0
C26 C 0.05608 0.08068 0.66329 0.0
C27 C 0.03645 0.08546 0.59943 0.0
C28 C 0.1725 0.25326 0.89221 0.0
C29 C 0.17155 0.99713 0.88733 0.0
O30 O 0.2252 0.21214 0.89333 0.0
Zn31 Zn 0.17359 0.12537 0.88908 0.0
O32 O 0.11068 0.22762 0.88892 0.0
Zn33 Zn 0.06272 0.12589 0.88417 0.0
O34 O 1.00507 0.1289 0.9032 0.0
O35 O 0.11857 0.13107 0.91217 0.0
O36 O 0.11005 0.02409 0.88494 0.0
O37 O 0.22444 0.03696 0.88987 0.0
O38 O 0.13247 0.12294 0.86168 0.0
O39 O 0.01739 0.1227 0.8602 0.0
C40 C 0.05498 0.13153 0.9157 0.0
C41 C 0.07224 0.12234 0.85246 0.0
C42 C 0.1511 0.97971 0.37818 0.0
C43 C 0.89591 0.97914 0.37602 0.0
O44 O 0.11129 0.92704 0.3766 0.0
Zn45 Zn 0.02339 0.97834 0.37733 0.0
O46 O 0.1243 0.04154 0.37985 0.0
Zn47 Zn 0.02248 0.08939 0.38075 0.0
O48 O 0.02908 0.14082 0.4042 0.0
O49 O 0.02937 0.02631 0.4043 0.0
O50 O 0.92115 0.04114 0.37815 0.0
O51 O 0.93718 0.92655 0.37484 0.0
O52 O 0.01444 0.02675 0.35327 0.0
O53 O 0.01533 0.14133 0.36063 0.0
C54 C 0.03098 0.08823 0.41275 0.0
C55 C 0.01222 0.08886 0.34875 0.0
H56 H 0.28356 0.29927 0.13688 0.0
H57 H 0.29563 0.42524 0.13579 0.0
H58 H 0.07089 0.44963 0.13046 0.0
H59 H 0.05835 0.32465 0.13136 0.0
H60 H 0.12697 0.51725 0.10711 0.0
H61 H 0.17178 0.49794 0.16974 0.0
H62 H 0.23376 0.45365 0.19622 0.0
H63 H 0.42684 0.53682 0.18528 0.0
H64 H 0.36608 0.58083 0.15859 0.0
H65 H 0.05763 0.87335 0.13002 0.0
H66 H 0.07066 0.7469 0.12928 0.0
H67 H 0.29525 0.76583 0.1342 0.0
H68 H 0.28273 0.89342 0.13518 0.0
H69 H 0.25545 0.67526 0.15568 0.0
H70 H 0.20691 0.70637 0.09477 0.0
H71 H 0.14389 0.75152 0.06855 0.0
H72 H 0.95772 0.64591 0.07603 0.0
H73 H 0.01927 0.601 0.10247 0.0
C74 C 0.23677 0.33156 0.13553 0.0
C75 C 0.17 0.30179 0.13423 0.0
C76 C 0.24376 0.40355 0.13495 0.0
C77 C 0.18413 0.44695 0.13312 0.0
C78 C 0.11763 0.41721 0.13183 0.0
C79 C 0.1106 0.34562 0.13242 0.0
C80 C 0.19 0.52335 0.13238 0.0
C81 C 0.15469 0.55186 0.11778 0.0
C82 C 0.2281 0.56826 0.14602 0.0
C83 C 0.26458 0.5419 0.16206 0.0
C84 C 0.22756 0.50624 0.1729 0.0
C85 C 0.26244 0.4813 0.18796 0.0
C86 C 0.33424 0.49221 0.1924 0.0
C87 C 0.37126 0.52828 0.18181 0.0
C88 C 0.33663 0.55326 0.16672 0.0
C89 C 0.10993 0.85089 0.13092 0.0
C90 C 0.16916 0.89366 0.13257 0.0
C91 C 0.11726 0.77838 0.13042 0.0
C92 C 0.18389 0.74671 0.13141 0.0
C93 C 0.24331 0.78915 0.13333 0.0
C94 C 0.23604 0.862 0.13384 0.0
C95 C 0.19069 0.66931 0.13064 0.0
C96 C 0.22851 0.6406 0.14489 0.0
C97 C 0.15483 0.62407 0.11667 0.0
C98 C 0.11764 0.65073 0.1007 0.0
C99 C 0.15238 0.69319 0.09091 0.0
C100 C 0.11693 0.71868 0.07599 0.0
C101 C 0.04681 0.70171 0.07065 0.0
C102 C 0.01203 0.65906 0.08019 0.0
C103 C 0.0472 0.63351 0.09514 0.0
H104 H 0.01946 0.7215 0.05909 0.0
H105 H 0.36115 0.47287 0.20407 0.0
H106 H 0.269 0.0755 0.62692 0.0
H107 H 0.39414 0.06188 0.62487 0.0
H108 H 0.37891 0.83916 0.62561 0.0
H109 H 0.25268 0.85224 0.62763 0.0
H110 H 0.49328 0.9009 0.64828 0.0
H111 H 0.3958 0.89521 0.58774 0.0
H112 H 0.32132 0.93668 0.56261 0.0
H113 H 0.43337 0.13032 0.57052 0.0
H114 H 0.50786 0.09047 0.59588 0.0
H115 H 0.8461 0.85388 0.62691 0.0
H116 H 0.71899 0.84181 0.6259 0.0
H117 H 0.6915 0.06265 0.62201 0.0
H118 H 0.81779 0.07517 0.623 0.0
H119 H 0.5973 0.98573 0.59876 0.0
H120 H 0.67508 1.00656 0.66114 0.0
H121 H 0.7461 0.97719 0.68814 0.0
H122 H 0.672 0.76567 0.67775 0.0
H123 H 0.59964 0.79434 0.65072 0.0
C124 C 0.29201 0.0235 0.62668 0.0
C125 C 0.25066 0.96489 0.6274 0.0
C126 C 0.36362 0.01582 0.62542 0.0
C127 C 0.39566 0.94943 0.62487 0.0
C128 C 0.35504 0.89082 0.62593 0.0
C129 C 0.28299 0.89839 0.62705 0.0
C130 C 0.47176 0.94219 0.62335 0.0
C131 C 0.51594 0.91782 0.63725 0.0
C132 C 0.5014 0.96609 0.60918 0.0
C133 C 0.45713 0.98999 0.5938 0.0
C134 C 0.40426 0.94684 0.58421 0.0
C135 C 0.36207 0.97003 0.5699 0.0
C136 C 0.37252 0.03614 0.56499 0.0
C137 C 0.42532 0.07913 0.57434 0.0
C138 C 0.4676 0.05622 0.58867 0.0
C139 C 0.81293 0.89978 0.62578 0.0
C140 C 0.84217 0.96551 0.62508 0.0
C141 C 0.74035 0.89286 0.62528 0.0
C142 C 0.69577 0.95143 0.62397 0.0
C143 C 0.72482 0.01673 0.62299 0.0
C144 C 0.79717 0.0238 0.62362 0.0
C145 C 0.61884 0.94542 0.62382 0.0
C146 C 0.57454 0.9674 0.60961 0.0
C147 C 0.58907 0.92023 0.63779 0.0
C148 C 0.6328 0.90231 0.65384 0.0
C149 C 0.6744 0.95365 0.66456 0.0
C150 C 0.71476 0.93716 0.67989 0.0
C151 C 0.71417 0.86937 0.6846 0.0
C152 C 0.67263 0.81809 0.67406 0.0
C153 C 0.6317 0.8345 0.65876 0.0
H154 H 0.74562 0.85667 0.69647 0.0
H155 H 0.33979 0.05401 0.55392 0.0
H156 H 0.07108 0.35357 0.8958 0.0
H157 H 0.08228 0.47971 0.89642 0.0
H158 H 0.30402 0.45454 0.89337 0.0
H159 H 0.29352 0.32747 0.89306 0.0
H160 H 0.26937 0.57448 0.91623 0.0
H161 H 0.19814 0.46573 0.8571 0.0
H162 H 0.12256 0.38614 0.83581 0.0
H163 H 0.94337 0.51546 0.84621 0.0
H164 H 0.01752 0.59432 0.86819 0.0
H165 H 0.29286 0.91799 0.89007 0.0
H166 H 0.30337 0.79145 0.89147 0.0
H167 H 0.07848 0.77731 0.88771 0.0
H168 H 0.06755 0.90245 0.88589 0.0
H169 H 0.12624 0.67463 0.86701 0.0
H170 H 0.18655 0.77357 0.92753 0.0
H171 H 0.25308 0.8477 0.95214 0.0
H172 H 0.44304 0.73882 0.94072 0.0
H173 H 0.37777 0.66447 0.91592 0.0
C174 C 0.12246 0.37468 0.89542 0.0
C175 C 0.18128 0.33026 0.89413 0.0
C176 C 0.12875 0.44692 0.8958 0.0
C177 C 0.19376 0.47641 0.89464 0.0
C178 C 0.25333 0.4328 0.89422 0.0
C179 C 0.24716 0.36022 0.89397 0.0
C180 C 0.19785 0.55184 0.89252 0.0
C181 C 0.23909 0.59637 0.90532 0.0
C182 C 0.15722 0.58047 0.87845 0.0
C183 C 0.11338 0.53569 0.8644 0.0
C184 C 0.14259 0.47714 0.85489 0.0
C185 C 0.09993 0.43203 0.84272 0.0
C186 C 0.02816 0.44577 0.83962 0.0
C187 C 0.99897 0.50485 0.84864 0.0
C188 C 0.04128 0.54969 0.86099 0.0
C189 C 0.2457 0.88779 0.88948 0.0
C190 C 0.17938 0.92045 0.88783 0.0
C191 C 0.25179 0.81552 0.89038 0.0
C192 C 0.19171 0.77477 0.88985 0.0
C193 C 0.12562 0.80739 0.88809 0.0
C194 C 0.1195 0.8792 0.88707 0.0
C195 C 0.19671 0.69806 0.89094 0.0
C196 C 0.15728 0.65299 0.87785 0.0
C197 C 0.23815 0.66927 0.90489 0.0
C198 C 0.27745 0.71405 0.91974 0.0
C199 C 0.24261 0.76584 0.93017 0.0
C200 C 0.28005 0.80781 0.94417 0.0
C201 C 0.35225 0.79815 0.94794 0.0
C202 C 0.38714 0.74634 0.93776 0.0
C203 C 0.34996 0.70424 0.92374 0.0
H204 H 0.38113 0.83069 0.95879 0.0
H205 H 0.99509 0.41062 0.83025 0.0
H206 H 0.22939 0.85783 0.37696 0.0
H207 H 0.35586 0.84527 0.37542 0.0
H208 H 0.37184 0.06891 0.37649 0.0
H209 H 0.24634 0.08193 0.37798 0.0
H210 H 0.44172 0.99854 0.35094 0.0
H211 H 0.4235 0.99107 0.41291 0.0
H212 H 0.38146 0.9453 0.43835 0.0
H213 H 0.47183 0.74389 0.42305 0.0
H214 H 0.51361 0.78828 0.39737 0.0
H215 H 0.79484 0.08098 0.37587 0.0
H216 H 0.66882 0.06743 0.37478 0.0
H217 H 0.69595 0.8437 0.37316 0.0
H218 H 0.8231 0.85681 0.37437 0.0
H219 H 0.60395 0.89711 0.39659 0.0
H220 H 0.63328 0.90946 0.33626 0.0
H221 H 0.6769 0.95725 0.31131 0.0
H222 H 0.566 0.15023 0.32353 0.0
H223 H 0.52253 0.104 0.34873 0.0
C224 C 0.25993 0.90431 0.37692 0.0
C225 C 0.22768 0.97089 0.37763 0.0
C226 C 0.33218 0.89705 0.37607 0.0
C227 C 0.37333 0.95621 0.37589 0.0
C228 C 0.34114 0.02253 0.37656 0.0
C229 C 0.26929 0.02986 0.37749 0.0
C230 C 0.44991 0.94987 0.3749 0.0
C231 C 0.47723 0.97672 0.36097 0.0
C232 C 0.49605 0.91947 0.38769 0.0
C233 C 0.47088 0.89272 0.4031 0.0
C234 C 0.43382 0.93684 0.41488 0.0
C235 C 0.41017 0.9112 0.42936 0.0
C236 C 0.42375 0.84166 0.43228 0.0
C237 C 0.4612 0.79769 0.42075 0.0
C238 C 0.48491 0.82307 0.40623 0.0
C239 C 0.77428 0.02875 0.37524 0.0
C240 C 0.8192 0.96992 0.37513 0.0
C241 C 0.70204 0.0211 0.37455 0.0
C242 C 0.67286 0.95449 0.37367 0.0
C243 C 0.7174 0.89557 0.37377 0.0
C244 C 0.78997 0.90315 0.37439 0.0
C245 C 0.59579 0.94736 0.37286 0.0
C246 C 0.56838 0.91795 0.3864 0.0
C247 C 0.54943 0.97549 0.35971 0.0
C248 C 0.57503 1.00339 0.34447 0.0
C249 C 0.61858 0.96227 0.33371 0.0
C250 C 0.64323 0.98906 0.3195 0.0
C251 C 0.62434 0.05677 0.31585 0.0
C252 C 0.58061 0.09779 0.32638 0.0
C253 C 0.55588 0.07128 0.34061 0.0
H254 H 0.64349 0.07742 0.30485 0.0
H255 H 0.40543 0.82191 0.44351 0.0
H256 H 0.13956 0.18144 0.94529 0.0
H257 H 0.12226 0.17427 0.97606 0.0
H258 H 0.92342 0.07449 0.95895 0.0
H259 H 0.93972 0.08284 0.928 0.0
H260 H 0.01066 0.22439 0.99657 0.0
H261 H 0.92871 0.93599 0.98651 0.0
H262 H 0.93914 0.82958 0.96537 0.0
H263 H 0.13156 0.90464 0.95181 0.0
H264 H 0.1231 0.01059 0.97314 0.0
H265 H 0.93019 0.1298 0.07923 0.0
H266 H 0.91642 0.13435 0.04718 0.0
H267 H 0.12199 0.04241 0.04409 0.0
H268 H 0.13657 0.03862 0.07603 0.0
H269 H 0.01962 0.98756 0.01609 0.0
H270 H 0.11055 0.20876 0.04633 0.0
H271 H 0.10802 0.31553 0.06767 0.0
H272 H 0.91097 0.3762 0.04103 0.0
H273 H 0.91185 0.2691 0.01969 0.0
C274 C 0.09173 0.15874 0.94807 0.0
C275 C 0.04106 0.1325 0.93426 0.0
C276 C 0.0818 0.15502 0.96565 0.0
C277 C 0.02174 0.12368 0.96973 0.0
C278 C 0.97015 0.09883 0.95602 0.0
C279 C 0.97945 0.10377 0.93839 0.0
C280 C 0.01579 0.11347 0.98829 0.0
C281 C 0.01166 0.17263 1.00081 0.0
C282 C 0.01808 0.0459 0.99381 0.0
C283 C 0.02464 0.98167 0.98123 0.0
C284 C 0.97335 0.92961 0.97906 0.0
C285 C 0.97899 0.86934 0.96707 0.0
C286 C 0.03588 0.86045 0.95722 0.0
C287 C 0.08746 0.91164 0.95942 0.0
C288 C 0.08222 0.97184 0.97144 0.0
C289 C 0.97199 0.10965 0.07167 0.0
C290 C 0.03466 0.08431 0.08015 0.0
C291 C 0.96408 0.11239 0.05339 0.0
C292 C 0.01832 0.08892 0.04332 0.0
C293 C 0.07948 0.06058 0.05163 0.0
C294 C 0.08786 0.05884 0.0699 0.0
C295 C 0.01406 0.0985 0.02436 0.0
C296 C 0.01674 0.03925 0.01178 0.0
C297 C 0.01122 0.16602 0.0188 0.0
C298 C 0.01084 0.23054 0.03156 0.0
C299 C 0.06638 0.24454 0.04512 0.0
C300 C 0.0653 0.30517 0.0572 0.0
C301 C 0.00926 0.35252 0.05574 0.0
C302 C 0.95427 0.33941 0.04217 0.0
C303 C 0.95503 0.27876 0.03008 0.0
H304 H 1.00855 0.39945 0.0651 0.0
H305 H 0.04008 0.81385 0.94791 0.0
H306 H 0.0447 0.21019 0.4357 0.0
H307 H 0.04341 0.22353 0.46789 0.0
H308 H 0.01918 1.00044 0.46595 0.0
H309 H 0.02041 0.98661 0.434 0.0
H310 H 0.92618 0.07495 0.48558 0.0
H311 H 0.17439 0.07432 0.48027 0.0
H312 H 0.28165 0.11711 0.47065 0.0
H313 H 0.25013 0.31935 0.49938 0.0
H314 H 0.14207 0.27796 0.50898 0.0
H315 H 0.01918 0.98571 0.57083 0.0
H316 H 0.0146 1.00142 0.53971 0.0
H317 H 0.04017 0.22407 0.55379 0.0
H318 H 0.04522 0.20879 0.5852 0.0
H319 H 0.1249 0.16903 0.52853 0.0
H320 H 0.88371 0.16565 0.53659 0.0
H321 H 0.77743 0.12221 0.54653 0.0
H322 H 0.7947 0.92888 0.5127 0.0
H323 H 0.90173 0.97072 0.50274 0.0
C324 C 0.03937 0.164 0.44215 0.0
C325 C 0.03265 0.09734 0.43226 0.0
C326 C 0.03879 0.1717 0.46054 0.0
C327 C 0.03127 0.11293 0.4693 0.0
C328 C 0.0248 0.04651 0.45945 0.0
C329 C 0.0258 0.03872 0.44117 0.0
C330 C 0.02898 0.11981 0.4887 0.0
C331 C 0.96977 0.09519 0.49497 0.0
C332 C 0.08488 0.14841 0.50094 0.0
C333 C 0.14969 0.17333 0.49515 0.0
C334 C 0.18996 0.12811 0.4844 0.0
C335 C 0.25098 0.15206 0.47898 0.0
C336 C 0.27256 0.22098 0.48435 0.0
C337 C 0.23326 0.26603 0.49519 0.0
C338 C 0.17215 0.24235 0.50063 0.0
C339 C 0.02365 0.03817 0.56738 0.0
C340 C 0.03228 0.09606 0.58053 0.0
C341 C 0.02078 0.04706 0.54955 0.0
C342 C 0.02626 0.11399 0.54442 0.0
C343 C 0.0356 0.17199 0.55748 0.0
C344 C 0.03817 0.16318 0.5754 0.0
C345 C 0.02288 0.12231 0.52537 0.0
C346 C 0.08083 0.14986 0.51915 0.0
C347 C 0.96572 0.09653 0.51314 0.0
C348 C 0.90108 0.07119 0.51901 0.0
C349 C 0.86515 0.11367 0.53136 0.0
C350 C 0.80472 0.08936 0.53699 0.0
C351 C 0.7794 0.02278 0.53027 0.0
C352 C 0.81439 0.98043 0.51789 0.0
C353 C 0.8749 1.00446 0.51223 0.0
H354 H 0.7326 1.00405 0.53465 0.0
H355 H 0.31984 0.23941 0.48015 0.0
H356 H 0.98122 0.99047 0.32029 0.0
H357 H 0.98449 1.00275 0.28915 0.0
H358 H 0.04074 0.21986 0.30305 0.0
H359 H 0.03574 0.20842 0.33433 0.0
H360 H 0.95217 0.20471 0.27341 0.0
H361 H 0.16566 0.0945 0.29474 0.0
H362 H 0.23851 1.00687 0.30957 0.0
H363 H 0.14713 0.84254 0.27136 0.0
H364 H 0.07298 0.92913 0.25644 0.0
H365 H 0.16169 0.12558 0.19137 0.0
H366 H 0.1516 0.13118 0.22289 0.0
H367 H 0.92693 0.1171 0.21164 0.0
H368 H 0.93649 0.11264 0.17999 0.0
H369 H 0.10565 0.03798 0.24061 0.0
H370 H 0.85106 0.2037 0.24651 0.0
H371 H 0.78806 0.29979 0.23266 0.0
H372 H 0.98066 0.36869 0.21773 0.0
H373 H 0.04492 0.27368 0.23169 0.0
C374 C 0.9938 0.04105 0.31674 0.0
C375 C 1.00895 0.09832 0.32981 0.0
C376 C 0.99581 0.04792 0.29892 0.0
C377 C 0.01423 0.11185 0.29378 0.0
C378 C 0.02666 0.16994 0.30672 0.0
C379 C 0.02395 0.16329 0.32459 0.0
C380 C 0.02334 0.11691 0.27502 0.0
C381 C 0.98565 0.16824 0.26622 0.0
C382 C 0.06831 0.0704 0.26574 0.0
C383 C 0.11336 0.01825 0.27456 0.0
C384 C 0.1608 0.03962 0.28956 0.0
C385 C 0.20235 0.99016 0.29798 0.0
C386 C 0.19734 0.91917 0.29143 0.0
C387 C 0.1509 0.89754 0.27642 0.0
C388 C 0.10914 0.94679 0.26797 0.0
C389 C 0.11001 0.12411 0.19557 0.0
C390 C 0.04987 0.11857 0.18313 0.0
C391 C 0.10437 0.12717 0.21362 0.0
C392 C 0.03855 0.12492 0.21967 0.0
C393 C 0.97827 0.11994 0.20731 0.0
C394 C 0.98384 0.11709 0.18921 0.0
C395 C 0.03351 0.125 0.23885 0.0
C396 C 0.07203 0.07449 0.24776 0.0
C397 C 0.99073 0.1734 0.2483 0.0
C398 C 0.95262 0.23106 0.23998 0.0
C399 C 0.87997 0.23949 0.24032 0.0
C400 C 0.84405 0.29376 0.23244 0.0
C401 C 0.8803 0.34016 0.22427 0.0
C402 C 0.9526 0.33254 0.224 0.0
C403 C 0.98877 0.27842 0.23187 0.0
H404 H 0.85238 0.38211 0.21817 0.0
H405 H 0.22954 0.88095 0.29797 0.0
H406 H 0.10186 0.98474 0.6855 0.0
H407 H 0.10313 0.99595 0.71758 0.0
H408 H 0.0172 0.20518 0.71724 0.0
H409 H 0.01873 0.19527 0.68519 0.0
H410 H 0.11016 0.20451 0.74408 0.0
H411 H 0.91771 0.05586 0.71987 0.0
H412 H 0.86076 0.95376 0.70171 0.0
H413 H 0.98581 0.81528 0.73261 0.0
H414 H 0.04541 0.91648 0.75062 0.0
H415 H 0.95436 0.11289 0.82833 0.0
H416 H 0.94777 0.11222 0.79622 0.0
H417 H 0.17235 0.13002 0.80051 0.0
H418 H 0.17939 0.13134 0.83249 0.0
H419 H 1.00054 0.02174 0.77172 0.0
H420 H 0.21982 0.21921 0.77204 0.0
H421 H 0.26526 0.33016 0.78868 0.0
H422 H 0.06088 0.38299 0.80381 0.0
H423 H 0.01498 0.27151 0.7878 0.0
C424 C 0.08354 0.03328 0.69227 0.0
C425 C 0.05983 0.08902 0.68281 0.0
C426 C 0.08391 0.03948 0.71062 0.0
C427 C 0.05882 0.10084 0.71984 0.0
C428 C 0.0366 0.15718 0.71044 0.0
C429 C 0.03743 0.15148 0.69212 0.0
C430 C 0.05552 0.10632 0.73925 0.0
C431 C 0.08615 0.16438 0.75006 0.0
C432 C 0.02305 0.05478 0.74716 0.0
C433 C 0.98647 0.99385 0.73651 0.0
C434 C 0.93344 1.00365 0.72273 0.0
C435 C 0.90063 0.94592 0.71246 0.0
C436 C 0.91943 0.8781 0.71602 0.0
C437 C 0.97127 0.86785 0.72986 0.0
C438 C 1.00471 0.92539 0.74008 0.0
C439 C 1.00232 0.11694 0.82244 0.0
C440 C 0.06741 0.12212 0.83301 0.0
C441 C 0.99846 0.11647 0.80409 0.0
C442 C 0.05948 0.12183 0.79596 0.0
C443 C 0.12443 0.12706 0.80649 0.0
C444 C 0.12837 0.12729 0.82479 0.0
C445 C 0.05589 0.11936 0.77643 0.0
C446 C 0.02433 0.06173 0.76565 0.0
C447 C 0.08598 0.17188 0.76846 0.0
C448 C 0.11427 0.23697 0.77888 0.0
C449 C 0.18487 0.25433 0.77908 0.0
C450 C 0.21075 0.31711 0.78847 0.0
C451 C 0.16614 0.36334 0.79746 0.0
C452 C 0.09567 0.3467 0.79713 0.0
C453 C 0.06982 0.28351 0.78801 0.0
H454 H 0.18606 0.4122 0.80461 0.0
H455 H 0.89382 0.83352 0.70806 0.0
loop_
_geom_bond_atom_site_label_1
_geom_bond_atom_site_label_2
_geom_bond_distance
_geom_bond_site_symmetry_2
_ccdc_geom_bond_type
C0 O2 1.247 . S
C0 O4 1.258 . S
C1 O8 1.247 . S
C1 O9 1.258 . S
O2 C0 1.247 . S
O2 Zn3 2.028 . S
Zn3 O2 2.028 . S
Zn3 O7 2.035 . S
Zn3 O9 2.035 1_545 S
Zn3 O10 2.028 . S
O4 C0 1.258 . S
O4 Zn5 2.035 1_455 S
Zn5 O4 2.035 1_655 S
Zn5 O6 2.028 1_655 S
Zn5 O8 2.028 1_645 S
Zn5 O11 2.035 1_655 S
O6 Zn5 2.028 1_455 S
O6 C12 1.247 . S
O7 Zn3 2.035 . S
O7 C12 1.258 . S
O8 C1 1.247 . S
O8 Zn5 2.028 1_465 S
O9 C1 1.258 . S
O9 Zn3 2.035 1_565 S
O10 Zn3 2.028 . S
O10 C13 1.247 . S
O11 Zn5 2.035 1_455 S
O11 C13 1.258 . S
C12 O6 1.247 . S
C12 O7 1.258 . S
C13 O10 1.247 . S
C13 O11 1.258 . S
C14 O16 1.247 . S
C14 O18 1.258 . S
C15 O22 1.247 . S
C15 O23 1.258 . S
O16 C14 1.247 . S
O16 Zn17 2.028 1_545 S
Zn17 O16 2.028 1_565 S
Zn17 O21 2.035 1_565 S
Zn17 O23 2.035 1_465 S
Zn17 O24 2.028 1_565 S
O18 C14 1.258 . S
O18 Zn19 2.035 . S
Zn19 O18 2.035 . S
Zn19 O20 2.028 . S
Zn19 O22 2.028 1_455 S
Zn19 O25 2.035 . S
O20 Zn19 2.028 . S
O20 C26 1.247 . S
O21 Zn17 2.035 1_545 S
O21 C26 1.258 . S
O22 C15 1.247 . S
O22 Zn19 2.028 1_655 S
O23 C15 1.258 . S
O23 Zn17 2.035 1_645 S
O24 Zn17 2.028 1_545 S
O24 C27 1.247 . S
O25 Zn19 2.035 . S
O25 C27 1.258 . S
C26 O20 1.247 . S
C26 O21 1.258 . S
C27 O24 1.247 . S
C27 O25 1.258 . S
C28 O30 1.247 . S
C28 O32 1.258 . S
C29 O36 1.247 . S
C29 O37 1.258 . S
O30 C28 1.247 . S
O30 Zn31 2.028 . S
Zn31 O30 2.028 . S
Zn31 O35 2.035 . S
Zn31 O37 2.035 1_545 S
Zn31 O38 2.028 . S
O32 C28 1.258 . S
O32 Zn33 2.035 1_455 S
Zn33 O32 2.035 1_655 S
Zn33 O34 2.028 1_655 S
Zn33 O36 2.028 1_645 S
Zn33 O39 2.035 1_655 S
O34 Zn33 2.028 1_455 S
O34 C40 1.247 . S
O35 Zn31 2.035 . S
O35 C40 1.258 . S
O36 C29 1.247 . S
O36 Zn33 2.028 1_465 S
O37 C29 1.258 . S
O37 Zn31 2.035 1_565 S
O38 Zn31 2.028 . S
O38 C41 1.247 . S
O39 Zn33 2.035 1_455 S
O39 C41 1.258 . S
C40 O34 1.247 . S
C40 O35 1.258 . S
C41 O38 1.247 . S
C41 O39 1.258 . S
C42 O44 1.247 . S
C42 O46 1.258 . S
C43 O50 1.247 . S
C43 O51 1.258 . S
O44 C42 1.247 . S
O44 Zn45 2.028 1_545 S
Zn45 O44 2.028 1_565 S
Zn45 O49 2.035 1_565 S
Zn45 O51 2.035 1_465 S
Zn45 O52 2.028 1_565 S
O46 C42 1.258 . S
O46 Zn47 2.035 . S
Zn47 O46 2.035 . S
Zn47 O48 2.028 . S
Zn47 O50 2.028 1_455 S
Zn47 O53 2.035 . S
O48 Zn47 2.028 . S
O48 C54 1.247 . S
O49 Zn45 2.035 1_545 S
O49 C54 1.258 . S
O50 C43 1.247 . S
O50 Zn47 2.028 1_655 S
O51 C43 1.258 . S
O51 Zn45 2.035 1_645 S
O52 Zn45 2.028 1_545 S
O52 C55 1.247 . S
O53 Zn47 2.035 . S
O53 C55 1.258 . S
C54 O48 1.247 . S
C54 O49 1.258 . S
C55 O52 1.247 . S
C55 O53 1.258 . S
H56 C74 0.951 . S
H57 C76 0.951 . S
H58 C78 0.950 . S
H59 C79 0.950 . S
H60 C81 0.950 1_655 S
H61 C84 0.950 . S
H62 C85 0.950 . S
H63 C87 0.950 . S
H64 C88 0.950 . S
H65 C89 0.951 . S
H66 C91 0.951 . S
H67 C93 0.950 . S
H68 C94 0.950 . S
H69 C96 0.950 . S
H70 C99 0.950 . S
H71 C100 0.950 . S
H72 C102 0.950 . S
H73 C103 0.950 . S
C74 H56 0.951 . S
C74 C75 1.366 . S
C74 C76 1.388 . S
C75 C74 1.366 . S
C75 C79 1.385 . S
C76 H57 0.951 . S
C76 C74 1.388 . S
C76 C77 1.366 . S
C77 C76 1.366 . S
C77 C78 1.414 . S
C77 C80 1.499 . S
C78 H58 0.950 . S
C78 C77 1.414 . S
C78 C79 1.374 . S
C79 H59 0.950 . S
C79 C75 1.385 . S
C79 C78 1.374 . S
C80 C77 1.499 . S
C80 C81 1.373 . S
C80 C82 1.389 . S
C81 H60 0.950 1_455 S
C81 C80 1.373 . S
C81 C97 1.377 . S
C82 C80 1.389 . S
C82 C83 1.524 . S
C82 C96 1.377 . S
C83 C82 1.524 . S
C83 C84 1.397 . S
C83 C88 1.363 . S
C84 H61 0.950 . S
C84 C83 1.397 . S
C84 C85 1.334 . S
C85 H62 0.950 . S
C85 C84 1.334 . S
C85 C86 1.287 . S
C86 C85 1.287 . S
C86 C87 1.524 . S
C86 H105 0.913 . S
C87 H63 0.950 . S
C87 C86 1.524 . S
C87 C88 1.415 . S
C88 H64 0.950 . S
C88 C83 1.363 . S
C88 C87 1.415 . S
C89 H65 0.951 . S
C89 C90 1.366 . S
C89 C91 1.388 . S
C90 C89 1.366 . S
C90 C94 1.385 . S
C91 H66 0.951 . S
C91 C89 1.388 . S
C91 C92 1.366 . S
C92 C91 1.366 . S
C92 C93 1.414 . S
C92 C95 1.499 . S
C93 H67 0.950 . S
C93 C92 1.414 . S
C93 C94 1.374 . S
C94 H68 0.950 . S
C94 C90 1.385 . S
C94 C93 1.374 . S
C95 C92 1.499 . S
C95 C96 1.373 . S
C95 C97 1.389 . S
C96 H69 0.950 . S
C96 C82 1.377 . S
C96 C95 1.373 . S
C97 C81 1.377 . S
C97 C95 1.389 . S
C97 C98 1.524 1_455 S
C98 C97 1.524 1_655 S
C98 C99 1.397 . S
C98 C103 1.363 . S
C99 H70 0.950 . S
C99 C98 1.397 . S
C99 C100 1.334 . S
C100 H71 0.950 . S
C100 C99 1.334 . S
C100 C101 1.287 . S
C101 C100 1.287 . S
C101 C102 1.524 . S
C101 H104 0.999 . S
C102 H72 0.950 . S
C102 C101 1.524 . S
C102 C103 1.415 . S
C103 H73 0.950 . S
C103 C98 1.363 . S
C103 C102 1.415 . S
H104 C101 0.999 . S
H105 C86 0.913 . S
H106 C124 0.951 . S
H107 C126 0.951 . S
H108 C128 0.950 . S
H109 C129 0.950 . S
H110 C131 0.950 . S
H111 C134 0.950 . S
H112 C135 0.950 . S
H113 C137 0.950 . S
H114 C138 0.950 . S
H115 C139 0.951 . S
H116 C141 0.951 . S
H117 C143 0.950 . S
H118 C144 0.950 . S
H119 C146 0.950 . S
H120 C149 0.950 . S
H121 C150 0.950 . S
H122 C152 0.950 . S
H123 C153 0.950 . S
C124 H106 0.951 . S
C124 C125 1.366 . S
C124 C126 1.388 . S
C125 C124 1.366 . S
C125 C129 1.385 . S
C126 H107 0.951 . S
C126 C124 1.388 . S
C126 C127 1.366 . S
C127 C126 1.366 . S
C127 C128 1.414 . S
C127 C130 1.499 . S
C128 H108 0.950 . S
C128 C127 1.414 . S
C128 C129 1.374 . S
C129 H109 0.950 . S
C129 C125 1.385 . S
C129 C128 1.374 . S
C130 C127 1.499 . S
C130 C131 1.373 . S
C130 C132 1.389 . S
C131 H110 0.950 . S
C131 C130 1.373 . S
C131 C147 1.377 . S
C132 C130 1.389 . S
C132 C133 1.525 . S
C132 C146 1.377 . S
C133 C132 1.525 . S
C133 C134 1.395 1_545 S
C133 C138 1.363 . S
C134 H111 0.950 . S
C134 C133 1.395 1_565 S
C134 C135 1.334 . S
C135 H112 0.950 . S
C135 C134 1.334 . S
C135 C136 1.287 . S
C136 C135 1.287 . S
C136 C137 1.524 . S
C136 H155 0.913 . S
C137 H113 0.950 . S
C137 C136 1.524 . S
C137 C138 1.415 1_565 S
C138 H114 0.950 . S
C138 C133 1.363 . S
C138 C137 1.415 1_545 S
C139 H115 0.951 . S
C139 C140 1.366 . S
C139 C141 1.388 . S
C140 C139 1.366 . S
C140 C144 1.385 . S
C141 H116 0.951 . S
C141 C139 1.388 . S
C141 C142 1.366 . S
C142 C141 1.366 . S
C142 C143 1.414 . S
C142 C145 1.499 . S
C143 H117 0.950 . S
C143 C142 1.414 . S
C143 C144 1.374 . S
C144 H118 0.950 . S
C144 C140 1.385 . S
C144 C143 1.374 . S
C145 C142 1.499 . S
C145 C146 1.373 . S
C145 C147 1.389 . S
C146 H119 0.950 . S
C146 C132 1.377 . S
C146 C145 1.373 . S
C147 C131 1.377 . S
C147 C145 1.389 . S
C147 C148 1.524 . S
C148 C147 1.524 . S
C148 C149 1.397 . S
C148 C153 1.363 . S
C149 H120 0.950 . S
C149 C148 1.397 . S
C149 C150 1.334 . S
C150 H121 0.950 . S
C150 C149 1.334 . S
C150 C151 1.287 . S
C151 C150 1.287 . S
C151 C152 1.524 . S
C151 H154 0.999 . S
C152 H122 0.950 . S
C152 C151 1.524 . S
C152 C153 1.415 . S
C153 H123 0.950 . S
C153 C148 1.363 . S
C153 C152 1.415 . S
H154 C151 0.999 . S
H155 C136 0.913 . S
H156 C174 0.951 1_655 S
H157 C176 0.951 1_655 S
H158 C178 0.950 . S
H159 C179 0.950 . S
H160 C181 0.950 . S
H161 C184 0.950 . S
H162 C185 0.950 . S
H163 C187 0.950 . S
H164 C188 0.950 . S
H165 C189 0.951 . S
H166 C191 0.951 . S
H167 C193 0.950 1_655 S
H168 C194 0.950 1_655 S
H169 C196 0.950 . S
H170 C199 0.950 . S
H171 C200 0.950 . S
H172 C202 0.950 . S
H173 C203 0.950 . S
C174 H156 0.951 1_455 S
C174 C175 1.366 . S
C174 C176 1.388 . S
C175 C174 1.366 . S
C175 C179 1.385 . S
C176 H157 0.951 1_455 S
C176 C174 1.388 . S
C176 C177 1.366 . S
C177 C176 1.366 . S
C177 C178 1.414 . S
C177 C180 1.499 . S
C178 H158 0.950 . S
C178 C177 1.414 . S
C178 C179 1.374 . S
C179 H159 0.950 . S
C179 C175 1.385 . S
C179 C178 1.374 . S
C180 C177 1.499 . S
C180 C181 1.373 . S
C180 C182 1.389 1_455 S
C181 H160 0.950 . S
C181 C180 1.373 . S
C181 C197 1.377 . S
C182 C180 1.389 1_655 S
C182 C183 1.524 . S
C182 C196 1.377 . S
C183 C182 1.524 . S
C183 C184 1.397 . S
C183 C188 1.363 . S
C184 H161 0.950 . S
C184 C183 1.397 . S
C184 C185 1.334 . S
C185 H162 0.950 . S
C185 C184 1.334 . S
C185 C186 1.287 . S
C186 C185 1.287 . S
C186 C187 1.524 . S
C186 H205 0.913 . S
C187 H163 0.950 . S
C187 C186 1.524 . S
C187 C188 1.415 . S
C188 H164 0.950 . S
C188 C183 1.363 . S
C188 C187 1.415 . S
C189 H165 0.951 . S
C189 C190 1.366 . S
C189 C191 1.388 . S
C190 C189 1.366 . S
C190 C194 1.385 . S
C191 H166 0.951 . S
C191 C189 1.388 . S
C191 C192 1.366 . S
C192 C191 1.366 . S
C192 C193 1.414 . S
C192 C195 1.499 . S
C193 H167 0.950 1_455 S
C193 C192 1.414 . S
C193 C194 1.374 . S
C194 H168 0.950 1_455 S
C194 C190 1.385 . S
C194 C193 1.374 . S
C195 C192 1.499 . S
C195 C196 1.373 1_455 S
C195 C197 1.389 . S
C196 H169 0.950 . S
C196 C182 1.377 . S
C196 C195 1.373 1_655 S
C197 C181 1.377 . S
C197 C195 1.389 . S
C197 C198 1.524 . S
C198 C197 1.524 . S
C198 C199 1.397 . S
C198 C203 1.363 . S
C199 H170 0.950 . S
C199 C198 1.397 . S
C199 C200 1.334 . S
C200 H171 0.950 . S
C200 C199 1.334 . S
C200 C201 1.287 . S
C201 C200 1.287 . S
C201 C202 1.524 . S
C201 H204 0.999 . S
C202 H172 0.950 . S
C202 C201 1.524 . S
C202 C203 1.415 . S
C203 H173 0.950 . S
C203 C198 1.363 . S
C203 C202 1.415 . S
H204 C201 0.999 . S
H205 C186 0.913 . S
H206 C224 0.951 . S
H207 C226 0.951 . S
H208 C228 0.950 . S
H209 C229 0.950 . S
H210 C231 0.950 . S
H211 C234 0.950 . S
H212 C235 0.950 . S
H213 C237 0.950 . S
H214 C238 0.950 . S
H215 C239 0.951 . S
H216 C241 0.951 . S
H217 C243 0.950 . S
H218 C244 0.950 . S
H219 C246 0.950 . S
H220 C249 0.950 . S
H221 C250 0.950 . S
H222 C252 0.950 . S
H223 C253 0.950 . S
C224 H206 0.951 . S
C224 C225 1.366 . S
C224 C226 1.388 . S
C225 C224 1.366 . S
C225 C229 1.385 . S
C226 H207 0.951 . S
C226 C224 1.388 . S
C226 C227 1.366 . S
C227 C226 1.366 . S
C227 C228 1.414 . S
C227 C230 1.499 . S
C228 H208 0.950 . S
C228 C227 1.414 . S
C228 C229 1.374 . S
C229 H209 0.950 . S
C229 C225 1.385 . S
C229 C228 1.374 . S
C230 C227 1.499 . S
C230 C231 1.373 . S
C230 C232 1.389 . S
C231 H210 0.950 . S
C231 C230 1.373 . S
C231 C247 1.377 . S
C232 C230 1.389 . S
C232 C233 1.524 . S
C232 C246 1.377 . S
C233 C232 1.524 . S
C233 C234 1.397 . S
C233 C238 1.363 . S
C234 H211 0.950 . S
C234 C233 1.397 . S
C234 C235 1.334 . S
C235 H212 0.950 . S
C235 C234 1.334 . S
C235 C236 1.287 . S
C236 C235 1.287 . S
C236 C237 1.524 . S
C236 H255 0.913 . S
C237 H213 0.950 . S
C237 C236 1.524 . S
C237 C238 1.415 . S
C238 H214 0.950 . S
C238 C233 1.363 . S
C238 C237 1.415 . S
C239 H215 0.951 . S
C239 C240 1.366 . S
C239 C241 1.388 . S
C240 C239 1.366 . S
C240 C244 1.385 . S
C241 H216 0.951 . S
C241 C239 1.388 . S
C241 C242 1.366 . S
C242 C241 1.366 . S
C242 C243 1.414 . S
C242 C245 1.499 . S
C243 H217 0.950 . S
C243 C242 1.414 . S
C243 C244 1.374 . S
C244 H218 0.950 . S
C244 C240 1.385 . S
C244 C243 1.374 . S
C245 C242 1.499 . S
C245 C246 1.373 . S
C245 C247 1.389 . S
C246 H219 0.950 . S
C246 C232 1.377 . S
C246 C245 1.373 . S
C247 C231 1.377 . S
C247 C245 1.389 . S
C247 C248 1.524 1_545 S
C248 C247 1.524 1_565 S
C248 C249 1.397 . S
C248 C253 1.363 1_565 S
C249 H220 0.950 . S
C249 C248 1.397 . S
C249 C250 1.334 . S
C250 H221 0.950 . S
C250 C249 1.334 . S
C250 C251 1.287 . S
C251 C250 1.287 . S
C251 C252 1.524 . S
C251 H254 0.999 . S
C252 H222 0.950 . S
C252 C251 1.524 . S
C252 C253 1.415 1_565 S
C253 H223 0.950 . S
C253 C248 1.363 1_545 S
C253 C252 1.415 1_545 S
H254 C251 0.999 . S
H255 C236 0.913 . S
H256 C274 0.951 1_565 S
H257 C276 0.951 1_565 S
H258 C278 0.950 . S
H259 C279 0.950 . S
H260 C281 0.950 . S
H261 C284 0.950 1_545 S
H262 C285 0.950 . S
H263 C287 0.950 . S
H264 C288 0.950 1_455 S
H265 C289 0.951 . S
H266 C291 0.951 . S
H267 C293 0.950 1_565 S
H268 C294 0.950 1_565 S
H269 C296 0.950 1_565 S
H270 C299 0.950 . S
H271 C300 0.950 . S
H272 C302 0.950 . S
H273 C303 0.950 . S
C274 H256 0.951 1_545 S
C274 C275 1.366 . S
C274 C276 1.388 . S
C275 C274 1.366 . S
C275 C279 1.385 . S
C276 H257 0.951 1_545 S
C276 C274 1.388 . S
C276 C277 1.366 . S
C277 C276 1.366 . S
C277 C278 1.414 . S
C277 C280 1.499 . S
C278 H258 0.950 . S
C278 C277 1.414 . S
C278 C279 1.374 . S
C279 H259 0.950 . S
C279 C275 1.385 . S
C279 C278 1.374 . S
C280 C277 1.499 . S
C280 C281 1.373 . S
C280 C282 1.389 . S
C281 H260 0.950 . S
C281 C280 1.373 . S
C281 C297 1.377 1_556 S
C282 C280 1.389 . S
C282 C283 1.524 1_445 S
C282 C296 1.377 1_556 S
C283 C282 1.524 1_665 S
C283 C284 1.397 . S
C283 C288 1.363 . S
C284 H261 0.950 1_565 S
C284 C283 1.397 . S
C284 C285 1.334 . S
C285 H262 0.950 . S
C285 C284 1.334 . S
C285 C286 1.287 . S
C286 C285 1.287 . S
C286 C287 1.524 . S
C286 H305 0.913 . S
C287 H263 0.950 . S
C287 C286 1.524 . S
C287 C288 1.415 . S
C288 H264 0.950 1_655 S
C288 C283 1.363 . S
C288 C287 1.415 . S
C289 H265 0.951 . S
C289 C290 1.366 . S
C289 C291 1.388 . S
C290 C289 1.366 . S
C290 C294 1.385 . S
C291 H266 0.951 . S
C291 C289 1.388 . S
C291 C292 1.366 . S
C292 C291 1.366 . S
C292 C293 1.414 . S
C292 C295 1.499 . S
C293 H267 0.950 1_545 S
C293 C292 1.414 . S
C293 C294 1.374 . S
C294 H268 0.950 1_545 S
C294 C290 1.385 . S
C294 C293 1.374 . S
C295 C292 1.499 . S
C295 C296 1.373 . S
C295 C297 1.389 . S
C296 H269 0.950 1_545 S
C296 C282 1.377 1_554 S
C296 C295 1.373 . S
C297 C281 1.377 1_554 S
C297 C295 1.389 . S
C297 C298 1.524 . S
C298 C297 1.524 . S
C298 C299 1.397 . S
C298 C303 1.363 . S
C299 H270 0.950 . S
C299 C298 1.397 . S
C299 C300 1.334 . S
C300 H271 0.950 . S
C300 C299 1.334 . S
C300 C301 1.287 . S
C301 C300 1.287 . S
C301 C302 1.524 . S
C301 H304 0.999 . S
C302 H272 0.950 . S
C302 C301 1.524 . S
C302 C303 1.415 . S
C303 H273 0.950 . S
C303 C298 1.363 . S
C303 C302 1.415 . S
H304 C301 0.999 . S
H305 C286 0.913 . S
H306 C324 0.951 . S
H307 C326 0.951 . S
H308 C328 0.950 1_655 S
H309 C329 0.950 1_655 S
H310 C331 0.950 1_655 S
H311 C334 0.950 . S
H312 C335 0.950 . S
H313 C337 0.950 . S
H314 C338 0.950 . S
H315 C339 0.951 1_655 S
H316 C341 0.951 1_655 S
H317 C343 0.950 . S
H318 C344 0.950 . S
H319 C346 0.950 . S
H320 C349 0.950 1_455 S
H321 C350 0.950 . S
H322 C352 0.950 . S
H323 C353 0.950 . S
C324 H306 0.951 . S
C324 C325 1.366 . S
C324 C326 1.388 . S
C325 C324 1.366 . S
C325 C329 1.385 . S
C326 H307 0.951 . S
C326 C324 1.388 . S
C326 C327 1.366 . S
C327 C326 1.366 . S
C327 C328 1.414 . S
C327 C330 1.499 . S
C328 H308 0.950 1_455 S
C328 C327 1.414 . S
C328 C329 1.374 . S
C329 H309 0.950 1_455 S
C329 C325 1.385 . S
C329 C328 1.374 . S
C330 C327 1.499 . S
C330 C331 1.373 . S
C330 C332 1.389 . S
C331 H310 0.950 1_455 S
C331 C330 1.373 . S
C331 C347 1.377 . S
C332 C330 1.389 . S
C332 C333 1.524 1_545 S
C332 C346 1.377 . S
C333 C332 1.524 1_565 S
C333 C334 1.397 . S
C333 C338 1.363 1_565 S
C334 H311 0.950 . S
C334 C333 1.397 . S
C334 C335 1.334 . S
C335 H312 0.950 . S
C335 C334 1.334 . S
C335 C336 1.287 . S
C336 C335 1.287 . S
C336 C337 1.524 . S
C336 H355 0.913 . S
C337 H313 0.950 . S
C337 C336 1.524 . S
C337 C338 1.415 1_565 S
C338 H314 0.950 . S
C338 C333 1.363 1_545 S
C338 C337 1.415 1_545 S
C339 H315 0.951 1_455 S
C339 C340 1.366 . S
C339 C341 1.388 . S
C340 C339 1.366 . S
C340 C344 1.385 . S
C341 H316 0.951 1_455 S
C341 C339 1.388 . S
C341 C342 1.366 . S
C342 C341 1.366 . S
C342 C343 1.414 . S
C342 C345 1.499 . S
C343 H317 0.950 . S
C343 C342 1.414 . S
C343 C344 1.374 . S
C344 H318 0.950 . S
C344 C340 1.385 . S
C344 C343 1.374 . S
C345 C342 1.499 . S
C345 C346 1.373 . S
C345 C347 1.389 . S
C346 H319 0.950 . S
C346 C332 1.377 . S
C346 C345 1.373 . S
C347 C331 1.377 . S
C347 C345 1.389 . S
C347 C348 1.524 1_455 S
C348 C347 1.524 1_655 S
C348 C349 1.397 . S
C348 C353 1.363 . S
C349 H320 0.950 1_655 S
C349 C348 1.397 . S
C349 C350 1.334 . S
C350 H321 0.950 . S
C350 C349 1.334 . S
C350 C351 1.287 . S
C351 C350 1.287 . S
C351 C352 1.524 . S
C351 H354 0.999 . S
C352 H322 0.950 . S
C352 C351 1.524 . S
C352 C353 1.415 . S
C353 H323 0.950 . S
C353 C348 1.363 . S
C353 C352 1.415 . S
H354 C351 0.999 . S
H355 C336 0.913 . S
H356 C374 0.951 1_665 S
H357 C376 0.951 1_665 S
H358 C378 0.950 . S
H359 C379 0.950 . S
H360 C381 0.950 . S
H361 C384 0.950 . S
H362 C385 0.950 . S
H363 C387 0.950 . S
H364 C388 0.950 . S
H365 C389 0.951 . S
H366 C391 0.951 . S
H367 C393 0.950 1_665 S
H368 C394 0.950 1_665 S
H369 C396 0.951 1_565 S
H370 C399 0.950 . S
H371 C400 0.950 . S
H372 C402 0.950 . S
H373 C403 0.950 . S
C374 H356 0.951 1_445 S
C374 C375 1.366 . S
C374 C376 1.388 . S
C375 C374 1.366 . S
C375 C379 1.385 . S
C376 H357 0.951 1_445 S
C376 C374 1.388 . S
C376 C377 1.366 . S
C377 C376 1.366 . S
C377 C378 1.414 . S
C377 C380 1.499 . S
C378 H358 0.950 . S
C378 C377 1.414 . S
C378 C379 1.374 . S
C379 H359 0.950 . S
C379 C375 1.385 . S
C379 C378 1.374 . S
C380 C377 1.499 . S
C380 C381 1.373 . S
C380 C382 1.389 1_545 S
C381 H360 0.950 . S
C381 C380 1.373 . S
C381 C397 1.377 . S
C382 C380 1.389 1_565 S
C382 C383 1.524 . S
C382 C396 1.377 1_565 S
C383 C382 1.524 . S
C383 C384 1.397 . S
C383 C388 1.363 . S
C384 H361 0.950 . S
C384 C383 1.397 . S
C384 C385 1.334 . S
C385 H362 0.950 . S
C385 C384 1.334 . S
C385 C386 1.287 . S
C386 C385 1.287 . S
C386 C387 1.524 . S
C386 H405 0.913 . S
C387 H363 0.950 . S
C387 C386 1.524 . S
C387 C388 1.415 . S
C388 H364 0.950 . S
C388 C383 1.363 . S
C388 C387 1.415 . S
C389 H365 0.951 . S
C389 C390 1.366 . S
C389 C391 1.388 . S
C390 C389 1.366 . S
C390 C394 1.385 . S
C391 H366 0.951 . S
C391 C389 1.388 . S
C391 C392 1.366 . S
C392 C391 1.366 . S
C392 C393 1.414 . S
C392 C395 1.499 . S
C393 H367 0.950 1_445 S
C393 C392 1.414 . S
C393 C394 1.374 . S
C394 H368 0.950 1_445 S
C394 C390 1.385 . S
C394 C393 1.374 . S
C395 C392 1.499 . S
C395 C396 1.373 . S
C395 C397 1.389 . S
C396 H369 0.951 1_545 S
C396 C382 1.377 1_545 S
C396 C395 1.373 . S
C397 C381 1.377 . S
C397 C395 1.389 . S
C397 C398 1.524 . S
C398 C397 1.524 . S
C398 C399 1.397 1_455 S
C398 C403 1.363 . S
C399 H370 0.950 . S
C399 C398 1.397 1_655 S
C399 C400 1.334 . S
C400 H371 0.950 . S
C400 C399 1.334 . S
C400 C401 1.287 . S
C401 C400 1.287 . S
C401 C402 1.524 1_655 S
C401 H404 0.999 . S
C402 H372 0.950 . S
C402 C401 1.524 1_455 S
C402 C403 1.415 . S
C403 H373 0.950 . S
C403 C398 1.363 . S
C403 C402 1.415 . S
H404 C401 0.999 . S
H405 C386 0.913 . S
H406 C424 0.951 1_565 S
H407 C426 0.951 1_565 S
H408 C428 0.950 . S
H409 C429 0.950 . S
H410 C431 0.950 . S
H411 C434 0.950 . S
H412 C435 0.950 . S
H413 C437 0.950 . S
H414 C438 0.950 . S
H415 C439 0.953 . S
H416 C441 0.951 . S
H417 C443 0.950 1_565 S
H418 C444 0.950 1_565 S
H419 C446 0.950 1_565 S
H420 C449 0.950 . S
H421 C450 0.950 . S
H422 C452 0.950 . S
H423 C453 0.950 . S
C424 H406 0.951 1_545 S
C424 C425 1.366 . S
C424 C426 1.388 . S
C425 C424 1.366 . S
C425 C429 1.385 . S
C426 H407 0.951 1_545 S
C426 C424 1.388 . S
C426 C427 1.366 . S
C427 C426 1.366 . S
C427 C428 1.414 . S
C427 C430 1.499 . S
C428 H408 0.950 . S
C428 C427 1.414 . S
C428 C429 1.374 . S
C429 H409 0.950 . S
C429 C425 1.385 . S
C429 C428 1.374 . S
C430 C427 1.499 . S
C430 C431 1.373 . S
C430 C432 1.389 . S
C431 H410 0.950 . S
C431 C430 1.373 . S
C431 C447 1.377 . S
C432 C430 1.389 . S
C432 C433 1.524 1_545 S
C432 C446 1.377 . S
C433 C432 1.524 1_565 S
C433 C434 1.397 1_455 S
C433 C438 1.363 . S
C434 H411 0.950 . S
C434 C433 1.397 1_655 S
C434 C435 1.334 . S
C435 H412 0.950 . S
C435 C434 1.334 . S
C435 C436 1.287 . S
C436 C435 1.287 . S
C436 C437 1.524 1_655 S
C436 H455 0.913 . S
C437 H413 0.950 . S
C437 C436 1.524 1_455 S
C437 C438 1.415 . S
C438 H414 0.950 . S
C438 C433 1.363 . S
C438 C437 1.415 . S
C439 H415 0.953 . S
C439 C440 1.366 . S
C439 C441 1.388 . S
C440 C439 1.366 . S
C440 C444 1.385 . S
C441 H416 0.951 . S
C441 C439 1.388 . S
C441 C442 1.366 . S
C442 C441 1.366 . S
C442 C443 1.414 . S
C442 C445 1.499 . S
C443 H417 0.950 1_545 S
C443 C442 1.414 . S
C443 C444 1.374 . S
C444 H418 0.950 1_545 S
C444 C440 1.385 . S
C444 C443 1.374 . S
C445 C442 1.499 . S
C445 C446 1.373 . S
C445 C447 1.389 . S
C446 H419 0.950 1_545 S
C446 C432 1.377 . S
C446 C445 1.373 . S
C447 C431 1.377 . S
C447 C445 1.389 . S
C447 C448 1.524 . S
C448 C447 1.524 . S
C448 C449 1.397 . S
C448 C453 1.363 . S
C449 H420 0.950 . S
C449 C448 1.397 . S
C449 C450 1.334 . S
C450 H421 0.950 . S
C450 C449 1.334 . S
C450 C451 1.287 . S
C451 C450 1.287 . S
C451 C452 1.524 . S
C451 H454 0.999 . S
C452 H422 0.950 . S
C452 C451 1.524 . S
C452 C453 1.415 . S
C453 H423 0.950 . S
C453 C448 1.363 . S
C453 C452 1.415 . S
H454 C451 0.999 . S
H455 C436 0.913 . S
C75 C0 1.499 . S
C90 C1 1.499 . S
C125 C14 1.498 . S
C140 C15 1.498 . S
C175 C28 1.498 . S
C190 C29 1.498 . S
C225 C42 1.499 . S
C240 C43 1.499 . S
C275 C40 1.499 . S
C290 C13 1.499 . S
C325 C54 1.499 . S
C340 C27 1.499 . S
C375 C55 1.499 . S
C390 C12 1.499 . S
C425 C26 1.499 . S
C440 C41 1.499 . S
