# Generated by pormake.
# Topology noo, (5)-cn, num edge types: 1
# Building blocks:
#     Node 0, Type 0, BuildingBlock: XOMCOT_clean_sbu_1, # of connection points: 5
#     Node 1, Type 0, BuildingBlock: XOMCOT_clean_sbu_1, # of connection points: 5
#     Node 2, Type 0, BuildingBlock: XOMCOT_clean_sbu_1, # of connection points: 5
#     Node 3, Type 0, BuildingBlock: XOMCOT_clean_sbu_1, # of connection points: 5
#     Node 4, Type 0, BuildingBlock: XOMCOT_clean_sbu_1, # of connection points: 5
#     Node 5, Type 0, BuildingBlock: XOMCOT_clean_sbu_1, # of connection points: 5
#     Node 6, Type 0, BuildingBlock: XOMCOT_clean_sbu_1, # of connection points: 5
#     Node 7, Type 0, BuildingBlock: XOMCOT_clean_sbu_1, # of connection points: 5
#     Edge 8, Type (0, 0), BuildingBlock: XIVTED_clean_linker_0, # of connection points: 2
#     Edge 9, Type (0, 0), BuildingBlock: XIVTED_clean_linker_0, # of connection points: 2
#     Edge 10, Type (0, 0), BuildingBlock: XIVTED_clean_linker_0, # of connection points: 2
#     Edge 11, Type (0, 0), BuildingBlock: XIVTED_clean_linker_0, # of connection points: 2
#     Edge 12, Type (0, 0), BuildingBlock: XIVTED_clean_linker_0, # of connection points: 2
#     Edge 13, Type (0, 0), BuildingBlock: XIVTED_clean_linker_0, # of connection points: 2
#     Edge 14, Type (0, 0), BuildingBlock: XIVTED_clean_linker_0, # of connection points: 2
#     Edge 15, Type (0, 0), BuildingBlock: XIVTED_clean_linker_0, # of connection points: 2
#     Edge 16, Type (0, 0), BuildingBlock: XIVTED_clean_linker_0, # of connection points: 2
#     Edge 17, Type (0, 0), BuildingBlock: XIVTED_clean_linker_0, # of connection points: 2
#     Edge 18, Type (0, 0), BuildingBlock: XIVTED_clean_linker_0, # of connection points: 2
#     Edge 19, Type (0, 0), BuildingBlock: XIVTED_clean_linker_0, # of connection points: 2
#     Edge 20, Type (0, 0), BuildingBlock: XIVTED_clean_linker_0, # of connection points: 2
#     Edge 21, Type (0, 0), BuildingBlock: XIVTED_clean_linker_0, # of connection points: 2
#     Edge 22, Type (0, 0), BuildingBlock: XIVTED_clean_linker_0, # of connection points: 2
#     Edge 23, Type (0, 0), BuildingBlock: XIVTED_clean_linker_0, # of connection points: 2
#     Edge 24, Type (0, 0), BuildingBlock: XIVTED_clean_linker_0, # of connection points: 2
#     Edge 25, Type (0, 0), BuildingBlock: XIVTED_clean_linker_0, # of connection points: 2
#     Edge 26, Type (0, 0), BuildingBlock: XIVTED_clean_linker_0, # of connection points: 2
#     Edge 27, Type (0, 0), BuildingBlock: XIVTED_clean_linker_0, # of connection points: 2
# Relax obj value: 0.064
# Max RMSD: 0.100
# Mean RMSD: 0.100
data_MOF--net-noo--node1-XOMCOT_clean_sbu_1--edge1-XIVTED_clean_linker_0
_symmetry_space_group_name_H-M    P1
_symmetry_Int_Tables_number       1
_symmetry_cell_setting            triclinic
loop_
_symmetry_equiv_pos_as_xyz
'x, y, z'
_cell_length_a     41.562842
_cell_length_b     41.534775
_cell_length_c     26.723396
_cell_angle_alpha  90.022263
_cell_angle_beta   90.050819
_cell_angle_gamma 89.636004
loop_
_atom_site_label
_atom_site_type_symbol
_atom_site_fract_x
_atom_site_fract_y
_atom_site_fract_z
_atom_type_partial_charge
C0 C 0.43537 0.27178 0.99904 0.0
C1 C 0.41988 0.301 0.99859 0.0
N2 N 0.38985 0.29691 1.01621 0.0
N3 N 0.41558 0.24917 1.01779 0.0
C4 C 0.38751 0.26504 0.0262 0.0
H5 H 0.45993 0.26743 0.98742 0.0
Co6 Co 0.42897 0.20634 0.0287 0.0
C7 C 0.38996 0.21722 0.1281 0.0
O8 O 0.39058 0.2488 0.13002 0.0
N9 N 0.44266 0.16383 0.03961 0.0
C10 C 0.46301 0.12176 0.08031 0.0
C11 C 0.44973 0.15182 0.08534 0.0
C12 C 0.45181 0.14043 1.00718 0.0
N13 N 0.46429 0.11464 0.03133 0.0
O14 O 0.39418 0.19104 0.9867 0.0
H15 H 0.44714 0.16481 0.12019 0.0
H16 H 0.45119 0.14299 0.96689 0.0
O17 O 0.40318 0.20227 0.09134 0.0
C18 C 0.40396 0.19507 0.94162 0.0
O19 O 0.43232 0.20823 0.935 0.0
N20 N 0.46609 0.22126 0.06193 0.0
C21 C 0.52419 0.25344 0.07591 0.0
C22 C 0.49822 0.25883 0.10858 0.0
C23 C 0.46908 0.24245 0.10079 0.0
C24 C 0.49203 0.21411 0.03267 0.0
C25 C 0.52124 0.22963 0.03924 0.0
H26 H 0.44863 0.24887 0.12329 0.0
H27 H 0.48929 0.19826 1.00089 0.0
H28 H 0.36619 0.25376 0.04116 0.0
H29 H 0.43009 0.32366 0.98673 0.0
H30 H 0.4723 0.10672 0.11018 0.0
H31 H 0.49957 0.27724 0.13719 0.0
H32 H 0.54073 0.22462 1.01343 0.0
C33 C 0.74372 0.44073 1.02431 0.0
C34 C 0.71386 0.427 1.02038 0.0
N35 N 0.71535 0.39727 0.04036 0.0
N36 N 0.76403 0.41999 0.04721 0.0
C37 C 0.74617 0.39338 0.05557 0.0
H38 H 0.75025 0.4645 1.01147 0.0
Co39 Co 0.80767 0.4288 0.0589 0.0
C40 C 0.79289 0.39203 0.15911 0.0
O41 O 0.76145 0.39499 0.16093 0.0
N42 N 0.85143 0.43746 0.07049 0.0
C43 C 0.89646 0.44894 0.1115 0.0
C44 C 0.86423 0.44298 0.11614 0.0
C45 C 0.87641 0.44087 0.03842 0.0
N46 N 0.90418 0.44766 0.06265 0.0
O47 O 0.81937 0.39162 1.0187 0.0
H48 H 0.85079 0.44351 0.15076 0.0
H49 H 0.87425 0.43877 0.9982 0.0
O50 O 0.8086 0.40384 0.12223 0.0
C51 C 0.8166 0.40129 0.97333 0.0
O52 O 0.80832 0.43151 0.96581 0.0
N53 N 0.79605 0.46794 0.09081 0.0
C54 C 0.76672 0.52864 0.09698 0.0
C55 C 0.75598 0.50306 0.12698 0.0
C56 C 0.77113 0.47271 0.12343 0.0
C57 C 0.80845 0.49342 0.06523 0.0
C58 C 0.79463 0.52393 0.06855 0.0
H59 H 0.76037 0.45262 0.14229 0.0
H60 H 0.82715 0.48962 0.03778 0.0
H61 H 0.75566 0.37137 0.07164 0.0
H62 H 0.69254 0.43824 1.00476 0.0
H63 H 0.91276 0.45504 0.14163 0.0
H64 H 0.73437 0.50559 0.1493 0.0
H65 H 0.80414 0.54305 0.04541 0.0
C66 C 0.58303 0.743 0.98425 0.0
C67 C 0.60063 0.71494 0.98516 0.0
N68 N 0.62379 0.71771 1.02015 0.0
N69 N 0.59503 0.76368 1.01826 0.0
C70 C 0.61994 0.74756 0.03972 0.0
H71 H 0.56214 0.74772 0.96118 0.0
Co72 Co 0.57672 0.80435 0.03041 0.0
C73 C 0.59871 0.80571 0.14057 0.0
O74 O 0.57182 0.79281 0.15605 0.0
N75 N 0.55885 0.84566 0.04239 0.0
C76 C 0.53785 0.88801 0.08205 0.0
C77 C 0.54754 0.85655 0.08677 0.0
C78 C 0.55516 0.87104 1.01093 0.0
N79 N 0.54257 0.89695 0.03442 0.0
O80 O 0.60998 0.82371 0.98863 0.0
H81 H 0.54594 0.84257 0.12058 0.0
H82 H 0.56205 0.87093 0.97195 0.0
O83 O 0.60328 0.81037 0.09343 0.0
C84 C 0.60011 0.82074 0.9433 0.0
O85 O 0.57169 0.80782 0.93614 0.0
N86 N 0.54084 0.78396 0.06235 0.0
C87 C 0.48478 0.74724 0.07642 0.0
C88 C 0.51458 0.73681 0.09551 0.0
C89 C 0.54232 0.75519 0.08741 0.0
C90 C 0.51182 0.79434 0.04404 0.0
C91 C 0.48368 0.77686 0.05145 0.0
H92 H 0.56522 0.74531 0.09915 0.0
H93 H 0.51047 0.81506 1.01975 0.0
H94 H 0.63477 0.75731 0.0693 0.0
H95 H 0.5961 0.6937 0.96278 0.0
H96 H 0.52809 0.90325 0.11129 0.0
H97 H 0.51679 0.71395 0.11471 0.0
H98 H 0.46166 0.78544 0.03417 0.0
C99 C 0.26818 0.57337 0.95504 0.0
C100 C 0.29837 0.58465 0.9658 0.0
N101 N 0.2955 0.60964 0.99771 0.0
N102 N 0.24612 0.59098 0.98005 0.0
C103 C 0.26345 0.61315 1.00553 0.0
H104 H 0.26262 0.55331 0.93079 0.0
Co105 Co 0.20203 0.58224 0.97757 0.0
C106 C 0.17711 0.59698 0.07821 0.0
O107 O 0.16298 0.56883 0.07541 0.0
N108 N 0.15692 0.57405 0.97399 0.0
C109 C 0.10462 0.5864 0.97154 0.0
C110 C 0.13523 0.59844 0.97251 0.0
C111 C 0.13841 0.54718 0.97417 0.0
N112 N 0.10654 0.55409 0.97269 0.0
O113 O 0.1954 0.61992 0.93592 0.0
H114 H 0.14115 0.62373 0.97393 0.0
H115 H 0.14768 0.52294 0.97654 0.0
O116 O 0.19448 0.60659 0.04137 0.0
C117 C 0.20028 0.6109 0.89071 0.0
O118 O 0.20975 0.58105 0.88312 0.0
N119 N 0.21072 0.54312 1.01098 0.0
C120 C 0.23949 0.48406 0.03597 0.0
C121 C 0.24088 0.51042 0.06897 0.0
C122 C 0.22672 0.53993 0.05547 0.0
C123 C 0.20937 0.51778 0.97865 0.0
C124 C 0.2228 0.48797 0.99079 0.0
H125 H 0.23085 0.56065 0.07899 0.0
H126 H 0.19961 0.52136 0.94151 0.0
H127 H 0.25287 0.63104 0.03003 0.0
H128 H 0.32072 0.57532 0.95073 0.0
H129 H 0.08262 0.60048 0.97236 0.0
H130 H 0.25415 0.50873 0.10378 0.0
H131 H 0.22222 0.4689 0.96317 0.0
C132 C 0.94313 0.24049 0.59175 0.0
C133 C 0.9334 0.20999 0.57917 0.0
N134 N 0.90793 0.21241 0.54813 0.0
N135 N 0.92403 0.26224 0.56866 0.0
C136 C 0.90261 0.24442 0.54262 0.0
H137 H 0.96314 0.24649 0.61583 0.0
Co138 Co 0.92967 0.30684 0.57242 0.0
C139 C 0.91502 0.33083 0.47129 0.0
O140 O 0.94251 0.34613 0.4745 0.0
N141 N 0.93451 0.35252 0.57679 0.0
C142 C 0.91827 0.40378 0.58149 0.0
C143 C 0.90858 0.37234 0.57919 0.0
C144 C 0.95985 0.37306 0.57685 0.0
N145 N 0.95056 0.40425 0.57998 0.0
O146 O 0.89119 0.3105 0.61311 0.0
H147 H 0.88382 0.3646 0.5778 0.0
H148 H 0.98471 0.36585 0.57364 0.0
O149 O 0.90589 0.31316 0.50804 0.0
C150 C 0.90028 0.30511 0.65819 0.0
O151 O 0.9304 0.29657 0.66562 0.0
N152 N 0.96979 0.30114 0.54078 0.0
C153 C 0.03074 0.27378 0.52516 0.0
C154 C 0.00629 0.27043 0.48908 0.0
C155 C 0.97572 0.28415 0.49782 0.0
C156 C 0.99359 0.30507 0.5752 0.0
C157 C 0.02435 0.29294 0.56723 0.0
H158 H 0.95623 0.27837 0.47264 0.0
H159 H 0.98802 0.31566 0.61116 0.0
H160 H 0.88386 0.2547 0.51939 0.0
H161 H 0.94406 0.18775 0.5925 0.0
H162 H 0.90266 0.42474 0.58215 0.0
H163 H 0.00988 0.25526 0.45658 0.0
H164 H 0.04234 0.29659 0.59598 0.0
C165 C 0.7629 0.91012 0.5935 0.0
C166 C 0.7883 0.88906 0.58956 0.0
N167 N 0.78795 0.87603 0.54341 0.0
N168 N 0.74619 0.91027 0.5503 0.0
C169 C 0.76224 0.88945 0.52009 0.0
H170 H 0.75744 0.92498 0.62561 0.0
Co171 Co 0.7109 0.93733 0.53998 0.0
C172 C 0.69266 0.92505 0.43253 0.0
O173 O 0.69247 0.95624 0.42504 0.0
N174 N 0.67463 0.96586 0.53027 0.0
C175 C 0.6447 0.00894 0.51068 0.0
C176 C 0.67443 0.99492 0.50709 0.0
C177 C 0.64391 0.96292 0.54703 0.0
N178 N 0.62547 0.98899 0.53614 0.0
O179 O 0.68482 0.90834 0.58081 0.0
H180 H 0.69433 0.00566 0.48745 0.0
H181 H 0.63517 0.94236 0.56759 0.0
O182 O 0.69981 0.91404 0.47617 0.0
C183 C 0.68599 0.91952 0.6256 0.0
O184 O 0.69961 0.94768 0.63207 0.0
N185 N 0.73878 0.96691 0.50982 0.0
C186 C 0.77918 0.01828 0.48768 0.0
C187 C 0.77672 0.99208 0.45453 0.0
C188 C 0.75642 0.96616 0.46666 0.0
C189 C 0.74357 0.99075 0.54404 0.0
C190 C 0.76285 0.01696 0.53326 0.0
H191 H 0.75507 0.94572 0.44175 0.0
H192 H 0.73112 0.98999 0.57948 0.0
H193 H 0.75542 0.88434 0.48183 0.0
H194 H 0.80624 0.88439 0.61809 0.0
H195 H 0.63765 0.03189 0.49476 0.0
H196 H 0.79004 0.99183 0.41972 0.0
H197 H 0.76507 0.0361 0.5606 0.0
C198 C 0.05971 0.76572 0.52003 0.0
C199 C 0.07084 0.79676 0.52079 0.0
N200 N 0.10085 0.79687 0.50179 0.0
N201 N 0.08224 0.74625 0.4996 0.0
C202 C 0.10753 0.76574 0.4907 0.0
H203 H 0.03631 0.75785 0.53261 0.0
Co204 Co 0.07657 0.70196 0.48886 0.0
C205 C 0.11263 0.71844 0.38882 0.0
O206 O 0.10746 0.74963 0.3869 0.0
N207 N 0.07105 0.65764 0.47893 0.0
C208 C 0.06148 0.61081 0.44187 0.0
C209 C 0.06757 0.64285 0.4343 0.0
C210 C 0.06668 0.63409 0.51317 0.0
N211 N 0.06074 0.60527 0.49151 0.0
O212 O 0.11411 0.69313 0.52991 0.0
H213 H 0.06774 0.65486 0.39842 0.0
H214 H 0.06664 0.63829 0.55312 0.0
O215 O 0.10196 0.70193 0.42575 0.0
C216 C 0.10483 0.69603 0.57542 0.0
O217 O 0.07455 0.70374 0.58354 0.0
N218 N 0.037 0.71055 0.4553 0.0
C219 C 0.97467 0.73604 0.44743 0.0
C220 C 1.00016 0.74938 0.41992 0.0
C221 C 0.03121 0.73593 0.42386 0.0
C222 C 0.01177 0.69546 0.47778 0.0
C223 C 0.98049 0.70712 0.47296 0.0
H224 H 0.05086 0.74869 0.40713 0.0
H225 H 0.01592 0.67625 0.5042 0.0
H226 H 0.1301 0.75736 0.4752 0.0
H227 H 0.05774 0.81763 0.53424 0.0
H228 H 0.056 0.5934 0.41301 0.0
H229 H 0.99696 0.7717 0.39955 0.0
H230 H 0.96151 0.69514 0.49336 0.0
C231 C 0.24746 0.09018 0.58922 0.0
C232 C 0.22175 0.11083 0.59182 0.0
N233 N 0.22382 0.13187 0.55371 0.0
N234 N 0.26606 0.09815 0.54995 0.0
C235 C 0.25087 0.12361 0.52841 0.0
H236 H 0.25223 0.07033 0.61434 0.0
Co237 Co 0.30317 0.07432 0.53705 0.0
C238 C 0.31895 0.08847 0.42992 0.0
O239 O 0.32007 0.0573 0.4226 0.0
N240 N 0.34143 0.04869 0.52552 0.0
C241 C 0.37377 0.00757 0.50489 0.0
C242 C 0.34349 0.02018 0.5008 0.0
C243 C 0.3717 0.05273 0.54384 0.0
N244 N 0.39152 0.02782 0.53232 0.0
O245 O 0.32731 0.10469 0.57771 0.0
H246 H 0.3244 0.00866 0.48027 0.0
H247 H 0.37903 0.07299 0.56644 0.0
O248 O 0.31159 0.09926 0.47362 0.0
C249 C 0.32618 0.09342 0.62237 0.0
O250 O 0.31415 0.0645 0.62838 0.0
N251 N 0.27719 0.04326 0.50646 0.0
C252 C 0.23813 0.9912 0.48243 0.0
C253 C 0.23801 0.01897 0.4523 0.0
C254 C 0.25761 0.04518 0.46543 0.0
C255 C 0.27507 0.01766 0.53815 0.0
C256 C 0.25651 0.99111 0.52623 0.0
H257 H 0.25675 0.06691 0.44322 0.0
H258 H 0.2888 0.01753 0.57252 0.0
H259 H 0.25956 0.13606 0.49557 0.0
H260 H 0.2027 0.11026 0.61941 0.0
H261 H 0.38216 0.98521 0.48849 0.0
H262 H 0.22306 0.02033 0.41915 0.0
H263 H 0.25621 0.97076 0.5516 0.0
H264 H 0.49667 0.9157 0.96885 0.0
H265 H 0.52648 0.09947 0.04239 0.0
H266 H 0.57505 0.95003 0.0589 0.0
H267 H 0.43806 0.06647 0.97699 0.0
H268 H 0.55091 0.04672 0.02679 0.0
H269 H 0.48083 0.97194 0.95118 0.0
C270 C 0.51102 0.93522 0.98353 0.0
C271 C 0.53715 0.92867 1.01513 0.0
C272 C 0.52635 0.05102 1.01485 0.0
C273 C 0.51932 0.99244 0.99591 0.0
C274 C 0.51258 0.08116 1.02346 0.0
C275 C 0.48038 0.08699 1.01095 0.0
C276 C 0.50753 0.02627 0.99448 0.0
C277 C 0.46307 0.06267 0.98682 0.0
C278 C 0.50194 0.96716 0.97383 0.0
C279 C 0.55483 0.95442 0.03423 0.0
N280 N 0.47669 0.03304 0.98011 0.0
N281 N 0.54548 0.98516 0.02463 0.0
H282 H 0.96205 0.4335 0.10299 0.0
H283 H 0.10599 0.49483 1.01648 0.0
H284 H 0.9172 0.47964 0.97632 0.0
H285 H 0.04561 0.56325 0.9386 0.0
H286 H 0.05898 0.46133 0.03124 0.0
H287 H 0.01402 0.4536 0.0759 0.0
C288 C 0.96334 0.44742 0.06882 0.0
C289 C 0.93528 0.45509 0.04203 0.0
C290 C 0.05584 0.48381 1.01136 0.0
C291 C 0.99507 0.47794 1.00983 0.0
C292 C 0.0829 0.50275 1.0022 0.0
C293 C 0.07974 0.53229 0.97711 0.0
C294 C 0.02528 0.49458 0.99564 0.0
C295 C 0.04909 0.54114 0.95933 0.0
C296 C 0.99317 0.45866 0.05292 0.0
C297 C 0.93828 0.47304 0.99786 0.0
N298 N 0.02308 0.52253 0.96926 0.0
N299 N 0.96759 0.48433 0.98359 0.0
H300 H 0.93822 0.46225 0.62227 0.0
H301 H 0.03006 0.59832 0.58088 0.0
H302 H 0.00787 0.41121 0.53227 0.0
H303 H 0.06836 0.54458 0.45605 0.0
H304 H 0.00705 0.54882 0.61393 0.0
H305 H 0.96842 0.51161 0.61049 0.0
C306 C 0.96018 0.46139 0.60055 0.0
C307 C 0.97039 0.43258 0.57795 0.0
C308 C 0.0202 0.54779 0.57907 0.0
C309 C 0.0059 0.4891 0.56518 0.0
C310 C 0.03386 0.57607 0.5606 0.0
C311 C 0.05064 0.57576 0.51504 0.0
C312 C 0.02317 0.51902 0.55156 0.0
C313 C 0.05487 0.54611 0.49057 0.0
C314 C 0.97777 0.4896 0.59437 0.0
C315 C 0.99921 0.43278 0.55065 0.0
N316 N 0.04102 0.51903 0.50889 0.0
N317 N 0.0157 0.4607 0.54446 0.0
H318 H 0.5964 0.04681 0.55078 0.0
H319 H 0.42058 0.97087 0.55196 0.0
H320 H 0.5781 0.94472 0.54825 0.0
H321 H 0.43817 0.07289 0.54378 0.0
H322 H 0.47804 0.96126 0.56322 0.0
H323 H 0.53889 0.057 0.56032 0.0
C324 C 0.58027 0.02649 0.55234 0.0
C325 C 0.59206 0.99484 0.54773 0.0
C326 C 0.46942 0.98579 0.55939 0.0
C327 C 0.52603 0.0064 0.55915 0.0
C328 C 0.43661 0.9913 0.55278 0.0
C329 C 0.42469 0.02271 0.54597 0.0
C330 C 0.49067 0.01188 0.55897 0.0
C331 C 0.4464 0.04833 0.54872 0.0
C332 C 0.54742 0.03235 0.55808 0.0
C333 C 0.5701 0.96946 0.55152 0.0
N334 N 0.47846 0.04233 0.55437 0.0
N335 N 0.5381 0.97581 0.55645 0.0
H336 H 0.22254 0.42116 1.01738 0.0
H337 H 0.40306 0.35743 0.04657 0.0
H338 H 0.30093 0.47884 0.07254 0.0
H339 H 0.32439 0.29434 1.01071 0.0
H340 H 0.36495 0.40134 0.05972 0.0
H341 H 0.25792 0.37373 1.01894 0.0
C342 C 0.24706 0.4238 0.03042 0.0
C343 C 0.25877 0.45417 0.04462 0.0
C344 C 0.35584 0.37792 0.04921 0.0
C345 C 0.29947 0.39994 0.04615 0.0
C346 C 0.37767 0.35285 0.04129 0.0
C347 C 0.36693 0.32226 0.02675 0.0
C348 C 0.32282 0.37268 0.04212 0.0
C349 C 0.33366 0.31756 1.02177 0.0
C350 C 0.26722 0.39668 0.03135 0.0
C351 C 0.29067 0.456 0.06167 0.0
N352 N 0.31276 0.34262 0.02889 0.0
N353 N 0.30993 0.42941 0.0614 0.0
H354 H 0.56538 0.27126 0.1525 0.0
H355 H 0.66598 0.3894 0.97595 0.0
H356 H 0.54702 0.2852 0.99515 0.0
H357 H 0.70403 0.35523 0.11644 0.0
H358 H 0.6193 0.35486 0.98686 0.0
H359 H 0.61335 0.30577 0.14502 0.0
C360 C 0.57138 0.28167 0.11658 0.0
C361 C 0.55246 0.27515 0.07428 0.0
C362 C 0.63786 0.35472 1.01534 0.0
C363 C 0.60674 0.31452 0.06549 0.0
C364 C 0.66447 0.37454 1.00914 0.0
C365 C 0.6889 0.37518 0.04531 0.0
C366 C 0.63525 0.33552 0.0584 0.0
C367 C 0.68584 0.35518 0.08744 0.0
C368 C 0.59877 0.30113 0.11223 0.0
C369 C 0.5612 0.28922 0.02856 0.0
N370 N 0.65935 0.33628 0.09307 0.0
N371 N 0.58755 0.30819 0.02545 0.0
H372 H 0.64793 0.70413 0.11288 0.0
H373 H 0.75261 0.55635 1.00756 0.0
H374 H 0.65167 0.67448 0.95844 0.0
H375 H 0.73425 0.56748 0.16554 0.0
H376 H 0.72015 0.6038 0.99088 0.0
H377 H 0.68382 0.65866 0.13473 0.0
C378 C 0.65658 0.68829 0.08359 0.0
C379 C 0.64673 0.69297 0.03376 0.0
C380 C 0.72319 0.59611 0.02932 0.0
C381 C 0.68748 0.64114 0.05835 0.0
C382 C 0.74204 0.56904 0.03899 0.0
C383 C 0.74668 0.55806 0.08819 0.0
C384 C 0.70849 0.61272 0.06898 0.0
C385 C 0.73141 0.57513 0.12707 0.0
C386 C 0.67679 0.66225 0.0961 0.0
C387 C 0.65833 0.67157 0.99733 0.0
N388 N 0.71306 0.60175 0.11667 0.0
N389 N 0.67801 0.64675 1.01031 0.0
H390 H 0.35663 0.58932 1.01503 0.0
H391 H 0.42099 0.76444 0.08837 0.0
H392 H 0.2945 0.67247 0.02776 0.0
H393 H 0.4822 0.68162 0.06363 0.0
H394 H 0.37381 0.73034 0.07611 0.0
H395 H 0.40192 0.62183 0.04236 0.0
C396 C 0.35247 0.61447 1.02353 0.0
C397 C 0.32169 0.62824 1.01825 0.0
C398 C 0.39757 0.71959 0.07389 0.0
C399 C 0.37378 0.66583 0.0502 0.0
C400 C 0.42458 0.73906 0.0808 0.0
C401 C 0.45582 0.72605 0.0767 0.0
C402 C 0.40168 0.68677 0.06276 0.0
C403 C 0.45877 0.69282 0.06766 0.0
C404 C 0.3784 0.63304 0.03944 0.0
C405 C 0.31774 0.66082 0.03124 0.0
N406 N 0.43214 0.67449 0.06061 0.0
N407 N 0.34354 0.67858 0.04616 0.0
H408 H 0.84426 0.02163 0.47188 0.0
H409 H 0.84506 0.21224 0.51951 0.0
H410 H 0.75879 0.08039 0.48301 0.0
H411 H 0.92985 0.15203 0.52759 0.0
H412 H 0.81428 0.16581 0.49046 0.0
H413 H 0.87709 0.07064 0.47565 0.0
C414 C 0.83245 0.04493 0.47358 0.0
C415 C 0.79888 0.0471 0.47719 0.0
C416 C 0.83969 0.16281 0.49822 0.0
C417 C 0.83601 0.10303 0.48262 0.0
C418 C 0.85732 0.1894 0.51462 0.0
C419 C 0.89003 0.18601 0.52679 0.0
C420 C 0.85485 0.13256 0.49375 0.0
C421 C 0.90455 0.15566 0.51983 0.0
C422 C 0.85113 0.07286 0.47629 0.0
C423 C 0.78467 0.07779 0.4802 0.0
N424 N 0.88686 0.13012 0.50416 0.0
N425 N 0.80327 0.10449 0.48334 0.0
H426 H 0.94118 0.73947 0.535 0.0
H427 H 0.8108 0.87052 0.44789 0.0
H428 H 0.93914 0.7759 0.38362 0.0
H429 H 0.81819 0.82933 0.59548 0.0
H430 H 0.85459 0.83438 0.41981 0.0
H431 H 0.89343 0.77022 0.55381 0.0
C432 C 0.93037 0.75342 0.5051 0.0
C433 C 0.94417 0.75434 0.45712 0.0
C434 C 0.84641 0.8332 0.45822 0.0
C435 C 0.88915 0.79129 0.47957 0.0
C436 C 0.82134 0.85363 0.47414 0.0
C437 C 0.81113 0.85315 0.52427 0.0
C438 C 0.86104 0.8121 0.49271 0.0
C439 C 0.82568 0.83097 0.55682 0.0
C440 C 0.90305 0.77144 0.51622 0.0
C441 C 0.92942 0.77431 0.42108 0.0
N442 N 0.84983 0.81156 0.54056 0.0
N443 N 0.90272 0.79208 0.43305 0.0
H444 H 0.25851 0.92898 0.47765 0.0
H445 H 0.0804 0.85827 0.48554 0.0
H446 H 0.17334 0.98797 0.46317 0.0
H447 H 0.16616 0.79947 0.49491 0.0
H448 H 0.11376 0.90543 0.47108 0.0
H449 H 0.22508 0.88083 0.47545 0.0
C450 C 0.23272 0.93169 0.47313 0.0
C451 C 0.21858 0.96243 0.47084 0.0
C452 C 0.12531 0.88221 0.47608 0.0
C453 C 0.18004 0.90744 0.46926 0.0
C454 C 0.10626 0.85523 0.48485 0.0
C455 C 0.12046 0.82478 0.49215 0.0
C456 C 0.15891 0.87888 0.4747 0.0
C457 C 0.15412 0.82235 0.48943 0.0
C458 C 0.21363 0.90422 0.47208 0.0
C459 C 0.18514 0.96468 0.46482 0.0
N460 N 0.17217 0.84905 0.48129 0.0
N461 N 0.16692 0.93753 0.46491 0.0
H462 H 0.06986 0.25786 0.44395 0.0
H463 H 0.19856 0.17123 0.62276 0.0
H464 H 0.0603 0.24371 0.60331 0.0
H465 H 0.19736 0.15086 0.46478 0.0
H466 H 0.15352 0.20821 0.61175 0.0
H467 H 0.12047 0.22625 0.44635 0.0
C468 C 0.07834 0.2483 0.47931 0.0
C469 C 0.06107 0.25428 0.5237 0.0
C470 C 0.16307 0.19591 0.5792 0.0
C471 C 0.11878 0.21867 0.52666 0.0
C472 C 0.18889 0.17492 0.58554 0.0
C473 C 0.20134 0.15775 0.54477 0.0
C474 C 0.14914 0.19978 0.53167 0.0
C475 C 0.1883 0.16373 0.49709 0.0
C476 C 0.10721 0.23041 0.48063 0.0
C477 C 0.07314 0.24101 0.56834 0.0
N478 N 0.16251 0.18405 0.49181 0.0
N479 N 0.10111 0.22417 0.56861 0.0
H480 H 0.38184 0.15176 0.13727 0.0
H481 H 0.32485 0.15545 0.42551 0.0
H482 H 0.36837 0.24048 0.21886 0.0
H483 H 0.33085 0.06999 0.33396 0.0
H484 H 0.34034 0.18776 0.35185 0.0
H485 H 0.36298 0.12199 0.21026 0.0
C486 C 0.37482 0.16506 0.17042 0.0
C487 C 0.37681 0.19879 0.17157 0.0
C488 C 0.33811 0.16192 0.34808 0.0
C489 C 0.35516 0.16457 0.25626 0.0
C490 C 0.32922 0.14348 0.39015 0.0
C491 C 0.32661 0.10982 0.38639 0.0
C492 C 0.34448 0.14658 0.30197 0.0
C493 C 0.33264 0.09575 0.3393 0.0
C494 C 0.364 0.148 0.21231 0.0
C495 C 0.36724 0.21452 0.21597 0.0
N496 N 0.34131 0.11404 0.29944 0.0
N497 N 0.35701 0.19734 0.25647 0.0
H498 H 0.85802 0.38181 0.16977 0.0
H499 H 0.85001 0.31944 0.45472 0.0
H500 H 0.76832 0.37021 0.24872 0.0
H501 H 0.93632 0.35122 0.38064 0.0
H502 H 0.81949 0.33083 0.37734 0.0
H503 H 0.88686 0.36348 0.24417 0.0
C504 C 0.8443 0.37537 0.20264 0.0
C505 C 0.81059 0.37809 0.20286 0.0
C506 C 0.84516 0.3351 0.37812 0.0
C507 C 0.84373 0.35663 0.28883 0.0
C508 C 0.86259 0.32846 0.42219 0.0
C509 C 0.89578 0.33457 0.42446 0.0
C510 C 0.86114 0.34753 0.33589 0.0
C511 C 0.91076 0.34639 0.38106 0.0
C512 C 0.86084 0.36482 0.24529 0.0
C513 C 0.79429 0.36875 0.2467 0.0
N514 N 0.89343 0.35245 0.33892 0.0
N515 N 0.81097 0.35861 0.28788 0.0
H516 H 0.6742 0.86082 0.43227 0.0
H517 H 0.6404 0.85742 0.13466 0.0
H518 H 0.69252 0.94061 0.33328 0.0
H519 H 0.60565 0.78537 0.23699 0.0
H520 H 0.66778 0.88402 0.20501 0.0
H521 H 0.65663 0.82893 0.35956 0.0
C522 C 0.67488 0.87154 0.39535 0.0
C523 C 0.6846 0.90363 0.38924 0.0
C524 C 0.65449 0.86214 0.21193 0.0
C525 C 0.66462 0.8672 0.30557 0.0
C526 C 0.63911 0.84677 0.1716 0.0
C527 C 0.62056 0.81912 0.17976 0.0
C528 C 0.65154 0.84969 0.26084 0.0
C529 C 0.61948 0.80674 0.22882 0.0
C530 C 0.66474 0.85336 0.35379 0.0
C531 C 0.6849 0.91614 0.3402 0.0
N532 N 0.63449 0.8221 0.2673 0.0
N533 N 0.67502 0.89806 0.30059 0.0
H534 H 0.13194 0.7448 0.29922 0.0
H535 H 0.16157 0.57378 0.16985 0.0
H536 H 0.1276 0.6541 0.37751 0.0
H537 H 0.18331 0.66285 0.0946 0.0
H538 H 0.15008 0.60358 0.24608 0.0
H539 H 0.15181 0.71643 0.22487 0.0
C540 C 0.13533 0.71896 0.30105 0.0
C541 C 0.12757 0.70185 0.34486 0.0
C542 C 0.15754 0.61677 0.21318 0.0
C543 C 0.15025 0.66913 0.25925 0.0
C544 C 0.16408 0.59972 0.16934 0.0
C545 C 0.17325 0.61579 0.12538 0.0
C546 C 0.15969 0.65047 0.21353 0.0
C547 C 0.17635 0.64944 0.12754 0.0
C548 C 0.1467 0.70278 0.25841 0.0
C549 C 0.13268 0.66838 0.34465 0.0
N550 N 0.16924 0.66572 0.17072 0.0
N551 N 0.14339 0.6532 0.30257 0.0
H552 H 0.64776 0.86732 0.93584 0.0
H553 H 0.65036 0.86292 0.6333 0.0
H554 H 0.59214 0.80094 0.84736 0.0
H555 H 0.6961 0.93613 0.72267 0.0
H556 H 0.63256 0.83659 0.71118 0.0
H557 H 0.67043 0.88935 0.85793 0.0
C558 C 0.64067 0.85708 0.90025 0.0
C559 C 0.61785 0.83238 0.89832 0.0
C560 C 0.64657 0.85842 0.71356 0.0
C561 C 0.64341 0.85756 0.80886 0.0
C562 C 0.65669 0.87343 0.66903 0.0
C563 C 0.67455 0.90198 0.67106 0.0
C564 C 0.6546 0.87189 0.76046 0.0
C565 C 0.68214 0.91437 0.71878 0.0
C566 C 0.65341 0.86978 0.85567 0.0
C567 C 0.60941 0.82022 0.85084 0.0
N568 N 0.67219 0.89937 0.76119 0.0
N569 N 0.62201 0.83293 0.80829 0.0
H570 H 0.16113 0.65992 0.5821 0.0
H571 H 0.15986 0.66398 0.88331 0.0
H572 H 0.09552 0.71737 0.67025 0.0
H573 H 0.22251 0.60283 0.79597 0.0
H574 H 0.14139 0.68977 0.80549 0.0
H575 H 0.18933 0.6444 0.65962 0.0
C576 C 0.15301 0.66968 0.61752 0.0
C577 C 0.12573 0.68969 0.61963 0.0
C578 C 0.1595 0.67097 0.80344 0.0
C579 C 0.15759 0.67194 0.7085 0.0
C580 C 0.17019 0.65643 0.84797 0.0
C581 C 0.19255 0.63104 0.84621 0.0
C582 C 0.1713 0.66005 0.75688 0.0
C583 C 0.20494 0.62208 0.79916 0.0
C584 C 0.16896 0.66071 0.66185 0.0
C585 C 0.11618 0.70152 0.66675 0.0
N586 N 0.194 0.6363 0.75654 0.0
N587 N 0.13185 0.69232 0.7091 0.0
H588 H 0.35815 0.15203 0.63079 0.0
H589 H 0.35781 0.1474 0.93294 0.0
H590 H 0.31561 0.07643 0.71903 0.0
H591 H 0.41091 0.21674 0.84647 0.0
H592 H 0.33647 0.12494 0.85447 0.0
H593 H 0.37319 0.17964 0.70907 0.0
C594 C 0.35195 0.14127 0.66637 0.0
C595 C 0.33586 0.11168 0.66804 0.0
C596 C 0.35258 0.14529 0.85275 0.0
C597 C 0.3526 0.14319 0.75774 0.0
C598 C 0.36452 0.15825 0.89764 0.0
C599 C 0.38632 0.18384 0.89639 0.0
C600 C 0.36241 0.15813 0.80633 0.0
C601 C 0.39439 0.19678 0.84933 0.0
C602 C 0.36048 0.15701 0.71109 0.0
C603 C 0.32829 0.09899 0.71549 0.0
N604 N 0.38264 0.18374 0.80639 0.0
N605 N 0.3367 0.1147 0.75809 0.0
H606 H 0.90744 0.27978 0.75115 0.0
H607 H 0.79312 0.41068 0.87989 0.0
H608 H 0.84835 0.34678 0.6683 0.0
H609 H 0.85367 0.34556 0.96391 0.0
H610 H 0.80763 0.38267 0.80314 0.0
H611 H 0.88256 0.29819 0.82878 0.0
C612 C 0.88876 0.29805 0.74917 0.0
C613 C 0.88011 0.31188 0.70298 0.0
C614 C 0.81759 0.37419 0.83824 0.0
C615 C 0.85171 0.33351 0.79248 0.0
C616 C 0.80934 0.39021 0.88233 0.0
C617 C 0.82247 0.38071 0.9286 0.0
C618 C 0.83946 0.3484 0.83984 0.0
C619 C 0.84299 0.35375 0.92919 0.0
C620 C 0.87463 0.30862 0.7937 0.0
C621 C 0.85567 0.33532 0.70289 0.0
N622 N 0.85116 0.33878 0.88538 0.0
N623 N 0.84264 0.34567 0.74701 0.0
loop_
_geom_bond_atom_site_label_1
_geom_bond_atom_site_label_2
_geom_bond_distance
_geom_bond_site_symmetry_2
_ccdc_geom_bond_type
C0 C1 1.351 . S
C0 N3 1.368 . S
C0 H5 0.931 . S
C1 C0 1.351 . S
C1 N2 1.373 1_556 S
C1 H29 0.930 . S
N2 C1 1.373 1_554 S
N2 C4 1.340 . S
N3 C0 1.368 . S
N3 C4 1.321 1_556 S
N3 Co6 2.135 1_556 S
C4 N2 1.340 . S
C4 N3 1.321 1_554 S
C4 H28 0.930 . S
H5 C0 0.931 . S
Co6 N3 2.135 1_554 S
Co6 N9 2.121 . S
Co6 O14 2.055 1_554 S
Co6 O17 2.039 . S
Co6 N20 2.140 . S
C7 O8 1.227 . S
C7 O17 1.265 . S
O8 C7 1.227 . S
N9 Co6 2.121 . S
N9 C11 1.375 . S
N9 C12 1.313 1_554 S
C10 C11 1.338 . S
C10 N13 1.377 . S
C10 H30 0.930 . S
C11 N9 1.375 . S
C11 C10 1.338 . S
C11 H15 0.931 . S
C12 N9 1.313 1_556 S
C12 N13 1.344 1_556 S
C12 H16 0.930 . S
N13 C10 1.377 . S
N13 C12 1.344 1_554 S
O14 Co6 2.055 1_556 S
O14 C18 1.253 . S
H15 C11 0.931 . S
H16 C12 0.930 . S
O17 Co6 2.039 . S
O17 C7 1.265 . S
C18 O14 1.253 . S
C18 O19 1.227 . S
O19 C18 1.227 . S
N20 Co6 2.140 . S
N20 C23 1.346 . S
N20 C24 1.345 1_554 S
C21 C22 1.387 . S
C21 C25 1.391 1_554 S
C22 C21 1.387 . S
C22 C23 1.369 . S
C22 H31 0.929 . S
C23 N20 1.346 . S
C23 C22 1.369 . S
C23 H26 0.928 . S
C24 N20 1.345 1_556 S
C24 C25 1.371 . S
C24 H27 0.931 . S
C25 C21 1.391 1_556 S
C25 C24 1.371 . S
C25 H32 0.930 . S
H26 C23 0.928 . S
H27 C24 0.931 . S
H28 C4 0.930 . S
H29 C1 0.930 . S
H30 C10 0.930 . S
H31 C22 0.929 . S
H32 C25 0.930 . S
C33 C34 1.351 . S
C33 N36 1.368 . S
C33 H38 0.931 . S
C34 C33 1.351 . S
C34 N35 1.373 1_556 S
C34 H62 0.930 . S
N35 C34 1.373 1_554 S
N35 C37 1.340 . S
N36 C33 1.368 . S
N36 C37 1.321 1_556 S
N36 Co39 2.135 1_556 S
C37 N35 1.340 . S
C37 N36 1.321 1_554 S
C37 H61 0.930 . S
H38 C33 0.931 . S
Co39 N36 2.135 1_554 S
Co39 N42 2.121 . S
Co39 O47 2.055 1_554 S
Co39 O50 2.039 . S
Co39 N53 2.140 . S
C40 O41 1.227 . S
C40 O50 1.265 . S
O41 C40 1.227 . S
N42 Co39 2.121 . S
N42 C44 1.375 . S
N42 C45 1.313 1_554 S
C43 C44 1.338 . S
C43 N46 1.377 . S
C43 H63 0.930 . S
C44 N42 1.375 . S
C44 C43 1.338 . S
C44 H48 0.931 . S
C45 N42 1.313 1_556 S
C45 N46 1.344 1_556 S
C45 H49 0.930 . S
N46 C43 1.377 . S
N46 C45 1.344 1_554 S
O47 Co39 2.055 1_556 S
O47 C51 1.253 . S
H48 C44 0.931 . S
H49 C45 0.930 . S
O50 Co39 2.039 . S
O50 C40 1.265 . S
C51 O47 1.253 . S
C51 O52 1.227 . S
O52 C51 1.227 . S
N53 Co39 2.140 . S
N53 C56 1.346 . S
N53 C57 1.345 1_554 S
C54 C55 1.387 . S
C54 C58 1.391 1_554 S
C55 C54 1.387 . S
C55 C56 1.369 . S
C55 H64 0.929 . S
C56 N53 1.346 . S
C56 C55 1.369 . S
C56 H59 0.928 . S
C57 N53 1.345 1_556 S
C57 C58 1.371 . S
C57 H60 0.931 . S
C58 C54 1.391 1_556 S
C58 C57 1.371 . S
C58 H65 0.930 . S
H59 C56 0.928 . S
H60 C57 0.931 . S
H61 C37 0.930 . S
H62 C34 0.930 . S
H63 C43 0.930 . S
H64 C55 0.929 . S
H65 C58 0.930 . S
C66 C67 1.351 . S
C66 N69 1.368 . S
C66 H71 0.931 . S
C67 C66 1.351 . S
C67 N68 1.373 1_556 S
C67 H95 0.930 . S
N68 C67 1.373 1_554 S
N68 C70 1.340 . S
N69 C66 1.368 . S
N69 C70 1.321 1_556 S
N69 Co72 2.135 1_556 S
C70 N68 1.340 . S
C70 N69 1.321 1_554 S
C70 H94 0.930 . S
H71 C66 0.931 . S
Co72 N69 2.135 1_554 S
Co72 N75 2.121 . S
Co72 O80 2.055 1_554 S
Co72 O83 2.039 . S
Co72 N86 2.140 . S
C73 O74 1.227 . S
C73 O83 1.265 . S
O74 C73 1.227 . S
N75 Co72 2.121 . S
N75 C77 1.375 . S
N75 C78 1.313 1_554 S
C76 C77 1.338 . S
C76 N79 1.377 . S
C76 H96 0.930 . S
C77 N75 1.375 . S
C77 C76 1.338 . S
C77 H81 0.931 . S
C78 N75 1.313 1_556 S
C78 N79 1.344 1_556 S
C78 H82 0.930 . S
N79 C76 1.377 . S
N79 C78 1.344 1_554 S
O80 Co72 2.055 1_556 S
O80 C84 1.253 . S
H81 C77 0.931 . S
H82 C78 0.930 . S
O83 Co72 2.039 . S
O83 C73 1.265 . S
C84 O80 1.253 . S
C84 O85 1.227 . S
O85 C84 1.227 . S
N86 Co72 2.140 . S
N86 C89 1.346 . S
N86 C90 1.345 1_554 S
C87 C88 1.387 . S
C87 C91 1.391 1_554 S
C88 C87 1.387 . S
C88 C89 1.369 . S
C88 H97 0.929 . S
C89 N86 1.346 . S
C89 C88 1.369 . S
C89 H92 0.928 . S
C90 N86 1.345 1_556 S
C90 C91 1.371 . S
C90 H93 0.931 . S
C91 C87 1.391 1_556 S
C91 C90 1.371 . S
C91 H98 0.930 . S
H92 C89 0.928 . S
H93 C90 0.931 . S
H94 C70 0.930 . S
H95 C67 0.930 . S
H96 C76 0.930 . S
H97 C88 0.929 . S
H98 C91 0.930 . S
C99 C100 1.351 . S
C99 N102 1.368 . S
C99 H104 0.931 . S
C100 C99 1.351 . S
C100 N101 1.373 1_556 S
C100 H128 0.930 . S
N101 C100 1.373 1_554 S
N101 C103 1.340 . S
N102 C99 1.368 . S
N102 C103 1.321 1_556 S
N102 Co105 2.135 1_556 S
C103 N101 1.340 . S
C103 N102 1.321 1_554 S
C103 H127 0.930 . S
H104 C99 0.931 . S
Co105 N102 2.135 1_554 S
Co105 N108 2.121 . S
Co105 O113 2.055 1_554 S
Co105 O116 2.039 . S
Co105 N119 2.140 . S
C106 O107 1.227 . S
C106 O116 1.265 . S
O107 C106 1.227 . S
N108 Co105 2.121 . S
N108 C110 1.375 . S
N108 C111 1.313 1_554 S
C109 C110 1.338 . S
C109 N112 1.377 . S
C109 H129 0.930 . S
C110 N108 1.375 . S
C110 C109 1.338 . S
C110 H114 0.931 . S
C111 N108 1.313 1_556 S
C111 N112 1.344 1_556 S
C111 H115 0.930 . S
N112 C109 1.377 . S
N112 C111 1.344 1_554 S
O113 Co105 2.055 1_556 S
O113 C117 1.253 . S
H114 C110 0.931 . S
H115 C111 0.930 . S
O116 Co105 2.039 . S
O116 C106 1.265 . S
C117 O113 1.253 . S
C117 O118 1.227 . S
O118 C117 1.227 . S
N119 Co105 2.140 . S
N119 C122 1.346 . S
N119 C123 1.345 1_554 S
C120 C121 1.387 . S
C120 C124 1.391 1_554 S
C121 C120 1.387 . S
C121 C122 1.369 . S
C121 H130 0.929 . S
C122 N119 1.346 . S
C122 C121 1.369 . S
C122 H125 0.928 . S
C123 N119 1.345 1_556 S
C123 C124 1.371 . S
C123 H126 0.931 . S
C124 C120 1.391 1_556 S
C124 C123 1.371 . S
C124 H131 0.930 . S
H125 C122 0.928 . S
H126 C123 0.931 . S
H127 C103 0.930 . S
H128 C100 0.930 . S
H129 C109 0.930 . S
H130 C121 0.929 . S
H131 C124 0.930 . S
C132 C133 1.351 . S
C132 N135 1.368 . S
C132 H137 0.931 . S
C133 C132 1.351 . S
C133 N134 1.373 . S
C133 H161 0.930 . S
N134 C133 1.373 . S
N134 C136 1.340 . S
N135 C132 1.368 . S
N135 C136 1.321 . S
N135 Co138 2.135 . S
C136 N134 1.340 . S
C136 N135 1.321 . S
C136 H160 0.930 . S
H137 C132 0.931 . S
Co138 N135 2.135 . S
Co138 N141 2.121 . S
Co138 O146 2.055 . S
Co138 O149 2.039 . S
Co138 N152 2.140 . S
C139 O140 1.227 . S
C139 O149 1.265 . S
O140 C139 1.227 . S
N141 Co138 2.121 . S
N141 C143 1.375 . S
N141 C144 1.313 . S
C142 C143 1.338 . S
C142 N145 1.377 . S
C142 H162 0.930 . S
C143 N141 1.375 . S
C143 C142 1.338 . S
C143 H147 0.931 . S
C144 N141 1.313 . S
C144 N145 1.344 . S
C144 H148 0.930 . S
N145 C142 1.377 . S
N145 C144 1.344 . S
O146 Co138 2.055 . S
O146 C150 1.253 . S
H147 C143 0.931 . S
H148 C144 0.930 . S
O149 Co138 2.039 . S
O149 C139 1.265 . S
C150 O146 1.253 . S
C150 O151 1.227 . S
O151 C150 1.227 . S
N152 Co138 2.140 . S
N152 C155 1.346 . S
N152 C156 1.345 . S
C153 C154 1.387 1_455 S
C153 C157 1.391 . S
C154 C153 1.387 1_655 S
C154 C155 1.369 . S
C154 H163 0.929 . S
C155 N152 1.346 . S
C155 C154 1.369 . S
C155 H158 0.928 . S
C156 N152 1.345 . S
C156 C157 1.371 1_655 S
C156 H159 0.931 . S
C157 C153 1.391 . S
C157 C156 1.371 1_455 S
C157 H164 0.930 . S
H158 C155 0.928 . S
H159 C156 0.931 . S
H160 C136 0.930 . S
H161 C133 0.930 . S
H162 C142 0.930 . S
H163 C154 0.929 . S
H164 C157 0.930 . S
C165 C166 1.351 . S
C165 N168 1.368 . S
C165 H170 0.931 . S
C166 C165 1.351 . S
C166 N167 1.373 . S
C166 H194 0.930 . S
N167 C166 1.373 . S
N167 C169 1.340 . S
N168 C165 1.368 . S
N168 C169 1.321 . S
N168 Co171 2.135 . S
C169 N167 1.340 . S
C169 N168 1.321 . S
C169 H193 0.930 . S
H170 C165 0.931 . S
Co171 N168 2.135 . S
Co171 N174 2.121 . S
Co171 O179 2.055 . S
Co171 O182 2.039 . S
Co171 N185 2.140 . S
C172 O173 1.227 . S
C172 O182 1.265 . S
O173 C172 1.227 . S
N174 Co171 2.121 . S
N174 C176 1.375 . S
N174 C177 1.313 . S
C175 C176 1.338 . S
C175 N178 1.377 . S
C175 H195 0.930 . S
C176 N174 1.375 . S
C176 C175 1.338 . S
C176 H180 0.931 . S
C177 N174 1.313 . S
C177 N178 1.344 . S
C177 H181 0.930 . S
N178 C175 1.377 . S
N178 C177 1.344 . S
O179 Co171 2.055 . S
O179 C183 1.253 . S
H180 C176 0.931 . S
H181 C177 0.930 . S
O182 Co171 2.039 . S
O182 C172 1.265 . S
C183 O179 1.253 . S
C183 O184 1.227 . S
O184 C183 1.227 . S
N185 Co171 2.140 . S
N185 C188 1.346 . S
N185 C189 1.345 . S
C186 C187 1.387 1_545 S
C186 C190 1.391 . S
C187 C186 1.387 1_565 S
C187 C188 1.369 . S
C187 H196 0.929 . S
C188 N185 1.346 . S
C188 C187 1.369 . S
C188 H191 0.928 . S
C189 N185 1.345 . S
C189 C190 1.371 1_565 S
C189 H192 0.931 . S
C190 C186 1.391 . S
C190 C189 1.371 1_545 S
C190 H197 0.930 . S
H191 C188 0.928 . S
H192 C189 0.931 . S
H193 C169 0.930 . S
H194 C166 0.930 . S
H195 C175 0.930 . S
H196 C187 0.929 . S
H197 C190 0.930 . S
C198 C199 1.351 . S
C198 N201 1.368 . S
C198 H203 0.931 . S
C199 C198 1.351 . S
C199 N200 1.373 . S
C199 H227 0.930 . S
N200 C199 1.373 . S
N200 C202 1.340 . S
N201 C198 1.368 . S
N201 C202 1.321 . S
N201 Co204 2.135 . S
C202 N200 1.340 . S
C202 N201 1.321 . S
C202 H226 0.930 . S
H203 C198 0.931 . S
Co204 N201 2.135 . S
Co204 N207 2.121 . S
Co204 O212 2.055 . S
Co204 O215 2.039 . S
Co204 N218 2.140 . S
C205 O206 1.227 . S
C205 O215 1.265 . S
O206 C205 1.227 . S
N207 Co204 2.121 . S
N207 C209 1.375 . S
N207 C210 1.313 . S
C208 C209 1.338 . S
C208 N211 1.377 . S
C208 H228 0.930 . S
C209 N207 1.375 . S
C209 C208 1.338 . S
C209 H213 0.931 . S
C210 N207 1.313 . S
C210 N211 1.344 . S
C210 H214 0.930 . S
N211 C208 1.377 . S
N211 C210 1.344 . S
O212 Co204 2.055 . S
O212 C216 1.253 . S
H213 C209 0.931 . S
H214 C210 0.930 . S
O215 Co204 2.039 . S
O215 C205 1.265 . S
C216 O212 1.253 . S
C216 O217 1.227 . S
O217 C216 1.227 . S
N218 Co204 2.140 . S
N218 C221 1.346 . S
N218 C222 1.345 . S
C219 C220 1.387 1_655 S
C219 C223 1.391 . S
C220 C219 1.387 1_455 S
C220 C221 1.369 . S
C220 H229 0.929 . S
C221 N218 1.346 . S
C221 C220 1.369 . S
C221 H224 0.928 . S
C222 N218 1.345 . S
C222 C223 1.371 1_455 S
C222 H225 0.931 . S
C223 C219 1.391 . S
C223 C222 1.371 1_655 S
C223 H230 0.930 . S
H224 C221 0.928 . S
H225 C222 0.931 . S
H226 C202 0.930 . S
H227 C199 0.930 . S
H228 C208 0.930 . S
H229 C220 0.929 . S
H230 C223 0.930 . S
C231 C232 1.351 . S
C231 N234 1.368 . S
C231 H236 0.931 . S
C232 C231 1.351 . S
C232 N233 1.373 . S
C232 H260 0.930 . S
N233 C232 1.373 . S
N233 C235 1.340 . S
N234 C231 1.368 . S
N234 C235 1.321 . S
N234 Co237 2.135 . S
C235 N233 1.340 . S
C235 N234 1.321 . S
C235 H259 0.930 . S
H236 C231 0.931 . S
Co237 N234 2.135 . S
Co237 N240 2.121 . S
Co237 O245 2.055 . S
Co237 O248 2.039 . S
Co237 N251 2.140 . S
C238 O239 1.227 . S
C238 O248 1.265 . S
O239 C238 1.227 . S
N240 Co237 2.121 . S
N240 C242 1.375 . S
N240 C243 1.313 . S
C241 C242 1.338 . S
C241 N244 1.377 . S
C241 H261 0.930 . S
C242 N240 1.375 . S
C242 C241 1.338 . S
C242 H246 0.931 . S
C243 N240 1.313 . S
C243 N244 1.344 . S
C243 H247 0.930 . S
N244 C241 1.377 . S
N244 C243 1.344 . S
O245 Co237 2.055 . S
O245 C249 1.253 . S
H246 C242 0.931 . S
H247 C243 0.930 . S
O248 Co237 2.039 . S
O248 C238 1.265 . S
C249 O245 1.253 . S
C249 O250 1.227 . S
O250 C249 1.227 . S
N251 Co237 2.140 . S
N251 C254 1.346 . S
N251 C255 1.345 . S
C252 C253 1.387 1_565 S
C252 C256 1.391 . S
C253 C252 1.387 1_545 S
C253 C254 1.369 . S
C253 H262 0.929 . S
C254 N251 1.346 . S
C254 C253 1.369 . S
C254 H257 0.928 . S
C255 N251 1.345 . S
C255 C256 1.371 1_545 S
C255 H258 0.931 . S
C256 C252 1.391 . S
C256 C255 1.371 1_565 S
C256 H263 0.930 . S
H257 C254 0.928 . S
H258 C255 0.931 . S
H259 C235 0.930 . S
H260 C232 0.930 . S
H261 C241 0.930 . S
H262 C253 0.929 . S
H263 C256 0.930 . S
H264 C270 0.930 . S
H265 C274 0.930 . S
H266 C279 0.929 . S
H267 C277 0.929 . S
H268 C272 0.929 . S
H269 C278 0.929 . S
C270 H264 0.930 . S
C270 C271 1.367 . S
C270 C278 1.378 . S
C271 C270 1.367 . S
C271 C279 1.433 1_556 S
C272 H268 0.929 . S
C272 C274 1.378 . S
C272 C276 1.350 1_554 S
C273 C276 1.463 1_565 S
C273 C278 1.350 . S
C273 N281 1.427 1_556 S
C274 H265 0.930 . S
C274 C272 1.378 . S
C274 C275 1.367 1_554 S
C275 C274 1.367 1_556 S
C275 C277 1.433 . S
C276 C272 1.350 1_556 S
C276 C273 1.463 1_545 S
C276 N280 1.427 . S
C277 H267 0.929 . S
C277 C275 1.433 . S
C277 N280 1.384 . S
C278 H269 0.929 . S
C278 C270 1.378 . S
C278 C273 1.350 . S
C279 H266 0.929 . S
C279 C271 1.433 1_554 S
C279 N281 1.384 . S
N280 C276 1.427 . S
N280 C277 1.384 . S
N281 C273 1.427 1_554 S
N281 C279 1.384 . S
H282 C288 0.930 . S
H283 C292 0.930 . S
H284 C297 0.929 . S
H285 C295 0.929 . S
H286 C290 0.929 . S
H287 C296 0.929 . S
C288 H282 0.930 . S
C288 C289 1.367 1_554 S
C288 C296 1.378 . S
C289 C288 1.367 1_556 S
C289 C297 1.433 . S
C290 H286 0.929 . S
C290 C292 1.378 . S
C290 C294 1.350 . S
C291 C294 1.463 1_655 S
C291 C296 1.350 1_556 S
C291 N299 1.427 . S
C292 H283 0.930 . S
C292 C290 1.378 . S
C292 C293 1.367 . S
C293 C292 1.367 . S
C293 C295 1.433 1_556 S
C294 C290 1.350 . S
C294 C291 1.463 1_455 S
C294 N298 1.427 1_556 S
C295 H285 0.929 . S
C295 C293 1.433 1_554 S
C295 N298 1.384 . S
C296 H287 0.929 . S
C296 C288 1.378 . S
C296 C291 1.350 1_554 S
C297 H284 0.929 . S
C297 C289 1.433 . S
C297 N299 1.384 . S
N298 C294 1.427 1_554 S
N298 C295 1.384 . S
N299 C291 1.427 . S
N299 C297 1.384 . S
H300 C306 0.930 . S
H301 C310 0.930 . S
H302 C315 0.929 . S
H303 C313 0.929 . S
H304 C308 0.929 . S
H305 C314 0.929 . S
C306 H300 0.930 . S
C306 C307 1.367 . S
C306 C314 1.378 . S
C307 C306 1.367 . S
C307 C315 1.433 . S
C308 H304 0.929 . S
C308 C310 1.378 . S
C308 C312 1.350 . S
C309 C312 1.463 1_655 S
C309 C314 1.350 . S
C309 N317 1.427 . S
C310 H301 0.930 . S
C310 C308 1.378 . S
C310 C311 1.367 . S
C311 C310 1.367 . S
C311 C313 1.433 . S
C312 C308 1.350 . S
C312 C309 1.463 1_455 S
C312 N316 1.427 . S
C313 H303 0.929 . S
C313 C311 1.433 . S
C313 N316 1.384 . S
C314 H305 0.929 . S
C314 C306 1.378 . S
C314 C309 1.350 . S
C315 H302 0.929 . S
C315 C307 1.433 . S
C315 N317 1.384 . S
N316 C312 1.427 . S
N316 C313 1.384 . S
N317 C309 1.427 . S
N317 C315 1.384 . S
H318 C324 0.930 . S
H319 C328 0.930 . S
H320 C333 0.929 . S
H321 C331 0.929 . S
H322 C326 0.951 . S
H323 C332 0.951 . S
C324 H318 0.930 . S
C324 C325 1.367 . S
C324 C332 1.364 1_565 S
C325 C324 1.367 . S
C325 C333 1.433 . S
C326 H322 0.951 . S
C326 C328 1.364 1_565 S
C326 C330 1.342 1_565 S
C327 C330 1.463 1_565 S
C327 C332 1.342 1_565 S
C327 N335 1.427 . S
C328 H319 0.930 . S
C328 C326 1.364 1_545 S
C328 C329 1.367 . S
C329 C328 1.367 . S
C329 C331 1.433 . S
C330 C326 1.342 1_545 S
C330 C327 1.463 1_545 S
C330 N334 1.427 . S
C331 H321 0.929 . S
C331 C329 1.433 . S
C331 N334 1.384 . S
C332 H323 0.951 . S
C332 C324 1.364 1_545 S
C332 C327 1.342 1_545 S
C333 H320 0.929 . S
C333 C325 1.433 . S
C333 N335 1.384 . S
N334 C330 1.427 . S
N334 C331 1.384 . S
N335 C327 1.427 . S
N335 C333 1.384 . S
H336 C342 0.930 . S
H337 C346 0.930 . S
H338 C351 0.929 . S
H339 C349 0.929 . S
H340 C344 0.929 . S
H341 C350 0.929 . S
C342 H336 0.930 . S
C342 C343 1.367 . S
C342 C350 1.378 . S
C343 C342 1.367 . S
C343 C351 1.433 . S
C344 H340 0.929 . S
C344 C346 1.378 . S
C344 C348 1.350 . S
C345 C348 1.463 . S
C345 C350 1.350 . S
C345 N353 1.427 . S
C346 H337 0.930 . S
C346 C344 1.378 . S
C346 C347 1.367 . S
C347 C346 1.367 . S
C347 C349 1.433 . S
C348 C344 1.350 . S
C348 C345 1.463 . S
C348 N352 1.427 . S
C349 H339 0.929 . S
C349 C347 1.433 . S
C349 N352 1.384 . S
C350 H341 0.929 . S
C350 C342 1.378 . S
C350 C345 1.350 . S
C351 H338 0.929 . S
C351 C343 1.433 . S
C351 N353 1.384 . S
N352 C348 1.427 . S
N352 C349 1.384 . S
N353 C345 1.427 . S
N353 C351 1.384 . S
H354 C360 0.930 . S
H355 C364 0.930 . S
H356 C369 0.929 . S
H357 C367 0.929 . S
H358 C362 0.929 . S
H359 C368 0.929 . S
C360 H354 0.930 . S
C360 C361 1.367 . S
C360 C368 1.378 . S
C361 C360 1.367 . S
C361 C369 1.433 1_554 S
C362 H358 0.929 . S
C362 C364 1.378 . S
C362 C366 1.350 1_556 S
C363 C366 1.463 . S
C363 C368 1.350 . S
C363 N371 1.427 1_554 S
C364 H355 0.930 . S
C364 C362 1.378 . S
C364 C365 1.367 1_556 S
C365 C364 1.367 1_554 S
C365 C367 1.433 . S
C366 C362 1.350 1_554 S
C366 C363 1.463 . S
C366 N370 1.427 . S
C367 H357 0.929 . S
C367 C365 1.433 . S
C367 N370 1.384 . S
C368 H359 0.929 . S
C368 C360 1.378 . S
C368 C363 1.350 . S
C369 H356 0.929 . S
C369 C361 1.433 1_556 S
C369 N371 1.384 . S
N370 C366 1.427 . S
N370 C367 1.384 . S
N371 C363 1.427 1_556 S
N371 C369 1.384 . S
H372 C378 0.930 . S
H373 C382 0.930 . S
H374 C387 0.929 . S
H375 C385 0.929 . S
H376 C380 0.929 . S
H377 C386 0.929 . S
C378 H372 0.930 . S
C378 C379 1.367 . S
C378 C386 1.378 . S
C379 C378 1.367 . S
C379 C387 1.433 1_554 S
C380 H376 0.929 . S
C380 C382 1.378 . S
C380 C384 1.350 1_556 S
C381 C384 1.463 . S
C381 C386 1.350 . S
C381 N389 1.427 1_554 S
C382 H373 0.930 . S
C382 C380 1.378 . S
C382 C383 1.367 1_556 S
C383 C382 1.367 1_554 S
C383 C385 1.433 . S
C384 C380 1.350 1_554 S
C384 C381 1.463 . S
C384 N388 1.427 . S
C385 H375 0.929 . S
C385 C383 1.433 . S
C385 N388 1.384 . S
C386 H377 0.929 . S
C386 C378 1.378 . S
C386 C381 1.350 . S
C387 H374 0.929 . S
C387 C379 1.433 1_556 S
C387 N389 1.384 . S
N388 C384 1.427 . S
N388 C385 1.384 . S
N389 C381 1.427 1_556 S
N389 C387 1.384 . S
H390 C396 0.930 . S
H391 C400 0.930 . S
H392 C405 0.929 . S
H393 C403 0.929 . S
H394 C398 0.929 . S
H395 C404 0.929 . S
C396 H390 0.930 . S
C396 C397 1.367 1_556 S
C396 C404 1.378 . S
C397 C396 1.367 1_554 S
C397 C405 1.433 . S
C398 H394 0.929 . S
C398 C400 1.378 . S
C398 C402 1.350 . S
C399 C402 1.463 . S
C399 C404 1.350 1_554 S
C399 N407 1.427 . S
C400 H391 0.930 . S
C400 C398 1.378 . S
C400 C401 1.367 . S
C401 C400 1.367 . S
C401 C403 1.433 1_554 S
C402 C398 1.350 . S
C402 C399 1.463 . S
C402 N406 1.427 1_554 S
C403 H393 0.929 . S
C403 C401 1.433 1_556 S
C403 N406 1.384 . S
C404 H395 0.929 . S
C404 C396 1.378 . S
C404 C399 1.350 1_556 S
C405 H392 0.929 . S
C405 C397 1.433 . S
C405 N407 1.384 . S
N406 C402 1.427 1_556 S
N406 C403 1.384 . S
N407 C399 1.427 . S
N407 C405 1.384 . S
H408 C414 0.930 . S
H409 C418 0.930 . S
H410 C423 0.929 . S
H411 C421 0.929 . S
H412 C416 0.929 . S
H413 C422 0.929 . S
C414 H408 0.930 . S
C414 C415 1.367 . S
C414 C422 1.378 . S
C415 C414 1.367 . S
C415 C423 1.433 . S
C416 H412 0.929 . S
C416 C418 1.378 . S
C416 C420 1.350 . S
C417 C420 1.463 . S
C417 C422 1.350 . S
C417 N425 1.427 . S
C418 H409 0.930 . S
C418 C416 1.378 . S
C418 C419 1.367 . S
C419 C418 1.367 . S
C419 C421 1.433 . S
C420 C416 1.350 . S
C420 C417 1.463 . S
C420 N424 1.427 . S
C421 H411 0.929 . S
C421 C419 1.433 . S
C421 N424 1.384 . S
C422 H413 0.929 . S
C422 C414 1.378 . S
C422 C417 1.350 . S
C423 H410 0.929 . S
C423 C415 1.433 . S
C423 N425 1.384 . S
N424 C420 1.427 . S
N424 C421 1.384 . S
N425 C417 1.427 . S
N425 C423 1.384 . S
H426 C432 0.930 . S
H427 C436 0.930 . S
H428 C441 0.929 . S
H429 C439 0.929 . S
H430 C434 0.929 . S
H431 C440 0.929 . S
C432 H426 0.930 . S
C432 C433 1.367 . S
C432 C440 1.378 . S
C433 C432 1.367 . S
C433 C441 1.433 . S
C434 H430 0.929 . S
C434 C436 1.378 . S
C434 C438 1.350 . S
C435 C438 1.463 . S
C435 C440 1.350 . S
C435 N443 1.427 . S
C436 H427 0.930 . S
C436 C434 1.378 . S
C436 C437 1.367 . S
C437 C436 1.367 . S
C437 C439 1.433 . S
C438 C434 1.350 . S
C438 C435 1.463 . S
C438 N442 1.427 . S
C439 H429 0.929 . S
C439 C437 1.433 . S
C439 N442 1.384 . S
C440 H431 0.929 . S
C440 C432 1.378 . S
C440 C435 1.350 . S
C441 H428 0.929 . S
C441 C433 1.433 . S
C441 N443 1.384 . S
N442 C438 1.427 . S
N442 C439 1.384 . S
N443 C435 1.427 . S
N443 C441 1.384 . S
H444 C450 0.930 . S
H445 C454 0.930 . S
H446 C459 0.929 . S
H447 C457 0.929 . S
H448 C452 0.929 . S
H449 C458 0.929 . S
C450 H444 0.930 . S
C450 C451 1.367 . S
C450 C458 1.378 . S
C451 C450 1.367 . S
C451 C459 1.433 . S
C452 H448 0.929 . S
C452 C454 1.378 . S
C452 C456 1.350 . S
C453 C456 1.463 . S
C453 C458 1.350 . S
C453 N461 1.427 . S
C454 H445 0.930 . S
C454 C452 1.378 . S
C454 C455 1.367 . S
C455 C454 1.367 . S
C455 C457 1.433 . S
C456 C452 1.350 . S
C456 C453 1.463 . S
C456 N460 1.427 . S
C457 H447 0.929 . S
C457 C455 1.433 . S
C457 N460 1.384 . S
C458 H449 0.929 . S
C458 C450 1.378 . S
C458 C453 1.350 . S
C459 H446 0.929 . S
C459 C451 1.433 . S
C459 N461 1.384 . S
N460 C456 1.427 . S
N460 C457 1.384 . S
N461 C453 1.427 . S
N461 C459 1.384 . S
H462 C468 0.930 . S
H463 C472 0.930 . S
H464 C477 0.929 . S
H465 C475 0.929 . S
H466 C470 0.929 . S
H467 C476 0.929 . S
C468 H462 0.930 . S
C468 C469 1.367 . S
C468 C476 1.378 . S
C469 C468 1.367 . S
C469 C477 1.433 . S
C470 H466 0.929 . S
C470 C472 1.378 . S
C470 C474 1.350 . S
C471 C474 1.463 . S
C471 C476 1.350 . S
C471 N479 1.427 . S
C472 H463 0.930 . S
C472 C470 1.378 . S
C472 C473 1.367 . S
C473 C472 1.367 . S
C473 C475 1.433 . S
C474 C470 1.350 . S
C474 C471 1.463 . S
C474 N478 1.427 . S
C475 H465 0.929 . S
C475 C473 1.433 . S
C475 N478 1.384 . S
C476 H467 0.929 . S
C476 C468 1.378 . S
C476 C471 1.350 . S
C477 H464 0.929 . S
C477 C469 1.433 . S
C477 N479 1.384 . S
N478 C474 1.427 . S
N478 C475 1.384 . S
N479 C471 1.427 . S
N479 C477 1.384 . S
H480 C486 0.930 . S
H481 C490 0.930 . S
H482 C495 0.929 . S
H483 C493 0.929 . S
H484 C488 0.929 . S
H485 C494 0.929 . S
C486 H480 0.930 . S
C486 C487 1.367 . S
C486 C494 1.378 . S
C487 C486 1.367 . S
C487 C495 1.433 . S
C488 H484 0.929 . S
C488 C490 1.378 . S
C488 C492 1.350 . S
C489 C492 1.463 . S
C489 C494 1.350 . S
C489 N497 1.427 . S
C490 H481 0.930 . S
C490 C488 1.378 . S
C490 C491 1.367 . S
C491 C490 1.367 . S
C491 C493 1.433 . S
C492 C488 1.350 . S
C492 C489 1.463 . S
C492 N496 1.427 . S
C493 H483 0.929 . S
C493 C491 1.433 . S
C493 N496 1.384 . S
C494 H485 0.929 . S
C494 C486 1.378 . S
C494 C489 1.350 . S
C495 H482 0.929 . S
C495 C487 1.433 . S
C495 N497 1.384 . S
N496 C492 1.427 . S
N496 C493 1.384 . S
N497 C489 1.427 . S
N497 C495 1.384 . S
H498 C504 0.930 . S
H499 C508 0.930 . S
H500 C513 0.929 . S
H501 C511 0.929 . S
H502 C506 0.929 . S
H503 C512 0.929 . S
C504 H498 0.930 . S
C504 C505 1.367 . S
C504 C512 1.378 . S
C505 C504 1.367 . S
C505 C513 1.433 . S
C506 H502 0.929 . S
C506 C508 1.378 . S
C506 C510 1.350 . S
C507 C510 1.463 . S
C507 C512 1.350 . S
C507 N515 1.427 . S
C508 H499 0.930 . S
C508 C506 1.378 . S
C508 C509 1.367 . S
C509 C508 1.367 . S
C509 C511 1.433 . S
C510 C506 1.350 . S
C510 C507 1.463 . S
C510 N514 1.427 . S
C511 H501 0.929 . S
C511 C509 1.433 . S
C511 N514 1.384 . S
C512 H503 0.929 . S
C512 C504 1.378 . S
C512 C507 1.350 . S
C513 H500 0.929 . S
C513 C505 1.433 . S
C513 N515 1.384 . S
N514 C510 1.427 . S
N514 C511 1.384 . S
N515 C507 1.427 . S
N515 C513 1.384 . S
H516 C522 0.930 . S
H517 C526 0.930 . S
H518 C531 0.929 . S
H519 C529 0.929 . S
H520 C524 0.929 . S
H521 C530 0.929 . S
C522 H516 0.930 . S
C522 C523 1.367 . S
C522 C530 1.378 . S
C523 C522 1.367 . S
C523 C531 1.433 . S
C524 H520 0.929 . S
C524 C526 1.378 . S
C524 C528 1.350 . S
C525 C528 1.463 . S
C525 C530 1.350 . S
C525 N533 1.427 . S
C526 H517 0.930 . S
C526 C524 1.378 . S
C526 C527 1.367 . S
C527 C526 1.367 . S
C527 C529 1.433 . S
C528 C524 1.350 . S
C528 C525 1.463 . S
C528 N532 1.427 . S
C529 H519 0.929 . S
C529 C527 1.433 . S
C529 N532 1.384 . S
C530 H521 0.929 . S
C530 C522 1.378 . S
C530 C525 1.350 . S
C531 H518 0.929 . S
C531 C523 1.433 . S
C531 N533 1.384 . S
N532 C528 1.427 . S
N532 C529 1.384 . S
N533 C525 1.427 . S
N533 C531 1.384 . S
H534 C540 0.930 . S
H535 C544 0.930 . S
H536 C549 0.929 . S
H537 C547 0.929 . S
H538 C542 0.929 . S
H539 C548 0.929 . S
C540 H534 0.930 . S
C540 C541 1.367 . S
C540 C548 1.378 . S
C541 C540 1.367 . S
C541 C549 1.433 . S
C542 H538 0.929 . S
C542 C544 1.378 . S
C542 C546 1.350 . S
C543 C546 1.463 . S
C543 C548 1.350 . S
C543 N551 1.427 . S
C544 H535 0.930 . S
C544 C542 1.378 . S
C544 C545 1.367 . S
C545 C544 1.367 . S
C545 C547 1.433 . S
C546 C542 1.350 . S
C546 C543 1.463 . S
C546 N550 1.427 . S
C547 H537 0.929 . S
C547 C545 1.433 . S
C547 N550 1.384 . S
C548 H539 0.929 . S
C548 C540 1.378 . S
C548 C543 1.350 . S
C549 H536 0.929 . S
C549 C541 1.433 . S
C549 N551 1.384 . S
N550 C546 1.427 . S
N550 C547 1.384 . S
N551 C543 1.427 . S
N551 C549 1.384 . S
H552 C558 0.930 . S
H553 C562 0.930 . S
H554 C567 0.929 . S
H555 C565 0.929 . S
H556 C560 0.929 . S
H557 C566 0.929 . S
C558 H552 0.930 . S
C558 C559 1.367 . S
C558 C566 1.378 . S
C559 C558 1.367 . S
C559 C567 1.433 . S
C560 H556 0.929 . S
C560 C562 1.378 . S
C560 C564 1.350 . S
C561 C564 1.463 . S
C561 C566 1.350 . S
C561 N569 1.427 . S
C562 H553 0.930 . S
C562 C560 1.378 . S
C562 C563 1.367 . S
C563 C562 1.367 . S
C563 C565 1.433 . S
C564 C560 1.350 . S
C564 C561 1.463 . S
C564 N568 1.427 . S
C565 H555 0.929 . S
C565 C563 1.433 . S
C565 N568 1.384 . S
C566 H557 0.929 . S
C566 C558 1.378 . S
C566 C561 1.350 . S
C567 H554 0.929 . S
C567 C559 1.433 . S
C567 N569 1.384 . S
N568 C564 1.427 . S
N568 C565 1.384 . S
N569 C561 1.427 . S
N569 C567 1.384 . S
H570 C576 0.930 . S
H571 C580 0.930 . S
H572 C585 0.929 . S
H573 C583 0.929 . S
H574 C578 0.929 . S
H575 C584 0.929 . S
C576 H570 0.930 . S
C576 C577 1.367 . S
C576 C584 1.378 . S
C577 C576 1.367 . S
C577 C585 1.433 . S
C578 H574 0.929 . S
C578 C580 1.378 . S
C578 C582 1.350 . S
C579 C582 1.463 . S
C579 C584 1.350 . S
C579 N587 1.427 . S
C580 H571 0.930 . S
C580 C578 1.378 . S
C580 C581 1.367 . S
C581 C580 1.367 . S
C581 C583 1.433 . S
C582 C578 1.350 . S
C582 C579 1.463 . S
C582 N586 1.427 . S
C583 H573 0.929 . S
C583 C581 1.433 . S
C583 N586 1.384 . S
C584 H575 0.929 . S
C584 C576 1.378 . S
C584 C579 1.350 . S
C585 H572 0.929 . S
C585 C577 1.433 . S
C585 N587 1.384 . S
N586 C582 1.427 . S
N586 C583 1.384 . S
N587 C579 1.427 . S
N587 C585 1.384 . S
H588 C594 0.930 . S
H589 C598 0.930 . S
H590 C603 0.929 . S
H591 C601 0.929 . S
H592 C596 0.929 . S
H593 C602 0.929 . S
C594 H588 0.930 . S
C594 C595 1.367 . S
C594 C602 1.378 . S
C595 C594 1.367 . S
C595 C603 1.433 . S
C596 H592 0.929 . S
C596 C598 1.378 . S
C596 C600 1.350 . S
C597 C600 1.463 . S
C597 C602 1.350 . S
C597 N605 1.427 . S
C598 H589 0.930 . S
C598 C596 1.378 . S
C598 C599 1.367 . S
C599 C598 1.367 . S
C599 C601 1.433 . S
C600 C596 1.350 . S
C600 C597 1.463 . S
C600 N604 1.427 . S
C601 H591 0.929 . S
C601 C599 1.433 . S
C601 N604 1.384 . S
C602 H593 0.929 . S
C602 C594 1.378 . S
C602 C597 1.350 . S
C603 H590 0.929 . S
C603 C595 1.433 . S
C603 N605 1.384 . S
N604 C600 1.427 . S
N604 C601 1.384 . S
N605 C597 1.427 . S
N605 C603 1.384 . S
H606 C612 0.930 . S
H607 C616 0.930 . S
H608 C621 0.929 . S
H609 C619 0.929 . S
H610 C614 0.929 . S
H611 C620 0.929 . S
C612 H606 0.930 . S
C612 C613 1.367 . S
C612 C620 1.378 . S
C613 C612 1.367 . S
C613 C621 1.433 . S
C614 H610 0.929 . S
C614 C616 1.378 . S
C614 C618 1.350 . S
C615 C618 1.463 . S
C615 C620 1.350 . S
C615 N623 1.427 . S
C616 H607 0.930 . S
C616 C614 1.378 . S
C616 C617 1.367 . S
C617 C616 1.367 . S
C617 C619 1.433 . S
C618 C614 1.350 . S
C618 C615 1.463 . S
C618 N622 1.427 . S
C619 H609 0.929 . S
C619 C617 1.433 . S
C619 N622 1.384 . S
C620 H611 0.929 . S
C620 C612 1.378 . S
C620 C615 1.350 . S
C621 H608 0.929 . S
C621 C613 1.433 . S
C621 N623 1.384 . S
N622 C618 1.427 . S
N622 C619 1.384 . S
N623 C615 1.427 . S
N623 C621 1.384 . S
C271 N79 1.299 1_556 S
C275 N13 1.292 1_556 S
C289 N46 1.287 1_556 S
C293 N112 1.303 1_556 S
C307 N145 1.287 . S
C311 N211 1.302 . S
C325 N178 1.302 . S
C329 N244 1.289 . S
C343 C120 1.555 . S
C347 N2 1.503 . S
C361 C21 1.556 . S
C365 N35 1.498 . S
C379 N68 1.510 . S
C383 C54 1.555 . S
C397 N101 1.497 . S
C401 C87 1.555 . S
C415 C186 1.556 . S
C419 N134 1.508 . S
C433 C219 1.555 . S
C437 N167 1.510 . S
C451 C252 1.555 . S
C455 N200 1.498 . S
C469 C153 1.556 . S
C473 N233 1.498 . S
C487 C7 1.510 . S
C491 C238 1.512 . S
C505 C40 1.511 . S
C509 C139 1.512 . S
C523 C172 1.512 . S
C527 C73 1.511 . S
C541 C205 1.512 . S
C545 C106 1.510 . S
C559 C84 1.452 . S
C563 C183 1.453 . S
C577 C216 1.453 . S
C581 C117 1.452 . S
C595 C249 1.451 . S
C599 C18 1.453 . S
C613 C150 1.451 . S
C617 C51 1.449 . S
