# Generated by pormake.
# Topology fcn, (5)-cn, num edge types: 1
# Building blocks:
#     Node 0, Type 0, BuildingBlock: BEQFEK_clean_sbu_0, # of connection points: 5
#     Node 1, Type 0, BuildingBlock: BEQFEK_clean_sbu_0, # of connection points: 5
#     Node 2, Type 0, BuildingBlock: BEQFEK_clean_sbu_0, # of connection points: 5
#     Node 3, Type 0, BuildingBlock: BEQFEK_clean_sbu_0, # of connection points: 5
#     Node 4, Type 0, BuildingBlock: BEQFEK_clean_sbu_0, # of connection points: 5
#     Node 5, Type 0, BuildingBlock: BEQFEK_clean_sbu_0, # of connection points: 5
#     Node 6, Type 0, BuildingBlock: BEQFEK_clean_sbu_0, # of connection points: 5
#     Node 7, Type 0, BuildingBlock: BEQFEK_clean_sbu_0, # of connection points: 5
#     Node 8, Type 0, BuildingBlock: BEQFEK_clean_sbu_0, # of connection points: 5
#     Node 9, Type 0, BuildingBlock: BEQFEK_clean_sbu_0, # of connection points: 5
#     Node 10, Type 0, BuildingBlock: BEQFEK_clean_sbu_0, # of connection points: 5
#     Node 11, Type 0, BuildingBlock: BEQFEK_clean_sbu_0, # of connection points: 5
#     Node 12, Type 0, BuildingBlock: BEQFEK_clean_sbu_0, # of connection points: 5
#     Node 13, Type 0, BuildingBlock: BEQFEK_clean_sbu_0, # of connection points: 5
#     Node 14, Type 0, BuildingBlock: BEQFEK_clean_sbu_0, # of connection points: 5
#     Node 15, Type 0, BuildingBlock: BEQFEK_clean_sbu_0, # of connection points: 5
#     Node 16, Type 0, BuildingBlock: BEQFEK_clean_sbu_0, # of connection points: 5
#     Node 17, Type 0, BuildingBlock: BEQFEK_clean_sbu_0, # of connection points: 5
#     Node 18, Type 0, BuildingBlock: BEQFEK_clean_sbu_0, # of connection points: 5
#     Node 19, Type 0, BuildingBlock: BEQFEK_clean_sbu_0, # of connection points: 5
#     Node 20, Type 0, BuildingBlock: BEQFEK_clean_sbu_0, # of connection points: 5
#     Node 21, Type 0, BuildingBlock: BEQFEK_clean_sbu_0, # of connection points: 5
#     Node 22, Type 0, BuildingBlock: BEQFEK_clean_sbu_0, # of connection points: 5
#     Node 23, Type 0, BuildingBlock: BEQFEK_clean_sbu_0, # of connection points: 5
#     Node 24, Type 0, BuildingBlock: BEQFEK_clean_sbu_0, # of connection points: 5
#     Node 25, Type 0, BuildingBlock: BEQFEK_clean_sbu_0, # of connection points: 5
#     Node 26, Type 0, BuildingBlock: BEQFEK_clean_sbu_0, # of connection points: 5
#     Node 27, Type 0, BuildingBlock: BEQFEK_clean_sbu_0, # of connection points: 5
#     Node 28, Type 0, BuildingBlock: BEQFEK_clean_sbu_0, # of connection points: 5
#     Node 29, Type 0, BuildingBlock: BEQFEK_clean_sbu_0, # of connection points: 5
#     Node 30, Type 0, BuildingBlock: BEQFEK_clean_sbu_0, # of connection points: 5
#     Node 31, Type 0, BuildingBlock: BEQFEK_clean_sbu_0, # of connection points: 5
#     Node 32, Type 0, BuildingBlock: BEQFEK_clean_sbu_0, # of connection points: 5
#     Node 33, Type 0, BuildingBlock: BEQFEK_clean_sbu_0, # of connection points: 5
#     Node 34, Type 0, BuildingBlock: BEQFEK_clean_sbu_0, # of connection points: 5
#     Node 35, Type 0, BuildingBlock: BEQFEK_clean_sbu_0, # of connection points: 5
#     Node 36, Type 0, BuildingBlock: BEQFEK_clean_sbu_0, # of connection points: 5
#     Node 37, Type 0, BuildingBlock: BEQFEK_clean_sbu_0, # of connection points: 5
#     Node 38, Type 0, BuildingBlock: BEQFEK_clean_sbu_0, # of connection points: 5
#     Node 39, Type 0, BuildingBlock: BEQFEK_clean_sbu_0, # of connection points: 5
#     Node 40, Type 0, BuildingBlock: BEQFEK_clean_sbu_0, # of connection points: 5
#     Node 41, Type 0, BuildingBlock: BEQFEK_clean_sbu_0, # of connection points: 5
#     Node 42, Type 0, BuildingBlock: BEQFEK_clean_sbu_0, # of connection points: 5
#     Node 43, Type 0, BuildingBlock: BEQFEK_clean_sbu_0, # of connection points: 5
#     Node 44, Type 0, BuildingBlock: BEQFEK_clean_sbu_0, # of connection points: 5
#     Node 45, Type 0, BuildingBlock: BEQFEK_clean_sbu_0, # of connection points: 5
#     Node 46, Type 0, BuildingBlock: BEQFEK_clean_sbu_0, # of connection points: 5
#     Node 47, Type 0, BuildingBlock: BEQFEK_clean_sbu_0, # of connection points: 5
#     Edge 48, Type (0, 0), BuildingBlock: UVAHIK_clean_linker_0, # of connection points: 2
#     Edge 49, Type (0, 0), BuildingBlock: UVAHIK_clean_linker_0, # of connection points: 2
#     Edge 50, Type (0, 0), BuildingBlock: UVAHIK_clean_linker_0, # of connection points: 2
#     Edge 51, Type (0, 0), BuildingBlock: UVAHIK_clean_linker_0, # of connection points: 2
#     Edge 52, Type (0, 0), BuildingBlock: UVAHIK_clean_linker_0, # of connection points: 2
#     Edge 53, Type (0, 0), BuildingBlock: UVAHIK_clean_linker_0, # of connection points: 2
#     Edge 54, Type (0, 0), BuildingBlock: UVAHIK_clean_linker_0, # of connection points: 2
#     Edge 55, Type (0, 0), BuildingBlock: UVAHIK_clean_linker_0, # of connection points: 2
#     Edge 56, Type (0, 0), BuildingBlock: UVAHIK_clean_linker_0, # of connection points: 2
#     Edge 57, Type (0, 0), BuildingBlock: UVAHIK_clean_linker_0, # of connection points: 2
#     Edge 58, Type (0, 0), BuildingBlock: UVAHIK_clean_linker_0, # of connection points: 2
#     Edge 59, Type (0, 0), BuildingBlock: UVAHIK_clean_linker_0, # of connection points: 2
#     Edge 60, Type (0, 0), BuildingBlock: UVAHIK_clean_linker_0, # of connection points: 2
#     Edge 61, Type (0, 0), BuildingBlock: UVAHIK_clean_linker_0, # of connection points: 2
#     Edge 62, Type (0, 0), BuildingBlock: UVAHIK_clean_linker_0, # of connection points: 2
#     Edge 63, Type (0, 0), BuildingBlock: UVAHIK_clean_linker_0, # of connection points: 2
#     Edge 64, Type (0, 0), BuildingBlock: UVAHIK_clean_linker_0, # of connection points: 2
#     Edge 65, Type (0, 0), BuildingBlock: UVAHIK_clean_linker_0, # of connection points: 2
#     Edge 66, Type (0, 0), BuildingBlock: UVAHIK_clean_linker_0, # of connection points: 2
#     Edge 67, Type (0, 0), BuildingBlock: UVAHIK_clean_linker_0, # of connection points: 2
#     Edge 68, Type (0, 0), BuildingBlock: UVAHIK_clean_linker_0, # of connection points: 2
#     Edge 69, Type (0, 0), BuildingBlock: UVAHIK_clean_linker_0, # of connection points: 2
#     Edge 70, Type (0, 0), BuildingBlock: UVAHIK_clean_linker_0, # of connection points: 2
#     Edge 71, Type (0, 0), BuildingBlock: UVAHIK_clean_linker_0, # of connection points: 2
#     Edge 72, Type (0, 0), BuildingBlock: UVAHIK_clean_linker_0, # of connection points: 2
#     Edge 73, Type (0, 0), BuildingBlock: UVAHIK_clean_linker_0, # of connection points: 2
#     Edge 74, Type (0, 0), BuildingBlock: UVAHIK_clean_linker_0, # of connection points: 2
#     Edge 75, Type (0, 0), BuildingBlock: UVAHIK_clean_linker_0, # of connection points: 2
#     Edge 76, Type (0, 0), BuildingBlock: UVAHIK_clean_linker_0, # of connection points: 2
#     Edge 77, Type (0, 0), BuildingBlock: UVAHIK_clean_linker_0, # of connection points: 2
#     Edge 78, Type (0, 0), BuildingBlock: UVAHIK_clean_linker_0, # of connection points: 2
#     Edge 79, Type (0, 0), BuildingBlock: UVAHIK_clean_linker_0, # of connection points: 2
#     Edge 80, Type (0, 0), BuildingBlock: UVAHIK_clean_linker_0, # of connection points: 2
#     Edge 81, Type (0, 0), BuildingBlock: UVAHIK_clean_linker_0, # of connection points: 2
#     Edge 82, Type (0, 0), BuildingBlock: UVAHIK_clean_linker_0, # of connection points: 2
#     Edge 83, Type (0, 0), BuildingBlock: UVAHIK_clean_linker_0, # of connection points: 2
#     Edge 84, Type (0, 0), BuildingBlock: UVAHIK_clean_linker_0, # of connection points: 2
#     Edge 85, Type (0, 0), BuildingBlock: UVAHIK_clean_linker_0, # of connection points: 2
#     Edge 86, Type (0, 0), BuildingBlock: UVAHIK_clean_linker_0, # of connection points: 2
#     Edge 87, Type (0, 0), BuildingBlock: UVAHIK_clean_linker_0, # of connection points: 2
#     Edge 88, Type (0, 0), BuildingBlock: UVAHIK_clean_linker_0, # of connection points: 2
#     Edge 89, Type (0, 0), BuildingBlock: UVAHIK_clean_linker_0, # of connection points: 2
#     Edge 90, Type (0, 0), BuildingBlock: UVAHIK_clean_linker_0, # of connection points: 2
#     Edge 91, Type (0, 0), BuildingBlock: UVAHIK_clean_linker_0, # of connection points: 2
#     Edge 92, Type (0, 0), BuildingBlock: UVAHIK_clean_linker_0, # of connection points: 2
#     Edge 93, Type (0, 0), BuildingBlock: UVAHIK_clean_linker_0, # of connection points: 2
#     Edge 94, Type (0, 0), BuildingBlock: UVAHIK_clean_linker_0, # of connection points: 2
#     Edge 95, Type (0, 0), BuildingBlock: UVAHIK_clean_linker_0, # of connection points: 2
#     Edge 96, Type (0, 0), BuildingBlock: UVAHIK_clean_linker_0, # of connection points: 2
#     Edge 97, Type (0, 0), BuildingBlock: UVAHIK_clean_linker_0, # of connection points: 2
#     Edge 98, Type (0, 0), BuildingBlock: UVAHIK_clean_linker_0, # of connection points: 2
#     Edge 99, Type (0, 0), BuildingBlock: UVAHIK_clean_linker_0, # of connection points: 2
#     Edge 100, Type (0, 0), BuildingBlock: UVAHIK_clean_linker_0, # of connection points: 2
#     Edge 101, Type (0, 0), BuildingBlock: UVAHIK_clean_linker_0, # of connection points: 2
#     Edge 102, Type (0, 0), BuildingBlock: UVAHIK_clean_linker_0, # of connection points: 2
#     Edge 103, Type (0, 0), BuildingBlock: UVAHIK_clean_linker_0, # of connection points: 2
#     Edge 104, Type (0, 0), BuildingBlock: UVAHIK_clean_linker_0, # of connection points: 2
#     Edge 105, Type (0, 0), BuildingBlock: UVAHIK_clean_linker_0, # of connection points: 2
#     Edge 106, Type (0, 0), BuildingBlock: UVAHIK_clean_linker_0, # of connection points: 2
#     Edge 107, Type (0, 0), BuildingBlock: UVAHIK_clean_linker_0, # of connection points: 2
#     Edge 108, Type (0, 0), BuildingBlock: UVAHIK_clean_linker_0, # of connection points: 2
#     Edge 109, Type (0, 0), BuildingBlock: UVAHIK_clean_linker_0, # of connection points: 2
#     Edge 110, Type (0, 0), BuildingBlock: UVAHIK_clean_linker_0, # of connection points: 2
#     Edge 111, Type (0, 0), BuildingBlock: UVAHIK_clean_linker_0, # of connection points: 2
#     Edge 112, Type (0, 0), BuildingBlock: UVAHIK_clean_linker_0, # of connection points: 2
#     Edge 113, Type (0, 0), BuildingBlock: UVAHIK_clean_linker_0, # of connection points: 2
#     Edge 114, Type (0, 0), BuildingBlock: UVAHIK_clean_linker_0, # of connection points: 2
#     Edge 115, Type (0, 0), BuildingBlock: UVAHIK_clean_linker_0, # of connection points: 2
#     Edge 116, Type (0, 0), BuildingBlock: UVAHIK_clean_linker_0, # of connection points: 2
#     Edge 117, Type (0, 0), BuildingBlock: UVAHIK_clean_linker_0, # of connection points: 2
#     Edge 118, Type (0, 0), BuildingBlock: UVAHIK_clean_linker_0, # of connection points: 2
#     Edge 119, Type (0, 0), BuildingBlock: UVAHIK_clean_linker_0, # of connection points: 2
#     Edge 120, Type (0, 0), BuildingBlock: UVAHIK_clean_linker_0, # of connection points: 2
#     Edge 121, Type (0, 0), BuildingBlock: UVAHIK_clean_linker_0, # of connection points: 2
#     Edge 122, Type (0, 0), BuildingBlock: UVAHIK_clean_linker_0, # of connection points: 2
#     Edge 123, Type (0, 0), BuildingBlock: UVAHIK_clean_linker_0, # of connection points: 2
#     Edge 124, Type (0, 0), BuildingBlock: UVAHIK_clean_linker_0, # of connection points: 2
#     Edge 125, Type (0, 0), BuildingBlock: UVAHIK_clean_linker_0, # of connection points: 2
#     Edge 126, Type (0, 0), BuildingBlock: UVAHIK_clean_linker_0, # of connection points: 2
#     Edge 127, Type (0, 0), BuildingBlock: UVAHIK_clean_linker_0, # of connection points: 2
#     Edge 128, Type (0, 0), BuildingBlock: UVAHIK_clean_linker_0, # of connection points: 2
#     Edge 129, Type (0, 0), BuildingBlock: UVAHIK_clean_linker_0, # of connection points: 2
#     Edge 130, Type (0, 0), BuildingBlock: UVAHIK_clean_linker_0, # of connection points: 2
#     Edge 131, Type (0, 0), BuildingBlock: UVAHIK_clean_linker_0, # of connection points: 2
#     Edge 132, Type (0, 0), BuildingBlock: UVAHIK_clean_linker_0, # of connection points: 2
#     Edge 133, Type (0, 0), BuildingBlock: UVAHIK_clean_linker_0, # of connection points: 2
#     Edge 134, Type (0, 0), BuildingBlock: UVAHIK_clean_linker_0, # of connection points: 2
#     Edge 135, Type (0, 0), BuildingBlock: UVAHIK_clean_linker_0, # of connection points: 2
#     Edge 136, Type (0, 0), BuildingBlock: UVAHIK_clean_linker_0, # of connection points: 2
#     Edge 137, Type (0, 0), BuildingBlock: UVAHIK_clean_linker_0, # of connection points: 2
#     Edge 138, Type (0, 0), BuildingBlock: UVAHIK_clean_linker_0, # of connection points: 2
#     Edge 139, Type (0, 0), BuildingBlock: UVAHIK_clean_linker_0, # of connection points: 2
#     Edge 140, Type (0, 0), BuildingBlock: UVAHIK_clean_linker_0, # of connection points: 2
#     Edge 141, Type (0, 0), BuildingBlock: UVAHIK_clean_linker_0, # of connection points: 2
#     Edge 142, Type (0, 0), BuildingBlock: UVAHIK_clean_linker_0, # of connection points: 2
#     Edge 143, Type (0, 0), BuildingBlock: UVAHIK_clean_linker_0, # of connection points: 2
#     Edge 144, Type (0, 0), BuildingBlock: UVAHIK_clean_linker_0, # of connection points: 2
#     Edge 145, Type (0, 0), BuildingBlock: UVAHIK_clean_linker_0, # of connection points: 2
#     Edge 146, Type (0, 0), BuildingBlock: UVAHIK_clean_linker_0, # of connection points: 2
#     Edge 147, Type (0, 0), BuildingBlock: UVAHIK_clean_linker_0, # of connection points: 2
#     Edge 148, Type (0, 0), BuildingBlock: UVAHIK_clean_linker_0, # of connection points: 2
#     Edge 149, Type (0, 0), BuildingBlock: UVAHIK_clean_linker_0, # of connection points: 2
#     Edge 150, Type (0, 0), BuildingBlock: UVAHIK_clean_linker_0, # of connection points: 2
#     Edge 151, Type (0, 0), BuildingBlock: UVAHIK_clean_linker_0, # of connection points: 2
#     Edge 152, Type (0, 0), BuildingBlock: UVAHIK_clean_linker_0, # of connection points: 2
#     Edge 153, Type (0, 0), BuildingBlock: UVAHIK_clean_linker_0, # of connection points: 2
#     Edge 154, Type (0, 0), BuildingBlock: UVAHIK_clean_linker_0, # of connection points: 2
#     Edge 155, Type (0, 0), BuildingBlock: UVAHIK_clean_linker_0, # of connection points: 2
#     Edge 156, Type (0, 0), BuildingBlock: UVAHIK_clean_linker_0, # of connection points: 2
#     Edge 157, Type (0, 0), BuildingBlock: UVAHIK_clean_linker_0, # of connection points: 2
#     Edge 158, Type (0, 0), BuildingBlock: UVAHIK_clean_linker_0, # of connection points: 2
#     Edge 159, Type (0, 0), BuildingBlock: UVAHIK_clean_linker_0, # of connection points: 2
#     Edge 160, Type (0, 0), BuildingBlock: UVAHIK_clean_linker_0, # of connection points: 2
#     Edge 161, Type (0, 0), BuildingBlock: UVAHIK_clean_linker_0, # of connection points: 2
#     Edge 162, Type (0, 0), BuildingBlock: UVAHIK_clean_linker_0, # of connection points: 2
#     Edge 163, Type (0, 0), BuildingBlock: UVAHIK_clean_linker_0, # of connection points: 2
#     Edge 164, Type (0, 0), BuildingBlock: UVAHIK_clean_linker_0, # of connection points: 2
#     Edge 165, Type (0, 0), BuildingBlock: UVAHIK_clean_linker_0, # of connection points: 2
#     Edge 166, Type (0, 0), BuildingBlock: UVAHIK_clean_linker_0, # of connection points: 2
#     Edge 167, Type (0, 0), BuildingBlock: UVAHIK_clean_linker_0, # of connection points: 2
# Relax obj value: 0.475
# Max RMSD: 0.192
# Mean RMSD: 0.192
data_MOF--net-fcn--node1-BEQFEK_clean_sbu_0--edge1-UVAHIK_clean_linker_0
_symmetry_space_group_name_H-M    P1
_symmetry_Int_Tables_number       1
_symmetry_cell_setting            triclinic
loop_
_symmetry_equiv_pos_as_xyz
'x, y, z'
_cell_length_a     91.085339
_cell_length_b     91.101362
_cell_length_c     91.127893
_cell_angle_alpha  90.002037
_cell_angle_beta   89.997218
_cell_angle_gamma 89.990555
loop_
_atom_site_label
_atom_site_type_symbol
_atom_site_fract_x
_atom_site_fract_y
_atom_site_fract_z
_atom_type_partial_charge
Co0 Co 0.07967 0.18759 0.2993 0.0
Co1 Co 0.10355 0.16996 0.28211 0.0
C2 C 0.10009 0.16727 0.31473 0.0
O3 O 0.08962 0.17652 0.31521 0.0
O4 O 0.10607 0.1637 0.30262 0.0
C5 C 0.05639 0.1968 0.31763 0.0
O6 O 0.05646 0.18286 0.32133 0.0
C7 C 0.13304 0.15931 0.27489 0.0
C8 C 0.13002 0.15109 0.25228 0.0
C9 C 0.14038 0.15265 0.26331 0.0
N10 N 0.11901 0.1615 0.27088 0.0
N11 N 0.11726 0.15649 0.25739 0.0
C12 C 0.13941 0.16456 0.28908 0.0
H13 H 0.13266 0.17361 0.29368 0.0
H14 H 0.15087 0.16837 0.28748 0.0
H15 H 0.1395 0.15537 0.29704 0.0
C16 C 0.09488 0.21241 0.28444 0.0
N17 N 0.09361 0.19808 0.28788 0.0
N18 N 0.10387 0.19065 0.28093 0.0
C19 C 0.11208 0.2 0.27299 0.0
C20 C 0.10673 0.21411 0.27502 0.0
C21 C 0.08447 0.22406 0.28949 0.0
H22 H 0.07328 0.22148 0.28543 0.0
H23 H 0.08406 0.22408 0.30166 0.0
H24 H 0.08782 0.23508 0.28553 0.0
O25 O 0.06784 0.17434 0.28657 0.0
O26 O 0.08493 0.16253 0.27386 0.0
H27 H 0.11909 0.18682 0.25486 0.0
H28 H 0.12785 0.20453 0.25564 0.0
C29 C 0.12367 0.19526 0.26232 0.0
H30 H 0.13295 0.1903 0.26843 0.0
H31 H 0.10735 0.15686 0.25163 0.0
O32 O 0.06575 0.20142 0.30839 0.0
C33 C 0.07151 0.16514 0.27671 0.0
Co34 Co 0.06625 0.82491 0.54588 0.0
Co35 Co 0.08386 0.85022 0.53085 0.0
C36 C 0.08407 0.84568 0.56348 0.0
O37 O 0.07578 0.83446 0.56301 0.0
O38 O 0.08794 0.85245 0.55192 0.0
C39 C 0.04465 0.8111 0.5646 0.0
O40 O 0.04465 0.82353 0.57192 0.0
C41 C 0.09205 0.88086 0.52484 0.0
C42 C 0.10734 0.87816 0.5062 0.0
C43 C 0.10131 0.88856 0.51552 0.0
N44 N 0.0926 0.86657 0.52117 0.0
N45 N 0.10169 0.86506 0.50997 0.0
C46 C 0.08375 0.88674 0.53775 0.0
H47 H 0.0788 0.87772 0.54422 0.0
H48 H 0.07476 0.89399 0.53391 0.0
H49 H 0.09116 0.89338 0.54477 0.0
C50 C 0.04174 0.83976 0.52976 0.0
N51 N 0.05588 0.83886 0.53412 0.0
N52 N 0.06339 0.84948 0.52782 0.0
C53 C 0.05433 0.85746 0.51931 0.0
C54 C 0.0403 0.8517 0.52041 0.0
C55 C 0.03001 0.82913 0.53409 0.0
H56 H 0.02791 0.83018 0.54603 0.0
H57 H 0.01961 0.83119 0.5281 0.0
H58 H 0.0338 0.81776 0.53193 0.0
O59 O 0.08091 0.81428 0.53371 0.0
O60 O 0.09299 0.83229 0.52265 0.0
H61 H 0.05109 0.87138 0.50026 0.0
H62 H 0.06112 0.87952 0.51519 0.0
C63 C 0.05932 0.86923 0.50897 0.0
H64 H 0.06981 0.86598 0.50372 0.0
H65 H 0.1043 0.85501 0.50511 0.0
O66 O 0.05275 0.80975 0.55334 0.0
C67 C 0.09072 0.81868 0.52479 0.0
Co68 Co 0.41896 0.81078 0.80052 0.0
Co69 Co 0.39638 0.83123 0.78472 0.0
C70 C 0.39919 0.83027 0.81757 0.0
O71 O 0.40929 0.82062 0.81742 0.0
O72 O 0.39373 0.83522 0.80573 0.0
C73 C 0.44142 0.79936 0.81825 0.0
O74 O 0.44139 0.81295 0.82309 0.0
C75 C 0.36678 0.84193 0.77758 0.0
C76 C 0.37139 0.85718 0.75929 0.0
C77 C 0.36014 0.85177 0.768 0.0
N78 N 0.38124 0.84155 0.77459 0.0
N79 N 0.3839 0.85065 0.76362 0.0
C80 C 0.35974 0.8338 0.79 0.0
H81 H 0.3681 0.82937 0.79763 0.0
H82 H 0.35339 0.82439 0.78564 0.0
H83 H 0.35204 0.8411 0.796 0.0
C84 C 0.40291 0.78827 0.78313 0.0
N85 N 0.40482 0.80216 0.78787 0.0
N86 N 0.39541 0.81079 0.7811 0.0
C87 C 0.38726 0.8027 0.77181 0.0
C88 C 0.39161 0.78815 0.77293 0.0
C89 C 0.41217 0.77557 0.78787 0.0
H90 H 0.41247 0.7751 0.80003 0.0
H91 H 0.40789 0.76504 0.78349 0.0
H92 H 0.42358 0.77725 0.78395 0.0
O93 O 0.43152 0.82463 0.78919 0.0
O94 O 0.41543 0.83904 0.77792 0.0
H95 H 0.38132 0.81939 0.75627 0.0
H96 H 0.3749 0.80128 0.75152 0.0
C97 C 0.37686 0.809 0.76074 0.0
H98 H 0.36621 0.81133 0.76613 0.0
H99 H 0.39432 0.85259 0.75926 0.0
O100 O 0.43225 0.79566 0.80842 0.0
C101 C 0.42862 0.83527 0.78058 0.0
Co102 Co 0.43465 0.17014 0.04846 0.0
Co103 Co 0.4149 0.14616 0.03403 0.0
C104 C 0.4153 0.15119 0.06656 0.0
O105 O 0.42449 0.16166 0.06573 0.0
O106 O 0.41079 0.14452 0.05516 0.0
C107 C 0.4456 0.19364 0.06513 0.0
O108 O 0.43193 0.19385 0.06975 0.0
C109 C 0.40524 0.11601 0.02817 0.0
C110 C 0.38947 0.11936 0.01004 0.0
C111 C 0.39553 0.10867 0.019 0.0
N112 N 0.40495 0.13035 0.0247 0.0
N113 N 0.39554 0.13227 0.01383 0.0
C114 C 0.41383 0.10974 0.0407 0.0
H115 H 0.41821 0.11856 0.04782 0.0
H116 H 0.42326 0.10336 0.03642 0.0
H117 H 0.40683 0.10217 0.0472 0.0
C118 C 0.45769 0.15348 0.0324 0.0
N119 N 0.44373 0.1553 0.03694 0.0
N120 N 0.43537 0.14536 0.0306 0.0
C121 C 0.44371 0.13699 0.02172 0.0
C122 C 0.45816 0.14173 0.02271 0.0
C123 C 0.47012 0.16329 0.03673 0.0
H124 H 0.47032 0.16448 0.04885 0.0
H125 H 0.48083 0.1589 0.03292 0.0
H126 H 0.46834 0.17435 0.03195 0.0
O127 O 0.42093 0.18174 0.03609 0.0
O128 O 0.40686 0.16466 0.02595 0.0
H129 H 0.44533 0.12443 0.00158 0.0
H130 H 0.43601 0.11547 0.01647 0.0
C131 C 0.4377 0.12615 0.01091 0.0
H132 H 0.42703 0.13004 0.00656 0.0
H133 H 0.39309 0.14244 0.00916 0.0
O134 O 0.44947 0.18401 0.05583 0.0
C135 C 0.41043 0.17807 0.02762 0.0
Co136 Co 0.07806 0.81122 0.19996 0.0
Co137 Co 0.10168 0.82879 0.21748 0.0
C138 C 0.09853 0.83169 0.18486 0.0
O139 O 0.08808 0.82243 0.18421 0.0
O140 O 0.10439 0.83517 0.19704 0.0
C141 C 0.05473 0.80243 0.18166 0.0
O142 O 0.05472 0.8165 0.17851 0.0
C143 C 0.13126 0.83875 0.22495 0.0
C144 C 0.12812 0.84773 0.24725 0.0
C145 C 0.13863 0.84546 0.23647 0.0
N146 N 0.11709 0.83721 0.22875 0.0
N147 N 0.11526 0.84267 0.24205 0.0
C148 C 0.13763 0.83284 0.21102 0.0
H149 H 0.13057 0.82398 0.20654 0.0
H150 H 0.14889 0.82857 0.21292 0.0
H151 H 0.13824 0.8418 0.2028 0.0
C152 C 0.09344 0.78628 0.21451 0.0
N153 N 0.09197 0.80066 0.21138 0.0
N154 N 0.10205 0.80809 0.21857 0.0
C155 C 0.1103 0.7987 0.22645 0.0
C156 C 0.10521 0.78455 0.22402 0.0
C157 C 0.08339 0.77456 0.20891 0.0
H158 H 0.08299 0.77507 0.19675 0.0
H159 H 0.08706 0.76348 0.2124 0.0
H160 H 0.07212 0.77663 0.21306 0.0
O161 O 0.06608 0.82436 0.21272 0.0
O162 O 0.08303 0.83617 0.22562 0.0
H163 H 0.12518 0.79418 0.24454 0.0
H164 H 0.13141 0.80762 0.23143 0.0
C165 C 0.12168 0.80336 0.23736 0.0
H166 H 0.11724 0.81228 0.24433 0.0
H167 H 0.10525 0.84282 0.24763 0.0
O168 O 0.06421 0.7975 0.19063 0.0
C169 C 0.06964 0.83354 0.22264 0.0
Co170 Co 0.43525 0.82935 0.4482 0.0
Co171 Co 0.41523 0.853 0.46286 0.0
C172 C 0.41688 0.84931 0.43014 0.0
O173 O 0.42616 0.83889 0.4308 0.0
O174 O 0.41184 0.85524 0.44172 0.0
C175 C 0.44635 0.80595 0.43149 0.0
O176 O 0.43273 0.80587 0.42672 0.0
C177 C 0.40514 0.88302 0.46895 0.0
C178 C 0.38914 0.87923 0.48678 0.0
C179 C 0.3951 0.89011 0.47797 0.0
N180 N 0.40509 0.86864 0.47233 0.0
N181 N 0.39556 0.86648 0.48304 0.0
C182 C 0.41389 0.88953 0.45665 0.0
H183 H 0.41838 0.88088 0.44941 0.0
H184 H 0.42329 0.89576 0.46121 0.0
H185 H 0.407 0.89724 0.45021 0.0
C186 C 0.45781 0.84495 0.46596 0.0
N187 N 0.44405 0.84353 0.46073 0.0
N188 N 0.43557 0.85341 0.467 0.0
C189 C 0.44363 0.86138 0.47647 0.0
C190 C 0.45803 0.85642 0.476 0.0
C191 C 0.47028 0.83508 0.46187 0.0
H192 H 0.47108 0.83436 0.44974 0.0
H193 H 0.48085 0.8391 0.46641 0.0
H194 H 0.46805 0.82387 0.4661 0.0
O195 O 0.42076 0.81747 0.45953 0.0
O196 O 0.40674 0.83442 0.46999 0.0
H197 H 0.44472 0.874 0.49664 0.0
H198 H 0.43542 0.88275 0.48157 0.0
C199 C 0.43729 0.87212 0.48719 0.0
H200 H 0.42662 0.86803 0.49137 0.0
H201 H 0.39321 0.85623 0.48758 0.0
O202 O 0.45016 0.81549 0.44092 0.0
C203 C 0.41007 0.82102 0.46784 0.0
Co204 Co 0.41891 0.18612 0.69842 0.0
Co205 Co 0.39452 0.16717 0.71344 0.0
C206 C 0.39963 0.16643 0.68095 0.0
O207 O 0.41018 0.17555 0.68155 0.0
O208 O 0.39285 0.16232 0.69243 0.0
C209 C 0.44228 0.1966 0.68105 0.0
O210 O 0.44231 0.18289 0.67659 0.0
C211 C 0.3646 0.15654 0.71984 0.0
C212 C 0.36872 0.14244 0.73913 0.0
C213 C 0.35779 0.14701 0.72961 0.0
N214 N 0.37889 0.15749 0.72347 0.0
N215 N 0.38124 0.14911 0.73507 0.0
C216 C 0.35796 0.16382 0.70669 0.0
H217 H 0.36657 0.16824 0.69935 0.0
H218 H 0.351 0.17312 0.7103 0.0
H219 H 0.3509 0.15593 0.70064 0.0
C220 C 0.40272 0.20975 0.71412 0.0
N221 N 0.4042 0.19568 0.70979 0.0
N222 N 0.39397 0.1877 0.71614 0.0
C223 C 0.3857 0.19639 0.72477 0.0
C224 C 0.39088 0.21069 0.72368 0.0
C225 C 0.41291 0.22184 0.7097 0.0
H226 H 0.42393 0.21972 0.71446 0.0
H227 H 0.41407 0.22194 0.69759 0.0
H228 H 0.40888 0.2327 0.71346 0.0
O229 O 0.43049 0.17248 0.71093 0.0
O230 O 0.41301 0.15941 0.72173 0.0
H231 H 0.3786 0.18067 0.74078 0.0
H232 H 0.37176 0.19895 0.74395 0.0
C233 C 0.37447 0.19075 0.73537 0.0
H234 H 0.3643 0.18794 0.72931 0.0
H235 H 0.39148 0.14768 0.74 0.0
O236 O 0.43286 0.20064 0.69051 0.0
C237 C 0.42651 0.16247 0.71983 0.0
Co238 Co 0.06611 0.17106 0.95152 0.0
Co239 Co 0.08407 0.14517 0.96497 0.0
C240 C 0.08387 0.1514 0.9326 0.0
O241 O 0.07539 0.16242 0.93387 0.0
O242 O 0.088 0.14407 0.94373 0.0
C243 C 0.04475 0.1855 0.9333 0.0
O244 O 0.04507 0.17339 0.92549 0.0
C245 C 0.0919 0.11422 0.96944 0.0
C246 C 0.10794 0.11586 0.98756 0.0
C247 C 0.1013 0.10596 0.97812 0.0
N248 N 0.09295 0.12835 0.9736 0.0
N249 N 0.10251 0.12924 0.98447 0.0
C250 C 0.08292 0.10902 0.9567 0.0
H251 H 0.07873 0.1184 0.9502 0.0
H252 H 0.07336 0.10268 0.96074 0.0
H253 H 0.08958 0.10166 0.94963 0.0
C254 C 0.04204 0.15575 0.96767 0.0
N255 N 0.056 0.15661 0.9628 0.0
N256 N 0.06364 0.14576 0.96855 0.0
C257 C 0.05485 0.13773 0.97729 0.0
C258 C 0.04083 0.14366 0.97688 0.0
C259 C 0.03031 0.16665 0.96403 0.0
H260 H 0.0284 0.16656 0.95202 0.0
H261 H 0.01983 0.1641 0.96968 0.0
H262 H 0.03404 0.17782 0.96713 0.0
O263 O 0.08104 0.18113 0.96384 0.0
O264 O 0.09342 0.16267 0.97381 0.0
H265 H 0.05245 0.12401 0.99661 0.0
H266 H 0.06147 0.11558 0.98121 0.0
C267 C 0.06021 0.12595 0.98744 0.0
H268 H 0.07102 0.12904 0.99207 0.0
H269 H 0.10554 0.13903 0.9896 0.0
O270 O 0.05254 0.18647 0.94482 0.0
C271 C 0.09109 0.17636 0.9723 0.0
Co272 Co 0.29714 0.07545 0.1826 0.0
Co273 Co 0.28135 0.10195 0.16759 0.0
C274 C 0.31393 0.09842 0.1664 0.0
O275 O 0.31371 0.08642 0.17356 0.0
O276 O 0.30223 0.10538 0.16334 0.0
C277 C 0.31717 0.06018 0.20191 0.0
O278 O 0.32454 0.07257 0.20227 0.0
C279 C 0.27468 0.13258 0.1602 0.0
C280 C 0.25227 0.13069 0.15112 0.0
C281 C 0.26332 0.14072 0.15412 0.0
N282 N 0.27053 0.11843 0.1607 0.0
N283 N 0.25715 0.11737 0.15519 0.0
C284 C 0.28883 0.13815 0.16641 0.0
H285 H 0.29279 0.13071 0.17522 0.0
H286 H 0.28747 0.14941 0.17086 0.0
H287 H 0.29721 0.13842 0.15758 0.0
C288 C 0.28106 0.08761 0.20857 0.0
N289 N 0.28524 0.08805 0.19437 0.0
N290 N 0.27887 0.09935 0.18798 0.0
C291 C 0.27068 0.10657 0.19791 0.0
C292 C 0.27187 0.09945 0.21129 0.0
C293 C 0.28538 0.07581 0.21912 0.0
H294 H 0.28323 0.0649 0.21414 0.0
H295 H 0.29733 0.07661 0.22131 0.0
H296 H 0.27934 0.07679 0.22965 0.0
O297 O 0.28502 0.06581 0.16734 0.0
O298 O 0.27359 0.08463 0.15698 0.0
H299 H 0.25337 0.11602 0.18516 0.0
H300 H 0.25399 0.12261 0.20379 0.0
C301 C 0.26077 0.11919 0.19428 0.0
H302 H 0.2675 0.12865 0.19064 0.0
H303 H 0.25133 0.10754 0.15429 0.0
O304 O 0.30536 0.05941 0.19455 0.0
C305 C 0.27597 0.07091 0.158 0.0
Co306 Co 0.17157 0.04732 0.43323 0.0
Co307 Co 0.1471 0.03154 0.41505 0.0
C308 C 0.15128 0.06433 0.41439 0.0
O309 O 0.16187 0.0642 0.4235 0.0
O310 O 0.14517 0.0525 0.4102 0.0
C311 C 0.18641 0.06715 0.45337 0.0
O312 O 0.17497 0.07582 0.45193 0.0
C313 C 0.11688 0.02526 0.40527 0.0
C314 C 0.12049 0.00581 0.39124 0.0
C315 C 0.10975 0.0155 0.39596 0.0
N316 N 0.13115 0.02148 0.40595 0.0
N317 N 0.13318 0.00978 0.39763 0.0
C318 C 0.11052 0.03854 0.41257 0.0
H319 H 0.11927 0.04575 0.41692 0.0
H320 H 0.10357 0.03507 0.42194 0.0
H321 H 0.1035 0.04469 0.40474 0.0
C322 C 0.1564 0.03131 0.45744 0.0
N323 N 0.15756 0.03551 0.44331 0.0
N324 N 0.14721 0.02897 0.43561 0.0
C325 C 0.13916 0.02044 0.44457 0.0
C326 C 0.1446 0.02174 0.45873 0.0
C327 C 0.16672 0.03601 0.46931 0.0
H328 H 0.17803 0.0325 0.46645 0.0
H329 H 0.16668 0.04816 0.47007 0.0
H330 H 0.16359 0.03132 0.48011 0.0
O331 O 0.18268 0.03524 0.41883 0.0
O332 O 0.1653 0.02329 0.40669 0.0
H333 H 0.13157 0.00421 0.4293 0.0
H334 H 0.12498 0.00153 0.44776 0.0
C335 C 0.12768 0.00989 0.43933 0.0
H336 H 0.11756 0.01605 0.43656 0.0
H337 H 0.14334 0.00473 0.396 0.0
O338 O 0.18662 0.05485 0.44683 0.0
C339 C 0.17878 0.02593 0.40917 0.0
Co340 Co 0.19951 0.92165 0.6844 0.0
Co341 Co 0.21525 0.89636 0.66744 0.0
C342 C 0.18276 0.89985 0.66638 0.0
O343 O 0.18311 0.91125 0.67445 0.0
O344 O 0.19443 0.89305 0.66285 0.0
C345 C 0.18041 0.93451 0.70624 0.0
O346 O 0.17519 0.92119 0.70802 0.0
C347 C 0.22268 0.86639 0.65816 0.0
C348 C 0.24484 0.86957 0.6488 0.0
C349 C 0.23423 0.859 0.65149 0.0
N350 N 0.22634 0.88064 0.65932 0.0
N351 N 0.23955 0.88248 0.65362 0.0
C352 C 0.20889 0.85999 0.66434 0.0
H353 H 0.20453 0.86707 0.67325 0.0
H354 H 0.2109 0.84876 0.66862 0.0
H355 H 0.20052 0.85932 0.65552 0.0
C356 C 0.21634 0.90829 0.70923 0.0
N357 N 0.21157 0.90842 0.69522 0.0
N358 N 0.2179 0.89759 0.68803 0.0
C359 C 0.22664 0.89008 0.69727 0.0
C360 C 0.22588 0.89654 0.71103 0.0
C361 C 0.21248 0.91967 0.72043 0.0
H362 H 0.21326 0.93076 0.71547 0.0
H363 H 0.20098 0.91794 0.72403 0.0
H364 H 0.21971 0.919 0.7302 0.0
O365 O 0.21174 0.93247 0.6701 0.0
O366 O 0.22265 0.91447 0.65791 0.0
H367 H 0.24393 0.88214 0.6835 0.0
H368 H 0.24405 0.87431 0.70163 0.0
C369 C 0.23689 0.87811 0.69256 0.0
H370 H 0.23041 0.86867 0.68845 0.0
H371 H 0.245 0.89254 0.65315 0.0
O372 O 0.19077 0.93673 0.69718 0.0
C373 C 0.22051 0.92809 0.66016 0.0
Co374 Co 0.32633 0.94889 0.935 0.0
Co375 Co 0.35009 0.96485 0.9161 0.0
C376 C 0.347 0.93204 0.91617 0.0
O377 O 0.33643 0.93217 0.92532 0.0
O378 O 0.35283 0.9439 0.91166 0.0
C379 C 0.31336 0.92994 0.95736 0.0
O380 O 0.32585 0.92274 0.95753 0.0
C381 C 0.37949 0.97235 0.90471 0.0
C382 C 0.3742 0.99159 0.89091 0.0
C383 C 0.38555 0.98232 0.89492 0.0
N384 N 0.36516 0.97558 0.90634 0.0
N385 N 0.36214 0.98719 0.89818 0.0
C386 C 0.38682 0.95926 0.91137 0.0
H387 H 0.37902 0.95292 0.91823 0.0
H388 H 0.39612 0.96286 0.91834 0.0
H389 H 0.39133 0.95217 0.90255 0.0
C390 C 0.34145 0.96592 0.9586 0.0
N391 N 0.34017 0.96132 0.9446 0.0
N392 N 0.35033 0.96781 0.9366 0.0
C393 C 0.35842 0.97664 0.94523 0.0
C394 C 0.35314 0.97566 0.95948 0.0
C395 C 0.33137 0.9614 0.97075 0.0
H396 H 0.31982 0.96341 0.96744 0.0
H397 H 0.33267 0.94946 0.97273 0.0
H398 H 0.33378 0.96735 0.98109 0.0
O399 O 0.31443 0.96046 0.9208 0.0
O400 O 0.33144 0.97229 0.90808 0.0
H401 H 0.36552 0.99301 0.92993 0.0
H402 H 0.37327 0.9951 0.94802 0.0
C403 C 0.36986 0.98702 0.93959 0.0
H404 H 0.37961 0.98065 0.93604 0.0
H405 H 0.35171 0.99182 0.89719 0.0
O406 O 0.31187 0.94104 0.94904 0.0
C407 C 0.31804 0.96961 0.91089 0.0
Co408 Co 0.2995 0.92123 0.31295 0.0
Co409 Co 0.28451 0.89627 0.33101 0.0
C410 C 0.31719 0.90001 0.33043 0.0
O411 O 0.31666 0.91103 0.32185 0.0
O412 O 0.30555 0.89369 0.33485 0.0
C413 C 0.31858 0.93568 0.29189 0.0
O414 O 0.32668 0.92375 0.29237 0.0
C415 C 0.278 0.86625 0.34101 0.0
C416 C 0.259 0.87025 0.35557 0.0
C417 C 0.26846 0.85942 0.35069 0.0
N418 N 0.27435 0.88054 0.34025 0.0
N419 N 0.26289 0.88281 0.34886 0.0
C420 C 0.29115 0.85968 0.33371 0.0
H421 H 0.29642 0.86771 0.32623 0.0
H422 H 0.28789 0.84984 0.32734 0.0
H423 H 0.29913 0.85611 0.34219 0.0
C424 C 0.28237 0.90675 0.28898 0.0
N425 N 0.28716 0.90758 0.30296 0.0
N426 N 0.2811 0.89693 0.31062 0.0
C427 C 0.27239 0.88893 0.30179 0.0
C428 C 0.273 0.89479 0.28776 0.0
C429 C 0.28636 0.91747 0.27721 0.0
H430 H 0.28372 0.92876 0.28095 0.0
H431 H 0.29837 0.91694 0.27524 0.0
H432 H 0.2805 0.91511 0.2668 0.0
O433 O 0.28801 0.93224 0.32794 0.0
O434 O 0.277 0.91434 0.34017 0.0
H435 H 0.25658 0.88053 0.31704 0.0
H436 H 0.25437 0.87361 0.29863 0.0
C437 C 0.26252 0.87688 0.30706 0.0
H438 H 0.26927 0.86719 0.30998 0.0
H439 H 0.25802 0.89304 0.35053 0.0
O440 O 0.30682 0.93635 0.29935 0.0
C441 C 0.27927 0.92793 0.33795 0.0
Co442 Co 0.32576 0.04801 0.56279 0.0
Co443 Co 0.35128 0.03159 0.57884 0.0
C444 C 0.34842 0.06416 0.58015 0.0
O445 O 0.33666 0.06419 0.57259 0.0
O446 O 0.35512 0.05233 0.58331 0.0
C447 C 0.31123 0.06831 0.54289 0.0
O448 O 0.32371 0.07553 0.5425 0.0
C449 C 0.38126 0.02362 0.58783 0.0
C450 C 0.37789 0.00108 0.59616 0.0
C451 C 0.38853 0.01175 0.59407 0.0
N452 N 0.367 0.02008 0.58636 0.0
N453 N 0.36506 0.00663 0.59143 0.0
C454 C 0.38776 0.03769 0.58242 0.0
H455 H 0.38111 0.04214 0.57324 0.0
H456 H 0.39925 0.03601 0.57873 0.0
H457 H 0.38771 0.04583 0.59147 0.0
C458 C 0.33866 0.03202 0.53724 0.0
N459 N 0.33861 0.03603 0.55149 0.0
N460 N 0.34943 0.02928 0.5583 0.0
C461 C 0.35685 0.02098 0.54859 0.0
C462 C 0.35034 0.02251 0.53492 0.0
C463 C 0.32747 0.03685 0.52625 0.0
H464 H 0.31629 0.03473 0.53061 0.0
H465 H 0.32856 0.04884 0.52448 0.0
H466 H 0.32889 0.03115 0.51559 0.0
O467 O 0.31523 0.03577 0.57728 0.0
O468 O 0.33335 0.02443 0.58886 0.0
H469 H 0.36514 0.00321 0.56149 0.0
H470 H 0.37272 0.00394 0.54326 0.0
C471 C 0.36899 0.01067 0.55268 0.0
H472 H 0.37841 0.01706 0.55696 0.0
H473 H 0.35496 0.00121 0.59158 0.0
O474 O 0.31026 0.05661 0.5504 0.0
C475 C 0.31971 0.02683 0.58702 0.0
Co476 Co 0.19893 0.07468 0.81456 0.0
Co477 Co 0.21565 0.10009 0.83035 0.0
C478 C 0.18306 0.09844 0.83084 0.0
O479 O 0.18291 0.08654 0.82353 0.0
O480 O 0.195 0.10482 0.83424 0.0
C481 C 0.18031 0.06146 0.79231 0.0
O482 O 0.1768 0.07489 0.78842 0.0
C483 C 0.22433 0.12971 0.8398 0.0
C484 C 0.24527 0.12501 0.85114 0.0
C485 C 0.2354 0.13613 0.84803 0.0
N486 N 0.22752 0.1154 0.83816 0.0
N487 N 0.24013 0.11271 0.84482 0.0
C488 C 0.21023 0.13658 0.83495 0.0
H489 H 0.20198 0.13535 0.84382 0.0
H490 H 0.20604 0.13095 0.82499 0.0
H491 H 0.21166 0.14846 0.8327 0.0
C492 C 0.21686 0.08616 0.78926 0.0
N493 N 0.21199 0.08668 0.80326 0.0
N494 N 0.2185 0.0977 0.81 0.0
C495 C 0.22732 0.10475 0.8005 0.0
C496 C 0.22651 0.09775 0.78703 0.0
C497 C 0.21287 0.07449 0.77843 0.0
H498 H 0.21178 0.06375 0.78406 0.0
H499 H 0.20217 0.07729 0.77334 0.0
H500 H 0.22117 0.07364 0.76957 0.0
O501 O 0.21005 0.06395 0.82983 0.0
O502 O 0.22194 0.0821 0.84079 0.0
H503 H 0.24464 0.11347 0.81371 0.0
H504 H 0.24423 0.12079 0.79534 0.0
C505 C 0.23735 0.11709 0.80467 0.0
H506 H 0.23071 0.12646 0.80869 0.0
H507 H 0.24497 0.10234 0.84549 0.0
O508 O 0.1895 0.05936 0.80257 0.0
C509 C 0.21902 0.06851 0.83951 0.0
Co510 Co 0.16876 0.95014 0.06249 0.0
Co511 Co 0.14426 0.96655 0.08008 0.0
C512 C 0.14891 0.93402 0.0827 0.0
O513 O 0.15945 0.93383 0.07353 0.0
O514 O 0.14254 0.94593 0.08619 0.0
C515 C 0.19276 0.93275 0.05327 0.0
O516 O 0.19301 0.92927 0.06726 0.0
C517 C 0.11423 0.97338 0.09004 0.0
C518 C 0.11811 0.99351 0.10301 0.0
C519 C 0.1073 0.9836 0.09899 0.0
N520 N 0.12848 0.97711 0.08889 0.0
N521 N 0.13068 0.98921 0.09657 0.0
C522 C 0.10774 0.95972 0.08362 0.0
H523 H 0.1164 0.95239 0.07927 0.0
H524 H 0.10037 0.96269 0.07441 0.0
H525 H 0.1011 0.95389 0.09201 0.0
C526 C 0.15301 0.96442 0.03768 0.0
N527 N 0.15436 0.96108 0.05202 0.0
N528 N 0.14399 0.9679 0.05943 0.0
C529 C 0.13574 0.97582 0.05008 0.0
C530 C 0.14109 0.97377 0.03596 0.0
C531 C 0.16335 0.95925 0.02602 0.0
H532 H 0.16434 0.94713 0.02658 0.0
H533 H 0.15955 0.96249 0.01491 0.0
H534 H 0.17439 0.96397 0.02808 0.0
O535 O 0.18019 0.96328 0.07576 0.0
O536 O 0.16257 0.97527 0.08755 0.0
H537 H 0.12141 0.99444 0.04599 0.0
H538 H 0.11422 0.98053 0.05808 0.0
C539 C 0.12426 0.98659 0.05484 0.0
H540 H 0.12823 0.99284 0.06449 0.0
H541 H 0.14086 0.99432 0.09776 0.0
O542 O 0.18297 0.94153 0.04863 0.0
C543 C 0.1761 0.97296 0.085 0.0
Co544 Co 0.18623 0.29819 0.07814 0.0
Co545 Co 0.16843 0.28282 0.10306 0.0
C546 C 0.1664 0.31518 0.09785 0.0
O547 O 0.17523 0.31475 0.08703 0.0
O548 O 0.16287 0.30364 0.10486 0.0
C549 C 0.19615 0.3157 0.0544 0.0
O550 O 0.18238 0.31998 0.05424 0.0
C551 C 0.15882 0.2768 0.13311 0.0
C552 C 0.14922 0.25463 0.13094 0.0
C553 C 0.1521 0.26565 0.14103 0.0
N554 N 0.15985 0.27252 0.11904 0.0
N555 N 0.15398 0.25932 0.11778 0.0
C556 C 0.16529 0.29074 0.13888 0.0
H557 H 0.17394 0.29487 0.13135 0.0
H558 H 0.16999 0.28902 0.14999 0.0
H559 H 0.15653 0.29916 0.13966 0.0
C560 C 0.21083 0.2835 0.0939 0.0
N561 N 0.19658 0.28731 0.09264 0.0
N562 N 0.18908 0.28099 0.10324 0.0
C563 C 0.19829 0.27307 0.11164 0.0
C564 C 0.2124 0.2745 0.10608 0.0
C565 C 0.22249 0.28777 0.08316 0.0
H566 H 0.22285 0.29991 0.08223 0.0
H567 H 0.23344 0.28364 0.08655 0.0
H568 H 0.21967 0.28331 0.07219 0.0
O569 O 0.17281 0.2851 0.067 0.0
O570 O 0.16055 0.27394 0.08486 0.0
H571 H 0.20238 0.25553 0.12731 0.0
H572 H 0.18946 0.26936 0.13304 0.0
C573 C 0.19341 0.26285 0.12356 0.0
H574 H 0.18422 0.25597 0.11953 0.0
H575 H 0.15345 0.25342 0.10798 0.0
O576 O 0.20028 0.30641 0.06395 0.0
C577 C 0.16325 0.27584 0.07128 0.0
Co578 Co 0.68493 0.19856 0.92026 0.0
Co579 Co 0.66376 0.21467 0.89869 0.0
C580 C 0.66477 0.18182 0.90085 0.0
O581 O 0.67466 0.18184 0.91072 0.0
O582 O 0.65971 0.19374 0.89566 0.0
C583 C 0.69741 0.18012 0.94163 0.0
O584 O 0.68393 0.17501 0.94195 0.0
C585 C 0.65189 0.22238 0.86981 0.0
C586 C 0.63606 0.23987 0.8755 0.0
C587 C 0.64137 0.23163 0.86387 0.0
N588 N 0.65277 0.22506 0.88429 0.0
N589 N 0.64335 0.23558 0.8876 0.0
C590 C 0.66002 0.21031 0.86216 0.0
H591 H 0.66651 0.20373 0.87006 0.0
H592 H 0.66763 0.21504 0.85394 0.0
H593 H 0.65213 0.20315 0.85624 0.0
C594 C 0.70692 0.21597 0.90355 0.0
N595 N 0.69307 0.21138 0.90598 0.0
N596 N 0.68414 0.21831 0.89698 0.0
C597 C 0.692 0.22759 0.88858 0.0
C598 C 0.7067 0.22629 0.89235 0.0
C599 C 0.71995 0.21085 0.91211 0.0
H600 H 0.72015 0.19867 0.91231 0.0
H601 H 0.73037 0.21499 0.90733 0.0
H602 H 0.71895 0.21473 0.92361 0.0
O603 O 0.67168 0.20977 0.93359 0.0
O604 O 0.65671 0.22112 0.91811 0.0
H605 H 0.69305 0.24793 0.8763 0.0
H606 H 0.68284 0.23333 0.86779 0.0
C607 C 0.68541 0.23869 0.8784 0.0
H608 H 0.67511 0.24311 0.88313 0.0
H609 H 0.64163 0.23958 0.8982 0.0
O610 O 0.70057 0.19038 0.93273 0.0
C611 C 0.66094 0.21839 0.93113 0.0
Co612 Co 0.0469 0.43202 0.17325 0.0
Co613 Co 0.03037 0.41422 0.14911 0.0
C614 C 0.06316 0.41449 0.15099 0.0
O615 O 0.06328 0.42261 0.16236 0.0
O616 O 0.05123 0.41053 0.14493 0.0
C617 C 0.06667 0.45327 0.18637 0.0
O618 O 0.07333 0.45367 0.17359 0.0
C619 C 0.02264 0.40557 0.11923 0.0
C620 C 0.00145 0.39423 0.12251 0.0
C621 C 0.01149 0.3983 0.11181 0.0
N622 N 0.01934 0.40573 0.13359 0.0
N623 N 0.00672 0.39884 0.13551 0.0
C624 C 0.03566 0.41326 0.11281 0.0
H625 H 0.03943 0.42215 0.12023 0.0
H626 H 0.03295 0.41792 0.10188 0.0
H627 H 0.04474 0.40526 0.11147 0.0
C628 C 0.02938 0.45635 0.15992 0.0
N629 N 0.03401 0.4423 0.16041 0.0
N630 N 0.02706 0.43471 0.15025 0.0
C631 C 0.01793 0.44371 0.14289 0.0
C632 C 0.01919 0.45772 0.14868 0.0
C633 C 0.0343 0.46807 0.17031 0.0
H634 H 0.03281 0.46423 0.18177 0.0
H635 H 0.04617 0.47017 0.1686 0.0
H636 H 0.02816 0.47845 0.16862 0.0
O637 O 0.03563 0.41736 0.18461 0.0
O638 O 0.024 0.40451 0.16755 0.0
H639 H 0.00126 0.42882 0.1356 0.0
H640 H 0.99894 0.44728 0.12892 0.0
C641 C 0.00713 0.43868 0.13157 0.0
H642 H 0.0131 0.4357 0.12139 0.0
H643 H 0.00162 0.39745 0.14567 0.0
O644 O 0.05538 0.44527 0.18805 0.0
C645 C 0.0269 0.40709 0.18097 0.0
Co646 Co 0.81193 0.79658 0.42096 0.0
Co647 Co 0.82888 0.77891 0.39702 0.0
C648 C 0.83328 0.81125 0.40106 0.0
O649 O 0.82385 0.81218 0.41134 0.0
O650 O 0.83622 0.79903 0.39501 0.0
C651 C 0.80286 0.8153 0.44418 0.0
O652 O 0.81685 0.8188 0.44437 0.0
C653 C 0.83859 0.77176 0.36735 0.0
C654 C 0.84662 0.74902 0.36997 0.0
C655 C 0.84474 0.7601 0.3597 0.0
N656 N 0.83694 0.7677 0.38143 0.0
N657 N 0.84186 0.75415 0.38296 0.0
C658 C 0.83324 0.78609 0.36137 0.0
H659 H 0.82453 0.7907 0.36853 0.0
H660 H 0.82894 0.7847 0.35006 0.0
H661 H 0.84251 0.79399 0.36107 0.0
C662 C 0.7865 0.78316 0.40525 0.0
N663 N 0.80099 0.78585 0.40677 0.0
N664 N 0.80819 0.77868 0.39651 0.0
C665 C 0.79856 0.77132 0.38808 0.0
C666 C 0.7845 0.77403 0.39323 0.0
C667 C 0.77497 0.78867 0.41554 0.0
H668 H 0.77724 0.78447 0.42675 0.0
H669 H 0.77545 0.80083 0.416 0.0
H670 H 0.76382 0.78518 0.41206 0.0
O671 O 0.82465 0.78312 0.43277 0.0
O672 O 0.83582 0.77013 0.41545 0.0
H673 H 0.8114 0.75303 0.38077 0.0
H674 H 0.79341 0.75388 0.37262 0.0
C675 C 0.80286 0.76052 0.37643 0.0
H676 H 0.8075 0.76653 0.36693 0.0
H677 H 0.84179 0.74835 0.39284 0.0
O678 O 0.79829 0.80606 0.43479 0.0
C679 C 0.83341 0.77291 0.42891 0.0
Co680 Co 0.95006 0.06771 0.17466 0.0
Co681 Co 0.96542 0.08388 0.14855 0.0
C682 C 0.93285 0.08443 0.15239 0.0
O683 O 0.93325 0.07686 0.16412 0.0
O684 O 0.94446 0.08787 0.14548 0.0
C685 C 0.93164 0.04574 0.18787 0.0
O686 O 0.92652 0.04391 0.17452 0.0
C687 C 0.97257 0.09143 0.11788 0.0
C688 C 0.99182 0.10586 0.12104 0.0
C689 C 0.98252 0.10023 0.11041 0.0
N690 N 0.97587 0.09187 0.13227 0.0
N691 N 0.98745 0.10042 0.13404 0.0
C692 C 0.9595 0.08368 0.11164 0.0
H693 H 0.95263 0.0789 0.12046 0.0
H694 H 0.96317 0.07462 0.1044 0.0
H695 H 0.95291 0.09141 0.10491 0.0
C696 C 0.9671 0.04257 0.1618 0.0
N697 N 0.9623 0.0566 0.16165 0.0
N698 N 0.96848 0.06349 0.15053 0.0
C699 C 0.97718 0.05409 0.14318 0.0
C700 C 0.97646 0.0405 0.14996 0.0
C701 C 0.96332 0.03157 0.17338 0.0
H702 H 0.9638 0.03679 0.18436 0.0
H703 H 0.95197 0.0276 0.17153 0.0
H704 H 0.97083 0.02198 0.17307 0.0
O705 O 0.96191 0.08289 0.18486 0.0
O706 O 0.97292 0.09404 0.16623 0.0
H707 H 0.99319 0.06864 0.13394 0.0
H708 H 0.99541 0.04977 0.12843 0.0
C709 C 0.98726 0.05845 0.13095 0.0
H710 H 0.98067 0.06064 0.12096 0.0
H711 H 0.99216 0.10286 0.1442 0.0
O712 O 0.94175 0.05507 0.19015 0.0
C713 C 0.9707 0.09257 0.17995 0.0
Co714 Co 0.31481 0.70073 0.5746 0.0
Co715 Co 0.33283 0.71646 0.5991 0.0
C716 C 0.33283 0.68377 0.59609 0.0
O717 O 0.32426 0.68403 0.58505 0.0
O718 O 0.33698 0.69556 0.60231 0.0
C719 C 0.29284 0.68159 0.562 0.0
O720 O 0.2925 0.67521 0.57493 0.0
C721 C 0.34184 0.72373 0.6291 0.0
C722 C 0.35295 0.74505 0.6259 0.0
C723 C 0.34903 0.73491 0.63656 0.0
N724 N 0.34154 0.72715 0.61476 0.0
N725 N 0.34831 0.73983 0.6129 0.0
C726 C 0.33429 0.71061 0.63547 0.0
H727 H 0.3257 0.70652 0.62786 0.0
H728 H 0.32928 0.71335 0.64623 0.0
H729 H 0.34246 0.70174 0.63717 0.0
C730 C 0.29055 0.71765 0.58884 0.0
N731 N 0.30464 0.71315 0.58797 0.0
N732 N 0.31229 0.71963 0.59838 0.0
C733 C 0.3033 0.72831 0.60628 0.0
C734 C 0.28923 0.72721 0.6006 0.0
C735 C 0.27871 0.71319 0.57837 0.0
H736 H 0.28269 0.7144 0.56693 0.0
H737 H 0.276 0.70147 0.5802 0.0
H738 H 0.26861 0.71983 0.57993 0.0
O739 O 0.32942 0.71238 0.5633 0.0
O740 O 0.34213 0.72348 0.58082 0.0
H741 H 0.31814 0.74469 0.61432 0.0
H742 H 0.29969 0.74657 0.62117 0.0
C743 C 0.30833 0.73857 0.6181 0.0
H744 H 0.31136 0.73214 0.62796 0.0
H745 H 0.34955 0.74504 0.60277 0.0
O746 O 0.30124 0.69252 0.55992 0.0
C747 C 0.33963 0.72105 0.5673 0.0
Co748 Co 0.04703 0.5652 0.32461 0.0
Co749 Co 0.03262 0.58574 0.34798 0.0
C750 C 0.06541 0.58351 0.34407 0.0
O751 O 0.06454 0.57436 0.33357 0.0
O752 O 0.05398 0.58859 0.35027 0.0
C753 C 0.06618 0.54466 0.30967 0.0
O754 O 0.07573 0.54753 0.32009 0.0
C755 C 0.02645 0.5948 0.37825 0.0
C756 C 0.0097 0.61203 0.37497 0.0
C757 C 0.01779 0.60488 0.3857 0.0
N758 N 0.02354 0.59592 0.36382 0.0
N759 N 0.0135 0.60622 0.36195 0.0
C760 C 0.03803 0.58495 0.38452 0.0
H761 H 0.04549 0.58091 0.37582 0.0
H762 H 0.03278 0.57528 0.3897 0.0
H763 H 0.04439 0.59085 0.39308 0.0
C764 C 0.02997 0.54282 0.34131 0.0
N765 N 0.0347 0.55666 0.33911 0.0
N766 N 0.02795 0.56548 0.34835 0.0
C767 C 0.01836 0.55764 0.35639 0.0
C768 C 0.01946 0.54295 0.35239 0.0
C769 C 0.0355 0.52982 0.33294 0.0
H770 H 0.03045 0.52977 0.32186 0.0
H771 H 0.04756 0.53066 0.33158 0.0
H772 H 0.03282 0.51939 0.33862 0.0
O773 O 0.03571 0.5798 0.31298 0.0
O774 O 0.02559 0.59456 0.32948 0.0
H775 H 0.0039 0.57541 0.36216 0.0
H776 H 0.99689 0.55746 0.36653 0.0
C777 C 0.00694 0.56434 0.36616 0.0
H778 H 0.01134 0.56528 0.37745 0.0
H779 H 0.00938 0.60941 0.35174 0.0
O780 O 0.05352 0.55052 0.31011 0.0
C781 C 0.02769 0.5908 0.3162 0.0
Co782 Co 0.44932 0.43558 0.82485 0.0
Co783 Co 0.4647 0.41689 0.8491 0.0
C784 C 0.43207 0.41834 0.84669 0.0
O785 O 0.43245 0.42651 0.83536 0.0
O786 O 0.44371 0.41393 0.85297 0.0
C787 C 0.43116 0.45853 0.81228 0.0
O788 O 0.42574 0.46031 0.82552 0.0
C789 C 0.47201 0.40728 0.87888 0.0
C790 C 0.49166 0.39356 0.87499 0.0
C791 C 0.48226 0.39846 0.88588 0.0
N792 N 0.47528 0.40761 0.8645 0.0
N793 N 0.48704 0.39942 0.86225 0.0
C794 C 0.45853 0.41414 0.88529 0.0
H795 H 0.45562 0.42423 0.87912 0.0
H796 H 0.45993 0.41675 0.89707 0.0
H797 H 0.44927 0.40629 0.88425 0.0
C798 C 0.46736 0.45916 0.83908 0.0
N799 N 0.46233 0.44526 0.83811 0.0
N800 N 0.4687 0.43726 0.84834 0.0
C801 C 0.47778 0.44582 0.85624 0.0
C802 C 0.47712 0.45998 0.85074 0.0
C803 C 0.46318 0.47129 0.82884 0.0
H804 H 0.46353 0.46728 0.81735 0.0
H805 H 0.45177 0.47477 0.83128 0.0
H806 H 0.47052 0.48092 0.83007 0.0
O807 O 0.46037 0.42079 0.81342 0.0
O808 O 0.471 0.40728 0.83062 0.0
H809 H 0.4963 0.44852 0.87101 0.0
H810 H 0.48138 0.43749 0.87786 0.0
C811 C 0.48789 0.44027 0.86796 0.0
H812 H 0.49352 0.4302 0.86411 0.0
H813 H 0.4918 0.39767 0.85197 0.0
O814 O 0.44124 0.44915 0.81011 0.0
C815 C 0.4686 0.41015 0.81716 0.0
Co816 Co 0.57773 0.68479 0.79758 0.0
Co817 Co 0.60177 0.66659 0.78133 0.0
C818 C 0.59836 0.66555 0.81407 0.0
O819 O 0.58766 0.67455 0.8141 0.0
O820 O 0.60448 0.66161 0.80216 0.0
C821 C 0.56372 0.70574 0.81736 0.0
O822 O 0.57582 0.70542 0.82519 0.0
C823 C 0.63166 0.65698 0.77446 0.0
C824 C 0.62875 0.64681 0.75263 0.0
C825 C 0.6392 0.64995 0.76324 0.0
N826 N 0.61744 0.65791 0.77064 0.0
N827 N 0.61575 0.65172 0.75763 0.0
C828 C 0.63792 0.66377 0.78803 0.0
H829 H 0.63058 0.67259 0.79214 0.0
H830 H 0.64901 0.66831 0.78582 0.0
H831 H 0.6389 0.65524 0.79666 0.0
C832 C 0.59274 0.70917 0.78172 0.0
N833 N 0.59152 0.69498 0.78573 0.0
N834 N 0.60166 0.68726 0.77891 0.0
C835 C 0.60971 0.69629 0.77042 0.0
C836 C 0.60441 0.71048 0.77202 0.0
C837 C 0.58262 0.72108 0.78674 0.0
H838 H 0.57113 0.71802 0.78409 0.0
H839 H 0.58347 0.7222 0.79882 0.0
H840 H 0.58531 0.73178 0.78158 0.0
O841 O 0.56635 0.67089 0.78526 0.0
O842 O 0.58339 0.65799 0.77366 0.0
H843 H 0.61683 0.68174 0.7534 0.0
H844 H 0.62439 0.69993 0.75197 0.0
C845 C 0.62113 0.69117 0.75975 0.0
H846 H 0.63098 0.6875 0.76588 0.0
H847 H 0.60574 0.65102 0.75209 0.0
O848 O 0.56287 0.69827 0.80562 0.0
C849 C 0.56997 0.6609 0.77619 0.0
Co850 Co 0.5662 0.32679 0.04789 0.0
Co851 Co 0.58707 0.35019 0.03405 0.0
C852 C 0.58245 0.34787 0.06658 0.0
O853 O 0.57388 0.3369 0.06557 0.0
O854 O 0.58817 0.35382 0.05533 0.0
C855 C 0.54276 0.31382 0.06513 0.0
O856 O 0.54304 0.32591 0.07299 0.0
C857 C 0.59791 0.37984 0.02729 0.0
C858 C 0.61544 0.37493 0.01126 0.0
C859 C 0.6089 0.38629 0.01896 0.0
N860 N 0.59798 0.36532 0.02463 0.0
N861 N 0.60841 0.36248 0.01495 0.0
C862 C 0.58837 0.3871 0.03853 0.0
H863 H 0.58143 0.37893 0.04429 0.0
H864 H 0.58108 0.39522 0.03316 0.0
H865 H 0.59532 0.39309 0.04656 0.0
C866 C 0.54478 0.34194 0.0283 0.0
N867 N 0.55828 0.34043 0.03417 0.0
N868 N 0.56715 0.35012 0.02814 0.0
C869 C 0.5596 0.35809 0.01825 0.0
C870 C 0.54516 0.35327 0.01812 0.0
C871 C 0.53186 0.33269 0.03242 0.0
H872 H 0.53437 0.321 0.03013 0.0
H873 H 0.52982 0.33379 0.04437 0.0
H874 H 0.52181 0.33599 0.02638 0.0
O875 O 0.5816 0.31481 0.03831 0.0
O876 O 0.59651 0.33135 0.02857 0.0
H877 H 0.57734 0.36533 0.00452 0.0
H878 H 0.55943 0.37111 0.99836 0.0
C879 C 0.56638 0.36916 0.00816 0.0
H880 H 0.56772 0.37968 0.01411 0.0
H881 H 0.611 0.35199 0.01116 0.0
O882 O 0.55124 0.31252 0.05414 0.0
C883 C 0.593 0.31803 0.03092 0.0
Co884 Co 0.92011 0.31217 0.30154 0.0
Co885 Co 0.89687 0.332 0.28604 0.0
C886 C 0.89979 0.33062 0.31893 0.0
O887 O 0.91034 0.32145 0.3187 0.0
O888 O 0.89408 0.33538 0.30713 0.0
C889 C 0.93369 0.28988 0.32014 0.0
O890 O 0.92167 0.29018 0.3281 0.0
C891 C 0.86685 0.34121 0.27882 0.0
C892 C 0.87093 0.35845 0.26226 0.0
C893 C 0.85986 0.35148 0.27001 0.0
N894 N 0.88138 0.34207 0.27633 0.0
N895 N 0.88373 0.35237 0.2664 0.0
C896 C 0.86003 0.33152 0.29021 0.0
H897 H 0.86848 0.32709 0.29775 0.0
H898 H 0.85451 0.32213 0.28479 0.0
H899 H 0.85161 0.33771 0.29648 0.0
C900 C 0.905 0.28937 0.28358 0.0
N901 N 0.9062 0.30316 0.28879 0.0
N902 N 0.89674 0.31164 0.2819 0.0
C903 C 0.88938 0.30358 0.27193 0.0
C904 C 0.89423 0.28915 0.27278 0.0
C905 C 0.91442 0.27684 0.28848 0.0
H906 H 0.926 0.27907 0.28541 0.0
H907 H 0.91387 0.27591 0.30059 0.0
H908 H 0.91084 0.2663 0.28354 0.0
O909 O 0.93199 0.32661 0.2902 0.0
O910 O 0.91546 0.3407 0.27923 0.0
H911 H 0.88353 0.32108 0.25722 0.0
H912 H 0.87941 0.30303 0.25035 0.0
C913 C 0.87964 0.30999 0.26033 0.0
H914 H 0.8683 0.31088 0.26465 0.0
H915 H 0.89411 0.35543 0.26263 0.0
O916 O 0.93463 0.29783 0.30873 0.0
C917 C 0.92876 0.33725 0.28173 0.0
Co918 Co 0.93377 0.66921 0.54758 0.0
Co919 Co 0.91547 0.64384 0.5334 0.0
C920 C 0.91656 0.64863 0.56596 0.0
O921 O 0.92481 0.65984 0.56506 0.0
O922 O 0.91225 0.64172 0.55464 0.0
C923 C 0.94438 0.69348 0.5639 0.0
O924 O 0.93085 0.69363 0.5689 0.0
C925 C 0.90645 0.6133 0.52777 0.0
C926 C 0.89077 0.6163 0.50952 0.0
C927 C 0.89671 0.60578 0.51876 0.0
N928 N 0.90621 0.62759 0.52401 0.0
N929 N 0.8969 0.62927 0.51301 0.0
C930 C 0.91507 0.60729 0.54041 0.0
H931 H 0.9196 0.61624 0.54726 0.0
H932 H 0.92444 0.60078 0.53619 0.0
H933 H 0.90807 0.59995 0.54716 0.0
C934 C 0.95742 0.65432 0.53058 0.0
N935 N 0.9435 0.65512 0.53553 0.0
N936 N 0.93576 0.64453 0.52946 0.0
C937 C 0.94444 0.63673 0.52042 0.0
C938 C 0.95851 0.64258 0.52093 0.0
C939 C 0.96925 0.66495 0.53467 0.0
H940 H 0.96647 0.67594 0.53022 0.0
H941 H 0.96984 0.66589 0.54679 0.0
H942 H 0.98011 0.66146 0.53038 0.0
O943 O 0.91875 0.68001 0.53599 0.0
O944 O 0.90609 0.66188 0.52576 0.0
H945 H 0.92824 0.62857 0.5054 0.0
H946 H 0.94674 0.62312 0.50099 0.0
C947 C 0.93893 0.62517 0.5101 0.0
H948 H 0.9373 0.6148 0.51624 0.0
H949 H 0.89444 0.63934 0.50815 0.0
O950 O 0.94809 0.68378 0.5546 0.0
C951 C 0.90847 0.67552 0.52765 0.0
Co952 Co 0.57658 0.31352 0.69924 0.0
Co953 Co 0.60027 0.33183 0.71588 0.0
C954 C 0.59831 0.33164 0.68298 0.0
O955 O 0.5874 0.3229 0.68282 0.0
O956 O 0.60401 0.33589 0.695 0.0
C957 C 0.56296 0.2922 0.6796 0.0
O958 O 0.57529 0.29222 0.67214 0.0
C959 C 0.63005 0.34112 0.72364 0.0
C960 C 0.6264 0.3526 0.74469 0.0
C961 C 0.63722 0.34869 0.73474 0.0
N962 N 0.61566 0.34064 0.72689 0.0
N963 N 0.61354 0.34759 0.73944 0.0
C964 C 0.63673 0.33352 0.71072 0.0
H965 H 0.6295 0.3245 0.7069 0.0
H966 H 0.64773 0.32909 0.71357 0.0
H967 H 0.63805 0.34152 0.70164 0.0
C968 C 0.5899 0.28962 0.7171 0.0
N969 N 0.58958 0.30354 0.71212 0.0
N970 N 0.59946 0.31131 0.71923 0.0
C971 C 0.60637 0.30263 0.72898 0.0
C972 C 0.6006 0.28854 0.72791 0.0
C973 C 0.57964 0.27782 0.71208 0.0
H974 H 0.56818 0.28109 0.7146 0.0
H975 H 0.5806 0.27656 0.70002 0.0
H976 H 0.5821 0.26713 0.71737 0.0
O977 O 0.56498 0.32809 0.71057 0.0
O978 O 0.58179 0.3411 0.72239 0.0
H979 H 0.61198 0.31815 0.74569 0.0
H980 H 0.61897 0.30002 0.74911 0.0
C981 C 0.61672 0.30825 0.74045 0.0
H982 H 0.62723 0.3114 0.73517 0.0
H983 H 0.60331 0.34881 0.74447 0.0
O984 O 0.56181 0.29999 0.6911 0.0
C985 C 0.56843 0.33834 0.71942 0.0
Co986 Co 0.93634 0.32864 0.94845 0.0
Co987 Co 0.91678 0.35277 0.96295 0.0
C988 C 0.91712 0.34775 0.93041 0.0
O989 O 0.92631 0.33728 0.93124 0.0
O990 O 0.91259 0.35441 0.94181 0.0
C991 C 0.94763 0.30539 0.93145 0.0
O992 O 0.93411 0.30523 0.92642 0.0
C993 C 0.90698 0.38289 0.96906 0.0
C994 C 0.89133 0.37928 0.98724 0.0
C995 C 0.89726 0.39007 0.97833 0.0
N996 N 0.90682 0.36851 0.97241 0.0
N997 N 0.89747 0.36644 0.9833 0.0
C998 C 0.91545 0.38933 0.95654 0.0
H999 H 0.92003 0.38059 0.94944 0.0
H1000 H 0.92471 0.39595 0.96083 0.0
H1001 H 0.90827 0.39672 0.95003 0.0
C1002 C 0.95942 0.34496 0.96481 0.0
N1003 N 0.94549 0.34337 0.96009 0.0
N1004 N 0.93722 0.35348 0.96631 0.0
C1005 C 0.94559 0.36173 0.97526 0.0
C1006 C 0.95997 0.35675 0.97445 0.0
C1007 C 0.97172 0.33487 0.96076 0.0
H1008 H 0.97233 0.33388 0.94864 0.0
H1009 H 0.9824 0.33888 0.96504 0.0
H1010 H 0.96945 0.32378 0.96527 0.0
O1011 O 0.9224 0.31701 0.96057 0.0
O1012 O 0.9089 0.3343 0.97119 0.0
H1013 H 0.92899 0.36873 0.99047 0.0
H1014 H 0.94727 0.37452 0.99527 0.0
C1015 C 0.9396 0.37265 0.98601 0.0
H1016 H 0.93778 0.38325 0.98034 0.0
H1017 H 0.89511 0.35622 0.98791 0.0
O1018 O 0.95119 0.31482 0.94108 0.0
C1019 C 0.91216 0.32085 0.96928 0.0
Co1020 Co 0.92012 0.68599 0.19691 0.0
Co1021 Co 0.89694 0.66592 0.21233 0.0
C1022 C 0.8995 0.66751 0.17956 0.0
O1023 O 0.91 0.67674 0.17988 0.0
O1024 O 0.89388 0.6625 0.19131 0.0
C1025 C 0.93269 0.70913 0.17861 0.0
O1026 O 0.92017 0.70941 0.17147 0.0
C1027 C 0.86776 0.65394 0.21983 0.0
C1028 C 0.87351 0.63931 0.2383 0.0
C1029 C 0.86194 0.64367 0.22946 0.0
N1030 N 0.88214 0.6555 0.22284 0.0
N1031 N 0.88544 0.64684 0.23399 0.0
C1032 C 0.86011 0.66121 0.20724 0.0
H1033 H 0.86792 0.66768 0.20054 0.0
H1034 H 0.85155 0.66875 0.21147 0.0
H1035 H 0.8546 0.65281 0.20034 0.0
C1036 C 0.90473 0.70861 0.21496 0.0
N1037 N 0.90632 0.69479 0.20989 0.0
N1038 N 0.89649 0.6863 0.21625 0.0
C1039 C 0.88826 0.69444 0.22542 0.0
C1040 C 0.89312 0.70885 0.2248 0.0
C1041 C 0.91443 0.72117 0.21077 0.0
H1042 H 0.91283 0.72365 0.19897 0.0
H1043 H 0.91193 0.73116 0.21727 0.0
H1044 H 0.92609 0.71803 0.21238 0.0
O1045 O 0.93235 0.67161 0.20781 0.0
O1046 O 0.91585 0.65753 0.21878 0.0
H1047 H 0.88138 0.67837 0.24115 0.0
H1048 H 0.87352 0.69633 0.24405 0.0
C1049 C 0.87694 0.68826 0.23561 0.0
H1050 H 0.86717 0.68495 0.22916 0.0
H1051 H 0.89597 0.64571 0.23836 0.0
O1052 O 0.93429 0.70051 0.18945 0.0
C1053 C 0.92914 0.66092 0.21621 0.0
Co1054 Co 0.56602 0.67274 0.44938 0.0
Co1055 Co 0.58546 0.64896 0.46457 0.0
C1056 C 0.58475 0.65254 0.43184 0.0
O1057 O 0.57561 0.66312 0.43225 0.0
O1058 O 0.58937 0.6465 0.44354 0.0
C1059 C 0.54362 0.68596 0.43077 0.0
O1060 O 0.54387 0.67377 0.42307 0.0
C1061 C 0.59607 0.61921 0.47133 0.0
C1062 C 0.61131 0.6237 0.48966 0.0
C1063 C 0.60606 0.6126 0.48071 0.0
N1064 N 0.59545 0.63359 0.47461 0.0
N1065 N 0.6045 0.63617 0.48564 0.0
C1066 C 0.58824 0.61228 0.45867 0.0
H1067 H 0.58148 0.62048 0.45272 0.0
H1068 H 0.58097 0.60339 0.46266 0.0
H1069 H 0.59636 0.60729 0.45108 0.0
C1070 C 0.54276 0.65695 0.46628 0.0
N1071 N 0.55674 0.6586 0.46168 0.0
N1072 N 0.56499 0.64857 0.46804 0.0
C1073 C 0.55655 0.6402 0.47681 0.0
C1074 C 0.54218 0.64512 0.47586 0.0
C1075 C 0.53035 0.66673 0.46184 0.0
H1076 H 0.53329 0.67832 0.4641 0.0
H1077 H 0.52851 0.66562 0.44986 0.0
H1078 H 0.52005 0.66389 0.46768 0.0
O1079 O 0.58025 0.6845 0.46105 0.0
O1080 O 0.59386 0.66752 0.47187 0.0
H1081 H 0.57261 0.63271 0.49232 0.0
H1082 H 0.55433 0.6259 0.49572 0.0
C1083 C 0.56239 0.62874 0.48705 0.0
H1084 H 0.56498 0.61868 0.48071 0.0
H1085 H 0.60633 0.64653 0.49018 0.0
O1086 O 0.55172 0.68719 0.44204 0.0
C1087 C 0.59068 0.68092 0.46963 0.0
Co1088 Co 0.79846 0.57527 0.68436 0.0
Co1089 Co 0.78324 0.60053 0.66693 0.0
C1090 C 0.81572 0.59672 0.66651 0.0
O1091 O 0.81512 0.58546 0.67475 0.0
O1092 O 0.80418 0.60353 0.6626 0.0
C1093 C 0.81735 0.56266 0.70642 0.0
O1094 O 0.82265 0.57598 0.70798 0.0
C1095 C 0.77593 0.63042 0.65695 0.0
C1096 C 0.75607 0.6261 0.64369 0.0
C1097 C 0.76572 0.63707 0.64785 0.0
N1098 N 0.77247 0.61611 0.65809 0.0
N1099 N 0.76051 0.61366 0.65026 0.0
C1100 C 0.78947 0.63717 0.66331 0.0
H1101 H 0.79464 0.62967 0.67139 0.0
H1102 H 0.78678 0.64773 0.66873 0.0
H1103 H 0.79737 0.63951 0.65434 0.0
C1104 C 0.78171 0.58944 0.70888 0.0
N1105 N 0.78635 0.5888 0.69483 0.0
N1106 N 0.7803 0.59964 0.68743 0.0
C1107 C 0.77184 0.60764 0.69651 0.0
C1108 C 0.77255 0.60153 0.71043 0.0
C1109 C 0.78556 0.57842 0.72043 0.0
H1110 H 0.7848 0.56717 0.71582 0.0
H1111 H 0.79704 0.58029 0.72401 0.0
H1112 H 0.77829 0.57939 0.73015 0.0
O1113 O 0.78664 0.56426 0.66978 0.0
O1114 O 0.77576 0.58236 0.65772 0.0
H1115 H 0.75554 0.61632 0.68198 0.0
H1116 H 0.75448 0.62356 0.70035 0.0
C1117 C 0.76209 0.61992 0.69158 0.0
H1118 H 0.76897 0.62935 0.68815 0.0
H1119 H 0.75562 0.60337 0.64902 0.0
O1120 O 0.80695 0.56034 0.69744 0.0
C1121 C 0.7779 0.56873 0.65986 0.0
Co1122 Co 0.67185 0.54903 0.93446 0.0
Co1123 Co 0.64779 0.53196 0.91704 0.0
C1124 C 0.65001 0.56484 0.91605 0.0
O1125 O 0.66105 0.5652 0.92463 0.0
O1126 O 0.64414 0.55274 0.9123 0.0
C1127 C 0.68638 0.56958 0.95433 0.0
O1128 O 0.67433 0.5775 0.9539 0.0
C1129 C 0.61783 0.52411 0.90842 0.0
C1130 C 0.62122 0.50274 0.89744 0.0
C1131 C 0.61049 0.51286 0.90122 0.0
N1132 N 0.6322 0.52079 0.9088 0.0
N1133 N 0.63417 0.50805 0.90216 0.0
C1134 C 0.61133 0.53729 0.91572 0.0
H1135 H 0.61867 0.54127 0.92459 0.0
H1136 H 0.60034 0.53468 0.9203 0.0
H1137 H 0.61007 0.54619 0.90751 0.0
C1138 C 0.65857 0.53226 0.95918 0.0
N1139 N 0.65883 0.53667 0.94507 0.0
N1140 N 0.64885 0.52932 0.93765 0.0
C1141 C 0.64198 0.51994 0.94675 0.0
C1142 C 0.64783 0.52154 0.96075 0.0
C1143 C 0.66888 0.53777 0.9707 0.0
H1144 H 0.68027 0.53454 0.9678 0.0
H1145 H 0.66843 0.54993 0.97101 0.0
H1146 H 0.66608 0.53341 0.98172 0.0
O1147 O 0.68314 0.53702 0.92018 0.0
O1148 O 0.66607 0.52496 0.90775 0.0
H1149 H 0.63612 0.50286 0.93171 0.0
H1150 H 0.62963 0.49974 0.95005 0.0
C1151 C 0.63159 0.50826 0.94161 0.0
H1152 H 0.62096 0.5134 0.93863 0.0
H1153 H 0.64435 0.50292 0.90094 0.0
O1154 O 0.68698 0.5575 0.94739 0.0
C1155 C 0.67949 0.52787 0.91028 0.0
Co1156 Co 0.69815 0.42175 0.18374 0.0
Co1157 Co 0.71055 0.39819 0.16215 0.0
C1158 C 0.67844 0.4017 0.16661 0.0
O1159 O 0.68023 0.41232 0.17551 0.0
O1160 O 0.68928 0.39524 0.16065 0.0
C1161 C 0.68381 0.43229 0.2102 0.0
O1162 O 0.68041 0.41853 0.21283 0.0
C1163 C 0.71614 0.3695 0.14834 0.0
C1164 C 0.73618 0.37423 0.13551 0.0
C1165 C 0.72615 0.36328 0.13871 0.0
N1166 N 0.72014 0.3835 0.15077 0.0
N1167 N 0.73212 0.38625 0.14306 0.0
C1168 C 0.70238 0.36277 0.15427 0.0
H1169 H 0.69984 0.36738 0.16525 0.0
H1170 H 0.70321 0.35065 0.15494 0.0
H1171 H 0.69316 0.36552 0.1468 0.0
C1172 C 0.71903 0.40636 0.20398 0.0
N1173 N 0.71174 0.40764 0.19115 0.0
N1174 N 0.71642 0.3974 0.18208 0.0
C1175 C 0.72644 0.38902 0.18895 0.0
C1176 C 0.7286 0.3945 0.20301 0.0
C1177 C 0.71824 0.41735 0.21616 0.0
H1178 H 0.71614 0.42847 0.21167 0.0
H1179 H 0.70907 0.41438 0.2236 0.0
H1180 H 0.72855 0.41752 0.22263 0.0
O1181 O 0.70812 0.43396 0.16891 0.0
O1182 O 0.7167 0.41725 0.15346 0.0
H1183 H 0.74147 0.37979 0.17344 0.0
H1184 H 0.7399 0.36939 0.19031 0.0
C1185 C 0.73381 0.37601 0.18212 0.0
H1186 H 0.72543 0.36887 0.17699 0.0
H1187 H 0.73746 0.39638 0.14287 0.0
O1188 O 0.69142 0.43553 0.19898 0.0
C1189 C 0.7152 0.43059 0.15736 0.0
Co1190 Co 0.82665 0.4495 0.43684 0.0
Co1191 Co 0.85279 0.46605 0.422 0.0
C1192 C 0.8483 0.43368 0.41807 0.0
O1193 O 0.83708 0.43347 0.42641 0.0
O1194 O 0.85504 0.44559 0.41526 0.0
C1195 C 0.81122 0.4287 0.45543 0.0
O1196 O 0.82347 0.42108 0.45553 0.0
C1197 C 0.88298 0.4727 0.4125 0.0
C1198 C 0.88177 0.49666 0.40896 0.0
C1199 C 0.8912 0.48477 0.40829 0.0
N1200 N 0.86927 0.47723 0.41554 0.0
N1201 N 0.8686 0.49156 0.4133 0.0
C1202 C 0.88831 0.4573 0.41449 0.0
H1203 H 0.88198 0.45174 0.42328 0.0
H1204 H 0.90018 0.45716 0.41724 0.0
H1205 H 0.88673 0.45121 0.40407 0.0
C1206 C 0.83973 0.46357 0.46338 0.0
N1207 N 0.83985 0.46017 0.44898 0.0
N1208 N 0.8512 0.46658 0.44274 0.0
C1209 C 0.85884 0.47397 0.453 0.0
C1210 C 0.85185 0.4723 0.46643 0.0
C1211 C 0.82779 0.45923 0.47377 0.0
H1212 H 0.81696 0.46219 0.46902 0.0
H1213 H 0.82802 0.44715 0.47525 0.0
H1214 H 0.82912 0.46456 0.48464 0.0
O1215 O 0.81678 0.46295 0.42284 0.0
O1216 O 0.8353 0.47536 0.41307 0.0
H1217 H 0.86757 0.49317 0.4428 0.0
H1218 H 0.87661 0.48846 0.45968 0.0
C1219 C 0.87149 0.48391 0.44964 0.0
H1220 H 0.87992 0.47777 0.44337 0.0
H1221 H 0.85916 0.49787 0.41486 0.0
O1222 O 0.81068 0.44081 0.44856 0.0
C1223 C 0.8216 0.47291 0.41432 0.0
Co1224 Co 0.79865 0.42198 0.81368 0.0
Co1225 Co 0.78288 0.3972 0.83131 0.0
C1226 C 0.81557 0.39983 0.83069 0.0
O1227 O 0.81533 0.41127 0.8227 0.0
O1228 O 0.80384 0.3935 0.83477 0.0
C1229 C 0.81694 0.43533 0.79123 0.0
O1230 O 0.8215 0.42204 0.78803 0.0
C1231 C 0.77539 0.36683 0.83903 0.0
C1232 C 0.75723 0.37015 0.85477 0.0
C1233 C 0.76586 0.35943 0.8483 0.0
N1234 N 0.77248 0.38128 0.83996 0.0
N1235 N 0.76157 0.38317 0.84932 0.0
C1236 C 0.78787 0.36048 0.83042 0.0
H1237 H 0.79393 0.3692 0.82448 0.0
H1238 H 0.78368 0.35249 0.82227 0.0
H1239 H 0.7954 0.35453 0.83792 0.0
C1240 C 0.78092 0.40862 0.78932 0.0
N1241 N 0.78584 0.40903 0.80329 0.0
N1242 N 0.77928 0.39859 0.81087 0.0
C1243 C 0.77016 0.39115 0.80196 0.0
C1244 C 0.77105 0.39709 0.788 0.0
C1245 C 0.78516 0.41934 0.77764 0.0
H1246 H 0.78547 0.4306 0.78226 0.0
H1247 H 0.7963 0.41657 0.77357 0.0
H1248 H 0.77745 0.41897 0.76823 0.0
O1249 O 0.78725 0.43286 0.82859 0.0
O1250 O 0.77616 0.41535 0.84132 0.0
H1251 H 0.75459 0.38289 0.8176 0.0
H1252 H 0.75073 0.3777 0.79891 0.0
C1253 C 0.75961 0.37959 0.80703 0.0
H1254 H 0.76562 0.36914 0.80865 0.0
H1255 H 0.7573 0.39339 0.85226 0.0
O1256 O 0.80722 0.43722 0.80104 0.0
C1257 C 0.7787 0.42887 0.83889 0.0
Co1258 Co 0.82589 0.54856 0.0642 0.0
Co1259 Co 0.84931 0.53306 0.08395 0.0
C1260 C 0.84612 0.56596 0.08278 0.0
O1261 O 0.83571 0.56564 0.07347 0.0
O1262 O 0.85182 0.5542 0.08768 0.0
C1263 C 0.8116 0.56806 0.04331 0.0
O1264 O 0.82289 0.57686 0.04503 0.0
C1265 C 0.87931 0.52623 0.09399 0.0
C1266 C 0.87512 0.50794 0.10935 0.0
C1267 C 0.88618 0.51675 0.10375 0.0
N1268 N 0.86486 0.52312 0.09385 0.0
N1269 N 0.86247 0.51213 0.103 0.0
C1270 C 0.88611 0.53872 0.08574 0.0
H1271 H 0.87761 0.54619 0.08134 0.0
H1272 H 0.8925 0.53438 0.07635 0.0
H1273 H 0.89376 0.54486 0.09298 0.0
C1274 C 0.84149 0.53145 0.04118 0.0
N1275 N 0.83988 0.53605 0.05513 0.0
N1276 N 0.84963 0.52938 0.06347 0.0
C1277 C 0.85771 0.52028 0.05509 0.0
C1278 C 0.85294 0.52141 0.04068 0.0
C1279 C 0.832 0.53636 0.02872 0.0
H1280 H 0.83218 0.54851 0.02808 0.0
H1281 H 0.83576 0.53173 0.0181 0.0
H1282 H 0.82051 0.53292 0.03082 0.0
O1283 O 0.81415 0.53717 0.07859 0.0
O1284 O 0.83066 0.52589 0.09244 0.0
H1285 H 0.87055 0.50033 0.0532 0.0
H1286 H 0.87916 0.51514 0.06302 0.0
C1287 C 0.8686 0.50947 0.06101 0.0
H1288 H 0.8646 0.50486 0.07153 0.0
H1289 H 0.85213 0.50767 0.10514 0.0
O1290 O 0.81132 0.55579 0.04993 0.0
C1291 C 0.81736 0.52851 0.08907 0.0
Co1292 Co 0.70184 0.57653 0.31634 0.0
Co1293 Co 0.71815 0.603 0.33065 0.0
C1294 C 0.68538 0.59979 0.33224 0.0
O1295 O 0.68533 0.58801 0.32474 0.0
O1296 O 0.69732 0.60629 0.33541 0.0
C1297 C 0.68301 0.56029 0.29628 0.0
O1298 O 0.67717 0.57297 0.29268 0.0
C1299 C 0.72437 0.63395 0.33658 0.0
C1300 C 0.74623 0.6328 0.34701 0.0
C1301 C 0.73527 0.64252 0.3429 0.0
N1302 N 0.72869 0.61986 0.33702 0.0
N1303 N 0.74174 0.61923 0.34331 0.0
C1304 C 0.71051 0.63902 0.32937 0.0
H1305 H 0.70694 0.63096 0.32096 0.0
H1306 H 0.71209 0.64995 0.32423 0.0
H1307 H 0.70175 0.63992 0.33777 0.0
C1308 C 0.71863 0.58724 0.29015 0.0
N1309 N 0.71394 0.58852 0.30414 0.0
N1310 N 0.72057 0.5998 0.31027 0.0
C1311 C 0.7296 0.6061 0.30043 0.0
C1312 C 0.72861 0.59844 0.28729 0.0
C1313 C 0.71418 0.57512 0.28001 0.0
H1314 H 0.71564 0.56438 0.28557 0.0
H1315 H 0.70239 0.57636 0.2773 0.0
H1316 H 0.72054 0.5753 0.26963 0.0
O1317 O 0.714 0.56737 0.33199 0.0
O1318 O 0.72619 0.58612 0.34157 0.0
H1319 H 0.74676 0.61441 0.31411 0.0
H1320 H 0.74836 0.62003 0.29529 0.0
C1321 C 0.74048 0.61782 0.30428 0.0
H1322 H 0.73453 0.6281 0.30694 0.0
H1323 H 0.74758 0.60952 0.34507 0.0
O1324 O 0.69346 0.55981 0.30548 0.0
C1325 C 0.72343 0.57245 0.34097 0.0
Co1326 Co 0.67096 0.44928 0.56376 0.0
Co1327 Co 0.64645 0.46539 0.58154 0.0
C1328 C 0.65003 0.43251 0.58212 0.0
O1329 O 0.66084 0.43255 0.57328 0.0
O1330 O 0.64395 0.44441 0.58617 0.0
C1331 C 0.68569 0.42931 0.54365 0.0
O1332 O 0.67395 0.421 0.54463 0.0
C1333 C 0.61613 0.47244 0.59032 0.0
C1334 C 0.61985 0.49109 0.60537 0.0
C1335 C 0.60898 0.48205 0.59977 0.0
N1336 N 0.63054 0.47568 0.59041 0.0
N1337 N 0.63265 0.48692 0.59934 0.0
C1338 C 0.60963 0.45974 0.58217 0.0
H1339 H 0.6183 0.4522 0.57822 0.0
H1340 H 0.60356 0.46389 0.57247 0.0
H1341 H 0.60176 0.45375 0.58929 0.0
C1342 C 0.65705 0.46624 0.53948 0.0
N1343 N 0.6574 0.46145 0.55346 0.0
N1344 N 0.64716 0.4683 0.56102 0.0
C1345 C 0.6401 0.47779 0.55218 0.0
C1346 C 0.64604 0.47674 0.53816 0.0
C1347 C 0.6676 0.4614 0.52787 0.0
H1348 H 0.67884 0.46503 0.53087 0.0
H1349 H 0.66764 0.44924 0.52729 0.0
H1350 H 0.66464 0.46589 0.51694 0.0
O1351 O 0.68205 0.46119 0.57836 0.0
O1352 O 0.66458 0.47319 0.59034 0.0
H1353 H 0.63358 0.49379 0.56817 0.0
H1354 H 0.6282 0.49835 0.54974 0.0
C1355 C 0.62958 0.48921 0.55764 0.0
H1356 H 0.61874 0.48403 0.5596 0.0
H1357 H 0.64291 0.49148 0.60162 0.0
O1358 O 0.68613 0.44148 0.55043 0.0
C1359 C 0.67808 0.47046 0.58803 0.0
Co1360 Co 0.6846 0.80073 0.57773 0.0
Co1361 Co 0.6656 0.78559 0.60191 0.0
C1362 C 0.66703 0.81844 0.59861 0.0
O1363 O 0.67582 0.818 0.58776 0.0
O1364 O 0.66237 0.80674 0.60461 0.0
C1365 C 0.70676 0.81914 0.56412 0.0
O1366 O 0.70676 0.82665 0.57643 0.0
C1367 C 0.65707 0.77889 0.63226 0.0
C1368 C 0.64028 0.76171 0.62889 0.0
C1369 C 0.64713 0.76999 0.63965 0.0
N1370 N 0.65611 0.77595 0.61783 0.0
N1371 N 0.64611 0.76562 0.6159 0.0
C1372 C 0.66654 0.79073 0.63861 0.0
H1373 H 0.67071 0.79811 0.6299 0.0
H1374 H 0.67614 0.7857 0.64415 0.0
H1375 H 0.6603 0.79711 0.6469 0.0
C1376 C 0.7078 0.78252 0.592 0.0
N1377 N 0.69404 0.78794 0.59135 0.0
N1378 N 0.68592 0.78134 0.60132 0.0
C1379 C 0.69417 0.77141 0.6085 0.0
C1380 C 0.70837 0.77192 0.60296 0.0
C1381 C 0.71994 0.78701 0.5819 0.0
H1382 H 0.71686 0.78431 0.57043 0.0
H1383 H 0.72149 0.79905 0.58262 0.0
H1384 H 0.73045 0.78153 0.58472 0.0
O1385 O 0.66959 0.78951 0.56644 0.0
O1386 O 0.65623 0.7787 0.58367 0.0
H1387 H 0.67705 0.7566 0.61509 0.0
H1388 H 0.69524 0.75038 0.61964 0.0
C1389 C 0.68805 0.76017 0.61884 0.0
H1390 H 0.68697 0.7651 0.6299 0.0
H1391 H 0.64304 0.76146 0.60568 0.0
O1392 O 0.69859 0.80791 0.56288 0.0
C1393 C 0.65906 0.78112 0.57021 0.0
Co1394 Co 0.18622 0.69807 0.4188 0.0
Co1395 Co 0.16899 0.71365 0.39359 0.0
C1396 C 0.16861 0.68094 0.39752 0.0
O1397 O 0.17665 0.6812 0.40893 0.0
O1398 O 0.16497 0.69261 0.39083 0.0
C1399 C 0.19531 0.68132 0.44332 0.0
O1400 O 0.1814 0.67751 0.44344 0.0
C1401 C 0.16135 0.72026 0.36301 0.0
C1402 C 0.14504 0.738 0.36585 0.0
C1403 C 0.15169 0.72923 0.35535 0.0
N1404 N 0.16038 0.72359 0.37736 0.0
N1405 N 0.15072 0.73429 0.37896 0.0
C1406 C 0.17043 0.70795 0.35703 0.0
H1407 H 0.17492 0.70108 0.366 0.0
H1408 H 0.1798 0.7125 0.35075 0.0
H1409 H 0.16376 0.70113 0.34945 0.0
C1410 C 0.2108 0.71457 0.4049 0.0
N1411 N 0.19673 0.70999 0.40516 0.0
N1412 N 0.1894 0.7168 0.39474 0.0
C1413 C 0.19845 0.72608 0.38767 0.0
C1414 C 0.21239 0.72488 0.39376 0.0
C1415 C 0.22225 0.70963 0.41558 0.0
H1416 H 0.21966 0.71415 0.42659 0.0
H1417 H 0.22208 0.69748 0.41639 0.0
H1418 H 0.23337 0.71328 0.41222 0.0
O1419 O 0.1716 0.7102 0.42964 0.0
O1420 O 0.15964 0.72135 0.41158 0.0
H1421 H 0.18237 0.7416 0.38016 0.0
H1422 H 0.201 0.74681 0.3762 0.0
C1423 C 0.19332 0.7374 0.3769 0.0
H1424 H 0.19238 0.7323 0.36589 0.0
H1425 H 0.14765 0.73874 0.38906 0.0
O1426 O 0.19988 0.6901 0.4335 0.0
C1427 C 0.16178 0.71912 0.4252 0.0
Co1428 Co 0.54754 0.93151 0.67426 0.0
Co1429 Co 0.53153 0.91258 0.65064 0.0
C1430 C 0.56429 0.91406 0.65213 0.0
O1431 O 0.56411 0.92278 0.66305 0.0
O1432 O 0.55245 0.90922 0.64655 0.0
C1433 C 0.56578 0.95484 0.68567 0.0
O1434 O 0.57043 0.95643 0.67211 0.0
C1435 C 0.52358 0.90299 0.62101 0.0
C1436 C 0.50265 0.89138 0.62496 0.0
C1437 C 0.51236 0.89544 0.61397 0.0
N1438 N 0.52058 0.90335 0.63545 0.0
N1439 N 0.50814 0.89628 0.63776 0.0
C1440 C 0.53628 0.91082 0.61415 0.0
H1441 H 0.54031 0.91966 0.62151 0.0
H1442 H 0.53309 0.91557 0.6034 0.0
H1443 H 0.54535 0.9029 0.61235 0.0
C1444 C 0.529 0.95497 0.66054 0.0
N1445 N 0.53408 0.94107 0.66143 0.0
N1446 N 0.52755 0.93303 0.65134 0.0
C1447 C 0.5183 0.94159 0.6436 0.0
C1448 C 0.51905 0.95575 0.64907 0.0
C1449 C 0.5333 0.96714 0.67067 0.0
H1450 H 0.5337 0.96305 0.68213 0.0
H1451 H 0.5444 0.9711 0.66764 0.0
H1452 H 0.52553 0.9765 0.66993 0.0
O1453 O 0.53699 0.91655 0.68609 0.0
O1454 O 0.5256 0.90316 0.66928 0.0
H1455 H 0.50224 0.92619 0.63599 0.0
H1456 H 0.49977 0.9445 0.62891 0.0
C1457 C 0.50804 0.9361 0.63199 0.0
H1458 H 0.51443 0.93312 0.62208 0.0
H1459 H 0.50326 0.89502 0.64805 0.0
O1460 O 0.55605 0.94529 0.68858 0.0
C1461 C 0.52855 0.90597 0.68264 0.0
Co1462 Co 0.31597 0.29892 0.92133 0.0
Co1463 Co 0.33492 0.28504 0.89637 0.0
C1464 C 0.3333 0.31763 0.90105 0.0
O1465 O 0.32483 0.31652 0.91209 0.0
O1466 O 0.33788 0.30635 0.89423 0.0
C1467 C 0.29384 0.31698 0.93514 0.0
O1468 O 0.29404 0.32463 0.92292 0.0
C1469 C 0.34297 0.27905 0.86573 0.0
C1470 C 0.36003 0.26201 0.86844 0.0
C1471 C 0.35278 0.27033 0.85798 0.0
N1472 N 0.34436 0.27595 0.88009 0.0
N1473 N 0.35454 0.26573 0.88163 0.0
C1474 C 0.33319 0.29084 0.85978 0.0
H1475 H 0.32928 0.29815 0.86867 0.0
H1476 H 0.32345 0.28578 0.85454 0.0
H1477 H 0.33909 0.29732 0.85131 0.0
C1478 C 0.29287 0.28107 0.9066 0.0
N1479 N 0.30654 0.28668 0.90725 0.0
N1480 N 0.31464 0.28053 0.89698 0.0
C1481 C 0.30645 0.27067 0.88961 0.0
C1482 C 0.29232 0.2708 0.89534 0.0
C1483 C 0.28083 0.28495 0.91708 0.0
H1484 H 0.2842 0.28197 0.92839 0.0
H1485 H 0.27898 0.29697 0.91676 0.0
H1486 H 0.2704 0.27932 0.91429 0.0
O1487 O 0.33096 0.28732 0.93211 0.0
O1488 O 0.3445 0.27759 0.91438 0.0
H1489 H 0.32376 0.25632 0.88249 0.0
H1490 H 0.30562 0.24979 0.87819 0.0
C1491 C 0.31262 0.25971 0.879 0.0
H1492 H 0.31337 0.2648 0.86798 0.0
H1493 H 0.35791 0.26146 0.89171 0.0
O1494 O 0.30195 0.30569 0.93634 0.0
C1495 C 0.34162 0.27929 0.92795 0.0
Co1496 Co 0.44919 0.56547 0.67058 0.0
Co1497 Co 0.46582 0.58257 0.64604 0.0
C1498 C 0.4331 0.58318 0.64815 0.0
O1499 O 0.43299 0.57481 0.65934 0.0
O1500 O 0.44509 0.5871 0.64217 0.0
C1501 C 0.43047 0.54321 0.68406 0.0
O1502 O 0.42608 0.53967 0.6708 0.0
C1503 C 0.47386 0.59113 0.61608 0.0
C1504 C 0.49557 0.60137 0.61956 0.0
C1505 C 0.4854 0.5979 0.60879 0.0
N1506 N 0.4771 0.59064 0.63046 0.0
N1507 N 0.49004 0.59688 0.63248 0.0
C1508 C 0.4605 0.58417 0.60953 0.0
H1509 H 0.45614 0.57553 0.61693 0.0
H1510 H 0.46309 0.57934 0.59865 0.0
H1511 H 0.4519 0.59266 0.60805 0.0
C1512 C 0.46655 0.54059 0.65777 0.0
N1513 N 0.46188 0.55465 0.65796 0.0
N1514 N 0.46858 0.56194 0.64741 0.0
C1515 C 0.47745 0.55272 0.64002 0.0
C1516 C 0.47635 0.53888 0.64624 0.0
C1517 C 0.46222 0.5292 0.66877 0.0
H1518 H 0.46176 0.53413 0.67989 0.0
H1519 H 0.45114 0.525 0.66598 0.0
H1520 H 0.46996 0.5198 0.66877 0.0
O1521 O 0.46083 0.58015 0.68163 0.0
O1522 O 0.47268 0.59228 0.66421 0.0
H1523 H 0.49448 0.56689 0.63221 0.0
H1524 H 0.49563 0.54847 0.62515 0.0
C1525 C 0.48797 0.5574 0.62829 0.0
H1526 H 0.48171 0.56083 0.61844 0.0
H1527 H 0.49516 0.59791 0.64268 0.0
O1528 O 0.4401 0.55313 0.68583 0.0
C1529 C 0.46983 0.59008 0.67769 0.0
Co1530 Co 0.81515 0.20165 0.07459 0.0
Co1531 Co 0.83213 0.21737 0.09985 0.0
C1532 C 0.83233 0.18465 0.0966 0.0
O1533 O 0.82435 0.18497 0.08514 0.0
O1534 O 0.83606 0.19637 0.10321 0.0
C1535 C 0.79468 0.18188 0.06041 0.0
O1536 O 0.79493 0.17438 0.07272 0.0
C1537 C 0.84078 0.22486 0.13001 0.0
C1538 C 0.85602 0.24331 0.126 0.0
C1539 C 0.85042 0.23437 0.13693 0.0
N1540 N 0.84074 0.22801 0.1156 0.0
N1541 N 0.84974 0.23917 0.11332 0.0
C1542 C 0.8329 0.21211 0.13669 0.0
H1543 H 0.82568 0.20671 0.12849 0.0
H1544 H 0.82615 0.21588 0.14609 0.0
H1545 H 0.84103 0.20409 0.14092 0.0
C1546 C 0.79064 0.21921 0.0874 0.0
N1547 N 0.80454 0.21413 0.08765 0.0
N1548 N 0.81175 0.22076 0.09826 0.0
C1549 C 0.80276 0.23031 0.10505 0.0
C1550 C 0.78902 0.22962 0.09845 0.0
C1551 C 0.7794 0.21463 0.07634 0.0
H1552 H 0.78328 0.21758 0.06518 0.0
H1553 H 0.77808 0.20254 0.07676 0.0
H1554 H 0.76859 0.21984 0.07844 0.0
O1555 O 0.83019 0.21319 0.06379 0.0
O1556 O 0.84192 0.22445 0.08187 0.0
H1557 H 0.81832 0.24634 0.1124 0.0
H1558 H 0.79976 0.25014 0.11803 0.0
C1559 C 0.8079 0.2413 0.11616 0.0
H1560 H 0.81006 0.23559 0.12669 0.0
H1561 H 0.85201 0.2436 0.103 0.0
O1562 O 0.8021 0.19364 0.05934 0.0
C1563 C 0.84007 0.22199 0.06826 0.0
Co1564 Co 0.54717 0.06655 0.82461 0.0
Co1565 Co 0.53116 0.08304 0.84999 0.0
C1566 C 0.56401 0.08307 0.84708 0.0
O1567 O 0.56389 0.07495 0.83572 0.0
O1568 O 0.55213 0.08707 0.85321 0.0
C1569 C 0.56559 0.04484 0.81032 0.0
O1570 O 0.5708 0.04188 0.82343 0.0
C1571 C 0.52391 0.08988 0.8807 0.0
C1572 C 0.5058 0.10577 0.87787 0.0
C1573 C 0.51452 0.09909 0.88838 0.0
N1574 N 0.52086 0.0911 0.8663 0.0
N1575 N 0.50995 0.10053 0.86471 0.0
C1576 C 0.53632 0.08098 0.88676 0.0
H1577 H 0.54348 0.07682 0.87785 0.0
H1578 H 0.53187 0.0714 0.8928 0.0
H1579 H 0.54282 0.08767 0.8946 0.0
C1580 C 0.52923 0.04172 0.83666 0.0
N1581 N 0.53443 0.05558 0.83717 0.0
N1582 N 0.52781 0.06265 0.84792 0.0
C1583 C 0.51822 0.05358 0.85454 0.0
C1584 C 0.51889 0.03996 0.84775 0.0
C1585 C 0.53362 0.03064 0.82536 0.0
H1586 H 0.53269 0.03553 0.81425 0.0
H1587 H 0.54525 0.02756 0.82715 0.0
H1588 H 0.52685 0.02055 0.826 0.0
O1589 O 0.53573 0.08207 0.81429 0.0
O1590 O 0.5238 0.09317 0.83236 0.0
H1591 H 0.50255 0.06932 0.86237 0.0
H1592 H 0.49792 0.05063 0.86674 0.0
C1593 C 0.50711 0.05853 0.86562 0.0
H1594 H 0.51254 0.05975 0.87644 0.0
H1595 H 0.50561 0.1037 0.8546 0.0
O1596 O 0.55551 0.05435 0.80882 0.0
C1597 C 0.52662 0.09168 0.81877 0.0
Co1598 Co 0.94996 0.93252 0.32562 0.0
Co1599 Co 0.96722 0.91738 0.35109 0.0
C1600 C 0.93445 0.91597 0.34918 0.0
O1601 O 0.93382 0.92355 0.33745 0.0
O1602 O 0.94665 0.9128 0.35513 0.0
C1603 C 0.93126 0.9544 0.31213 0.0
O1604 O 0.9274 0.95793 0.32557 0.0
C1605 C 0.97538 0.91031 0.38152 0.0
C1606 C 0.99467 0.89603 0.378 0.0
C1607 C 0.98546 0.9015 0.38879 0.0
N1608 N 0.97849 0.90999 0.36709 0.0
N1609 N 0.99014 0.90157 0.3651 0.0
C1610 C 0.96228 0.91786 0.38796 0.0
H1611 H 0.95558 0.92314 0.37929 0.0
H1612 H 0.96592 0.92651 0.39569 0.0
H1613 H 0.95555 0.90985 0.39419 0.0
C1614 C 0.96741 0.95834 0.3368 0.0
N1615 N 0.96278 0.94426 0.33755 0.0
N1616 N 0.96958 0.93776 0.34854 0.0
C1617 C 0.97842 0.94746 0.35527 0.0
C1618 C 0.97723 0.96084 0.34818 0.0
C1619 C 0.9632 0.96894 0.325 0.0
H1620 H 0.96245 0.96319 0.3143 0.0
H1621 H 0.95231 0.97369 0.32762 0.0
H1622 H 0.97121 0.97808 0.32418 0.0
O1623 O 0.96152 0.91714 0.31523 0.0
O1624 O 0.97412 0.90699 0.3334 0.0
H1625 H 0.99529 0.93361 0.36403 0.0
H1626 H 0.99687 0.95256 0.36952 0.0
C1627 C 0.98902 0.94354 0.36721 0.0
H1628 H 0.98283 0.94105 0.37738 0.0
H1629 H 0.99466 0.89916 0.35486 0.0
O1630 O 0.94065 0.94431 0.31003 0.0
C1631 C 0.97095 0.9079 0.31984 0.0
C1632 C 0.04547 0.15689 0.27285 0.0
C1633 C 0.06003 0.15791 0.2678 0.0
C1634 C 0.03461 0.15047 0.26407 0.0
C1635 C 0.02471 0.14438 0.2261 0.0
H1636 H 0.00227 0.11073 0.23931 0.0
C1637 C 0.99204 0.10884 0.18563 0.0
C1638 C 0.97922 0.1017 0.19034 0.0
C1639 C 0.00074 0.11662 0.19555 0.0
C1640 C 0.00818 0.12031 0.23552 0.0
H1641 H 0.07459 0.15305 0.24958 0.0
H1642 H 0.05556 0.14221 0.23417 0.0
H1643 H 0.0195 0.12263 0.25606 0.0
H1644 H 0.96519 0.09754 0.20911 0.0
H1645 H 0.98006 0.11163 0.22635 0.0
H1646 H 0.01334 0.14243 0.20572 0.0
C1647 C 0.05261 0.14625 0.24496 0.0
C1648 C 0.0181 0.12705 0.24511 0.0
C1649 C 0.0635 0.15237 0.25382 0.0
C1650 C 0.97507 0.10285 0.20515 0.0
C1651 C 0.98367 0.11085 0.21506 0.0
C1652 C 0.01462 0.13785 0.2166 0.0
C1653 C 0.03809 0.14528 0.24998 0.0
C1654 C 0.02665 0.13894 0.24037 0.0
C1655 C 0.99673 0.1177 0.21043 0.0
C1656 C 0.00644 0.1255 0.22105 0.0
H1657 H 0.04248 0.16104 0.28358 0.0
H1658 H 0.02346 0.14983 0.26814 0.0
H1659 H 0.03107 0.15367 0.22228 0.0
H1660 H 0.99565 0.10806 0.17432 0.0
H1661 H 0.01085 0.12143 0.19156 0.0
C1662 C 0.14646 0.74093 0.43163 0.0
C1663 C 0.15336 0.72786 0.43601 0.0
C1664 C 0.13932 0.74981 0.44186 0.0
C1665 C 0.1368 0.75693 0.48206 0.0
H1666 H 0.10367 0.78071 0.46985 0.0
C1667 C 0.09986 0.79304 0.52037 0.0
C1668 C 0.09888 0.80779 0.51591 0.0
C1669 C 0.10669 0.78262 0.51138 0.0
C1670 C 0.11293 0.77413 0.47337 0.0
H1671 H 0.15782 0.71363 0.45454 0.0
H1672 H 0.14477 0.72879 0.47236 0.0
H1673 H 0.11427 0.7631 0.45277 0.0
H1674 H 0.10439 0.82319 0.49859 0.0
H1675 H 0.11593 0.80488 0.48276 0.0
H1676 H 0.13498 0.76782 0.50289 0.0
C1677 C 0.14527 0.73246 0.46107 0.0
C1678 C 0.1191 0.76409 0.46357 0.0
C1679 C 0.15266 0.72368 0.45084 0.0
C1680 C 0.10503 0.81193 0.50238 0.0
C1681 C 0.11156 0.80147 0.49328 0.0
C1682 C 0.13041 0.76678 0.49197 0.0
C1683 C 0.13862 0.74574 0.45675 0.0
C1684 C 0.13132 0.75555 0.46766 0.0
C1685 C 0.11234 0.78672 0.49765 0.0
C1686 C 0.11859 0.77563 0.4876 0.0
H1687 H 0.14693 0.74458 0.42032 0.0
H1688 H 0.13468 0.76008 0.43809 0.0
H1689 H 0.14631 0.75073 0.48559 0.0
H1690 H 0.09524 0.78954 0.53075 0.0
H1691 H 0.10716 0.77128 0.51494 0.0
C1692 C 0.52191 0.90202 0.70908 0.0
C1693 C 0.52119 0.89741 0.69436 0.0
C1694 C 0.51376 0.89483 0.71991 0.0
C1695 C 0.49359 0.86063 0.72825 0.0
H1696 H 0.47014 0.88559 0.75357 0.0
C1697 C 0.45507 0.83718 0.77302 0.0
C1698 C 0.44074 0.84295 0.77292 0.0
C1699 C 0.46622 0.84386 0.76484 0.0
C1700 C 0.47665 0.87848 0.7466 0.0
H1701 H 0.51179 0.88122 0.67963 0.0
H1702 H 0.49765 0.86867 0.69853 0.0
H1703 H 0.48757 0.89666 0.73648 0.0
H1704 H 0.42704 0.86054 0.76451 0.0
H1705 H 0.4465 0.87219 0.75036 0.0
H1706 H 0.48237 0.84247 0.73812 0.0
C1707 C 0.50454 0.87783 0.70169 0.0
C1708 C 0.48672 0.8848 0.73692 0.0
C1709 C 0.51259 0.88509 0.69084 0.0
C1710 C 0.43794 0.85578 0.76482 0.0
C1711 C 0.44911 0.86252 0.75677 0.0
C1712 C 0.4836 0.8543 0.73803 0.0
C1713 C 0.50482 0.88279 0.71629 0.0
C1714 C 0.49513 0.87596 0.72747 0.0
C1715 C 0.46332 0.85653 0.75654 0.0
C1716 C 0.47485 0.86317 0.74713 0.0
H1717 H 0.52844 0.91146 0.7122 0.0
H1718 H 0.51431 0.89879 0.7311 0.0
H1719 H 0.5 0.85353 0.72118 0.0
H1720 H 0.45761 0.82731 0.77913 0.0
H1721 H 0.47711 0.83907 0.76496 0.0
C1722 C 0.40741 0.20419 0.01929 0.0
C1723 C 0.40276 0.18947 0.0189 0.0
C1724 C 0.40092 0.21468 0.01015 0.0
C1725 C 0.38029 0.21751 0.97545 0.0
H1726 H 0.37231 0.25729 0.9883 0.0
C1727 C 0.36191 0.2619 0.93461 0.0
C1728 C 0.35016 0.27091 0.93899 0.0
C1729 C 0.36904 0.25289 0.94476 0.0
C1730 C 0.37442 0.24621 0.98457 0.0
H1731 H 0.38721 0.17439 0.00895 0.0
H1732 H 0.37579 0.1927 0.99323 0.0
H1733 H 0.38251 0.23953 0.00562 0.0
H1734 H 0.33708 0.27788 0.95765 0.0
H1735 H 0.34944 0.26204 0.9753 0.0
H1736 H 0.37191 0.22401 0.95453 0.0
C1737 C 0.38466 0.19608 0.00038 0.0
C1738 C 0.38038 0.23607 0.99445 0.0
C1739 C 0.39116 0.1856 0.00948 0.0
C1740 C 0.34609 0.27109 0.95388 0.0
C1741 C 0.35322 0.26205 0.96403 0.0
C1742 C 0.37435 0.22762 0.96559 0.0
C1743 C 0.38961 0.2107 0.00043 0.0
C1744 C 0.38332 0.22158 0.99002 0.0
C1745 C 0.3646 0.25264 0.95953 0.0
C1746 C 0.37132 0.24209 0.97002 0.0
H1747 H 0.41633 0.20756 0.02639 0.0
H1748 H 0.40506 0.22582 0.01039 0.0
H1749 H 0.38261 0.2065 0.9716 0.0
H1750 H 0.36542 0.26156 0.92326 0.0
H1751 H 0.37796 0.24599 0.94099 0.0
C1752 C 0.06148 0.8463 0.24547 0.0
C1753 C 0.05808 0.84073 0.23149 0.0
C1754 C 0.05055 0.85246 0.25426 0.0
C1755 C 0.01618 0.87182 0.25394 0.0
H1756 H 0.01157 0.85683 0.29351 0.0
C1757 C 0.97437 0.89728 0.29459 0.0
C1758 C 0.97902 0.89858 0.30924 0.0
C1759 C 0.98253 0.88898 0.28453 0.0
C1760 C 0.01279 0.86128 0.28256 0.0
H1761 H 0.04061 0.83755 0.21563 0.0
H1762 H 0.02151 0.84883 0.23095 0.0
H1763 H 0.02894 0.84515 0.27686 0.0
H1764 H 0.99588 0.89218 0.32481 0.0
H1765 H 0.01026 0.87828 0.30732 0.0
H1766 H 0.00066 0.88845 0.2598 0.0
C1767 C 0.03264 0.84819 0.23508 0.0
C1768 C 0.02267 0.85451 0.27301 0.0
C1769 C 0.04354 0.84173 0.22637 0.0
C1770 C 0.99189 0.89131 0.31364 0.0
C1771 C 0.00011 0.88321 0.30358 0.0
C1772 C 0.00645 0.87879 0.26359 0.0
C1773 C 0.03605 0.85342 0.24916 0.0
C1774 C 0.02461 0.85985 0.25871 0.0
C1775 C 0.99559 0.88195 0.28887 0.0
C1776 C 0.00483 0.87377 0.27812 0.0
H1777 H 0.07255 0.84564 0.24977 0.0
H1778 H 0.05345 0.85654 0.26504 0.0
H1779 H 0.01756 0.87616 0.24296 0.0
H1780 H 0.96446 0.90269 0.29087 0.0
H1781 H 0.97857 0.8881 0.27336 0.0
C1782 C 0.34432 0.72852 0.54116 0.0
C1783 C 0.34816 0.72921 0.5561 0.0
C1784 C 0.3515 0.73733 0.53084 0.0
C1785 C 0.37214 0.772 0.52872 0.0
H1786 H 0.38157 0.75922 0.48924 0.0
C1787 C 0.38983 0.8133 0.48473 0.0
C1788 C 0.40196 0.8095 0.47598 0.0
C1789 C 0.38301 0.80282 0.49358 0.0
C1790 C 0.37907 0.76292 0.50025 0.0
H1791 H 0.36309 0.7392 0.57175 0.0
H1792 H 0.3757 0.75436 0.55377 0.0
H1793 H 0.3711 0.74174 0.50673 0.0
H1794 H 0.41607 0.79152 0.46927 0.0
H1795 H 0.40421 0.77323 0.48487 0.0
H1796 H 0.38028 0.79306 0.52243 0.0
C1797 C 0.36692 0.74725 0.55007 0.0
C1798 C 0.37296 0.75295 0.51023 0.0
C1799 C 0.35973 0.73848 0.56037 0.0
C1800 C 0.40675 0.79482 0.47587 0.0
C1801 C 0.39993 0.78432 0.48478 0.0
C1802 C 0.37821 0.78194 0.51878 0.0
C1803 C 0.3627 0.74701 0.53523 0.0
C1804 C 0.36944 0.75739 0.52459 0.0
C1805 C 0.38817 0.78829 0.49396 0.0
C1806 C 0.3817 0.77755 0.50441 0.0
H1807 H 0.33545 0.7215 0.53748 0.0
H1808 H 0.34791 0.73696 0.51952 0.0
H1809 H 0.36937 0.77586 0.53962 0.0
H1810 H 0.38574 0.82446 0.485 0.0
H1811 H 0.37377 0.80617 0.50029 0.0
C1812 C 0.45255 0.15469 0.72462 0.0
C1813 C 0.43767 0.15468 0.7287 0.0
C1814 C 0.46303 0.14758 0.73333 0.0
C1815 C 0.46623 0.1206 0.76412 0.0
H1816 H 0.505 0.13759 0.76875 0.0
C1817 C 0.5046 0.10656 0.81206 0.0
C1818 C 0.51811 0.10032 0.80797 0.0
C1819 C 0.49567 0.11333 0.80162 0.0
C1820 C 0.49423 0.13272 0.76744 0.0
H1821 H 0.42215 0.14742 0.74523 0.0
H1822 H 0.44034 0.13564 0.76064 0.0
H1823 H 0.48747 0.14893 0.75186 0.0
H1824 H 0.53316 0.09689 0.78983 0.0
H1825 H 0.51762 0.10925 0.7716 0.0
H1826 H 0.47285 0.10485 0.78028 0.0
C1827 C 0.44397 0.14061 0.75048 0.0
C1828 C 0.4842 0.13912 0.75772 0.0
C1829 C 0.4335 0.14747 0.74167 0.0
C1830 C 0.52279 0.10157 0.7933 0.0
C1831 C 0.51395 0.10864 0.7829 0.0
C1832 C 0.47614 0.11442 0.77402 0.0
C1833 C 0.45889 0.1405 0.74644 0.0
C1834 C 0.46998 0.13324 0.75606 0.0
C1835 C 0.5002 0.11427 0.78695 0.0
C1836 C 0.49015 0.1205 0.77586 0.0
H1837 H 0.45609 0.1601 0.71465 0.0
H1838 H 0.47435 0.14756 0.72972 0.0
H1839 H 0.45558 0.11547 0.76287 0.0
H1840 H 0.50063 0.10574 0.82324 0.0
H1841 H 0.48512 0.11768 0.80498 0.0
C1842 C 0.1067 0.18227 0.99408 0.0
C1843 C 0.09974 0.1869 0.98113 0.0
C1844 C 0.11411 0.19231 0.00296 0.0
C1845 C 0.11739 0.23249 0.01015 0.0
H1846 H 0.15061 0.21979 0.03356 0.0
C1847 C 0.15466 0.27083 0.04558 0.0
C1848 C 0.15569 0.2665 0.06036 0.0
C1849 C 0.14797 0.26164 0.03524 0.0
C1850 C 0.14133 0.22346 0.02707 0.0
H1851 H 0.09549 0.20562 0.96709 0.0
H1852 H 0.10901 0.22306 0.98221 0.0
H1853 H 0.13943 0.20279 0.01621 0.0
H1854 H 0.15057 0.24916 0.07587 0.0
H1855 H 0.13928 0.233 0.05771 0.0
H1856 H 0.11974 0.25335 0.02087 0.0
C1857 C 0.10833 0.21176 0.98582 0.0
C1858 C 0.13483 0.2137 0.01719 0.0
C1859 C 0.10066 0.20174 0.97707 0.0
C1860 C 0.14988 0.25285 0.06459 0.0
C1861 C 0.1435 0.24356 0.05421 0.0
C1862 C 0.12411 0.24234 0.01983 0.0
C1863 C 0.11502 0.20723 -0.00101 0.0
C1864 C 0.12259 0.21798 0.00877 0.0
C1865 C 0.14252 0.24786 0.03946 0.0
C1866 C 0.13597 0.23781 0.02853 0.0
H1867 H 0.10605 0.17092 0.9976 0.0
H1868 H 0.1188 0.18839 0.01315 0.0
H1869 H 0.10787 0.23618 0.00408 0.0
H1870 H 0.15902 0.2813 0.04202 0.0
H1871 H 0.14734 0.26515 0.0239 0.0
C1872 C 0.27162 0.04594 0.14716 0.0
C1873 C 0.26721 0.06064 0.14897 0.0
C1874 C 0.26266 0.03599 0.13963 0.0
C1875 C 0.22447 0.02856 0.13256 0.0
H1876 H 0.23712 0.00497 0.09948 0.0
C1877 C 0.18293 0.99567 0.09869 0.0
C1878 C 0.18715 0.98219 0.09251 0.0
C1879 C 0.19324 0.0047 0.10549 0.0
C1880 C 0.23346 0.01126 0.10887 0.0
H1881 H 0.25009 0.07646 0.14405 0.0
H1882 H 0.23434 0.05898 0.13123 0.0
H1883 H 0.25446 0.02173 0.11129 0.0
H1884 H 0.20552 0.96754 0.08873 0.0
H1885 H 0.2235 0.98307 0.10118 0.0
H1886 H 0.2037 0.01793 0.13065 0.0
C1887 C 0.24477 0.05524 0.13555 0.0
C1888 C 0.24339 0.02091 0.11555 0.0
C1889 C 0.25383 0.06524 0.14281 0.0
C1890 C 0.20194 0.9779 0.09336 0.0
C1891 C 0.21226 0.98686 0.10041 0.0
C1892 C 0.21465 0.01875 0.1261 0.0
C1893 C 0.24903 0.04051 0.13405 0.0
C1894 C 0.23888 0.0298 0.12729 0.0
C1895 C 0.20804 0.0004 0.10656 0.0
C1896 C 0.21891 0.01014 0.11399 0.0
H1897 H 0.28189 0.04208 0.15175 0.0
H1898 H 0.26614 0.02467 0.13862 0.0
H1899 H 0.22083 0.03514 0.14177 0.0
H1900 H 0.17166 -0.00059 0.09804 0.0
H1901 H 0.18958 0.01519 0.10971 0.0
C1902 C 0.18651 0.0035 0.39544 0.0
C1903 C 0.19009 0.01728 0.40138 0.0
C1904 C 0.19735 0.99472 0.3891 0.0
C1905 C 0.23165 0.99435 0.36994 0.0
H1906 H 0.23726 0.95574 0.38695 0.0
C1907 C 0.2748 0.95368 0.34684 0.0
C1908 C 0.27078 0.93879 0.34655 0.0
C1909 C 0.26622 0.96393 0.35444 0.0
C1910 C 0.23574 0.96639 0.38191 0.0
H1911 H 0.20774 0.03289 0.40486 0.0
H1912 H 0.22666 0.01761 0.39325 0.0
H1913 H 0.21942 0.9725 0.39771 0.0
H1914 H 0.25455 0.92301 0.35393 0.0
H1915 H 0.23939 0.94077 0.36657 0.0
H1916 H 0.24733 0.98807 0.35364 0.0
C1917 C 0.21547 0.01362 0.39376 0.0
C1918 C 0.22559 0.97601 0.38817 0.0
C1919 C 0.20467 0.0223 0.40041 0.0
C1920 C 0.25807 0.93436 0.35407 0.0
C1921 C 0.2494 0.94459 0.36144 0.0
C1922 C 0.24162 0.98461 0.36346 0.0
C1923 C 0.21191 -0.00033 0.3883 0.0
C1924 C 0.22335 0.98998 0.38214 0.0
C1925 C 0.25331 0.95953 0.36173 0.0
C1926 C 0.24364 0.9704 0.36924 0.0
H1927 H 0.17541 -0.00071 0.39607 0.0
H1928 H 0.19437 0.98401 0.38488 0.0
H1929 H 0.23003 0.00509 0.3651 0.0
H1930 H 0.28457 0.95743 0.34119 0.0
H1931 H 0.26972 0.97528 0.3546 0.0
C1932 C 0.31353 0.00893 0.60698 0.0
C1933 C 0.30887 0.01834 0.59567 0.0
C1934 C 0.30346 -2e-05 0.61431 0.0
C1935 C 0.26362 0.99428 0.62094 0.0
H1936 H 0.27605 0.95444 0.62929 0.0
C1937 C 0.22895 0.95392 0.65567 0.0
C1938 C 0.22912 0.939 0.65171 0.0
C1939 C 0.23807 0.96399 0.64855 0.0
C1940 C 0.27233 0.96548 0.6269 0.0
H1941 H 0.28989 0.02597 0.58346 0.0
H1942 H 0.2724 0.01018 0.59605 0.0
H1943 H 0.29311 0.97142 0.61781 0.0
H1944 H 0.23862 0.92309 0.63673 0.0
H1945 H 0.25426 0.9407 0.62412 0.0
H1946 H 0.24267 0.98816 0.62966 0.0
C1947 C 0.28379 0.00987 0.59942 0.0
C1948 C 0.28221 0.9753 0.62052 0.0
C1949 C 0.29385 0.01888 0.59215 0.0
C1950 C 0.23827 0.93448 0.64014 0.0
C1951 C 0.24733 0.94456 0.63297 0.0
C1952 C 0.2537 0.98442 0.62728 0.0
C1953 C 0.28851 0.00015 0.61044 0.0
C1954 C 0.27799 0.98983 0.61748 0.0
C1955 C 0.24753 0.95939 0.63726 0.0
C1956 C 0.25794 0.96989 0.63032 0.0
H1957 H 0.325 0.0083 0.61006 0.0
H1958 H 0.30742 0.99285 0.62295 0.0
H1959 H 0.26004 0.00542 0.61886 0.0
H1960 H 0.22207 0.95778 0.66457 0.0
H1961 H 0.23804 0.97529 0.65223 0.0
C1962 C 0.22232 0.04313 0.84978 0.0
C1963 C 0.22701 0.05779 0.84874 0.0
C1964 C 0.23054 0.03285 0.85772 0.0
C1965 C 0.26154 0.02996 0.88455 0.0
H1966 H 0.26541 0.99068 0.86857 0.0
C1967 C 0.31014 0.99184 0.89697 0.0
C1968 C 0.30655 0.97825 0.90334 0.0
C1969 C 0.29923 0.00073 0.89095 0.0
C1970 C 0.26428 0.00158 0.8732 0.0
H1971 H 0.24397 0.07317 0.85528 0.0
H1972 H 0.25851 0.0553 0.86854 0.0
H1973 H 0.24838 0.00802 0.85719 0.0
H1974 H 0.28875 0.96311 0.90794 0.0
H1975 H 0.26965 0.9786 0.89686 0.0
H1976 H 0.2781 0.02367 0.90002 0.0
C1977 C 0.24827 0.05171 0.86369 0.0
C1978 C 0.25448 0.01151 0.86677 0.0
C1979 C 0.23996 0.062 0.85598 0.0
C1980 C 0.29184 0.97353 0.90313 0.0
C1981 C 0.28094 0.98234 0.8968 0.0
C1982 C 0.27151 0.02014 0.89077 0.0
C1983 C 0.24375 0.03697 0.86461 0.0
C1984 C 0.25315 0.02593 0.87222 0.0
C1985 C 0.28455 0.99612 0.89092 0.0
C1986 C 0.2731 0.00595 0.88503 0.0
H1987 H 0.21234 0.03956 0.8444 0.0
H1988 H 0.22656 0.02168 0.85838 0.0
H1989 H 0.26056 0.0408 0.88933 0.0
H1990 H 0.32134 0.99583 0.89702 0.0
H1991 H 0.30225 0.01129 0.88637 0.0
C1992 C 0.5969 0.29144 0.02494 0.0
C1993 C 0.60162 0.30611 0.02395 0.0
C1994 C 0.60402 0.2804 0.01702 0.0
C1995 C 0.6379 0.27144 0.99639 0.0
H1996 H 0.61218 0.24586 0.97411 0.0
C1997 C 0.66003 0.22613 0.95759 0.0
C1998 C 0.6537 0.22607 0.94351 0.0
C1999 C 0.65378 0.23444 0.96891 0.0
C2000 C 0.6195 0.25289 0.98029 0.0
H2001 H 0.61798 0.32053 0.01435 0.0
H2002 H 0.63036 0.30125 0.00052 0.0
H2003 H 0.60168 0.26331 0.99147 0.0
H2004 H 0.63556 0.23431 0.93043 0.0
H2005 H 0.62468 0.24867 0.95013 0.0
H2006 H 0.6557 0.2613 0.98483 0.0
C2007 C 0.62119 0.29829 0.00748 0.0
C2008 C 0.61351 0.26279 0.99034 0.0
C2009 C 0.61403 0.30936 0.01536 0.0
C2010 C 0.64074 0.23412 0.94113 0.0
C2011 C 0.63444 0.2423 0.95245 0.0
C2012 C 0.64391 0.26146 0.98639 0.0
C2013 C 0.61606 0.28375 0.00798 0.0
C2014 C 0.62262 0.27235 0.99833 0.0
C2015 C 0.64099 0.24271 0.96641 0.0
C2016 C 0.63475 0.25226 0.97805 0.0
H2017 H 0.58743 0.28851 0.0315 0.0
H2018 H 0.59994 0.26925 0.01778 0.0
H2019 H 0.64521 0.27858 0.00248 0.0
H2020 H 0.67002 0.22007 0.9598 0.0
H2021 H 0.65899 0.23446 0.97959 0.0
C2022 C 0.02038 0.403 0.20738 0.0
C2023 C 0.01924 0.39868 0.1926 0.0
C2024 C 0.01213 0.39596 0.21822 0.0
C2025 C 0.99123 0.36236 0.2266 0.0
H2026 H 0.9694 0.38757 0.25309 0.0
C2027 C 0.95489 0.33931 0.27325 0.0
C2028 C 0.94058 0.34511 0.2738 0.0
C2029 C 0.96566 0.34595 0.26455 0.0
C2030 C 0.97545 0.3804 0.24579 0.0
H2031 H 0.00892 0.38318 0.17774 0.0
H2032 H 0.99459 0.37086 0.19672 0.0
H2033 H 0.98628 0.39843 0.23532 0.0
H2034 H 0.92655 0.36274 0.26606 0.0
H2035 H 0.94537 0.37436 0.25103 0.0
H2036 H 0.98016 0.34434 0.23689 0.0
C2037 C 0.00189 0.37969 0.19988 0.0
C2038 C 0.9852 0.3866 0.2357 0.0
C2039 C 0.01005 0.38681 0.18901 0.0
C2040 C 0.93744 0.35798 0.26588 0.0
C2041 C 0.94825 0.36468 0.25732 0.0
C2042 C 0.98158 0.35615 0.23678 0.0
C2043 C 0.00265 0.38437 0.21456 0.0
C2044 C 0.99306 0.37766 0.22588 0.0
C2045 C 0.96239 0.3586 0.25637 0.0
C2046 C 0.97345 0.36512 0.24635 0.0
H2047 H 0.02736 0.41208 0.21056 0.0
H2048 H 0.01306 0.39969 0.22947 0.0
H2049 H 0.99721 0.3552 0.21923 0.0
H2050 H 0.95768 0.3294 0.2792 0.0
H2051 H 0.97652 0.34111 0.26413 0.0
C2052 C 0.89932 0.70119 0.5232 0.0
C2053 C 0.89974 0.68628 0.51916 0.0
C2054 C 0.8918 0.71141 0.51452 0.0
C2055 C 0.8823 0.7184 0.47687 0.0
H2056 H 0.8505 0.74306 0.49075 0.0
C2057 C 0.84632 0.74993 0.43628 0.0
C2058 C 0.84081 0.7638 0.44014 0.0
C2059 C 0.85348 0.74122 0.44661 0.0
C2060 C 0.85954 0.73646 0.48674 0.0
H2061 H 0.89244 0.67041 0.50296 0.0
H2062 H 0.87968 0.68832 0.48768 0.0
H2063 H 0.86312 0.72664 0.50789 0.0
H2064 H 0.83845 0.77941 0.45793 0.0
H2065 H 0.85149 0.76438 0.47595 0.0
H2066 H 0.87921 0.72831 0.45591 0.0
C2067 C 0.88505 0.69202 0.49763 0.0
C2068 C 0.86669 0.72702 0.49655 0.0
C2069 C 0.8923 0.68179 0.50641 0.0
C2070 C 0.84255 0.76874 0.45465 0.0
C2071 C 0.84997 0.76009 0.46498 0.0
C2072 C 0.87538 0.72798 0.46715 0.0
C2073 C 0.88485 0.70692 0.50153 0.0
C2074 C 0.87792 0.71772 0.4916 0.0
C2075 C 0.8556 0.74622 0.46106 0.0
C2076 C 0.86367 0.73691 0.47184 0.0
H2077 H 0.90492 0.70497 0.53298 0.0
H2078 H 0.89179 0.72286 0.5177 0.0
H2079 H 0.89111 0.71147 0.47287 0.0
H2080 H 0.84497 0.74569 0.42525 0.0
H2081 H 0.85723 0.73046 0.44324 0.0
C2082 C 0.01172 0.61147 0.30748 0.0
C2083 C 0.02002 0.59884 0.30432 0.0
C2084 C 0.0036 0.61842 0.29648 0.0
C2085 C 0.98532 0.61065 0.26158 0.0
H2086 H 0.98235 0.65303 0.2588 0.0
C2087 C 0.93774 0.64028 0.2322 0.0
C2088 C 0.941 0.65287 0.22389 0.0
C2089 C 0.94864 0.63337 0.24049 0.0
C2090 C 0.98319 0.64118 0.25932 0.0
H2091 H 0.0266 0.58387 0.28698 0.0
H2092 H 0.01239 0.59601 0.26782 0.0
H2093 H -0.00045 0.64204 0.2762 0.0
H2094 H 0.9584 0.66782 0.21747 0.0
H2095 H 0.97742 0.65574 0.232 0.0
H2096 H 0.96883 0.60978 0.24485 0.0
C2097 C 0.0121 0.60045 0.27884 0.0
C2098 C 0.99293 0.63489 0.26938 0.0
C2099 C 0.0203 0.59355 0.28982 0.0
C2100 C 0.95551 0.65815 0.22375 0.0
C2101 C 0.96639 0.6513 0.23214 0.0
C2102 C 0.97552 0.61693 0.2516 0.0
C2103 C 0.00353 0.61285 0.28209 0.0
C2104 C 0.99398 0.61956 0.27073 0.0
C2105 C 0.96302 0.63894 0.24073 0.0
C2106 C 0.97423 0.63226 0.25048 0.0
H2107 H 0.01126 0.61585 0.31852 0.0
H2108 H 0.99699 0.62787 0.29935 0.0
H2109 H 0.9858 0.5988 0.26244 0.0
H2110 H 0.92669 0.6359 0.23256 0.0
H2111 H 0.94567 0.62395 0.2471 0.0
C2112 C 0.48477 0.38924 0.8094 0.0
C2113 C 0.47638 0.40166 0.80568 0.0
C2114 C 0.49319 0.38205 0.79878 0.0
C2115 C 0.51231 0.38915 0.76428 0.0
H2116 H 0.51523 0.34674 0.76194 0.0
C2117 C 0.56014 0.35888 0.73574 0.0
C2118 C 0.5567 0.34653 0.72716 0.0
C2119 C 0.54929 0.36589 0.74401 0.0
C2120 C 0.51442 0.3586 0.76237 0.0
H2121 H 0.46994 0.41596 0.78774 0.0
H2122 H 0.4847 0.40343 0.76926 0.0
H2123 H 0.4977 0.35794 0.77891 0.0
H2124 H 0.53905 0.33206 0.72029 0.0
H2125 H 0.52015 0.34428 0.73484 0.0
H2126 H 0.52919 0.38982 0.74792 0.0
C2127 C 0.4848 0.39933 0.78042 0.0
C2128 C 0.50449 0.365 0.77217 0.0
C2129 C 0.47628 0.40645 0.791 0.0
C2130 C 0.54208 0.34155 0.72677 0.0
C2131 C 0.53127 0.34848 0.73517 0.0
C2132 C 0.52234 0.38276 0.7546 0.0
C2133 C 0.49349 0.38719 0.78424 0.0
C2134 C 0.50341 0.38034 0.77329 0.0
C2135 C 0.5348 0.36062 0.74399 0.0
C2136 C 0.52357 0.36742 0.75362 0.0
H2137 H 0.4851 0.38525 0.82059 0.0
H2138 H 0.49987 0.37278 0.80206 0.0
H2139 H 0.51181 0.40101 0.76501 0.0
H2140 H 0.57128 0.36301 0.73629 0.0
H2141 H 0.55236 0.37516 0.7508 0.0
C2142 C 0.48673 0.61053 0.68505 0.0
C2143 C 0.47789 0.59851 0.68902 0.0
C2144 C 0.49531 0.6177 0.69555 0.0
C2145 C 0.51404 0.61091 0.73027 0.0
H2146 H 0.51772 0.65329 0.73196 0.0
C2147 C 0.56191 0.64074 0.75928 0.0
C2148 C 0.5584 0.65308 0.76786 0.0
C2149 C 0.55117 0.63391 0.75072 0.0
C2150 C 0.51671 0.64145 0.73169 0.0
H2151 H 0.47089 0.58484 0.70724 0.0
H2152 H 0.48598 0.59732 0.72551 0.0
H2153 H 0.50016 0.64214 0.71499 0.0
H2154 H 0.54078 0.66778 0.77433 0.0
H2155 H 0.52209 0.65588 0.75926 0.0
H2156 H 0.53076 0.61021 0.7468 0.0
C2157 C 0.48627 0.60114 0.71426 0.0
C2158 C 0.50676 0.63508 0.72191 0.0
C2159 C 0.47756 0.59406 0.7038 0.0
C2160 C 0.54386 0.65828 0.76787 0.0
C2161 C 0.53317 0.65154 0.75918 0.0
C2162 C 0.52411 0.61728 0.73993 0.0
C2163 C 0.49536 0.61291 0.7102 0.0
C2164 C 0.50538 0.61974 0.72106 0.0
C2165 C 0.53674 0.63935 0.75044 0.0
C2166 C 0.5256 0.63261 0.74068 0.0
H2167 H 0.48723 0.61425 0.67377 0.0
H2168 H 0.5023 0.62667 0.69209 0.0
H2169 H 0.51331 0.59906 0.72975 0.0
H2170 H 0.573 0.63645 0.75902 0.0
H2171 H 0.55427 0.6246 0.74399 0.0
C2172 C 0.85611 0.24326 0.0618 0.0
C2173 C 0.84896 0.2303 0.05749 0.0
C2174 C 0.86369 0.25176 0.05157 0.0
C2175 C 0.86694 0.25827 0.01139 0.0
H2176 H 0.90023 0.2817 0.02387 0.0
C2177 C 0.90435 0.29478 0.9737 0.0
C2178 C 0.90455 0.30957 0.97812 0.0
C2179 C 0.89777 0.28409 0.98257 0.0
C2180 C 0.89096 0.27517 0.02026 0.0
H2181 H 0.84452 0.21586 0.03912 0.0
H2182 H 0.85831 0.23038 0.02132 0.0
H2183 H 0.88927 0.26423 0.04088 0.0
H2184 H 0.89798 0.32475 0.99527 0.0
H2185 H 0.88692 0.306 0.0109 0.0
H2186 H 0.86907 0.26913 0.99057 0.0
C2187 C 0.85768 0.23423 0.03254 0.0
C2188 C 0.88458 0.26524 0.03002 0.0
C2189 C 0.84986 0.22584 0.04276 0.0
C2190 C 0.89795 0.31347 0.99151 0.0
C2191 C 0.89169 0.30276 0.0005 0.0
C2192 C 0.87355 0.26802 0.00152 0.0
C2193 C 0.86458 0.24741 0.03678 0.0
C2194 C 0.87225 0.25689 0.02585 0.0
C2195 C 0.89161 0.288 0.99614 0.0
C2196 C 0.88541 0.27675 0.006 0.0
H2197 H 0.8555 0.24711 0.07303 0.0
H2198 H 0.86851 0.26197 0.05526 0.0
H2199 H 0.85738 0.25221 0.00779 0.0
H2200 H 0.90933 0.29146 0.96342 0.0
H2201 H 0.89783 0.27274 0.97903 0.0
C2202 C 0.61038 0.6886 0.48719 0.0
C2203 C 0.59862 0.69243 0.47795 0.0
C2204 C 0.617 0.69911 0.49616 0.0
C2205 C 0.62116 0.73906 0.5024 0.0
H2206 H 0.62929 0.72663 0.54228 0.0
C2207 C 0.65494 0.77359 0.544 0.0
C2208 C 0.65062 0.77313 0.55881 0.0
C2209 C 0.64794 0.76477 0.53355 0.0
C2210 C 0.62696 0.73034 0.53123 0.0
H2211 H 0.58497 0.71049 0.47053 0.0
H2212 H 0.59647 0.72883 0.48632 0.0
H2213 H 0.61882 0.70927 0.52495 0.0
H2214 H 0.63502 0.76359 0.57409 0.0
H2215 H 0.62273 0.74843 0.55588 0.0
H2216 H 0.62913 0.76026 0.50885 0.0
C2217 C 0.60063 0.71769 0.48652 0.0
C2218 C 0.62115 0.72032 0.52123 0.0
C2219 C 0.594 0.70716 0.47751 0.0
C2220 C 0.63874 0.76413 0.56281 0.0
C2221 C 0.63173 0.75536 0.55238 0.0
C2222 C 0.62701 0.74912 0.51244 0.0
C2223 C 0.61201 0.71371 0.49616 0.0
C2224 C 0.61823 0.72452 0.50668 0.0
C2225 C 0.63646 0.75532 0.5377 0.0
C2226 C 0.62996 0.74487 0.52698 0.0
H2227 H 0.61432 0.67739 0.48774 0.0
H2228 H 0.62594 0.69575 0.50323 0.0
H2229 H 0.61911 0.74262 0.49125 0.0
H2230 H 0.66406 0.78039 0.54053 0.0
H2231 H 0.65191 0.76494 0.52235 0.0
C2232 C 0.68559 0.49279 0.60203 0.0
C2233 C 0.68932 0.4791 0.59595 0.0
C2234 C 0.69633 0.50164 0.60841 0.0
C2235 C 0.73077 0.50224 0.62737 0.0
H2236 H 0.73552 0.54122 0.61095 0.0
C2237 C 0.77355 0.54311 0.65061 0.0
C2238 C 0.76937 0.55795 0.6512 0.0
C2239 C 0.76499 0.5329 0.64296 0.0
C2240 C 0.73423 0.53047 0.61583 0.0
H2241 H 0.70713 0.46373 0.59226 0.0
H2242 H 0.72591 0.47914 0.60396 0.0
H2243 H 0.7179 0.52432 0.60007 0.0
H2244 H 0.75289 0.57369 0.64429 0.0
H2245 H 0.73775 0.55595 0.63153 0.0
H2246 H 0.74648 0.50854 0.64363 0.0
C2247 C 0.71467 0.483 0.60352 0.0
C2248 C 0.72421 0.52077 0.6095 0.0
C2249 C 0.70395 0.47424 0.59683 0.0
C2250 C 0.75653 0.56237 0.64391 0.0
C2251 C 0.74787 0.55216 0.63649 0.0
C2252 C 0.74061 0.51205 0.63392 0.0
C2253 C 0.71096 0.49687 0.60911 0.0
C2254 C 0.72229 0.50665 0.61531 0.0
C2255 C 0.75194 0.53727 0.63591 0.0
C2256 C 0.74233 0.52639 0.62835 0.0
H2257 H 0.67444 0.49689 0.60147 0.0
H2258 H 0.69324 0.51227 0.61274 0.0
H2259 H 0.72938 0.4914 0.63205 0.0
H2260 H 0.78344 0.53938 0.65606 0.0
H2261 H 0.76864 0.5216 0.64256 0.0
C2262 C 0.76201 0.43627 0.85954 0.0
C2263 C 0.77075 0.4402 0.84744 0.0
C2264 C 0.75351 0.44682 0.86676 0.0
C2265 C 0.7349 0.48164 0.85998 0.0
H2266 H 0.7315 0.48363 0.90235 0.0
C2267 C 0.68742 0.5111 0.88997 0.0
C2268 C 0.69103 0.51972 0.90225 0.0
C2269 C 0.69808 0.50249 0.88308 0.0
C2270 C 0.73243 0.48328 0.89051 0.0
H2271 H 0.77772 0.45842 0.83373 0.0
H2272 H 0.76281 0.47674 0.8463 0.0
H2273 H 0.74884 0.46641 0.8912 0.0
H2274 H 0.70879 0.52624 0.91674 0.0
H2275 H 0.72736 0.51108 0.90474 0.0
H2276 H 0.71833 0.49833 0.85927 0.0
C2277 C 0.76251 0.46549 0.85013 0.0
C2278 C 0.74225 0.47335 0.88414 0.0
C2279 C 0.77111 0.45499 0.843 0.0
C2280 C 0.70563 0.51976 0.90729 0.0
C2281 C 0.71625 0.51101 0.9005 0.0
C2282 C 0.72496 0.49144 0.86634 0.0
C2283 C 0.75348 0.46148 0.86196 0.0
C2284 C 0.74354 0.4724 0.8688 0.0
C2285 C 0.71255 0.50219 0.88841 0.0
C2286 C 0.72358 0.49231 0.88166 0.0
H2287 H 0.76149 0.42499 0.86325 0.0
H2288 H 0.74658 0.4434 0.8758 0.0
H2289 H 0.73556 0.48105 0.84812 0.0
H2290 H 0.67628 0.51081 0.8858 0.0
H2291 H 0.69489 0.49572 0.87384 0.0
C2292 C 0.73088 0.43887 0.13627 0.0
C2293 C 0.72295 0.44226 0.14907 0.0
C2294 C 0.73951 0.44953 0.12939 0.0
C2295 C 0.75995 0.48304 0.13789 0.0
H2296 H 0.76299 0.48682 0.09562 0.0
C2297 C 0.80858 0.51165 0.10899 0.0
C2298 C 0.80544 0.52061 0.09682 0.0
C2299 C 0.79751 0.50333 0.1156 0.0
C2300 C 0.76216 0.486 0.10745 0.0
H2301 H 0.71744 0.45973 0.16433 0.0
H2302 H 0.73251 0.47828 0.15231 0.0
H2303 H 0.74489 0.47008 0.10617 0.0
H2304 H 0.78808 0.52808 0.0823 0.0
H2305 H 0.76881 0.51353 0.09385 0.0
H2306 H 0.77732 0.49883 0.13917 0.0
C2307 C 0.73214 0.46733 0.14769 0.0
C2308 C 0.75189 0.47632 0.11348 0.0
C2309 C 0.72343 0.4567 0.15452 0.0
C2310 C 0.7909 0.5213 0.09164 0.0
C2311 C 0.77987 0.51289 0.09819 0.0
C2312 C 0.77029 0.49262 0.13187 0.0
C2313 C 0.74047 0.46379 0.13522 0.0
C2314 C 0.75075 0.47466 0.12876 0.0
C2315 C 0.78309 0.5037 0.11014 0.0
C2316 C 0.77159 0.49412 0.11658 0.0
H2317 H 0.73076 0.42786 0.13177 0.0
H2318 H 0.74589 0.44644 0.11985 0.0
H2319 H 0.75943 0.48189 0.14971 0.0
H2320 H 0.81965 0.51084 0.11327 0.0
H2321 H 0.80036 0.49625 0.12472 0.0
C2322 C 0.79635 0.47803 0.40455 0.0
C2323 C 0.81106 0.48237 0.40636 0.0
C2324 C 0.78626 0.48736 0.39771 0.0
C2325 C 0.77875 0.526 0.39128 0.0
H2326 H 0.75451 0.51297 0.35883 0.0
C2327 C 0.74544 0.56676 0.35636 0.0
C2328 C 0.73212 0.56218 0.35009 0.0
C2329 C 0.75434 0.55682 0.3639 0.0
C2330 C 0.76097 0.51674 0.36807 0.0
H2331 H 0.82671 0.49988 0.40234 0.0
H2332 H 0.80898 0.51625 0.39066 0.0
H2333 H 0.77144 0.49578 0.37049 0.0
H2334 H 0.71742 0.54367 0.3473 0.0
H2335 H 0.73266 0.52644 0.36096 0.0
H2336 H 0.76815 0.54681 0.38923 0.0
C2337 C 0.80533 0.50559 0.39448 0.0
C2338 C 0.77073 0.5069 0.37466 0.0
C2339 C 0.81548 0.49618 0.40107 0.0
C2340 C 0.72767 0.54752 0.35192 0.0
C2341 C 0.73649 0.53761 0.35966 0.0
C2342 C 0.76884 0.53578 0.38487 0.0
C2343 C 0.79062 0.5013 0.39281 0.0
C2344 C 0.77984 0.5115 0.38619 0.0
C2345 C 0.75006 0.54207 0.36557 0.0
C2346 C 0.75994 0.53136 0.37303 0.0
H2347 H 0.79263 0.46744 0.40849 0.0
H2348 H 0.77496 0.48383 0.39658 0.0
H2349 H 0.78552 0.52974 0.40031 0.0
H2350 H 0.74926 0.57794 0.35504 0.0
H2351 H 0.76481 0.56065 0.36802 0.0
C2352 C 0.15061 0.25122 0.16413 0.0
C2353 C 0.14915 0.26476 0.15695 0.0
C2354 C 0.14738 0.24993 0.17901 0.0
C2355 C 0.12502 0.26611 0.20804 0.0
H2356 H 0.14824 0.24 0.2323 0.0
C2357 C 0.10143 0.23199 0.25517 0.0
C2358 C 0.11083 0.22705 0.26628 0.0
C2359 C 0.1067 0.24135 0.24423 0.0
C2360 C 0.14176 0.24762 0.22589 0.0
H2361 H 0.14271 0.28752 0.15965 0.0
H2362 H 0.13718 0.2853 0.18584 0.0
H2363 H 0.15722 0.24703 0.20826 0.0
H2364 H 0.13254 0.22888 0.27567 0.0
H2365 H 0.1417 0.2457 0.25687 0.0
H2366 H 0.10938 0.26643 0.22561 0.0
C2367 C 0.14099 0.27572 0.17991 0.0
C2368 C 0.14684 0.25147 0.21198 0.0
C2369 C 0.14432 0.27702 0.16497 0.0
C2370 C 0.12514 0.23262 0.26715 0.0
C2371 C 0.13039 0.24211 0.25632 0.0
C2372 C 0.11993 0.26227 0.22201 0.0
C2373 C 0.14248 0.26214 0.18708 0.0
C2374 C 0.13828 0.2603 0.2027 0.0
C2375 C 0.12146 0.24595 0.2443 0.0
C2376 C 0.12801 0.25256 0.23089 0.0
H2377 H 0.15423 0.24156 0.1582 0.0
H2378 H 0.14836 0.23924 0.18413 0.0
H2379 H 0.11817 0.27295 0.20113 0.0
H2380 H 0.09038 0.22766 0.25427 0.0
H2381 H 0.09953 0.24396 0.23512 0.0
C2382 C 0.98409 0.90743 0.41565 0.0
C2383 C 0.98569 0.89707 0.40437 0.0
C2384 C 0.98532 0.90314 0.43034 0.0
C2385 C 0.986 0.87065 0.45495 0.0
H2386 H 0.0138 0.89374 0.47738 0.0
C2387 C 0.02233 0.84681 0.50046 0.0
C2388 C 0.02757 0.85613 0.5115 0.0
C2389 C 0.01284 0.85221 0.4897 0.0
C2390 C 0.0057 0.88732 0.4715 0.0
H2391 H 0.98957 0.87413 0.39949 0.0
H2392 H 0.99185 0.86663 0.42506 0.0
H2393 H 0.0052 0.90276 0.45386 0.0
H2394 H 0.02635 0.87793 0.5208 0.0
H2395 H 0.00934 0.88733 0.50229 0.0
H2396 H 0.98691 0.85495 0.47243 0.0
C2397 C 0.9894 0.87802 0.42264 0.0
C2398 C 0.0008 0.89251 0.45796 0.0
C2399 C 0.98827 0.88233 0.408 0.0
C2400 C 0.02236 0.87058 0.51234 0.0
C2401 C 0.01276 0.87596 0.50168 0.0
C2402 C 0.99085 0.86548 0.46856 0.0
C2403 C 0.98816 0.8884 0.43397 0.0
C2404 C 0.99126 0.88402 0.44933 0.0
C2405 C 0.00842 0.86703 0.48985 0.0
C2406 C 0.00112 0.87355 0.47679 0.0
H2407 H 0.9825 0.91893 0.41318 0.0
H2408 H 0.98435 0.91139 0.43884 0.0
H2409 H 0.97847 0.86398 0.44862 0.0
H2410 H 0.02641 0.83567 0.49954 0.0
H2411 H 0.00987 0.84505 0.48069 0.0
C2412 C 0.35496 0.72472 0.66155 0.0
C2413 C 0.35148 0.73671 0.65249 0.0
C2414 C 0.3578 0.72683 0.6765 0.0
C2415 C 0.35258 0.75376 0.7065 0.0
H2416 H 0.38737 0.73605 0.72347 0.0
C2417 C 0.37184 0.77232 0.76284 0.0
C2418 C 0.38675 0.77607 0.76337 0.0
C2419 C 0.36651 0.76341 0.75158 0.0
C2420 C 0.37759 0.74104 0.71892 0.0
H2421 H 0.34832 0.76028 0.65192 0.0
H2422 H 0.35339 0.764 0.67784 0.0
H2423 H 0.37958 0.72901 0.6988 0.0
H2424 H 0.40799 0.7729 0.75328 0.0
H2425 H 0.39873 0.75762 0.73333 0.0
H2426 H 0.35102 0.76648 0.72606 0.0
C2427 C 0.35366 0.75292 0.67354 0.0
C2428 C 0.37304 0.73689 0.70484 0.0
C2429 C 0.3509 0.75082 0.65865 0.0
C2430 C 0.39646 0.76999 0.75312 0.0
C2431 C 0.39112 0.76121 0.74172 0.0
C2432 C 0.35713 0.75793 0.72049 0.0
C2433 C 0.35717 0.74098 0.68264 0.0
C2434 C 0.36075 0.74357 0.69832 0.0
C2435 C 0.37598 0.75832 0.74048 0.0
C2436 C 0.36993 0.75194 0.72673 0.0
H2437 H 0.3559 0.71377 0.65706 0.0
H2438 H 0.36052 0.71742 0.68324 0.0
H2439 H 0.34292 0.75892 0.70187 0.0
H2440 H 0.3642 0.77694 0.7707 0.0
H2441 H 0.35485 0.76113 0.75116 0.0
C2442 C 0.47669 0.14679 0.00327 0.0
C2443 C 0.47038 0.13695 0.01325 0.0
C2444 C 0.48597 0.14165 0.9922 0.0
C2445 C 0.49142 0.10783 0.97095 0.0
H2446 H 0.52115 0.13121 0.95144 0.0
C2447 C 0.51492 0.09107 0.91473 0.0
C2448 C 0.51412 0.10233 0.90425 0.0
C2449 C 0.51323 0.09424 0.92965 0.0
C2450 C 0.51292 0.12453 0.95683 0.0
H2451 H 0.46947 0.11433 0.02035 0.0
H2452 H 0.48611 0.10531 0.00133 0.0
H2453 H 0.51213 0.13869 0.97557 0.0
H2454 H 0.51132 0.12573 0.90108 0.0
H2455 H 0.50838 0.13129 0.92708 0.0
H2456 H 0.49191 0.09392 0.95207 0.0
C2457 C 0.48365 0.11693 0.00174 0.0
C2458 C 0.50772 0.12882 0.97062 0.0
C2459 C 0.47425 0.12207 0.0127 0.0
C2460 C 0.51201 0.11685 0.90895 0.0
C2461 C 0.51047 0.12004 0.92384 0.0
C2462 C 0.4967 0.10349 0.95725 0.0
C2463 C 0.48915 0.12656 0.99099 0.0
C2464 C 0.49657 0.12077 0.97764 0.0
C2465 C 0.5108 0.10875 0.93433 0.0
C2466 C 0.50716 0.11203 0.94985 0.0
H2467 H 0.47367 0.1583 0.00342 0.0
H2468 H 0.48982 0.14938 0.98404 0.0
H2469 H 0.48267 0.10147 0.97587 0.0
H2470 H 0.51617 0.07974 0.9114 0.0
H2471 H 0.5135 0.08532 0.9375 0.0
C2472 C 0.13325 0.73103 0.3353 0.0
C2473 C 0.14792 0.72907 0.33959 0.0
C2474 C 0.12953 0.73196 0.32048 0.0
C2475 C 0.14512 0.74413 0.28593 0.0
H2476 H 0.10865 0.7292 0.26981 0.0
C2477 C 0.12431 0.76661 0.23159 0.0
C2478 C 0.1097 0.77139 0.23224 0.0
C2479 C 0.12965 0.75669 0.24198 0.0
C2480 C 0.11889 0.73342 0.27413 0.0
H2481 H 0.17024 0.72667 0.33172 0.0
H2482 H 0.16375 0.72819 0.30576 0.0
H2483 H 0.11705 0.72068 0.29381 0.0
H2484 H 0.08891 0.76901 0.2434 0.0
H2485 H 0.0982 0.75192 0.26179 0.0
H2486 H 0.14662 0.75751 0.26681 0.0
C2487 C 0.1551 0.72884 0.31389 0.0
C2488 C 0.1237 0.72853 0.28785 0.0
C2489 C 0.1588 0.72781 0.32876 0.0
C2490 C 0.10019 0.7653 0.24266 0.0
C2491 C 0.10555 0.7555 0.25316 0.0
C2492 C 0.14028 0.74908 0.27228 0.0
C2493 C 0.14044 0.73113 0.30961 0.0
C2494 C 0.13663 0.73419 0.29409 0.0
C2495 C 0.12051 0.75159 0.25334 0.0
C2496 C 0.12687 0.74414 0.2664 0.0
H2497 H 0.12463 0.73205 0.34344 0.0
H2498 H 0.11818 0.73397 0.31757 0.0
H2499 H 0.15503 0.74884 0.2905 0.0
H2500 H 0.1318 0.77123 0.22359 0.0
H2501 H 0.14115 0.75367 0.2416 0.0
C2502 C 0.47548 0.8506 0.49623 0.0
C2503 C 0.46988 0.86075 0.48611 0.0
C2504 C 0.48412 0.85539 0.50797 0.0
C2505 C 0.48775 0.88849 0.53038 0.0
H2506 H 0.51668 0.86525 0.55122 0.0
C2507 C 0.49586 0.89334 0.59233 0.0
C2508 C 0.51013 0.8929 0.5981 0.0
C2509 C 0.4934 0.89069 0.57746 0.0
C2510 C 0.50878 0.87199 0.54543 0.0
H2511 H 0.46974 0.88352 0.47943 0.0
H2512 H 0.48522 0.89191 0.49968 0.0
H2513 H 0.5094 0.8582 0.52638 0.0
H2514 H 0.533 0.88874 0.59293 0.0
H2515 H 0.52872 0.88427 0.5668 0.0
H2516 H 0.48695 0.90214 0.54944 0.0
C2517 C 0.48269 0.88033 0.49882 0.0
C2518 C 0.50451 0.86788 0.53126 0.0
C2519 C 0.47396 0.87554 0.48718 0.0
C2520 C 0.52192 0.88957 0.58872 0.0
C2521 C 0.51945 0.88682 0.57381 0.0
C2522 C 0.49201 0.89258 0.54449 0.0
C2523 C 0.48733 0.87041 0.50972 0.0
C2524 C 0.49367 0.87588 0.52372 0.0
C2525 C 0.50516 0.8874 0.56803 0.0
C2526 C 0.50225 0.88415 0.55234 0.0
H2527 H 0.47231 0.83915 0.49566 0.0
H2528 H 0.48737 0.84747 0.5162 0.0
H2529 H 0.47925 0.89484 0.52502 0.0
H2530 H 0.48655 0.89579 0.59931 0.0
H2531 H 0.48222 0.89094 0.57342 0.0
C2532 C 0.34409 0.27026 0.83182 0.0
C2533 C 0.35564 0.26978 0.84203 0.0
C2534 C 0.34688 0.26827 0.81686 0.0
C2535 C 0.37655 0.26706 0.78892 0.0
H2536 H 0.35238 0.23695 0.77106 0.0
C2537 C 0.3719 0.22757 0.7338 0.0
C2538 C 0.38661 0.2231 0.73313 0.0
C2539 C 0.36725 0.23727 0.74472 0.0
C2540 C 0.35905 0.24565 0.77566 0.0
H2541 H 0.37914 0.26721 0.84461 0.0
H2542 H 0.38401 0.26365 0.81855 0.0
H2543 H 0.34563 0.2468 0.79486 0.0
H2544 H 0.40818 0.22569 0.74269 0.0
H2545 H 0.40013 0.24245 0.76193 0.0
H2546 H 0.39024 0.26553 0.76988 0.0
C2547 C 0.37284 0.26578 0.82203 0.0
C2548 C 0.35517 0.25128 0.78936 0.0
C2549 C 0.37004 0.26767 0.83697 0.0
C2550 C 0.3968 0.22915 0.74293 0.0
C2551 C 0.39216 0.23877 0.75392 0.0
C2552 C 0.38039 0.26147 0.77516 0.0
C2553 C 0.36126 0.26578 0.81184 0.0
C2554 C 0.36411 0.26172 0.79634 0.0
C2555 C 0.37723 0.24255 0.75526 0.0
C2556 C 0.37193 0.25037 0.76856 0.0
H2557 H 0.33284 0.27146 0.8354 0.0
H2558 H 0.33774 0.26832 0.80926 0.0
H2559 H 0.38353 0.27526 0.79395 0.0
H2560 H 0.36388 0.22302 0.72628 0.0
H2561 H 0.35573 0.24017 0.74527 0.0
C2562 C 0.02338 0.14934 0.99715 0.0
C2563 C 0.0285 0.1395 0.98649 0.0
C2564 C 0.0139 0.14452 0.00818 0.0
C2565 C 0.00576 0.11046 0.028 0.0
H2566 H 0.9781 0.13528 0.04873 0.0
C2567 C 0.98159 0.09324 0.08378 0.0
C2568 C 0.98301 0.10405 0.09468 0.0
C2569 C 0.98344 0.09687 0.06898 0.0
C2570 C 0.98575 0.12821 0.04301 0.0
H2571 H 0.02715 0.11728 0.97828 0.0
H2572 H 0.01021 0.10885 0.99733 0.0
H2573 H 0.98756 0.14304 0.02487 0.0
H2574 H 0.98716 0.12711 0.09871 0.0
H2575 H 0.99046 0.13345 0.07293 0.0
H2576 H 0.00432 0.09587 0.0463 0.0
C2577 C 0.01371 0.12021 0.99739 0.0
C2578 C 0.99119 0.13265 0.02937 0.0
C2579 C 0.02329 0.12503 0.98643 0.0
C2580 C 0.98596 0.11858 0.0905 0.0
C2581 C 0.9877 0.12223 0.07574 0.0
C2582 C 0.00027 0.10599 0.04158 0.0
C2583 C 0.00934 0.12976 0.00872 0.0
C2584 C 0.00161 0.12403 0.02191 0.0
C2585 C 0.98672 0.11138 0.06483 0.0
C2586 C 0.99055 0.11502 0.04943 0.0
H2587 H 0.02746 0.16051 0.99749 0.0
H2588 H 0.01093 0.15214 0.0168 0.0
H2589 H 0.01393 0.10364 0.02271 0.0
H2590 H 0.97974 0.08189 0.08669 0.0
H2591 H 0.98265 0.08828 0.06081 0.0
C2592 C 0.26482 0.11604 0.2317 0.0
C2593 C 0.26297 0.10263 0.22439 0.0
C2594 C 0.2539 0.12126 0.24109 0.0
C2595 C 0.21762 0.11234 0.25816 0.0
H2596 H 0.20819 0.15205 0.24604 0.0
C2597 C 0.16322 0.14163 0.27421 0.0
C2598 C 0.15594 0.14818 0.26228 0.0
C2599 C 0.17771 0.13673 0.27274 0.0
C2600 C 0.21071 0.14099 0.24961 0.0
H2601 H 0.24905 0.0836 0.22182 0.0
H2602 H 0.2298 0.09273 0.23808 0.0
H2603 H 0.2316 0.14138 0.23908 0.0
H2604 H 0.15803 0.15471 0.23953 0.0
H2605 H 0.18326 0.14623 0.23695 0.0
H2606 H 0.19624 0.11178 0.26798 0.0
C2607 C 0.23971 0.09916 0.23685 0.0
C2608 C 0.22423 0.13492 0.24579 0.0
C2609 C 0.25072 0.0939 0.22753 0.0
C2610 C 0.16341 0.14979 0.24892 0.0
C2611 C 0.17789 0.14504 0.24749 0.0
C2612 C 0.20406 0.11846 0.26202 0.0
C2613 C 0.24086 0.11323 0.24314 0.0
C2614 C 0.2277 0.12037 0.24965 0.0
C2615 C 0.18518 0.13839 0.25935 0.0
C2616 C 0.2003 0.13268 0.25736 0.0
H2617 H 0.27421 0.12294 0.22931 0.0
H2618 H 0.25524 0.132 0.246 0.0
H2619 H 0.22002 0.10116 0.26141 0.0
H2620 H 0.15761 0.13987 0.28452 0.0
H2621 H 0.18305 0.1316 0.28204 0.0
C2622 C 0.09403 0.9151 0.5168 0.0
C2623 C 0.105 0.90434 0.5155 0.0
C2624 C 0.09756 0.92997 0.51536 0.0
C2625 C 0.12862 0.95638 0.51427 0.0
H2626 H 0.10457 0.97656 0.48557 0.0
C2627 C 0.12578 0.01269 0.4763 0.0
C2628 C 0.14035 0.01263 0.47138 0.0
C2629 C 0.12087 0.00192 0.48604 0.0
C2630 C 0.11124 0.97132 0.4939 0.0
H2631 H 0.12823 0.90063 0.51204 0.0
H2632 H 0.13439 0.92654 0.50944 0.0
H2633 H 0.09684 0.95283 0.49481 0.0
H2634 H 0.16149 0.00199 0.47322 0.0
H2635 H 0.15296 0.98295 0.48999 0.0
H2636 H 0.14328 0.97471 0.51297 0.0
C2637 C 0.12312 0.92356 0.51179 0.0
C2638 C 0.10679 0.95765 0.49918 0.0
C2639 C 0.11958 0.90872 0.51313 0.0
C2640 C 0.15023 0.00229 0.47704 0.0
C2641 C 0.14531 0.99142 0.48667 0.0
C2642 C 0.13304 0.97012 0.50905 0.0
C2643 C 0.11211 0.93434 0.51261 0.0
C2644 C 0.11565 0.94983 0.50907 0.0
C2645 C 0.13044 0.99077 0.49084 0.0
C2646 C 0.12463 0.97754 0.49845 0.0
H2647 H 0.08265 0.91205 0.51819 0.0
H2648 H 0.08884 0.93803 0.51602 0.0
H2649 H 0.13557 0.95067 0.52206 0.0
H2650 H 0.11802 0.02062 0.47203 0.0
H2651 H 0.10943 0.00192 0.48926 0.0
C2652 C 0.33313 0.84621 0.76897 0.0
C2653 C 0.34459 0.85636 0.76712 0.0
C2654 C 0.31853 0.85054 0.76711 0.0
C2655 C 0.29101 0.86007 0.75101 0.0
H2656 H 0.27661 0.89866 0.76182 0.0
C2657 C 0.24699 0.90313 0.72699 0.0
C2658 C 0.23567 0.89334 0.72347 0.0
C2659 C 0.25836 0.89874 0.73631 0.0
C2660 C 0.28047 0.88784 0.75875 0.0
H2661 H 0.34975 0.879 0.76198 0.0
H2662 H 0.32431 0.88651 0.75849 0.0
H2663 H 0.30061 0.89048 0.7706 0.0
H2664 H 0.22659 0.87179 0.7275 0.0
H2665 H 0.24626 0.86415 0.74413 0.0
H2666 H 0.27126 0.8576 0.73867 0.0
C2667 C 0.32655 0.87529 0.7617 0.0
C2668 C 0.29421 0.88316 0.76376 0.0
C2669 C 0.34114 0.87095 0.76354 0.0
C2670 C 0.23525 0.8795 0.73017 0.0
C2671 C 0.24656 0.87512 0.73954 0.0
C2672 C 0.27732 0.86474 0.74599 0.0
C2673 C 0.31508 0.86509 0.76326 0.0
C2674 C 0.29977 0.86936 0.75965 0.0
C2675 C 0.25856 0.88447 0.74223 0.0
C2676 C 0.27202 0.87881 0.74951 0.0
H2677 H 0.3354 0.8348 0.77126 0.0
H2678 H 0.30994 0.84242 0.7684 0.0
H2679 H 0.29505 0.84947 0.74745 0.0
H2680 H 0.24758 0.91379 0.72175 0.0
H2681 H 0.26748 0.90617 0.738 0.0
C2682 C 0.40276 0.08211 0.01971 0.0
C2683 C 0.39181 0.0929 0.01856 0.0
C2684 C 0.39926 0.06729 0.01782 0.0
C2685 C 0.36829 0.04091 0.01558 0.0
H2686 H 0.39282 0.0215 0.98674 0.0
C2687 C 0.37193 0.98514 0.97689 0.0
C2688 C 0.35739 0.98511 0.97187 0.0
C2689 C 0.37669 0.99595 0.98666 0.0
C2690 C 0.38602 0.02652 0.9951 0.0
H2691 H 0.36863 0.09671 0.01488 0.0
H2692 H 0.36252 0.07088 0.01147 0.0
H2693 H 0.40031 0.04505 0.99662 0.0
H2694 H 0.3362 0.9957 0.97346 0.0
H2695 H 0.34448 0.01478 0.99031 0.0
H2696 H 0.35376 0.02253 0.01367 0.0
C2697 C 0.37375 0.07379 0.01406 0.0
C2698 C 0.39033 0.04009 0.00075 0.0
C2699 C 0.37727 0.08859 0.01587 0.0
C2700 C 0.34744 0.99547 0.97736 0.0
C2701 C 0.3522 0.00635 0.98704 0.0
C2702 C 0.36402 0.02727 0.00998 0.0
C2703 C 0.38476 0.06301 0.01474 0.0
C2704 C 0.3813 0.04762 0.01071 0.0
C2705 C 0.36701 0.00701 0.99142 0.0
C2706 C 0.37262 0.02013 -0.00067 0.0
H2707 H 0.41412 0.0851 0.02134 0.0
H2708 H 0.40797 0.05921 0.01838 0.0
H2709 H 0.36122 0.04639 0.02341 0.0
H2710 H 0.37974 0.9772 0.97274 0.0
H2711 H 0.3881 0.99598 0.99002 0.0
C2712 C 0.26437 0.87632 0.26968 0.0
C2713 C 0.26355 0.89058 0.27537 0.0
C2714 C 0.2532 0.87096 0.26067 0.0
C2715 C 0.21825 0.88102 0.24156 0.0
H2716 H 0.20561 0.84316 0.25637 0.0
C2717 C 0.16238 0.85462 0.22579 0.0
C2718 C 0.15437 0.84916 0.23779 0.0
C2719 C 0.17711 0.85866 0.22746 0.0
C2720 C 0.20901 0.85371 0.25207 0.0
H2721 H 0.25117 0.91082 0.27549 0.0
H2722 H 0.23143 0.90146 0.25998 0.0
H2723 H 0.22944 0.85273 0.26342 0.0
H2724 H 0.15539 0.84374 0.26091 0.0
H2725 H 0.18098 0.85084 0.26387 0.0
H2726 H 0.1973 0.88228 0.23093 0.0
C2727 C 0.24077 0.89443 0.26216 0.0
C2728 C 0.22279 0.85913 0.25594 0.0
C2729 C 0.25204 0.89982 0.27106 0.0
C2730 C 0.16133 0.84783 0.25145 0.0
C2731 C 0.17602 0.85177 0.2531 0.0
C2732 C 0.20441 0.87558 0.2377 0.0
C2733 C 0.24091 0.87972 0.2574 0.0
C2734 C 0.22743 0.87304 0.25107 0.0
C2735 C 0.18408 0.85726 0.24115 0.0
C2736 C 0.19948 0.86207 0.24331 0.0
H2737 H 0.27321 0.86905 0.27294 0.0
H2738 H 0.2538 0.85969 0.25694 0.0
H2739 H 0.22156 0.89168 0.23749 0.0
H2740 H 0.1572 0.85618 0.21522 0.0
H2741 H 0.18303 0.8629 0.21806 0.0
C2742 C 0.36756 0.01441 0.51538 0.0
C2743 C 0.35363 0.0136 0.52186 0.0
C2744 C 0.37209 0.00363 0.50547 0.0
C2745 C 0.38265 0.97316 0.49829 0.0
H2746 H 0.35743 0.95028 0.47278 0.0
C2747 C 0.40112 0.91699 0.47636 0.0
C2748 C 0.39073 0.90575 0.47819 0.0
C2749 C 0.39696 0.9317 0.4777 0.0
C2750 C 0.36461 0.95659 0.47985 0.0
H2751 H 0.33312 0.00171 0.52253 0.0
H2752 H 0.34101 0.98269 0.50539 0.0
H2753 H 0.34916 0.97425 0.48159 0.0
H2754 H 0.36784 0.90106 0.48266 0.0
H2755 H 0.36062 0.92667 0.48528 0.0
H2756 H 0.39783 0.95534 0.49709 0.0
C2757 C 0.34841 0.99171 0.50767 0.0
C2758 C 0.35989 0.97031 0.48487 0.0
C2759 C 0.34386 0.00256 0.5175 0.0
C2760 C 0.37608 0.90951 0.48115 0.0
C2761 C 0.37191 0.92419 0.48248 0.0
C2762 C 0.38737 0.9595 0.49326 0.0
C2763 C 0.36281 0.99177 0.50204 0.0
C2764 C 0.36869 0.97856 0.4945 0.0
C2765 C 0.38235 0.93545 0.481 0.0
C2766 C 0.37823 0.95087 0.48433 0.0
H2767 H 0.37524 0.02288 0.51866 0.0
H2768 H 0.38314 0.00415 0.50112 0.0
H2769 H 0.38962 0.97907 0.50589 0.0
H2770 H 0.41256 0.9145 0.47452 0.0
H2771 H 0.40525 0.94013 0.4765 0.0
C2772 C 0.23448 0.11436 0.76695 0.0
C2773 C 0.23582 0.10087 0.77421 0.0
C2774 C 0.24535 0.11898 0.75718 0.0
C2775 C 0.27532 0.13089 0.74981 0.0
H2776 H 0.30014 0.10543 0.72644 0.0
C2777 C 0.33061 0.1512 0.72702 0.0
C2778 C 0.34243 0.14172 0.72986 0.0
C2779 C 0.31615 0.14626 0.72854 0.0
C2780 C 0.29328 0.11268 0.7329 0.0
H2781 H 0.24892 0.08124 0.77658 0.0
H2782 H 0.26809 0.08928 0.75966 0.0
H2783 H 0.27661 0.09631 0.73555 0.0
H2784 H 0.34842 0.11959 0.73621 0.0
H2785 H 0.32327 0.11103 0.73905 0.0
H2786 H 0.29216 0.14706 0.74767 0.0
C2787 C 0.25857 0.09624 0.76119 0.0
C2788 C 0.27981 0.10746 0.73811 0.0
C2789 C 0.24763 0.0916 0.77089 0.0
C2790 C 0.33952 0.12714 0.73392 0.0
C2791 C 0.3251 0.12219 0.73539 0.0
C2792 C 0.28874 0.13611 0.74458 0.0
C2793 C 0.25784 0.11024 0.75467 0.0
C2794 C 0.27087 0.11638 0.74698 0.0
C2795 C 0.31324 0.13176 0.73296 0.0
C2796 C 0.29806 0.12693 0.73642 0.0
H2797 H 0.22544 0.12168 0.76947 0.0
H2798 H 0.24433 0.1297 0.75215 0.0
H2799 H 0.26886 0.138 0.75682 0.0
H2800 H 0.33245 0.16259 0.72427 0.0
H2801 H 0.30724 0.15389 0.72658 0.0
C2802 C 0.12225 0.98223 0.01808 0.0
C2803 C 0.13686 0.9823 0.0229 0.0
C2804 C 0.11745 0.9926 0.00787 0.0
C2805 C 0.12997 0.02332 0.98357 0.0
H2806 H 0.09449 0.04197 0.9979 0.0
C2807 C 0.1188 0.08506 0.97972 0.0
C2808 C 0.10438 0.09006 0.97762 0.0
C2809 C 0.12176 0.07007 0.98076 0.0
C2810 C 0.10422 0.03676 0.99348 0.0
H2811 H 0.15816 0.99247 0.02036 0.0
H2812 H 0.14981 0.0108 0.00278 0.0
H2813 H 0.1016 0.01821 0.00749 0.0
H2814 H 0.08172 0.08329 0.97498 0.0
H2815 H 0.08689 0.05706 0.97666 0.0
H2816 H 0.13296 0.04246 0.97021 0.0
C2817 C 0.14205 0.00263 0.00654 0.0
C2818 C 0.10831 0.02306 -0.00103 0.0
C2819 C 0.14686 0.99216 0.01665 0.0
C2820 C 0.09299 0.07978 0.9762 0.0
C2821 C 0.09593 0.06475 0.97734 0.0
C2822 C 0.12592 0.03709 0.97814 0.0
C2823 C 0.12715 0.00335 0.00247 0.0
C2824 C 0.12149 0.01639 0.99445 0.0
C2825 C 0.11031 0.05977 0.9799 0.0
C2826 C 0.11324 0.04415 0.98341 0.0
H2827 H 0.1144 0.97465 0.02279 0.0
H2828 H 0.10597 0.99265 0.00475 0.0
H2829 H 0.14005 0.01836 0.97965 0.0
H2830 H 0.12777 0.09278 0.98089 0.0
H2831 H 0.13292 0.06661 0.98297 0.0
C2832 C 0.24898 0.16392 0.15295 0.0
C2833 C 0.26247 0.15667 0.15129 0.0
C2834 C 0.24766 0.17876 0.14947 0.0
C2835 C 0.26357 0.20714 0.12601 0.0
H2836 H 0.23764 0.23213 0.14868 0.0
C2837 C 0.22986 0.25411 0.1013 0.0
C2838 C 0.22514 0.26556 0.11042 0.0
C2839 C 0.239 0.24311 0.10684 0.0
C2840 C 0.2452 0.2255 0.14233 0.0
H2841 H 0.28509 0.1592 0.14432 0.0
H2842 H 0.28283 0.18529 0.13842 0.0
H2843 H 0.24468 0.20832 0.1583 0.0
H2844 H 0.22712 0.27541 0.1319 0.0
H2845 H 0.24356 0.25649 0.14153 0.0
H2846 H 0.26385 0.22427 0.10991 0.0
C2847 C 0.27331 0.17947 0.14254 0.0
C2848 C 0.24906 0.21173 0.14779 0.0
C2849 C 0.27465 0.16458 0.1461 0.0
C2850 C 0.2307 0.26664 0.12471 0.0
C2851 C 0.23996 0.25573 0.13023 0.0
C2852 C 0.25973 0.22097 0.12055 0.0
C2853 C 0.25977 0.1867 0.14413 0.0
C2854 C 0.25784 0.20219 0.13946 0.0
C2855 C 0.2436 0.24345 0.12159 0.0
C2856 C 0.2501 0.23012 0.12844 0.0
H2857 H 0.23938 0.15807 0.15683 0.0
H2858 H 0.23699 0.18391 0.15055 0.0
H2859 H 0.27035 0.20003 0.11933 0.0
H2860 H 0.22553 0.25304 0.09027 0.0
H2861 H 0.24145 0.23379 0.09989 0.0
C2862 C 0.72598 0.24516 0.89676 0.0
C2863 C 0.71876 0.23567 0.88705 0.0
C2864 C 0.73528 0.25609 0.89135 0.0
C2865 C 0.73952 0.27803 0.85779 0.0
H2866 H 0.77143 0.29577 0.87966 0.0
C2867 C 0.7646 0.3332 0.8402 0.0
C2868 C 0.76508 0.3436 0.85154 0.0
C2869 C 0.76242 0.31835 0.84339 0.0
C2870 C 0.76258 0.29088 0.87341 0.0
H2871 H 0.71624 0.22926 0.86435 0.0
H2872 H 0.73291 0.24801 0.85485 0.0
H2873 H 0.76179 0.27191 0.88726 0.0
H2874 H 0.76395 0.34674 0.87507 0.0
H2875 H 0.76012 0.32082 0.88068 0.0
H2876 H 0.74005 0.29713 0.84418 0.0
C2877 C 0.73114 0.24735 0.86658 0.0
C2878 C 0.75703 0.27725 0.87777 0.0
C2879 C 0.72171 0.23655 0.87199 0.0
C2880 C 0.7637 0.33889 0.86614 0.0
C2881 C 0.76164 0.32406 0.86935 0.0
C2882 C 0.74514 0.29157 0.85337 0.0
C2883 C 0.73758 0.25763 0.87614 0.0
C2884 C 0.74514 0.27086 0.87026 0.0
C2885 C 0.7607 0.31366 0.85799 0.0
C2886 C 0.75645 0.29832 0.86137 0.0
H2887 H 0.7237 0.24473 0.90842 0.0
H2888 H 0.73988 0.26389 0.89905 0.0
H2889 H 0.73021 0.27363 0.85187 0.0
H2890 H 0.76517 0.33658 0.82883 0.0
H2891 H 0.7617 0.31057 0.83443 0.0
C2892 C 0.9991 0.47515 0.15488 0.0
C2893 C 0.00983 0.47037 0.14496 0.0
C2894 C 0.98799 0.48466 0.15022 0.0
C2895 C 0.96633 0.50715 0.13859 0.0
H2896 H 0.95045 0.49476 0.1011 0.0
C2897 C 0.90546 0.51281 0.12274 0.0
C2898 C 0.9018 0.51602 0.10812 0.0
C2899 C 0.92009 0.51088 0.12687 0.0
C2900 C 0.95486 0.4986 0.11145 0.0
H2901 H 0.01821 0.47239 0.12286 0.0
H2902 H 0.99912 0.48944 0.11477 0.0
H2903 H 0.97399 0.4853 0.10916 0.0
H2904 H 0.91064 0.51954 0.08631 0.0
H2905 H 0.93622 0.51639 0.09355 0.0
H2906 H 0.94671 0.51991 0.1411 0.0
C2907 C 0.999 0.48563 0.12603 0.0
C2908 C 0.96842 0.4932 0.11608 0.0
C2909 C 0.01 0.47602 0.13066 0.0
C2910 C 0.9131 0.5175 0.09773 0.0
C2911 C 0.92775 0.51549 0.10185 0.0
C2912 C 0.95269 0.5125 0.13397 0.0
C2913 C 0.9875 0.48957 0.13557 0.0
C2914 C 0.97418 0.49712 0.12986 0.0
C2915 C 0.93139 0.51195 0.11642 0.0
C2916 C 0.94667 0.50801 0.1205 0.0
H2917 H 0.99872 0.47074 0.16591 0.0
H2918 H 0.97926 0.48732 0.15784 0.0
H2919 H 0.97054 0.51058 0.14916 0.0
H2920 H 0.89697 0.51156 0.13097 0.0
H2921 H 0.9225 0.50794 0.13813 0.0
C2922 C 0.74901 0.66606 0.34423 0.0
C2923 C 0.73562 0.65855 0.34533 0.0
C2924 C 0.74986 0.68096 0.34762 0.0
C2925 C 0.73245 0.70889 0.37042 0.0
H2926 H 0.75917 0.73434 0.34927 0.0
C2927 C 0.76581 0.75468 0.39733 0.0
C2928 C 0.7712 0.76613 0.38862 0.0
C2929 C 0.75644 0.74416 0.39127 0.0
C2930 C 0.75137 0.7276 0.35517 0.0
H2931 H 0.71262 0.6607 0.35112 0.0
H2932 H 0.71406 0.68687 0.35688 0.0
H2933 H 0.75267 0.71067 0.33898 0.0
H2934 H 0.77012 0.7766 0.36736 0.0
H2935 H 0.75325 0.75857 0.35684 0.0
H2936 H 0.73144 0.72573 0.3868 0.0
C2937 C 0.72388 0.68122 0.35326 0.0
C2938 C 0.74781 0.7139 0.34934 0.0
C2939 C 0.72302 0.66628 0.34977 0.0
C2940 C 0.76599 0.76783 0.37425 0.0
C2941 C 0.75649 0.75742 0.36822 0.0
C2942 C 0.73598 0.72265 0.37626 0.0
C2943 C 0.73735 0.68868 0.35232 0.0
C2944 C 0.73878 0.70417 0.35716 0.0
C2945 C 0.75229 0.74501 0.3764 0.0
C2946 C 0.74592 0.73194 0.36896 0.0
H2947 H 0.75891 0.66035 0.34093 0.0
H2948 H 0.76047 0.6863 0.34705 0.0
H2949 H 0.72546 0.70163 0.37672 0.0
H2950 H 0.76988 0.75312 0.4084 0.0
H2951 H 0.75354 0.73473 0.39789 0.0
C2952 C 0.99746 0.02402 0.15565 0.0
C2953 C 0.98572 0.02773 0.14645 0.0
C2954 C 0.00835 0.01439 0.15075 0.0
C2955 C 0.02956 0.9916 0.139 0.0
H2956 H 0.04177 0.00161 0.09947 0.0
C2957 C 0.08917 0.98803 0.11893 0.0
C2958 C 0.092 0.98381 0.10438 0.0
C2959 C 0.07477 0.9894 0.12398 0.0
C2960 C 0.03837 0.99841 0.1104 0.0
H2961 H 0.97542 0.02376 0.12546 0.0
H2962 H 0.99415 0.00648 0.117 0.0
H2963 H 0.01855 0.01075 0.10876 0.0
H2964 H 0.08196 0.97783 0.08367 0.0
H2965 H 0.05675 0.9801 0.09252 0.0
H2966 H 0.04989 0.97989 0.1408 0.0
C2967 C 0.9952 0.01119 0.12786 0.0
C2968 C 0.025 0.00363 0.11575 0.0
C2969 C 0.9844 0.02093 0.13272 0.0
C2970 C 0.08015 0.98073 0.09503 0.0
C2971 C 0.06571 0.9822 0.10005 0.0
C2972 C 0.043 0.98644 0.13366 0.0
C2973 C 0.00763 0.00829 0.13656 0.0
C2974 C 0.0206 0.00064 0.13025 0.0
C2975 C 0.06288 0.98674 0.11453 0.0
C2976 C 0.04771 0.99013 0.11944 0.0
H2977 H 0.99875 0.02936 0.1662 0.0
H2978 H 0.01782 0.01256 0.1577 0.0
H2979 H 0.02639 0.98888 0.15012 0.0
H2980 H 0.09811 0.99049 0.12637 0.0
H2981 H 0.07297 0.99315 0.13511 0.0
C2982 C 0.27093 0.73477 0.61931 0.0
C2983 C 0.27653 0.73613 0.60506 0.0
C2984 C 0.26149 0.74546 0.62494 0.0
C2985 C 0.24101 0.77986 0.61568 0.0
H2986 H 0.25533 0.7922 0.65381 0.0
C2987 C 0.22382 0.83497 0.64273 0.0
C2988 C 0.23571 0.84322 0.64808 0.0
C2989 C 0.22575 0.82027 0.63871 0.0
C2990 C 0.25115 0.78887 0.6432 0.0
H2991 H 0.27618 0.74899 0.58513 0.0
H2992 H 0.25993 0.7679 0.59497 0.0
H2993 H 0.26321 0.76884 0.64376 0.0
H2994 H 0.25888 0.84261 0.65342 0.0
H2995 H 0.26227 0.81708 0.64638 0.0
H2996 H 0.22968 0.80047 0.61483 0.0
C2997 C 0.26247 0.75849 0.60178 0.0
C2998 C 0.2555 0.77535 0.63749 0.0
C2999 C 0.2718 0.7477 0.59611 0.0
C3000 C 0.2495 0.83649 0.64942 0.0
C3001 C 0.25141 0.82183 0.6455 0.0
C3002 C 0.23666 0.79344 0.62141 0.0
C3003 C 0.25773 0.75781 0.61647 0.0
C3004 C 0.25085 0.77087 0.62347 0.0
C3005 C 0.23959 0.81356 0.64002 0.0
C3006 C 0.2421 0.79827 0.63501 0.0
H3007 H 0.27454 0.7259 0.62636 0.0
H3008 H 0.2578 0.74445 0.63619 0.0
H3009 H 0.23708 0.77665 0.60494 0.0
H3010 H 0.21315 0.83997 0.64121 0.0
H3011 H 0.21645 0.81417 0.63448 0.0
C3012 C 0.91602 0.49604 0.4094 0.0
C3013 C 0.90666 0.48529 0.40361 0.0
C3014 C 0.93036 0.49743 0.40417 0.0
C3015 C 0.95047 0.49558 0.37122 0.0
H3016 H 0.98531 0.49738 0.3956 0.0
C3017 C 0.00319 0.5211 0.34837 0.0
C3018 C 0.01036 0.53073 0.35801 0.0
C3019 C 0.9928 0.51113 0.35369 0.0
C3020 C 0.9757 0.49702 0.38862 0.0
H3021 H 0.90474 0.46757 0.38789 0.0
H3022 H 0.92978 0.47041 0.37828 0.0
H3023 H 0.96226 0.48846 0.40597 0.0
H3024 H 0.01318 0.53679 0.38079 0.0
H3025 H 0.99458 0.52018 0.39 0.0
H3026 H 0.96328 0.50532 0.35425 0.0
C3027 C 0.92611 0.47744 0.38714 0.0
C3028 C 0.96256 0.49177 0.39456 0.0
C3029 C 0.91187 0.4758 0.39264 0.0
C3030 C 0.00763 0.52962 0.37311 0.0
C3031 C 0.99707 0.51989 0.3784 0.0
C3032 C 0.9635 0.50115 0.36537 0.0
C3033 C 0.93541 0.48834 0.3928 0.0
C3034 C 0.94979 0.49137 0.386 0.0
C3035 C 0.98917 0.51079 0.36872 0.0
C3036 C 0.97619 0.50238 0.37412 0.0
H3037 H 0.91218 0.50349 0.41784 0.0
H3038 H 0.9373 0.50604 0.40856 0.0
H3039 H 0.94069 0.49548 0.36447 0.0
H3040 H 0.00505 0.52177 0.33665 0.0
H3041 H 0.98722 0.50408 0.34592 0.0
C3042 C 0.48543 0.4775 0.86988 0.0
C3043 C 0.4864 0.47235 0.85542 0.0
C3044 C 0.49642 0.48649 0.87562 0.0
C3045 C 0.53081 0.5069 0.86649 0.0
H3046 H 0.54395 0.49081 0.90364 0.0
C3047 C 0.58613 0.52335 0.8936 0.0
C3048 C 0.59466 0.5113 0.89808 0.0
C3049 C 0.57139 0.52142 0.8897 0.0
C3050 C 0.54039 0.49549 0.89331 0.0
H3051 H 0.49891 0.47311 0.83528 0.0
H3052 H 0.51832 0.48867 0.8453 0.0
H3053 H 0.52035 0.48341 0.89372 0.0
H3054 H 0.59453 0.48785 0.90204 0.0
H3055 H 0.5689 0.48446 0.89526 0.0
H3056 H 0.55137 0.51833 0.86578 0.0
C3057 C 0.50899 0.48606 0.85219 0.0
C3058 C 0.52676 0.4914 0.88768 0.0
C3059 C 0.49791 0.47715 0.84642 0.0
C3060 C 0.58818 0.49735 0.89871 0.0
C3061 C 0.57347 0.49544 0.89494 0.0
C3062 C 0.54449 0.51102 0.87215 0.0
C3063 C 0.50868 0.49031 0.86704 0.0
C3064 C 0.52197 0.49673 0.87401 0.0
C3065 C 0.56493 0.50742 0.89029 0.0
C3066 C 0.5496 0.50498 0.8854 0.0
H3067 H 0.47662 0.47384 0.87698 0.0
H3068 H 0.49572 0.4898 0.88702 0.0
H3069 H 0.52738 0.51132 0.856 0.0
H3070 H 0.59092 0.53417 0.89263 0.0
H3071 H 0.56507 0.53084 0.88612 0.0
C3072 C 0.59882 0.72907 0.75283 0.0
C3073 C 0.60869 0.72326 0.76309 0.0
C3074 C 0.60373 0.73887 0.74212 0.0
C3075 C 0.61603 0.76169 0.72128 0.0
H3076 H 0.65198 0.74745 0.70346 0.0
C3077 C 0.65471 0.77023 0.66615 0.0
C3078 C 0.64363 0.76946 0.65547 0.0
C3079 C 0.6513 0.76842 0.68101 0.0
C3080 C 0.6421 0.75182 0.70843 0.0
H3081 H 0.63103 0.72377 0.77108 0.0
H3082 H 0.63963 0.74125 0.75261 0.0
H3083 H 0.64432 0.73782 0.72706 0.0
H3084 H 0.62029 0.76652 0.65192 0.0
H3085 H 0.61435 0.76323 0.67778 0.0
H3086 H 0.6135 0.77513 0.70215 0.0
C3087 C 0.62818 0.73805 0.75258 0.0
C3088 C 0.6377 0.74632 0.72203 0.0
C3089 C 0.62327 0.72817 0.76322 0.0
C3090 C 0.62905 0.7672 0.65994 0.0
C3091 C 0.62563 0.76547 0.67476 0.0
C3092 C 0.62041 0.76715 0.70763 0.0
C3093 C 0.61861 0.74304 0.74153 0.0
C3094 C 0.6244 0.75086 0.72843 0.0
C3095 C 0.63675 0.76581 0.68544 0.0
C3096 C 0.63328 0.76195 0.70088 0.0
H3097 H 0.58755 0.72527 0.75248 0.0
H3098 H 0.59608 0.74234 0.73371 0.0
H3099 H 0.60585 0.7656 0.72602 0.0
H3100 H 0.66609 0.77156 0.66305 0.0
H3101 H 0.66011 0.76873 0.68899 0.0
C3102 C 0.52712 0.34843 0.99814 0.0
C3103 C 0.53345 0.35825 0.00813 0.0
C3104 C 0.51777 0.35359 0.98713 0.0
C3105 C 0.495 0.36645 0.96656 0.0
H3106 H 0.50961 0.4016 0.94751 0.0
C3107 C 0.48561 0.37995 0.90563 0.0
C3108 C 0.48344 0.39463 0.90154 0.0
C3109 C 0.48835 0.3763 0.92025 0.0
C3110 C 0.50517 0.39194 0.95284 0.0
H3111 H 0.53449 0.38088 0.01519 0.0
H3112 H 0.51781 0.38994 0.99622 0.0
H3113 H 0.52039 0.3937 0.97054 0.0
H3114 H 0.48266 0.41707 0.90934 0.0
H3115 H 0.4873 0.41071 0.93501 0.0
H3116 H 0.48026 0.36439 0.94834 0.0
C3117 C 0.52027 0.37832 0.9966 0.0
C3118 C 0.51134 0.38741 0.9661 0.0
C3119 C 0.52972 0.37316 0.00751 0.0
C3120 C 0.48385 0.40562 0.91232 0.0
C3121 C 0.48669 0.40199 0.92695 0.0
C3122 C 0.48889 0.37096 0.95322 0.0
C3123 C 0.51456 0.36867 0.98598 0.0
C3124 C 0.50657 0.37443 0.97297 0.0
C3125 C 0.48921 0.38732 0.93103 0.0
C3126 C 0.49414 0.38358 0.94608 0.0
H3127 H 0.53002 0.33689 0.99836 0.0
H3128 H 0.51375 0.34586 0.97905 0.0
H3129 H 0.49089 0.35655 0.97168 0.0
H3130 H 0.48549 0.37132 0.89745 0.0
H3131 H 0.49048 0.36493 0.923 0.0
C3132 C 0.87601 0.27393 0.25919 0.0
C3133 C 0.89071 0.27731 0.26231 0.0
C3134 C 0.87249 0.26491 0.24731 0.0
C3135 C 0.8874 0.2566 0.21132 0.0
H3136 H 0.85441 0.22987 0.20829 0.0
C3137 C 0.87044 0.23425 0.15537 0.0
C3138 C 0.85537 0.23436 0.1523 0.0
C3139 C 0.87544 0.23587 0.16974 0.0
C3140 C 0.86362 0.23735 0.20896 0.0
H3141 H 0.9133 0.27335 0.2561 0.0
H3142 H 0.90721 0.25734 0.23547 0.0
H3143 H 0.86211 0.23884 0.23242 0.0
H3144 H 0.83362 0.23601 0.1617 0.0
H3145 H 0.8423 0.23932 0.18687 0.0
H3146 H 0.88858 0.25581 0.188 0.0
C3147 C 0.89838 0.26175 0.2421 0.0
C3148 C 0.86806 0.24243 0.22277 0.0
C3149 C 0.90189 0.27077 0.25399 0.0
C3150 C 0.8453 0.23565 0.16387 0.0
C3151 C 0.8503 0.23751 0.17827 0.0
C3152 C 0.88293 0.25163 0.19758 0.0
C3153 C 0.88364 0.25918 0.23831 0.0
C3154 C 0.87988 0.25226 0.22406 0.0
C3155 C 0.86546 0.238 0.18132 0.0
C3156 C 0.87087 0.24209 0.19617 0.0
H3157 H 0.86722 0.2789 0.26549 0.0
H3158 H 0.86103 0.26324 0.24461 0.0
H3159 H 0.89634 0.26442 0.21189 0.0
H3160 H 0.87839 0.23315 0.14658 0.0
H3161 H 0.88717 0.23584 0.1717 0.0
C3162 C 0.97572 0.62415 0.5104 0.0
C3163 C 0.9708 0.63871 0.51115 0.0
C3164 C 0.98528 0.61978 0.49924 0.0
C3165 C 0.99304 0.61176 0.46812 0.0
H3166 H 0.0218 0.63678 0.4492 0.0
C3167 C 0.01749 0.59659 0.41198 0.0
C3168 C 0.017 0.60798 0.4016 0.0
C3169 C 0.01542 0.59958 0.42688 0.0
C3170 C 0.01382 0.62966 0.45439 0.0
H3171 H 0.97245 0.66033 0.50149 0.0
H3172 H 0.98897 0.65275 0.48182 0.0
H3173 H 0.01224 0.64346 0.47336 0.0
H3174 H 0.01424 0.63142 0.39867 0.0
H3175 H 0.01045 0.63663 0.42463 0.0
H3176 H 0.99421 0.59823 0.44901 0.0
C3177 C 0.98574 0.6447 0.48994 0.0
C3178 C 0.00834 0.63349 0.46821 0.0
C3179 C 0.97626 0.64906 0.50118 0.0
C3180 C 0.01472 0.62243 0.40644 0.0
C3181 C 0.0127 0.62543 0.42133 0.0
C3182 C 0.99854 0.60792 0.45436 0.0
C3183 C 0.98995 0.62989 0.48854 0.0
C3184 C 0.99759 0.62478 0.47506 0.0
C3185 C 0.01277 0.61401 0.43169 0.0
C3186 C 0.00869 0.61703 0.44717 0.0
H3187 H 0.97164 0.61601 0.51805 0.0
H3188 H 0.98852 0.60836 0.49863 0.0
H3189 H 0.98459 0.60491 0.47291 0.0
H3190 H 0.01879 0.5853 0.4086 0.0
H3191 H 0.01555 0.59055 0.43461 0.0
C3192 C 0.62089 0.23344 0.84592 0.0
C3193 C 0.63601 0.23243 0.84863 0.0
C3194 C 0.61567 0.23542 0.83166 0.0
C3195 C 0.62666 0.2351 0.79223 0.0
H3196 H 0.59647 0.26493 0.7891 0.0
C3197 C 0.61725 0.27144 0.74131 0.0
C3198 C 0.60298 0.27646 0.73842 0.0
C3199 C 0.61994 0.26231 0.75333 0.0
C3200 C 0.60466 0.25633 0.78973 0.0
H3201 H 0.65758 0.23284 0.83865 0.0
H3202 H 0.64855 0.2365 0.81374 0.0
H3203 H 0.60376 0.25615 0.8131 0.0
H3204 H 0.58019 0.27517 0.74503 0.0
H3205 H 0.5848 0.25891 0.76585 0.0
H3206 H 0.62792 0.23586 0.76873 0.0
C3207 C 0.64065 0.23528 0.82253 0.0
C3208 C 0.60887 0.25129 0.80353 0.0
C3209 C 0.64585 0.23315 0.83681 0.0
C3210 C 0.59128 0.27136 0.74702 0.0
C3211 C 0.59395 0.26219 0.759 0.0
C3212 C 0.62247 0.24021 0.77836 0.0
C3213 C 0.62551 0.2367 0.81982 0.0
C3214 C 0.62009 0.24079 0.80499 0.0
C3215 C 0.60838 0.25805 0.76263 0.0
C3216 C 0.61159 0.25107 0.77699 0.0
H3217 H 0.61308 0.23286 0.85488 0.0
H3218 H 0.60394 0.23623 0.82994 0.0
H3219 H 0.6352 0.22685 0.79296 0.0
H3220 H 0.62641 0.27529 0.73478 0.0
H3221 H 0.63119 0.25941 0.75587 0.0
C3222 C 0.9763 0.376 0.98474 0.0
C3223 C 0.97205 0.36123 0.98421 0.0
C3224 C 0.98507 0.38109 0.99623 0.0
C3225 C 0.00623 0.36956 0.02946 0.0
H3226 H 0.98845 0.40443 0.04622 0.0
C3227 C 0.02188 0.39214 0.087 0.0
C3228 C 0.00979 0.39573 0.0959 0.0
C3229 C 0.01992 0.38926 0.07204 0.0
C3230 C 0.99357 0.39471 0.04166 0.0
H3231 H 0.97421 0.33996 0.99451 0.0
H3232 H 0.9893 0.34882 0.01478 0.0
H3233 H 0.98138 0.39653 0.02179 0.0
H3234 H 0.98623 0.39896 0.09622 0.0
H3235 H 0.98279 0.39384 0.07024 0.0
H3236 H 0.01777 0.36735 0.04983 0.0
C3237 C 0.98619 0.35648 0.00625 0.0
C3238 C 0.98969 0.39028 0.02755 0.0
C3239 C 0.97753 0.35138 0.99467 0.0
C3240 C 0.99575 0.39632 0.0896 0.0
C3241 C 0.99381 0.39352 0.07469 0.0
C3242 C 0.01012 0.37401 0.04363 0.0
C3243 C 0.98952 0.37152 0.0075 0.0
C3244 C 0.99566 0.37743 0.02141 0.0
C3245 C 0.00586 0.38994 0.06574 0.0
C3246 C 0.00347 0.38638 0.05003 0.0
H3247 H 0.97215 0.38375 0.97673 0.0
H3248 H 0.98769 0.39268 0.99669 0.0
H3249 H 0.01116 0.35971 0.02498 0.0
H3250 H 0.03277 0.39119 0.09162 0.0
H3251 H 0.0294 0.38648 0.06542 0.0
C3252 C 0.89763 0.72569 0.24576 0.0
C3253 C 0.88838 0.72087 0.23448 0.0
C3254 C 0.8921 0.73452 0.257 0.0
C3255 C 0.85681 0.74032 0.27541 0.0
H3256 H 0.8801 0.76593 0.30016 0.0
C3257 C 0.84636 0.74525 0.33687 0.0
C3258 C 0.8481 0.75884 0.34388 0.0
C3259 C 0.84996 0.7436 0.3221 0.0
C3260 C 0.87333 0.75901 0.29325 0.0
H3261 H 0.86656 0.7222 0.22525 0.0
H3262 H 0.85693 0.73815 0.24456 0.0
H3263 H 0.88913 0.7592 0.27585 0.0
H3264 H 0.85548 0.7813 0.34101 0.0
H3265 H 0.86149 0.77851 0.31502 0.0
H3266 H 0.84107 0.74002 0.29279 0.0
C3267 C 0.86834 0.73485 0.24503 0.0
C3268 C 0.87858 0.75503 0.27939 0.0
C3269 C 0.87385 0.72586 0.23391 0.0
C3270 C 0.8536 0.77079 0.33581 0.0
C3271 C 0.85723 0.76914 0.32098 0.0
C3272 C 0.85154 0.74436 0.28919 0.0
C3273 C 0.87722 0.73873 0.25707 0.0
C3274 C 0.8706 0.74524 0.2705 0.0
C3275 C 0.85546 0.75551 0.31398 0.0
C3276 C 0.85997 0.75331 0.29848 0.0
H3277 H 0.90885 0.72179 0.24642 0.0
H3278 H 0.89923 0.73713 0.26613 0.0
H3279 H 0.85038 0.73266 0.26899 0.0
H3280 H 0.84224 0.73582 0.34283 0.0
H3281 H 0.84876 0.73286 0.31715 0.0
C3282 C 0.52406 0.64934 0.49584 0.0
C3283 C 0.52982 0.64011 0.48498 0.0
C3284 C 0.51482 0.64364 0.50668 0.0
C3285 C 0.50943 0.60852 0.5254 0.0
H3286 H 0.48124 0.63095 0.54806 0.0
C3287 C 0.50144 0.59954 0.58678 0.0
C3288 C 0.48735 0.60059 0.59291 0.0
C3289 C 0.50374 0.60274 0.57201 0.0
C3290 C 0.48889 0.62442 0.54173 0.0
H3291 H 0.52974 0.61814 0.47604 0.0
H3292 H 0.51316 0.6082 0.49465 0.0
H3293 H 0.48905 0.6399 0.52403 0.0
H3294 H 0.46465 0.6062 0.58844 0.0
H3295 H 0.46865 0.61162 0.56246 0.0
H3296 H 0.50946 0.59317 0.54313 0.0
C3297 C 0.51601 0.61973 0.4951 0.0
C3298 C 0.49348 0.62962 0.52803 0.0
C3299 C 0.52537 0.6254 0.48438 0.0
C3300 C 0.47556 0.60491 0.58395 0.0
C3301 C 0.47788 0.60819 0.56912 0.0
C3302 C 0.50482 0.60332 0.53903 0.0
C3303 C 0.51116 0.62862 0.50676 0.0
C3304 C 0.50417 0.62196 0.51992 0.0
C3305 C 0.49202 0.60718 0.56302 0.0
C3306 C 0.4949 0.61146 0.54757 0.0
H3307 H 0.52753 0.66069 0.49656 0.0
H3308 H 0.51145 0.6508 0.51555 0.0
H3309 H 0.51777 0.60237 0.51959 0.0
H3310 H 0.51075 0.59632 0.59345 0.0
H3311 H 0.51483 0.60214 0.56774 0.0
C3312 C 0.66195 0.64799 0.74832 0.0
C3313 C 0.65504 0.64675 0.76201 0.0
C3314 C 0.67673 0.64437 0.74672 0.0
C3315 C 0.70527 0.62099 0.7621 0.0
H3316 H 0.73007 0.64383 0.73615 0.0
C3317 C 0.75171 0.59665 0.72733 0.0
C3318 C 0.76336 0.60571 0.72303 0.0
C3319 C 0.74075 0.60207 0.73658 0.0
C3320 C 0.72349 0.63744 0.7437 0.0
H3321 H 0.65806 0.64035 0.78473 0.0
H3322 H 0.68404 0.63405 0.78195 0.0
H3323 H 0.70634 0.65347 0.74354 0.0
H3324 H 0.77353 0.62697 0.72575 0.0
H3325 H 0.75459 0.63642 0.74228 0.0
H3326 H 0.72231 0.60476 0.76193 0.0
C3327 C 0.67801 0.63801 0.7725 0.0
C3328 C 0.70979 0.64291 0.74777 0.0
C3329 C 0.6632 0.64178 0.77413 0.0
C3330 C 0.7646 0.61983 0.72901 0.0
C3331 C 0.75371 0.62524 0.73834 0.0
C3332 C 0.71902 0.61549 0.75801 0.0
C3333 C 0.68491 0.63925 0.75877 0.0
C3334 C 0.70033 0.63453 0.7566 0.0
C3335 C 0.7413 0.61666 0.74167 0.0
C3336 C 0.72808 0.62346 0.74838 0.0
H3337 H 0.6559 0.65172 0.73879 0.0
H3338 H 0.68166 0.64518 0.73593 0.0
H3339 H 0.6982 0.61428 0.76891 0.0
H3340 H 0.7505 0.58578 0.72266 0.0
H3341 H 0.7313 0.5952 0.73878 0.0
C3342 C 0.63108 0.50862 0.97814 0.0
C3343 C 0.6454 0.51156 0.97329 0.0
C3344 C 0.62839 0.49689 0.98764 0.0
C3345 C 0.64448 0.46104 0.99532 0.0
H3346 H 0.61243 0.45767 0.02312 0.0
C3347 C 0.62874 0.40501 0.01876 0.0
C3348 C 0.6137 0.40174 0.01859 0.0
C3349 C 0.63358 0.41943 0.01692 0.0
C3350 C 0.62141 0.45845 0.01537 0.0
H3351 H 0.66827 0.50546 0.97539 0.0
H3352 H 0.66368 0.48525 0.99237 0.0
H3353 H 0.61951 0.48187 0.01386 0.0
H3354 H 0.59188 0.41092 0.0163 0.0
H3355 H 0.60028 0.43611 0.01293 0.0
H3356 H 0.64607 0.43771 0.99629 0.0
C3357 C 0.65447 0.49176 0.9886 0.0
C3358 C 0.62548 0.4723 0.01009 0.0
C3359 C 0.65713 0.50342 0.97903 0.0
C3360 C 0.60352 0.41319 0.01691 0.0
C3361 C 0.60836 0.42762 0.01494 0.0
C3362 C 0.64042 0.44726 0.00056 0.0
C3363 C 0.64001 0.48795 0.99249 0.0
C3364 C 0.6369 0.47371 -0.0002 0.0
C3365 C 0.62346 0.43086 0.01461 0.0
C3366 C 0.62867 0.44575 0.01044 0.0
H3367 H 0.62189 0.51483 0.97384 0.0
H3368 H 0.61712 0.49424 0.99032 0.0
H3369 H 0.6531 0.46164 0.98715 0.0
H3370 H 0.6368 0.39636 0.0201 0.0
H3371 H 0.64528 0.42157 0.01696 0.0
C3372 C 0.83952 0.36946 0.26695 0.0
C3373 C 0.84406 0.35484 0.26873 0.0
C3374 C 0.82487 0.37274 0.26393 0.0
C3375 C 0.79437 0.35673 0.24448 0.0
H3376 H 0.77327 0.39125 0.25787 0.0
C3377 C 0.75466 0.38819 0.20819 0.0
C3378 C 0.7403 0.3902 0.21339 0.0
C3379 C 0.76561 0.383 0.21748 0.0
C3380 C 0.77895 0.38146 0.25421 0.0
H3381 H 0.83681 0.33219 0.2689 0.0
H3382 H 0.81116 0.33791 0.26363 0.0
H3383 H 0.79555 0.38331 0.27082 0.0
H3384 H 0.72626 0.38927 0.23255 0.0
H3385 H 0.74579 0.38055 0.24913 0.0
H3386 H 0.77829 0.35534 0.22742 0.0
C3387 C 0.81893 0.34683 0.26476 0.0
C3388 C 0.79169 0.37697 0.26154 0.0
C3389 C 0.83359 0.34357 0.26793 0.0
C3390 C 0.73726 0.3877 0.2283 0.0
C3391 C 0.74835 0.38271 0.23772 0.0
C3392 C 0.7818 0.36132 0.23708 0.0
C3393 C 0.8145 0.36143 0.26241 0.0
C3394 C 0.79972 0.36478 0.25649 0.0
C3395 C 0.76251 0.38001 0.23225 0.0
C3396 C 0.77423 0.37394 0.24164 0.0
H3397 H 0.84741 0.37835 0.2675 0.0
H3398 H 0.82183 0.38407 0.26197 0.0
H3399 H 0.8004 0.3474 0.24023 0.0
H3400 H 0.75739 0.39047 0.19685 0.0
H3401 H 0.77654 0.3813 0.21311 0.0
C3402 C 0.90251 0.57893 0.52179 0.0
C3403 C 0.89228 0.59015 0.51915 0.0
C3404 C 0.89824 0.56419 0.52113 0.0
C3405 C 0.86555 0.53963 0.5196 0.0
H3406 H 0.89088 0.51523 0.49567 0.0
C3407 C 0.86814 0.48015 0.48689 0.0
C3408 C 0.85465 0.48128 0.47958 0.0
C3409 C 0.87257 0.49115 0.49662 0.0
C3410 C 0.88381 0.5217 0.5027 0.0
H3411 H 0.86952 0.59476 0.51393 0.0
H3412 H 0.86214 0.56914 0.51249 0.0
H3413 H 0.89932 0.53926 0.50341 0.0
H3414 H 0.83469 0.49392 0.47737 0.0
H3415 H 0.84235 0.5132 0.49428 0.0
H3416 H 0.84977 0.52224 0.51827 0.0
C3417 C 0.87339 0.57166 0.5154 0.0
C3418 C 0.88866 0.53553 0.50713 0.0
C3419 C 0.87766 0.58635 0.51605 0.0
C3420 C 0.84509 0.49281 0.48304 0.0
C3421 C 0.84951 0.50383 0.49273 0.0
C3422 C 0.86069 0.52576 0.51517 0.0
C3423 C 0.88367 0.56039 0.51773 0.0
C3424 C 0.87942 0.54485 0.51523 0.0
C3425 C 0.86359 0.50347 0.49909 0.0
C3426 C 0.8696 0.51683 0.50628 0.0
H3427 H 0.91394 0.58142 0.52377 0.0
H3428 H 0.90643 0.55577 0.52298 0.0
H3429 H 0.85828 0.54645 0.52607 0.0
H3430 H 0.87566 0.47131 0.4843 0.0
H3431 H 0.88337 0.49043 0.50154 0.0
C3432 C 0.65946 0.35142 0.75032 0.0
C3433 C 0.65303 0.35193 0.73635 0.0
C3434 C 0.67418 0.35513 0.75223 0.0
C3435 C 0.70339 0.37757 0.73672 0.0
H3436 H 0.72742 0.35539 0.76394 0.0
C3437 C 0.75039 0.40216 0.77088 0.0
C3438 C 0.76182 0.39293 0.77542 0.0
C3439 C 0.73924 0.39673 0.76185 0.0
C3440 C 0.72104 0.36159 0.75605 0.0
H3441 H 0.65683 0.35713 0.71344 0.0
H3442 H 0.68271 0.3636 0.71679 0.0
H3443 H 0.70363 0.34586 0.7566 0.0
H3444 H 0.77138 0.3713 0.77338 0.0
H3445 H 0.75214 0.36186 0.75724 0.0
H3446 H 0.7207 0.39352 0.73651 0.0
C3447 C 0.67635 0.36014 0.72622 0.0
C3448 C 0.70731 0.35619 0.752 0.0
C3449 C 0.6616 0.35628 0.72428 0.0
C3450 C 0.76264 0.37859 0.76991 0.0
C3451 C 0.75157 0.37318 0.76081 0.0
C3452 C 0.71716 0.38302 0.74081 0.0
C3453 C 0.68277 0.35961 0.74023 0.0
C3454 C 0.69816 0.36432 0.74265 0.0
C3455 C 0.73938 0.38197 0.75726 0.0
C3456 C 0.72597 0.37526 0.75084 0.0
H3457 H 0.65307 0.34819 0.75982 0.0
H3458 H 0.67875 0.35486 0.76321 0.0
H3459 H 0.69654 0.38408 0.7295 0.0
H3460 H 0.74949 0.4132 0.77523 0.0
H3461 H 0.72996 0.40376 0.75945 0.0
C3462 C 0.87887 0.41002 0.98147 0.0
C3463 C 0.89348 0.40581 0.97899 0.0
C3464 C 0.87529 0.42476 0.98366 0.0
C3465 C 0.89138 0.45775 0.99887 0.0
H3466 H 0.85554 0.4762 0.98516 0.0
C3467 C 0.87254 0.51186 0.02425 0.0
C3468 C 0.8577 0.51218 0.0283 0.0
C3469 C 0.87762 0.50131 0.01437 0.0
C3470 C 0.86558 0.4712 0.98911 0.0
H3471 H 0.91584 0.41369 0.97691 0.0
H3472 H 0.90959 0.43948 0.98064 0.0
H3473 H 0.86323 0.4527 0.97474 0.0
H3474 H 0.83637 0.50235 0.02491 0.0
H3475 H 0.84521 0.48361 0.00795 0.0
H3476 H 0.89339 0.47563 0.01381 0.0
C3477 C 0.90088 0.43138 0.98071 0.0
C3478 C 0.86999 0.45778 0.9831 0.0
C3479 C 0.90443 0.41664 0.97839 0.0
C3480 C 0.84784 0.50235 0.02177 0.0
C3481 C 0.85294 0.49167 0.01203 0.0
C3482 C 0.88691 0.47107 0.00495 0.0
C3483 C 0.88631 0.43556 0.98362 0.0
C3484 C 0.88275 0.45076 0.98819 0.0
C3485 C 0.86798 0.49072 0.00857 0.0
C3486 C 0.87376 0.47779 0.00042 0.0
H3487 H 0.87023 0.40187 0.98204 0.0
H3488 H 0.864 0.4276 0.98609 0.0
H3489 H 0.90115 0.45251 0.00316 0.0
H3490 H 0.88029 0.51941 0.02918 0.0
H3491 H 0.88921 0.5011 0.01172 0.0
C3492 C 0.74845 0.58865 0.27122 0.0
C3493 C 0.73866 0.6 0.27469 0.0
C3494 C 0.76027 0.59125 0.26181 0.0
C3495 C 0.77766 0.61898 0.23706 0.0
H3496 H 0.81336 0.60497 0.2555 0.0
C3497 C 0.83452 0.64636 0.22953 0.0
C3498 C 0.84702 0.63737 0.22995 0.0
C3499 C 0.82055 0.64031 0.23163 0.0
C3500 C 0.80354 0.60875 0.24997 0.0
H3501 H 0.73271 0.62255 0.2703 0.0
H3502 H 0.75352 0.62729 0.25409 0.0
H3503 H 0.78983 0.59653 0.26444 0.0
H3504 H 0.85479 0.61502 0.23223 0.0
H3505 H 0.83046 0.60441 0.2356 0.0
H3506 H 0.79157 0.63167 0.22291 0.0
C3507 C 0.75205 0.61631 0.2584 0.0
C3508 C 0.78999 0.60386 0.25509 0.0
C3509 C 0.74016 0.61364 0.26772 0.0
C3510 C 0.84531 0.6222 0.23196 0.0
C3511 C 0.83138 0.61614 0.23393 0.0
C3512 C 0.79129 0.6239 0.2319 0.0
C3513 C 0.7626 0.60532 0.25586 0.0
C3514 C 0.77686 0.60909 0.24888 0.0
C3515 C 0.81886 0.62516 0.23418 0.0
C3516 C 0.80438 0.619 0.23847 0.0
H3517 H 0.74756 0.57806 0.27656 0.0
H3518 H 0.76805 0.58247 0.25985 0.0
H3519 H 0.76775 0.62313 0.23196 0.0
H3520 H 0.83555 0.65813 0.22839 0.0
H3521 H 0.81117 0.64761 0.232 0.0
C3522 C 0.65516 0.49563 0.52059 0.0
C3523 C 0.64352 0.48711 0.52597 0.0
C3524 C 0.65238 0.50751 0.51132 0.0
C3525 C 0.62362 0.52677 0.48954 0.0
H3526 H 0.64285 0.56155 0.50473 0.0
C3527 C 0.60106 0.5856 0.48171 0.0
C3528 C 0.61112 0.59724 0.48103 0.0
C3529 C 0.60601 0.57122 0.48385 0.0
C3530 C 0.63759 0.55197 0.50006 0.0
H3531 H 0.62006 0.48353 0.52518 0.0
H3532 H 0.6151 0.50446 0.50914 0.0
H3533 H 0.65 0.53763 0.51379 0.0
H3534 H 0.63414 0.60308 0.48134 0.0
H3535 H 0.64286 0.57798 0.48461 0.0
H3536 H 0.61092 0.5413 0.47607 0.0
C3537 C 0.62638 0.50192 0.5119 0.0
C3538 C 0.64171 0.5382 0.50528 0.0
C3539 C 0.62918 0.48999 0.52113 0.0
C3540 C 0.62619 0.59425 0.48191 0.0
C3541 C 0.63115 0.5799 0.48385 0.0
C3542 C 0.61952 0.54061 0.48424 0.0
C3543 C 0.6379 0.51115 0.50737 0.0
C3544 C 0.63463 0.52545 0.50028 0.0
C3545 C 0.62112 0.56825 0.48528 0.0
C3546 C 0.62631 0.55339 0.48963 0.0
H3547 H 0.6663 0.49368 0.52426 0.0
H3548 H 0.6615 0.51429 0.50783 0.0
H3549 H 0.61804 0.51713 0.4854 0.0
H3550 H 0.58937 0.58768 0.48143 0.0
H3551 H 0.59796 0.56257 0.48513 0.0
C3552 C 0.76478 0.66417 0.65204 0.0
C3553 C 0.76539 0.65225 0.64234 0.0
C3554 C 0.76248 0.67838 0.64668 0.0
C3555 C 0.74593 0.69654 0.61454 0.0
H3556 H 0.76023 0.73208 0.63307 0.0
C3557 C 0.72584 0.75247 0.59485 0.0
C3558 C 0.72021 0.76132 0.60611 0.0
C3559 C 0.7349 0.74057 0.59819 0.0
C3560 C 0.7562 0.72224 0.62777 0.0
H3561 H 0.76486 0.64568 0.61953 0.0
H3562 H 0.7614 0.67048 0.61008 0.0
H3563 H 0.76974 0.70822 0.64096 0.0
H3564 H 0.72021 0.76537 0.62949 0.0
H3565 H 0.73598 0.74447 0.63542 0.0
H3566 H 0.7322 0.71041 0.60159 0.0
C3567 C 0.76227 0.66894 0.62183 0.0
C3568 C 0.76159 0.70858 0.63231 0.0
C3569 C 0.76434 0.65476 0.6272 0.0
C3570 C 0.72449 0.75867 0.62065 0.0
C3571 C 0.73356 0.74677 0.62401 0.0
C3572 C 0.74065 0.71014 0.60995 0.0
C3573 C 0.76085 0.68088 0.63151 0.0
C3574 C 0.75634 0.69554 0.62589 0.0
C3575 C 0.73844 0.73729 0.61285 0.0
C3576 C 0.74553 0.72313 0.61666 0.0
H3577 H 0.76527 0.66243 0.66378 0.0
H3578 H 0.76124 0.68727 0.65448 0.0
H3579 H 0.74135 0.68677 0.60955 0.0
H3580 H 0.72255 0.75423 0.58356 0.0
H3581 H 0.73863 0.73354 0.58935 0.0
C3582 C 0.23059 0.74335 0.40254 0.0
C3583 C 0.22485 0.73488 0.39104 0.0
C3584 C 0.24003 0.75504 0.39953 0.0
C3585 C 0.26144 0.77392 0.37023 0.0
H3586 H 0.24642 0.80894 0.38915 0.0
C3587 C 0.26808 0.83232 0.3463 0.0
C3588 C 0.26867 0.84419 0.35608 0.0
C3589 C 0.26635 0.81801 0.35162 0.0
C3590 C 0.25106 0.7993 0.38397 0.0
H3591 H 0.22526 0.73109 0.36761 0.0
H3592 H 0.2416 0.75167 0.36226 0.0
H3593 H 0.23766 0.78512 0.39689 0.0
H3594 H 0.26873 0.85056 0.37895 0.0
H3595 H 0.26623 0.82562 0.3883 0.0
H3596 H 0.27455 0.78829 0.35699 0.0
C3597 C 0.23898 0.74926 0.3736 0.0
C3598 C 0.24601 0.78558 0.38844 0.0
C3599 C 0.22957 0.73754 0.37663 0.0
C3600 C 0.2682 0.84154 0.37122 0.0
C3601 C 0.26669 0.82727 0.37654 0.0
C3602 C 0.26658 0.7877 0.36578 0.0
C3603 C 0.24382 0.75851 0.38497 0.0
C3604 C 0.25092 0.77274 0.38146 0.0
C3605 C 0.26527 0.81537 0.36681 0.0
C3606 C 0.26123 0.80058 0.37243 0.0
H3607 H 0.22702 0.74156 0.41373 0.0
H3608 H 0.24376 0.76184 0.40854 0.0
H3609 H 0.2655 0.7642 0.36471 0.0
H3610 H 0.26811 0.83415 0.33456 0.0
H3611 H 0.26508 0.80916 0.3438 0.0
C3612 C 0.51159 0.97387 0.63017 0.0
C3613 C 0.50991 0.9682 0.64436 0.0
C3614 C 0.50093 0.98317 0.62427 0.0
C3615 C 0.46615 0.00338 0.63272 0.0
H3616 H 0.45532 0.99003 0.59379 0.0
C3617 C 0.41093 0.99632 0.59628 0.0
C3618 C 0.40422 0.01009 0.59787 0.0
C3619 C 0.42541 0.99417 0.60073 0.0
C3620 C 0.45822 0.99393 0.60463 0.0
H3621 H 0.49643 0.96818 0.66386 0.0
H3622 H 0.47755 0.98418 0.65353 0.0
H3623 H 0.4782 0.98175 0.60461 0.0
H3624 H 0.40732 0.03236 0.60569 0.0
H3625 H 0.4328 0.02864 0.61332 0.0
H3626 H 0.4456 0.01483 0.63299 0.0
C3627 C 0.4872 0.98182 0.647 0.0
C3628 C 0.47147 0.98935 0.61079 0.0
C3629 C 0.49796 0.97264 0.65294 0.0
C3630 C 0.41232 0.02173 0.60396 0.0
C3631 C 0.42684 0.01955 0.6085 0.0
C3632 C 0.45284 0.00795 0.62654 0.0
C3633 C 0.48827 0.98672 0.63238 0.0
C3634 C 0.47542 0.99367 0.62507 0.0
C3635 C 0.43351 0.00571 0.607 0.0
C3636 C 0.44854 0.00288 0.61262 0.0
H3637 H 0.52075 0.97047 0.62338 0.0
H3638 H 0.50226 0.98698 0.61309 0.0
H3639 H 0.46895 0.00707 0.64366 0.0
H3640 H 0.40492 0.98714 0.59171 0.0
H3641 H 0.43011 0.9833 0.59967 0.0
C3642 C 0.27613 0.25769 0.87763 0.0
C3643 C 0.28068 0.26001 0.89215 0.0
C3644 C 0.26727 0.24567 0.87412 0.0
C3645 C 0.2615 0.20847 0.8871 0.0
H3646 H 0.23132 0.20688 0.85714 0.0
C3647 C 0.23801 0.15318 0.86908 0.0
C3648 C 0.2362 0.15113 0.85396 0.0
C3649 C 0.24026 0.16721 0.87477 0.0
C3650 C 0.23978 0.20714 0.86547 0.0
H3651 H 0.27907 0.25217 0.91451 0.0
H3652 H 0.2634 0.23126 0.90846 0.0
H3653 H 0.24058 0.23068 0.86545 0.0
H3654 H 0.23518 0.16192 0.83284 0.0
H3655 H 0.23956 0.18651 0.84268 0.0
H3656 H 0.26135 0.18509 0.88674 0.0
C3657 C 0.26672 0.23865 0.89976 0.0
C3658 C 0.24503 0.22077 0.87026 0.0
C3659 C 0.27555 0.25068 0.90325 0.0
C3660 C 0.23631 0.16333 0.84459 0.0
C3661 C 0.23878 0.17739 0.85025 0.0
C3662 C 0.25637 0.1949 0.88225 0.0
C3663 C 0.26291 0.23574 0.88509 0.0
C3664 C 0.25606 0.22155 0.88102 0.0
C3665 C 0.24109 0.17946 0.8654 0.0
C3666 C 0.24556 0.19403 0.87126 0.0
H3667 H 0.28004 0.26476 0.8689 0.0
H3668 H 0.26463 0.24366 0.86271 0.0
H3669 H 0.27024 0.20868 0.89516 0.0
H3670 H 0.23789 0.14388 0.87649 0.0
H3671 H 0.24166 0.16841 0.88651 0.0
C3672 C 0.58976 0.4858 0.61881 0.0
C3673 C 0.59338 0.4824 0.60422 0.0
C3674 C 0.57512 0.48724 0.62307 0.0
C3675 C 0.53967 0.49776 0.60797 0.0
H3676 H 0.52542 0.48643 0.64645 0.0
C3677 C 0.49692 0.52195 0.65217 0.0
C3678 C 0.48563 0.52615 0.64262 0.0
C3679 C 0.5079 0.51236 0.64738 0.0
C3680 C 0.52922 0.48965 0.63565 0.0
H3681 H 0.58446 0.47798 0.58261 0.0
H3682 H 0.55883 0.48034 0.59009 0.0
H3683 H 0.54922 0.47748 0.63792 0.0
H3684 H 0.47621 0.5231 0.62106 0.0
H3685 H 0.49516 0.50598 0.61274 0.0
H3686 H 0.52013 0.51051 0.60591 0.0
C3687 C 0.56736 0.48177 0.59826 0.0
C3688 C 0.54284 0.48451 0.63077 0.0
C3689 C 0.58204 0.48024 0.594 0.0
C3690 C 0.48484 0.51989 0.6286 0.0
C3691 C 0.49575 0.51024 0.62382 0.0
C3692 C 0.5261 0.50293 0.61286 0.0
C3693 C 0.56375 0.48547 0.6128 0.0
C3694 C 0.54839 0.48886 0.61705 0.0
C3695 C 0.50774 0.50684 0.63295 0.0
C3696 C 0.52089 0.49927 0.62692 0.0
H3697 H 0.59828 0.48755 0.62692 0.0
H3698 H 0.57274 0.49035 0.6343 0.0
H3699 H 0.54371 0.50147 0.59742 0.0
H3700 H 0.49781 0.52686 0.66296 0.0
H3701 H 0.51703 0.51014 0.65466 0.0
C3702 C 0.72732 0.3362 0.14273 0.0
C3703 C 0.72686 0.34816 0.13306 0.0
C3704 C 0.73014 0.32207 0.13744 0.0
C3705 C 0.74893 0.30437 0.10645 0.0
H3706 H 0.73417 0.26853 0.12402 0.0
C3707 C 0.77218 0.24894 0.08886 0.0
C3708 C 0.77685 0.24011 0.10057 0.0
C3709 C 0.76263 0.26067 0.09136 0.0
C3710 C 0.73836 0.27846 0.119 0.0
H3711 H 0.72847 0.35486 0.11035 0.0
H3712 H 0.73298 0.33016 0.10098 0.0
H3713 H 0.72354 0.29217 0.13109 0.0
H3714 H 0.7746 0.23586 0.12381 0.0
H3715 H 0.75803 0.25651 0.12829 0.0
H3716 H 0.76399 0.29084 0.09468 0.0
C3717 C 0.73141 0.33163 0.11267 0.0
C3718 C 0.7323 0.29199 0.12306 0.0
C3719 C 0.72875 0.34575 0.11799 0.0
C3720 C 0.77111 0.24258 0.11463 0.0
C3721 C 0.76158 0.25433 0.11716 0.0
C3722 C 0.75492 0.2909 0.10236 0.0
C3723 C 0.73257 0.31967 0.12237 0.0
C3724 C 0.73771 0.30513 0.11701 0.0
C3725 C 0.75764 0.26381 0.10562 0.0
C3726 C 0.74989 0.2778 0.10876 0.0
H3727 H 0.7263 0.33787 0.15446 0.0
H3728 H 0.7312 0.31318 0.14526 0.0
H3729 H 0.75361 0.31425 0.10178 0.0
H3730 H 0.77656 0.2473 0.07793 0.0
H3731 H 0.75963 0.26765 0.08221 0.0
C3732 C 0.41291 0.98255 0.89774 0.0
C3733 C 0.40047 0.98271 0.88868 0.0
C3734 C 0.42689 0.98475 0.89174 0.0
C3735 C 0.44382 0.00261 0.85973 0.0
H3736 H 0.47983 0.986 0.8752 0.0
C3737 C 0.49901 0.02337 0.83891 0.0
C3738 C 0.50859 0.02769 0.85014 0.0
C3739 C 0.48716 0.01413 0.84201 0.0
C3740 C 0.46985 0.99069 0.87075 0.0
H3741 H 0.39278 0.98455 0.86628 0.0
H3742 H 0.41713 0.98795 0.85573 0.0
H3743 H 0.45612 0.97672 0.88379 0.0
H3744 H 0.51404 0.02517 0.8731 0.0
H3745 H 0.49325 0.00915 0.87863 0.0
H3746 H 0.45739 0.01685 0.84704 0.0
C3747 C 0.41617 0.98649 0.86748 0.0
C3748 C 0.45629 0.98542 0.8757 0.0
C3749 C 0.40224 0.98448 0.87349 0.0
C3750 C 0.50678 0.02188 0.86428 0.0
C3751 C 0.49492 0.01267 0.8674 0.0
C3752 C 0.45732 0.00782 0.85477 0.0
C3753 C 0.42864 0.98709 0.87657 0.0
C3754 C 0.44311 0.9915 0.87041 0.0
C3755 C 0.48465 0.00917 0.85641 0.0
C3756 C 0.4705 0.00211 0.86038 0.0
H3757 H 0.4118 0.98154 0.90952 0.0
H3758 H 0.4362 0.98536 0.8991 0.0
H3759 H 0.43394 0.0078 0.85563 0.0
H3760 H 0.50011 0.02787 0.82796 0.0
H3761 H 0.47956 0.01146 0.83327 0.0
C3762 C 0.98538 0.98107 0.36449 0.0
C3763 C 0.98647 0.97378 0.35099 0.0
C3764 C 0.99641 0.99072 0.36897 0.0
C3765 C 0.02661 0.99739 0.3806 0.0
H3766 H 0.0518 0.02022 0.35503 0.0
C3767 C 0.09117 0.01157 0.37631 0.0
C3768 C 0.09434 0.01552 0.39086 0.0
C3769 C 0.07667 0.01048 0.3715 0.0
C3770 C 0.04484 0.01391 0.36231 0.0
H3771 H -0.0007 0.97128 0.3312 0.0
H3772 H 0.01874 0.98799 0.339 0.0
H3773 H 0.02794 0.0118 0.34609 0.0
H3774 H 0.08472 0.02129 0.41185 0.0
H3775 H 0.05936 0.01963 0.4034 0.0
H3776 H 0.04366 0.99898 0.39661 0.0
C3777 C 0.00928 0.98658 0.34606 0.0
C3778 C 0.03118 0.0091 0.3572 0.0
C3779 C 0.99818 0.97701 0.34156 0.0
C3780 C 0.08269 0.01861 0.40047 0.0
C3781 C 0.06814 0.01747 0.39567 0.0
C3782 C 0.04021 0.00223 0.38571 0.0
C3783 C 0.00883 0.99306 0.36009 0.0
C3784 C 0.02209 0.00041 0.36615 0.0
C3785 C 0.06498 0.01319 0.38118 0.0
C3786 C 0.04966 0.01018 0.37649 0.0
H3787 H 0.97644 0.9786 0.37194 0.0
H3788 H 0.99559 0.99574 0.37971 0.0
H3789 H 0.02004 0.99051 0.38774 0.0
H3790 H 0.09994 0.0091 0.36866 0.0
H3791 H 0.07463 0.00691 0.36035 0.0
C3792 C 0.15326 0.09165 0.41098 0.0
C3793 C 0.14569 0.07841 0.40859 0.0
C3794 C 0.14813 0.10474 0.4048 0.0
C3795 C 0.11564 0.12149 0.38657 0.0
H3796 H 0.14459 0.1422 0.36326 0.0
C3797 C 0.09901 0.16349 0.34205 0.0
C3798 C 0.10569 0.16061 0.32843 0.0
C3799 C 0.1043 0.15684 0.35485 0.0
C3800 C 0.13639 0.13663 0.36983 0.0
H3801 H 0.12646 0.06867 0.39839 0.0
H3802 H 0.11771 0.0913 0.38756 0.0
H3803 H 0.15261 0.12389 0.38102 0.0
H3804 H 0.12332 0.14871 0.31766 0.0
H3805 H 0.13238 0.13714 0.33978 0.0
H3806 H 0.09937 0.13348 0.37461 0.0
C3807 C 0.1275 0.09167 0.3943 0.0
C3808 C 0.14099 0.12625 0.38011 0.0
C3809 C 0.13264 0.07863 0.40037 0.0
C3810 C 0.11791 0.15122 0.32793 0.0
C3811 C 0.12322 0.14468 0.34067 0.0
C3812 C 0.11104 0.13186 0.37627 0.0
C3813 C 0.13527 0.10483 0.39625 0.0
C3814 C 0.13063 0.11811 0.3881 0.0
C3815 C 0.11643 0.14731 0.35425 0.0
C3816 C 0.12135 0.13903 0.36734 0.0
H3817 H 0.1633 0.09185 0.41735 0.0
H3818 H 0.15431 0.11475 0.40652 0.0
H3819 H 0.10743 0.11555 0.39278 0.0
H3820 H 0.0896 0.17072 0.34281 0.0
H3821 H 0.09886 0.15906 0.36518 0.0
C3822 C 0.15695 0.90434 0.65814 0.0
C3823 C 0.16863 0.89457 0.66052 0.0
C3824 C 0.14428 0.8996 0.65089 0.0
C3825 C 0.12303 0.86746 0.63903 0.0
H3826 H 0.11789 0.88887 0.60266 0.0
C3827 C 0.09523 0.84203 0.58822 0.0
C3828 C 0.08915 0.85139 0.57765 0.0
C3829 C 0.10189 0.84789 0.60076 0.0
C3830 C 0.11876 0.88293 0.61291 0.0
H3831 H 0.17584 0.87199 0.65826 0.0
H3832 H 0.15363 0.86369 0.64581 0.0
H3833 H 0.13455 0.89821 0.62111 0.0
H3834 H 0.08397 0.87394 0.57229 0.0
H3835 H 0.09463 0.88414 0.59451 0.0
H3836 H 0.10726 0.85211 0.63085 0.0
C3837 C 0.15431 0.875 0.64942 0.0
C3838 C 0.1284 0.88831 0.62347 0.0
C3839 C 0.16706 0.87979 0.6564 0.0
C3840 C 0.08885 0.86655 0.58022 0.0
C3841 C 0.09508 0.87237 0.59291 0.0
C3842 C 0.11311 0.86219 0.62856 0.0
C3843 C 0.143 0.88496 0.64623 0.0
C3844 C 0.13092 0.88043 0.63644 0.0
C3845 C 0.10223 0.86319 0.60308 0.0
C3846 C 0.11115 0.86965 0.61516 0.0
H3847 H 0.15787 0.91579 0.66122 0.0
H3848 H 0.13567 0.90746 0.64852 0.0
H3849 H 0.12479 0.86123 0.649 0.0
H3850 H 0.09558 0.83028 0.5864 0.0
H3851 H 0.1074 0.84044 0.60819 0.0
C3852 C 0.40084 0.8334 0.84495 0.0
C3853 C 0.39343 0.8359 0.83165 0.0
C3854 C 0.39562 0.83961 0.85801 0.0
C3855 C 0.36312 0.85829 0.87433 0.0
H3856 H 0.39204 0.88171 0.89495 0.0
C3857 C 0.34591 0.90455 0.91392 0.0
C3858 C 0.35288 0.91794 0.9107 0.0
C3859 C 0.35134 0.89138 0.90815 0.0
C3860 C 0.38384 0.87512 0.8894 0.0
H3861 H 0.37437 0.84624 0.82173 0.0
H3862 H 0.36545 0.85708 0.84427 0.0
H3863 H 0.40011 0.86345 0.87715 0.0
H3864 H 0.37136 0.92791 0.89939 0.0
H3865 H 0.38059 0.90516 0.88924 0.0
H3866 H 0.34682 0.87075 0.88572 0.0
C3867 C 0.37519 0.85026 0.84474 0.0
C3868 C 0.38847 0.86454 0.87932 0.0
C3869 C 0.38042 0.84419 0.83175 0.0
C3870 C 0.36564 0.91783 0.90203 0.0
C3871 C 0.37107 0.90472 0.89635 0.0
C3872 C 0.35849 0.86889 0.88437 0.0
C3873 C 0.38282 0.84826 0.85798 0.0
C3874 C 0.37813 0.85654 0.87117 0.0
C3875 C 0.36389 0.89137 0.89917 0.0
C3876 C 0.3688 0.8779 0.89147 0.0
H3877 H 0.41086 0.827 0.84522 0.0
H3878 H 0.40171 0.83787 0.86807 0.0
H3879 H 0.35491 0.85207 0.86838 0.0
H3880 H 0.33612 0.90425 0.92065 0.0
H3881 H 0.34561 0.88124 0.91055 0.0
C3882 C 0.40494 0.13203 0.08301 0.0
C3883 C 0.40955 0.14659 0.08094 0.0
C3884 C 0.39829 0.1278 0.09611 0.0
C3885 C 0.37353 0.142 0.12236 0.0
H3886 H 0.38137 0.10625 0.1441 0.0
C3887 C 0.33025 0.11974 0.16176 0.0
C3888 C 0.32799 0.10453 0.1614 0.0
C3889 C 0.3429 0.12584 0.1557 0.0
C3890 C 0.37896 0.11622 0.1381 0.0
H3891 H 0.41135 0.16805 0.09107 0.0
H3892 H 0.39907 0.16072 0.11391 0.0
H3893 H 0.39928 0.11515 0.12622 0.0
H3894 H 0.33729 0.08363 0.15504 0.0
H3895 H 0.35899 0.09423 0.14356 0.0
H3896 H 0.35277 0.14257 0.13302 0.0
C3897 C 0.4009 0.15259 0.10544 0.0
C3898 C 0.38929 0.12137 0.128 0.0
C3899 C 0.40788 0.15675 0.09241 0.0
C3900 C 0.33884 0.09541 0.15543 0.0
C3901 C 0.35134 0.10153 0.14897 0.0
C3902 C 0.36307 0.13672 0.1322 0.0
C3903 C 0.39587 0.13813 0.10727 0.0
C3904 C 0.38648 0.13411 0.11983 0.0
C3905 C 0.35337 0.11688 0.1487 0.0
C3906 C 0.36546 0.12354 0.13994 0.0
H3907 H 0.40621 0.12395 0.07437 0.0
H3908 H 0.39434 0.11664 0.09721 0.0
H3909 H 0.37104 0.15175 0.11602 0.0
H3910 H 0.32212 0.12696 0.1666 0.0
H3911 H 0.34426 0.13764 0.15616 0.0
C3912 C 0.0977 0.83564 0.15757 0.0
C3913 C 0.10423 0.83847 0.17126 0.0
C3914 C 0.10305 0.84244 0.14487 0.0
C3915 C 0.13503 0.86311 0.13029 0.0
H3916 H 0.10599 0.88339 0.10671 0.0
C3917 C 0.13068 0.92018 0.09769 0.0
C3918 C 0.14367 0.92019 0.08937 0.0
C3919 C 0.12577 0.90737 0.10442 0.0
C3920 C 0.11424 0.87769 0.11311 0.0
H3921 H 0.12168 0.85041 0.18229 0.0
H3922 H 0.13081 0.86227 0.16033 0.0
H3923 H 0.09803 0.86565 0.12508 0.0
H3924 H 0.16149 0.90663 0.08124 0.0
H3925 H 0.15291 0.88415 0.0932 0.0
H3926 H 0.15118 0.87588 0.11902 0.0
C3927 C 0.12173 0.85466 0.1593 0.0
C3928 C 0.10968 0.86742 0.12353 0.0
C3929 C 0.11637 0.84796 0.17194 0.0
C3930 C 0.15147 0.90698 0.08764 0.0
C3931 C 0.14658 0.89413 0.09448 0.0
C3932 C 0.13959 0.87339 0.11989 0.0
C3933 C 0.11506 0.85209 0.14565 0.0
C3934 C 0.12001 0.86049 0.13264 0.0
C3935 C 0.13374 0.89425 0.10304 0.0
C3936 C 0.12919 0.88122 0.11163 0.0
H3937 H 0.08837 0.82834 0.15666 0.0
H3938 H 0.09772 0.84023 0.13448 0.0
H3939 H 0.14325 0.85773 0.13699 0.0
H3940 H 0.12433 0.93012 0.09919 0.0
H3941 H 0.11599 0.90791 0.11116 0.0
C3942 C 0.3447 0.90167 0.33245 0.0
C3943 C 0.33151 0.89423 0.33545 0.0
C3944 C 0.35803 0.89641 0.33804 0.0
C3945 C 0.37502 0.86394 0.35641 0.0
H3946 H 0.39677 0.89321 0.37829 0.0
C3947 C 0.41487 0.84742 0.40266 0.0
C3948 C 0.41183 0.85493 0.41579 0.0
C3949 C 0.40924 0.85255 0.38931 0.0
C3950 C 0.39092 0.88491 0.37211 0.0
H3951 H 0.32208 0.87506 0.34605 0.0
H3952 H 0.34504 0.86615 0.35591 0.0
H3953 H 0.37844 0.90101 0.3605 0.0
H3954 H 0.4011 0.8741 0.4251 0.0
H3955 H 0.3912 0.88281 0.40209 0.0
H3956 H 0.38659 0.84785 0.36896 0.0
C3957 C 0.34525 0.8759 0.34911 0.0
C3958 C 0.38052 0.88938 0.36179 0.0
C3959 C 0.332 0.88115 0.34361 0.0
C3960 C 0.40357 0.86795 0.41522 0.0
C3961 C 0.39804 0.87308 0.40195 0.0
C3962 C 0.38536 0.85947 0.3668 0.0
C3963 C 0.35839 0.88357 0.34661 0.0
C3964 C 0.37192 0.87893 0.3544 0.0
C3965 C 0.4006 0.86535 0.38886 0.0
C3966 C 0.39284 0.86993 0.37531 0.0
H3967 H 0.3447 0.91172 0.3261 0.0
H3968 H 0.36799 0.90252 0.33587 0.0
H3969 H 0.36879 0.85564 0.35062 0.0
H3970 H 0.42127 0.8374 0.40274 0.0
H3971 H 0.41142 0.84639 0.37938 0.0
C3972 C 0.34529 0.08905 0.59111 0.0
C3973 C 0.35452 0.07807 0.58555 0.0
C3974 C 0.35128 0.10143 0.5979 0.0
C3975 C 0.38589 0.11278 0.61616 0.0
H3976 H 0.3646 0.14931 0.62104 0.0
C3977 C 0.40544 0.15836 0.65536 0.0
C3978 C 0.39517 0.16024 0.66671 0.0
C3979 C 0.40144 0.15106 0.64247 0.0
C3980 C 0.37073 0.13922 0.61958 0.0
H3981 H 0.37708 0.07185 0.58145 0.0
H3982 H 0.38758 0.09381 0.59241 0.0
H3983 H 0.35612 0.13136 0.603 0.0
H3984 H 0.37249 0.1569 0.67317 0.0
H3985 H 0.36544 0.14449 0.6505 0.0
H3986 H 0.40047 0.12074 0.63276 0.0
C3987 C 0.37576 0.09264 0.59232 0.0
C3988 C 0.36582 0.12886 0.60939 0.0
C3989 C 0.36977 0.08008 0.58595 0.0
C3990 C 0.38065 0.15548 0.66463 0.0
C3991 C 0.37658 0.14851 0.65164 0.0
C3992 C 0.39096 0.12326 0.62607 0.0
C3993 C 0.36663 0.10323 0.59889 0.0
C3994 C 0.37305 0.11527 0.60791 0.0
C3995 C 0.38702 0.14593 0.64062 0.0
C3996 C 0.38318 0.13635 0.62818 0.0
H3997 H 0.33348 0.08768 0.59093 0.0
H3998 H 0.34385 0.10918 0.60297 0.0
H3999 H 0.39165 0.1024 0.61563 0.0
H4000 H 0.41671 0.16193 0.65672 0.0
H4001 H 0.40965 0.1491 0.6341 0.0
C4002 C 0.09139 0.15755 0.90692 0.0
C4003 C 0.08934 0.14706 0.91803 0.0
C4004 C 0.09819 0.15358 0.89374 0.0
C4005 C 0.10856 0.12289 0.86994 0.0
H4006 H 0.14592 0.14278 0.86579 0.0
C4007 C 0.1579 0.09609 0.84135 0.0
C4008 C 0.1692 0.10497 0.83588 0.0
C4009 C 0.14563 0.10246 0.84801 0.0
C4010 C 0.13538 0.13732 0.86636 0.0
H4011 H 0.09177 0.12407 0.92376 0.0
H4012 H 0.10332 0.11713 0.90061 0.0
H4013 H 0.12804 0.15193 0.88321 0.0
H4014 H 0.1761 0.12733 0.83177 0.0
H4015 H 0.15435 0.1385 0.84252 0.0
H4016 H 0.11584 0.10821 0.85315 0.0
C4017 C 0.09981 0.12839 0.90214 0.0
C4018 C 0.12516 0.14258 0.87645 0.0
C4019 C 0.09335 0.1324 0.91541 0.0
C4020 C 0.16761 0.12027 0.83619 0.0
C4021 C 0.15517 0.12665 0.84245 0.0
C4022 C 0.11867 0.11778 0.85959 0.0
C4023 C 0.10264 0.13902 0.89137 0.0
C4024 C 0.11189 0.13513 0.87866 0.0
C4025 C 0.14428 0.11785 0.84898 0.0
C4026 C 0.13245 0.12462 0.85804 0.0
H4027 H 0.08839 0.16892 0.90868 0.0
H4028 H 0.10033 0.16195 0.88556 0.0
H4029 H 0.09833 0.11702 0.87146 0.0
H4030 H 0.15894 0.08424 0.84124 0.0
H4031 H 0.13764 0.09526 0.85305 0.0
C4032 C 0.15571 0.33144 0.11703 0.0
C4033 C 0.15988 0.32927 0.10235 0.0
C4034 C 0.14846 0.34425 0.12121 0.0
C4035 C 0.12182 0.36895 0.10747 0.0
H4036 H 0.13056 0.39262 0.14174 0.0
C4037 C 0.07864 0.40875 0.12933 0.0
C4038 C 0.07705 0.40935 0.14461 0.0
C4039 C 0.09112 0.40246 0.12309 0.0
C4040 C 0.12788 0.38606 0.13221 0.0
H4041 H 0.16021 0.33893 0.08061 0.0
H4042 H 0.14691 0.36121 0.08789 0.0
H4043 H 0.1486 0.37485 0.13289 0.0
H4044 H 0.08731 0.40446 0.16544 0.0
H4045 H 0.10872 0.39258 0.15466 0.0
H4046 H 0.10074 0.37899 0.10732 0.0
C4047 C 0.14953 0.35305 0.09613 0.0
C4048 C 0.13828 0.37601 0.12708 0.0
C4049 C 0.15711 0.34036 0.092 0.0
C4050 C 0.08836 0.40411 0.15361 0.0
C4051 C 0.10068 0.39741 0.14737 0.0
C4052 C 0.1113 0.37873 0.11275 0.0
C4053 C 0.145 0.35498 0.11074 0.0
C4054 C 0.1352 0.36721 0.11483 0.0
C4055 C 0.10206 0.39618 0.13201 0.0
C4056 C 0.11405 0.38722 0.12539 0.0
H4057 H 0.15785 0.32312 0.12524 0.0
H4058 H 0.14492 0.34544 0.1325 0.0
H4059 H 0.11913 0.3621 0.09812 0.0
H4060 H 0.07013 0.41299 0.12219 0.0
H4061 H 0.09196 0.40219 0.11124 0.0
C4062 C 0.59148 0.08556 0.84607 0.0
C4063 C 0.5781 0.08813 0.85334 0.0
C4064 C 0.60458 0.09128 0.85167 0.0
C4065 C 0.62082 0.10932 0.88467 0.0
H4066 H 0.64274 0.13186 0.85603 0.0
C4067 C 0.66189 0.15438 0.90206 0.0
C4068 C 0.65904 0.16781 0.89501 0.0
C4069 C 0.65572 0.14135 0.89671 0.0
C4070 C 0.63684 0.1255 0.86415 0.0
H4071 H 0.56812 0.09806 0.87258 0.0
H4072 H 0.59076 0.10821 0.8821 0.0
H4073 H 0.62448 0.11423 0.84773 0.0
H4074 H 0.64806 0.17802 0.87648 0.0
H4075 H 0.63729 0.15553 0.86734 0.0
H4076 H 0.63238 0.12146 0.9011 0.0
C4077 C 0.59125 0.10164 0.8722 0.0
C4078 C 0.62647 0.11528 0.8594 0.0
C4079 C 0.5782 0.09597 0.86662 0.0
C4080 C 0.65039 0.16789 0.88226 0.0
C4081 C 0.64435 0.15493 0.87688 0.0
C4082 C 0.63115 0.11959 0.88942 0.0
C4083 C 0.60456 0.09961 0.86467 0.0
C4084 C 0.61786 0.10759 0.86962 0.0
C4085 C 0.64678 0.14155 0.88413 0.0
C4086 C 0.63874 0.12829 0.8792 0.0
H4087 H 0.59178 0.07945 0.83588 0.0
H4088 H 0.61469 0.08945 0.84568 0.0
H4089 H 0.61455 0.10332 0.8928 0.0
H4090 H 0.66857 0.15397 0.91188 0.0
H4091 H 0.65779 0.13117 0.90249 0.0
C4092 C 0.90829 0.90733 0.34773 0.0
C4093 C 0.92096 0.9102 0.35604 0.0
C4094 C 0.89658 0.89954 0.35396 0.0
C4095 C 0.89215 0.87116 0.38144 0.0
H4096 H 0.85029 0.87544 0.37486 0.0
C4097 C 0.85311 0.82289 0.38627 0.0
C4098 C 0.84131 0.82445 0.39609 0.0
C4099 C 0.86129 0.83504 0.38198 0.0
C4100 C 0.86195 0.87425 0.37687 0.0
H4101 H 0.9307 0.90862 0.37772 0.0
H4102 H 0.91031 0.89529 0.38854 0.0
H4103 H 0.8672 0.89489 0.3667 0.0
H4104 H 0.82847 0.84013 0.40863 0.0
H4105 H 0.84288 0.86157 0.40089 0.0
H4106 H 0.88708 0.85044 0.39117 0.0
C4107 C 0.90954 0.89866 0.37716 0.0
C4108 C 0.87159 0.88527 0.37214 0.0
C4109 C 0.92121 0.90628 0.37095 0.0
C4110 C 0.83757 0.83857 0.40113 0.0
C4111 C 0.84571 0.85082 0.39666 0.0
C4112 C 0.8826 0.86016 0.38598 0.0
C4113 C 0.8974 0.89464 0.36857 0.0
C4114 C 0.8868 0.88375 0.37432 0.0
C4115 C 0.8578 0.84906 0.38727 0.0
C4116 C 0.86747 0.8615 0.38356 0.0
H4117 H 0.9078 0.9103 0.33623 0.0
H4118 H 0.88735 0.89655 0.34709 0.0
H4119 H 0.90382 0.86955 0.38308 0.0
H4120 H 0.85628 0.81222 0.38208 0.0
H4121 H 0.8705 0.83346 0.37461 0.0
C4122 C 0.83978 0.15851 0.09265 0.0
C4123 C 0.83788 0.1705 0.10216 0.0
C4124 C 0.84673 0.14575 0.09759 0.0
C4125 C 0.85823 0.12478 0.12996 0.0
H4126 H 0.89439 0.11823 0.10854 0.0
C4127 C 0.90823 0.09595 0.15577 0.0
C4128 C 0.91872 0.08954 0.14654 0.0
C4129 C 0.89585 0.10278 0.14979 0.0
C4130 C 0.88418 0.11948 0.11449 0.0
H4131 H 0.84076 0.17821 0.1245 0.0
H4132 H 0.85265 0.15581 0.13316 0.0
H4133 H 0.8764 0.1353 0.099 0.0
H4134 H 0.92408 0.08397 0.12408 0.0
H4135 H 0.90207 0.09493 0.11367 0.0
H4136 H 0.86595 0.10896 0.14548 0.0
C4137 C 0.84888 0.15633 0.1219 0.0
C4138 C 0.87389 0.12937 0.109 0.0
C4139 C 0.84221 0.16917 0.1169 0.0
C4140 C 0.91619 0.08909 0.13138 0.0
C4141 C 0.90363 0.09549 0.12543 0.0
C4142 C 0.8684 0.1146 0.13532 0.0
C4143 C 0.85157 0.14469 0.11219 0.0
C4144 C 0.86103 0.1324 0.11687 0.0
C4145 C 0.89359 0.10298 0.13447 0.0
C4146 C 0.88173 0.11213 0.12787 0.0
H4147 H 0.83654 0.15923 0.08124 0.0
H4148 H 0.84873 0.13689 0.08992 0.0
H4149 H 0.84832 0.12693 0.13617 0.0
H4150 H 0.91003 0.09644 0.16752 0.0
H4151 H 0.88851 0.10854 0.15714 0.0
C4152 C 0.34639 0.66931 0.61496 0.0
C4153 C 0.33828 0.66961 0.60185 0.0
C4154 C 0.3524 0.65624 0.6201 0.0
C4155 C 0.36655 0.62161 0.60646 0.0
H4156 H 0.37256 0.61469 0.64803 0.0
C4157 C 0.41925 0.59727 0.62917 0.0
C4158 C 0.41912 0.58869 0.64199 0.0
C4159 C 0.4063 0.60326 0.62369 0.0
C4160 C 0.37076 0.61619 0.63638 0.0
H4161 H 0.32958 0.65624 0.58416 0.0
H4162 H 0.34025 0.63327 0.59317 0.0
H4163 H 0.35422 0.63244 0.6401 0.0
H4164 H 0.40514 0.57916 0.65875 0.0
H4165 H 0.38241 0.58975 0.64914 0.0
H4166 H 0.38338 0.60565 0.60276 0.0
C4167 C 0.34196 0.64325 0.59939 0.0
C4168 C 0.36036 0.62648 0.63184 0.0
C4169 C 0.33586 0.65639 0.59426 0.0
C4170 C 0.40563 0.58581 0.64891 0.0
C4171 C 0.39262 0.59188 0.64343 0.0
C4172 C 0.37691 0.61127 0.611 0.0
C4173 C 0.35047 0.6431 0.61227 0.0
C4174 C 0.35866 0.62981 0.61687 0.0
C4175 C 0.39287 0.60084 0.63087 0.0
C4176 C 0.37962 0.60898 0.62602 0.0
H4177 H 0.34842 0.67926 0.62114 0.0
H4178 H 0.35911 0.65659 0.62991 0.0
H4179 H 0.36551 0.6239 0.59485 0.0
H4180 H 0.42942 0.59968 0.62351 0.0
H4181 H 0.40695 0.61034 0.61416 0.0
C4182 C 0.16375 0.66433 0.37655 0.0
C4183 C 0.16334 0.66689 0.39171 0.0
C4184 C 0.15726 0.6518 0.37065 0.0
C4185 C 0.13766 0.61688 0.38075 0.0
H4186 H 0.11681 0.62514 0.34457 0.0
C4187 C 0.08161 0.59347 0.36368 0.0
C4188 C 0.07988 0.58859 0.34916 0.0
C4189 C 0.09489 0.59951 0.36828 0.0
C4190 C 0.1228 0.62255 0.35452 0.0
H4191 H 0.15643 0.6583 0.41272 0.0
H4192 H 0.14414 0.63688 0.40243 0.0
H4193 H 0.13451 0.6427 0.35376 0.0
H4194 H 0.09078 0.58564 0.32821 0.0
H4195 H 0.11394 0.59686 0.33617 0.0
H4196 H 0.12469 0.59724 0.38197 0.0
C4197 C 0.14995 0.64413 0.39504 0.0
C4198 C 0.13304 0.63259 0.35981 0.0
C4199 C 0.15688 0.65647 0.40098 0.0
C4200 C 0.09185 0.58934 0.33946 0.0
C4201 C 0.10506 0.59571 0.34399 0.0
C4202 C 0.12713 0.60698 0.3756 0.0
C4203 C 0.14971 0.64183 0.37973 0.0
C4204 C 0.1404 0.63008 0.37318 0.0
C4205 C 0.10658 0.60104 0.35837 0.0
C4206 C 0.11943 0.60991 0.36259 0.0
H4207 H 0.16891 0.67216 0.36924 0.0
H4208 H 0.1578 0.6502 0.35889 0.0
H4209 H 0.14332 0.61436 0.39089 0.0
H4210 H 0.0726 0.59289 0.37141 0.0
H4211 H 0.09577 0.60371 0.37937 0.0
C4212 C 0.34249 0.33429 0.88144 0.0
C4213 C 0.33831 0.33219 0.89613 0.0
C4214 C 0.34868 0.34754 0.87697 0.0
C4215 C 0.37314 0.37438 0.8907 0.0
H4216 H 0.36465 0.39572 0.85488 0.0
C4217 C 0.41575 0.41412 0.86803 0.0
C4218 C 0.41792 0.41371 0.85282 0.0
C4219 C 0.40312 0.40807 0.87421 0.0
C4220 C 0.36725 0.38983 0.86486 0.0
H4221 H 0.3367 0.34248 0.91753 0.0
H4222 H 0.34814 0.36558 0.90975 0.0
H4223 H 0.34717 0.37753 0.86399 0.0
H4224 H 0.40854 0.40732 0.83199 0.0
H4225 H 0.3869 0.39581 0.84273 0.0
H4226 H 0.39368 0.38544 0.89109 0.0
C4227 C 0.34635 0.357 0.90172 0.0
C4228 C 0.35715 0.37954 0.87013 0.0
C4229 C 0.33984 0.34382 0.90614 0.0
C4230 C 0.40701 0.40776 0.84377 0.0
C4231 C 0.39456 0.40128 0.84997 0.0
C4232 C 0.38336 0.38439 0.8853 0.0
C4233 C 0.35105 0.35884 0.88715 0.0
C4234 C 0.36019 0.37153 0.88293 0.0
C4235 C 0.39264 0.40098 0.86533 0.0
C4236 C 0.38074 0.39201 0.8721 0.0
H4237 H 0.3413 0.32554 0.87347 0.0
H4238 H 0.35237 0.34865 0.86572 0.0
H4239 H 0.37582 0.36815 0.90048 0.0
H4240 H 0.42396 0.4189 0.87518 0.0
H4241 H 0.40185 0.40855 0.88601 0.0
C4242 C 0.63112 0.57828 0.90144 0.0
C4243 C 0.64389 0.57865 0.91008 0.0
C4244 C 0.62568 0.59104 0.89503 0.0
C4245 C 0.61302 0.62029 0.88631 0.0
H4246 H 0.64212 0.64234 0.86447 0.0
C4247 C 0.59656 0.66191 0.84139 0.0
C4248 C 0.60392 0.65944 0.82805 0.0
C4249 C 0.60162 0.65542 0.85437 0.0
C4250 C 0.63387 0.63638 0.87061 0.0
H4251 H 0.66066 0.59289 0.91922 0.0
H4252 H 0.65114 0.61528 0.90786 0.0
H4253 H 0.65007 0.62426 0.88248 0.0
H4254 H 0.62266 0.64863 0.81801 0.0
H4255 H 0.63132 0.63734 0.84043 0.0
H4256 H 0.59684 0.63169 0.87367 0.0
C4257 C 0.64541 0.60503 0.90605 0.0
C4258 C 0.63842 0.62613 0.88104 0.0
C4259 C 0.65084 0.59221 0.91255 0.0
C4260 C 0.61668 0.65076 0.82805 0.0
C4261 C 0.62176 0.64439 0.84097 0.0
C4262 C 0.60847 0.63053 0.87585 0.0
C4263 C 0.63288 0.60452 0.89705 0.0
C4264 C 0.62805 0.61753 0.88854 0.0
C4265 C 0.61421 0.64648 0.85424 0.0
C4266 C 0.61887 0.63822 0.86745 0.0
H4267 H 0.62544 0.56805 0.89933 0.0
H4268 H 0.61616 0.5902 0.88795 0.0
H4269 H 0.60477 0.614 0.89212 0.0
H4270 H 0.58673 0.66859 0.84176 0.0
H4271 H 0.59561 0.65725 0.86445 0.0
C4272 C 0.66095 0.38228 0.15876 0.0
C4273 C 0.66353 0.39699 0.16256 0.0
C4274 C 0.64746 0.37806 0.1529 0.0
C4275 C 0.62151 0.39249 0.1281 0.0
H4276 H 0.59975 0.35667 0.13551 0.0
C4277 C 0.58507 0.36936 0.08302 0.0
C4278 C 0.58584 0.35413 0.081 0.0
C4279 C 0.58994 0.37567 0.09608 0.0
C4280 C 0.60575 0.36667 0.13322 0.0
H4281 H 0.65386 0.41867 0.16409 0.0
H4282 H 0.63031 0.41134 0.15324 0.0
H4283 H 0.61714 0.36572 0.15382 0.0
H4284 H 0.59159 0.33341 0.09102 0.0
H4285 H 0.60116 0.3444 0.11345 0.0
H4286 H 0.6115 0.3929 0.10706 0.0
C4287 C 0.63869 0.40309 0.15505 0.0
C4288 C 0.61556 0.37191 0.1438 0.0
C4289 C 0.65211 0.40726 0.16122 0.0
C4290 C 0.59091 0.34521 0.09243 0.0
C4291 C 0.59626 0.35155 0.10534 0.0
C4292 C 0.61199 0.38711 0.11741 0.0
C4293 C 0.63642 0.38853 0.1505 0.0
C4294 C 0.6238 0.38465 0.14112 0.0
C4295 C 0.59625 0.36694 0.10716 0.0
C4296 C 0.6043 0.37387 0.11961 0.0
H4297 H 0.66953 0.37413 0.15986 0.0
H4298 H 0.64603 0.3668 0.14934 0.0
H4299 H 0.62792 0.40221 0.12568 0.0
H4300 H 0.58095 0.3764 0.07437 0.0
H4301 H 0.58923 0.38748 0.09722 0.0
C4302 C 0.88048 0.3436 0.33325 0.0
C4303 C 0.89397 0.33613 0.33302 0.0
C4304 C 0.87536 0.35003 0.34612 0.0
C4305 C 0.88944 0.367 0.37916 0.0
H4306 H 0.8479 0.37185 0.38722 0.0
C4307 C 0.86584 0.42009 0.40195 0.0
C4308 C 0.85386 0.41982 0.41166 0.0
C4309 C 0.8712 0.40716 0.39583 0.0
C4310 C 0.85956 0.37042 0.38537 0.0
H4311 H 0.91234 0.3289 0.34633 0.0
H4312 H 0.90339 0.34035 0.36896 0.0
H4313 H 0.85598 0.35263 0.37045 0.0
H4314 H 0.83824 0.40562 0.42272 0.0
H4315 H 0.8476 0.38293 0.41184 0.0
H4316 H 0.89298 0.38505 0.39374 0.0
C4317 C 0.89684 0.34122 0.35908 0.0
C4318 C 0.86418 0.35949 0.37567 0.0
C4319 C 0.90194 0.33466 0.34615 0.0
C4320 C 0.84744 0.40623 0.41521 0.0
C4321 C 0.8528 0.39323 0.40901 0.0
C4322 C 0.88482 0.37789 0.38889 0.0
C4323 C 0.88361 0.3492 0.35911 0.0
C4324 C 0.8791 0.35812 0.37195 0.0
C4325 C 0.86472 0.39359 0.39922 0.0
C4326 C 0.86979 0.38014 0.39157 0.0
H4327 H 0.87398 0.34481 0.32336 0.0
H4328 H 0.86525 0.35628 0.34567 0.0
H4329 H 0.90101 0.36625 0.37652 0.0
H4330 H 0.87099 0.43034 0.39888 0.0
H4331 H 0.88017 0.40787 0.38805 0.0
C4332 C 0.84195 0.59215 0.65978 0.0
C4333 C 0.83004 0.60188 0.66103 0.0
C4334 C 0.85498 0.59672 0.6531 0.0
C4335 C 0.87662 0.62853 0.64118 0.0
H4336 H 0.88376 0.6059 0.60591 0.0
C4337 C 0.90537 0.65281 0.59055 0.0
C4338 C 0.9118 0.64327 0.58035 0.0
C4339 C 0.89874 0.64719 0.60319 0.0
C4340 C 0.88236 0.61218 0.61589 0.0
H4341 H 0.82274 0.62424 0.6573 0.0
H4342 H 0.84559 0.63224 0.64583 0.0
H4343 H 0.86635 0.597 0.62386 0.0
H4344 H 0.91769 0.62072 0.57577 0.0
H4345 H 0.9071 0.61097 0.59826 0.0
H4346 H 0.89258 0.64379 0.63322 0.0
C4347 C 0.8448 0.62109 0.64991 0.0
C4348 C 0.87227 0.60705 0.62616 0.0
C4349 C 0.8317 0.61647 0.65632 0.0
C4350 C 0.91255 0.62823 0.58344 0.0
C4351 C 0.90636 0.62266 0.59627 0.0
C4352 C 0.88698 0.63354 0.63103 0.0
C4353 C 0.85639 0.61115 0.64789 0.0
C4354 C 0.86899 0.61539 0.63865 0.0
C4355 C 0.89878 0.63196 0.606 0.0
C4356 C 0.88964 0.62566 0.618 0.0
H4357 H 0.84098 0.58085 0.66335 0.0
H4358 H 0.8638 0.58888 0.65161 0.0
H4359 H 0.87427 0.63509 0.65082 0.0
H4360 H 0.90467 0.66446 0.5883 0.0
H4361 H 0.8929 0.65472 0.61028 0.0
C4362 C 0.65182 0.40519 0.5856 0.0
C4363 C 0.64432 0.41848 0.58794 0.0
C4364 C 0.64669 0.39217 0.59193 0.0
C4365 C 0.61431 0.37572 0.61069 0.0
H4366 H 0.64349 0.35462 0.63335 0.0
C4367 C 0.59752 0.33443 0.65554 0.0
C4368 C 0.60444 0.33726 0.66904 0.0
C4369 C 0.60294 0.34068 0.64259 0.0
C4370 C 0.63522 0.36031 0.62698 0.0
H4371 H 0.62519 0.42839 0.59818 0.0
H4372 H 0.61645 0.40588 0.60929 0.0
H4373 H 0.65135 0.37295 0.61555 0.0
H4374 H 0.62284 0.34832 0.67941 0.0
H4375 H 0.63209 0.35924 0.65704 0.0
H4376 H 0.59816 0.36387 0.62289 0.0
C4377 C 0.62618 0.4054 0.60247 0.0
C4378 C 0.63973 0.3707 0.61666 0.0
C4379 C 0.63131 0.41838 0.59624 0.0
C4380 C 0.61719 0.34595 0.66923 0.0
C4381 C 0.62261 0.3521 0.65634 0.0
C4382 C 0.60981 0.36536 0.62103 0.0
C4383 C 0.63391 0.39219 0.60059 0.0
C4384 C 0.62929 0.37898 0.60889 0.0
C4385 C 0.61542 0.34975 0.64291 0.0
C4386 C 0.62021 0.35803 0.62974 0.0
H4387 H 0.66182 0.4049 0.57918 0.0
H4388 H 0.65283 0.38213 0.59023 0.0
H4389 H 0.60603 0.38174 0.60464 0.0
H4390 H 0.58773 0.32771 0.655 0.0
H4391 H 0.59722 0.33862 0.63237 0.0
C4392 C 0.90973 0.34204 0.9046 0.0
C4393 C 0.91135 0.35228 0.91602 0.0
C4394 C 0.90274 0.3461 0.89156 0.0
C4395 C 0.89111 0.37684 0.86857 0.0
H4396 H 0.85425 0.35604 0.86451 0.0
C4397 C 0.84081 0.40275 0.84083 0.0
C4398 C 0.82964 0.39364 0.83548 0.0
C4399 C 0.85332 0.39662 0.84726 0.0
C4400 C 0.86464 0.36177 0.86505 0.0
H4401 H 0.90791 0.37494 0.92247 0.0
H4402 H 0.89602 0.38207 0.89955 0.0
H4403 H 0.87255 0.34708 0.88156 0.0
H4404 H 0.82317 0.37117 0.83131 0.0
H4405 H 0.84538 0.36043 0.84154 0.0
H4406 H 0.88328 0.39159 0.8521 0.0
C4407 C 0.90002 0.37093 0.90074 0.0
C4408 C 0.87511 0.35661 0.87492 0.0
C4409 C 0.90668 0.36681 0.91387 0.0
C4410 C 0.83159 0.37838 0.83564 0.0
C4411 C 0.84427 0.37226 0.84161 0.0
C4412 C 0.88077 0.38185 0.85841 0.0
C4413 C 0.89765 0.36052 0.88965 0.0
C4414 C 0.8882 0.36437 0.87711 0.0
C4415 C 0.85505 0.38126 0.84807 0.0
C4416 C 0.86715 0.37467 0.8569 0.0
H4417 H 0.91324 0.33077 0.90602 0.0
H4418 H 0.90093 0.3379 0.88314 0.0
H4419 H 0.9012 0.38296 0.8701 0.0
H4420 H 0.83948 0.41457 0.84083 0.0
H4421 H 0.86121 0.40397 0.85224 0.0
C4422 C 0.86477 0.58045 0.0966 0.0
C4423 C 0.85205 0.58018 0.08788 0.0
C4424 C 0.8703 0.59367 0.10187 0.0
C4425 C 0.85811 0.62998 0.11268 0.0
H4426 H 0.89978 0.63495 0.11997 0.0
C4427 C 0.88022 0.65457 0.16515 0.0
C4428 C 0.89352 0.66238 0.16539 0.0
C4429 C 0.87485 0.64876 0.1521 0.0
C4430 C 0.88813 0.63401 0.11776 0.0
H4431 H 0.83545 0.59369 0.07743 0.0
H4432 H 0.84512 0.61694 0.08684 0.0
H4433 H 0.89152 0.61647 0.10251 0.0
H4434 H 0.91128 0.67081 0.15195 0.0
H4435 H 0.90188 0.66041 0.12899 0.0
H4436 H 0.85472 0.64717 0.12832 0.0
C4437 C 0.85074 0.60682 0.08958 0.0
C4438 C 0.88339 0.6233 0.10788 0.0
C4439 C 0.84521 0.59353 0.08421 0.0
C4440 C 0.90104 0.66476 0.15213 0.0
C4441 C 0.89568 0.65882 0.139 0.0
C4442 C 0.86286 0.64073 0.12252 0.0
C4443 C 0.86328 0.607 0.09858 0.0
C4444 C 0.86832 0.62066 0.10585 0.0
C4445 C 0.88263 0.65056 0.13893 0.0
C4446 C 0.87788 0.6423 0.12574 0.0
H4447 H 0.87039 0.5704 0.09957 0.0
H4448 H 0.8798 0.59337 0.10902 0.0
H4449 H 0.84643 0.62825 0.11135 0.0
H4450 H 0.87406 0.65263 0.17514 0.0
H4451 H 0.86491 0.64224 0.15251 0.0
C4452 C 0.59814 0.63371 0.41724 0.0
C4453 C 0.59022 0.64694 0.41763 0.0
C4454 C 0.60415 0.62863 0.40416 0.0
C4455 C 0.61884 0.64232 0.36981 0.0
H4456 H 0.6242 0.60069 0.36272 0.0
C4457 C 0.67154 0.61893 0.34614 0.0
C4458 C 0.67139 0.60608 0.33761 0.0
C4459 C 0.65857 0.62458 0.35193 0.0
C4460 C 0.62259 0.61236 0.36425 0.0
H4461 H 0.58189 0.66493 0.40444 0.0
H4462 H 0.59261 0.65603 0.38143 0.0
H4463 H 0.60574 0.60884 0.38021 0.0
H4464 H 0.65736 0.58942 0.32798 0.0
H4465 H 0.6346 0.59934 0.33819 0.0
H4466 H 0.63597 0.64583 0.35414 0.0
C4467 C 0.59415 0.64966 0.39135 0.0
C4468 C 0.61211 0.61703 0.3744 0.0
C4469 C 0.58801 0.65474 0.4045 0.0
C4470 C 0.65787 0.59927 0.33461 0.0
C4471 C 0.64483 0.60495 0.34044 0.0
C4472 C 0.62927 0.63766 0.3596 0.0
C4473 C 0.60244 0.63663 0.3911 0.0
C4474 C 0.61065 0.63201 0.37783 0.0
C4475 C 0.64508 0.61755 0.34935 0.0
C4476 C 0.63176 0.6226 0.35726 0.0
H4477 H 0.59997 0.62735 0.42712 0.0
H4478 H 0.6107 0.6187 0.40444 0.0
H4479 H 0.61798 0.65394 0.37218 0.0
H4480 H 0.68173 0.62448 0.3487 0.0
H4481 H 0.65923 0.63413 0.35898 0.0
C4482 C 0.65453 0.8331 0.61798 0.0
C4483 C 0.66184 0.83267 0.60442 0.0
C4484 C 0.64843 0.84613 0.62312 0.0
C4485 C 0.63954 0.87581 0.63429 0.0
H4486 H 0.61401 0.89417 0.60565 0.0
C4487 C 0.5919 0.9134 0.65212 0.0
C4488 C 0.57845 0.90933 0.64572 0.0
C4489 C 0.60515 0.9082 0.64633 0.0
C4490 C 0.62118 0.88926 0.61377 0.0
H4491 H 0.66917 0.84576 0.58594 0.0
H4492 H 0.65832 0.86867 0.59493 0.0
H4493 H 0.63275 0.87694 0.5975 0.0
H4494 H 0.56843 0.8971 0.62788 0.0
H4495 H 0.59133 0.88794 0.61802 0.0
H4496 H 0.62717 0.88718 0.65066 0.0
C4497 C 0.6573 0.85883 0.60152 0.0
C4498 C 0.63204 0.87952 0.60908 0.0
C4499 C 0.66352 0.84574 0.59639 0.0
C4500 C 0.57856 0.90042 0.63314 0.0
C4501 C 0.59175 0.89529 0.62736 0.0
C4502 C 0.62863 0.88549 0.63899 0.0
C4503 C 0.64946 0.85908 0.61482 0.0
C4504 C 0.64084 0.87213 0.61936 0.0
C4505 C 0.60519 0.89893 0.63399 0.0
C4506 C 0.61887 0.89175 0.62882 0.0
H4507 H 0.65316 0.82327 0.62453 0.0
H4508 H 0.64227 0.84585 0.63328 0.0
H4509 H 0.64636 0.87049 0.64245 0.0
H4510 H 0.5922 0.92034 0.66176 0.0
H4511 H 0.61535 0.91125 0.65163 0.0
C4512 C 0.96009 0.28314 0.31799 0.0
C4513 C 0.94627 0.28054 0.32432 0.0
C4514 C 0.97206 0.27432 0.32154 0.0
C4515 C 0.98148 0.23746 0.33262 0.0
H4516 H 0.02021 0.25437 0.3379 0.0
C4517 C 0.03356 0.20146 0.33229 0.0
C4518 C 0.04478 0.20674 0.3231 0.0
C4519 C 0.02185 0.21055 0.33629 0.0
C4520 C 0.00947 0.24947 0.33645 0.0
H4521 H 0.93417 0.26673 0.33945 0.0
H4522 H 0.9552 0.25099 0.34546 0.0
H4523 H 0.99866 0.27029 0.33788 0.0
H4524 H 0.05283 0.22587 0.31142 0.0
H4525 H 0.0324 0.24158 0.31818 0.0
H4526 H 0.9923 0.21674 0.3304 0.0
C4527 C 0.95669 0.25999 0.33783 0.0
C4528 C 0.99715 0.25858 0.33649 0.0
C4529 C 0.9447 0.26899 0.33441 0.0
C4530 C 0.04436 0.22144 0.31849 0.0
C4531 C 0.03268 0.2305 0.32248 0.0
C4532 C 0.99382 0.22835 0.33249 0.0
C4533 C 0.97048 0.26259 0.3314 0.0
C4534 C 0.98309 0.25271 0.33409 0.0
C4535 C 0.02116 0.2251 0.33121 0.0
C4536 C 0.00799 0.23433 0.33391 0.0
H4537 H 0.96169 0.29199 0.31021 0.0
H4538 H 0.98249 0.27644 0.31624 0.0
H4539 H 0.97077 0.23267 0.33065 0.0
H4540 H 0.03361 0.1902 0.3361 0.0
H4541 H 0.01322 0.20611 0.34316 0.0
C4542 C 0.03702 0.7849 0.56274 0.0
C4543 C 0.03496 0.79886 0.56895 0.0
C4544 C 0.02758 0.77339 0.5662 0.0
C4545 C 0.98998 0.76618 0.57709 0.0
H4546 H 0.00436 0.72635 0.58158 0.0
C4547 C 0.95075 0.71638 0.57779 0.0
C4548 C 0.95501 0.70486 0.56845 0.0
C4549 C 0.96062 0.72759 0.58131 0.0
C4550 C 0.00017 0.73741 0.58035 0.0
H4551 H 0.02153 0.81165 0.58389 0.0
H4552 H 0.0048 0.79142 0.5898 0.0
H4553 H 0.02168 0.74678 0.58166 0.0
H4554 H 0.97311 0.69582 0.55585 0.0
H4555 H 0.99019 0.71539 0.56182 0.0
H4556 H 0.96855 0.75679 0.57511 0.0
C4557 C 0.0138 0.78946 0.58228 0.0
C4558 C 0.01008 0.74909 0.58043 0.0
C4559 C 0.02338 0.801 0.57893 0.0
C4560 C 0.96946 0.70455 0.56306 0.0
C4561 C 0.97931 0.71571 0.56659 0.0
C4562 C 0.98007 0.75448 0.57696 0.0
C4563 C 0.01578 0.77557 0.57587 0.0
C4564 C 0.00513 0.76354 0.57834 0.0
C4565 C 0.97496 0.72746 0.5756 0.0
C4566 C 0.98512 0.73994 0.57812 0.0
H4567 H 0.04587 0.78288 0.55505 0.0
H4568 H 0.02925 0.76287 0.56091 0.0
H4569 H 0.98587 0.7772 0.57534 0.0
H4570 H 0.93971 0.71689 0.58218 0.0
H4571 H 0.957 0.73643 0.58838 0.0
C4572 C 0.55233 0.72565 0.83269 0.0
C4573 C 0.55098 0.71465 0.82196 0.0
C4574 C 0.54022 0.73436 0.83644 0.0
C4575 C 0.49971 0.73583 0.83416 0.0
H4576 H 0.50489 0.77796 0.83111 0.0
C4577 C 0.45325 0.77461 0.81745 0.0
C4578 C 0.45277 0.7889 0.82323 0.0
C4579 C 0.46474 0.76516 0.82107 0.0
C4580 C 0.50326 0.76625 0.83234 0.0
H4581 H 0.53582 0.70384 0.80709 0.0
H4582 H 0.51485 0.71892 0.81362 0.0
H4583 H 0.52634 0.76195 0.83089 0.0
H4584 H 0.46361 0.80423 0.83788 0.0
H4585 H 0.48366 0.78764 0.84426 0.0
H4586 H 0.47663 0.74007 0.83512 0.0
C4587 C 0.52518 0.72082 0.8192 0.0
C4588 C 0.51557 0.75708 0.83221 0.0
C4589 C 0.53725 0.71227 0.81535 0.0
C4590 C 0.46372 0.79332 0.83317 0.0
C4591 C 0.47523 0.78385 0.83678 0.0
C4592 C 0.48743 0.74499 0.83435 0.0
C4593 C 0.52654 0.73203 0.82967 0.0
C4594 C 0.51386 0.74177 0.83261 0.0
C4595 C 0.47601 0.76976 0.83056 0.0
C4596 C 0.48904 0.76026 0.83292 0.0
H4597 H 0.56278 0.72772 0.83797 0.0
H4598 H 0.54155 0.74295 0.84455 0.0
H4599 H 0.49811 0.72406 0.83473 0.0
H4600 H 0.44498 0.77085 0.80978 0.0
H4601 H 0.4651 0.75445 0.81591 0.0
C4602 C 0.53502 0.28773 0.06251 0.0
C4603 C 0.53295 0.30153 0.06907 0.0
C4604 C 0.52587 0.27601 0.06601 0.0
C4605 C 0.48894 0.26752 0.07789 0.0
H4606 H 0.50491 0.22829 0.08237 0.0
C4607 C 0.45154 0.21647 0.07926 0.0
C4608 C 0.45605 0.2051 0.06985 0.0
C4609 C 0.46111 0.22795 0.08273 0.0
C4610 C 0.50028 0.23917 0.08114 0.0
H4611 H 0.51967 0.31386 0.08451 0.0
H4612 H 0.50338 0.29326 0.09045 0.0
H4613 H 0.52143 0.24936 0.08195 0.0
H4614 H 0.47431 0.19656 0.05715 0.0
H4615 H 0.49088 0.21661 0.06302 0.0
H4616 H 0.46785 0.25732 0.07637 0.0
C4617 C 0.51221 0.2916 0.08267 0.0
C4618 C 0.50972 0.25122 0.08094 0.0
C4619 C 0.52153 0.30335 0.07928 0.0
C4620 C 0.47048 0.20516 0.06442 0.0
C4621 C 0.48003 0.21661 0.06789 0.0
C4622 C 0.47948 0.25545 0.07803 0.0
C4623 C 0.51433 0.27782 0.07605 0.0
C4624 C 0.50418 0.26546 0.07884 0.0
C4625 C 0.47538 0.22825 0.07689 0.0
C4626 C 0.4851 0.24112 0.07918 0.0
H4627 H 0.54374 0.28594 0.05462 0.0
H4628 H 0.52761 0.26559 0.06055 0.0
H4629 H 0.48439 0.27837 0.07616 0.0
H4630 H 0.44051 0.21669 0.0837 0.0
H4631 H 0.45727 0.23669 0.08982 0.0
C4632 C 0.95923 0.71559 0.17956 0.0
C4633 C 0.94508 0.7186 0.17419 0.0
C4634 C 0.97101 0.72459 0.17588 0.0
C4635 C 0.97979 0.76213 0.16655 0.0
H4636 H 0.01839 0.74576 0.15908 0.0
C4637 C 0.03167 0.79835 0.16723 0.0
C4638 C 0.0431 0.79269 0.17592 0.0
C4639 C 0.01992 0.7894 0.16303 0.0
C4640 C 0.00769 0.75051 0.16114 0.0
H4641 H 0.93223 0.73329 0.16057 0.0
H4642 H 0.95298 0.74932 0.15434 0.0
H4643 H 0.99692 0.72974 0.1589 0.0
H4644 H 0.05151 0.77305 0.18645 0.0
H4645 H 0.03103 0.75755 0.17931 0.0
H4646 H 0.99059 0.78275 0.16955 0.0
C4647 C 0.95485 0.73988 0.16133 0.0
C4648 C 0.99541 0.74135 0.16099 0.0
C4649 C 0.94301 0.73072 0.16487 0.0
C4650 C 0.04287 0.77777 0.17979 0.0
C4651 C 0.03116 0.76884 0.17558 0.0
C4652 C 0.99209 0.7713 0.16676 0.0
C4653 C 0.96895 0.7369 0.16685 0.0
C4654 C 0.98141 0.74699 0.1642 0.0
C4655 C 0.01942 0.77461 0.16739 0.0
C4656 C 0.00623 0.76548 0.16456 0.0
H4657 H 0.96121 0.7063 0.18671 0.0
H4658 H 0.9817 0.72215 0.1805 0.0
H4659 H 0.96914 0.76675 0.16916 0.0
H4660 H 0.03157 0.80979 0.16399 0.0
H4661 H 0.01112 0.79412 0.15659 0.0
C4662 C 0.52256 0.6965 0.41639 0.0
C4663 C 0.53403 0.69833 0.42654 0.0
C4664 C 0.51326 0.70827 0.41299 0.0
C4665 C 0.51065 0.74872 0.41486 0.0
H4666 H 0.46885 0.74235 0.41977 0.0
C4667 C 0.47124 0.79443 0.43215 0.0
C4668 C 0.45681 0.79451 0.42673 0.0
C4669 C 0.48082 0.78304 0.42856 0.0
C4670 C 0.48045 0.74429 0.41803 0.0
H4671 H 0.54503 0.714 0.44074 0.0
H4672 H 0.52895 0.73438 0.43478 0.0
H4673 H 0.48551 0.72139 0.41964 0.0
H4674 H 0.44128 0.78299 0.41282 0.0
H4675 H 0.45808 0.76308 0.40651 0.0
H4676 H 0.50568 0.77164 0.41373 0.0
C4677 C 0.52712 0.72393 0.4294 0.0
C4678 C 0.48999 0.73227 0.41796 0.0
C4679 C 0.53626 0.71219 0.43292 0.0
C4680 C 0.45231 0.7832 0.41724 0.0
C4681 C 0.46191 0.77177 0.41366 0.0
C4682 C 0.50113 0.76071 0.41488 0.0
C4683 C 0.51546 0.72208 0.41951 0.0
C4684 C 0.50521 0.73443 0.41687 0.0
C4685 C 0.4762 0.77146 0.41946 0.0
C4686 C 0.48598 0.75867 0.41697 0.0
H4687 H 0.52059 0.68594 0.41131 0.0
H4688 H 0.50434 0.70657 0.40531 0.0
H4689 H 0.52233 0.75065 0.41375 0.0
H4690 H 0.47506 0.80299 0.43947 0.0
H4691 H 0.49169 0.78303 0.43338 0.0
C4692 C 0.5365 0.28553 0.68121 0.0
C4693 C 0.5504 0.28304 0.67501 0.0
C4694 C 0.52463 0.27664 0.67752 0.0
C4695 C 0.51598 0.23958 0.66616 0.0
H4696 H 0.47671 0.25557 0.66207 0.0
C4697 C 0.46483 0.20227 0.66636 0.0
C4698 C 0.45367 0.20695 0.67594 0.0
C4699 C 0.47625 0.21177 0.66249 0.0
C4700 C 0.48761 0.25093 0.66318 0.0
H4701 H 0.56271 0.26942 0.65985 0.0
H4702 H 0.54184 0.25361 0.65356 0.0
H4703 H 0.49784 0.27204 0.66188 0.0
H4704 H 0.44542 0.22544 0.6885 0.0
H4705 H 0.46536 0.24188 0.68191 0.0
H4706 H 0.50575 0.21855 0.66818 0.0
C4707 C 0.54021 0.26254 0.66123 0.0
C4708 C 0.49969 0.26035 0.66303 0.0
C4709 C 0.55212 0.2716 0.66481 0.0
C4710 C 0.45386 0.22147 0.68112 0.0
C4711 C 0.46525 0.23095 0.67724 0.0
C4712 C 0.50388 0.23015 0.66636 0.0
C4713 C 0.52638 0.26496 0.66764 0.0
C4714 C 0.51395 0.25482 0.66502 0.0
C4715 C 0.4767 0.22614 0.66807 0.0
C4716 C 0.48954 0.23579 0.66536 0.0
H4717 H 0.53478 0.2943 0.68906 0.0
H4718 H 0.51417 0.27863 0.68282 0.0
H4719 H 0.52684 0.23502 0.66783 0.0
H4720 H 0.46495 0.19117 0.66211 0.0
H4721 H 0.48483 0.2078 0.65528 0.0
C4722 C 0.02436 0.19631 0.91825 0.0
C4723 C 0.03538 0.19798 0.92892 0.0
C4724 C 0.01526 0.20814 0.91459 0.0
C4725 C 0.01262 0.2485 0.9167 0.0
H4726 H 0.97065 0.24213 0.91977 0.0
C4727 C 0.97257 0.29405 0.93263 0.0
C4728 C 0.95829 0.29409 0.92681 0.0
C4729 C 0.98231 0.28274 0.92924 0.0
C4730 C 0.98231 0.24407 0.91853 0.0
H4731 H 0.04577 0.21339 0.94382 0.0
H4732 H 0.02999 0.23391 0.93741 0.0
H4733 H 0.98729 0.22117 0.92027 0.0
H4734 H 0.94324 0.28263 0.91234 0.0
H4735 H 0.96034 0.26287 0.90634 0.0
H4736 H 0.00771 0.27142 0.91539 0.0
C4737 C 0.0284 0.22354 0.93183 0.0
C4738 C 0.99184 0.23206 0.91883 0.0
C4739 C 0.03734 0.21173 0.93559 0.0
C4740 C 0.95414 0.28286 0.91708 0.0
C4741 C 0.96391 0.27152 0.91368 0.0
C4742 C 0.00311 0.2605 0.91632 0.0
C4743 C 0.01719 0.22185 0.92138 0.0
C4744 C 0.00709 0.23421 0.91842 0.0
C4745 C 0.97801 0.27122 0.91992 0.0
C4746 C 0.98788 0.25845 0.91774 0.0
H4747 H 0.0226 0.18583 0.91292 0.0
H4748 H 0.0067 0.20656 0.90649 0.0
H4749 H 0.02434 0.25043 0.91611 0.0
H4750 H 0.97612 0.30256 0.94015 0.0
H4751 H 0.99301 0.28274 0.93442 0.0
C4752 C 0.3155 0.03354 0.20796 0.0
C4753 C 0.32225 0.04722 0.21023 0.0
C4754 C 0.31966 0.02135 0.2162 0.0
C4755 C 0.3341 0.01196 0.25204 0.0
H4756 H 0.33401 0.97257 0.23583 0.0
C4757 C 0.31572 0.9619 0.28467 0.0
C4758 C 0.32304 0.94844 0.28293 0.0
C4759 C 0.31955 0.97399 0.27615 0.0
C4760 C 0.33436 0.98349 0.24052 0.0
H4761 H 0.33898 0.05875 0.22263 0.0
H4762 H 0.34616 0.03736 0.23725 0.0
H4763 H 0.33415 0.99371 0.21936 0.0
H4764 H 0.34028 0.93715 0.27101 0.0
H4765 H 0.34685 0.95838 0.25584 0.0
H4766 H 0.33378 0.00174 0.27319 0.0
C4767 C 0.33764 0.03614 0.22904 0.0
C4768 C 0.3343 0.99559 0.2311 0.0
C4769 C 0.33354 0.04836 0.22067 0.0
C4770 C 0.33443 0.94738 0.27258 0.0
C4771 C 0.33818 0.9595 0.2639 0.0
C4772 C 0.3341 -0.00013 0.26145 0.0
C4773 C 0.33062 0.02255 0.22697 0.0
C4774 C 0.33364 0.00993 0.23677 0.0
C4775 C 0.33073 0.97291 0.26559 0.0
C4776 C 0.33368 0.98553 0.25578 0.0
H4777 H 0.30681 0.03226 0.19995 0.0
H4778 H 0.31388 0.0111 0.21451 0.0
H4779 H 0.33354 0.02286 0.25674 0.0
H4780 H 0.30693 0.96312 0.29258 0.0
H4781 H 0.31343 0.9841 0.27752 0.0
C4782 C 0.19866 0.08397 0.4715 0.0
C4783 C 0.19926 0.07169 0.46218 0.0
C4784 C 0.21091 0.08793 0.47991 0.0
C4785 C 0.25107 0.08262 0.4827 0.0
H4786 H 0.2452 0.08649 0.52466 0.0
C4787 C 0.2998 0.08387 0.52321 0.0
C4788 C 0.29837 0.07336 0.5344 0.0
C4789 C 0.28765 0.08777 0.51463 0.0
C4790 C 0.24699 0.08559 0.51294 0.0
H4791 H 0.21325 0.05414 0.45412 0.0
H4792 H 0.23444 0.06103 0.4687 0.0
H4793 H 0.22394 0.08562 0.50833 0.0
H4794 H 0.283 0.05919 0.54583 0.0
H4795 H 0.26195 0.06594 0.53095 0.0
H4796 H 0.27408 0.08175 0.48736 0.0
C4797 C 0.22461 0.06767 0.46947 0.0
C4798 C 0.23484 0.08522 0.5036 0.0
C4799 C 0.21239 0.06364 0.46123 0.0
C4800 C 0.28449 0.06726 0.53723 0.0
C4801 C 0.27237 0.07125 0.5288 0.0
C4802 C 0.26322 0.08307 0.49203 0.0
C4803 C 0.22399 0.0798 0.47896 0.0
C4804 C 0.23676 0.08315 0.48845 0.0
C4805 C 0.27385 0.08136 0.51726 0.0
C4806 C 0.26127 0.08399 0.50729 0.0
H4807 H 0.1887 0.09039 0.47244 0.0
H4808 H 0.21015 0.09732 0.48716 0.0
H4809 H 0.25285 0.08121 0.47103 0.0
H4810 H 0.31036 0.08878 0.5208 0.0
H4811 H 0.28908 0.09562 0.50582 0.0
C4812 C 0.17666 0.96131 0.71003 0.0
C4813 C 0.17492 0.94687 0.71512 0.0
C4814 C 0.17264 0.97318 0.71882 0.0
C4815 C 0.17204 0.98351 0.75663 0.0
H4816 H 0.15168 0.01833 0.74302 0.0
C4817 C 0.17229 0.03541 0.79178 0.0
C4818 C 0.17449 0.0487 0.78432 0.0
C4819 C 0.16836 0.02277 0.7841 0.0
C4820 C 0.15748 0.00874 0.74696 0.0
H4821 H 0.16719 0.93343 0.73317 0.0
H4822 H 0.16056 0.95433 0.74881 0.0
H4823 H 0.15194 0.99626 0.72778 0.0
H4824 H 0.17383 0.05944 0.76316 0.0
H4825 H 0.16775 0.03721 0.74954 0.0
H4826 H 0.17857 0.99604 0.77522 0.0
C4827 C 0.16487 0.95638 0.73792 0.0
C4828 C 0.15751 0.99609 0.73829 0.0
C4829 C 0.16863 0.94447 0.72899 0.0
C4830 C 0.17212 0.04931 0.76914 0.0
C4831 C 0.16854 0.03655 0.76138 0.0
C4832 C 0.17224 0.9962 0.76517 0.0
C4833 C 0.16703 0.97083 0.73296 0.0
C4834 C 0.16502 0.98346 0.74294 0.0
C4835 C 0.16696 0.02303 0.76873 0.0
C4836 C 0.1652 0.00909 0.76034 0.0
H4837 H 0.18138 0.96347 0.69934 0.0
H4838 H 0.17457 0.98421 0.71481 0.0
H4839 H 0.1781 0.97397 0.76035 0.0
H4840 H 0.17385 0.03474 0.80355 0.0
H4841 H 0.1668 0.0127 0.79022 0.0
C4842 C 0.30314 0.91615 0.97895 0.0
C4843 C 0.30101 0.92552 0.96688 0.0
C4844 C 0.29141 0.91278 0.9883 0.0
C4845 C 0.25087 0.91315 0.99061 0.0
H4846 H 0.25678 0.92131 0.03194 0.0
C4847 C 0.20429 0.93161 0.0284 0.0
C4848 C 0.20436 0.92744 0.04324 0.0
C4849 C 0.21584 0.92765 0.01916 0.0
C4850 C 0.25497 0.91865 0.0205 0.0
H4851 H 0.28486 0.93826 0.95485 0.0
H4852 H 0.26454 0.93234 0.97103 0.0
H4853 H 0.27784 0.92077 0.01543 0.0
H4854 H 0.21633 0.9153 0.05988 0.0
H4855 H 0.2365 0.90831 0.04367 0.0
H4856 H 0.22798 0.91149 0.99556 0.0
C4857 C 0.2752 0.92756 0.97329 0.0
C4858 C 0.26705 0.91835 0.01104 0.0
C4859 C 0.28689 0.93107 0.96409 0.0
C4860 C 0.21599 0.91876 0.04851 0.0
C4861 C 0.22757 0.9148 0.03925 0.0
C4862 C 0.23882 0.91339 6e-05 0.0
C4863 C 0.27734 0.91853 0.98558 0.0
C4864 C 0.26505 0.9161 0.99593 0.0
C4865 C 0.22773 0.9194 0.02453 0.0
C4866 C 0.24068 0.91665 0.01502 0.0
H4867 H 0.31391 0.91172 0.98136 0.0
H4868 H 0.29334 0.90577 0.99771 0.0
H4869 H 0.24906 0.91115 0.97903 0.0
H4870 H 0.19549 0.93828 0.02398 0.0
H4871 H 0.21571 0.93157 0.00794 0.0
C4872 C 0.27268 0.3313 0.94549 0.0
C4873 C 0.2842 0.32121 0.94746 0.0
C4874 C 0.26331 0.33474 0.95716 0.0
C4875 C 0.26041 0.33334 0.99753 0.0
H4876 H 0.21874 0.3277 0.99095 0.0
C4877 C 0.22114 0.31584 0.04313 0.0
C4878 C 0.20653 0.32077 0.04302 0.0
C4879 C 0.2307 0.31962 0.0318 0.0
C4880 C 0.23029 0.32966 0.99295 0.0
H4881 H 0.29519 0.30718 0.96326 0.0
H4882 H 0.27895 0.31323 0.98352 0.0
H4883 H 0.23554 0.32777 0.97012 0.0
H4884 H 0.19066 0.33407 0.03125 0.0
H4885 H 0.20745 0.34075 0.01144 0.0
H4886 H 0.25526 0.33479 0.02038 0.0
C4887 C 0.27716 0.31851 0.97302 0.0
C4888 C 0.23991 0.32969 0.98101 0.0
C4889 C 0.28638 0.31494 0.96136 0.0
C4890 C 0.20183 0.33002 0.0316 0.0
C4891 C 0.21142 0.33381 0.02023 0.0
C4892 C 0.2508 0.33339 0.00945 0.0
C4893 C 0.26546 0.32834 0.97102 0.0
C4894 C 0.2551 0.33101 0.98325 0.0
C4895 C 0.2259 0.32846 0.0201 0.0
C4896 C 0.2357 0.33103 0.00735 0.0
H4897 H 0.27074 0.3363 0.93488 0.0
H4898 H 0.25435 0.34236 0.95536 0.0
H4899 H 0.27206 0.33463 -0.00048 0.0
H4900 H 0.22513 0.30872 0.05178 0.0
H4901 H 0.24171 0.31512 0.03194 0.0
C4902 C 0.78767 0.18353 0.03404 0.0
C4903 C 0.78568 0.17699 0.04785 0.0
C4904 C 0.77893 0.17946 0.02218 0.0
C4905 C 0.74258 0.16577 0.01371 0.0
H4906 H 0.75835 0.16339 0.97423 0.0
C4907 C 0.70458 0.16473 0.96326 0.0
C4908 C 0.70842 0.17497 0.95238 0.0
C4909 C 0.71455 0.16102 0.97431 0.0
C4910 C 0.75378 0.164 0.98519 0.0
H4911 H 0.77315 0.16081 0.06002 0.0
H4912 H 0.75762 0.15382 0.03919 0.0
H4913 H 0.77506 0.16401 0.99516 0.0
H4914 H 0.72596 0.18882 0.94414 0.0
H4915 H 0.74324 0.18252 0.96345 0.0
H4916 H 0.72134 0.16649 0.00375 0.0
C4917 C 0.76603 0.16207 0.03762 0.0
C4918 C 0.76333 0.16432 0.99716 0.0
C4919 C 0.77492 0.16606 0.0495 0.0
C4920 C 0.72264 0.18092 0.95239 0.0
C4921 C 0.7326 0.17721 0.96341 0.0
C4922 C 0.73302 0.16549 0.00173 0.0
C4923 C 0.76791 0.16882 0.02387 0.0
C4924 C 0.75784 0.16571 0.0115 0.0
C4925 C 0.72857 0.16745 0.97466 0.0
C4926 C 0.73854 0.16511 0.98732 0.0
H4927 H 0.79591 0.19195 0.03238 0.0
H4928 H 0.78048 0.18502 0.01179 0.0
H4929 H 0.73804 0.16696 0.02463 0.0
H4930 H 0.69373 0.15987 0.9635 0.0
H4931 H 0.71119 0.15334 0.98274 0.0
C4932 C 0.08148 0.47413 0.19664 0.0
C4933 C 0.07193 0.46221 0.19881 0.0
C4934 C 0.08548 0.4831 0.20845 0.0
C4935 C 0.08576 0.48516 0.2491 0.0
H4936 H 0.07689 0.52637 0.24325 0.0
C4937 C 0.08345 0.52743 0.29681 0.0
C4938 C 0.07028 0.53549 0.29695 0.0
C4939 C 0.08727 0.51901 0.28453 0.0
C4940 C 0.07957 0.51492 0.24501 0.0
H4941 H 0.0597 0.44988 0.21512 0.0
H4942 H 0.06667 0.46543 0.2356 0.0
H4943 H 0.07775 0.50991 0.22215 0.0
H4944 H 0.05088 0.54115 0.28431 0.0
H4945 H 0.05755 0.52656 0.26303 0.0
H4946 H 0.08678 0.49007 0.27207 0.0
C4947 C 0.07111 0.46787 0.22485 0.0
C4948 C 0.0802 0.50553 0.23293 0.0
C4949 C 0.06699 0.45905 0.21307 0.0
C4950 C 0.06109 0.53505 0.28458 0.0
C4951 C 0.06498 0.52682 0.27231 0.0
C4952 C 0.08522 0.49458 0.26118 0.0
C4953 C 0.08018 0.48013 0.22264 0.0
C4954 C 0.08273 0.49046 0.23492 0.0
C4955 C 0.07808 0.51872 0.27214 0.0
C4956 C 0.08154 0.50943 0.25928 0.0
H4957 H 0.08548 0.47679 0.18577 0.0
H4958 H 0.0925 0.49248 0.20647 0.0
H4959 H 0.08789 0.4736 0.25091 0.0
H4960 H 0.09076 0.52757 0.30618 0.0
H4961 H 0.09742 0.51282 0.28467 0.0
C4962 C 0.72807 0.8332 0.5537 0.0
C4963 C 0.71628 0.82344 0.55173 0.0
C4964 C 0.73738 0.8366 0.54195 0.0
C4965 C 0.73981 0.83564 0.50151 0.0
H4966 H 0.78133 0.82847 0.50758 0.0
C4967 C 0.77791 0.81681 0.45545 0.0
C4968 C 0.79274 0.82103 0.45549 0.0
C4969 C 0.7686 0.82104 0.46683 0.0
C4970 C 0.76983 0.83087 0.50572 0.0
H4971 H 0.70472 0.80997 0.53584 0.0
H4972 H 0.72083 0.81595 0.51546 0.0
H4973 H 0.76477 0.82897 0.52859 0.0
H4974 H 0.80927 0.83359 0.46716 0.0
H4975 H 0.79292 0.84108 0.48704 0.0
H4976 H 0.74475 0.83709 0.47861 0.0
C4977 C 0.72289 0.82101 0.52602 0.0
C4978 C 0.76035 0.83114 0.51777 0.0
C4979 C 0.71374 0.81748 0.53774 0.0
C4980 C 0.79791 0.83008 0.46686 0.0
C4981 C 0.78857 0.83433 0.47828 0.0
C4982 C 0.74929 0.83546 0.48948 0.0
C4983 C 0.73488 0.83048 0.52802 0.0
C4984 C 0.74519 0.833 0.51571 0.0
C4985 C 0.77387 0.82963 0.47852 0.0
C4986 C 0.76432 0.83253 0.49139 0.0
H4987 H 0.73029 0.83796 0.56437 0.0
H4988 H 0.74656 0.84394 0.54376 0.0
H4989 H 0.72819 0.83734 0.49966 0.0
H4990 H 0.77355 0.80986 0.44684 0.0
H4991 H 0.7574 0.81704 0.46676 0.0
C4992 C 0.92836 0.04104 0.21462 0.0
C4993 C 0.92659 0.03635 0.20004 0.0
C4994 C 0.92473 0.03176 0.22625 0.0
C4995 C 0.92517 0.99364 0.23549 0.0
H4996 H 0.90363 0.00527 0.27031 0.0
C4997 C 0.92449 0.95606 0.28575 0.0
C4998 C 0.9259 0.96288 0.29948 0.0
C4999 C 0.92099 0.96429 0.27333 0.0
C5000 C 0.90979 0.00188 0.26073 0.0
H5001 H 0.91928 0.01847 0.18615 0.0
H5002 H 0.91336 0.00201 0.20659 0.0
H5003 H 0.90404 0.02143 0.24891 0.0
H5004 H 0.92437 0.9835 0.31117 0.0
H5005 H 0.91904 0.99809 0.28939 0.0
H5006 H 0.93186 0.97468 0.24739 0.0
C5007 C 0.91736 0.01296 0.20894 0.0
C5008 C 0.9099 0.01109 0.24845 0.0
C5009 C 0.92072 0.02236 0.19729 0.0
C5010 C 0.92324 0.97799 0.30069 0.0
C5011 C 0.9201 0.98631 0.28819 0.0
C5012 C 0.9253 0.98457 0.24781 0.0
C5013 C 0.91952 0.01753 0.22351 0.0
C5014 C 0.91777 0.00712 0.23582 0.0
C5015 C 0.91925 0.97961 0.27427 0.0
C5016 C 0.91779 0.98865 0.2607 0.0
H5017 H 0.93279 0.05181 0.21705 0.0
H5018 H 0.92663 0.03548 0.23738 0.0
H5019 H 0.9315 0.99045 0.22594 0.0
H5020 H 0.9263 0.94436 0.28459 0.0
H5021 H 0.91999 0.95864 0.26292 0.0
C5022 C 0.28588 0.68139 0.53558 0.0
C5023 C 0.28322 0.67656 0.54997 0.0
C5024 C 0.2765 0.67738 0.5242 0.0
C5025 C 0.2385 0.66819 0.5172 0.0
H5026 H 0.25316 0.65992 0.47809 0.0
C5027 C 0.20018 0.66775 0.46676 0.0
C5028 C 0.20539 0.6762 0.45495 0.0
C5029 C 0.20956 0.66389 0.47828 0.0
C5030 C 0.24889 0.66219 0.48895 0.0
H5031 H 0.26883 0.66348 0.5637 0.0
H5032 H 0.25219 0.65663 0.54368 0.0
H5033 H 0.27009 0.66003 0.49885 0.0
H5034 H 0.22464 0.68675 0.44568 0.0
H5035 H 0.24088 0.68019 0.46577 0.0
H5036 H 0.21743 0.67107 0.50723 0.0
C5037 C 0.26162 0.66348 0.54129 0.0
C5038 C 0.25857 0.66222 0.50082 0.0
C5039 C 0.27114 0.66736 0.5527 0.0
C5040 C 0.22027 0.68026 0.45463 0.0
C5041 C 0.22962 0.67638 0.4661 0.0
C5042 C 0.22881 0.66821 0.50531 0.0
C5043 C 0.26417 0.66855 0.52694 0.0
C5044 C 0.25355 0.66573 0.51497 0.0
C5045 C 0.22433 0.66834 0.47816 0.0
C5046 C 0.23401 0.66572 0.49099 0.0
H5047 H 0.29513 0.68843 0.5331 0.0
H5048 H 0.27863 0.68165 0.51331 0.0
H5049 H 0.23435 0.67104 0.52797 0.0
H5050 H 0.18879 0.6644 0.46729 0.0
H5051 H 0.20521 0.65759 0.48737 0.0
C5052 C 0.4275 0.46222 0.78548 0.0
C5053 C 0.42595 0.4675 0.79988 0.0
C5054 C 0.42357 0.47096 0.77355 0.0
C5055 C 0.42354 0.50858 0.76263 0.0
H5056 H 0.40215 0.49489 0.72846 0.0
C5057 C 0.42319 0.54306 0.7103 0.0
C5058 C 0.42487 0.53544 0.69704 0.0
C5059 C 0.41948 0.5356 0.72313 0.0
C5060 C 0.40825 0.49885 0.73786 0.0
H5061 H 0.41871 0.48586 0.81316 0.0
H5062 H 0.41227 0.50142 0.79213 0.0
H5063 H 0.40258 0.47997 0.75075 0.0
H5064 H 0.42351 0.51419 0.68653 0.0
H5065 H 0.41781 0.5009 0.70908 0.0
H5066 H 0.43019 0.52684 0.74968 0.0
C5067 C 0.41634 0.49042 0.79018 0.0
C5068 C 0.40837 0.49036 0.75064 0.0
C5069 C 0.42 0.48154 0.80216 0.0
C5070 C 0.42221 0.52029 0.69665 0.0
C5071 C 0.41885 0.51273 0.70959 0.0
C5072 C 0.42365 0.51693 0.7498 0.0
C5073 C 0.41826 0.48523 0.77577 0.0
C5074 C 0.41622 0.49505 0.76304 0.0
C5075 C 0.41778 0.52025 0.72307 0.0
C5076 C 0.41622 0.51206 0.73714 0.0
H5077 H 0.43196 0.45139 0.78341 0.0
H5078 H 0.42531 0.46677 0.76255 0.0
H5079 H 0.42987 0.51232 0.77197 0.0
H5080 H 0.42499 0.55481 0.7108 0.0
H5081 H 0.4183 0.54186 0.73316 0.0
C5082 C 0.82148 0.53593 0.71015 0.0
C5083 C 0.82296 0.55038 0.71531 0.0
C5084 C 0.82562 0.5241 0.71891 0.0
C5085 C 0.8257 0.51365 0.75656 0.0
H5086 H 0.84667 0.47909 0.74319 0.0
C5087 C 0.82462 0.46144 0.79112 0.0
C5088 C 0.82277 0.44821 0.78348 0.0
C5089 C 0.82875 0.47417 0.78371 0.0
C5090 C 0.8407 0.48861 0.74706 0.0
H5091 H 0.83038 0.56388 0.73343 0.0
H5092 H 0.83719 0.54302 0.74906 0.0
H5093 H 0.84664 0.5013 0.72814 0.0
H5094 H 0.82423 0.43763 0.76229 0.0
H5095 H 0.83059 0.46004 0.74905 0.0
H5096 H 0.81873 0.50091 0.77484 0.0
C5097 C 0.83302 0.54094 0.73813 0.0
C5098 C 0.84082 0.50134 0.73851 0.0
C5099 C 0.82914 0.55283 0.72921 0.0
C5100 C 0.82564 0.44774 0.76839 0.0
C5101 C 0.82939 0.46058 0.76086 0.0
C5102 C 0.82535 0.50088 0.76497 0.0
C5103 C 0.83109 0.52649 0.7331 0.0
C5104 C 0.83308 0.51387 0.74307 0.0
C5105 C 0.83066 0.47405 0.76839 0.0
C5106 C 0.8326 0.48808 0.76021 0.0
H5107 H 0.81686 0.53375 0.69941 0.0
H5108 H 0.82388 0.51306 0.71486 0.0
H5109 H 0.81946 0.5231 0.7602 0.0
H5110 H 0.8227 0.46199 0.80284 0.0
H5111 H 0.83007 0.48417 0.78997 0.0
C5112 C 0.79951 0.58473 0.02495 0.0
C5113 C 0.79883 0.57252 0.03436 0.0
C5114 C 0.78728 0.58873 0.01652 0.0
C5115 C 0.74709 0.58395 0.01401 0.0
H5116 H 0.75266 0.58692 0.97194 0.0
C5117 C 0.69815 0.58537 0.97363 0.0
C5118 C 0.69931 0.57446 0.9628 0.0
C5119 C 0.7104 0.58921 0.9821 0.0
C5120 C 0.75095 0.5863 0.98369 0.0
H5121 H 0.78474 0.55512 0.04252 0.0
H5122 H 0.76356 0.56209 0.02793 0.0
H5123 H 0.77405 0.58604 0.98811 0.0
H5124 H 0.71429 0.55947 0.9519 0.0
H5125 H 0.73551 0.56615 0.96656 0.0
H5126 H 0.72403 0.58339 0.00956 0.0
C5127 C 0.77346 0.56864 0.0271 0.0
C5128 C 0.76318 0.5859 0.99294 0.0
C5129 C 0.78566 0.56455 0.03534 0.0
C5130 C 0.71301 0.56785 0.96023 0.0
C5131 C 0.72522 0.5718 0.96853 0.0
C5132 C 0.73487 0.58444 0.00478 0.0
C5133 C 0.77414 0.58071 0.01756 0.0
C5134 C 0.76135 0.58414 0.00813 0.0
C5135 C 0.72402 0.58235 0.97968 0.0
C5136 C 0.7367 0.58504 0.98949 0.0
H5137 H 0.80951 0.59109 0.02397 0.0
H5138 H 0.78809 0.59807 0.00921 0.0
H5139 H 0.74539 0.58276 0.02572 0.0
H5140 H 0.68773 0.59066 0.97582 0.0
H5141 H 0.70919 0.59739 0.99064 0.0
C5142 C 0.67316 0.54656 0.27466 0.0
C5143 C 0.67819 0.54659 0.2892 0.0
C5144 C 0.67029 0.53327 0.26752 0.0
C5145 C 0.6804 0.49392 0.27014 0.0
H5146 H 0.65332 0.49033 0.23752 0.0
C5147 C 0.67637 0.44124 0.23513 0.0
C5148 C 0.67917 0.44409 0.22024 0.0
C5149 C 0.67319 0.4528 0.24474 0.0
C5150 C 0.66083 0.49117 0.2467 0.0
H5151 H 0.68312 0.533 0.30807 0.0
H5152 H 0.6774 0.50992 0.29594 0.0
H5153 H 0.653 0.51251 0.2526 0.0
H5154 H 0.68006 0.46105 0.20355 0.0
H5155 H 0.67425 0.48112 0.22025 0.0
H5156 H 0.68822 0.47259 0.26415 0.0
C5157 C 0.67628 0.52001 0.28976 0.0
C5158 C 0.66075 0.5039 0.25527 0.0
C5159 C 0.67947 0.53323 0.29676 0.0
C5160 C 0.67806 0.45856 0.215 0.0
C5161 C 0.67461 0.47002 0.22452 0.0
C5162 C 0.68029 0.48112 0.26174 0.0
C5163 C 0.6721 0.51979 0.2749 0.0
C5164 C 0.67081 0.50561 0.26687 0.0
C5165 C 0.67243 0.4673 0.23951 0.0
C5166 C 0.67078 0.47979 0.24973 0.0
H5167 H 0.67215 0.55673 0.26859 0.0
H5168 H 0.66728 0.53359 0.25603 0.0
H5169 H 0.68851 0.49486 0.27877 0.0
H5170 H 0.67717 0.43019 0.23943 0.0
H5171 H 0.67156 0.45046 0.25628 0.0
C5172 C 0.78448 0.4303 0.46099 0.0
C5173 C 0.79814 0.42359 0.46352 0.0
C5174 C 0.77218 0.42622 0.4691 0.0
C5175 C 0.76237 0.41255 0.50505 0.0
H5176 H 0.72316 0.41226 0.4884 0.0
C5177 C 0.71194 0.43207 0.53646 0.0
C5178 C 0.69853 0.42461 0.53492 0.0
C5179 C 0.72412 0.42799 0.52817 0.0
C5180 C 0.73403 0.41202 0.49322 0.0
H5181 H 0.80951 0.40699 0.47625 0.0
H5182 H 0.78791 0.39999 0.49068 0.0
H5183 H 0.7445 0.41165 0.47217 0.0
H5184 H 0.68742 0.40687 0.5236 0.0
H5185 H 0.70881 0.39986 0.5088 0.0
H5186 H 0.75191 0.41353 0.52606 0.0
C5187 C 0.7868 0.40839 0.48234 0.0
C5188 C 0.74623 0.41179 0.48393 0.0
C5189 C 0.79914 0.41238 0.47408 0.0
C5190 C 0.69761 0.41283 0.525 0.0
C5191 C 0.70982 0.40883 0.51654 0.0
C5192 C 0.75017 0.41286 0.51432 0.0
C5193 C 0.77324 0.4154 0.48002 0.0
C5194 C 0.76051 0.41259 0.48975 0.0
C5195 C 0.72317 0.41641 0.51805 0.0
C5196 C 0.7359 0.41314 0.50847 0.0
H5197 H 0.78332 0.43891 0.45287 0.0
H5198 H 0.76195 0.43199 0.46721 0.0
H5199 H 0.77323 0.41323 0.50985 0.0
H5200 H 0.71305 0.44117 0.54404 0.0
H5201 H 0.73419 0.4342 0.52939 0.0
C5202 C 0.57051 0.95974 0.71211 0.0
C5203 C 0.5711 0.96452 0.69747 0.0
C5204 C 0.57427 0.96922 0.72352 0.0
C5205 C 0.57163 0.0071 0.73287 0.0
H5206 H 0.59539 0.99687 0.76667 0.0
C5207 C 0.57112 0.04394 0.78365 0.0
C5208 C 0.57083 0.03686 0.79731 0.0
C5209 C 0.57479 0.03619 0.77097 0.0
C5210 C 0.58862 -0.00014 0.75738 0.0
H5211 H 0.57651 0.98275 0.68319 0.0
H5212 H 0.58264 -0.00042 0.7033 0.0
H5213 H 0.59542 0.98096 0.74508 0.0
H5214 H 0.57454 0.01632 0.80863 0.0
H5215 H 0.58014 0.00247 0.78642 0.0
H5216 H 0.56388 0.02531 0.74528 0.0
C5217 C 0.57947 0.98841 0.70585 0.0
C5218 C 0.58876 0.99081 0.74498 0.0
C5219 C 0.57599 0.97881 0.69439 0.0
C5220 C 0.57475 0.02201 0.7982 0.0
C5221 C 0.57806 0.01413 0.78544 0.0
C5222 C 0.57125 0.01599 0.74531 0.0
C5223 C 0.57844 0.98373 0.72051 0.0
C5224 C 0.58008 0.99425 0.73273 0.0
C5225 C 0.57783 0.02106 0.77161 0.0
C5226 C 0.57954 0.01237 0.75786 0.0
H5227 H 0.56686 0.94874 0.71477 0.0
H5228 H 0.57324 0.96541 0.73473 0.0
H5229 H 0.56465 0.00985 0.72363 0.0
H5230 H 0.56836 0.05547 0.78274 0.0
H5231 H 0.57494 0.04204 0.76063 0.0
loop_
_geom_bond_atom_site_label_1
_geom_bond_atom_site_label_2
_geom_bond_distance
_geom_bond_site_symmetry_2
_ccdc_geom_bond_type
Co0 O3 1.970 . S
Co0 N17 1.989 . S
Co0 O25 1.967 . S
Co0 O32 1.920 . S
Co1 O4 1.966 . S
Co1 N10 2.022 . S
Co1 N18 1.993 . S
Co1 O26 1.941 . S
C2 O3 1.258 . S
C2 O4 1.263 . S
O3 Co0 1.970 . S
O3 C2 1.258 . S
O4 Co1 1.966 . S
O4 C2 1.263 . S
C5 O6 1.235 . S
C5 O32 1.289 . S
O6 C5 1.235 . S
C7 C9 1.400 . S
C7 N10 1.351 . S
C7 C12 1.501 . S
C8 C9 1.387 . S
C8 N11 1.341 . S
C9 C7 1.400 . S
C9 C8 1.387 . S
N10 Co1 2.022 . S
N10 C7 1.351 . S
N10 N11 1.365 . S
N11 C8 1.341 . S
N11 N10 1.365 . S
N11 H31 0.862 . S
C12 C7 1.501 . S
C12 H13 0.961 . S
C12 H14 0.961 . S
C12 H15 0.960 . S
H13 C12 0.961 . S
H14 C12 0.961 . S
H15 C12 0.960 . S
C16 N17 1.342 . S
C16 C20 1.401 . S
C16 C21 1.499 . S
N17 Co0 1.989 . S
N17 C16 1.342 . S
N17 N18 1.388 . S
N18 Co1 1.993 . S
N18 N17 1.388 . S
N18 C19 1.346 . S
C19 N18 1.346 . S
C19 C20 1.396 . S
C19 C29 1.510 . S
C20 C16 1.401 . S
C20 C19 1.396 . S
C21 C16 1.499 . S
C21 H22 0.959 . S
C21 H23 0.960 . S
C21 H24 0.961 . S
H22 C21 0.959 . S
H23 C21 0.960 . S
H24 C21 0.961 . S
O25 Co0 1.967 . S
O25 C33 1.258 . S
O26 Co1 1.941 . S
O26 C33 1.266 . S
H27 C29 0.959 . S
H28 C29 0.961 . S
C29 C19 1.510 . S
C29 H27 0.959 . S
C29 H28 0.961 . S
C29 H30 0.960 . S
H30 C29 0.960 . S
H31 N11 0.862 . S
O32 Co0 1.920 . S
O32 C5 1.289 . S
C33 O25 1.258 . S
C33 O26 1.266 . S
Co34 O37 1.970 . S
Co34 N51 1.989 . S
Co34 O59 1.967 . S
Co34 O66 1.920 . S
Co35 O38 1.966 . S
Co35 N44 2.022 . S
Co35 N52 1.993 . S
Co35 O60 1.941 . S
C36 O37 1.258 . S
C36 O38 1.263 . S
O37 Co34 1.970 . S
O37 C36 1.258 . S
O38 Co35 1.966 . S
O38 C36 1.263 . S
C39 O40 1.235 . S
C39 O66 1.289 . S
O40 C39 1.235 . S
C41 C43 1.400 . S
C41 N44 1.351 . S
C41 C46 1.501 . S
C42 C43 1.387 . S
C42 N45 1.341 . S
C43 C41 1.400 . S
C43 C42 1.387 . S
N44 Co35 2.022 . S
N44 C41 1.351 . S
N44 N45 1.365 . S
N45 C42 1.341 . S
N45 N44 1.365 . S
N45 H65 0.862 . S
C46 C41 1.501 . S
C46 H47 0.961 . S
C46 H48 0.961 . S
C46 H49 0.960 . S
H47 C46 0.961 . S
H48 C46 0.961 . S
H49 C46 0.960 . S
C50 N51 1.342 . S
C50 C54 1.401 . S
C50 C55 1.499 . S
N51 Co34 1.989 . S
N51 C50 1.342 . S
N51 N52 1.388 . S
N52 Co35 1.993 . S
N52 N51 1.388 . S
N52 C53 1.346 . S
C53 N52 1.346 . S
C53 C54 1.396 . S
C53 C63 1.510 . S
C54 C50 1.401 . S
C54 C53 1.396 . S
C55 C50 1.499 . S
C55 H56 0.959 . S
C55 H57 0.960 . S
C55 H58 0.961 . S
H56 C55 0.959 . S
H57 C55 0.960 . S
H58 C55 0.961 . S
O59 Co34 1.967 . S
O59 C67 1.258 . S
O60 Co35 1.941 . S
O60 C67 1.266 . S
H61 C63 0.959 . S
H62 C63 0.961 . S
C63 C53 1.510 . S
C63 H61 0.959 . S
C63 H62 0.961 . S
C63 H64 0.960 . S
H64 C63 0.960 . S
H65 N45 0.862 . S
O66 Co34 1.920 . S
O66 C39 1.289 . S
C67 O59 1.258 . S
C67 O60 1.266 . S
Co68 O71 1.970 . S
Co68 N85 1.989 . S
Co68 O93 1.967 . S
Co68 O100 1.920 . S
Co69 O72 1.966 . S
Co69 N78 2.022 . S
Co69 N86 1.993 . S
Co69 O94 1.941 . S
C70 O71 1.258 . S
C70 O72 1.263 . S
O71 Co68 1.970 . S
O71 C70 1.258 . S
O72 Co69 1.966 . S
O72 C70 1.263 . S
C73 O74 1.235 . S
C73 O100 1.289 . S
O74 C73 1.235 . S
C75 C77 1.400 . S
C75 N78 1.351 . S
C75 C80 1.501 . S
C76 C77 1.387 . S
C76 N79 1.341 . S
C77 C75 1.400 . S
C77 C76 1.387 . S
N78 Co69 2.022 . S
N78 C75 1.351 . S
N78 N79 1.365 . S
N79 C76 1.341 . S
N79 N78 1.365 . S
N79 H99 0.862 . S
C80 C75 1.501 . S
C80 H81 0.961 . S
C80 H82 0.961 . S
C80 H83 0.960 . S
H81 C80 0.961 . S
H82 C80 0.961 . S
H83 C80 0.960 . S
C84 N85 1.342 . S
C84 C88 1.401 . S
C84 C89 1.499 . S
N85 Co68 1.989 . S
N85 C84 1.342 . S
N85 N86 1.388 . S
N86 Co69 1.993 . S
N86 N85 1.388 . S
N86 C87 1.346 . S
C87 N86 1.346 . S
C87 C88 1.396 . S
C87 C97 1.510 . S
C88 C84 1.401 . S
C88 C87 1.396 . S
C89 C84 1.499 . S
C89 H90 0.959 . S
C89 H91 0.960 . S
C89 H92 0.961 . S
H90 C89 0.959 . S
H91 C89 0.960 . S
H92 C89 0.961 . S
O93 Co68 1.967 . S
O93 C101 1.258 . S
O94 Co69 1.941 . S
O94 C101 1.266 . S
H95 C97 0.959 . S
H96 C97 0.961 . S
C97 C87 1.510 . S
C97 H95 0.959 . S
C97 H96 0.961 . S
C97 H98 0.960 . S
H98 C97 0.960 . S
H99 N79 0.862 . S
O100 Co68 1.920 . S
O100 C73 1.289 . S
C101 O93 1.258 . S
C101 O94 1.266 . S
Co102 O105 1.970 . S
Co102 N119 1.989 . S
Co102 O127 1.967 . S
Co102 O134 1.920 . S
Co103 O106 1.966 . S
Co103 N112 2.022 . S
Co103 N120 1.993 . S
Co103 O128 1.941 . S
C104 O105 1.258 . S
C104 O106 1.263 . S
O105 Co102 1.970 . S
O105 C104 1.258 . S
O106 Co103 1.966 . S
O106 C104 1.263 . S
C107 O108 1.235 . S
C107 O134 1.289 . S
O108 C107 1.235 . S
C109 C111 1.400 . S
C109 N112 1.351 . S
C109 C114 1.501 . S
C110 C111 1.387 . S
C110 N113 1.341 . S
C111 C109 1.400 . S
C111 C110 1.387 . S
N112 Co103 2.022 . S
N112 C109 1.351 . S
N112 N113 1.365 . S
N113 C110 1.341 . S
N113 N112 1.365 . S
N113 H133 0.862 . S
C114 C109 1.501 . S
C114 H115 0.961 . S
C114 H116 0.961 . S
C114 H117 0.960 . S
H115 C114 0.961 . S
H116 C114 0.961 . S
H117 C114 0.960 . S
C118 N119 1.342 . S
C118 C122 1.401 . S
C118 C123 1.499 . S
N119 Co102 1.989 . S
N119 C118 1.342 . S
N119 N120 1.388 . S
N120 Co103 1.993 . S
N120 N119 1.388 . S
N120 C121 1.346 . S
C121 N120 1.346 . S
C121 C122 1.396 . S
C121 C131 1.510 . S
C122 C118 1.401 . S
C122 C121 1.396 . S
C123 C118 1.499 . S
C123 H124 0.959 . S
C123 H125 0.960 . S
C123 H126 0.961 . S
H124 C123 0.959 . S
H125 C123 0.960 . S
H126 C123 0.961 . S
O127 Co102 1.967 . S
O127 C135 1.258 . S
O128 Co103 1.941 . S
O128 C135 1.266 . S
H129 C131 0.959 . S
H130 C131 0.961 . S
C131 C121 1.510 . S
C131 H129 0.959 . S
C131 H130 0.961 . S
C131 H132 0.960 . S
H132 C131 0.960 . S
H133 N113 0.862 . S
O134 Co102 1.920 . S
O134 C107 1.289 . S
C135 O127 1.258 . S
C135 O128 1.266 . S
Co136 O139 1.970 . S
Co136 N153 1.989 . S
Co136 O161 1.967 . S
Co136 O168 1.920 . S
Co137 O140 1.966 . S
Co137 N146 2.022 . S
Co137 N154 1.993 . S
Co137 O162 1.941 . S
C138 O139 1.258 . S
C138 O140 1.263 . S
O139 Co136 1.970 . S
O139 C138 1.258 . S
O140 Co137 1.966 . S
O140 C138 1.263 . S
C141 O142 1.235 . S
C141 O168 1.289 . S
O142 C141 1.235 . S
C143 C145 1.400 . S
C143 N146 1.351 . S
C143 C148 1.501 . S
C144 C145 1.387 . S
C144 N147 1.341 . S
C145 C143 1.400 . S
C145 C144 1.387 . S
N146 Co137 2.022 . S
N146 C143 1.351 . S
N146 N147 1.365 . S
N147 C144 1.341 . S
N147 N146 1.365 . S
N147 H167 0.862 . S
C148 C143 1.501 . S
C148 H149 0.961 . S
C148 H150 0.961 . S
C148 H151 0.960 . S
H149 C148 0.961 . S
H150 C148 0.961 . S
H151 C148 0.960 . S
C152 N153 1.342 . S
C152 C156 1.401 . S
C152 C157 1.499 . S
N153 Co136 1.989 . S
N153 C152 1.342 . S
N153 N154 1.388 . S
N154 Co137 1.993 . S
N154 N153 1.388 . S
N154 C155 1.346 . S
C155 N154 1.346 . S
C155 C156 1.396 . S
C155 C165 1.510 . S
C156 C152 1.401 . S
C156 C155 1.396 . S
C157 C152 1.499 . S
C157 H158 0.959 . S
C157 H159 0.960 . S
C157 H160 0.961 . S
H158 C157 0.959 . S
H159 C157 0.960 . S
H160 C157 0.961 . S
O161 Co136 1.967 . S
O161 C169 1.258 . S
O162 Co137 1.941 . S
O162 C169 1.266 . S
H163 C165 0.959 . S
H164 C165 0.961 . S
C165 C155 1.510 . S
C165 H163 0.959 . S
C165 H164 0.961 . S
C165 H166 0.960 . S
H166 C165 0.960 . S
H167 N147 0.862 . S
O168 Co136 1.920 . S
O168 C141 1.289 . S
C169 O161 1.258 . S
C169 O162 1.266 . S
Co170 O173 1.970 . S
Co170 N187 1.989 . S
Co170 O195 1.967 . S
Co170 O202 1.920 . S
Co171 O174 1.966 . S
Co171 N180 2.022 . S
Co171 N188 1.993 . S
Co171 O196 1.941 . S
C172 O173 1.258 . S
C172 O174 1.263 . S
O173 Co170 1.970 . S
O173 C172 1.258 . S
O174 Co171 1.966 . S
O174 C172 1.263 . S
C175 O176 1.235 . S
C175 O202 1.289 . S
O176 C175 1.235 . S
C177 C179 1.400 . S
C177 N180 1.351 . S
C177 C182 1.501 . S
C178 C179 1.387 . S
C178 N181 1.341 . S
C179 C177 1.400 . S
C179 C178 1.387 . S
N180 Co171 2.022 . S
N180 C177 1.351 . S
N180 N181 1.365 . S
N181 C178 1.341 . S
N181 N180 1.365 . S
N181 H201 0.862 . S
C182 C177 1.501 . S
C182 H183 0.961 . S
C182 H184 0.961 . S
C182 H185 0.960 . S
H183 C182 0.961 . S
H184 C182 0.961 . S
H185 C182 0.960 . S
C186 N187 1.342 . S
C186 C190 1.401 . S
C186 C191 1.499 . S
N187 Co170 1.989 . S
N187 C186 1.342 . S
N187 N188 1.388 . S
N188 Co171 1.993 . S
N188 N187 1.388 . S
N188 C189 1.346 . S
C189 N188 1.346 . S
C189 C190 1.396 . S
C189 C199 1.510 . S
C190 C186 1.401 . S
C190 C189 1.396 . S
C191 C186 1.499 . S
C191 H192 0.959 . S
C191 H193 0.960 . S
C191 H194 0.961 . S
H192 C191 0.959 . S
H193 C191 0.960 . S
H194 C191 0.961 . S
O195 Co170 1.967 . S
O195 C203 1.258 . S
O196 Co171 1.941 . S
O196 C203 1.266 . S
H197 C199 0.959 . S
H198 C199 0.961 . S
C199 C189 1.510 . S
C199 H197 0.959 . S
C199 H198 0.961 . S
C199 H200 0.960 . S
H200 C199 0.960 . S
H201 N181 0.862 . S
O202 Co170 1.920 . S
O202 C175 1.289 . S
C203 O195 1.258 . S
C203 O196 1.266 . S
Co204 O207 1.970 . S
Co204 N221 1.989 . S
Co204 O229 1.967 . S
Co204 O236 1.920 . S
Co205 O208 1.966 . S
Co205 N214 2.022 . S
Co205 N222 1.993 . S
Co205 O230 1.941 . S
C206 O207 1.258 . S
C206 O208 1.263 . S
O207 Co204 1.970 . S
O207 C206 1.258 . S
O208 Co205 1.966 . S
O208 C206 1.263 . S
C209 O210 1.235 . S
C209 O236 1.289 . S
O210 C209 1.235 . S
C211 C213 1.400 . S
C211 N214 1.351 . S
C211 C216 1.501 . S
C212 C213 1.387 . S
C212 N215 1.341 . S
C213 C211 1.400 . S
C213 C212 1.387 . S
N214 Co205 2.022 . S
N214 C211 1.351 . S
N214 N215 1.365 . S
N215 C212 1.341 . S
N215 N214 1.365 . S
N215 H235 0.862 . S
C216 C211 1.501 . S
C216 H217 0.961 . S
C216 H218 0.961 . S
C216 H219 0.960 . S
H217 C216 0.961 . S
H218 C216 0.961 . S
H219 C216 0.960 . S
C220 N221 1.342 . S
C220 C224 1.401 . S
C220 C225 1.499 . S
N221 Co204 1.989 . S
N221 C220 1.342 . S
N221 N222 1.388 . S
N222 Co205 1.993 . S
N222 N221 1.388 . S
N222 C223 1.346 . S
C223 N222 1.346 . S
C223 C224 1.396 . S
C223 C233 1.510 . S
C224 C220 1.401 . S
C224 C223 1.396 . S
C225 C220 1.499 . S
C225 H226 0.959 . S
C225 H227 0.960 . S
C225 H228 0.961 . S
H226 C225 0.959 . S
H227 C225 0.960 . S
H228 C225 0.961 . S
O229 Co204 1.967 . S
O229 C237 1.258 . S
O230 Co205 1.941 . S
O230 C237 1.266 . S
H231 C233 0.959 . S
H232 C233 0.961 . S
C233 C223 1.510 . S
C233 H231 0.959 . S
C233 H232 0.961 . S
C233 H234 0.960 . S
H234 C233 0.960 . S
H235 N215 0.862 . S
O236 Co204 1.920 . S
O236 C209 1.289 . S
C237 O229 1.258 . S
C237 O230 1.266 . S
Co238 O241 1.970 . S
Co238 N255 1.989 . S
Co238 O263 1.967 . S
Co238 O270 1.920 . S
Co239 O242 1.966 . S
Co239 N248 2.022 . S
Co239 N256 1.993 . S
Co239 O264 1.941 . S
C240 O241 1.258 . S
C240 O242 1.263 . S
O241 Co238 1.970 . S
O241 C240 1.258 . S
O242 Co239 1.966 . S
O242 C240 1.263 . S
C243 O244 1.235 . S
C243 O270 1.289 . S
O244 C243 1.235 . S
C245 C247 1.400 . S
C245 N248 1.351 . S
C245 C250 1.501 . S
C246 C247 1.387 . S
C246 N249 1.341 . S
C247 C245 1.400 . S
C247 C246 1.387 . S
N248 Co239 2.022 . S
N248 C245 1.351 . S
N248 N249 1.365 . S
N249 C246 1.341 . S
N249 N248 1.365 . S
N249 H269 0.862 . S
C250 C245 1.501 . S
C250 H251 0.961 . S
C250 H252 0.961 . S
C250 H253 0.960 . S
H251 C250 0.961 . S
H252 C250 0.961 . S
H253 C250 0.960 . S
C254 N255 1.342 . S
C254 C258 1.401 . S
C254 C259 1.499 . S
N255 Co238 1.989 . S
N255 C254 1.342 . S
N255 N256 1.388 . S
N256 Co239 1.993 . S
N256 N255 1.388 . S
N256 C257 1.346 . S
C257 N256 1.346 . S
C257 C258 1.396 . S
C257 C267 1.510 . S
C258 C254 1.401 . S
C258 C257 1.396 . S
C259 C254 1.499 . S
C259 H260 0.959 . S
C259 H261 0.960 . S
C259 H262 0.961 . S
H260 C259 0.959 . S
H261 C259 0.960 . S
H262 C259 0.961 . S
O263 Co238 1.967 . S
O263 C271 1.258 . S
O264 Co239 1.941 . S
O264 C271 1.266 . S
H265 C267 0.959 . S
H266 C267 0.961 . S
C267 C257 1.510 . S
C267 H265 0.959 . S
C267 H266 0.961 . S
C267 H268 0.960 . S
H268 C267 0.960 . S
H269 N249 0.862 . S
O270 Co238 1.920 . S
O270 C243 1.289 . S
C271 O263 1.258 . S
C271 O264 1.266 . S
Co272 O275 1.970 . S
Co272 N289 1.989 . S
Co272 O297 1.967 . S
Co272 O304 1.920 . S
Co273 O276 1.966 . S
Co273 N282 2.022 . S
Co273 N290 1.993 . S
Co273 O298 1.941 . S
C274 O275 1.258 . S
C274 O276 1.263 . S
O275 Co272 1.970 . S
O275 C274 1.258 . S
O276 Co273 1.966 . S
O276 C274 1.263 . S
C277 O278 1.235 . S
C277 O304 1.289 . S
O278 C277 1.235 . S
C279 C281 1.400 . S
C279 N282 1.351 . S
C279 C284 1.501 . S
C280 C281 1.387 . S
C280 N283 1.341 . S
C281 C279 1.400 . S
C281 C280 1.387 . S
N282 Co273 2.022 . S
N282 C279 1.351 . S
N282 N283 1.365 . S
N283 C280 1.341 . S
N283 N282 1.365 . S
N283 H303 0.862 . S
C284 C279 1.501 . S
C284 H285 0.961 . S
C284 H286 0.961 . S
C284 H287 0.960 . S
H285 C284 0.961 . S
H286 C284 0.961 . S
H287 C284 0.960 . S
C288 N289 1.342 . S
C288 C292 1.401 . S
C288 C293 1.499 . S
N289 Co272 1.989 . S
N289 C288 1.342 . S
N289 N290 1.388 . S
N290 Co273 1.993 . S
N290 N289 1.388 . S
N290 C291 1.346 . S
C291 N290 1.346 . S
C291 C292 1.396 . S
C291 C301 1.510 . S
C292 C288 1.401 . S
C292 C291 1.396 . S
C293 C288 1.499 . S
C293 H294 0.959 . S
C293 H295 0.960 . S
C293 H296 0.961 . S
H294 C293 0.959 . S
H295 C293 0.960 . S
H296 C293 0.961 . S
O297 Co272 1.967 . S
O297 C305 1.258 . S
O298 Co273 1.941 . S
O298 C305 1.266 . S
H299 C301 0.959 . S
H300 C301 0.961 . S
C301 C291 1.510 . S
C301 H299 0.959 . S
C301 H300 0.961 . S
C301 H302 0.960 . S
H302 C301 0.960 . S
H303 N283 0.862 . S
O304 Co272 1.920 . S
O304 C277 1.289 . S
C305 O297 1.258 . S
C305 O298 1.266 . S
Co306 O309 1.970 . S
Co306 N323 1.989 . S
Co306 O331 1.967 . S
Co306 O338 1.920 . S
Co307 O310 1.966 . S
Co307 N316 2.022 . S
Co307 N324 1.993 . S
Co307 O332 1.941 . S
C308 O309 1.258 . S
C308 O310 1.263 . S
O309 Co306 1.970 . S
O309 C308 1.258 . S
O310 Co307 1.966 . S
O310 C308 1.263 . S
C311 O312 1.235 . S
C311 O338 1.289 . S
O312 C311 1.235 . S
C313 C315 1.400 . S
C313 N316 1.351 . S
C313 C318 1.501 . S
C314 C315 1.387 . S
C314 N317 1.341 . S
C315 C313 1.400 . S
C315 C314 1.387 . S
N316 Co307 2.022 . S
N316 C313 1.351 . S
N316 N317 1.365 . S
N317 C314 1.341 . S
N317 N316 1.365 . S
N317 H337 0.862 . S
C318 C313 1.501 . S
C318 H319 0.961 . S
C318 H320 0.961 . S
C318 H321 0.960 . S
H319 C318 0.961 . S
H320 C318 0.961 . S
H321 C318 0.960 . S
C322 N323 1.342 . S
C322 C326 1.401 . S
C322 C327 1.499 . S
N323 Co306 1.989 . S
N323 C322 1.342 . S
N323 N324 1.388 . S
N324 Co307 1.993 . S
N324 N323 1.388 . S
N324 C325 1.346 . S
C325 N324 1.346 . S
C325 C326 1.396 . S
C325 C335 1.510 . S
C326 C322 1.401 . S
C326 C325 1.396 . S
C327 C322 1.499 . S
C327 H328 0.959 . S
C327 H329 0.960 . S
C327 H330 0.961 . S
H328 C327 0.959 . S
H329 C327 0.960 . S
H330 C327 0.961 . S
O331 Co306 1.967 . S
O331 C339 1.258 . S
O332 Co307 1.941 . S
O332 C339 1.266 . S
H333 C335 0.959 . S
H334 C335 0.961 . S
C335 C325 1.510 . S
C335 H333 0.959 . S
C335 H334 0.961 . S
C335 H336 0.960 . S
H336 C335 0.960 . S
H337 N317 0.862 . S
O338 Co306 1.920 . S
O338 C311 1.289 . S
C339 O331 1.258 . S
C339 O332 1.266 . S
Co340 O343 1.970 . S
Co340 N357 1.989 . S
Co340 O365 1.967 . S
Co340 O372 1.920 . S
Co341 O344 1.966 . S
Co341 N350 2.022 . S
Co341 N358 1.993 . S
Co341 O366 1.941 . S
C342 O343 1.258 . S
C342 O344 1.263 . S
O343 Co340 1.970 . S
O343 C342 1.258 . S
O344 Co341 1.966 . S
O344 C342 1.263 . S
C345 O346 1.235 . S
C345 O372 1.289 . S
O346 C345 1.235 . S
C347 C349 1.400 . S
C347 N350 1.351 . S
C347 C352 1.501 . S
C348 C349 1.387 . S
C348 N351 1.341 . S
C349 C347 1.400 . S
C349 C348 1.387 . S
N350 Co341 2.022 . S
N350 C347 1.351 . S
N350 N351 1.365 . S
N351 C348 1.341 . S
N351 N350 1.365 . S
N351 H371 0.862 . S
C352 C347 1.501 . S
C352 H353 0.961 . S
C352 H354 0.961 . S
C352 H355 0.960 . S
H353 C352 0.961 . S
H354 C352 0.961 . S
H355 C352 0.960 . S
C356 N357 1.342 . S
C356 C360 1.401 . S
C356 C361 1.499 . S
N357 Co340 1.989 . S
N357 C356 1.342 . S
N357 N358 1.388 . S
N358 Co341 1.993 . S
N358 N357 1.388 . S
N358 C359 1.346 . S
C359 N358 1.346 . S
C359 C360 1.396 . S
C359 C369 1.510 . S
C360 C356 1.401 . S
C360 C359 1.396 . S
C361 C356 1.499 . S
C361 H362 0.959 . S
C361 H363 0.960 . S
C361 H364 0.961 . S
H362 C361 0.959 . S
H363 C361 0.960 . S
H364 C361 0.961 . S
O365 Co340 1.967 . S
O365 C373 1.258 . S
O366 Co341 1.941 . S
O366 C373 1.266 . S
H367 C369 0.959 . S
H368 C369 0.961 . S
C369 C359 1.510 . S
C369 H367 0.959 . S
C369 H368 0.961 . S
C369 H370 0.960 . S
H370 C369 0.960 . S
H371 N351 0.862 . S
O372 Co340 1.920 . S
O372 C345 1.289 . S
C373 O365 1.258 . S
C373 O366 1.266 . S
Co374 O377 1.970 . S
Co374 N391 1.989 . S
Co374 O399 1.967 . S
Co374 O406 1.920 . S
Co375 O378 1.966 . S
Co375 N384 2.022 . S
Co375 N392 1.993 . S
Co375 O400 1.941 . S
C376 O377 1.258 . S
C376 O378 1.263 . S
O377 Co374 1.970 . S
O377 C376 1.258 . S
O378 Co375 1.966 . S
O378 C376 1.263 . S
C379 O380 1.235 . S
C379 O406 1.289 . S
O380 C379 1.235 . S
C381 C383 1.400 . S
C381 N384 1.351 . S
C381 C386 1.501 . S
C382 C383 1.387 . S
C382 N385 1.341 . S
C383 C381 1.400 . S
C383 C382 1.387 . S
N384 Co375 2.022 . S
N384 C381 1.351 . S
N384 N385 1.365 . S
N385 C382 1.341 . S
N385 N384 1.365 . S
N385 H405 0.862 . S
C386 C381 1.501 . S
C386 H387 0.961 . S
C386 H388 0.961 . S
C386 H389 0.960 . S
H387 C386 0.961 . S
H388 C386 0.961 . S
H389 C386 0.960 . S
C390 N391 1.342 . S
C390 C394 1.401 . S
C390 C395 1.499 . S
N391 Co374 1.989 . S
N391 C390 1.342 . S
N391 N392 1.388 . S
N392 Co375 1.993 . S
N392 N391 1.388 . S
N392 C393 1.346 . S
C393 N392 1.346 . S
C393 C394 1.396 . S
C393 C403 1.510 . S
C394 C390 1.401 . S
C394 C393 1.396 . S
C395 C390 1.499 . S
C395 H396 0.959 . S
C395 H397 0.960 . S
C395 H398 0.961 . S
H396 C395 0.959 . S
H397 C395 0.960 . S
H398 C395 0.961 . S
O399 Co374 1.967 . S
O399 C407 1.258 . S
O400 Co375 1.941 . S
O400 C407 1.266 . S
H401 C403 0.959 . S
H402 C403 0.961 . S
C403 C393 1.510 . S
C403 H401 0.959 . S
C403 H402 0.961 . S
C403 H404 0.960 . S
H404 C403 0.960 . S
H405 N385 0.862 . S
O406 Co374 1.920 . S
O406 C379 1.289 . S
C407 O399 1.258 . S
C407 O400 1.266 . S
Co408 O411 1.970 . S
Co408 N425 1.989 . S
Co408 O433 1.967 . S
Co408 O440 1.920 . S
Co409 O412 1.966 . S
Co409 N418 2.022 . S
Co409 N426 1.993 . S
Co409 O434 1.941 . S
C410 O411 1.258 . S
C410 O412 1.263 . S
O411 Co408 1.970 . S
O411 C410 1.258 . S
O412 Co409 1.966 . S
O412 C410 1.263 . S
C413 O414 1.235 . S
C413 O440 1.289 . S
O414 C413 1.235 . S
C415 C417 1.400 . S
C415 N418 1.351 . S
C415 C420 1.501 . S
C416 C417 1.387 . S
C416 N419 1.341 . S
C417 C415 1.400 . S
C417 C416 1.387 . S
N418 Co409 2.022 . S
N418 C415 1.351 . S
N418 N419 1.365 . S
N419 C416 1.341 . S
N419 N418 1.365 . S
N419 H439 0.862 . S
C420 C415 1.501 . S
C420 H421 0.961 . S
C420 H422 0.961 . S
C420 H423 0.960 . S
H421 C420 0.961 . S
H422 C420 0.961 . S
H423 C420 0.960 . S
C424 N425 1.342 . S
C424 C428 1.401 . S
C424 C429 1.499 . S
N425 Co408 1.989 . S
N425 C424 1.342 . S
N425 N426 1.388 . S
N426 Co409 1.993 . S
N426 N425 1.388 . S
N426 C427 1.346 . S
C427 N426 1.346 . S
C427 C428 1.396 . S
C427 C437 1.510 . S
C428 C424 1.401 . S
C428 C427 1.396 . S
C429 C424 1.499 . S
C429 H430 0.959 . S
C429 H431 0.960 . S
C429 H432 0.961 . S
H430 C429 0.959 . S
H431 C429 0.960 . S
H432 C429 0.961 . S
O433 Co408 1.967 . S
O433 C441 1.258 . S
O434 Co409 1.941 . S
O434 C441 1.266 . S
H435 C437 0.959 . S
H436 C437 0.961 . S
C437 C427 1.510 . S
C437 H435 0.959 . S
C437 H436 0.961 . S
C437 H438 0.960 . S
H438 C437 0.960 . S
H439 N419 0.862 . S
O440 Co408 1.920 . S
O440 C413 1.289 . S
C441 O433 1.258 . S
C441 O434 1.266 . S
Co442 O445 1.970 . S
Co442 N459 1.989 . S
Co442 O467 1.967 . S
Co442 O474 1.920 . S
Co443 O446 1.966 . S
Co443 N452 2.022 . S
Co443 N460 1.993 . S
Co443 O468 1.941 . S
C444 O445 1.258 . S
C444 O446 1.263 . S
O445 Co442 1.970 . S
O445 C444 1.258 . S
O446 Co443 1.966 . S
O446 C444 1.263 . S
C447 O448 1.235 . S
C447 O474 1.289 . S
O448 C447 1.235 . S
C449 C451 1.400 . S
C449 N452 1.351 . S
C449 C454 1.501 . S
C450 C451 1.387 . S
C450 N453 1.341 . S
C451 C449 1.400 . S
C451 C450 1.387 . S
N452 Co443 2.022 . S
N452 C449 1.351 . S
N452 N453 1.365 . S
N453 C450 1.341 . S
N453 N452 1.365 . S
N453 H473 0.862 . S
C454 C449 1.501 . S
C454 H455 0.961 . S
C454 H456 0.961 . S
C454 H457 0.960 . S
H455 C454 0.961 . S
H456 C454 0.961 . S
H457 C454 0.960 . S
C458 N459 1.342 . S
C458 C462 1.401 . S
C458 C463 1.499 . S
N459 Co442 1.989 . S
N459 C458 1.342 . S
N459 N460 1.388 . S
N460 Co443 1.993 . S
N460 N459 1.388 . S
N460 C461 1.346 . S
C461 N460 1.346 . S
C461 C462 1.396 . S
C461 C471 1.510 . S
C462 C458 1.401 . S
C462 C461 1.396 . S
C463 C458 1.499 . S
C463 H464 0.959 . S
C463 H465 0.960 . S
C463 H466 0.961 . S
H464 C463 0.959 . S
H465 C463 0.960 . S
H466 C463 0.961 . S
O467 Co442 1.967 . S
O467 C475 1.258 . S
O468 Co443 1.941 . S
O468 C475 1.266 . S
H469 C471 0.959 . S
H470 C471 0.961 . S
C471 C461 1.510 . S
C471 H469 0.959 . S
C471 H470 0.961 . S
C471 H472 0.960 . S
H472 C471 0.960 . S
H473 N453 0.862 . S
O474 Co442 1.920 . S
O474 C447 1.289 . S
C475 O467 1.258 . S
C475 O468 1.266 . S
Co476 O479 1.970 . S
Co476 N493 1.989 . S
Co476 O501 1.967 . S
Co476 O508 1.920 . S
Co477 O480 1.966 . S
Co477 N486 2.022 . S
Co477 N494 1.993 . S
Co477 O502 1.941 . S
C478 O479 1.258 . S
C478 O480 1.263 . S
O479 Co476 1.970 . S
O479 C478 1.258 . S
O480 Co477 1.966 . S
O480 C478 1.263 . S
C481 O482 1.235 . S
C481 O508 1.289 . S
O482 C481 1.235 . S
C483 C485 1.400 . S
C483 N486 1.351 . S
C483 C488 1.501 . S
C484 C485 1.387 . S
C484 N487 1.341 . S
C485 C483 1.400 . S
C485 C484 1.387 . S
N486 Co477 2.022 . S
N486 C483 1.351 . S
N486 N487 1.365 . S
N487 C484 1.341 . S
N487 N486 1.365 . S
N487 H507 0.862 . S
C488 C483 1.501 . S
C488 H489 0.961 . S
C488 H490 0.961 . S
C488 H491 0.960 . S
H489 C488 0.961 . S
H490 C488 0.961 . S
H491 C488 0.960 . S
C492 N493 1.342 . S
C492 C496 1.401 . S
C492 C497 1.499 . S
N493 Co476 1.989 . S
N493 C492 1.342 . S
N493 N494 1.388 . S
N494 Co477 1.993 . S
N494 N493 1.388 . S
N494 C495 1.346 . S
C495 N494 1.346 . S
C495 C496 1.396 . S
C495 C505 1.510 . S
C496 C492 1.401 . S
C496 C495 1.396 . S
C497 C492 1.499 . S
C497 H498 0.959 . S
C497 H499 0.960 . S
C497 H500 0.961 . S
H498 C497 0.959 . S
H499 C497 0.960 . S
H500 C497 0.961 . S
O501 Co476 1.967 . S
O501 C509 1.258 . S
O502 Co477 1.941 . S
O502 C509 1.266 . S
H503 C505 0.959 . S
H504 C505 0.961 . S
C505 C495 1.510 . S
C505 H503 0.959 . S
C505 H504 0.961 . S
C505 H506 0.960 . S
H506 C505 0.960 . S
H507 N487 0.862 . S
O508 Co476 1.920 . S
O508 C481 1.289 . S
C509 O501 1.258 . S
C509 O502 1.266 . S
Co510 O513 1.970 . S
Co510 N527 1.989 . S
Co510 O535 1.967 . S
Co510 O542 1.920 . S
Co511 O514 1.966 . S
Co511 N520 2.022 . S
Co511 N528 1.993 . S
Co511 O536 1.941 . S
C512 O513 1.258 . S
C512 O514 1.263 . S
O513 Co510 1.970 . S
O513 C512 1.258 . S
O514 Co511 1.966 . S
O514 C512 1.263 . S
C515 O516 1.235 . S
C515 O542 1.289 . S
O516 C515 1.235 . S
C517 C519 1.400 . S
C517 N520 1.351 . S
C517 C522 1.501 . S
C518 C519 1.387 . S
C518 N521 1.341 . S
C519 C517 1.400 . S
C519 C518 1.387 . S
N520 Co511 2.022 . S
N520 C517 1.351 . S
N520 N521 1.365 . S
N521 C518 1.341 . S
N521 N520 1.365 . S
N521 H541 0.862 . S
C522 C517 1.501 . S
C522 H523 0.961 . S
C522 H524 0.961 . S
C522 H525 0.960 . S
H523 C522 0.961 . S
H524 C522 0.961 . S
H525 C522 0.960 . S
C526 N527 1.342 . S
C526 C530 1.401 . S
C526 C531 1.499 . S
N527 Co510 1.989 . S
N527 C526 1.342 . S
N527 N528 1.388 . S
N528 Co511 1.993 . S
N528 N527 1.388 . S
N528 C529 1.346 . S
C529 N528 1.346 . S
C529 C530 1.396 . S
C529 C539 1.510 . S
C530 C526 1.401 . S
C530 C529 1.396 . S
C531 C526 1.499 . S
C531 H532 0.959 . S
C531 H533 0.960 . S
C531 H534 0.961 . S
H532 C531 0.959 . S
H533 C531 0.960 . S
H534 C531 0.961 . S
O535 Co510 1.967 . S
O535 C543 1.258 . S
O536 Co511 1.941 . S
O536 C543 1.266 . S
H537 C539 0.959 . S
H538 C539 0.961 . S
C539 C529 1.510 . S
C539 H537 0.959 . S
C539 H538 0.961 . S
C539 H540 0.960 . S
H540 C539 0.960 . S
H541 N521 0.862 . S
O542 Co510 1.920 . S
O542 C515 1.289 . S
C543 O535 1.258 . S
C543 O536 1.266 . S
Co544 O547 1.970 . S
Co544 N561 1.989 . S
Co544 O569 1.967 . S
Co544 O576 1.920 . S
Co545 O548 1.966 . S
Co545 N554 2.022 . S
Co545 N562 1.993 . S
Co545 O570 1.941 . S
C546 O547 1.258 . S
C546 O548 1.263 . S
O547 Co544 1.970 . S
O547 C546 1.258 . S
O548 Co545 1.966 . S
O548 C546 1.263 . S
C549 O550 1.235 . S
C549 O576 1.289 . S
O550 C549 1.235 . S
C551 C553 1.400 . S
C551 N554 1.351 . S
C551 C556 1.501 . S
C552 C553 1.387 . S
C552 N555 1.341 . S
C553 C551 1.400 . S
C553 C552 1.387 . S
N554 Co545 2.022 . S
N554 C551 1.351 . S
N554 N555 1.365 . S
N555 C552 1.341 . S
N555 N554 1.365 . S
N555 H575 0.862 . S
C556 C551 1.501 . S
C556 H557 0.961 . S
C556 H558 0.961 . S
C556 H559 0.960 . S
H557 C556 0.961 . S
H558 C556 0.961 . S
H559 C556 0.960 . S
C560 N561 1.342 . S
C560 C564 1.401 . S
C560 C565 1.499 . S
N561 Co544 1.989 . S
N561 C560 1.342 . S
N561 N562 1.388 . S
N562 Co545 1.993 . S
N562 N561 1.388 . S
N562 C563 1.346 . S
C563 N562 1.346 . S
C563 C564 1.396 . S
C563 C573 1.510 . S
C564 C560 1.401 . S
C564 C563 1.396 . S
C565 C560 1.499 . S
C565 H566 0.959 . S
C565 H567 0.960 . S
C565 H568 0.961 . S
H566 C565 0.959 . S
H567 C565 0.960 . S
H568 C565 0.961 . S
O569 Co544 1.967 . S
O569 C577 1.258 . S
O570 Co545 1.941 . S
O570 C577 1.266 . S
H571 C573 0.959 . S
H572 C573 0.961 . S
C573 C563 1.510 . S
C573 H571 0.959 . S
C573 H572 0.961 . S
C573 H574 0.960 . S
H574 C573 0.960 . S
H575 N555 0.862 . S
O576 Co544 1.920 . S
O576 C549 1.289 . S
C577 O569 1.258 . S
C577 O570 1.266 . S
Co578 O581 1.970 . S
Co578 N595 1.989 . S
Co578 O603 1.967 . S
Co578 O610 1.920 . S
Co579 O582 1.966 . S
Co579 N588 2.022 . S
Co579 N596 1.993 . S
Co579 O604 1.941 . S
C580 O581 1.258 . S
C580 O582 1.263 . S
O581 Co578 1.970 . S
O581 C580 1.258 . S
O582 Co579 1.966 . S
O582 C580 1.263 . S
C583 O584 1.235 . S
C583 O610 1.289 . S
O584 C583 1.235 . S
C585 C587 1.400 . S
C585 N588 1.351 . S
C585 C590 1.501 . S
C586 C587 1.387 . S
C586 N589 1.341 . S
C587 C585 1.400 . S
C587 C586 1.387 . S
N588 Co579 2.022 . S
N588 C585 1.351 . S
N588 N589 1.365 . S
N589 C586 1.341 . S
N589 N588 1.365 . S
N589 H609 0.862 . S
C590 C585 1.501 . S
C590 H591 0.961 . S
C590 H592 0.961 . S
C590 H593 0.960 . S
H591 C590 0.961 . S
H592 C590 0.961 . S
H593 C590 0.960 . S
C594 N595 1.342 . S
C594 C598 1.401 . S
C594 C599 1.499 . S
N595 Co578 1.989 . S
N595 C594 1.342 . S
N595 N596 1.388 . S
N596 Co579 1.993 . S
N596 N595 1.388 . S
N596 C597 1.346 . S
C597 N596 1.346 . S
C597 C598 1.396 . S
C597 C607 1.510 . S
C598 C594 1.401 . S
C598 C597 1.396 . S
C599 C594 1.499 . S
C599 H600 0.959 . S
C599 H601 0.960 . S
C599 H602 0.961 . S
H600 C599 0.959 . S
H601 C599 0.960 . S
H602 C599 0.961 . S
O603 Co578 1.967 . S
O603 C611 1.258 . S
O604 Co579 1.941 . S
O604 C611 1.266 . S
H605 C607 0.959 . S
H606 C607 0.961 . S
C607 C597 1.510 . S
C607 H605 0.959 . S
C607 H606 0.961 . S
C607 H608 0.960 . S
H608 C607 0.960 . S
H609 N589 0.862 . S
O610 Co578 1.920 . S
O610 C583 1.289 . S
C611 O603 1.258 . S
C611 O604 1.266 . S
Co612 O615 1.970 . S
Co612 N629 1.989 . S
Co612 O637 1.967 . S
Co612 O644 1.920 . S
Co613 O616 1.966 . S
Co613 N622 2.022 . S
Co613 N630 1.993 . S
Co613 O638 1.941 . S
C614 O615 1.258 . S
C614 O616 1.263 . S
O615 Co612 1.970 . S
O615 C614 1.258 . S
O616 Co613 1.966 . S
O616 C614 1.263 . S
C617 O618 1.235 . S
C617 O644 1.289 . S
O618 C617 1.235 . S
C619 C621 1.400 . S
C619 N622 1.351 . S
C619 C624 1.501 . S
C620 C621 1.387 . S
C620 N623 1.341 . S
C621 C619 1.400 . S
C621 C620 1.387 . S
N622 Co613 2.022 . S
N622 C619 1.351 . S
N622 N623 1.365 . S
N623 C620 1.341 . S
N623 N622 1.365 . S
N623 H643 0.862 . S
C624 C619 1.501 . S
C624 H625 0.961 . S
C624 H626 0.961 . S
C624 H627 0.960 . S
H625 C624 0.961 . S
H626 C624 0.961 . S
H627 C624 0.960 . S
C628 N629 1.342 . S
C628 C632 1.401 . S
C628 C633 1.499 . S
N629 Co612 1.989 . S
N629 C628 1.342 . S
N629 N630 1.388 . S
N630 Co613 1.993 . S
N630 N629 1.388 . S
N630 C631 1.346 . S
C631 N630 1.346 . S
C631 C632 1.396 . S
C631 C641 1.510 . S
C632 C628 1.401 . S
C632 C631 1.396 . S
C633 C628 1.499 . S
C633 H634 0.959 . S
C633 H635 0.960 . S
C633 H636 0.961 . S
H634 C633 0.959 . S
H635 C633 0.960 . S
H636 C633 0.961 . S
O637 Co612 1.967 . S
O637 C645 1.258 . S
O638 Co613 1.941 . S
O638 C645 1.266 . S
H639 C641 0.959 . S
H640 C641 0.961 . S
C641 C631 1.510 . S
C641 H639 0.959 . S
C641 H640 0.961 . S
C641 H642 0.960 . S
H642 C641 0.960 . S
H643 N623 0.862 . S
O644 Co612 1.920 . S
O644 C617 1.289 . S
C645 O637 1.258 . S
C645 O638 1.266 . S
Co646 O649 1.970 . S
Co646 N663 1.989 . S
Co646 O671 1.967 . S
Co646 O678 1.920 . S
Co647 O650 1.966 . S
Co647 N656 2.022 . S
Co647 N664 1.993 . S
Co647 O672 1.941 . S
C648 O649 1.258 . S
C648 O650 1.263 . S
O649 Co646 1.970 . S
O649 C648 1.258 . S
O650 Co647 1.966 . S
O650 C648 1.263 . S
C651 O652 1.235 . S
C651 O678 1.289 . S
O652 C651 1.235 . S
C653 C655 1.400 . S
C653 N656 1.351 . S
C653 C658 1.501 . S
C654 C655 1.387 . S
C654 N657 1.341 . S
C655 C653 1.400 . S
C655 C654 1.387 . S
N656 Co647 2.022 . S
N656 C653 1.351 . S
N656 N657 1.365 . S
N657 C654 1.341 . S
N657 N656 1.365 . S
N657 H677 0.862 . S
C658 C653 1.501 . S
C658 H659 0.961 . S
C658 H660 0.961 . S
C658 H661 0.960 . S
H659 C658 0.961 . S
H660 C658 0.961 . S
H661 C658 0.960 . S
C662 N663 1.342 . S
C662 C666 1.401 . S
C662 C667 1.499 . S
N663 Co646 1.989 . S
N663 C662 1.342 . S
N663 N664 1.388 . S
N664 Co647 1.993 . S
N664 N663 1.388 . S
N664 C665 1.346 . S
C665 N664 1.346 . S
C665 C666 1.396 . S
C665 C675 1.510 . S
C666 C662 1.401 . S
C666 C665 1.396 . S
C667 C662 1.499 . S
C667 H668 0.959 . S
C667 H669 0.960 . S
C667 H670 0.961 . S
H668 C667 0.959 . S
H669 C667 0.960 . S
H670 C667 0.961 . S
O671 Co646 1.967 . S
O671 C679 1.258 . S
O672 Co647 1.941 . S
O672 C679 1.266 . S
H673 C675 0.959 . S
H674 C675 0.961 . S
C675 C665 1.510 . S
C675 H673 0.959 . S
C675 H674 0.961 . S
C675 H676 0.960 . S
H676 C675 0.960 . S
H677 N657 0.862 . S
O678 Co646 1.920 . S
O678 C651 1.289 . S
C679 O671 1.258 . S
C679 O672 1.266 . S
Co680 O683 1.970 . S
Co680 N697 1.989 . S
Co680 O705 1.967 . S
Co680 O712 1.920 . S
Co681 O684 1.966 . S
Co681 N690 2.022 . S
Co681 N698 1.993 . S
Co681 O706 1.941 . S
C682 O683 1.258 . S
C682 O684 1.263 . S
O683 Co680 1.970 . S
O683 C682 1.258 . S
O684 Co681 1.966 . S
O684 C682 1.263 . S
C685 O686 1.235 . S
C685 O712 1.289 . S
O686 C685 1.235 . S
C687 C689 1.400 . S
C687 N690 1.351 . S
C687 C692 1.501 . S
C688 C689 1.387 . S
C688 N691 1.341 . S
C689 C687 1.400 . S
C689 C688 1.387 . S
N690 Co681 2.022 . S
N690 C687 1.351 . S
N690 N691 1.365 . S
N691 C688 1.341 . S
N691 N690 1.365 . S
N691 H711 0.862 . S
C692 C687 1.501 . S
C692 H693 0.961 . S
C692 H694 0.961 . S
C692 H695 0.960 . S
H693 C692 0.961 . S
H694 C692 0.961 . S
H695 C692 0.960 . S
C696 N697 1.342 . S
C696 C700 1.401 . S
C696 C701 1.499 . S
N697 Co680 1.989 . S
N697 C696 1.342 . S
N697 N698 1.388 . S
N698 Co681 1.993 . S
N698 N697 1.388 . S
N698 C699 1.346 . S
C699 N698 1.346 . S
C699 C700 1.396 . S
C699 C709 1.510 . S
C700 C696 1.401 . S
C700 C699 1.396 . S
C701 C696 1.499 . S
C701 H702 0.959 . S
C701 H703 0.960 . S
C701 H704 0.961 . S
H702 C701 0.959 . S
H703 C701 0.960 . S
H704 C701 0.961 . S
O705 Co680 1.967 . S
O705 C713 1.258 . S
O706 Co681 1.941 . S
O706 C713 1.266 . S
H707 C709 0.959 . S
H708 C709 0.961 . S
C709 C699 1.510 . S
C709 H707 0.959 . S
C709 H708 0.961 . S
C709 H710 0.960 . S
H710 C709 0.960 . S
H711 N691 0.862 . S
O712 Co680 1.920 . S
O712 C685 1.289 . S
C713 O705 1.258 . S
C713 O706 1.266 . S
Co714 O717 1.970 . S
Co714 N731 1.989 . S
Co714 O739 1.967 . S
Co714 O746 1.920 . S
Co715 O718 1.966 . S
Co715 N724 2.022 . S
Co715 N732 1.993 . S
Co715 O740 1.941 . S
C716 O717 1.258 . S
C716 O718 1.263 . S
O717 Co714 1.970 . S
O717 C716 1.258 . S
O718 Co715 1.966 . S
O718 C716 1.263 . S
C719 O720 1.235 . S
C719 O746 1.289 . S
O720 C719 1.235 . S
C721 C723 1.400 . S
C721 N724 1.351 . S
C721 C726 1.501 . S
C722 C723 1.387 . S
C722 N725 1.341 . S
C723 C721 1.400 . S
C723 C722 1.387 . S
N724 Co715 2.022 . S
N724 C721 1.351 . S
N724 N725 1.365 . S
N725 C722 1.341 . S
N725 N724 1.365 . S
N725 H745 0.862 . S
C726 C721 1.501 . S
C726 H727 0.961 . S
C726 H728 0.961 . S
C726 H729 0.960 . S
H727 C726 0.961 . S
H728 C726 0.961 . S
H729 C726 0.960 . S
C730 N731 1.342 . S
C730 C734 1.401 . S
C730 C735 1.499 . S
N731 Co714 1.989 . S
N731 C730 1.342 . S
N731 N732 1.388 . S
N732 Co715 1.993 . S
N732 N731 1.388 . S
N732 C733 1.346 . S
C733 N732 1.346 . S
C733 C734 1.396 . S
C733 C743 1.510 . S
C734 C730 1.401 . S
C734 C733 1.396 . S
C735 C730 1.499 . S
C735 H736 0.959 . S
C735 H737 0.960 . S
C735 H738 0.961 . S
H736 C735 0.959 . S
H737 C735 0.960 . S
H738 C735 0.961 . S
O739 Co714 1.967 . S
O739 C747 1.258 . S
O740 Co715 1.941 . S
O740 C747 1.266 . S
H741 C743 0.959 . S
H742 C743 0.961 . S
C743 C733 1.510 . S
C743 H741 0.959 . S
C743 H742 0.961 . S
C743 H744 0.960 . S
H744 C743 0.960 . S
H745 N725 0.862 . S
O746 Co714 1.920 . S
O746 C719 1.289 . S
C747 O739 1.258 . S
C747 O740 1.266 . S
Co748 O751 1.970 . S
Co748 N765 1.989 . S
Co748 O773 1.967 . S
Co748 O780 1.920 . S
Co749 O752 1.966 . S
Co749 N758 2.022 . S
Co749 N766 1.993 . S
Co749 O774 1.941 . S
C750 O751 1.258 . S
C750 O752 1.263 . S
O751 Co748 1.970 . S
O751 C750 1.258 . S
O752 Co749 1.966 . S
O752 C750 1.263 . S
C753 O754 1.235 . S
C753 O780 1.289 . S
O754 C753 1.235 . S
C755 C757 1.400 . S
C755 N758 1.351 . S
C755 C760 1.501 . S
C756 C757 1.387 . S
C756 N759 1.341 . S
C757 C755 1.400 . S
C757 C756 1.387 . S
N758 Co749 2.022 . S
N758 C755 1.351 . S
N758 N759 1.365 . S
N759 C756 1.341 . S
N759 N758 1.365 . S
N759 H779 0.862 . S
C760 C755 1.501 . S
C760 H761 0.961 . S
C760 H762 0.961 . S
C760 H763 0.960 . S
H761 C760 0.961 . S
H762 C760 0.961 . S
H763 C760 0.960 . S
C764 N765 1.342 . S
C764 C768 1.401 . S
C764 C769 1.499 . S
N765 Co748 1.989 . S
N765 C764 1.342 . S
N765 N766 1.388 . S
N766 Co749 1.993 . S
N766 N765 1.388 . S
N766 C767 1.346 . S
C767 N766 1.346 . S
C767 C768 1.396 . S
C767 C777 1.510 . S
C768 C764 1.401 . S
C768 C767 1.396 . S
C769 C764 1.499 . S
C769 H770 0.959 . S
C769 H771 0.960 . S
C769 H772 0.961 . S
H770 C769 0.959 . S
H771 C769 0.960 . S
H772 C769 0.961 . S
O773 Co748 1.967 . S
O773 C781 1.258 . S
O774 Co749 1.941 . S
O774 C781 1.266 . S
H775 C777 0.959 . S
H776 C777 0.961 . S
C777 C767 1.510 . S
C777 H775 0.959 . S
C777 H776 0.961 . S
C777 H778 0.960 . S
H778 C777 0.960 . S
H779 N759 0.862 . S
O780 Co748 1.920 . S
O780 C753 1.289 . S
C781 O773 1.258 . S
C781 O774 1.266 . S
Co782 O785 1.970 . S
Co782 N799 1.989 . S
Co782 O807 1.967 . S
Co782 O814 1.920 . S
Co783 O786 1.966 . S
Co783 N792 2.022 . S
Co783 N800 1.993 . S
Co783 O808 1.941 . S
C784 O785 1.258 . S
C784 O786 1.263 . S
O785 Co782 1.970 . S
O785 C784 1.258 . S
O786 Co783 1.966 . S
O786 C784 1.263 . S
C787 O788 1.235 . S
C787 O814 1.289 . S
O788 C787 1.235 . S
C789 C791 1.400 . S
C789 N792 1.351 . S
C789 C794 1.501 . S
C790 C791 1.387 . S
C790 N793 1.341 . S
C791 C789 1.400 . S
C791 C790 1.387 . S
N792 Co783 2.022 . S
N792 C789 1.351 . S
N792 N793 1.365 . S
N793 C790 1.341 . S
N793 N792 1.365 . S
N793 H813 0.862 . S
C794 C789 1.501 . S
C794 H795 0.961 . S
C794 H796 0.961 . S
C794 H797 0.960 . S
H795 C794 0.961 . S
H796 C794 0.961 . S
H797 C794 0.960 . S
C798 N799 1.342 . S
C798 C802 1.401 . S
C798 C803 1.499 . S
N799 Co782 1.989 . S
N799 C798 1.342 . S
N799 N800 1.388 . S
N800 Co783 1.993 . S
N800 N799 1.388 . S
N800 C801 1.346 . S
C801 N800 1.346 . S
C801 C802 1.396 . S
C801 C811 1.510 . S
C802 C798 1.401 . S
C802 C801 1.396 . S
C803 C798 1.499 . S
C803 H804 0.959 . S
C803 H805 0.960 . S
C803 H806 0.961 . S
H804 C803 0.959 . S
H805 C803 0.960 . S
H806 C803 0.961 . S
O807 Co782 1.967 . S
O807 C815 1.258 . S
O808 Co783 1.941 . S
O808 C815 1.266 . S
H809 C811 0.959 . S
H810 C811 0.961 . S
C811 C801 1.510 . S
C811 H809 0.959 . S
C811 H810 0.961 . S
C811 H812 0.960 . S
H812 C811 0.960 . S
H813 N793 0.862 . S
O814 Co782 1.920 . S
O814 C787 1.289 . S
C815 O807 1.258 . S
C815 O808 1.266 . S
Co816 O819 1.970 . S
Co816 N833 1.989 . S
Co816 O841 1.967 . S
Co816 O848 1.920 . S
Co817 O820 1.966 . S
Co817 N826 2.022 . S
Co817 N834 1.993 . S
Co817 O842 1.941 . S
C818 O819 1.258 . S
C818 O820 1.263 . S
O819 Co816 1.970 . S
O819 C818 1.258 . S
O820 Co817 1.966 . S
O820 C818 1.263 . S
C821 O822 1.235 . S
C821 O848 1.289 . S
O822 C821 1.235 . S
C823 C825 1.400 . S
C823 N826 1.351 . S
C823 C828 1.501 . S
C824 C825 1.387 . S
C824 N827 1.341 . S
C825 C823 1.400 . S
C825 C824 1.387 . S
N826 Co817 2.022 . S
N826 C823 1.351 . S
N826 N827 1.365 . S
N827 C824 1.341 . S
N827 N826 1.365 . S
N827 H847 0.862 . S
C828 C823 1.501 . S
C828 H829 0.961 . S
C828 H830 0.961 . S
C828 H831 0.960 . S
H829 C828 0.961 . S
H830 C828 0.961 . S
H831 C828 0.960 . S
C832 N833 1.342 . S
C832 C836 1.401 . S
C832 C837 1.499 . S
N833 Co816 1.989 . S
N833 C832 1.342 . S
N833 N834 1.388 . S
N834 Co817 1.993 . S
N834 N833 1.388 . S
N834 C835 1.346 . S
C835 N834 1.346 . S
C835 C836 1.396 . S
C835 C845 1.510 . S
C836 C832 1.401 . S
C836 C835 1.396 . S
C837 C832 1.499 . S
C837 H838 0.959 . S
C837 H839 0.960 . S
C837 H840 0.961 . S
H838 C837 0.959 . S
H839 C837 0.960 . S
H840 C837 0.961 . S
O841 Co816 1.967 . S
O841 C849 1.258 . S
O842 Co817 1.941 . S
O842 C849 1.266 . S
H843 C845 0.959 . S
H844 C845 0.961 . S
C845 C835 1.510 . S
C845 H843 0.959 . S
C845 H844 0.961 . S
C845 H846 0.960 . S
H846 C845 0.960 . S
H847 N827 0.862 . S
O848 Co816 1.920 . S
O848 C821 1.289 . S
C849 O841 1.258 . S
C849 O842 1.266 . S
Co850 O853 1.970 . S
Co850 N867 1.989 . S
Co850 O875 1.967 . S
Co850 O882 1.920 . S
Co851 O854 1.966 . S
Co851 N860 2.022 . S
Co851 N868 1.993 . S
Co851 O876 1.941 . S
C852 O853 1.258 . S
C852 O854 1.263 . S
O853 Co850 1.970 . S
O853 C852 1.258 . S
O854 Co851 1.966 . S
O854 C852 1.263 . S
C855 O856 1.235 . S
C855 O882 1.289 . S
O856 C855 1.235 . S
C857 C859 1.400 . S
C857 N860 1.351 . S
C857 C862 1.501 . S
C858 C859 1.387 . S
C858 N861 1.341 . S
C859 C857 1.400 . S
C859 C858 1.387 . S
N860 Co851 2.022 . S
N860 C857 1.351 . S
N860 N861 1.365 . S
N861 C858 1.341 . S
N861 N860 1.365 . S
N861 H881 0.862 . S
C862 C857 1.501 . S
C862 H863 0.961 . S
C862 H864 0.961 . S
C862 H865 0.960 . S
H863 C862 0.961 . S
H864 C862 0.961 . S
H865 C862 0.960 . S
C866 N867 1.342 . S
C866 C870 1.401 . S
C866 C871 1.499 . S
N867 Co850 1.989 . S
N867 C866 1.342 . S
N867 N868 1.388 . S
N868 Co851 1.993 . S
N868 N867 1.388 . S
N868 C869 1.346 . S
C869 N868 1.346 . S
C869 C870 1.396 . S
C869 C879 1.510 . S
C870 C866 1.401 . S
C870 C869 1.396 . S
C871 C866 1.499 . S
C871 H872 0.959 . S
C871 H873 0.960 . S
C871 H874 0.961 . S
H872 C871 0.959 . S
H873 C871 0.960 . S
H874 C871 0.961 . S
O875 Co850 1.967 . S
O875 C883 1.258 . S
O876 Co851 1.941 . S
O876 C883 1.266 . S
H877 C879 0.959 . S
H878 C879 0.961 . S
C879 C869 1.510 . S
C879 H877 0.959 . S
C879 H878 0.961 . S
C879 H880 0.960 . S
H880 C879 0.960 . S
H881 N861 0.862 . S
O882 Co850 1.920 . S
O882 C855 1.289 . S
C883 O875 1.258 . S
C883 O876 1.266 . S
Co884 O887 1.970 . S
Co884 N901 1.989 . S
Co884 O909 1.967 . S
Co884 O916 1.920 . S
Co885 O888 1.966 . S
Co885 N894 2.022 . S
Co885 N902 1.993 . S
Co885 O910 1.941 . S
C886 O887 1.258 . S
C886 O888 1.263 . S
O887 Co884 1.970 . S
O887 C886 1.258 . S
O888 Co885 1.966 . S
O888 C886 1.263 . S
C889 O890 1.235 . S
C889 O916 1.289 . S
O890 C889 1.235 . S
C891 C893 1.400 . S
C891 N894 1.351 . S
C891 C896 1.501 . S
C892 C893 1.387 . S
C892 N895 1.341 . S
C893 C891 1.400 . S
C893 C892 1.387 . S
N894 Co885 2.022 . S
N894 C891 1.351 . S
N894 N895 1.365 . S
N895 C892 1.341 . S
N895 N894 1.365 . S
N895 H915 0.862 . S
C896 C891 1.501 . S
C896 H897 0.961 . S
C896 H898 0.961 . S
C896 H899 0.960 . S
H897 C896 0.961 . S
H898 C896 0.961 . S
H899 C896 0.960 . S
C900 N901 1.342 . S
C900 C904 1.401 . S
C900 C905 1.499 . S
N901 Co884 1.989 . S
N901 C900 1.342 . S
N901 N902 1.388 . S
N902 Co885 1.993 . S
N902 N901 1.388 . S
N902 C903 1.346 . S
C903 N902 1.346 . S
C903 C904 1.396 . S
C903 C913 1.510 . S
C904 C900 1.401 . S
C904 C903 1.396 . S
C905 C900 1.499 . S
C905 H906 0.959 . S
C905 H907 0.960 . S
C905 H908 0.961 . S
H906 C905 0.959 . S
H907 C905 0.960 . S
H908 C905 0.961 . S
O909 Co884 1.967 . S
O909 C917 1.258 . S
O910 Co885 1.941 . S
O910 C917 1.266 . S
H911 C913 0.959 . S
H912 C913 0.961 . S
C913 C903 1.510 . S
C913 H911 0.959 . S
C913 H912 0.961 . S
C913 H914 0.960 . S
H914 C913 0.960 . S
H915 N895 0.862 . S
O916 Co884 1.920 . S
O916 C889 1.289 . S
C917 O909 1.258 . S
C917 O910 1.266 . S
Co918 O921 1.970 . S
Co918 N935 1.989 . S
Co918 O943 1.967 . S
Co918 O950 1.920 . S
Co919 O922 1.966 . S
Co919 N928 2.022 . S
Co919 N936 1.993 . S
Co919 O944 1.941 . S
C920 O921 1.258 . S
C920 O922 1.263 . S
O921 Co918 1.970 . S
O921 C920 1.258 . S
O922 Co919 1.966 . S
O922 C920 1.263 . S
C923 O924 1.235 . S
C923 O950 1.289 . S
O924 C923 1.235 . S
C925 C927 1.400 . S
C925 N928 1.351 . S
C925 C930 1.501 . S
C926 C927 1.387 . S
C926 N929 1.341 . S
C927 C925 1.400 . S
C927 C926 1.387 . S
N928 Co919 2.022 . S
N928 C925 1.351 . S
N928 N929 1.365 . S
N929 C926 1.341 . S
N929 N928 1.365 . S
N929 H949 0.862 . S
C930 C925 1.501 . S
C930 H931 0.961 . S
C930 H932 0.961 . S
C930 H933 0.960 . S
H931 C930 0.961 . S
H932 C930 0.961 . S
H933 C930 0.960 . S
C934 N935 1.342 . S
C934 C938 1.401 . S
C934 C939 1.499 . S
N935 Co918 1.989 . S
N935 C934 1.342 . S
N935 N936 1.388 . S
N936 Co919 1.993 . S
N936 N935 1.388 . S
N936 C937 1.346 . S
C937 N936 1.346 . S
C937 C938 1.396 . S
C937 C947 1.510 . S
C938 C934 1.401 . S
C938 C937 1.396 . S
C939 C934 1.499 . S
C939 H940 0.959 . S
C939 H941 0.960 . S
C939 H942 0.961 . S
H940 C939 0.959 . S
H941 C939 0.960 . S
H942 C939 0.961 . S
O943 Co918 1.967 . S
O943 C951 1.258 . S
O944 Co919 1.941 . S
O944 C951 1.266 . S
H945 C947 0.959 . S
H946 C947 0.961 . S
C947 C937 1.510 . S
C947 H945 0.959 . S
C947 H946 0.961 . S
C947 H948 0.960 . S
H948 C947 0.960 . S
H949 N929 0.862 . S
O950 Co918 1.920 . S
O950 C923 1.289 . S
C951 O943 1.258 . S
C951 O944 1.266 . S
Co952 O955 1.970 . S
Co952 N969 1.989 . S
Co952 O977 1.967 . S
Co952 O984 1.920 . S
Co953 O956 1.966 . S
Co953 N962 2.022 . S
Co953 N970 1.993 . S
Co953 O978 1.941 . S
C954 O955 1.258 . S
C954 O956 1.263 . S
O955 Co952 1.970 . S
O955 C954 1.258 . S
O956 Co953 1.966 . S
O956 C954 1.263 . S
C957 O958 1.235 . S
C957 O984 1.289 . S
O958 C957 1.235 . S
C959 C961 1.400 . S
C959 N962 1.351 . S
C959 C964 1.501 . S
C960 C961 1.387 . S
C960 N963 1.341 . S
C961 C959 1.400 . S
C961 C960 1.387 . S
N962 Co953 2.022 . S
N962 C959 1.351 . S
N962 N963 1.365 . S
N963 C960 1.341 . S
N963 N962 1.365 . S
N963 H983 0.862 . S
C964 C959 1.501 . S
C964 H965 0.961 . S
C964 H966 0.961 . S
C964 H967 0.960 . S
H965 C964 0.961 . S
H966 C964 0.961 . S
H967 C964 0.960 . S
C968 N969 1.342 . S
C968 C972 1.401 . S
C968 C973 1.499 . S
N969 Co952 1.989 . S
N969 C968 1.342 . S
N969 N970 1.388 . S
N970 Co953 1.993 . S
N970 N969 1.388 . S
N970 C971 1.346 . S
C971 N970 1.346 . S
C971 C972 1.396 . S
C971 C981 1.510 . S
C972 C968 1.401 . S
C972 C971 1.396 . S
C973 C968 1.499 . S
C973 H974 0.959 . S
C973 H975 0.960 . S
C973 H976 0.961 . S
H974 C973 0.959 . S
H975 C973 0.960 . S
H976 C973 0.961 . S
O977 Co952 1.967 . S
O977 C985 1.258 . S
O978 Co953 1.941 . S
O978 C985 1.266 . S
H979 C981 0.959 . S
H980 C981 0.961 . S
C981 C971 1.510 . S
C981 H979 0.959 . S
C981 H980 0.961 . S
C981 H982 0.960 . S
H982 C981 0.960 . S
H983 N963 0.862 . S
O984 Co952 1.920 . S
O984 C957 1.289 . S
C985 O977 1.258 . S
C985 O978 1.266 . S
Co986 O989 1.970 . S
Co986 N1003 1.989 . S
Co986 O1011 1.967 . S
Co986 O1018 1.920 . S
Co987 O990 1.966 . S
Co987 N996 2.022 . S
Co987 N1004 1.993 . S
Co987 O1012 1.941 . S
C988 O989 1.258 . S
C988 O990 1.263 . S
O989 Co986 1.970 . S
O989 C988 1.258 . S
O990 Co987 1.966 . S
O990 C988 1.263 . S
C991 O992 1.235 . S
C991 O1018 1.289 . S
O992 C991 1.235 . S
C993 C995 1.400 . S
C993 N996 1.351 . S
C993 C998 1.501 . S
C994 C995 1.387 . S
C994 N997 1.341 . S
C995 C993 1.400 . S
C995 C994 1.387 . S
N996 Co987 2.022 . S
N996 C993 1.351 . S
N996 N997 1.365 . S
N997 C994 1.341 . S
N997 N996 1.365 . S
N997 H1017 0.862 . S
C998 C993 1.501 . S
C998 H999 0.961 . S
C998 H1000 0.961 . S
C998 H1001 0.960 . S
H999 C998 0.961 . S
H1000 C998 0.961 . S
H1001 C998 0.960 . S
C1002 N1003 1.342 . S
C1002 C1006 1.401 . S
C1002 C1007 1.499 . S
N1003 Co986 1.989 . S
N1003 C1002 1.342 . S
N1003 N1004 1.388 . S
N1004 Co987 1.993 . S
N1004 N1003 1.388 . S
N1004 C1005 1.346 . S
C1005 N1004 1.346 . S
C1005 C1006 1.396 . S
C1005 C1015 1.510 . S
C1006 C1002 1.401 . S
C1006 C1005 1.396 . S
C1007 C1002 1.499 . S
C1007 H1008 0.959 . S
C1007 H1009 0.960 . S
C1007 H1010 0.961 . S
H1008 C1007 0.959 . S
H1009 C1007 0.960 . S
H1010 C1007 0.961 . S
O1011 Co986 1.967 . S
O1011 C1019 1.258 . S
O1012 Co987 1.941 . S
O1012 C1019 1.266 . S
H1013 C1015 0.959 . S
H1014 C1015 0.961 . S
C1015 C1005 1.510 . S
C1015 H1013 0.959 . S
C1015 H1014 0.961 . S
C1015 H1016 0.960 . S
H1016 C1015 0.960 . S
H1017 N997 0.862 . S
O1018 Co986 1.920 . S
O1018 C991 1.289 . S
C1019 O1011 1.258 . S
C1019 O1012 1.266 . S
Co1020 O1023 1.970 . S
Co1020 N1037 1.989 . S
Co1020 O1045 1.967 . S
Co1020 O1052 1.920 . S
Co1021 O1024 1.966 . S
Co1021 N1030 2.022 . S
Co1021 N1038 1.993 . S
Co1021 O1046 1.941 . S
C1022 O1023 1.258 . S
C1022 O1024 1.263 . S
O1023 Co1020 1.970 . S
O1023 C1022 1.258 . S
O1024 Co1021 1.966 . S
O1024 C1022 1.263 . S
C1025 O1026 1.235 . S
C1025 O1052 1.289 . S
O1026 C1025 1.235 . S
C1027 C1029 1.400 . S
C1027 N1030 1.351 . S
C1027 C1032 1.501 . S
C1028 C1029 1.387 . S
C1028 N1031 1.341 . S
C1029 C1027 1.400 . S
C1029 C1028 1.387 . S
N1030 Co1021 2.022 . S
N1030 C1027 1.351 . S
N1030 N1031 1.365 . S
N1031 C1028 1.341 . S
N1031 N1030 1.365 . S
N1031 H1051 0.862 . S
C1032 C1027 1.501 . S
C1032 H1033 0.961 . S
C1032 H1034 0.961 . S
C1032 H1035 0.960 . S
H1033 C1032 0.961 . S
H1034 C1032 0.961 . S
H1035 C1032 0.960 . S
C1036 N1037 1.342 . S
C1036 C1040 1.401 . S
C1036 C1041 1.499 . S
N1037 Co1020 1.989 . S
N1037 C1036 1.342 . S
N1037 N1038 1.388 . S
N1038 Co1021 1.993 . S
N1038 N1037 1.388 . S
N1038 C1039 1.346 . S
C1039 N1038 1.346 . S
C1039 C1040 1.396 . S
C1039 C1049 1.510 . S
C1040 C1036 1.401 . S
C1040 C1039 1.396 . S
C1041 C1036 1.499 . S
C1041 H1042 0.959 . S
C1041 H1043 0.960 . S
C1041 H1044 0.961 . S
H1042 C1041 0.959 . S
H1043 C1041 0.960 . S
H1044 C1041 0.961 . S
O1045 Co1020 1.967 . S
O1045 C1053 1.258 . S
O1046 Co1021 1.941 . S
O1046 C1053 1.266 . S
H1047 C1049 0.959 . S
H1048 C1049 0.961 . S
C1049 C1039 1.510 . S
C1049 H1047 0.959 . S
C1049 H1048 0.961 . S
C1049 H1050 0.960 . S
H1050 C1049 0.960 . S
H1051 N1031 0.862 . S
O1052 Co1020 1.920 . S
O1052 C1025 1.289 . S
C1053 O1045 1.258 . S
C1053 O1046 1.266 . S
Co1054 O1057 1.970 . S
Co1054 N1071 1.989 . S
Co1054 O1079 1.967 . S
Co1054 O1086 1.920 . S
Co1055 O1058 1.966 . S
Co1055 N1064 2.022 . S
Co1055 N1072 1.993 . S
Co1055 O1080 1.941 . S
C1056 O1057 1.258 . S
C1056 O1058 1.263 . S
O1057 Co1054 1.970 . S
O1057 C1056 1.258 . S
O1058 Co1055 1.966 . S
O1058 C1056 1.263 . S
C1059 O1060 1.235 . S
C1059 O1086 1.289 . S
O1060 C1059 1.235 . S
C1061 C1063 1.400 . S
C1061 N1064 1.351 . S
C1061 C1066 1.501 . S
C1062 C1063 1.387 . S
C1062 N1065 1.341 . S
C1063 C1061 1.400 . S
C1063 C1062 1.387 . S
N1064 Co1055 2.022 . S
N1064 C1061 1.351 . S
N1064 N1065 1.365 . S
N1065 C1062 1.341 . S
N1065 N1064 1.365 . S
N1065 H1085 0.862 . S
C1066 C1061 1.501 . S
C1066 H1067 0.961 . S
C1066 H1068 0.961 . S
C1066 H1069 0.960 . S
H1067 C1066 0.961 . S
H1068 C1066 0.961 . S
H1069 C1066 0.960 . S
C1070 N1071 1.342 . S
C1070 C1074 1.401 . S
C1070 C1075 1.499 . S
N1071 Co1054 1.989 . S
N1071 C1070 1.342 . S
N1071 N1072 1.388 . S
N1072 Co1055 1.993 . S
N1072 N1071 1.388 . S
N1072 C1073 1.346 . S
C1073 N1072 1.346 . S
C1073 C1074 1.396 . S
C1073 C1083 1.510 . S
C1074 C1070 1.401 . S
C1074 C1073 1.396 . S
C1075 C1070 1.499 . S
C1075 H1076 0.959 . S
C1075 H1077 0.960 . S
C1075 H1078 0.961 . S
H1076 C1075 0.959 . S
H1077 C1075 0.960 . S
H1078 C1075 0.961 . S
O1079 Co1054 1.967 . S
O1079 C1087 1.258 . S
O1080 Co1055 1.941 . S
O1080 C1087 1.266 . S
H1081 C1083 0.959 . S
H1082 C1083 0.961 . S
C1083 C1073 1.510 . S
C1083 H1081 0.959 . S
C1083 H1082 0.961 . S
C1083 H1084 0.960 . S
H1084 C1083 0.960 . S
H1085 N1065 0.862 . S
O1086 Co1054 1.920 . S
O1086 C1059 1.289 . S
C1087 O1079 1.258 . S
C1087 O1080 1.266 . S
Co1088 O1091 1.970 . S
Co1088 N1105 1.989 . S
Co1088 O1113 1.967 . S
Co1088 O1120 1.920 . S
Co1089 O1092 1.966 . S
Co1089 N1098 2.022 . S
Co1089 N1106 1.993 . S
Co1089 O1114 1.941 . S
C1090 O1091 1.258 . S
C1090 O1092 1.263 . S
O1091 Co1088 1.970 . S
O1091 C1090 1.258 . S
O1092 Co1089 1.966 . S
O1092 C1090 1.263 . S
C1093 O1094 1.235 . S
C1093 O1120 1.289 . S
O1094 C1093 1.235 . S
C1095 C1097 1.400 . S
C1095 N1098 1.351 . S
C1095 C1100 1.501 . S
C1096 C1097 1.387 . S
C1096 N1099 1.341 . S
C1097 C1095 1.400 . S
C1097 C1096 1.387 . S
N1098 Co1089 2.022 . S
N1098 C1095 1.351 . S
N1098 N1099 1.365 . S
N1099 C1096 1.341 . S
N1099 N1098 1.365 . S
N1099 H1119 0.862 . S
C1100 C1095 1.501 . S
C1100 H1101 0.961 . S
C1100 H1102 0.961 . S
C1100 H1103 0.960 . S
H1101 C1100 0.961 . S
H1102 C1100 0.961 . S
H1103 C1100 0.960 . S
C1104 N1105 1.342 . S
C1104 C1108 1.401 . S
C1104 C1109 1.499 . S
N1105 Co1088 1.989 . S
N1105 C1104 1.342 . S
N1105 N1106 1.388 . S
N1106 Co1089 1.993 . S
N1106 N1105 1.388 . S
N1106 C1107 1.346 . S
C1107 N1106 1.346 . S
C1107 C1108 1.396 . S
C1107 C1117 1.510 . S
C1108 C1104 1.401 . S
C1108 C1107 1.396 . S
C1109 C1104 1.499 . S
C1109 H1110 0.959 . S
C1109 H1111 0.960 . S
C1109 H1112 0.961 . S
H1110 C1109 0.959 . S
H1111 C1109 0.960 . S
H1112 C1109 0.961 . S
O1113 Co1088 1.967 . S
O1113 C1121 1.258 . S
O1114 Co1089 1.941 . S
O1114 C1121 1.266 . S
H1115 C1117 0.959 . S
H1116 C1117 0.961 . S
C1117 C1107 1.510 . S
C1117 H1115 0.959 . S
C1117 H1116 0.961 . S
C1117 H1118 0.960 . S
H1118 C1117 0.960 . S
H1119 N1099 0.862 . S
O1120 Co1088 1.920 . S
O1120 C1093 1.289 . S
C1121 O1113 1.258 . S
C1121 O1114 1.266 . S
Co1122 O1125 1.970 . S
Co1122 N1139 1.989 . S
Co1122 O1147 1.967 . S
Co1122 O1154 1.920 . S
Co1123 O1126 1.966 . S
Co1123 N1132 2.022 . S
Co1123 N1140 1.993 . S
Co1123 O1148 1.941 . S
C1124 O1125 1.258 . S
C1124 O1126 1.263 . S
O1125 Co1122 1.970 . S
O1125 C1124 1.258 . S
O1126 Co1123 1.966 . S
O1126 C1124 1.263 . S
C1127 O1128 1.235 . S
C1127 O1154 1.289 . S
O1128 C1127 1.235 . S
C1129 C1131 1.400 . S
C1129 N1132 1.351 . S
C1129 C1134 1.501 . S
C1130 C1131 1.387 . S
C1130 N1133 1.341 . S
C1131 C1129 1.400 . S
C1131 C1130 1.387 . S
N1132 Co1123 2.022 . S
N1132 C1129 1.351 . S
N1132 N1133 1.365 . S
N1133 C1130 1.341 . S
N1133 N1132 1.365 . S
N1133 H1153 0.862 . S
C1134 C1129 1.501 . S
C1134 H1135 0.961 . S
C1134 H1136 0.961 . S
C1134 H1137 0.960 . S
H1135 C1134 0.961 . S
H1136 C1134 0.961 . S
H1137 C1134 0.960 . S
C1138 N1139 1.342 . S
C1138 C1142 1.401 . S
C1138 C1143 1.499 . S
N1139 Co1122 1.989 . S
N1139 C1138 1.342 . S
N1139 N1140 1.388 . S
N1140 Co1123 1.993 . S
N1140 N1139 1.388 . S
N1140 C1141 1.346 . S
C1141 N1140 1.346 . S
C1141 C1142 1.396 . S
C1141 C1151 1.510 . S
C1142 C1138 1.401 . S
C1142 C1141 1.396 . S
C1143 C1138 1.499 . S
C1143 H1144 0.959 . S
C1143 H1145 0.960 . S
C1143 H1146 0.961 . S
H1144 C1143 0.959 . S
H1145 C1143 0.960 . S
H1146 C1143 0.961 . S
O1147 Co1122 1.967 . S
O1147 C1155 1.258 . S
O1148 Co1123 1.941 . S
O1148 C1155 1.266 . S
H1149 C1151 0.959 . S
H1150 C1151 0.961 . S
C1151 C1141 1.510 . S
C1151 H1149 0.959 . S
C1151 H1150 0.961 . S
C1151 H1152 0.960 . S
H1152 C1151 0.960 . S
H1153 N1133 0.862 . S
O1154 Co1122 1.920 . S
O1154 C1127 1.289 . S
C1155 O1147 1.258 . S
C1155 O1148 1.266 . S
Co1156 O1159 1.970 . S
Co1156 N1173 1.989 . S
Co1156 O1181 1.967 . S
Co1156 O1188 1.920 . S
Co1157 O1160 1.966 . S
Co1157 N1166 2.022 . S
Co1157 N1174 1.993 . S
Co1157 O1182 1.941 . S
C1158 O1159 1.258 . S
C1158 O1160 1.263 . S
O1159 Co1156 1.970 . S
O1159 C1158 1.258 . S
O1160 Co1157 1.966 . S
O1160 C1158 1.263 . S
C1161 O1162 1.235 . S
C1161 O1188 1.289 . S
O1162 C1161 1.235 . S
C1163 C1165 1.400 . S
C1163 N1166 1.351 . S
C1163 C1168 1.501 . S
C1164 C1165 1.387 . S
C1164 N1167 1.341 . S
C1165 C1163 1.400 . S
C1165 C1164 1.387 . S
N1166 Co1157 2.022 . S
N1166 C1163 1.351 . S
N1166 N1167 1.365 . S
N1167 C1164 1.341 . S
N1167 N1166 1.365 . S
N1167 H1187 0.862 . S
C1168 C1163 1.501 . S
C1168 H1169 0.961 . S
C1168 H1170 0.961 . S
C1168 H1171 0.960 . S
H1169 C1168 0.961 . S
H1170 C1168 0.961 . S
H1171 C1168 0.960 . S
C1172 N1173 1.342 . S
C1172 C1176 1.401 . S
C1172 C1177 1.499 . S
N1173 Co1156 1.989 . S
N1173 C1172 1.342 . S
N1173 N1174 1.388 . S
N1174 Co1157 1.993 . S
N1174 N1173 1.388 . S
N1174 C1175 1.346 . S
C1175 N1174 1.346 . S
C1175 C1176 1.396 . S
C1175 C1185 1.510 . S
C1176 C1172 1.401 . S
C1176 C1175 1.396 . S
C1177 C1172 1.499 . S
C1177 H1178 0.959 . S
C1177 H1179 0.960 . S
C1177 H1180 0.961 . S
H1178 C1177 0.959 . S
H1179 C1177 0.960 . S
H1180 C1177 0.961 . S
O1181 Co1156 1.967 . S
O1181 C1189 1.258 . S
O1182 Co1157 1.941 . S
O1182 C1189 1.266 . S
H1183 C1185 0.959 . S
H1184 C1185 0.961 . S
C1185 C1175 1.510 . S
C1185 H1183 0.959 . S
C1185 H1184 0.961 . S
C1185 H1186 0.960 . S
H1186 C1185 0.960 . S
H1187 N1167 0.862 . S
O1188 Co1156 1.920 . S
O1188 C1161 1.289 . S
C1189 O1181 1.258 . S
C1189 O1182 1.266 . S
Co1190 O1193 1.970 . S
Co1190 N1207 1.989 . S
Co1190 O1215 1.967 . S
Co1190 O1222 1.920 . S
Co1191 O1194 1.966 . S
Co1191 N1200 2.022 . S
Co1191 N1208 1.993 . S
Co1191 O1216 1.941 . S
C1192 O1193 1.258 . S
C1192 O1194 1.263 . S
O1193 Co1190 1.970 . S
O1193 C1192 1.258 . S
O1194 Co1191 1.966 . S
O1194 C1192 1.263 . S
C1195 O1196 1.235 . S
C1195 O1222 1.289 . S
O1196 C1195 1.235 . S
C1197 C1199 1.400 . S
C1197 N1200 1.351 . S
C1197 C1202 1.501 . S
C1198 C1199 1.387 . S
C1198 N1201 1.341 . S
C1199 C1197 1.400 . S
C1199 C1198 1.387 . S
N1200 Co1191 2.022 . S
N1200 C1197 1.351 . S
N1200 N1201 1.365 . S
N1201 C1198 1.341 . S
N1201 N1200 1.365 . S
N1201 H1221 0.862 . S
C1202 C1197 1.501 . S
C1202 H1203 0.961 . S
C1202 H1204 0.961 . S
C1202 H1205 0.960 . S
H1203 C1202 0.961 . S
H1204 C1202 0.961 . S
H1205 C1202 0.960 . S
C1206 N1207 1.342 . S
C1206 C1210 1.401 . S
C1206 C1211 1.499 . S
N1207 Co1190 1.989 . S
N1207 C1206 1.342 . S
N1207 N1208 1.388 . S
N1208 Co1191 1.993 . S
N1208 N1207 1.388 . S
N1208 C1209 1.346 . S
C1209 N1208 1.346 . S
C1209 C1210 1.396 . S
C1209 C1219 1.510 . S
C1210 C1206 1.401 . S
C1210 C1209 1.396 . S
C1211 C1206 1.499 . S
C1211 H1212 0.959 . S
C1211 H1213 0.960 . S
C1211 H1214 0.961 . S
H1212 C1211 0.959 . S
H1213 C1211 0.960 . S
H1214 C1211 0.961 . S
O1215 Co1190 1.967 . S
O1215 C1223 1.258 . S
O1216 Co1191 1.941 . S
O1216 C1223 1.266 . S
H1217 C1219 0.959 . S
H1218 C1219 0.961 . S
C1219 C1209 1.510 . S
C1219 H1217 0.959 . S
C1219 H1218 0.961 . S
C1219 H1220 0.960 . S
H1220 C1219 0.960 . S
H1221 N1201 0.862 . S
O1222 Co1190 1.920 . S
O1222 C1195 1.289 . S
C1223 O1215 1.258 . S
C1223 O1216 1.266 . S
Co1224 O1227 1.970 . S
Co1224 N1241 1.989 . S
Co1224 O1249 1.967 . S
Co1224 O1256 1.920 . S
Co1225 O1228 1.966 . S
Co1225 N1234 2.022 . S
Co1225 N1242 1.993 . S
Co1225 O1250 1.941 . S
C1226 O1227 1.258 . S
C1226 O1228 1.263 . S
O1227 Co1224 1.970 . S
O1227 C1226 1.258 . S
O1228 Co1225 1.966 . S
O1228 C1226 1.263 . S
C1229 O1230 1.235 . S
C1229 O1256 1.289 . S
O1230 C1229 1.235 . S
C1231 C1233 1.400 . S
C1231 N1234 1.351 . S
C1231 C1236 1.501 . S
C1232 C1233 1.387 . S
C1232 N1235 1.341 . S
C1233 C1231 1.400 . S
C1233 C1232 1.387 . S
N1234 Co1225 2.022 . S
N1234 C1231 1.351 . S
N1234 N1235 1.365 . S
N1235 C1232 1.341 . S
N1235 N1234 1.365 . S
N1235 H1255 0.862 . S
C1236 C1231 1.501 . S
C1236 H1237 0.961 . S
C1236 H1238 0.961 . S
C1236 H1239 0.960 . S
H1237 C1236 0.961 . S
H1238 C1236 0.961 . S
H1239 C1236 0.960 . S
C1240 N1241 1.342 . S
C1240 C1244 1.401 . S
C1240 C1245 1.499 . S
N1241 Co1224 1.989 . S
N1241 C1240 1.342 . S
N1241 N1242 1.388 . S
N1242 Co1225 1.993 . S
N1242 N1241 1.388 . S
N1242 C1243 1.346 . S
C1243 N1242 1.346 . S
C1243 C1244 1.396 . S
C1243 C1253 1.510 . S
C1244 C1240 1.401 . S
C1244 C1243 1.396 . S
C1245 C1240 1.499 . S
C1245 H1246 0.959 . S
C1245 H1247 0.960 . S
C1245 H1248 0.961 . S
H1246 C1245 0.959 . S
H1247 C1245 0.960 . S
H1248 C1245 0.961 . S
O1249 Co1224 1.967 . S
O1249 C1257 1.258 . S
O1250 Co1225 1.941 . S
O1250 C1257 1.266 . S
H1251 C1253 0.959 . S
H1252 C1253 0.961 . S
C1253 C1243 1.510 . S
C1253 H1251 0.959 . S
C1253 H1252 0.961 . S
C1253 H1254 0.960 . S
H1254 C1253 0.960 . S
H1255 N1235 0.862 . S
O1256 Co1224 1.920 . S
O1256 C1229 1.289 . S
C1257 O1249 1.258 . S
C1257 O1250 1.266 . S
Co1258 O1261 1.970 . S
Co1258 N1275 1.989 . S
Co1258 O1283 1.967 . S
Co1258 O1290 1.920 . S
Co1259 O1262 1.966 . S
Co1259 N1268 2.022 . S
Co1259 N1276 1.993 . S
Co1259 O1284 1.941 . S
C1260 O1261 1.258 . S
C1260 O1262 1.263 . S
O1261 Co1258 1.970 . S
O1261 C1260 1.258 . S
O1262 Co1259 1.966 . S
O1262 C1260 1.263 . S
C1263 O1264 1.235 . S
C1263 O1290 1.289 . S
O1264 C1263 1.235 . S
C1265 C1267 1.400 . S
C1265 N1268 1.351 . S
C1265 C1270 1.501 . S
C1266 C1267 1.387 . S
C1266 N1269 1.341 . S
C1267 C1265 1.400 . S
C1267 C1266 1.387 . S
N1268 Co1259 2.022 . S
N1268 C1265 1.351 . S
N1268 N1269 1.365 . S
N1269 C1266 1.341 . S
N1269 N1268 1.365 . S
N1269 H1289 0.862 . S
C1270 C1265 1.501 . S
C1270 H1271 0.961 . S
C1270 H1272 0.961 . S
C1270 H1273 0.960 . S
H1271 C1270 0.961 . S
H1272 C1270 0.961 . S
H1273 C1270 0.960 . S
C1274 N1275 1.342 . S
C1274 C1278 1.401 . S
C1274 C1279 1.499 . S
N1275 Co1258 1.989 . S
N1275 C1274 1.342 . S
N1275 N1276 1.388 . S
N1276 Co1259 1.993 . S
N1276 N1275 1.388 . S
N1276 C1277 1.346 . S
C1277 N1276 1.346 . S
C1277 C1278 1.396 . S
C1277 C1287 1.510 . S
C1278 C1274 1.401 . S
C1278 C1277 1.396 . S
C1279 C1274 1.499 . S
C1279 H1280 0.959 . S
C1279 H1281 0.960 . S
C1279 H1282 0.961 . S
H1280 C1279 0.959 . S
H1281 C1279 0.960 . S
H1282 C1279 0.961 . S
O1283 Co1258 1.967 . S
O1283 C1291 1.258 . S
O1284 Co1259 1.941 . S
O1284 C1291 1.266 . S
H1285 C1287 0.959 . S
H1286 C1287 0.961 . S
C1287 C1277 1.510 . S
C1287 H1285 0.959 . S
C1287 H1286 0.961 . S
C1287 H1288 0.960 . S
H1288 C1287 0.960 . S
H1289 N1269 0.862 . S
O1290 Co1258 1.920 . S
O1290 C1263 1.289 . S
C1291 O1283 1.258 . S
C1291 O1284 1.266 . S
Co1292 O1295 1.970 . S
Co1292 N1309 1.989 . S
Co1292 O1317 1.967 . S
Co1292 O1324 1.920 . S
Co1293 O1296 1.966 . S
Co1293 N1302 2.022 . S
Co1293 N1310 1.993 . S
Co1293 O1318 1.941 . S
C1294 O1295 1.258 . S
C1294 O1296 1.263 . S
O1295 Co1292 1.970 . S
O1295 C1294 1.258 . S
O1296 Co1293 1.966 . S
O1296 C1294 1.263 . S
C1297 O1298 1.235 . S
C1297 O1324 1.289 . S
O1298 C1297 1.235 . S
C1299 C1301 1.400 . S
C1299 N1302 1.351 . S
C1299 C1304 1.501 . S
C1300 C1301 1.387 . S
C1300 N1303 1.341 . S
C1301 C1299 1.400 . S
C1301 C1300 1.387 . S
N1302 Co1293 2.022 . S
N1302 C1299 1.351 . S
N1302 N1303 1.365 . S
N1303 C1300 1.341 . S
N1303 N1302 1.365 . S
N1303 H1323 0.862 . S
C1304 C1299 1.501 . S
C1304 H1305 0.961 . S
C1304 H1306 0.961 . S
C1304 H1307 0.960 . S
H1305 C1304 0.961 . S
H1306 C1304 0.961 . S
H1307 C1304 0.960 . S
C1308 N1309 1.342 . S
C1308 C1312 1.401 . S
C1308 C1313 1.499 . S
N1309 Co1292 1.989 . S
N1309 C1308 1.342 . S
N1309 N1310 1.388 . S
N1310 Co1293 1.993 . S
N1310 N1309 1.388 . S
N1310 C1311 1.346 . S
C1311 N1310 1.346 . S
C1311 C1312 1.396 . S
C1311 C1321 1.510 . S
C1312 C1308 1.401 . S
C1312 C1311 1.396 . S
C1313 C1308 1.499 . S
C1313 H1314 0.959 . S
C1313 H1315 0.960 . S
C1313 H1316 0.961 . S
H1314 C1313 0.959 . S
H1315 C1313 0.960 . S
H1316 C1313 0.961 . S
O1317 Co1292 1.967 . S
O1317 C1325 1.258 . S
O1318 Co1293 1.941 . S
O1318 C1325 1.266 . S
H1319 C1321 0.959 . S
H1320 C1321 0.961 . S
C1321 C1311 1.510 . S
C1321 H1319 0.959 . S
C1321 H1320 0.961 . S
C1321 H1322 0.960 . S
H1322 C1321 0.960 . S
H1323 N1303 0.862 . S
O1324 Co1292 1.920 . S
O1324 C1297 1.289 . S
C1325 O1317 1.258 . S
C1325 O1318 1.266 . S
Co1326 O1329 1.970 . S
Co1326 N1343 1.989 . S
Co1326 O1351 1.967 . S
Co1326 O1358 1.920 . S
Co1327 O1330 1.966 . S
Co1327 N1336 2.022 . S
Co1327 N1344 1.993 . S
Co1327 O1352 1.941 . S
C1328 O1329 1.258 . S
C1328 O1330 1.263 . S
O1329 Co1326 1.970 . S
O1329 C1328 1.258 . S
O1330 Co1327 1.966 . S
O1330 C1328 1.263 . S
C1331 O1332 1.235 . S
C1331 O1358 1.289 . S
O1332 C1331 1.235 . S
C1333 C1335 1.400 . S
C1333 N1336 1.351 . S
C1333 C1338 1.501 . S
C1334 C1335 1.387 . S
C1334 N1337 1.341 . S
C1335 C1333 1.400 . S
C1335 C1334 1.387 . S
N1336 Co1327 2.022 . S
N1336 C1333 1.351 . S
N1336 N1337 1.365 . S
N1337 C1334 1.341 . S
N1337 N1336 1.365 . S
N1337 H1357 0.862 . S
C1338 C1333 1.501 . S
C1338 H1339 0.961 . S
C1338 H1340 0.961 . S
C1338 H1341 0.960 . S
H1339 C1338 0.961 . S
H1340 C1338 0.961 . S
H1341 C1338 0.960 . S
C1342 N1343 1.342 . S
C1342 C1346 1.401 . S
C1342 C1347 1.499 . S
N1343 Co1326 1.989 . S
N1343 C1342 1.342 . S
N1343 N1344 1.388 . S
N1344 Co1327 1.993 . S
N1344 N1343 1.388 . S
N1344 C1345 1.346 . S
C1345 N1344 1.346 . S
C1345 C1346 1.396 . S
C1345 C1355 1.510 . S
C1346 C1342 1.401 . S
C1346 C1345 1.396 . S
C1347 C1342 1.499 . S
C1347 H1348 0.959 . S
C1347 H1349 0.960 . S
C1347 H1350 0.961 . S
H1348 C1347 0.959 . S
H1349 C1347 0.960 . S
H1350 C1347 0.961 . S
O1351 Co1326 1.967 . S
O1351 C1359 1.258 . S
O1352 Co1327 1.941 . S
O1352 C1359 1.266 . S
H1353 C1355 0.959 . S
H1354 C1355 0.961 . S
C1355 C1345 1.510 . S
C1355 H1353 0.959 . S
C1355 H1354 0.961 . S
C1355 H1356 0.960 . S
H1356 C1355 0.960 . S
H1357 N1337 0.862 . S
O1358 Co1326 1.920 . S
O1358 C1331 1.289 . S
C1359 O1351 1.258 . S
C1359 O1352 1.266 . S
Co1360 O1363 1.970 . S
Co1360 N1377 1.989 . S
Co1360 O1385 1.967 . S
Co1360 O1392 1.920 . S
Co1361 O1364 1.966 . S
Co1361 N1370 2.022 . S
Co1361 N1378 1.993 . S
Co1361 O1386 1.941 . S
C1362 O1363 1.258 . S
C1362 O1364 1.263 . S
O1363 Co1360 1.970 . S
O1363 C1362 1.258 . S
O1364 Co1361 1.966 . S
O1364 C1362 1.263 . S
C1365 O1366 1.235 . S
C1365 O1392 1.289 . S
O1366 C1365 1.235 . S
C1367 C1369 1.400 . S
C1367 N1370 1.351 . S
C1367 C1372 1.501 . S
C1368 C1369 1.387 . S
C1368 N1371 1.341 . S
C1369 C1367 1.400 . S
C1369 C1368 1.387 . S
N1370 Co1361 2.022 . S
N1370 C1367 1.351 . S
N1370 N1371 1.365 . S
N1371 C1368 1.341 . S
N1371 N1370 1.365 . S
N1371 H1391 0.862 . S
C1372 C1367 1.501 . S
C1372 H1373 0.961 . S
C1372 H1374 0.961 . S
C1372 H1375 0.960 . S
H1373 C1372 0.961 . S
H1374 C1372 0.961 . S
H1375 C1372 0.960 . S
C1376 N1377 1.342 . S
C1376 C1380 1.401 . S
C1376 C1381 1.499 . S
N1377 Co1360 1.989 . S
N1377 C1376 1.342 . S
N1377 N1378 1.388 . S
N1378 Co1361 1.993 . S
N1378 N1377 1.388 . S
N1378 C1379 1.346 . S
C1379 N1378 1.346 . S
C1379 C1380 1.396 . S
C1379 C1389 1.510 . S
C1380 C1376 1.401 . S
C1380 C1379 1.396 . S
C1381 C1376 1.499 . S
C1381 H1382 0.959 . S
C1381 H1383 0.960 . S
C1381 H1384 0.961 . S
H1382 C1381 0.959 . S
H1383 C1381 0.960 . S
H1384 C1381 0.961 . S
O1385 Co1360 1.967 . S
O1385 C1393 1.258 . S
O1386 Co1361 1.941 . S
O1386 C1393 1.266 . S
H1387 C1389 0.959 . S
H1388 C1389 0.961 . S
C1389 C1379 1.510 . S
C1389 H1387 0.959 . S
C1389 H1388 0.961 . S
C1389 H1390 0.960 . S
H1390 C1389 0.960 . S
H1391 N1371 0.862 . S
O1392 Co1360 1.920 . S
O1392 C1365 1.289 . S
C1393 O1385 1.258 . S
C1393 O1386 1.266 . S
Co1394 O1397 1.970 . S
Co1394 N1411 1.989 . S
Co1394 O1419 1.967 . S
Co1394 O1426 1.920 . S
Co1395 O1398 1.966 . S
Co1395 N1404 2.022 . S
Co1395 N1412 1.993 . S
Co1395 O1420 1.941 . S
C1396 O1397 1.258 . S
C1396 O1398 1.263 . S
O1397 Co1394 1.970 . S
O1397 C1396 1.258 . S
O1398 Co1395 1.966 . S
O1398 C1396 1.263 . S
C1399 O1400 1.235 . S
C1399 O1426 1.289 . S
O1400 C1399 1.235 . S
C1401 C1403 1.400 . S
C1401 N1404 1.351 . S
C1401 C1406 1.501 . S
C1402 C1403 1.387 . S
C1402 N1405 1.341 . S
C1403 C1401 1.400 . S
C1403 C1402 1.387 . S
N1404 Co1395 2.022 . S
N1404 C1401 1.351 . S
N1404 N1405 1.365 . S
N1405 C1402 1.341 . S
N1405 N1404 1.365 . S
N1405 H1425 0.862 . S
C1406 C1401 1.501 . S
C1406 H1407 0.961 . S
C1406 H1408 0.961 . S
C1406 H1409 0.960 . S
H1407 C1406 0.961 . S
H1408 C1406 0.961 . S
H1409 C1406 0.960 . S
C1410 N1411 1.342 . S
C1410 C1414 1.401 . S
C1410 C1415 1.499 . S
N1411 Co1394 1.989 . S
N1411 C1410 1.342 . S
N1411 N1412 1.388 . S
N1412 Co1395 1.993 . S
N1412 N1411 1.388 . S
N1412 C1413 1.346 . S
C1413 N1412 1.346 . S
C1413 C1414 1.396 . S
C1413 C1423 1.510 . S
C1414 C1410 1.401 . S
C1414 C1413 1.396 . S
C1415 C1410 1.499 . S
C1415 H1416 0.959 . S
C1415 H1417 0.960 . S
C1415 H1418 0.961 . S
H1416 C1415 0.959 . S
H1417 C1415 0.960 . S
H1418 C1415 0.961 . S
O1419 Co1394 1.967 . S
O1419 C1427 1.258 . S
O1420 Co1395 1.941 . S
O1420 C1427 1.266 . S
H1421 C1423 0.959 . S
H1422 C1423 0.961 . S
C1423 C1413 1.510 . S
C1423 H1421 0.959 . S
C1423 H1422 0.961 . S
C1423 H1424 0.960 . S
H1424 C1423 0.960 . S
H1425 N1405 0.862 . S
O1426 Co1394 1.920 . S
O1426 C1399 1.289 . S
C1427 O1419 1.258 . S
C1427 O1420 1.266 . S
Co1428 O1431 1.970 . S
Co1428 N1445 1.989 . S
Co1428 O1453 1.967 . S
Co1428 O1460 1.920 . S
Co1429 O1432 1.966 . S
Co1429 N1438 2.022 . S
Co1429 N1446 1.993 . S
Co1429 O1454 1.941 . S
C1430 O1431 1.258 . S
C1430 O1432 1.263 . S
O1431 Co1428 1.970 . S
O1431 C1430 1.258 . S
O1432 Co1429 1.966 . S
O1432 C1430 1.263 . S
C1433 O1434 1.235 . S
C1433 O1460 1.289 . S
O1434 C1433 1.235 . S
C1435 C1437 1.400 . S
C1435 N1438 1.351 . S
C1435 C1440 1.501 . S
C1436 C1437 1.387 . S
C1436 N1439 1.341 . S
C1437 C1435 1.400 . S
C1437 C1436 1.387 . S
N1438 Co1429 2.022 . S
N1438 C1435 1.351 . S
N1438 N1439 1.365 . S
N1439 C1436 1.341 . S
N1439 N1438 1.365 . S
N1439 H1459 0.862 . S
C1440 C1435 1.501 . S
C1440 H1441 0.961 . S
C1440 H1442 0.961 . S
C1440 H1443 0.960 . S
H1441 C1440 0.961 . S
H1442 C1440 0.961 . S
H1443 C1440 0.960 . S
C1444 N1445 1.342 . S
C1444 C1448 1.401 . S
C1444 C1449 1.499 . S
N1445 Co1428 1.989 . S
N1445 C1444 1.342 . S
N1445 N1446 1.388 . S
N1446 Co1429 1.993 . S
N1446 N1445 1.388 . S
N1446 C1447 1.346 . S
C1447 N1446 1.346 . S
C1447 C1448 1.396 . S
C1447 C1457 1.510 . S
C1448 C1444 1.401 . S
C1448 C1447 1.396 . S
C1449 C1444 1.499 . S
C1449 H1450 0.959 . S
C1449 H1451 0.960 . S
C1449 H1452 0.961 . S
H1450 C1449 0.959 . S
H1451 C1449 0.960 . S
H1452 C1449 0.961 . S
O1453 Co1428 1.967 . S
O1453 C1461 1.258 . S
O1454 Co1429 1.941 . S
O1454 C1461 1.266 . S
H1455 C1457 0.959 . S
H1456 C1457 0.961 . S
C1457 C1447 1.510 . S
C1457 H1455 0.959 . S
C1457 H1456 0.961 . S
C1457 H1458 0.960 . S
H1458 C1457 0.960 . S
H1459 N1439 0.862 . S
O1460 Co1428 1.920 . S
O1460 C1433 1.289 . S
C1461 O1453 1.258 . S
C1461 O1454 1.266 . S
Co1462 O1465 1.970 . S
Co1462 N1479 1.989 . S
Co1462 O1487 1.967 . S
Co1462 O1494 1.920 . S
Co1463 O1466 1.966 . S
Co1463 N1472 2.022 . S
Co1463 N1480 1.993 . S
Co1463 O1488 1.941 . S
C1464 O1465 1.258 . S
C1464 O1466 1.263 . S
O1465 Co1462 1.970 . S
O1465 C1464 1.258 . S
O1466 Co1463 1.966 . S
O1466 C1464 1.263 . S
C1467 O1468 1.235 . S
C1467 O1494 1.289 . S
O1468 C1467 1.235 . S
C1469 C1471 1.400 . S
C1469 N1472 1.351 . S
C1469 C1474 1.501 . S
C1470 C1471 1.387 . S
C1470 N1473 1.341 . S
C1471 C1469 1.400 . S
C1471 C1470 1.387 . S
N1472 Co1463 2.022 . S
N1472 C1469 1.351 . S
N1472 N1473 1.365 . S
N1473 C1470 1.341 . S
N1473 N1472 1.365 . S
N1473 H1493 0.862 . S
C1474 C1469 1.501 . S
C1474 H1475 0.961 . S
C1474 H1476 0.961 . S
C1474 H1477 0.960 . S
H1475 C1474 0.961 . S
H1476 C1474 0.961 . S
H1477 C1474 0.960 . S
C1478 N1479 1.342 . S
C1478 C1482 1.401 . S
C1478 C1483 1.499 . S
N1479 Co1462 1.989 . S
N1479 C1478 1.342 . S
N1479 N1480 1.388 . S
N1480 Co1463 1.993 . S
N1480 N1479 1.388 . S
N1480 C1481 1.346 . S
C1481 N1480 1.346 . S
C1481 C1482 1.396 . S
C1481 C1491 1.510 . S
C1482 C1478 1.401 . S
C1482 C1481 1.396 . S
C1483 C1478 1.499 . S
C1483 H1484 0.959 . S
C1483 H1485 0.960 . S
C1483 H1486 0.961 . S
H1484 C1483 0.959 . S
H1485 C1483 0.960 . S
H1486 C1483 0.961 . S
O1487 Co1462 1.967 . S
O1487 C1495 1.258 . S
O1488 Co1463 1.941 . S
O1488 C1495 1.266 . S
H1489 C1491 0.959 . S
H1490 C1491 0.961 . S
C1491 C1481 1.510 . S
C1491 H1489 0.959 . S
C1491 H1490 0.961 . S
C1491 H1492 0.960 . S
H1492 C1491 0.960 . S
H1493 N1473 0.862 . S
O1494 Co1462 1.920 . S
O1494 C1467 1.289 . S
C1495 O1487 1.258 . S
C1495 O1488 1.266 . S
Co1496 O1499 1.970 . S
Co1496 N1513 1.989 . S
Co1496 O1521 1.967 . S
Co1496 O1528 1.920 . S
Co1497 O1500 1.966 . S
Co1497 N1506 2.022 . S
Co1497 N1514 1.993 . S
Co1497 O1522 1.941 . S
C1498 O1499 1.258 . S
C1498 O1500 1.263 . S
O1499 Co1496 1.970 . S
O1499 C1498 1.258 . S
O1500 Co1497 1.966 . S
O1500 C1498 1.263 . S
C1501 O1502 1.235 . S
C1501 O1528 1.289 . S
O1502 C1501 1.235 . S
C1503 C1505 1.400 . S
C1503 N1506 1.351 . S
C1503 C1508 1.501 . S
C1504 C1505 1.387 . S
C1504 N1507 1.341 . S
C1505 C1503 1.400 . S
C1505 C1504 1.387 . S
N1506 Co1497 2.022 . S
N1506 C1503 1.351 . S
N1506 N1507 1.365 . S
N1507 C1504 1.341 . S
N1507 N1506 1.365 . S
N1507 H1527 0.862 . S
C1508 C1503 1.501 . S
C1508 H1509 0.961 . S
C1508 H1510 0.961 . S
C1508 H1511 0.960 . S
H1509 C1508 0.961 . S
H1510 C1508 0.961 . S
H1511 C1508 0.960 . S
C1512 N1513 1.342 . S
C1512 C1516 1.401 . S
C1512 C1517 1.499 . S
N1513 Co1496 1.989 . S
N1513 C1512 1.342 . S
N1513 N1514 1.388 . S
N1514 Co1497 1.993 . S
N1514 N1513 1.388 . S
N1514 C1515 1.346 . S
C1515 N1514 1.346 . S
C1515 C1516 1.396 . S
C1515 C1525 1.510 . S
C1516 C1512 1.401 . S
C1516 C1515 1.396 . S
C1517 C1512 1.499 . S
C1517 H1518 0.959 . S
C1517 H1519 0.960 . S
C1517 H1520 0.961 . S
H1518 C1517 0.959 . S
H1519 C1517 0.960 . S
H1520 C1517 0.961 . S
O1521 Co1496 1.967 . S
O1521 C1529 1.258 . S
O1522 Co1497 1.941 . S
O1522 C1529 1.266 . S
H1523 C1525 0.959 . S
H1524 C1525 0.961 . S
C1525 C1515 1.510 . S
C1525 H1523 0.959 . S
C1525 H1524 0.961 . S
C1525 H1526 0.960 . S
H1526 C1525 0.960 . S
H1527 N1507 0.862 . S
O1528 Co1496 1.920 . S
O1528 C1501 1.289 . S
C1529 O1521 1.258 . S
C1529 O1522 1.266 . S
Co1530 O1533 1.970 . S
Co1530 N1547 1.989 . S
Co1530 O1555 1.967 . S
Co1530 O1562 1.920 . S
Co1531 O1534 1.966 . S
Co1531 N1540 2.022 . S
Co1531 N1548 1.993 . S
Co1531 O1556 1.941 . S
C1532 O1533 1.258 . S
C1532 O1534 1.263 . S
O1533 Co1530 1.970 . S
O1533 C1532 1.258 . S
O1534 Co1531 1.966 . S
O1534 C1532 1.263 . S
C1535 O1536 1.235 . S
C1535 O1562 1.289 . S
O1536 C1535 1.235 . S
C1537 C1539 1.400 . S
C1537 N1540 1.351 . S
C1537 C1542 1.501 . S
C1538 C1539 1.387 . S
C1538 N1541 1.341 . S
C1539 C1537 1.400 . S
C1539 C1538 1.387 . S
N1540 Co1531 2.022 . S
N1540 C1537 1.351 . S
N1540 N1541 1.365 . S
N1541 C1538 1.341 . S
N1541 N1540 1.365 . S
N1541 H1561 0.862 . S
C1542 C1537 1.501 . S
C1542 H1543 0.961 . S
C1542 H1544 0.961 . S
C1542 H1545 0.960 . S
H1543 C1542 0.961 . S
H1544 C1542 0.961 . S
H1545 C1542 0.960 . S
C1546 N1547 1.342 . S
C1546 C1550 1.401 . S
C1546 C1551 1.499 . S
N1547 Co1530 1.989 . S
N1547 C1546 1.342 . S
N1547 N1548 1.388 . S
N1548 Co1531 1.993 . S
N1548 N1547 1.388 . S
N1548 C1549 1.346 . S
C1549 N1548 1.346 . S
C1549 C1550 1.396 . S
C1549 C1559 1.510 . S
C1550 C1546 1.401 . S
C1550 C1549 1.396 . S
C1551 C1546 1.499 . S
C1551 H1552 0.959 . S
C1551 H1553 0.960 . S
C1551 H1554 0.961 . S
H1552 C1551 0.959 . S
H1553 C1551 0.960 . S
H1554 C1551 0.961 . S
O1555 Co1530 1.967 . S
O1555 C1563 1.258 . S
O1556 Co1531 1.941 . S
O1556 C1563 1.266 . S
H1557 C1559 0.959 . S
H1558 C1559 0.961 . S
C1559 C1549 1.510 . S
C1559 H1557 0.959 . S
C1559 H1558 0.961 . S
C1559 H1560 0.960 . S
H1560 C1559 0.960 . S
H1561 N1541 0.862 . S
O1562 Co1530 1.920 . S
O1562 C1535 1.289 . S
C1563 O1555 1.258 . S
C1563 O1556 1.266 . S
Co1564 O1567 1.970 . S
Co1564 N1581 1.989 . S
Co1564 O1589 1.967 . S
Co1564 O1596 1.920 . S
Co1565 O1568 1.966 . S
Co1565 N1574 2.022 . S
Co1565 N1582 1.993 . S
Co1565 O1590 1.941 . S
C1566 O1567 1.258 . S
C1566 O1568 1.263 . S
O1567 Co1564 1.970 . S
O1567 C1566 1.258 . S
O1568 Co1565 1.966 . S
O1568 C1566 1.263 . S
C1569 O1570 1.235 . S
C1569 O1596 1.289 . S
O1570 C1569 1.235 . S
C1571 C1573 1.400 . S
C1571 N1574 1.351 . S
C1571 C1576 1.501 . S
C1572 C1573 1.387 . S
C1572 N1575 1.341 . S
C1573 C1571 1.400 . S
C1573 C1572 1.387 . S
N1574 Co1565 2.022 . S
N1574 C1571 1.351 . S
N1574 N1575 1.365 . S
N1575 C1572 1.341 . S
N1575 N1574 1.365 . S
N1575 H1595 0.862 . S
C1576 C1571 1.501 . S
C1576 H1577 0.961 . S
C1576 H1578 0.961 . S
C1576 H1579 0.960 . S
H1577 C1576 0.961 . S
H1578 C1576 0.961 . S
H1579 C1576 0.960 . S
C1580 N1581 1.342 . S
C1580 C1584 1.401 . S
C1580 C1585 1.499 . S
N1581 Co1564 1.989 . S
N1581 C1580 1.342 . S
N1581 N1582 1.388 . S
N1582 Co1565 1.993 . S
N1582 N1581 1.388 . S
N1582 C1583 1.346 . S
C1583 N1582 1.346 . S
C1583 C1584 1.396 . S
C1583 C1593 1.510 . S
C1584 C1580 1.401 . S
C1584 C1583 1.396 . S
C1585 C1580 1.499 . S
C1585 H1586 0.959 . S
C1585 H1587 0.960 . S
C1585 H1588 0.961 . S
H1586 C1585 0.959 . S
H1587 C1585 0.960 . S
H1588 C1585 0.961 . S
O1589 Co1564 1.967 . S
O1589 C1597 1.258 . S
O1590 Co1565 1.941 . S
O1590 C1597 1.266 . S
H1591 C1593 0.959 . S
H1592 C1593 0.961 . S
C1593 C1583 1.510 . S
C1593 H1591 0.959 . S
C1593 H1592 0.961 . S
C1593 H1594 0.960 . S
H1594 C1593 0.960 . S
H1595 N1575 0.862 . S
O1596 Co1564 1.920 . S
O1596 C1569 1.289 . S
C1597 O1589 1.258 . S
C1597 O1590 1.266 . S
Co1598 O1601 1.970 . S
Co1598 N1615 1.989 . S
Co1598 O1623 1.967 . S
Co1598 O1630 1.920 . S
Co1599 O1602 1.966 . S
Co1599 N1608 2.022 . S
Co1599 N1616 1.993 . S
Co1599 O1624 1.941 . S
C1600 O1601 1.258 . S
C1600 O1602 1.263 . S
O1601 Co1598 1.970 . S
O1601 C1600 1.258 . S
O1602 Co1599 1.966 . S
O1602 C1600 1.263 . S
C1603 O1604 1.235 . S
C1603 O1630 1.289 . S
O1604 C1603 1.235 . S
C1605 C1607 1.400 . S
C1605 N1608 1.351 . S
C1605 C1610 1.501 . S
C1606 C1607 1.387 . S
C1606 N1609 1.341 . S
C1607 C1605 1.400 . S
C1607 C1606 1.387 . S
N1608 Co1599 2.022 . S
N1608 C1605 1.351 . S
N1608 N1609 1.365 . S
N1609 C1606 1.341 . S
N1609 N1608 1.365 . S
N1609 H1629 0.862 . S
C1610 C1605 1.501 . S
C1610 H1611 0.961 . S
C1610 H1612 0.961 . S
C1610 H1613 0.960 . S
H1611 C1610 0.961 . S
H1612 C1610 0.961 . S
H1613 C1610 0.960 . S
C1614 N1615 1.342 . S
C1614 C1618 1.401 . S
C1614 C1619 1.499 . S
N1615 Co1598 1.989 . S
N1615 C1614 1.342 . S
N1615 N1616 1.388 . S
N1616 Co1599 1.993 . S
N1616 N1615 1.388 . S
N1616 C1617 1.346 . S
C1617 N1616 1.346 . S
C1617 C1618 1.396 . S
C1617 C1627 1.510 . S
C1618 C1614 1.401 . S
C1618 C1617 1.396 . S
C1619 C1614 1.499 . S
C1619 H1620 0.959 . S
C1619 H1621 0.960 . S
C1619 H1622 0.961 . S
H1620 C1619 0.959 . S
H1621 C1619 0.960 . S
H1622 C1619 0.961 . S
O1623 Co1598 1.967 . S
O1623 C1631 1.258 . S
O1624 Co1599 1.941 . S
O1624 C1631 1.266 . S
H1625 C1627 0.959 . S
H1626 C1627 0.961 . S
C1627 C1617 1.510 . S
C1627 H1625 0.959 . S
C1627 H1626 0.961 . S
C1627 H1628 0.960 . S
H1628 C1627 0.960 . S
H1629 N1609 0.862 . S
O1630 Co1598 1.920 . S
O1630 C1603 1.289 . S
C1631 O1623 1.258 . S
C1631 O1624 1.266 . S
C1632 C1633 1.349 . S
C1632 C1634 1.327 . S
C1632 H1657 0.950 . S
C1633 C1632 1.349 . S
C1633 C1649 1.349 . S
C1634 C1632 1.327 . S
C1634 C1653 1.429 . S
C1634 H1658 0.950 . S
C1635 C1652 1.574 . S
C1635 C1654 1.368 . S
C1635 H1659 0.949 . S
H1636 C1640 0.949 . S
C1637 C1638 1.349 . S
C1637 C1639 1.327 1_655 S
C1637 H1660 0.950 . S
C1638 C1637 1.349 . S
C1638 C1650 1.349 . S
C1639 C1637 1.327 1_455 S
C1639 C1655 1.429 . S
C1639 H1661 0.950 . S
C1640 H1636 0.949 . S
C1640 C1648 1.574 . S
C1640 C1656 1.368 . S
H1641 C1649 0.950 . S
H1642 C1647 0.950 . S
H1643 C1648 0.949 . S
H1644 C1650 0.950 . S
H1645 C1651 0.950 . S
H1646 C1652 0.949 . S
C1647 H1642 0.950 . S
C1647 C1649 1.327 . S
C1647 C1653 1.429 . S
C1648 C1640 1.574 . S
C1648 H1643 0.949 . S
C1648 C1654 1.368 . S
C1649 C1633 1.349 . S
C1649 H1641 0.950 . S
C1649 C1647 1.327 . S
C1650 C1638 1.349 . S
C1650 H1644 0.950 . S
C1650 C1651 1.327 . S
C1651 H1645 0.950 . S
C1651 C1650 1.327 . S
C1651 C1655 1.429 1_655 S
C1652 C1635 1.574 . S
C1652 H1646 0.949 . S
C1652 C1656 1.368 . S
C1653 C1634 1.429 . S
C1653 C1647 1.429 . S
C1653 C1654 1.523 . S
C1654 C1635 1.368 . S
C1654 C1648 1.368 . S
C1654 C1653 1.523 . S
C1655 C1639 1.429 . S
C1655 C1651 1.429 1_455 S
C1655 C1656 1.523 . S
C1656 C1640 1.368 . S
C1656 C1652 1.368 . S
C1656 C1655 1.523 . S
H1657 C1632 0.950 . S
H1658 C1634 0.950 . S
H1659 C1635 0.949 . S
H1660 C1637 0.950 . S
H1661 C1639 0.950 . S
C1662 C1663 1.349 . S
C1662 C1664 1.327 . S
C1662 H1687 0.950 . S
C1663 C1662 1.349 . S
C1663 C1679 1.349 . S
C1664 C1662 1.327 . S
C1664 C1683 1.429 . S
C1664 H1688 0.950 . S
C1665 C1682 1.574 . S
C1665 C1684 1.368 . S
C1665 H1689 0.949 . S
H1666 C1670 0.949 . S
C1667 C1668 1.349 . S
C1667 C1669 1.327 . S
C1667 H1690 0.950 . S
C1668 C1667 1.349 . S
C1668 C1680 1.349 . S
C1669 C1667 1.327 . S
C1669 C1685 1.429 . S
C1669 H1691 0.950 . S
C1670 H1666 0.949 . S
C1670 C1678 1.574 . S
C1670 C1686 1.368 . S
H1671 C1679 0.950 . S
H1672 C1677 0.950 . S
H1673 C1678 0.949 . S
H1674 C1680 0.950 . S
H1675 C1681 0.950 . S
H1676 C1682 0.949 . S
C1677 H1672 0.950 . S
C1677 C1679 1.327 . S
C1677 C1683 1.429 . S
C1678 C1670 1.574 . S
C1678 H1673 0.949 . S
C1678 C1684 1.368 . S
C1679 C1663 1.349 . S
C1679 H1671 0.950 . S
C1679 C1677 1.327 . S
C1680 C1668 1.349 . S
C1680 H1674 0.950 . S
C1680 C1681 1.327 . S
C1681 H1675 0.950 . S
C1681 C1680 1.327 . S
C1681 C1685 1.429 . S
C1682 C1665 1.574 . S
C1682 H1676 0.949 . S
C1682 C1686 1.368 . S
C1683 C1664 1.429 . S
C1683 C1677 1.429 . S
C1683 C1684 1.523 . S
C1684 C1665 1.368 . S
C1684 C1678 1.368 . S
C1684 C1683 1.523 . S
C1685 C1669 1.429 . S
C1685 C1681 1.429 . S
C1685 C1686 1.523 . S
C1686 C1670 1.368 . S
C1686 C1682 1.368 . S
C1686 C1685 1.523 . S
H1687 C1662 0.950 . S
H1688 C1664 0.950 . S
H1689 C1665 0.949 . S
H1690 C1667 0.950 . S
H1691 C1669 0.950 . S
C1692 C1693 1.349 . S
C1692 C1694 1.327 . S
C1692 H1717 0.950 . S
C1693 C1692 1.349 . S
C1693 C1709 1.349 . S
C1694 C1692 1.327 . S
C1694 C1713 1.429 . S
C1694 H1718 0.950 . S
C1695 C1712 1.574 . S
C1695 C1714 1.368 . S
C1695 H1719 0.949 . S
H1696 C1700 0.949 . S
C1697 C1698 1.349 . S
C1697 C1699 1.327 . S
C1697 H1720 0.950 . S
C1698 C1697 1.349 . S
C1698 C1710 1.349 . S
C1699 C1697 1.327 . S
C1699 C1715 1.429 . S
C1699 H1721 0.950 . S
C1700 H1696 0.949 . S
C1700 C1708 1.574 . S
C1700 C1716 1.368 . S
H1701 C1709 0.950 . S
H1702 C1707 0.950 . S
H1703 C1708 0.949 . S
H1704 C1710 0.950 . S
H1705 C1711 0.950 . S
H1706 C1712 0.949 . S
C1707 H1702 0.950 . S
C1707 C1709 1.327 . S
C1707 C1713 1.429 . S
C1708 C1700 1.574 . S
C1708 H1703 0.949 . S
C1708 C1714 1.368 . S
C1709 C1693 1.349 . S
C1709 H1701 0.950 . S
C1709 C1707 1.327 . S
C1710 C1698 1.349 . S
C1710 H1704 0.950 . S
C1710 C1711 1.327 . S
C1711 H1705 0.950 . S
C1711 C1710 1.327 . S
C1711 C1715 1.429 . S
C1712 C1695 1.574 . S
C1712 H1706 0.949 . S
C1712 C1716 1.368 . S
C1713 C1694 1.429 . S
C1713 C1707 1.429 . S
C1713 C1714 1.523 . S
C1714 C1695 1.368 . S
C1714 C1708 1.368 . S
C1714 C1713 1.523 . S
C1715 C1699 1.429 . S
C1715 C1711 1.429 . S
C1715 C1716 1.523 . S
C1716 C1700 1.368 . S
C1716 C1712 1.368 . S
C1716 C1715 1.523 . S
H1717 C1692 0.950 . S
H1718 C1694 0.950 . S
H1719 C1695 0.949 . S
H1720 C1697 0.950 . S
H1721 C1699 0.950 . S
C1722 C1723 1.349 . S
C1722 C1724 1.327 . S
C1722 H1747 0.950 . S
C1723 C1722 1.349 . S
C1723 C1739 1.386 . S
C1724 C1722 1.327 . S
C1724 C1743 1.429 1_554 S
C1724 H1748 0.950 . S
C1725 C1742 1.574 . S
C1725 C1744 1.368 . S
C1725 H1749 0.949 . S
H1726 C1730 0.949 . S
C1727 C1728 1.349 . S
C1727 C1729 1.327 . S
C1727 H1750 0.950 . S
C1728 C1727 1.349 . S
C1728 C1740 1.349 . S
C1729 C1727 1.327 . S
C1729 C1745 1.429 . S
C1729 H1751 0.950 . S
C1730 H1726 0.949 . S
C1730 C1738 1.574 . S
C1730 C1746 1.368 . S
H1731 C1739 0.940 1_556 S
H1732 C1737 0.950 . S
H1733 C1738 0.960 . S
H1734 C1740 0.950 . S
H1735 C1741 0.950 . S
H1736 C1742 0.949 . S
C1737 H1732 0.950 . S
C1737 C1739 1.302 1_556 S
C1737 C1743 1.429 . S
C1738 C1730 1.574 . S
C1738 H1733 0.960 . S
C1738 C1744 1.368 . S
C1739 C1723 1.386 . S
C1739 H1731 0.940 1_554 S
C1739 C1737 1.302 1_554 S
C1740 C1728 1.349 . S
C1740 H1734 0.950 . S
C1740 C1741 1.327 . S
C1741 H1735 0.950 . S
C1741 C1740 1.327 . S
C1741 C1745 1.429 . S
C1742 C1725 1.574 . S
C1742 H1736 0.949 . S
C1742 C1746 1.368 . S
C1743 C1724 1.429 1_556 S
C1743 C1737 1.429 . S
C1743 C1744 1.523 . S
C1744 C1725 1.368 . S
C1744 C1738 1.368 . S
C1744 C1743 1.523 . S
C1745 C1729 1.429 . S
C1745 C1741 1.429 . S
C1745 C1746 1.523 . S
C1746 C1730 1.368 . S
C1746 C1742 1.368 . S
C1746 C1745 1.523 . S
H1747 C1722 0.950 . S
H1748 C1724 0.950 . S
H1749 C1725 0.949 . S
H1750 C1727 0.950 . S
H1751 C1729 0.950 . S
C1752 C1753 1.349 . S
C1752 C1754 1.327 . S
C1752 H1777 0.950 . S
C1753 C1752 1.349 . S
C1753 C1769 1.349 . S
C1754 C1752 1.327 . S
C1754 C1773 1.429 . S
C1754 H1778 0.950 . S
C1755 C1772 1.574 . S
C1755 C1774 1.368 . S
C1755 H1779 0.949 . S
H1756 C1760 0.949 . S
C1757 C1758 1.349 . S
C1757 C1759 1.327 . S
C1757 H1780 0.950 . S
C1758 C1757 1.349 . S
C1758 C1770 1.349 . S
C1759 C1757 1.327 . S
C1759 C1775 1.429 1_655 S
C1759 H1781 0.950 . S
C1760 H1756 0.949 . S
C1760 C1768 1.574 . S
C1760 C1776 1.368 . S
H1761 C1769 0.950 . S
H1762 C1767 0.950 . S
H1763 C1768 0.949 . S
H1764 C1770 0.950 . S
H1765 C1771 0.950 . S
H1766 C1772 0.949 . S
C1767 H1762 0.950 . S
C1767 C1769 1.327 . S
C1767 C1773 1.429 . S
C1768 C1760 1.574 . S
C1768 H1763 0.949 . S
C1768 C1774 1.368 . S
C1769 C1753 1.349 . S
C1769 H1761 0.950 . S
C1769 C1767 1.327 . S
C1770 C1758 1.349 . S
C1770 H1764 0.950 . S
C1770 C1771 1.327 1_655 S
C1771 H1765 0.950 . S
C1771 C1770 1.327 1_455 S
C1771 C1775 1.429 . S
C1772 C1755 1.574 . S
C1772 H1766 0.949 . S
C1772 C1776 1.368 . S
C1773 C1754 1.429 . S
C1773 C1767 1.429 . S
C1773 C1774 1.523 . S
C1774 C1755 1.368 . S
C1774 C1768 1.368 . S
C1774 C1773 1.523 . S
C1775 C1759 1.429 1_455 S
C1775 C1771 1.429 . S
C1775 C1776 1.523 . S
C1776 C1760 1.368 . S
C1776 C1772 1.368 . S
C1776 C1775 1.523 . S
H1777 C1752 0.950 . S
H1778 C1754 0.950 . S
H1779 C1755 0.949 . S
H1780 C1757 0.950 . S
H1781 C1759 0.950 . S
C1782 C1783 1.349 . S
C1782 C1784 1.327 . S
C1782 H1807 0.950 . S
C1783 C1782 1.349 . S
C1783 C1799 1.349 . S
C1784 C1782 1.327 . S
C1784 C1803 1.429 . S
C1784 H1808 0.950 . S
C1785 C1802 1.574 . S
C1785 C1804 1.368 . S
C1785 H1809 0.949 . S
H1786 C1790 0.949 . S
C1787 C1788 1.349 . S
C1787 C1789 1.327 . S
C1787 H1810 0.950 . S
C1788 C1787 1.349 . S
C1788 C1800 1.349 . S
C1789 C1787 1.327 . S
C1789 C1805 1.429 . S
C1789 H1811 0.950 . S
C1790 H1786 0.949 . S
C1790 C1798 1.574 . S
C1790 C1806 1.368 . S
H1791 C1799 0.950 . S
H1792 C1797 0.950 . S
H1793 C1798 0.949 . S
H1794 C1800 0.950 . S
H1795 C1801 0.950 . S
H1796 C1802 0.949 . S
C1797 H1792 0.950 . S
C1797 C1799 1.327 . S
C1797 C1803 1.429 . S
C1798 C1790 1.574 . S
C1798 H1793 0.949 . S
C1798 C1804 1.368 . S
C1799 C1783 1.349 . S
C1799 H1791 0.950 . S
C1799 C1797 1.327 . S
C1800 C1788 1.349 . S
C1800 H1794 0.950 . S
C1800 C1801 1.327 . S
C1801 H1795 0.950 . S
C1801 C1800 1.327 . S
C1801 C1805 1.429 . S
C1802 C1785 1.574 . S
C1802 H1796 0.949 . S
C1802 C1806 1.368 . S
C1803 C1784 1.429 . S
C1803 C1797 1.429 . S
C1803 C1804 1.523 . S
C1804 C1785 1.368 . S
C1804 C1798 1.368 . S
C1804 C1803 1.523 . S
C1805 C1789 1.429 . S
C1805 C1801 1.429 . S
C1805 C1806 1.523 . S
C1806 C1790 1.368 . S
C1806 C1802 1.368 . S
C1806 C1805 1.523 . S
H1807 C1782 0.950 . S
H1808 C1784 0.950 . S
H1809 C1785 0.949 . S
H1810 C1787 0.950 . S
H1811 C1789 0.950 . S
C1812 C1813 1.349 . S
C1812 C1814 1.327 . S
C1812 H1837 0.950 . S
C1813 C1812 1.349 . S
C1813 C1829 1.349 . S
C1814 C1812 1.327 . S
C1814 C1833 1.429 . S
C1814 H1838 0.950 . S
C1815 C1832 1.574 . S
C1815 C1834 1.368 . S
C1815 H1839 0.949 . S
H1816 C1820 0.949 . S
C1817 C1818 1.349 . S
C1817 C1819 1.327 . S
C1817 H1840 0.950 . S
C1818 C1817 1.349 . S
C1818 C1830 1.349 . S
C1819 C1817 1.327 . S
C1819 C1835 1.429 . S
C1819 H1841 0.950 . S
C1820 H1816 0.949 . S
C1820 C1828 1.574 . S
C1820 C1836 1.368 . S
H1821 C1829 0.950 . S
H1822 C1827 0.950 . S
H1823 C1828 0.949 . S
H1824 C1830 0.950 . S
H1825 C1831 0.950 . S
H1826 C1832 0.949 . S
C1827 H1822 0.950 . S
C1827 C1829 1.327 . S
C1827 C1833 1.429 . S
C1828 C1820 1.574 . S
C1828 H1823 0.949 . S
C1828 C1834 1.368 . S
C1829 C1813 1.349 . S
C1829 H1821 0.950 . S
C1829 C1827 1.327 . S
C1830 C1818 1.349 . S
C1830 H1824 0.950 . S
C1830 C1831 1.327 . S
C1831 H1825 0.950 . S
C1831 C1830 1.327 . S
C1831 C1835 1.429 . S
C1832 C1815 1.574 . S
C1832 H1826 0.949 . S
C1832 C1836 1.368 . S
C1833 C1814 1.429 . S
C1833 C1827 1.429 . S
C1833 C1834 1.523 . S
C1834 C1815 1.368 . S
C1834 C1828 1.368 . S
C1834 C1833 1.523 . S
C1835 C1819 1.429 . S
C1835 C1831 1.429 . S
C1835 C1836 1.523 . S
C1836 C1820 1.368 . S
C1836 C1832 1.368 . S
C1836 C1835 1.523 . S
H1837 C1812 0.950 . S
H1838 C1814 0.950 . S
H1839 C1815 0.949 . S
H1840 C1817 0.950 . S
H1841 C1819 0.950 . S
C1842 C1843 1.349 . S
C1842 C1844 1.327 1_556 S
C1842 H1867 0.950 . S
C1843 C1842 1.349 . S
C1843 C1859 1.349 . S
C1844 C1842 1.327 1_554 S
C1844 C1863 1.429 . S
C1844 H1868 0.950 . S
C1845 C1862 1.574 . S
C1845 C1864 1.368 . S
C1845 H1869 0.949 . S
H1846 C1850 0.949 . S
C1847 C1848 1.349 . S
C1847 C1849 1.327 . S
C1847 H1870 0.950 . S
C1848 C1847 1.349 . S
C1848 C1860 1.349 . S
C1849 C1847 1.327 . S
C1849 C1865 1.429 . S
C1849 H1871 0.950 . S
C1850 H1846 0.949 . S
C1850 C1858 1.574 . S
C1850 C1866 1.368 . S
H1851 C1859 0.950 . S
H1852 C1857 0.950 . S
H1853 C1858 0.949 . S
H1854 C1860 0.950 . S
H1855 C1861 0.950 . S
H1856 C1862 0.949 . S
C1857 H1852 0.950 . S
C1857 C1859 1.327 . S
C1857 C1863 1.429 1_556 S
C1858 C1850 1.574 . S
C1858 H1853 0.949 . S
C1858 C1864 1.368 . S
C1859 C1843 1.349 . S
C1859 H1851 0.950 . S
C1859 C1857 1.327 . S
C1860 C1848 1.349 . S
C1860 H1854 0.950 . S
C1860 C1861 1.327 . S
C1861 H1855 0.950 . S
C1861 C1860 1.327 . S
C1861 C1865 1.429 . S
C1862 C1845 1.574 . S
C1862 H1856 0.949 . S
C1862 C1866 1.368 . S
C1863 C1844 1.429 . S
C1863 C1857 1.429 1_554 S
C1863 C1864 1.523 . S
C1864 C1845 1.368 . S
C1864 C1858 1.368 . S
C1864 C1863 1.523 . S
C1865 C1849 1.429 . S
C1865 C1861 1.429 . S
C1865 C1866 1.523 . S
C1866 C1850 1.368 . S
C1866 C1862 1.368 . S
C1866 C1865 1.523 . S
H1867 C1842 0.950 . S
H1868 C1844 0.950 . S
H1869 C1845 0.949 . S
H1870 C1847 0.950 . S
H1871 C1849 0.950 . S
C1872 C1873 1.349 . S
C1872 C1874 1.327 . S
C1872 H1897 0.950 . S
C1873 C1872 1.349 . S
C1873 C1889 1.349 . S
C1874 C1872 1.327 . S
C1874 C1893 1.429 . S
C1874 H1898 0.950 . S
C1875 C1892 1.574 . S
C1875 C1894 1.368 . S
C1875 H1899 0.949 . S
H1876 C1880 0.949 . S
C1877 C1878 1.349 . S
C1877 C1879 1.327 1_565 S
C1877 H1900 0.950 . S
C1878 C1877 1.349 . S
C1878 C1890 1.349 . S
C1879 C1877 1.327 1_545 S
C1879 C1895 1.429 . S
C1879 H1901 0.950 . S
C1880 H1876 0.949 . S
C1880 C1888 1.574 . S
C1880 C1896 1.368 . S
H1881 C1889 0.950 . S
H1882 C1887 0.950 . S
H1883 C1888 0.949 . S
H1884 C1890 0.950 . S
H1885 C1891 0.950 1_545 S
H1886 C1892 0.949 . S
C1887 H1882 0.950 . S
C1887 C1889 1.327 . S
C1887 C1893 1.429 . S
C1888 C1880 1.574 . S
C1888 H1883 0.949 . S
C1888 C1894 1.368 . S
C1889 C1873 1.349 . S
C1889 H1881 0.950 . S
C1889 C1887 1.327 . S
C1890 C1878 1.349 . S
C1890 H1884 0.950 . S
C1890 C1891 1.327 . S
C1891 H1885 0.950 1_565 S
C1891 C1890 1.327 . S
C1891 C1895 1.429 1_565 S
C1892 C1875 1.574 . S
C1892 H1886 0.949 . S
C1892 C1896 1.368 . S
C1893 C1874 1.429 . S
C1893 C1887 1.429 . S
C1893 C1894 1.523 . S
C1894 C1875 1.368 . S
C1894 C1888 1.368 . S
C1894 C1893 1.523 . S
C1895 C1879 1.429 . S
C1895 C1891 1.429 1_545 S
C1895 C1896 1.523 . S
C1896 C1880 1.368 . S
C1896 C1892 1.368 . S
C1896 C1895 1.523 . S
H1897 C1872 0.950 . S
H1898 C1874 0.950 . S
H1899 C1875 0.949 . S
H1900 C1877 0.950 . S
H1901 C1879 0.950 . S
C1902 C1903 1.311 1_565 S
C1902 C1904 1.352 . S
C1902 H1927 0.963 . S
C1903 C1902 1.311 1_545 S
C1903 C1919 1.349 . S
C1904 C1902 1.352 . S
C1904 C1923 1.429 . S
C1904 H1928 0.950 . S
C1905 C1922 1.574 . S
C1905 C1924 1.368 . S
C1905 H1929 0.949 1_565 S
H1906 C1910 0.949 . S
C1907 C1908 1.349 . S
C1907 C1909 1.327 . S
C1907 H1930 0.950 . S
C1908 C1907 1.349 . S
C1908 C1920 1.349 . S
C1909 C1907 1.327 . S
C1909 C1925 1.429 . S
C1909 H1931 0.950 . S
C1910 H1906 0.949 . S
C1910 C1918 1.574 . S
C1910 C1926 1.368 . S
H1911 C1919 0.950 . S
H1912 C1917 0.950 . S
H1913 C1918 0.949 . S
H1914 C1920 0.950 . S
H1915 C1921 0.950 . S
H1916 C1922 0.949 . S
C1917 H1912 0.950 . S
C1917 C1919 1.327 . S
C1917 C1923 1.429 1_545 S
C1918 C1910 1.574 . S
C1918 H1913 0.949 . S
C1918 C1924 1.368 . S
C1919 C1903 1.349 . S
C1919 H1911 0.950 . S
C1919 C1917 1.327 . S
C1920 C1908 1.349 . S
C1920 H1914 0.950 . S
C1920 C1921 1.327 . S
C1921 H1915 0.950 . S
C1921 C1920 1.327 . S
C1921 C1925 1.429 . S
C1922 C1905 1.574 . S
C1922 H1916 0.949 . S
C1922 C1926 1.368 . S
C1923 C1904 1.429 . S
C1923 C1917 1.429 1_565 S
C1923 C1924 1.523 . S
C1924 C1905 1.368 . S
C1924 C1918 1.368 . S
C1924 C1923 1.523 . S
C1925 C1909 1.429 . S
C1925 C1921 1.429 . S
C1925 C1926 1.523 . S
C1926 C1910 1.368 . S
C1926 C1922 1.368 . S
C1926 C1925 1.523 . S
H1927 C1902 0.963 . S
H1928 C1904 0.950 . S
H1929 C1905 0.949 1_545 S
H1930 C1907 0.950 . S
H1931 C1909 0.950 . S
C1932 C1933 1.365 . S
C1932 C1934 1.316 1_545 S
C1932 H1957 0.945 1_545 S
C1933 C1932 1.365 . S
C1933 C1949 1.349 . S
C1934 C1932 1.316 1_565 S
C1934 C1953 1.429 . S
C1934 H1958 0.950 . S
C1935 C1952 1.574 . S
C1935 C1954 1.368 . S
C1935 H1959 0.939 1_565 S
H1936 C1940 0.949 . S
C1937 C1938 1.349 . S
C1937 C1939 1.327 . S
C1937 H1960 0.950 . S
C1938 C1937 1.349 . S
C1938 C1950 1.349 . S
C1939 C1937 1.327 . S
C1939 C1955 1.429 . S
C1939 H1961 0.950 . S
C1940 H1936 0.949 . S
C1940 C1948 1.574 . S
C1940 C1956 1.368 . S
H1941 C1949 0.950 . S
H1942 C1947 0.950 . S
H1943 C1948 0.949 . S
H1944 C1950 0.950 . S
H1945 C1951 0.950 . S
H1946 C1952 0.949 . S
C1947 H1942 0.950 . S
C1947 C1949 1.327 . S
C1947 C1953 1.429 1_545 S
C1948 C1940 1.574 . S
C1948 H1943 0.949 . S
C1948 C1954 1.368 . S
C1949 C1933 1.349 . S
C1949 H1941 0.950 . S
C1949 C1947 1.327 . S
C1950 C1938 1.349 . S
C1950 H1944 0.950 . S
C1950 C1951 1.327 . S
C1951 H1945 0.950 . S
C1951 C1950 1.327 . S
C1951 C1955 1.429 . S
C1952 C1935 1.574 . S
C1952 H1946 0.949 . S
C1952 C1956 1.368 . S
C1953 C1934 1.429 . S
C1953 C1947 1.429 1_565 S
C1953 C1954 1.523 . S
C1954 C1935 1.368 . S
C1954 C1948 1.368 . S
C1954 C1953 1.523 . S
C1955 C1939 1.429 . S
C1955 C1951 1.429 . S
C1955 C1956 1.523 . S
C1956 C1940 1.368 . S
C1956 C1952 1.368 . S
C1956 C1955 1.523 . S
H1957 C1932 0.945 1_565 S
H1958 C1934 0.950 . S
H1959 C1935 0.939 1_545 S
H1960 C1937 0.950 . S
H1961 C1939 0.950 . S
C1962 C1963 1.349 . S
C1962 C1964 1.327 . S
C1962 H1987 0.950 . S
C1963 C1962 1.349 . S
C1963 C1979 1.349 . S
C1964 C1962 1.327 . S
C1964 C1983 1.429 . S
C1964 H1988 0.950 . S
C1965 C1982 1.574 . S
C1965 C1984 1.368 . S
C1965 H1989 0.949 . S
H1966 C1970 0.949 1_565 S
C1967 C1968 1.311 1_545 S
C1967 C1969 1.352 . S
C1967 H1990 0.964 . S
C1968 C1967 1.311 1_565 S
C1968 C1980 1.349 . S
C1969 C1967 1.352 . S
C1969 C1985 1.429 . S
C1969 H1991 0.950 . S
C1970 H1966 0.949 1_545 S
C1970 C1978 1.574 . S
C1970 C1986 1.368 . S
H1971 C1979 0.950 . S
H1972 C1977 0.950 . S
H1973 C1978 0.949 . S
H1974 C1980 0.950 . S
H1975 C1981 0.950 . S
H1976 C1982 0.949 . S
C1977 H1972 0.950 . S
C1977 C1979 1.327 . S
C1977 C1983 1.429 . S
C1978 C1970 1.574 . S
C1978 H1973 0.949 . S
C1978 C1984 1.368 . S
C1979 C1963 1.349 . S
C1979 H1971 0.950 . S
C1979 C1977 1.327 . S
C1980 C1968 1.349 . S
C1980 H1974 0.950 . S
C1980 C1981 1.327 . S
C1981 H1975 0.950 . S
C1981 C1980 1.327 . S
C1981 C1985 1.429 1_565 S
C1982 C1965 1.574 . S
C1982 H1976 0.949 . S
C1982 C1986 1.368 . S
C1983 C1964 1.429 . S
C1983 C1977 1.429 . S
C1983 C1984 1.523 . S
C1984 C1965 1.368 . S
C1984 C1978 1.368 . S
C1984 C1983 1.523 . S
C1985 C1969 1.429 . S
C1985 C1981 1.429 1_545 S
C1985 C1986 1.523 . S
C1986 C1970 1.368 . S
C1986 C1982 1.368 . S
C1986 C1985 1.523 . S
H1987 C1962 0.950 . S
H1988 C1964 0.950 . S
H1989 C1965 0.949 . S
H1990 C1967 0.964 . S
H1991 C1969 0.950 . S
C1992 C1993 1.349 . S
C1992 C1994 1.327 1_554 S
C1992 H2017 0.950 . S
C1993 C1992 1.349 . S
C1993 C2009 1.349 . S
C1994 C1992 1.327 1_556 S
C1994 C2013 1.429 . S
C1994 H2018 0.950 . S
C1995 C2012 1.574 . S
C1995 C2014 1.368 . S
C1995 H2019 0.949 . S
H1996 C2000 0.949 . S
C1997 C1998 1.349 . S
C1997 C1999 1.327 . S
C1997 H2020 0.950 . S
C1998 C1997 1.349 . S
C1998 C2010 1.349 . S
C1999 C1997 1.327 . S
C1999 C2015 1.429 . S
C1999 H2021 0.950 . S
C2000 H1996 0.949 . S
C2000 C2008 1.574 . S
C2000 C2016 1.368 . S
H2001 C2009 0.950 . S
H2002 C2007 0.959 . S
H2003 C2008 0.949 . S
H2004 C2010 0.950 . S
H2005 C2011 0.950 . S
H2006 C2012 0.949 . S
C2007 H2002 0.959 . S
C2007 C2009 1.327 . S
C2007 C2013 1.429 1_554 S
C2008 C2000 1.574 . S
C2008 H2003 0.949 . S
C2008 C2014 1.368 . S
C2009 C1993 1.349 . S
C2009 H2001 0.950 . S
C2009 C2007 1.327 . S
C2010 C1998 1.349 . S
C2010 H2004 0.950 . S
C2010 C2011 1.327 . S
C2011 H2005 0.950 . S
C2011 C2010 1.327 . S
C2011 C2015 1.429 . S
C2012 C1995 1.574 . S
C2012 H2006 0.949 . S
C2012 C2016 1.368 . S
C2013 C1994 1.429 . S
C2013 C2007 1.429 1_556 S
C2013 C2014 1.523 . S
C2014 C1995 1.368 . S
C2014 C2008 1.368 . S
C2014 C2013 1.523 . S
C2015 C1999 1.429 . S
C2015 C2011 1.429 . S
C2015 C2016 1.523 . S
C2016 C2000 1.368 . S
C2016 C2012 1.368 . S
C2016 C2015 1.523 . S
H2017 C1992 0.950 . S
H2018 C1994 0.950 . S
H2019 C1995 0.949 . S
H2020 C1997 0.950 . S
H2021 C1999 0.950 . S
C2022 C2023 1.349 . S
C2022 C2024 1.327 1_455 S
C2022 H2047 0.950 . S
C2023 C2022 1.349 . S
C2023 C2039 1.349 . S
C2024 C2022 1.327 1_655 S
C2024 C2043 1.429 . S
C2024 H2048 0.950 . S
C2025 C2042 1.574 . S
C2025 C2044 1.368 . S
C2025 H2049 0.949 . S
H2026 C2030 0.949 . S
C2027 C2028 1.349 . S
C2027 C2029 1.327 . S
C2027 H2050 0.950 . S
C2028 C2027 1.349 . S
C2028 C2040 1.349 . S
C2029 C2027 1.327 . S
C2029 C2045 1.429 . S
C2029 H2051 0.950 . S
C2030 H2026 0.949 . S
C2030 C2038 1.574 . S
C2030 C2046 1.368 . S
H2031 C2039 0.950 . S
H2032 C2037 0.950 . S
H2033 C2038 0.949 . S
H2034 C2040 0.950 . S
H2035 C2041 0.950 . S
H2036 C2042 0.949 . S
C2037 H2032 0.950 . S
C2037 C2039 1.327 . S
C2037 C2043 1.429 1_455 S
C2038 C2030 1.574 . S
C2038 H2033 0.949 . S
C2038 C2044 1.368 . S
C2039 C2023 1.349 . S
C2039 H2031 0.950 . S
C2039 C2037 1.327 . S
C2040 C2028 1.349 . S
C2040 H2034 0.950 . S
C2040 C2041 1.327 . S
C2041 H2035 0.950 . S
C2041 C2040 1.327 . S
C2041 C2045 1.429 . S
C2042 C2025 1.574 . S
C2042 H2036 0.949 . S
C2042 C2046 1.368 . S
C2043 C2024 1.429 . S
C2043 C2037 1.429 1_655 S
C2043 C2044 1.523 . S
C2044 C2025 1.368 . S
C2044 C2038 1.368 . S
C2044 C2043 1.523 . S
C2045 C2029 1.429 . S
C2045 C2041 1.429 . S
C2045 C2046 1.523 . S
C2046 C2030 1.368 . S
C2046 C2042 1.368 . S
C2046 C2045 1.523 . S
H2047 C2022 0.950 . S
H2048 C2024 0.950 . S
H2049 C2025 0.949 . S
H2050 C2027 0.950 . S
H2051 C2029 0.950 . S
C2052 C2053 1.349 . S
C2052 C2054 1.327 . S
C2052 H2077 0.950 . S
C2053 C2052 1.349 . S
C2053 C2069 1.349 . S
C2054 C2052 1.327 . S
C2054 C2073 1.429 . S
C2054 H2078 0.950 . S
C2055 C2072 1.574 . S
C2055 C2074 1.368 . S
C2055 H2079 0.949 . S
H2056 C2060 0.949 . S
C2057 C2058 1.349 . S
C2057 C2059 1.327 . S
C2057 H2080 0.950 . S
C2058 C2057 1.349 . S
C2058 C2070 1.349 . S
C2059 C2057 1.327 . S
C2059 C2075 1.429 . S
C2059 H2081 0.950 . S
C2060 H2056 0.949 . S
C2060 C2068 1.574 . S
C2060 C2076 1.368 . S
H2061 C2069 0.950 . S
H2062 C2067 0.950 . S
H2063 C2068 0.949 . S
H2064 C2070 0.950 . S
H2065 C2071 0.950 . S
H2066 C2072 0.949 . S
C2067 H2062 0.950 . S
C2067 C2069 1.327 . S
C2067 C2073 1.429 . S
C2068 C2060 1.574 . S
C2068 H2063 0.949 . S
C2068 C2074 1.368 . S
C2069 C2053 1.349 . S
C2069 H2061 0.950 . S
C2069 C2067 1.327 . S
C2070 C2058 1.349 . S
C2070 H2064 0.950 . S
C2070 C2071 1.327 . S
C2071 H2065 0.950 . S
C2071 C2070 1.327 . S
C2071 C2075 1.429 . S
C2072 C2055 1.574 . S
C2072 H2066 0.949 . S
C2072 C2076 1.368 . S
C2073 C2054 1.429 . S
C2073 C2067 1.429 . S
C2073 C2074 1.523 . S
C2074 C2055 1.368 . S
C2074 C2068 1.368 . S
C2074 C2073 1.523 . S
C2075 C2059 1.429 . S
C2075 C2071 1.429 . S
C2075 C2076 1.523 . S
C2076 C2060 1.368 . S
C2076 C2072 1.368 . S
C2076 C2075 1.523 . S
H2077 C2052 0.950 . S
H2078 C2054 0.950 . S
H2079 C2055 0.949 . S
H2080 C2057 0.950 . S
H2081 C2059 0.950 . S
C2082 C2083 1.349 . S
C2082 C2084 1.327 . S
C2082 H2107 0.950 . S
C2083 C2082 1.349 . S
C2083 C2099 1.349 . S
C2084 C2082 1.327 . S
C2084 C2103 1.429 1_455 S
C2084 H2108 0.950 . S
C2085 C2102 1.574 . S
C2085 C2104 1.368 . S
C2085 H2109 0.949 . S
H2086 C2090 0.949 . S
C2087 C2088 1.349 . S
C2087 C2089 1.327 . S
C2087 H2110 0.950 . S
C2088 C2087 1.349 . S
C2088 C2100 1.349 . S
C2089 C2087 1.327 . S
C2089 C2105 1.429 . S
C2089 H2111 0.950 . S
C2090 H2086 0.949 . S
C2090 C2098 1.574 . S
C2090 C2106 1.368 . S
H2091 C2099 0.950 . S
H2092 C2097 0.950 . S
H2093 C2098 0.949 . S
H2094 C2100 0.950 . S
H2095 C2101 0.950 . S
H2096 C2102 0.949 . S
C2097 H2092 0.950 . S
C2097 C2099 1.327 1_655 S
C2097 C2103 1.429 . S
C2098 C2090 1.574 . S
C2098 H2093 0.949 . S
C2098 C2104 1.368 . S
C2099 C2083 1.349 . S
C2099 H2091 0.950 . S
C2099 C2097 1.327 1_455 S
C2100 C2088 1.349 . S
C2100 H2094 0.950 . S
C2100 C2101 1.327 . S
C2101 H2095 0.950 . S
C2101 C2100 1.327 . S
C2101 C2105 1.429 . S
C2102 C2085 1.574 . S
C2102 H2096 0.949 . S
C2102 C2106 1.368 . S
C2103 C2084 1.429 1_655 S
C2103 C2097 1.429 . S
C2103 C2104 1.523 . S
C2104 C2085 1.368 . S
C2104 C2098 1.368 . S
C2104 C2103 1.523 . S
C2105 C2089 1.429 . S
C2105 C2101 1.429 . S
C2105 C2106 1.523 . S
C2106 C2090 1.368 . S
C2106 C2102 1.368 . S
C2106 C2105 1.523 . S
H2107 C2082 0.950 . S
H2108 C2084 0.950 . S
H2109 C2085 0.949 . S
H2110 C2087 0.950 . S
H2111 C2089 0.950 . S
C2112 C2113 1.349 . S
C2112 C2114 1.327 . S
C2112 H2137 0.950 . S
C2113 C2112 1.349 . S
C2113 C2129 1.349 . S
C2114 C2112 1.327 . S
C2114 C2133 1.429 . S
C2114 H2138 0.950 . S
C2115 C2132 1.574 . S
C2115 C2134 1.368 . S
C2115 H2139 0.949 . S
H2116 C2120 0.949 . S
C2117 C2118 1.349 . S
C2117 C2119 1.327 . S
C2117 H2140 0.950 . S
C2118 C2117 1.349 . S
C2118 C2130 1.349 . S
C2119 C2117 1.327 . S
C2119 C2135 1.429 . S
C2119 H2141 0.950 . S
C2120 H2116 0.949 . S
C2120 C2128 1.574 . S
C2120 C2136 1.368 . S
H2121 C2129 0.950 . S
H2122 C2127 0.950 . S
H2123 C2128 0.949 . S
H2124 C2130 0.950 . S
H2125 C2131 0.950 . S
H2126 C2132 0.949 . S
C2127 H2122 0.950 . S
C2127 C2129 1.327 . S
C2127 C2133 1.429 . S
C2128 C2120 1.574 . S
C2128 H2123 0.949 . S
C2128 C2134 1.368 . S
C2129 C2113 1.349 . S
C2129 H2121 0.950 . S
C2129 C2127 1.327 . S
C2130 C2118 1.349 . S
C2130 H2124 0.950 . S
C2130 C2131 1.327 . S
C2131 H2125 0.950 . S
C2131 C2130 1.327 . S
C2131 C2135 1.429 . S
C2132 C2115 1.574 . S
C2132 H2126 0.949 . S
C2132 C2136 1.368 . S
C2133 C2114 1.429 . S
C2133 C2127 1.429 . S
C2133 C2134 1.523 . S
C2134 C2115 1.368 . S
C2134 C2128 1.368 . S
C2134 C2133 1.523 . S
C2135 C2119 1.429 . S
C2135 C2131 1.429 . S
C2135 C2136 1.523 . S
C2136 C2120 1.368 . S
C2136 C2132 1.368 . S
C2136 C2135 1.523 . S
H2137 C2112 0.950 . S
H2138 C2114 0.950 . S
H2139 C2115 0.949 . S
H2140 C2117 0.950 . S
H2141 C2119 0.950 . S
C2142 C2143 1.349 . S
C2142 C2144 1.327 . S
C2142 H2167 0.950 . S
C2143 C2142 1.349 . S
C2143 C2159 1.349 . S
C2144 C2142 1.327 . S
C2144 C2163 1.429 . S
C2144 H2168 0.950 . S
C2145 C2162 1.574 . S
C2145 C2164 1.368 . S
C2145 H2169 0.949 . S
H2146 C2150 0.949 . S
C2147 C2148 1.349 . S
C2147 C2149 1.327 . S
C2147 H2170 0.950 . S
C2148 C2147 1.349 . S
C2148 C2160 1.349 . S
C2149 C2147 1.327 . S
C2149 C2165 1.429 . S
C2149 H2171 0.950 . S
C2150 H2146 0.949 . S
C2150 C2158 1.574 . S
C2150 C2166 1.368 . S
H2151 C2159 0.950 . S
H2152 C2157 0.950 . S
H2153 C2158 0.949 . S
H2154 C2160 0.950 . S
H2155 C2161 0.950 . S
H2156 C2162 0.949 . S
C2157 H2152 0.950 . S
C2157 C2159 1.327 . S
C2157 C2163 1.429 . S
C2158 C2150 1.574 . S
C2158 H2153 0.949 . S
C2158 C2164 1.368 . S
C2159 C2143 1.349 . S
C2159 H2151 0.950 . S
C2159 C2157 1.327 . S
C2160 C2148 1.349 . S
C2160 H2154 0.950 . S
C2160 C2161 1.327 . S
C2161 H2155 0.950 . S
C2161 C2160 1.327 . S
C2161 C2165 1.429 . S
C2162 C2145 1.574 . S
C2162 H2156 0.949 . S
C2162 C2166 1.368 . S
C2163 C2144 1.429 . S
C2163 C2157 1.429 . S
C2163 C2164 1.523 . S
C2164 C2145 1.368 . S
C2164 C2158 1.368 . S
C2164 C2163 1.523 . S
C2165 C2149 1.429 . S
C2165 C2161 1.429 . S
C2165 C2166 1.523 . S
C2166 C2150 1.368 . S
C2166 C2162 1.368 . S
C2166 C2165 1.523 . S
H2167 C2142 0.950 . S
H2168 C2144 0.950 . S
H2169 C2145 0.949 . S
H2170 C2147 0.950 . S
H2171 C2149 0.950 . S
C2172 C2173 1.349 . S
C2172 C2174 1.327 . S
C2172 H2197 0.950 . S
C2173 C2172 1.349 . S
C2173 C2189 1.349 . S
C2174 C2172 1.327 . S
C2174 C2193 1.429 . S
C2174 H2198 0.950 . S
C2175 C2192 1.574 . S
C2175 C2194 1.368 . S
C2175 H2199 0.949 . S
H2176 C2180 0.949 . S
C2177 C2178 1.349 . S
C2177 C2179 1.327 . S
C2177 H2200 0.950 . S
C2178 C2177 1.349 . S
C2178 C2190 1.334 1_556 S
C2179 C2177 1.327 . S
C2179 C2195 1.429 1_556 S
C2179 H2201 0.950 . S
C2180 H2176 0.949 . S
C2180 C2188 1.574 . S
C2180 C2196 1.368 . S
H2181 C2189 0.950 . S
H2182 C2187 0.950 . S
H2183 C2188 0.949 . S
H2184 C2190 0.955 . S
H2185 C2191 0.950 . S
H2186 C2192 0.949 1_556 S
C2187 H2182 0.950 . S
C2187 C2189 1.327 . S
C2187 C2193 1.429 . S
C2188 C2180 1.574 . S
C2188 H2183 0.949 . S
C2188 C2194 1.368 . S
C2189 C2173 1.349 . S
C2189 H2181 0.950 . S
C2189 C2187 1.327 . S
C2190 C2178 1.334 1_554 S
C2190 H2184 0.955 . S
C2190 C2191 1.337 . S
C2191 H2185 0.950 . S
C2191 C2190 1.337 . S
C2191 C2195 1.429 . S
C2192 C2175 1.574 . S
C2192 H2186 0.949 1_554 S
C2192 C2196 1.368 . S
C2193 C2174 1.429 . S
C2193 C2187 1.429 . S
C2193 C2194 1.523 . S
C2194 C2175 1.368 . S
C2194 C2188 1.368 . S
C2194 C2193 1.523 . S
C2195 C2179 1.429 1_554 S
C2195 C2191 1.429 . S
C2195 C2196 1.523 . S
C2196 C2180 1.368 . S
C2196 C2192 1.368 . S
C2196 C2195 1.523 . S
H2197 C2172 0.950 . S
H2198 C2174 0.950 . S
H2199 C2175 0.949 . S
H2200 C2177 0.950 . S
H2201 C2179 0.950 . S
C2202 C2203 1.349 . S
C2202 C2204 1.327 . S
C2202 H2227 0.950 . S
C2203 C2202 1.349 . S
C2203 C2219 1.349 . S
C2204 C2202 1.327 . S
C2204 C2223 1.429 . S
C2204 H2228 0.950 . S
C2205 C2222 1.574 . S
C2205 C2224 1.368 . S
C2205 H2229 0.949 . S
H2206 C2210 0.949 . S
C2207 C2208 1.349 . S
C2207 C2209 1.327 . S
C2207 H2230 0.950 . S
C2208 C2207 1.349 . S
C2208 C2220 1.349 . S
C2209 C2207 1.327 . S
C2209 C2225 1.429 . S
C2209 H2231 0.950 . S
C2210 H2206 0.949 . S
C2210 C2218 1.574 . S
C2210 C2226 1.368 . S
H2211 C2219 0.950 . S
H2212 C2217 0.950 . S
H2213 C2218 0.949 . S
H2214 C2220 0.950 . S
H2215 C2221 0.950 . S
H2216 C2222 0.949 . S
C2217 H2212 0.950 . S
C2217 C2219 1.327 . S
C2217 C2223 1.429 . S
C2218 C2210 1.574 . S
C2218 H2213 0.949 . S
C2218 C2224 1.368 . S
C2219 C2203 1.349 . S
C2219 H2211 0.950 . S
C2219 C2217 1.327 . S
C2220 C2208 1.349 . S
C2220 H2214 0.950 . S
C2220 C2221 1.327 . S
C2221 H2215 0.950 . S
C2221 C2220 1.327 . S
C2221 C2225 1.429 . S
C2222 C2205 1.574 . S
C2222 H2216 0.949 . S
C2222 C2226 1.368 . S
C2223 C2204 1.429 . S
C2223 C2217 1.429 . S
C2223 C2224 1.523 . S
C2224 C2205 1.368 . S
C2224 C2218 1.368 . S
C2224 C2223 1.523 . S
C2225 C2209 1.429 . S
C2225 C2221 1.429 . S
C2225 C2226 1.523 . S
C2226 C2210 1.368 . S
C2226 C2222 1.368 . S
C2226 C2225 1.523 . S
H2227 C2202 0.950 . S
H2228 C2204 0.950 . S
H2229 C2205 0.949 . S
H2230 C2207 0.950 . S
H2231 C2209 0.950 . S
C2232 C2233 1.349 . S
C2232 C2234 1.327 . S
C2232 H2257 0.950 . S
C2233 C2232 1.349 . S
C2233 C2249 1.349 . S
C2234 C2232 1.327 . S
C2234 C2253 1.429 . S
C2234 H2258 0.950 . S
C2235 C2252 1.574 . S
C2235 C2254 1.368 . S
C2235 H2259 0.949 . S
H2236 C2240 0.949 . S
C2237 C2238 1.349 . S
C2237 C2239 1.327 . S
C2237 H2260 0.950 . S
C2238 C2237 1.349 . S
C2238 C2250 1.349 . S
C2239 C2237 1.327 . S
C2239 C2255 1.429 . S
C2239 H2261 0.950 . S
C2240 H2236 0.949 . S
C2240 C2248 1.574 . S
C2240 C2256 1.368 . S
H2241 C2249 0.950 . S
H2242 C2247 0.950 . S
H2243 C2248 0.949 . S
H2244 C2250 0.950 . S
H2245 C2251 0.950 . S
H2246 C2252 0.949 . S
C2247 H2242 0.950 . S
C2247 C2249 1.327 . S
C2247 C2253 1.429 . S
C2248 C2240 1.574 . S
C2248 H2243 0.949 . S
C2248 C2254 1.368 . S
C2249 C2233 1.349 . S
C2249 H2241 0.950 . S
C2249 C2247 1.327 . S
C2250 C2238 1.349 . S
C2250 H2244 0.950 . S
C2250 C2251 1.327 . S
C2251 H2245 0.950 . S
C2251 C2250 1.327 . S
C2251 C2255 1.429 . S
C2252 C2235 1.574 . S
C2252 H2246 0.949 . S
C2252 C2256 1.368 . S
C2253 C2234 1.429 . S
C2253 C2247 1.429 . S
C2253 C2254 1.523 . S
C2254 C2235 1.368 . S
C2254 C2248 1.368 . S
C2254 C2253 1.523 . S
C2255 C2239 1.429 . S
C2255 C2251 1.429 . S
C2255 C2256 1.523 . S
C2256 C2240 1.368 . S
C2256 C2252 1.368 . S
C2256 C2255 1.523 . S
H2257 C2232 0.950 . S
H2258 C2234 0.950 . S
H2259 C2235 0.949 . S
H2260 C2237 0.950 . S
H2261 C2239 0.950 . S
C2262 C2263 1.349 . S
C2262 C2264 1.327 . S
C2262 H2287 0.950 . S
C2263 C2262 1.349 . S
C2263 C2279 1.349 . S
C2264 C2262 1.327 . S
C2264 C2283 1.429 . S
C2264 H2288 0.950 . S
C2265 C2282 1.574 . S
C2265 C2284 1.368 . S
C2265 H2289 0.949 . S
H2266 C2270 0.949 . S
C2267 C2268 1.349 . S
C2267 C2269 1.327 . S
C2267 H2290 0.950 . S
C2268 C2267 1.349 . S
C2268 C2280 1.349 . S
C2269 C2267 1.327 . S
C2269 C2285 1.429 . S
C2269 H2291 0.950 . S
C2270 H2266 0.949 . S
C2270 C2278 1.574 . S
C2270 C2286 1.368 . S
H2271 C2279 0.950 . S
H2272 C2277 0.950 . S
H2273 C2278 0.949 . S
H2274 C2280 0.950 . S
H2275 C2281 0.950 . S
H2276 C2282 0.949 . S
C2277 H2272 0.950 . S
C2277 C2279 1.327 . S
C2277 C2283 1.429 . S
C2278 C2270 1.574 . S
C2278 H2273 0.949 . S
C2278 C2284 1.368 . S
C2279 C2263 1.349 . S
C2279 H2271 0.950 . S
C2279 C2277 1.327 . S
C2280 C2268 1.349 . S
C2280 H2274 0.950 . S
C2280 C2281 1.327 . S
C2281 H2275 0.950 . S
C2281 C2280 1.327 . S
C2281 C2285 1.429 . S
C2282 C2265 1.574 . S
C2282 H2276 0.949 . S
C2282 C2286 1.368 . S
C2283 C2264 1.429 . S
C2283 C2277 1.429 . S
C2283 C2284 1.523 . S
C2284 C2265 1.368 . S
C2284 C2278 1.368 . S
C2284 C2283 1.523 . S
C2285 C2269 1.429 . S
C2285 C2281 1.429 . S
C2285 C2286 1.523 . S
C2286 C2270 1.368 . S
C2286 C2282 1.368 . S
C2286 C2285 1.523 . S
H2287 C2262 0.950 . S
H2288 C2264 0.950 . S
H2289 C2265 0.949 . S
H2290 C2267 0.950 . S
H2291 C2269 0.950 . S
C2292 C2293 1.349 . S
C2292 C2294 1.327 . S
C2292 H2317 0.950 . S
C2293 C2292 1.349 . S
C2293 C2309 1.349 . S
C2294 C2292 1.327 . S
C2294 C2313 1.429 . S
C2294 H2318 0.950 . S
C2295 C2312 1.574 . S
C2295 C2314 1.368 . S
C2295 H2319 0.949 . S
H2296 C2300 0.949 . S
C2297 C2298 1.349 . S
C2297 C2299 1.327 . S
C2297 H2320 0.950 . S
C2298 C2297 1.349 . S
C2298 C2310 1.349 . S
C2299 C2297 1.327 . S
C2299 C2315 1.429 . S
C2299 H2321 0.950 . S
C2300 H2296 0.949 . S
C2300 C2308 1.574 . S
C2300 C2316 1.368 . S
H2301 C2309 0.950 . S
H2302 C2307 0.950 . S
H2303 C2308 0.949 . S
H2304 C2310 0.950 . S
H2305 C2311 0.950 . S
H2306 C2312 0.949 . S
C2307 H2302 0.950 . S
C2307 C2309 1.327 . S
C2307 C2313 1.429 . S
C2308 C2300 1.574 . S
C2308 H2303 0.949 . S
C2308 C2314 1.368 . S
C2309 C2293 1.349 . S
C2309 H2301 0.950 . S
C2309 C2307 1.327 . S
C2310 C2298 1.349 . S
C2310 H2304 0.950 . S
C2310 C2311 1.327 . S
C2311 H2305 0.950 . S
C2311 C2310 1.327 . S
C2311 C2315 1.429 . S
C2312 C2295 1.574 . S
C2312 H2306 0.949 . S
C2312 C2316 1.368 . S
C2313 C2294 1.429 . S
C2313 C2307 1.429 . S
C2313 C2314 1.523 . S
C2314 C2295 1.368 . S
C2314 C2308 1.368 . S
C2314 C2313 1.523 . S
C2315 C2299 1.429 . S
C2315 C2311 1.429 . S
C2315 C2316 1.523 . S
C2316 C2300 1.368 . S
C2316 C2312 1.368 . S
C2316 C2315 1.523 . S
H2317 C2292 0.950 . S
H2318 C2294 0.950 . S
H2319 C2295 0.949 . S
H2320 C2297 0.950 . S
H2321 C2299 0.950 . S
C2322 C2323 1.349 . S
C2322 C2324 1.327 . S
C2322 H2347 0.950 . S
C2323 C2322 1.349 . S
C2323 C2339 1.349 . S
C2324 C2322 1.327 . S
C2324 C2343 1.429 . S
C2324 H2348 0.950 . S
C2325 C2342 1.574 . S
C2325 C2344 1.368 . S
C2325 H2349 0.949 . S
H2326 C2330 0.949 . S
C2327 C2328 1.349 . S
C2327 C2329 1.327 . S
C2327 H2350 0.950 . S
C2328 C2327 1.349 . S
C2328 C2340 1.349 . S
C2329 C2327 1.327 . S
C2329 C2345 1.429 . S
C2329 H2351 0.950 . S
C2330 H2326 0.949 . S
C2330 C2338 1.574 . S
C2330 C2346 1.368 . S
H2331 C2339 0.950 . S
H2332 C2337 0.950 . S
H2333 C2338 0.949 . S
H2334 C2340 0.950 . S
H2335 C2341 0.950 . S
H2336 C2342 0.949 . S
C2337 H2332 0.950 . S
C2337 C2339 1.327 . S
C2337 C2343 1.429 . S
C2338 C2330 1.574 . S
C2338 H2333 0.949 . S
C2338 C2344 1.368 . S
C2339 C2323 1.349 . S
C2339 H2331 0.950 . S
C2339 C2337 1.327 . S
C2340 C2328 1.349 . S
C2340 H2334 0.950 . S
C2340 C2341 1.327 . S
C2341 H2335 0.950 . S
C2341 C2340 1.327 . S
C2341 C2345 1.429 . S
C2342 C2325 1.574 . S
C2342 H2336 0.949 . S
C2342 C2346 1.368 . S
C2343 C2324 1.429 . S
C2343 C2337 1.429 . S
C2343 C2344 1.523 . S
C2344 C2325 1.368 . S
C2344 C2338 1.368 . S
C2344 C2343 1.523 . S
C2345 C2329 1.429 . S
C2345 C2341 1.429 . S
C2345 C2346 1.523 . S
C2346 C2330 1.368 . S
C2346 C2342 1.368 . S
C2346 C2345 1.523 . S
H2347 C2322 0.950 . S
H2348 C2324 0.950 . S
H2349 C2325 0.949 . S
H2350 C2327 0.950 . S
H2351 C2329 0.950 . S
C2352 C2353 1.349 . S
C2352 C2354 1.327 . S
C2352 H2377 0.950 . S
C2353 C2352 1.349 . S
C2353 C2369 1.349 . S
C2354 C2352 1.327 . S
C2354 C2373 1.429 . S
C2354 H2378 0.950 . S
C2355 C2372 1.574 . S
C2355 C2374 1.368 . S
C2355 H2379 0.949 . S
H2356 C2360 0.949 . S
C2357 C2358 1.349 . S
C2357 C2359 1.327 . S
C2357 H2380 0.950 . S
C2358 C2357 1.349 . S
C2358 C2370 1.349 . S
C2359 C2357 1.327 . S
C2359 C2375 1.429 . S
C2359 H2381 0.950 . S
C2360 H2356 0.949 . S
C2360 C2368 1.574 . S
C2360 C2376 1.368 . S
H2361 C2369 0.950 . S
H2362 C2367 0.950 . S
H2363 C2368 0.949 . S
H2364 C2370 0.950 . S
H2365 C2371 0.950 . S
H2366 C2372 0.949 . S
C2367 H2362 0.950 . S
C2367 C2369 1.327 . S
C2367 C2373 1.429 . S
C2368 C2360 1.574 . S
C2368 H2363 0.949 . S
C2368 C2374 1.368 . S
C2369 C2353 1.349 . S
C2369 H2361 0.950 . S
C2369 C2367 1.327 . S
C2370 C2358 1.349 . S
C2370 H2364 0.950 . S
C2370 C2371 1.327 . S
C2371 H2365 0.950 . S
C2371 C2370 1.327 . S
C2371 C2375 1.429 . S
C2372 C2355 1.574 . S
C2372 H2366 0.949 . S
C2372 C2376 1.368 . S
C2373 C2354 1.429 . S
C2373 C2367 1.429 . S
C2373 C2374 1.523 . S
C2374 C2355 1.368 . S
C2374 C2368 1.368 . S
C2374 C2373 1.523 . S
C2375 C2359 1.429 . S
C2375 C2371 1.429 . S
C2375 C2376 1.523 . S
C2376 C2360 1.368 . S
C2376 C2372 1.368 . S
C2376 C2375 1.523 . S
H2377 C2352 0.950 . S
H2378 C2354 0.950 . S
H2379 C2355 0.949 . S
H2380 C2357 0.950 . S
H2381 C2359 0.950 . S
C2382 C2383 1.349 . S
C2382 C2384 1.327 . S
C2382 H2407 0.950 . S
C2383 C2382 1.349 . S
C2383 C2399 1.349 . S
C2384 C2382 1.327 . S
C2384 C2403 1.429 . S
C2384 H2408 0.950 . S
C2385 C2402 1.574 . S
C2385 C2404 1.368 . S
C2385 H2409 0.949 . S
H2386 C2390 0.949 . S
C2387 C2388 1.349 . S
C2387 C2389 1.327 . S
C2387 H2410 0.950 . S
C2388 C2387 1.349 . S
C2388 C2400 1.349 . S
C2389 C2387 1.327 . S
C2389 C2405 1.429 . S
C2389 H2411 0.950 . S
C2390 H2386 0.949 . S
C2390 C2398 1.574 . S
C2390 C2406 1.368 . S
H2391 C2399 0.950 . S
H2392 C2397 0.950 . S
H2393 C2398 0.949 . S
H2394 C2400 0.950 . S
H2395 C2401 0.950 . S
H2396 C2402 0.949 . S
C2397 H2392 0.950 . S
C2397 C2399 1.327 . S
C2397 C2403 1.429 . S
C2398 C2390 1.574 . S
C2398 H2393 0.949 . S
C2398 C2404 1.368 1_455 S
C2399 C2383 1.349 . S
C2399 H2391 0.950 . S
C2399 C2397 1.327 . S
C2400 C2388 1.349 . S
C2400 H2394 0.950 . S
C2400 C2401 1.327 . S
C2401 H2395 0.950 . S
C2401 C2400 1.327 . S
C2401 C2405 1.429 . S
C2402 C2385 1.574 . S
C2402 H2396 0.949 . S
C2402 C2406 1.368 1_655 S
C2403 C2384 1.429 . S
C2403 C2397 1.429 . S
C2403 C2404 1.523 . S
C2404 C2385 1.368 . S
C2404 C2398 1.368 1_655 S
C2404 C2403 1.523 . S
C2405 C2389 1.429 . S
C2405 C2401 1.429 . S
C2405 C2406 1.523 . S
C2406 C2390 1.368 . S
C2406 C2402 1.368 1_455 S
C2406 C2405 1.523 . S
H2407 C2382 0.950 . S
H2408 C2384 0.950 . S
H2409 C2385 0.949 . S
H2410 C2387 0.950 . S
H2411 C2389 0.950 . S
C2412 C2413 1.349 . S
C2412 C2414 1.327 . S
C2412 H2437 0.950 . S
C2413 C2412 1.349 . S
C2413 C2429 1.349 . S
C2414 C2412 1.327 . S
C2414 C2433 1.429 . S
C2414 H2438 0.950 . S
C2415 C2432 1.574 . S
C2415 C2434 1.368 . S
C2415 H2439 0.949 . S
H2416 C2420 0.949 . S
C2417 C2418 1.349 . S
C2417 C2419 1.327 . S
C2417 H2440 0.950 . S
C2418 C2417 1.349 . S
C2418 C2430 1.349 . S
C2419 C2417 1.327 . S
C2419 C2435 1.429 . S
C2419 H2441 0.950 . S
C2420 H2416 0.949 . S
C2420 C2428 1.574 . S
C2420 C2436 1.368 . S
H2421 C2429 0.950 . S
H2422 C2427 0.950 . S
H2423 C2428 0.949 . S
H2424 C2430 0.950 . S
H2425 C2431 0.950 . S
H2426 C2432 0.949 . S
C2427 H2422 0.950 . S
C2427 C2429 1.327 . S
C2427 C2433 1.429 . S
C2428 C2420 1.574 . S
C2428 H2423 0.949 . S
C2428 C2434 1.368 . S
C2429 C2413 1.349 . S
C2429 H2421 0.950 . S
C2429 C2427 1.327 . S
C2430 C2418 1.349 . S
C2430 H2424 0.950 . S
C2430 C2431 1.327 . S
C2431 H2425 0.950 . S
C2431 C2430 1.327 . S
C2431 C2435 1.429 . S
C2432 C2415 1.574 . S
C2432 H2426 0.949 . S
C2432 C2436 1.368 . S
C2433 C2414 1.429 . S
C2433 C2427 1.429 . S
C2433 C2434 1.523 . S
C2434 C2415 1.368 . S
C2434 C2428 1.368 . S
C2434 C2433 1.523 . S
C2435 C2419 1.429 . S
C2435 C2431 1.429 . S
C2435 C2436 1.523 . S
C2436 C2420 1.368 . S
C2436 C2432 1.368 . S
C2436 C2435 1.523 . S
H2437 C2412 0.950 . S
H2438 C2414 0.950 . S
H2439 C2415 0.949 . S
H2440 C2417 0.950 . S
H2441 C2419 0.950 . S
C2442 C2443 1.349 . S
C2442 C2444 1.327 1_554 S
C2442 H2467 0.950 . S
C2443 C2442 1.349 . S
C2443 C2459 1.349 . S
C2444 C2442 1.327 1_556 S
C2444 C2463 1.429 . S
C2444 H2468 0.950 . S
C2445 C2462 1.574 . S
C2445 C2464 1.368 . S
C2445 H2469 0.949 . S
H2446 C2450 0.949 . S
C2447 C2448 1.349 . S
C2447 C2449 1.327 . S
C2447 H2470 0.950 . S
C2448 C2447 1.349 . S
C2448 C2460 1.349 . S
C2449 C2447 1.327 . S
C2449 C2465 1.429 . S
C2449 H2471 0.950 . S
C2450 H2446 0.949 . S
C2450 C2458 1.574 . S
C2450 C2466 1.368 . S
H2451 C2459 0.950 . S
H2452 C2457 0.948 . S
H2453 C2458 0.949 . S
H2454 C2460 0.950 . S
H2455 C2461 0.950 . S
H2456 C2462 0.949 . S
C2457 H2452 0.948 . S
C2457 C2459 1.333 1_556 S
C2457 C2463 1.425 . S
C2458 C2450 1.574 . S
C2458 H2453 0.949 . S
C2458 C2464 1.368 . S
C2459 C2443 1.349 . S
C2459 H2451 0.950 . S
C2459 C2457 1.333 1_554 S
C2460 C2448 1.349 . S
C2460 H2454 0.950 . S
C2460 C2461 1.327 . S
C2461 H2455 0.950 . S
C2461 C2460 1.327 . S
C2461 C2465 1.429 . S
C2462 C2445 1.574 . S
C2462 H2456 0.949 . S
C2462 C2466 1.368 . S
C2463 C2444 1.429 . S
C2463 C2457 1.425 . S
C2463 C2464 1.523 . S
C2464 C2445 1.368 . S
C2464 C2458 1.368 . S
C2464 C2463 1.523 . S
C2465 C2449 1.429 . S
C2465 C2461 1.429 . S
C2465 C2466 1.523 . S
C2466 C2450 1.368 . S
C2466 C2462 1.368 . S
C2466 C2465 1.523 . S
H2467 C2442 0.950 . S
H2468 C2444 0.950 . S
H2469 C2445 0.949 . S
H2470 C2447 0.950 . S
H2471 C2449 0.950 . S
C2472 C2473 1.349 . S
C2472 C2474 1.327 . S
C2472 H2497 0.950 . S
C2473 C2472 1.349 . S
C2473 C2489 1.349 . S
C2474 C2472 1.327 . S
C2474 C2493 1.429 . S
C2474 H2498 0.950 . S
C2475 C2492 1.574 . S
C2475 C2494 1.368 . S
C2475 H2499 0.949 . S
H2476 C2480 0.949 . S
C2477 C2478 1.349 . S
C2477 C2479 1.327 . S
C2477 H2500 0.950 . S
C2478 C2477 1.349 . S
C2478 C2490 1.349 . S
C2479 C2477 1.327 . S
C2479 C2495 1.429 . S
C2479 H2501 0.950 . S
C2480 H2476 0.949 . S
C2480 C2488 1.574 . S
C2480 C2496 1.368 . S
H2481 C2489 0.950 . S
H2482 C2487 0.950 . S
H2483 C2488 0.949 . S
H2484 C2490 0.950 . S
H2485 C2491 0.950 . S
H2486 C2492 0.949 . S
C2487 H2482 0.950 . S
C2487 C2489 1.327 . S
C2487 C2493 1.429 . S
C2488 C2480 1.574 . S
C2488 H2483 0.949 . S
C2488 C2494 1.368 . S
C2489 C2473 1.349 . S
C2489 H2481 0.950 . S
C2489 C2487 1.327 . S
C2490 C2478 1.349 . S
C2490 H2484 0.950 . S
C2490 C2491 1.327 . S
C2491 H2485 0.950 . S
C2491 C2490 1.327 . S
C2491 C2495 1.429 . S
C2492 C2475 1.574 . S
C2492 H2486 0.949 . S
C2492 C2496 1.368 . S
C2493 C2474 1.429 . S
C2493 C2487 1.429 . S
C2493 C2494 1.523 . S
C2494 C2475 1.368 . S
C2494 C2488 1.368 . S
C2494 C2493 1.523 . S
C2495 C2479 1.429 . S
C2495 C2491 1.429 . S
C2495 C2496 1.523 . S
C2496 C2480 1.368 . S
C2496 C2492 1.368 . S
C2496 C2495 1.523 . S
H2497 C2472 0.950 . S
H2498 C2474 0.950 . S
H2499 C2475 0.949 . S
H2500 C2477 0.950 . S
H2501 C2479 0.950 . S
C2502 C2503 1.349 . S
C2502 C2504 1.327 . S
C2502 H2527 0.950 . S
C2503 C2502 1.349 . S
C2503 C2519 1.349 . S
C2504 C2502 1.327 . S
C2504 C2523 1.429 . S
C2504 H2528 0.950 . S
C2505 C2522 1.574 . S
C2505 C2524 1.368 . S
C2505 H2529 0.949 . S
H2506 C2510 0.949 . S
C2507 C2508 1.349 . S
C2507 C2509 1.327 . S
C2507 H2530 0.950 . S
C2508 C2507 1.349 . S
C2508 C2520 1.349 . S
C2509 C2507 1.327 . S
C2509 C2525 1.429 . S
C2509 H2531 0.950 . S
C2510 H2506 0.949 . S
C2510 C2518 1.574 . S
C2510 C2526 1.368 . S
H2511 C2519 0.950 . S
H2512 C2517 0.950 . S
H2513 C2518 0.949 . S
H2514 C2520 0.950 . S
H2515 C2521 0.950 . S
H2516 C2522 0.949 . S
C2517 H2512 0.950 . S
C2517 C2519 1.327 . S
C2517 C2523 1.429 . S
C2518 C2510 1.574 . S
C2518 H2513 0.949 . S
C2518 C2524 1.368 . S
C2519 C2503 1.349 . S
C2519 H2511 0.950 . S
C2519 C2517 1.327 . S
C2520 C2508 1.349 . S
C2520 H2514 0.950 . S
C2520 C2521 1.327 . S
C2521 H2515 0.950 . S
C2521 C2520 1.327 . S
C2521 C2525 1.429 . S
C2522 C2505 1.574 . S
C2522 H2516 0.949 . S
C2522 C2526 1.368 . S
C2523 C2504 1.429 . S
C2523 C2517 1.429 . S
C2523 C2524 1.523 . S
C2524 C2505 1.368 . S
C2524 C2518 1.368 . S
C2524 C2523 1.523 . S
C2525 C2509 1.429 . S
C2525 C2521 1.429 . S
C2525 C2526 1.523 . S
C2526 C2510 1.368 . S
C2526 C2522 1.368 . S
C2526 C2525 1.523 . S
H2527 C2502 0.950 . S
H2528 C2504 0.950 . S
H2529 C2505 0.949 . S
H2530 C2507 0.950 . S
H2531 C2509 0.950 . S
C2532 C2533 1.349 . S
C2532 C2534 1.327 . S
C2532 H2557 0.950 . S
C2533 C2532 1.349 . S
C2533 C2549 1.349 . S
C2534 C2532 1.327 . S
C2534 C2553 1.429 . S
C2534 H2558 0.950 . S
C2535 C2552 1.574 . S
C2535 C2554 1.368 . S
C2535 H2559 0.949 . S
H2536 C2540 0.949 . S
C2537 C2538 1.349 . S
C2537 C2539 1.327 . S
C2537 H2560 0.950 . S
C2538 C2537 1.349 . S
C2538 C2550 1.349 . S
C2539 C2537 1.327 . S
C2539 C2555 1.429 . S
C2539 H2561 0.950 . S
C2540 H2536 0.949 . S
C2540 C2548 1.574 . S
C2540 C2556 1.368 . S
H2541 C2549 0.950 . S
H2542 C2547 0.950 . S
H2543 C2548 0.949 . S
H2544 C2550 0.950 . S
H2545 C2551 0.950 . S
H2546 C2552 0.949 . S
C2547 H2542 0.950 . S
C2547 C2549 1.327 . S
C2547 C2553 1.429 . S
C2548 C2540 1.574 . S
C2548 H2543 0.949 . S
C2548 C2554 1.368 . S
C2549 C2533 1.349 . S
C2549 H2541 0.950 . S
C2549 C2547 1.327 . S
C2550 C2538 1.349 . S
C2550 H2544 0.950 . S
C2550 C2551 1.327 . S
C2551 H2545 0.950 . S
C2551 C2550 1.327 . S
C2551 C2555 1.429 . S
C2552 C2535 1.574 . S
C2552 H2546 0.949 . S
C2552 C2556 1.368 . S
C2553 C2534 1.429 . S
C2553 C2547 1.429 . S
C2553 C2554 1.523 . S
C2554 C2535 1.368 . S
C2554 C2548 1.368 . S
C2554 C2553 1.523 . S
C2555 C2539 1.429 . S
C2555 C2551 1.429 . S
C2555 C2556 1.523 . S
C2556 C2540 1.368 . S
C2556 C2552 1.368 . S
C2556 C2555 1.523 . S
H2557 C2532 0.950 . S
H2558 C2534 0.950 . S
H2559 C2535 0.949 . S
H2560 C2537 0.950 . S
H2561 C2539 0.950 . S
C2562 C2563 1.349 . S
C2562 C2564 1.327 1_556 S
C2562 H2587 0.950 . S
C2563 C2562 1.349 . S
C2563 C2579 1.349 . S
C2564 C2562 1.327 1_554 S
C2564 C2583 1.429 . S
C2564 H2588 0.950 . S
C2565 C2582 1.574 . S
C2565 C2584 1.368 . S
C2565 H2589 0.949 . S
H2566 C2570 0.949 . S
C2567 C2568 1.349 . S
C2567 C2569 1.327 . S
C2567 H2590 0.950 . S
C2568 C2567 1.349 . S
C2568 C2580 1.349 . S
C2569 C2567 1.327 . S
C2569 C2585 1.429 . S
C2569 H2591 0.950 . S
C2570 H2566 0.949 . S
C2570 C2578 1.574 . S
C2570 C2586 1.368 . S
H2571 C2579 0.950 . S
H2572 C2577 0.950 . S
H2573 C2578 0.949 . S
H2574 C2580 0.950 . S
H2575 C2581 0.950 . S
H2576 C2582 0.949 . S
C2577 H2572 0.950 . S
C2577 C2579 1.327 1_554 S
C2577 C2583 1.429 . S
C2578 C2570 1.574 . S
C2578 H2573 0.949 . S
C2578 C2584 1.368 1_655 S
C2579 C2563 1.349 . S
C2579 H2571 0.950 . S
C2579 C2577 1.327 1_556 S
C2580 C2568 1.349 . S
C2580 H2574 0.950 . S
C2580 C2581 1.327 . S
C2581 H2575 0.950 . S
C2581 C2580 1.327 . S
C2581 C2585 1.429 . S
C2582 C2565 1.574 . S
C2582 H2576 0.949 . S
C2582 C2586 1.368 1_455 S
C2583 C2564 1.429 . S
C2583 C2577 1.429 . S
C2583 C2584 1.523 . S
C2584 C2565 1.368 . S
C2584 C2578 1.368 1_455 S
C2584 C2583 1.523 . S
C2585 C2569 1.429 . S
C2585 C2581 1.429 . S
C2585 C2586 1.523 . S
C2586 C2570 1.368 . S
C2586 C2582 1.368 1_655 S
C2586 C2585 1.523 . S
H2587 C2562 0.950 . S
H2588 C2564 0.950 . S
H2589 C2565 0.949 . S
H2590 C2567 0.950 . S
H2591 C2569 0.950 . S
C2592 C2593 1.349 . S
C2592 C2594 1.327 . S
C2592 H2617 0.950 . S
C2593 C2592 1.349 . S
C2593 C2609 1.349 . S
C2594 C2592 1.327 . S
C2594 C2613 1.429 . S
C2594 H2618 0.950 . S
C2595 C2612 1.574 . S
C2595 C2614 1.368 . S
C2595 H2619 0.949 . S
H2596 C2600 0.949 . S
C2597 C2598 1.349 . S
C2597 C2599 1.327 . S
C2597 H2620 0.950 . S
C2598 C2597 1.349 . S
C2598 C2610 1.349 . S
C2599 C2597 1.327 . S
C2599 C2615 1.429 . S
C2599 H2621 0.950 . S
C2600 H2596 0.949 . S
C2600 C2608 1.574 . S
C2600 C2616 1.368 . S
H2601 C2609 0.950 . S
H2602 C2607 0.950 . S
H2603 C2608 0.949 . S
H2604 C2610 0.950 . S
H2605 C2611 0.950 . S
H2606 C2612 0.949 . S
C2607 H2602 0.950 . S
C2607 C2609 1.327 . S
C2607 C2613 1.429 . S
C2608 C2600 1.574 . S
C2608 H2603 0.949 . S
C2608 C2614 1.368 . S
C2609 C2593 1.349 . S
C2609 H2601 0.950 . S
C2609 C2607 1.327 . S
C2610 C2598 1.349 . S
C2610 H2604 0.950 . S
C2610 C2611 1.327 . S
C2611 H2605 0.950 . S
C2611 C2610 1.327 . S
C2611 C2615 1.429 . S
C2612 C2595 1.574 . S
C2612 H2606 0.949 . S
C2612 C2616 1.368 . S
C2613 C2594 1.429 . S
C2613 C2607 1.429 . S
C2613 C2614 1.523 . S
C2614 C2595 1.368 . S
C2614 C2608 1.368 . S
C2614 C2613 1.523 . S
C2615 C2599 1.429 . S
C2615 C2611 1.429 . S
C2615 C2616 1.523 . S
C2616 C2600 1.368 . S
C2616 C2612 1.368 . S
C2616 C2615 1.523 . S
H2617 C2592 0.950 . S
H2618 C2594 0.950 . S
H2619 C2595 0.949 . S
H2620 C2597 0.950 . S
H2621 C2599 0.950 . S
C2622 C2623 1.349 . S
C2622 C2624 1.327 . S
C2622 H2647 0.950 . S
C2623 C2622 1.349 . S
C2623 C2639 1.349 . S
C2624 C2622 1.327 . S
C2624 C2643 1.429 . S
C2624 H2648 0.950 . S
C2625 C2642 1.574 . S
C2625 C2644 1.368 . S
C2625 H2649 0.949 . S
H2626 C2630 0.949 . S
C2627 C2628 1.349 . S
C2627 C2629 1.327 . S
C2627 H2650 0.950 . S
C2628 C2627 1.349 . S
C2628 C2640 1.349 . S
C2629 C2627 1.327 . S
C2629 C2645 1.429 1_545 S
C2629 H2651 0.950 . S
C2630 H2626 0.949 . S
C2630 C2638 1.574 . S
C2630 C2646 1.368 . S
H2631 C2639 0.950 . S
H2632 C2637 0.950 . S
H2633 C2638 0.949 . S
H2634 C2640 0.950 . S
H2635 C2641 0.950 . S
H2636 C2642 0.949 . S
C2637 H2632 0.950 . S
C2637 C2639 1.327 . S
C2637 C2643 1.429 . S
C2638 C2630 1.574 . S
C2638 H2633 0.949 . S
C2638 C2644 1.368 . S
C2639 C2623 1.349 . S
C2639 H2631 0.950 . S
C2639 C2637 1.327 . S
C2640 C2628 1.349 . S
C2640 H2634 0.950 . S
C2640 C2641 1.327 1_545 S
C2641 H2635 0.950 . S
C2641 C2640 1.327 1_565 S
C2641 C2645 1.429 . S
C2642 C2625 1.574 . S
C2642 H2636 0.949 . S
C2642 C2646 1.368 . S
C2643 C2624 1.429 . S
C2643 C2637 1.429 . S
C2643 C2644 1.523 . S
C2644 C2625 1.368 . S
C2644 C2638 1.368 . S
C2644 C2643 1.523 . S
C2645 C2629 1.429 1_565 S
C2645 C2641 1.429 . S
C2645 C2646 1.523 . S
C2646 C2630 1.368 . S
C2646 C2642 1.368 . S
C2646 C2645 1.523 . S
H2647 C2622 0.950 . S
H2648 C2624 0.950 . S
H2649 C2625 0.949 . S
H2650 C2627 0.950 . S
H2651 C2629 0.950 . S
C2652 C2653 1.349 . S
C2652 C2654 1.327 . S
C2652 H2677 0.950 . S
C2653 C2652 1.349 . S
C2653 C2669 1.349 . S
C2654 C2652 1.327 . S
C2654 C2673 1.429 . S
C2654 H2678 0.950 . S
C2655 C2672 1.574 . S
C2655 C2674 1.368 . S
C2655 H2679 0.949 . S
H2656 C2660 0.949 . S
C2657 C2658 1.349 . S
C2657 C2659 1.327 . S
C2657 H2680 0.950 . S
C2658 C2657 1.349 . S
C2658 C2670 1.349 . S
C2659 C2657 1.327 . S
C2659 C2675 1.429 . S
C2659 H2681 0.950 . S
C2660 H2656 0.949 . S
C2660 C2668 1.574 . S
C2660 C2676 1.368 . S
H2661 C2669 0.950 . S
H2662 C2667 0.950 . S
H2663 C2668 0.949 . S
H2664 C2670 0.950 . S
H2665 C2671 0.950 . S
H2666 C2672 0.949 . S
C2667 H2662 0.950 . S
C2667 C2669 1.327 . S
C2667 C2673 1.429 . S
C2668 C2660 1.574 . S
C2668 H2663 0.949 . S
C2668 C2674 1.368 . S
C2669 C2653 1.349 . S
C2669 H2661 0.950 . S
C2669 C2667 1.327 . S
C2670 C2658 1.349 . S
C2670 H2664 0.950 . S
C2670 C2671 1.327 . S
C2671 H2665 0.950 . S
C2671 C2670 1.327 . S
C2671 C2675 1.429 . S
C2672 C2655 1.574 . S
C2672 H2666 0.949 . S
C2672 C2676 1.368 . S
C2673 C2654 1.429 . S
C2673 C2667 1.429 . S
C2673 C2674 1.523 . S
C2674 C2655 1.368 . S
C2674 C2668 1.368 . S
C2674 C2673 1.523 . S
C2675 C2659 1.429 . S
C2675 C2671 1.429 . S
C2675 C2676 1.523 . S
C2676 C2660 1.368 . S
C2676 C2672 1.368 . S
C2676 C2675 1.523 . S
H2677 C2652 0.950 . S
H2678 C2654 0.950 . S
H2679 C2655 0.949 . S
H2680 C2657 0.950 . S
H2681 C2659 0.950 . S
C2682 C2683 1.349 . S
C2682 C2684 1.327 . S
C2682 H2707 0.950 . S
C2683 C2682 1.349 . S
C2683 C2699 1.349 . S
C2684 C2682 1.327 . S
C2684 C2703 1.429 . S
C2684 H2708 0.950 1_554 S
C2685 C2702 1.574 . S
C2685 C2704 1.368 . S
C2685 H2709 0.949 . S
H2686 C2690 0.949 . S
C2687 C2688 1.349 . S
C2687 C2689 1.388 . S
C2687 H2710 0.950 . S
C2688 C2687 1.349 . S
C2688 C2700 1.349 . S
C2689 C2687 1.388 . S
C2689 C2705 1.384 1_565 S
C2689 H2711 0.938 1_566 S
C2690 H2686 0.949 . S
C2690 C2698 1.574 . S
C2690 C2706 1.368 . S
H2691 C2699 0.950 . S
H2692 C2697 0.950 . S
H2693 C2698 0.949 . S
H2694 C2700 0.950 . S
H2695 C2701 0.950 . S
H2696 C2702 0.949 . S
C2697 H2692 0.950 . S
C2697 C2699 1.327 . S
C2697 C2703 1.429 . S
C2698 C2690 1.574 . S
C2698 H2693 0.949 . S
C2698 C2704 1.368 1_556 S
C2699 C2683 1.349 . S
C2699 H2691 0.950 . S
C2699 C2697 1.327 . S
C2700 C2688 1.349 . S
C2700 H2694 0.950 . S
C2700 C2701 1.327 1_565 S
C2701 H2695 0.950 . S
C2701 C2700 1.327 1_545 S
C2701 C2705 1.429 . S
C2702 C2685 1.574 . S
C2702 H2696 0.949 . S
C2702 C2706 1.368 1_554 S
C2703 C2684 1.429 . S
C2703 C2697 1.429 . S
C2703 C2704 1.523 . S
C2704 C2685 1.368 . S
C2704 C2698 1.368 1_554 S
C2704 C2703 1.523 . S
C2705 C2689 1.384 1_545 S
C2705 C2701 1.429 . S
C2705 C2706 1.523 . S
C2706 C2690 1.368 . S
C2706 C2702 1.368 1_556 S
C2706 C2705 1.523 . S
H2707 C2682 0.950 . S
H2708 C2684 0.950 1_556 S
H2709 C2685 0.949 . S
H2710 C2687 0.950 . S
H2711 C2689 0.938 1_544 S
C2712 C2713 1.349 . S
C2712 C2714 1.327 . S
C2712 H2737 0.950 . S
C2713 C2712 1.349 . S
C2713 C2729 1.349 . S
C2714 C2712 1.327 . S
C2714 C2733 1.429 . S
C2714 H2738 0.950 . S
C2715 C2732 1.574 . S
C2715 C2734 1.368 . S
C2715 H2739 0.949 . S
H2716 C2720 0.949 . S
C2717 C2718 1.349 . S
C2717 C2719 1.327 . S
C2717 H2740 0.950 . S
C2718 C2717 1.349 . S
C2718 C2730 1.349 . S
C2719 C2717 1.327 . S
C2719 C2735 1.429 . S
C2719 H2741 0.950 . S
C2720 H2716 0.949 . S
C2720 C2728 1.574 . S
C2720 C2736 1.368 . S
H2721 C2729 0.950 . S
H2722 C2727 0.950 . S
H2723 C2728 0.949 . S
H2724 C2730 0.950 . S
H2725 C2731 0.950 . S
H2726 C2732 0.949 . S
C2727 H2722 0.950 . S
C2727 C2729 1.327 . S
C2727 C2733 1.429 . S
C2728 C2720 1.574 . S
C2728 H2723 0.949 . S
C2728 C2734 1.368 . S
C2729 C2713 1.349 . S
C2729 H2721 0.950 . S
C2729 C2727 1.327 . S
C2730 C2718 1.349 . S
C2730 H2724 0.950 . S
C2730 C2731 1.327 . S
C2731 H2725 0.950 . S
C2731 C2730 1.327 . S
C2731 C2735 1.429 . S
C2732 C2715 1.574 . S
C2732 H2726 0.949 . S
C2732 C2736 1.368 . S
C2733 C2714 1.429 . S
C2733 C2727 1.429 . S
C2733 C2734 1.523 . S
C2734 C2715 1.368 . S
C2734 C2728 1.368 . S
C2734 C2733 1.523 . S
C2735 C2719 1.429 . S
C2735 C2731 1.429 . S
C2735 C2736 1.523 . S
C2736 C2720 1.368 . S
C2736 C2732 1.368 . S
C2736 C2735 1.523 . S
H2737 C2712 0.950 . S
H2738 C2714 0.950 . S
H2739 C2715 0.949 . S
H2740 C2717 0.950 . S
H2741 C2719 0.950 . S
C2742 C2743 1.349 . S
C2742 C2744 1.327 . S
C2742 H2767 0.950 . S
C2743 C2742 1.349 . S
C2743 C2759 1.349 . S
C2744 C2742 1.327 . S
C2744 C2763 1.429 1_545 S
C2744 H2768 0.950 . S
C2745 C2762 1.574 . S
C2745 C2764 1.368 . S
C2745 H2769 0.949 . S
H2746 C2750 0.949 . S
C2747 C2748 1.349 . S
C2747 C2749 1.327 . S
C2747 H2770 0.950 . S
C2748 C2747 1.349 . S
C2748 C2760 1.349 . S
C2749 C2747 1.327 . S
C2749 C2765 1.429 . S
C2749 H2771 0.950 . S
C2750 H2746 0.949 . S
C2750 C2758 1.574 . S
C2750 C2766 1.368 . S
H2751 C2759 0.950 . S
H2752 C2757 0.950 . S
H2753 C2758 0.949 . S
H2754 C2760 0.950 . S
H2755 C2761 0.950 . S
H2756 C2762 0.949 . S
C2757 H2752 0.950 . S
C2757 C2759 1.327 1_565 S
C2757 C2763 1.429 . S
C2758 C2750 1.574 . S
C2758 H2753 0.949 . S
C2758 C2764 1.368 . S
C2759 C2743 1.349 . S
C2759 H2751 0.950 . S
C2759 C2757 1.327 1_545 S
C2760 C2748 1.349 . S
C2760 H2754 0.950 . S
C2760 C2761 1.327 . S
C2761 H2755 0.950 . S
C2761 C2760 1.327 . S
C2761 C2765 1.429 . S
C2762 C2745 1.574 . S
C2762 H2756 0.949 . S
C2762 C2766 1.368 . S
C2763 C2744 1.429 1_565 S
C2763 C2757 1.429 . S
C2763 C2764 1.523 . S
C2764 C2745 1.368 . S
C2764 C2758 1.368 . S
C2764 C2763 1.523 . S
C2765 C2749 1.429 . S
C2765 C2761 1.429 . S
C2765 C2766 1.523 . S
C2766 C2750 1.368 . S
C2766 C2762 1.368 . S
C2766 C2765 1.523 . S
H2767 C2742 0.950 . S
H2768 C2744 0.950 . S
H2769 C2745 0.949 . S
H2770 C2747 0.950 . S
H2771 C2749 0.950 . S
C2772 C2773 1.349 . S
C2772 C2774 1.327 . S
C2772 H2797 0.950 . S
C2773 C2772 1.349 . S
C2773 C2789 1.349 . S
C2774 C2772 1.327 . S
C2774 C2793 1.429 . S
C2774 H2798 0.950 . S
C2775 C2792 1.574 . S
C2775 C2794 1.368 . S
C2775 H2799 0.949 . S
H2776 C2780 0.949 . S
C2777 C2778 1.349 . S
C2777 C2779 1.327 . S
C2777 H2800 0.950 . S
C2778 C2777 1.349 . S
C2778 C2790 1.349 . S
C2779 C2777 1.327 . S
C2779 C2795 1.429 . S
C2779 H2801 0.950 . S
C2780 H2776 0.949 . S
C2780 C2788 1.574 . S
C2780 C2796 1.368 . S
H2781 C2789 0.950 . S
H2782 C2787 0.950 . S
H2783 C2788 0.949 . S
H2784 C2790 0.950 . S
H2785 C2791 0.950 . S
H2786 C2792 0.949 . S
C2787 H2782 0.950 . S
C2787 C2789 1.327 . S
C2787 C2793 1.429 . S
C2788 C2780 1.574 . S
C2788 H2783 0.949 . S
C2788 C2794 1.368 . S
C2789 C2773 1.349 . S
C2789 H2781 0.950 . S
C2789 C2787 1.327 . S
C2790 C2778 1.349 . S
C2790 H2784 0.950 . S
C2790 C2791 1.327 . S
C2791 H2785 0.950 . S
C2791 C2790 1.327 . S
C2791 C2795 1.429 . S
C2792 C2775 1.574 . S
C2792 H2786 0.949 . S
C2792 C2796 1.368 . S
C2793 C2774 1.429 . S
C2793 C2787 1.429 . S
C2793 C2794 1.523 . S
C2794 C2775 1.368 . S
C2794 C2788 1.368 . S
C2794 C2793 1.523 . S
C2795 C2779 1.429 . S
C2795 C2791 1.429 . S
C2795 C2796 1.523 . S
C2796 C2780 1.368 . S
C2796 C2792 1.368 . S
C2796 C2795 1.523 . S
H2797 C2772 0.950 . S
H2798 C2774 0.950 . S
H2799 C2775 0.949 . S
H2800 C2777 0.950 . S
H2801 C2779 0.950 . S
C2802 C2803 1.349 . S
C2802 C2804 1.327 1_565 S
C2802 H2827 0.950 . S
C2803 C2802 1.349 . S
C2803 C2819 1.349 . S
C2804 C2802 1.327 1_545 S
C2804 C2823 1.429 . S
C2804 H2828 0.950 . S
C2805 C2822 1.574 . S
C2805 C2824 1.368 1_556 S
C2805 H2829 0.949 . S
H2806 C2810 0.949 . S
C2807 C2808 1.349 . S
C2807 C2809 1.327 . S
C2807 H2830 0.950 . S
C2808 C2807 1.349 . S
C2808 C2820 1.349 . S
C2809 C2807 1.327 . S
C2809 C2825 1.429 . S
C2809 H2831 0.950 . S
C2810 H2806 0.949 . S
C2810 C2818 1.574 . S
C2810 C2826 1.368 1_554 S
H2811 C2819 0.950 . S
H2812 C2817 0.950 . S
H2813 C2818 0.949 . S
H2814 C2820 0.950 . S
H2815 C2821 0.950 . S
H2816 C2822 0.949 . S
C2817 H2812 0.950 . S
C2817 C2819 1.327 1_545 S
C2817 C2823 1.429 . S
C2818 C2810 1.574 . S
C2818 H2813 0.949 . S
C2818 C2824 1.368 . S
C2819 C2803 1.349 . S
C2819 H2811 0.950 . S
C2819 C2817 1.327 1_565 S
C2820 C2808 1.349 . S
C2820 H2814 0.950 . S
C2820 C2821 1.327 . S
C2821 H2815 0.950 . S
C2821 C2820 1.327 . S
C2821 C2825 1.429 . S
C2822 C2805 1.574 . S
C2822 H2816 0.949 . S
C2822 C2826 1.368 . S
C2823 C2804 1.429 . S
C2823 C2817 1.429 . S
C2823 C2824 1.523 . S
C2824 C2805 1.368 1_554 S
C2824 C2818 1.368 . S
C2824 C2823 1.523 . S
C2825 C2809 1.429 . S
C2825 C2821 1.429 . S
C2825 C2826 1.523 . S
C2826 C2810 1.368 1_556 S
C2826 C2822 1.368 . S
C2826 C2825 1.523 . S
H2827 C2802 0.950 . S
H2828 C2804 0.950 . S
H2829 C2805 0.949 . S
H2830 C2807 0.950 . S
H2831 C2809 0.950 . S
C2832 C2833 1.349 . S
C2832 C2834 1.327 . S
C2832 H2857 0.950 . S
C2833 C2832 1.349 . S
C2833 C2849 1.349 . S
C2834 C2832 1.327 . S
C2834 C2853 1.429 . S
C2834 H2858 0.950 . S
C2835 C2852 1.574 . S
C2835 C2854 1.368 . S
C2835 H2859 0.949 . S
H2836 C2840 0.949 . S
C2837 C2838 1.349 . S
C2837 C2839 1.327 . S
C2837 H2860 0.950 . S
C2838 C2837 1.349 . S
C2838 C2850 1.349 . S
C2839 C2837 1.327 . S
C2839 C2855 1.429 . S
C2839 H2861 0.950 . S
C2840 H2836 0.949 . S
C2840 C2848 1.574 . S
C2840 C2856 1.368 . S
H2841 C2849 0.950 . S
H2842 C2847 0.950 . S
H2843 C2848 0.949 . S
H2844 C2850 0.950 . S
H2845 C2851 0.950 . S
H2846 C2852 0.949 . S
C2847 H2842 0.950 . S
C2847 C2849 1.327 . S
C2847 C2853 1.429 . S
C2848 C2840 1.574 . S
C2848 H2843 0.949 . S
C2848 C2854 1.368 . S
C2849 C2833 1.349 . S
C2849 H2841 0.950 . S
C2849 C2847 1.327 . S
C2850 C2838 1.349 . S
C2850 H2844 0.950 . S
C2850 C2851 1.327 . S
C2851 H2845 0.950 . S
C2851 C2850 1.327 . S
C2851 C2855 1.429 . S
C2852 C2835 1.574 . S
C2852 H2846 0.949 . S
C2852 C2856 1.368 . S
C2853 C2834 1.429 . S
C2853 C2847 1.429 . S
C2853 C2854 1.523 . S
C2854 C2835 1.368 . S
C2854 C2848 1.368 . S
C2854 C2853 1.523 . S
C2855 C2839 1.429 . S
C2855 C2851 1.429 . S
C2855 C2856 1.523 . S
C2856 C2840 1.368 . S
C2856 C2852 1.368 . S
C2856 C2855 1.523 . S
H2857 C2832 0.950 . S
H2858 C2834 0.950 . S
H2859 C2835 0.949 . S
H2860 C2837 0.950 . S
H2861 C2839 0.950 . S
C2862 C2863 1.349 . S
C2862 C2864 1.327 . S
C2862 H2887 0.950 . S
C2863 C2862 1.349 . S
C2863 C2879 1.349 . S
C2864 C2862 1.327 . S
C2864 C2883 1.429 . S
C2864 H2888 0.950 . S
C2865 C2882 1.574 . S
C2865 C2884 1.368 . S
C2865 H2889 0.949 . S
H2866 C2870 0.949 . S
C2867 C2868 1.349 . S
C2867 C2869 1.327 . S
C2867 H2890 0.950 . S
C2868 C2867 1.349 . S
C2868 C2880 1.349 . S
C2869 C2867 1.327 . S
C2869 C2885 1.429 . S
C2869 H2891 0.950 . S
C2870 H2866 0.949 . S
C2870 C2878 1.574 . S
C2870 C2886 1.368 . S
H2871 C2879 0.950 . S
H2872 C2877 0.950 . S
H2873 C2878 0.949 . S
H2874 C2880 0.950 . S
H2875 C2881 0.950 . S
H2876 C2882 0.949 . S
C2877 H2872 0.950 . S
C2877 C2879 1.327 . S
C2877 C2883 1.429 . S
C2878 C2870 1.574 . S
C2878 H2873 0.949 . S
C2878 C2884 1.368 . S
C2879 C2863 1.349 . S
C2879 H2871 0.950 . S
C2879 C2877 1.327 . S
C2880 C2868 1.349 . S
C2880 H2874 0.950 . S
C2880 C2881 1.327 . S
C2881 H2875 0.950 . S
C2881 C2880 1.327 . S
C2881 C2885 1.429 . S
C2882 C2865 1.574 . S
C2882 H2876 0.949 . S
C2882 C2886 1.368 . S
C2883 C2864 1.429 . S
C2883 C2877 1.429 . S
C2883 C2884 1.523 . S
C2884 C2865 1.368 . S
C2884 C2878 1.368 . S
C2884 C2883 1.523 . S
C2885 C2869 1.429 . S
C2885 C2881 1.429 . S
C2885 C2886 1.523 . S
C2886 C2870 1.368 . S
C2886 C2882 1.368 . S
C2886 C2885 1.523 . S
H2887 C2862 0.950 . S
H2888 C2864 0.950 . S
H2889 C2865 0.949 . S
H2890 C2867 0.950 . S
H2891 C2869 0.950 . S
C2892 C2893 1.349 . S
C2892 C2894 1.327 1_455 S
C2892 H2917 0.950 . S
C2893 C2892 1.349 . S
C2893 C2909 1.349 . S
C2894 C2892 1.327 1_655 S
C2894 C2913 1.429 . S
C2894 H2918 0.950 . S
C2895 C2912 1.574 . S
C2895 C2914 1.368 . S
C2895 H2919 0.949 . S
H2896 C2900 0.949 . S
C2897 C2898 1.349 . S
C2897 C2899 1.327 . S
C2897 H2920 0.950 . S
C2898 C2897 1.349 . S
C2898 C2910 1.349 . S
C2899 C2897 1.327 . S
C2899 C2915 1.429 . S
C2899 H2921 0.950 . S
C2900 H2896 0.949 . S
C2900 C2908 1.574 . S
C2900 C2916 1.368 . S
H2901 C2909 0.950 . S
H2902 C2907 0.950 . S
H2903 C2908 0.949 . S
H2904 C2910 0.950 . S
H2905 C2911 0.950 . S
H2906 C2912 0.949 . S
C2907 H2902 0.950 . S
C2907 C2909 1.327 . S
C2907 C2913 1.429 1_455 S
C2908 C2900 1.574 . S
C2908 H2903 0.949 . S
C2908 C2914 1.368 . S
C2909 C2893 1.349 . S
C2909 H2901 0.950 . S
C2909 C2907 1.327 . S
C2910 C2898 1.349 . S
C2910 H2904 0.950 . S
C2910 C2911 1.327 . S
C2911 H2905 0.950 . S
C2911 C2910 1.327 . S
C2911 C2915 1.429 . S
C2912 C2895 1.574 . S
C2912 H2906 0.949 . S
C2912 C2916 1.368 . S
C2913 C2894 1.429 . S
C2913 C2907 1.429 1_655 S
C2913 C2914 1.523 . S
C2914 C2895 1.368 . S
C2914 C2908 1.368 . S
C2914 C2913 1.523 . S
C2915 C2899 1.429 . S
C2915 C2911 1.429 . S
C2915 C2916 1.523 . S
C2916 C2900 1.368 . S
C2916 C2912 1.368 . S
C2916 C2915 1.523 . S
H2917 C2892 0.950 . S
H2918 C2894 0.950 . S
H2919 C2895 0.949 . S
H2920 C2897 0.950 . S
H2921 C2899 0.950 . S
C2922 C2923 1.349 . S
C2922 C2924 1.327 . S
C2922 H2947 0.950 . S
C2923 C2922 1.349 . S
C2923 C2939 1.349 . S
C2924 C2922 1.327 . S
C2924 C2943 1.429 . S
C2924 H2948 0.950 . S
C2925 C2942 1.574 . S
C2925 C2944 1.368 . S
C2925 H2949 0.949 . S
H2926 C2930 0.949 . S
C2927 C2928 1.349 . S
C2927 C2929 1.327 . S
C2927 H2950 0.950 . S
C2928 C2927 1.349 . S
C2928 C2940 1.349 . S
C2929 C2927 1.327 . S
C2929 C2945 1.429 . S
C2929 H2951 0.950 . S
C2930 H2926 0.949 . S
C2930 C2938 1.574 . S
C2930 C2946 1.368 . S
H2931 C2939 0.950 . S
H2932 C2937 0.950 . S
H2933 C2938 0.949 . S
H2934 C2940 0.950 . S
H2935 C2941 0.950 . S
H2936 C2942 0.949 . S
C2937 H2932 0.950 . S
C2937 C2939 1.327 . S
C2937 C2943 1.429 . S
C2938 C2930 1.574 . S
C2938 H2933 0.949 . S
C2938 C2944 1.368 . S
C2939 C2923 1.349 . S
C2939 H2931 0.950 . S
C2939 C2937 1.327 . S
C2940 C2928 1.349 . S
C2940 H2934 0.950 . S
C2940 C2941 1.327 . S
C2941 H2935 0.950 . S
C2941 C2940 1.327 . S
C2941 C2945 1.429 . S
C2942 C2925 1.574 . S
C2942 H2936 0.949 . S
C2942 C2946 1.368 . S
C2943 C2924 1.429 . S
C2943 C2937 1.429 . S
C2943 C2944 1.523 . S
C2944 C2925 1.368 . S
C2944 C2938 1.368 . S
C2944 C2943 1.523 . S
C2945 C2929 1.429 . S
C2945 C2941 1.429 . S
C2945 C2946 1.523 . S
C2946 C2930 1.368 . S
C2946 C2942 1.368 . S
C2946 C2945 1.523 . S
H2947 C2922 0.950 . S
H2948 C2924 0.950 . S
H2949 C2925 0.949 . S
H2950 C2927 0.950 . S
H2951 C2929 0.950 . S
C2952 C2953 1.349 . S
C2952 C2954 1.327 1_655 S
C2952 H2977 0.950 . S
C2953 C2952 1.349 . S
C2953 C2969 1.349 . S
C2954 C2952 1.327 1_455 S
C2954 C2973 1.429 . S
C2954 H2978 0.950 . S
C2955 C2972 1.574 . S
C2955 C2974 1.368 1_565 S
C2955 H2979 0.949 . S
H2956 C2960 0.949 . S
C2957 C2958 1.349 . S
C2957 C2959 1.327 . S
C2957 H2980 0.950 . S
C2958 C2957 1.349 . S
C2958 C2970 1.349 . S
C2959 C2957 1.327 . S
C2959 C2975 1.429 . S
C2959 H2981 0.950 . S
C2960 H2956 0.949 . S
C2960 C2968 1.574 . S
C2960 C2976 1.368 1_545 S
H2961 C2969 0.950 . S
H2962 C2967 0.952 1_565 S
H2963 C2968 0.949 . S
H2964 C2970 0.950 . S
H2965 C2971 0.950 1_545 S
H2966 C2972 0.949 . S
C2967 H2962 0.952 1_545 S
C2967 C2969 1.327 . S
C2967 C2973 1.429 1_655 S
C2968 C2960 1.574 . S
C2968 H2963 0.949 . S
C2968 C2974 1.368 . S
C2969 C2953 1.349 . S
C2969 H2961 0.950 . S
C2969 C2967 1.327 . S
C2970 C2958 1.349 . S
C2970 H2964 0.950 . S
C2970 C2971 1.327 . S
C2971 H2965 0.950 1_565 S
C2971 C2970 1.327 . S
C2971 C2975 1.429 . S
C2972 C2955 1.574 . S
C2972 H2966 0.949 . S
C2972 C2976 1.368 . S
C2973 C2954 1.429 . S
C2973 C2967 1.429 1_455 S
C2973 C2974 1.523 . S
C2974 C2955 1.368 1_545 S
C2974 C2968 1.368 . S
C2974 C2973 1.523 . S
C2975 C2959 1.429 . S
C2975 C2971 1.429 . S
C2975 C2976 1.523 . S
C2976 C2960 1.368 1_565 S
C2976 C2972 1.368 . S
C2976 C2975 1.523 . S
H2977 C2952 0.950 . S
H2978 C2954 0.950 . S
H2979 C2955 0.949 . S
H2980 C2957 0.950 . S
H2981 C2959 0.950 . S
C2982 C2983 1.349 . S
C2982 C2984 1.327 . S
C2982 H3007 0.950 . S
C2983 C2982 1.349 . S
C2983 C2999 1.349 . S
C2984 C2982 1.327 . S
C2984 C3003 1.429 . S
C2984 H3008 0.950 . S
C2985 C3002 1.574 . S
C2985 C3004 1.368 . S
C2985 H3009 0.949 . S
H2986 C2990 0.949 . S
C2987 C2988 1.349 . S
C2987 C2989 1.327 . S
C2987 H3010 0.950 . S
C2988 C2987 1.349 . S
C2988 C3000 1.349 . S
C2989 C2987 1.327 . S
C2989 C3005 1.429 . S
C2989 H3011 0.950 . S
C2990 H2986 0.949 . S
C2990 C2998 1.574 . S
C2990 C3006 1.368 . S
H2991 C2999 0.950 . S
H2992 C2997 0.950 . S
H2993 C2998 0.949 . S
H2994 C3000 0.950 . S
H2995 C3001 0.950 . S
H2996 C3002 0.949 . S
C2997 H2992 0.950 . S
C2997 C2999 1.327 . S
C2997 C3003 1.429 . S
C2998 C2990 1.574 . S
C2998 H2993 0.949 . S
C2998 C3004 1.368 . S
C2999 C2983 1.349 . S
C2999 H2991 0.950 . S
C2999 C2997 1.327 . S
C3000 C2988 1.349 . S
C3000 H2994 0.950 . S
C3000 C3001 1.327 . S
C3001 H2995 0.950 . S
C3001 C3000 1.327 . S
C3001 C3005 1.429 . S
C3002 C2985 1.574 . S
C3002 H2996 0.949 . S
C3002 C3006 1.368 . S
C3003 C2984 1.429 . S
C3003 C2997 1.429 . S
C3003 C3004 1.523 . S
C3004 C2985 1.368 . S
C3004 C2998 1.368 . S
C3004 C3003 1.523 . S
C3005 C2989 1.429 . S
C3005 C3001 1.429 . S
C3005 C3006 1.523 . S
C3006 C2990 1.368 . S
C3006 C3002 1.368 . S
C3006 C3005 1.523 . S
H3007 C2982 0.950 . S
H3008 C2984 0.950 . S
H3009 C2985 0.949 . S
H3010 C2987 0.950 . S
H3011 C2989 0.950 . S
C3012 C3013 1.349 . S
C3012 C3014 1.327 . S
C3012 H3037 0.950 . S
C3013 C3012 1.349 . S
C3013 C3029 1.349 . S
C3014 C3012 1.327 . S
C3014 C3033 1.429 . S
C3014 H3038 0.950 . S
C3015 C3032 1.574 . S
C3015 C3034 1.368 . S
C3015 H3039 0.949 . S
H3016 C3020 0.949 . S
C3017 C3018 1.349 . S
C3017 C3019 1.327 1_455 S
C3017 H3040 0.950 . S
C3018 C3017 1.349 . S
C3018 C3030 1.349 . S
C3019 C3017 1.327 1_655 S
C3019 C3035 1.429 . S
C3019 H3041 0.950 . S
C3020 H3016 0.949 . S
C3020 C3028 1.574 . S
C3020 C3036 1.368 . S
H3021 C3029 0.950 . S
H3022 C3027 0.950 . S
H3023 C3028 0.949 . S
H3024 C3030 0.950 . S
H3025 C3031 0.950 . S
H3026 C3032 0.949 . S
C3027 H3022 0.950 . S
C3027 C3029 1.327 . S
C3027 C3033 1.429 . S
C3028 C3020 1.574 . S
C3028 H3023 0.949 . S
C3028 C3034 1.368 . S
C3029 C3013 1.349 . S
C3029 H3021 0.950 . S
C3029 C3027 1.327 . S
C3030 C3018 1.349 . S
C3030 H3024 0.950 . S
C3030 C3031 1.327 . S
C3031 H3025 0.950 . S
C3031 C3030 1.327 . S
C3031 C3035 1.429 1_455 S
C3032 C3015 1.574 . S
C3032 H3026 0.949 . S
C3032 C3036 1.368 . S
C3033 C3014 1.429 . S
C3033 C3027 1.429 . S
C3033 C3034 1.523 . S
C3034 C3015 1.368 . S
C3034 C3028 1.368 . S
C3034 C3033 1.523 . S
C3035 C3019 1.429 . S
C3035 C3031 1.429 1_655 S
C3035 C3036 1.523 . S
C3036 C3020 1.368 . S
C3036 C3032 1.368 . S
C3036 C3035 1.523 . S
H3037 C3012 0.950 . S
H3038 C3014 0.950 . S
H3039 C3015 0.949 . S
H3040 C3017 0.950 . S
H3041 C3019 0.950 . S
C3042 C3043 1.349 . S
C3042 C3044 1.327 . S
C3042 H3067 0.950 . S
C3043 C3042 1.349 . S
C3043 C3059 1.349 . S
C3044 C3042 1.327 . S
C3044 C3063 1.429 . S
C3044 H3068 0.950 . S
C3045 C3062 1.574 . S
C3045 C3064 1.368 . S
C3045 H3069 0.949 . S
H3046 C3050 0.949 . S
C3047 C3048 1.349 . S
C3047 C3049 1.327 . S
C3047 H3070 0.950 . S
C3048 C3047 1.349 . S
C3048 C3060 1.349 . S
C3049 C3047 1.327 . S
C3049 C3065 1.429 . S
C3049 H3071 0.950 . S
C3050 H3046 0.949 . S
C3050 C3058 1.574 . S
C3050 C3066 1.368 . S
H3051 C3059 0.950 . S
H3052 C3057 0.950 . S
H3053 C3058 0.949 . S
H3054 C3060 0.950 . S
H3055 C3061 0.950 . S
H3056 C3062 0.949 . S
C3057 H3052 0.950 . S
C3057 C3059 1.327 . S
C3057 C3063 1.429 . S
C3058 C3050 1.574 . S
C3058 H3053 0.949 . S
C3058 C3064 1.368 . S
C3059 C3043 1.349 . S
C3059 H3051 0.950 . S
C3059 C3057 1.327 . S
C3060 C3048 1.349 . S
C3060 H3054 0.950 . S
C3060 C3061 1.327 . S
C3061 H3055 0.950 . S
C3061 C3060 1.327 . S
C3061 C3065 1.429 . S
C3062 C3045 1.574 . S
C3062 H3056 0.949 . S
C3062 C3066 1.368 . S
C3063 C3044 1.429 . S
C3063 C3057 1.429 . S
C3063 C3064 1.523 . S
C3064 C3045 1.368 . S
C3064 C3058 1.368 . S
C3064 C3063 1.523 . S
C3065 C3049 1.429 . S
C3065 C3061 1.429 . S
C3065 C3066 1.523 . S
C3066 C3050 1.368 . S
C3066 C3062 1.368 . S
C3066 C3065 1.523 . S
H3067 C3042 0.950 . S
H3068 C3044 0.950 . S
H3069 C3045 0.949 . S
H3070 C3047 0.950 . S
H3071 C3049 0.950 . S
C3072 C3073 1.349 . S
C3072 C3074 1.327 . S
C3072 H3097 0.950 . S
C3073 C3072 1.349 . S
C3073 C3089 1.349 . S
C3074 C3072 1.327 . S
C3074 C3093 1.429 . S
C3074 H3098 0.950 . S
C3075 C3092 1.574 . S
C3075 C3094 1.368 . S
C3075 H3099 0.949 . S
H3076 C3080 0.949 . S
C3077 C3078 1.349 . S
C3077 C3079 1.327 . S
C3077 H3100 0.950 . S
C3078 C3077 1.349 . S
C3078 C3090 1.349 . S
C3079 C3077 1.327 . S
C3079 C3095 1.429 . S
C3079 H3101 0.950 . S
C3080 H3076 0.949 . S
C3080 C3088 1.574 . S
C3080 C3096 1.368 . S
H3081 C3089 0.950 . S
H3082 C3087 0.950 . S
H3083 C3088 0.949 . S
H3084 C3090 0.950 . S
H3085 C3091 0.950 . S
H3086 C3092 0.949 . S
C3087 H3082 0.950 . S
C3087 C3089 1.327 . S
C3087 C3093 1.429 . S
C3088 C3080 1.574 . S
C3088 H3083 0.949 . S
C3088 C3094 1.368 . S
C3089 C3073 1.349 . S
C3089 H3081 0.950 . S
C3089 C3087 1.327 . S
C3090 C3078 1.349 . S
C3090 H3084 0.950 . S
C3090 C3091 1.327 . S
C3091 H3085 0.950 . S
C3091 C3090 1.327 . S
C3091 C3095 1.429 . S
C3092 C3075 1.574 . S
C3092 H3086 0.949 . S
C3092 C3096 1.368 . S
C3093 C3074 1.429 . S
C3093 C3087 1.429 . S
C3093 C3094 1.523 . S
C3094 C3075 1.368 . S
C3094 C3088 1.368 . S
C3094 C3093 1.523 . S
C3095 C3079 1.429 . S
C3095 C3091 1.429 . S
C3095 C3096 1.523 . S
C3096 C3080 1.368 . S
C3096 C3092 1.368 . S
C3096 C3095 1.523 . S
H3097 C3072 0.950 . S
H3098 C3074 0.950 . S
H3099 C3075 0.949 . S
H3100 C3077 0.950 . S
H3101 C3079 0.950 . S
C3102 C3103 1.349 . S
C3102 C3104 1.327 1_554 S
C3102 H3127 0.950 . S
C3103 C3102 1.349 . S
C3103 C3119 1.349 . S
C3104 C3102 1.327 1_556 S
C3104 C3123 1.429 . S
C3104 H3128 0.950 . S
C3105 C3122 1.574 . S
C3105 C3124 1.368 . S
C3105 H3129 0.949 . S
H3106 C3110 0.949 . S
C3107 C3108 1.349 . S
C3107 C3109 1.327 . S
C3107 H3130 0.950 . S
C3108 C3107 1.349 . S
C3108 C3120 1.349 . S
C3109 C3107 1.327 . S
C3109 C3125 1.429 . S
C3109 H3131 0.950 . S
C3110 H3106 0.949 . S
C3110 C3118 1.574 . S
C3110 C3126 1.368 . S
H3111 C3119 0.950 . S
H3112 C3117 0.950 . S
H3113 C3118 0.949 . S
H3114 C3120 0.950 . S
H3115 C3121 0.950 . S
H3116 C3122 0.949 . S
C3117 H3112 0.950 . S
C3117 C3119 1.327 . S
C3117 C3123 1.429 1_554 S
C3118 C3110 1.574 . S
C3118 H3113 0.949 . S
C3118 C3124 1.368 . S
C3119 C3103 1.349 . S
C3119 H3111 0.950 . S
C3119 C3117 1.327 . S
C3120 C3108 1.349 . S
C3120 H3114 0.950 . S
C3120 C3121 1.327 . S
C3121 H3115 0.950 . S
C3121 C3120 1.327 . S
C3121 C3125 1.429 . S
C3122 C3105 1.574 . S
C3122 H3116 0.949 . S
C3122 C3126 1.368 . S
C3123 C3104 1.429 . S
C3123 C3117 1.429 1_556 S
C3123 C3124 1.523 . S
C3124 C3105 1.368 . S
C3124 C3118 1.368 . S
C3124 C3123 1.523 . S
C3125 C3109 1.429 . S
C3125 C3121 1.429 . S
C3125 C3126 1.523 . S
C3126 C3110 1.368 . S
C3126 C3122 1.368 . S
C3126 C3125 1.523 . S
H3127 C3102 0.950 . S
H3128 C3104 0.950 . S
H3129 C3105 0.949 . S
H3130 C3107 0.950 . S
H3131 C3109 0.950 . S
C3132 C3133 1.349 . S
C3132 C3134 1.327 . S
C3132 H3157 0.950 . S
C3133 C3132 1.349 . S
C3133 C3149 1.349 . S
C3134 C3132 1.327 . S
C3134 C3153 1.429 . S
C3134 H3158 0.950 . S
C3135 C3152 1.574 . S
C3135 C3154 1.368 . S
C3135 H3159 0.949 . S
H3136 C3140 0.949 . S
C3137 C3138 1.349 . S
C3137 C3139 1.327 . S
C3137 H3160 0.950 . S
C3138 C3137 1.349 . S
C3138 C3150 1.349 . S
C3139 C3137 1.327 . S
C3139 C3155 1.429 . S
C3139 H3161 0.950 . S
C3140 H3136 0.949 . S
C3140 C3148 1.574 . S
C3140 C3156 1.368 . S
H3141 C3149 0.950 . S
H3142 C3147 0.950 . S
H3143 C3148 0.949 . S
H3144 C3150 0.950 . S
H3145 C3151 0.950 . S
H3146 C3152 0.949 . S
C3147 H3142 0.950 . S
C3147 C3149 1.327 . S
C3147 C3153 1.429 . S
C3148 C3140 1.574 . S
C3148 H3143 0.949 . S
C3148 C3154 1.368 . S
C3149 C3133 1.349 . S
C3149 H3141 0.950 . S
C3149 C3147 1.327 . S
C3150 C3138 1.349 . S
C3150 H3144 0.950 . S
C3150 C3151 1.327 . S
C3151 H3145 0.950 . S
C3151 C3150 1.327 . S
C3151 C3155 1.429 . S
C3152 C3135 1.574 . S
C3152 H3146 0.949 . S
C3152 C3156 1.368 . S
C3153 C3134 1.429 . S
C3153 C3147 1.429 . S
C3153 C3154 1.523 . S
C3154 C3135 1.368 . S
C3154 C3148 1.368 . S
C3154 C3153 1.523 . S
C3155 C3139 1.429 . S
C3155 C3151 1.429 . S
C3155 C3156 1.523 . S
C3156 C3140 1.368 . S
C3156 C3152 1.368 . S
C3156 C3155 1.523 . S
H3157 C3132 0.950 . S
H3158 C3134 0.950 . S
H3159 C3135 0.949 . S
H3160 C3137 0.950 . S
H3161 C3139 0.950 . S
C3162 C3163 1.349 . S
C3162 C3164 1.327 . S
C3162 H3187 0.950 . S
C3163 C3162 1.349 . S
C3163 C3179 1.349 . S
C3164 C3162 1.327 . S
C3164 C3183 1.429 . S
C3164 H3188 0.950 1_655 S
C3165 C3182 1.574 . S
C3165 C3184 1.368 . S
C3165 H3189 0.949 . S
H3166 C3170 0.949 . S
C3167 C3168 1.349 . S
C3167 C3169 1.327 . S
C3167 H3190 0.950 . S
C3168 C3167 1.349 . S
C3168 C3180 1.349 . S
C3169 C3167 1.327 . S
C3169 C3185 1.429 . S
C3169 H3191 0.955 . S
C3170 H3166 0.949 . S
C3170 C3178 1.574 . S
C3170 C3186 1.368 . S
H3171 C3179 0.950 . S
H3172 C3177 0.950 . S
H3173 C3178 0.949 . S
H3174 C3180 0.950 . S
H3175 C3181 0.950 . S
H3176 C3182 0.949 . S
C3177 H3172 0.950 . S
C3177 C3179 1.327 . S
C3177 C3183 1.429 . S
C3178 C3170 1.574 . S
C3178 H3173 0.949 . S
C3178 C3184 1.368 1_455 S
C3179 C3163 1.349 . S
C3179 H3171 0.950 . S
C3179 C3177 1.327 . S
C3180 C3168 1.349 . S
C3180 H3174 0.950 . S
C3180 C3181 1.327 . S
C3181 H3175 0.950 . S
C3181 C3180 1.327 . S
C3181 C3185 1.429 . S
C3182 C3165 1.574 . S
C3182 H3176 0.949 . S
C3182 C3186 1.368 1_655 S
C3183 C3164 1.429 . S
C3183 C3177 1.429 . S
C3183 C3184 1.523 . S
C3184 C3165 1.368 . S
C3184 C3178 1.368 1_655 S
C3184 C3183 1.523 . S
C3185 C3169 1.429 . S
C3185 C3181 1.429 . S
C3185 C3186 1.523 . S
C3186 C3170 1.368 . S
C3186 C3182 1.368 1_455 S
C3186 C3185 1.523 . S
H3187 C3162 0.950 . S
H3188 C3164 0.950 1_455 S
H3189 C3165 0.949 . S
H3190 C3167 0.950 . S
H3191 C3169 0.955 . S
C3192 C3193 1.349 . S
C3192 C3194 1.327 . S
C3192 H3217 0.950 . S
C3193 C3192 1.349 . S
C3193 C3209 1.349 . S
C3194 C3192 1.327 . S
C3194 C3213 1.429 . S
C3194 H3218 0.950 . S
C3195 C3212 1.574 . S
C3195 C3214 1.368 . S
C3195 H3219 0.949 . S
H3196 C3200 0.949 . S
C3197 C3198 1.349 . S
C3197 C3199 1.327 . S
C3197 H3220 0.950 . S
C3198 C3197 1.349 . S
C3198 C3210 1.349 . S
C3199 C3197 1.327 . S
C3199 C3215 1.429 . S
C3199 H3221 0.950 . S
C3200 H3196 0.949 . S
C3200 C3208 1.574 . S
C3200 C3216 1.368 . S
H3201 C3209 0.950 . S
H3202 C3207 0.950 . S
H3203 C3208 0.949 . S
H3204 C3210 0.950 . S
H3205 C3211 0.950 . S
H3206 C3212 0.949 . S
C3207 H3202 0.950 . S
C3207 C3209 1.327 . S
C3207 C3213 1.429 . S
C3208 C3200 1.574 . S
C3208 H3203 0.949 . S
C3208 C3214 1.368 . S
C3209 C3193 1.349 . S
C3209 H3201 0.950 . S
C3209 C3207 1.327 . S
C3210 C3198 1.349 . S
C3210 H3204 0.950 . S
C3210 C3211 1.327 . S
C3211 H3205 0.950 . S
C3211 C3210 1.327 . S
C3211 C3215 1.429 . S
C3212 C3195 1.574 . S
C3212 H3206 0.949 . S
C3212 C3216 1.368 . S
C3213 C3194 1.429 . S
C3213 C3207 1.429 . S
C3213 C3214 1.523 . S
C3214 C3195 1.368 . S
C3214 C3208 1.368 . S
C3214 C3213 1.523 . S
C3215 C3199 1.429 . S
C3215 C3211 1.429 . S
C3215 C3216 1.523 . S
C3216 C3200 1.368 . S
C3216 C3212 1.368 . S
C3216 C3215 1.523 . S
H3217 C3192 0.950 . S
H3218 C3194 0.950 . S
H3219 C3195 0.949 . S
H3220 C3197 0.950 . S
H3221 C3199 0.950 . S
C3222 C3223 1.349 . S
C3222 C3224 1.327 . S
C3222 H3247 0.950 . S
C3223 C3222 1.349 . S
C3223 C3239 1.349 . S
C3224 C3222 1.327 . S
C3224 C3243 1.429 1_556 S
C3224 H3248 0.950 . S
C3225 C3242 1.550 1_655 S
C3225 C3244 1.385 . S
C3225 H3249 0.959 . S
H3226 C3230 0.949 . S
C3227 C3228 1.349 . S
C3227 C3229 1.327 . S
C3227 H3250 0.950 . S
C3228 C3227 1.349 . S
C3228 C3240 1.349 . S
C3229 C3227 1.327 . S
C3229 C3245 1.429 . S
C3229 H3251 0.950 . S
C3230 H3226 0.949 . S
C3230 C3238 1.574 1_455 S
C3230 C3246 1.368 . S
H3231 C3239 0.950 . S
H3232 C3237 0.950 . S
H3233 C3238 0.949 . S
H3234 C3240 0.950 . S
H3235 C3241 0.950 . S
H3236 C3242 0.949 . S
C3237 H3232 0.950 . S
C3237 C3239 1.327 1_554 S
C3237 C3243 1.429 . S
C3238 C3230 1.574 1_655 S
C3238 H3233 0.949 . S
C3238 C3244 1.368 . S
C3239 C3223 1.349 . S
C3239 H3231 0.950 . S
C3239 C3237 1.327 1_556 S
C3240 C3228 1.349 . S
C3240 H3234 0.950 . S
C3240 C3241 1.327 . S
C3241 H3235 0.950 . S
C3241 C3240 1.327 . S
C3241 C3245 1.429 . S
C3242 C3225 1.550 1_455 S
C3242 H3236 0.949 . S
C3242 C3246 1.368 . S
C3243 C3224 1.429 1_554 S
C3243 C3237 1.429 . S
C3243 C3244 1.523 . S
C3244 C3225 1.385 . S
C3244 C3238 1.368 . S
C3244 C3243 1.523 . S
C3245 C3229 1.429 . S
C3245 C3241 1.429 . S
C3245 C3246 1.523 . S
C3246 C3230 1.368 . S
C3246 C3242 1.368 . S
C3246 C3245 1.523 . S
H3247 C3222 0.950 . S
H3248 C3224 0.950 . S
H3249 C3225 0.959 . S
H3250 C3227 0.950 . S
H3251 C3229 0.950 . S
C3252 C3253 1.349 . S
C3252 C3254 1.327 . S
C3252 H3277 0.950 . S
C3253 C3252 1.349 . S
C3253 C3269 1.349 . S
C3254 C3252 1.327 . S
C3254 C3273 1.429 . S
C3254 H3278 0.950 . S
C3255 C3272 1.574 . S
C3255 C3274 1.368 . S
C3255 H3279 0.949 . S
H3256 C3260 0.949 . S
C3257 C3258 1.349 . S
C3257 C3259 1.327 . S
C3257 H3280 0.950 . S
C3258 C3257 1.349 . S
C3258 C3270 1.349 . S
C3259 C3257 1.327 . S
C3259 C3275 1.429 . S
C3259 H3281 0.950 . S
C3260 H3256 0.949 . S
C3260 C3268 1.574 . S
C3260 C3276 1.368 . S
H3261 C3269 0.950 . S
H3262 C3267 0.950 . S
H3263 C3268 0.949 . S
H3264 C3270 0.950 . S
H3265 C3271 0.950 . S
H3266 C3272 0.949 . S
C3267 H3262 0.950 . S
C3267 C3269 1.327 . S
C3267 C3273 1.429 . S
C3268 C3260 1.574 . S
C3268 H3263 0.949 . S
C3268 C3274 1.368 . S
C3269 C3253 1.349 . S
C3269 H3261 0.950 . S
C3269 C3267 1.327 . S
C3270 C3258 1.349 . S
C3270 H3264 0.950 . S
C3270 C3271 1.327 . S
C3271 H3265 0.950 . S
C3271 C3270 1.327 . S
C3271 C3275 1.429 . S
C3272 C3255 1.574 . S
C3272 H3266 0.949 . S
C3272 C3276 1.368 . S
C3273 C3254 1.429 . S
C3273 C3267 1.429 . S
C3273 C3274 1.523 . S
C3274 C3255 1.368 . S
C3274 C3268 1.368 . S
C3274 C3273 1.523 . S
C3275 C3259 1.429 . S
C3275 C3271 1.429 . S
C3275 C3276 1.523 . S
C3276 C3260 1.368 . S
C3276 C3272 1.368 . S
C3276 C3275 1.523 . S
H3277 C3252 0.950 . S
H3278 C3254 0.950 . S
H3279 C3255 0.949 . S
H3280 C3257 0.950 . S
H3281 C3259 0.950 . S
C3282 C3283 1.349 . S
C3282 C3284 1.327 . S
C3282 H3307 0.950 . S
C3283 C3282 1.349 . S
C3283 C3299 1.349 . S
C3284 C3282 1.327 . S
C3284 C3303 1.429 . S
C3284 H3308 0.950 . S
C3285 C3302 1.574 . S
C3285 C3304 1.368 . S
C3285 H3309 0.949 . S
H3286 C3290 0.949 . S
C3287 C3288 1.349 . S
C3287 C3289 1.327 . S
C3287 H3310 0.950 . S
C3288 C3287 1.349 . S
C3288 C3300 1.349 . S
C3289 C3287 1.327 . S
C3289 C3305 1.429 . S
C3289 H3311 0.950 . S
C3290 H3286 0.949 . S
C3290 C3298 1.574 . S
C3290 C3306 1.368 . S
H3291 C3299 0.950 . S
H3292 C3297 0.950 . S
H3293 C3298 0.949 . S
H3294 C3300 0.950 . S
H3295 C3301 0.950 . S
H3296 C3302 0.949 . S
C3297 H3292 0.950 . S
C3297 C3299 1.327 . S
C3297 C3303 1.429 . S
C3298 C3290 1.574 . S
C3298 H3293 0.949 . S
C3298 C3304 1.368 . S
C3299 C3283 1.349 . S
C3299 H3291 0.950 . S
C3299 C3297 1.327 . S
C3300 C3288 1.349 . S
C3300 H3294 0.950 . S
C3300 C3301 1.327 . S
C3301 H3295 0.950 . S
C3301 C3300 1.327 . S
C3301 C3305 1.429 . S
C3302 C3285 1.574 . S
C3302 H3296 0.949 . S
C3302 C3306 1.368 . S
C3303 C3284 1.429 . S
C3303 C3297 1.429 . S
C3303 C3304 1.523 . S
C3304 C3285 1.368 . S
C3304 C3298 1.368 . S
C3304 C3303 1.523 . S
C3305 C3289 1.429 . S
C3305 C3301 1.429 . S
C3305 C3306 1.523 . S
C3306 C3290 1.368 . S
C3306 C3302 1.368 . S
C3306 C3305 1.523 . S
H3307 C3282 0.950 . S
H3308 C3284 0.950 . S
H3309 C3285 0.949 . S
H3310 C3287 0.950 . S
H3311 C3289 0.950 . S
C3312 C3313 1.349 . S
C3312 C3314 1.327 . S
C3312 H3337 0.950 . S
C3313 C3312 1.349 . S
C3313 C3329 1.349 . S
C3314 C3312 1.327 . S
C3314 C3333 1.429 . S
C3314 H3338 0.950 . S
C3315 C3332 1.574 . S
C3315 C3334 1.368 . S
C3315 H3339 0.949 . S
H3316 C3320 0.949 . S
C3317 C3318 1.349 . S
C3317 C3319 1.327 . S
C3317 H3340 0.950 . S
C3318 C3317 1.349 . S
C3318 C3330 1.349 . S
C3319 C3317 1.327 . S
C3319 C3335 1.429 . S
C3319 H3341 0.950 . S
C3320 H3316 0.949 . S
C3320 C3328 1.574 . S
C3320 C3336 1.368 . S
H3321 C3329 0.950 . S
H3322 C3327 0.950 . S
H3323 C3328 0.949 . S
H3324 C3330 0.950 . S
H3325 C3331 0.950 . S
H3326 C3332 0.949 . S
C3327 H3322 0.950 . S
C3327 C3329 1.327 . S
C3327 C3333 1.429 . S
C3328 C3320 1.574 . S
C3328 H3323 0.949 . S
C3328 C3334 1.368 . S
C3329 C3313 1.349 . S
C3329 H3321 0.950 . S
C3329 C3327 1.327 . S
C3330 C3318 1.349 . S
C3330 H3324 0.950 . S
C3330 C3331 1.327 . S
C3331 H3325 0.950 . S
C3331 C3330 1.327 . S
C3331 C3335 1.429 . S
C3332 C3315 1.574 . S
C3332 H3326 0.949 . S
C3332 C3336 1.368 . S
C3333 C3314 1.429 . S
C3333 C3327 1.429 . S
C3333 C3334 1.523 . S
C3334 C3315 1.368 . S
C3334 C3328 1.368 . S
C3334 C3333 1.523 . S
C3335 C3319 1.429 . S
C3335 C3331 1.429 . S
C3335 C3336 1.523 . S
C3336 C3320 1.368 . S
C3336 C3332 1.368 . S
C3336 C3335 1.523 . S
H3337 C3312 0.950 . S
H3338 C3314 0.950 . S
H3339 C3315 0.949 . S
H3340 C3317 0.950 . S
H3341 C3319 0.950 . S
C3342 C3343 1.349 . S
C3342 C3344 1.327 . S
C3342 H3367 0.950 . S
C3343 C3342 1.349 . S
C3343 C3359 1.349 . S
C3344 C3342 1.327 . S
C3344 C3363 1.429 . S
C3344 H3368 0.950 . S
C3345 C3362 1.574 . S
C3345 C3364 1.368 . S
C3345 H3369 0.949 . S
H3346 C3350 0.949 . S
C3347 C3348 1.349 . S
C3347 C3349 1.327 . S
C3347 H3370 0.950 . S
C3348 C3347 1.349 . S
C3348 C3360 1.349 . S
C3349 C3347 1.327 . S
C3349 C3365 1.429 . S
C3349 H3371 0.950 . S
C3350 H3346 0.949 . S
C3350 C3358 1.574 . S
C3350 C3366 1.368 . S
H3351 C3359 0.950 . S
H3352 C3357 0.950 . S
H3353 C3358 0.949 . S
H3354 C3360 0.950 . S
H3355 C3361 0.950 . S
H3356 C3362 0.949 . S
C3357 H3352 0.950 . S
C3357 C3359 1.327 . S
C3357 C3363 1.429 . S
C3358 C3350 1.574 . S
C3358 H3353 0.949 . S
C3358 C3364 1.368 1_554 S
C3359 C3343 1.349 . S
C3359 H3351 0.950 . S
C3359 C3357 1.327 . S
C3360 C3348 1.349 . S
C3360 H3354 0.950 . S
C3360 C3361 1.327 . S
C3361 H3355 0.950 . S
C3361 C3360 1.327 . S
C3361 C3365 1.429 . S
C3362 C3345 1.574 . S
C3362 H3356 0.949 . S
C3362 C3366 1.368 1_556 S
C3363 C3344 1.429 . S
C3363 C3357 1.429 . S
C3363 C3364 1.523 . S
C3364 C3345 1.368 . S
C3364 C3358 1.368 1_556 S
C3364 C3363 1.523 . S
C3365 C3349 1.429 . S
C3365 C3361 1.429 . S
C3365 C3366 1.523 . S
C3366 C3350 1.368 . S
C3366 C3362 1.368 1_554 S
C3366 C3365 1.523 . S
H3367 C3342 0.950 . S
H3368 C3344 0.950 . S
H3369 C3345 0.949 . S
H3370 C3347 0.950 . S
H3371 C3349 0.950 . S
C3372 C3373 1.349 . S
C3372 C3374 1.327 . S
C3372 H3397 0.950 . S
C3373 C3372 1.349 . S
C3373 C3389 1.349 . S
C3374 C3372 1.327 . S
C3374 C3393 1.429 . S
C3374 H3398 0.950 . S
C3375 C3392 1.574 . S
C3375 C3394 1.368 . S
C3375 H3399 0.949 . S
H3376 C3380 0.949 . S
C3377 C3378 1.349 . S
C3377 C3379 1.327 . S
C3377 H3400 0.950 . S
C3378 C3377 1.349 . S
C3378 C3390 1.349 . S
C3379 C3377 1.327 . S
C3379 C3395 1.429 . S
C3379 H3401 0.950 . S
C3380 H3376 0.949 . S
C3380 C3388 1.574 . S
C3380 C3396 1.368 . S
H3381 C3389 0.950 . S
H3382 C3387 0.950 . S
H3383 C3388 0.949 . S
H3384 C3390 0.950 . S
H3385 C3391 0.950 . S
H3386 C3392 0.949 . S
C3387 H3382 0.950 . S
C3387 C3389 1.327 . S
C3387 C3393 1.429 . S
C3388 C3380 1.574 . S
C3388 H3383 0.949 . S
C3388 C3394 1.368 . S
C3389 C3373 1.349 . S
C3389 H3381 0.950 . S
C3389 C3387 1.327 . S
C3390 C3378 1.349 . S
C3390 H3384 0.950 . S
C3390 C3391 1.327 . S
C3391 H3385 0.950 . S
C3391 C3390 1.327 . S
C3391 C3395 1.429 . S
C3392 C3375 1.574 . S
C3392 H3386 0.949 . S
C3392 C3396 1.368 . S
C3393 C3374 1.429 . S
C3393 C3387 1.429 . S
C3393 C3394 1.523 . S
C3394 C3375 1.368 . S
C3394 C3388 1.368 . S
C3394 C3393 1.523 . S
C3395 C3379 1.429 . S
C3395 C3391 1.429 . S
C3395 C3396 1.523 . S
C3396 C3380 1.368 . S
C3396 C3392 1.368 . S
C3396 C3395 1.523 . S
H3397 C3372 0.950 . S
H3398 C3374 0.950 . S
H3399 C3375 0.949 . S
H3400 C3377 0.950 . S
H3401 C3379 0.950 . S
C3402 C3403 1.349 . S
C3402 C3404 1.327 . S
C3402 H3427 0.950 . S
C3403 C3402 1.349 . S
C3403 C3419 1.349 . S
C3404 C3402 1.327 . S
C3404 C3423 1.429 . S
C3404 H3428 0.950 . S
C3405 C3422 1.574 . S
C3405 C3424 1.368 . S
C3405 H3429 0.949 . S
H3406 C3410 0.949 . S
C3407 C3408 1.349 . S
C3407 C3409 1.327 . S
C3407 H3430 0.950 . S
C3408 C3407 1.349 . S
C3408 C3420 1.349 . S
C3409 C3407 1.327 . S
C3409 C3425 1.429 . S
C3409 H3431 0.950 . S
C3410 H3406 0.949 . S
C3410 C3418 1.574 . S
C3410 C3426 1.368 . S
H3411 C3419 0.950 . S
H3412 C3417 0.950 . S
H3413 C3418 0.949 . S
H3414 C3420 0.950 . S
H3415 C3421 0.950 . S
H3416 C3422 0.949 . S
C3417 H3412 0.950 . S
C3417 C3419 1.327 . S
C3417 C3423 1.429 . S
C3418 C3410 1.574 . S
C3418 H3413 0.949 . S
C3418 C3424 1.368 . S
C3419 C3403 1.349 . S
C3419 H3411 0.950 . S
C3419 C3417 1.327 . S
C3420 C3408 1.349 . S
C3420 H3414 0.950 . S
C3420 C3421 1.327 . S
C3421 H3415 0.950 . S
C3421 C3420 1.327 . S
C3421 C3425 1.429 . S
C3422 C3405 1.574 . S
C3422 H3416 0.949 . S
C3422 C3426 1.368 . S
C3423 C3404 1.429 . S
C3423 C3417 1.429 . S
C3423 C3424 1.523 . S
C3424 C3405 1.368 . S
C3424 C3418 1.368 . S
C3424 C3423 1.523 . S
C3425 C3409 1.429 . S
C3425 C3421 1.429 . S
C3425 C3426 1.523 . S
C3426 C3410 1.368 . S
C3426 C3422 1.368 . S
C3426 C3425 1.523 . S
H3427 C3402 0.950 . S
H3428 C3404 0.950 . S
H3429 C3405 0.949 . S
H3430 C3407 0.950 . S
H3431 C3409 0.950 . S
C3432 C3433 1.349 . S
C3432 C3434 1.327 . S
C3432 H3457 0.950 . S
C3433 C3432 1.349 . S
C3433 C3449 1.349 . S
C3434 C3432 1.327 . S
C3434 C3453 1.429 . S
C3434 H3458 0.950 . S
C3435 C3452 1.574 . S
C3435 C3454 1.368 . S
C3435 H3459 0.949 . S
H3436 C3440 0.949 . S
C3437 C3438 1.349 . S
C3437 C3439 1.327 . S
C3437 H3460 0.950 . S
C3438 C3437 1.349 . S
C3438 C3450 1.349 . S
C3439 C3437 1.327 . S
C3439 C3455 1.429 . S
C3439 H3461 0.950 . S
C3440 H3436 0.949 . S
C3440 C3448 1.574 . S
C3440 C3456 1.368 . S
H3441 C3449 0.950 . S
H3442 C3447 0.950 . S
H3443 C3448 0.949 . S
H3444 C3450 0.950 . S
H3445 C3451 0.950 . S
H3446 C3452 0.949 . S
C3447 H3442 0.950 . S
C3447 C3449 1.327 . S
C3447 C3453 1.429 . S
C3448 C3440 1.574 . S
C3448 H3443 0.949 . S
C3448 C3454 1.368 . S
C3449 C3433 1.349 . S
C3449 H3441 0.950 . S
C3449 C3447 1.327 . S
C3450 C3438 1.349 . S
C3450 H3444 0.950 . S
C3450 C3451 1.327 . S
C3451 H3445 0.950 . S
C3451 C3450 1.327 . S
C3451 C3455 1.429 . S
C3452 C3435 1.574 . S
C3452 H3446 0.949 . S
C3452 C3456 1.368 . S
C3453 C3434 1.429 . S
C3453 C3447 1.429 . S
C3453 C3454 1.523 . S
C3454 C3435 1.368 . S
C3454 C3448 1.368 . S
C3454 C3453 1.523 . S
C3455 C3439 1.429 . S
C3455 C3451 1.429 . S
C3455 C3456 1.523 . S
C3456 C3440 1.368 . S
C3456 C3452 1.368 . S
C3456 C3455 1.523 . S
H3457 C3432 0.950 . S
H3458 C3434 0.950 . S
H3459 C3435 0.949 . S
H3460 C3437 0.950 . S
H3461 C3439 0.950 . S
C3462 C3463 1.349 . S
C3462 C3464 1.327 . S
C3462 H3487 0.950 . S
C3463 C3462 1.349 . S
C3463 C3479 1.349 . S
C3464 C3462 1.327 . S
C3464 C3483 1.429 . S
C3464 H3488 0.950 . S
C3465 C3482 1.574 . S
C3465 C3484 1.368 1_554 S
C3465 H3489 0.949 . S
H3466 C3470 0.949 . S
C3467 C3468 1.349 . S
C3467 C3469 1.327 . S
C3467 H3490 0.950 . S
C3468 C3467 1.349 . S
C3468 C3480 1.349 . S
C3469 C3467 1.327 . S
C3469 C3485 1.429 . S
C3469 H3491 0.950 . S
C3470 H3466 0.949 . S
C3470 C3478 1.574 . S
C3470 C3486 1.368 1_556 S
H3471 C3479 0.950 . S
H3472 C3477 0.950 . S
H3473 C3478 0.949 . S
H3474 C3480 0.950 . S
H3475 C3481 0.950 1_556 S
H3476 C3482 0.949 . S
C3477 H3472 0.950 . S
C3477 C3479 1.327 . S
C3477 C3483 1.429 . S
C3478 C3470 1.574 . S
C3478 H3473 0.949 . S
C3478 C3484 1.368 . S
C3479 C3463 1.349 . S
C3479 H3471 0.950 . S
C3479 C3477 1.327 . S
C3480 C3468 1.349 . S
C3480 H3474 0.950 . S
C3480 C3481 1.327 . S
C3481 H3475 0.950 1_554 S
C3481 C3480 1.327 . S
C3481 C3485 1.429 . S
C3482 C3465 1.574 . S
C3482 H3476 0.949 . S
C3482 C3486 1.368 . S
C3483 C3464 1.429 . S
C3483 C3477 1.429 . S
C3483 C3484 1.523 . S
C3484 C3465 1.368 1_556 S
C3484 C3478 1.368 . S
C3484 C3483 1.523 . S
C3485 C3469 1.429 . S
C3485 C3481 1.429 . S
C3485 C3486 1.523 . S
C3486 C3470 1.368 1_554 S
C3486 C3482 1.368 . S
C3486 C3485 1.523 . S
H3487 C3462 0.950 . S
H3488 C3464 0.950 . S
H3489 C3465 0.949 . S
H3490 C3467 0.950 . S
H3491 C3469 0.950 . S
C3492 C3493 1.349 . S
C3492 C3494 1.327 . S
C3492 H3517 0.950 . S
C3493 C3492 1.349 . S
C3493 C3509 1.349 . S
C3494 C3492 1.327 . S
C3494 C3513 1.429 . S
C3494 H3518 0.950 . S
C3495 C3512 1.574 . S
C3495 C3514 1.368 . S
C3495 H3519 0.949 . S
H3496 C3500 0.949 . S
C3497 C3498 1.349 . S
C3497 C3499 1.327 . S
C3497 H3520 0.950 . S
C3498 C3497 1.349 . S
C3498 C3510 1.349 . S
C3499 C3497 1.327 . S
C3499 C3515 1.429 . S
C3499 H3521 0.950 . S
C3500 H3496 0.949 . S
C3500 C3508 1.574 . S
C3500 C3516 1.368 . S
H3501 C3509 0.950 . S
H3502 C3507 0.950 . S
H3503 C3508 0.949 . S
H3504 C3510 0.950 . S
H3505 C3511 0.950 . S
H3506 C3512 0.949 . S
C3507 H3502 0.950 . S
C3507 C3509 1.327 . S
C3507 C3513 1.429 . S
C3508 C3500 1.574 . S
C3508 H3503 0.949 . S
C3508 C3514 1.368 . S
C3509 C3493 1.349 . S
C3509 H3501 0.950 . S
C3509 C3507 1.327 . S
C3510 C3498 1.349 . S
C3510 H3504 0.950 . S
C3510 C3511 1.327 . S
C3511 H3505 0.950 . S
C3511 C3510 1.327 . S
C3511 C3515 1.429 . S
C3512 C3495 1.574 . S
C3512 H3506 0.949 . S
C3512 C3516 1.368 . S
C3513 C3494 1.429 . S
C3513 C3507 1.429 . S
C3513 C3514 1.523 . S
C3514 C3495 1.368 . S
C3514 C3508 1.368 . S
C3514 C3513 1.523 . S
C3515 C3499 1.429 . S
C3515 C3511 1.429 . S
C3515 C3516 1.523 . S
C3516 C3500 1.368 . S
C3516 C3512 1.368 . S
C3516 C3515 1.523 . S
H3517 C3492 0.950 . S
H3518 C3494 0.950 . S
H3519 C3495 0.949 . S
H3520 C3497 0.950 . S
H3521 C3499 0.950 . S
C3522 C3523 1.349 . S
C3522 C3524 1.327 . S
C3522 H3547 0.950 . S
C3523 C3522 1.349 . S
C3523 C3539 1.349 . S
C3524 C3522 1.327 . S
C3524 C3543 1.429 . S
C3524 H3548 0.950 . S
C3525 C3542 1.574 . S
C3525 C3544 1.368 . S
C3525 H3549 0.949 . S
H3526 C3530 0.949 . S
C3527 C3528 1.349 . S
C3527 C3529 1.327 . S
C3527 H3550 0.950 . S
C3528 C3527 1.349 . S
C3528 C3540 1.349 . S
C3529 C3527 1.327 . S
C3529 C3545 1.429 . S
C3529 H3551 0.950 . S
C3530 H3526 0.949 . S
C3530 C3538 1.574 . S
C3530 C3546 1.368 . S
H3531 C3539 0.950 . S
H3532 C3537 0.950 . S
H3533 C3538 0.949 . S
H3534 C3540 0.950 . S
H3535 C3541 0.950 . S
H3536 C3542 0.949 . S
C3537 H3532 0.950 . S
C3537 C3539 1.327 . S
C3537 C3543 1.429 . S
C3538 C3530 1.574 . S
C3538 H3533 0.949 . S
C3538 C3544 1.368 . S
C3539 C3523 1.349 . S
C3539 H3531 0.950 . S
C3539 C3537 1.327 . S
C3540 C3528 1.349 . S
C3540 H3534 0.950 . S
C3540 C3541 1.327 . S
C3541 H3535 0.950 . S
C3541 C3540 1.327 . S
C3541 C3545 1.429 . S
C3542 C3525 1.574 . S
C3542 H3536 0.949 . S
C3542 C3546 1.368 . S
C3543 C3524 1.429 . S
C3543 C3537 1.429 . S
C3543 C3544 1.523 . S
C3544 C3525 1.368 . S
C3544 C3538 1.368 . S
C3544 C3543 1.523 . S
C3545 C3529 1.429 . S
C3545 C3541 1.429 . S
C3545 C3546 1.523 . S
C3546 C3530 1.368 . S
C3546 C3542 1.368 . S
C3546 C3545 1.523 . S
H3547 C3522 0.950 . S
H3548 C3524 0.950 . S
H3549 C3525 0.949 . S
H3550 C3527 0.950 . S
H3551 C3529 0.950 . S
C3552 C3553 1.349 . S
C3552 C3554 1.327 . S
C3552 H3577 0.950 . S
C3553 C3552 1.349 . S
C3553 C3569 1.349 . S
C3554 C3552 1.327 . S
C3554 C3573 1.429 . S
C3554 H3578 0.950 . S
C3555 C3572 1.574 . S
C3555 C3574 1.368 . S
C3555 H3579 0.949 . S
H3556 C3560 0.949 . S
C3557 C3558 1.349 . S
C3557 C3559 1.327 . S
C3557 H3580 0.950 . S
C3558 C3557 1.349 . S
C3558 C3570 1.349 . S
C3559 C3557 1.327 . S
C3559 C3575 1.429 . S
C3559 H3581 0.950 . S
C3560 H3556 0.949 . S
C3560 C3568 1.574 . S
C3560 C3576 1.368 . S
H3561 C3569 0.950 . S
H3562 C3567 0.950 . S
H3563 C3568 0.949 . S
H3564 C3570 0.950 . S
H3565 C3571 0.950 . S
H3566 C3572 0.949 . S
C3567 H3562 0.950 . S
C3567 C3569 1.327 . S
C3567 C3573 1.429 . S
C3568 C3560 1.574 . S
C3568 H3563 0.949 . S
C3568 C3574 1.368 . S
C3569 C3553 1.349 . S
C3569 H3561 0.950 . S
C3569 C3567 1.327 . S
C3570 C3558 1.349 . S
C3570 H3564 0.950 . S
C3570 C3571 1.327 . S
C3571 H3565 0.950 . S
C3571 C3570 1.327 . S
C3571 C3575 1.429 . S
C3572 C3555 1.574 . S
C3572 H3566 0.949 . S
C3572 C3576 1.368 . S
C3573 C3554 1.429 . S
C3573 C3567 1.429 . S
C3573 C3574 1.523 . S
C3574 C3555 1.368 . S
C3574 C3568 1.368 . S
C3574 C3573 1.523 . S
C3575 C3559 1.429 . S
C3575 C3571 1.429 . S
C3575 C3576 1.523 . S
C3576 C3560 1.368 . S
C3576 C3572 1.368 . S
C3576 C3575 1.523 . S
H3577 C3552 0.950 . S
H3578 C3554 0.950 . S
H3579 C3555 0.949 . S
H3580 C3557 0.950 . S
H3581 C3559 0.950 . S
C3582 C3583 1.349 . S
C3582 C3584 1.327 . S
C3582 H3607 0.950 . S
C3583 C3582 1.349 . S
C3583 C3599 1.349 . S
C3584 C3582 1.327 . S
C3584 C3603 1.429 . S
C3584 H3608 0.950 . S
C3585 C3602 1.574 . S
C3585 C3604 1.368 . S
C3585 H3609 0.949 . S
H3586 C3590 0.949 . S
C3587 C3588 1.349 . S
C3587 C3589 1.327 . S
C3587 H3610 0.950 . S
C3588 C3587 1.349 . S
C3588 C3600 1.349 . S
C3589 C3587 1.327 . S
C3589 C3605 1.429 . S
C3589 H3611 0.950 . S
C3590 H3586 0.949 . S
C3590 C3598 1.574 . S
C3590 C3606 1.368 . S
H3591 C3599 0.950 . S
H3592 C3597 0.950 . S
H3593 C3598 0.949 . S
H3594 C3600 0.950 . S
H3595 C3601 0.950 . S
H3596 C3602 0.949 . S
C3597 H3592 0.950 . S
C3597 C3599 1.327 . S
C3597 C3603 1.429 . S
C3598 C3590 1.574 . S
C3598 H3593 0.949 . S
C3598 C3604 1.368 . S
C3599 C3583 1.349 . S
C3599 H3591 0.950 . S
C3599 C3597 1.327 . S
C3600 C3588 1.349 . S
C3600 H3594 0.950 . S
C3600 C3601 1.327 . S
C3601 H3595 0.950 . S
C3601 C3600 1.327 . S
C3601 C3605 1.429 . S
C3602 C3585 1.574 . S
C3602 H3596 0.949 . S
C3602 C3606 1.368 . S
C3603 C3584 1.429 . S
C3603 C3597 1.429 . S
C3603 C3604 1.523 . S
C3604 C3585 1.368 . S
C3604 C3598 1.368 . S
C3604 C3603 1.523 . S
C3605 C3589 1.429 . S
C3605 C3601 1.429 . S
C3605 C3606 1.523 . S
C3606 C3590 1.368 . S
C3606 C3602 1.368 . S
C3606 C3605 1.523 . S
H3607 C3582 0.950 . S
H3608 C3584 0.950 . S
H3609 C3585 0.949 . S
H3610 C3587 0.950 . S
H3611 C3589 0.950 . S
C3612 C3613 1.349 . S
C3612 C3614 1.327 . S
C3612 H3637 0.950 . S
C3613 C3612 1.349 . S
C3613 C3629 1.349 . S
C3614 C3612 1.327 . S
C3614 C3633 1.429 . S
C3614 H3638 0.950 1_565 S
C3615 C3632 1.574 . S
C3615 C3634 1.368 . S
C3615 H3639 0.949 . S
H3616 C3620 0.949 . S
C3617 C3618 1.349 . S
C3617 C3619 1.327 . S
C3617 H3640 0.950 . S
C3618 C3617 1.349 . S
C3618 C3630 1.349 . S
C3619 C3617 1.327 . S
C3619 C3635 1.429 . S
C3619 H3641 0.967 . S
C3620 H3616 0.949 . S
C3620 C3628 1.574 . S
C3620 C3636 1.368 . S
H3621 C3629 0.950 . S
H3622 C3627 0.950 . S
H3623 C3628 0.949 . S
H3624 C3630 0.950 . S
H3625 C3631 0.950 . S
H3626 C3632 0.949 . S
C3627 H3622 0.950 . S
C3627 C3629 1.327 . S
C3627 C3633 1.429 . S
C3628 C3620 1.574 . S
C3628 H3623 0.949 . S
C3628 C3634 1.368 1_545 S
C3629 C3613 1.349 . S
C3629 H3621 0.950 . S
C3629 C3627 1.327 . S
C3630 C3618 1.349 . S
C3630 H3624 0.950 . S
C3630 C3631 1.327 . S
C3631 H3625 0.950 . S
C3631 C3630 1.327 . S
C3631 C3635 1.429 . S
C3632 C3615 1.574 . S
C3632 H3626 0.949 . S
C3632 C3636 1.368 1_565 S
C3633 C3614 1.429 . S
C3633 C3627 1.429 . S
C3633 C3634 1.523 . S
C3634 C3615 1.368 . S
C3634 C3628 1.368 1_565 S
C3634 C3633 1.523 . S
C3635 C3619 1.429 . S
C3635 C3631 1.429 . S
C3635 C3636 1.523 . S
C3636 C3620 1.368 . S
C3636 C3632 1.368 1_545 S
C3636 C3635 1.523 . S
H3637 C3612 0.950 . S
H3638 C3614 0.950 1_545 S
H3639 C3615 0.949 . S
H3640 C3617 0.950 . S
H3641 C3619 0.967 . S
C3642 C3643 1.349 . S
C3642 C3644 1.327 . S
C3642 H3667 0.950 . S
C3643 C3642 1.349 . S
C3643 C3659 1.349 . S
C3644 C3642 1.327 . S
C3644 C3663 1.429 . S
C3644 H3668 0.950 . S
C3645 C3662 1.574 . S
C3645 C3664 1.368 . S
C3645 H3669 0.949 . S
H3646 C3650 0.949 . S
C3647 C3648 1.349 . S
C3647 C3649 1.327 . S
C3647 H3670 0.950 . S
C3648 C3647 1.349 . S
C3648 C3660 1.349 . S
C3649 C3647 1.327 . S
C3649 C3665 1.429 . S
C3649 H3671 0.950 . S
C3650 H3646 0.949 . S
C3650 C3658 1.574 . S
C3650 C3666 1.368 . S
H3651 C3659 0.950 . S
H3652 C3657 0.950 . S
H3653 C3658 0.949 . S
H3654 C3660 0.950 . S
H3655 C3661 0.950 . S
H3656 C3662 0.949 . S
C3657 H3652 0.950 . S
C3657 C3659 1.327 . S
C3657 C3663 1.429 . S
C3658 C3650 1.574 . S
C3658 H3653 0.949 . S
C3658 C3664 1.368 . S
C3659 C3643 1.349 . S
C3659 H3651 0.950 . S
C3659 C3657 1.327 . S
C3660 C3648 1.349 . S
C3660 H3654 0.950 . S
C3660 C3661 1.327 . S
C3661 H3655 0.950 . S
C3661 C3660 1.327 . S
C3661 C3665 1.429 . S
C3662 C3645 1.574 . S
C3662 H3656 0.949 . S
C3662 C3666 1.368 . S
C3663 C3644 1.429 . S
C3663 C3657 1.429 . S
C3663 C3664 1.523 . S
C3664 C3645 1.368 . S
C3664 C3658 1.368 . S
C3664 C3663 1.523 . S
C3665 C3649 1.429 . S
C3665 C3661 1.429 . S
C3665 C3666 1.523 . S
C3666 C3650 1.368 . S
C3666 C3662 1.368 . S
C3666 C3665 1.523 . S
H3667 C3642 0.950 . S
H3668 C3644 0.950 . S
H3669 C3645 0.949 . S
H3670 C3647 0.950 . S
H3671 C3649 0.950 . S
C3672 C3673 1.349 . S
C3672 C3674 1.327 . S
C3672 H3697 0.950 . S
C3673 C3672 1.349 . S
C3673 C3689 1.349 . S
C3674 C3672 1.327 . S
C3674 C3693 1.429 . S
C3674 H3698 0.950 . S
C3675 C3692 1.574 . S
C3675 C3694 1.368 . S
C3675 H3699 0.949 . S
H3676 C3680 0.949 . S
C3677 C3678 1.349 . S
C3677 C3679 1.327 . S
C3677 H3700 0.950 . S
C3678 C3677 1.349 . S
C3678 C3690 1.349 . S
C3679 C3677 1.327 . S
C3679 C3695 1.429 . S
C3679 H3701 0.950 . S
C3680 H3676 0.949 . S
C3680 C3688 1.574 . S
C3680 C3696 1.368 . S
H3681 C3689 0.950 . S
H3682 C3687 0.950 . S
H3683 C3688 0.949 . S
H3684 C3690 0.950 . S
H3685 C3691 0.950 . S
H3686 C3692 0.949 . S
C3687 H3682 0.950 . S
C3687 C3689 1.327 . S
C3687 C3693 1.429 . S
C3688 C3680 1.574 . S
C3688 H3683 0.949 . S
C3688 C3694 1.368 . S
C3689 C3673 1.349 . S
C3689 H3681 0.950 . S
C3689 C3687 1.327 . S
C3690 C3678 1.349 . S
C3690 H3684 0.950 . S
C3690 C3691 1.327 . S
C3691 H3685 0.950 . S
C3691 C3690 1.327 . S
C3691 C3695 1.429 . S
C3692 C3675 1.574 . S
C3692 H3686 0.949 . S
C3692 C3696 1.368 . S
C3693 C3674 1.429 . S
C3693 C3687 1.429 . S
C3693 C3694 1.523 . S
C3694 C3675 1.368 . S
C3694 C3688 1.368 . S
C3694 C3693 1.523 . S
C3695 C3679 1.429 . S
C3695 C3691 1.429 . S
C3695 C3696 1.523 . S
C3696 C3680 1.368 . S
C3696 C3692 1.368 . S
C3696 C3695 1.523 . S
H3697 C3672 0.950 . S
H3698 C3674 0.950 . S
H3699 C3675 0.949 . S
H3700 C3677 0.950 . S
H3701 C3679 0.950 . S
C3702 C3703 1.349 . S
C3702 C3704 1.327 . S
C3702 H3727 0.950 . S
C3703 C3702 1.349 . S
C3703 C3719 1.349 . S
C3704 C3702 1.327 . S
C3704 C3723 1.429 . S
C3704 H3728 0.950 . S
C3705 C3722 1.574 . S
C3705 C3724 1.368 . S
C3705 H3729 0.949 . S
H3706 C3710 0.949 . S
C3707 C3708 1.349 . S
C3707 C3709 1.327 . S
C3707 H3730 0.950 . S
C3708 C3707 1.349 . S
C3708 C3720 1.349 . S
C3709 C3707 1.327 . S
C3709 C3725 1.429 . S
C3709 H3731 0.950 . S
C3710 H3706 0.949 . S
C3710 C3718 1.574 . S
C3710 C3726 1.368 . S
H3711 C3719 0.950 . S
H3712 C3717 0.950 . S
H3713 C3718 0.949 . S
H3714 C3720 0.950 . S
H3715 C3721 0.950 . S
H3716 C3722 0.949 . S
C3717 H3712 0.950 . S
C3717 C3719 1.327 . S
C3717 C3723 1.429 . S
C3718 C3710 1.574 . S
C3718 H3713 0.949 . S
C3718 C3724 1.368 . S
C3719 C3703 1.349 . S
C3719 H3711 0.950 . S
C3719 C3717 1.327 . S
C3720 C3708 1.349 . S
C3720 H3714 0.950 . S
C3720 C3721 1.327 . S
C3721 H3715 0.950 . S
C3721 C3720 1.327 . S
C3721 C3725 1.429 . S
C3722 C3705 1.574 . S
C3722 H3716 0.949 . S
C3722 C3726 1.368 . S
C3723 C3704 1.429 . S
C3723 C3717 1.429 . S
C3723 C3724 1.523 . S
C3724 C3705 1.368 . S
C3724 C3718 1.368 . S
C3724 C3723 1.523 . S
C3725 C3709 1.429 . S
C3725 C3721 1.429 . S
C3725 C3726 1.523 . S
C3726 C3710 1.368 . S
C3726 C3722 1.368 . S
C3726 C3725 1.523 . S
H3727 C3702 0.950 . S
H3728 C3704 0.950 . S
H3729 C3705 0.949 . S
H3730 C3707 0.950 . S
H3731 C3709 0.950 . S
C3732 C3733 1.349 . S
C3732 C3734 1.327 . S
C3732 H3757 0.950 . S
C3733 C3732 1.349 . S
C3733 C3749 1.349 . S
C3734 C3732 1.327 . S
C3734 C3753 1.429 . S
C3734 H3758 0.950 . S
C3735 C3752 1.605 . S
C3735 C3754 1.329 1_545 S
C3735 H3759 0.960 . S
H3736 C3740 0.949 . S
C3737 C3738 1.349 . S
C3737 C3739 1.327 . S
C3737 H3760 0.950 . S
C3738 C3737 1.349 . S
C3738 C3750 1.349 . S
C3739 C3737 1.327 . S
C3739 C3755 1.429 . S
C3739 H3761 0.950 . S
C3740 H3736 0.949 . S
C3740 C3748 1.574 . S
C3740 C3756 1.368 1_565 S
H3741 C3749 0.950 . S
H3742 C3747 0.950 . S
H3743 C3748 0.949 . S
H3744 C3750 0.950 . S
H3745 C3751 0.950 . S
H3746 C3752 0.949 . S
C3747 H3742 0.950 . S
C3747 C3749 1.327 . S
C3747 C3753 1.429 . S
C3748 C3740 1.574 . S
C3748 H3743 0.949 . S
C3748 C3754 1.368 . S
C3749 C3733 1.349 . S
C3749 H3741 0.950 . S
C3749 C3747 1.327 . S
C3750 C3738 1.349 . S
C3750 H3744 0.950 . S
C3750 C3751 1.327 . S
C3751 H3745 0.950 . S
C3751 C3750 1.327 . S
C3751 C3755 1.429 . S
C3752 C3735 1.605 . S
C3752 H3746 0.949 . S
C3752 C3756 1.368 . S
C3753 C3734 1.429 . S
C3753 C3747 1.429 . S
C3753 C3754 1.523 . S
C3754 C3735 1.329 1_565 S
C3754 C3748 1.368 . S
C3754 C3753 1.523 . S
C3755 C3739 1.429 . S
C3755 C3751 1.429 . S
C3755 C3756 1.523 . S
C3756 C3740 1.368 1_545 S
C3756 C3752 1.368 . S
C3756 C3755 1.523 . S
H3757 C3732 0.950 . S
H3758 C3734 0.950 . S
H3759 C3735 0.960 . S
H3760 C3737 0.950 . S
H3761 C3739 0.950 . S
C3762 C3763 1.349 . S
C3762 C3764 1.327 . S
C3762 H3787 0.950 . S
C3763 C3762 1.349 . S
C3763 C3779 1.349 . S
C3764 C3762 1.327 . S
C3764 C3783 1.429 1_655 S
C3764 H3788 0.950 1_565 S
C3765 C3782 1.574 . S
C3765 C3784 1.368 . S
C3765 H3789 0.949 . S
H3766 C3770 0.949 . S
C3767 C3768 1.349 . S
C3767 C3769 1.327 . S
C3767 H3790 0.950 . S
C3768 C3767 1.349 . S
C3768 C3780 1.349 . S
C3769 C3767 1.327 . S
C3769 C3785 1.429 . S
C3769 H3791 0.944 1_545 S
C3770 H3766 0.949 . S
C3770 C3778 1.574 . S
C3770 C3786 1.368 . S
H3771 C3779 0.950 . S
H3772 C3777 0.950 . S
H3773 C3778 0.949 . S
H3774 C3780 0.950 . S
H3775 C3781 0.950 . S
H3776 C3782 0.949 . S
C3777 H3772 0.950 . S
C3777 C3779 1.327 1_455 S
C3777 C3783 1.429 . S
C3778 C3770 1.574 . S
C3778 H3773 0.949 . S
C3778 C3784 1.368 1_545 S
C3779 C3763 1.349 . S
C3779 H3771 0.950 . S
C3779 C3777 1.327 1_655 S
C3780 C3768 1.349 . S
C3780 H3774 0.950 . S
C3780 C3781 1.327 . S
C3781 H3775 0.950 . S
C3781 C3780 1.327 . S
C3781 C3785 1.429 . S
C3782 C3765 1.574 . S
C3782 H3776 0.949 . S
C3782 C3786 1.368 1_565 S
C3783 C3764 1.429 1_455 S
C3783 C3777 1.429 . S
C3783 C3784 1.523 . S
C3784 C3765 1.368 . S
C3784 C3778 1.368 1_565 S
C3784 C3783 1.523 . S
C3785 C3769 1.429 . S
C3785 C3781 1.429 . S
C3785 C3786 1.523 . S
C3786 C3770 1.368 . S
C3786 C3782 1.368 1_545 S
C3786 C3785 1.523 . S
H3787 C3762 0.950 . S
H3788 C3764 0.950 1_545 S
H3789 C3765 0.949 . S
H3790 C3767 0.950 . S
H3791 C3769 0.944 1_565 S
C3792 C3793 1.349 . S
C3792 C3794 1.327 . S
C3792 H3817 0.950 . S
C3793 C3792 1.349 . S
C3793 C3809 1.349 . S
C3794 C3792 1.327 . S
C3794 C3813 1.429 . S
C3794 H3818 0.950 . S
C3795 C3812 1.574 . S
C3795 C3814 1.368 . S
C3795 H3819 0.949 . S
H3796 C3800 0.949 . S
C3797 C3798 1.349 . S
C3797 C3799 1.327 . S
C3797 H3820 0.950 . S
C3798 C3797 1.349 . S
C3798 C3810 1.349 . S
C3799 C3797 1.327 . S
C3799 C3815 1.429 . S
C3799 H3821 0.950 . S
C3800 H3796 0.949 . S
C3800 C3808 1.574 . S
C3800 C3816 1.368 . S
H3801 C3809 0.950 . S
H3802 C3807 0.950 . S
H3803 C3808 0.949 . S
H3804 C3810 0.950 . S
H3805 C3811 0.950 . S
H3806 C3812 0.949 . S
C3807 H3802 0.950 . S
C3807 C3809 1.327 . S
C3807 C3813 1.429 . S
C3808 C3800 1.574 . S
C3808 H3803 0.949 . S
C3808 C3814 1.368 . S
C3809 C3793 1.349 . S
C3809 H3801 0.950 . S
C3809 C3807 1.327 . S
C3810 C3798 1.349 . S
C3810 H3804 0.950 . S
C3810 C3811 1.327 . S
C3811 H3805 0.950 . S
C3811 C3810 1.327 . S
C3811 C3815 1.429 . S
C3812 C3795 1.574 . S
C3812 H3806 0.949 . S
C3812 C3816 1.368 . S
C3813 C3794 1.429 . S
C3813 C3807 1.429 . S
C3813 C3814 1.523 . S
C3814 C3795 1.368 . S
C3814 C3808 1.368 . S
C3814 C3813 1.523 . S
C3815 C3799 1.429 . S
C3815 C3811 1.429 . S
C3815 C3816 1.523 . S
C3816 C3800 1.368 . S
C3816 C3812 1.368 . S
C3816 C3815 1.523 . S
H3817 C3792 0.950 . S
H3818 C3794 0.950 . S
H3819 C3795 0.949 . S
H3820 C3797 0.950 . S
H3821 C3799 0.950 . S
C3822 C3823 1.349 . S
C3822 C3824 1.327 . S
C3822 H3847 0.950 . S
C3823 C3822 1.349 . S
C3823 C3839 1.349 . S
C3824 C3822 1.327 . S
C3824 C3843 1.429 . S
C3824 H3848 0.950 . S
C3825 C3842 1.574 . S
C3825 C3844 1.368 . S
C3825 H3849 0.949 . S
H3826 C3830 0.949 . S
C3827 C3828 1.349 . S
C3827 C3829 1.327 . S
C3827 H3850 0.950 . S
C3828 C3827 1.349 . S
C3828 C3840 1.349 . S
C3829 C3827 1.327 . S
C3829 C3845 1.429 . S
C3829 H3851 0.950 . S
C3830 H3826 0.949 . S
C3830 C3838 1.574 . S
C3830 C3846 1.368 . S
H3831 C3839 0.950 . S
H3832 C3837 0.950 . S
H3833 C3838 0.949 . S
H3834 C3840 0.950 . S
H3835 C3841 0.950 . S
H3836 C3842 0.949 . S
C3837 H3832 0.950 . S
C3837 C3839 1.327 . S
C3837 C3843 1.429 . S
C3838 C3830 1.574 . S
C3838 H3833 0.949 . S
C3838 C3844 1.368 . S
C3839 C3823 1.349 . S
C3839 H3831 0.950 . S
C3839 C3837 1.327 . S
C3840 C3828 1.349 . S
C3840 H3834 0.950 . S
C3840 C3841 1.327 . S
C3841 H3835 0.950 . S
C3841 C3840 1.327 . S
C3841 C3845 1.429 . S
C3842 C3825 1.574 . S
C3842 H3836 0.949 . S
C3842 C3846 1.368 . S
C3843 C3824 1.429 . S
C3843 C3837 1.429 . S
C3843 C3844 1.523 . S
C3844 C3825 1.368 . S
C3844 C3838 1.368 . S
C3844 C3843 1.523 . S
C3845 C3829 1.429 . S
C3845 C3841 1.429 . S
C3845 C3846 1.523 . S
C3846 C3830 1.368 . S
C3846 C3842 1.368 . S
C3846 C3845 1.523 . S
H3847 C3822 0.950 . S
H3848 C3824 0.950 . S
H3849 C3825 0.949 . S
H3850 C3827 0.950 . S
H3851 C3829 0.950 . S
C3852 C3853 1.349 . S
C3852 C3854 1.327 . S
C3852 H3877 0.950 . S
C3853 C3852 1.349 . S
C3853 C3869 1.349 . S
C3854 C3852 1.327 . S
C3854 C3873 1.429 . S
C3854 H3878 0.950 . S
C3855 C3872 1.574 . S
C3855 C3874 1.368 . S
C3855 H3879 0.949 . S
H3856 C3860 0.949 . S
C3857 C3858 1.349 . S
C3857 C3859 1.327 . S
C3857 H3880 0.950 . S
C3858 C3857 1.349 . S
C3858 C3870 1.349 . S
C3859 C3857 1.327 . S
C3859 C3875 1.429 . S
C3859 H3881 0.950 . S
C3860 H3856 0.949 . S
C3860 C3868 1.574 . S
C3860 C3876 1.368 . S
H3861 C3869 0.950 . S
H3862 C3867 0.950 . S
H3863 C3868 0.949 . S
H3864 C3870 0.950 . S
H3865 C3871 0.950 . S
H3866 C3872 0.949 . S
C3867 H3862 0.950 . S
C3867 C3869 1.327 . S
C3867 C3873 1.429 . S
C3868 C3860 1.574 . S
C3868 H3863 0.949 . S
C3868 C3874 1.368 . S
C3869 C3853 1.349 . S
C3869 H3861 0.950 . S
C3869 C3867 1.327 . S
C3870 C3858 1.349 . S
C3870 H3864 0.950 . S
C3870 C3871 1.327 . S
C3871 H3865 0.950 . S
C3871 C3870 1.327 . S
C3871 C3875 1.429 . S
C3872 C3855 1.574 . S
C3872 H3866 0.949 . S
C3872 C3876 1.368 . S
C3873 C3854 1.429 . S
C3873 C3867 1.429 . S
C3873 C3874 1.523 . S
C3874 C3855 1.368 . S
C3874 C3868 1.368 . S
C3874 C3873 1.523 . S
C3875 C3859 1.429 . S
C3875 C3871 1.429 . S
C3875 C3876 1.523 . S
C3876 C3860 1.368 . S
C3876 C3872 1.368 . S
C3876 C3875 1.523 . S
H3877 C3852 0.950 . S
H3878 C3854 0.950 . S
H3879 C3855 0.949 . S
H3880 C3857 0.950 . S
H3881 C3859 0.950 . S
C3882 C3883 1.349 . S
C3882 C3884 1.327 . S
C3882 H3907 0.950 . S
C3883 C3882 1.349 . S
C3883 C3899 1.349 . S
C3884 C3882 1.327 . S
C3884 C3903 1.429 . S
C3884 H3908 0.950 . S
C3885 C3902 1.574 . S
C3885 C3904 1.368 . S
C3885 H3909 0.949 . S
H3886 C3890 0.949 . S
C3887 C3888 1.349 . S
C3887 C3889 1.327 . S
C3887 H3910 0.950 . S
C3888 C3887 1.349 . S
C3888 C3900 1.349 . S
C3889 C3887 1.327 . S
C3889 C3905 1.429 . S
C3889 H3911 0.950 . S
C3890 H3886 0.949 . S
C3890 C3898 1.574 . S
C3890 C3906 1.368 . S
H3891 C3899 0.950 . S
H3892 C3897 0.950 . S
H3893 C3898 0.949 . S
H3894 C3900 0.950 . S
H3895 C3901 0.950 . S
H3896 C3902 0.949 . S
C3897 H3892 0.950 . S
C3897 C3899 1.327 . S
C3897 C3903 1.429 . S
C3898 C3890 1.574 . S
C3898 H3893 0.949 . S
C3898 C3904 1.368 . S
C3899 C3883 1.349 . S
C3899 H3891 0.950 . S
C3899 C3897 1.327 . S
C3900 C3888 1.349 . S
C3900 H3894 0.950 . S
C3900 C3901 1.327 . S
C3901 H3895 0.950 . S
C3901 C3900 1.327 . S
C3901 C3905 1.429 . S
C3902 C3885 1.574 . S
C3902 H3896 0.949 . S
C3902 C3906 1.368 . S
C3903 C3884 1.429 . S
C3903 C3897 1.429 . S
C3903 C3904 1.523 . S
C3904 C3885 1.368 . S
C3904 C3898 1.368 . S
C3904 C3903 1.523 . S
C3905 C3889 1.429 . S
C3905 C3901 1.429 . S
C3905 C3906 1.523 . S
C3906 C3890 1.368 . S
C3906 C3902 1.368 . S
C3906 C3905 1.523 . S
H3907 C3882 0.950 . S
H3908 C3884 0.950 . S
H3909 C3885 0.949 . S
H3910 C3887 0.950 . S
H3911 C3889 0.950 . S
C3912 C3913 1.349 . S
C3912 C3914 1.327 . S
C3912 H3937 0.950 . S
C3913 C3912 1.349 . S
C3913 C3929 1.349 . S
C3914 C3912 1.327 . S
C3914 C3933 1.429 . S
C3914 H3938 0.950 . S
C3915 C3932 1.574 . S
C3915 C3934 1.368 . S
C3915 H3939 0.949 . S
H3916 C3920 0.949 . S
C3917 C3918 1.349 . S
C3917 C3919 1.327 . S
C3917 H3940 0.950 . S
C3918 C3917 1.349 . S
C3918 C3930 1.349 . S
C3919 C3917 1.327 . S
C3919 C3935 1.429 . S
C3919 H3941 0.950 . S
C3920 H3916 0.949 . S
C3920 C3928 1.574 . S
C3920 C3936 1.368 . S
H3921 C3929 0.950 . S
H3922 C3927 0.950 . S
H3923 C3928 0.949 . S
H3924 C3930 0.950 . S
H3925 C3931 0.950 . S
H3926 C3932 0.949 . S
C3927 H3922 0.950 . S
C3927 C3929 1.327 . S
C3927 C3933 1.429 . S
C3928 C3920 1.574 . S
C3928 H3923 0.949 . S
C3928 C3934 1.368 . S
C3929 C3913 1.349 . S
C3929 H3921 0.950 . S
C3929 C3927 1.327 . S
C3930 C3918 1.349 . S
C3930 H3924 0.950 . S
C3930 C3931 1.327 . S
C3931 H3925 0.950 . S
C3931 C3930 1.327 . S
C3931 C3935 1.429 . S
C3932 C3915 1.574 . S
C3932 H3926 0.949 . S
C3932 C3936 1.368 . S
C3933 C3914 1.429 . S
C3933 C3927 1.429 . S
C3933 C3934 1.523 . S
C3934 C3915 1.368 . S
C3934 C3928 1.368 . S
C3934 C3933 1.523 . S
C3935 C3919 1.429 . S
C3935 C3931 1.429 . S
C3935 C3936 1.523 . S
C3936 C3920 1.368 . S
C3936 C3932 1.368 . S
C3936 C3935 1.523 . S
H3937 C3912 0.950 . S
H3938 C3914 0.950 . S
H3939 C3915 0.949 . S
H3940 C3917 0.950 . S
H3941 C3919 0.950 . S
C3942 C3943 1.349 . S
C3942 C3944 1.327 . S
C3942 H3967 0.950 . S
C3943 C3942 1.349 . S
C3943 C3959 1.349 . S
C3944 C3942 1.327 . S
C3944 C3963 1.429 . S
C3944 H3968 0.950 . S
C3945 C3962 1.574 . S
C3945 C3964 1.368 . S
C3945 H3969 0.949 . S
H3946 C3950 0.949 . S
C3947 C3948 1.349 . S
C3947 C3949 1.327 . S
C3947 H3970 0.950 . S
C3948 C3947 1.349 . S
C3948 C3960 1.349 . S
C3949 C3947 1.327 . S
C3949 C3965 1.429 . S
C3949 H3971 0.950 . S
C3950 H3946 0.949 . S
C3950 C3958 1.574 . S
C3950 C3966 1.368 . S
H3951 C3959 0.950 . S
H3952 C3957 0.950 . S
H3953 C3958 0.949 . S
H3954 C3960 0.950 . S
H3955 C3961 0.950 . S
H3956 C3962 0.949 . S
C3957 H3952 0.950 . S
C3957 C3959 1.327 . S
C3957 C3963 1.429 . S
C3958 C3950 1.574 . S
C3958 H3953 0.949 . S
C3958 C3964 1.368 . S
C3959 C3943 1.349 . S
C3959 H3951 0.950 . S
C3959 C3957 1.327 . S
C3960 C3948 1.349 . S
C3960 H3954 0.950 . S
C3960 C3961 1.327 . S
C3961 H3955 0.950 . S
C3961 C3960 1.327 . S
C3961 C3965 1.429 . S
C3962 C3945 1.574 . S
C3962 H3956 0.949 . S
C3962 C3966 1.368 . S
C3963 C3944 1.429 . S
C3963 C3957 1.429 . S
C3963 C3964 1.523 . S
C3964 C3945 1.368 . S
C3964 C3958 1.368 . S
C3964 C3963 1.523 . S
C3965 C3949 1.429 . S
C3965 C3961 1.429 . S
C3965 C3966 1.523 . S
C3966 C3950 1.368 . S
C3966 C3962 1.368 . S
C3966 C3965 1.523 . S
H3967 C3942 0.950 . S
H3968 C3944 0.950 . S
H3969 C3945 0.949 . S
H3970 C3947 0.950 . S
H3971 C3949 0.950 . S
C3972 C3973 1.349 . S
C3972 C3974 1.327 . S
C3972 H3997 0.950 . S
C3973 C3972 1.349 . S
C3973 C3989 1.349 . S
C3974 C3972 1.327 . S
C3974 C3993 1.429 . S
C3974 H3998 0.950 . S
C3975 C3992 1.574 . S
C3975 C3994 1.368 . S
C3975 H3999 0.949 . S
H3976 C3980 0.949 . S
C3977 C3978 1.349 . S
C3977 C3979 1.327 . S
C3977 H4000 0.950 . S
C3978 C3977 1.349 . S
C3978 C3990 1.349 . S
C3979 C3977 1.327 . S
C3979 C3995 1.429 . S
C3979 H4001 0.950 . S
C3980 H3976 0.949 . S
C3980 C3988 1.574 . S
C3980 C3996 1.368 . S
H3981 C3989 0.950 . S
H3982 C3987 0.950 . S
H3983 C3988 0.949 . S
H3984 C3990 0.950 . S
H3985 C3991 0.950 . S
H3986 C3992 0.949 . S
C3987 H3982 0.950 . S
C3987 C3989 1.327 . S
C3987 C3993 1.429 . S
C3988 C3980 1.574 . S
C3988 H3983 0.949 . S
C3988 C3994 1.368 . S
C3989 C3973 1.349 . S
C3989 H3981 0.950 . S
C3989 C3987 1.327 . S
C3990 C3978 1.349 . S
C3990 H3984 0.950 . S
C3990 C3991 1.327 . S
C3991 H3985 0.950 . S
C3991 C3990 1.327 . S
C3991 C3995 1.429 . S
C3992 C3975 1.574 . S
C3992 H3986 0.949 . S
C3992 C3996 1.368 . S
C3993 C3974 1.429 . S
C3993 C3987 1.429 . S
C3993 C3994 1.523 . S
C3994 C3975 1.368 . S
C3994 C3988 1.368 . S
C3994 C3993 1.523 . S
C3995 C3979 1.429 . S
C3995 C3991 1.429 . S
C3995 C3996 1.523 . S
C3996 C3980 1.368 . S
C3996 C3992 1.368 . S
C3996 C3995 1.523 . S
H3997 C3972 0.950 . S
H3998 C3974 0.950 . S
H3999 C3975 0.949 . S
H4000 C3977 0.950 . S
H4001 C3979 0.950 . S
C4002 C4003 1.349 . S
C4002 C4004 1.327 . S
C4002 H4027 0.950 . S
C4003 C4002 1.349 . S
C4003 C4019 1.349 . S
C4004 C4002 1.327 . S
C4004 C4023 1.429 . S
C4004 H4028 0.950 . S
C4005 C4022 1.574 . S
C4005 C4024 1.368 . S
C4005 H4029 0.949 . S
H4006 C4010 0.949 . S
C4007 C4008 1.349 . S
C4007 C4009 1.327 . S
C4007 H4030 0.950 . S
C4008 C4007 1.349 . S
C4008 C4020 1.349 . S
C4009 C4007 1.327 . S
C4009 C4025 1.429 . S
C4009 H4031 0.950 . S
C4010 H4006 0.949 . S
C4010 C4018 1.574 . S
C4010 C4026 1.368 . S
H4011 C4019 0.950 . S
H4012 C4017 0.950 . S
H4013 C4018 0.949 . S
H4014 C4020 0.950 . S
H4015 C4021 0.950 . S
H4016 C4022 0.949 . S
C4017 H4012 0.950 . S
C4017 C4019 1.327 . S
C4017 C4023 1.429 . S
C4018 C4010 1.574 . S
C4018 H4013 0.949 . S
C4018 C4024 1.368 . S
C4019 C4003 1.349 . S
C4019 H4011 0.950 . S
C4019 C4017 1.327 . S
C4020 C4008 1.349 . S
C4020 H4014 0.950 . S
C4020 C4021 1.327 . S
C4021 H4015 0.950 . S
C4021 C4020 1.327 . S
C4021 C4025 1.429 . S
C4022 C4005 1.574 . S
C4022 H4016 0.949 . S
C4022 C4026 1.368 . S
C4023 C4004 1.429 . S
C4023 C4017 1.429 . S
C4023 C4024 1.523 . S
C4024 C4005 1.368 . S
C4024 C4018 1.368 . S
C4024 C4023 1.523 . S
C4025 C4009 1.429 . S
C4025 C4021 1.429 . S
C4025 C4026 1.523 . S
C4026 C4010 1.368 . S
C4026 C4022 1.368 . S
C4026 C4025 1.523 . S
H4027 C4002 0.950 . S
H4028 C4004 0.950 . S
H4029 C4005 0.949 . S
H4030 C4007 0.950 . S
H4031 C4009 0.950 . S
C4032 C4033 1.349 . S
C4032 C4034 1.327 . S
C4032 H4057 0.950 . S
C4033 C4032 1.349 . S
C4033 C4049 1.349 . S
C4034 C4032 1.327 . S
C4034 C4053 1.429 . S
C4034 H4058 0.950 . S
C4035 C4052 1.574 . S
C4035 C4054 1.368 . S
C4035 H4059 0.949 . S
H4036 C4040 0.949 . S
C4037 C4038 1.349 . S
C4037 C4039 1.327 . S
C4037 H4060 0.950 . S
C4038 C4037 1.349 . S
C4038 C4050 1.349 . S
C4039 C4037 1.327 . S
C4039 C4055 1.429 . S
C4039 H4061 0.950 . S
C4040 H4036 0.949 . S
C4040 C4048 1.574 . S
C4040 C4056 1.368 . S
H4041 C4049 0.950 . S
H4042 C4047 0.950 . S
H4043 C4048 0.949 . S
H4044 C4050 0.950 . S
H4045 C4051 0.950 . S
H4046 C4052 0.949 . S
C4047 H4042 0.950 . S
C4047 C4049 1.327 . S
C4047 C4053 1.429 . S
C4048 C4040 1.574 . S
C4048 H4043 0.949 . S
C4048 C4054 1.368 . S
C4049 C4033 1.349 . S
C4049 H4041 0.950 . S
C4049 C4047 1.327 . S
C4050 C4038 1.349 . S
C4050 H4044 0.950 . S
C4050 C4051 1.327 . S
C4051 H4045 0.950 . S
C4051 C4050 1.327 . S
C4051 C4055 1.429 . S
C4052 C4035 1.574 . S
C4052 H4046 0.949 . S
C4052 C4056 1.368 . S
C4053 C4034 1.429 . S
C4053 C4047 1.429 . S
C4053 C4054 1.523 . S
C4054 C4035 1.368 . S
C4054 C4048 1.368 . S
C4054 C4053 1.523 . S
C4055 C4039 1.429 . S
C4055 C4051 1.429 . S
C4055 C4056 1.523 . S
C4056 C4040 1.368 . S
C4056 C4052 1.368 . S
C4056 C4055 1.523 . S
H4057 C4032 0.950 . S
H4058 C4034 0.950 . S
H4059 C4035 0.949 . S
H4060 C4037 0.950 . S
H4061 C4039 0.950 . S
C4062 C4063 1.349 . S
C4062 C4064 1.327 . S
C4062 H4087 0.950 . S
C4063 C4062 1.349 . S
C4063 C4079 1.349 . S
C4064 C4062 1.327 . S
C4064 C4083 1.429 . S
C4064 H4088 0.950 . S
C4065 C4082 1.574 . S
C4065 C4084 1.368 . S
C4065 H4089 0.949 . S
H4066 C4070 0.949 . S
C4067 C4068 1.349 . S
C4067 C4069 1.327 . S
C4067 H4090 0.950 . S
C4068 C4067 1.349 . S
C4068 C4080 1.349 . S
C4069 C4067 1.327 . S
C4069 C4085 1.429 . S
C4069 H4091 0.950 . S
C4070 H4066 0.949 . S
C4070 C4078 1.574 . S
C4070 C4086 1.368 . S
H4071 C4079 0.950 . S
H4072 C4077 0.950 . S
H4073 C4078 0.949 . S
H4074 C4080 0.950 . S
H4075 C4081 0.950 . S
H4076 C4082 0.949 . S
C4077 H4072 0.950 . S
C4077 C4079 1.327 . S
C4077 C4083 1.429 . S
C4078 C4070 1.574 . S
C4078 H4073 0.949 . S
C4078 C4084 1.368 . S
C4079 C4063 1.349 . S
C4079 H4071 0.950 . S
C4079 C4077 1.327 . S
C4080 C4068 1.349 . S
C4080 H4074 0.950 . S
C4080 C4081 1.327 . S
C4081 H4075 0.950 . S
C4081 C4080 1.327 . S
C4081 C4085 1.429 . S
C4082 C4065 1.574 . S
C4082 H4076 0.949 . S
C4082 C4086 1.368 . S
C4083 C4064 1.429 . S
C4083 C4077 1.429 . S
C4083 C4084 1.523 . S
C4084 C4065 1.368 . S
C4084 C4078 1.368 . S
C4084 C4083 1.523 . S
C4085 C4069 1.429 . S
C4085 C4081 1.429 . S
C4085 C4086 1.523 . S
C4086 C4070 1.368 . S
C4086 C4082 1.368 . S
C4086 C4085 1.523 . S
H4087 C4062 0.950 . S
H4088 C4064 0.950 . S
H4089 C4065 0.949 . S
H4090 C4067 0.950 . S
H4091 C4069 0.950 . S
C4092 C4093 1.349 . S
C4092 C4094 1.327 . S
C4092 H4117 0.950 . S
C4093 C4092 1.349 . S
C4093 C4109 1.349 . S
C4094 C4092 1.327 . S
C4094 C4113 1.429 . S
C4094 H4118 0.950 . S
C4095 C4112 1.574 . S
C4095 C4114 1.368 . S
C4095 H4119 0.949 . S
H4096 C4100 0.949 . S
C4097 C4098 1.349 . S
C4097 C4099 1.327 . S
C4097 H4120 0.950 . S
C4098 C4097 1.349 . S
C4098 C4110 1.349 . S
C4099 C4097 1.327 . S
C4099 C4115 1.429 . S
C4099 H4121 0.950 . S
C4100 H4096 0.949 . S
C4100 C4108 1.574 . S
C4100 C4116 1.368 . S
H4101 C4109 0.950 . S
H4102 C4107 0.950 . S
H4103 C4108 0.949 . S
H4104 C4110 0.950 . S
H4105 C4111 0.950 . S
H4106 C4112 0.949 . S
C4107 H4102 0.950 . S
C4107 C4109 1.327 . S
C4107 C4113 1.429 . S
C4108 C4100 1.574 . S
C4108 H4103 0.949 . S
C4108 C4114 1.368 . S
C4109 C4093 1.349 . S
C4109 H4101 0.950 . S
C4109 C4107 1.327 . S
C4110 C4098 1.349 . S
C4110 H4104 0.950 . S
C4110 C4111 1.327 . S
C4111 H4105 0.950 . S
C4111 C4110 1.327 . S
C4111 C4115 1.429 . S
C4112 C4095 1.574 . S
C4112 H4106 0.949 . S
C4112 C4116 1.368 . S
C4113 C4094 1.429 . S
C4113 C4107 1.429 . S
C4113 C4114 1.523 . S
C4114 C4095 1.368 . S
C4114 C4108 1.368 . S
C4114 C4113 1.523 . S
C4115 C4099 1.429 . S
C4115 C4111 1.429 . S
C4115 C4116 1.523 . S
C4116 C4100 1.368 . S
C4116 C4112 1.368 . S
C4116 C4115 1.523 . S
H4117 C4092 0.950 . S
H4118 C4094 0.950 . S
H4119 C4095 0.949 . S
H4120 C4097 0.950 . S
H4121 C4099 0.950 . S
C4122 C4123 1.349 . S
C4122 C4124 1.327 . S
C4122 H4147 0.950 . S
C4123 C4122 1.349 . S
C4123 C4139 1.349 . S
C4124 C4122 1.327 . S
C4124 C4143 1.429 . S
C4124 H4148 0.950 . S
C4125 C4142 1.574 . S
C4125 C4144 1.368 . S
C4125 H4149 0.949 . S
H4126 C4130 0.949 . S
C4127 C4128 1.349 . S
C4127 C4129 1.327 . S
C4127 H4150 0.950 . S
C4128 C4127 1.349 . S
C4128 C4140 1.349 . S
C4129 C4127 1.327 . S
C4129 C4145 1.429 . S
C4129 H4151 0.950 . S
C4130 H4126 0.949 . S
C4130 C4138 1.574 . S
C4130 C4146 1.368 . S
H4131 C4139 0.950 . S
H4132 C4137 0.950 . S
H4133 C4138 0.949 . S
H4134 C4140 0.950 . S
H4135 C4141 0.950 . S
H4136 C4142 0.949 . S
C4137 H4132 0.950 . S
C4137 C4139 1.327 . S
C4137 C4143 1.429 . S
C4138 C4130 1.574 . S
C4138 H4133 0.949 . S
C4138 C4144 1.368 . S
C4139 C4123 1.349 . S
C4139 H4131 0.950 . S
C4139 C4137 1.327 . S
C4140 C4128 1.349 . S
C4140 H4134 0.950 . S
C4140 C4141 1.327 . S
C4141 H4135 0.950 . S
C4141 C4140 1.327 . S
C4141 C4145 1.429 . S
C4142 C4125 1.574 . S
C4142 H4136 0.949 . S
C4142 C4146 1.368 . S
C4143 C4124 1.429 . S
C4143 C4137 1.429 . S
C4143 C4144 1.523 . S
C4144 C4125 1.368 . S
C4144 C4138 1.368 . S
C4144 C4143 1.523 . S
C4145 C4129 1.429 . S
C4145 C4141 1.429 . S
C4145 C4146 1.523 . S
C4146 C4130 1.368 . S
C4146 C4142 1.368 . S
C4146 C4145 1.523 . S
H4147 C4122 0.950 . S
H4148 C4124 0.950 . S
H4149 C4125 0.949 . S
H4150 C4127 0.950 . S
H4151 C4129 0.950 . S
C4152 C4153 1.349 . S
C4152 C4154 1.327 . S
C4152 H4177 0.950 . S
C4153 C4152 1.349 . S
C4153 C4169 1.349 . S
C4154 C4152 1.327 . S
C4154 C4173 1.429 . S
C4154 H4178 0.950 . S
C4155 C4172 1.574 . S
C4155 C4174 1.368 . S
C4155 H4179 0.949 . S
H4156 C4160 0.949 . S
C4157 C4158 1.349 . S
C4157 C4159 1.327 . S
C4157 H4180 0.950 . S
C4158 C4157 1.349 . S
C4158 C4170 1.349 . S
C4159 C4157 1.327 . S
C4159 C4175 1.429 . S
C4159 H4181 0.950 . S
C4160 H4156 0.949 . S
C4160 C4168 1.574 . S
C4160 C4176 1.368 . S
H4161 C4169 0.950 . S
H4162 C4167 0.950 . S
H4163 C4168 0.949 . S
H4164 C4170 0.950 . S
H4165 C4171 0.950 . S
H4166 C4172 0.949 . S
C4167 H4162 0.950 . S
C4167 C4169 1.327 . S
C4167 C4173 1.429 . S
C4168 C4160 1.574 . S
C4168 H4163 0.949 . S
C4168 C4174 1.368 . S
C4169 C4153 1.349 . S
C4169 H4161 0.950 . S
C4169 C4167 1.327 . S
C4170 C4158 1.349 . S
C4170 H4164 0.950 . S
C4170 C4171 1.327 . S
C4171 H4165 0.950 . S
C4171 C4170 1.327 . S
C4171 C4175 1.429 . S
C4172 C4155 1.574 . S
C4172 H4166 0.949 . S
C4172 C4176 1.368 . S
C4173 C4154 1.429 . S
C4173 C4167 1.429 . S
C4173 C4174 1.523 . S
C4174 C4155 1.368 . S
C4174 C4168 1.368 . S
C4174 C4173 1.523 . S
C4175 C4159 1.429 . S
C4175 C4171 1.429 . S
C4175 C4176 1.523 . S
C4176 C4160 1.368 . S
C4176 C4172 1.368 . S
C4176 C4175 1.523 . S
H4177 C4152 0.950 . S
H4178 C4154 0.950 . S
H4179 C4155 0.949 . S
H4180 C4157 0.950 . S
H4181 C4159 0.950 . S
C4182 C4183 1.349 . S
C4182 C4184 1.327 . S
C4182 H4207 0.950 . S
C4183 C4182 1.349 . S
C4183 C4199 1.349 . S
C4184 C4182 1.327 . S
C4184 C4203 1.429 . S
C4184 H4208 0.950 . S
C4185 C4202 1.574 . S
C4185 C4204 1.368 . S
C4185 H4209 0.949 . S
H4186 C4190 0.949 . S
C4187 C4188 1.349 . S
C4187 C4189 1.327 . S
C4187 H4210 0.950 . S
C4188 C4187 1.349 . S
C4188 C4200 1.349 . S
C4189 C4187 1.327 . S
C4189 C4205 1.429 . S
C4189 H4211 0.950 . S
C4190 H4186 0.949 . S
C4190 C4198 1.574 . S
C4190 C4206 1.368 . S
H4191 C4199 0.950 . S
H4192 C4197 0.950 . S
H4193 C4198 0.949 . S
H4194 C4200 0.950 . S
H4195 C4201 0.950 . S
H4196 C4202 0.949 . S
C4197 H4192 0.950 . S
C4197 C4199 1.327 . S
C4197 C4203 1.429 . S
C4198 C4190 1.574 . S
C4198 H4193 0.949 . S
C4198 C4204 1.368 . S
C4199 C4183 1.349 . S
C4199 H4191 0.950 . S
C4199 C4197 1.327 . S
C4200 C4188 1.349 . S
C4200 H4194 0.950 . S
C4200 C4201 1.327 . S
C4201 H4195 0.950 . S
C4201 C4200 1.327 . S
C4201 C4205 1.429 . S
C4202 C4185 1.574 . S
C4202 H4196 0.949 . S
C4202 C4206 1.368 . S
C4203 C4184 1.429 . S
C4203 C4197 1.429 . S
C4203 C4204 1.523 . S
C4204 C4185 1.368 . S
C4204 C4198 1.368 . S
C4204 C4203 1.523 . S
C4205 C4189 1.429 . S
C4205 C4201 1.429 . S
C4205 C4206 1.523 . S
C4206 C4190 1.368 . S
C4206 C4202 1.368 . S
C4206 C4205 1.523 . S
H4207 C4182 0.950 . S
H4208 C4184 0.950 . S
H4209 C4185 0.949 . S
H4210 C4187 0.950 . S
H4211 C4189 0.950 . S
C4212 C4213 1.349 . S
C4212 C4214 1.327 . S
C4212 H4237 0.950 . S
C4213 C4212 1.349 . S
C4213 C4229 1.349 . S
C4214 C4212 1.327 . S
C4214 C4233 1.429 . S
C4214 H4238 0.950 . S
C4215 C4232 1.574 . S
C4215 C4234 1.368 . S
C4215 H4239 0.949 . S
H4216 C4220 0.949 . S
C4217 C4218 1.349 . S
C4217 C4219 1.327 . S
C4217 H4240 0.950 . S
C4218 C4217 1.349 . S
C4218 C4230 1.349 . S
C4219 C4217 1.327 . S
C4219 C4235 1.429 . S
C4219 H4241 0.950 . S
C4220 H4216 0.949 . S
C4220 C4228 1.574 . S
C4220 C4236 1.368 . S
H4221 C4229 0.950 . S
H4222 C4227 0.950 . S
H4223 C4228 0.949 . S
H4224 C4230 0.950 . S
H4225 C4231 0.950 . S
H4226 C4232 0.949 . S
C4227 H4222 0.950 . S
C4227 C4229 1.327 . S
C4227 C4233 1.429 . S
C4228 C4220 1.574 . S
C4228 H4223 0.949 . S
C4228 C4234 1.368 . S
C4229 C4213 1.349 . S
C4229 H4221 0.950 . S
C4229 C4227 1.327 . S
C4230 C4218 1.349 . S
C4230 H4224 0.950 . S
C4230 C4231 1.327 . S
C4231 H4225 0.950 . S
C4231 C4230 1.327 . S
C4231 C4235 1.429 . S
C4232 C4215 1.574 . S
C4232 H4226 0.949 . S
C4232 C4236 1.368 . S
C4233 C4214 1.429 . S
C4233 C4227 1.429 . S
C4233 C4234 1.523 . S
C4234 C4215 1.368 . S
C4234 C4228 1.368 . S
C4234 C4233 1.523 . S
C4235 C4219 1.429 . S
C4235 C4231 1.429 . S
C4235 C4236 1.523 . S
C4236 C4220 1.368 . S
C4236 C4232 1.368 . S
C4236 C4235 1.523 . S
H4237 C4212 0.950 . S
H4238 C4214 0.950 . S
H4239 C4215 0.949 . S
H4240 C4217 0.950 . S
H4241 C4219 0.950 . S
C4242 C4243 1.349 . S
C4242 C4244 1.327 . S
C4242 H4267 0.950 . S
C4243 C4242 1.349 . S
C4243 C4259 1.349 . S
C4244 C4242 1.327 . S
C4244 C4263 1.429 . S
C4244 H4268 0.950 . S
C4245 C4262 1.574 . S
C4245 C4264 1.368 . S
C4245 H4269 0.949 . S
H4246 C4250 0.949 . S
C4247 C4248 1.349 . S
C4247 C4249 1.327 . S
C4247 H4270 0.950 . S
C4248 C4247 1.349 . S
C4248 C4260 1.349 . S
C4249 C4247 1.327 . S
C4249 C4265 1.429 . S
C4249 H4271 0.950 . S
C4250 H4246 0.949 . S
C4250 C4258 1.574 . S
C4250 C4266 1.368 . S
H4251 C4259 0.950 . S
H4252 C4257 0.950 . S
H4253 C4258 0.949 . S
H4254 C4260 0.950 . S
H4255 C4261 0.950 . S
H4256 C4262 0.949 . S
C4257 H4252 0.950 . S
C4257 C4259 1.327 . S
C4257 C4263 1.429 . S
C4258 C4250 1.574 . S
C4258 H4253 0.949 . S
C4258 C4264 1.368 . S
C4259 C4243 1.349 . S
C4259 H4251 0.950 . S
C4259 C4257 1.327 . S
C4260 C4248 1.349 . S
C4260 H4254 0.950 . S
C4260 C4261 1.327 . S
C4261 H4255 0.950 . S
C4261 C4260 1.327 . S
C4261 C4265 1.429 . S
C4262 C4245 1.574 . S
C4262 H4256 0.949 . S
C4262 C4266 1.368 . S
C4263 C4244 1.429 . S
C4263 C4257 1.429 . S
C4263 C4264 1.523 . S
C4264 C4245 1.368 . S
C4264 C4258 1.368 . S
C4264 C4263 1.523 . S
C4265 C4249 1.429 . S
C4265 C4261 1.429 . S
C4265 C4266 1.523 . S
C4266 C4250 1.368 . S
C4266 C4262 1.368 . S
C4266 C4265 1.523 . S
H4267 C4242 0.950 . S
H4268 C4244 0.950 . S
H4269 C4245 0.949 . S
H4270 C4247 0.950 . S
H4271 C4249 0.950 . S
C4272 C4273 1.349 . S
C4272 C4274 1.327 . S
C4272 H4297 0.950 . S
C4273 C4272 1.349 . S
C4273 C4289 1.349 . S
C4274 C4272 1.327 . S
C4274 C4293 1.429 . S
C4274 H4298 0.950 . S
C4275 C4292 1.574 . S
C4275 C4294 1.368 . S
C4275 H4299 0.949 . S
H4276 C4280 0.949 . S
C4277 C4278 1.349 . S
C4277 C4279 1.327 . S
C4277 H4300 0.950 . S
C4278 C4277 1.349 . S
C4278 C4290 1.349 . S
C4279 C4277 1.327 . S
C4279 C4295 1.429 . S
C4279 H4301 0.950 . S
C4280 H4276 0.949 . S
C4280 C4288 1.574 . S
C4280 C4296 1.368 . S
H4281 C4289 0.950 . S
H4282 C4287 0.950 . S
H4283 C4288 0.949 . S
H4284 C4290 0.950 . S
H4285 C4291 0.950 . S
H4286 C4292 0.949 . S
C4287 H4282 0.950 . S
C4287 C4289 1.327 . S
C4287 C4293 1.429 . S
C4288 C4280 1.574 . S
C4288 H4283 0.949 . S
C4288 C4294 1.368 . S
C4289 C4273 1.349 . S
C4289 H4281 0.950 . S
C4289 C4287 1.327 . S
C4290 C4278 1.349 . S
C4290 H4284 0.950 . S
C4290 C4291 1.327 . S
C4291 H4285 0.950 . S
C4291 C4290 1.327 . S
C4291 C4295 1.429 . S
C4292 C4275 1.574 . S
C4292 H4286 0.949 . S
C4292 C4296 1.368 . S
C4293 C4274 1.429 . S
C4293 C4287 1.429 . S
C4293 C4294 1.523 . S
C4294 C4275 1.368 . S
C4294 C4288 1.368 . S
C4294 C4293 1.523 . S
C4295 C4279 1.429 . S
C4295 C4291 1.429 . S
C4295 C4296 1.523 . S
C4296 C4280 1.368 . S
C4296 C4292 1.368 . S
C4296 C4295 1.523 . S
H4297 C4272 0.950 . S
H4298 C4274 0.950 . S
H4299 C4275 0.949 . S
H4300 C4277 0.950 . S
H4301 C4279 0.950 . S
C4302 C4303 1.349 . S
C4302 C4304 1.327 . S
C4302 H4327 0.950 . S
C4303 C4302 1.349 . S
C4303 C4319 1.349 . S
C4304 C4302 1.327 . S
C4304 C4323 1.429 . S
C4304 H4328 0.950 . S
C4305 C4322 1.574 . S
C4305 C4324 1.368 . S
C4305 H4329 0.949 . S
H4306 C4310 0.949 . S
C4307 C4308 1.349 . S
C4307 C4309 1.327 . S
C4307 H4330 0.950 . S
C4308 C4307 1.349 . S
C4308 C4320 1.349 . S
C4309 C4307 1.327 . S
C4309 C4325 1.429 . S
C4309 H4331 0.950 . S
C4310 H4306 0.949 . S
C4310 C4318 1.574 . S
C4310 C4326 1.368 . S
H4311 C4319 0.950 . S
H4312 C4317 0.950 . S
H4313 C4318 0.949 . S
H4314 C4320 0.950 . S
H4315 C4321 0.950 . S
H4316 C4322 0.949 . S
C4317 H4312 0.950 . S
C4317 C4319 1.327 . S
C4317 C4323 1.429 . S
C4318 C4310 1.574 . S
C4318 H4313 0.949 . S
C4318 C4324 1.368 . S
C4319 C4303 1.349 . S
C4319 H4311 0.950 . S
C4319 C4317 1.327 . S
C4320 C4308 1.349 . S
C4320 H4314 0.950 . S
C4320 C4321 1.327 . S
C4321 H4315 0.950 . S
C4321 C4320 1.327 . S
C4321 C4325 1.429 . S
C4322 C4305 1.574 . S
C4322 H4316 0.949 . S
C4322 C4326 1.368 . S
C4323 C4304 1.429 . S
C4323 C4317 1.429 . S
C4323 C4324 1.523 . S
C4324 C4305 1.368 . S
C4324 C4318 1.368 . S
C4324 C4323 1.523 . S
C4325 C4309 1.429 . S
C4325 C4321 1.429 . S
C4325 C4326 1.523 . S
C4326 C4310 1.368 . S
C4326 C4322 1.368 . S
C4326 C4325 1.523 . S
H4327 C4302 0.950 . S
H4328 C4304 0.950 . S
H4329 C4305 0.949 . S
H4330 C4307 0.950 . S
H4331 C4309 0.950 . S
C4332 C4333 1.349 . S
C4332 C4334 1.327 . S
C4332 H4357 0.950 . S
C4333 C4332 1.349 . S
C4333 C4349 1.349 . S
C4334 C4332 1.327 . S
C4334 C4353 1.429 . S
C4334 H4358 0.950 . S
C4335 C4352 1.574 . S
C4335 C4354 1.368 . S
C4335 H4359 0.949 . S
H4336 C4340 0.949 . S
C4337 C4338 1.349 . S
C4337 C4339 1.327 . S
C4337 H4360 0.950 . S
C4338 C4337 1.349 . S
C4338 C4350 1.349 . S
C4339 C4337 1.327 . S
C4339 C4355 1.429 . S
C4339 H4361 0.950 . S
C4340 H4336 0.949 . S
C4340 C4348 1.574 . S
C4340 C4356 1.368 . S
H4341 C4349 0.950 . S
H4342 C4347 0.950 . S
H4343 C4348 0.949 . S
H4344 C4350 0.950 . S
H4345 C4351 0.950 . S
H4346 C4352 0.949 . S
C4347 H4342 0.950 . S
C4347 C4349 1.327 . S
C4347 C4353 1.429 . S
C4348 C4340 1.574 . S
C4348 H4343 0.949 . S
C4348 C4354 1.368 . S
C4349 C4333 1.349 . S
C4349 H4341 0.950 . S
C4349 C4347 1.327 . S
C4350 C4338 1.349 . S
C4350 H4344 0.950 . S
C4350 C4351 1.327 . S
C4351 H4345 0.950 . S
C4351 C4350 1.327 . S
C4351 C4355 1.429 . S
C4352 C4335 1.574 . S
C4352 H4346 0.949 . S
C4352 C4356 1.368 . S
C4353 C4334 1.429 . S
C4353 C4347 1.429 . S
C4353 C4354 1.523 . S
C4354 C4335 1.368 . S
C4354 C4348 1.368 . S
C4354 C4353 1.523 . S
C4355 C4339 1.429 . S
C4355 C4351 1.429 . S
C4355 C4356 1.523 . S
C4356 C4340 1.368 . S
C4356 C4352 1.368 . S
C4356 C4355 1.523 . S
H4357 C4332 0.950 . S
H4358 C4334 0.950 . S
H4359 C4335 0.949 . S
H4360 C4337 0.950 . S
H4361 C4339 0.950 . S
C4362 C4363 1.349 . S
C4362 C4364 1.327 . S
C4362 H4387 0.950 . S
C4363 C4362 1.349 . S
C4363 C4379 1.349 . S
C4364 C4362 1.327 . S
C4364 C4383 1.429 . S
C4364 H4388 0.950 . S
C4365 C4382 1.574 . S
C4365 C4384 1.368 . S
C4365 H4389 0.949 . S
H4366 C4370 0.949 . S
C4367 C4368 1.349 . S
C4367 C4369 1.327 . S
C4367 H4390 0.950 . S
C4368 C4367 1.349 . S
C4368 C4380 1.349 . S
C4369 C4367 1.327 . S
C4369 C4385 1.429 . S
C4369 H4391 0.950 . S
C4370 H4366 0.949 . S
C4370 C4378 1.574 . S
C4370 C4386 1.368 . S
H4371 C4379 0.950 . S
H4372 C4377 0.950 . S
H4373 C4378 0.949 . S
H4374 C4380 0.950 . S
H4375 C4381 0.950 . S
H4376 C4382 0.949 . S
C4377 H4372 0.950 . S
C4377 C4379 1.327 . S
C4377 C4383 1.429 . S
C4378 C4370 1.574 . S
C4378 H4373 0.949 . S
C4378 C4384 1.368 . S
C4379 C4363 1.349 . S
C4379 H4371 0.950 . S
C4379 C4377 1.327 . S
C4380 C4368 1.349 . S
C4380 H4374 0.950 . S
C4380 C4381 1.327 . S
C4381 H4375 0.950 . S
C4381 C4380 1.327 . S
C4381 C4385 1.429 . S
C4382 C4365 1.574 . S
C4382 H4376 0.949 . S
C4382 C4386 1.368 . S
C4383 C4364 1.429 . S
C4383 C4377 1.429 . S
C4383 C4384 1.523 . S
C4384 C4365 1.368 . S
C4384 C4378 1.368 . S
C4384 C4383 1.523 . S
C4385 C4369 1.429 . S
C4385 C4381 1.429 . S
C4385 C4386 1.523 . S
C4386 C4370 1.368 . S
C4386 C4382 1.368 . S
C4386 C4385 1.523 . S
H4387 C4362 0.950 . S
H4388 C4364 0.950 . S
H4389 C4365 0.949 . S
H4390 C4367 0.950 . S
H4391 C4369 0.950 . S
C4392 C4393 1.349 . S
C4392 C4394 1.327 . S
C4392 H4417 0.950 . S
C4393 C4392 1.349 . S
C4393 C4409 1.349 . S
C4394 C4392 1.327 . S
C4394 C4413 1.429 . S
C4394 H4418 0.950 . S
C4395 C4412 1.574 . S
C4395 C4414 1.368 . S
C4395 H4419 0.949 . S
H4396 C4400 0.949 . S
C4397 C4398 1.349 . S
C4397 C4399 1.327 . S
C4397 H4420 0.950 . S
C4398 C4397 1.349 . S
C4398 C4410 1.349 . S
C4399 C4397 1.327 . S
C4399 C4415 1.429 . S
C4399 H4421 0.950 . S
C4400 H4396 0.949 . S
C4400 C4408 1.574 . S
C4400 C4416 1.368 . S
H4401 C4409 0.950 . S
H4402 C4407 0.950 . S
H4403 C4408 0.949 . S
H4404 C4410 0.950 . S
H4405 C4411 0.950 . S
H4406 C4412 0.949 . S
C4407 H4402 0.950 . S
C4407 C4409 1.327 . S
C4407 C4413 1.429 . S
C4408 C4400 1.574 . S
C4408 H4403 0.949 . S
C4408 C4414 1.368 . S
C4409 C4393 1.349 . S
C4409 H4401 0.950 . S
C4409 C4407 1.327 . S
C4410 C4398 1.349 . S
C4410 H4404 0.950 . S
C4410 C4411 1.327 . S
C4411 H4405 0.950 . S
C4411 C4410 1.327 . S
C4411 C4415 1.429 . S
C4412 C4395 1.574 . S
C4412 H4406 0.949 . S
C4412 C4416 1.368 . S
C4413 C4394 1.429 . S
C4413 C4407 1.429 . S
C4413 C4414 1.523 . S
C4414 C4395 1.368 . S
C4414 C4408 1.368 . S
C4414 C4413 1.523 . S
C4415 C4399 1.429 . S
C4415 C4411 1.429 . S
C4415 C4416 1.523 . S
C4416 C4400 1.368 . S
C4416 C4412 1.368 . S
C4416 C4415 1.523 . S
H4417 C4392 0.950 . S
H4418 C4394 0.950 . S
H4419 C4395 0.949 . S
H4420 C4397 0.950 . S
H4421 C4399 0.950 . S
C4422 C4423 1.349 . S
C4422 C4424 1.327 . S
C4422 H4447 0.950 . S
C4423 C4422 1.349 . S
C4423 C4439 1.349 . S
C4424 C4422 1.327 . S
C4424 C4443 1.429 . S
C4424 H4448 0.950 . S
C4425 C4442 1.574 . S
C4425 C4444 1.368 . S
C4425 H4449 0.949 . S
H4426 C4430 0.949 . S
C4427 C4428 1.349 . S
C4427 C4429 1.327 . S
C4427 H4450 0.950 . S
C4428 C4427 1.349 . S
C4428 C4440 1.349 . S
C4429 C4427 1.327 . S
C4429 C4445 1.429 . S
C4429 H4451 0.950 . S
C4430 H4426 0.949 . S
C4430 C4438 1.574 . S
C4430 C4446 1.368 . S
H4431 C4439 0.950 . S
H4432 C4437 0.950 . S
H4433 C4438 0.949 . S
H4434 C4440 0.950 . S
H4435 C4441 0.950 . S
H4436 C4442 0.949 . S
C4437 H4432 0.950 . S
C4437 C4439 1.327 . S
C4437 C4443 1.429 . S
C4438 C4430 1.574 . S
C4438 H4433 0.949 . S
C4438 C4444 1.368 . S
C4439 C4423 1.349 . S
C4439 H4431 0.950 . S
C4439 C4437 1.327 . S
C4440 C4428 1.349 . S
C4440 H4434 0.950 . S
C4440 C4441 1.327 . S
C4441 H4435 0.950 . S
C4441 C4440 1.327 . S
C4441 C4445 1.429 . S
C4442 C4425 1.574 . S
C4442 H4436 0.949 . S
C4442 C4446 1.368 . S
C4443 C4424 1.429 . S
C4443 C4437 1.429 . S
C4443 C4444 1.523 . S
C4444 C4425 1.368 . S
C4444 C4438 1.368 . S
C4444 C4443 1.523 . S
C4445 C4429 1.429 . S
C4445 C4441 1.429 . S
C4445 C4446 1.523 . S
C4446 C4430 1.368 . S
C4446 C4442 1.368 . S
C4446 C4445 1.523 . S
H4447 C4422 0.950 . S
H4448 C4424 0.950 . S
H4449 C4425 0.949 . S
H4450 C4427 0.950 . S
H4451 C4429 0.950 . S
C4452 C4453 1.349 . S
C4452 C4454 1.327 . S
C4452 H4477 0.950 . S
C4453 C4452 1.349 . S
C4453 C4469 1.349 . S
C4454 C4452 1.327 . S
C4454 C4473 1.429 . S
C4454 H4478 0.950 . S
C4455 C4472 1.574 . S
C4455 C4474 1.368 . S
C4455 H4479 0.949 . S
H4456 C4460 0.949 . S
C4457 C4458 1.349 . S
C4457 C4459 1.327 . S
C4457 H4480 0.950 . S
C4458 C4457 1.349 . S
C4458 C4470 1.349 . S
C4459 C4457 1.327 . S
C4459 C4475 1.429 . S
C4459 H4481 0.950 . S
C4460 H4456 0.949 . S
C4460 C4468 1.574 . S
C4460 C4476 1.368 . S
H4461 C4469 0.950 . S
H4462 C4467 0.950 . S
H4463 C4468 0.949 . S
H4464 C4470 0.950 . S
H4465 C4471 0.950 . S
H4466 C4472 0.949 . S
C4467 H4462 0.950 . S
C4467 C4469 1.327 . S
C4467 C4473 1.429 . S
C4468 C4460 1.574 . S
C4468 H4463 0.949 . S
C4468 C4474 1.368 . S
C4469 C4453 1.349 . S
C4469 H4461 0.950 . S
C4469 C4467 1.327 . S
C4470 C4458 1.349 . S
C4470 H4464 0.950 . S
C4470 C4471 1.327 . S
C4471 H4465 0.950 . S
C4471 C4470 1.327 . S
C4471 C4475 1.429 . S
C4472 C4455 1.574 . S
C4472 H4466 0.949 . S
C4472 C4476 1.368 . S
C4473 C4454 1.429 . S
C4473 C4467 1.429 . S
C4473 C4474 1.523 . S
C4474 C4455 1.368 . S
C4474 C4468 1.368 . S
C4474 C4473 1.523 . S
C4475 C4459 1.429 . S
C4475 C4471 1.429 . S
C4475 C4476 1.523 . S
C4476 C4460 1.368 . S
C4476 C4472 1.368 . S
C4476 C4475 1.523 . S
H4477 C4452 0.950 . S
H4478 C4454 0.950 . S
H4479 C4455 0.949 . S
H4480 C4457 0.950 . S
H4481 C4459 0.950 . S
C4482 C4483 1.349 . S
C4482 C4484 1.327 . S
C4482 H4507 0.950 . S
C4483 C4482 1.349 . S
C4483 C4499 1.349 . S
C4484 C4482 1.327 . S
C4484 C4503 1.429 . S
C4484 H4508 0.950 . S
C4485 C4502 1.574 . S
C4485 C4504 1.368 . S
C4485 H4509 0.949 . S
H4486 C4490 0.949 . S
C4487 C4488 1.349 . S
C4487 C4489 1.327 . S
C4487 H4510 0.950 . S
C4488 C4487 1.349 . S
C4488 C4500 1.349 . S
C4489 C4487 1.327 . S
C4489 C4505 1.429 . S
C4489 H4511 0.950 . S
C4490 H4486 0.949 . S
C4490 C4498 1.574 . S
C4490 C4506 1.368 . S
H4491 C4499 0.950 . S
H4492 C4497 0.950 . S
H4493 C4498 0.949 . S
H4494 C4500 0.950 . S
H4495 C4501 0.950 . S
H4496 C4502 0.949 . S
C4497 H4492 0.950 . S
C4497 C4499 1.327 . S
C4497 C4503 1.429 . S
C4498 C4490 1.574 . S
C4498 H4493 0.949 . S
C4498 C4504 1.368 . S
C4499 C4483 1.349 . S
C4499 H4491 0.950 . S
C4499 C4497 1.327 . S
C4500 C4488 1.349 . S
C4500 H4494 0.950 . S
C4500 C4501 1.327 . S
C4501 H4495 0.950 . S
C4501 C4500 1.327 . S
C4501 C4505 1.429 . S
C4502 C4485 1.574 . S
C4502 H4496 0.949 . S
C4502 C4506 1.368 . S
C4503 C4484 1.429 . S
C4503 C4497 1.429 . S
C4503 C4504 1.523 . S
C4504 C4485 1.368 . S
C4504 C4498 1.368 . S
C4504 C4503 1.523 . S
C4505 C4489 1.429 . S
C4505 C4501 1.429 . S
C4505 C4506 1.523 . S
C4506 C4490 1.368 . S
C4506 C4502 1.368 . S
C4506 C4505 1.523 . S
H4507 C4482 0.950 . S
H4508 C4484 0.950 . S
H4509 C4485 0.949 . S
H4510 C4487 0.950 . S
H4511 C4489 0.950 . S
C4512 C4513 1.349 . S
C4512 C4514 1.327 . S
C4512 H4537 0.950 . S
C4513 C4512 1.349 . S
C4513 C4529 1.349 . S
C4514 C4512 1.327 . S
C4514 C4533 1.429 . S
C4514 H4538 0.950 . S
C4515 C4532 1.574 1_655 S
C4515 C4534 1.368 . S
C4515 H4539 0.949 . S
H4516 C4520 0.949 . S
C4517 C4518 1.349 . S
C4517 C4519 1.327 . S
C4517 H4540 0.950 . S
C4518 C4517 1.349 . S
C4518 C4530 1.349 . S
C4519 C4517 1.327 . S
C4519 C4535 1.429 . S
C4519 H4541 0.950 . S
C4520 H4516 0.949 . S
C4520 C4528 1.574 1_455 S
C4520 C4536 1.368 . S
H4521 C4529 0.950 . S
H4522 C4527 0.950 . S
H4523 C4528 0.949 . S
H4524 C4530 0.950 . S
H4525 C4531 0.950 . S
H4526 C4532 0.949 . S
C4527 H4522 0.950 . S
C4527 C4529 1.327 . S
C4527 C4533 1.429 . S
C4528 C4520 1.574 1_655 S
C4528 H4523 0.949 . S
C4528 C4534 1.368 . S
C4529 C4513 1.349 . S
C4529 H4521 0.950 . S
C4529 C4527 1.327 . S
C4530 C4518 1.349 . S
C4530 H4524 0.950 . S
C4530 C4531 1.327 . S
C4531 H4525 0.950 . S
C4531 C4530 1.327 . S
C4531 C4535 1.429 . S
C4532 C4515 1.574 1_455 S
C4532 H4526 0.949 . S
C4532 C4536 1.368 . S
C4533 C4514 1.429 . S
C4533 C4527 1.429 . S
C4533 C4534 1.523 . S
C4534 C4515 1.368 . S
C4534 C4528 1.368 . S
C4534 C4533 1.523 . S
C4535 C4519 1.429 . S
C4535 C4531 1.429 . S
C4535 C4536 1.523 . S
C4536 C4520 1.368 . S
C4536 C4532 1.368 . S
C4536 C4535 1.523 . S
H4537 C4512 0.950 . S
H4538 C4514 0.950 . S
H4539 C4515 0.949 . S
H4540 C4517 0.950 . S
H4541 C4519 0.950 . S
C4542 C4543 1.349 . S
C4542 C4544 1.327 . S
C4542 H4567 0.950 . S
C4543 C4542 1.349 . S
C4543 C4559 1.349 . S
C4544 C4542 1.327 . S
C4544 C4563 1.429 . S
C4544 H4568 0.950 . S
C4545 C4562 1.574 . S
C4545 C4564 1.368 1_655 S
C4545 H4569 0.949 . S
H4546 C4550 0.949 . S
C4547 C4548 1.349 . S
C4547 C4549 1.327 . S
C4547 H4570 0.950 . S
C4548 C4547 1.349 . S
C4548 C4560 1.349 . S
C4549 C4547 1.327 . S
C4549 C4565 1.429 . S
C4549 H4571 0.950 . S
C4550 H4546 0.949 . S
C4550 C4558 1.574 . S
C4550 C4566 1.368 1_455 S
H4551 C4559 0.950 . S
H4552 C4557 0.950 . S
H4553 C4558 0.949 . S
H4554 C4560 0.950 . S
H4555 C4561 0.950 . S
H4556 C4562 0.949 . S
C4557 H4552 0.950 . S
C4557 C4559 1.327 . S
C4557 C4563 1.429 . S
C4558 C4550 1.574 . S
C4558 H4553 0.949 . S
C4558 C4564 1.368 . S
C4559 C4543 1.349 . S
C4559 H4551 0.950 . S
C4559 C4557 1.327 . S
C4560 C4548 1.349 . S
C4560 H4554 0.950 . S
C4560 C4561 1.327 . S
C4561 H4555 0.950 . S
C4561 C4560 1.327 . S
C4561 C4565 1.429 . S
C4562 C4545 1.574 . S
C4562 H4556 0.949 . S
C4562 C4566 1.368 . S
C4563 C4544 1.429 . S
C4563 C4557 1.429 . S
C4563 C4564 1.523 . S
C4564 C4545 1.368 1_455 S
C4564 C4558 1.368 . S
C4564 C4563 1.523 . S
C4565 C4549 1.429 . S
C4565 C4561 1.429 . S
C4565 C4566 1.523 . S
C4566 C4550 1.368 1_655 S
C4566 C4562 1.368 . S
C4566 C4565 1.523 . S
H4567 C4542 0.950 . S
H4568 C4544 0.950 . S
H4569 C4545 0.949 . S
H4570 C4547 0.950 . S
H4571 C4549 0.950 . S
C4572 C4573 1.349 . S
C4572 C4574 1.327 . S
C4572 H4597 0.950 . S
C4573 C4572 1.349 . S
C4573 C4589 1.349 . S
C4574 C4572 1.327 . S
C4574 C4593 1.429 . S
C4574 H4598 0.950 . S
C4575 C4592 1.574 . S
C4575 C4594 1.368 . S
C4575 H4599 0.949 . S
H4576 C4580 0.949 . S
C4577 C4578 1.349 . S
C4577 C4579 1.327 . S
C4577 H4600 0.950 . S
C4578 C4577 1.349 . S
C4578 C4590 1.349 . S
C4579 C4577 1.327 . S
C4579 C4595 1.429 . S
C4579 H4601 0.950 . S
C4580 H4576 0.949 . S
C4580 C4588 1.574 . S
C4580 C4596 1.368 . S
H4581 C4589 0.950 . S
H4582 C4587 0.950 . S
H4583 C4588 0.949 . S
H4584 C4590 0.950 . S
H4585 C4591 0.950 . S
H4586 C4592 0.949 . S
C4587 H4582 0.950 . S
C4587 C4589 1.327 . S
C4587 C4593 1.429 . S
C4588 C4580 1.574 . S
C4588 H4583 0.949 . S
C4588 C4594 1.368 . S
C4589 C4573 1.349 . S
C4589 H4581 0.950 . S
C4589 C4587 1.327 . S
C4590 C4578 1.349 . S
C4590 H4584 0.950 . S
C4590 C4591 1.327 . S
C4591 H4585 0.950 . S
C4591 C4590 1.327 . S
C4591 C4595 1.429 . S
C4592 C4575 1.574 . S
C4592 H4586 0.949 . S
C4592 C4596 1.368 . S
C4593 C4574 1.429 . S
C4593 C4587 1.429 . S
C4593 C4594 1.523 . S
C4594 C4575 1.368 . S
C4594 C4588 1.368 . S
C4594 C4593 1.523 . S
C4595 C4579 1.429 . S
C4595 C4591 1.429 . S
C4595 C4596 1.523 . S
C4596 C4580 1.368 . S
C4596 C4592 1.368 . S
C4596 C4595 1.523 . S
H4597 C4572 0.950 . S
H4598 C4574 0.950 . S
H4599 C4575 0.949 . S
H4600 C4577 0.950 . S
H4601 C4579 0.950 . S
C4602 C4603 1.349 . S
C4602 C4604 1.327 . S
C4602 H4627 0.950 . S
C4603 C4602 1.349 . S
C4603 C4619 1.349 . S
C4604 C4602 1.327 . S
C4604 C4623 1.429 . S
C4604 H4628 0.950 . S
C4605 C4622 1.574 . S
C4605 C4624 1.368 . S
C4605 H4629 0.949 . S
H4606 C4610 0.949 . S
C4607 C4608 1.349 . S
C4607 C4609 1.327 . S
C4607 H4630 0.950 . S
C4608 C4607 1.349 . S
C4608 C4620 1.349 . S
C4609 C4607 1.327 . S
C4609 C4625 1.429 . S
C4609 H4631 0.950 . S
C4610 H4606 0.949 . S
C4610 C4618 1.574 . S
C4610 C4626 1.368 . S
H4611 C4619 0.950 . S
H4612 C4617 0.950 . S
H4613 C4618 0.949 . S
H4614 C4620 0.950 . S
H4615 C4621 0.950 . S
H4616 C4622 0.949 . S
C4617 H4612 0.950 . S
C4617 C4619 1.327 . S
C4617 C4623 1.429 . S
C4618 C4610 1.574 . S
C4618 H4613 0.949 . S
C4618 C4624 1.368 . S
C4619 C4603 1.349 . S
C4619 H4611 0.950 . S
C4619 C4617 1.327 . S
C4620 C4608 1.349 . S
C4620 H4614 0.950 . S
C4620 C4621 1.327 . S
C4621 H4615 0.950 . S
C4621 C4620 1.327 . S
C4621 C4625 1.429 . S
C4622 C4605 1.574 . S
C4622 H4616 0.949 . S
C4622 C4626 1.368 . S
C4623 C4604 1.429 . S
C4623 C4617 1.429 . S
C4623 C4624 1.523 . S
C4624 C4605 1.368 . S
C4624 C4618 1.368 . S
C4624 C4623 1.523 . S
C4625 C4609 1.429 . S
C4625 C4621 1.429 . S
C4625 C4626 1.523 . S
C4626 C4610 1.368 . S
C4626 C4622 1.368 . S
C4626 C4625 1.523 . S
H4627 C4602 0.950 . S
H4628 C4604 0.950 . S
H4629 C4605 0.949 . S
H4630 C4607 0.950 . S
H4631 C4609 0.950 . S
C4632 C4633 1.349 . S
C4632 C4634 1.327 . S
C4632 H4657 0.950 . S
C4633 C4632 1.349 . S
C4633 C4649 1.349 . S
C4634 C4632 1.327 . S
C4634 C4653 1.429 . S
C4634 H4658 0.950 . S
C4635 C4652 1.574 1_655 S
C4635 C4654 1.368 . S
C4635 H4659 0.949 . S
H4636 C4640 0.949 . S
C4637 C4638 1.349 . S
C4637 C4639 1.327 . S
C4637 H4660 0.950 . S
C4638 C4637 1.349 . S
C4638 C4650 1.349 . S
C4639 C4637 1.327 . S
C4639 C4655 1.429 . S
C4639 H4661 0.950 . S
C4640 H4636 0.949 . S
C4640 C4648 1.574 1_455 S
C4640 C4656 1.368 . S
H4641 C4649 0.950 . S
H4642 C4647 0.950 . S
H4643 C4648 0.949 . S
H4644 C4650 0.950 . S
H4645 C4651 0.950 . S
H4646 C4652 0.949 . S
C4647 H4642 0.950 . S
C4647 C4649 1.327 . S
C4647 C4653 1.429 . S
C4648 C4640 1.574 1_655 S
C4648 H4643 0.949 . S
C4648 C4654 1.368 . S
C4649 C4633 1.349 . S
C4649 H4641 0.950 . S
C4649 C4647 1.327 . S
C4650 C4638 1.349 . S
C4650 H4644 0.950 . S
C4650 C4651 1.327 . S
C4651 H4645 0.950 . S
C4651 C4650 1.327 . S
C4651 C4655 1.429 . S
C4652 C4635 1.574 1_455 S
C4652 H4646 0.949 . S
C4652 C4656 1.368 . S
C4653 C4634 1.429 . S
C4653 C4647 1.429 . S
C4653 C4654 1.523 . S
C4654 C4635 1.368 . S
C4654 C4648 1.368 . S
C4654 C4653 1.523 . S
C4655 C4639 1.429 . S
C4655 C4651 1.429 . S
C4655 C4656 1.523 . S
C4656 C4640 1.368 . S
C4656 C4652 1.368 . S
C4656 C4655 1.523 . S
H4657 C4632 0.950 . S
H4658 C4634 0.950 . S
H4659 C4635 0.949 . S
H4660 C4637 0.950 . S
H4661 C4639 0.950 . S
C4662 C4663 1.349 . S
C4662 C4664 1.327 . S
C4662 H4687 0.950 . S
C4663 C4662 1.349 . S
C4663 C4679 1.349 . S
C4664 C4662 1.327 . S
C4664 C4683 1.429 . S
C4664 H4688 0.950 . S
C4665 C4682 1.574 . S
C4665 C4684 1.368 . S
C4665 H4689 0.949 . S
H4666 C4670 0.949 . S
C4667 C4668 1.349 . S
C4667 C4669 1.327 . S
C4667 H4690 0.950 . S
C4668 C4667 1.349 . S
C4668 C4680 1.349 . S
C4669 C4667 1.327 . S
C4669 C4685 1.429 . S
C4669 H4691 0.950 . S
C4670 H4666 0.949 . S
C4670 C4678 1.574 . S
C4670 C4686 1.368 . S
H4671 C4679 0.950 . S
H4672 C4677 0.950 . S
H4673 C4678 0.949 . S
H4674 C4680 0.950 . S
H4675 C4681 0.950 . S
H4676 C4682 0.949 . S
C4677 H4672 0.950 . S
C4677 C4679 1.327 . S
C4677 C4683 1.429 . S
C4678 C4670 1.574 . S
C4678 H4673 0.949 . S
C4678 C4684 1.368 . S
C4679 C4663 1.349 . S
C4679 H4671 0.950 . S
C4679 C4677 1.327 . S
C4680 C4668 1.349 . S
C4680 H4674 0.950 . S
C4680 C4681 1.327 . S
C4681 H4675 0.950 . S
C4681 C4680 1.327 . S
C4681 C4685 1.429 . S
C4682 C4665 1.574 . S
C4682 H4676 0.949 . S
C4682 C4686 1.368 . S
C4683 C4664 1.429 . S
C4683 C4677 1.429 . S
C4683 C4684 1.523 . S
C4684 C4665 1.368 . S
C4684 C4678 1.368 . S
C4684 C4683 1.523 . S
C4685 C4669 1.429 . S
C4685 C4681 1.429 . S
C4685 C4686 1.523 . S
C4686 C4670 1.368 . S
C4686 C4682 1.368 . S
C4686 C4685 1.523 . S
H4687 C4662 0.950 . S
H4688 C4664 0.950 . S
H4689 C4665 0.949 . S
H4690 C4667 0.950 . S
H4691 C4669 0.950 . S
C4692 C4693 1.349 . S
C4692 C4694 1.327 . S
C4692 H4717 0.950 . S
C4693 C4692 1.349 . S
C4693 C4709 1.349 . S
C4694 C4692 1.327 . S
C4694 C4713 1.429 . S
C4694 H4718 0.950 . S
C4695 C4712 1.574 . S
C4695 C4714 1.368 . S
C4695 H4719 0.949 . S
H4696 C4700 0.949 . S
C4697 C4698 1.349 . S
C4697 C4699 1.327 . S
C4697 H4720 0.950 . S
C4698 C4697 1.349 . S
C4698 C4710 1.349 . S
C4699 C4697 1.327 . S
C4699 C4715 1.429 . S
C4699 H4721 0.950 . S
C4700 H4696 0.949 . S
C4700 C4708 1.574 . S
C4700 C4716 1.368 . S
H4701 C4709 0.950 . S
H4702 C4707 0.950 . S
H4703 C4708 0.949 . S
H4704 C4710 0.950 . S
H4705 C4711 0.950 . S
H4706 C4712 0.949 . S
C4707 H4702 0.950 . S
C4707 C4709 1.327 . S
C4707 C4713 1.429 . S
C4708 C4700 1.574 . S
C4708 H4703 0.949 . S
C4708 C4714 1.368 . S
C4709 C4693 1.349 . S
C4709 H4701 0.950 . S
C4709 C4707 1.327 . S
C4710 C4698 1.349 . S
C4710 H4704 0.950 . S
C4710 C4711 1.327 . S
C4711 H4705 0.950 . S
C4711 C4710 1.327 . S
C4711 C4715 1.429 . S
C4712 C4695 1.574 . S
C4712 H4706 0.949 . S
C4712 C4716 1.368 . S
C4713 C4694 1.429 . S
C4713 C4707 1.429 . S
C4713 C4714 1.523 . S
C4714 C4695 1.368 . S
C4714 C4708 1.368 . S
C4714 C4713 1.523 . S
C4715 C4699 1.429 . S
C4715 C4711 1.429 . S
C4715 C4716 1.523 . S
C4716 C4700 1.368 . S
C4716 C4712 1.368 . S
C4716 C4715 1.523 . S
H4717 C4692 0.950 . S
H4718 C4694 0.950 . S
H4719 C4695 0.949 . S
H4720 C4697 0.950 . S
H4721 C4699 0.950 . S
C4722 C4723 1.349 . S
C4722 C4724 1.327 . S
C4722 H4747 0.950 . S
C4723 C4722 1.349 . S
C4723 C4739 1.349 . S
C4724 C4722 1.327 . S
C4724 C4743 1.429 . S
C4724 H4748 0.950 . S
C4725 C4742 1.574 . S
C4725 C4744 1.368 . S
C4725 H4749 0.949 . S
H4726 C4730 0.949 . S
C4727 C4728 1.349 . S
C4727 C4729 1.327 . S
C4727 H4750 0.950 . S
C4728 C4727 1.349 . S
C4728 C4740 1.349 . S
C4729 C4727 1.327 . S
C4729 C4745 1.429 . S
C4729 H4751 0.950 . S
C4730 H4726 0.949 . S
C4730 C4738 1.574 . S
C4730 C4746 1.368 . S
H4731 C4739 0.950 . S
H4732 C4737 0.950 . S
H4733 C4738 0.949 . S
H4734 C4740 0.950 . S
H4735 C4741 0.950 . S
H4736 C4742 0.949 . S
C4737 H4732 0.950 . S
C4737 C4739 1.327 . S
C4737 C4743 1.429 . S
C4738 C4730 1.574 . S
C4738 H4733 0.949 . S
C4738 C4744 1.368 1_655 S
C4739 C4723 1.349 . S
C4739 H4731 0.950 . S
C4739 C4737 1.327 . S
C4740 C4728 1.349 . S
C4740 H4734 0.950 . S
C4740 C4741 1.327 . S
C4741 H4735 0.950 . S
C4741 C4740 1.327 . S
C4741 C4745 1.429 . S
C4742 C4725 1.574 . S
C4742 H4736 0.949 . S
C4742 C4746 1.368 1_455 S
C4743 C4724 1.429 . S
C4743 C4737 1.429 . S
C4743 C4744 1.523 . S
C4744 C4725 1.368 . S
C4744 C4738 1.368 1_455 S
C4744 C4743 1.523 . S
C4745 C4729 1.429 . S
C4745 C4741 1.429 . S
C4745 C4746 1.523 . S
C4746 C4730 1.368 . S
C4746 C4742 1.368 1_655 S
C4746 C4745 1.523 . S
H4747 C4722 0.950 . S
H4748 C4724 0.950 . S
H4749 C4725 0.949 . S
H4750 C4727 0.950 . S
H4751 C4729 0.950 . S
C4752 C4753 1.349 . S
C4752 C4754 1.327 . S
C4752 H4777 0.950 . S
C4753 C4752 1.349 . S
C4753 C4769 1.349 . S
C4754 C4752 1.327 . S
C4754 C4773 1.429 . S
C4754 H4778 0.950 . S
C4755 C4772 1.574 1_545 S
C4755 C4774 1.368 . S
C4755 H4779 0.949 . S
H4756 C4760 0.949 . S
C4757 C4758 1.349 . S
C4757 C4759 1.327 . S
C4757 H4780 0.950 . S
C4758 C4757 1.349 . S
C4758 C4770 1.349 . S
C4759 C4757 1.327 . S
C4759 C4775 1.429 . S
C4759 H4781 0.950 . S
C4760 H4756 0.949 . S
C4760 C4768 1.574 1_565 S
C4760 C4776 1.368 . S
H4761 C4769 0.950 . S
H4762 C4767 0.950 . S
H4763 C4768 0.949 . S
H4764 C4770 0.950 . S
H4765 C4771 0.950 . S
H4766 C4772 0.949 . S
C4767 H4762 0.950 . S
C4767 C4769 1.327 . S
C4767 C4773 1.429 . S
C4768 C4760 1.574 1_545 S
C4768 H4763 0.949 . S
C4768 C4774 1.368 . S
C4769 C4753 1.349 . S
C4769 H4761 0.950 . S
C4769 C4767 1.327 . S
C4770 C4758 1.349 . S
C4770 H4764 0.950 . S
C4770 C4771 1.327 . S
C4771 H4765 0.950 . S
C4771 C4770 1.327 . S
C4771 C4775 1.429 . S
C4772 C4755 1.574 1_565 S
C4772 H4766 0.949 . S
C4772 C4776 1.368 . S
C4773 C4754 1.429 . S
C4773 C4767 1.429 . S
C4773 C4774 1.523 . S
C4774 C4755 1.368 . S
C4774 C4768 1.368 . S
C4774 C4773 1.523 . S
C4775 C4759 1.429 . S
C4775 C4771 1.429 . S
C4775 C4776 1.523 . S
C4776 C4760 1.368 . S
C4776 C4772 1.368 . S
C4776 C4775 1.523 . S
H4777 C4752 0.950 . S
H4778 C4754 0.950 . S
H4779 C4755 0.949 . S
H4780 C4757 0.950 . S
H4781 C4759 0.950 . S
C4782 C4783 1.349 . S
C4782 C4784 1.327 . S
C4782 H4807 0.950 . S
C4783 C4782 1.349 . S
C4783 C4799 1.349 . S
C4784 C4782 1.327 . S
C4784 C4803 1.429 . S
C4784 H4808 0.950 . S
C4785 C4802 1.574 . S
C4785 C4804 1.368 . S
C4785 H4809 0.949 . S
H4786 C4790 0.949 . S
C4787 C4788 1.349 . S
C4787 C4789 1.327 . S
C4787 H4810 0.950 . S
C4788 C4787 1.349 . S
C4788 C4800 1.349 . S
C4789 C4787 1.327 . S
C4789 C4805 1.429 . S
C4789 H4811 0.950 . S
C4790 H4786 0.949 . S
C4790 C4798 1.574 . S
C4790 C4806 1.368 . S
H4791 C4799 0.950 . S
H4792 C4797 0.950 . S
H4793 C4798 0.949 . S
H4794 C4800 0.950 . S
H4795 C4801 0.950 . S
H4796 C4802 0.949 . S
C4797 H4792 0.950 . S
C4797 C4799 1.327 . S
C4797 C4803 1.429 . S
C4798 C4790 1.574 . S
C4798 H4793 0.949 . S
C4798 C4804 1.368 . S
C4799 C4783 1.349 . S
C4799 H4791 0.950 . S
C4799 C4797 1.327 . S
C4800 C4788 1.349 . S
C4800 H4794 0.950 . S
C4800 C4801 1.327 . S
C4801 H4795 0.950 . S
C4801 C4800 1.327 . S
C4801 C4805 1.429 . S
C4802 C4785 1.574 . S
C4802 H4796 0.949 . S
C4802 C4806 1.368 . S
C4803 C4784 1.429 . S
C4803 C4797 1.429 . S
C4803 C4804 1.523 . S
C4804 C4785 1.368 . S
C4804 C4798 1.368 . S
C4804 C4803 1.523 . S
C4805 C4789 1.429 . S
C4805 C4801 1.429 . S
C4805 C4806 1.523 . S
C4806 C4790 1.368 . S
C4806 C4802 1.368 . S
C4806 C4805 1.523 . S
H4807 C4782 0.950 . S
H4808 C4784 0.950 . S
H4809 C4785 0.949 . S
H4810 C4787 0.950 . S
H4811 C4789 0.950 . S
C4812 C4813 1.349 . S
C4812 C4814 1.327 . S
C4812 H4837 0.950 . S
C4813 C4812 1.349 . S
C4813 C4829 1.349 . S
C4814 C4812 1.327 . S
C4814 C4833 1.429 . S
C4814 H4838 0.950 . S
C4815 C4832 1.574 1_565 S
C4815 C4834 1.368 . S
C4815 H4839 0.949 . S
H4816 C4820 0.949 . S
C4817 C4818 1.349 . S
C4817 C4819 1.327 . S
C4817 H4840 0.950 . S
C4818 C4817 1.349 . S
C4818 C4830 1.349 . S
C4819 C4817 1.327 . S
C4819 C4835 1.429 . S
C4819 H4841 0.950 . S
C4820 H4816 0.949 . S
C4820 C4828 1.574 1_545 S
C4820 C4836 1.368 . S
H4821 C4829 0.950 . S
H4822 C4827 0.950 . S
H4823 C4828 0.949 . S
H4824 C4830 0.950 . S
H4825 C4831 0.950 . S
H4826 C4832 0.949 . S
C4827 H4822 0.950 . S
C4827 C4829 1.327 . S
C4827 C4833 1.429 . S
C4828 C4820 1.574 1_565 S
C4828 H4823 0.949 . S
C4828 C4834 1.368 . S
C4829 C4813 1.349 . S
C4829 H4821 0.950 . S
C4829 C4827 1.327 . S
C4830 C4818 1.349 . S
C4830 H4824 0.950 . S
C4830 C4831 1.327 . S
C4831 H4825 0.950 . S
C4831 C4830 1.327 . S
C4831 C4835 1.429 . S
C4832 C4815 1.574 1_545 S
C4832 H4826 0.949 . S
C4832 C4836 1.368 . S
C4833 C4814 1.429 . S
C4833 C4827 1.429 . S
C4833 C4834 1.523 . S
C4834 C4815 1.368 . S
C4834 C4828 1.368 . S
C4834 C4833 1.523 . S
C4835 C4819 1.429 . S
C4835 C4831 1.429 . S
C4835 C4836 1.523 . S
C4836 C4820 1.368 . S
C4836 C4832 1.368 . S
C4836 C4835 1.523 . S
H4837 C4812 0.950 . S
H4838 C4814 0.950 . S
H4839 C4815 0.949 . S
H4840 C4817 0.950 . S
H4841 C4819 0.950 . S
C4842 C4843 1.349 . S
C4842 C4844 1.327 . S
C4842 H4867 0.950 . S
C4843 C4842 1.349 . S
C4843 C4859 1.349 . S
C4844 C4842 1.327 . S
C4844 C4863 1.429 . S
C4844 H4868 0.950 . S
C4845 C4862 1.574 . S
C4845 C4864 1.368 . S
C4845 H4869 0.949 . S
H4846 C4850 0.949 . S
C4847 C4848 1.349 . S
C4847 C4849 1.327 . S
C4847 H4870 0.950 . S
C4848 C4847 1.349 . S
C4848 C4860 1.349 . S
C4849 C4847 1.327 . S
C4849 C4865 1.429 . S
C4849 H4871 0.950 . S
C4850 H4846 0.949 . S
C4850 C4858 1.574 . S
C4850 C4866 1.368 . S
H4851 C4859 0.950 . S
H4852 C4857 0.950 . S
H4853 C4858 0.949 . S
H4854 C4860 0.950 . S
H4855 C4861 0.950 . S
H4856 C4862 0.949 . S
C4857 H4852 0.950 . S
C4857 C4859 1.327 . S
C4857 C4863 1.429 . S
C4858 C4850 1.574 . S
C4858 H4853 0.949 . S
C4858 C4864 1.368 1_554 S
C4859 C4843 1.349 . S
C4859 H4851 0.950 . S
C4859 C4857 1.327 . S
C4860 C4848 1.349 . S
C4860 H4854 0.950 . S
C4860 C4861 1.327 . S
C4861 H4855 0.950 . S
C4861 C4860 1.327 . S
C4861 C4865 1.429 . S
C4862 C4845 1.574 . S
C4862 H4856 0.949 . S
C4862 C4866 1.368 1_556 S
C4863 C4844 1.429 . S
C4863 C4857 1.429 . S
C4863 C4864 1.523 . S
C4864 C4845 1.368 . S
C4864 C4858 1.368 1_556 S
C4864 C4863 1.523 . S
C4865 C4849 1.429 . S
C4865 C4861 1.429 . S
C4865 C4866 1.523 . S
C4866 C4850 1.368 . S
C4866 C4862 1.368 1_554 S
C4866 C4865 1.523 . S
H4867 C4842 0.950 . S
H4868 C4844 0.950 . S
H4869 C4845 0.949 . S
H4870 C4847 0.950 . S
H4871 C4849 0.950 . S
C4872 C4873 1.349 . S
C4872 C4874 1.327 . S
C4872 H4897 0.950 . S
C4873 C4872 1.349 . S
C4873 C4889 1.349 . S
C4874 C4872 1.327 . S
C4874 C4893 1.429 . S
C4874 H4898 0.950 . S
C4875 C4892 1.574 1_556 S
C4875 C4894 1.368 . S
C4875 H4899 0.949 . S
H4876 C4880 0.949 . S
C4877 C4878 1.349 . S
C4877 C4879 1.327 . S
C4877 H4900 0.950 . S
C4878 C4877 1.349 . S
C4878 C4890 1.349 . S
C4879 C4877 1.327 . S
C4879 C4895 1.429 . S
C4879 H4901 0.950 . S
C4880 H4876 0.949 . S
C4880 C4888 1.574 1_554 S
C4880 C4896 1.368 . S
H4881 C4889 0.950 . S
H4882 C4887 0.950 . S
H4883 C4888 0.949 . S
H4884 C4890 0.950 . S
H4885 C4891 0.950 . S
H4886 C4892 0.949 . S
C4887 H4882 0.950 . S
C4887 C4889 1.327 . S
C4887 C4893 1.429 . S
C4888 C4880 1.574 1_556 S
C4888 H4883 0.949 . S
C4888 C4894 1.368 . S
C4889 C4873 1.349 . S
C4889 H4881 0.950 . S
C4889 C4887 1.327 . S
C4890 C4878 1.349 . S
C4890 H4884 0.950 . S
C4890 C4891 1.327 . S
C4891 H4885 0.950 . S
C4891 C4890 1.327 . S
C4891 C4895 1.429 . S
C4892 C4875 1.574 1_554 S
C4892 H4886 0.949 . S
C4892 C4896 1.368 . S
C4893 C4874 1.429 . S
C4893 C4887 1.429 . S
C4893 C4894 1.523 . S
C4894 C4875 1.368 . S
C4894 C4888 1.368 . S
C4894 C4893 1.523 . S
C4895 C4879 1.429 . S
C4895 C4891 1.429 . S
C4895 C4896 1.523 . S
C4896 C4880 1.368 . S
C4896 C4892 1.368 . S
C4896 C4895 1.523 . S
H4897 C4872 0.950 . S
H4898 C4874 0.950 . S
H4899 C4875 0.949 . S
H4900 C4877 0.950 . S
H4901 C4879 0.950 . S
C4902 C4903 1.349 . S
C4902 C4904 1.327 . S
C4902 H4927 0.950 . S
C4903 C4902 1.349 . S
C4903 C4919 1.349 . S
C4904 C4902 1.327 . S
C4904 C4923 1.429 . S
C4904 H4928 0.950 . S
C4905 C4922 1.574 1_554 S
C4905 C4924 1.368 . S
C4905 H4929 0.949 . S
H4906 C4910 0.949 . S
C4907 C4908 1.349 . S
C4907 C4909 1.327 . S
C4907 H4930 0.950 . S
C4908 C4907 1.349 . S
C4908 C4920 1.349 . S
C4909 C4907 1.327 . S
C4909 C4925 1.429 . S
C4909 H4931 0.950 . S
C4910 H4906 0.949 . S
C4910 C4918 1.574 1_556 S
C4910 C4926 1.368 . S
H4911 C4919 0.950 . S
H4912 C4917 0.950 . S
H4913 C4918 0.949 . S
H4914 C4920 0.950 . S
H4915 C4921 0.950 . S
H4916 C4922 0.949 . S
C4917 H4912 0.950 . S
C4917 C4919 1.327 . S
C4917 C4923 1.429 . S
C4918 C4910 1.574 1_554 S
C4918 H4913 0.949 . S
C4918 C4924 1.368 . S
C4919 C4903 1.349 . S
C4919 H4911 0.950 . S
C4919 C4917 1.327 . S
C4920 C4908 1.349 . S
C4920 H4914 0.950 . S
C4920 C4921 1.327 . S
C4921 H4915 0.950 . S
C4921 C4920 1.327 . S
C4921 C4925 1.429 . S
C4922 C4905 1.574 1_556 S
C4922 H4916 0.949 . S
C4922 C4926 1.368 . S
C4923 C4904 1.429 . S
C4923 C4917 1.429 . S
C4923 C4924 1.523 . S
C4924 C4905 1.368 . S
C4924 C4918 1.368 . S
C4924 C4923 1.523 . S
C4925 C4909 1.429 . S
C4925 C4921 1.429 . S
C4925 C4926 1.523 . S
C4926 C4910 1.368 . S
C4926 C4922 1.368 . S
C4926 C4925 1.523 . S
H4927 C4902 0.950 . S
H4928 C4904 0.950 . S
H4929 C4905 0.949 . S
H4930 C4907 0.950 . S
H4931 C4909 0.950 . S
C4932 C4933 1.349 . S
C4932 C4934 1.327 . S
C4932 H4957 0.950 . S
C4933 C4932 1.349 . S
C4933 C4949 1.349 . S
C4934 C4932 1.327 . S
C4934 C4953 1.429 . S
C4934 H4958 0.950 . S
C4935 C4952 1.574 . S
C4935 C4954 1.368 . S
C4935 H4959 0.949 . S
H4936 C4940 0.949 . S
C4937 C4938 1.349 . S
C4937 C4939 1.327 . S
C4937 H4960 0.950 . S
C4938 C4937 1.349 . S
C4938 C4950 1.349 . S
C4939 C4937 1.327 . S
C4939 C4955 1.429 . S
C4939 H4961 0.950 . S
C4940 H4936 0.949 . S
C4940 C4948 1.574 . S
C4940 C4956 1.368 . S
H4941 C4949 0.950 . S
H4942 C4947 0.950 . S
H4943 C4948 0.949 . S
H4944 C4950 0.950 . S
H4945 C4951 0.950 . S
H4946 C4952 0.949 . S
C4947 H4942 0.950 . S
C4947 C4949 1.327 . S
C4947 C4953 1.429 . S
C4948 C4940 1.574 . S
C4948 H4943 0.949 . S
C4948 C4954 1.368 . S
C4949 C4933 1.349 . S
C4949 H4941 0.950 . S
C4949 C4947 1.327 . S
C4950 C4938 1.349 . S
C4950 H4944 0.950 . S
C4950 C4951 1.327 . S
C4951 H4945 0.950 . S
C4951 C4950 1.327 . S
C4951 C4955 1.429 . S
C4952 C4935 1.574 . S
C4952 H4946 0.949 . S
C4952 C4956 1.368 . S
C4953 C4934 1.429 . S
C4953 C4947 1.429 . S
C4953 C4954 1.523 . S
C4954 C4935 1.368 . S
C4954 C4948 1.368 . S
C4954 C4953 1.523 . S
C4955 C4939 1.429 . S
C4955 C4951 1.429 . S
C4955 C4956 1.523 . S
C4956 C4940 1.368 . S
C4956 C4952 1.368 . S
C4956 C4955 1.523 . S
H4957 C4932 0.950 . S
H4958 C4934 0.950 . S
H4959 C4935 0.949 . S
H4960 C4937 0.950 . S
H4961 C4939 0.950 . S
C4962 C4963 1.349 . S
C4962 C4964 1.327 . S
C4962 H4987 0.950 . S
C4963 C4962 1.349 . S
C4963 C4979 1.349 . S
C4964 C4962 1.327 . S
C4964 C4983 1.429 . S
C4964 H4988 0.950 . S
C4965 C4982 1.574 . S
C4965 C4984 1.368 . S
C4965 H4989 0.949 . S
H4966 C4970 0.949 . S
C4967 C4968 1.349 . S
C4967 C4969 1.327 . S
C4967 H4990 0.950 . S
C4968 C4967 1.349 . S
C4968 C4980 1.349 . S
C4969 C4967 1.327 . S
C4969 C4985 1.429 . S
C4969 H4991 0.950 . S
C4970 H4966 0.949 . S
C4970 C4978 1.574 . S
C4970 C4986 1.368 . S
H4971 C4979 0.950 . S
H4972 C4977 0.950 . S
H4973 C4978 0.949 . S
H4974 C4980 0.950 . S
H4975 C4981 0.950 . S
H4976 C4982 0.949 . S
C4977 H4972 0.950 . S
C4977 C4979 1.327 . S
C4977 C4983 1.429 . S
C4978 C4970 1.574 . S
C4978 H4973 0.949 . S
C4978 C4984 1.368 . S
C4979 C4963 1.349 . S
C4979 H4971 0.950 . S
C4979 C4977 1.327 . S
C4980 C4968 1.349 . S
C4980 H4974 0.950 . S
C4980 C4981 1.327 . S
C4981 H4975 0.950 . S
C4981 C4980 1.327 . S
C4981 C4985 1.429 . S
C4982 C4965 1.574 . S
C4982 H4976 0.949 . S
C4982 C4986 1.368 . S
C4983 C4964 1.429 . S
C4983 C4977 1.429 . S
C4983 C4984 1.523 . S
C4984 C4965 1.368 . S
C4984 C4978 1.368 . S
C4984 C4983 1.523 . S
C4985 C4969 1.429 . S
C4985 C4981 1.429 . S
C4985 C4986 1.523 . S
C4986 C4970 1.368 . S
C4986 C4982 1.368 . S
C4986 C4985 1.523 . S
H4987 C4962 0.950 . S
H4988 C4964 0.950 . S
H4989 C4965 0.949 . S
H4990 C4967 0.950 . S
H4991 C4969 0.950 . S
C4992 C4993 1.349 . S
C4992 C4994 1.327 . S
C4992 H5017 0.950 . S
C4993 C4992 1.349 . S
C4993 C5009 1.349 . S
C4994 C4992 1.327 . S
C4994 C5013 1.429 . S
C4994 H5018 0.950 . S
C4995 C5012 1.574 . S
C4995 C5014 1.368 1_565 S
C4995 H5019 0.949 . S
H4996 C5000 0.949 . S
C4997 C4998 1.349 . S
C4997 C4999 1.327 . S
C4997 H5020 0.950 . S
C4998 C4997 1.349 . S
C4998 C5010 1.349 . S
C4999 C4997 1.327 . S
C4999 C5015 1.429 . S
C4999 H5021 0.950 . S
C5000 H4996 0.949 . S
C5000 C5008 1.574 . S
C5000 C5016 1.368 1_545 S
H5001 C5009 0.950 . S
H5002 C5007 0.950 1_565 S
H5003 C5008 0.949 . S
H5004 C5010 0.950 . S
H5005 C5011 0.950 1_545 S
H5006 C5012 0.949 . S
C5007 H5002 0.950 1_545 S
C5007 C5009 1.327 . S
C5007 C5013 1.429 . S
C5008 C5000 1.574 . S
C5008 H5003 0.949 . S
C5008 C5014 1.368 . S
C5009 C4993 1.349 . S
C5009 H5001 0.950 . S
C5009 C5007 1.327 . S
C5010 C4998 1.349 . S
C5010 H5004 0.950 . S
C5010 C5011 1.327 . S
C5011 H5005 0.950 1_565 S
C5011 C5010 1.327 . S
C5011 C5015 1.429 . S
C5012 C4995 1.574 . S
C5012 H5006 0.949 . S
C5012 C5016 1.368 . S
C5013 C4994 1.429 . S
C5013 C5007 1.429 . S
C5013 C5014 1.523 . S
C5014 C4995 1.368 1_545 S
C5014 C5008 1.368 . S
C5014 C5013 1.523 . S
C5015 C4999 1.429 . S
C5015 C5011 1.429 . S
C5015 C5016 1.523 . S
C5016 C5000 1.368 1_565 S
C5016 C5012 1.368 . S
C5016 C5015 1.523 . S
H5017 C4992 0.950 . S
H5018 C4994 0.950 . S
H5019 C4995 0.949 . S
H5020 C4997 0.950 . S
H5021 C4999 0.950 . S
C5022 C5023 1.349 . S
C5022 C5024 1.327 . S
C5022 H5047 0.950 . S
C5023 C5022 1.349 . S
C5023 C5039 1.349 . S
C5024 C5022 1.327 . S
C5024 C5043 1.429 . S
C5024 H5048 0.950 . S
C5025 C5042 1.574 . S
C5025 C5044 1.368 . S
C5025 H5049 0.949 . S
H5026 C5030 0.949 . S
C5027 C5028 1.349 . S
C5027 C5029 1.327 . S
C5027 H5050 0.950 . S
C5028 C5027 1.349 . S
C5028 C5040 1.349 . S
C5029 C5027 1.327 . S
C5029 C5045 1.429 . S
C5029 H5051 0.950 . S
C5030 H5026 0.949 . S
C5030 C5038 1.574 . S
C5030 C5046 1.368 . S
H5031 C5039 0.950 . S
H5032 C5037 0.950 . S
H5033 C5038 0.949 . S
H5034 C5040 0.950 . S
H5035 C5041 0.950 . S
H5036 C5042 0.949 . S
C5037 H5032 0.950 . S
C5037 C5039 1.327 . S
C5037 C5043 1.429 . S
C5038 C5030 1.574 . S
C5038 H5033 0.949 . S
C5038 C5044 1.368 . S
C5039 C5023 1.349 . S
C5039 H5031 0.950 . S
C5039 C5037 1.327 . S
C5040 C5028 1.349 . S
C5040 H5034 0.950 . S
C5040 C5041 1.327 . S
C5041 H5035 0.950 . S
C5041 C5040 1.327 . S
C5041 C5045 1.429 . S
C5042 C5025 1.574 . S
C5042 H5036 0.949 . S
C5042 C5046 1.368 . S
C5043 C5024 1.429 . S
C5043 C5037 1.429 . S
C5043 C5044 1.523 . S
C5044 C5025 1.368 . S
C5044 C5038 1.368 . S
C5044 C5043 1.523 . S
C5045 C5029 1.429 . S
C5045 C5041 1.429 . S
C5045 C5046 1.523 . S
C5046 C5030 1.368 . S
C5046 C5042 1.368 . S
C5046 C5045 1.523 . S
H5047 C5022 0.950 . S
H5048 C5024 0.950 . S
H5049 C5025 0.949 . S
H5050 C5027 0.950 . S
H5051 C5029 0.950 . S
C5052 C5053 1.349 . S
C5052 C5054 1.327 . S
C5052 H5077 0.950 . S
C5053 C5052 1.349 . S
C5053 C5069 1.349 . S
C5054 C5052 1.327 . S
C5054 C5073 1.429 . S
C5054 H5078 0.950 . S
C5055 C5072 1.574 . S
C5055 C5074 1.368 . S
C5055 H5079 0.949 . S
H5056 C5060 0.949 . S
C5057 C5058 1.349 . S
C5057 C5059 1.327 . S
C5057 H5080 0.950 . S
C5058 C5057 1.349 . S
C5058 C5070 1.349 . S
C5059 C5057 1.327 . S
C5059 C5075 1.429 . S
C5059 H5081 0.950 . S
C5060 H5056 0.949 . S
C5060 C5068 1.574 . S
C5060 C5076 1.368 . S
H5061 C5069 0.950 . S
H5062 C5067 0.950 . S
H5063 C5068 0.949 . S
H5064 C5070 0.950 . S
H5065 C5071 0.950 . S
H5066 C5072 0.949 . S
C5067 H5062 0.950 . S
C5067 C5069 1.327 . S
C5067 C5073 1.429 . S
C5068 C5060 1.574 . S
C5068 H5063 0.949 . S
C5068 C5074 1.368 . S
C5069 C5053 1.349 . S
C5069 H5061 0.950 . S
C5069 C5067 1.327 . S
C5070 C5058 1.349 . S
C5070 H5064 0.950 . S
C5070 C5071 1.327 . S
C5071 H5065 0.950 . S
C5071 C5070 1.327 . S
C5071 C5075 1.429 . S
C5072 C5055 1.574 . S
C5072 H5066 0.949 . S
C5072 C5076 1.368 . S
C5073 C5054 1.429 . S
C5073 C5067 1.429 . S
C5073 C5074 1.523 . S
C5074 C5055 1.368 . S
C5074 C5068 1.368 . S
C5074 C5073 1.523 . S
C5075 C5059 1.429 . S
C5075 C5071 1.429 . S
C5075 C5076 1.523 . S
C5076 C5060 1.368 . S
C5076 C5072 1.368 . S
C5076 C5075 1.523 . S
H5077 C5052 0.950 . S
H5078 C5054 0.950 . S
H5079 C5055 0.949 . S
H5080 C5057 0.950 . S
H5081 C5059 0.950 . S
C5082 C5083 1.349 . S
C5082 C5084 1.327 . S
C5082 H5107 0.950 . S
C5083 C5082 1.349 . S
C5083 C5099 1.349 . S
C5084 C5082 1.327 . S
C5084 C5103 1.429 . S
C5084 H5108 0.950 . S
C5085 C5102 1.574 . S
C5085 C5104 1.368 . S
C5085 H5109 0.949 . S
H5086 C5090 0.949 . S
C5087 C5088 1.349 . S
C5087 C5089 1.327 . S
C5087 H5110 0.950 . S
C5088 C5087 1.349 . S
C5088 C5100 1.349 . S
C5089 C5087 1.327 . S
C5089 C5105 1.429 . S
C5089 H5111 0.950 . S
C5090 H5086 0.949 . S
C5090 C5098 1.574 . S
C5090 C5106 1.368 . S
H5091 C5099 0.950 . S
H5092 C5097 0.950 . S
H5093 C5098 0.949 . S
H5094 C5100 0.950 . S
H5095 C5101 0.950 . S
H5096 C5102 0.949 . S
C5097 H5092 0.950 . S
C5097 C5099 1.327 . S
C5097 C5103 1.429 . S
C5098 C5090 1.574 . S
C5098 H5093 0.949 . S
C5098 C5104 1.368 . S
C5099 C5083 1.349 . S
C5099 H5091 0.950 . S
C5099 C5097 1.327 . S
C5100 C5088 1.349 . S
C5100 H5094 0.950 . S
C5100 C5101 1.327 . S
C5101 H5095 0.950 . S
C5101 C5100 1.327 . S
C5101 C5105 1.429 . S
C5102 C5085 1.574 . S
C5102 H5096 0.949 . S
C5102 C5106 1.368 . S
C5103 C5084 1.429 . S
C5103 C5097 1.429 . S
C5103 C5104 1.523 . S
C5104 C5085 1.368 . S
C5104 C5098 1.368 . S
C5104 C5103 1.523 . S
C5105 C5089 1.429 . S
C5105 C5101 1.429 . S
C5105 C5106 1.523 . S
C5106 C5090 1.368 . S
C5106 C5102 1.368 . S
C5106 C5105 1.523 . S
H5107 C5082 0.950 . S
H5108 C5084 0.950 . S
H5109 C5085 0.949 . S
H5110 C5087 0.950 . S
H5111 C5089 0.950 . S
C5112 C5113 1.349 . S
C5112 C5114 1.327 . S
C5112 H5137 0.950 . S
C5113 C5112 1.349 . S
C5113 C5129 1.349 . S
C5114 C5112 1.327 . S
C5114 C5133 1.429 . S
C5114 H5138 0.950 . S
C5115 C5132 1.574 . S
C5115 C5134 1.368 . S
C5115 H5139 0.949 . S
H5116 C5120 0.949 . S
C5117 C5118 1.349 . S
C5117 C5119 1.327 . S
C5117 H5140 0.950 . S
C5118 C5117 1.349 . S
C5118 C5130 1.349 . S
C5119 C5117 1.327 . S
C5119 C5135 1.429 . S
C5119 H5141 0.950 . S
C5120 H5116 0.949 . S
C5120 C5128 1.574 . S
C5120 C5136 1.368 . S
H5121 C5129 0.950 . S
H5122 C5127 0.950 . S
H5123 C5128 0.949 . S
H5124 C5130 0.950 . S
H5125 C5131 0.950 . S
H5126 C5132 0.949 . S
C5127 H5122 0.950 . S
C5127 C5129 1.327 . S
C5127 C5133 1.429 . S
C5128 C5120 1.574 . S
C5128 H5123 0.949 . S
C5128 C5134 1.368 1_556 S
C5129 C5113 1.349 . S
C5129 H5121 0.950 . S
C5129 C5127 1.327 . S
C5130 C5118 1.349 . S
C5130 H5124 0.950 . S
C5130 C5131 1.327 . S
C5131 H5125 0.950 . S
C5131 C5130 1.327 . S
C5131 C5135 1.429 . S
C5132 C5115 1.574 . S
C5132 H5126 0.949 . S
C5132 C5136 1.368 1_554 S
C5133 C5114 1.429 . S
C5133 C5127 1.429 . S
C5133 C5134 1.523 . S
C5134 C5115 1.368 . S
C5134 C5128 1.368 1_554 S
C5134 C5133 1.523 . S
C5135 C5119 1.429 . S
C5135 C5131 1.429 . S
C5135 C5136 1.523 . S
C5136 C5120 1.368 . S
C5136 C5132 1.368 1_556 S
C5136 C5135 1.523 . S
H5137 C5112 0.950 . S
H5138 C5114 0.950 . S
H5139 C5115 0.949 . S
H5140 C5117 0.950 . S
H5141 C5119 0.950 . S
C5142 C5143 1.349 . S
C5142 C5144 1.327 . S
C5142 H5167 0.950 . S
C5143 C5142 1.349 . S
C5143 C5159 1.349 . S
C5144 C5142 1.327 . S
C5144 C5163 1.429 . S
C5144 H5168 0.950 . S
C5145 C5162 1.574 . S
C5145 C5164 1.368 . S
C5145 H5169 0.949 . S
H5146 C5150 0.949 . S
C5147 C5148 1.349 . S
C5147 C5149 1.327 . S
C5147 H5170 0.950 . S
C5148 C5147 1.349 . S
C5148 C5160 1.349 . S
C5149 C5147 1.327 . S
C5149 C5165 1.429 . S
C5149 H5171 0.950 . S
C5150 H5146 0.949 . S
C5150 C5158 1.574 . S
C5150 C5166 1.368 . S
H5151 C5159 0.950 . S
H5152 C5157 0.950 . S
H5153 C5158 0.949 . S
H5154 C5160 0.950 . S
H5155 C5161 0.950 . S
H5156 C5162 0.949 . S
C5157 H5152 0.950 . S
C5157 C5159 1.327 . S
C5157 C5163 1.429 . S
C5158 C5150 1.574 . S
C5158 H5153 0.949 . S
C5158 C5164 1.368 . S
C5159 C5143 1.349 . S
C5159 H5151 0.950 . S
C5159 C5157 1.327 . S
C5160 C5148 1.349 . S
C5160 H5154 0.950 . S
C5160 C5161 1.327 . S
C5161 H5155 0.950 . S
C5161 C5160 1.327 . S
C5161 C5165 1.429 . S
C5162 C5145 1.574 . S
C5162 H5156 0.949 . S
C5162 C5166 1.368 . S
C5163 C5144 1.429 . S
C5163 C5157 1.429 . S
C5163 C5164 1.523 . S
C5164 C5145 1.368 . S
C5164 C5158 1.368 . S
C5164 C5163 1.523 . S
C5165 C5149 1.429 . S
C5165 C5161 1.429 . S
C5165 C5166 1.523 . S
C5166 C5150 1.368 . S
C5166 C5162 1.368 . S
C5166 C5165 1.523 . S
H5167 C5142 0.950 . S
H5168 C5144 0.950 . S
H5169 C5145 0.949 . S
H5170 C5147 0.950 . S
H5171 C5149 0.950 . S
C5172 C5173 1.349 . S
C5172 C5174 1.327 . S
C5172 H5197 0.950 . S
C5173 C5172 1.349 . S
C5173 C5189 1.349 . S
C5174 C5172 1.327 . S
C5174 C5193 1.429 . S
C5174 H5198 0.950 . S
C5175 C5192 1.574 . S
C5175 C5194 1.368 . S
C5175 H5199 0.949 . S
H5176 C5180 0.949 . S
C5177 C5178 1.349 . S
C5177 C5179 1.327 . S
C5177 H5200 0.950 . S
C5178 C5177 1.349 . S
C5178 C5190 1.349 . S
C5179 C5177 1.327 . S
C5179 C5195 1.429 . S
C5179 H5201 0.950 . S
C5180 H5176 0.949 . S
C5180 C5188 1.574 . S
C5180 C5196 1.368 . S
H5181 C5189 0.950 . S
H5182 C5187 0.950 . S
H5183 C5188 0.949 . S
H5184 C5190 0.950 . S
H5185 C5191 0.950 . S
H5186 C5192 0.949 . S
C5187 H5182 0.950 . S
C5187 C5189 1.327 . S
C5187 C5193 1.429 . S
C5188 C5180 1.574 . S
C5188 H5183 0.949 . S
C5188 C5194 1.368 . S
C5189 C5173 1.349 . S
C5189 H5181 0.950 . S
C5189 C5187 1.327 . S
C5190 C5178 1.349 . S
C5190 H5184 0.950 . S
C5190 C5191 1.327 . S
C5191 H5185 0.950 . S
C5191 C5190 1.327 . S
C5191 C5195 1.429 . S
C5192 C5175 1.574 . S
C5192 H5186 0.949 . S
C5192 C5196 1.368 . S
C5193 C5174 1.429 . S
C5193 C5187 1.429 . S
C5193 C5194 1.523 . S
C5194 C5175 1.368 . S
C5194 C5188 1.368 . S
C5194 C5193 1.523 . S
C5195 C5179 1.429 . S
C5195 C5191 1.429 . S
C5195 C5196 1.523 . S
C5196 C5180 1.368 . S
C5196 C5192 1.368 . S
C5196 C5195 1.523 . S
H5197 C5172 0.950 . S
H5198 C5174 0.950 . S
H5199 C5175 0.949 . S
H5200 C5177 0.950 . S
H5201 C5179 0.950 . S
C5202 C5203 1.349 . S
C5202 C5204 1.327 . S
C5202 H5227 0.950 . S
C5203 C5202 1.349 . S
C5203 C5219 1.349 . S
C5204 C5202 1.327 . S
C5204 C5223 1.429 . S
C5204 H5228 0.950 . S
C5205 C5222 1.574 . S
C5205 C5224 1.368 1_545 S
C5205 H5229 0.949 . S
H5206 C5210 0.949 . S
C5207 C5208 1.349 . S
C5207 C5209 1.327 . S
C5207 H5230 0.950 . S
C5208 C5207 1.349 . S
C5208 C5220 1.349 . S
C5209 C5207 1.327 . S
C5209 C5225 1.429 . S
C5209 H5231 0.950 . S
C5210 H5206 0.949 . S
C5210 C5218 1.574 . S
C5210 C5226 1.368 1_565 S
H5211 C5219 0.950 . S
H5212 C5217 0.946 1_545 S
H5213 C5218 0.949 . S
H5214 C5220 0.950 . S
H5215 C5221 0.946 1_565 S
H5216 C5222 0.949 . S
C5217 H5212 0.946 1_565 S
C5217 C5219 1.327 . S
C5217 C5223 1.429 . S
C5218 C5210 1.574 . S
C5218 H5213 0.949 . S
C5218 C5224 1.368 . S
C5219 C5203 1.349 . S
C5219 H5211 0.950 . S
C5219 C5217 1.327 . S
C5220 C5208 1.349 . S
C5220 H5214 0.950 . S
C5220 C5221 1.327 . S
C5221 H5215 0.946 1_545 S
C5221 C5220 1.327 . S
C5221 C5225 1.429 . S
C5222 C5205 1.574 . S
C5222 H5216 0.949 . S
C5222 C5226 1.368 . S
C5223 C5204 1.429 . S
C5223 C5217 1.429 . S
C5223 C5224 1.523 . S
C5224 C5205 1.368 1_565 S
C5224 C5218 1.368 . S
C5224 C5223 1.523 . S
C5225 C5209 1.429 . S
C5225 C5221 1.429 . S
C5225 C5226 1.523 . S
C5226 C5210 1.368 1_545 S
C5226 C5222 1.368 . S
C5226 C5225 1.523 . S
H5227 C5202 0.950 . S
H5228 C5204 0.950 . S
H5229 C5205 0.949 . S
H5230 C5207 0.950 . S
H5231 C5209 0.950 . S
C1633 C33 2.608 . S
C1638 C713 2.608 . S
C1663 C1427 2.608 . S
C1668 C67 2.608 . S
C1693 C1461 2.608 . S
C1698 C101 2.608 . S
C1723 C135 2.608 . S
C1728 C1495 2.608 . S
C1753 C169 2.608 . S
C1758 C1631 2.608 . S
C1783 C747 2.608 . S
C1788 C203 2.608 . S
C1813 C237 2.608 . S
C1818 C1597 2.608 . S
C1843 C271 2.608 . S
C1848 C577 2.608 . S
C1873 C305 2.608 . S
C1878 C543 2.608 . S
C1903 C339 2.608 . S
C1908 C441 2.608 . S
C1933 C475 2.608 . S
C1938 C373 2.608 . S
C1963 C509 2.608 . S
C1968 C407 2.608 . S
C1993 C883 2.608 . S
C1998 C611 2.608 . S
C2023 C645 2.608 . S
C2028 C917 2.608 . S
C2053 C951 2.608 . S
C2058 C679 2.608 . S
C2083 C781 2.608 . S
C2088 C1053 2.608 . S
C2113 C815 2.608 . S
C2118 C985 2.608 . S
C2143 C1529 2.608 . S
C2148 C849 2.608 . S
C2173 C1563 2.608 . S
C2178 C1019 2.608 . S
C2203 C1087 2.608 . S
C2208 C1393 2.608 . S
C2233 C1359 2.608 . S
C2238 C1121 2.608 . S
C2263 C1257 2.608 . S
C2268 C1155 2.608 . S
C2293 C1189 2.608 . S
C2298 C1291 2.608 . S
C2323 C1223 2.608 . S
C2328 C1325 2.608 . S
C2353 C553 0.771 . S
C2358 C20 0.776 . S
C2383 C1607 0.771 . S
C2388 C54 0.776 . S
C2413 C723 0.771 . S
C2418 C88 0.776 . S
C2443 C122 0.776 . S
C2448 C1573 0.771 . S
C2473 C1403 0.771 . S
C2478 C156 0.776 . S
C2503 C190 0.776 . S
C2508 C1437 0.771 . S
C2533 C1471 0.771 . S
C2538 C224 0.776 . S
C2563 C258 0.776 . S
C2568 C689 0.771 . S
C2593 C292 0.776 . S
C2598 C9 0.771 . S
C2623 C43 0.771 . S
C2628 C326 0.776 . S
C2653 C77 0.771 . S
C2658 C360 0.776 . S
C2683 C111 0.771 . S
C2688 C394 0.776 . S
C2713 C428 0.776 . S
C2718 C145 0.771 . S
C2743 C462 0.776 . S
C2748 C179 0.771 . S
C2773 C496 0.776 . S
C2778 C213 0.771 . S
C2803 C530 0.776 . S
C2808 C247 0.771 . S
C2833 C281 0.771 . S
C2838 C564 0.776 . S
C2863 C598 0.776 . S
C2868 C1233 0.771 . S
C2893 C632 0.776 . S
C2898 C1267 0.771 . S
C2923 C1301 0.771 . S
C2928 C666 0.776 . S
C2953 C700 0.776 . S
C2958 C519 0.771 . S
C2983 C734 0.776 . S
C2988 C349 0.771 . S
C3013 C1199 0.771 . S
C3018 C768 0.776 . S
C3043 C802 0.776 . S
C3048 C1131 0.771 . S
C3073 C836 0.776 . S
C3078 C1369 0.771 . S
C3103 C870 0.776 . S
C3108 C791 0.771 . S
C3133 C904 0.776 . S
C3138 C1539 0.771 . S
C3163 C938 0.776 . S
C3168 C757 0.771 . S
C3193 C587 0.771 . S
C3198 C972 0.776 . S
C3223 C1006 0.776 . S
C3228 C621 0.771 . S
C3253 C1040 0.776 . S
C3258 C655 0.771 . S
C3283 C1074 0.776 . S
C3288 C1505 0.771 . S
C3313 C825 0.771 . S
C3318 C1108 0.776 . S
C3343 C1142 0.776 . S
C3348 C859 0.771 . S
C3373 C893 0.771 . S
C3378 C1176 0.776 . S
C3403 C927 0.771 . S
C3408 C1210 0.776 . S
C3433 C961 0.771 . S
C3438 C1244 0.776 . S
C3463 C995 0.771 . S
C3468 C1278 0.776 . S
C3493 C1312 0.776 . S
C3498 C1029 0.771 . S
C3523 C1346 0.776 . S
C3528 C1063 0.771 . S
C3553 C1097 0.771 . S
C3558 C1380 0.776 . S
C3583 C1414 0.776 . S
C3588 C417 0.771 . S
C3613 C1448 0.776 . S
C3618 C451 0.771 . S
C3643 C1482 0.776 . S
C3648 C485 0.771 . S
C3673 C1335 0.771 . S
C3678 C1516 0.776 . S
C3703 C1165 0.771 . S
C3708 C1550 0.776 . S
C3733 C383 0.771 . S
C3738 C1584 0.776 . S
C3763 C1618 0.776 . S
C3768 C315 0.771 . S
C3793 C308 1.598 . S
C3798 C2 1.598 . S
C3823 C342 1.598 . S
C3828 C36 1.598 . S
C3853 C70 1.598 . S
C3858 C376 1.598 . S
C3883 C104 1.598 . S
C3888 C274 1.598 . S
C3913 C138 1.598 . S
C3918 C512 1.598 . S
C3943 C410 1.598 . S
C3948 C172 1.598 . S
C3973 C444 1.598 . S
C3978 C206 1.598 . S
C4003 C240 1.598 . S
C4008 C478 1.598 . S
C4033 C546 1.598 . S
C4038 C614 1.598 . S
C4063 C1566 1.598 . S
C4068 C580 1.598 . S
C4093 C1600 1.598 . S
C4098 C648 1.598 . S
C4123 C1532 1.598 . S
C4128 C682 1.598 . S
C4153 C716 1.598 . S
C4158 C1498 1.598 . S
C4183 C1396 1.598 . S
C4188 C750 1.598 . S
C4213 C1464 1.598 . S
C4218 C784 1.598 . S
C4243 C1124 1.598 . S
C4248 C818 1.598 . S
C4273 C1158 1.598 . S
C4278 C852 1.598 . S
C4303 C886 1.598 . S
C4308 C1192 1.598 . S
C4333 C1090 1.598 . S
C4338 C920 1.598 . S
C4363 C1328 1.598 . S
C4368 C954 1.598 . S
C4393 C988 1.598 . S
C4398 C1226 1.598 . S
C4423 C1260 1.598 . S
C4428 C1022 1.598 . S
C4453 C1056 1.598 . S
C4458 C1294 1.598 . S
C4483 C1362 1.598 . S
C4488 C1430 1.598 . S
C4513 C889 1.377 . S
C4518 C5 1.377 . S
C4543 C39 1.377 . S
C4548 C923 1.377 . S
C4573 C821 1.377 . S
C4578 C73 1.377 . S
C4603 C855 1.377 . S
C4608 C107 1.377 . S
C4633 C1025 1.377 . S
C4638 C141 1.377 . S
C4663 C1059 1.377 . S
C4668 C175 1.377 . S
C4693 C957 1.377 . S
C4698 C209 1.377 . S
C4723 C243 1.377 . S
C4728 C991 1.377 . S
C4753 C277 1.377 . S
C4758 C413 1.377 . S
C4783 C311 1.377 . S
C4788 C447 1.377 . S
C4813 C345 1.377 . S
C4818 C481 1.377 . S
C4843 C379 1.377 . S
C4848 C515 1.377 . S
C4873 C1467 1.377 . S
C4878 C549 1.377 . S
C4903 C1535 1.377 . S
C4908 C583 1.377 . S
C4933 C617 1.377 . S
C4938 C753 1.377 . S
C4963 C1365 1.377 . S
C4968 C651 1.377 . S
C4993 C685 1.377 . S
C4998 C1603 1.377 . S
C5023 C719 1.377 . S
C5028 C1399 1.377 . S
C5053 C787 1.377 . S
C5058 C1501 1.377 . S
C5083 C1093 1.377 . S
C5088 C1229 1.377 . S
C5113 C1263 1.377 . S
C5118 C1127 1.377 . S
C5143 C1297 1.377 . S
C5148 C1161 1.377 . S
C5173 C1195 1.377 . S
C5178 C1331 1.377 . S
C5203 C1433 1.377 . S
C5208 C1569 1.377 . S
