# Generated by pormake.
# Topology snl, (6)-cn, num edge types: 1
# Building blocks:
#     Node 0, Type 0, BuildingBlock: UKALOJ_clean_sbu_0, # of connection points: 6
#     Node 1, Type 0, BuildingBlock: UKALOJ_clean_sbu_0, # of connection points: 6
#     Node 2, Type 0, BuildingBlock: UKALOJ_clean_sbu_0, # of connection points: 6
#     Node 3, Type 0, BuildingBlock: UKALOJ_clean_sbu_0, # of connection points: 6
#     Node 4, Type 0, BuildingBlock: UKALOJ_clean_sbu_0, # of connection points: 6
#     Node 5, Type 0, BuildingBlock: UKALOJ_clean_sbu_0, # of connection points: 6
#     Node 6, Type 0, BuildingBlock: UKALOJ_clean_sbu_0, # of connection points: 6
#     Node 7, Type 0, BuildingBlock: UKALOJ_clean_sbu_0, # of connection points: 6
#     Node 8, Type 0, BuildingBlock: UKALOJ_clean_sbu_0, # of connection points: 6
#     Node 9, Type 0, BuildingBlock: UKALOJ_clean_sbu_0, # of connection points: 6
#     Node 10, Type 0, BuildingBlock: UKALOJ_clean_sbu_0, # of connection points: 6
#     Node 11, Type 0, BuildingBlock: UKALOJ_clean_sbu_0, # of connection points: 6
#     Node 12, Type 0, BuildingBlock: UKALOJ_clean_sbu_0, # of connection points: 6
#     Node 13, Type 0, BuildingBlock: UKALOJ_clean_sbu_0, # of connection points: 6
#     Node 14, Type 0, BuildingBlock: UKALOJ_clean_sbu_0, # of connection points: 6
#     Node 15, Type 0, BuildingBlock: UKALOJ_clean_sbu_0, # of connection points: 6
#     Edge 16, Type (0, 0), BuildingBlock: AJUNOK_clean_linker_0, # of connection points: 2
#     Edge 17, Type (0, 0), BuildingBlock: AJUNOK_clean_linker_0, # of connection points: 2
#     Edge 18, Type (0, 0), BuildingBlock: AJUNOK_clean_linker_0, # of connection points: 2
#     Edge 19, Type (0, 0), BuildingBlock: AJUNOK_clean_linker_0, # of connection points: 2
#     Edge 20, Type (0, 0), BuildingBlock: AJUNOK_clean_linker_0, # of connection points: 2
#     Edge 21, Type (0, 0), BuildingBlock: AJUNOK_clean_linker_0, # of connection points: 2
#     Edge 22, Type (0, 0), BuildingBlock: AJUNOK_clean_linker_0, # of connection points: 2
#     Edge 23, Type (0, 0), BuildingBlock: AJUNOK_clean_linker_0, # of connection points: 2
#     Edge 24, Type (0, 0), BuildingBlock: AJUNOK_clean_linker_0, # of connection points: 2
#     Edge 25, Type (0, 0), BuildingBlock: AJUNOK_clean_linker_0, # of connection points: 2
#     Edge 26, Type (0, 0), BuildingBlock: AJUNOK_clean_linker_0, # of connection points: 2
#     Edge 27, Type (0, 0), BuildingBlock: AJUNOK_clean_linker_0, # of connection points: 2
#     Edge 28, Type (0, 0), BuildingBlock: AJUNOK_clean_linker_0, # of connection points: 2
#     Edge 29, Type (0, 0), BuildingBlock: AJUNOK_clean_linker_0, # of connection points: 2
#     Edge 30, Type (0, 0), BuildingBlock: AJUNOK_clean_linker_0, # of connection points: 2
#     Edge 31, Type (0, 0), BuildingBlock: AJUNOK_clean_linker_0, # of connection points: 2
#     Edge 32, Type (0, 0), BuildingBlock: AJUNOK_clean_linker_0, # of connection points: 2
#     Edge 33, Type (0, 0), BuildingBlock: AJUNOK_clean_linker_0, # of connection points: 2
#     Edge 34, Type (0, 0), BuildingBlock: AJUNOK_clean_linker_0, # of connection points: 2
#     Edge 35, Type (0, 0), BuildingBlock: AJUNOK_clean_linker_0, # of connection points: 2
#     Edge 36, Type (0, 0), BuildingBlock: AJUNOK_clean_linker_0, # of connection points: 2
#     Edge 37, Type (0, 0), BuildingBlock: AJUNOK_clean_linker_0, # of connection points: 2
#     Edge 38, Type (0, 0), BuildingBlock: AJUNOK_clean_linker_0, # of connection points: 2
#     Edge 39, Type (0, 0), BuildingBlock: AJUNOK_clean_linker_0, # of connection points: 2
#     Edge 40, Type (0, 0), BuildingBlock: AJUNOK_clean_linker_0, # of connection points: 2
#     Edge 41, Type (0, 0), BuildingBlock: AJUNOK_clean_linker_0, # of connection points: 2
#     Edge 42, Type (0, 0), BuildingBlock: AJUNOK_clean_linker_0, # of connection points: 2
#     Edge 43, Type (0, 0), BuildingBlock: AJUNOK_clean_linker_0, # of connection points: 2
#     Edge 44, Type (0, 0), BuildingBlock: AJUNOK_clean_linker_0, # of connection points: 2
#     Edge 45, Type (0, 0), BuildingBlock: AJUNOK_clean_linker_0, # of connection points: 2
#     Edge 46, Type (0, 0), BuildingBlock: AJUNOK_clean_linker_0, # of connection points: 2
#     Edge 47, Type (0, 0), BuildingBlock: AJUNOK_clean_linker_0, # of connection points: 2
#     Edge 48, Type (0, 0), BuildingBlock: AJUNOK_clean_linker_0, # of connection points: 2
#     Edge 49, Type (0, 0), BuildingBlock: AJUNOK_clean_linker_0, # of connection points: 2
#     Edge 50, Type (0, 0), BuildingBlock: AJUNOK_clean_linker_0, # of connection points: 2
#     Edge 51, Type (0, 0), BuildingBlock: AJUNOK_clean_linker_0, # of connection points: 2
#     Edge 52, Type (0, 0), BuildingBlock: AJUNOK_clean_linker_0, # of connection points: 2
#     Edge 53, Type (0, 0), BuildingBlock: AJUNOK_clean_linker_0, # of connection points: 2
#     Edge 54, Type (0, 0), BuildingBlock: AJUNOK_clean_linker_0, # of connection points: 2
#     Edge 55, Type (0, 0), BuildingBlock: AJUNOK_clean_linker_0, # of connection points: 2
#     Edge 56, Type (0, 0), BuildingBlock: AJUNOK_clean_linker_0, # of connection points: 2
#     Edge 57, Type (0, 0), BuildingBlock: AJUNOK_clean_linker_0, # of connection points: 2
#     Edge 58, Type (0, 0), BuildingBlock: AJUNOK_clean_linker_0, # of connection points: 2
#     Edge 59, Type (0, 0), BuildingBlock: AJUNOK_clean_linker_0, # of connection points: 2
#     Edge 60, Type (0, 0), BuildingBlock: AJUNOK_clean_linker_0, # of connection points: 2
#     Edge 61, Type (0, 0), BuildingBlock: AJUNOK_clean_linker_0, # of connection points: 2
#     Edge 62, Type (0, 0), BuildingBlock: AJUNOK_clean_linker_0, # of connection points: 2
#     Edge 63, Type (0, 0), BuildingBlock: AJUNOK_clean_linker_0, # of connection points: 2
# Relax obj value: 0.098
# Max RMSD: 0.115
# Mean RMSD: 0.102
data_MOF--net-snl--node1-UKALOJ_clean_sbu_0--edge1-AJUNOK_clean_linker_0
_symmetry_space_group_name_H-M    P1
_symmetry_Int_Tables_number       1
_symmetry_cell_setting            triclinic
loop_
_symmetry_equiv_pos_as_xyz
'x, y, z'
_cell_length_a     56.020953
_cell_length_b     50.675798
_cell_length_c     11.349194
_cell_angle_alpha  88.329394
_cell_angle_beta   89.345006
_cell_angle_gamma 90.41158
loop_
_atom_site_label
_atom_site_type_symbol
_atom_site_fract_x
_atom_site_fract_y
_atom_site_fract_z
_atom_type_partial_charge
Zn0 Zn 0.13219 0.67115 0.98102 0.0
O1 O 0.13317 0.67263 0.7952 0.0
C2 C 0.14326 0.61359 0.97705 0.0
Zn3 Zn 0.17104 0.66577 0.97555 0.0
C4 C 0.15223 0.66986 0.7351 0.0
O5 O 0.17189 0.66666 0.7886 0.0
C6 C 0.15039 0.66711 0.22168 0.0
O7 O 0.17806 0.70737 0.97486 0.0
O8 O 0.13954 0.71332 -0.01596 0.0
N9 N 0.20614 0.65706 -0.01584 0.0
C10 C 0.22213 0.66605 0.06112 0.0
C11 C 0.23461 0.62901 0.00254 0.0
N12 N 0.21404 0.63421 0.94653 0.0
N13 N 0.2399 0.64856 0.07605 0.0
C14 C 0.07786 0.66715 0.94043 0.0
C15 C 0.06538 0.69966 0.03882 0.0
N16 N 0.09709 0.67935 -0.01596 0.0
N17 N 0.08934 0.69958 0.04469 0.0
N18 N 0.0578 0.67943 0.9745 0.0
H19 H 0.09527 0.6448 0.80578 0.0
H20 H 0.06295 0.64376 0.80303 0.0
H21 H 0.079 0.62555 0.91467 0.0
C22 C 0.07881 0.6441 0.8607 0.0
C23 C 0.22116 0.69266 0.11581 0.0
H24 H 0.21974 0.70797 0.04504 0.0
H25 H 0.23756 0.69709 0.1654 0.0
H26 H 0.20541 0.6941 0.17499 0.0
O27 O 0.16977 0.66464 0.16415 0.0
O28 O 0.13117 0.66986 0.16525 0.0
C29 C 0.16056 0.72308 0.98124 0.0
O30 O 0.12518 0.62866 0.98068 0.0
O31 O 0.16388 0.62421 0.975 0.0
Zn32 Zn 0.62759 0.91493 0.18481 0.0
O33 O 0.58913 0.91091 0.18548 0.0
C34 C 0.63029 0.89217 0.43173 0.0
Zn35 Zn 0.63092 0.87166 0.19156 0.0
C36 C 0.57888 0.88841 0.19311 0.0
O37 O 0.59203 0.868 0.199 0.0
C38 C 0.67962 0.89834 0.17647 0.0
O39 O 0.62969 0.87229 0.00674 0.0
O40 O 0.62741 0.91557 -0.00285 0.0
N41 N 0.63352 0.83208 0.20184 0.0
C42 C 0.6481 0.81458 0.15124 0.0
C43 C 0.6285 0.79395 0.28801 0.0
N44 N 0.62127 0.81919 0.28618 0.0
N45 N 0.64538 0.79075 0.20474 0.0
C46 C 0.61548 0.96915 0.27912 0.0
C47 C 0.64072 0.99421 0.18877 0.0
N48 N 0.62544 0.95499 0.19271 0.0
N49 N 0.64089 0.97073 0.13556 0.0
N50 N 0.62501 0.99356 0.2795 0.0
H51 H 0.58691 0.94216 0.33539 0.0
H52 H 0.5841 0.97543 0.38468 0.0
H53 H 0.60532 0.95385 0.45132 0.0
C54 C 0.59687 0.95935 0.36659 0.0
C55 C 0.66523 0.82055 0.05171 0.0
H56 H 0.66545 0.84174 0.02562 0.0
H57 H 0.66003 0.80886 0.97474 0.0
H58 H 0.68338 0.81412 0.07733 0.0
O59 O 0.66975 0.8756 0.18259 0.0
O60 O 0.66616 0.91849 0.17907 0.0
C61 C 0.62845 0.89361 0.94532 0.0
O62 O 0.6283 0.91364 0.37277 0.0
O63 O 0.63203 0.87092 0.37671 0.0
Zn64 Zn 0.35674 0.40779 0.75674 0.0
O65 O 0.35811 0.36562 0.77586 0.0
C66 C 0.37578 0.41262 0.00119 0.0
Zn67 Zn 0.39607 0.41123 0.75988 0.0
C68 C 0.37888 0.35581 0.78501 0.0
O69 O 0.39702 0.37086 0.77838 0.0
C70 C 0.37588 0.46332 0.72865 0.0
O71 O 0.39571 0.40915 0.57121 0.0
O72 O 0.35679 0.40503 0.57079 0.0
N73 N 0.43238 0.41208 0.76725 0.0
C74 C 0.44927 0.42048 0.68957 0.0
C75 C 0.46713 0.40707 0.84477 0.0
N76 N 0.44351 0.40376 0.86373 0.0
N77 N 0.47111 0.41786 0.73658 0.0
C78 C 0.30441 0.3974 0.83267 0.0
C79 C 0.28557 0.41877 0.69869 0.0
N80 N 0.32071 0.40738 0.75528 0.0
N81 N 0.309 0.42051 0.67172 0.0
N82 N 0.28232 0.40426 0.7988 0.0
H83 H 0.32681 0.372 0.93916 0.0
H84 H 0.29558 0.37036 0.9788 0.0
H85 H 0.31279 0.39868 0.01515 0.0
C86 C 0.31024 0.38361 0.94739 0.0
C87 C 0.44433 0.42898 0.56509 0.0
H88 H 0.43755 0.41177 0.51733 0.0
H89 H 0.4603 0.43614 0.51558 0.0
H90 H 0.43072 0.44474 0.56586 0.0
O91 O 0.39546 0.45134 0.74183 0.0
O92 O 0.35641 0.4502 0.73422 0.0
C93 C 0.37639 0.40719 0.51421 0.0
O94 O 0.35653 0.4106 0.94427 0.0
O95 O 0.39547 0.41381 0.94511 0.0
Zn96 Zn 0.85387 0.14956 0.9396 0.0
O97 O 0.85492 0.19273 0.93422 0.0
C98 C 0.87395 0.14839 0.69658 0.0
Zn99 Zn 0.89466 0.14844 0.9392 0.0
C100 C 0.87531 0.20433 0.93301 0.0
O101 O 0.89407 0.19032 0.93253 0.0
C102 C 0.87488 0.09352 0.95217 0.0
O103 O 0.89467 0.1491 0.12382 0.0
O104 O 0.85535 0.14988 0.12736 0.0
N105 N 0.93212 0.15017 0.92605 0.0
C106 C 0.95107 0.13798 0.97693 0.0
C107 C 0.96501 0.16581 0.84973 0.0
N108 N 0.94107 0.16738 0.84713 0.0
N109 N 0.97208 0.1476 0.93077 0.0
C110 C 0.79788 0.16081 0.88644 0.0
C111 C 0.78168 0.13132 -0.00138 0.0
N112 N 0.81585 0.14829 0.94489 0.0
N113 N 0.80547 0.13012 0.01466 0.0
N114 N 0.77616 0.15049 0.91887 0.0
H115 H 0.81973 0.18089 0.75374 0.0
H116 H 0.80053 0.20164 0.83701 0.0
H117 H 0.78786 0.18133 0.72584 0.0
C118 C 0.80175 0.18224 0.79456 0.0
C119 C 0.94882 0.11749 0.0741 0.0
H120 H 0.93097 0.11814 0.11683 0.0
H121 H 0.96296 0.12036 0.14034 0.0
H122 H 0.95103 0.09768 0.03692 0.0
O123 O 0.89439 0.10663 0.94782 0.0
O124 O 0.85515 0.10612 0.94859 0.0
C125 C 0.87512 0.14954 0.18215 0.0
O126 O 0.8541 0.149 0.75219 0.0
O127 O 0.89324 0.14793 0.75431 0.0
Zn128 Zn 0.14254 0.36918 0.03186 0.0
O129 O 0.14065 0.37083 0.84695 0.0
C130 C 0.18954 0.39216 0.00928 0.0
Zn131 Zn 0.13912 0.41381 0.02493 0.0
C132 C 0.13919 0.39216 0.78549 0.0
O133 O 0.13818 0.41419 0.83711 0.0
C134 C 0.14226 0.39024 0.27153 0.0
O135 O 0.10109 0.41283 0.03351 0.0
O136 O 0.10548 0.36965 0.04303 0.0
N137 N 0.14143 0.45511 0.03432 0.0
C138 C 0.13209 0.47728 0.98346 0.0
C139 C 0.15819 0.48977 0.10534 0.0
N140 N 0.15751 0.46325 0.11009 0.0
N141 N 0.14234 0.49931 0.02711 0.0
C142 C 0.1532 0.30875 0.97742 0.0
C143 C 0.12882 0.2895 0.09748 0.0
N144 N 0.14169 0.32792 0.03613 0.0
N145 N 0.12664 0.31572 0.11068 0.0
N146 N 0.14546 0.28453 0.01474 0.0
H147 H 0.17338 0.33485 0.85874 0.0
H148 H 0.16494 0.30328 0.8001 0.0
H149 H 0.18829 0.30474 0.90547 0.0
C150 C 0.17097 0.31352 0.87973 0.0
C151 C 0.11374 0.47723 0.88888 0.0
H152 H 0.1134 0.458 0.84478 0.0
H153 H 0.1173 0.49354 0.8235 0.0
H154 H 0.09591 0.48046 0.92928 0.0
O155 O 0.14016 0.41181 0.21261 0.0
O156 O 0.14417 0.3688 0.21697 0.0
C157 C 0.09198 0.38969 0.04236 0.0
O158 O 0.17942 0.36973 0.01945 0.0
O159 O 0.17698 0.41296 0.0134 0.0
Zn160 Zn 0.85778 0.92077 0.03215 0.0
O161 O 0.86033 0.87778 0.03962 0.0
C162 C 0.8773 0.9228 0.27286 0.0
Zn163 Zn 0.89851 0.92322 0.0278 0.0
C164 C 0.88084 0.86678 0.03877 0.0
O165 O 0.89955 0.88131 0.03552 0.0
C166 C 0.87644 0.97742 0.01485 0.0
O167 O 0.89839 0.92287 0.84038 0.0
O168 O 0.85917 0.92013 0.84711 0.0
N169 N 0.93609 0.92631 0.0346 0.0
C170 C 0.95484 0.91289 -0.01025 0.0
C171 C 0.96927 0.94292 0.09578 0.0
N172 N 0.94531 0.94495 0.1 0.0
N173 N 0.976 0.92285 0.02771 0.0
C174 C 0.80215 0.90704 0.09004 0.0
C175 C 0.78563 0.93501 0.97439 0.0
N176 N 0.81997 0.91999 0.02934 0.0
N177 N 0.80942 0.93721 0.9575 0.0
N178 N 0.78032 0.91617 0.05699 0.0
H179 H 0.82409 0.88889 0.22418 0.0
H180 H 0.80581 0.86668 0.14496 0.0
H181 H 0.79219 0.88712 0.25386 0.0
C182 C 0.8063 0.88642 0.18458 0.0
C183 C 0.95217 0.89134 0.90327 0.0
H184 H 0.94798 0.87253 0.95164 0.0
H185 H 0.96879 0.88902 0.85055 0.0
H186 H 0.93711 0.89564 0.84348 0.0
O187 O 0.8962 0.96518 0.01824 0.0
O188 O 0.85708 0.96395 0.02136 0.0
C189 C 0.87851 0.92146 0.78718 0.0
O190 O 0.85782 0.92175 0.21676 0.0
O191 O 0.89701 0.92361 0.21565 0.0
Zn192 Zn 0.376 0.62944 0.5357 0.0
O193 O 0.38431 0.67004 0.50548 0.0
C194 C 0.39417 0.62119 0.29174 0.0
Zn195 Zn 0.41473 0.62199 0.5335 0.0
C196 C 0.40563 0.67859 0.49238 0.0
O197 O 0.42293 0.66261 0.50448 0.0
C198 C 0.38512 0.57314 0.57475 0.0
O199 O 0.41634 0.62536 0.71848 0.0
O200 O 0.37783 0.63343 0.72239 0.0
N201 N 0.44906 0.61036 0.51896 0.0
C202 C 0.4705 0.62227 0.52529 0.0
C203 C 0.47598 0.58467 0.45078 0.0
N204 N 0.45259 0.58691 0.47382 0.0
N205 N 0.48778 0.60662 0.48154 0.0
C206 C 0.32741 0.64915 0.45653 0.0
C207 C 0.304 0.62164 0.54494 0.0
N208 N 0.34034 0.63596 0.5376 0.0
N209 N 0.32569 0.61915 0.59399 0.0
N210 N 0.30473 0.64025 0.45795 0.0
H211 H 0.34074 0.68832 0.43657 0.0
H212 H 0.32308 0.67838 0.31456 0.0
H213 H 0.35309 0.66623 0.33215 0.0
C214 C 0.33656 0.67159 0.37932 0.0
C215 C 0.47426 0.64871 0.57741 0.0
H216 H 0.47217 0.66416 0.50741 0.0
H217 H 0.49244 0.65031 0.61459 0.0
H218 H 0.46068 0.65205 0.64728 0.0
O219 O 0.40616 0.58205 0.56165 0.0
O220 O 0.36785 0.58893 0.56502 0.0
C221 C 0.39732 0.62969 0.77719 0.0
O222 O 0.37484 0.62498 0.34813 0.0
O223 O 0.41327 0.61851 0.34916 0.0
Zn224 Zn 0.62399 0.18114 0.78591 0.0
O225 O 0.62242 0.18004 0.97149 0.0
C226 C 0.67531 0.16134 0.79914 0.0
Zn227 Zn 0.62537 0.13745 0.79233 0.0
C228 C 0.62374 0.15864 0.03255 0.0
O229 O 0.6254 0.13671 0.98056 0.0
C230 C 0.6256 0.16054 0.54523 0.0
O231 O 0.58692 0.13559 0.79641 0.0
O232 O 0.58477 0.17853 0.77973 0.0
N233 N 0.62805 0.09733 0.78028 0.0
C234 C 0.61627 0.08238 0.7031 0.0
C235 C 0.64957 0.06383 0.73613 0.0
N236 N 0.64864 0.08557 0.80168 0.0
N237 N 0.62967 0.06168 0.67143 0.0
C238 C 0.63203 0.23942 0.70699 0.0
C239 C 0.60426 0.25895 0.79966 0.0
N240 N 0.62141 0.22129 0.77987 0.0
N241 N 0.60424 0.23349 0.83777 0.0
N242 N 0.62147 0.26303 0.71733 0.0
H243 H 0.65841 0.21373 0.62913 0.0
H244 H 0.66576 0.24831 0.62231 0.0
H245 H 0.6433 0.23583 0.52756 0.0
C246 C 0.65099 0.23373 0.61702 0.0
C247 C 0.59093 0.08685 0.66669 0.0
H248 H 0.57964 0.08835 0.74669 0.0
H249 H 0.58387 0.07021 0.61582 0.0
H250 H 0.58951 0.1055 0.61383 0.0
O251 O 0.62583 0.13887 0.60392 0.0
O252 O 0.6251 0.18191 0.60008 0.0
C253 C 0.57414 0.1562 0.78878 0.0
O254 O 0.66354 0.18286 0.79704 0.0
O255 O 0.66366 0.1398 0.79313 0.0
Zn256 Zn 0.91842 0.37084 0.95291 0.0
O257 O 0.91739 0.37064 0.13891 0.0
C258 C 0.90687 0.42886 0.94975 0.0
Zn259 Zn 0.87958 0.37718 0.95884 0.0
C260 C 0.89839 0.37345 0.19926 0.0
O261 O 0.87866 0.37641 0.14614 0.0
C262 C 0.90045 0.37458 0.71255 0.0
O263 O 0.87296 0.33541 0.96111 0.0
O264 O 0.91146 0.32851 0.95639 0.0
N265 N 0.84433 0.38493 0.95136 0.0
C266 C 0.82809 0.37546 0.87697 0.0
C267 C 0.81396 0.41077 0.94654 0.0
N268 N 0.83543 0.4067 -0.00412 0.0
N269 N 0.80907 0.39146 0.87137 0.0
C270 C 0.97246 0.37726 0.00218 0.0
C271 C 0.98702 0.34471 0.91144 0.0
N272 N 0.95409 0.36416 0.95439 0.0
N273 N 0.96318 0.34396 0.89804 0.0
N274 N 0.99321 0.36548 0.97602 0.0
H275 H 0.95185 0.4029 0.11334 0.0
H276 H 0.98277 0.39892 0.15353 0.0
H277 H 0.97526 0.41877 0.02665 0.0
C278 C 0.97023 0.40072 0.07877 0.0
C279 C 0.83024 0.34999 0.81308 0.0
H280 H 0.82741 0.33347 0.87777 0.0
H281 H 0.81654 0.3481 0.74409 0.0
H282 H 0.84813 0.34766 0.77321 0.0
O283 O 0.88122 0.3782 0.77002 0.0
O284 O 0.91959 0.3708 0.7687 0.0
C285 C 0.89021 0.31925 0.95861 0.0
O286 O 0.92448 0.41315 0.94573 0.0
O287 O 0.88599 0.41902 0.95724 0.0
Zn288 Zn 0.41655 0.16665 0.78165 0.0
O289 O 0.41725 0.16635 0.96902 0.0
C290 C 0.36759 0.14229 0.79393 0.0
Zn291 Zn 0.41967 0.12322 0.78961 0.0
C292 C 0.41852 0.14475 0.02864 0.0
O293 O 0.41949 0.12298 0.97562 0.0
C294 C 0.41835 0.14532 0.5411 0.0
O295 O 0.45813 0.12525 0.79132 0.0
O296 O 0.45577 0.16828 0.77641 0.0
N297 N 0.41906 0.08289 0.786 0.0
C298 C 0.43136 0.06756 0.71216 0.0
C299 C 0.39919 0.04709 0.75836 0.0
N300 N 0.39925 0.06991 0.81628 0.0
N301 N 0.41902 0.04521 0.6907 0.0
C302 C 0.40167 0.22475 0.81796 0.0
C303 C 0.426 0.24474 0.69938 0.0
N304 N 0.41588 0.20638 0.77093 0.0
N305 N 0.43096 0.21885 0.69743 0.0
N306 N 0.40757 0.2488 0.77335 0.0
H307 H 0.38318 0.19892 0.94503 0.0
H308 H 0.38587 0.23307 -0.01483 0.0
H309 H 0.36517 0.22417 0.87462 0.0
C310 C 0.38296 0.2196 0.91122 0.0
C311 C 0.4563 0.07357 0.66953 0.0
H312 H 0.46784 0.07633 0.74694 0.0
H313 H 0.46386 0.05732 0.61787 0.0
H314 H 0.45676 0.09221 0.61651 0.0
O315 O 0.42025 0.12396 0.60131 0.0
O316 O 0.41583 0.16679 0.5944 0.0
C317 C 0.46864 0.14764 0.7843 0.0
O318 O 0.37775 0.16484 0.78816 0.0
O319 O 0.3808 0.12195 0.79231 0.0
Zn320 Zn 0.69399 0.63191 0.24212 0.0
O321 O 0.69515 0.67399 0.22298 0.0
C322 C 0.67398 0.62816 -0.00067 0.0
Zn323 Zn 0.65464 0.63216 0.2418 0.0
C324 C 0.67526 0.68559 0.20977 0.0
O325 O 0.65592 0.67248 0.21587 0.0
C326 C 0.6723 0.57833 0.27327 0.0
O327 O 0.65594 0.63624 0.42968 0.0
O328 O 0.69491 0.63453 0.42631 0.0
N329 N 0.6184 0.63316 0.24235 0.0
C330 C 0.60206 0.62439 0.32245 0.0
C331 C 0.58315 0.64025 0.17474 0.0
N332 N 0.60664 0.64294 0.15058 0.0
N333 N 0.57987 0.62848 0.28159 0.0
C334 C 0.74669 0.63978 0.16633 0.0
C335 C 0.76359 0.61119 0.27857 0.0
N336 N 0.7298 0.6292 0.23888 0.0
N337 N 0.74034 0.6116 0.30906 0.0
N338 N 0.76793 0.62863 0.18911 0.0
H339 H 0.72321 0.66354 0.05548 0.0
H340 H 0.75102 0.67872 0.09106 0.0
H341 H 0.75064 0.6531 -0.01427 0.0
C342 C 0.74237 0.65978 0.06895 0.0
C343 C 0.6079 0.61474 0.44486 0.0
H344 H 0.61314 0.63199 0.49634 0.0
H345 H 0.59253 0.60545 0.49217 0.0
H346 H 0.62294 0.60066 0.44278 0.0
O347 O 0.65325 0.59156 0.26588 0.0
O348 O 0.69226 0.59021 0.26306 0.0
C349 C 0.67557 0.63573 0.48493 0.0
O350 O 0.69323 0.62873 0.0569 0.0
O351 O 0.65423 0.62856 0.0553 0.0
Zn352 Zn 0.19419 0.89237 0.02344 0.0
O353 O 0.1933 0.84959 0.02555 0.0
C354 C 0.17424 0.8932 0.26628 0.0
Zn355 Zn 0.15334 0.89382 0.02329 0.0
C356 C 0.17303 0.83783 0.02568 0.0
O357 O 0.15412 0.85163 0.02787 0.0
C358 C 0.17367 0.94847 0.01272 0.0
O359 O 0.15317 0.89349 0.83874 0.0
O360 O 0.19249 0.89256 0.8356 0.0
N361 N 0.11576 0.89188 0.03735 0.0
C362 C 0.09664 0.90426 -0.01122 0.0
C363 C 0.08304 0.87539 0.11211 0.0
N364 N 0.107 0.87404 0.11389 0.0
N365 N 0.07571 0.8941 0.03396 0.0
C366 C 0.24992 0.88347 0.08516 0.0
C367 C 0.26657 0.90792 0.95226 0.0
N368 N 0.23217 0.89357 0.0169 0.0
N369 N 0.24281 0.9086 0.93428 0.0
N370 N 0.27173 0.89226 0.04649 0.0
H371 H 0.22828 0.85622 0.18984 0.0
H372 H 0.26025 0.85208 0.2054 0.0
H373 H 0.24562 0.87943 0.27158 0.0
C374 C 0.24572 0.86663 0.19391 0.0
C375 C 0.09874 0.92559 0.89522 0.0
H376 H 0.11613 0.92448 0.84816 0.0
H377 H 0.08391 0.92411 0.8317 0.0
H378 H 0.09783 0.94507 0.93711 0.0
O379 O 0.15378 0.93598 0.0159 0.0
O380 O 0.19305 0.93531 0.01711 0.0
C381 C 0.17274 0.89302 0.78061 0.0
O382 O 0.19412 0.89234 0.21095 0.0
O383 O 0.15497 0.89403 0.20828 0.0
Zn384 Zn 0.91199 0.62708 0.96831 0.0
O385 O 0.9491 0.63325 0.958 0.0
C386 C 0.9079 0.64762 0.7238 0.0
Zn387 Zn 0.90682 0.67143 0.9645 0.0
C388 C 0.95777 0.65646 0.95186 0.0
O389 O 0.94389 0.67614 0.95227 0.0
C390 C 0.86115 0.64238 -0.01387 0.0
O391 O 0.90864 0.67205 0.15211 0.0
O392 O 0.91302 0.62904 0.15276 0.0
N393 N 0.90348 0.71247 0.94936 0.0
C394 C 0.89131 0.7316 0.00526 0.0
C395 C 0.91404 0.75084 0.87739 0.0
N396 N 0.91741 0.72468 0.86972 0.0
N397 N 0.89766 0.75589 0.9613 0.0
C398 C 0.90811 0.5642 0.94216 0.0
C399 C 0.93777 0.55232 0.04615 0.0
N400 N 0.91808 0.58646 -0.01599 0.0
N401 N 0.93644 0.5788 0.04872 0.0
N402 N 0.92024 0.54247 0.97969 0.0
H403 H 0.89064 0.54974 0.78939 0.0
H404 H 0.87117 0.55728 0.91012 0.0
H405 H 0.88412 0.58389 0.82156 0.0
C406 C 0.88737 0.56393 0.86037 0.0
C407 C 0.87406 0.72656 0.10513 0.0
H408 H 0.87628 0.7065 0.14462 0.0
H409 H 0.87635 0.74163 0.17318 0.0
H410 H 0.85561 0.7281 0.07134 0.0
O411 O 0.87001 0.66559 0.97818 0.0
O412 O 0.87476 0.62239 0.98088 0.0
C413 C 0.91101 0.65021 0.20918 0.0
O414 O 0.91087 0.62628 0.78353 0.0
O415 O 0.90533 0.66919 0.77736 0.0
Zn416 Zn 0.18915 0.12182 0.93821 0.0
O417 O 0.18588 0.1647 0.93138 0.0
C418 C 0.16915 0.119 0.69759 0.0
Zn419 Zn 0.14855 0.1176 0.94252 0.0
C420 C 0.16497 0.17476 0.93116 0.0
O421 O 0.14679 0.15946 0.93476 0.0
C422 C 0.17173 0.06442 0.95422 0.0
O423 O 0.14853 0.11789 0.12726 0.0
O424 O 0.18764 0.12229 0.12606 0.0
N425 N 0.11114 0.11415 0.93567 0.0
C426 C 0.09242 0.12762 0.98036 0.0
C427 C 0.07799 0.09787 0.87274 0.0
N428 N 0.10195 0.09568 0.86925 0.0
N429 N 0.0713 0.11787 0.94129 0.0
C430 C 0.24495 0.13521 0.87796 0.0
C431 C 0.26123 0.10872 0.00124 0.0
N432 N 0.22699 0.12309 0.94125 0.0
N433 N 0.23742 0.10681 0.01772 0.0
N434 N 0.26669 0.12647 0.9142 0.0
H435 H 0.24058 0.17477 0.81314 0.0
H436 H 0.25576 0.15364 0.71198 0.0
H437 H 0.22376 0.15098 0.7352 0.0
C438 C 0.24105 0.15458 0.77804 0.0
C439 C 0.09501 0.14903 0.06762 0.0
H440 H 0.1102 0.14488 0.12663 0.0
H441 H 0.09891 0.168 0.02006 0.0
H442 H 0.07843 0.15104 0.12099 0.0
O443 O 0.15145 0.07561 0.9515 0.0
O444 O 0.19051 0.07885 0.94821 0.0
C445 C 0.16796 0.12011 0.18328 0.0
O446 O 0.18895 0.12092 0.75087 0.0
O447 O 0.14989 0.1173 0.75757 0.0
Zn448 Zn 0.63185 0.41789 0.42469 0.0
O449 O 0.62995 0.41445 0.24029 0.0
C450 C 0.662 0.46658 0.38859 0.0
Zn451 Zn 0.67047 0.41022 0.42483 0.0
C452 C 0.6491 0.41028 0.18237 0.0
O453 O 0.66852 0.40687 0.23807 0.0
C454 C 0.65257 0.41807 0.66736 0.0
O455 O 0.66156 0.3697 0.45338 0.0
O456 O 0.62305 0.37762 0.45437 0.0
N457 N 0.70595 0.4033 0.42109 0.0
C458 C 0.71888 0.38963 0.50054 0.0
C459 C 0.74212 0.41787 0.41604 0.0
N460 N 0.72048 0.42056 0.3671 0.0
N461 N 0.7415 0.39879 0.50118 0.0
C462 C 0.57643 0.41856 0.45615 0.0
C463 C 0.57257 0.45846 0.50698 0.0
N464 N 0.59779 0.43051 0.44077 0.0
N465 N 0.5952 0.45534 0.47118 0.0
N466 N 0.56031 0.43565 0.49971 0.0
H467 H 0.5761 0.37725 0.49831 0.0
H468 H 0.5523 0.38793 0.40239 0.0
H469 H 0.58254 0.38552 0.34595 0.0
C470 C 0.57143 0.39069 0.42343 0.0
C471 C 0.70986 0.36593 0.56975 0.0
H472 H 0.70204 0.35189 0.50767 0.0
H473 H 0.7244 0.35555 0.61712 0.0
H474 H 0.69588 0.37171 0.6336 0.0
O475 O 0.67196 0.41391 0.6121 0.0
O476 O 0.63369 0.42129 0.6086 0.0
C477 C 0.64015 0.36146 0.46718 0.0
O478 O 0.64096 0.45761 0.39695 0.0
O479 O 0.67918 0.4507 0.39925 0.0
Zn480 Zn 0.42194 0.86097 0.1903 0.0
O481 O 0.42318 0.86166 0.00296 0.0
C482 C 0.37207 0.88248 0.17591 0.0
Zn483 Zn 0.42347 0.90471 0.18223 0.0
C484 C 0.42389 0.88332 0.94328 0.0
O485 O 0.42408 0.90512 -0.00365 0.0
C486 C 0.42216 0.88245 0.43082 0.0
O487 O 0.46184 0.90556 0.18062 0.0
O488 O 0.46118 0.86248 0.19571 0.0
N489 N 0.42144 0.9449 0.18728 0.0
C490 C 0.43265 0.96091 0.26192 0.0
C491 C 0.40068 0.9801 0.20995 0.0
N492 N 0.40173 0.95709 0.15349 0.0
N493 N 0.41989 0.98294 0.27874 0.0
C494 C 0.41318 0.80259 0.26869 0.0
C495 C 0.44028 0.78291 0.17211 0.0
N496 N 0.42383 0.82079 0.1963 0.0
N497 N 0.44057 0.80848 0.13596 0.0
N498 N 0.4233 0.77882 0.25556 0.0
H499 H 0.38748 0.82854 0.34956 0.0
H500 H 0.37961 0.79404 0.35545 0.0
H501 H 0.40255 0.80588 0.44905 0.0
C502 C 0.3946 0.80836 0.36035 0.0
C503 C 0.45623 0.95529 0.31836 0.0
H504 H 0.47058 0.95922 0.25185 0.0
H505 H 0.45945 0.96812 0.39416 0.0
H506 H 0.45762 0.93442 0.3472 0.0
O507 O 0.42301 0.90382 0.36995 0.0
O508 O 0.4209 0.86076 0.37817 0.0
C509 C 0.47322 0.88397 0.18912 0.0
O510 O 0.38272 0.8603 0.18063 0.0
O511 O 0.38483 0.90334 0.17937 0.0
C512 C 0.1723 0.66574 0.5378 0.0
C513 C 0.15131 0.66959 0.60434 0.0
C514 C 0.17181 0.66479 0.41448 0.0
C515 C 0.15031 0.66761 0.35246 0.0
H516 H 0.18931 0.66335 0.58108 0.0
H517 H 0.18846 0.66183 0.36756 0.0
S518 S 0.09025 0.67825 0.4847 0.0
N519 N 0.10832 0.67642 0.59827 0.0
N520 N 0.1074 0.67449 0.3674 0.0
C521 C 0.12916 0.67149 0.41786 0.0
C522 C 0.12966 0.67253 0.54337 0.0
C523 C 0.63134 0.91615 0.74605 0.0
C524 C 0.62872 0.89272 0.81467 0.0
C525 C 0.63211 0.91574 0.62261 0.0
C526 C 0.63008 0.89192 0.56256 0.0
H527 H 0.63305 0.93502 0.78778 0.0
H528 H 0.63454 0.93427 0.57416 0.0
S529 S 0.62282 0.82493 0.70083 0.0
N530 N 0.62416 0.84487 0.81295 0.0
N531 N 0.62536 0.84419 0.58154 0.0
C532 C 0.62752 0.8683 0.63006 0.0
C533 C 0.62685 0.86868 0.75578 0.0
C534 C 0.35928 0.39493 0.31976 0.0
C535 C 0.37642 0.40891 0.38339 0.0
C536 C 0.35883 0.3966 0.19596 0.0
C537 C 0.37551 0.41231 0.1315 0.0
H538 H 0.34631 0.38234 0.36586 0.0
H539 H 0.34573 0.38499 0.1505 0.0
S540 S 0.42164 0.45583 0.25591 0.0
N541 N 0.40852 0.44141 0.37197 0.0
N542 N 0.40833 0.44366 0.14021 0.0
C543 C 0.39227 0.4269 0.19394 0.0
C544 C 0.39255 0.42545 0.31964 0.0
C545 C 0.85343 0.14956 0.50116 0.0
C546 C 0.87473 0.14854 0.56564 0.0
C547 C 0.85373 0.14994 0.37754 0.0
C548 C 0.87535 0.14936 0.31311 0.0
H549 H 0.8363 0.1501 0.54631 0.0
H550 H 0.83681 0.1507 0.33234 0.0
S551 S 0.93625 0.14666 0.43953 0.0
N552 N 0.91817 0.14692 0.5552 0.0
N553 N 0.91872 0.14776 0.32377 0.0
C554 C 0.89682 0.14838 0.37651 0.0
C555 C 0.89652 0.14793 0.50234 0.0
C556 C 0.14143 0.41415 0.46199 0.0
C557 C 0.14167 0.39013 0.40247 0.0
C558 C 0.14038 0.41465 0.58547 0.0
C559 C 0.13948 0.39116 0.65468 0.0
H560 H 0.1421 0.43281 0.41299 0.0
H561 H 0.14041 0.43366 0.62678 0.0
S562 S 0.13891 0.32293 0.54221 0.0
N563 N 0.14048 0.34218 0.42262 0.0
N564 N 0.13836 0.34307 0.65374 0.0
C565 C 0.13951 0.36697 0.5962 0.0
C566 C 0.14066 0.36647 0.47054 0.0
C567 C 0.89903 0.92204 0.58943 0.0
C568 C 0.87771 0.92172 0.6563 0.0
C569 C 0.89873 0.9225 0.46582 0.0
C570 C 0.87709 0.92269 0.40382 0.0
H571 H 0.91617 0.92189 0.63267 0.0
H572 H 0.91566 0.92264 0.41872 0.0
S573 S 0.81614 0.92234 0.53699 0.0
N574 N 0.83423 0.9218 0.65066 0.0
N575 N 0.83369 0.92278 0.41928 0.0
C576 C 0.8556 0.92247 0.46961 0.0
C577 C 0.85591 0.92194 0.59541 0.0
C578 C 0.37765 0.63729 0.97323 0.0
C579 C 0.39734 0.62809 0.9084 0.0
C580 C 0.37663 0.63464 0.09673 0.0
C581 C 0.39503 0.6223 0.16062 0.0
H582 H 0.36291 0.64678 0.9284 0.0
H583 H 0.36149 0.64282 0.14258 0.0
S584 S 0.45038 0.59422 0.03348 0.0
N585 N 0.43573 0.60594 0.91823 0.0
N586 N 0.43357 0.60062 0.14937 0.0
C587 C 0.41483 0.61297 0.097 0.0
C588 C 0.41602 0.61591 0.97136 0.0
C589 C 0.63428 0.13892 0.22998 0.0
C590 C 0.62399 0.15958 0.16306 0.0
C591 C 0.635 0.13955 0.35345 0.0
C592 C 0.6254 0.16082 0.4147 0.0
H593 H 0.64209 0.12223 0.18665 0.0
H594 H 0.64336 0.12336 0.40124 0.0
S595 S 0.59671 0.22013 0.28116 0.0
N596 N 0.60424 0.2022 0.16764 0.0
N597 N 0.60556 0.20328 0.39918 0.0
C598 C 0.61539 0.18182 0.34889 0.0
C599 C 0.61466 0.18121 0.22327 0.0
C600 C 0.87833 0.37123 0.39795 0.0
C601 C 0.89943 0.37356 0.32994 0.0
C602 C 0.87888 0.37147 0.52144 0.0
C603 C 0.90047 0.37434 0.58191 0.0
H604 H 0.86124 0.36891 0.35565 0.0
H605 H 0.86225 0.36902 0.56997 0.0
S606 S 0.96086 0.38121 0.44551 0.0
N607 N 0.94271 0.37858 0.33299 0.0
N608 N 0.9436 0.37951 0.56427 0.0
C609 C 0.92175 0.37658 0.51513 0.0
C610 C 0.92124 0.37611 0.38948 0.0
C611 C 0.40644 0.16434 0.34423 0.0
C612 C 0.41907 0.14524 0.41046 0.0
C613 C 0.40647 0.16424 0.22046 0.0
C614 C 0.41906 0.14497 0.15875 0.0
H615 H 0.39616 0.17924 0.38832 0.0
H616 H 0.39625 0.17908 0.1729 0.0
S617 S 0.45815 0.09351 0.28929 0.0
N618 N 0.44677 0.10862 0.40376 0.0
N619 N 0.44637 0.10806 0.172 0.0
C620 C 0.43234 0.12633 0.22357 0.0
C621 C 0.43247 0.12656 0.34922 0.0
C622 C 0.65432 0.63672 0.80481 0.0
C623 C 0.6747 0.62915 0.8684 0.0
C624 C 0.65492 0.63943 0.68143 0.0
C625 C 0.67584 0.63444 0.61614 0.0
H626 H 0.63781 0.64107 0.85068 0.0
H627 H 0.63886 0.64573 0.63733 0.0
S628 S 0.73412 0.61363 0.74053 0.0
N629 N 0.71647 0.61656 0.8567 0.0
N630 N 0.71756 0.62134 0.6254 0.0
C631 C 0.6964 0.62686 0.67881 0.0
C632 C 0.69582 0.62423 0.80453 0.0
C633 C 0.19463 0.89258 0.46203 0.0
C634 C 0.17336 0.89319 0.39721 0.0
C635 C 0.19425 0.89252 0.58561 0.0
C636 C 0.17258 0.89305 0.64968 0.0
H637 H 0.21179 0.89216 0.41721 0.0
H638 H 0.21115 0.89205 0.63106 0.0
S639 S 0.11175 0.89474 0.52237 0.0
N640 N 0.1299 0.89435 0.407 0.0
N641 N 0.12921 0.89419 0.63838 0.0
C642 C 0.15115 0.89366 0.58598 0.0
C643 C 0.15153 0.89374 0.46017 0.0
C644 C 0.90656 0.67159 0.52737 0.0
C645 C 0.90833 0.64763 0.59281 0.0
C646 C 0.90763 0.67229 0.40376 0.0
C647 C 0.91055 0.64907 0.34027 0.0
H648 H 0.90442 0.69007 0.57178 0.0
H649 H 0.9061 0.69123 0.35782 0.0
S650 S 0.91582 0.58104 0.46931 0.0
N651 N 0.91293 0.59999 0.58424 0.0
N652 N 0.91503 0.60125 0.35286 0.0
C653 C 0.91229 0.62492 0.40464 0.0
C654 C 0.91115 0.62422 0.53045 0.0
C655 C 0.18959 0.12188 0.49967 0.0
C656 C 0.16838 0.11907 0.56674 0.0
C657 C 0.18927 0.12227 0.37607 0.0
C658 C 0.16773 0.11986 0.31428 0.0
H659 H 0.20664 0.12386 0.54272 0.0
H660 H 0.2061 0.12448 0.32881 0.0
S661 S 0.10713 0.11192 0.44813 0.0
N662 N 0.12514 0.11378 0.56158 0.0
N663 N 0.12457 0.11443 0.33023 0.0
C664 C 0.14637 0.117 0.38029 0.0
C665 C 0.14669 0.11662 0.50609 0.0
C666 C 0.67091 0.40862 -0.01199 0.0
C667 C 0.64929 0.41151 0.05103 0.0
C668 C 0.67193 0.41125 0.86453 0.0
C669 C 0.65138 0.41697 0.79858 0.0
H670 H 0.68732 0.40442 0.03429 0.0
H671 H 0.68898 0.40861 0.82059 0.0
S672 S 0.59018 0.42638 0.92031 0.0
N673 N 0.60674 0.42032 0.03716 0.0
N674 N 0.60861 0.42539 0.8062 0.0
C675 C 0.62961 0.41993 0.86044 0.0
C676 C 0.62857 0.41715 -0.0139 0.0
C677 C 0.41314 0.86236 0.75378 0.0
C678 C 0.42413 0.88315 0.813 0.0
C679 C 0.41261 0.86223 0.63014 0.0
C680 C 0.42311 0.88284 0.56131 0.0
H681 H 0.40451 0.84629 0.80329 0.0
H682 H 0.40363 0.84605 0.5883 0.0
S683 S 0.45718 0.9398 0.67416 0.0
N684 N 0.44756 0.92359 0.79388 0.0
N685 N 0.44685 0.9232 0.5624 0.0
C686 C 0.43482 0.90326 0.61982 0.0
C687 C 0.43525 0.90346 0.74542 0.0
C688 C 0.14544 0.76856 0.02459 0.0
C689 C 0.16447 0.75229 -0.00922 0.0
C690 C 0.14857 0.7959 0.03744 0.0
C691 C 0.1709 0.80841 0.01762 0.0
H692 H 0.12789 0.76014 0.04207 0.0
H693 H 0.13319 0.80733 0.06319 0.0
S694 S 0.22644 0.7752 0.92228 0.0
N695 N 0.20642 0.75116 0.93325 0.0
N696 N 0.21234 0.80225 0.95972 0.0
C697 C 0.19012 0.79243 0.98371 0.0
C698 C 0.1869 0.76455 0.96964 0.0
C699 C 0.53802 0.9094 0.18587 0.0
C700 C 0.55198 0.88635 0.19376 0.0
C701 C 0.51286 0.90834 0.18462 0.0
C702 C 0.50017 0.88416 0.19132 0.0
H703 H 0.54659 0.92864 0.18023 0.0
H704 H 0.5033 0.92681 0.17807 0.0
S705 S 0.52787 0.81778 0.21479 0.0
N706 N 0.55086 0.83837 0.20942 0.0
N707 N 0.50383 0.8364 0.20726 0.0
C708 C 0.51385 0.86089 0.19987 0.0
C709 C 0.53956 0.86197 0.20106 0.0
C710 C 0.40481 0.31918 0.85115 0.0
C711 C 0.383 0.32729 0.80166 0.0
C712 C 0.41202 0.29296 0.84833 0.0
C713 C 0.39758 0.2739 0.79762 0.0
H714 H 0.417 0.33343 0.8875 0.0
H715 H 0.42949 0.28767 0.88099 0.0
S716 S 0.33806 0.28396 0.66626 0.0
N717 N 0.3462 0.31362 0.70853 0.0
N718 N 0.36002 0.26391 0.70377 0.0
C719 C 0.37508 0.28115 0.75502 0.0
C720 C 0.36766 0.30801 0.75738 0.0
C721 C 1.00397 0.11423 0.96894 0.0
C722 C 0.99688 0.14069 0.95244 0.0
C723 C 0.02831 0.10723 0.97148 0.0
C724 C 0.04673 0.12626 0.95728 0.0
H725 H 0.99077 0.09858 0.97333 0.0
H726 H 0.0328 0.08653 0.98048 0.0
S727 S 0.03786 0.19824 0.90882 0.0
N728 N 1.01055 0.18609 0.92405 0.0
N729 N 0.05588 0.17273 0.92221 0.0
C730 C 0.03991 0.15279 0.94216 0.0
C731 C 1.01517 0.15998 0.94118 0.0
C732 C 0.1743 0.24778 -0.00149 0.0
C733 C 0.15173 0.25864 0.97504 0.0
C734 C 0.17902 0.22091 0.97851 0.0
C735 C 0.16129 0.20399 0.93462 0.0
H736 H 0.18793 0.25982 0.03787 0.0
H737 H 0.19628 0.2131 0.00286 0.0
S738 S 0.10043 0.22435 0.84352 0.0
N739 N 0.11241 0.25139 0.89595 0.0
N740 N 0.12112 0.2014 0.85552 0.0
C741 C 0.13915 0.21529 0.90423 0.0
C742 C 0.13441 0.24244 0.92538 0.0
C743 C 0.04338 0.92719 -0.0019 0.0
C744 C 0.05075 0.9008 0.01393 0.0
C745 C 1.01895 0.93394 -0.00354 0.0
C746 C 1.00066 0.91471 0.01094 0.0
H747 H 0.05643 0.94299 -0.00677 0.0
H748 H 1.01427 0.95459 -0.0122 0.0
S749 S 1.0102 0.84282 0.05832 0.0
N750 N 0.0374 0.85525 0.04228 0.0
N751 N 0.99197 0.86815 0.04583 0.0
C752 C 1.00775 0.88827 0.02559 0.0
C753 C 0.03258 0.88133 0.02565 0.0
C754 C 0.39217 0.71817 0.37594 0.0
C755 C 0.4099 0.70579 0.44475 0.0
C756 C 0.39654 0.74222 0.31569 0.0
C757 C 0.41879 0.75479 0.32195 0.0
H758 H 0.3751 0.70875 0.3639 0.0
H759 H 0.3827 0.7507 0.26088 0.0
S760 S 0.47056 0.73252 0.4973 0.0
N761 N 0.45009 0.70931 0.52192 0.0
N762 N 0.45834 0.75445 0.40629 0.0
C763 C 0.43649 0.74325 0.39244 0.0
C764 C 0.43202 0.71879 0.45462 0.0
C765 C 0.53284 0.17499 0.74914 0.0
C766 C 0.54723 0.15399 0.79051 0.0
C767 C 0.50762 0.17289 0.74768 0.0
C768 C 0.49552 0.14965 0.78713 0.0
H769 H 0.54111 0.19317 0.71627 0.0
H770 H 0.49754 0.18958 0.71402 0.0
S771 S 0.52448 0.08987 0.9159 0.0
N772 N 0.54698 0.10988 0.88079 0.0
N773 N 0.50016 0.10583 0.87621 0.0
C774 C 0.50968 0.12875 0.83099 0.0
C775 C 0.53528 0.13094 0.83316 0.0
C776 C 0.90068 0.24554 0.91738 0.0
C777 C 0.87796 0.2338 0.93647 0.0
C778 C 0.90441 0.27291 0.92562 0.0
C779 C 0.88564 0.29004 0.95366 0.0
H780 H 0.91591 0.23348 0.89583 0.0
H781 H 0.92224 0.28067 0.90912 0.0
S782 S 0.82277 0.2695 0.0168 0.0
N783 N 0.83641 0.24168 -0.01317 0.0
N784 N 0.8434 0.29288 0.0044 0.0
C785 C 0.8628 0.27859 0.97374 0.0
C786 C 0.85897 0.25064 0.96453 0.0
C787 C 0.64981 0.74961 0.10173 0.0
C788 C 0.65806 0.76698 0.18585 0.0
C789 C 0.65743 0.72342 0.1032 0.0
C790 C 0.67363 0.7141 0.18833 0.0
H791 H 0.63606 0.7558 0.0408 0.0
H792 H 0.64937 0.70992 0.04256 0.0
S793 S 0.70236 0.7532 0.41832 0.0
N794 N 0.68461 0.77429 0.34905 0.0
N795 N 0.69938 0.72487 0.35108 0.0
C796 C 0.68358 0.73196 0.26617 0.0
C797 C 0.67558 0.75855 0.26534 0.0
C798 C 0.91065 0.7995 0.02671 0.0
C799 C 0.89197 0.78211 -0.00019 0.0
C800 C 0.90657 0.82639 0.04448 0.0
C801 C 0.88357 0.83737 0.03476 0.0
H802 H 0.92879 0.79231 0.03046 0.0
H803 H 0.92183 0.8388 0.06252 0.0
S804 S 0.82823 0.79989 0.96965 0.0
N805 N 0.84946 0.77742 0.96747 0.0
N806 N 0.84153 0.82799 0.00127 0.0
C807 C 0.86448 0.81992 0.01238 0.0
C808 C 0.86873 0.79234 -0.00539 0.0
C809 C 0.64816 0.29961 0.65705 0.0
C810 C 0.62603 0.28685 0.6495 0.0
C811 C 0.65285 0.3231 0.5931 0.0
C812 C 0.6356 0.3347 0.51894 0.0
H813 H 0.66168 0.29167 0.71532 0.0
H814 H 0.66977 0.33275 0.60654 0.0
S815 S 0.57528 0.30745 0.46323 0.0
N816 N 0.587 0.28631 0.55954 0.0
N817 N 0.59583 0.33052 0.4374 0.0
C818 C 0.61352 0.32163 0.50865 0.0
C819 C 0.60873 0.2977 0.57453 0.0
C820 C 0.02629 0.39785 0.97465 0.0
C821 C 1.01698 0.37283 0.00731 0.0
C822 C 0.05045 0.40398 -0.00751 0.0
C823 C 0.06589 0.38517 0.04331 0.0
H824 H 1.01512 0.41224 0.93008 0.0
H825 H 0.05728 0.42298 0.9609 0.0
S826 S 0.04882 0.31812 0.1582 0.0
N827 N 1.02402 0.33023 0.10184 0.0
N828 N 0.06925 0.3415 0.1378 0.0
C829 C 0.05622 0.36065 0.08266 0.0
C830 C 0.03181 0.35449 0.06365 0.0
C831 C 0.51808 0.63802 0.39942 0.0
C832 C 0.51196 0.61271 0.44548 0.0
C833 C 0.5405 0.64309 0.34792 0.0
C834 C 0.55735 0.62297 0.3382 0.0
H835 H 0.50525 0.65377 0.39727 0.0
H836 H 0.54458 0.66277 0.31327 0.0
S837 S 0.54955 0.55282 0.43229 0.0
N838 N 0.52461 0.56716 0.47431 0.0
N839 N 0.56597 0.5764 0.36782 0.0
C840 C 0.55137 0.59746 0.38009 0.0
C841 C 0.52888 0.59244 0.43612 0.0
C842 C 0.51067 0.40279 0.67603 0.0
C843 C 0.49381 0.42298 0.68173 0.0
C844 C 0.53225 0.4068 0.61495 0.0
C845 C 0.53731 0.43089 0.55426 0.0
H846 H 0.50704 0.38377 0.71872 0.0
H847 H 0.54515 0.39111 0.6188 0.0
S848 S 0.49985 0.49104 0.55711 0.0
N849 N 0.48463 0.46888 0.63735 0.0
N850 N 0.52416 0.47587 0.51227 0.0
C851 C 0.5207 0.45149 0.56296 0.0
C852 C 0.49923 0.44769 0.62926 0.0
C853 C 1.01733 0.69129 0.91621 0.0
C854 C 0.03339 0.67223 0.95789 0.0
C855 C 0.99292 0.6857 0.91119 0.0
C856 C 0.98378 0.66085 0.9484 0.0
H857 H 1.02373 0.71079 0.88929 0.0
H858 H 0.9811 0.70114 0.87976 0.0
S859 S 1.01873 0.60464 0.07045 0.0
N860 N 0.03875 0.62806 0.0413 0.0
N861 N 0.99284 0.61706 0.02953 0.0
C862 C 0.99982 0.64144 -0.01127 0.0
C863 C 0.02467 0.64727 -0.00564 0.0
C864 C 0.16171 0.56897 0.95427 0.0
C865 C 0.14112 0.584 0.97672 0.0
C866 C 0.16141 0.54128 0.96338 0.0
C867 C 0.14051 0.52706 -0.00573 0.0
H868 H 0.17855 0.57867 0.93246 0.0
H869 H 0.17797 0.53081 0.95017 0.0
S870 S 0.08145 0.55617 0.05861 0.0
N871 N 0.09881 0.58203 0.0279 0.0
N872 N 0.09847 0.5299 0.04507 0.0
C873 C 0.11953 0.54152 0.01273 0.0
C874 C 0.11979 0.56995 0.00381 0.0
C875 C 0.71644 0.92726 0.15332 0.0
C876 C 0.70623 0.90171 0.15856 0.0
C877 C 0.74076 0.9315 0.12517 0.0
C878 C 0.75628 0.91049 0.10145 0.0
H879 H 0.70544 0.94435 0.16824 0.0
H880 H 0.74744 0.95161 0.11944 0.0
S881 S 0.73906 0.83965 0.10319 0.0
N882 N 0.71417 0.85485 0.13959 0.0
N883 N 0.75953 0.86305 0.08396 0.0
C884 C 0.74658 0.88478 0.10861 0.0
C885 C 0.72173 0.88037 0.13785 0.0
C886 C 0.39917 0.50427 0.68569 0.0
C887 C 0.3767 0.49175 0.6955 0.0
C888 C 0.4015 0.53029 0.64451 0.0
C889 C 0.38146 0.54521 0.612 0.0
H890 H 0.41538 0.49385 0.70845 0.0
H891 H 0.41931 0.53875 0.63916 0.0
S892 S 0.31842 0.52206 0.62204 0.0
N893 N 0.33384 0.4963 0.66964 0.0
N894 N 0.33821 0.54577 0.59328 0.0
C895 C 0.35875 0.5332 0.62235 0.0
C896 C 0.35637 0.50638 0.66397 0.0
C897 C 0.73807 0.13319 0.84266 0.0
C898 C 0.7522 0.15495 0.87374 0.0
C899 C 0.71378 0.13583 0.81429 0.0
C900 C 0.70205 0.16041 0.81654 0.0
H901 H 0.74583 0.11368 0.84284 0.0
H902 H 0.70396 0.11811 0.79349 0.0
S903 S 0.73095 0.22392 0.89166 0.0
N904 N 0.75266 0.20214 0.90435 0.0
N905 N 0.70711 0.20731 0.85041 0.0
C906 C 0.71615 0.18258 0.8445 0.0
C907 C 0.74109 0.17982 0.8733 0.0
C908 C 0.89401 0.50266 0.97814 0.0
C909 C 0.91648 0.51467 0.95896 0.0
C910 C 0.89102 0.47506 0.97278 0.0
C911 C 0.91039 0.45826 0.94841 0.0
H912 H 0.87883 0.51452 0.00227 0.0
H913 H 0.87342 0.46681 -0.00909 0.0
S914 S 0.9726 0.4804 0.88216 0.0
N915 N 0.95814 0.50792 0.9087 0.0
N916 N 0.95261 0.4564 0.89708 0.0
C917 C 0.9328 0.47025 0.92541 0.0
C918 C 0.93581 0.49829 0.93134 0.0
C919 C 0.30625 0.11008 0.85134 0.0
C920 C 0.2908 0.13147 0.86914 0.0
C921 C 0.3306 0.11387 0.82276 0.0
C922 C 0.34093 0.13931 0.8113 0.0
H923 H 0.29949 0.09008 0.86215 0.0
H924 H 0.34154 0.09652 0.81277 0.0
S925 S 0.30826 0.20223 0.84837 0.0
N926 N 0.2877 0.17916 0.87351 0.0
N927 N 0.33313 0.18645 0.81702 0.0
C928 C 0.32549 0.16098 0.82577 0.0
C929 C 0.3006 0.15705 0.85538 0.0
C930 C 0.6482 0.53797 0.318 0.0
C931 C 0.67082 0.54968 0.30013 0.0
C932 C 0.64576 0.51126 0.34803 0.0
C933 C 0.66583 0.49496 0.36134 0.0
H934 H 0.63207 0.54951 0.3095 0.0
H935 H 0.62785 0.50339 0.3604 0.0
S936 S 0.7292 0.51583 0.32507 0.0
N937 N 0.71384 0.54301 0.29856 0.0
N938 N 0.7092 0.49241 0.35486 0.0
C939 C 0.68864 0.50631 0.34407 0.0
C940 C 0.69115 0.53373 0.3134 0.0
C941 C 0.33134 0.86218 0.13129 0.0
C942 C 0.34541 0.88453 0.15747 0.0
C943 C 0.3069 0.86444 0.101 0.0
C944 C 0.29545 0.88913 0.09595 0.0
H945 H 0.33944 0.84285 0.13009 0.0
H946 H 0.2972 0.84693 0.07643 0.0
S947 S 0.32303 0.95348 0.16496 0.0
N948 N 0.34488 0.93211 0.18291 0.0
N949 N 0.2996 0.93602 0.12546 0.0
C950 C 0.30897 0.91137 0.12576 0.0
C951 C 0.33367 0.90916 0.15686 0.0
C952 C 0.63287 1.00144 0.48842 0.0
C953 C 0.62529 1.01082 0.37724 0.0
C954 C 0.63362 1.01804 0.58475 0.0
C955 C 0.62697 0.04463 0.57299 0.0
H956 H 0.63869 0.98123 0.50017 0.0
H957 H 0.63967 1.01017 0.66889 0.0
S958 S 0.6075 0.0788 0.29627 0.0
N959 N 0.61175 0.04796 0.25869 0.0
N960 N 0.61427 0.07994 0.43734 0.0
C961 C 0.61998 0.05436 0.4607 0.0
C962 C 0.61893 0.03725 0.36333 0.0
C963 C 0.22543 0.41945 0.95585 0.0
C964 C 0.21494 0.39426 0.97341 0.0
C965 C 0.24773 0.42251 0.90044 0.0
C966 C 0.26028 0.40056 0.8615 0.0
H967 H 0.21601 0.43705 0.98095 0.0
H968 H 0.25508 0.44218 0.88583 0.0
S969 S 0.24174 0.33048 0.88949 0.0
N970 N 0.21985 0.3468 0.95237 0.0
N971 N 0.26142 0.35308 0.84427 0.0
C972 C 0.25057 0.37531 0.88121 0.0
C973 C 0.228 0.37203 0.9388 0.0
C974 C 0.85463 0.0212 -0.00019 0.0
C975 C 0.87623 1.00702 -0.00072 0.0
C976 C 0.85423 0.04897 0.9834 0.0
C977 C 0.87541 0.06388 0.96527 0.0
H978 H 0.83781 1.01081 0.0133 0.0
H979 H 0.83714 0.0588 -0.01427 0.0
S980 S 0.93678 0.0364 0.95196 0.0
N981 N 0.91943 1.01036 0.97672 0.0
N982 N 0.91865 0.06187 0.94499 0.0
C983 C 0.8971 0.04986 0.96333 0.0
C984 C 0.89751 0.02171 0.98053 0.0
C985 C 0.24931 0.65286 0.28662 0.0
C986 C 0.25649 0.64666 0.17115 0.0
C987 C 0.26514 0.65072 0.38068 0.0
C988 C 0.28841 0.64184 0.36226 0.0
H989 H 0.23126 0.65916 0.3046 0.0
H990 H 0.25929 0.65608 0.46803 0.0
S991 S 0.31438 0.61837 0.08257 0.0
N992 N 0.28745 0.62865 0.04683 0.0
N993 N 0.317 0.6234 0.22507 0.0
C994 C 0.29535 0.634 0.24916 0.0
C995 C 0.27938 0.63661 0.15329 0.0
C996 C 0.42791 0.02454 0.37727 0.0
C997 C 0.42015 0.99827 0.38273 0.0
C998 C 0.42801 0.03956 0.479 0.0
C999 C 0.42096 0.02864 0.5899 0.0
H1000 H 0.43353 0.03354 0.2937 0.0
H1001 H 0.43282 0.06014 0.47001 0.0
S1002 S 0.39642 0.96129 0.64551 0.0
N1003 N 0.40319 0.96236 0.50333 0.0
N1004 N 0.4042 0.99036 0.69571 0.0
C1005 C 0.41271 1.00241 0.59514 0.0
C1006 C 0.41222 0.98725 0.49136 0.0
C1007 C 0.82293 0.66064 0.06088 0.0
C1008 C 0.8358 0.63887 0.01981 0.0
C1009 C 0.80044 0.65728 0.11382 0.0
C1010 C 0.79002 0.63214 0.1264 0.0
H1011 H 0.83072 0.68028 0.05767 0.0
H1012 H 0.79162 0.67423 0.14976 0.0
S1013 S 0.81452 0.56929 0.02149 0.0
N1014 N 0.83526 0.59158 -0.01354 0.0
N1015 N 0.79278 0.58555 0.08601 0.0
C1016 C 0.80198 0.61045 0.08087 0.0
C1017 C 0.82489 0.61376 0.02698 0.0
C1018 C 0.15196 1.01963 0.97473 0.0
C1019 C 0.17312 0.03489 0.96792 0.0
C1020 C 0.1524 0.99199 -0.00988 0.0
C1021 C 0.17402 0.97806 -0.00035 0.0
H1022 H 0.13472 0.02908 0.96826 0.0
H1023 H 0.13549 0.98147 -0.00587 0.0
S1024 S 0.23469 1.00838 -0.01197 0.0
N1025 N 0.21651 0.03371 0.97242 0.0
N1026 N 0.21735 0.98195 0.00113 0.0
C1027 C 0.19539 0.99303 -0.00687 0.0
C1028 C 0.19493 0.02128 0.97734 0.0
C1029 C 0.75118 0.39415 0.71252 0.0
C1030 C 0.75868 0.39583 0.59332 0.0
C1031 C 0.76774 0.39262 0.80362 0.0
C1032 C 0.7922 0.39333 0.77826 0.0
H1033 H 0.73241 0.39457 0.73589 0.0
H1034 H 0.76149 0.39096 0.89423 0.0
S1035 S 0.82092 0.4025 0.48406 0.0
N1036 N 0.79209 0.40073 0.45656 0.0
N1037 N 0.8233 0.39934 0.62874 0.0
C1038 C 0.79995 0.39658 0.66055 0.0
C1039 C 0.78315 0.39754 0.56786 0.0
loop_
_geom_bond_atom_site_label_1
_geom_bond_atom_site_label_2
_geom_bond_distance
_geom_bond_site_symmetry_2
_ccdc_geom_bond_type
Zn0 O1 2.055 1_554 S
Zn0 O8 2.046 . S
Zn0 N16 2.036 . S
Zn0 O28 2.053 . S
Zn0 O30 2.066 . S
O1 Zn0 2.055 1_556 S
O1 C4 1.259 . S
C2 O30 1.256 . S
C2 O31 1.244 . S
Zn3 O5 2.046 1_554 S
Zn3 O7 2.055 . S
Zn3 N9 2.036 . S
Zn3 O27 2.066 . S
Zn3 O31 2.053 . S
C4 O1 1.259 . S
C4 O5 1.254 . S
O5 Zn3 2.046 1_556 S
O5 C4 1.254 . S
C6 O27 1.256 . S
C6 O28 1.244 . S
O7 Zn3 2.055 . S
O7 C29 1.259 . S
O8 Zn0 2.046 . S
O8 C29 1.254 . S
N9 Zn3 2.036 . S
N9 C10 1.298 . S
N9 N12 1.398 . S
C10 N9 1.298 . S
C10 N13 1.367 . S
C10 C23 1.481 . S
C11 N12 1.299 . S
C11 N13 1.379 . S
N12 N9 1.398 . S
N12 C11 1.299 . S
N13 C10 1.367 . S
N13 C11 1.379 . S
C14 N16 1.298 . S
C14 N18 1.367 . S
C14 C22 1.481 1_554 S
C15 N17 1.299 . S
C15 N18 1.379 . S
N16 Zn0 2.036 . S
N16 C14 1.298 . S
N16 N17 1.398 . S
N17 C15 1.299 . S
N17 N16 1.398 . S
N18 C14 1.367 . S
N18 C15 1.379 . S
H19 C22 0.980 . S
H20 C22 0.981 . S
H21 C22 0.981 . S
C22 C14 1.481 1_556 S
C22 H19 0.980 . S
C22 H20 0.981 . S
C22 H21 0.981 . S
C23 C10 1.481 . S
C23 H24 0.980 . S
C23 H25 0.981 . S
C23 H26 0.981 . S
H24 C23 0.980 . S
H25 C23 0.981 . S
H26 C23 0.981 . S
O27 Zn3 2.066 . S
O27 C6 1.256 . S
O28 Zn0 2.053 . S
O28 C6 1.244 . S
C29 O7 1.259 . S
C29 O8 1.254 . S
O30 Zn0 2.066 . S
O30 C2 1.256 . S
O31 C2 1.244 . S
O31 Zn3 2.053 . S
Zn32 O33 2.055 . S
Zn32 O40 2.046 . S
Zn32 N48 2.036 . S
Zn32 O60 2.053 . S
Zn32 O62 2.066 . S
O33 Zn32 2.055 . S
O33 C36 1.259 . S
C34 O62 1.256 . S
C34 O63 1.244 . S
Zn35 O37 2.046 . S
Zn35 O39 2.055 . S
Zn35 N41 2.036 . S
Zn35 O59 2.066 . S
Zn35 O63 2.053 . S
C36 O33 1.259 . S
C36 O37 1.254 . S
O37 Zn35 2.046 . S
O37 C36 1.254 . S
C38 O59 1.256 . S
C38 O60 1.244 . S
O39 Zn35 2.055 . S
O39 C61 1.259 . S
O40 Zn32 2.046 . S
O40 C61 1.254 . S
N41 Zn35 2.036 . S
N41 C42 1.298 . S
N41 N44 1.398 . S
C42 N41 1.298 . S
C42 N45 1.367 . S
C42 C55 1.481 . S
C43 N44 1.299 . S
C43 N45 1.379 . S
N44 N41 1.398 . S
N44 C43 1.299 . S
N45 C42 1.367 . S
N45 C43 1.379 . S
C46 N48 1.298 . S
C46 N50 1.367 . S
C46 C54 1.481 . S
C47 N49 1.299 . S
C47 N50 1.379 . S
N48 Zn32 2.036 . S
N48 C46 1.298 . S
N48 N49 1.398 . S
N49 C47 1.299 . S
N49 N48 1.398 . S
N50 C46 1.367 . S
N50 C47 1.379 . S
H51 C54 0.980 . S
H52 C54 0.981 . S
H53 C54 0.981 . S
C54 C46 1.481 . S
C54 H51 0.980 . S
C54 H52 0.981 . S
C54 H53 0.981 . S
C55 C42 1.481 . S
C55 H56 0.980 . S
C55 H57 0.981 . S
C55 H58 0.981 . S
H56 C55 0.980 . S
H57 C55 0.981 . S
H58 C55 0.981 . S
O59 Zn35 2.066 . S
O59 C38 1.256 . S
O60 Zn32 2.053 . S
O60 C38 1.244 . S
C61 O39 1.259 . S
C61 O40 1.254 . S
O62 Zn32 2.066 . S
O62 C34 1.256 . S
O63 C34 1.244 . S
O63 Zn35 2.053 . S
Zn64 O65 2.055 . S
Zn64 O72 2.046 . S
Zn64 N80 2.036 . S
Zn64 O92 2.053 . S
Zn64 O94 2.066 . S
O65 Zn64 2.055 . S
O65 C68 1.259 . S
C66 O94 1.256 . S
C66 O95 1.244 . S
Zn67 O69 2.046 . S
Zn67 O71 2.055 . S
Zn67 N73 2.036 . S
Zn67 O91 2.066 . S
Zn67 O95 2.053 . S
C68 O65 1.259 . S
C68 O69 1.254 . S
O69 Zn67 2.046 . S
O69 C68 1.254 . S
C70 O91 1.256 . S
C70 O92 1.244 . S
O71 Zn67 2.055 . S
O71 C93 1.259 . S
O72 Zn64 2.046 . S
O72 C93 1.254 . S
N73 Zn67 2.036 . S
N73 C74 1.298 . S
N73 N76 1.398 . S
C74 N73 1.298 . S
C74 N77 1.367 . S
C74 C87 1.481 . S
C75 N76 1.299 . S
C75 N77 1.379 . S
N76 N73 1.398 . S
N76 C75 1.299 . S
N77 C74 1.367 . S
N77 C75 1.379 . S
C78 N80 1.298 . S
C78 N82 1.367 . S
C78 C86 1.481 . S
C79 N81 1.299 . S
C79 N82 1.379 . S
N80 Zn64 2.036 . S
N80 C78 1.298 . S
N80 N81 1.398 . S
N81 C79 1.299 . S
N81 N80 1.398 . S
N82 C78 1.367 . S
N82 C79 1.379 . S
H83 C86 0.980 . S
H84 C86 0.981 . S
H85 C86 0.981 . S
C86 C78 1.481 . S
C86 H83 0.980 . S
C86 H84 0.981 . S
C86 H85 0.981 . S
C87 C74 1.481 . S
C87 H88 0.980 . S
C87 H89 0.981 . S
C87 H90 0.981 . S
H88 C87 0.980 . S
H89 C87 0.981 . S
H90 C87 0.981 . S
O91 Zn67 2.066 . S
O91 C70 1.256 . S
O92 Zn64 2.053 . S
O92 C70 1.244 . S
C93 O71 1.259 . S
C93 O72 1.254 . S
O94 Zn64 2.066 . S
O94 C66 1.256 . S
O95 C66 1.244 . S
O95 Zn67 2.053 . S
Zn96 O97 2.055 . S
Zn96 O104 2.046 1_556 S
Zn96 N112 2.036 . S
Zn96 O124 2.053 . S
Zn96 O126 2.066 . S
O97 Zn96 2.055 . S
O97 C100 1.259 . S
C98 O126 1.256 . S
C98 O127 1.244 . S
Zn99 O101 2.046 . S
Zn99 O103 2.055 1_556 S
Zn99 N105 2.036 . S
Zn99 O123 2.066 . S
Zn99 O127 2.053 . S
C100 O97 1.259 . S
C100 O101 1.254 . S
O101 Zn99 2.046 . S
O101 C100 1.254 . S
C102 O123 1.256 . S
C102 O124 1.244 . S
O103 Zn99 2.055 1_554 S
O103 C125 1.259 . S
O104 Zn96 2.046 1_554 S
O104 C125 1.254 . S
N105 Zn99 2.036 . S
N105 C106 1.298 . S
N105 N108 1.398 . S
C106 N105 1.298 . S
C106 N109 1.367 . S
C106 C119 1.481 1_556 S
C107 N108 1.299 . S
C107 N109 1.379 . S
N108 N105 1.398 . S
N108 C107 1.299 . S
N109 C106 1.367 . S
N109 C107 1.379 . S
C110 N112 1.298 . S
C110 N114 1.367 . S
C110 C118 1.481 . S
C111 N113 1.299 . S
C111 N114 1.379 . S
N112 Zn96 2.036 . S
N112 C110 1.298 . S
N112 N113 1.398 . S
N113 C111 1.299 . S
N113 N112 1.398 . S
N114 C110 1.367 . S
N114 C111 1.379 . S
H115 C118 0.980 . S
H116 C118 0.981 . S
H117 C118 0.981 . S
C118 C110 1.481 . S
C118 H115 0.980 . S
C118 H116 0.981 . S
C118 H117 0.981 . S
C119 C106 1.481 1_554 S
C119 H120 0.980 . S
C119 H121 0.981 . S
C119 H122 0.981 . S
H120 C119 0.980 . S
H121 C119 0.981 . S
H122 C119 0.981 . S
O123 Zn99 2.066 . S
O123 C102 1.256 . S
O124 Zn96 2.053 . S
O124 C102 1.244 . S
C125 O103 1.259 . S
C125 O104 1.254 . S
O126 Zn96 2.066 . S
O126 C98 1.256 . S
O127 C98 1.244 . S
O127 Zn99 2.053 . S
Zn128 O129 2.055 . S
Zn128 O136 2.046 . S
Zn128 N144 2.036 . S
Zn128 O156 2.053 1_556 S
Zn128 O158 2.066 . S
O129 Zn128 2.055 . S
O129 C132 1.259 . S
C130 O158 1.256 . S
C130 O159 1.244 . S
Zn131 O133 2.046 . S
Zn131 O135 2.055 . S
Zn131 N137 2.036 . S
Zn131 O155 2.066 1_556 S
Zn131 O159 2.053 . S
C132 O129 1.259 . S
C132 O133 1.254 . S
O133 Zn131 2.046 . S
O133 C132 1.254 . S
C134 O155 1.256 . S
C134 O156 1.244 . S
O135 Zn131 2.055 . S
O135 C157 1.259 . S
O136 Zn128 2.046 . S
O136 C157 1.254 . S
N137 Zn131 2.036 . S
N137 C138 1.298 . S
N137 N140 1.398 . S
C138 N137 1.298 . S
C138 N141 1.367 . S
C138 C151 1.481 . S
C139 N140 1.299 . S
C139 N141 1.379 . S
N140 N137 1.398 . S
N140 C139 1.299 . S
N141 C138 1.367 . S
N141 C139 1.379 . S
C142 N144 1.298 . S
C142 N146 1.367 . S
C142 C150 1.481 . S
C143 N145 1.299 . S
C143 N146 1.379 . S
N144 Zn128 2.036 . S
N144 C142 1.298 . S
N144 N145 1.398 . S
N145 C143 1.299 . S
N145 N144 1.398 . S
N146 C142 1.367 . S
N146 C143 1.379 . S
H147 C150 0.980 . S
H148 C150 0.981 . S
H149 C150 0.981 . S
C150 C142 1.481 . S
C150 H147 0.980 . S
C150 H148 0.981 . S
C150 H149 0.981 . S
C151 C138 1.481 . S
C151 H152 0.980 . S
C151 H153 0.981 . S
C151 H154 0.981 1_556 S
H152 C151 0.980 . S
H153 C151 0.981 . S
H154 C151 0.981 1_554 S
O155 Zn131 2.066 1_554 S
O155 C134 1.256 . S
O156 Zn128 2.053 1_554 S
O156 C134 1.244 . S
C157 O135 1.259 . S
C157 O136 1.254 . S
O158 Zn128 2.066 . S
O158 C130 1.256 . S
O159 C130 1.244 . S
O159 Zn131 2.053 . S
Zn160 O161 2.055 . S
Zn160 O168 2.046 1_554 S
Zn160 N176 2.036 . S
Zn160 O188 2.053 . S
Zn160 O190 2.066 . S
O161 Zn160 2.055 . S
O161 C164 1.259 . S
C162 O190 1.256 . S
C162 O191 1.244 . S
Zn163 O165 2.046 . S
Zn163 O167 2.055 1_554 S
Zn163 N169 2.036 . S
Zn163 O187 2.066 . S
Zn163 O191 2.053 . S
C164 O161 1.259 . S
C164 O165 1.254 . S
O165 Zn163 2.046 . S
O165 C164 1.254 . S
C166 O187 1.256 . S
C166 O188 1.244 . S
O167 Zn163 2.055 1_556 S
O167 C189 1.259 . S
O168 Zn160 2.046 1_556 S
O168 C189 1.254 . S
N169 Zn163 2.036 . S
N169 C170 1.298 . S
N169 N172 1.398 . S
C170 N169 1.298 . S
C170 N173 1.367 . S
C170 C183 1.481 1_554 S
C171 N172 1.299 . S
C171 N173 1.379 . S
N172 N169 1.398 . S
N172 C171 1.299 . S
N173 C170 1.367 . S
N173 C171 1.379 . S
C174 N176 1.298 . S
C174 N178 1.367 . S
C174 C182 1.481 . S
C175 N177 1.299 . S
C175 N178 1.379 . S
N176 Zn160 2.036 . S
N176 C174 1.298 . S
N176 N177 1.398 . S
N177 C175 1.299 . S
N177 N176 1.398 . S
N178 C174 1.367 . S
N178 C175 1.379 . S
H179 C182 0.980 . S
H180 C182 0.981 . S
H181 C182 0.981 . S
C182 C174 1.481 . S
C182 H179 0.980 . S
C182 H180 0.981 . S
C182 H181 0.981 . S
C183 C170 1.481 1_556 S
C183 H184 0.980 . S
C183 H185 0.981 . S
C183 H186 0.981 . S
H184 C183 0.980 . S
H185 C183 0.981 . S
H186 C183 0.981 . S
O187 Zn163 2.066 . S
O187 C166 1.256 . S
O188 Zn160 2.053 . S
O188 C166 1.244 . S
C189 O167 1.259 . S
C189 O168 1.254 . S
O190 Zn160 2.066 . S
O190 C162 1.256 . S
O191 C162 1.244 . S
O191 Zn163 2.053 . S
Zn192 O193 2.055 . S
Zn192 O200 2.046 . S
Zn192 N208 2.036 . S
Zn192 O220 2.053 . S
Zn192 O222 2.066 . S
O193 Zn192 2.055 . S
O193 C196 1.259 . S
C194 O222 1.256 . S
C194 O223 1.244 . S
Zn195 O197 2.046 . S
Zn195 O199 2.055 . S
Zn195 N201 2.036 . S
Zn195 O219 2.066 . S
Zn195 O223 2.053 . S
C196 O193 1.259 . S
C196 O197 1.254 . S
O197 Zn195 2.046 . S
O197 C196 1.254 . S
C198 O219 1.256 . S
C198 O220 1.244 . S
O199 Zn195 2.055 . S
O199 C221 1.259 . S
O200 Zn192 2.046 . S
O200 C221 1.254 . S
N201 Zn195 2.036 . S
N201 C202 1.298 . S
N201 N204 1.398 . S
C202 N201 1.298 . S
C202 N205 1.367 . S
C202 C215 1.481 . S
C203 N204 1.299 . S
C203 N205 1.379 . S
N204 N201 1.398 . S
N204 C203 1.299 . S
N205 C202 1.367 . S
N205 C203 1.379 . S
C206 N208 1.298 . S
C206 N210 1.367 . S
C206 C214 1.481 . S
C207 N209 1.299 . S
C207 N210 1.379 . S
N208 Zn192 2.036 . S
N208 C206 1.298 . S
N208 N209 1.398 . S
N209 C207 1.299 . S
N209 N208 1.398 . S
N210 C206 1.367 . S
N210 C207 1.379 . S
H211 C214 0.980 . S
H212 C214 0.981 . S
H213 C214 0.981 . S
C214 C206 1.481 . S
C214 H211 0.980 . S
C214 H212 0.981 . S
C214 H213 0.981 . S
C215 C202 1.481 . S
C215 H216 0.980 . S
C215 H217 0.981 . S
C215 H218 0.981 . S
H216 C215 0.980 . S
H217 C215 0.981 . S
H218 C215 0.981 . S
O219 Zn195 2.066 . S
O219 C198 1.256 . S
O220 Zn192 2.053 . S
O220 C198 1.244 . S
C221 O199 1.259 . S
C221 O200 1.254 . S
O222 Zn192 2.066 . S
O222 C194 1.256 . S
O223 C194 1.244 . S
O223 Zn195 2.053 . S
Zn224 O225 2.055 . S
Zn224 O232 2.046 . S
Zn224 N240 2.036 . S
Zn224 O252 2.053 . S
Zn224 O254 2.066 . S
O225 Zn224 2.055 . S
O225 C228 1.259 . S
C226 O254 1.256 . S
C226 O255 1.244 . S
Zn227 O229 2.046 . S
Zn227 O231 2.055 . S
Zn227 N233 2.036 . S
Zn227 O251 2.066 . S
Zn227 O255 2.053 . S
C228 O225 1.259 . S
C228 O229 1.254 . S
O229 Zn227 2.046 . S
O229 C228 1.254 . S
C230 O251 1.256 . S
C230 O252 1.244 . S
O231 Zn227 2.055 . S
O231 C253 1.259 . S
O232 Zn224 2.046 . S
O232 C253 1.254 . S
N233 Zn227 2.036 . S
N233 C234 1.298 . S
N233 N236 1.398 . S
C234 N233 1.298 . S
C234 N237 1.367 . S
C234 C247 1.481 . S
C235 N236 1.299 . S
C235 N237 1.379 . S
N236 N233 1.398 . S
N236 C235 1.299 . S
N237 C234 1.367 . S
N237 C235 1.379 . S
C238 N240 1.298 . S
C238 N242 1.367 . S
C238 C246 1.481 . S
C239 N241 1.299 . S
C239 N242 1.379 . S
N240 Zn224 2.036 . S
N240 C238 1.298 . S
N240 N241 1.398 . S
N241 C239 1.299 . S
N241 N240 1.398 . S
N242 C238 1.367 . S
N242 C239 1.379 . S
H243 C246 0.980 . S
H244 C246 0.981 . S
H245 C246 0.981 . S
C246 C238 1.481 . S
C246 H243 0.980 . S
C246 H244 0.981 . S
C246 H245 0.981 . S
C247 C234 1.481 . S
C247 H248 0.980 . S
C247 H249 0.981 . S
C247 H250 0.981 . S
H248 C247 0.980 . S
H249 C247 0.981 . S
H250 C247 0.981 . S
O251 Zn227 2.066 . S
O251 C230 1.256 . S
O252 Zn224 2.053 . S
O252 C230 1.244 . S
C253 O231 1.259 . S
C253 O232 1.254 . S
O254 Zn224 2.066 . S
O254 C226 1.256 . S
O255 C226 1.244 . S
O255 Zn227 2.053 . S
Zn256 O257 2.055 1_556 S
Zn256 O264 2.046 . S
Zn256 N272 2.036 . S
Zn256 O284 2.053 . S
Zn256 O286 2.066 . S
O257 Zn256 2.055 1_554 S
O257 C260 1.259 . S
C258 O286 1.256 . S
C258 O287 1.244 . S
Zn259 O261 2.046 1_556 S
Zn259 O263 2.055 . S
Zn259 N265 2.036 . S
Zn259 O283 2.066 . S
Zn259 O287 2.053 . S
C260 O257 1.259 . S
C260 O261 1.254 . S
O261 Zn259 2.046 1_554 S
O261 C260 1.254 . S
C262 O283 1.256 . S
C262 O284 1.244 . S
O263 Zn259 2.055 . S
O263 C285 1.259 . S
O264 Zn256 2.046 . S
O264 C285 1.254 . S
N265 Zn259 2.036 . S
N265 C266 1.298 . S
N265 N268 1.398 . S
C266 N265 1.298 . S
C266 N269 1.367 . S
C266 C279 1.481 . S
C267 N268 1.299 . S
C267 N269 1.379 . S
N268 N265 1.398 . S
N268 C267 1.299 . S
N269 C266 1.367 . S
N269 C267 1.379 . S
C270 N272 1.298 . S
C270 N274 1.367 . S
C270 C278 1.481 1_556 S
C271 N273 1.299 . S
C271 N274 1.379 . S
N272 Zn256 2.036 . S
N272 C270 1.298 . S
N272 N273 1.398 . S
N273 C271 1.299 . S
N273 N272 1.398 . S
N274 C270 1.367 . S
N274 C271 1.379 . S
H275 C278 0.980 . S
H276 C278 0.981 . S
H277 C278 0.981 . S
C278 C270 1.481 1_554 S
C278 H275 0.980 . S
C278 H276 0.981 . S
C278 H277 0.981 . S
C279 C266 1.481 . S
C279 H280 0.980 . S
C279 H281 0.981 . S
C279 H282 0.981 . S
H280 C279 0.980 . S
H281 C279 0.981 . S
H282 C279 0.981 . S
O283 Zn259 2.066 . S
O283 C262 1.256 . S
O284 Zn256 2.053 . S
O284 C262 1.244 . S
C285 O263 1.259 . S
C285 O264 1.254 . S
O286 Zn256 2.066 . S
O286 C258 1.256 . S
O287 C258 1.244 . S
O287 Zn259 2.053 . S
Zn288 O289 2.055 . S
Zn288 O296 2.046 . S
Zn288 N304 2.036 . S
Zn288 O316 2.053 . S
Zn288 O318 2.066 . S
O289 Zn288 2.055 . S
O289 C292 1.259 . S
C290 O318 1.256 . S
C290 O319 1.244 . S
Zn291 O293 2.046 . S
Zn291 O295 2.055 . S
Zn291 N297 2.036 . S
Zn291 O315 2.066 . S
Zn291 O319 2.053 . S
C292 O289 1.259 . S
C292 O293 1.254 . S
O293 Zn291 2.046 . S
O293 C292 1.254 . S
C294 O315 1.256 . S
C294 O316 1.244 . S
O295 Zn291 2.055 . S
O295 C317 1.259 . S
O296 Zn288 2.046 . S
O296 C317 1.254 . S
N297 Zn291 2.036 . S
N297 C298 1.298 . S
N297 N300 1.398 . S
C298 N297 1.298 . S
C298 N301 1.367 . S
C298 C311 1.481 . S
C299 N300 1.299 . S
C299 N301 1.379 . S
N300 N297 1.398 . S
N300 C299 1.299 . S
N301 C298 1.367 . S
N301 C299 1.379 . S
C302 N304 1.298 . S
C302 N306 1.367 . S
C302 C310 1.481 . S
C303 N305 1.299 . S
C303 N306 1.379 . S
N304 Zn288 2.036 . S
N304 C302 1.298 . S
N304 N305 1.398 . S
N305 C303 1.299 . S
N305 N304 1.398 . S
N306 C302 1.367 . S
N306 C303 1.379 . S
H307 C310 0.980 . S
H308 C310 0.981 . S
H309 C310 0.981 . S
C310 C302 1.481 . S
C310 H307 0.980 . S
C310 H308 0.981 . S
C310 H309 0.981 . S
C311 C298 1.481 . S
C311 H312 0.980 . S
C311 H313 0.981 . S
C311 H314 0.981 . S
H312 C311 0.980 . S
H313 C311 0.981 . S
H314 C311 0.981 . S
O315 Zn291 2.066 . S
O315 C294 1.256 . S
O316 Zn288 2.053 . S
O316 C294 1.244 . S
C317 O295 1.259 . S
C317 O296 1.254 . S
O318 Zn288 2.066 . S
O318 C290 1.256 . S
O319 C290 1.244 . S
O319 Zn291 2.053 . S
Zn320 O321 2.055 . S
Zn320 O328 2.046 . S
Zn320 N336 2.036 . S
Zn320 O348 2.053 . S
Zn320 O350 2.066 . S
O321 Zn320 2.055 . S
O321 C324 1.259 . S
C322 O350 1.256 . S
C322 O351 1.244 . S
Zn323 O325 2.046 . S
Zn323 O327 2.055 . S
Zn323 N329 2.036 . S
Zn323 O347 2.066 . S
Zn323 O351 2.053 . S
C324 O321 1.259 . S
C324 O325 1.254 . S
O325 Zn323 2.046 . S
O325 C324 1.254 . S
C326 O347 1.256 . S
C326 O348 1.244 . S
O327 Zn323 2.055 . S
O327 C349 1.259 . S
O328 Zn320 2.046 . S
O328 C349 1.254 . S
N329 Zn323 2.036 . S
N329 C330 1.298 . S
N329 N332 1.398 . S
C330 N329 1.298 . S
C330 N333 1.367 . S
C330 C343 1.481 . S
C331 N332 1.299 . S
C331 N333 1.379 . S
N332 N329 1.398 . S
N332 C331 1.299 . S
N333 C330 1.367 . S
N333 C331 1.379 . S
C334 N336 1.298 . S
C334 N338 1.367 . S
C334 C342 1.481 . S
C335 N337 1.299 . S
C335 N338 1.379 . S
N336 Zn320 2.036 . S
N336 C334 1.298 . S
N336 N337 1.398 . S
N337 C335 1.299 . S
N337 N336 1.398 . S
N338 C334 1.367 . S
N338 C335 1.379 . S
H339 C342 0.980 . S
H340 C342 0.981 . S
H341 C342 0.981 . S
C342 C334 1.481 . S
C342 H339 0.980 . S
C342 H340 0.981 . S
C342 H341 0.981 . S
C343 C330 1.481 . S
C343 H344 0.980 . S
C343 H345 0.981 . S
C343 H346 0.981 . S
H344 C343 0.980 . S
H345 C343 0.981 . S
H346 C343 0.981 . S
O347 Zn323 2.066 . S
O347 C326 1.256 . S
O348 Zn320 2.053 . S
O348 C326 1.244 . S
C349 O327 1.259 . S
C349 O328 1.254 . S
O350 Zn320 2.066 . S
O350 C322 1.256 . S
O351 C322 1.244 . S
O351 Zn323 2.053 . S
Zn352 O353 2.055 . S
Zn352 O360 2.046 1_554 S
Zn352 N368 2.036 . S
Zn352 O380 2.053 . S
Zn352 O382 2.066 . S
O353 Zn352 2.055 . S
O353 C356 1.259 . S
C354 O382 1.256 . S
C354 O383 1.244 . S
Zn355 O357 2.046 . S
Zn355 O359 2.055 1_554 S
Zn355 N361 2.036 . S
Zn355 O379 2.066 . S
Zn355 O383 2.053 . S
C356 O353 1.259 . S
C356 O357 1.254 . S
O357 Zn355 2.046 . S
O357 C356 1.254 . S
C358 O379 1.256 . S
C358 O380 1.244 . S
O359 Zn355 2.055 1_556 S
O359 C381 1.259 . S
O360 Zn352 2.046 1_556 S
O360 C381 1.254 . S
N361 Zn355 2.036 . S
N361 C362 1.298 . S
N361 N364 1.398 . S
C362 N361 1.298 . S
C362 N365 1.367 . S
C362 C375 1.481 1_554 S
C363 N364 1.299 . S
C363 N365 1.379 . S
N364 N361 1.398 . S
N364 C363 1.299 . S
N365 C362 1.367 . S
N365 C363 1.379 . S
C366 N368 1.298 . S
C366 N370 1.367 . S
C366 C374 1.481 . S
C367 N369 1.299 . S
C367 N370 1.379 . S
N368 Zn352 2.036 . S
N368 C366 1.298 . S
N368 N369 1.398 . S
N369 C367 1.299 . S
N369 N368 1.398 . S
N370 C366 1.367 . S
N370 C367 1.379 . S
H371 C374 0.980 . S
H372 C374 0.981 . S
H373 C374 0.981 . S
C374 C366 1.481 . S
C374 H371 0.980 . S
C374 H372 0.981 . S
C374 H373 0.981 . S
C375 C362 1.481 1_556 S
C375 H376 0.980 . S
C375 H377 0.981 . S
C375 H378 0.981 . S
H376 C375 0.980 . S
H377 C375 0.981 . S
H378 C375 0.981 . S
O379 Zn355 2.066 . S
O379 C358 1.256 . S
O380 Zn352 2.053 . S
O380 C358 1.244 . S
C381 O359 1.259 . S
C381 O360 1.254 . S
O382 Zn352 2.066 . S
O382 C354 1.256 . S
O383 C354 1.244 . S
O383 Zn355 2.053 . S
Zn384 O385 2.055 . S
Zn384 O392 2.046 . S
Zn384 N400 2.036 . S
Zn384 O412 2.053 . S
Zn384 O414 2.066 1_554 S
O385 Zn384 2.055 . S
O385 C388 1.259 . S
C386 O414 1.256 . S
C386 O415 1.244 . S
Zn387 O389 2.046 . S
Zn387 O391 2.055 . S
Zn387 N393 2.036 . S
Zn387 O411 2.066 . S
Zn387 O415 2.053 1_554 S
C388 O385 1.259 . S
C388 O389 1.254 . S
O389 Zn387 2.046 . S
O389 C388 1.254 . S
C390 O411 1.256 . S
C390 O412 1.244 . S
O391 Zn387 2.055 . S
O391 C413 1.259 . S
O392 Zn384 2.046 . S
O392 C413 1.254 . S
N393 Zn387 2.036 . S
N393 C394 1.298 . S
N393 N396 1.398 . S
C394 N393 1.298 . S
C394 N397 1.367 . S
C394 C407 1.481 . S
C395 N396 1.299 . S
C395 N397 1.379 . S
N396 N393 1.398 . S
N396 C395 1.299 . S
N397 C394 1.367 . S
N397 C395 1.379 . S
C398 N400 1.298 . S
C398 N402 1.367 . S
C398 C406 1.481 . S
C399 N401 1.299 . S
C399 N402 1.379 . S
N400 Zn384 2.036 . S
N400 C398 1.298 . S
N400 N401 1.398 . S
N401 C399 1.299 . S
N401 N400 1.398 . S
N402 C398 1.367 . S
N402 C399 1.379 . S
H403 C406 0.980 . S
H404 C406 0.981 . S
H405 C406 0.981 1_556 S
C406 C398 1.481 . S
C406 H403 0.980 . S
C406 H404 0.981 . S
C406 H405 0.981 1_554 S
C407 C394 1.481 . S
C407 H408 0.980 . S
C407 H409 0.981 . S
C407 H410 0.981 . S
H408 C407 0.980 . S
H409 C407 0.981 . S
H410 C407 0.981 . S
O411 Zn387 2.066 . S
O411 C390 1.256 . S
O412 Zn384 2.053 . S
O412 C390 1.244 . S
C413 O391 1.259 . S
C413 O392 1.254 . S
O414 Zn384 2.066 1_556 S
O414 C386 1.256 . S
O415 C386 1.244 . S
O415 Zn387 2.053 1_556 S
Zn416 O417 2.055 . S
Zn416 O424 2.046 1_556 S
Zn416 N432 2.036 . S
Zn416 O444 2.053 . S
Zn416 O446 2.066 . S
O417 Zn416 2.055 . S
O417 C420 1.259 . S
C418 O446 1.256 . S
C418 O447 1.244 . S
Zn419 O421 2.046 . S
Zn419 O423 2.055 1_556 S
Zn419 N425 2.036 . S
Zn419 O443 2.066 . S
Zn419 O447 2.053 . S
C420 O417 1.259 . S
C420 O421 1.254 . S
O421 Zn419 2.046 . S
O421 C420 1.254 . S
C422 O443 1.256 . S
C422 O444 1.244 . S
O423 Zn419 2.055 1_554 S
O423 C445 1.259 . S
O424 Zn416 2.046 1_554 S
O424 C445 1.254 . S
N425 Zn419 2.036 . S
N425 C426 1.298 . S
N425 N428 1.398 . S
C426 N425 1.298 . S
C426 N429 1.367 . S
C426 C439 1.481 1_556 S
C427 N428 1.299 . S
C427 N429 1.379 . S
N428 N425 1.398 . S
N428 C427 1.299 . S
N429 C426 1.367 . S
N429 C427 1.379 . S
C430 N432 1.298 . S
C430 N434 1.367 . S
C430 C438 1.481 . S
C431 N433 1.299 . S
C431 N434 1.379 . S
N432 Zn416 2.036 . S
N432 C430 1.298 . S
N432 N433 1.398 . S
N433 C431 1.299 . S
N433 N432 1.398 . S
N434 C430 1.367 . S
N434 C431 1.379 . S
H435 C438 0.980 . S
H436 C438 0.981 . S
H437 C438 0.981 . S
C438 C430 1.481 . S
C438 H435 0.980 . S
C438 H436 0.981 . S
C438 H437 0.981 . S
C439 C426 1.481 1_554 S
C439 H440 0.980 . S
C439 H441 0.981 . S
C439 H442 0.981 . S
H440 C439 0.980 . S
H441 C439 0.981 . S
H442 C439 0.981 . S
O443 Zn419 2.066 . S
O443 C422 1.256 . S
O444 Zn416 2.053 . S
O444 C422 1.244 . S
C445 O423 1.259 . S
C445 O424 1.254 . S
O446 Zn416 2.066 . S
O446 C418 1.256 . S
O447 C418 1.244 . S
O447 Zn419 2.053 . S
Zn448 O449 2.055 . S
Zn448 O456 2.046 . S
Zn448 N464 2.036 . S
Zn448 O476 2.053 . S
Zn448 O478 2.066 . S
O449 Zn448 2.055 . S
O449 C452 1.259 . S
C450 O478 1.256 . S
C450 O479 1.244 . S
Zn451 O453 2.046 . S
Zn451 O455 2.055 . S
Zn451 N457 2.036 . S
Zn451 O475 2.066 . S
Zn451 O479 2.053 . S
C452 O449 1.259 . S
C452 O453 1.254 . S
O453 Zn451 2.046 . S
O453 C452 1.254 . S
C454 O475 1.256 . S
C454 O476 1.244 . S
O455 Zn451 2.055 . S
O455 C477 1.259 . S
O456 Zn448 2.046 . S
O456 C477 1.254 . S
N457 Zn451 2.036 . S
N457 C458 1.298 . S
N457 N460 1.398 . S
C458 N457 1.298 . S
C458 N461 1.367 . S
C458 C471 1.481 . S
C459 N460 1.299 . S
C459 N461 1.379 . S
N460 N457 1.398 . S
N460 C459 1.299 . S
N461 C458 1.367 . S
N461 C459 1.379 . S
C462 N464 1.298 . S
C462 N466 1.367 . S
C462 C470 1.481 . S
C463 N465 1.299 . S
C463 N466 1.379 . S
N464 Zn448 2.036 . S
N464 C462 1.298 . S
N464 N465 1.398 . S
N465 C463 1.299 . S
N465 N464 1.398 . S
N466 C462 1.367 . S
N466 C463 1.379 . S
H467 C470 0.980 . S
H468 C470 0.981 . S
H469 C470 0.981 . S
C470 C462 1.481 . S
C470 H467 0.980 . S
C470 H468 0.981 . S
C470 H469 0.981 . S
C471 C458 1.481 . S
C471 H472 0.980 . S
C471 H473 0.981 . S
C471 H474 0.981 . S
H472 C471 0.980 . S
H473 C471 0.981 . S
H474 C471 0.981 . S
O475 Zn451 2.066 . S
O475 C454 1.256 . S
O476 Zn448 2.053 . S
O476 C454 1.244 . S
C477 O455 1.259 . S
C477 O456 1.254 . S
O478 Zn448 2.066 . S
O478 C450 1.256 . S
O479 C450 1.244 . S
O479 Zn451 2.053 . S
Zn480 O481 2.055 . S
Zn480 O488 2.046 . S
Zn480 N496 2.036 . S
Zn480 O508 2.053 . S
Zn480 O510 2.066 . S
O481 Zn480 2.055 . S
O481 C484 1.259 . S
C482 O510 1.256 . S
C482 O511 1.244 . S
Zn483 O485 2.046 . S
Zn483 O487 2.055 . S
Zn483 N489 2.036 . S
Zn483 O507 2.066 . S
Zn483 O511 2.053 . S
C484 O481 1.259 . S
C484 O485 1.254 . S
O485 Zn483 2.046 . S
O485 C484 1.254 . S
C486 O507 1.256 . S
C486 O508 1.244 . S
O487 Zn483 2.055 . S
O487 C509 1.259 . S
O488 Zn480 2.046 . S
O488 C509 1.254 . S
N489 Zn483 2.036 . S
N489 C490 1.298 . S
N489 N492 1.398 . S
C490 N489 1.298 . S
C490 N493 1.367 . S
C490 C503 1.481 . S
C491 N492 1.299 . S
C491 N493 1.379 . S
N492 N489 1.398 . S
N492 C491 1.299 . S
N493 C490 1.367 . S
N493 C491 1.379 . S
C494 N496 1.298 . S
C494 N498 1.367 . S
C494 C502 1.481 . S
C495 N497 1.299 . S
C495 N498 1.379 . S
N496 Zn480 2.036 . S
N496 C494 1.298 . S
N496 N497 1.398 . S
N497 C495 1.299 . S
N497 N496 1.398 . S
N498 C494 1.367 . S
N498 C495 1.379 . S
H499 C502 0.980 . S
H500 C502 0.981 . S
H501 C502 0.981 . S
C502 C494 1.481 . S
C502 H499 0.980 . S
C502 H500 0.981 . S
C502 H501 0.981 . S
C503 C490 1.481 . S
C503 H504 0.980 . S
C503 H505 0.981 . S
C503 H506 0.981 . S
H504 C503 0.980 . S
H505 C503 0.981 . S
H506 C503 0.981 . S
O507 Zn483 2.066 . S
O507 C486 1.256 . S
O508 Zn480 2.053 . S
O508 C486 1.244 . S
C509 O487 1.259 . S
C509 O488 1.254 . S
O510 Zn480 2.066 . S
O510 C482 1.256 . S
O511 C482 1.244 . S
O511 Zn483 2.053 . S
C512 C513 1.369 . S
C512 C514 1.419 . S
C512 H516 0.930 . S
C513 C512 1.369 . S
C513 C522 1.429 . S
C514 C512 1.419 . S
C514 C515 1.363 . S
C514 H517 0.929 . S
C515 C514 1.363 . S
C515 C521 1.428 . S
H516 C512 0.930 . S
H517 C514 0.929 . S
S518 N519 1.613 . S
S518 N520 1.610 . S
N519 S518 1.613 . S
N519 C522 1.350 . S
N520 S518 1.610 . S
N520 C521 1.351 . S
C521 C515 1.428 . S
C521 N520 1.351 . S
C521 C522 1.434 . S
C522 C513 1.429 . S
C522 N519 1.350 . S
C522 C521 1.434 . S
C523 C524 1.369 . S
C523 C525 1.419 . S
C523 H527 0.930 . S
C524 C523 1.369 . S
C524 C533 1.429 . S
C525 C523 1.419 . S
C525 C526 1.363 . S
C525 H528 0.929 . S
C526 C525 1.363 . S
C526 C532 1.428 . S
H527 C523 0.930 . S
H528 C525 0.929 . S
S529 N530 1.613 . S
S529 N531 1.610 . S
N530 S529 1.613 . S
N530 C533 1.350 . S
N531 S529 1.610 . S
N531 C532 1.351 . S
C532 C526 1.428 . S
C532 N531 1.351 . S
C532 C533 1.434 . S
C533 C524 1.429 . S
C533 N530 1.350 . S
C533 C532 1.434 . S
C534 C535 1.369 . S
C534 C536 1.419 . S
C534 H538 0.930 . S
C535 C534 1.369 . S
C535 C544 1.429 . S
C536 C534 1.419 . S
C536 C537 1.363 1_554 S
C536 H539 0.929 . S
C537 C536 1.363 1_556 S
C537 C543 1.428 1_556 S
H538 C534 0.930 . S
H539 C536 0.929 . S
S540 N541 1.613 . S
S540 N542 1.610 1_554 S
N541 S540 1.613 . S
N541 C544 1.350 . S
N542 S540 1.610 1_556 S
N542 C543 1.351 1_556 S
C543 C537 1.428 1_554 S
C543 N542 1.351 1_554 S
C543 C544 1.434 . S
C544 C535 1.429 . S
C544 N541 1.350 . S
C544 C543 1.434 . S
C545 C546 1.369 . S
C545 C547 1.419 . S
C545 H549 0.930 . S
C546 C545 1.369 . S
C546 C555 1.429 . S
C547 C545 1.419 . S
C547 C548 1.363 . S
C547 H550 0.929 . S
C548 C547 1.363 . S
C548 C554 1.428 . S
H549 C545 0.930 . S
H550 C547 0.929 . S
S551 N552 1.613 . S
S551 N553 1.610 . S
N552 S551 1.613 . S
N552 C555 1.350 . S
N553 S551 1.610 . S
N553 C554 1.351 . S
C554 C548 1.428 . S
C554 N553 1.351 . S
C554 C555 1.434 . S
C555 C546 1.429 . S
C555 N552 1.350 . S
C555 C554 1.434 . S
C556 C557 1.369 . S
C556 C558 1.419 . S
C556 H560 0.930 . S
C557 C556 1.369 . S
C557 C566 1.429 . S
C558 C556 1.419 . S
C558 C559 1.363 . S
C558 H561 0.929 . S
C559 C558 1.363 . S
C559 C565 1.428 . S
H560 C556 0.930 . S
H561 C558 0.929 . S
S562 N563 1.613 . S
S562 N564 1.610 . S
N563 S562 1.613 . S
N563 C566 1.350 . S
N564 S562 1.610 . S
N564 C565 1.351 . S
C565 C559 1.428 . S
C565 N564 1.351 . S
C565 C566 1.434 . S
C566 C557 1.429 . S
C566 N563 1.350 . S
C566 C565 1.434 . S
C567 C568 1.369 . S
C567 C569 1.419 . S
C567 H571 0.930 . S
C568 C567 1.369 . S
C568 C577 1.429 . S
C569 C567 1.419 . S
C569 C570 1.363 . S
C569 H572 0.929 . S
C570 C569 1.363 . S
C570 C576 1.428 . S
H571 C567 0.930 . S
H572 C569 0.929 . S
S573 N574 1.613 . S
S573 N575 1.610 . S
N574 S573 1.613 . S
N574 C577 1.350 . S
N575 S573 1.610 . S
N575 C576 1.351 . S
C576 C570 1.428 . S
C576 N575 1.351 . S
C576 C577 1.434 . S
C577 C568 1.429 . S
C577 N574 1.350 . S
C577 C576 1.434 . S
C578 C579 1.369 . S
C578 C580 1.419 . S
C578 H582 0.930 . S
C579 C578 1.369 . S
C579 C588 1.429 . S
C580 C578 1.419 . S
C580 C581 1.363 1_556 S
C580 H583 0.929 1_556 S
C581 C580 1.363 1_554 S
C581 C587 1.428 1_554 S
H582 C578 0.930 . S
H583 C580 0.929 1_554 S
S584 N585 1.613 . S
S584 N586 1.610 1_556 S
N585 S584 1.613 . S
N585 C588 1.350 . S
N586 S584 1.610 1_554 S
N586 C587 1.351 1_554 S
C587 C581 1.428 1_556 S
C587 N586 1.351 1_556 S
C587 C588 1.434 . S
C588 C579 1.429 . S
C588 N585 1.350 . S
C588 C587 1.434 . S
C589 C590 1.369 . S
C589 C591 1.419 . S
C589 H593 0.930 . S
C590 C589 1.369 . S
C590 C599 1.429 . S
C591 C589 1.419 . S
C591 C592 1.363 . S
C591 H594 0.929 . S
C592 C591 1.363 . S
C592 C598 1.428 . S
H593 C589 0.930 . S
H594 C591 0.929 . S
S595 N596 1.613 . S
S595 N597 1.610 . S
N596 S595 1.613 . S
N596 C599 1.350 . S
N597 S595 1.610 . S
N597 C598 1.351 . S
C598 C592 1.428 . S
C598 N597 1.351 . S
C598 C599 1.434 . S
C599 C590 1.429 . S
C599 N596 1.350 . S
C599 C598 1.434 . S
C600 C601 1.369 . S
C600 C602 1.419 . S
C600 H604 0.930 . S
C601 C600 1.369 . S
C601 C610 1.429 . S
C602 C600 1.419 . S
C602 C603 1.363 . S
C602 H605 0.929 . S
C603 C602 1.363 . S
C603 C609 1.428 . S
H604 C600 0.930 . S
H605 C602 0.929 . S
S606 N607 1.613 . S
S606 N608 1.610 . S
N607 S606 1.613 . S
N607 C610 1.350 . S
N608 S606 1.610 . S
N608 C609 1.351 . S
C609 C603 1.428 . S
C609 N608 1.351 . S
C609 C610 1.434 . S
C610 C601 1.429 . S
C610 N607 1.350 . S
C610 C609 1.434 . S
C611 C612 1.369 . S
C611 C613 1.419 . S
C611 H615 0.930 . S
C612 C611 1.369 . S
C612 C621 1.429 . S
C613 C611 1.419 . S
C613 C614 1.363 . S
C613 H616 0.929 . S
C614 C613 1.363 . S
C614 C620 1.428 . S
H615 C611 0.930 . S
H616 C613 0.929 . S
S617 N618 1.613 . S
S617 N619 1.610 . S
N618 S617 1.613 . S
N618 C621 1.350 . S
N619 S617 1.610 . S
N619 C620 1.351 . S
C620 C614 1.428 . S
C620 N619 1.351 . S
C620 C621 1.434 . S
C621 C612 1.429 . S
C621 N618 1.350 . S
C621 C620 1.434 . S
C622 C623 1.369 1_556 S
C622 C624 1.419 . S
C622 H626 0.930 1_556 S
C623 C622 1.369 1_554 S
C623 C632 1.429 1_554 S
C624 C622 1.419 . S
C624 C625 1.363 . S
C624 H627 0.929 . S
C625 C624 1.363 . S
C625 C631 1.428 . S
H626 C622 0.930 1_554 S
H627 C624 0.929 . S
S628 N629 1.608 1_556 S
S628 N630 1.610 . S
N629 S628 1.608 1_554 S
N629 C632 1.348 1_554 S
N630 S628 1.610 . S
N630 C631 1.351 . S
C631 C625 1.428 . S
C631 N630 1.351 . S
C631 C632 1.434 . S
C632 C623 1.429 1_556 S
C632 N629 1.348 1_556 S
C632 C631 1.434 . S
C633 C634 1.369 . S
C633 C635 1.419 . S
C633 H637 0.930 . S
C634 C633 1.369 . S
C634 C643 1.429 . S
C635 C633 1.419 . S
C635 C636 1.363 . S
C635 H638 0.929 . S
C636 C635 1.363 . S
C636 C642 1.428 . S
H637 C633 0.930 . S
H638 C635 0.929 . S
S639 N640 1.613 . S
S639 N641 1.610 . S
N640 S639 1.613 . S
N640 C643 1.350 . S
N641 S639 1.610 . S
N641 C642 1.351 . S
C642 C636 1.428 . S
C642 N641 1.351 . S
C642 C643 1.434 . S
C643 C634 1.429 . S
C643 N640 1.350 . S
C643 C642 1.434 . S
C644 C645 1.369 . S
C644 C646 1.419 . S
C644 H648 0.930 . S
C645 C644 1.369 . S
C645 C654 1.429 . S
C646 C644 1.419 . S
C646 C647 1.363 . S
C646 H649 0.929 . S
C647 C646 1.363 . S
C647 C653 1.428 . S
H648 C644 0.930 . S
H649 C646 0.929 . S
S650 N651 1.613 . S
S650 N652 1.610 . S
N651 S650 1.613 . S
N651 C654 1.350 . S
N652 S650 1.610 . S
N652 C653 1.351 . S
C653 C647 1.428 . S
C653 N652 1.351 . S
C653 C654 1.434 . S
C654 C645 1.429 . S
C654 N651 1.350 . S
C654 C653 1.434 . S
C655 C656 1.369 . S
C655 C657 1.419 . S
C655 H659 0.930 . S
C656 C655 1.369 . S
C656 C665 1.429 . S
C657 C655 1.419 . S
C657 C658 1.363 . S
C657 H660 0.929 . S
C658 C657 1.363 . S
C658 C664 1.428 . S
H659 C655 0.930 . S
H660 C657 0.929 . S
S661 N662 1.613 . S
S661 N663 1.610 . S
N662 S661 1.613 . S
N662 C665 1.350 . S
N663 S661 1.610 . S
N663 C664 1.351 . S
C664 C658 1.428 . S
C664 N663 1.351 . S
C664 C665 1.434 . S
C665 C656 1.429 . S
C665 N662 1.350 . S
C665 C664 1.434 . S
C666 C667 1.369 . S
C666 C668 1.419 . S
C666 H670 0.930 . S
C667 C666 1.369 . S
C667 C676 1.429 . S
C668 C666 1.419 . S
C668 C669 1.363 1_554 S
C668 H671 0.929 1_554 S
C669 C668 1.363 1_556 S
C669 C675 1.428 1_556 S
H670 C666 0.930 . S
H671 C668 0.929 1_556 S
S672 N673 1.613 . S
S672 N674 1.610 1_554 S
N673 S672 1.613 . S
N673 C676 1.350 . S
N674 S672 1.610 1_556 S
N674 C675 1.351 1_556 S
C675 C669 1.428 1_554 S
C675 N674 1.351 1_554 S
C675 C676 1.434 . S
C676 C667 1.429 . S
C676 N673 1.350 . S
C676 C675 1.434 . S
C677 C678 1.369 . S
C677 C679 1.419 . S
C677 H681 0.930 . S
C678 C677 1.369 . S
C678 C687 1.429 . S
C679 C677 1.419 . S
C679 C680 1.363 . S
C679 H682 0.929 . S
C680 C679 1.363 . S
C680 C686 1.428 . S
H681 C677 0.930 . S
H682 C679 0.929 . S
S683 N684 1.613 . S
S683 N685 1.610 . S
N684 S683 1.613 . S
N684 C687 1.350 . S
N685 S683 1.610 . S
N685 C686 1.351 . S
C686 C680 1.428 . S
C686 N685 1.351 . S
C686 C687 1.434 . S
C687 C678 1.429 . S
C687 N684 1.350 . S
C687 C686 1.434 . S
C688 C689 1.369 . S
C688 C690 1.419 . S
C688 H692 0.930 . S
C689 C688 1.369 . S
C689 C698 1.429 . S
C690 C688 1.419 . S
C690 C691 1.363 . S
C690 H693 0.929 . S
C691 C690 1.363 . S
C691 C697 1.428 . S
H692 C688 0.930 . S
H693 C690 0.929 . S
S694 N695 1.613 . S
S694 N696 1.610 . S
N695 S694 1.613 . S
N695 C698 1.350 . S
N696 S694 1.610 . S
N696 C697 1.351 . S
C697 C691 1.428 . S
C697 N696 1.351 . S
C697 C698 1.434 . S
C698 C689 1.429 . S
C698 N695 1.350 . S
C698 C697 1.434 . S
C699 C700 1.369 . S
C699 C701 1.419 . S
C699 H703 0.930 . S
C700 C699 1.369 . S
C700 C709 1.429 . S
C701 C699 1.419 . S
C701 C702 1.363 . S
C701 H704 0.929 . S
C702 C701 1.363 . S
C702 C708 1.428 . S
H703 C699 0.930 . S
H704 C701 0.929 . S
S705 N706 1.613 . S
S705 N707 1.610 . S
N706 S705 1.613 . S
N706 C709 1.350 . S
N707 S705 1.610 . S
N707 C708 1.351 . S
C708 C702 1.428 . S
C708 N707 1.351 . S
C708 C709 1.434 . S
C709 C700 1.429 . S
C709 N706 1.350 . S
C709 C708 1.434 . S
C710 C711 1.369 . S
C710 C712 1.419 . S
C710 H714 0.930 . S
C711 C710 1.369 . S
C711 C720 1.429 . S
C712 C710 1.419 . S
C712 C713 1.363 . S
C712 H715 0.929 . S
C713 C712 1.363 . S
C713 C719 1.428 . S
H714 C710 0.930 . S
H715 C712 0.929 . S
S716 N717 1.613 . S
S716 N718 1.610 . S
N717 S716 1.613 . S
N717 C720 1.350 . S
N718 S716 1.610 . S
N718 C719 1.351 . S
C719 C713 1.428 . S
C719 N718 1.351 . S
C719 C720 1.434 . S
C720 C711 1.429 . S
C720 N717 1.350 . S
C720 C719 1.434 . S
C721 C722 1.369 . S
C721 C723 1.419 1_655 S
C721 H725 0.930 . S
C722 C721 1.369 . S
C722 C731 1.429 1_556 S
C723 C721 1.419 1_455 S
C723 C724 1.363 . S
C723 H726 0.929 . S
C724 C723 1.363 . S
C724 C730 1.428 1_556 S
H725 C721 0.930 . S
H726 C723 0.929 . S
S727 N728 1.613 1_455 S
S727 N729 1.610 . S
N728 S727 1.613 1_655 S
N728 C731 1.350 . S
N729 S727 1.610 . S
N729 C730 1.351 . S
C730 C724 1.428 1_554 S
C730 N729 1.351 . S
C730 C731 1.434 1_455 S
C731 C722 1.429 1_554 S
C731 N728 1.350 . S
C731 C730 1.434 1_655 S
C732 C733 1.369 . S
C732 C734 1.419 . S
C732 H736 0.930 . S
C733 C732 1.369 . S
C733 C742 1.429 . S
C734 C732 1.419 . S
C734 C735 1.363 . S
C734 H737 0.929 . S
C735 C734 1.363 . S
C735 C741 1.428 . S
H736 C732 0.930 . S
H737 C734 0.929 . S
S738 N739 1.613 . S
S738 N740 1.610 . S
N739 S738 1.613 . S
N739 C742 1.350 . S
N740 S738 1.610 . S
N740 C741 1.351 . S
C741 C735 1.428 . S
C741 N740 1.351 . S
C741 C742 1.434 . S
C742 C733 1.429 . S
C742 N739 1.350 . S
C742 C741 1.434 . S
C743 C744 1.369 . S
C743 C745 1.419 1_455 S
C743 H747 0.930 . S
C744 C743 1.369 . S
C744 C753 1.429 . S
C745 C743 1.419 1_655 S
C745 C746 1.363 . S
C745 H748 0.929 . S
C746 C745 1.363 . S
C746 C752 1.428 . S
H747 C743 0.930 . S
H748 C745 0.929 . S
S749 N750 1.613 1_655 S
S749 N751 1.610 . S
N750 S749 1.613 1_455 S
N750 C753 1.350 . S
N751 S749 1.610 . S
N751 C752 1.351 . S
C752 C746 1.428 . S
C752 N751 1.351 . S
C752 C753 1.434 1_655 S
C753 C744 1.429 . S
C753 N750 1.350 . S
C753 C752 1.434 1_455 S
C754 C755 1.369 . S
C754 C756 1.419 . S
C754 H758 0.930 . S
C755 C754 1.369 . S
C755 C764 1.429 . S
C756 C754 1.419 . S
C756 C757 1.363 . S
C756 H759 0.929 . S
C757 C756 1.363 . S
C757 C763 1.428 . S
H758 C754 0.930 . S
H759 C756 0.929 . S
S760 N761 1.613 . S
S760 N762 1.610 . S
N761 S760 1.613 . S
N761 C764 1.350 . S
N762 S760 1.610 . S
N762 C763 1.351 . S
C763 C757 1.428 . S
C763 N762 1.351 . S
C763 C764 1.434 . S
C764 C755 1.429 . S
C764 N761 1.350 . S
C764 C763 1.434 . S
C765 C766 1.369 . S
C765 C767 1.419 . S
C765 H769 0.930 . S
C766 C765 1.369 . S
C766 C775 1.429 . S
C767 C765 1.419 . S
C767 C768 1.363 . S
C767 H770 0.929 . S
C768 C767 1.363 . S
C768 C774 1.428 . S
H769 C765 0.930 . S
H770 C767 0.929 . S
S771 N772 1.613 . S
S771 N773 1.610 . S
N772 S771 1.613 . S
N772 C775 1.350 . S
N773 S771 1.610 . S
N773 C774 1.351 . S
C774 C768 1.428 . S
C774 N773 1.351 . S
C774 C775 1.434 . S
C775 C766 1.429 . S
C775 N772 1.350 . S
C775 C774 1.434 . S
C776 C777 1.369 . S
C776 C778 1.419 . S
C776 H780 0.930 . S
C777 C776 1.369 . S
C777 C786 1.429 . S
C778 C776 1.419 . S
C778 C779 1.363 . S
C778 H781 0.929 . S
C779 C778 1.363 . S
C779 C785 1.428 . S
H780 C776 0.930 . S
H781 C778 0.929 . S
S782 N783 1.613 . S
S782 N784 1.610 . S
N783 S782 1.613 . S
N783 C786 1.350 1_554 S
N784 S782 1.610 . S
N784 C785 1.351 1_554 S
C785 C779 1.428 . S
C785 N784 1.351 1_556 S
C785 C786 1.434 . S
C786 C777 1.429 . S
C786 N783 1.350 1_556 S
C786 C785 1.434 . S
C787 C788 1.369 . S
C787 C789 1.419 . S
C787 H791 0.930 . S
C788 C787 1.369 . S
C788 C797 1.429 . S
C789 C787 1.419 . S
C789 C790 1.363 . S
C789 H792 0.929 . S
C790 C789 1.363 . S
C790 C796 1.428 . S
H791 C787 0.930 . S
H792 C789 0.929 . S
S793 N794 1.613 . S
S793 N795 1.610 . S
N794 S793 1.613 . S
N794 C797 1.350 . S
N795 S793 1.610 . S
N795 C796 1.351 . S
C796 C790 1.428 . S
C796 N795 1.351 . S
C796 C797 1.434 . S
C797 C788 1.429 . S
C797 N794 1.350 . S
C797 C796 1.434 . S
C798 C799 1.369 . S
C798 C800 1.419 . S
C798 H802 0.930 . S
C799 C798 1.369 . S
C799 C808 1.429 . S
C800 C798 1.419 . S
C800 C801 1.363 . S
C800 H803 0.929 . S
C801 C800 1.363 . S
C801 C807 1.428 . S
H802 C798 0.930 . S
H803 C800 0.929 . S
S804 N805 1.613 . S
S804 N806 1.610 . S
N805 S804 1.613 . S
N805 C808 1.350 1_556 S
N806 S804 1.610 . S
N806 C807 1.351 1_556 S
C807 C801 1.428 . S
C807 N806 1.351 1_554 S
C807 C808 1.434 . S
C808 C799 1.429 . S
C808 N805 1.350 1_554 S
C808 C807 1.434 . S
C809 C810 1.369 . S
C809 C811 1.419 . S
C809 H813 0.930 . S
C810 C809 1.369 . S
C810 C819 1.429 . S
C811 C809 1.419 . S
C811 C812 1.363 . S
C811 H814 0.929 . S
C812 C811 1.363 . S
C812 C818 1.428 . S
H813 C809 0.930 . S
H814 C811 0.929 . S
S815 N816 1.613 . S
S815 N817 1.610 . S
N816 S815 1.613 . S
N816 C819 1.350 . S
N817 S815 1.610 . S
N817 C818 1.351 . S
C818 C812 1.428 . S
C818 N817 1.351 . S
C818 C819 1.434 . S
C819 C810 1.429 . S
C819 N816 1.350 . S
C819 C818 1.434 . S
C820 C821 1.369 . S
C820 C822 1.419 . S
C820 H824 0.930 . S
C821 C820 1.369 . S
C821 C830 1.429 . S
C822 C820 1.419 . S
C822 C823 1.363 . S
C822 H825 0.929 . S
C823 C822 1.363 . S
C823 C829 1.428 . S
H824 C820 0.930 . S
H825 C822 0.929 . S
S826 N827 1.613 . S
S826 N828 1.610 . S
N827 S826 1.613 . S
N827 C830 1.350 . S
N828 S826 1.610 . S
N828 C829 1.351 . S
C829 C823 1.428 . S
C829 N828 1.351 . S
C829 C830 1.434 . S
C830 C821 1.429 . S
C830 N827 1.350 . S
C830 C829 1.434 . S
C831 C832 1.369 . S
C831 C833 1.419 . S
C831 H835 0.930 . S
C832 C831 1.369 . S
C832 C841 1.429 . S
C833 C831 1.419 . S
C833 C834 1.363 . S
C833 H836 0.929 . S
C834 C833 1.363 . S
C834 C840 1.428 . S
H835 C831 0.930 . S
H836 C833 0.929 . S
S837 N838 1.613 . S
S837 N839 1.610 . S
N838 S837 1.613 . S
N838 C841 1.350 . S
N839 S837 1.610 . S
N839 C840 1.351 . S
C840 C834 1.428 . S
C840 N839 1.351 . S
C840 C841 1.434 . S
C841 C832 1.429 . S
C841 N838 1.350 . S
C841 C840 1.434 . S
C842 C843 1.369 . S
C842 C844 1.419 . S
C842 H846 0.930 . S
C843 C842 1.369 . S
C843 C852 1.429 . S
C844 C842 1.419 . S
C844 C845 1.363 . S
C844 H847 0.929 . S
C845 C844 1.363 . S
C845 C851 1.428 . S
H846 C842 0.930 . S
H847 C844 0.929 . S
S848 N849 1.613 . S
S848 N850 1.610 . S
N849 S848 1.613 . S
N849 C852 1.350 . S
N850 S848 1.610 . S
N850 C851 1.351 . S
C851 C845 1.428 . S
C851 N850 1.351 . S
C851 C852 1.434 . S
C852 C843 1.429 . S
C852 N849 1.350 . S
C852 C851 1.434 . S
C853 C854 1.369 . S
C853 C855 1.419 . S
C853 H857 0.930 . S
C854 C853 1.369 . S
C854 C863 1.429 1_554 S
C855 C853 1.419 . S
C855 C856 1.363 . S
C855 H858 0.929 . S
C856 C855 1.363 . S
C856 C862 1.428 . S
H857 C853 0.930 . S
H858 C855 0.929 . S
S859 N860 1.613 . S
S859 N861 1.610 . S
N860 S859 1.613 . S
N860 C863 1.350 . S
N861 S859 1.610 . S
N861 C862 1.351 1_556 S
C862 C856 1.428 . S
C862 N861 1.351 1_554 S
C862 C863 1.434 1_554 S
C863 C854 1.429 1_556 S
C863 N860 1.350 . S
C863 C862 1.434 1_556 S
C864 C865 1.369 1_556 S
C864 C866 1.419 . S
C864 H868 0.930 . S
C865 C864 1.369 1_554 S
C865 C874 1.429 . S
C866 C864 1.419 . S
C866 C867 1.363 . S
C866 H869 0.929 . S
C867 C866 1.363 . S
C867 C873 1.428 1_556 S
H868 C864 0.930 . S
H869 C866 0.929 . S
S870 N871 1.613 . S
S870 N872 1.610 . S
N871 S870 1.613 . S
N871 C874 1.350 . S
N872 S870 1.610 . S
N872 C873 1.351 . S
C873 C867 1.428 1_554 S
C873 N872 1.351 . S
C873 C874 1.434 . S
C874 C865 1.429 . S
C874 N871 1.350 . S
C874 C873 1.434 . S
C875 C876 1.369 . S
C875 C877 1.419 . S
C875 H879 0.930 . S
C876 C875 1.369 . S
C876 C885 1.429 . S
C877 C875 1.419 . S
C877 C878 1.363 . S
C877 H880 0.929 . S
C878 C877 1.363 . S
C878 C884 1.428 . S
H879 C875 0.930 . S
H880 C877 0.929 . S
S881 N882 1.613 . S
S881 N883 1.610 . S
N882 S881 1.613 . S
N882 C885 1.350 . S
N883 S881 1.610 . S
N883 C884 1.351 . S
C884 C878 1.428 . S
C884 N883 1.351 . S
C884 C885 1.434 . S
C885 C876 1.429 . S
C885 N882 1.350 . S
C885 C884 1.434 . S
C886 C887 1.369 . S
C886 C888 1.419 . S
C886 H890 0.930 . S
C887 C886 1.369 . S
C887 C896 1.429 . S
C888 C886 1.419 . S
C888 C889 1.363 . S
C888 H891 0.929 . S
C889 C888 1.363 . S
C889 C895 1.428 . S
H890 C886 0.930 . S
H891 C888 0.929 . S
S892 N893 1.613 . S
S892 N894 1.610 . S
N893 S892 1.613 . S
N893 C896 1.350 . S
N894 S892 1.610 . S
N894 C895 1.351 . S
C895 C889 1.428 . S
C895 N894 1.351 . S
C895 C896 1.434 . S
C896 C887 1.429 . S
C896 N893 1.350 . S
C896 C895 1.434 . S
C897 C898 1.369 . S
C897 C899 1.419 . S
C897 H901 0.930 . S
C898 C897 1.369 . S
C898 C907 1.429 . S
C899 C897 1.419 . S
C899 C900 1.363 . S
C899 H902 0.929 . S
C900 C899 1.363 . S
C900 C906 1.428 . S
H901 C897 0.930 . S
H902 C899 0.929 . S
S903 N904 1.613 . S
S903 N905 1.610 . S
N904 S903 1.613 . S
N904 C907 1.350 . S
N905 S903 1.610 . S
N905 C906 1.351 . S
C906 C900 1.428 . S
C906 N905 1.351 . S
C906 C907 1.434 . S
C907 C898 1.429 . S
C907 N904 1.350 . S
C907 C906 1.434 . S
C908 C909 1.369 1_556 S
C908 C910 1.419 . S
C908 H912 0.930 . S
C909 C908 1.369 1_554 S
C909 C918 1.429 . S
C910 C908 1.419 . S
C910 C911 1.363 . S
C910 H913 0.929 . S
C911 C910 1.363 . S
C911 C917 1.428 1_556 S
H912 C908 0.930 . S
H913 C910 0.929 . S
S914 N915 1.613 . S
S914 N916 1.610 . S
N915 S914 1.613 . S
N915 C918 1.350 . S
N916 S914 1.610 . S
N916 C917 1.351 . S
C917 C911 1.428 1_554 S
C917 N916 1.351 . S
C917 C918 1.434 . S
C918 C909 1.429 . S
C918 N915 1.350 . S
C918 C917 1.434 . S
C919 C920 1.369 . S
C919 C921 1.419 . S
C919 H923 0.930 . S
C920 C919 1.369 . S
C920 C929 1.429 . S
C921 C919 1.419 . S
C921 C922 1.363 . S
C921 H924 0.929 . S
C922 C921 1.363 . S
C922 C928 1.428 . S
H923 C919 0.930 . S
H924 C921 0.929 . S
S925 N926 1.613 1_554 S
S925 N927 1.610 1_554 S
N926 S925 1.613 1_556 S
N926 C929 1.350 . S
N927 S925 1.610 1_556 S
N927 C928 1.351 . S
C928 C922 1.428 . S
C928 N927 1.351 . S
C928 C929 1.434 . S
C929 C920 1.429 . S
C929 N926 1.350 . S
C929 C928 1.434 . S
C930 C931 1.369 . S
C930 C932 1.419 . S
C930 H934 0.930 . S
C931 C930 1.369 . S
C931 C940 1.429 . S
C932 C930 1.419 . S
C932 C933 1.363 . S
C932 H935 0.929 . S
C933 C932 1.363 . S
C933 C939 1.428 . S
H934 C930 0.930 . S
H935 C932 0.929 . S
S936 N937 1.613 . S
S936 N938 1.610 . S
N937 S936 1.613 . S
N937 C940 1.350 . S
N938 S936 1.610 . S
N938 C939 1.351 . S
C939 C933 1.428 . S
C939 N938 1.351 . S
C939 C940 1.434 . S
C940 C931 1.429 . S
C940 N937 1.350 . S
C940 C939 1.434 . S
C941 C942 1.369 . S
C941 C943 1.419 . S
C941 H945 0.930 . S
C942 C941 1.369 . S
C942 C951 1.429 . S
C943 C941 1.419 . S
C943 C944 1.363 . S
C943 H946 0.929 . S
C944 C943 1.363 . S
C944 C950 1.428 . S
H945 C941 0.930 . S
H946 C943 0.929 . S
S947 N948 1.613 . S
S947 N949 1.610 . S
N948 S947 1.613 . S
N948 C951 1.350 . S
N949 S947 1.610 . S
N949 C950 1.351 . S
C950 C944 1.428 . S
C950 N949 1.351 . S
C950 C951 1.434 . S
C951 C942 1.429 . S
C951 N948 1.350 . S
C951 C950 1.434 . S
C952 C953 1.369 . S
C952 C954 1.419 1_565 S
C952 H956 0.930 . S
C953 C952 1.369 . S
C953 C962 1.429 . S
C954 C952 1.419 1_545 S
C954 C955 1.363 . S
C954 H957 0.929 . S
C955 C954 1.363 . S
C955 C961 1.428 . S
H956 C952 0.930 . S
H957 C954 0.929 . S
S958 N959 1.613 1_545 S
S958 N960 1.610 . S
N959 S958 1.613 1_565 S
N959 C962 1.350 . S
N960 S958 1.610 . S
N960 C961 1.351 . S
C961 C955 1.428 . S
C961 N960 1.351 . S
C961 C962 1.434 1_545 S
C962 C953 1.429 . S
C962 N959 1.350 . S
C962 C961 1.434 1_565 S
C963 C964 1.369 . S
C963 C965 1.419 . S
C963 H967 0.930 . S
C964 C963 1.369 . S
C964 C973 1.429 . S
C965 C963 1.419 . S
C965 C966 1.363 . S
C965 H968 0.929 . S
C966 C965 1.363 . S
C966 C972 1.428 . S
H967 C963 0.930 . S
H968 C965 0.929 . S
S969 N970 1.613 . S
S969 N971 1.610 . S
N970 S969 1.613 . S
N970 C973 1.350 . S
N971 S969 1.610 . S
N971 C972 1.351 . S
C972 C966 1.428 . S
C972 N971 1.351 . S
C972 C973 1.434 . S
C973 C964 1.429 . S
C973 N970 1.350 . S
C973 C972 1.434 . S
C974 C975 1.369 1_556 S
C974 C976 1.419 1_565 S
C974 H978 0.930 . S
C975 C974 1.369 1_554 S
C975 C984 1.429 . S
C976 C974 1.419 1_545 S
C976 C977 1.363 . S
C976 H979 0.929 . S
C977 C976 1.363 . S
C977 C983 1.428 1_556 S
H978 C974 0.930 . S
H979 C976 0.929 . S
S980 N981 1.613 1_545 S
S980 N982 1.610 . S
N981 S980 1.613 1_565 S
N981 C984 1.350 . S
N982 S980 1.610 . S
N982 C983 1.351 . S
C983 C977 1.428 1_554 S
C983 N982 1.351 . S
C983 C984 1.434 1_545 S
C984 C975 1.429 . S
C984 N981 1.350 . S
C984 C983 1.434 1_565 S
C985 C986 1.369 . S
C985 C987 1.419 . S
C985 H989 0.930 . S
C986 C985 1.369 . S
C986 C995 1.429 . S
C987 C985 1.419 . S
C987 C988 1.363 . S
C987 H990 0.929 . S
C988 C987 1.363 . S
C988 C994 1.428 . S
H989 C985 0.930 . S
H990 C987 0.929 . S
S991 N992 1.613 . S
S991 N993 1.610 1_556 S
N992 S991 1.613 . S
N992 C995 1.350 1_556 S
N993 S991 1.610 1_554 S
N993 C994 1.351 . S
C994 C988 1.428 . S
C994 N993 1.351 . S
C994 C995 1.434 . S
C995 C986 1.429 . S
C995 N992 1.350 1_554 S
C995 C994 1.434 . S
C996 C997 1.384 . S
C996 C998 1.405 1_565 S
C996 H1000 0.929 1_565 S
C997 C996 1.384 . S
C997 C1006 1.429 . S
C998 C996 1.405 1_545 S
C998 C999 1.363 . S
C998 H1001 0.929 . S
C999 C998 1.363 . S
C999 C1005 1.428 1_545 S
H1000 C996 0.929 1_545 S
H1001 C998 0.929 . S
S1002 N1003 1.613 . S
S1002 N1004 1.610 . S
N1003 S1002 1.613 . S
N1003 C1006 1.350 . S
N1004 S1002 1.610 . S
N1004 C1005 1.351 . S
C1005 C999 1.428 1_565 S
C1005 N1004 1.351 . S
C1005 C1006 1.434 . S
C1006 C997 1.429 . S
C1006 N1003 1.350 . S
C1006 C1005 1.434 . S
C1007 C1008 1.369 . S
C1007 C1009 1.419 . S
C1007 H1011 0.930 . S
C1008 C1007 1.369 . S
C1008 C1017 1.429 . S
C1009 C1007 1.419 . S
C1009 C1010 1.363 . S
C1009 H1012 0.929 . S
C1010 C1009 1.363 . S
C1010 C1016 1.428 . S
H1011 C1007 0.930 . S
H1012 C1009 0.929 . S
S1013 N1014 1.613 . S
S1013 N1015 1.610 1_556 S
N1014 S1013 1.613 . S
N1014 C1017 1.350 1_556 S
N1015 S1013 1.610 1_554 S
N1015 C1016 1.351 . S
C1016 C1010 1.428 . S
C1016 N1015 1.351 . S
C1016 C1017 1.434 . S
C1017 C1008 1.429 . S
C1017 N1014 1.350 1_554 S
C1017 C1016 1.434 . S
C1018 C1019 1.369 1_554 S
C1018 C1020 1.419 1_545 S
C1018 H1022 0.930 . S
C1019 C1018 1.369 1_556 S
C1019 C1028 1.429 . S
C1020 C1018 1.419 1_565 S
C1020 C1021 1.363 . S
C1020 H1023 0.929 . S
C1021 C1020 1.363 . S
C1021 C1027 1.428 1_554 S
H1022 C1018 0.930 . S
H1023 C1020 0.929 . S
S1024 N1025 1.613 1_565 S
S1024 N1026 1.610 . S
N1025 S1024 1.613 1_545 S
N1025 C1028 1.350 . S
N1026 S1024 1.610 . S
N1026 C1027 1.351 . S
C1027 C1021 1.428 1_556 S
C1027 N1026 1.351 . S
C1027 C1028 1.434 1_565 S
C1028 C1019 1.429 . S
C1028 N1025 1.350 . S
C1028 C1027 1.434 1_545 S
C1029 C1030 1.369 . S
C1029 C1031 1.419 . S
C1029 H1033 0.930 . S
C1030 C1029 1.369 . S
C1030 C1039 1.429 . S
C1031 C1029 1.419 . S
C1031 C1032 1.363 . S
C1031 H1034 0.929 . S
C1032 C1031 1.363 . S
C1032 C1038 1.428 . S
H1033 C1029 0.930 . S
H1034 C1031 0.929 . S
S1035 N1036 1.613 . S
S1035 N1037 1.610 . S
N1036 S1035 1.613 . S
N1036 C1039 1.350 . S
N1037 S1035 1.610 . S
N1037 C1038 1.351 . S
C1038 C1032 1.428 . S
C1038 N1037 1.351 . S
C1038 C1039 1.434 . S
C1039 C1030 1.429 . S
C1039 N1036 1.350 . S
C1039 C1038 1.434 . S
C513 C4 1.481 . S
C515 C6 1.484 . S
C524 C61 1.480 1_556 S
C526 C34 1.488 . S
C535 C93 1.482 . S
C537 C66 1.486 . S
C546 C98 1.493 . S
C548 C125 1.481 . S
C557 C134 1.486 . S
C559 C132 1.478 . S
C568 C189 1.482 . S
C570 C162 1.491 . S
C579 C221 1.481 . S
C581 C194 1.485 . S
C590 C228 1.480 1_554 S
C592 C230 1.486 . S
C601 C260 1.478 . S
C603 C262 1.485 . S
C612 C294 1.489 . S
C614 C292 1.479 1_554 S
C623 C322 1.487 . S
C625 C349 1.479 . S
C634 C354 1.490 . S
C636 C381 1.484 . S
C645 C386 1.484 . S
C647 C413 1.481 . S
C656 C418 1.490 . S
C658 C445 1.484 . S
C667 C452 1.481 . S
C669 C454 1.485 . S
C678 C484 1.479 1_556 S
C680 C486 1.486 . S
C689 C29 2.093 . S
C691 C356 2.080 . S
C700 C36 2.172 . S
C702 C509 2.176 . S
C711 C68 1.366 . S
C713 N306 1.332 . S
C722 N109 1.630 . S
C724 N429 1.598 . S
C733 N146 1.563 . S
C735 C420 1.633 . S
C744 N365 1.627 . S
C746 N173 1.595 . S
C755 C196 1.211 . S
C757 N498 1.149 . S
C766 C253 2.177 . S
C768 C317 2.172 . S
C777 C100 2.079 . S
C779 C285 2.091 . S
C788 N45 1.324 . S
C790 C324 1.361 . S
C799 N397 1.566 . S
C801 C164 1.633 . S
C810 N242 1.150 . S
C812 C477 1.211 . S
C821 N274 1.350 1_455 S
C823 C157 1.387 . S
C832 N205 1.120 . S
C834 N333 1.143 . S
C843 N77 1.143 . S
C845 N466 1.117 . S
C854 N18 1.355 1_655 S
C856 C388 1.390 . S
C865 C2 1.635 . S
C867 N141 1.618 . S
C876 C38 1.877 . S
C878 N178 1.867 . S
C887 C70 1.348 . S
C889 C198 1.356 . S
C898 N114 2.051 . S
C900 C226 2.069 . S
C909 N402 1.614 . S
C911 C258 1.634 . S
C920 N434 1.865 . S
C922 C290 1.876 . S
C931 C326 1.351 . S
C933 C450 1.355 . S
C942 C482 2.067 . S
C944 N370 2.051 . S
C953 N50 1.159 . S
C955 N237 1.161 . S
C964 C130 1.465 . S
C966 N82 1.456 . S
C975 C166 2.327 . S
C977 C102 2.327 . S
C986 N13 1.048 . S
C988 N210 1.116 . S
C997 N493 1.159 . S
C999 N301 1.157 . S
C1008 C390 1.465 . S
C1010 N338 1.458 . S
C1019 C422 2.327 . S
C1021 C358 2.327 . S
C1030 N461 1.114 . S
C1032 N269 1.049 . S
