# Generated by pormake.
# Topology umn, (4)-cn, num edge types: 1
# Building blocks:
#     Node 0, Type 0, BuildingBlock: QUQFOY_clean_sbu_3, # of connection points: 4
#     Node 1, Type 0, BuildingBlock: QUQFOY_clean_sbu_3, # of connection points: 4
#     Node 2, Type 0, BuildingBlock: QUQFOY_clean_sbu_3, # of connection points: 4
#     Node 3, Type 0, BuildingBlock: QUQFOY_clean_sbu_3, # of connection points: 4
#     Node 4, Type 0, BuildingBlock: QUQFOY_clean_sbu_3, # of connection points: 4
#     Node 5, Type 0, BuildingBlock: QUQFOY_clean_sbu_3, # of connection points: 4
#     Node 6, Type 0, BuildingBlock: QUQFOY_clean_sbu_3, # of connection points: 4
#     Node 7, Type 0, BuildingBlock: QUQFOY_clean_sbu_3, # of connection points: 4
#     Node 8, Type 0, BuildingBlock: QUQFOY_clean_sbu_3, # of connection points: 4
#     Node 9, Type 0, BuildingBlock: QUQFOY_clean_sbu_3, # of connection points: 4
#     Node 10, Type 0, BuildingBlock: QUQFOY_clean_sbu_3, # of connection points: 4
#     Node 11, Type 0, BuildingBlock: QUQFOY_clean_sbu_3, # of connection points: 4
#     Node 12, Type 0, BuildingBlock: QUQFOY_clean_sbu_3, # of connection points: 4
#     Node 13, Type 0, BuildingBlock: QUQFOY_clean_sbu_3, # of connection points: 4
#     Node 14, Type 0, BuildingBlock: QUQFOY_clean_sbu_3, # of connection points: 4
#     Node 15, Type 0, BuildingBlock: QUQFOY_clean_sbu_3, # of connection points: 4
#     Node 16, Type 0, BuildingBlock: QUQFOY_clean_sbu_3, # of connection points: 4
#     Node 17, Type 0, BuildingBlock: QUQFOY_clean_sbu_3, # of connection points: 4
#     Node 18, Type 0, BuildingBlock: QUQFOY_clean_sbu_3, # of connection points: 4
#     Node 19, Type 0, BuildingBlock: QUQFOY_clean_sbu_3, # of connection points: 4
#     Node 20, Type 0, BuildingBlock: QUQFOY_clean_sbu_3, # of connection points: 4
#     Node 21, Type 0, BuildingBlock: QUQFOY_clean_sbu_3, # of connection points: 4
#     Node 22, Type 0, BuildingBlock: QUQFOY_clean_sbu_3, # of connection points: 4
#     Node 23, Type 0, BuildingBlock: QUQFOY_clean_sbu_3, # of connection points: 4
#     Node 24, Type 0, BuildingBlock: QUQFOY_clean_sbu_3, # of connection points: 4
#     Node 25, Type 0, BuildingBlock: QUQFOY_clean_sbu_3, # of connection points: 4
#     Node 26, Type 0, BuildingBlock: QUQFOY_clean_sbu_3, # of connection points: 4
#     Node 27, Type 0, BuildingBlock: QUQFOY_clean_sbu_3, # of connection points: 4
#     Node 28, Type 0, BuildingBlock: QUQFOY_clean_sbu_3, # of connection points: 4
#     Node 29, Type 0, BuildingBlock: QUQFOY_clean_sbu_3, # of connection points: 4
#     Node 30, Type 0, BuildingBlock: QUQFOY_clean_sbu_3, # of connection points: 4
#     Node 31, Type 0, BuildingBlock: QUQFOY_clean_sbu_3, # of connection points: 4
#     Node 32, Type 0, BuildingBlock: QUQFOY_clean_sbu_3, # of connection points: 4
#     Node 33, Type 0, BuildingBlock: QUQFOY_clean_sbu_3, # of connection points: 4
#     Node 34, Type 0, BuildingBlock: QUQFOY_clean_sbu_3, # of connection points: 4
#     Node 35, Type 0, BuildingBlock: QUQFOY_clean_sbu_3, # of connection points: 4
#     Edge 36, Type (0, 0), BuildingBlock: AJUNOK_clean_linker_0, # of connection points: 2
#     Edge 37, Type (0, 0), BuildingBlock: AJUNOK_clean_linker_0, # of connection points: 2
#     Edge 38, Type (0, 0), BuildingBlock: AJUNOK_clean_linker_0, # of connection points: 2
#     Edge 39, Type (0, 0), BuildingBlock: AJUNOK_clean_linker_0, # of connection points: 2
#     Edge 40, Type (0, 0), BuildingBlock: AJUNOK_clean_linker_0, # of connection points: 2
#     Edge 41, Type (0, 0), BuildingBlock: AJUNOK_clean_linker_0, # of connection points: 2
#     Edge 42, Type (0, 0), BuildingBlock: AJUNOK_clean_linker_0, # of connection points: 2
#     Edge 43, Type (0, 0), BuildingBlock: AJUNOK_clean_linker_0, # of connection points: 2
#     Edge 44, Type (0, 0), BuildingBlock: AJUNOK_clean_linker_0, # of connection points: 2
#     Edge 45, Type (0, 0), BuildingBlock: AJUNOK_clean_linker_0, # of connection points: 2
#     Edge 46, Type (0, 0), BuildingBlock: AJUNOK_clean_linker_0, # of connection points: 2
#     Edge 47, Type (0, 0), BuildingBlock: AJUNOK_clean_linker_0, # of connection points: 2
#     Edge 48, Type (0, 0), BuildingBlock: AJUNOK_clean_linker_0, # of connection points: 2
#     Edge 49, Type (0, 0), BuildingBlock: AJUNOK_clean_linker_0, # of connection points: 2
#     Edge 50, Type (0, 0), BuildingBlock: AJUNOK_clean_linker_0, # of connection points: 2
#     Edge 51, Type (0, 0), BuildingBlock: AJUNOK_clean_linker_0, # of connection points: 2
#     Edge 52, Type (0, 0), BuildingBlock: AJUNOK_clean_linker_0, # of connection points: 2
#     Edge 53, Type (0, 0), BuildingBlock: AJUNOK_clean_linker_0, # of connection points: 2
#     Edge 54, Type (0, 0), BuildingBlock: AJUNOK_clean_linker_0, # of connection points: 2
#     Edge 55, Type (0, 0), BuildingBlock: AJUNOK_clean_linker_0, # of connection points: 2
#     Edge 56, Type (0, 0), BuildingBlock: AJUNOK_clean_linker_0, # of connection points: 2
#     Edge 57, Type (0, 0), BuildingBlock: AJUNOK_clean_linker_0, # of connection points: 2
#     Edge 58, Type (0, 0), BuildingBlock: AJUNOK_clean_linker_0, # of connection points: 2
#     Edge 59, Type (0, 0), BuildingBlock: AJUNOK_clean_linker_0, # of connection points: 2
#     Edge 60, Type (0, 0), BuildingBlock: AJUNOK_clean_linker_0, # of connection points: 2
#     Edge 61, Type (0, 0), BuildingBlock: AJUNOK_clean_linker_0, # of connection points: 2
#     Edge 62, Type (0, 0), BuildingBlock: AJUNOK_clean_linker_0, # of connection points: 2
#     Edge 63, Type (0, 0), BuildingBlock: AJUNOK_clean_linker_0, # of connection points: 2
#     Edge 64, Type (0, 0), BuildingBlock: AJUNOK_clean_linker_0, # of connection points: 2
#     Edge 65, Type (0, 0), BuildingBlock: AJUNOK_clean_linker_0, # of connection points: 2
#     Edge 66, Type (0, 0), BuildingBlock: AJUNOK_clean_linker_0, # of connection points: 2
#     Edge 67, Type (0, 0), BuildingBlock: AJUNOK_clean_linker_0, # of connection points: 2
#     Edge 68, Type (0, 0), BuildingBlock: AJUNOK_clean_linker_0, # of connection points: 2
#     Edge 69, Type (0, 0), BuildingBlock: AJUNOK_clean_linker_0, # of connection points: 2
#     Edge 70, Type (0, 0), BuildingBlock: AJUNOK_clean_linker_0, # of connection points: 2
#     Edge 71, Type (0, 0), BuildingBlock: AJUNOK_clean_linker_0, # of connection points: 2
#     Edge 72, Type (0, 0), BuildingBlock: AJUNOK_clean_linker_0, # of connection points: 2
#     Edge 73, Type (0, 0), BuildingBlock: AJUNOK_clean_linker_0, # of connection points: 2
#     Edge 74, Type (0, 0), BuildingBlock: AJUNOK_clean_linker_0, # of connection points: 2
#     Edge 75, Type (0, 0), BuildingBlock: AJUNOK_clean_linker_0, # of connection points: 2
#     Edge 76, Type (0, 0), BuildingBlock: AJUNOK_clean_linker_0, # of connection points: 2
#     Edge 77, Type (0, 0), BuildingBlock: AJUNOK_clean_linker_0, # of connection points: 2
#     Edge 78, Type (0, 0), BuildingBlock: AJUNOK_clean_linker_0, # of connection points: 2
#     Edge 79, Type (0, 0), BuildingBlock: AJUNOK_clean_linker_0, # of connection points: 2
#     Edge 80, Type (0, 0), BuildingBlock: AJUNOK_clean_linker_0, # of connection points: 2
#     Edge 81, Type (0, 0), BuildingBlock: AJUNOK_clean_linker_0, # of connection points: 2
#     Edge 82, Type (0, 0), BuildingBlock: AJUNOK_clean_linker_0, # of connection points: 2
#     Edge 83, Type (0, 0), BuildingBlock: AJUNOK_clean_linker_0, # of connection points: 2
#     Edge 84, Type (0, 0), BuildingBlock: AJUNOK_clean_linker_0, # of connection points: 2
#     Edge 85, Type (0, 0), BuildingBlock: AJUNOK_clean_linker_0, # of connection points: 2
#     Edge 86, Type (0, 0), BuildingBlock: AJUNOK_clean_linker_0, # of connection points: 2
#     Edge 87, Type (0, 0), BuildingBlock: AJUNOK_clean_linker_0, # of connection points: 2
#     Edge 88, Type (0, 0), BuildingBlock: AJUNOK_clean_linker_0, # of connection points: 2
#     Edge 89, Type (0, 0), BuildingBlock: AJUNOK_clean_linker_0, # of connection points: 2
#     Edge 90, Type (0, 0), BuildingBlock: AJUNOK_clean_linker_0, # of connection points: 2
#     Edge 91, Type (0, 0), BuildingBlock: AJUNOK_clean_linker_0, # of connection points: 2
#     Edge 92, Type (0, 0), BuildingBlock: AJUNOK_clean_linker_0, # of connection points: 2
#     Edge 93, Type (0, 0), BuildingBlock: AJUNOK_clean_linker_0, # of connection points: 2
#     Edge 94, Type (0, 0), BuildingBlock: AJUNOK_clean_linker_0, # of connection points: 2
#     Edge 95, Type (0, 0), BuildingBlock: AJUNOK_clean_linker_0, # of connection points: 2
#     Edge 96, Type (0, 0), BuildingBlock: AJUNOK_clean_linker_0, # of connection points: 2
#     Edge 97, Type (0, 0), BuildingBlock: AJUNOK_clean_linker_0, # of connection points: 2
#     Edge 98, Type (0, 0), BuildingBlock: AJUNOK_clean_linker_0, # of connection points: 2
#     Edge 99, Type (0, 0), BuildingBlock: AJUNOK_clean_linker_0, # of connection points: 2
#     Edge 100, Type (0, 0), BuildingBlock: AJUNOK_clean_linker_0, # of connection points: 2
#     Edge 101, Type (0, 0), BuildingBlock: AJUNOK_clean_linker_0, # of connection points: 2
#     Edge 102, Type (0, 0), BuildingBlock: AJUNOK_clean_linker_0, # of connection points: 2
#     Edge 103, Type (0, 0), BuildingBlock: AJUNOK_clean_linker_0, # of connection points: 2
#     Edge 104, Type (0, 0), BuildingBlock: AJUNOK_clean_linker_0, # of connection points: 2
#     Edge 105, Type (0, 0), BuildingBlock: AJUNOK_clean_linker_0, # of connection points: 2
#     Edge 106, Type (0, 0), BuildingBlock: AJUNOK_clean_linker_0, # of connection points: 2
#     Edge 107, Type (0, 0), BuildingBlock: AJUNOK_clean_linker_0, # of connection points: 2
# Relax obj value: 0.161
# Max RMSD: 0.213
# Mean RMSD: 0.213
data_MOF--net-umn--node1-QUQFOY_clean_sbu_3--edge1-AJUNOK_clean_linker_0
_symmetry_space_group_name_H-M    P1
_symmetry_Int_Tables_number       1
_symmetry_cell_setting            triclinic
loop_
_symmetry_equiv_pos_as_xyz
'x, y, z'
_cell_length_a     62.873064
_cell_length_b     62.906702
_cell_length_c     27.588889
_cell_angle_alpha  89.997047
_cell_angle_beta   90.03309
_cell_angle_gamma 120.06246
loop_
_atom_site_label
_atom_site_type_symbol
_atom_site_fract_x
_atom_site_fract_y
_atom_site_fract_z
_atom_type_partial_charge
C0 C 0.41379 0.11455 0.17084 0.0
O1 O 0.42398 0.11636 0.21149 0.0
Cd2 Cd 0.39638 0.10156 0.28207 0.0
O3 O 0.39137 0.1087 0.16981 0.0
Cd4 Cd 0.36102 0.10265 0.23185 0.0
C5 C 0.35195 0.04677 0.24526 0.0
O6 O 0.36869 0.11385 0.31928 0.0
O7 O 0.33316 0.08385 0.29427 0.0
O8 O 0.36362 0.14112 0.21573 0.0
C9 C 0.34585 0.09856 0.32777 0.0
O10 O 0.37115 0.05799 0.27121 0.0
C11 C 0.34256 0.13196 0.19618 0.0
O12 O 0.3438 0.0586 0.22159 0.0
O13 O 0.33051 0.10873 0.19046 0.0
C14 C 0.86752 0.29499 0.17655 0.0
O15 O 0.86575 0.30274 0.21792 0.0
Cd16 Cd 0.88195 0.29047 0.28673 0.0
O17 O 0.87382 0.27879 0.17388 0.0
Cd18 Cd 0.88177 0.25429 0.23246 0.0
C19 C 0.93692 0.30238 0.24537 0.0
O20 O 0.87016 0.24988 0.31958 0.0
O21 O 0.90146 0.24647 0.29568 0.0
O22 O 0.84445 0.21731 0.21441 0.0
C23 C 0.88639 0.24372 0.32894 0.0
O24 O 0.9255 0.30948 0.27295 0.0
C25 C 0.85474 0.20664 0.19435 0.0
O26 O 0.92538 0.28259 0.22101 0.0
O27 O 0.87799 0.21899 0.18932 0.0
C28 C 0.68721 0.57726 0.17487 0.0
O29 O 0.7013 0.57248 0.19959 0.0
Cd30 Cd 0.71575 0.61123 0.24658 0.0
O31 O 0.68865 0.59782 0.18172 0.0
Cd32 Cd 0.72568 0.627 0.23475 0.0
C33 C 0.68708 0.64007 0.24751 0.0
O34 O 0.73267 0.62015 0.32402 0.0
O35 O 0.74207 0.65647 0.29891 0.0
O36 O 0.7562 0.61714 0.20635 0.0
C37 C 0.74192 0.64303 0.33331 0.0
O38 O 0.68122 0.61857 0.26114 0.0
C39 C 0.76929 0.63777 0.18587 0.0
O40 O 0.70771 0.65291 0.22701 0.0
O41 O 0.76082 0.65238 0.1848 0.0
C42 C 0.10836 0.42219 0.33167 0.0
O43 O 0.10989 0.43162 0.29028 0.0
Cd44 Cd 0.09649 0.40341 0.22072 0.0
O45 O 0.10378 0.40019 0.33433 0.0
Cd46 Cd 0.09911 0.36912 0.27545 0.0
C47 C 0.04252 0.35809 0.26002 0.0
O48 O 0.11032 0.37608 0.18819 0.0
O49 O 0.08083 0.34051 0.21384 0.0
O50 O 0.13799 0.37286 0.2936 0.0
C51 C 0.09523 0.35318 0.17994 0.0
O52 O 0.05314 0.3768 0.23264 0.0
C53 C 0.1291 0.35213 0.31435 0.0
O54 O 0.05491 0.35102 0.28496 0.0
O55 O 0.10585 0.33978 0.31967 0.0
C56 C 0.55616 0.68113 0.3373 0.0
O57 O 0.54757 0.67216 0.29593 0.0
Cd58 Cd 0.57724 0.68572 0.22917 0.0
O59 O 0.57802 0.69885 0.3404 0.0
Cd60 Cd 0.61029 0.72447 0.28296 0.0
C61 C 0.62324 0.68001 0.27689 0.0
O62 O 0.60336 0.72664 0.19483 0.0
O63 O 0.63896 0.73342 0.22137 0.0
O64 O 0.60619 0.75979 0.29701 0.0
C65 C 0.62625 0.73451 0.18681 0.0
O66 O 0.60516 0.67106 0.24764 0.0
C67 C 0.6268 0.77212 0.31806 0.0
O68 O 0.62903 0.69963 0.30031 0.0
O69 O 0.63925 0.76149 0.32527 0.0
C70 C 0.29402 0.87276 0.33442 0.0
O71 O 0.30279 0.87206 0.29346 0.0
Cd72 Cd 0.28975 0.88669 0.22324 0.0
O73 O 0.27702 0.87798 0.33645 0.0
Cd74 Cd 0.25234 0.88537 0.27736 0.0
C75 C 0.2994 0.94123 0.26262 0.0
O76 O 0.24864 0.87298 0.19069 0.0
O77 O 0.2438 0.90367 0.21268 0.0
O78 O 0.21563 0.84788 0.29595 0.0
C79 C 0.24178 0.88855 0.18013 0.0
O80 O 0.30704 0.93013 0.2355 0.0
C81 C 0.20467 0.858 0.31555 0.0
O82 O 0.27978 0.92931 0.28737 0.0
O83 O 0.21673 0.88128 0.31998 0.0
C84 C 0.5576 0.87281 0.83376 0.0
O85 O 0.54885 0.87241 0.7921 0.0
Cd86 Cd 0.57611 0.88399 0.72065 0.0
O87 O 0.57939 0.87685 0.83714 0.0
Cd88 Cd 0.61159 0.88409 0.77931 0.0
C89 C 0.6196 0.93919 0.75737 0.0
O90 O 0.60457 0.87072 0.69302 0.0
O91 O 0.63956 0.90203 0.71637 0.0
O92 O 0.61097 0.84723 0.80185 0.0
C93 C 0.62722 0.88637 0.68394 0.0
O94 O 0.6027 0.92756 0.72641 0.0
C95 C 0.63213 0.85788 0.82132 0.0
O96 O 0.62551 0.9278 0.78787 0.0
O97 O 0.64322 0.88123 0.82424 0.0
C98 C 0.10854 0.68186 0.82986 0.0
O99 O 0.1089 0.67353 0.78822 0.0
Cd100 Cd 0.09416 0.68767 0.71977 0.0
O101 O 0.10341 0.69886 0.83357 0.0
Cd102 Cd 0.09545 0.72373 0.7764 0.0
C103 C 0.03964 0.67652 0.76108 0.0
O104 O 0.1065 0.72886 0.68898 0.0
O105 O 0.07557 0.73235 0.71541 0.0
O106 O 0.13304 0.76063 0.79385 0.0
C107 C 0.09057 0.73567 0.68163 0.0
O108 O 0.05071 0.66943 0.73254 0.0
C109 C 0.12296 0.77131 0.81471 0.0
O110 O 0.05156 0.69578 0.78686 0.0
O111 O 0.09978 0.75892 0.82083 0.0
C112 C 0.29491 0.42019 0.83496 0.0
O113 O 0.30216 0.43041 0.79397 0.0
Cd114 Cd 0.28979 0.40223 0.72451 0.0
O115 O 0.27896 0.39755 0.83661 0.0
Cd116 Cd 0.25409 0.36678 0.77538 0.0
C117 C 0.3019 0.35923 0.76312 0.0
O118 O 0.25 0.37366 0.68778 0.0
O119 O 0.24483 0.33844 0.71375 0.0
O120 O 0.21843 0.36975 0.79181 0.0
C121 C 0.24266 0.35084 0.67987 0.0
O122 O 0.30928 0.37819 0.73672 0.0
C123 C 0.20644 0.34879 0.81167 0.0
O124 O 0.28169 0.35043 0.78625 0.0
O125 O 0.2175 0.33664 0.81749 0.0
C126 C 0.86581 0.56214 0.67267 0.0
O127 O 0.86428 0.55273 0.71408 0.0
Cd128 Cd 0.87937 0.58079 0.78368 0.0
O129 O 0.8714 0.58445 0.66988 0.0
Cd130 Cd 0.87852 0.61629 0.72921 0.0
C131 C 0.93412 0.62433 0.74342 0.0
O132 O 0.86778 0.60971 0.81673 0.0
O133 O 0.89892 0.64417 0.79085 0.0
O134 O 0.84094 0.61597 0.71315 0.0
C135 C 0.884 0.63231 0.82463 0.0
O136 O 0.92287 0.60575 0.77093 0.0
C137 C 0.85119 0.63714 0.69385 0.0
O138 O 0.92238 0.63224 0.71866 0.0
O139 O 0.87435 0.64787 0.68749 0.0
C140 C 0.41702 0.30072 0.6804 0.0
O141 O 0.42663 0.30808 0.72187 0.0
Cd142 Cd 0.39789 0.29479 0.79047 0.0
O143 O 0.39454 0.2844 0.67753 0.0
Cd144 Cd 0.36271 0.25899 0.73632 0.0
C145 C 0.35493 0.30665 0.74937 0.0
O146 O 0.36893 0.25429 0.8238 0.0
O147 O 0.33397 0.24957 0.79739 0.0
O148 O 0.36607 0.22363 0.71941 0.0
C149 C 0.34616 0.24727 0.83158 0.0
O150 O 0.37344 0.31375 0.77704 0.0
C151 C 0.34534 0.21171 0.69858 0.0
O152 O 0.34659 0.28677 0.72522 0.0
O153 O 0.33309 0.22265 0.69257 0.0
C154 C 0.67929 0.11325 0.68489 0.0
O155 O 0.67121 0.11283 0.72722 0.0
Cd156 Cd 0.68713 0.09987 0.79613 0.0
O157 O 0.69687 0.1091 0.67946 0.0
Cd158 Cd 0.72189 0.10004 0.73346 0.0
C159 C 0.67381 0.04512 0.75302 0.0
O160 O 0.72919 0.1123 0.82007 0.0
O161 O 0.73138 0.08056 0.79457 0.0
O162 O 0.75835 0.13678 0.71124 0.0
C163 C 0.73535 0.09596 0.82799 0.0
O164 O 0.66939 0.05635 0.78627 0.0
C165 C 0.7684 0.12609 0.69027 0.0
O166 O 0.69102 0.05684 0.72245 0.0
O167 O 0.75577 0.1028 0.68635 0.0
C168 C 0.08064 0.44473 0.51327 0.0
O169 O 0.08969 0.44547 0.55473 0.0
Cd170 Cd 0.06109 0.43057 0.62365 0.0
O171 O 0.05834 0.43916 0.51005 0.0
Cd172 Cd 0.02561 0.43102 0.56765 0.0
C173 C 0.01775 0.3756 0.58378 0.0
O174 O 0.03236 0.44299 0.65472 0.0
O175 O -0.00255 0.41214 0.62965 0.0
O176 O 0.02627 0.46832 0.54849 0.0
C177 C 0.00963 0.4273 0.66291 0.0
O178 O 0.03612 0.38703 0.61177 0.0
C179 C 0.00544 0.45805 0.52772 0.0
O180 O 0.01 0.38718 0.5581 0.0
O181 O -0.0055 0.4348 0.5228 0.0
C182 C 0.53259 0.63149 0.51833 0.0
O183 O 0.53399 0.64031 0.56032 0.0
Cd184 Cd 0.54716 0.62444 0.62894 0.0
O185 O 0.5365 0.61376 0.51305 0.0
Cd186 Cd 0.5455 0.58853 0.56587 0.0
C187 C 0.60147 0.63521 0.58642 0.0
O188 O 0.533 0.58204 0.65224 0.0
O189 O 0.56329 0.57722 0.62683 0.0
O190 O 0.50732 0.55353 0.54525 0.0
C191 C 0.54823 0.57442 0.66014 0.0
O192 O 0.59041 0.64035 0.61888 0.0
C193 C 0.51648 0.54222 0.52348 0.0
O194 O 0.58948 0.61813 0.55568 0.0
O195 O 0.53978 0.55344 0.51856 0.0
C196 C 0.3451 0.8975 0.51542 0.0
O197 O 0.33671 0.88987 0.5576 0.0
Cd198 Cd 0.35352 0.91801 0.62752 0.0
O199 O 0.36346 0.91884 0.51039 0.0
Cd200 Cd 0.38931 0.95222 0.56519 0.0
C201 C 0.34261 0.96122 0.58536 0.0
O202 O 0.39593 0.94624 0.65161 0.0
O203 O 0.39938 0.98086 0.6271 0.0
O204 O 0.42549 0.95133 0.54282 0.0
C205 C 0.40278 0.96887 0.66016 0.0
O206 O 0.33753 0.94531 0.61843 0.0
C207 C 0.43592 0.97227 0.52256 0.0
O208 O 0.35967 0.96613 0.55477 0.0
O209 O 0.4236 0.98325 0.51896 0.0
C210 C 0.77335 0.75504 0.67356 0.0
O211 O 0.7731 0.76355 0.632 0.0
Cd212 Cd 0.76186 0.73669 0.5602 0.0
O213 O 0.77003 0.73351 0.6769 0.0
Cd214 Cd 0.76377 0.70159 0.61913 0.0
C215 C 0.70747 0.69028 0.59574 0.0
O216 O 0.77769 0.71042 0.53338 0.0
O217 O 0.74719 0.67449 0.55459 0.0
O218 O 0.80188 0.70443 0.63984 0.0
C219 C 0.76284 0.68777 0.52293 0.0
O220 O 0.71865 0.70778 0.56576 0.0
C221 C 0.79253 0.68316 0.65841 0.0
O222 O 0.71932 0.68501 0.62644 0.0
O223 O 0.76918 0.67085 0.66209 0.0
C224 C 0.22766 0.01813 0.66352 0.0
O225 O 0.21898 0.00996 0.62173 0.0
Cd226 Cd 0.24625 0.02564 0.55042 0.0
O227 O 0.24944 0.03592 0.66722 0.0
Cd228 Cd 0.28182 0.06146 0.61003 0.0
C229 C 0.29002 0.01449 0.58881 0.0
O230 O 0.27488 0.06742 0.52364 0.0
O231 O 0.30979 0.07103 0.54697 0.0
O232 O 0.28073 0.09757 0.63186 0.0
C233 C 0.29737 0.07395 0.51411 0.0
O234 O 0.27313 0.0091 0.55775 0.0
C235 C 0.30184 0.10833 0.6515 0.0
O236 O 0.29589 0.03185 0.61919 0.0
O237 O 0.31313 0.09629 0.65482 0.0
C238 C 0.96212 0.20263 0.6713 0.0
O239 O 0.97092 0.20164 0.63058 0.0
Cd240 Cd 0.95778 0.21613 0.56014 0.0
O241 O 0.94495 0.20762 0.67259 0.0
Cd242 Cd 0.92034 0.2136 0.61114 0.0
C243 C 0.96659 0.27005 0.59936 0.0
O244 O 0.91753 0.2032 0.52343 0.0
O245 O 0.91164 0.23282 0.54898 0.0
O246 O 0.88414 0.17495 0.62588 0.0
C247 C 0.90992 0.21842 0.51513 0.0
O248 O 0.97498 0.25944 0.57279 0.0
C249 C 0.87226 0.18404 0.64565 0.0
O250 O 0.94661 0.25766 0.62281 0.0
O251 O 0.8836 0.20721 0.65221 0.0
C252 C 0.22225 0.20526 0.15856 0.0
O253 O 0.21498 0.20726 0.11679 0.0
Cd254 Cd 0.24338 0.21918 0.04713 0.0
O255 O 0.2435 0.20801 0.16332 0.0
Cd256 Cd 0.27722 0.2169 0.10871 0.0
C257 C 0.28641 0.27288 0.09089 0.0
O258 O 0.27167 0.20527 0.02163 0.0
O259 O 0.30633 0.23593 0.04805 0.0
O260 O 0.27656 0.17981 0.1298 0.0
C261 C 0.29452 0.22087 0.0144 0.0
O262 O 0.27064 0.26238 0.05742 0.0
C263 C 0.29732 0.19033 0.15085 0.0
O264 O 0.2911 0.26039 0.12102 0.0
O265 O 0.30809 0.21359 0.15525 0.0
C266 C 0.77216 0.01167 0.15814 0.0
O267 O 0.77042 0.00234 0.11653 0.0
Cd268 Cd 0.76133 0.02021 0.04494 0.0
O269 O 0.77065 0.03091 0.16195 0.0
Cd270 Cd 0.76505 0.05702 0.10472 0.0
C271 C 0.7081 0.01267 0.08322 0.0
O272 O 0.77676 0.06247 0.0177 0.0
O273 O 0.74776 0.06909 0.04438 0.0
O274 O 0.80383 0.09168 0.12468 0.0
C275 C 0.76224 0.07105 0.01048 0.0
O276 O 0.71847 0.00643 0.05129 0.0
C277 C 0.79498 0.10342 0.14596 0.0
O278 O 0.72071 0.02937 0.11422 0.0
O279 O 0.7717 0.09259 0.15086 0.0
C280 C 0.96124 0.75033 0.16465 0.0
O281 O 0.97021 0.75986 0.12384 0.0
Cd282 Cd 0.95797 0.73216 0.05383 0.0
O283 O 0.94437 0.72803 0.16652 0.0
Cd284 Cd 0.92039 0.6961 0.10663 0.0
C285 C 0.96778 0.68782 0.09552 0.0
O286 O 0.91741 0.70423 0.01953 0.0
O287 O 0.91287 0.66899 0.04313 0.0
O288 O 0.88386 0.69746 0.12147 0.0
C289 C 0.91072 0.68172 0.00995 0.0
O290 O 0.97558 0.70652 0.0682 0.0
C291 C 0.87206 0.67626 0.14043 0.0
O292 O 0.94783 0.67988 0.1192 0.0
O293 O 0.88362 0.66467 0.14688 0.0
C294 C 0.5336 0.89918 0.01541 0.0
O295 O 0.53501 0.8912 0.05682 0.0
Cd296 Cd 0.54829 0.91912 0.12732 0.0
O297 O 0.53725 0.92082 0.01172 0.0
Cd298 Cd 0.54655 0.95412 0.06833 0.0
C299 C 0.60219 0.96229 0.08338 0.0
O300 O 0.53529 0.94763 0.15555 0.0
O301 O 0.56644 0.98223 0.13069 0.0
O302 O 0.50945 0.954 0.04944 0.0
C303 C 0.5515 0.97011 0.16431 0.0
O304 O 0.59156 0.94601 0.11591 0.0
C305 C 0.51997 0.97499 0.0294 0.0
O306 O 0.58986 0.96778 0.05441 0.0
O307 O 0.54322 0.98571 0.02455 0.0
C308 C 0.08391 0.63079 0.0103 0.0
O309 O 0.093 0.63858 0.05198 0.0
Cd310 Cd 0.06453 0.62447 0.12105 0.0
O311 O 0.06172 0.61378 0.00687 0.0
Cd312 Cd 0.02944 0.58845 0.06479 0.0
C313 C 0.021 0.63558 0.0807 0.0
O314 O 0.03566 0.58337 0.15214 0.0
O315 O 0.00117 0.57993 0.12611 0.0
O316 O 0.02944 0.55131 0.04639 0.0
C317 C 0.01295 0.57664 0.15974 0.0
O318 O 0.03932 0.64276 0.10893 0.0
C319 C 0.00846 0.54089 0.02618 0.0
O320 O 0.01352 0.61629 0.05503 0.0
O321 O -0.00202 0.55358 0.02073 0.0
C322 C 0.34534 0.44578 0.01665 0.0
O323 O 0.33666 0.44501 0.05853 0.0
Cd324 Cd 0.35313 0.4337 0.12924 0.0
O325 O 0.36335 0.44223 0.0122 0.0
Cd326 Cd 0.38824 0.43402 0.0681 0.0
C327 C 0.34088 0.37883 0.08992 0.0
O328 O 0.39505 0.44611 0.15479 0.0
O329 O 0.39817 0.41492 0.1288 0.0
O330 O 0.42444 0.4713 0.04724 0.0
C331 C 0.40156 0.42999 0.16254 0.0
O332 O 0.33605 0.39028 0.12202 0.0
C333 C 0.43493 0.46108 0.02615 0.0
O334 O 0.35785 0.39039 0.05879 0.0
O335 O 0.42268 0.43779 0.02161 0.0
C336 C 0.74832 0.78035 0.85517 0.0
O337 O 0.7561 0.77875 0.89668 0.0
Cd338 Cd 0.72773 0.76567 0.96646 0.0
O339 O 0.72689 0.77722 0.85126 0.0
Cd340 Cd 0.69394 0.76923 0.90731 0.0
C341 C 0.68364 0.71277 0.92065 0.0
O342 O 0.69947 0.77884 0.99533 0.0
O343 O 0.66452 0.74934 0.96706 0.0
O344 O 0.69707 0.80794 0.89098 0.0
C345 C 0.67655 0.76326 1.00205 0.0
O346 O 0.69992 0.72285 0.9534 0.0
C347 C 0.67655 0.79904 0.86932 0.0
O348 O 0.67875 0.72561 0.89185 0.0
O349 O 0.66459 0.77586 0.86272 0.0
C350 C 0.2023 0.96622 0.84389 0.0
O351 O 0.20354 0.97534 0.88553 0.0
Cd352 Cd 0.21583 0.95964 0.95578 0.0
O353 O 0.20535 0.94788 0.83994 0.0
Cd354 Cd 0.21254 0.92231 0.89639 0.0
C355 C 0.2691 0.96825 0.91239 0.0
O356 O 0.2014 0.91782 0.98371 0.0
O357 O 0.23112 0.91215 0.95817 0.0
O358 O 0.17386 0.8871 0.87813 0.0
C359 C 0.2166 0.91019 0.99197 0.0
O360 O 0.25876 0.97445 0.9445 0.0
C361 C 0.18274 0.8752 0.85763 0.0
O362 O 0.25645 0.95058 0.88326 0.0
O363 O 0.206 0.88615 0.85221 0.0
C364 C 0.01304 0.22982 0.85262 0.0
O365 O 0.00501 0.22205 0.89493 0.0
Cd366 Cd 0.02186 0.25041 0.96469 0.0
O367 O 0.03097 0.2514 0.84742 0.0
Cd368 Cd 0.05665 0.28478 0.90239 0.0
C369 C 0.00989 0.29329 0.92557 0.0
O370 O 0.06405 0.27954 0.98893 0.0
O371 O 0.06741 0.31399 0.96299 0.0
O372 O 0.09267 0.28372 0.87976 0.0
C373 C 0.07107 0.30232 0.99634 0.0
O374 O 0.00508 0.27704 0.95774 0.0
C375 C 0.10296 0.30446 0.8587 0.0
O376 O 0.02662 0.29846 0.89403 0.0
O377 O 0.09065 0.31544 0.85491 0.0
C378 C 0.43932 0.08937 0.98903 0.0
O379 O 0.43836 0.0969 0.94686 0.0
Cd380 Cd 0.42857 0.06917 0.87643 0.0
O381 O 0.43725 0.06842 0.99387 0.0
Cd382 Cd 0.43185 0.03613 0.93812 0.0
C383 C 0.37504 0.02329 0.91464 0.0
O384 O 0.44431 0.04241 0.85144 0.0
O385 O 0.41498 0.0068 0.87746 0.0
O386 O 0.47035 0.04003 0.95972 0.0
C387 C 0.42972 0.01934 0.84391 0.0
O388 O 0.38563 0.03997 0.88284 0.0
C389 C 0.46119 0.01941 0.98101 0.0
O390 O 0.38744 0.01924 0.94616 0.0
O391 O 0.43788 0.00708 0.98524 0.0
C392 C 0.88992 0.34521 0.99498 0.0
O393 O 0.88241 0.33581 0.95338 0.0
Cd394 Cd 0.91011 0.35229 0.88285 0.0
O395 O 0.91099 0.36408 0.99912 0.0
Cd396 Cd 0.94396 0.38987 0.94352 0.0
C397 C 0.95497 0.34423 0.92682 0.0
O398 O 0.93724 0.39451 0.85648 0.0
O399 O 0.97264 0.40005 0.88163 0.0
O400 O 0.94121 0.42537 0.96267 0.0
C401 C 0.96003 0.40204 0.84791 0.0
O402 O 0.9387 0.33807 0.89404 0.0
C403 C 0.96205 0.43687 0.98322 0.0
O404 O 0.95953 0.36163 0.95632 0.0
O405 O 0.97398 0.42555 0.98826 0.0
C406 C 0.62977 0.54334 1.00252 0.0
O407 O 0.63847 0.54183 0.962 0.0
Cd408 Cd 0.62306 0.55259 0.88865 0.0
O409 O 0.61187 0.54719 1.00289 0.0
Cd410 Cd 0.5858 0.5507 0.94273 0.0
C411 C 0.63094 0.60692 0.92246 0.0
O412 O 0.58165 0.53767 0.85685 0.0
O413 O 0.57602 0.56796 0.87882 0.0
O414 O 0.55091 0.51204 0.96243 0.0
C415 C 0.57403 0.5527 0.84658 0.0
O416 O 0.6379 0.59594 0.89339 0.0
C417 C 0.53853 0.52098 0.98054 0.0
O418 O 0.6131 0.59489 0.95157 0.0
O419 O 0.54912 0.54429 0.9843 0.0
C420 C 0.89092 0.53673 0.49145 0.0
O421 O 0.88216 0.53636 0.44985 0.0
Cd422 Cd 0.91113 0.55063 0.38159 0.0
O423 O 0.91291 0.54136 0.49503 0.0
Cd424 Cd 0.94555 0.54793 0.43852 0.0
C425 C 0.95573 0.60431 0.42493 0.0
O426 O 0.93903 0.53707 0.35116 0.0
O427 O 0.97445 0.56659 0.3774 0.0
O428 O 0.94191 0.50913 0.45624 0.0
C429 C 0.96192 0.55231 0.34322 0.0
O430 O 0.93747 0.59372 0.39638 0.0
C431 C 0.9624 0.51793 0.47796 0.0
O432 O 0.9628 0.59194 0.44997 0.0
O433 O 0.97467 0.54114 0.4838 0.0
C434 C 0.44303 0.35006 0.4978 0.0
O435 O 0.44422 0.34163 0.45678 0.0
Cd436 Cd 0.43017 0.3553 0.38631 0.0
O437 O 0.43758 0.36688 0.49983 0.0
Cd438 Cd 0.43027 0.39103 0.43983 0.0
C439 C 0.37493 0.34295 0.4241 0.0
O440 O 0.44232 0.39608 0.35292 0.0
O441 O 0.41133 0.4 0.37771 0.0
O442 O 0.46766 0.4279 0.45836 0.0
C443 C 0.42671 0.40323 0.34476 0.0
O444 O 0.38649 0.33603 0.39653 0.0
C445 C 0.4573 0.43865 0.47783 0.0
O446 O 0.38638 0.36258 0.44901 0.0
O447 O 0.43404 0.4263 0.48272 0.0
C448 C 0.6288 0.08969 0.50381 0.0
O449 O 0.63721 0.09953 0.46293 0.0
Cd450 Cd 0.62451 0.07121 0.39363 0.0
O451 O 0.61223 0.06729 0.50546 0.0
Cd452 Cd 0.58788 0.03607 0.44483 0.0
C453 C 0.63524 0.02765 0.43495 0.0
O454 O 0.58445 0.043 0.35704 0.0
O455 O 0.57926 0.00783 0.38325 0.0
O456 O 0.55187 0.03864 0.45976 0.0
C457 C 0.57705 0.02016 0.34927 0.0
O458 O 0.643 0.04637 0.4077 0.0
C459 C 0.53991 0.01769 0.47965 0.0
O460 O 0.61502 0.01942 0.45784 0.0
O461 O 0.55114 0.00576 0.48626 0.0
C462 C 0.19924 0.23162 0.34049 0.0
O463 O 0.19684 0.22168 0.38162 0.0
Cd464 Cd 0.21379 0.24995 0.45062 0.0
O465 O 0.20636 0.25434 0.33839 0.0
Cd466 Cd 0.21485 0.28661 0.39776 0.0
C467 C 0.26929 0.29191 0.40952 0.0
O468 O 0.20289 0.27919 0.48475 0.0
O469 O 0.23467 0.31374 0.4614 0.0
O470 O 0.17783 0.2867 0.37955 0.0
C471 C 0.21933 0.3015 0.49435 0.0
O472 O 0.25743 0.27333 0.43678 0.0
C473 C 0.18832 0.30784 0.36015 0.0
O474 O 0.25827 0.30104 0.38615 0.0
O475 O 0.21159 0.31868 0.35547 0.0
C476 C 0.74396 0.96223 0.34107 0.0
O477 O 0.75452 0.96919 0.38187 0.0
Cd478 Cd 0.72707 0.95758 0.45245 0.0
O479 O 0.7211 0.94701 0.33984 0.0
Cd480 Cd 0.69002 0.92306 0.40125 0.0
C481 C 0.68517 0.97219 0.4178 0.0
O482 O 0.69787 0.91763 0.48767 0.0
O483 O 0.66296 0.91444 0.46537 0.0
O484 O 0.69076 0.8867 0.38123 0.0
C485 C 0.6755 0.91138 0.49776 0.0
O486 O 0.7042 0.97859 0.44355 0.0
C487 C 0.66948 0.87566 0.36234 0.0
O488 O 0.67558 0.95227 0.39354 0.0
O489 O 0.65807 0.88758 0.35877 0.0
C490 C 0.01049 0.77635 0.34756 0.0
O491 O 0.00247 0.77752 0.38905 0.0
Cd492 Cd 0.01699 0.76355 0.45806 0.0
O493 O 0.02792 0.7718 0.34454 0.0
Cd494 Cd 0.05447 0.76657 0.40217 0.0
C495 C 0.00844 0.71001 0.41547 0.0
O496 O 0.05823 0.77703 0.48971 0.0
O497 O 0.06471 0.74795 0.46327 0.0
O498 O 0.08946 0.8057 0.38498 0.0
C499 C 0.06595 0.76187 0.4977 0.0
O500 O 0.00045 0.72051 0.44341 0.0
C501 C 0.10148 0.79718 0.3636 0.0
O502 O 0.02806 0.72247 0.39097 0.0
O503 O 0.09077 0.77398 0.35766 0.0
C504 C 0.33801 0.98129 0.2553 0.0
C505 C 0.31236 0.96818 0.26102 0.0
C506 C 0.35067 0.00677 0.24923 0.0
C507 C 0.338 0.01985 0.24715 0.0
H508 H 0.34838 0.97177 0.25569 0.0
H509 H 0.37051 0.0163 0.2459 0.0
S510 S 0.2708 -0.00591 0.25979 0.0
N511 N 0.27468 0.97007 0.26441 0.0
N512 N 0.29853 0.01807 0.25181 0.0
C513 C 0.31234 0.00698 0.2524 0.0
C514 C 0.29949 0.98109 0.25976 0.0
C515 C 0.00181 0.35532 0.25604 0.0
C516 C 0.01563 0.34342 0.25857 0.0
C517 C 0.97628 0.34186 0.25069 0.0
C518 C 0.96388 0.31617 0.24612 0.0
H519 H 0.01079 0.37515 0.25852 0.0
H520 H 0.96616 0.35164 0.25 0.0
S521 S -0.00811 0.27648 0.24881 0.0
N522 N 0.01532 0.30465 0.25551 0.0
N523 N 0.96723 0.2793 0.24417 0.0
C524 C 0.97754 0.30408 0.24775 0.0
C525 C 0.00348 0.31774 0.25442 0.0
C526 C 0.64543 0.63505 0.25581 0.0
C527 C 0.67105 0.65021 0.25813 0.0
C528 C 0.6299 0.64459 0.26456 0.0
C529 C 0.6395 0.66943 0.27718 0.0
H530 H 0.63736 0.61591 0.2456 0.0
H531 H 0.61027 0.63258 0.26022 0.0
S532 S 0.70538 0.71586 0.29366 0.0
N533 N 0.7054 0.6906 0.27747 0.0
N534 N 0.67622 0.7085 0.29499 0.0
C535 C 0.66508 0.68439 0.28233 0.0
C536 C 0.68088 0.6748 0.27238 0.0
C537 C 0.64063 0.97979 0.79857 0.0
C538 C 0.63335 0.96611 0.75553 0.0
C539 C 0.65345 0.00546 0.79721 0.0
C540 C 0.65995 0.01818 0.75278 0.0
H541 H 0.63609 0.97063 0.83343 0.0
H542 H 0.65866 0.01543 0.83123 0.0
S543 S 0.64594 0.99067 0.63002 0.0
N544 N 0.63374 0.96693 0.66728 0.0
N545 N 0.65856 0.01532 0.66494 0.0
C546 C 0.65315 0.00471 0.70953 0.0
C547 C 0.63961 0.97859 0.71087 0.0
C548 C -0.00049 0.63794 0.75449 0.0
C549 C 0.0127 0.66361 0.7595 0.0
C550 C 0.97401 0.62535 0.74822 0.0
C551 C 0.96105 0.63812 0.74511 0.0
H552 H 0.00897 0.62752 0.7556 0.0
H553 H 0.96438 0.60549 0.74559 0.0
S554 S 0.98719 0.70545 0.7551 0.0
N555 N 0.0111 0.70144 0.76082 0.0
N556 N 0.9631 0.67774 0.74775 0.0
C557 C 0.97405 0.66381 0.74948 0.0
C558 C -7e-05 0.67659 0.75711 0.0
C559 C 0.31597 0.30774 0.75209 0.0
C560 C 0.34177 0.32043 0.74996 0.0
C561 C 0.30315 0.32041 0.75864 0.0
C562 C 0.31576 0.34616 0.7622 0.0
H563 H 0.30567 0.28787 0.74997 0.0
H564 H 0.28325 0.31004 0.75972 0.0
S565 S 0.38324 0.38782 0.75804 0.0
N566 N 0.37947 0.36001 0.75209 0.0
N567 N 0.35532 0.38391 0.76283 0.0
C568 C 0.34152 0.35904 0.7596 0.0
C569 C 0.35456 0.34614 0.75389 0.0
C570 C 0.01726 0.33605 0.59067 0.0
C571 C 0.00423 0.34867 0.58528 0.0
C572 C 0.00487 0.31055 0.59633 0.0
C573 C 0.97909 0.29696 0.59834 0.0
H574 H 0.03717 0.34597 0.59024 0.0
H575 H 0.01553 0.30139 0.59928 0.0
S576 S 0.93654 0.32142 0.58707 0.0
N577 N 0.96424 0.34585 0.58253 0.0
N578 N 0.94088 0.2978 0.59439 0.0
C579 C 0.96584 0.30936 0.59365 0.0
C580 C 0.97844 0.33528 0.58669 0.0
C581 C 0.6407 0.65462 0.63236 0.0
C582 C 0.62847 0.64833 0.58733 0.0
C583 C 0.66637 0.66766 0.63499 0.0
C584 C 0.68057 0.67538 0.59266 0.0
H585 H 0.63033 0.64933 0.66589 0.0
H586 H 0.67512 0.67227 0.67028 0.0
S587 S 0.6575 0.66293 0.46598 0.0
N588 N 0.63241 0.64996 0.49967 0.0
N589 N 0.68079 0.67518 0.50439 0.0
C590 C 0.6686 0.66899 0.54739 0.0
C591 C 0.64248 0.65523 0.54476 0.0
C592 C 0.31069 -0.00533 0.63045 0.0
C593 C 0.30371 0.00127 0.58728 0.0
C594 C 0.3231 0.98143 0.6293 0.0
C595 C 0.32949 0.97502 0.58497 0.0
H596 H 0.30612 -0.00066 0.66523 0.0
H597 H 0.328 0.97644 0.66339 0.0
S598 S 0.31633 0.98909 0.46198 0.0
N599 N 0.30441 0.00097 0.49905 0.0
N600 N 0.32845 0.97666 0.4971 0.0
C601 C 0.32311 0.982 0.54161 0.0
C602 C 0.30998 -0.00502 0.54273 0.0
C603 C 0.32018 0.33858 0.04744 0.0
C604 C 0.32739 0.3519 0.09088 0.0
C605 C 0.30663 0.31291 0.04801 0.0
C606 C 0.30046 0.29982 0.09201 0.0
H607 H 0.32464 0.34804 0.01289 0.0
H608 H 0.30121 0.30325 0.0137 0.0
S609 S 0.3161 0.32631 0.21555 0.0
N610 N 0.32792 0.35035 0.17905 0.0
N611 N 0.30299 0.30196 0.17989 0.0
C612 C 0.30803 0.31292 0.13565 0.0
C613 C 0.32135 0.33905 0.13514 0.0
C614 C 0.64234 0.98116 0.12584 0.0
C615 C 0.62914 0.97585 0.08201 0.0
C616 C 0.66803 -0.00623 0.12618 0.0
C617 C 0.68124 0.00087 0.08263 0.0
H618 H 0.63273 0.97565 0.1602 0.0
H619 H 0.67757 -0.00258 0.16058 0.0
S620 S 0.65542 -0.00803 0.95839 0.0
N621 N 0.63112 0.97936 0.99423 0.0
N622 N 0.67954 0.0025 0.99462 0.0
C623 C 0.66831 -0.00412 0.03857 0.0
C624 C 0.64217 0.98353 0.03831 0.0
C625 C 0.00667 0.68679 0.09178 0.0
C626 C 0.9809 0.67403 0.09498 0.0
C627 C 0.01955 0.67418 0.08632 0.0
C628 C 0.00701 0.64847 0.08229 0.0
H629 H 0.01693 0.70668 0.09357 0.0
H630 H 0.03945 0.6846 0.0849 0.0
S631 S 0.93961 0.60657 0.08809 0.0
N632 N 0.94326 0.63434 0.09402 0.0
N633 N 0.96755 0.61059 0.08249 0.0
C634 C 0.98125 0.63548 0.08508 0.0
C635 C 0.96816 0.64829 0.09187 0.0
C636 C 0.64917 0.64722 0.96426 0.0
C637 C 0.64333 0.63381 0.92096 0.0
C638 C 0.66224 0.67288 0.9635 0.0
C639 C 0.66924 0.68587 0.91941 0.0
H640 H 0.64422 0.63784 0.9989 0.0
H641 H 0.66684 0.68264 0.99773 0.0
S642 S 0.65681 0.65911 0.79606 0.0
N643 N 0.64467 0.63513 0.83276 0.0
N644 N 0.6686 0.68357 0.83151 0.0
C645 C 0.66277 0.67269 0.87583 0.0
C646 C 0.64999 0.64654 0.87658 0.0
C647 C 0.3347 0.0016 0.95661 0.0
C648 C 0.34817 0.00813 0.91335 0.0
C649 C 0.30902 0.98853 0.9557 0.0
C650 C 0.29606 0.98105 0.91156 0.0
H651 H 0.34404 0.00723 0.99125 0.0
H652 H 0.29923 0.98423 0.98986 0.0
S653 S 0.32301 -0.00784 0.78846 0.0
N654 N 0.34694 0.00545 0.82524 0.0
N655 N 0.29851 0.98018 0.82378 0.0
C656 C 0.30932 0.98669 0.86813 0.0
C657 C 0.33547 0.00047 0.86897 0.0
C658 C -0.01073 0.31293 0.88325 0.0
C659 C -0.00345 0.30687 0.92666 0.0
C660 C 0.97568 0.32498 0.8839 0.0
C661 C 0.96953 0.3319 0.92792 0.0
H662 H -0.00638 0.30786 0.84868 0.0
H663 H 0.9701 0.32909 0.84962 0.0
S664 S 0.98551 0.32134 0.05136 0.0
N665 N -0.00269 0.30913 0.01482 0.0
N666 N 0.97228 0.33248 0.01577 0.0
C667 C 0.97727 0.32653 0.97151 0.0
C668 C -0.00936 0.31378 0.97094 0.0
C669 C 0.96982 0.66987 0.41757 0.0
C670 C -0.00441 0.6831 0.41527 0.0
C671 C 0.95706 0.6443 0.42171 0.0
C672 C 0.96971 0.63123 0.42523 0.0
H673 H 0.95944 0.67936 0.41594 0.0
H674 H 0.93715 0.63469 0.42236 0.0
S675 S 0.03723 0.65741 0.42206 0.0
N676 N 0.0334 0.68145 0.41701 0.0
N677 N 0.00933 0.63322 0.42606 0.0
C678 C -0.00451 0.64424 0.42361 0.0
C679 C 0.00848 0.67026 0.41817 0.0
C680 C 0.30977 0.33022 0.41396 0.0
C681 C 0.29622 0.3045 0.41014 0.0
C682 C 0.33526 0.34251 0.4206 0.0
C683 C 0.34798 0.32946 0.42252 0.0
H684 H 0.30054 0.34086 0.41314 0.0
H685 H 0.34513 0.36237 0.42313 0.0
S686 S 0.32092 0.26199 0.41324 0.0
N687 N 0.29719 0.26637 0.40878 0.0
N688 N 0.34533 0.28958 0.41948 0.0
C689 C 0.33467 0.30377 0.41804 0.0
C690 C 0.3087 0.29125 0.41234 0.0
C691 C 0.64711 0.9748 0.4234 0.0
C692 C 0.67287 0.98676 0.42067 0.0
C693 C 0.63505 0.98815 0.43074 0.0
C694 C 0.64838 0.01388 0.43453 0.0
H695 H 0.63623 0.95497 0.42077 0.0
H696 H 0.61514 0.97833 0.43193 0.0
S697 S 0.7161 0.05378 0.42983 0.0
N698 N 0.71136 0.02564 0.42313 0.0
N699 N 0.68859 0.05083 0.43532 0.0
C700 C 0.67413 0.02603 0.43179 0.0
C701 C 0.68641 0.01243 0.42529 0.0
C702 C 0.33519 0.09543 0.46316 0.0
C703 C 0.30931 0.08386 0.46661 0.0
C704 C 0.34725 0.1018 0.41826 0.0
C705 C 0.33385 0.09662 0.37504 0.0
H706 H 0.34629 0.09885 0.49542 0.0
H707 H 0.36699 0.1095 0.41734 0.0
S708 S 0.2662 0.06984 0.36412 0.0
N709 N 0.27105 0.06996 0.42297 0.0
N710 N 0.29354 0.08184 0.33845 0.0
C711 C 0.30813 0.08661 0.37806 0.0
C712 C 0.29589 0.08028 0.42385 0.0
C713 C 0.90889 0.21616 0.42455 0.0
C714 C 0.90014 0.22066 0.46775 0.0
C715 C 0.90336 0.22277 0.37974 0.0
C716 C 0.88867 0.23392 0.37639 0.0
H717 H 0.92118 0.20877 0.42545 0.0
H718 H 0.91138 0.21982 0.34753 0.0
S719 S 0.85829 0.24621 0.4788 0.0
N720 N 0.87384 0.23443 0.50436 0.0
N721 N 0.86349 0.24675 0.42003 0.0
C722 C 0.8784 0.23689 0.41909 0.0
C723 C 0.88414 0.23031 0.46478 0.0
C724 C 0.76774 0.69104 0.43291 0.0
C725 C 0.76201 0.67682 0.47508 0.0
C726 C 0.76216 0.67987 0.38713 0.0
C727 C 0.75078 0.6541 0.38183 0.0
H728 H 0.77524 0.71071 0.43529 0.0
H729 H 0.76597 0.69156 0.35571 0.0
S730 S 0.73579 0.60918 0.48122 0.0
N731 N 0.74713 0.63598 0.50885 0.0
N732 N 0.73666 0.6151 0.42273 0.0
C733 C 0.74667 0.6399 0.42363 0.0
C734 C 0.75227 0.65125 0.47027 0.0
C735 C 0.08005 0.31491 0.13088 0.0
C736 C 0.09334 0.34087 0.13296 0.0
C737 C 0.07437 0.30227 0.08662 0.0
C738 C 0.08161 0.31513 0.04272 0.0
H739 H 0.0731 0.30414 0.16371 0.0
H740 H 0.06302 0.28244 0.08678 0.0
S741 S 0.11986 0.38286 0.02814 0.0
N742 N 0.11588 0.37873 0.08727 0.0
N743 N 0.10529 0.35513 1.00393 0.0
C744 C 0.09641 0.34099 0.04433 0.0
C745 C 0.10229 0.35383 0.08948 0.0
C746 C 0.66446 0.75659 0.13702 0.0
C747 C 0.63853 0.74462 0.13962 0.0
C748 C 0.67693 0.76411 0.09267 0.0
C749 C 0.66393 0.75977 0.04913 0.0
H750 H 0.67533 0.75959 0.16946 0.0
H751 H 0.69673 0.77219 0.09234 0.0
S752 S 0.59628 0.73216 0.03617 0.0
N753 N 0.60059 0.73105 0.09494 0.0
N754 N 0.62389 0.7451 0.01145 0.0
C755 C 0.63813 0.74918 0.05135 0.0
C756 C 0.62546 0.74164 0.0966 0.0
C757 C 0.21973 0.90365 0.12769 0.0
C758 C 0.23206 0.89012 0.13207 0.0
C759 C 0.21324 0.90877 0.08238 0.0
C760 C 0.21902 0.90075 0.03963 0.0
H761 H 0.21575 0.91112 0.15954 0.0
H762 H 0.20487 0.92019 0.0808 0.0
S763 S 0.24803 0.86186 0.03117 0.0
N764 N 0.24743 0.86671 0.08984 0.0
N765 N 0.23532 0.87626 1.0045 0.0
C766 C 0.22987 0.88584 0.04356 0.0
C767 C 0.23634 0.88051 0.0898 0.0
C768 C 0.62573 0.88259 0.59361 0.0
C769 C 0.63919 0.88802 0.63679 0.0
C770 C 0.63776 0.88914 0.54868 0.0
C771 C 0.66366 0.90116 0.5452 0.0
H772 H 0.60596 0.87464 0.59458 0.0
H773 H 0.62661 0.88557 0.51645 0.0
S774 S 0.70694 0.91584 0.64762 0.0
N775 N 0.67958 0.90343 0.67334 0.0
N776 N 0.70204 0.91562 0.58876 0.0
C777 C 0.67716 0.9049 0.58792 0.0
C778 C 0.66494 0.8984 0.63374 0.0
C779 C 0.08874 0.74651 0.54718 0.0
C780 C 0.07561 0.75931 0.54506 0.0
C781 C 0.09503 0.74022 0.59151 0.0
C782 C 0.08825 0.74632 0.63541 0.0
H783 H 0.09348 0.74047 0.51423 0.0
H784 H 0.10406 0.72938 0.59127 0.0
S785 S 0.05682 0.78271 0.65014 0.0
N786 N 0.05835 0.78001 0.5909 0.0
N787 N 0.07014 0.76833 0.67436 0.0
C788 C 0.0766 0.76056 0.63389 0.0
C789 C 0.07031 0.76706 0.5887 0.0
C790 C 0.23587 0.33952 0.54469 0.0
C791 C 0.22142 0.31365 0.54162 0.0
C792 C 0.24134 0.35178 0.58936 0.0
C793 C 0.23277 0.33861 0.63271 0.0
H794 H 0.24378 0.35045 0.51236 0.0
H795 H 0.25348 0.37151 0.59004 0.0
S796 S 0.19145 0.27111 0.64446 0.0
N797 N 0.19656 0.27565 0.58564 0.0
N798 N 0.20682 0.29854 0.66975 0.0
C799 C 0.21696 0.31291 0.63002 0.0
C800 C 0.21126 0.30046 0.58445 0.0
C801 C 0.88764 0.64392 0.95966 0.0
C802 C 0.90069 0.66985 0.96252 0.0
C803 C 0.88073 0.63166 0.91502 0.0
C804 C 0.88682 0.64489 0.87152 0.0
H805 H 0.88339 0.63289 0.99222 0.0
H806 H 0.87179 0.61179 0.91456 0.0
S807 S 0.91788 0.71284 0.85904 0.0
N808 N 0.91719 0.70817 0.91805 0.0
N809 N 0.9043 0.6853 0.83395 0.0
C810 C 0.89844 0.67078 0.87391 0.0
C811 C 0.90532 0.68323 0.91945 0.0
C812 C 0.29469 0.21811 0.92401 0.0
C813 C 0.30735 0.2231 0.96809 0.0
C814 C 0.30751 0.225 0.87996 0.0
C815 C 0.33347 0.23696 0.87831 0.0
H816 H 0.27491 0.21018 0.92358 0.0
H817 H 0.29694 0.22169 0.84698 0.0
S818 S 0.37484 0.25054 0.98371 0.0
N819 N 0.34704 0.23802 0.00748 0.0
N820 N 0.37102 0.2509 0.92456 0.0
C821 C 0.34617 0.24032 0.92196 0.0
C822 C 0.33313 0.23344 0.96687 0.0
C823 C 0.75649 0.07824 0.87599 0.0
C824 C 0.74609 0.09363 0.87423 0.0
C825 C 0.76358 0.07241 0.91993 0.0
C826 C 0.76036 0.08161 0.96383 0.0
H827 H 0.75835 0.0698 0.84326 0.0
H828 H 0.77017 0.05945 0.91973 0.0
S829 S 0.7376 0.12556 0.97879 0.0
N830 N 0.73565 0.12011 0.91994 0.0
N831 N 0.74891 0.10922 1.00266 0.0
C832 C 0.75169 0.09843 0.96233 0.0
C833 C 0.74459 0.10445 0.91752 0.0
C834 C 0.01041 0.43085 0.75325 0.0
C835 C -0.00276 0.42527 0.7097 0.0
C836 C -0.00192 0.42427 0.79785 0.0
C837 C 0.97214 0.41205 0.8006 0.0
H838 H 0.03022 0.43902 0.75287 0.0
H839 H 0.00904 0.42803 0.83041 0.0
S840 S 0.9295 0.39689 0.69688 0.0
N841 N 0.95704 0.40949 0.67195 0.0
N842 N 0.93402 0.39719 0.7559 0.0
C843 C 0.95891 0.40808 0.75746 0.0
C844 C 0.97143 0.41465 0.71198 0.0
C845 C 0.55066 0.56655 0.79522 0.0
C846 C 0.56367 0.55368 0.79899 0.0
C847 C 0.54402 0.57173 0.75019 0.0
C848 C 0.55029 0.56436 0.7072 0.0
H849 H 0.5464 0.57362 0.82732 0.0
H850 H 0.53528 0.58281 0.74904 0.0
S851 S 0.58063 0.52675 0.69719 0.0
N852 N 0.57987 0.53119 0.756 0.0
N853 N 0.56737 0.54078 0.67108 0.0
C854 C 0.56157 0.54982 0.7105 0.0
C855 C 0.56823 0.54447 0.75647 0.0
C856 C 0.43181 0.01991 0.75345 0.0
C857 C 0.42786 0.00708 0.79706 0.0
C858 C 0.42473 0.00732 0.70915 0.0
C859 C 0.41357 0.98145 0.70676 0.0
H860 H 0.43898 0.03957 0.7537 0.0
H861 H 0.42716 0.01797 0.67665 0.0
S862 S 0.40305 0.93989 0.81038 0.0
N863 N 0.41497 0.96746 0.83496 0.0
N864 N 0.40167 0.94392 0.75157 0.0
C865 C 0.41136 0.96866 0.74977 0.0
C866 C 0.41848 0.98146 0.79495 0.0
C867 C 0.56863 0.00832 0.21425 0.0
C868 C 0.55417 0.98243 0.21162 0.0
C869 C 0.57472 0.02074 0.25878 0.0
C870 C 0.56676 0.00772 0.30242 0.0
H871 H 0.57607 0.01914 0.18162 0.0
H872 H 0.5868 0.04048 0.25905 0.0
S873 S 0.5257 0.94024 0.31553 0.0
N874 N 0.53 0.94458 0.2565 0.0
N875 N 0.54137 0.96776 0.34034 0.0
C876 C 0.55096 0.982 0.30025 0.0
C877 C 0.54465 0.96939 0.25484 0.0
C878 C 0.00031 0.56789 0.29433 0.0
C879 C 0.97434 0.55445 0.29629 0.0
C880 C 0.01299 0.57363 0.25013 0.0
C881 C 0.00015 0.5663 0.20619 0.0
H882 H 0.01104 0.57487 0.32722 0.0
H883 H 0.03283 0.58503 0.25034 0.0
S884 S 0.93241 0.5278 0.19129 0.0
N885 N 0.9365 0.53179 0.25043 0.0
N886 N 0.96017 0.54247 0.16722 0.0
C887 C 0.97428 0.55141 0.20769 0.0
C888 C 0.96141 0.54548 0.25275 0.0
C889 C 0.42311 0.4127 0.21046 0.0
C890 C 0.41199 0.42746 0.209 0.0
C891 C 0.42968 0.40633 0.25441 0.0
C892 C 0.4252 0.41434 0.29855 0.0
H893 H 0.4259 0.40512 0.17741 0.0
H894 H 0.43686 0.39386 0.25387 0.0
S895 S 0.40029 0.45645 0.31467 0.0
N896 N 0.39959 0.4522 0.25549 0.0
N897 N 0.4119 0.44031 0.33822 0.0
C898 C 0.41585 0.4306 0.29751 0.0
C899 C 0.40929 0.43718 0.25271 0.0
C900 C 0.29612 0.15038 0.15943 0.0
C901 C 0.30908 0.17606 0.16532 0.0
C902 C 0.30726 0.13637 0.16858 0.0
C903 C 0.33182 0.14747 0.18405 0.0
H904 H 0.2772 0.14093 0.14715 0.0
H905 H 0.29643 0.11665 0.16374 0.0
S906 S 0.37392 0.21415 0.20513 0.0
N907 N 0.34784 0.21209 0.18769 0.0
N908 N 0.36888 0.18576 0.20502 0.0
C909 C 0.34503 0.17315 0.19033 0.0
C910 C 0.33363 0.18744 0.18105 0.0
C911 C 0.80022 0.14278 0.17783 0.0
C912 C 0.8109 0.12932 0.1603 0.0
C913 C 0.81456 0.16785 0.18783 0.0
C914 C 0.84017 0.18047 0.18074 0.0
H915 H 0.78054 0.13402 0.1833 0.0
H916 H 0.80539 0.17735 0.20133 0.0
S917 S 0.87732 0.15356 0.13651 0.0
N918 N 0.84881 0.13037 0.13697 0.0
N919 N 0.87575 0.17756 0.15585 0.0
C920 C 0.85118 0.16723 0.16356 0.0
C921 C 0.83656 0.14164 0.15342 0.0
C922 C 0.80932 0.66994 0.15268 0.0
C923 C 0.79463 0.64586 0.16995 0.0
C924 C 0.83431 0.67952 0.14374 0.0
C925 C 0.84569 0.66543 0.1516 0.0
H926 H 0.80165 0.6818 0.14712 0.0
H927 H 0.8448 0.69828 0.13089 0.0
S928 S 0.81509 0.60072 0.19366 0.0
N929 N 0.79299 0.60762 0.19255 0.0
N930 N 0.84014 0.62572 0.17549 0.0
C931 C 0.83113 0.64107 0.16762 0.0
C932 C 0.80556 0.63124 0.17671 0.0
C933 C 0.13406 0.31751 0.34404 0.0
C934 C 0.14491 0.3419 0.32779 0.0
C935 C 0.14827 0.30661 0.3534 0.0
C936 C 0.17393 0.31966 0.34697 0.0
H937 H 0.11435 0.30655 0.34904 0.0
H938 H 0.13897 0.28776 0.36594 0.0
S939 S 0.21149 0.38433 0.3061 0.0
N940 N 0.18299 0.37904 0.30631 0.0
N941 N 0.20972 0.35847 0.32405 0.0
C942 C 0.1851 0.34414 0.33102 0.0
C943 C 0.1706 0.35529 0.32149 0.0
C944 C 0.67152 0.83731 0.35595 0.0
C945 C 0.65814 0.84951 0.34883 0.0
C946 C 0.66101 0.8122 0.34693 0.0
C947 C 0.63671 0.79826 0.33025 0.0
H948 H 0.69029 0.84714 0.36902 0.0
H949 H 0.67217 0.80376 0.35271 0.0
S950 S 0.59369 0.82134 0.30581 0.0
N951 N 0.61924 0.84575 0.3242 0.0
N952 N 0.5994 0.79843 0.30697 0.0
C953 C 0.62305 0.81018 0.32286 0.0
C954 C 0.6338 0.83583 0.33213 0.0
C955 C 0.14121 0.80294 0.33268 0.0
C956 C 0.12744 0.81336 0.34984 0.0
C957 C 0.16625 0.81755 0.32267 0.0
C958 C 0.17854 0.84317 0.32934 0.0
H959 H 0.1327 0.78329 0.3274 0.0
H960 H 0.17599 0.80858 0.30941 0.0
S961 S 0.15074 0.87966 0.3727 0.0
N962 N 0.12783 0.851 0.37256 0.0
N963 N 0.17499 0.87845 0.35362 0.0
C964 C 0.165 0.8539 0.34627 0.0
C965 C 0.13942 0.83901 0.35647 0.0
C966 C 0.63083 0.81788 0.82973 0.0
C967 C 0.64382 0.84355 0.83591 0.0
C968 C 0.64178 0.80376 0.83952 0.0
C969 C 0.66616 0.81471 0.85602 0.0
H970 H 0.61202 0.80851 0.81681 0.0
H971 H 0.63091 0.78406 0.83452 0.0
S972 S 0.70831 0.88131 0.87793 0.0
N973 N 0.68246 0.87943 0.85938 0.0
N974 N 0.70313 0.85287 0.87798 0.0
C975 C 0.67943 0.84039 0.86242 0.0
C976 C 0.66823 0.8548 0.85241 0.0
C977 C 0.16327 0.80998 0.82149 0.0
C978 C 0.13758 0.79759 0.8275 0.0
C979 C 0.17763 0.83521 0.82999 0.0
C980 C 0.16688 0.84905 0.84485 0.0
H981 H 0.17245 0.80017 0.80995 0.0
H982 H 0.19734 0.8438 0.82545 0.0
S983 S 0.10028 0.82554 0.86461 0.0
N984 N 0.1019 0.80114 0.84838 0.0
N985 N 0.12886 0.84861 0.8644 0.0
C986 C 0.14117 0.83695 0.85069 0.0
C987 C 0.12654 0.8112 0.84211 0.0
C988 C 0.14156 0.30294 0.84985 0.0
C989 C 0.12894 0.31596 0.84363 0.0
C990 C 0.16669 0.31388 0.8403 0.0
C991 C 0.18022 0.33828 0.82407 0.0
H992 H 0.13206 0.28415 0.86276 0.0
H993 H 0.17549 0.30301 0.84549 0.0
S994 S 0.15586 0.3804 0.80152 0.0
N995 N 0.13181 0.35457 0.81991 0.0
N996 N 0.17913 0.37522 0.8018 0.0
C997 C 0.16783 0.35153 0.81734 0.0
C998 C 0.14217 0.34034 0.82705 0.0
C999 C 0.81106 0.63593 0.68767 0.0
C1000 C 0.83682 0.64933 0.68333 0.0
C1001 C 0.79694 0.64721 0.68118 0.0
C1002 C 0.80803 0.67235 0.67016 0.0
H1003 H 0.80162 0.61651 0.69617 0.0
H1004 H 0.77714 0.636 0.68405 0.0
S1005 S 0.87501 0.71595 0.65705 0.0
N1006 N 0.87297 0.68927 0.66878 0.0
N1007 N 0.84648 0.71056 0.65665 0.0
C1008 C 0.83384 0.68608 0.66637 0.0
C1009 C 0.84822 0.67454 0.67282 0.0
C1010 C 0.31072 0.17187 0.66938 0.0
C1011 C 0.33514 0.18561 0.68551 0.0
C1012 C 0.3 0.14677 0.6598 0.0
C1013 C 0.31328 0.13439 0.66586 0.0
H1014 H 0.29964 0.18047 0.66448 0.0
H1015 H 0.28116 0.13708 0.64714 0.0
S1016 S 0.37799 0.16201 0.70699 0.0
N1017 N 0.37246 0.18504 0.70701 0.0
N1018 N 0.35223 0.13778 0.68886 0.0
C1019 C 0.33773 0.14787 0.68203 0.0
C1020 C 0.34869 0.1735 0.69179 0.0
C1021 C 0.83267 0.17975 0.67356 0.0
C1022 C 0.8459 0.1686 0.65721 0.0
C1023 C 0.80747 0.16587 0.68251 0.0
C1024 C 0.79445 0.14025 0.67559 0.0
H1025 H 0.84178 0.19941 0.67935 0.0
H1026 H 0.79822 0.17536 0.69558 0.0
S1027 S 0.82045 0.1021 0.63259 0.0
N1028 N 0.8441 0.13036 0.63383 0.0
N1029 N 0.79661 0.10425 0.65087 0.0
C1030 C 0.80737 0.12883 0.65879 0.0
C1031 C 0.83312 0.143 0.64965 0.0
C1032 C 0.0074 0.49834 0.51876 0.0
C1033 C -0.00598 0.47264 0.5133 0.0
C1034 C -0.0032 0.51274 0.50843 0.0
C1035 C 0.9724 0.50203 0.49215 0.0
H1036 H 0.02626 0.50753 0.53131 0.0
H1037 H 0.00798 0.53246 0.51272 0.0
S1038 S 0.92918 0.43542 0.47292 0.0
N1039 N 0.9549 0.43697 0.49131 0.0
N1040 N 0.9349 0.46404 0.47176 0.0
C1041 C 0.9587 0.47631 0.48677 0.0
C1042 C 0.96954 0.46162 0.49728 0.0
C1043 C 0.51177 0.50253 0.49495 0.0
C1044 C 0.50083 0.51628 0.50915 0.0
C1045 C 0.49751 0.47734 0.48587 0.0
C1046 C 0.47176 0.46493 0.49061 0.0
H1047 H 0.53155 0.51113 0.49163 0.0
H1048 H 0.50685 0.46757 0.47506 0.0
S1049 S 0.43397 0.49278 0.52474 0.0
N1050 N 0.46256 0.51583 0.52607 0.0
N1051 N 0.4358 0.46844 0.50902 0.0
C1052 C 0.46052 0.47851 0.5042 0.0
C1053 C 0.47504 0.5042 0.51336 0.0
C1054 C 0.50005 0.98241 0.50676 0.0
C1055 C 0.51355 0.0069 0.49107 0.0
C1056 C 0.47481 0.9712 0.51524 0.0
C1057 C 0.46204 0.98404 0.50845 0.0
H1058 H 0.50897 0.97167 0.51235 0.0
H1059 H 0.46533 0.95235 0.5278 0.0
S1060 S 0.48884 0.04862 0.46734 0.0
N1061 N 0.51229 0.04373 0.46866 0.0
N1062 N 0.46475 0.02258 0.48474 0.0
C1063 C 0.47525 0.00851 0.49238 0.0
C1064 C 0.50102 0.01997 0.48376 0.0
C1065 C 0.46579 0.98461 0.01096 0.0
C1066 C 0.47682 0.00917 0.99572 0.0
C1067 C 0.47993 0.97366 0.02078 0.0
C1068 C 0.50567 0.98684 0.0158 0.0
H1069 H 0.44602 0.97353 0.01463 0.0
H1070 H 0.47051 0.95466 0.03241 0.0
S1071 S 0.54369 0.05205 0.97859 0.0
N1072 N 0.51516 0.04667 0.9772 0.0
N1073 N 0.54173 0.026 0.99573 0.0
C1074 C 0.51701 0.01152 1.00103 0.0
C1075 C 0.5026 0.02272 0.99109 0.0
C1076 C 0.00906 0.50175 0.01906 0.0
C1077 C -0.00379 0.51458 0.0135 0.0
C1078 C -0.00237 0.47649 0.01062 0.0
C1079 C 0.97289 0.46304 0.99625 0.0
H1080 H 0.02816 0.51125 0.03018 0.0
H1081 H 0.00844 0.46755 0.01475 0.0
S1082 S 0.93076 0.48776 0.97803 0.0
N1083 N 0.95719 0.51185 0.99374 0.0
N1084 N 0.93563 0.46431 0.97782 0.0
C1085 C 0.9597 0.47557 0.99096 0.0
C1086 C 0.97139 0.50135 0.99948 0.0
C1087 C 0.47361 0.50132 0.01943 0.0
C1088 C 0.46099 0.47576 0.01177 0.0
C1089 C 0.49876 0.51568 0.01021 0.0
C1090 C 0.51233 0.50506 0.99293 0.0
H1091 H 0.46408 0.51042 0.03316 0.0
H1092 H 0.50755 0.53529 0.01649 0.0
S1093 S 0.48795 0.4389 0.96619 0.0
N1094 N 0.46389 0.44039 0.98543 0.0
N1095 N 0.51124 0.46735 0.96796 0.0
C1096 C 0.49994 0.4795 0.98483 0.0
C1097 C 0.47425 0.46486 0.99416 0.0
C1098 C 0.44726 0.09814 0.07771 0.0
C1099 C 0.43884 0.10251 0.03349 0.0
C1100 C 0.44122 0.10449 0.12238 0.0
C1101 C 0.42608 0.115 0.12455 0.0
H1102 H 0.45736 0.08836 0.078 0.0
H1103 H 0.44671 0.09921 0.15539 0.0
S1104 S 0.40239 0.13372 0.0194 0.0
N1105 N 0.41728 0.12101 0.99477 0.0
N1106 N 0.40545 0.13239 0.07861 0.0
C1107 C 0.4193 0.12137 0.08059 0.0
C1108 C 0.42583 0.11531 0.03507 0.0
C1109 C 0.86123 0.29408 0.08682 0.0
C1110 C 0.86623 0.30698 0.13102 0.0
C1111 C 0.86631 0.30632 0.04205 0.0
C1112 C 0.87704 0.332 0.03985 0.0
H1113 H 0.85482 0.27456 0.08681 0.0
H1114 H 0.8639 0.29585 0.00928 0.0
S1115 S 0.88997 0.37384 0.14443 0.0
N1116 N 0.87931 0.34646 0.16927 0.0
N1117 N 0.88941 0.3695 0.08529 0.0
C1118 C 0.88002 0.34479 0.08351 0.0
C1119 C 0.87445 0.33227 0.12907 0.0
C1120 C 0.66714 0.55052 0.04984 0.0
C1121 C 0.64238 0.54478 0.04925 0.0
C1122 C 0.68123 0.55858 0.09264 0.0
C1123 C 0.67102 0.56114 0.13608 0.0
H1124 H 0.67623 0.55068 0.01641 0.0
H1125 H 0.7007 0.56483 0.09072 0.0
S1126 S 0.60625 0.5442 0.15645 0.0
N1127 N 0.60748 0.53855 0.09838 0.0
N1128 N 0.63429 0.55448 0.17766 0.0
C1129 C 0.64591 0.55338 0.13701 0.0
C1130 C 0.63149 0.54491 0.09392 0.0
C1131 C 0.1144 0.42824 0.42127 0.0
C1132 C 0.10782 0.43463 0.37705 0.0
C1133 C 0.10786 0.43402 0.46601 0.0
C1134 C 0.09401 0.44592 0.46811 0.0
H1135 H 0.12333 0.41731 0.4213 0.0
H1136 H 0.1118 0.42718 0.49885 0.0
S1137 S 0.07529 0.46982 0.36336 0.0
N1138 N 0.08943 0.45636 0.33862 0.0
N1139 N 0.07657 0.4666 0.42253 0.0
C1140 C 0.08913 0.45423 0.4244 0.0
C1141 C 0.09621 0.44878 0.37889 0.0
C1142 C 0.5445 0.66985 0.47174 0.0
C1143 C 0.5311 0.64408 0.47412 0.0
C1144 C 0.55054 0.68202 0.42686 0.0
C1145 C 0.5431 0.66888 0.3828 0.0
H1146 H 0.55238 0.68059 0.50432 0.0
H1147 H 0.56265 0.70175 0.42662 0.0
S1148 S 0.50312 0.60141 0.37033 0.0
N1149 N 0.50727 0.60604 0.42934 0.0
N1150 N 0.51821 0.62888 0.34512 0.0
C1151 C 0.52721 0.64332 0.3851 0.0
C1152 C 0.52136 0.63093 0.43076 0.0
C1153 C 0.34426 0.88892 0.42671 0.0
C1154 C 0.33153 0.88412 0.47108 0.0
C1155 C 0.33174 0.88273 0.38215 0.0
C1156 C 0.30603 0.87196 0.38027 0.0
H1157 H 0.36417 0.89901 0.42628 0.0
H1158 H 0.34245 0.88841 0.34908 0.0
S1159 S 0.2638 0.85192 0.4858 0.0
N1160 N 0.29151 0.86481 0.51016 0.0
N1161 N 0.26805 0.8537 0.42654 0.0
C1162 C 0.29297 0.86505 0.42431 0.0
C1163 C 0.30569 0.87096 0.4697 0.0
C1164 C 0.55136 0.86644 0.92333 0.0
C1165 C 0.54472 0.87277 0.87906 0.0
C1166 C 0.54524 0.87264 0.96808 0.0
C1167 C 0.53264 0.88582 0.97025 0.0
H1168 H 0.56278 0.85805 0.92342 0.0
H1169 H 0.55236 0.869 1.00088 0.0
S1170 S 0.50743 0.9031 0.86546 0.0
N1171 N 0.52178 0.88987 0.8407 0.0
N1172 N 0.51076 0.90196 0.92462 0.0
C1173 C 0.52392 0.89022 0.9265 0.0
C1174 C 0.52981 0.88355 0.88095 0.0
C1175 C 0.09046 0.63093 0.92087 0.0
C1176 C 0.09699 0.64372 0.96531 0.0
C1177 C 0.09677 0.64347 0.87635 0.0
C1178 C 0.10938 0.66928 0.8747 0.0
H1179 H 0.07898 0.61111 0.92047 0.0
H1180 H 0.08977 0.63288 0.84332 0.0
S1181 S 0.13405 0.71134 0.98018 0.0
N1182 N 0.11971 0.68362 1.00445 0.0
N1183 N 0.13095 0.70714 0.92093 0.0
C1184 C 0.11789 0.68221 0.91864 0.0
C1185 C 0.11189 0.66944 0.96393 0.0
C1186 C 0.2942 0.42477 0.92498 0.0
C1187 C 0.30711 0.43288 0.88083 0.0
C1188 C 0.3065 0.43141 0.96979 0.0
C1189 C 0.33224 0.44598 0.97203 0.0
H1190 H 0.27459 0.41194 0.92483 0.0
H1191 H 0.29599 0.42326 1.00248 0.0
S1192 S 0.37424 0.47487 0.86771 0.0
N1193 N 0.34676 0.45886 0.84279 0.0
N1194 N 0.3699 0.47074 0.92678 0.0
C1195 C 0.3451 0.45587 0.92849 0.0
C1196 C 0.33253 0.44951 0.88292 0.0
C1197 C 0.85951 0.55621 0.58305 0.0
C1198 C 0.86537 0.54915 0.62733 0.0
C1199 C 0.86536 0.54969 0.53836 0.0
C1200 C 0.87777 0.53632 0.53639 0.0
H1201 H 0.85177 0.5682 0.58293 0.0
H1202 H 0.86213 0.55706 0.50547 0.0
S1203 S 0.8939 0.51022 0.64125 0.0
N1204 N 0.88134 0.52525 0.66589 0.0
N1205 N 0.89293 0.51362 0.58207 0.0
C1206 C 0.8818 0.52737 0.58013 0.0
C1207 C 0.87541 0.53359 0.62558 0.0
C1208 C 0.4237 0.29996 0.59122 0.0
C1209 C 0.43015 0.31318 0.63515 0.0
C1210 C 0.43042 0.31204 0.54624 0.0
C1211 C 0.44333 0.33784 0.54358 0.0
H1212 H 0.41205 0.28015 0.59153 0.0
H1213 H 0.42354 0.30116 0.51351 0.0
S1214 S 0.46746 0.38089 0.64766 0.0
N1215 N 0.4528 0.35341 0.67294 0.0
N1216 N 0.46476 0.37612 0.58853 0.0
C1217 C 0.45158 0.35118 0.58714 0.0
C1218 C 0.44519 0.33885 0.63292 0.0
C1219 C 0.66662 0.11655 0.55195 0.0
C1220 C 0.64086 0.10223 0.54978 0.0
C1221 C 0.67902 0.12214 0.59663 0.0
C1222 C 0.66612 0.11408 0.64079 0.0
H1223 H 0.67739 0.12156 0.51895 0.0
H1224 H 0.69892 0.13141 0.59638 0.0
S1225 S 0.59833 0.08003 0.65481 0.0
N1226 N 0.60275 0.08297 0.59561 0.0
N1227 N 0.62599 0.09399 0.67949 0.0
C1228 C 0.64031 0.1021 0.6392 0.0
C1229 C 0.6277 0.09601 0.59369 0.0
C1230 C 0.77982 0.76117 0.76317 0.0
C1231 C 0.77365 0.768 0.71892 0.0
C1232 C 0.77405 0.76768 0.80793 0.0
C1233 C 0.76154 0.78094 0.81013 0.0
H1234 H 0.78773 0.74933 0.76326 0.0
H1235 H 0.77746 0.76039 0.84073 0.0
S1236 S 0.7452 0.80703 0.70545 0.0
N1237 N 0.75759 0.79188 0.68061 0.0
N1238 N 0.74636 0.80371 0.7646 0.0
C1239 C 0.75742 0.78988 0.7664 0.0
C1240 C 0.7636 0.78355 0.72083 0.0
C1241 C 0.22135 0.01762 0.75321 0.0
C1242 C 0.21468 0.005 0.70855 0.0
C1243 C 0.21493 0.00495 0.79758 0.0
C1244 C 0.20198 0.97913 0.79898 0.0
H1245 H 0.23298 0.03742 0.7539 0.0
H1246 H 0.22202 0.01542 0.83071 0.0
S1247 S 0.17665 0.93748 0.69294 0.0
N1248 N 0.19143 0.96527 0.66901 0.0
N1249 N 0.17983 0.94148 0.75222 0.0
C1250 C 0.1933 0.96638 0.75485 0.0
C1251 C 0.1995 0.9793 0.70968 0.0
C1252 C 3e-05 0.214 0.71957 0.0
C1253 C 0.97426 0.20256 0.71749 0.0
C1254 C 0.01249 0.22085 0.76416 0.0
C1255 C -0.00033 0.21608 0.80841 0.0
H1256 H 0.01076 0.21964 0.68651 0.0
H1257 H 0.03239 0.23138 0.7638 0.0
S1258 S 0.93191 0.18249 0.82283 0.0
N1259 N 0.93623 0.18387 0.7636 0.0
N1260 N 0.95961 0.19621 0.84733 0.0
C1261 C 0.97386 0.20235 0.80696 0.0
C1262 C 0.96117 0.19576 0.76151 0.0
C1263 C 0.19822 0.21995 0.20574 0.0
C1264 C 0.20888 0.20496 0.20312 0.0
C1265 C 0.19301 0.22679 0.25072 0.0
C1266 C 0.19778 0.2185 0.29468 0.0
H1267 H 0.19605 0.22833 0.17323 0.0
H1268 H 0.18673 0.23999 0.25113 0.0
S1269 S 0.22126 0.17516 0.30682 0.0
N1270 N 0.22093 0.17938 0.2478 0.0
N1271 N 0.21056 0.19171 0.33216 0.0
C1272 C 0.20588 0.20135 0.29223 0.0
C1273 C 0.21159 0.19474 0.24647 0.0
C1274 C 0.75513 0.9728 0.20594 0.0
C1275 C 0.77119 -0.0017 0.20321 0.0
C1276 C 0.74786 0.96081 0.25097 0.0
C1277 C 0.75677 0.97377 0.2949 0.0
H1278 H 0.74643 0.96237 0.17342 0.0
H1279 H 0.73403 0.9415 0.25143 0.0
S1280 S 0.80247 0.04009 0.30684 0.0
N1281 N 0.79805 0.03561 0.24783 0.0
N1282 N 0.78493 0.01301 0.33225 0.0
C1283 C 0.77472 -0.0012 0.29236 0.0
C1284 C 0.78177 0.01108 0.24656 0.0
C1285 C 0.01083 0.78356 0.25841 0.0
C1286 C -0.0024 0.77617 0.30229 0.0
C1287 C -0.00125 0.77741 0.21339 0.0
C1288 C 0.97299 0.76313 0.21061 0.0
H1289 H 0.03073 0.79285 0.25881 0.0
H1290 H 0.00976 0.78202 0.18075 0.0
S1291 S 0.92973 0.74225 0.31449 0.0
N1292 N 0.95723 0.75655 0.33988 0.0
N1293 N 0.93456 0.7444 0.25539 0.0
C1294 C 0.95952 0.75742 0.25409 0.0
C1295 C 0.97181 0.76412 0.29992 0.0
loop_
_geom_bond_atom_site_label_1
_geom_bond_atom_site_label_2
_geom_bond_distance
_geom_bond_site_symmetry_2
_ccdc_geom_bond_type
C0 O1 1.306 . S
C0 O3 1.160 . S
O1 C0 1.306 . S
O1 Cd2 2.228 . S
Cd2 O1 2.228 . S
Cd2 O6 2.273 . S
Cd2 O10 2.277 . S
O3 C0 1.160 . S
O3 Cd4 2.203 . S
Cd4 O3 2.203 . S
Cd4 O6 2.411 . S
Cd4 O7 2.333 . S
Cd4 O8 2.352 . S
Cd4 O12 2.277 . S
Cd4 O13 2.356 . S
C5 O10 1.209 . S
C5 O12 1.226 . S
O6 Cd2 2.273 . S
O6 Cd4 2.411 . S
O6 C9 1.320 . S
O7 Cd4 2.333 . S
O7 C9 1.214 . S
O8 Cd4 2.352 . S
O8 C11 1.258 . S
C9 O6 1.320 . S
C9 O7 1.214 . S
O10 Cd2 2.277 . S
O10 C5 1.209 . S
C11 O8 1.258 . S
C11 O13 1.282 . S
O12 Cd4 2.277 . S
O12 C5 1.226 . S
O13 Cd4 2.356 . S
O13 C11 1.282 . S
C14 O15 1.306 . S
C14 O17 1.160 . S
O15 C14 1.306 . S
O15 Cd16 2.228 . S
Cd16 O15 2.228 . S
Cd16 O20 2.273 . S
Cd16 O24 2.277 . S
O17 C14 1.160 . S
O17 Cd18 2.203 . S
Cd18 O17 2.203 . S
Cd18 O20 2.411 . S
Cd18 O21 2.333 . S
Cd18 O22 2.352 . S
Cd18 O26 2.277 . S
Cd18 O27 2.356 . S
C19 O24 1.209 . S
C19 O26 1.226 . S
O20 Cd16 2.273 . S
O20 Cd18 2.411 . S
O20 C23 1.320 . S
O21 Cd18 2.333 . S
O21 C23 1.214 . S
O22 Cd18 2.352 . S
O22 C25 1.258 . S
C23 O20 1.320 . S
C23 O21 1.214 . S
O24 Cd16 2.277 . S
O24 C19 1.209 . S
C25 O22 1.258 . S
C25 O27 1.282 . S
O26 Cd18 2.277 . S
O26 C19 1.226 . S
O27 Cd18 2.356 . S
O27 C25 1.282 . S
C28 O29 1.306 . S
C28 O31 1.160 . S
O29 C28 1.306 . S
O29 Cd30 2.228 . S
Cd30 O29 2.228 . S
Cd30 O34 2.273 . S
Cd30 O38 2.277 . S
O31 C28 1.160 . S
O31 Cd32 2.203 . S
Cd32 O31 2.203 . S
Cd32 O34 2.411 . S
Cd32 O35 2.333 . S
Cd32 O36 2.352 . S
Cd32 O40 2.277 . S
Cd32 O41 2.356 . S
C33 O38 1.209 . S
C33 O40 1.226 . S
O34 Cd30 2.273 . S
O34 Cd32 2.411 . S
O34 C37 1.320 . S
O35 Cd32 2.333 . S
O35 C37 1.214 . S
O36 Cd32 2.352 . S
O36 C39 1.258 . S
C37 O34 1.320 . S
C37 O35 1.214 . S
O38 Cd30 2.277 . S
O38 C33 1.209 . S
C39 O36 1.258 . S
C39 O41 1.282 . S
O40 Cd32 2.277 . S
O40 C33 1.226 . S
O41 Cd32 2.356 . S
O41 C39 1.282 . S
C42 O43 1.306 . S
C42 O45 1.160 . S
O43 C42 1.306 . S
O43 Cd44 2.228 . S
Cd44 O43 2.228 . S
Cd44 O48 2.273 . S
Cd44 O52 2.277 . S
O45 C42 1.160 . S
O45 Cd46 2.203 . S
Cd46 O45 2.203 . S
Cd46 O48 2.411 . S
Cd46 O49 2.333 . S
Cd46 O50 2.352 . S
Cd46 O54 2.277 . S
Cd46 O55 2.356 . S
C47 O52 1.209 . S
C47 O54 1.226 . S
O48 Cd44 2.273 . S
O48 Cd46 2.411 . S
O48 C51 1.320 . S
O49 Cd46 2.333 . S
O49 C51 1.214 . S
O50 Cd46 2.352 . S
O50 C53 1.258 . S
C51 O48 1.320 . S
C51 O49 1.214 . S
O52 Cd44 2.277 . S
O52 C47 1.209 . S
C53 O50 1.258 . S
C53 O55 1.282 . S
O54 Cd46 2.277 . S
O54 C47 1.226 . S
O55 Cd46 2.356 . S
O55 C53 1.282 . S
C56 O57 1.306 . S
C56 O59 1.160 . S
O57 C56 1.306 . S
O57 Cd58 2.228 . S
Cd58 O57 2.228 . S
Cd58 O62 2.273 . S
Cd58 O66 2.277 . S
O59 C56 1.160 . S
O59 Cd60 2.203 . S
Cd60 O59 2.203 . S
Cd60 O62 2.411 . S
Cd60 O63 2.333 . S
Cd60 O64 2.352 . S
Cd60 O68 2.277 . S
Cd60 O69 2.356 . S
C61 O66 1.209 . S
C61 O68 1.226 . S
O62 Cd58 2.273 . S
O62 Cd60 2.411 . S
O62 C65 1.320 . S
O63 Cd60 2.333 . S
O63 C65 1.214 . S
O64 Cd60 2.352 . S
O64 C67 1.258 . S
C65 O62 1.320 . S
C65 O63 1.214 . S
O66 Cd58 2.277 . S
O66 C61 1.209 . S
C67 O64 1.258 . S
C67 O69 1.282 . S
O68 Cd60 2.277 . S
O68 C61 1.226 . S
O69 Cd60 2.356 . S
O69 C67 1.282 . S
C70 O71 1.306 . S
C70 O73 1.160 . S
O71 C70 1.306 . S
O71 Cd72 2.228 . S
Cd72 O71 2.228 . S
Cd72 O76 2.273 . S
Cd72 O80 2.277 . S
O73 C70 1.160 . S
O73 Cd74 2.203 . S
Cd74 O73 2.203 . S
Cd74 O76 2.411 . S
Cd74 O77 2.333 . S
Cd74 O78 2.352 . S
Cd74 O82 2.277 . S
Cd74 O83 2.356 . S
C75 O80 1.209 . S
C75 O82 1.226 . S
O76 Cd72 2.273 . S
O76 Cd74 2.411 . S
O76 C79 1.320 . S
O77 Cd74 2.333 . S
O77 C79 1.214 . S
O78 Cd74 2.352 . S
O78 C81 1.258 . S
C79 O76 1.320 . S
C79 O77 1.214 . S
O80 Cd72 2.277 . S
O80 C75 1.209 . S
C81 O78 1.258 . S
C81 O83 1.282 . S
O82 Cd74 2.277 . S
O82 C75 1.226 . S
O83 Cd74 2.356 . S
O83 C81 1.282 . S
C84 O85 1.306 . S
C84 O87 1.160 . S
O85 C84 1.306 . S
O85 Cd86 2.228 . S
Cd86 O85 2.228 . S
Cd86 O90 2.273 . S
Cd86 O94 2.277 . S
O87 C84 1.160 . S
O87 Cd88 2.203 . S
Cd88 O87 2.203 . S
Cd88 O90 2.411 . S
Cd88 O91 2.333 . S
Cd88 O92 2.352 . S
Cd88 O96 2.277 . S
Cd88 O97 2.356 . S
C89 O94 1.209 . S
C89 O96 1.226 . S
O90 Cd86 2.273 . S
O90 Cd88 2.411 . S
O90 C93 1.320 . S
O91 Cd88 2.333 . S
O91 C93 1.214 . S
O92 Cd88 2.352 . S
O92 C95 1.258 . S
C93 O90 1.320 . S
C93 O91 1.214 . S
O94 Cd86 2.277 . S
O94 C89 1.209 . S
C95 O92 1.258 . S
C95 O97 1.282 . S
O96 Cd88 2.277 . S
O96 C89 1.226 . S
O97 Cd88 2.356 . S
O97 C95 1.282 . S
C98 O99 1.306 . S
C98 O101 1.160 . S
O99 C98 1.306 . S
O99 Cd100 2.228 . S
Cd100 O99 2.228 . S
Cd100 O104 2.273 . S
Cd100 O108 2.277 . S
O101 C98 1.160 . S
O101 Cd102 2.203 . S
Cd102 O101 2.203 . S
Cd102 O104 2.411 . S
Cd102 O105 2.333 . S
Cd102 O106 2.352 . S
Cd102 O110 2.277 . S
Cd102 O111 2.356 . S
C103 O108 1.209 . S
C103 O110 1.226 . S
O104 Cd100 2.273 . S
O104 Cd102 2.411 . S
O104 C107 1.320 . S
O105 Cd102 2.333 . S
O105 C107 1.214 . S
O106 Cd102 2.352 . S
O106 C109 1.258 . S
C107 O104 1.320 . S
C107 O105 1.214 . S
O108 Cd100 2.277 . S
O108 C103 1.209 . S
C109 O106 1.258 . S
C109 O111 1.282 . S
O110 Cd102 2.277 . S
O110 C103 1.226 . S
O111 Cd102 2.356 . S
O111 C109 1.282 . S
C112 O113 1.306 . S
C112 O115 1.160 . S
O113 C112 1.306 . S
O113 Cd114 2.228 . S
Cd114 O113 2.228 . S
Cd114 O118 2.273 . S
Cd114 O122 2.277 . S
O115 C112 1.160 . S
O115 Cd116 2.203 . S
Cd116 O115 2.203 . S
Cd116 O118 2.411 . S
Cd116 O119 2.333 . S
Cd116 O120 2.352 . S
Cd116 O124 2.277 . S
Cd116 O125 2.356 . S
C117 O122 1.209 . S
C117 O124 1.226 . S
O118 Cd114 2.273 . S
O118 Cd116 2.411 . S
O118 C121 1.320 . S
O119 Cd116 2.333 . S
O119 C121 1.214 . S
O120 Cd116 2.352 . S
O120 C123 1.258 . S
C121 O118 1.320 . S
C121 O119 1.214 . S
O122 Cd114 2.277 . S
O122 C117 1.209 . S
C123 O120 1.258 . S
C123 O125 1.282 . S
O124 Cd116 2.277 . S
O124 C117 1.226 . S
O125 Cd116 2.356 . S
O125 C123 1.282 . S
C126 O127 1.306 . S
C126 O129 1.160 . S
O127 C126 1.306 . S
O127 Cd128 2.228 . S
Cd128 O127 2.228 . S
Cd128 O132 2.273 . S
Cd128 O136 2.277 . S
O129 C126 1.160 . S
O129 Cd130 2.203 . S
Cd130 O129 2.203 . S
Cd130 O132 2.411 . S
Cd130 O133 2.333 . S
Cd130 O134 2.352 . S
Cd130 O138 2.277 . S
Cd130 O139 2.356 . S
C131 O136 1.209 . S
C131 O138 1.226 . S
O132 Cd128 2.273 . S
O132 Cd130 2.411 . S
O132 C135 1.320 . S
O133 Cd130 2.333 . S
O133 C135 1.214 . S
O134 Cd130 2.352 . S
O134 C137 1.258 . S
C135 O132 1.320 . S
C135 O133 1.214 . S
O136 Cd128 2.277 . S
O136 C131 1.209 . S
C137 O134 1.258 . S
C137 O139 1.282 . S
O138 Cd130 2.277 . S
O138 C131 1.226 . S
O139 Cd130 2.356 . S
O139 C137 1.282 . S
C140 O141 1.306 . S
C140 O143 1.160 . S
O141 C140 1.306 . S
O141 Cd142 2.228 . S
Cd142 O141 2.228 . S
Cd142 O146 2.273 . S
Cd142 O150 2.277 . S
O143 C140 1.160 . S
O143 Cd144 2.203 . S
Cd144 O143 2.203 . S
Cd144 O146 2.411 . S
Cd144 O147 2.333 . S
Cd144 O148 2.352 . S
Cd144 O152 2.277 . S
Cd144 O153 2.356 . S
C145 O150 1.209 . S
C145 O152 1.226 . S
O146 Cd142 2.273 . S
O146 Cd144 2.411 . S
O146 C149 1.320 . S
O147 Cd144 2.333 . S
O147 C149 1.214 . S
O148 Cd144 2.352 . S
O148 C151 1.258 . S
C149 O146 1.320 . S
C149 O147 1.214 . S
O150 Cd142 2.277 . S
O150 C145 1.209 . S
C151 O148 1.258 . S
C151 O153 1.282 . S
O152 Cd144 2.277 . S
O152 C145 1.226 . S
O153 Cd144 2.356 . S
O153 C151 1.282 . S
C154 O155 1.306 . S
C154 O157 1.160 . S
O155 C154 1.306 . S
O155 Cd156 2.228 . S
Cd156 O155 2.228 . S
Cd156 O160 2.273 . S
Cd156 O164 2.277 . S
O157 C154 1.160 . S
O157 Cd158 2.203 . S
Cd158 O157 2.203 . S
Cd158 O160 2.411 . S
Cd158 O161 2.333 . S
Cd158 O162 2.352 . S
Cd158 O166 2.277 . S
Cd158 O167 2.356 . S
C159 O164 1.209 . S
C159 O166 1.226 . S
O160 Cd156 2.273 . S
O160 Cd158 2.411 . S
O160 C163 1.320 . S
O161 Cd158 2.333 . S
O161 C163 1.214 . S
O162 Cd158 2.352 . S
O162 C165 1.258 . S
C163 O160 1.320 . S
C163 O161 1.214 . S
O164 Cd156 2.277 . S
O164 C159 1.209 . S
C165 O162 1.258 . S
C165 O167 1.282 . S
O166 Cd158 2.277 . S
O166 C159 1.226 . S
O167 Cd158 2.356 . S
O167 C165 1.282 . S
C168 O169 1.306 . S
C168 O171 1.160 . S
O169 C168 1.306 . S
O169 Cd170 2.228 . S
Cd170 O169 2.228 . S
Cd170 O174 2.273 . S
Cd170 O178 2.277 . S
O171 C168 1.160 . S
O171 Cd172 2.203 . S
Cd172 O171 2.203 . S
Cd172 O174 2.411 . S
Cd172 O175 2.333 . S
Cd172 O176 2.352 . S
Cd172 O180 2.277 1_455 S
Cd172 O181 2.371 . S
C173 O178 1.209 . S
C173 O180 1.226 1_455 S
O174 Cd170 2.273 . S
O174 Cd172 2.411 . S
O174 C177 1.320 . S
O175 Cd172 2.333 . S
O175 C177 1.214 . S
O176 Cd172 2.352 . S
O176 C179 1.258 . S
C177 O174 1.320 . S
C177 O175 1.214 . S
O178 Cd170 2.277 . S
O178 C173 1.209 . S
C179 O176 1.258 . S
C179 O181 1.289 . S
O180 Cd172 2.277 1_655 S
O180 C173 1.226 1_655 S
O181 Cd172 2.371 . S
O181 C179 1.289 . S
C182 O183 1.306 . S
C182 O185 1.160 . S
O183 C182 1.306 . S
O183 Cd184 2.228 . S
Cd184 O183 2.228 . S
Cd184 O188 2.273 . S
Cd184 O192 2.277 . S
O185 C182 1.160 . S
O185 Cd186 2.203 . S
Cd186 O185 2.203 . S
Cd186 O188 2.411 . S
Cd186 O189 2.333 . S
Cd186 O190 2.352 . S
Cd186 O194 2.277 . S
Cd186 O195 2.356 . S
C187 O192 1.209 . S
C187 O194 1.226 . S
O188 Cd184 2.273 . S
O188 Cd186 2.411 . S
O188 C191 1.320 . S
O189 Cd186 2.333 . S
O189 C191 1.214 . S
O190 Cd186 2.352 . S
O190 C193 1.258 . S
C191 O188 1.320 . S
C191 O189 1.214 . S
O192 Cd184 2.277 . S
O192 C187 1.209 . S
C193 O190 1.258 . S
C193 O195 1.282 . S
O194 Cd186 2.277 . S
O194 C187 1.226 . S
O195 Cd186 2.356 . S
O195 C193 1.282 . S
C196 O197 1.306 . S
C196 O199 1.160 . S
O197 C196 1.306 . S
O197 Cd198 2.228 . S
Cd198 O197 2.228 . S
Cd198 O202 2.273 . S
Cd198 O206 2.277 . S
O199 C196 1.160 . S
O199 Cd200 2.203 . S
Cd200 O199 2.203 . S
Cd200 O202 2.411 . S
Cd200 O203 2.333 . S
Cd200 O204 2.352 . S
Cd200 O208 2.277 1_565 S
Cd200 O209 2.359 . S
C201 O206 1.209 . S
C201 O208 1.226 1_565 S
O202 Cd198 2.273 . S
O202 Cd200 2.411 . S
O202 C205 1.320 . S
O203 Cd200 2.333 . S
O203 C205 1.214 . S
O204 Cd200 2.352 . S
O204 C207 1.258 . S
C205 O202 1.320 . S
C205 O203 1.214 . S
O206 Cd198 2.277 . S
O206 C201 1.209 . S
C207 O204 1.258 . S
C207 O209 1.299 . S
O208 Cd200 2.277 1_545 S
O208 C201 1.226 1_545 S
O209 Cd200 2.359 . S
O209 C207 1.299 . S
C210 O211 1.306 . S
C210 O213 1.160 . S
O211 C210 1.306 . S
O211 Cd212 2.228 . S
Cd212 O211 2.228 . S
Cd212 O216 2.273 . S
Cd212 O220 2.277 . S
O213 C210 1.160 . S
O213 Cd214 2.203 . S
Cd214 O213 2.203 . S
Cd214 O216 2.411 . S
Cd214 O217 2.333 . S
Cd214 O218 2.352 . S
Cd214 O222 2.277 . S
Cd214 O223 2.356 . S
C215 O220 1.209 . S
C215 O222 1.226 . S
O216 Cd212 2.273 . S
O216 Cd214 2.411 . S
O216 C219 1.320 . S
O217 Cd214 2.333 . S
O217 C219 1.214 . S
O218 Cd214 2.352 . S
O218 C221 1.258 . S
C219 O216 1.320 . S
C219 O217 1.214 . S
O220 Cd212 2.277 . S
O220 C215 1.209 . S
C221 O218 1.258 . S
C221 O223 1.282 . S
O222 Cd214 2.277 . S
O222 C215 1.226 . S
O223 Cd214 2.356 . S
O223 C221 1.282 . S
C224 O225 1.306 . S
C224 O227 1.160 . S
O225 C224 1.306 . S
O225 Cd226 2.228 . S
Cd226 O225 2.228 . S
Cd226 O230 2.273 . S
Cd226 O234 2.277 . S
O227 C224 1.160 . S
O227 Cd228 2.203 . S
Cd228 O227 2.203 . S
Cd228 O230 2.411 . S
Cd228 O231 2.333 . S
Cd228 O232 2.352 . S
Cd228 O236 2.277 . S
Cd228 O237 2.356 . S
C229 O234 1.209 . S
C229 O236 1.226 . S
O230 Cd226 2.273 . S
O230 Cd228 2.411 . S
O230 C233 1.320 . S
O231 Cd228 2.333 . S
O231 C233 1.214 . S
O232 Cd228 2.352 . S
O232 C235 1.258 . S
C233 O230 1.320 . S
C233 O231 1.214 . S
O234 Cd226 2.277 . S
O234 C229 1.209 . S
C235 O232 1.258 . S
C235 O237 1.282 . S
O236 Cd228 2.277 . S
O236 C229 1.226 . S
O237 Cd228 2.356 . S
O237 C235 1.282 . S
C238 O239 1.306 . S
C238 O241 1.160 . S
O239 C238 1.306 . S
O239 Cd240 2.228 . S
Cd240 O239 2.228 . S
Cd240 O244 2.273 . S
Cd240 O248 2.277 . S
O241 C238 1.160 . S
O241 Cd242 2.203 . S
Cd242 O241 2.203 . S
Cd242 O244 2.411 . S
Cd242 O245 2.333 . S
Cd242 O246 2.352 . S
Cd242 O250 2.277 . S
Cd242 O251 2.356 . S
C243 O248 1.209 . S
C243 O250 1.226 . S
O244 Cd240 2.273 . S
O244 Cd242 2.411 . S
O244 C247 1.320 . S
O245 Cd242 2.333 . S
O245 C247 1.214 . S
O246 Cd242 2.352 . S
O246 C249 1.258 . S
C247 O244 1.320 . S
C247 O245 1.214 . S
O248 Cd240 2.277 . S
O248 C243 1.209 . S
C249 O246 1.258 . S
C249 O251 1.282 . S
O250 Cd242 2.277 . S
O250 C243 1.226 . S
O251 Cd242 2.356 . S
O251 C249 1.282 . S
C252 O253 1.306 . S
C252 O255 1.160 . S
O253 C252 1.306 . S
O253 Cd254 2.228 . S
Cd254 O253 2.228 . S
Cd254 O258 2.273 . S
Cd254 O262 2.277 . S
O255 C252 1.160 . S
O255 Cd256 2.203 . S
Cd256 O255 2.203 . S
Cd256 O258 2.411 . S
Cd256 O259 2.333 . S
Cd256 O260 2.352 . S
Cd256 O264 2.277 . S
Cd256 O265 2.356 . S
C257 O262 1.209 . S
C257 O264 1.226 . S
O258 Cd254 2.273 . S
O258 Cd256 2.411 . S
O258 C261 1.320 . S
O259 Cd256 2.333 . S
O259 C261 1.214 . S
O260 Cd256 2.352 . S
O260 C263 1.258 . S
C261 O258 1.320 . S
C261 O259 1.214 . S
O262 Cd254 2.277 . S
O262 C257 1.209 . S
C263 O260 1.258 . S
C263 O265 1.282 . S
O264 Cd256 2.277 . S
O264 C257 1.226 . S
O265 Cd256 2.356 . S
O265 C263 1.282 . S
C266 O267 1.306 . S
C266 O269 1.160 . S
O267 C266 1.306 . S
O267 Cd268 2.228 . S
Cd268 O267 2.228 . S
Cd268 O272 2.273 . S
Cd268 O276 2.277 . S
O269 C266 1.160 . S
O269 Cd270 2.203 . S
Cd270 O269 2.203 . S
Cd270 O272 2.411 . S
Cd270 O273 2.333 . S
Cd270 O274 2.352 . S
Cd270 O278 2.277 . S
Cd270 O279 2.356 . S
C271 O276 1.209 . S
C271 O278 1.226 . S
O272 Cd268 2.273 . S
O272 Cd270 2.411 . S
O272 C275 1.320 . S
O273 Cd270 2.333 . S
O273 C275 1.214 . S
O274 Cd270 2.352 . S
O274 C277 1.258 . S
C275 O272 1.320 . S
C275 O273 1.214 . S
O276 Cd268 2.277 . S
O276 C271 1.209 . S
C277 O274 1.258 . S
C277 O279 1.282 . S
O278 Cd270 2.277 . S
O278 C271 1.226 . S
O279 Cd270 2.356 . S
O279 C277 1.282 . S
C280 O281 1.306 . S
C280 O283 1.160 . S
O281 C280 1.306 . S
O281 Cd282 2.228 . S
Cd282 O281 2.228 . S
Cd282 O286 2.273 . S
Cd282 O290 2.277 . S
O283 C280 1.160 . S
O283 Cd284 2.203 . S
Cd284 O283 2.203 . S
Cd284 O286 2.411 . S
Cd284 O287 2.333 . S
Cd284 O288 2.352 . S
Cd284 O292 2.277 . S
Cd284 O293 2.356 . S
C285 O290 1.209 . S
C285 O292 1.226 . S
O286 Cd282 2.273 . S
O286 Cd284 2.411 . S
O286 C289 1.320 . S
O287 Cd284 2.333 . S
O287 C289 1.214 . S
O288 Cd284 2.352 . S
O288 C291 1.258 . S
C289 O286 1.320 . S
C289 O287 1.214 . S
O290 Cd282 2.277 . S
O290 C285 1.209 . S
C291 O288 1.258 . S
C291 O293 1.282 . S
O292 Cd284 2.277 . S
O292 C285 1.226 . S
O293 Cd284 2.356 . S
O293 C291 1.282 . S
C294 O295 1.306 . S
C294 O297 1.160 . S
O295 C294 1.306 . S
O295 Cd296 2.228 . S
Cd296 O295 2.228 . S
Cd296 O300 2.273 . S
Cd296 O304 2.277 . S
O297 C294 1.160 . S
O297 Cd298 2.203 . S
Cd298 O297 2.203 . S
Cd298 O300 2.411 . S
Cd298 O301 2.333 . S
Cd298 O302 2.352 . S
Cd298 O306 2.277 1_565 S
Cd298 O307 2.371 . S
C299 O304 1.209 . S
C299 O306 1.226 1_565 S
O300 Cd296 2.273 . S
O300 Cd298 2.411 . S
O300 C303 1.320 . S
O301 Cd298 2.333 . S
O301 C303 1.214 . S
O302 Cd298 2.352 . S
O302 C305 1.258 . S
C303 O300 1.320 . S
C303 O301 1.214 . S
O304 Cd296 2.277 . S
O304 C299 1.209 . S
C305 O302 1.258 . S
C305 O307 1.289 . S
O306 Cd298 2.277 1_545 S
O306 C299 1.226 1_545 S
O307 Cd298 2.371 . S
O307 C305 1.289 . S
C308 O309 1.306 . S
C308 O311 1.160 . S
O309 C308 1.306 . S
O309 Cd310 2.228 . S
Cd310 O309 2.228 . S
Cd310 O314 2.273 . S
Cd310 O318 2.277 . S
O311 C308 1.160 . S
O311 Cd312 2.203 . S
Cd312 O311 2.203 . S
Cd312 O314 2.411 . S
Cd312 O315 2.333 . S
Cd312 O316 2.352 . S
Cd312 O320 2.277 1_455 S
Cd312 O321 2.359 . S
C313 O318 1.209 . S
C313 O320 1.226 1_455 S
O314 Cd310 2.273 . S
O314 Cd312 2.411 . S
O314 C317 1.320 . S
O315 Cd312 2.333 . S
O315 C317 1.214 . S
O316 Cd312 2.352 . S
O316 C319 1.258 . S
C317 O314 1.320 . S
C317 O315 1.214 . S
O318 Cd310 2.277 . S
O318 C313 1.209 . S
C319 O316 1.258 . S
C319 O321 1.299 . S
O320 Cd312 2.277 1_655 S
O320 C313 1.226 1_655 S
O321 Cd312 2.359 . S
O321 C319 1.299 . S
C322 O323 1.306 . S
C322 O325 1.160 . S
O323 C322 1.306 . S
O323 Cd324 2.228 . S
Cd324 O323 2.228 . S
Cd324 O328 2.273 . S
Cd324 O332 2.277 . S
O325 C322 1.160 . S
O325 Cd326 2.203 . S
Cd326 O325 2.203 . S
Cd326 O328 2.411 . S
Cd326 O329 2.333 . S
Cd326 O330 2.352 . S
Cd326 O334 2.277 . S
Cd326 O335 2.356 . S
C327 O332 1.209 . S
C327 O334 1.226 . S
O328 Cd324 2.273 . S
O328 Cd326 2.411 . S
O328 C331 1.320 . S
O329 Cd326 2.333 . S
O329 C331 1.214 . S
O330 Cd326 2.352 . S
O330 C333 1.258 . S
C331 O328 1.320 . S
C331 O329 1.214 . S
O332 Cd324 2.277 . S
O332 C327 1.209 . S
C333 O330 1.258 . S
C333 O335 1.282 . S
O334 Cd326 2.277 . S
O334 C327 1.226 . S
O335 Cd326 2.356 . S
O335 C333 1.282 . S
C336 O337 1.306 . S
C336 O339 1.160 . S
O337 C336 1.306 . S
O337 Cd338 2.228 . S
Cd338 O337 2.228 . S
Cd338 O342 2.273 . S
Cd338 O346 2.277 . S
O339 C336 1.160 . S
O339 Cd340 2.203 . S
Cd340 O339 2.203 . S
Cd340 O342 2.411 . S
Cd340 O343 2.333 . S
Cd340 O344 2.352 . S
Cd340 O348 2.277 . S
Cd340 O349 2.356 . S
C341 O346 1.209 . S
C341 O348 1.226 . S
O342 Cd338 2.273 . S
O342 Cd340 2.411 . S
O342 C345 1.320 . S
O343 Cd340 2.333 . S
O343 C345 1.214 . S
O344 Cd340 2.352 . S
O344 C347 1.258 . S
C345 O342 1.320 . S
C345 O343 1.214 . S
O346 Cd338 2.277 . S
O346 C341 1.209 . S
C347 O344 1.258 . S
C347 O349 1.282 . S
O348 Cd340 2.277 . S
O348 C341 1.226 . S
O349 Cd340 2.356 . S
O349 C347 1.282 . S
C350 O351 1.306 . S
C350 O353 1.160 . S
O351 C350 1.306 . S
O351 Cd352 2.228 . S
Cd352 O351 2.228 . S
Cd352 O356 2.273 . S
Cd352 O360 2.277 . S
O353 C350 1.160 . S
O353 Cd354 2.203 . S
Cd354 O353 2.203 . S
Cd354 O356 2.411 . S
Cd354 O357 2.333 . S
Cd354 O358 2.352 . S
Cd354 O362 2.277 . S
Cd354 O363 2.356 . S
C355 O360 1.209 . S
C355 O362 1.226 . S
O356 Cd352 2.273 . S
O356 Cd354 2.411 . S
O356 C359 1.320 . S
O357 Cd354 2.333 . S
O357 C359 1.214 . S
O358 Cd354 2.352 . S
O358 C361 1.258 . S
C359 O356 1.320 . S
C359 O357 1.214 . S
O360 Cd352 2.277 . S
O360 C355 1.209 . S
C361 O358 1.258 . S
C361 O363 1.282 . S
O362 Cd354 2.277 . S
O362 C355 1.226 . S
O363 Cd354 2.356 . S
O363 C361 1.282 . S
C364 O365 1.306 . S
C364 O367 1.160 . S
O365 C364 1.306 . S
O365 Cd366 2.228 . S
Cd366 O365 2.228 . S
Cd366 O370 2.273 . S
Cd366 O374 2.277 . S
O367 C364 1.160 . S
O367 Cd368 2.203 . S
Cd368 O367 2.203 . S
Cd368 O370 2.411 . S
Cd368 O371 2.333 . S
Cd368 O372 2.352 . S
Cd368 O376 2.277 . S
Cd368 O377 2.356 . S
C369 O374 1.209 . S
C369 O376 1.226 . S
O370 Cd366 2.273 . S
O370 Cd368 2.411 . S
O370 C373 1.320 . S
O371 Cd368 2.333 . S
O371 C373 1.214 . S
O372 Cd368 2.352 . S
O372 C375 1.258 . S
C373 O370 1.320 . S
C373 O371 1.214 . S
O374 Cd366 2.277 . S
O374 C369 1.209 . S
C375 O372 1.258 . S
C375 O377 1.282 . S
O376 Cd368 2.277 . S
O376 C369 1.226 . S
O377 Cd368 2.356 . S
O377 C375 1.282 . S
C378 O379 1.306 . S
C378 O381 1.160 . S
O379 C378 1.306 . S
O379 Cd380 2.228 . S
Cd380 O379 2.228 . S
Cd380 O384 2.273 . S
Cd380 O388 2.277 . S
O381 C378 1.160 . S
O381 Cd382 2.203 . S
Cd382 O381 2.203 . S
Cd382 O384 2.411 . S
Cd382 O385 2.333 . S
Cd382 O386 2.352 . S
Cd382 O390 2.277 1_545 S
Cd382 O391 2.371 . S
C383 O388 1.209 . S
C383 O390 1.226 1_545 S
O384 Cd380 2.273 . S
O384 Cd382 2.411 . S
O384 C387 1.320 . S
O385 Cd382 2.333 . S
O385 C387 1.214 . S
O386 Cd382 2.352 . S
O386 C389 1.258 . S
C387 O384 1.320 . S
C387 O385 1.214 . S
O388 Cd380 2.277 . S
O388 C383 1.209 . S
C389 O386 1.258 . S
C389 O391 1.289 . S
O390 Cd382 2.277 1_565 S
O390 C383 1.226 1_565 S
O391 Cd382 2.371 . S
O391 C389 1.289 . S
C392 O393 1.306 . S
C392 O395 1.160 . S
O393 C392 1.306 . S
O393 Cd394 2.228 . S
Cd394 O393 2.228 . S
Cd394 O398 2.273 . S
Cd394 O402 2.277 . S
O395 C392 1.160 . S
O395 Cd396 2.203 . S
Cd396 O395 2.203 . S
Cd396 O398 2.411 . S
Cd396 O399 2.333 . S
Cd396 O400 2.352 . S
Cd396 O404 2.277 1_655 S
Cd396 O405 2.359 . S
C397 O402 1.209 . S
C397 O404 1.226 1_655 S
O398 Cd394 2.273 . S
O398 Cd396 2.411 . S
O398 C401 1.320 . S
O399 Cd396 2.333 . S
O399 C401 1.214 . S
O400 Cd396 2.352 . S
O400 C403 1.258 . S
C401 O398 1.320 . S
C401 O399 1.214 . S
O402 Cd394 2.277 . S
O402 C397 1.209 . S
C403 O400 1.258 . S
C403 O405 1.299 . S
O404 Cd396 2.277 1_455 S
O404 C397 1.226 1_455 S
O405 Cd396 2.359 . S
O405 C403 1.299 . S
C406 O407 1.306 . S
C406 O409 1.160 . S
O407 C406 1.306 . S
O407 Cd408 2.228 . S
Cd408 O407 2.228 . S
Cd408 O412 2.273 . S
Cd408 O416 2.277 . S
O409 C406 1.160 . S
O409 Cd410 2.203 . S
Cd410 O409 2.203 . S
Cd410 O412 2.411 . S
Cd410 O413 2.333 . S
Cd410 O414 2.352 . S
Cd410 O418 2.277 . S
Cd410 O419 2.356 . S
C411 O416 1.209 . S
C411 O418 1.226 . S
O412 Cd408 2.273 . S
O412 Cd410 2.411 . S
O412 C415 1.320 . S
O413 Cd410 2.333 . S
O413 C415 1.214 . S
O414 Cd410 2.352 . S
O414 C417 1.258 . S
C415 O412 1.320 . S
C415 O413 1.214 . S
O416 Cd408 2.277 . S
O416 C411 1.209 . S
C417 O414 1.258 . S
C417 O419 1.282 . S
O418 Cd410 2.277 . S
O418 C411 1.226 . S
O419 Cd410 2.356 . S
O419 C417 1.282 . S
C420 O421 1.306 . S
C420 O423 1.160 . S
O421 C420 1.306 . S
O421 Cd422 2.228 . S
Cd422 O421 2.228 . S
Cd422 O426 2.273 . S
Cd422 O430 2.277 . S
O423 C420 1.160 . S
O423 Cd424 2.203 . S
Cd424 O423 2.203 . S
Cd424 O426 2.411 . S
Cd424 O427 2.333 . S
Cd424 O428 2.352 . S
Cd424 O432 2.277 1_655 S
Cd424 O433 2.371 . S
C425 O430 1.209 . S
C425 O432 1.226 1_655 S
O426 Cd422 2.273 . S
O426 Cd424 2.411 . S
O426 C429 1.320 . S
O427 Cd424 2.333 . S
O427 C429 1.214 . S
O428 Cd424 2.352 . S
O428 C431 1.258 . S
C429 O426 1.320 . S
C429 O427 1.214 . S
O430 Cd422 2.277 . S
O430 C425 1.209 . S
C431 O428 1.258 . S
C431 O433 1.289 . S
O432 Cd424 2.277 1_455 S
O432 C425 1.226 1_455 S
O433 Cd424 2.371 . S
O433 C431 1.289 . S
C434 O435 1.306 . S
C434 O437 1.160 . S
O435 C434 1.306 . S
O435 Cd436 2.228 . S
Cd436 O435 2.228 . S
Cd436 O440 2.273 . S
Cd436 O444 2.277 . S
O437 C434 1.160 . S
O437 Cd438 2.203 . S
Cd438 O437 2.203 . S
Cd438 O440 2.411 . S
Cd438 O441 2.333 . S
Cd438 O442 2.352 . S
Cd438 O446 2.277 . S
Cd438 O447 2.356 . S
C439 O444 1.209 . S
C439 O446 1.226 . S
O440 Cd436 2.273 . S
O440 Cd438 2.411 . S
O440 C443 1.320 . S
O441 Cd438 2.333 . S
O441 C443 1.214 . S
O442 Cd438 2.352 . S
O442 C445 1.258 . S
C443 O440 1.320 . S
C443 O441 1.214 . S
O444 Cd436 2.277 . S
O444 C439 1.209 . S
C445 O442 1.258 . S
C445 O447 1.282 . S
O446 Cd438 2.277 . S
O446 C439 1.226 . S
O447 Cd438 2.356 . S
O447 C445 1.282 . S
C448 O449 1.306 . S
C448 O451 1.160 . S
O449 C448 1.306 . S
O449 Cd450 2.228 . S
Cd450 O449 2.228 . S
Cd450 O454 2.273 . S
Cd450 O458 2.277 . S
O451 C448 1.160 . S
O451 Cd452 2.203 . S
Cd452 O451 2.203 . S
Cd452 O454 2.411 . S
Cd452 O455 2.333 . S
Cd452 O456 2.352 . S
Cd452 O460 2.277 1_545 S
Cd452 O461 2.359 . S
C453 O458 1.209 . S
C453 O460 1.226 1_545 S
O454 Cd450 2.273 . S
O454 Cd452 2.411 . S
O454 C457 1.320 . S
O455 Cd452 2.333 . S
O455 C457 1.214 . S
O456 Cd452 2.352 . S
O456 C459 1.258 . S
C457 O454 1.320 . S
C457 O455 1.214 . S
O458 Cd450 2.277 . S
O458 C453 1.209 . S
C459 O456 1.258 . S
C459 O461 1.299 . S
O460 Cd452 2.277 1_565 S
O460 C453 1.226 1_565 S
O461 Cd452 2.359 . S
O461 C459 1.299 . S
C462 O463 1.306 . S
C462 O465 1.160 . S
O463 C462 1.306 . S
O463 Cd464 2.228 . S
Cd464 O463 2.228 . S
Cd464 O468 2.273 . S
Cd464 O472 2.277 . S
O465 C462 1.160 . S
O465 Cd466 2.203 . S
Cd466 O465 2.203 . S
Cd466 O468 2.411 . S
Cd466 O469 2.333 . S
Cd466 O470 2.352 . S
Cd466 O474 2.277 . S
Cd466 O475 2.356 . S
C467 O472 1.209 . S
C467 O474 1.226 . S
O468 Cd464 2.273 . S
O468 Cd466 2.411 . S
O468 C471 1.320 . S
O469 Cd466 2.333 . S
O469 C471 1.214 . S
O470 Cd466 2.352 . S
O470 C473 1.258 . S
C471 O468 1.320 . S
C471 O469 1.214 . S
O472 Cd464 2.277 . S
O472 C467 1.209 . S
C473 O470 1.258 . S
C473 O475 1.282 . S
O474 Cd466 2.277 . S
O474 C467 1.226 . S
O475 Cd466 2.356 . S
O475 C473 1.282 . S
C476 O477 1.306 . S
C476 O479 1.160 . S
O477 C476 1.306 . S
O477 Cd478 2.228 . S
Cd478 O477 2.228 . S
Cd478 O482 2.273 . S
Cd478 O486 2.277 . S
O479 C476 1.160 . S
O479 Cd480 2.203 . S
Cd480 O479 2.203 . S
Cd480 O482 2.411 . S
Cd480 O483 2.333 . S
Cd480 O484 2.352 . S
Cd480 O488 2.277 . S
Cd480 O489 2.356 . S
C481 O486 1.209 . S
C481 O488 1.226 . S
O482 Cd478 2.273 . S
O482 Cd480 2.411 . S
O482 C485 1.320 . S
O483 Cd480 2.333 . S
O483 C485 1.214 . S
O484 Cd480 2.352 . S
O484 C487 1.258 . S
C485 O482 1.320 . S
C485 O483 1.214 . S
O486 Cd478 2.277 . S
O486 C481 1.209 . S
C487 O484 1.258 . S
C487 O489 1.282 . S
O488 Cd480 2.277 . S
O488 C481 1.226 . S
O489 Cd480 2.356 . S
O489 C487 1.282 . S
C490 O491 1.306 . S
C490 O493 1.160 . S
O491 C490 1.306 . S
O491 Cd492 2.228 . S
Cd492 O491 2.228 . S
Cd492 O496 2.273 . S
Cd492 O500 2.277 . S
O493 C490 1.160 . S
O493 Cd494 2.203 . S
Cd494 O493 2.203 . S
Cd494 O496 2.411 . S
Cd494 O497 2.333 . S
Cd494 O498 2.352 . S
Cd494 O502 2.277 . S
Cd494 O503 2.356 . S
C495 O500 1.209 . S
C495 O502 1.226 . S
O496 Cd492 2.273 . S
O496 Cd494 2.411 . S
O496 C499 1.320 . S
O497 Cd494 2.333 . S
O497 C499 1.214 . S
O498 Cd494 2.352 . S
O498 C501 1.258 . S
C499 O496 1.320 . S
C499 O497 1.214 . S
O500 Cd492 2.277 . S
O500 C495 1.209 . S
C501 O498 1.258 . S
C501 O503 1.282 . S
O502 Cd494 2.277 . S
O502 C495 1.226 . S
O503 Cd494 2.356 . S
O503 C501 1.282 . S
C504 C505 1.369 . S
C504 C506 1.419 1_565 S
C504 H508 0.930 . S
C505 C504 1.369 . S
C505 C514 1.429 . S
C506 C504 1.419 1_545 S
C506 C507 1.363 . S
C506 H509 0.929 . S
C507 C506 1.363 . S
C507 C513 1.428 . S
H508 C504 0.930 . S
H509 C506 0.929 . S
S510 N511 1.613 . S
S510 N512 1.610 1_565 S
N511 S510 1.613 . S
N511 C514 1.350 . S
N512 S510 1.610 1_545 S
N512 C513 1.351 . S
C513 C507 1.428 . S
C513 N512 1.351 . S
C513 C514 1.434 1_545 S
C514 C505 1.429 . S
C514 N511 1.350 . S
C514 C513 1.434 1_565 S
C515 C516 1.369 . S
C515 C517 1.419 1_455 S
C515 H519 0.930 . S
C516 C515 1.369 . S
C516 C525 1.429 . S
C517 C515 1.419 1_655 S
C517 C518 1.363 . S
C517 H520 0.929 . S
C518 C517 1.363 . S
C518 C524 1.428 . S
H519 C515 0.930 . S
H520 C517 0.929 . S
S521 N522 1.613 . S
S521 N523 1.610 1_455 S
N522 S521 1.613 . S
N522 C525 1.350 . S
N523 S521 1.610 1_655 S
N523 C524 1.351 . S
C524 C518 1.428 . S
C524 N523 1.351 . S
C524 C525 1.434 1_655 S
C525 C516 1.429 . S
C525 N522 1.350 . S
C525 C524 1.434 1_455 S
C526 C527 1.369 . S
C526 C528 1.419 . S
C526 H530 0.930 . S
C527 C526 1.369 . S
C527 C536 1.429 . S
C528 C526 1.419 . S
C528 C529 1.363 . S
C528 H531 0.929 . S
C529 C528 1.363 . S
C529 C535 1.428 . S
H530 C526 0.930 . S
H531 C528 0.929 . S
S532 N533 1.613 . S
S532 N534 1.610 . S
N533 S532 1.613 . S
N533 C536 1.350 . S
N534 S532 1.610 . S
N534 C535 1.351 . S
C535 C529 1.428 . S
C535 N534 1.351 . S
C535 C536 1.434 . S
C536 C527 1.429 . S
C536 N533 1.350 . S
C536 C535 1.434 . S
C537 C538 1.369 . S
C537 C539 1.419 1_565 S
C537 H541 0.930 . S
C538 C537 1.369 . S
C538 C547 1.429 . S
C539 C537 1.419 1_545 S
C539 C540 1.363 . S
C539 H542 0.929 . S
C540 C539 1.363 . S
C540 C546 1.428 . S
H541 C537 0.930 . S
H542 C539 0.929 . S
S543 N544 1.613 . S
S543 N545 1.610 1_565 S
N544 S543 1.613 . S
N544 C547 1.350 . S
N545 S543 1.610 1_545 S
N545 C546 1.351 . S
C546 C540 1.428 . S
C546 N545 1.351 . S
C546 C547 1.434 1_545 S
C547 C538 1.429 . S
C547 N544 1.350 . S
C547 C546 1.434 1_565 S
C548 C549 1.369 . S
C548 C550 1.419 1_455 S
C548 H552 0.930 . S
C549 C548 1.369 . S
C549 C558 1.429 . S
C550 C548 1.419 1_655 S
C550 C551 1.363 . S
C550 H553 0.929 . S
C551 C550 1.363 . S
C551 C557 1.428 . S
H552 C548 0.930 . S
H553 C550 0.929 . S
S554 N555 1.613 . S
S554 N556 1.610 1_455 S
N555 S554 1.613 . S
N555 C558 1.350 . S
N556 S554 1.610 1_655 S
N556 C557 1.351 . S
C557 C551 1.428 . S
C557 N556 1.351 . S
C557 C558 1.434 1_655 S
C558 C549 1.429 . S
C558 N555 1.350 . S
C558 C557 1.434 1_455 S
C559 C560 1.369 . S
C559 C561 1.419 . S
C559 H563 0.930 . S
C560 C559 1.369 . S
C560 C569 1.429 . S
C561 C559 1.419 . S
C561 C562 1.363 . S
C561 H564 0.929 . S
C562 C561 1.363 . S
C562 C568 1.428 . S
H563 C559 0.930 . S
H564 C561 0.929 . S
S565 N566 1.613 . S
S565 N567 1.610 . S
N566 S565 1.613 . S
N566 C569 1.350 . S
N567 S565 1.610 . S
N567 C568 1.351 . S
C568 C562 1.428 . S
C568 N567 1.351 . S
C568 C569 1.434 . S
C569 C560 1.429 . S
C569 N566 1.350 . S
C569 C568 1.434 . S
C570 C571 1.369 1_455 S
C570 C572 1.419 1_455 S
C570 H574 0.930 . S
C571 C570 1.369 1_655 S
C571 C580 1.429 . S
C572 C570 1.419 1_655 S
C572 C573 1.363 . S
C572 H575 0.929 1_655 S
C573 C572 1.363 . S
C573 C579 1.428 . S
H574 C570 0.930 . S
H575 C572 0.929 1_455 S
S576 N577 1.613 . S
S576 N578 1.610 . S
N577 S576 1.613 . S
N577 C580 1.350 . S
N578 S576 1.610 . S
N578 C579 1.351 . S
C579 C573 1.428 . S
C579 N578 1.351 . S
C579 C580 1.434 . S
C580 C571 1.429 . S
C580 N577 1.350 . S
C580 C579 1.434 . S
C581 C582 1.369 . S
C581 C583 1.419 . S
C581 H585 0.930 . S
C582 C581 1.369 . S
C582 C591 1.429 . S
C583 C581 1.419 . S
C583 C584 1.363 . S
C583 H586 0.929 . S
C584 C583 1.363 . S
C584 C590 1.428 . S
H585 C581 0.930 . S
H586 C583 0.929 . S
S587 N588 1.613 . S
S587 N589 1.610 . S
N588 S587 1.613 . S
N588 C591 1.350 . S
N589 S587 1.610 . S
N589 C590 1.351 . S
C590 C584 1.428 . S
C590 N589 1.351 . S
C590 C591 1.434 . S
C591 C582 1.429 . S
C591 N588 1.350 . S
C591 C590 1.434 . S
C592 C593 1.369 . S
C592 C594 1.377 1_545 S
C592 H596 0.930 . S
C593 C592 1.369 . S
C593 C602 1.429 . S
C594 C592 1.377 1_565 S
C594 C595 1.371 1_565 S
C594 H597 0.966 . S
C595 C594 1.371 1_545 S
C595 C601 1.428 . S
H596 C592 0.930 . S
H597 C594 0.966 . S
S598 N599 1.613 . S
S598 N600 1.610 . S
N599 S598 1.613 . S
N599 C602 1.350 . S
N600 S598 1.610 . S
N600 C601 1.351 . S
C601 C595 1.428 . S
C601 N600 1.351 . S
C601 C602 1.434 . S
C602 C593 1.429 . S
C602 N599 1.350 . S
C602 C601 1.434 . S
C603 C604 1.369 . S
C603 C605 1.419 . S
C603 H607 0.930 . S
C604 C603 1.369 . S
C604 C613 1.429 . S
C605 C603 1.419 . S
C605 C606 1.363 . S
C605 H608 0.929 . S
C606 C605 1.363 . S
C606 C612 1.428 . S
H607 C603 0.930 . S
H608 C605 0.929 . S
S609 N610 1.613 . S
S609 N611 1.610 . S
N610 S609 1.613 . S
N610 C613 1.350 . S
N611 S609 1.610 . S
N611 C612 1.351 . S
C612 C606 1.428 . S
C612 N611 1.351 . S
C612 C613 1.434 . S
C613 C604 1.429 . S
C613 N610 1.350 . S
C613 C612 1.434 . S
C614 C615 1.388 . S
C614 C616 1.419 . S
C614 H618 0.912 1_545 S
C615 C614 1.388 . S
C615 C624 1.429 . S
C616 C614 1.419 . S
C616 C617 1.363 . S
C616 H619 0.929 . S
C617 C616 1.363 . S
C617 C623 1.428 . S
H618 C614 0.912 1_565 S
H619 C616 0.929 . S
S620 N621 1.613 1_556 S
S620 N622 1.610 1_556 S
N621 S620 1.613 1_554 S
N621 C624 1.350 . S
N622 S620 1.610 1_554 S
N622 C623 1.351 . S
C623 C617 1.428 . S
C623 N622 1.351 . S
C623 C624 1.434 . S
C624 C615 1.429 . S
C624 N621 1.350 . S
C624 C623 1.434 . S
C625 C626 1.369 . S
C625 C627 1.419 1_655 S
C625 H629 0.930 1_655 S
C626 C625 1.369 . S
C626 C635 1.429 . S
C627 C625 1.419 1_455 S
C627 C628 1.363 1_455 S
C627 H630 0.929 . S
C628 C627 1.363 1_655 S
C628 C634 1.428 . S
H629 C625 0.930 1_455 S
H630 C627 0.929 . S
S631 N632 1.613 . S
S631 N633 1.610 . S
N632 S631 1.613 . S
N632 C635 1.350 . S
N633 S631 1.610 . S
N633 C634 1.351 . S
C634 C628 1.428 . S
C634 N633 1.351 . S
C634 C635 1.434 . S
C635 C626 1.429 . S
C635 N632 1.350 . S
C635 C634 1.434 . S
C636 C637 1.369 . S
C636 C638 1.419 . S
C636 H640 0.930 . S
C637 C636 1.369 . S
C637 C646 1.429 . S
C638 C636 1.419 . S
C638 C639 1.363 . S
C638 H641 0.929 . S
C639 C638 1.363 . S
C639 C645 1.428 . S
H640 C636 0.930 . S
H641 C638 0.929 . S
S642 N643 1.613 . S
S642 N644 1.610 . S
N643 S642 1.613 . S
N643 C646 1.350 . S
N644 S642 1.610 . S
N644 C645 1.351 . S
C645 C639 1.428 . S
C645 N644 1.351 . S
C645 C646 1.434 . S
C646 C637 1.429 . S
C646 N643 1.350 . S
C646 C645 1.434 . S
C647 C648 1.369 . S
C647 C649 1.419 . S
C647 H651 0.929 1_565 S
C648 C647 1.369 . S
C648 C657 1.429 . S
C649 C647 1.419 . S
C649 C650 1.363 . S
C649 H652 0.929 . S
C650 C649 1.363 . S
C650 C656 1.428 . S
H651 C647 0.929 1_545 S
H652 C649 0.929 . S
S653 N654 1.613 . S
S653 N655 1.610 . S
N654 S653 1.613 . S
N654 C657 1.350 . S
N655 S653 1.610 . S
N655 C656 1.351 . S
C656 C650 1.428 . S
C656 N655 1.351 . S
C656 C657 1.434 . S
C657 C648 1.429 . S
C657 N654 1.350 . S
C657 C656 1.434 . S
C658 C659 1.369 . S
C658 C660 1.419 . S
C658 H662 0.930 . S
C659 C658 1.369 . S
C659 C668 1.429 . S
C660 C658 1.419 . S
C660 C661 1.363 . S
C660 H663 0.929 1_455 S
C661 C660 1.363 . S
C661 C667 1.428 . S
H662 C658 0.930 . S
H663 C660 0.929 1_655 S
S664 N665 1.613 1_554 S
S664 N666 1.610 . S
N665 S664 1.613 1_556 S
N665 C668 1.350 . S
N666 S664 1.610 . S
N666 C667 1.351 1_554 S
C667 C661 1.428 . S
C667 N666 1.351 1_556 S
C667 C668 1.434 . S
C668 C659 1.429 . S
C668 N665 1.350 . S
C668 C667 1.434 . S
C669 C670 1.369 . S
C669 C671 1.419 1_455 S
C669 H673 0.930 . S
C670 C669 1.369 . S
C670 C679 1.429 . S
C671 C669 1.419 1_655 S
C671 C672 1.363 1_655 S
C671 H674 0.929 . S
C672 C671 1.363 1_455 S
C672 C678 1.428 . S
H673 C669 0.930 . S
H674 C671 0.929 . S
S675 N676 1.613 . S
S675 N677 1.610 . S
N676 S675 1.613 . S
N676 C679 1.350 . S
N677 S675 1.610 . S
N677 C678 1.351 . S
C678 C672 1.428 . S
C678 N677 1.351 . S
C678 C679 1.434 . S
C679 C670 1.429 . S
C679 N676 1.350 . S
C679 C678 1.434 . S
C680 C681 1.369 . S
C680 C682 1.419 . S
C680 H684 0.930 . S
C681 C680 1.369 . S
C681 C690 1.429 . S
C682 C680 1.419 . S
C682 C683 1.363 . S
C682 H685 0.929 . S
C683 C682 1.363 . S
C683 C689 1.428 . S
H684 C680 0.930 . S
H685 C682 0.929 . S
S686 N687 1.613 . S
S686 N688 1.610 . S
N687 S686 1.613 . S
N687 C690 1.350 . S
N688 S686 1.610 . S
N688 C689 1.351 . S
C689 C683 1.428 . S
C689 N688 1.351 . S
C689 C690 1.434 . S
C690 C681 1.429 . S
C690 N687 1.350 . S
C690 C689 1.434 . S
C691 C692 1.369 . S
C691 C693 1.419 . S
C691 H695 0.930 . S
C692 C691 1.369 . S
C692 C701 1.429 . S
C693 C691 1.419 . S
C693 C694 1.363 . S
C693 H696 0.929 . S
C694 C693 1.363 . S
C694 C700 1.428 1_565 S
H695 C691 0.930 . S
H696 C693 0.929 . S
S697 N698 1.613 . S
S697 N699 1.610 . S
N698 S697 1.613 . S
N698 C701 1.350 1_545 S
N699 S697 1.610 . S
N699 C700 1.351 . S
C700 C694 1.428 1_545 S
C700 N699 1.351 . S
C700 C701 1.434 1_545 S
C701 C692 1.429 . S
C701 N698 1.350 1_565 S
C701 C700 1.434 1_565 S
C702 C703 1.369 . S
C702 C704 1.419 . S
C702 H706 0.930 . S
C703 C702 1.369 . S
C703 C712 1.429 . S
C704 C702 1.419 . S
C704 C705 1.363 . S
C704 H707 0.929 . S
C705 C704 1.363 . S
C705 C711 1.428 . S
H706 C702 0.930 . S
H707 C704 0.929 . S
S708 N709 1.613 . S
S708 N710 1.610 . S
N709 S708 1.613 . S
N709 C712 1.350 . S
N710 S708 1.610 . S
N710 C711 1.351 . S
C711 C705 1.428 . S
C711 N710 1.351 . S
C711 C712 1.434 . S
C712 C703 1.429 . S
C712 N709 1.350 . S
C712 C711 1.434 . S
C713 C714 1.369 . S
C713 C715 1.419 . S
C713 H717 0.930 . S
C714 C713 1.369 . S
C714 C723 1.429 . S
C715 C713 1.419 . S
C715 C716 1.363 . S
C715 H718 0.929 . S
C716 C715 1.363 . S
C716 C722 1.428 . S
H717 C713 0.930 . S
H718 C715 0.929 . S
S719 N720 1.613 . S
S719 N721 1.610 . S
N720 S719 1.613 . S
N720 C723 1.350 . S
N721 S719 1.610 . S
N721 C722 1.351 . S
C722 C716 1.428 . S
C722 N721 1.351 . S
C722 C723 1.434 . S
C723 C714 1.429 . S
C723 N720 1.350 . S
C723 C722 1.434 . S
C724 C725 1.369 . S
C724 C726 1.419 . S
C724 H728 0.930 . S
C725 C724 1.369 . S
C725 C734 1.429 . S
C726 C724 1.419 . S
C726 C727 1.363 . S
C726 H729 0.929 . S
C727 C726 1.363 . S
C727 C733 1.428 . S
H728 C724 0.930 . S
H729 C726 0.929 . S
S730 N731 1.613 . S
S730 N732 1.610 . S
N731 S730 1.613 . S
N731 C734 1.350 . S
N732 S730 1.610 . S
N732 C733 1.351 . S
C733 C727 1.428 . S
C733 N732 1.351 . S
C733 C734 1.434 . S
C734 C725 1.429 . S
C734 N731 1.350 . S
C734 C733 1.434 . S
C735 C736 1.369 . S
C735 C737 1.419 . S
C735 H739 0.930 . S
C736 C735 1.369 . S
C736 C745 1.429 . S
C737 C735 1.419 . S
C737 C738 1.363 . S
C737 H740 0.929 . S
C738 C737 1.363 . S
C738 C744 1.428 . S
H739 C735 0.930 . S
H740 C737 0.929 . S
S741 N742 1.613 . S
S741 N743 1.610 . S
N742 S741 1.613 . S
N742 C745 1.350 . S
N743 S741 1.610 . S
N743 C744 1.351 . S
C744 C738 1.428 . S
C744 N743 1.351 . S
C744 C745 1.434 . S
C745 C736 1.429 . S
C745 N742 1.350 . S
C745 C744 1.434 . S
C746 C747 1.369 . S
C746 C748 1.419 . S
C746 H750 0.930 . S
C747 C746 1.369 . S
C747 C756 1.429 . S
C748 C746 1.419 . S
C748 C749 1.363 . S
C748 H751 0.929 . S
C749 C748 1.363 . S
C749 C755 1.428 . S
H750 C746 0.930 . S
H751 C748 0.929 . S
S752 N753 1.613 . S
S752 N754 1.610 . S
N753 S752 1.613 . S
N753 C756 1.350 . S
N754 S752 1.610 . S
N754 C755 1.351 . S
C755 C749 1.428 . S
C755 N754 1.351 . S
C755 C756 1.434 . S
C756 C747 1.429 . S
C756 N753 1.350 . S
C756 C755 1.434 . S
C757 C758 1.369 . S
C757 C759 1.419 . S
C757 H761 0.930 . S
C758 C757 1.369 . S
C758 C767 1.429 . S
C759 C757 1.419 . S
C759 C760 1.363 . S
C759 H762 0.929 . S
C760 C759 1.363 . S
C760 C766 1.428 . S
H761 C757 0.930 . S
H762 C759 0.929 . S
S763 N764 1.613 . S
S763 N765 1.610 . S
N764 S763 1.613 . S
N764 C767 1.350 . S
N765 S763 1.610 . S
N765 C766 1.351 . S
C766 C760 1.428 . S
C766 N765 1.351 . S
C766 C767 1.434 . S
C767 C758 1.429 . S
C767 N764 1.350 . S
C767 C766 1.434 . S
C768 C769 1.369 . S
C768 C770 1.419 . S
C768 H772 0.930 . S
C769 C768 1.369 . S
C769 C778 1.429 . S
C770 C768 1.419 . S
C770 C771 1.363 . S
C770 H773 0.929 . S
C771 C770 1.363 . S
C771 C777 1.428 . S
H772 C768 0.930 . S
H773 C770 0.929 . S
S774 N775 1.613 . S
S774 N776 1.610 . S
N775 S774 1.613 . S
N775 C778 1.350 . S
N776 S774 1.610 . S
N776 C777 1.351 . S
C777 C771 1.428 . S
C777 N776 1.351 . S
C777 C778 1.434 . S
C778 C769 1.429 . S
C778 N775 1.350 . S
C778 C777 1.434 . S
C779 C780 1.369 . S
C779 C781 1.419 . S
C779 H783 0.930 . S
C780 C779 1.369 . S
C780 C789 1.429 . S
C781 C779 1.419 . S
C781 C782 1.363 . S
C781 H784 0.929 . S
C782 C781 1.363 . S
C782 C788 1.428 . S
H783 C779 0.930 . S
H784 C781 0.929 . S
S785 N786 1.613 . S
S785 N787 1.610 . S
N786 S785 1.613 . S
N786 C789 1.350 . S
N787 S785 1.610 . S
N787 C788 1.351 . S
C788 C782 1.428 . S
C788 N787 1.351 . S
C788 C789 1.434 . S
C789 C780 1.429 . S
C789 N786 1.350 . S
C789 C788 1.434 . S
C790 C791 1.369 . S
C790 C792 1.419 . S
C790 H794 0.930 . S
C791 C790 1.369 . S
C791 C800 1.429 . S
C792 C790 1.419 . S
C792 C793 1.363 . S
C792 H795 0.929 . S
C793 C792 1.363 . S
C793 C799 1.428 . S
H794 C790 0.930 . S
H795 C792 0.929 . S
S796 N797 1.613 . S
S796 N798 1.610 . S
N797 S796 1.613 . S
N797 C800 1.350 . S
N798 S796 1.610 . S
N798 C799 1.351 . S
C799 C793 1.428 . S
C799 N798 1.351 . S
C799 C800 1.434 . S
C800 C791 1.429 . S
C800 N797 1.350 . S
C800 C799 1.434 . S
C801 C802 1.369 . S
C801 C803 1.419 . S
C801 H805 0.930 . S
C802 C801 1.369 . S
C802 C811 1.429 . S
C803 C801 1.419 . S
C803 C804 1.363 . S
C803 H806 0.929 . S
C804 C803 1.363 . S
C804 C810 1.428 . S
H805 C801 0.930 . S
H806 C803 0.929 . S
S807 N808 1.613 . S
S807 N809 1.610 . S
N808 S807 1.613 . S
N808 C811 1.350 . S
N809 S807 1.610 . S
N809 C810 1.351 . S
C810 C804 1.428 . S
C810 N809 1.351 . S
C810 C811 1.434 . S
C811 C802 1.429 . S
C811 N808 1.350 . S
C811 C810 1.434 . S
C812 C813 1.369 . S
C812 C814 1.419 . S
C812 H816 0.930 . S
C813 C812 1.369 . S
C813 C822 1.429 . S
C814 C812 1.419 . S
C814 C815 1.363 . S
C814 H817 0.929 . S
C815 C814 1.363 . S
C815 C821 1.428 . S
H816 C812 0.930 . S
H817 C814 0.929 . S
S818 N819 1.613 1_556 S
S818 N820 1.610 . S
N819 S818 1.613 1_554 S
N819 C822 1.350 1_554 S
N820 S818 1.610 . S
N820 C821 1.351 . S
C821 C815 1.428 . S
C821 N820 1.351 . S
C821 C822 1.434 . S
C822 C813 1.429 . S
C822 N819 1.350 1_556 S
C822 C821 1.434 . S
C823 C824 1.369 . S
C823 C825 1.419 . S
C823 H827 0.930 . S
C824 C823 1.369 . S
C824 C833 1.429 . S
C825 C823 1.419 . S
C825 C826 1.363 . S
C825 H828 0.929 . S
C826 C825 1.363 . S
C826 C832 1.428 . S
H827 C823 0.930 . S
H828 C825 0.929 . S
S829 N830 1.613 1_554 S
S829 N831 1.610 . S
N830 S829 1.613 1_556 S
N830 C833 1.350 . S
N831 S829 1.610 . S
N831 C832 1.351 1_554 S
C832 C826 1.428 . S
C832 N831 1.351 1_556 S
C832 C833 1.434 . S
C833 C824 1.429 . S
C833 N830 1.350 . S
C833 C832 1.434 . S
C834 C835 1.369 . S
C834 C836 1.419 . S
C834 H838 0.930 . S
C835 C834 1.369 . S
C835 C844 1.429 1_455 S
C836 C834 1.419 . S
C836 C837 1.363 1_455 S
C836 H839 0.929 . S
C837 C836 1.363 1_655 S
C837 C843 1.428 . S
H838 C834 0.930 . S
H839 C836 0.929 . S
S840 N841 1.613 . S
S840 N842 1.610 . S
N841 S840 1.613 . S
N841 C844 1.350 . S
N842 S840 1.610 . S
N842 C843 1.351 . S
C843 C837 1.428 . S
C843 N842 1.351 . S
C843 C844 1.434 . S
C844 C835 1.429 1_655 S
C844 N841 1.350 . S
C844 C843 1.434 . S
C845 C846 1.369 . S
C845 C847 1.419 . S
C845 H849 0.930 . S
C846 C845 1.369 . S
C846 C855 1.429 . S
C847 C845 1.419 . S
C847 C848 1.363 . S
C847 H850 0.929 . S
C848 C847 1.363 . S
C848 C854 1.428 . S
H849 C845 0.930 . S
H850 C847 0.929 . S
S851 N852 1.613 . S
S851 N853 1.610 . S
N852 S851 1.613 . S
N852 C855 1.350 . S
N853 S851 1.610 . S
N853 C854 1.351 . S
C854 C848 1.428 . S
C854 N853 1.351 . S
C854 C855 1.434 . S
C855 C846 1.429 . S
C855 N852 1.350 . S
C855 C854 1.434 . S
C856 C857 1.369 . S
C856 C858 1.419 1_545 S
C856 H860 0.930 . S
C857 C856 1.369 . S
C857 C866 1.429 . S
C858 C856 1.419 1_565 S
C858 C859 1.363 . S
C858 H861 0.929 . S
C859 C858 1.363 . S
C859 C865 1.428 . S
H860 C856 0.930 . S
H861 C858 0.929 . S
S862 N863 1.604 1_565 S
S862 N864 1.610 . S
N863 S862 1.604 1_545 S
N863 C866 1.354 . S
N864 S862 1.610 . S
N864 C865 1.351 . S
C865 C859 1.428 . S
C865 N864 1.351 . S
C865 C866 1.434 1_565 S
C866 C857 1.429 . S
C866 N863 1.354 . S
C866 C865 1.434 1_545 S
C867 C868 1.369 . S
C867 C869 1.419 1_565 S
C867 H871 0.947 . S
C868 C867 1.369 . S
C868 C877 1.429 . S
C869 C867 1.419 1_545 S
C869 C870 1.363 . S
C869 H872 0.929 . S
C870 C869 1.363 . S
C870 C876 1.436 . S
H871 C867 0.947 . S
H872 C869 0.929 . S
S873 N874 1.613 . S
S873 N875 1.610 . S
N874 S873 1.613 . S
N874 C877 1.350 . S
N875 S873 1.610 . S
N875 C876 1.348 1_565 S
C876 C870 1.436 . S
C876 N875 1.348 1_545 S
C876 C877 1.429 1_545 S
C877 C868 1.429 . S
C877 N874 1.350 . S
C877 C876 1.429 1_565 S
C878 C879 1.369 1_455 S
C878 C880 1.419 . S
C878 H882 0.930 . S
C879 C878 1.369 1_655 S
C879 C888 1.429 . S
C880 C878 1.419 . S
C880 C881 1.363 . S
C880 H883 0.929 . S
C881 C880 1.363 . S
C881 C887 1.428 1_455 S
H882 C878 0.930 . S
H883 C880 0.929 . S
S884 N885 1.613 . S
S884 N886 1.610 . S
N885 S884 1.613 . S
N885 C888 1.350 . S
N886 S884 1.610 . S
N886 C887 1.351 . S
C887 C881 1.428 1_655 S
C887 N886 1.351 . S
C887 C888 1.434 . S
C888 C879 1.429 . S
C888 N885 1.350 . S
C888 C887 1.434 . S
C889 C890 1.369 . S
C889 C891 1.419 . S
C889 H893 0.930 . S
C890 C889 1.369 . S
C890 C899 1.429 . S
C891 C889 1.419 . S
C891 C892 1.363 . S
C891 H894 0.929 . S
C892 C891 1.363 . S
C892 C898 1.428 . S
H893 C889 0.930 . S
H894 C891 0.929 . S
S895 N896 1.613 . S
S895 N897 1.610 . S
N896 S895 1.613 . S
N896 C899 1.350 . S
N897 S895 1.610 . S
N897 C898 1.351 . S
C898 C892 1.428 . S
C898 N897 1.351 . S
C898 C899 1.434 . S
C899 C890 1.429 . S
C899 N896 1.350 . S
C899 C898 1.434 . S
C900 C901 1.369 . S
C900 C902 1.419 . S
C900 H904 0.930 . S
C901 C900 1.369 . S
C901 C910 1.429 . S
C902 C900 1.419 . S
C902 C903 1.363 . S
C902 H905 0.929 . S
C903 C902 1.363 . S
C903 C909 1.428 . S
H904 C900 0.930 . S
H905 C902 0.929 . S
S906 N907 1.613 . S
S906 N908 1.610 . S
N907 S906 1.613 . S
N907 C910 1.350 . S
N908 S906 1.610 . S
N908 C909 1.351 . S
C909 C903 1.428 . S
C909 N908 1.351 . S
C909 C910 1.434 . S
C910 C901 1.429 . S
C910 N907 1.350 . S
C910 C909 1.434 . S
C911 C912 1.369 . S
C911 C913 1.419 . S
C911 H915 0.930 . S
C912 C911 1.369 . S
C912 C921 1.429 . S
C913 C911 1.419 . S
C913 C914 1.363 . S
C913 H916 0.929 . S
C914 C913 1.363 . S
C914 C920 1.428 . S
H915 C911 0.930 . S
H916 C913 0.929 . S
S917 N918 1.613 . S
S917 N919 1.610 . S
N918 S917 1.613 . S
N918 C921 1.350 . S
N919 S917 1.610 . S
N919 C920 1.351 . S
C920 C914 1.428 . S
C920 N919 1.351 . S
C920 C921 1.434 . S
C921 C912 1.429 . S
C921 N918 1.350 . S
C921 C920 1.434 . S
C922 C923 1.369 . S
C922 C924 1.419 . S
C922 H926 0.930 . S
C923 C922 1.369 . S
C923 C932 1.429 . S
C924 C922 1.419 . S
C924 C925 1.363 . S
C924 H927 0.929 . S
C925 C924 1.363 . S
C925 C931 1.428 . S
H926 C922 0.930 . S
H927 C924 0.929 . S
S928 N929 1.613 . S
S928 N930 1.610 . S
N929 S928 1.613 . S
N929 C932 1.350 . S
N930 S928 1.610 . S
N930 C931 1.351 . S
C931 C925 1.428 . S
C931 N930 1.351 . S
C931 C932 1.434 . S
C932 C923 1.429 . S
C932 N929 1.350 . S
C932 C931 1.434 . S
C933 C934 1.369 . S
C933 C935 1.419 . S
C933 H937 0.930 . S
C934 C933 1.369 . S
C934 C943 1.429 . S
C935 C933 1.419 . S
C935 C936 1.363 . S
C935 H938 0.929 . S
C936 C935 1.363 . S
C936 C942 1.428 . S
H937 C933 0.930 . S
H938 C935 0.929 . S
S939 N940 1.613 . S
S939 N941 1.610 . S
N940 S939 1.613 . S
N940 C943 1.350 . S
N941 S939 1.610 . S
N941 C942 1.351 . S
C942 C936 1.428 . S
C942 N941 1.351 . S
C942 C943 1.434 . S
C943 C934 1.429 . S
C943 N940 1.350 . S
C943 C942 1.434 . S
C944 C945 1.369 . S
C944 C946 1.419 . S
C944 H948 0.930 . S
C945 C944 1.369 . S
C945 C954 1.429 . S
C946 C944 1.419 . S
C946 C947 1.363 . S
C946 H949 0.929 . S
C947 C946 1.363 . S
C947 C953 1.428 . S
H948 C944 0.930 . S
H949 C946 0.929 . S
S950 N951 1.613 . S
S950 N952 1.610 . S
N951 S950 1.613 . S
N951 C954 1.350 . S
N952 S950 1.610 . S
N952 C953 1.351 . S
C953 C947 1.428 . S
C953 N952 1.351 . S
C953 C954 1.434 . S
C954 C945 1.429 . S
C954 N951 1.350 . S
C954 C953 1.434 . S
C955 C956 1.369 . S
C955 C957 1.419 . S
C955 H959 0.930 . S
C956 C955 1.369 . S
C956 C965 1.429 . S
C957 C955 1.419 . S
C957 C958 1.363 . S
C957 H960 0.929 . S
C958 C957 1.363 . S
C958 C964 1.428 . S
H959 C955 0.930 . S
H960 C957 0.929 . S
S961 N962 1.613 . S
S961 N963 1.610 . S
N962 S961 1.613 . S
N962 C965 1.350 . S
N963 S961 1.610 . S
N963 C964 1.351 . S
C964 C958 1.428 . S
C964 N963 1.351 . S
C964 C965 1.434 . S
C965 C956 1.429 . S
C965 N962 1.350 . S
C965 C964 1.434 . S
C966 C967 1.369 . S
C966 C968 1.419 . S
C966 H970 0.930 . S
C967 C966 1.369 . S
C967 C976 1.429 . S
C968 C966 1.419 . S
C968 C969 1.363 . S
C968 H971 0.929 . S
C969 C968 1.363 . S
C969 C975 1.428 . S
H970 C966 0.930 . S
H971 C968 0.929 . S
S972 N973 1.613 . S
S972 N974 1.610 . S
N973 S972 1.613 . S
N973 C976 1.350 . S
N974 S972 1.610 . S
N974 C975 1.351 . S
C975 C969 1.428 . S
C975 N974 1.351 . S
C975 C976 1.434 . S
C976 C967 1.429 . S
C976 N973 1.350 . S
C976 C975 1.434 . S
C977 C978 1.369 . S
C977 C979 1.419 . S
C977 H981 0.930 . S
C978 C977 1.369 . S
C978 C987 1.429 . S
C979 C977 1.419 . S
C979 C980 1.363 . S
C979 H982 0.929 . S
C980 C979 1.363 . S
C980 C986 1.428 . S
H981 C977 0.930 . S
H982 C979 0.929 . S
S983 N984 1.613 . S
S983 N985 1.610 . S
N984 S983 1.613 . S
N984 C987 1.350 . S
N985 S983 1.610 . S
N985 C986 1.351 . S
C986 C980 1.428 . S
C986 N985 1.351 . S
C986 C987 1.434 . S
C987 C978 1.429 . S
C987 N984 1.350 . S
C987 C986 1.434 . S
C988 C989 1.369 . S
C988 C990 1.419 . S
C988 H992 0.930 . S
C989 C988 1.369 . S
C989 C998 1.429 . S
C990 C988 1.419 . S
C990 C991 1.363 . S
C990 H993 0.929 . S
C991 C990 1.363 . S
C991 C997 1.428 . S
H992 C988 0.930 . S
H993 C990 0.929 . S
S994 N995 1.613 . S
S994 N996 1.610 . S
N995 S994 1.613 . S
N995 C998 1.350 . S
N996 S994 1.610 . S
N996 C997 1.351 . S
C997 C991 1.428 . S
C997 N996 1.351 . S
C997 C998 1.434 . S
C998 C989 1.429 . S
C998 N995 1.350 . S
C998 C997 1.434 . S
C999 C1000 1.369 . S
C999 C1001 1.419 . S
C999 H1003 0.930 . S
C1000 C999 1.369 . S
C1000 C1009 1.429 . S
C1001 C999 1.419 . S
C1001 C1002 1.363 . S
C1001 H1004 0.929 . S
C1002 C1001 1.363 . S
C1002 C1008 1.428 . S
H1003 C999 0.930 . S
H1004 C1001 0.929 . S
S1005 N1006 1.613 . S
S1005 N1007 1.610 . S
N1006 S1005 1.613 . S
N1006 C1009 1.350 . S
N1007 S1005 1.610 . S
N1007 C1008 1.351 . S
C1008 C1002 1.428 . S
C1008 N1007 1.351 . S
C1008 C1009 1.434 . S
C1009 C1000 1.429 . S
C1009 N1006 1.350 . S
C1009 C1008 1.434 . S
C1010 C1011 1.369 . S
C1010 C1012 1.419 . S
C1010 H1014 0.930 . S
C1011 C1010 1.369 . S
C1011 C1020 1.429 . S
C1012 C1010 1.419 . S
C1012 C1013 1.363 . S
C1012 H1015 0.929 . S
C1013 C1012 1.363 . S
C1013 C1019 1.428 . S
H1014 C1010 0.930 . S
H1015 C1012 0.929 . S
S1016 N1017 1.613 . S
S1016 N1018 1.610 . S
N1017 S1016 1.613 . S
N1017 C1020 1.350 . S
N1018 S1016 1.610 . S
N1018 C1019 1.351 . S
C1019 C1013 1.428 . S
C1019 N1018 1.351 . S
C1019 C1020 1.434 . S
C1020 C1011 1.429 . S
C1020 N1017 1.350 . S
C1020 C1019 1.434 . S
C1021 C1022 1.369 . S
C1021 C1023 1.419 . S
C1021 H1025 0.930 . S
C1022 C1021 1.369 . S
C1022 C1031 1.429 . S
C1023 C1021 1.419 . S
C1023 C1024 1.363 . S
C1023 H1026 0.929 . S
C1024 C1023 1.363 . S
C1024 C1030 1.428 . S
H1025 C1021 0.930 . S
H1026 C1023 0.929 . S
S1027 N1028 1.613 . S
S1027 N1029 1.610 . S
N1028 S1027 1.613 . S
N1028 C1031 1.350 . S
N1029 S1027 1.610 . S
N1029 C1030 1.351 . S
C1030 C1024 1.428 . S
C1030 N1029 1.351 . S
C1030 C1031 1.434 . S
C1031 C1022 1.429 . S
C1031 N1028 1.350 . S
C1031 C1030 1.434 . S
C1032 C1033 1.369 . S
C1032 C1034 1.419 . S
C1032 H1036 0.930 . S
C1033 C1032 1.369 . S
C1033 C1042 1.429 1_455 S
C1034 C1032 1.419 . S
C1034 C1035 1.363 1_455 S
C1034 H1037 0.929 . S
C1035 C1034 1.363 1_655 S
C1035 C1041 1.428 . S
H1036 C1032 0.930 . S
H1037 C1034 0.929 . S
S1038 N1039 1.613 . S
S1038 N1040 1.610 . S
N1039 S1038 1.613 . S
N1039 C1042 1.350 . S
N1040 S1038 1.610 . S
N1040 C1041 1.351 . S
C1041 C1035 1.428 . S
C1041 N1040 1.351 . S
C1041 C1042 1.434 . S
C1042 C1033 1.429 1_655 S
C1042 N1039 1.350 . S
C1042 C1041 1.434 . S
C1043 C1044 1.369 . S
C1043 C1045 1.419 . S
C1043 H1047 0.930 . S
C1044 C1043 1.369 . S
C1044 C1053 1.429 . S
C1045 C1043 1.419 . S
C1045 C1046 1.363 . S
C1045 H1048 0.929 . S
C1046 C1045 1.363 . S
C1046 C1052 1.428 . S
H1047 C1043 0.930 . S
H1048 C1045 0.929 . S
S1049 N1050 1.613 . S
S1049 N1051 1.610 . S
N1050 S1049 1.613 . S
N1050 C1053 1.350 . S
N1051 S1049 1.610 . S
N1051 C1052 1.351 . S
C1052 C1046 1.428 . S
C1052 N1051 1.351 . S
C1052 C1053 1.434 . S
C1053 C1044 1.429 . S
C1053 N1050 1.350 . S
C1053 C1052 1.434 . S
C1054 C1055 1.369 1_565 S
C1054 C1056 1.419 . S
C1054 H1058 0.930 . S
C1055 C1054 1.369 1_545 S
C1055 C1064 1.429 . S
C1056 C1054 1.419 . S
C1056 C1057 1.363 . S
C1056 H1059 0.929 . S
C1057 C1056 1.363 . S
C1057 C1063 1.428 1_565 S
H1058 C1054 0.930 . S
H1059 C1056 0.929 . S
S1060 N1061 1.613 . S
S1060 N1062 1.610 . S
N1061 S1060 1.613 . S
N1061 C1064 1.350 . S
N1062 S1060 1.610 . S
N1062 C1063 1.351 . S
C1063 C1057 1.428 1_545 S
C1063 N1062 1.351 . S
C1063 C1064 1.434 . S
C1064 C1055 1.429 . S
C1064 N1061 1.350 . S
C1064 C1063 1.434 . S
C1065 C1066 1.369 1_565 S
C1065 C1067 1.419 . S
C1065 H1069 0.930 . S
C1066 C1065 1.369 1_545 S
C1066 C1075 1.429 1_556 S
C1067 C1065 1.419 . S
C1067 C1068 1.363 1_556 S
C1067 H1070 0.929 . S
C1068 C1067 1.363 1_554 S
C1068 C1074 1.428 1_565 S
H1069 C1065 0.930 . S
H1070 C1067 0.929 . S
S1071 N1072 1.613 . S
S1071 N1073 1.610 . S
N1072 S1071 1.613 . S
N1072 C1075 1.350 . S
N1073 S1071 1.610 . S
N1073 C1074 1.351 . S
C1074 C1068 1.428 1_545 S
C1074 N1073 1.351 . S
C1074 C1075 1.434 . S
C1075 C1066 1.429 1_554 S
C1075 N1072 1.350 . S
C1075 C1074 1.434 . S
C1076 C1077 1.369 . S
C1076 C1078 1.419 1_554 S
C1076 H1080 0.930 . S
C1077 C1076 1.369 . S
C1077 C1086 1.429 1_455 S
C1078 C1076 1.419 1_556 S
C1078 C1079 1.363 1_455 S
C1078 H1081 0.929 . S
C1079 C1078 1.363 1_655 S
C1079 C1085 1.428 . S
H1080 C1076 0.930 . S
H1081 C1078 0.929 . S
S1082 N1083 1.613 . S
S1082 N1084 1.617 . S
N1083 S1082 1.613 . S
N1083 C1086 1.350 . S
N1084 S1082 1.617 . S
N1084 C1085 1.350 1_554 S
C1085 C1079 1.428 . S
C1085 N1084 1.350 1_556 S
C1085 C1086 1.434 1_556 S
C1086 C1077 1.429 1_655 S
C1086 N1083 1.350 . S
C1086 C1085 1.434 1_554 S
C1087 C1088 1.369 . S
C1087 C1089 1.419 . S
C1087 H1091 0.930 . S
C1088 C1087 1.369 . S
C1088 C1097 1.429 1_554 S
C1089 C1087 1.419 . S
C1089 C1090 1.363 1_554 S
C1089 H1092 0.929 . S
C1090 C1089 1.363 1_556 S
C1090 C1096 1.428 . S
H1091 C1087 0.930 . S
H1092 C1089 0.929 . S
S1093 N1094 1.613 . S
S1093 N1095 1.610 . S
N1094 S1093 1.613 . S
N1094 C1097 1.350 . S
N1095 S1093 1.610 . S
N1095 C1096 1.351 . S
C1096 C1090 1.428 . S
C1096 N1095 1.351 . S
C1096 C1097 1.434 . S
C1097 C1088 1.429 1_556 S
C1097 N1094 1.350 . S
C1097 C1096 1.434 . S
C1098 C1099 1.369 . S
C1098 C1100 1.419 . S
C1098 H1102 0.930 . S
C1099 C1098 1.369 . S
C1099 C1108 1.429 . S
C1100 C1098 1.419 . S
C1100 C1101 1.363 . S
C1100 H1103 0.929 . S
C1101 C1100 1.363 . S
C1101 C1107 1.428 . S
H1102 C1098 0.930 . S
H1103 C1100 0.929 . S
S1104 N1105 1.613 . S
S1104 N1106 1.610 . S
N1105 S1104 1.613 . S
N1105 C1108 1.350 . S
N1106 S1104 1.610 . S
N1106 C1107 1.351 . S
C1107 C1101 1.428 . S
C1107 N1106 1.351 . S
C1107 C1108 1.434 . S
C1108 C1099 1.429 . S
C1108 N1105 1.350 . S
C1108 C1107 1.434 . S
C1109 C1110 1.369 . S
C1109 C1111 1.419 . S
C1109 H1113 0.930 . S
C1110 C1109 1.369 . S
C1110 C1119 1.429 . S
C1111 C1109 1.419 . S
C1111 C1112 1.363 . S
C1111 H1114 0.929 . S
C1112 C1111 1.363 . S
C1112 C1118 1.428 . S
H1113 C1109 0.930 . S
H1114 C1111 0.929 . S
S1115 N1116 1.613 . S
S1115 N1117 1.610 . S
N1116 S1115 1.613 . S
N1116 C1119 1.350 . S
N1117 S1115 1.610 . S
N1117 C1118 1.351 . S
C1118 C1112 1.428 . S
C1118 N1117 1.351 . S
C1118 C1119 1.434 . S
C1119 C1110 1.429 . S
C1119 N1116 1.350 . S
C1119 C1118 1.434 . S
C1120 C1121 1.369 . S
C1120 C1122 1.419 . S
C1120 H1124 0.930 . S
C1121 C1120 1.369 . S
C1121 C1130 1.429 . S
C1122 C1120 1.419 . S
C1122 C1123 1.363 . S
C1122 H1125 0.929 . S
C1123 C1122 1.363 . S
C1123 C1129 1.428 . S
H1124 C1120 0.930 . S
H1125 C1122 0.929 . S
S1126 N1127 1.613 . S
S1126 N1128 1.610 . S
N1127 S1126 1.613 . S
N1127 C1130 1.350 . S
N1128 S1126 1.610 . S
N1128 C1129 1.351 . S
C1129 C1123 1.428 . S
C1129 N1128 1.351 . S
C1129 C1130 1.434 . S
C1130 C1121 1.429 . S
C1130 N1127 1.350 . S
C1130 C1129 1.434 . S
C1131 C1132 1.369 . S
C1131 C1133 1.419 . S
C1131 H1135 0.930 . S
C1132 C1131 1.369 . S
C1132 C1141 1.429 . S
C1133 C1131 1.419 . S
C1133 C1134 1.363 . S
C1133 H1136 0.929 . S
C1134 C1133 1.363 . S
C1134 C1140 1.428 . S
H1135 C1131 0.930 . S
H1136 C1133 0.929 . S
S1137 N1138 1.613 . S
S1137 N1139 1.610 . S
N1138 S1137 1.613 . S
N1138 C1141 1.350 . S
N1139 S1137 1.610 . S
N1139 C1140 1.351 . S
C1140 C1134 1.428 . S
C1140 N1139 1.351 . S
C1140 C1141 1.434 . S
C1141 C1132 1.429 . S
C1141 N1138 1.350 . S
C1141 C1140 1.434 . S
C1142 C1143 1.369 . S
C1142 C1144 1.419 . S
C1142 H1146 0.930 . S
C1143 C1142 1.369 . S
C1143 C1152 1.429 . S
C1144 C1142 1.419 . S
C1144 C1145 1.363 . S
C1144 H1147 0.929 . S
C1145 C1144 1.363 . S
C1145 C1151 1.428 . S
H1146 C1142 0.930 . S
H1147 C1144 0.929 . S
S1148 N1149 1.613 . S
S1148 N1150 1.610 . S
N1149 S1148 1.613 . S
N1149 C1152 1.350 . S
N1150 S1148 1.610 . S
N1150 C1151 1.351 . S
C1151 C1145 1.428 . S
C1151 N1150 1.351 . S
C1151 C1152 1.434 . S
C1152 C1143 1.429 . S
C1152 N1149 1.350 . S
C1152 C1151 1.434 . S
C1153 C1154 1.369 . S
C1153 C1155 1.419 . S
C1153 H1157 0.930 . S
C1154 C1153 1.369 . S
C1154 C1163 1.429 . S
C1155 C1153 1.419 . S
C1155 C1156 1.363 . S
C1155 H1158 0.929 . S
C1156 C1155 1.363 . S
C1156 C1162 1.428 . S
H1157 C1153 0.930 . S
H1158 C1155 0.929 . S
S1159 N1160 1.613 . S
S1159 N1161 1.610 . S
N1160 S1159 1.613 . S
N1160 C1163 1.350 . S
N1161 S1159 1.610 . S
N1161 C1162 1.351 . S
C1162 C1156 1.428 . S
C1162 N1161 1.351 . S
C1162 C1163 1.434 . S
C1163 C1154 1.429 . S
C1163 N1160 1.350 . S
C1163 C1162 1.434 . S
C1164 C1165 1.369 . S
C1164 C1166 1.419 . S
C1164 H1168 0.930 . S
C1165 C1164 1.369 . S
C1165 C1174 1.429 . S
C1166 C1164 1.419 . S
C1166 C1167 1.363 . S
C1166 H1169 0.929 . S
C1167 C1166 1.363 . S
C1167 C1173 1.428 . S
H1168 C1164 0.930 . S
H1169 C1166 0.929 . S
S1170 N1171 1.613 . S
S1170 N1172 1.610 . S
N1171 S1170 1.613 . S
N1171 C1174 1.350 . S
N1172 S1170 1.610 . S
N1172 C1173 1.351 . S
C1173 C1167 1.428 . S
C1173 N1172 1.351 . S
C1173 C1174 1.434 . S
C1174 C1165 1.429 . S
C1174 N1171 1.350 . S
C1174 C1173 1.434 . S
C1175 C1176 1.369 . S
C1175 C1177 1.419 . S
C1175 H1179 0.930 . S
C1176 C1175 1.369 . S
C1176 C1185 1.429 . S
C1177 C1175 1.419 . S
C1177 C1178 1.363 . S
C1177 H1180 0.929 . S
C1178 C1177 1.363 . S
C1178 C1184 1.428 . S
H1179 C1175 0.930 . S
H1180 C1177 0.929 . S
S1181 N1182 1.613 . S
S1181 N1183 1.610 . S
N1182 S1181 1.613 . S
N1182 C1185 1.350 . S
N1183 S1181 1.610 . S
N1183 C1184 1.351 . S
C1184 C1178 1.428 . S
C1184 N1183 1.351 . S
C1184 C1185 1.434 . S
C1185 C1176 1.429 . S
C1185 N1182 1.350 . S
C1185 C1184 1.434 . S
C1186 C1187 1.369 . S
C1186 C1188 1.419 . S
C1186 H1190 0.930 . S
C1187 C1186 1.369 . S
C1187 C1196 1.429 . S
C1188 C1186 1.419 . S
C1188 C1189 1.363 . S
C1188 H1191 0.929 . S
C1189 C1188 1.363 . S
C1189 C1195 1.428 . S
H1190 C1186 0.930 . S
H1191 C1188 0.929 . S
S1192 N1193 1.613 . S
S1192 N1194 1.610 . S
N1193 S1192 1.613 . S
N1193 C1196 1.350 . S
N1194 S1192 1.610 . S
N1194 C1195 1.351 . S
C1195 C1189 1.428 . S
C1195 N1194 1.351 . S
C1195 C1196 1.434 . S
C1196 C1187 1.429 . S
C1196 N1193 1.350 . S
C1196 C1195 1.434 . S
C1197 C1198 1.369 . S
C1197 C1199 1.419 . S
C1197 H1201 0.930 . S
C1198 C1197 1.369 . S
C1198 C1207 1.429 . S
C1199 C1197 1.419 . S
C1199 C1200 1.363 . S
C1199 H1202 0.929 . S
C1200 C1199 1.363 . S
C1200 C1206 1.428 . S
H1201 C1197 0.930 . S
H1202 C1199 0.929 . S
S1203 N1204 1.613 . S
S1203 N1205 1.610 . S
N1204 S1203 1.613 . S
N1204 C1207 1.350 . S
N1205 S1203 1.610 . S
N1205 C1206 1.351 . S
C1206 C1200 1.428 . S
C1206 N1205 1.351 . S
C1206 C1207 1.434 . S
C1207 C1198 1.429 . S
C1207 N1204 1.350 . S
C1207 C1206 1.434 . S
C1208 C1209 1.369 . S
C1208 C1210 1.419 . S
C1208 H1212 0.930 . S
C1209 C1208 1.369 . S
C1209 C1218 1.429 . S
C1210 C1208 1.419 . S
C1210 C1211 1.363 . S
C1210 H1213 0.929 . S
C1211 C1210 1.363 . S
C1211 C1217 1.428 . S
H1212 C1208 0.930 . S
H1213 C1210 0.929 . S
S1214 N1215 1.613 . S
S1214 N1216 1.610 . S
N1215 S1214 1.613 . S
N1215 C1218 1.350 . S
N1216 S1214 1.610 . S
N1216 C1217 1.351 . S
C1217 C1211 1.428 . S
C1217 N1216 1.351 . S
C1217 C1218 1.434 . S
C1218 C1209 1.429 . S
C1218 N1215 1.350 . S
C1218 C1217 1.434 . S
C1219 C1220 1.369 . S
C1219 C1221 1.419 . S
C1219 H1223 0.930 . S
C1220 C1219 1.369 . S
C1220 C1229 1.429 . S
C1221 C1219 1.419 . S
C1221 C1222 1.363 . S
C1221 H1224 0.929 . S
C1222 C1221 1.363 . S
C1222 C1228 1.428 . S
H1223 C1219 0.930 . S
H1224 C1221 0.929 . S
S1225 N1226 1.613 . S
S1225 N1227 1.610 . S
N1226 S1225 1.613 . S
N1226 C1229 1.350 . S
N1227 S1225 1.610 . S
N1227 C1228 1.351 . S
C1228 C1222 1.428 . S
C1228 N1227 1.351 . S
C1228 C1229 1.434 . S
C1229 C1220 1.429 . S
C1229 N1226 1.350 . S
C1229 C1228 1.434 . S
C1230 C1231 1.369 . S
C1230 C1232 1.419 . S
C1230 H1234 0.930 . S
C1231 C1230 1.369 . S
C1231 C1240 1.429 . S
C1232 C1230 1.419 . S
C1232 C1233 1.363 . S
C1232 H1235 0.929 . S
C1233 C1232 1.363 . S
C1233 C1239 1.428 . S
H1234 C1230 0.930 . S
H1235 C1232 0.929 . S
S1236 N1237 1.613 . S
S1236 N1238 1.610 . S
N1237 S1236 1.613 . S
N1237 C1240 1.350 . S
N1238 S1236 1.610 . S
N1238 C1239 1.351 . S
C1239 C1233 1.428 . S
C1239 N1238 1.351 . S
C1239 C1240 1.434 . S
C1240 C1231 1.429 . S
C1240 N1237 1.350 . S
C1240 C1239 1.434 . S
C1241 C1242 1.369 . S
C1241 C1243 1.419 . S
C1241 H1245 0.930 . S
C1242 C1241 1.369 . S
C1242 C1251 1.429 1_545 S
C1243 C1241 1.419 . S
C1243 C1244 1.363 1_545 S
C1243 H1246 0.929 . S
C1244 C1243 1.363 1_565 S
C1244 C1250 1.428 . S
H1245 C1241 0.930 . S
H1246 C1243 0.929 . S
S1247 N1248 1.613 . S
S1247 N1249 1.610 . S
N1248 S1247 1.613 . S
N1248 C1251 1.350 . S
N1249 S1247 1.610 . S
N1249 C1250 1.351 . S
C1250 C1244 1.428 . S
C1250 N1249 1.351 . S
C1250 C1251 1.434 . S
C1251 C1242 1.429 1_565 S
C1251 N1248 1.350 . S
C1251 C1250 1.434 . S
C1252 C1253 1.369 1_455 S
C1252 C1254 1.419 . S
C1252 H1256 0.930 . S
C1253 C1252 1.369 1_655 S
C1253 C1262 1.429 . S
C1254 C1252 1.419 . S
C1254 C1255 1.363 . S
C1254 H1257 0.929 . S
C1255 C1254 1.363 . S
C1255 C1261 1.428 1_455 S
H1256 C1252 0.930 . S
H1257 C1254 0.929 . S
S1258 N1259 1.613 . S
S1258 N1260 1.610 . S
N1259 S1258 1.613 . S
N1259 C1262 1.350 . S
N1260 S1258 1.610 . S
N1260 C1261 1.351 . S
C1261 C1255 1.428 1_655 S
C1261 N1260 1.351 . S
C1261 C1262 1.434 . S
C1262 C1253 1.429 . S
C1262 N1259 1.350 . S
C1262 C1261 1.434 . S
C1263 C1264 1.369 . S
C1263 C1265 1.419 . S
C1263 H1267 0.930 . S
C1264 C1263 1.369 . S
C1264 C1273 1.429 . S
C1265 C1263 1.419 . S
C1265 C1266 1.363 . S
C1265 H1268 0.929 . S
C1266 C1265 1.363 . S
C1266 C1272 1.428 . S
H1267 C1263 0.930 . S
H1268 C1265 0.929 . S
S1269 N1270 1.613 . S
S1269 N1271 1.610 . S
N1270 S1269 1.613 . S
N1270 C1273 1.350 . S
N1271 S1269 1.610 . S
N1271 C1272 1.351 . S
C1272 C1266 1.428 . S
C1272 N1271 1.351 . S
C1272 C1273 1.434 . S
C1273 C1264 1.429 . S
C1273 N1270 1.350 . S
C1273 C1272 1.434 . S
C1274 C1275 1.369 . S
C1274 C1276 1.419 1_545 S
C1274 H1278 0.930 . S
C1275 C1274 1.369 . S
C1275 C1284 1.429 . S
C1276 C1274 1.419 1_565 S
C1276 C1277 1.363 . S
C1276 H1279 0.929 . S
C1277 C1276 1.363 . S
C1277 C1283 1.428 . S
H1278 C1274 0.930 . S
H1279 C1276 0.929 . S
S1280 N1281 1.613 . S
S1280 N1282 1.610 1_545 S
N1281 S1280 1.613 . S
N1281 C1284 1.350 . S
N1282 S1280 1.610 1_565 S
N1282 C1283 1.351 . S
C1283 C1277 1.428 . S
C1283 N1282 1.351 . S
C1283 C1284 1.434 1_565 S
C1284 C1275 1.429 . S
C1284 N1281 1.350 . S
C1284 C1283 1.434 1_545 S
C1285 C1286 1.369 . S
C1285 C1287 1.419 . S
C1285 H1289 0.930 . S
C1286 C1285 1.369 . S
C1286 C1295 1.429 1_455 S
C1287 C1285 1.419 . S
C1287 C1288 1.363 1_455 S
C1287 H1290 0.929 . S
C1288 C1287 1.363 1_655 S
C1288 C1294 1.428 . S
H1289 C1285 0.930 . S
H1290 C1287 0.929 . S
S1291 N1292 1.613 . S
S1291 N1293 1.610 . S
N1292 S1291 1.613 . S
N1292 C1295 1.350 . S
N1293 S1291 1.610 . S
N1293 C1294 1.351 . S
C1294 C1288 1.428 . S
C1294 N1293 1.351 . S
C1294 C1295 1.434 . S
C1295 C1286 1.429 1_655 S
C1295 N1292 1.350 . S
C1295 C1294 1.434 . S
C505 C75 0.994 . S
C507 C5 0.995 . S
C516 C47 0.994 . S
C518 C19 0.995 . S
C527 C33 0.995 . S
C529 C61 0.995 . S
C538 C89 0.992 . S
C540 C159 0.994 . S
C549 C103 0.995 . S
C551 C131 0.995 . S
C560 C145 0.992 . S
C562 C117 0.993 . S
C571 C173 0.995 1_655 S
C573 C243 0.995 . S
C582 C187 0.995 . S
C584 C215 0.993 . S
C593 C229 0.993 . S
C595 C201 0.995 1_545 S
C604 C327 0.994 . S
C606 C257 0.995 . S
C615 C299 0.995 1_545 S
C617 C271 0.993 . S
C626 C285 0.995 . S
C628 C313 0.995 1_655 S
C637 C411 0.993 . S
C639 C341 0.995 . S
C648 C383 0.993 1_565 S
C650 C355 0.995 . S
C659 C369 0.993 . S
C661 C397 0.995 1_455 S
C670 C495 0.996 . S
C672 C425 0.994 1_455 S
C681 C467 0.992 . S
C683 C439 0.994 . S
C692 C481 0.992 . S
C694 C453 0.993 1_565 S
C703 C233 1.736 . S
C705 C9 1.724 . S
C714 C247 1.728 . S
C716 C23 1.731 . S
C725 C219 1.723 . S
C727 C37 1.735 . S
C736 C51 1.736 . S
C738 C373 1.725 1_554 S
C747 C65 1.734 . S
C749 C345 1.727 1_554 S
C758 C79 1.730 . S
C760 C359 1.728 1_554 S
C769 C93 1.724 . S
C771 C485 1.734 . S
C780 C499 1.733 . S
C782 C107 1.727 . S
C791 C471 1.736 . S
C793 C121 1.725 . S
C802 C289 1.732 1_556 S
C804 C135 1.727 . S
C813 C261 1.725 1_556 S
C815 C149 1.732 . S
C824 C163 1.735 . S
C826 C275 1.725 1_556 S
C835 C177 1.724 . S
C837 C401 1.734 . S
C846 C415 1.734 . S
C848 C191 1.727 . S
C857 C387 1.728 . S
C859 C205 1.732 . S
C868 C303 1.735 . S
C870 C457 1.725 . S
C879 C429 1.736 . S
C881 C317 1.724 . S
C890 C331 1.731 . S
C892 C443 1.729 . S
C901 C263 1.546 . S
C903 C11 1.551 . S
C912 C277 1.550 . S
C914 C25 1.549 . S
C923 C39 1.551 . S
C925 C291 1.547 . S
C934 C53 1.552 . S
C936 C473 1.547 . S
C945 C487 1.547 . S
C947 C67 1.551 . S
C956 C501 1.552 . S
C958 C81 1.547 . S
C967 C95 1.548 . S
C969 C347 1.550 . S
C978 C109 1.547 . S
C980 C361 1.551 . S
C989 C375 1.548 . S
C991 C123 1.550 . S
C1000 C137 1.546 . S
C1002 C221 1.551 . S
C1011 C151 1.550 . S
C1013 C235 1.548 . S
C1022 C249 1.552 . S
C1024 C165 1.547 . S
C1033 C179 1.546 . S
C1035 C431 1.551 . S
C1044 C193 1.548 . S
C1046 C445 1.550 . S
C1055 C459 1.552 . S
C1057 C207 1.547 . S
C1066 C389 1.552 . S
C1068 C305 1.547 . S
C1077 C319 1.546 . S
C1079 C403 1.551 . S
C1088 C333 1.548 . S
C1090 C417 1.549 . S
C1099 C378 1.687 1_554 S
C1101 C0 1.687 . S
C1110 C14 1.692 . S
C1112 C392 1.691 1_554 S
C1121 C406 1.684 1_554 S
C1123 C28 1.685 . S
C1132 C42 1.687 . S
C1134 C168 1.687 . S
C1143 C182 1.689 . S
C1145 C56 1.689 . S
C1154 C196 1.686 . S
C1156 C70 1.686 . S
C1165 C84 1.690 . S
C1167 C294 1.690 1_556 S
C1176 C308 1.689 1_556 S
C1178 C98 1.689 . S
C1187 C112 1.690 . S
C1189 C322 1.690 1_556 S
C1198 C126 1.685 . S
C1200 C420 1.686 . S
C1209 C140 1.690 . S
C1211 C434 1.689 . S
C1220 C448 1.691 . S
C1222 C154 1.691 . S
C1231 C210 1.689 . S
C1233 C336 1.688 . S
C1242 C224 1.686 . S
C1244 C350 1.686 . S
C1253 C238 1.686 . S
C1255 C364 1.687 . S
C1264 C252 1.692 . S
C1266 C462 1.691 . S
C1275 C266 1.692 . S
C1277 C476 1.691 . S
C1286 C490 1.684 . S
C1288 C280 1.685 . S
