# Generated by pormake.
# Topology uov, (4)-cn, num edge types: 1
# Building blocks:
#     Node 0, Type 0, BuildingBlock: QUQFOY_clean_sbu_1, # of connection points: 4
#     Node 1, Type 0, BuildingBlock: QUQFOY_clean_sbu_1, # of connection points: 4
#     Node 2, Type 0, BuildingBlock: QUQFOY_clean_sbu_1, # of connection points: 4
#     Node 3, Type 0, BuildingBlock: QUQFOY_clean_sbu_1, # of connection points: 4
#     Node 4, Type 0, BuildingBlock: QUQFOY_clean_sbu_1, # of connection points: 4
#     Node 5, Type 0, BuildingBlock: QUQFOY_clean_sbu_1, # of connection points: 4
#     Node 6, Type 0, BuildingBlock: QUQFOY_clean_sbu_1, # of connection points: 4
#     Node 7, Type 0, BuildingBlock: QUQFOY_clean_sbu_1, # of connection points: 4
#     Edge 8, Type (0, 0), BuildingBlock: AJUNOK_clean_linker_0, # of connection points: 2
#     Edge 9, Type (0, 0), BuildingBlock: AJUNOK_clean_linker_0, # of connection points: 2
#     Edge 10, Type (0, 0), BuildingBlock: AJUNOK_clean_linker_0, # of connection points: 2
#     Edge 11, Type (0, 0), BuildingBlock: AJUNOK_clean_linker_0, # of connection points: 2
#     Edge 12, Type (0, 0), BuildingBlock: AJUNOK_clean_linker_0, # of connection points: 2
#     Edge 13, Type (0, 0), BuildingBlock: AJUNOK_clean_linker_0, # of connection points: 2
#     Edge 14, Type (0, 0), BuildingBlock: AJUNOK_clean_linker_0, # of connection points: 2
#     Edge 15, Type (0, 0), BuildingBlock: AJUNOK_clean_linker_0, # of connection points: 2
#     Edge 16, Type (0, 0), BuildingBlock: AJUNOK_clean_linker_0, # of connection points: 2
#     Edge 17, Type (0, 0), BuildingBlock: AJUNOK_clean_linker_0, # of connection points: 2
#     Edge 18, Type (0, 0), BuildingBlock: AJUNOK_clean_linker_0, # of connection points: 2
#     Edge 19, Type (0, 0), BuildingBlock: AJUNOK_clean_linker_0, # of connection points: 2
#     Edge 20, Type (0, 0), BuildingBlock: AJUNOK_clean_linker_0, # of connection points: 2
#     Edge 21, Type (0, 0), BuildingBlock: AJUNOK_clean_linker_0, # of connection points: 2
#     Edge 22, Type (0, 0), BuildingBlock: AJUNOK_clean_linker_0, # of connection points: 2
#     Edge 23, Type (0, 0), BuildingBlock: AJUNOK_clean_linker_0, # of connection points: 2
# Relax obj value: 0.029
# Max RMSD: 0.047
# Mean RMSD: 0.047
data_MOF--net-uov--node1-QUQFOY_clean_sbu_1--edge1-AJUNOK_clean_linker_0
_symmetry_space_group_name_H-M    P1
_symmetry_Int_Tables_number       1
_symmetry_cell_setting            triclinic
loop_
_symmetry_equiv_pos_as_xyz
'x, y, z'
_cell_length_a     24.346633
_cell_length_b     24.362866
_cell_length_c     33.380939
_cell_angle_alpha  89.926396
_cell_angle_beta   89.988522
_cell_angle_gamma 90.080437
loop_
_atom_site_label
_atom_site_type_symbol
_atom_site_fract_x
_atom_site_fract_y
_atom_site_fract_z
_atom_type_partial_charge
O0 O 0.95431 0.23601 0.57277 0.0
Cd1 Cd 0.02442 0.28088 0.58162 0.0
Cd2 Cd 0.05852 0.18263 0.62342 0.0
O3 O 0.98361 0.15838 0.59944 0.0
O4 O 0.0046 0.34942 0.55307 0.0
O5 O 0.02727 0.34892 0.61691 0.0
C6 C 0.01332 0.37638 0.58546 0.0
C7 C 0.08483 0.14765 0.68643 0.0
C8 C 0.94757 0.18531 0.58 0.0
C9 C 0.12408 0.21951 0.55167 0.0
O10 O 0.12101 0.18822 0.58208 0.0
O11 O 0.08899 0.25712 0.54588 0.0
O12 O 0.0791 0.11622 0.65581 0.0
O13 O 0.07456 0.19923 0.68185 0.0
O14 O 0.25553 0.04975 0.45586 0.0
Cd15 Cd 0.28081 0.97331 0.43891 0.0
Cd16 Cd 0.18694 0.99017 0.39617 0.0
O17 O 0.20035 0.07263 0.40672 0.0
O18 O 0.35042 0.97303 0.46977 0.0
O19 O 0.34915 0.96962 0.40394 0.0
C20 C 0.37708 0.97454 0.4366 0.0
C21 C 0.15699 0.95673 0.33408 0.0
C22 C 0.22663 0.08558 0.43823 0.0
C23 C 0.18481 0.91643 0.46928 0.0
O24 O 0.15882 0.94868 0.44608 0.0
O25 O 0.23661 0.91117 0.46629 0.0
O26 O 0.12584 0.98698 0.35608 0.0
O27 O 0.20609 0.94649 0.34669 0.0
O28 O 0.03388 0.75555 0.57167 0.0
Cd29 Cd 0.96548 0.70817 0.5809 0.0
Cd30 Cd 0.93032 0.80602 0.62387 0.0
O31 O 0.00577 0.83133 0.60138 0.0
O32 O 0.98864 0.64094 0.55214 0.0
O33 O 0.96608 0.63962 0.61587 0.0
C34 C 0.98218 0.61324 0.58452 0.0
C35 C 0.90139 0.8418 0.68599 0.0
C36 C 0.04116 0.80566 0.58052 0.0
C37 C 0.86476 0.76796 0.55176 0.0
O38 O 0.8689 0.79988 0.58171 0.0
O39 O 0.89936 0.72991 0.54594 0.0
O40 O 0.90796 0.87272 0.65514 0.0
O41 O 0.91234 0.79026 0.68219 0.0
O42 O 0.73175 0.93859 0.4572 0.0
Cd43 Cd 0.70831 0.01549 0.43944 0.0
Cd44 Cd 0.80058 -0.00228 0.39658 0.0
O45 O 0.78682 0.91549 0.40805 0.0
O46 O 0.63807 0.01988 0.46941 0.0
O47 O 0.64114 0.02087 0.40352 0.0
C48 C 0.61217 0.0197 0.43589 0.0
C49 C 0.82695 0.03126 0.33369 0.0
C50 C 0.76052 0.90262 0.43961 0.0
C51 C 0.80561 0.07304 0.46803 0.0
O52 O 0.83112 0.03991 0.44527 0.0
O53 O 0.7537 0.0777 0.46561 0.0
O54 O 0.85925 0.00072 0.35463 0.0
O55 O 0.77859 0.04148 0.34776 0.0
O56 O 0.02952 0.2458 0.0776 0.0
Cd57 Cd 0.95685 0.28269 0.09142 0.0
Cd58 Cd 0.9411 0.17578 0.12828 0.0
O59 O 0.02116 0.1656 0.10795 0.0
O60 O 0.96969 0.35387 0.06432 0.0
O61 O 0.95413 0.34844 0.12914 0.0
C62 C 0.96403 0.3783 0.09805 0.0
C63 C 0.9123 0.13369 0.18854 0.0
C64 C 0.04835 0.19865 0.08595 0.0
C65 C 0.86996 0.20985 0.05727 0.0
O66 O 0.88283 0.17441 0.08359 0.0
O67 O 0.89318 0.2564 0.05601 0.0
O68 O 0.92537 0.10541 0.15747 0.0
O69 O 0.91722 0.18637 0.18601 0.0
O70 O 0.24824 0.94478 0.95698 0.0
Cd71 Cd 0.27746 0.02036 0.94233 0.0
Cd72 Cd 0.17836 0.02032 0.9017 0.0
O73 O 0.17563 0.93802 0.91816 0.0
O74 O 0.34906 0.01436 0.96992 0.0
O75 O 0.34287 0.02498 0.90462 0.0
C76 C 0.37314 0.01685 0.93576 0.0
C77 C 0.15635 0.05179 0.83734 0.0
C78 C 0.20765 0.91735 0.94426 0.0
C79 C 0.19158 0.0949 0.97364 0.0
O80 O 0.15994 0.07404 0.94746 0.0
O81 O 0.24211 0.08235 0.97518 0.0
O82 O 0.11947 0.03093 0.86052 0.0
O83 O 0.20655 0.05263 0.84991 0.0
O84 O 0.95582 0.74602 0.07766 0.0
Cd85 Cd 0.02592 0.70725 0.09501 0.0
Cd86 Cd 0.03783 0.8165 0.12906 0.0
O87 O 0.95837 0.82662 0.10762 0.0
O88 O 0.00986 0.6383 0.06595 0.0
O89 O 0.02155 0.63943 0.13108 0.0
C90 C 0.00951 0.61212 0.09923 0.0
C91 C 0.06691 0.85735 0.1895 0.0
C92 C 0.93485 0.79266 0.08426 0.0
C93 C 0.11248 0.77936 0.06054 0.0
O94 O 0.09605 0.81653 0.08436 0.0
O95 O 0.09243 0.7313 0.06147 0.0
O96 O 0.05412 0.88633 0.15863 0.0
O97 O 0.06138 0.80476 0.18667 0.0
O98 O 0.73173 0.04392 0.95591 0.0
Cd99 Cd 0.70308 0.9682 0.9414 0.0
Cd100 Cd 0.80054 0.97063 0.89857 0.0
O101 O 0.80215 0.05281 0.91517 0.0
O102 O 0.63171 0.97287 0.96942 0.0
O103 O 0.6375 0.96317 0.90401 0.0
C104 C 0.60739 0.97061 0.93533 0.0
C105 C 0.82393 0.93965 0.83441 0.0
C106 C 0.77107 0.07238 0.94227 0.0
C107 C 0.79104 0.89482 0.97049 0.0
O108 O 0.82106 0.91681 0.94374 0.0
O109 O 0.74037 0.90634 0.97333 0.0
O110 O 0.85998 0.96169 0.85764 0.0
O111 O 0.77363 0.93766 0.84669 0.0
C112 C 0.98766 0.52266 0.6207 0.0
C113 C 0.99223 0.55314 0.58494 0.0
C114 C -0.00425 0.4655 0.62108 0.0
C115 C 0.008 0.43687 0.58563 0.0
H116 H 0.97741 0.54295 0.64856 0.0
H117 H 0.99116 0.44351 0.64911 0.0
S118 S 0.0281 0.49753 0.48456 0.0
N119 N 0.01259 0.55011 0.51346 0.0
N120 N 0.02726 0.44345 0.5143 0.0
C121 C 0.01377 0.46696 0.54991 0.0
C122 C 0.00603 0.52488 0.54953 0.0
C123 C 0.52457 -0.00597 0.40063 0.0
C124 C 0.55159 0.01296 0.43528 0.0
C125 C 0.46821 0.9812 0.40117 0.0
C126 C 0.43693 0.98654 0.43643 0.0
H127 H 0.54732 0.98775 0.37313 0.0
H128 H 0.44922 0.96643 0.37388 0.0
S129 S 0.48719 0.03957 0.53425 0.0
N130 N 0.5418 0.04005 0.50503 0.0
N131 N 0.43677 0.01573 0.50623 0.0
C132 C 0.4633 0.00689 0.47096 0.0
C133 C 0.52033 0.0202 0.47032 0.0
C134 C 0.9918 0.46421 0.1344 0.0
C135 C 0.97015 0.43852 0.10013 0.0
C136 C 0.00385 0.52071 0.13436 0.0
C137 C -0.00558 0.55316 0.10009 0.0
H138 H 0.00133 0.44022 0.16084 0.0
H139 H 0.02181 0.53873 0.16096 0.0
S140 S 0.93082 0.50627 1.00476 0.0
N141 N 0.9348 0.45047 0.03262 0.0
N142 N 0.95686 0.55594 0.03241 0.0
C143 C 0.97023 0.52811 0.06639 0.0
C144 C 0.95823 0.47097 0.06646 0.0
C145 C 0.46262 0.00068 0.96923 0.0
C146 C 0.43307 0.00693 0.93333 0.0
C147 C 0.5183 0.98763 0.96915 0.0
C148 C 0.5474 0.98033 0.93316 0.0
H149 H 0.44263 0.0056 0.998 0.0
H150 H 0.53867 0.98363 0.99785 0.0
S151 S 0.48953 0.99195 0.83063 0.0
N152 N 0.43693 0.00453 0.8605 0.0
N153 N 0.54253 0.98037 0.86033 0.0
C154 C 0.51863 0.98639 0.89683 0.0
C155 C 0.46135 -0.00026 0.89692 0.0
C156 C 0.16492 0.16551 0.45114 0.0
C157 C 0.21309 0.13637 0.46057 0.0
C158 C 0.13934 0.19883 0.47981 0.0
C159 C 0.16093 0.20348 0.51876 0.0
H160 H 0.14376 0.15829 0.42308 0.0
H161 H 0.09947 0.21602 0.47275 0.0
S162 S 0.29432 0.14964 0.55434 0.0
N163 N 0.28832 0.12586 0.50824 0.0
N164 N 0.23851 0.18641 0.56251 0.0
C165 C 0.21264 0.18092 0.52665 0.0
C166 C 0.23934 0.14805 0.4973 0.0
C167 C 0.16105 0.83384 0.51072 0.0
C168 C 0.1545 0.88987 0.50231 0.0
C169 C 0.12674 0.80738 0.53858 0.0
C170 C 0.08547 0.83633 0.55948 0.0
H171 H 0.19071 0.80976 0.49414 0.0
H172 H 0.13092 0.76341 0.54234 0.0
S173 S 0.05927 0.98635 0.55278 0.0
N174 N 0.10893 0.97502 0.52017 0.0
N175 N 0.04537 0.92605 0.57302 0.0
C176 C 0.08208 0.8935 0.55364 0.0
C177 C 0.11626 0.92004 0.52482 0.0
C178 C 0.82145 0.82177 0.45172 0.0
C179 C 0.774 0.85164 0.46189 0.0
C180 C 0.84745 0.78808 0.48003 0.0
C181 C 0.82697 0.78372 0.51933 0.0
H182 H 0.84186 0.82868 0.42332 0.0
H183 H 0.8869 0.77042 0.47239 0.0
S184 S 0.6954 0.83932 0.55695 0.0
N185 N 0.70037 0.86312 0.51074 0.0
N186 N 0.7509 0.80173 0.56424 0.0
C187 C 0.77576 0.8069 0.52797 0.0
C188 C 0.74867 0.84024 0.49902 0.0
C189 C 0.88143 0.07448 0.51777 0.0
C190 C 0.83664 0.10148 0.49992 0.0
C191 C 0.91417 0.10054 0.54644 0.0
C192 C 0.90424 0.15523 0.55781 0.0
H193 H 0.89191 0.03296 0.50906 0.0
H194 H 0.9495 0.07856 0.5579 0.0
S195 S 0.78892 0.24241 0.52258 0.0
N196 N 0.78099 0.18409 0.49802 0.0
N197 N 0.84374 0.23418 0.55113 0.0
C198 C 0.85795 0.1819 0.54157 0.0
C199 C 0.82385 0.15477 0.51284 0.0
C200 C 0.76137 0.1319 1.0024 0.0
C201 C 0.7871 0.12214 0.96511 0.0
C202 C 0.78598 0.16512 0.0314 0.0
C203 C 0.83582 0.19166 0.02359 0.0
H204 H 0.72463 0.10969 1.01098 0.0
H205 H 0.7679 0.16695 0.06105 0.0
S206 S 0.91357 0.19049 0.92814 0.0
N207 N 0.86094 0.14911 0.92001 0.0
N208 N 0.90597 0.21356 0.97432 0.0
C209 C 0.85833 0.18826 0.9849 0.0
C210 C 0.8341 0.15313 0.95558 0.0
C211 C 0.1401 0.17676 0.99638 0.0
C212 C 0.16688 0.12763 1.00577 0.0
C213 C 0.10588 0.20231 0.02437 0.0
C214 C 0.09567 0.17847 0.06225 0.0
H215 H 0.14357 0.19413 0.96658 0.0
H216 H 0.08404 0.23879 0.01488 0.0
S217 S 0.16028 0.0519 0.102 0.0
N218 N 0.18538 0.05818 0.05622 0.0
N219 N 0.11917 0.10505 0.10858 0.0
C220 C 0.12485 0.13082 0.07269 0.0
C221 C 0.16086 0.1056 0.04444 0.0
C222 C 0.19623 0.82232 0.0327 0.0
C223 C 0.14554 0.79685 0.02612 0.0
C224 C 0.21967 0.85601 1.00337 0.0
C225 C 0.19191 0.86735 0.96708 0.0
H226 H 0.2159 0.81943 0.06176 0.0
H227 H 0.25727 0.87736 1.01105 0.0
S228 S 0.06166 0.80287 0.93362 0.0
N229 N 0.07181 0.77811 0.97911 0.0
N230 N 0.11464 0.84335 0.92424 0.0
C231 C 0.14373 0.83758 0.95872 0.0
C232 C 0.12067 0.80202 0.98833 0.0
C233 C 0.81829 0.87774 0.04122 0.0
C234 C 0.81769 0.86058 1.00099 0.0
C235 C 0.85437 0.85376 0.06904 0.0
C236 C 0.88981 0.81102 0.0576 0.0
H237 H 0.79354 0.91238 0.05055 0.0
H238 H 0.85607 0.87017 0.09917 0.0
S239 S 0.89982 0.74901 0.95595 0.0
N240 N 0.85283 0.79736 0.95138 0.0
N241 N 0.91904 0.75047 1.00335 0.0
C242 C 0.8866 0.7913 0.01784 0.0
C243 C 0.85097 0.81664 0.98957 0.0
C244 C 0.08276 0.07368 0.73832 0.0
C245 C 0.10329 0.12465 0.72522 0.0
C246 C 0.10025 0.05031 0.77462 0.0
C247 C 0.14049 0.07603 0.79833 0.0
H248 H 0.05228 0.05209 0.72068 0.0
H249 H 0.08252 0.01156 0.78401 0.0
S250 S 0.20833 0.20922 0.77675 0.0
N251 N 0.16585 0.20011 0.73873 0.0
N252 N 0.2006 0.15502 0.80604 0.0
C253 C 0.16209 0.12649 0.78519 0.0
C254 C 0.14297 0.15114 0.74888 0.0
C255 C 0.1207 0.85266 0.25363 0.0
C256 C 0.08937 0.88362 0.22626 0.0
C257 C 0.1441 0.87701 0.28779 0.0
C258 C 0.13575 0.93285 0.2964 0.0
H259 H 0.12785 0.80938 0.24841 0.0
H260 H 0.16774 0.85164 0.30812 0.0
S261 S 0.05876 0.03263 0.23424 0.0
N262 N 0.05351 0.9741 0.2096 0.0
N263 N 0.09506 0.01875 0.27477 0.0
C264 C 0.10454 0.96427 0.2695 0.0
C265 C 0.08203 0.93997 0.23417 0.0
C266 C 0.90012 0.91722 0.73659 0.0
C267 C 0.8813 0.86535 0.72412 0.0
C268 C 0.8811 0.94113 0.77223 0.0
C269 C 0.84099 0.91501 0.79587 0.0
H270 H 0.93049 0.93911 0.71899 0.0
H271 H 0.89762 0.98057 0.7812 0.0
S272 S 0.77734 0.77943 0.77583 0.0
N273 N 0.82045 0.78861 0.73817 0.0
N274 N 0.78288 0.83464 0.80424 0.0
C275 C 0.82107 0.86363 0.78336 0.0
C276 C 0.84174 0.83848 0.74773 0.0
C277 C 0.83889 0.11213 0.28825 0.0
C278 C 0.84634 0.05583 0.2957 0.0
C279 C 0.86118 0.13717 0.25391 0.0
C280 C 0.89054 0.10652 0.22526 0.0
H281 H 0.81695 0.13731 0.30965 0.0
H282 H 0.8549 0.18079 0.24966 0.0
S283 S 0.91761 0.95649 0.22986 0.0
N284 N 0.88365 0.96978 0.27154 0.0
N285 N 0.92327 0.01577 0.20614 0.0
C286 C 0.89682 0.04971 0.232 0.0
C287 C 0.87536 0.02466 0.26745 0.0
loop_
_geom_bond_atom_site_label_1
_geom_bond_atom_site_label_2
_geom_bond_distance
_geom_bond_site_symmetry_2
_ccdc_geom_bond_type
O0 Cd1 2.223 . S
O0 C8 1.315 . S
Cd1 O0 2.223 . S
Cd1 O4 2.297 . S
Cd1 O5 2.439 . S
Cd1 O11 2.240 . S
Cd2 O3 2.240 . S
Cd2 O10 2.223 . S
Cd2 O12 2.297 . S
Cd2 O13 2.439 . S
O3 Cd2 2.240 . S
O3 C8 1.279 . S
O4 Cd1 2.297 . S
O4 C6 1.247 . S
O5 Cd1 2.439 . S
O5 C6 1.208 . S
C6 O4 1.247 . S
C6 O5 1.208 . S
C7 O12 1.247 . S
C7 O13 1.208 . S
C8 O0 1.315 . S
C8 O3 1.279 . S
C9 O10 1.315 . S
C9 O11 1.279 . S
O10 Cd2 2.223 . S
O10 C9 1.315 . S
O11 Cd1 2.240 . S
O11 C9 1.279 . S
O12 Cd2 2.297 . S
O12 C7 1.247 . S
O13 Cd2 2.439 . S
O13 C7 1.208 . S
O14 Cd15 2.223 . S
O14 C22 1.315 . S
Cd15 O14 2.223 . S
Cd15 O18 2.297 . S
Cd15 O19 2.439 . S
Cd15 O25 2.240 . S
Cd16 O17 2.240 . S
Cd16 O24 2.223 . S
Cd16 O26 2.297 . S
Cd16 O27 2.439 . S
O17 Cd16 2.240 . S
O17 C22 1.279 . S
O18 Cd15 2.297 . S
O18 C20 1.247 . S
O19 Cd15 2.439 . S
O19 C20 1.208 . S
C20 O18 1.247 . S
C20 O19 1.208 . S
C21 O26 1.247 . S
C21 O27 1.208 . S
C22 O14 1.315 . S
C22 O17 1.279 . S
C23 O24 1.315 . S
C23 O25 1.279 . S
O24 Cd16 2.223 . S
O24 C23 1.315 . S
O25 Cd15 2.240 . S
O25 C23 1.279 . S
O26 Cd16 2.297 . S
O26 C21 1.247 . S
O27 Cd16 2.439 . S
O27 C21 1.208 . S
O28 Cd29 2.223 . S
O28 C36 1.315 . S
Cd29 O28 2.223 . S
Cd29 O32 2.297 . S
Cd29 O33 2.439 . S
Cd29 O39 2.240 . S
Cd30 O31 2.240 . S
Cd30 O38 2.223 . S
Cd30 O40 2.297 . S
Cd30 O41 2.439 . S
O31 Cd30 2.240 . S
O31 C36 1.279 . S
O32 Cd29 2.297 . S
O32 C34 1.247 . S
O33 Cd29 2.439 . S
O33 C34 1.208 . S
C34 O32 1.247 . S
C34 O33 1.208 . S
C35 O40 1.247 . S
C35 O41 1.208 . S
C36 O28 1.315 . S
C36 O31 1.279 . S
C37 O38 1.315 . S
C37 O39 1.279 . S
O38 Cd30 2.223 . S
O38 C37 1.315 . S
O39 Cd29 2.240 . S
O39 C37 1.279 . S
O40 Cd30 2.297 . S
O40 C35 1.247 . S
O41 Cd30 2.439 . S
O41 C35 1.208 . S
O42 Cd43 2.223 . S
O42 C50 1.315 . S
Cd43 O42 2.223 . S
Cd43 O46 2.297 . S
Cd43 O47 2.439 . S
Cd43 O53 2.240 . S
Cd44 O45 2.240 . S
Cd44 O52 2.223 . S
Cd44 O54 2.297 . S
Cd44 O55 2.439 . S
O45 Cd44 2.240 . S
O45 C50 1.279 . S
O46 Cd43 2.297 . S
O46 C48 1.247 . S
O47 Cd43 2.439 . S
O47 C48 1.208 . S
C48 O46 1.247 . S
C48 O47 1.208 . S
C49 O54 1.247 . S
C49 O55 1.208 . S
C50 O42 1.315 . S
C50 O45 1.279 . S
C51 O52 1.315 . S
C51 O53 1.279 . S
O52 Cd44 2.223 . S
O52 C51 1.315 . S
O53 Cd43 2.240 . S
O53 C51 1.279 . S
O54 Cd44 2.297 . S
O54 C49 1.247 . S
O55 Cd44 2.439 . S
O55 C49 1.208 . S
O56 Cd57 2.223 . S
O56 C64 1.315 . S
Cd57 O56 2.223 . S
Cd57 O60 2.297 . S
Cd57 O61 2.439 . S
Cd57 O67 2.240 . S
Cd58 O59 2.240 . S
Cd58 O66 2.223 . S
Cd58 O68 2.297 . S
Cd58 O69 2.439 . S
O59 Cd58 2.240 . S
O59 C64 1.279 . S
O60 Cd57 2.297 . S
O60 C62 1.247 . S
O61 Cd57 2.439 . S
O61 C62 1.208 . S
C62 O60 1.247 . S
C62 O61 1.208 . S
C63 O68 1.247 . S
C63 O69 1.208 . S
C64 O56 1.315 . S
C64 O59 1.279 . S
C65 O66 1.315 . S
C65 O67 1.279 . S
O66 Cd58 2.223 . S
O66 C65 1.315 . S
O67 Cd57 2.240 . S
O67 C65 1.279 . S
O68 Cd58 2.297 . S
O68 C63 1.247 . S
O69 Cd58 2.439 . S
O69 C63 1.208 . S
O70 Cd71 2.223 . S
O70 C78 1.315 . S
Cd71 O70 2.223 . S
Cd71 O74 2.297 . S
Cd71 O75 2.439 . S
Cd71 O81 2.240 . S
Cd72 O73 2.240 . S
Cd72 O80 2.223 . S
Cd72 O82 2.297 . S
Cd72 O83 2.439 . S
O73 Cd72 2.240 . S
O73 C78 1.279 . S
O74 Cd71 2.297 . S
O74 C76 1.247 . S
O75 Cd71 2.439 . S
O75 C76 1.208 . S
C76 O74 1.247 . S
C76 O75 1.208 . S
C77 O82 1.247 . S
C77 O83 1.208 . S
C78 O70 1.315 . S
C78 O73 1.279 . S
C79 O80 1.315 . S
C79 O81 1.279 . S
O80 Cd72 2.223 . S
O80 C79 1.315 . S
O81 Cd71 2.240 . S
O81 C79 1.279 . S
O82 Cd72 2.297 . S
O82 C77 1.247 . S
O83 Cd72 2.439 . S
O83 C77 1.208 . S
O84 Cd85 2.223 . S
O84 C92 1.315 . S
Cd85 O84 2.223 . S
Cd85 O88 2.297 . S
Cd85 O89 2.439 . S
Cd85 O95 2.240 . S
Cd86 O87 2.240 . S
Cd86 O94 2.223 . S
Cd86 O96 2.297 . S
Cd86 O97 2.439 . S
O87 Cd86 2.240 . S
O87 C92 1.279 . S
O88 Cd85 2.297 . S
O88 C90 1.247 . S
O89 Cd85 2.439 . S
O89 C90 1.208 . S
C90 O88 1.247 . S
C90 O89 1.208 . S
C91 O96 1.247 . S
C91 O97 1.208 . S
C92 O84 1.315 . S
C92 O87 1.279 . S
C93 O94 1.315 . S
C93 O95 1.279 . S
O94 Cd86 2.223 . S
O94 C93 1.315 . S
O95 Cd85 2.240 . S
O95 C93 1.279 . S
O96 Cd86 2.297 . S
O96 C91 1.247 . S
O97 Cd86 2.439 . S
O97 C91 1.208 . S
O98 Cd99 2.223 . S
O98 C106 1.315 . S
Cd99 O98 2.223 . S
Cd99 O102 2.297 . S
Cd99 O103 2.439 . S
Cd99 O109 2.240 . S
Cd100 O101 2.240 . S
Cd100 O108 2.223 . S
Cd100 O110 2.297 . S
Cd100 O111 2.439 . S
O101 Cd100 2.240 . S
O101 C106 1.279 . S
O102 Cd99 2.297 . S
O102 C104 1.247 . S
O103 Cd99 2.439 . S
O103 C104 1.208 . S
C104 O102 1.247 . S
C104 O103 1.208 . S
C105 O110 1.247 . S
C105 O111 1.208 . S
C106 O98 1.315 . S
C106 O101 1.279 . S
C107 O108 1.315 . S
C107 O109 1.279 . S
O108 Cd100 2.223 . S
O108 C107 1.315 . S
O109 Cd99 2.240 . S
O109 C107 1.279 . S
O110 Cd100 2.297 . S
O110 C105 1.247 . S
O111 Cd100 2.439 . S
O111 C105 1.208 . S
C112 C113 1.369 . S
C112 C114 1.419 . S
C112 H116 0.930 . S
C113 C112 1.369 . S
C113 C122 1.429 1_655 S
C114 C112 1.419 . S
C114 C115 1.363 1_655 S
C114 H117 0.929 . S
C115 C114 1.363 1_455 S
C115 C121 1.428 . S
H116 C112 0.930 . S
H117 C114 0.929 . S
S118 N119 1.613 . S
S118 N120 1.610 . S
N119 S118 1.613 . S
N119 C122 1.350 . S
N120 S118 1.610 . S
N120 C121 1.351 . S
C121 C115 1.428 . S
C121 N120 1.351 . S
C121 C122 1.434 . S
C122 C113 1.429 1_455 S
C122 N119 1.350 . S
C122 C121 1.434 . S
C123 C124 1.369 1_565 S
C123 C125 1.419 . S
C123 H127 0.930 . S
C124 C123 1.369 1_545 S
C124 C133 1.429 . S
C125 C123 1.419 . S
C125 C126 1.363 . S
C125 H128 0.929 . S
C126 C125 1.363 . S
C126 C132 1.428 1_565 S
H127 C123 0.930 . S
H128 C125 0.929 . S
S129 N130 1.613 . S
S129 N131 1.610 . S
N130 S129 1.613 . S
N130 C133 1.350 . S
N131 S129 1.610 . S
N131 C132 1.351 . S
C132 C126 1.428 1_545 S
C132 N131 1.351 . S
C132 C133 1.434 . S
C133 C124 1.429 . S
C133 N130 1.350 . S
C133 C132 1.434 . S
C134 C135 1.369 1_455 S
C134 C136 1.419 . S
C134 H138 0.930 . S
C135 C134 1.369 1_655 S
C135 C144 1.429 . S
C136 C134 1.419 . S
C136 C137 1.363 . S
C136 H139 0.929 . S
C137 C136 1.363 . S
C137 C143 1.428 1_455 S
H138 C134 0.930 . S
H139 C136 0.929 . S
S140 N141 1.613 . S
S140 N142 1.610 . S
N141 S140 1.613 . S
N141 C144 1.350 . S
N142 S140 1.610 . S
N142 C143 1.351 . S
C143 C137 1.428 1_655 S
C143 N142 1.351 . S
C143 C144 1.434 . S
C144 C135 1.429 . S
C144 N141 1.350 . S
C144 C143 1.434 . S
C145 C146 1.369 . S
C145 C147 1.419 . S
C145 H149 0.930 . S
C146 C145 1.369 . S
C146 C155 1.429 1_545 S
C147 C145 1.419 . S
C147 C148 1.363 1_545 S
C147 H150 0.929 . S
C148 C147 1.363 1_565 S
C148 C154 1.428 . S
H149 C145 0.930 . S
H150 C147 0.929 . S
S151 N152 1.613 . S
S151 N153 1.610 . S
N152 S151 1.613 . S
N152 C155 1.350 . S
N153 S151 1.610 . S
N153 C154 1.351 . S
C154 C148 1.428 . S
C154 N153 1.351 . S
C154 C155 1.434 . S
C155 C146 1.429 1_565 S
C155 N152 1.350 . S
C155 C154 1.434 . S
C156 C157 1.369 . S
C156 C158 1.419 . S
C156 H160 0.930 . S
C157 C156 1.369 . S
C157 C166 1.429 . S
C158 C156 1.419 . S
C158 C159 1.363 . S
C158 H161 0.929 . S
C159 C158 1.363 . S
C159 C165 1.428 . S
H160 C156 0.930 . S
H161 C158 0.929 . S
S162 N163 1.613 . S
S162 N164 1.610 . S
N163 S162 1.613 . S
N163 C166 1.350 . S
N164 S162 1.610 . S
N164 C165 1.351 . S
C165 C159 1.428 . S
C165 N164 1.351 . S
C165 C166 1.434 . S
C166 C157 1.429 . S
C166 N163 1.350 . S
C166 C165 1.434 . S
C167 C168 1.369 . S
C167 C169 1.419 . S
C167 H171 0.930 . S
C168 C167 1.369 . S
C168 C177 1.429 . S
C169 C167 1.419 . S
C169 C170 1.363 . S
C169 H172 0.929 . S
C170 C169 1.363 . S
C170 C176 1.428 . S
H171 C167 0.930 . S
H172 C169 0.929 . S
S173 N174 1.613 . S
S173 N175 1.610 1_455 S
N174 S173 1.613 . S
N174 C177 1.350 . S
N175 S173 1.610 1_655 S
N175 C176 1.351 1_655 S
C176 C170 1.428 . S
C176 N175 1.351 1_455 S
C176 C177 1.434 . S
C177 C168 1.429 . S
C177 N174 1.350 . S
C177 C176 1.434 . S
C178 C179 1.369 . S
C178 C180 1.419 . S
C178 H182 0.930 . S
C179 C178 1.369 . S
C179 C188 1.429 . S
C180 C178 1.419 . S
C180 C181 1.363 . S
C180 H183 0.929 . S
C181 C180 1.363 . S
C181 C187 1.428 . S
H182 C178 0.930 . S
H183 C180 0.929 . S
S184 N185 1.613 . S
S184 N186 1.610 . S
N185 S184 1.613 . S
N185 C188 1.350 . S
N186 S184 1.610 . S
N186 C187 1.351 . S
C187 C181 1.428 . S
C187 N186 1.351 . S
C187 C188 1.434 . S
C188 C179 1.429 . S
C188 N185 1.350 . S
C188 C187 1.434 . S
C189 C190 1.369 . S
C189 C191 1.419 . S
C189 H193 0.930 . S
C190 C189 1.369 . S
C190 C199 1.429 . S
C191 C189 1.419 . S
C191 C192 1.363 . S
C191 H194 0.929 . S
C192 C191 1.363 . S
C192 C198 1.428 . S
H193 C189 0.930 . S
H194 C191 0.929 . S
S195 N196 1.613 . S
S195 N197 1.610 . S
N196 S195 1.613 . S
N196 C199 1.350 . S
N197 S195 1.610 . S
N197 C198 1.351 . S
C198 C192 1.428 . S
C198 N197 1.351 . S
C198 C199 1.434 . S
C199 C190 1.429 . S
C199 N196 1.350 . S
C199 C198 1.434 . S
C200 C201 1.369 1_554 S
C200 C202 1.419 . S
C200 H204 0.930 . S
C201 C200 1.369 1_556 S
C201 C210 1.429 . S
C202 C200 1.419 . S
C202 C203 1.363 . S
C202 H205 0.929 . S
C203 C202 1.363 . S
C203 C209 1.428 1_554 S
H204 C200 0.930 . S
H205 C202 0.929 . S
S206 N207 1.613 . S
S206 N208 1.610 . S
N207 S206 1.613 . S
N207 C210 1.350 . S
N208 S206 1.610 . S
N208 C209 1.351 . S
C209 C203 1.428 1_556 S
C209 N208 1.351 . S
C209 C210 1.434 . S
C210 C201 1.429 . S
C210 N207 1.350 . S
C210 C209 1.434 . S
C211 C212 1.369 . S
C211 C213 1.419 . S
C211 H215 0.930 . S
C212 C211 1.369 . S
C212 C221 1.429 1_556 S
C213 C211 1.419 . S
C213 C214 1.363 1_556 S
C213 H216 0.929 . S
C214 C213 1.363 1_554 S
C214 C220 1.428 . S
H215 C211 0.930 . S
H216 C213 0.929 . S
S217 N218 1.613 . S
S217 N219 1.610 . S
N218 S217 1.613 . S
N218 C221 1.350 . S
N219 S217 1.610 . S
N219 C220 1.351 . S
C220 C214 1.428 . S
C220 N219 1.351 . S
C220 C221 1.434 . S
C221 C212 1.429 1_554 S
C221 N218 1.350 . S
C221 C220 1.434 . S
C222 C223 1.369 . S
C222 C224 1.419 . S
C222 H226 0.930 . S
C223 C222 1.369 . S
C223 C232 1.429 1_554 S
C224 C222 1.419 . S
C224 C225 1.363 1_554 S
C224 H227 0.929 . S
C225 C224 1.363 1_556 S
C225 C231 1.428 . S
H226 C222 0.930 . S
H227 C224 0.929 . S
S228 N229 1.613 . S
S228 N230 1.610 . S
N229 S228 1.613 . S
N229 C232 1.350 . S
N230 S228 1.610 . S
N230 C231 1.351 . S
C231 C225 1.428 . S
C231 N230 1.351 . S
C231 C232 1.434 . S
C232 C223 1.429 1_556 S
C232 N229 1.350 . S
C232 C231 1.434 . S
C233 C234 1.369 1_554 S
C233 C235 1.419 . S
C233 H237 0.930 . S
C234 C233 1.369 1_556 S
C234 C243 1.429 . S
C235 C233 1.419 . S
C235 C236 1.363 . S
C235 H238 0.929 . S
C236 C235 1.363 . S
C236 C242 1.428 1_554 S
H237 C233 0.930 . S
H238 C235 0.929 . S
S239 N240 1.613 . S
S239 N241 1.610 1_655 S
N240 S239 1.613 . S
N240 C243 1.350 . S
N241 S239 1.610 1_455 S
N241 C242 1.351 1_455 S
C242 C236 1.428 1_556 S
C242 N241 1.351 1_655 S
C242 C243 1.434 . S
C243 C234 1.429 . S
C243 N240 1.350 . S
C243 C242 1.434 . S
C244 C245 1.369 . S
C244 C246 1.419 . S
C244 H248 0.930 . S
C245 C244 1.369 . S
C245 C254 1.429 . S
C246 C244 1.419 . S
C246 C247 1.363 . S
C246 H249 0.929 . S
C247 C246 1.363 . S
C247 C253 1.428 . S
H248 C244 0.930 . S
H249 C246 0.929 . S
S250 N251 1.613 . S
S250 N252 1.610 . S
N251 S250 1.613 . S
N251 C254 1.350 . S
N252 S250 1.610 . S
N252 C253 1.351 . S
C253 C247 1.428 . S
C253 N252 1.351 . S
C253 C254 1.434 . S
C254 C245 1.429 . S
C254 N251 1.350 . S
C254 C253 1.434 . S
C255 C256 1.369 . S
C255 C257 1.419 . S
C255 H259 0.930 . S
C256 C255 1.369 . S
C256 C265 1.429 . S
C257 C255 1.419 . S
C257 C258 1.363 . S
C257 H260 0.929 . S
C258 C257 1.363 . S
C258 C264 1.428 . S
H259 C255 0.930 . S
H260 C257 0.929 . S
S261 N262 1.613 . S
S261 N263 1.610 . S
N262 S261 1.613 . S
N262 C265 1.350 . S
N263 S261 1.610 . S
N263 C264 1.351 . S
C264 C258 1.428 . S
C264 N263 1.351 . S
C264 C265 1.434 . S
C265 C256 1.429 . S
C265 N262 1.350 . S
C265 C264 1.434 . S
C266 C267 1.369 . S
C266 C268 1.419 . S
C266 H270 0.930 . S
C267 C266 1.369 . S
C267 C276 1.429 . S
C268 C266 1.419 . S
C268 C269 1.363 . S
C268 H271 0.929 . S
C269 C268 1.363 . S
C269 C275 1.428 . S
H270 C266 0.930 . S
H271 C268 0.929 . S
S272 N273 1.613 . S
S272 N274 1.610 . S
N273 S272 1.613 . S
N273 C276 1.350 . S
N274 S272 1.610 . S
N274 C275 1.351 . S
C275 C269 1.428 . S
C275 N274 1.351 . S
C275 C276 1.434 . S
C276 C267 1.429 . S
C276 N273 1.350 . S
C276 C275 1.434 . S
C277 C278 1.369 . S
C277 C279 1.419 . S
C277 H281 0.930 . S
C278 C277 1.369 . S
C278 C287 1.429 . S
C279 C277 1.419 . S
C279 C280 1.363 . S
C279 H282 0.929 . S
C280 C279 1.363 . S
C280 C286 1.428 . S
H281 C277 0.930 . S
H282 C279 0.929 . S
S283 N284 1.613 . S
S283 N285 1.610 . S
N284 S283 1.613 . S
N284 C287 1.350 . S
N285 S283 1.610 . S
N285 C286 1.351 . S
C286 C280 1.428 . S
C286 N285 1.351 . S
C286 C287 1.434 . S
C287 C278 1.429 . S
C287 N284 1.350 . S
C287 C286 1.434 . S
C113 C34 1.473 . S
C115 C6 1.476 . S
C124 C48 1.477 . S
C126 C20 1.474 . S
C135 C62 1.477 . S
C137 C90 1.474 . S
C146 C76 1.474 . S
C148 C104 1.479 . S
C157 C22 1.478 1_545 S
C159 C9 1.418 . S
C168 C23 1.415 . S
C170 C36 1.481 1_455 S
C179 C50 1.477 1_565 S
C181 C37 1.420 . S
C190 C51 1.420 . S
C192 C8 1.478 1_655 S
C201 C106 1.482 1_545 S
C203 C65 1.422 . S
C212 C79 1.420 . S
C214 C64 1.482 1_455 S
C223 C93 1.424 . S
C225 C78 1.481 1_565 S
C234 C107 1.416 . S
C236 C92 1.479 1_655 S
C245 C7 1.561 . S
C247 C77 1.560 . S
C256 C91 1.554 . S
C258 C21 1.555 . S
C267 C35 1.559 . S
C269 C105 1.559 . S
C278 C49 1.554 . S
C280 C63 1.555 . S
