# Generated by pormake.
# Topology smc, (6)-cn, num edge types: 1
# Building blocks:
#     Node 0, Type 0, BuildingBlock: HISSIN_clean_sbu_0, # of connection points: 6
#     Node 1, Type 0, BuildingBlock: HISSIN_clean_sbu_0, # of connection points: 6
#     Node 2, Type 0, BuildingBlock: HISSIN_clean_sbu_0, # of connection points: 6
#     Node 3, Type 0, BuildingBlock: HISSIN_clean_sbu_0, # of connection points: 6
#     Node 4, Type 0, BuildingBlock: HISSIN_clean_sbu_0, # of connection points: 6
#     Node 5, Type 0, BuildingBlock: HISSIN_clean_sbu_0, # of connection points: 6
#     Node 6, Type 0, BuildingBlock: HISSIN_clean_sbu_0, # of connection points: 6
#     Node 7, Type 0, BuildingBlock: HISSIN_clean_sbu_0, # of connection points: 6
#     Node 8, Type 0, BuildingBlock: HISSIN_clean_sbu_0, # of connection points: 6
#     Edge 9, Type (0, 0), BuildingBlock: AJUNOK_clean_linker_0, # of connection points: 2
#     Edge 10, Type (0, 0), BuildingBlock: AJUNOK_clean_linker_0, # of connection points: 2
#     Edge 11, Type (0, 0), BuildingBlock: AJUNOK_clean_linker_0, # of connection points: 2
#     Edge 12, Type (0, 0), BuildingBlock: AJUNOK_clean_linker_0, # of connection points: 2
#     Edge 13, Type (0, 0), BuildingBlock: AJUNOK_clean_linker_0, # of connection points: 2
#     Edge 14, Type (0, 0), BuildingBlock: AJUNOK_clean_linker_0, # of connection points: 2
#     Edge 15, Type (0, 0), BuildingBlock: AJUNOK_clean_linker_0, # of connection points: 2
#     Edge 16, Type (0, 0), BuildingBlock: AJUNOK_clean_linker_0, # of connection points: 2
#     Edge 17, Type (0, 0), BuildingBlock: AJUNOK_clean_linker_0, # of connection points: 2
#     Edge 18, Type (0, 0), BuildingBlock: AJUNOK_clean_linker_0, # of connection points: 2
#     Edge 19, Type (0, 0), BuildingBlock: AJUNOK_clean_linker_0, # of connection points: 2
#     Edge 20, Type (0, 0), BuildingBlock: AJUNOK_clean_linker_0, # of connection points: 2
#     Edge 21, Type (0, 0), BuildingBlock: AJUNOK_clean_linker_0, # of connection points: 2
#     Edge 22, Type (0, 0), BuildingBlock: AJUNOK_clean_linker_0, # of connection points: 2
#     Edge 23, Type (0, 0), BuildingBlock: AJUNOK_clean_linker_0, # of connection points: 2
#     Edge 24, Type (0, 0), BuildingBlock: AJUNOK_clean_linker_0, # of connection points: 2
#     Edge 25, Type (0, 0), BuildingBlock: AJUNOK_clean_linker_0, # of connection points: 2
#     Edge 26, Type (0, 0), BuildingBlock: AJUNOK_clean_linker_0, # of connection points: 2
#     Edge 27, Type (0, 0), BuildingBlock: AJUNOK_clean_linker_0, # of connection points: 2
#     Edge 28, Type (0, 0), BuildingBlock: AJUNOK_clean_linker_0, # of connection points: 2
#     Edge 29, Type (0, 0), BuildingBlock: AJUNOK_clean_linker_0, # of connection points: 2
#     Edge 30, Type (0, 0), BuildingBlock: AJUNOK_clean_linker_0, # of connection points: 2
#     Edge 31, Type (0, 0), BuildingBlock: AJUNOK_clean_linker_0, # of connection points: 2
#     Edge 32, Type (0, 0), BuildingBlock: AJUNOK_clean_linker_0, # of connection points: 2
#     Edge 33, Type (0, 0), BuildingBlock: AJUNOK_clean_linker_0, # of connection points: 2
#     Edge 34, Type (0, 0), BuildingBlock: AJUNOK_clean_linker_0, # of connection points: 2
#     Edge 35, Type (0, 0), BuildingBlock: AJUNOK_clean_linker_0, # of connection points: 2
# Relax obj value: 0.421
# Max RMSD: 0.412
# Mean RMSD: 0.351
data_MOF--net-smc--node1-HISSIN_clean_sbu_0--edge1-AJUNOK_clean_linker_0
_symmetry_space_group_name_H-M    P1
_symmetry_Int_Tables_number       1
_symmetry_cell_setting            triclinic
loop_
_symmetry_equiv_pos_as_xyz
'x, y, z'
_cell_length_a     34.584756
_cell_length_b     24.154416
_cell_length_c     29.031707
_cell_angle_alpha  92.911346
_cell_angle_beta   89.689201
_cell_angle_gamma 119.10458
loop_
_atom_site_label
_atom_site_type_symbol
_atom_site_fract_x
_atom_site_fract_y
_atom_site_fract_z
_atom_type_partial_charge
Eu0 Eu 0.08393 0.52985 0.05145 0.0
Eu1 Eu 0.10641 0.42685 0.01313 0.0
C2 C 1.04063 0.45291 0.95295 0.0
C3 C 1.01373 0.58877 0.09551 0.0
C4 C 0.98122 0.52861 0.07822 0.0
C5 C 0.95745 0.60833 0.1285 0.0
C6 C 0.93686 0.50929 0.08444 0.0
C7 C 1.00203 0.62782 0.12199 0.0
C8 C 0.92469 0.54978 0.10848 0.0
C9 C 1.05944 0.60814 0.08583 0.0
O10 O 0.17171 0.52199 0.01203 0.0
O11 O 0.13674 0.5785 1.00129 0.0
C12 C 0.17329 0.57571 1.00184 0.0
O13 O 0.13863 0.54005 0.10109 0.0
O14 O 0.12307 0.38114 0.95672 0.0
O15 O 0.10664 0.33805 0.02294 0.0
O16 O 0.12846 0.43994 0.0881 0.0
C17 C 0.14468 0.49305 0.11369 0.0
O18 O 1.04094 0.44321 0.08876 0.0
O19 O 1.03372 0.37587 0.02921 0.0
O20 O 1.07596 0.44602 0.95134 0.0
O21 O 1.07597 0.58144 0.11101 0.0
O22 O 1.06746 0.60489 0.04211 0.0
O23 O 1.03239 0.47623 0.99172 0.0
C24 C 0.16703 0.34246 0.98296 0.0
C25 C 0.19692 0.37757 0.01943 0.0
C26 C 0.22746 0.3719 0.93104 0.0
C27 C 0.24169 0.41351 1.0107 0.0
C28 C 0.18292 0.33487 0.94007 0.0
C29 C 0.25652 0.4142 0.96563 0.0
C30 C 0.12413 0.33938 0.98277 0.0
C31 C 1.0174 0.38918 0.06614 0.0
H32 H 0.99011 0.49748 0.05843 0.0
H33 H 0.94862 0.64118 0.14599 0.0
H34 H 0.91208 0.46474 0.06802 0.0
H35 H 1.02705 0.67392 0.13596 0.0
H36 H 0.18532 0.38424 0.05292 0.0
H37 H 0.238 0.37232 0.8958 0.0
H38 H 0.26389 0.44513 0.03798 0.0
H39 H 0.16017 0.30866 0.91152 0.0
Eu40 Eu 0.61064 0.65709 0.97746 0.0
Eu41 Eu 0.68214 0.70691 0.01336 0.0
C42 C 0.62316 0.66722 0.08941 0.0
C43 C 0.51225 0.6343 0.91485 0.0
C44 C 0.49565 0.64237 0.95734 0.0
C45 C 0.44642 0.6192 0.87589 0.0
C46 C 0.45294 0.6331 0.95937 0.0
C47 C 0.48928 0.6281 0.87383 0.0
C48 C 0.42665 0.61393 0.91902 0.0
C49 C 0.55042 0.62475 0.91451 0.0
O50 O 0.66395 0.59522 0.01314 0.0
O51 O 0.59311 0.55533 0.99275 0.0
C52 C 0.62405 0.5428 1.00554 0.0
O53 O 0.67753 0.70163 0.93542 0.0
O54 O 0.73557 0.75644 0.06459 0.0
O55 O 0.7511 0.7551 0.99228 0.0
O56 O 0.67794 0.70091 0.93502 0.0
C57 C 0.69804 0.67299 0.91391 0.0
O58 O 0.59372 0.73506 0.99632 0.0
O59 O 0.66332 0.79206 0.02228 0.0
O60 O 0.65201 0.65256 0.07425 0.0
O61 O 0.58845 0.67678 0.91354 0.0
O62 O 0.54938 0.58543 0.94469 0.0
O63 O 0.60268 0.68007 0.05654 0.0
C64 C 0.78497 0.72151 0.0439 0.0
C65 C 0.76876 0.66288 0.01884 0.0
C66 C 0.82326 0.68972 0.09641 0.0
C67 C 0.77875 0.61756 0.03301 0.0
C68 C 0.81232 0.7349 0.08274 0.0
C69 C 0.80578 0.63024 0.07204 0.0
C70 C 0.76502 0.76062 0.03468 0.0
C71 C 0.62472 0.79034 0.01226 0.0
H72 H 0.51343 0.64816 0.98939 0.0
H73 H 0.42651 0.60572 0.84441 0.0
H74 H 0.43846 0.63014 0.99299 0.0
H75 H 0.50253 0.62365 0.8408 0.0
H76 H 0.74703 0.6509 0.98895 0.0
H77 H 0.84593 0.70181 0.12549 0.0
H78 H 0.76564 0.57276 0.01309 0.0
H79 H 0.8243 0.7794 0.10287 0.0
Eu80 Eu 0.60716 0.15838 0.03936 0.0
Eu81 Eu 0.52238 0.0914 0.02417 0.0
C82 C 0.5662 0.12491 0.93659 0.0
C83 C 0.73812 0.24675 0.06628 0.0
C84 C 0.76552 0.27419 0.02884 0.0
C85 C 0.80195 0.26424 0.11161 0.0
C86 C 0.81066 0.29558 0.03249 0.0
C87 C 0.75663 0.2432 0.10805 0.0
C88 C 0.8291 0.28964 0.07357 0.0
C89 C 0.69019 0.21392 0.05895 0.0
O90 O 0.53929 1.0053 0.024 0.0
O91 O 0.61231 1.06755 0.03166 0.0
C92 C 0.57942 1.00978 0.02696 0.0
O93 O 0.55161 0.12941 0.09633 0.0
O94 O 0.45703 1.05335 0.9899 0.0
O95 O 0.46218 1.03338 0.06062 0.0
O96 O 0.55141 0.12745 0.09644 0.0
C97 C 0.53701 0.0841 0.127 0.0
O98 O 0.60888 0.25237 0.04263 0.0
O99 O 0.53906 0.20289 0.01387 0.0
O100 O 0.54622 1.07317 0.95777 0.0
O101 O 0.66128 0.20282 0.0917 0.0
O102 O 0.67379 0.19599 0.01695 0.0
O103 O 0.59253 0.1741 0.96379 0.0
C104 C 0.40421 0.95033 0.01533 0.0
C105 C 0.39697 0.90574 0.04859 0.0
C106 C 0.34507 0.86569 0.96784 0.0
C107 C 0.3633 0.84248 0.04211 0.0
C108 C 0.37843 0.92906 0.97447 0.0
C109 C 0.33593 0.82215 1.00233 0.0
C110 C 0.43627 1.01909 0.02461 0.0
C111 C 0.57641 0.25881 0.02608 0.0
H112 H 0.75188 0.27731 0.99617 0.0
H113 H 0.81543 0.2585 0.14347 0.0
H114 H 0.83106 0.31581 1.00292 0.0
H115 H 0.73585 0.22126 0.13703 0.0
H116 H 0.41625 0.92009 0.08052 0.0
H117 H 0.32532 0.85124 0.93623 0.0
H118 H 0.35727 0.81033 0.06932 0.0
H119 H 0.38317 0.96185 0.94812 0.0
Eu120 Eu 0.71333 0.84909 0.37683 0.0
Eu121 Eu 0.78406 0.78918 0.3369 0.0
C122 C 0.71228 0.78509 0.2656 0.0
C123 C 0.62309 0.91249 0.38417 0.0
C124 C 0.6084 0.91811 0.34008 0.0
C125 C 0.56779 0.9389 0.41729 0.0
C126 C 0.57362 0.93313 0.33483 0.0
C127 C 0.60189 0.92314 0.42244 0.0
C128 C 0.55225 0.94368 0.37341 0.0
C129 C 0.66356 0.90424 0.39203 0.0
O130 O 0.79676 0.88552 0.31837 0.0
O131 O 0.78207 0.92583 0.38307 0.0
C132 C 0.80865 0.93151 0.34988 0.0
O133 O 0.76106 0.85634 0.4378 0.0
O134 O 0.83392 0.76125 0.30756 0.0
O135 O 0.85609 0.8434 0.35535 0.0
O136 O 0.76796 0.77132 0.41103 0.0
C137 C 0.77681 0.81607 0.44316 0.0
O138 O 0.67811 0.74895 0.39509 0.0
O139 O 0.70676 0.70564 0.34046 0.0
O140 O 0.74525 0.77251 0.27112 0.0
O141 O 0.66172 0.85909 0.41679 0.0
O142 O 0.69327 0.91934 0.36005 0.0
O143 O 0.69976 0.81361 0.29866 0.0
C144 C 0.91944 0.8258 0.32668 0.0
C145 C 0.94852 0.84862 0.36628 0.0
C146 C 0.9894 0.84926 0.28311 0.0
C147 C 0.99553 0.86895 0.36459 0.0
C148 C 0.94205 0.82705 0.285 0.0
C149 C 1.01834 0.87081 0.32288 0.0
C150 C 0.86883 0.81064 0.32799 0.0
C151 C 0.67221 0.70245 0.36593 0.0
H152 H 0.62412 0.91159 0.3095 0.0
H153 H 0.55443 0.94902 0.44835 0.0
H154 H 0.56335 0.93622 0.30033 0.0
H155 H 0.61273 0.92122 0.45697 0.0
H156 H 0.93485 0.85117 0.39945 0.0
H157 H 1.00339 0.84899 0.24971 0.0
H158 H 1.01444 0.8852 0.3967 0.0
H159 H 0.92318 0.81249 0.25283 0.0
Eu160 Eu 0.30116 0.919 0.31767 0.0
Eu161 Eu 0.33501 1.05361 0.31425 0.0
C162 C 0.37063 1.00176 0.23556 0.0
C163 C 0.32133 0.79254 0.29143 0.0
C164 C 0.32735 0.76001 0.25284 0.0
C165 C 0.37767 0.78106 0.33169 0.0
C166 C 0.35255 0.72927 0.25936 0.0
C167 C 0.35124 0.80974 0.32922 0.0
C168 C 0.36191 0.72345 0.30567 0.0
C169 C 0.28507 0.80749 0.2935 0.0
O170 O 0.2559 1.01536 0.30896 0.0
O171 O 0.23193 0.91173 0.31961 0.0
C172 C 0.22161 0.95694 0.31473 0.0
O173 O 0.31019 0.94581 0.39586 0.0
O174 O 0.34196 0.13796 0.28354 0.0
O175 O 0.38473 0.14723 0.34122 0.0
O176 O 0.31738 1.04367 0.38926 0.0
C177 C 0.31515 0.99973 0.41539 0.0
O178 O 0.36156 0.94386 0.36 0.0
O179 O 0.39754 1.03982 0.32999 0.0
O180 O 0.35257 1.03782 0.24157 0.0
O181 O 0.27559 0.821 0.33495 0.0
O182 O 0.28661 0.8462 0.26277 0.0
O183 O 0.35811 0.95541 0.26388 0.0
C184 C 0.35244 0.21256 0.34204 0.0
C185 C 0.33595 0.19417 0.38631 0.0
C186 C 0.30315 0.25515 0.3327 0.0
C187 C 0.30015 0.20049 0.40163 0.0
C188 C 0.33851 0.24787 0.31708 0.0
C189 C 0.28192 0.22735 0.37337 0.0
C190 C 0.36915 0.17569 0.31632 0.0
C191 C 0.39908 0.99339 0.35159 0.0
H192 H 0.3089 0.75185 0.22087 0.0
H193 H 0.39825 0.79111 0.36222 0.0
H194 H 0.35118 0.69531 0.23271 0.0
H195 H 0.3509 0.83858 0.35854 0.0
H196 H 0.34721 0.16836 0.4067 0.0
H197 H 0.29039 0.27848 0.31141 0.0
H198 H 0.28479 0.18019 0.43364 0.0
H199 H 0.35111 0.26274 0.28303 0.0
Eu200 Eu 0.24377 0.46212 0.39606 0.0
Eu201 Eu 0.13607 0.41214 0.36244 0.0
C202 C 0.20772 0.45841 0.29077 0.0
C203 C 0.37897 0.52589 0.398 0.0
C204 C 0.39726 0.54885 0.35475 0.0
C205 C 0.45477 0.54899 0.42198 0.0
C206 C 0.44291 0.57058 0.34524 0.0
C207 C 0.40898 0.52621 0.43114 0.0
C208 C 0.47362 0.57275 0.37888 0.0
C209 C 0.33125 0.50933 0.41118 0.0
O210 O 0.14106 0.32885 0.38732 0.0
O211 O 0.21216 0.36448 0.36299 0.0
C212 C 0.17429 0.31914 0.37687 0.0
O213 O 0.19795 0.42692 0.46322 0.0
O214 O 0.09053 0.36631 0.3043 0.0
O215 O 1.07088 0.40523 0.36326 0.0
O216 O 0.12715 0.40327 0.43719 0.0
C217 C 0.15442 0.40875 0.47035 0.0
O218 O 0.21569 0.51989 0.42832 0.0
O219 O 0.17314 0.51905 0.37056 0.0
O220 O 0.17501 0.40585 0.30337 0.0
O221 O 0.30121 0.45284 0.42303 0.0
O222 O 0.31261 0.53817 0.39182 0.0
O223 O 0.23775 0.49456 0.32291 0.0
C224 C 1.02073 0.30511 0.33068 0.0
C225 C 1.01943 0.27189 0.36945 0.0
C226 C 0.96011 0.2104 0.29521 0.0
C227 C 0.98821 0.20842 0.37134 0.0
C228 C 0.99136 0.2742 0.29337 0.0
C229 C 0.9585 0.17758 0.33425 0.0
C230 C 1.05795 0.36775 0.3259 0.0
C231 C 0.20617 0.55183 0.4001 0.0
H232 H 0.37623 0.55052 0.32798 0.0
H233 H 0.47567 0.54938 0.44971 0.0
H234 H 0.45362 0.58516 0.3108 0.0
H235 H 0.39725 0.51035 0.46521 0.0
H236 H 1.04317 0.29463 0.39778 0.0
H237 H 0.93682 0.18697 0.26661 0.0
H238 H 0.98719 0.18334 0.40165 0.0
H239 H 0.99325 0.29901 0.26266 0.0
Eu240 Eu 0.42273 0.18058 0.70082 0.0
Eu241 Eu 0.4363 1.0658 0.67755 0.0
C242 C 0.39197 0.10177 0.60065 0.0
C243 C 0.35578 0.25413 0.71886 0.0
C244 C 0.32919 0.21405 0.68182 0.0
C245 C 0.29381 0.26322 0.74811 0.0
C246 C 0.28585 0.20122 0.6767 0.0
C247 C 0.33749 0.27647 0.7531 0.0
C248 C 0.26871 0.22767 0.70893 0.0
C249 C 0.40076 0.26545 0.72386 0.0
O250 O 0.50571 0.15613 0.68263 0.0
O251 O 0.48184 0.22143 0.65716 0.0
C252 C 0.51441 0.21093 0.66591 0.0
O253 O 0.47256 0.18756 0.75632 0.0
O254 O 0.45924 1.01257 0.63377 0.0
O255 O 0.42819 0.97482 0.69814 0.0
O256 O 0.44079 0.08135 0.7544 0.0
C257 C 0.46685 0.13606 0.7756 0.0
O258 O 0.36804 0.09783 0.7337 0.0
O259 O 0.36123 1.02434 0.67909 0.0
O260 O 0.42478 0.09114 0.60829 0.0
O261 O 0.40512 0.23066 0.75398 0.0
O262 O 0.42047 0.26613 0.68522 0.0
O263 O 0.3803 0.12977 0.6341 0.0
C264 C 0.49882 0.98678 0.68407 0.0
C265 C 0.51337 1.02053 0.72723 0.0
C266 C 0.57171 1.05042 0.65452 0.0
C267 C 0.55453 1.07497 0.73133 0.0
C268 C 0.53042 0.99617 0.6505 0.0
C269 C 0.5821 0.09265 0.69333 0.0
C270 C 0.45576 0.9758 0.66685 0.0
C271 C 0.3429 1.04487 0.71031 0.0
H272 H 0.34227 0.19438 0.65587 0.0
H273 H 0.28072 0.28471 0.7728 0.0
H274 H 0.26683 0.17469 0.64602 0.0
H275 H 0.35718 0.30528 0.78276 0.0
H276 H 0.49037 1.01224 0.75482 0.0
H277 H 0.5938 1.06241 0.6256 0.0
H278 H 0.56278 0.1061 0.76219 0.0
H279 H 0.52046 0.96969 0.61746 0.0
Eu280 Eu 0.92761 0.31479 0.6668 0.0
Eu281 Eu 1.00047 0.36726 0.69917 0.0
C282 C 0.94692 0.33315 0.77893 0.0
C283 C 0.82059 0.28333 0.62242 0.0
C284 C 0.82031 0.31836 0.66236 0.0
C285 C 0.746 0.25851 0.60431 0.0
C286 C 0.78327 0.32396 0.67305 0.0
C287 C 0.78438 0.2568 0.59184 0.0
C288 C 0.74425 0.2876 0.64715 0.0
C289 C 0.85616 0.26809 0.61699 0.0
O290 O 0.98448 0.25624 0.69988 0.0
O291 O 0.91328 0.21481 0.68038 0.0
C292 C 0.94473 0.20327 0.69221 0.0
O293 O 0.99194 0.34695 0.62139 0.0
O294 O 1.05796 0.41134 0.74577 0.0
O295 O 1.06597 0.42867 0.67324 0.0
O296 O 0.9922 0.34572 0.62159 0.0
C297 C 1.01155 0.31372 0.60582 0.0
O298 O 0.92099 0.40345 0.6657 0.0
O299 O 0.98118 0.45192 0.7101 0.0
O300 O 0.97532 0.31812 0.76288 0.0
O301 O 0.8937 0.31436 0.60368 0.0
O302 O 0.86075 0.23938 0.65189 0.0
O303 O 0.92468 0.34395 0.74644 0.0
C304 C 0.1162 0.40538 0.70851 0.0
C305 C 0.13177 0.39846 0.66506 0.0
C306 C 0.14113 0.33697 0.73953 0.0
C307 C 0.14875 0.35738 0.65812 0.0
C308 C 0.12254 0.37625 0.74613 0.0
C309 C 0.15274 0.32531 0.6951 0.0
C310 C 0.08556 0.43072 0.71191 0.0
C311 C 0.94768 0.45505 0.68938 0.0
H312 H 0.84703 0.33687 0.68762 0.0
H313 H 0.7164 0.23027 0.58322 0.0
H314 H 0.78316 0.3484 0.70536 0.0
H315 H 0.78424 0.22964 0.56089 0.0
H316 H 0.12856 0.42201 0.63579 0.0
H317 H 0.14645 0.31597 0.76925 0.0
H318 H 0.15858 0.35053 0.62376 0.0
H319 H 0.11154 0.3817 0.78025 0.0
Eu320 Eu 0.92562 0.82042 0.70731 0.0
Eu321 Eu 0.84016 0.74858 0.69694 0.0
C322 C 0.87314 0.79929 0.60596 0.0
C323 C 1.05928 0.90085 0.71371 0.0
C324 C 1.08236 0.90987 0.67231 0.0
C325 C 0.12812 0.93518 0.75644 0.0
C326 C 0.12795 0.93181 0.67295 0.0
C327 C 1.0826 0.91407 0.75579 0.0
C328 C 0.1514 0.9447 0.71502 0.0
C329 C 1.01059 0.87169 0.71263 0.0
O330 O 0.86315 0.67003 0.68297 0.0
O331 O 0.93008 0.72936 0.71481 0.0
C332 C 0.90078 0.67341 0.69792 0.0
O333 O 0.87415 0.77807 0.76802 0.0
O334 O 0.76952 0.70674 0.67682 0.0
O335 O 0.78826 0.68188 0.73988 0.0
O336 O 0.87361 0.77984 0.76763 0.0
C337 C 0.85638 0.80751 0.79383 0.0
O338 O 0.92582 0.91094 0.72414 0.0
O339 O 0.85622 0.86193 0.69441 0.0
O340 O 0.84682 0.74476 0.62171 0.0
O341 O 0.9876 0.87628 0.74749 0.0
O342 O 0.98747 0.84158 0.67501 0.0
O343 O 0.90568 0.84049 0.63417 0.0
C344 C 0.72583 0.59871 0.69923 0.0
C345 C 0.73484 0.55165 0.71497 0.0
C346 C 0.65533 0.51393 0.66731 0.0
C347 C 0.70436 0.4867 0.70718 0.0
C348 C 0.68581 0.5788 0.67502 0.0
C349 C 0.66406 0.4667 0.68321 0.0
C350 C 0.75631 0.66794 0.71039 0.0
C351 C 0.89329 0.91772 0.70859 0.0
H352 H 1.06511 0.89949 0.63929 0.0
H353 H 0.14493 0.94298 0.78944 0.0
H354 H 0.14489 0.93898 0.64049 0.0
H355 H 1.06546 0.9062 0.78816 0.0
H356 H 0.76529 0.56487 0.73387 0.0
H357 H 0.62425 0.50093 0.6499 0.0
H358 H 0.71241 0.45206 0.71991 0.0
H359 H 0.67762 0.61356 0.66283 0.0
C360 C 0.35274 0.57809 0.95266 0.0
C361 C 0.38051 0.56545 0.92388 0.0
C362 C 0.31273 0.52851 0.9667 0.0
C363 C 0.29985 0.46506 0.95285 0.0
H364 H 0.36274 0.6262 0.96551 0.0
H365 H 0.29178 0.53983 0.98852 0.0
S366 S 0.3624 0.40704 0.88028 0.0
N367 N 0.39329 0.48498 0.88338 0.0
N368 N 0.31821 0.39206 0.91055 0.0
C369 C 0.32732 0.45196 0.92423 0.0
C370 C 0.36765 0.50216 0.90948 0.0
C371 C 0.56069 0.89015 1.00699 0.0
C372 C 0.59019 0.95272 0.02502 0.0
C373 C 0.57218 0.8399 1.0035 0.0
C374 C 0.61407 0.84713 0.01795 0.0
H375 H 0.52827 0.87972 0.99456 0.0
H376 H 0.54744 0.79421 0.98869 0.0
S377 S 0.70403 0.99949 0.06983 0.0
N378 N 0.66433 1.01665 0.05881 0.0
N379 N 0.68463 0.92428 0.05255 0.0
C380 C 0.64366 0.90904 0.03653 0.0
C381 C 0.63217 0.96043 0.0399 0.0
C382 C 0.2961 0.70254 1.00965 0.0
C383 C 0.29518 0.75832 0.99905 0.0
C384 C 0.25705 0.643 1.00879 0.0
C385 C 0.21557 0.63685 0.99721 0.0
H386 H 0.32717 0.70502 0.01913 0.0
H387 H 0.2592 0.60196 0.01863 0.0
S388 S 0.19512 0.76984 0.9697 0.0
N389 N 0.24895 0.80396 0.97943 0.0
N390 N 0.17658 0.69359 0.97574 0.0
C391 C 0.21456 0.69272 0.98636 0.0
C392 C 0.25399 0.75289 0.98781 0.0
C393 C 0.55798 0.35056 1.00124 0.0
C394 C 0.58683 0.33078 0.02066 0.0
C395 C 0.57008 0.41699 0.9967 0.0
C396 C 0.61224 0.47038 1.01074 0.0
H397 H 0.5254 0.31438 0.98916 0.0
H398 H 0.54553 0.42648 0.98154 0.0
S399 S 0.70118 0.4491 0.06471 0.0
N400 N 0.66115 0.37547 0.0546 0.0
N401 N 0.68212 0.49487 0.04613 0.0
C402 C 0.6411 0.45123 0.0302 0.0
C403 C 0.62901 0.38408 0.035 0.0
C404 C 0.89533 0.28919 0.04 0.0
C405 C 0.87655 0.30891 0.07587 0.0
C406 C 0.94092 0.31161 0.03898 0.0
C407 C 0.96931 0.35464 0.07379 0.0
H408 H 0.87475 0.25749 0.01182 0.0
H409 H 0.95405 0.2976 1.00941 0.0
S410 S 0.93569 0.41774 0.17671 0.0
N411 N 0.88904 0.37177 0.1477 0.0
N412 N 0.97475 0.41267 0.14693 0.0
C413 C 0.95049 0.37195 0.11122 0.0
C414 C 0.90408 0.34945 0.11195 0.0
C415 C 0.8665 0.53964 0.05607 0.0
C416 C 0.88017 0.54061 0.10167 0.0
C417 C 0.83765 0.56242 0.04671 0.0
C418 C 0.82136 0.5857 0.08282 0.0
H419 H 0.88274 0.52989 0.02723 0.0
H420 H 0.83261 0.56876 1.01098 0.0
S421 S 0.83575 0.57696 0.20798 0.0
N422 N 0.86764 0.55137 0.18309 0.0
N423 N 0.81138 0.5924 0.16555 0.0
C424 C 0.8287 0.57623 0.12851 0.0
C425 C 0.85861 0.55371 0.13798 0.0
C426 C 0.09986 0.93521 0.28746 0.0
C427 C 1.07071 0.89437 0.32114 0.0
C428 C 0.1474 0.95723 0.28621 0.0
C429 C 0.17041 0.93901 0.31769 0.0
H430 H 0.08584 0.95133 0.26151 0.0
H431 H 0.16609 0.98784 0.25913 0.0
S432 S 0.11197 0.83101 0.41229 0.0
N433 N 1.07168 0.83726 0.38706 0.0
N434 N 0.15722 0.87474 0.38357 0.0
C435 C 0.14151 0.89748 0.35093 0.0
C436 C 0.09359 0.87665 0.35301 0.0
C437 C 0.17415 0.2224 0.35309 0.0
C438 C 0.17522 0.26277 0.39001 0.0
C439 C 0.20668 0.20413 0.35016 0.0
C440 C 0.23994 0.22496 0.38466 0.0
H441 H 0.15353 0.21455 0.32282 0.0
H442 H 0.20884 0.18003 0.31853 0.0
S443 S 0.24693 0.31302 0.4949 0.0
N444 N 0.20388 0.3081 0.46685 0.0
N445 N 0.26552 0.27422 0.4614 0.0
C446 C 0.23572 0.25426 0.42565 0.0
C447 C 0.20229 0.27205 0.4287 0.0
C448 C 0.89438 0.10087 0.37561 0.0
C449 C 0.92288 0.11304 0.33852 0.0
C450 C 0.85776 1.04145 0.3791 0.0
C451 C 0.84854 0.99236 0.34552 0.0
H452 H 0.89976 0.13809 0.40144 0.0
H453 H 0.83628 1.03457 0.40806 0.0
S454 S 0.91653 0.99951 0.24438 0.0
N455 N 0.94232 1.07163 0.26952 0.0
N456 N 0.8728 0.95838 0.27589 0.0
C457 C 0.87788 1.00331 0.30909 0.0
C458 C 0.91528 1.06425 0.30556 0.0
C459 C 0.28124 0.64182 0.30878 0.0
C460 C 0.32391 0.6714 0.33002 0.0
C461 C 0.24312 0.61594 0.3343 0.0
C462 C 0.24469 0.60634 0.38119 0.0
H463 H 0.2762 0.64128 0.27201 0.0
H464 H 0.21197 0.59729 0.31565 0.0
S465 S 0.346 0.66874 0.45502 0.0
N466 N 0.36457 0.68935 0.40265 0.0
N467 N 0.29149 0.63086 0.4497 0.0
C468 C 0.28632 0.63425 0.40371 0.0
C469 C 0.32591 0.66587 0.37812 0.0
C470 C 0.55093 0.57982 0.39374 0.0
C471 C 0.52435 0.6 0.3699 0.0
C472 C 0.59798 0.60741 0.38846 0.0
C473 C 0.62225 0.65586 0.35769 0.0
H474 H 0.53553 0.54305 0.41804 0.0
H475 H 0.61592 0.5926 0.41067 0.0
S476 S 0.57156 0.73192 0.28941 0.0
N477 N 0.52909 0.67702 0.3162 0.0
N478 N 0.61456 0.72475 0.30509 0.0
C479 C 0.59598 0.67575 0.33329 0.0
C480 C 0.54841 0.64902 0.33937 0.0
C481 C 0.47798 1.01384 0.33104 0.0
C482 C 0.44109 0.98862 0.36035 0.0
C483 C 0.51332 0.99933 0.33498 0.0
C484 C 0.51403 0.95896 0.3686 0.0
H485 H 0.47895 1.04341 0.30376 0.0
H486 H 0.5404 1.02012 0.31132 0.0
S487 S 0.42492 0.87849 0.45295 0.0
N488 N 0.40848 0.92096 0.42443 0.0
N489 N 0.47234 0.89217 0.4303 0.0
C490 C 0.47724 0.93364 0.39788 0.0
C491 C 0.44177 0.94878 0.39417 0.0
C492 C 0.6633 0.2461 0.64486 0.0
C493 C 0.70157 0.26071 0.67071 0.0
C494 C 0.62298 0.19382 0.65487 0.0
C495 C 0.61982 0.15661 0.69187 0.0
H496 H 0.66569 0.26989 0.61345 0.0
H497 H 0.59504 0.17934 0.6314 0.0
S498 S 0.70658 0.18679 0.77845 0.0
N499 N 0.73132 0.24215 0.74108 0.0
N500 N 0.65456 0.14549 0.76032 0.0
C501 C 0.65564 0.17721 0.72253 0.0
C502 C 0.69693 0.22961 0.71206 0.0
C503 C 0.96192 0.57113 0.71726 0.0
C504 C 0.93671 0.51197 0.69199 0.0
C505 C 0.9503 0.62144 0.71878 0.0
C506 C 0.91209 0.61699 0.69588 0.0
H507 H 0.99126 0.57912 0.73614 0.0
H508 H 0.97187 0.66483 0.7387 0.0
S509 S 0.83506 0.475 0.62253 0.0
N510 N 0.8719 0.45591 0.64091 0.0
N511 N 0.8501 0.54645 0.6459 0.0
C512 C 0.88688 0.55843 0.67051 0.0
C513 C 0.89905 0.50784 0.66811 0.0
C514 C 0.61955 0.3555 0.71234 0.0
C515 C 0.63059 0.3972 0.67599 0.0
C516 C 0.58452 0.29216 0.70767 0.0
C517 C 0.55926 0.26792 0.66638 0.0
H518 H 0.63646 0.37287 0.74553 0.0
H519 H 0.57524 0.26357 0.73752 0.0
S520 S 0.57739 0.35394 0.55928 0.0
N521 N 0.61581 0.40619 0.59572 0.0
N522 N 0.5496 0.28904 0.58781 0.0
C523 C 0.57148 0.3079 0.62926 0.0
C524 C 0.60712 0.37185 0.63379 0.0
C525 C 0.87783 1.01156 0.68251 0.0
C526 C 0.90425 0.99015 0.70508 0.0
C527 C 0.89122 0.07846 0.67861 0.0
C528 C 0.93255 0.13069 0.6961 0.0
H529 H 0.84632 0.97637 0.66728 0.0
H530 H 0.86839 0.08929 0.66101 0.0
S531 S 1.01509 0.10494 0.75915 0.0
N532 N 0.97524 1.03203 0.7462 0.0
N533 N 0.99902 0.15254 0.73765 0.0
C534 C 0.95917 0.11003 0.71836 0.0
C535 C 0.94555 1.04233 0.72299 0.0
C536 C 0.21898 0.94118 0.68556 0.0
C537 C 0.2001 0.96881 0.71557 0.0
C538 C 0.265 0.96441 0.68501 0.0
C539 C 0.29395 1.01605 0.71459 0.0
H540 H 0.19801 0.90132 0.66218 0.0
H541 H 0.27796 0.94244 0.66063 0.0
S542 S 0.26102 0.10695 0.7984 0.0
N543 N 0.21402 1.0522 0.77406 0.0
N544 N 0.29975 0.09451 0.77465 0.0
C545 C 0.27523 1.04375 0.74505 0.0
C546 C 0.22858 1.02051 0.74513 0.0
C547 C 0.24211 0.28641 0.66632 0.0
C548 C 0.23219 0.23648 0.6949 0.0
C549 C 0.21391 0.31169 0.66345 0.0
C550 C 0.17475 0.2869 0.68865 0.0
H551 H 0.27386 0.31003 0.6497 0.0
H552 H 0.22506 0.35439 0.64481 0.0
S553 S 0.13014 0.14593 0.75944 0.0
N554 N 0.17899 0.15658 0.74308 0.0
N555 N 0.12355 0.20172 0.73578 0.0
C556 C 0.1621 0.23178 0.71287 0.0
C557 C 0.19156 0.20704 0.71654 0.0
C558 C 0.2191 0.47918 0.20544 0.0
C559 C 0.19956 0.48325 0.24734 0.0
C560 C 0.20263 0.48527 0.16236 0.0
C561 C 0.1664 0.4968 0.15932 0.0
H562 H 0.24557 0.4674 0.20568 0.0
H563 H 0.21748 0.47887 0.13102 0.0
S564 S 0.10204 0.50905 0.2579 0.0
N565 N 0.14048 0.49736 0.28181 0.0
N566 N 0.11141 0.51134 0.20204 0.0
C567 C 0.14751 0.50288 0.20085 0.0
C568 C 0.16352 0.49535 0.24438 0.0
C569 C 0.67543 0.79014 0.19029 0.0
C570 C 0.68281 0.75495 0.22321 0.0
C571 C 0.65086 0.7605 0.14856 0.0
C572 C 0.63167 0.69423 0.13856 0.0
H573 H 0.69077 0.84123 0.19555 0.0
H574 H 0.64973 0.79033 0.12258 0.0
S575 S 0.63633 0.58012 0.21629 0.0
N576 N 0.66525 0.64963 0.24447 0.0
N577 N 0.61922 0.59472 0.1677 0.0
C578 C 0.63647 0.65869 0.17291 0.0
C579 C 0.66189 0.68869 0.2146 0.0
C580 C 0.4783 1.01359 0.18283 0.0
C581 C 0.49487 1.06628 0.15471 0.0
C582 C 0.43806 0.99208 0.2073 0.0
C583 C 0.41153 1.02185 0.20527 0.0
H584 H 0.49664 0.98814 0.18586 0.0
H585 H 0.42803 0.95202 0.22864 0.0
S586 S 0.43866 0.1617 0.13632 0.0
N587 N 0.48026 0.14765 0.12665 0.0
N588 N 0.40567 0.10764 0.17155 0.0
C589 C 0.42766 1.07462 0.17712 0.0
C590 C 0.46877 0.09672 0.1524 0.0
C591 C 0.55507 0.18736 0.87361 0.0
C592 C 0.54366 0.12924 0.89352 0.0
C593 C 0.52985 0.19067 0.83633 0.0
C594 C 0.49152 0.13628 0.8183 0.0
H595 H 0.58349 0.2306 0.88702 0.0
H596 H 0.54065 0.23593 0.82137 0.0
S597 S 0.44474 0.97344 0.86045 0.0
N598 N 0.49041 1.01602 0.89153 0.0
N599 N 0.44168 1.02377 0.82653 0.0
C600 C 0.47902 0.07873 0.83927 0.0
C601 C 0.5054 1.07477 0.87528 0.0
C602 C 0.99298 0.35698 0.90092 0.0
C603 C 1.00684 0.42108 0.91376 0.0
C604 C 0.96812 0.32687 0.85998 0.0
C605 C 0.95588 0.359 0.82871 0.0
H606 H 1.0033 0.33033 0.92179 0.0
H607 H 0.96138 0.27887 0.85089 0.0
S608 S 0.9823 0.5273 0.84627 0.0
N609 N 1.00428 0.5152 0.89256 0.0
N610 N 0.95878 0.4593 0.81512 0.0
C611 C 0.96755 0.4224 0.84219 0.0
C612 C 0.99269 0.45316 0.88458 0.0
C613 C 0.80217 0.7112 0.84079 0.0
C614 C 0.81592 0.77202 0.82417 0.0
C615 C 0.76402 0.68018 0.86867 0.0
C616 C 0.73733 0.70785 0.88192 0.0
H617 H 0.82109 0.6873 0.8324 0.0
H618 H 0.75565 0.63396 0.88057 0.0
S619 S 0.75682 0.86453 0.84505 0.0
N620 N 0.79784 0.857 0.82183 0.0
N621 N 0.72751 0.79985 0.87341 0.0
C622 C 0.7505 0.76826 0.86495 0.0
C623 C 0.78922 0.79971 0.83661 0.0
C624 C 0.81829 0.86231 0.52251 0.0
C625 C 0.80497 0.81738 0.48441 0.0
C626 C 0.8441 0.86073 0.56035 0.0
C627 C 0.85832 0.81469 0.56168 0.0
H628 H 0.80787 0.89799 0.52372 0.0
H629 H 0.85102 0.89379 0.58981 0.0
S630 S 0.83538 0.68841 0.471 0.0
N631 N 0.81106 0.72679 0.45124 0.0
N632 N 0.85803 0.72489 0.52107 0.0
C633 C 0.84648 0.77134 0.52349 0.0
C634 C 0.82048 0.77249 0.48541 0.0
C635 C 0.32856 1.07468 0.48579 0.0
C636 C 0.32573 1.0176 0.46636 0.0
C637 C 0.34765 0.10072 0.53011 0.0
C638 C 0.36485 1.07078 0.55715 0.0
H639 H 0.31716 0.10085 0.46599 0.0
H640 H 0.35081 0.14593 0.54221 0.0
S641 S 0.35676 0.91368 0.52822 0.0
N642 N 0.33579 0.92758 0.48206 0.0
N643 N 0.37106 0.97561 0.56454 0.0
C644 C 0.35876 1.01114 0.53995 0.0
C645 C 0.33931 0.9847 0.49502 0.0
C646 C 1.07172 0.40427 0.55953 0.0
C647 C 1.05231 0.34206 0.57521 0.0
C648 C 0.10942 0.42876 0.53081 0.0
C649 C 0.13053 0.39323 0.51602 0.0
H650 H 1.05708 0.43398 0.56842 0.0
H651 H 0.12044 0.47498 0.51733 0.0
S652 S 0.09434 0.22878 0.54894 0.0
N653 N 1.05907 0.24674 0.57526 0.0
N654 N 0.12818 0.29188 0.52104 0.0
C655 C 0.11218 0.33185 0.5328 0.0
C656 C 1.07384 0.30682 0.56216 0.0
loop_
_geom_bond_atom_site_label_1
_geom_bond_atom_site_label_2
_geom_bond_distance
_geom_bond_site_symmetry_2
_ccdc_geom_bond_type
Eu0 C9 2.828 . S
Eu0 O11 2.392 1_655 S
Eu0 O13 2.418 1_655 S
Eu0 O18 2.373 . S
Eu0 O21 2.488 . S
Eu0 O22 2.471 1_554 S
Eu0 O23 2.349 1_554 S
Eu1 O10 2.373 1_554 S
Eu1 O14 2.488 1_554 S
Eu1 O15 2.471 . S
Eu1 O16 2.349 . S
Eu1 O19 2.392 1_455 S
Eu1 O20 2.418 1_554 S
Eu1 C30 2.828 . S
C2 O20 1.244 1_655 S
C2 O23 1.265 . S
C3 C4 1.379 1_554 S
C3 C7 1.373 . S
C3 C9 1.505 . S
C4 C3 1.379 1_556 S
C4 C6 1.369 . S
C4 H32 0.930 . S
C5 C7 1.383 . S
C5 C8 1.382 . S
C5 H33 0.930 . S
C6 C4 1.369 . S
C6 C8 1.392 1_556 S
C6 H34 0.930 . S
C7 C3 1.373 . S
C7 C5 1.383 . S
C7 H35 0.931 . S
C8 C5 1.382 . S
C8 C6 1.392 1_554 S
C9 Eu0 2.828 . S
C9 C3 1.505 . S
C9 O21 1.249 . S
C9 O22 1.244 1_554 S
O10 Eu1 2.373 1_556 S
O10 C12 1.258 1_556 S
O11 Eu0 2.392 1_455 S
O11 C12 1.242 . S
C12 O10 1.258 1_554 S
C12 O11 1.242 . S
O13 Eu0 2.418 1_455 S
O13 C17 1.244 . S
O14 Eu1 2.488 1_556 S
O14 C30 1.249 1_556 S
O15 Eu1 2.471 . S
O15 C30 1.244 . S
O16 Eu1 2.349 . S
O16 C17 1.265 . S
C17 O13 1.244 . S
C17 O16 1.265 . S
O18 Eu0 2.373 . S
O18 C31 1.258 . S
O19 Eu1 2.392 1_655 S
O19 C31 1.242 . S
O20 Eu1 2.418 1_556 S
O20 C2 1.244 1_455 S
O21 Eu0 2.488 . S
O21 C9 1.249 . S
O22 Eu0 2.471 1_556 S
O22 C9 1.244 1_556 S
O23 Eu0 2.349 1_556 S
O23 C2 1.265 . S
C24 C25 1.379 . S
C24 C28 1.373 1_554 S
C24 C30 1.505 . S
C25 C24 1.379 . S
C25 C27 1.369 . S
C25 H36 0.930 . S
C26 C28 1.383 . S
C26 C29 1.382 1_556 S
C26 H37 0.930 . S
C27 C25 1.369 . S
C27 C29 1.392 . S
C27 H38 0.930 . S
C28 C24 1.373 1_556 S
C28 C26 1.383 . S
C28 H39 0.931 . S
C29 C26 1.382 1_554 S
C29 C27 1.392 . S
C30 Eu1 2.828 . S
C30 O14 1.249 1_554 S
C30 O15 1.244 . S
C30 C24 1.505 . S
C31 O18 1.258 . S
C31 O19 1.242 . S
H32 C4 0.930 . S
H33 C5 0.930 . S
H34 C6 0.930 . S
H35 C7 0.931 . S
H36 C25 0.930 . S
H37 C26 0.930 . S
H38 C27 0.930 . S
H39 C28 0.931 . S
Eu40 C49 2.828 . S
Eu40 O51 2.392 . S
Eu40 O53 2.418 . S
Eu40 O58 2.373 . S
Eu40 O61 2.488 . S
Eu40 O62 2.471 1_556 S
Eu40 O63 2.349 1_556 S
Eu41 O50 2.373 . S
Eu41 O54 2.488 . S
Eu41 O55 2.471 1_554 S
Eu41 O56 2.349 1_554 S
Eu41 O59 2.392 . S
Eu41 O60 2.418 . S
Eu41 C70 2.828 . S
C42 O60 1.244 . S
C42 O63 1.265 . S
C43 C44 1.379 1_556 S
C43 C47 1.373 . S
C43 C49 1.505 . S
C44 C43 1.379 1_554 S
C44 C46 1.369 . S
C44 H72 0.930 . S
C45 C47 1.383 . S
C45 C48 1.382 . S
C45 H73 0.930 . S
C46 C44 1.369 . S
C46 C48 1.392 1_554 S
C46 H74 0.930 . S
C47 C43 1.373 . S
C47 C45 1.383 . S
C47 H75 0.931 . S
C48 C45 1.382 . S
C48 C46 1.392 1_556 S
C49 Eu40 2.828 . S
C49 C43 1.505 . S
C49 O61 1.249 . S
C49 O62 1.244 1_556 S
O50 Eu41 2.373 . S
O50 C52 1.258 . S
O51 Eu40 2.392 . S
O51 C52 1.242 1_556 S
C52 O50 1.258 . S
C52 O51 1.242 1_554 S
O53 Eu40 2.418 . S
O53 C57 1.244 . S
O54 Eu41 2.488 . S
O54 C70 1.249 . S
O55 Eu41 2.471 1_556 S
O55 C70 1.244 1_556 S
O56 Eu41 2.349 1_556 S
O56 C57 1.265 . S
C57 O53 1.244 . S
C57 O56 1.265 . S
O58 Eu40 2.373 . S
O58 C71 1.258 . S
O59 Eu41 2.392 . S
O59 C71 1.242 1_554 S
O60 Eu41 2.418 . S
O60 C42 1.244 . S
O61 Eu40 2.488 . S
O61 C49 1.249 . S
O62 Eu40 2.471 1_554 S
O62 C49 1.244 1_554 S
O63 Eu40 2.349 1_554 S
O63 C42 1.265 . S
C64 C65 1.379 1_554 S
C64 C68 1.373 . S
C64 C70 1.505 . S
C65 C64 1.379 1_556 S
C65 C67 1.369 . S
C65 H76 0.930 . S
C66 C68 1.383 . S
C66 C69 1.382 . S
C66 H77 0.930 . S
C67 C65 1.369 . S
C67 C69 1.392 1_556 S
C67 H78 0.930 . S
C68 C64 1.373 . S
C68 C66 1.383 . S
C68 H79 0.931 . S
C69 C66 1.382 . S
C69 C67 1.392 1_554 S
C70 Eu41 2.828 . S
C70 O54 1.249 . S
C70 O55 1.244 1_554 S
C70 C64 1.505 . S
C71 O58 1.258 . S
C71 O59 1.242 1_556 S
H72 C44 0.930 . S
H73 C45 0.930 . S
H74 C46 0.930 . S
H75 C47 0.931 . S
H76 C65 0.930 . S
H77 C66 0.930 . S
H78 C67 0.930 . S
H79 C68 0.931 . S
Eu80 C89 2.828 . S
Eu80 O91 2.392 1_545 S
Eu80 O93 2.418 . S
Eu80 O98 2.373 . S
Eu80 O101 2.488 . S
Eu80 O102 2.471 1_554 S
Eu80 O103 2.349 1_554 S
Eu81 O90 2.373 . S
Eu81 O94 2.488 . S
Eu81 O95 2.471 1_556 S
Eu81 O96 2.349 1_556 S
Eu81 O99 2.392 1_566 S
Eu81 O100 2.418 . S
Eu81 C110 2.828 . S
C82 O100 1.244 1_545 S
C82 O103 1.265 . S
C83 C84 1.379 1_554 S
C83 C87 1.373 . S
C83 C89 1.505 . S
C84 C83 1.379 1_556 S
C84 C86 1.369 . S
C84 H112 0.930 . S
C85 C87 1.383 . S
C85 C88 1.382 . S
C85 H113 0.930 . S
C86 C84 1.369 . S
C86 C88 1.392 1_556 S
C86 H114 0.930 . S
C87 C83 1.373 . S
C87 C85 1.383 . S
C87 H115 0.931 . S
C88 C85 1.382 . S
C88 C86 1.392 1_554 S
C89 Eu80 2.828 . S
C89 C83 1.505 . S
C89 O101 1.249 . S
C89 O102 1.244 1_554 S
O90 Eu81 2.373 . S
O90 C92 1.258 1_556 S
O91 Eu80 2.392 1_565 S
O91 C92 1.242 . S
C92 O90 1.258 1_554 S
C92 O91 1.242 . S
O93 Eu80 2.418 . S
O93 C97 1.244 1_545 S
O94 Eu81 2.488 . S
O94 C110 1.249 . S
O95 Eu81 2.471 1_554 S
O95 C110 1.244 1_554 S
O96 Eu81 2.349 1_554 S
O96 C97 1.265 . S
C97 O93 1.244 1_565 S
C97 O96 1.265 . S
O98 Eu80 2.373 . S
O98 C111 1.258 . S
O99 Eu81 2.392 1_544 S
O99 C111 1.242 . S
O100 Eu81 2.418 . S
O100 C82 1.244 1_565 S
O101 Eu80 2.488 . S
O101 C89 1.249 . S
O102 Eu80 2.471 1_556 S
O102 C89 1.244 1_556 S
O103 Eu80 2.349 1_556 S
O103 C82 1.265 . S
C104 C105 1.379 1_556 S
C104 C108 1.373 . S
C104 C110 1.505 . S
C105 C104 1.379 1_554 S
C105 C107 1.369 . S
C105 H116 0.930 . S
C106 C108 1.383 . S
C106 C109 1.382 . S
C106 H117 0.930 . S
C107 C105 1.369 . S
C107 C109 1.392 1_554 S
C107 H118 0.930 . S
C108 C104 1.373 . S
C108 C106 1.383 . S
C108 H119 0.931 . S
C109 C106 1.382 . S
C109 C107 1.392 1_556 S
C110 Eu81 2.828 . S
C110 O94 1.249 . S
C110 O95 1.244 1_556 S
C110 C104 1.505 . S
C111 O98 1.258 . S
C111 O99 1.242 . S
H112 C84 0.930 . S
H113 C85 0.930 . S
H114 C86 0.930 . S
H115 C87 0.931 . S
H116 C105 0.930 . S
H117 C106 0.930 . S
H118 C107 0.930 . S
H119 C108 0.931 . S
Eu120 C129 2.828 . S
Eu120 O131 2.392 . S
Eu120 O133 2.418 . S
Eu120 O138 2.373 . S
Eu120 O141 2.488 . S
Eu120 O142 2.471 . S
Eu120 O143 2.349 . S
Eu121 O130 2.373 . S
Eu121 O134 2.488 . S
Eu121 O135 2.471 . S
Eu121 O136 2.349 . S
Eu121 O139 2.392 . S
Eu121 O140 2.418 . S
Eu121 C150 2.828 . S
C122 O140 1.244 . S
C122 O143 1.265 . S
C123 C124 1.379 . S
C123 C127 1.373 . S
C123 C129 1.505 . S
C124 C123 1.379 . S
C124 C126 1.369 . S
C124 H152 0.930 . S
C125 C127 1.383 . S
C125 C128 1.382 . S
C125 H153 0.930 . S
C126 C124 1.369 . S
C126 C128 1.392 . S
C126 H154 0.930 . S
C127 C123 1.373 . S
C127 C125 1.383 . S
C127 H155 0.931 . S
C128 C125 1.382 . S
C128 C126 1.392 . S
C129 Eu120 2.828 . S
C129 C123 1.505 . S
C129 O141 1.249 . S
C129 O142 1.244 . S
O130 Eu121 2.373 . S
O130 C132 1.258 . S
O131 Eu120 2.392 . S
O131 C132 1.242 . S
C132 O130 1.258 . S
C132 O131 1.242 . S
O133 Eu120 2.418 . S
O133 C137 1.244 . S
O134 Eu121 2.488 . S
O134 C150 1.249 . S
O135 Eu121 2.471 . S
O135 C150 1.244 . S
O136 Eu121 2.349 . S
O136 C137 1.265 . S
C137 O133 1.244 . S
C137 O136 1.265 . S
O138 Eu120 2.373 . S
O138 C151 1.258 . S
O139 Eu121 2.392 . S
O139 C151 1.242 . S
O140 Eu121 2.418 . S
O140 C122 1.244 . S
O141 Eu120 2.488 . S
O141 C129 1.249 . S
O142 Eu120 2.471 . S
O142 C129 1.244 . S
O143 Eu120 2.349 . S
O143 C122 1.265 . S
C144 C145 1.379 . S
C144 C148 1.373 . S
C144 C150 1.505 . S
C145 C144 1.379 . S
C145 C147 1.369 . S
C145 H156 0.930 . S
C146 C148 1.383 . S
C146 C149 1.382 . S
C146 H157 0.930 . S
C147 C145 1.369 . S
C147 C149 1.392 . S
C147 H158 0.930 . S
C148 C144 1.373 . S
C148 C146 1.383 . S
C148 H159 0.931 . S
C149 C146 1.382 . S
C149 C147 1.392 . S
C150 Eu121 2.828 . S
C150 O134 1.249 . S
C150 O135 1.244 . S
C150 C144 1.505 . S
C151 O138 1.258 . S
C151 O139 1.242 . S
H152 C124 0.930 . S
H153 C125 0.930 . S
H154 C126 0.930 . S
H155 C127 0.931 . S
H156 C145 0.930 . S
H157 C146 0.930 . S
H158 C147 0.930 . S
H159 C148 0.931 . S
Eu160 C169 2.828 . S
Eu160 O171 2.392 . S
Eu160 O173 2.418 . S
Eu160 O178 2.373 . S
Eu160 O181 2.488 . S
Eu160 O182 2.471 . S
Eu160 O183 2.349 . S
Eu161 O170 2.373 . S
Eu161 O174 2.488 1_565 S
Eu161 O175 2.471 1_565 S
Eu161 O176 2.349 . S
Eu161 O179 2.392 . S
Eu161 O180 2.418 . S
Eu161 C190 2.828 1_565 S
C162 O180 1.244 . S
C162 O183 1.265 . S
C163 C164 1.379 . S
C163 C167 1.373 . S
C163 C169 1.505 . S
C164 C163 1.379 . S
C164 C166 1.369 . S
C164 H192 0.930 . S
C165 C167 1.383 . S
C165 C168 1.382 . S
C165 H193 0.930 . S
C166 C164 1.369 . S
C166 C168 1.392 . S
C166 H194 0.930 . S
C167 C163 1.373 . S
C167 C165 1.383 . S
C167 H195 0.931 . S
C168 C165 1.382 . S
C168 C166 1.392 . S
C169 Eu160 2.828 . S
C169 C163 1.505 . S
C169 O181 1.249 . S
C169 O182 1.244 . S
O170 Eu161 2.373 . S
O170 C172 1.258 . S
O171 Eu160 2.392 . S
O171 C172 1.242 . S
C172 O170 1.258 . S
C172 O171 1.242 . S
O173 Eu160 2.418 . S
O173 C177 1.244 . S
O174 Eu161 2.488 1_545 S
O174 C190 1.249 . S
O175 Eu161 2.471 1_545 S
O175 C190 1.244 . S
O176 Eu161 2.349 . S
O176 C177 1.265 . S
C177 O173 1.244 . S
C177 O176 1.265 . S
O178 Eu160 2.373 . S
O178 C191 1.258 . S
O179 Eu161 2.392 . S
O179 C191 1.242 . S
O180 Eu161 2.418 . S
O180 C162 1.244 . S
O181 Eu160 2.488 . S
O181 C169 1.249 . S
O182 Eu160 2.471 . S
O182 C169 1.244 . S
O183 Eu160 2.349 . S
O183 C162 1.265 . S
C184 C185 1.379 . S
C184 C188 1.373 . S
C184 C190 1.505 . S
C185 C184 1.379 . S
C185 C187 1.369 . S
C185 H196 0.930 . S
C186 C188 1.383 . S
C186 C189 1.382 . S
C186 H197 0.930 . S
C187 C185 1.369 . S
C187 C189 1.392 . S
C187 H198 0.930 . S
C188 C184 1.373 . S
C188 C186 1.383 . S
C188 H199 0.931 . S
C189 C186 1.382 . S
C189 C187 1.392 . S
C190 Eu161 2.828 1_545 S
C190 O174 1.249 . S
C190 O175 1.244 . S
C190 C184 1.505 . S
C191 O178 1.258 . S
C191 O179 1.242 . S
H192 C164 0.930 . S
H193 C165 0.930 . S
H194 C166 0.930 . S
H195 C167 0.931 . S
H196 C185 0.930 . S
H197 C186 0.930 . S
H198 C187 0.930 . S
H199 C188 0.931 . S
Eu200 C209 2.828 . S
Eu200 O211 2.392 . S
Eu200 O213 2.418 . S
Eu200 O218 2.373 . S
Eu200 O221 2.488 . S
Eu200 O222 2.471 . S
Eu200 O223 2.349 . S
Eu201 O210 2.373 . S
Eu201 O214 2.488 . S
Eu201 O215 2.471 . S
Eu201 O216 2.349 . S
Eu201 O219 2.392 . S
Eu201 O220 2.418 . S
Eu201 C230 2.828 1_455 S
C202 O220 1.244 . S
C202 O223 1.265 . S
C203 C204 1.379 . S
C203 C207 1.373 . S
C203 C209 1.505 . S
C204 C203 1.379 . S
C204 C206 1.369 . S
C204 H232 0.930 . S
C205 C207 1.383 . S
C205 C208 1.382 . S
C205 H233 0.930 . S
C206 C204 1.369 . S
C206 C208 1.392 . S
C206 H234 0.930 . S
C207 C203 1.373 . S
C207 C205 1.383 . S
C207 H235 0.931 . S
C208 C205 1.382 . S
C208 C206 1.392 . S
C209 Eu200 2.828 . S
C209 C203 1.505 . S
C209 O221 1.249 . S
C209 O222 1.244 . S
O210 Eu201 2.373 . S
O210 C212 1.258 . S
O211 Eu200 2.392 . S
O211 C212 1.242 . S
C212 O210 1.258 . S
C212 O211 1.242 . S
O213 Eu200 2.418 . S
O213 C217 1.244 . S
O214 Eu201 2.488 . S
O214 C230 1.249 1_455 S
O215 Eu201 2.471 . S
O215 C230 1.244 1_455 S
O216 Eu201 2.349 . S
O216 C217 1.265 . S
C217 O213 1.244 . S
C217 O216 1.265 . S
O218 Eu200 2.373 . S
O218 C231 1.258 . S
O219 Eu201 2.392 . S
O219 C231 1.242 . S
O220 Eu201 2.418 . S
O220 C202 1.244 . S
O221 Eu200 2.488 . S
O221 C209 1.249 . S
O222 Eu200 2.471 . S
O222 C209 1.244 . S
O223 Eu200 2.349 . S
O223 C202 1.265 . S
C224 C225 1.379 . S
C224 C228 1.373 . S
C224 C230 1.505 . S
C225 C224 1.379 . S
C225 C227 1.369 . S
C225 H236 0.930 . S
C226 C228 1.383 . S
C226 C229 1.382 . S
C226 H237 0.930 . S
C227 C225 1.369 . S
C227 C229 1.392 . S
C227 H238 0.930 . S
C228 C224 1.373 . S
C228 C226 1.383 . S
C228 H239 0.931 . S
C229 C226 1.382 . S
C229 C227 1.392 . S
C230 Eu201 2.828 1_655 S
C230 O214 1.249 1_655 S
C230 O215 1.244 1_655 S
C230 C224 1.505 . S
C231 O218 1.258 . S
C231 O219 1.242 . S
H232 C204 0.930 . S
H233 C205 0.930 . S
H234 C206 0.930 . S
H235 C207 0.931 . S
H236 C225 0.930 . S
H237 C226 0.930 . S
H238 C227 0.930 . S
H239 C228 0.931 . S
Eu240 C249 2.828 . S
Eu240 O251 2.392 . S
Eu240 O253 2.418 . S
Eu240 O258 2.373 . S
Eu240 O261 2.488 . S
Eu240 O262 2.471 . S
Eu240 O263 2.349 . S
Eu241 O250 2.373 . S
Eu241 O254 2.488 . S
Eu241 O255 2.471 . S
Eu241 O256 2.349 . S
Eu241 O259 2.392 . S
Eu241 O260 2.418 . S
Eu241 C270 2.828 . S
C242 O260 1.244 . S
C242 O263 1.265 . S
C243 C244 1.379 . S
C243 C247 1.373 . S
C243 C249 1.505 . S
C244 C243 1.379 . S
C244 C246 1.369 . S
C244 H272 0.930 . S
C245 C247 1.383 . S
C245 C248 1.382 . S
C245 H273 0.930 . S
C246 C244 1.369 . S
C246 C248 1.392 . S
C246 H274 0.930 . S
C247 C243 1.373 . S
C247 C245 1.383 . S
C247 H275 0.931 . S
C248 C245 1.382 . S
C248 C246 1.392 . S
C249 Eu240 2.828 . S
C249 C243 1.505 . S
C249 O261 1.249 . S
C249 O262 1.244 . S
O250 Eu241 2.373 . S
O250 C252 1.258 . S
O251 Eu240 2.392 . S
O251 C252 1.242 . S
C252 O250 1.258 . S
C252 O251 1.242 . S
O253 Eu240 2.418 . S
O253 C257 1.244 . S
O254 Eu241 2.488 . S
O254 C270 1.249 . S
O255 Eu241 2.471 . S
O255 C270 1.244 . S
O256 Eu241 2.349 . S
O256 C257 1.265 . S
C257 O253 1.244 . S
C257 O256 1.265 . S
O258 Eu240 2.373 . S
O258 C271 1.258 . S
O259 Eu241 2.392 . S
O259 C271 1.242 . S
O260 Eu241 2.418 . S
O260 C242 1.244 . S
O261 Eu240 2.488 . S
O261 C249 1.249 . S
O262 Eu240 2.471 . S
O262 C249 1.244 . S
O263 Eu240 2.349 . S
O263 C242 1.265 . S
C264 C265 1.379 . S
C264 C268 1.373 . S
C264 C270 1.505 . S
C265 C264 1.379 . S
C265 C267 1.369 . S
C265 H276 0.930 . S
C266 C268 1.383 . S
C266 C269 1.382 . S
C266 H277 0.930 . S
C267 C265 1.369 . S
C267 C269 1.392 . S
C267 H278 0.930 . S
C268 C264 1.373 . S
C268 C266 1.383 . S
C268 H279 0.931 . S
C269 C266 1.382 . S
C269 C267 1.392 . S
C270 Eu241 2.828 . S
C270 O254 1.249 . S
C270 O255 1.244 . S
C270 C264 1.505 . S
C271 O258 1.258 . S
C271 O259 1.242 . S
H272 C244 0.930 . S
H273 C245 0.930 . S
H274 C246 0.930 . S
H275 C247 0.931 . S
H276 C265 0.930 . S
H277 C266 0.930 . S
H278 C267 0.930 . S
H279 C268 0.931 . S
Eu280 C289 2.828 . S
Eu280 O291 2.392 . S
Eu280 O293 2.418 . S
Eu280 O298 2.373 . S
Eu280 O301 2.488 . S
Eu280 O302 2.471 . S
Eu280 O303 2.349 . S
Eu281 O290 2.373 . S
Eu281 O294 2.488 1_655 S
Eu281 O295 2.471 1_655 S
Eu281 O296 2.349 . S
Eu281 O299 2.392 . S
Eu281 O300 2.418 . S
Eu281 C310 2.828 1_655 S
C282 O300 1.244 . S
C282 O303 1.265 . S
C283 C284 1.379 . S
C283 C287 1.373 . S
C283 C289 1.505 . S
C284 C283 1.379 . S
C284 C286 1.369 . S
C284 H312 0.930 . S
C285 C287 1.383 . S
C285 C288 1.382 . S
C285 H313 0.930 . S
C286 C284 1.369 . S
C286 C288 1.392 . S
C286 H314 0.930 . S
C287 C283 1.373 . S
C287 C285 1.383 . S
C287 H315 0.931 . S
C288 C285 1.382 . S
C288 C286 1.392 . S
C289 Eu280 2.828 . S
C289 C283 1.505 . S
C289 O301 1.249 . S
C289 O302 1.244 . S
O290 Eu281 2.373 . S
O290 C292 1.258 . S
O291 Eu280 2.392 . S
O291 C292 1.242 . S
C292 O290 1.258 . S
C292 O291 1.242 . S
O293 Eu280 2.418 . S
O293 C297 1.244 . S
O294 Eu281 2.488 1_455 S
O294 C310 1.249 . S
O295 Eu281 2.471 1_455 S
O295 C310 1.244 . S
O296 Eu281 2.349 . S
O296 C297 1.265 . S
C297 O293 1.244 . S
C297 O296 1.265 . S
O298 Eu280 2.373 . S
O298 C311 1.258 . S
O299 Eu281 2.392 . S
O299 C311 1.242 . S
O300 Eu281 2.418 . S
O300 C282 1.244 . S
O301 Eu280 2.488 . S
O301 C289 1.249 . S
O302 Eu280 2.471 . S
O302 C289 1.244 . S
O303 Eu280 2.349 . S
O303 C282 1.265 . S
C304 C305 1.379 . S
C304 C308 1.373 . S
C304 C310 1.505 . S
C305 C304 1.379 . S
C305 C307 1.369 . S
C305 H316 0.930 . S
C306 C308 1.383 . S
C306 C309 1.382 . S
C306 H317 0.930 . S
C307 C305 1.369 . S
C307 C309 1.392 . S
C307 H318 0.930 . S
C308 C304 1.373 . S
C308 C306 1.383 . S
C308 H319 0.931 . S
C309 C306 1.382 . S
C309 C307 1.392 . S
C310 Eu281 2.828 1_455 S
C310 O294 1.249 . S
C310 O295 1.244 . S
C310 C304 1.505 . S
C311 O298 1.258 . S
C311 O299 1.242 . S
H312 C284 0.930 . S
H313 C285 0.930 . S
H314 C286 0.930 . S
H315 C287 0.931 . S
H316 C305 0.930 . S
H317 C306 0.930 . S
H318 C307 0.930 . S
H319 C308 0.931 . S
Eu320 C329 2.828 . S
Eu320 O331 2.392 . S
Eu320 O333 2.418 . S
Eu320 O338 2.373 . S
Eu320 O341 2.488 . S
Eu320 O342 2.471 . S
Eu320 O343 2.349 . S
Eu321 O330 2.373 . S
Eu321 O334 2.488 . S
Eu321 O335 2.471 . S
Eu321 O336 2.349 . S
Eu321 O339 2.392 . S
Eu321 O340 2.418 . S
Eu321 C350 2.828 . S
C322 O340 1.244 . S
C322 O343 1.265 . S
C323 C324 1.379 . S
C323 C327 1.373 1_655 S
C323 C329 1.505 . S
C324 C323 1.379 . S
C324 C326 1.369 1_655 S
C324 H352 0.930 . S
C325 C327 1.383 . S
C325 C328 1.382 . S
C325 H353 0.930 . S
C326 C324 1.369 1_455 S
C326 C328 1.392 . S
C326 H354 0.930 . S
C327 C323 1.373 1_455 S
C327 C325 1.383 . S
C327 H355 0.931 1_455 S
C328 C325 1.382 . S
C328 C326 1.392 . S
C329 Eu320 2.828 . S
C329 C323 1.505 . S
C329 O341 1.249 . S
C329 O342 1.244 . S
O330 Eu321 2.373 . S
O330 C332 1.258 . S
O331 Eu320 2.392 . S
O331 C332 1.242 . S
C332 O330 1.258 . S
C332 O331 1.242 . S
O333 Eu320 2.418 . S
O333 C337 1.244 . S
O334 Eu321 2.488 . S
O334 C350 1.249 . S
O335 Eu321 2.471 . S
O335 C350 1.244 . S
O336 Eu321 2.349 . S
O336 C337 1.265 . S
C337 O333 1.244 . S
C337 O336 1.265 . S
O338 Eu320 2.373 . S
O338 C351 1.258 . S
O339 Eu321 2.392 . S
O339 C351 1.242 . S
O340 Eu321 2.418 . S
O340 C322 1.244 . S
O341 Eu320 2.488 . S
O341 C329 1.249 . S
O342 Eu320 2.471 . S
O342 C329 1.244 . S
O343 Eu320 2.349 . S
O343 C322 1.265 . S
C344 C345 1.379 . S
C344 C348 1.373 . S
C344 C350 1.505 . S
C345 C344 1.379 . S
C345 C347 1.369 . S
C345 H356 0.930 . S
C346 C348 1.383 . S
C346 C349 1.382 . S
C346 H357 0.930 . S
C347 C345 1.369 . S
C347 C349 1.392 . S
C347 H358 0.930 . S
C348 C344 1.373 . S
C348 C346 1.383 . S
C348 H359 0.931 . S
C349 C346 1.382 . S
C349 C347 1.392 . S
C350 Eu321 2.828 . S
C350 O334 1.249 . S
C350 O335 1.244 . S
C350 C344 1.505 . S
C351 O338 1.258 . S
C351 O339 1.242 . S
H352 C324 0.930 . S
H353 C325 0.930 . S
H354 C326 0.930 . S
H355 C327 0.931 1_655 S
H356 C345 0.930 . S
H357 C346 0.930 . S
H358 C347 0.930 . S
H359 C348 0.931 . S
C360 C361 1.369 1_554 S
C360 C362 1.419 . S
C360 H364 0.930 . S
C361 C360 1.369 1_556 S
C361 C370 1.429 . S
C362 C360 1.419 . S
C362 C363 1.367 . S
C362 H365 0.929 . S
C363 C362 1.367 . S
C363 C369 1.423 1_554 S
H364 C360 0.930 . S
H365 C362 0.929 . S
S366 N367 1.613 . S
S366 N368 1.610 . S
N367 S366 1.613 . S
N367 C370 1.350 . S
N368 S366 1.610 . S
N368 C369 1.351 . S
C369 C363 1.423 1_556 S
C369 N368 1.351 . S
C369 C370 1.434 . S
C370 C361 1.429 . S
C370 N367 1.350 . S
C370 C369 1.434 . S
C371 C372 1.369 . S
C371 C373 1.419 . S
C371 H375 0.930 . S
C372 C371 1.369 . S
C372 C381 1.429 1_556 S
C373 C371 1.419 . S
C373 C374 1.363 . S
C373 H376 0.929 . S
C374 C373 1.363 . S
C374 C380 1.428 1_556 S
H375 C371 0.930 . S
H376 C373 0.929 . S
S377 N378 1.613 . S
S377 N379 1.610 . S
N378 S377 1.613 . S
N378 C381 1.350 . S
N379 S377 1.610 . S
N379 C380 1.351 . S
C380 C374 1.428 1_554 S
C380 N379 1.351 . S
C380 C381 1.434 . S
C381 C372 1.429 1_554 S
C381 N378 1.350 . S
C381 C380 1.434 . S
C382 C383 1.369 1_554 S
C382 C384 1.419 . S
C382 H386 0.930 . S
C383 C382 1.369 1_556 S
C383 C392 1.430 . S
C384 C382 1.419 . S
C384 C385 1.363 . S
C384 H387 0.929 . S
C385 C384 1.363 . S
C385 C391 1.428 . S
H386 C382 0.930 . S
H387 C384 0.929 . S
S388 N389 1.611 1_554 S
S388 N390 1.610 . S
N389 S388 1.611 1_556 S
N389 C392 1.350 . S
N390 S388 1.610 . S
N390 C391 1.351 . S
C391 C385 1.428 . S
C391 N390 1.351 . S
C391 C392 1.431 1_554 S
C392 C383 1.430 . S
C392 N389 1.350 . S
C392 C391 1.431 1_556 S
C393 C394 1.369 1_556 S
C393 C395 1.419 . S
C393 H397 0.930 . S
C394 C393 1.369 1_554 S
C394 C403 1.429 . S
C395 C393 1.419 . S
C395 C396 1.363 1_556 S
C395 H398 0.929 . S
C396 C395 1.363 1_554 S
C396 C402 1.428 . S
H397 C393 0.930 . S
H398 C395 0.929 . S
S399 N400 1.613 . S
S399 N401 1.610 . S
N400 S399 1.613 . S
N400 C403 1.350 . S
N401 S399 1.610 . S
N401 C402 1.351 . S
C402 C396 1.428 . S
C402 N401 1.351 . S
C402 C403 1.434 . S
C403 C394 1.429 . S
C403 N400 1.350 . S
C403 C402 1.434 . S
C404 C405 1.369 1_556 S
C404 C406 1.419 . S
C404 H408 0.930 . S
C405 C404 1.369 1_554 S
C405 C414 1.429 . S
C406 C404 1.419 . S
C406 C407 1.363 1_556 S
C406 H409 0.929 . S
C407 C406 1.363 1_554 S
C407 C413 1.428 . S
H408 C404 0.930 . S
H409 C406 0.929 . S
S410 N411 1.613 . S
S410 N412 1.610 . S
N411 S410 1.613 . S
N411 C414 1.350 . S
N412 S410 1.610 . S
N412 C413 1.351 . S
C413 C407 1.428 . S
C413 N412 1.351 . S
C413 C414 1.434 . S
C414 C405 1.429 . S
C414 N411 1.350 . S
C414 C413 1.434 . S
C415 C416 1.369 1_556 S
C415 C417 1.419 . S
C415 H419 0.930 . S
C416 C415 1.369 1_554 S
C416 C425 1.429 . S
C417 C415 1.419 . S
C417 C418 1.363 1_556 S
C417 H420 0.929 . S
C418 C417 1.363 1_554 S
C418 C424 1.428 . S
H419 C415 0.930 . S
H420 C417 0.929 . S
S421 N422 1.613 . S
S421 N423 1.610 . S
N422 S421 1.613 . S
N422 C425 1.350 . S
N423 S421 1.610 . S
N423 C424 1.351 . S
C424 C418 1.428 . S
C424 N423 1.351 . S
C424 C425 1.434 . S
C425 C416 1.429 . S
C425 N422 1.350 . S
C425 C424 1.434 . S
C426 C427 1.369 1_455 S
C426 C428 1.419 . S
C426 H430 0.930 1_455 S
C427 C426 1.369 1_655 S
C427 C436 1.429 1_655 S
C428 C426 1.419 . S
C428 C429 1.363 . S
C428 H431 0.929 . S
C429 C428 1.363 . S
C429 C435 1.428 . S
H430 C426 0.930 1_655 S
H431 C428 0.929 . S
S432 N433 1.613 1_455 S
S432 N434 1.610 . S
N433 S432 1.613 1_655 S
N433 C436 1.350 1_655 S
N434 S432 1.610 . S
N434 C435 1.351 . S
C435 C429 1.428 . S
C435 N434 1.351 . S
C435 C436 1.434 . S
C436 C427 1.429 1_455 S
C436 N433 1.350 1_455 S
C436 C435 1.434 . S
C437 C438 1.369 . S
C437 C439 1.419 . S
C437 H441 0.930 . S
C438 C437 1.369 . S
C438 C447 1.429 . S
C439 C437 1.419 . S
C439 C440 1.363 . S
C439 H442 0.929 . S
C440 C439 1.363 . S
C440 C446 1.428 . S
H441 C437 0.930 . S
H442 C439 0.929 . S
S443 N444 1.613 . S
S443 N445 1.610 . S
N444 S443 1.613 . S
N444 C447 1.350 . S
N445 S443 1.610 . S
N445 C446 1.351 . S
C446 C440 1.428 . S
C446 N445 1.351 . S
C446 C447 1.434 . S
C447 C438 1.429 . S
C447 N444 1.350 . S
C447 C446 1.434 . S
C448 C449 1.369 1_565 S
C448 C450 1.419 . S
C448 H452 0.930 1_565 S
C449 C448 1.369 1_545 S
C449 C458 1.429 1_545 S
C450 C448 1.419 . S
C450 C451 1.363 . S
C450 H453 0.929 . S
C451 C450 1.363 . S
C451 C457 1.428 . S
H452 C448 0.930 1_545 S
H453 C450 0.929 . S
S454 N455 1.613 . S
S454 N456 1.610 . S
N455 S454 1.613 . S
N455 C458 1.350 . S
N456 S454 1.610 . S
N456 C457 1.351 . S
C457 C451 1.428 . S
C457 N456 1.351 . S
C457 C458 1.434 . S
C458 C449 1.429 1_565 S
C458 N455 1.350 . S
C458 C457 1.434 . S
C459 C460 1.369 . S
C459 C461 1.419 . S
C459 H463 0.930 . S
C460 C459 1.369 . S
C460 C469 1.429 . S
C461 C459 1.419 . S
C461 C462 1.363 . S
C461 H464 0.929 . S
C462 C461 1.363 . S
C462 C468 1.428 . S
H463 C459 0.930 . S
H464 C461 0.929 . S
S465 N466 1.613 . S
S465 N467 1.610 . S
N466 S465 1.613 . S
N466 C469 1.350 . S
N467 S465 1.610 . S
N467 C468 1.351 . S
C468 C462 1.428 . S
C468 N467 1.351 . S
C468 C469 1.434 . S
C469 C460 1.429 . S
C469 N466 1.350 . S
C469 C468 1.434 . S
C470 C471 1.369 . S
C470 C472 1.419 . S
C470 H474 0.930 . S
C471 C470 1.369 . S
C471 C480 1.429 . S
C472 C470 1.419 . S
C472 C473 1.363 . S
C472 H475 0.929 . S
C473 C472 1.363 . S
C473 C479 1.428 . S
H474 C470 0.930 . S
H475 C472 0.929 . S
S476 N477 1.613 . S
S476 N478 1.610 . S
N477 S476 1.613 . S
N477 C480 1.350 . S
N478 S476 1.610 . S
N478 C479 1.351 . S
C479 C473 1.428 . S
C479 N478 1.351 . S
C479 C480 1.434 . S
C480 C471 1.429 . S
C480 N477 1.350 . S
C480 C479 1.434 . S
C481 C482 1.369 . S
C481 C483 1.419 . S
C481 H485 0.930 . S
C482 C481 1.369 . S
C482 C491 1.429 . S
C483 C481 1.419 . S
C483 C484 1.363 . S
C483 H486 0.929 . S
C484 C483 1.363 . S
C484 C490 1.428 . S
H485 C481 0.930 . S
H486 C483 0.929 . S
S487 N488 1.613 . S
S487 N489 1.610 . S
N488 S487 1.613 . S
N488 C491 1.350 . S
N489 S487 1.610 . S
N489 C490 1.351 . S
C490 C484 1.428 . S
C490 N489 1.351 . S
C490 C491 1.434 . S
C491 C482 1.429 . S
C491 N488 1.350 . S
C491 C490 1.434 . S
C492 C493 1.369 . S
C492 C494 1.419 . S
C492 H496 0.930 . S
C493 C492 1.369 . S
C493 C502 1.429 . S
C494 C492 1.419 . S
C494 C495 1.363 . S
C494 H497 0.929 . S
C495 C494 1.363 . S
C495 C501 1.428 . S
H496 C492 0.930 . S
H497 C494 0.929 . S
S498 N499 1.613 . S
S498 N500 1.610 . S
N499 S498 1.613 . S
N499 C502 1.350 . S
N500 S498 1.610 . S
N500 C501 1.351 . S
C501 C495 1.428 . S
C501 N500 1.351 . S
C501 C502 1.434 . S
C502 C493 1.429 . S
C502 N499 1.350 . S
C502 C501 1.434 . S
C503 C504 1.369 . S
C503 C505 1.419 . S
C503 H507 0.930 . S
C504 C503 1.369 . S
C504 C513 1.429 . S
C505 C503 1.419 . S
C505 C506 1.363 . S
C505 H508 0.929 . S
C506 C505 1.363 . S
C506 C512 1.428 . S
H507 C503 0.930 . S
H508 C505 0.929 . S
S509 N510 1.613 . S
S509 N511 1.610 . S
N510 S509 1.613 . S
N510 C513 1.350 . S
N511 S509 1.610 . S
N511 C512 1.351 . S
C512 C506 1.428 . S
C512 N511 1.351 . S
C512 C513 1.434 . S
C513 C504 1.429 . S
C513 N510 1.350 . S
C513 C512 1.434 . S
C514 C515 1.369 . S
C514 C516 1.419 . S
C514 H518 0.930 . S
C515 C514 1.369 . S
C515 C524 1.429 . S
C516 C514 1.419 . S
C516 C517 1.363 . S
C516 H519 0.929 . S
C517 C516 1.363 . S
C517 C523 1.428 . S
H518 C514 0.930 . S
H519 C516 0.929 . S
S520 N521 1.613 . S
S520 N522 1.610 . S
N521 S520 1.613 . S
N521 C524 1.350 . S
N522 S520 1.610 . S
N522 C523 1.351 . S
C523 C517 1.428 . S
C523 N522 1.351 . S
C523 C524 1.434 . S
C524 C515 1.429 . S
C524 N521 1.350 . S
C524 C523 1.434 . S
C525 C526 1.369 . S
C525 C527 1.419 . S
C525 H529 0.930 . S
C526 C525 1.369 . S
C526 C535 1.429 . S
C527 C525 1.419 . S
C527 C528 1.363 1_565 S
C527 H530 0.929 . S
C528 C527 1.363 1_545 S
C528 C534 1.438 . S
H529 C525 0.930 . S
H530 C527 0.929 . S
S531 N532 1.613 . S
S531 N533 1.610 1_565 S
N532 S531 1.613 . S
N532 C535 1.350 . S
N533 S531 1.610 1_545 S
N533 C534 1.357 . S
C534 C528 1.438 . S
C534 N533 1.357 . S
C534 C535 1.417 1_545 S
C535 C526 1.429 . S
C535 N532 1.350 . S
C535 C534 1.417 1_565 S
C536 C537 1.377 . S
C536 C538 1.419 . S
C536 H540 0.930 . S
C537 C536 1.377 . S
C537 C546 1.431 1_565 S
C538 C536 1.419 . S
C538 C539 1.363 . S
C538 H541 0.929 . S
C539 C538 1.363 . S
C539 C545 1.428 1_565 S
H540 C536 0.930 . S
H541 C538 0.929 . S
S542 N543 1.613 . S
S542 N544 1.610 . S
N543 S542 1.613 . S
N543 C546 1.350 . S
N544 S542 1.610 . S
N544 C545 1.351 . S
C545 C539 1.428 1_545 S
C545 N544 1.351 . S
C545 C546 1.434 . S
C546 C537 1.431 1_545 S
C546 N543 1.350 . S
C546 C545 1.434 . S
C547 C548 1.369 . S
C547 C549 1.419 . S
C547 H551 0.930 . S
C548 C547 1.369 . S
C548 C557 1.429 . S
C549 C547 1.419 . S
C549 C550 1.363 . S
C549 H552 0.929 . S
C550 C549 1.363 . S
C550 C556 1.428 . S
H551 C547 0.930 . S
H552 C549 0.929 . S
S553 N554 1.613 . S
S553 N555 1.610 . S
N554 S553 1.613 . S
N554 C557 1.350 . S
N555 S553 1.610 . S
N555 C556 1.351 . S
C556 C550 1.428 . S
C556 N555 1.351 . S
C556 C557 1.434 . S
C557 C548 1.429 . S
C557 N554 1.350 . S
C557 C556 1.434 . S
C558 C559 1.369 . S
C558 C560 1.419 . S
C558 H562 0.930 . S
C559 C558 1.369 . S
C559 C568 1.429 . S
C560 C558 1.419 . S
C560 C561 1.363 . S
C560 H563 0.929 . S
C561 C560 1.363 . S
C561 C567 1.428 . S
H562 C558 0.930 . S
H563 C560 0.929 . S
S564 N565 1.615 . S
S564 N566 1.610 . S
N565 S564 1.615 . S
N565 C568 1.350 . S
N566 S564 1.610 . S
N566 C567 1.351 . S
C567 C561 1.428 . S
C567 N566 1.351 . S
C567 C568 1.434 . S
C568 C559 1.429 . S
C568 N565 1.350 . S
C568 C567 1.434 . S
C569 C570 1.369 . S
C569 C571 1.419 . S
C569 H573 0.930 . S
C570 C569 1.369 . S
C570 C579 1.429 . S
C571 C569 1.419 . S
C571 C572 1.363 . S
C571 H574 0.929 . S
C572 C571 1.363 . S
C572 C578 1.428 . S
H573 C569 0.930 . S
H574 C571 0.929 . S
S575 N576 1.613 . S
S575 N577 1.610 . S
N576 S575 1.613 . S
N576 C579 1.350 . S
N577 S575 1.610 . S
N577 C578 1.351 . S
C578 C572 1.428 . S
C578 N577 1.351 . S
C578 C579 1.434 . S
C579 C570 1.429 . S
C579 N576 1.350 . S
C579 C578 1.434 . S
C580 C581 1.369 . S
C580 C582 1.419 . S
C580 H584 0.930 . S
C581 C580 1.369 . S
C581 C590 1.429 . S
C582 C580 1.419 . S
C582 C583 1.363 . S
C582 H585 0.929 . S
C583 C582 1.363 . S
C583 C589 1.428 . S
H584 C580 0.930 . S
H585 C582 0.929 . S
S586 N587 1.613 . S
S586 N588 1.610 1_545 S
N587 S586 1.613 . S
N587 C590 1.350 1_545 S
N588 S586 1.610 1_565 S
N588 C589 1.351 . S
C589 C583 1.428 . S
C589 N588 1.351 . S
C589 C590 1.434 . S
C590 C581 1.429 . S
C590 N587 1.350 1_565 S
C590 C589 1.434 . S
C591 C592 1.369 . S
C591 C593 1.419 . S
C591 H595 0.930 . S
C592 C591 1.369 . S
C592 C601 1.429 . S
C593 C591 1.419 . S
C593 C594 1.363 . S
C593 H596 0.929 . S
C594 C593 1.363 . S
C594 C600 1.428 . S
H595 C591 0.930 . S
H596 C593 0.929 . S
S597 N598 1.613 . S
S597 N599 1.610 . S
N598 S597 1.613 . S
N598 C601 1.350 1_565 S
N599 S597 1.610 . S
N599 C600 1.351 1_565 S
C600 C594 1.428 . S
C600 N599 1.351 1_545 S
C600 C601 1.434 . S
C601 C592 1.429 . S
C601 N598 1.350 1_545 S
C601 C600 1.434 . S
C602 C603 1.369 . S
C602 C604 1.419 . S
C602 H606 0.930 . S
C603 C602 1.369 . S
C603 C612 1.429 . S
C604 C602 1.419 . S
C604 C605 1.363 . S
C604 H607 0.929 . S
C605 C604 1.363 . S
C605 C611 1.428 . S
H606 C602 0.930 . S
H607 C604 0.929 . S
S608 N609 1.613 . S
S608 N610 1.610 . S
N609 S608 1.613 . S
N609 C612 1.350 . S
N610 S608 1.610 . S
N610 C611 1.351 . S
C611 C605 1.428 . S
C611 N610 1.351 . S
C611 C612 1.434 . S
C612 C603 1.429 . S
C612 N609 1.350 . S
C612 C611 1.434 . S
C613 C614 1.369 . S
C613 C615 1.419 . S
C613 H617 0.930 . S
C614 C613 1.369 . S
C614 C623 1.429 . S
C615 C613 1.419 . S
C615 C616 1.363 . S
C615 H618 0.929 . S
C616 C615 1.363 . S
C616 C622 1.428 . S
H617 C613 0.930 . S
H618 C615 0.929 . S
S619 N620 1.613 . S
S619 N621 1.610 . S
N620 S619 1.613 . S
N620 C623 1.350 . S
N621 S619 1.610 . S
N621 C622 1.351 . S
C622 C616 1.428 . S
C622 N621 1.351 . S
C622 C623 1.434 . S
C623 C614 1.429 . S
C623 N620 1.350 . S
C623 C622 1.434 . S
C624 C625 1.369 . S
C624 C626 1.419 . S
C624 H628 0.930 . S
C625 C624 1.369 . S
C625 C634 1.429 . S
C626 C624 1.419 . S
C626 C627 1.363 . S
C626 H629 0.929 . S
C627 C626 1.363 . S
C627 C633 1.428 . S
H628 C624 0.930 . S
H629 C626 0.929 . S
S630 N631 1.613 . S
S630 N632 1.610 . S
N631 S630 1.613 . S
N631 C634 1.350 . S
N632 S630 1.610 . S
N632 C633 1.351 . S
C633 C627 1.428 . S
C633 N632 1.351 . S
C633 C634 1.434 . S
C634 C625 1.429 . S
C634 N631 1.350 . S
C634 C633 1.434 . S
C635 C636 1.369 1_545 S
C635 C637 1.419 . S
C635 H639 0.930 . S
C636 C635 1.369 1_565 S
C636 C645 1.429 . S
C637 C635 1.419 . S
C637 C638 1.363 . S
C637 H640 0.929 . S
C638 C637 1.363 . S
C638 C644 1.428 . S
H639 C635 0.930 . S
H640 C637 0.929 . S
S641 N642 1.613 . S
S641 N643 1.610 . S
N642 S641 1.613 . S
N642 C645 1.350 . S
N643 S641 1.610 . S
N643 C644 1.351 1_565 S
C644 C638 1.428 . S
C644 N643 1.351 1_545 S
C644 C645 1.434 1_545 S
C645 C636 1.429 . S
C645 N642 1.350 . S
C645 C644 1.434 1_565 S
C646 C647 1.369 . S
C646 C648 1.419 1_655 S
C646 H650 0.930 . S
C647 C646 1.369 . S
C647 C656 1.407 1_655 S
C648 C646 1.419 1_455 S
C648 C649 1.363 . S
C648 H651 0.929 . S
C649 C648 1.363 . S
C649 C655 1.428 . S
H650 C646 0.930 . S
H651 C648 0.929 . S
S652 N653 1.613 1_455 S
S652 N654 1.610 . S
N653 S652 1.613 1_655 S
N653 C656 1.353 1_655 S
N654 S652 1.610 . S
N654 C655 1.351 . S
C655 C649 1.428 . S
C655 N654 1.351 . S
C655 C656 1.455 . S
C656 C647 1.407 1_455 S
C656 N653 1.353 1_455 S
C656 C655 1.455 . S
C361 C48 1.032 . S
C363 C29 1.199 . S
C372 C92 3.484 1_556 S
C374 C71 3.562 . S
C383 C109 1.140 . S
C385 C12 1.132 . S
C394 C111 3.179 . S
C396 C52 3.148 . S
C405 C88 2.443 . S
C407 C31 2.608 . S
C416 C8 0.780 . S
C418 C69 0.707 . S
C427 C149 3.041 . S
C429 C172 2.984 . S
C438 C212 1.123 . S
C440 C189 1.280 . S
C449 C229 0.964 . S
C451 C132 0.962 . S
C460 C168 0.798 . S
C462 C231 0.841 . S
C471 C208 2.472 . S
C473 C151 2.628 . S
C482 C191 2.491 . S
C484 C128 2.462 . S
C493 C288 0.973 . S
C495 C269 1.148 . S
C504 C311 3.579 . S
C506 C332 3.505 . S
C515 C349 1.151 . S
C517 C252 1.143 . S
C526 C351 3.111 . S
C528 C292 3.082 . S
C537 C328 2.446 . S
C539 C271 2.620 1_565 S
C548 C248 0.803 . S
C550 C309 0.682 . S
C559 C202 2.302 . S
C561 C17 2.769 . S
C570 C122 1.969 . S
C572 C42 1.914 . S
C581 C97 3.244 . S
C583 C162 2.878 . S
C592 C82 2.316 . S
C594 C257 2.767 . S
C603 C2 1.873 . S
C605 C282 1.804 . S
C614 C337 3.167 . S
C616 C57 3.181 . S
C625 C137 2.853 . S
C627 C322 2.397 . S
C636 C177 2.111 . S
C638 C242 1.837 . S
C647 C297 3.088 . S
C649 C217 3.077 . S
