# Generated by pormake.
# Topology rho, (4)-cn, num edge types: 1
# Building blocks:
#     Node 0, Type 0, BuildingBlock: QUQFOY_clean_sbu_1, # of connection points: 4
#     Node 1, Type 0, BuildingBlock: QUQFOY_clean_sbu_1, # of connection points: 4
#     Node 2, Type 0, BuildingBlock: QUQFOY_clean_sbu_1, # of connection points: 4
#     Node 3, Type 0, BuildingBlock: QUQFOY_clean_sbu_1, # of connection points: 4
#     Node 4, Type 0, BuildingBlock: QUQFOY_clean_sbu_1, # of connection points: 4
#     Node 5, Type 0, BuildingBlock: QUQFOY_clean_sbu_1, # of connection points: 4
#     Node 6, Type 0, BuildingBlock: QUQFOY_clean_sbu_1, # of connection points: 4
#     Node 7, Type 0, BuildingBlock: QUQFOY_clean_sbu_1, # of connection points: 4
#     Node 8, Type 0, BuildingBlock: QUQFOY_clean_sbu_1, # of connection points: 4
#     Node 9, Type 0, BuildingBlock: QUQFOY_clean_sbu_1, # of connection points: 4
#     Node 10, Type 0, BuildingBlock: QUQFOY_clean_sbu_1, # of connection points: 4
#     Node 11, Type 0, BuildingBlock: QUQFOY_clean_sbu_1, # of connection points: 4
#     Node 12, Type 0, BuildingBlock: QUQFOY_clean_sbu_1, # of connection points: 4
#     Node 13, Type 0, BuildingBlock: QUQFOY_clean_sbu_1, # of connection points: 4
#     Node 14, Type 0, BuildingBlock: QUQFOY_clean_sbu_1, # of connection points: 4
#     Node 15, Type 0, BuildingBlock: QUQFOY_clean_sbu_1, # of connection points: 4
#     Node 16, Type 0, BuildingBlock: QUQFOY_clean_sbu_1, # of connection points: 4
#     Node 17, Type 0, BuildingBlock: QUQFOY_clean_sbu_1, # of connection points: 4
#     Node 18, Type 0, BuildingBlock: QUQFOY_clean_sbu_1, # of connection points: 4
#     Node 19, Type 0, BuildingBlock: QUQFOY_clean_sbu_1, # of connection points: 4
#     Node 20, Type 0, BuildingBlock: QUQFOY_clean_sbu_1, # of connection points: 4
#     Node 21, Type 0, BuildingBlock: QUQFOY_clean_sbu_1, # of connection points: 4
#     Node 22, Type 0, BuildingBlock: QUQFOY_clean_sbu_1, # of connection points: 4
#     Node 23, Type 0, BuildingBlock: QUQFOY_clean_sbu_1, # of connection points: 4
#     Node 24, Type 0, BuildingBlock: QUQFOY_clean_sbu_1, # of connection points: 4
#     Node 25, Type 0, BuildingBlock: QUQFOY_clean_sbu_1, # of connection points: 4
#     Node 26, Type 0, BuildingBlock: QUQFOY_clean_sbu_1, # of connection points: 4
#     Node 27, Type 0, BuildingBlock: QUQFOY_clean_sbu_1, # of connection points: 4
#     Node 28, Type 0, BuildingBlock: QUQFOY_clean_sbu_1, # of connection points: 4
#     Node 29, Type 0, BuildingBlock: QUQFOY_clean_sbu_1, # of connection points: 4
#     Node 30, Type 0, BuildingBlock: QUQFOY_clean_sbu_1, # of connection points: 4
#     Node 31, Type 0, BuildingBlock: QUQFOY_clean_sbu_1, # of connection points: 4
#     Node 32, Type 0, BuildingBlock: QUQFOY_clean_sbu_1, # of connection points: 4
#     Node 33, Type 0, BuildingBlock: QUQFOY_clean_sbu_1, # of connection points: 4
#     Node 34, Type 0, BuildingBlock: QUQFOY_clean_sbu_1, # of connection points: 4
#     Node 35, Type 0, BuildingBlock: QUQFOY_clean_sbu_1, # of connection points: 4
#     Node 36, Type 0, BuildingBlock: QUQFOY_clean_sbu_1, # of connection points: 4
#     Node 37, Type 0, BuildingBlock: QUQFOY_clean_sbu_1, # of connection points: 4
#     Node 38, Type 0, BuildingBlock: QUQFOY_clean_sbu_1, # of connection points: 4
#     Node 39, Type 0, BuildingBlock: QUQFOY_clean_sbu_1, # of connection points: 4
#     Node 40, Type 0, BuildingBlock: QUQFOY_clean_sbu_1, # of connection points: 4
#     Node 41, Type 0, BuildingBlock: QUQFOY_clean_sbu_1, # of connection points: 4
#     Node 42, Type 0, BuildingBlock: QUQFOY_clean_sbu_1, # of connection points: 4
#     Node 43, Type 0, BuildingBlock: QUQFOY_clean_sbu_1, # of connection points: 4
#     Node 44, Type 0, BuildingBlock: QUQFOY_clean_sbu_1, # of connection points: 4
#     Node 45, Type 0, BuildingBlock: QUQFOY_clean_sbu_1, # of connection points: 4
#     Node 46, Type 0, BuildingBlock: QUQFOY_clean_sbu_1, # of connection points: 4
#     Node 47, Type 0, BuildingBlock: QUQFOY_clean_sbu_1, # of connection points: 4
#     Edge 48, Type (0, 0), BuildingBlock: KIFKEQ_clean_linker_1, # of connection points: 2
#     Edge 49, Type (0, 0), BuildingBlock: KIFKEQ_clean_linker_1, # of connection points: 2
#     Edge 50, Type (0, 0), BuildingBlock: KIFKEQ_clean_linker_1, # of connection points: 2
#     Edge 51, Type (0, 0), BuildingBlock: KIFKEQ_clean_linker_1, # of connection points: 2
#     Edge 52, Type (0, 0), BuildingBlock: KIFKEQ_clean_linker_1, # of connection points: 2
#     Edge 53, Type (0, 0), BuildingBlock: KIFKEQ_clean_linker_1, # of connection points: 2
#     Edge 54, Type (0, 0), BuildingBlock: KIFKEQ_clean_linker_1, # of connection points: 2
#     Edge 55, Type (0, 0), BuildingBlock: KIFKEQ_clean_linker_1, # of connection points: 2
#     Edge 56, Type (0, 0), BuildingBlock: KIFKEQ_clean_linker_1, # of connection points: 2
#     Edge 57, Type (0, 0), BuildingBlock: KIFKEQ_clean_linker_1, # of connection points: 2
#     Edge 58, Type (0, 0), BuildingBlock: KIFKEQ_clean_linker_1, # of connection points: 2
#     Edge 59, Type (0, 0), BuildingBlock: KIFKEQ_clean_linker_1, # of connection points: 2
#     Edge 60, Type (0, 0), BuildingBlock: KIFKEQ_clean_linker_1, # of connection points: 2
#     Edge 61, Type (0, 0), BuildingBlock: KIFKEQ_clean_linker_1, # of connection points: 2
#     Edge 62, Type (0, 0), BuildingBlock: KIFKEQ_clean_linker_1, # of connection points: 2
#     Edge 63, Type (0, 0), BuildingBlock: KIFKEQ_clean_linker_1, # of connection points: 2
#     Edge 64, Type (0, 0), BuildingBlock: KIFKEQ_clean_linker_1, # of connection points: 2
#     Edge 65, Type (0, 0), BuildingBlock: KIFKEQ_clean_linker_1, # of connection points: 2
#     Edge 66, Type (0, 0), BuildingBlock: KIFKEQ_clean_linker_1, # of connection points: 2
#     Edge 67, Type (0, 0), BuildingBlock: KIFKEQ_clean_linker_1, # of connection points: 2
#     Edge 68, Type (0, 0), BuildingBlock: KIFKEQ_clean_linker_1, # of connection points: 2
#     Edge 69, Type (0, 0), BuildingBlock: KIFKEQ_clean_linker_1, # of connection points: 2
#     Edge 70, Type (0, 0), BuildingBlock: KIFKEQ_clean_linker_1, # of connection points: 2
#     Edge 71, Type (0, 0), BuildingBlock: KIFKEQ_clean_linker_1, # of connection points: 2
#     Edge 72, Type (0, 0), BuildingBlock: KIFKEQ_clean_linker_1, # of connection points: 2
#     Edge 73, Type (0, 0), BuildingBlock: KIFKEQ_clean_linker_1, # of connection points: 2
#     Edge 74, Type (0, 0), BuildingBlock: KIFKEQ_clean_linker_1, # of connection points: 2
#     Edge 75, Type (0, 0), BuildingBlock: KIFKEQ_clean_linker_1, # of connection points: 2
#     Edge 76, Type (0, 0), BuildingBlock: KIFKEQ_clean_linker_1, # of connection points: 2
#     Edge 77, Type (0, 0), BuildingBlock: KIFKEQ_clean_linker_1, # of connection points: 2
#     Edge 78, Type (0, 0), BuildingBlock: KIFKEQ_clean_linker_1, # of connection points: 2
#     Edge 79, Type (0, 0), BuildingBlock: KIFKEQ_clean_linker_1, # of connection points: 2
#     Edge 80, Type (0, 0), BuildingBlock: KIFKEQ_clean_linker_1, # of connection points: 2
#     Edge 81, Type (0, 0), BuildingBlock: KIFKEQ_clean_linker_1, # of connection points: 2
#     Edge 82, Type (0, 0), BuildingBlock: KIFKEQ_clean_linker_1, # of connection points: 2
#     Edge 83, Type (0, 0), BuildingBlock: KIFKEQ_clean_linker_1, # of connection points: 2
#     Edge 84, Type (0, 0), BuildingBlock: KIFKEQ_clean_linker_1, # of connection points: 2
#     Edge 85, Type (0, 0), BuildingBlock: KIFKEQ_clean_linker_1, # of connection points: 2
#     Edge 86, Type (0, 0), BuildingBlock: KIFKEQ_clean_linker_1, # of connection points: 2
#     Edge 87, Type (0, 0), BuildingBlock: KIFKEQ_clean_linker_1, # of connection points: 2
#     Edge 88, Type (0, 0), BuildingBlock: KIFKEQ_clean_linker_1, # of connection points: 2
#     Edge 89, Type (0, 0), BuildingBlock: KIFKEQ_clean_linker_1, # of connection points: 2
#     Edge 90, Type (0, 0), BuildingBlock: KIFKEQ_clean_linker_1, # of connection points: 2
#     Edge 91, Type (0, 0), BuildingBlock: KIFKEQ_clean_linker_1, # of connection points: 2
#     Edge 92, Type (0, 0), BuildingBlock: KIFKEQ_clean_linker_1, # of connection points: 2
#     Edge 93, Type (0, 0), BuildingBlock: KIFKEQ_clean_linker_1, # of connection points: 2
#     Edge 94, Type (0, 0), BuildingBlock: KIFKEQ_clean_linker_1, # of connection points: 2
#     Edge 95, Type (0, 0), BuildingBlock: KIFKEQ_clean_linker_1, # of connection points: 2
#     Edge 96, Type (0, 0), BuildingBlock: KIFKEQ_clean_linker_1, # of connection points: 2
#     Edge 97, Type (0, 0), BuildingBlock: KIFKEQ_clean_linker_1, # of connection points: 2
#     Edge 98, Type (0, 0), BuildingBlock: KIFKEQ_clean_linker_1, # of connection points: 2
#     Edge 99, Type (0, 0), BuildingBlock: KIFKEQ_clean_linker_1, # of connection points: 2
#     Edge 100, Type (0, 0), BuildingBlock: KIFKEQ_clean_linker_1, # of connection points: 2
#     Edge 101, Type (0, 0), BuildingBlock: KIFKEQ_clean_linker_1, # of connection points: 2
#     Edge 102, Type (0, 0), BuildingBlock: KIFKEQ_clean_linker_1, # of connection points: 2
#     Edge 103, Type (0, 0), BuildingBlock: KIFKEQ_clean_linker_1, # of connection points: 2
#     Edge 104, Type (0, 0), BuildingBlock: KIFKEQ_clean_linker_1, # of connection points: 2
#     Edge 105, Type (0, 0), BuildingBlock: KIFKEQ_clean_linker_1, # of connection points: 2
#     Edge 106, Type (0, 0), BuildingBlock: KIFKEQ_clean_linker_1, # of connection points: 2
#     Edge 107, Type (0, 0), BuildingBlock: KIFKEQ_clean_linker_1, # of connection points: 2
#     Edge 108, Type (0, 0), BuildingBlock: KIFKEQ_clean_linker_1, # of connection points: 2
#     Edge 109, Type (0, 0), BuildingBlock: KIFKEQ_clean_linker_1, # of connection points: 2
#     Edge 110, Type (0, 0), BuildingBlock: KIFKEQ_clean_linker_1, # of connection points: 2
#     Edge 111, Type (0, 0), BuildingBlock: KIFKEQ_clean_linker_1, # of connection points: 2
#     Edge 112, Type (0, 0), BuildingBlock: KIFKEQ_clean_linker_1, # of connection points: 2
#     Edge 113, Type (0, 0), BuildingBlock: KIFKEQ_clean_linker_1, # of connection points: 2
#     Edge 114, Type (0, 0), BuildingBlock: KIFKEQ_clean_linker_1, # of connection points: 2
#     Edge 115, Type (0, 0), BuildingBlock: KIFKEQ_clean_linker_1, # of connection points: 2
#     Edge 116, Type (0, 0), BuildingBlock: KIFKEQ_clean_linker_1, # of connection points: 2
#     Edge 117, Type (0, 0), BuildingBlock: KIFKEQ_clean_linker_1, # of connection points: 2
#     Edge 118, Type (0, 0), BuildingBlock: KIFKEQ_clean_linker_1, # of connection points: 2
#     Edge 119, Type (0, 0), BuildingBlock: KIFKEQ_clean_linker_1, # of connection points: 2
#     Edge 120, Type (0, 0), BuildingBlock: KIFKEQ_clean_linker_1, # of connection points: 2
#     Edge 121, Type (0, 0), BuildingBlock: KIFKEQ_clean_linker_1, # of connection points: 2
#     Edge 122, Type (0, 0), BuildingBlock: KIFKEQ_clean_linker_1, # of connection points: 2
#     Edge 123, Type (0, 0), BuildingBlock: KIFKEQ_clean_linker_1, # of connection points: 2
#     Edge 124, Type (0, 0), BuildingBlock: KIFKEQ_clean_linker_1, # of connection points: 2
#     Edge 125, Type (0, 0), BuildingBlock: KIFKEQ_clean_linker_1, # of connection points: 2
#     Edge 126, Type (0, 0), BuildingBlock: KIFKEQ_clean_linker_1, # of connection points: 2
#     Edge 127, Type (0, 0), BuildingBlock: KIFKEQ_clean_linker_1, # of connection points: 2
#     Edge 128, Type (0, 0), BuildingBlock: KIFKEQ_clean_linker_1, # of connection points: 2
#     Edge 129, Type (0, 0), BuildingBlock: KIFKEQ_clean_linker_1, # of connection points: 2
#     Edge 130, Type (0, 0), BuildingBlock: KIFKEQ_clean_linker_1, # of connection points: 2
#     Edge 131, Type (0, 0), BuildingBlock: KIFKEQ_clean_linker_1, # of connection points: 2
#     Edge 132, Type (0, 0), BuildingBlock: KIFKEQ_clean_linker_1, # of connection points: 2
#     Edge 133, Type (0, 0), BuildingBlock: KIFKEQ_clean_linker_1, # of connection points: 2
#     Edge 134, Type (0, 0), BuildingBlock: KIFKEQ_clean_linker_1, # of connection points: 2
#     Edge 135, Type (0, 0), BuildingBlock: KIFKEQ_clean_linker_1, # of connection points: 2
#     Edge 136, Type (0, 0), BuildingBlock: KIFKEQ_clean_linker_1, # of connection points: 2
#     Edge 137, Type (0, 0), BuildingBlock: KIFKEQ_clean_linker_1, # of connection points: 2
#     Edge 138, Type (0, 0), BuildingBlock: KIFKEQ_clean_linker_1, # of connection points: 2
#     Edge 139, Type (0, 0), BuildingBlock: KIFKEQ_clean_linker_1, # of connection points: 2
#     Edge 140, Type (0, 0), BuildingBlock: KIFKEQ_clean_linker_1, # of connection points: 2
#     Edge 141, Type (0, 0), BuildingBlock: KIFKEQ_clean_linker_1, # of connection points: 2
#     Edge 142, Type (0, 0), BuildingBlock: KIFKEQ_clean_linker_1, # of connection points: 2
#     Edge 143, Type (0, 0), BuildingBlock: KIFKEQ_clean_linker_1, # of connection points: 2
# Relax obj value: 0.016
# Max RMSD: 0.062
# Mean RMSD: 0.062
data_MOF--net-rho--node1-QUQFOY_clean_sbu_1--edge1-KIFKEQ_clean_linker_1
_symmetry_space_group_name_H-M    P1
_symmetry_Int_Tables_number       1
_symmetry_cell_setting            triclinic
loop_
_symmetry_equiv_pos_as_xyz
'x, y, z'
_cell_length_a     77.135078
_cell_length_b     77.146921
_cell_length_c     77.117083
_cell_angle_alpha  90.011522
_cell_angle_beta   89.983992
_cell_angle_gamma 89.991651
loop_
_atom_site_label
_atom_site_type_symbol
_atom_site_fract_x
_atom_site_fract_y
_atom_site_fract_z
_atom_type_partial_charge
O0 O 0.10979 0.24202 0.43179 0.0
Cd1 Cd 0.1063 0.23513 0.40613 0.0
Cd2 Cd 0.10433 0.2717 0.40416 0.0
O3 O 0.11318 0.27034 0.42951 0.0
O4 O 0.1122 0.20996 0.40659 0.0
O5 O 0.12742 0.22903 0.39167 0.0
C6 C 0.1254 0.21325 0.39692 0.0
C7 C 0.11358 0.29428 0.38587 0.0
C8 C 0.11313 0.25662 0.43867 0.0
C9 C 0.07207 0.24999 0.39632 0.0
O10 O 0.07887 0.2646 0.39979 0.0
O11 O 0.08121 0.23627 0.39662 0.0
O12 O 0.10351 0.29701 0.3989 0.0
O13 O 0.1192 0.27867 0.38357 0.0
O14 O 0.74336 0.07629 0.39912 0.0
Cd15 Cd 0.73447 0.10077 0.40507 0.0
Cd16 Cd 0.77161 0.10519 0.40939 0.0
O17 O 0.77172 0.07928 0.40202 0.0
O18 O 0.70945 0.09881 0.39889 0.0
O19 O 0.72723 0.11668 0.38541 0.0
C20 C 0.71193 0.11002 0.38678 0.0
C21 C 0.79436 0.12334 0.4003 0.0
C22 C 0.75856 0.06995 0.39856 0.0
C23 C 0.74746 0.11153 0.44029 0.0
O24 O 0.76265 0.11111 0.43389 0.0
O25 O 0.7343 0.10798 0.43101 0.0
O26 O 0.79667 0.1112 0.41152 0.0
O27 O 0.77911 0.12485 0.39356 0.0
O28 O 0.89728 0.76292 0.43154 0.0
Cd29 Cd 0.9034 0.77162 0.407 0.0
Cd30 Cd 0.9074 0.73464 0.40283 0.0
O31 O 0.89966 0.73452 0.42862 0.0
O32 O 0.89744 0.7967 0.40883 0.0
O33 O 0.8838 0.77896 0.39106 0.0
C34 C 0.88529 0.79427 0.39766 0.0
C35 C 0.89791 0.71258 0.38407 0.0
C36 C 0.89638 0.74776 0.43791 0.0
C37 C 0.93868 0.75821 0.39682 0.0
O38 O 0.9322 0.74308 0.39746 0.0
O39 O 0.92938 0.77149 0.39988 0.0
O40 O 0.90883 0.70965 0.39636 0.0
O41 O 0.89168 0.72806 0.38278 0.0
O42 O 0.26582 0.93222 0.39915 0.0
Cd43 Cd 0.27126 0.90639 0.40393 0.0
Cd44 Cd 0.23517 0.90572 0.40622 0.0
O45 O 0.23728 0.93094 0.39734 0.0
O46 O 0.29654 0.90448 0.39871 0.0
O47 O 0.2765 0.89127 0.38309 0.0
C48 C 0.29265 0.89497 0.38555 0.0
C49 C 0.21408 0.88674 0.39535 0.0
C50 C 0.25131 0.93953 0.39632 0.0
C51 C 0.25568 0.89808 0.4387 0.0
O52 O 0.24111 0.90179 0.43196 0.0
O53 O 0.26932 0.89782 0.42941 0.0
O54 O 0.20997 0.90008 0.40453 0.0
O55 O 0.23025 0.88448 0.39163 0.0
O56 O 0.07644 0.74301 0.61176 0.0
Cd57 Cd 0.10146 0.73545 0.60617 0.0
Cd58 Cd 0.10469 0.77222 0.60325 0.0
O59 O 0.0789 0.77152 0.61091 0.0
O60 O 0.10062 0.71024 0.61183 0.0
O61 O 0.11724 0.72863 0.62608 0.0
C62 C 0.11135 0.71306 0.62431 0.0
C63 C 0.12325 0.79373 0.61407 0.0
C64 C 0.06977 0.75799 0.61327 0.0
C65 C 0.11169 0.75002 0.57135 0.0
O66 O 0.11021 0.76499 0.5781 0.0
O67 O 0.10921 0.73644 0.58038 0.0
O68 O 0.1106 0.7974 0.60381 0.0
O69 O 0.12509 0.77779 0.61883 0.0
O70 O 0.23971 0.10809 0.57893 0.0
Cd71 Cd 0.23204 0.10406 0.60416 0.0
Cd72 Cd 0.26884 0.10144 0.60765 0.0
O73 O 0.26815 0.10942 0.58187 0.0
O74 O 0.20705 0.11061 0.60331 0.0
O75 O 0.22613 0.12482 0.61919 0.0
C76 C 0.21044 0.12338 0.61352 0.0
C77 C 0.29158 0.11088 0.62567 0.0
C78 C 0.25466 0.11041 0.57241 0.0
C79 C 0.24599 0.06964 0.61494 0.0
O80 O 0.26094 0.07638 0.6132 0.0
O81 O 0.23238 0.07865 0.61264 0.0
O82 O 0.29409 0.10014 0.61315 0.0
O83 O 0.27611 0.11699 0.62763 0.0
O84 O 0.93261 0.26943 0.60876 0.0
Cd85 Cd 0.90722 0.27574 0.60331 0.0
Cd86 Cd 0.9049 0.2393 0.60084 0.0
O87 O 0.9305 0.24087 0.60904 0.0
O88 O 0.90552 0.30084 0.60939 0.0
O89 O 0.89152 0.28044 0.62382 0.0
C90 C 0.89556 0.2966 0.62211 0.0
C91 C 0.88656 0.21759 0.61168 0.0
C92 C 0.93946 0.2546 0.61088 0.0
C93 C 0.89792 0.26069 0.56851 0.0
O94 O 0.89985 0.24584 0.5754 0.0
O95 O 0.89961 0.27441 0.57751 0.0
O96 O 0.89954 0.214 0.60181 0.0
O97 O 0.88427 0.23359 0.61607 0.0
O98 O 0.76958 0.90255 0.57869 0.0
Cd99 Cd 0.77539 0.90571 0.60465 0.0
Cd100 Cd 0.73932 0.90736 0.60592 0.0
O101 O 0.74134 0.89834 0.58066 0.0
O102 O 0.80047 0.89953 0.60622 0.0
O103 O 0.77988 0.88398 0.61866 0.0
C104 C 0.7961 0.88603 0.61503 0.0
C105 C 0.71696 0.89757 0.62418 0.0
C106 C 0.75515 0.89878 0.57164 0.0
C107 C 0.76022 0.93985 0.61414 0.0
O108 O 0.74576 0.93302 0.61016 0.0
O109 O 0.77393 0.9307 0.61439 0.0
O110 O 0.71396 0.90742 0.61104 0.0
O111 O 0.73273 0.89247 0.62659 0.0
O112 O 0.39569 0.07583 0.26412 0.0
Cd113 Cd 0.40135 0.10118 0.27087 0.0
Cd114 Cd 0.40394 0.10293 0.23443 0.0
O115 O 0.39505 0.0777 0.23556 0.0
O116 O 0.39653 0.10081 0.29626 0.0
O117 O 0.3815 0.11691 0.27803 0.0
C118 C 0.38388 0.11138 0.29366 0.0
C119 C 0.39315 0.12222 0.21362 0.0
C120 C 0.39329 0.06888 0.24936 0.0
C121 C 0.43629 0.1097 0.25558 0.0
O122 O 0.42957 0.1068 0.24081 0.0
O123 O 0.42702 0.10923 0.26923 0.0
O124 O 0.40258 0.10911 0.20937 0.0
O125 O 0.38923 0.12414 0.22979 0.0
O126 O 0.93433 0.39939 0.26557 0.0
Cd127 Cd 0.90886 0.40435 0.27206 0.0
Cd128 Cd 0.90639 0.40658 0.23562 0.0
O129 O 0.93217 0.39892 0.23701 0.0
O130 O 0.90764 0.39862 0.29728 0.0
O131 O 0.89365 0.38361 0.27731 0.0
C132 C 0.89788 0.38565 0.29339 0.0
C133 C 0.88781 0.39517 0.21443 0.0
C134 C 0.9412 0.39734 0.25072 0.0
C135 C 0.89874 0.43885 0.25679 0.0
O136 O 0.9009 0.43195 0.24198 0.0
O137 O 0.90059 0.42994 0.27056 0.0
O138 O 0.90058 0.40516 0.21044 0.0
O139 O 0.88594 0.39093 0.23053 0.0
O140 O 0.57719 0.89966 0.24494 0.0
Cd141 Cd 0.60216 0.90515 0.2371 0.0
Cd142 Cd 0.60581 0.90895 0.27391 0.0
O143 O 0.57998 0.90133 0.27343 0.0
O144 O 0.60211 0.89912 0.21194 0.0
O145 O 0.61767 0.88477 0.23122 0.0
C146 C 0.61253 0.88655 0.21538 0.0
C147 C 0.6241 0.89936 0.29633 0.0
C148 C 0.57071 0.89855 0.26006 0.0
C149 C 0.61253 0.94024 0.25068 0.0
O150 O 0.61143 0.93379 0.2658 0.0
O151 O 0.60976 0.93094 0.23735 0.0
O152 O 0.61173 0.91024 0.29905 0.0
O153 O 0.62571 0.89319 0.28084 0.0
O154 O 0.108 0.57855 0.24329 0.0
Cd155 Cd 0.10423 0.60447 0.23752 0.0
Cd156 Cd 0.10267 0.60553 0.2736 0.0
O157 O 0.11226 0.58051 0.27152 0.0
O158 O 0.10983 0.60619 0.2123 0.0
O159 O 0.12558 0.61893 0.23256 0.0
C160 C 0.1232 0.61533 0.21637 0.0
C161 C 0.11226 0.6242 0.29568 0.0
C162 C 0.11196 0.57153 0.25768 0.0
C163 C 0.06996 0.61318 0.25303 0.0
O164 O 0.07686 0.60909 0.26742 0.0
O165 O 0.0791 0.61382 0.23932 0.0
O166 O 0.10279 0.61084 0.29891 0.0
O167 O 0.11713 0.62659 0.27983 0.0
O168 O 0.43308 0.89872 0.76506 0.0
Cd169 Cd 0.40765 0.90421 0.77132 0.0
Cd170 Cd 0.40536 0.90606 0.73491 0.0
O171 O 0.43091 0.89781 0.73652 0.0
O172 O 0.40617 0.89902 0.79662 0.0
O173 O 0.3921 0.88381 0.77684 0.0
C174 C 0.39621 0.88615 0.7929 0.0
C175 C 0.38675 0.89474 0.71375 0.0
C176 C 0.4399 0.89625 0.75025 0.0
C177 C 0.39809 0.93868 0.75557 0.0
O178 O 0.40033 0.93163 0.74084 0.0
O179 O 0.39967 0.92985 0.76941 0.0
O180 O 0.39975 0.90441 0.70972 0.0
O181 O 0.38463 0.89078 0.72989 0.0
O182 O 0.1063 0.43142 0.76939 0.0
Cd183 Cd 0.103 0.40569 0.77572 0.0
Cd184 Cd 0.10109 0.40341 0.73915 0.0
O185 O 0.10871 0.42923 0.74093 0.0
O186 O 0.10916 0.40449 0.80082 0.0
O187 O 0.12454 0.39146 0.78046 0.0
C188 C 0.1225 0.39535 0.79662 0.0
C189 C 0.11143 0.38599 0.71636 0.0
C190 C 0.10901 0.43836 0.75468 0.0
C191 C 0.06908 0.39451 0.76077 0.0
O192 O 0.07589 0.3973 0.74601 0.0
O193 O 0.07796 0.39622 0.77455 0.0
O194 O 0.10074 0.39854 0.71375 0.0
O195 O 0.11705 0.38374 0.73198 0.0
O196 O 0.60926 0.0769 0.74199 0.0
Cd197 Cd 0.60419 0.10245 0.73597 0.0
Cd198 Cd 0.60189 0.1044 0.77225 0.0
O199 O 0.60997 0.07879 0.77056 0.0
O200 O 0.60999 0.10411 0.71082 0.0
O201 O 0.62488 0.11782 0.73108 0.0
C202 C 0.62291 0.11385 0.71493 0.0
C203 C 0.61314 0.1229 0.79357 0.0
C204 C 0.61154 0.06991 0.75675 0.0
C205 C 0.56959 0.11209 0.75124 0.0
O206 O 0.57643 0.10964 0.76603 0.0
O207 O 0.57859 0.11062 0.73749 0.0
O208 O 0.60331 0.10998 0.79747 0.0
O209 O 0.6173 0.12499 0.77747 0.0
O210 O 0.90078 0.57691 0.7668 0.0
Cd211 Cd 0.90566 0.60258 0.77294 0.0
Cd212 Cd 0.90838 0.60383 0.73646 0.0
O213 O 0.89985 0.57845 0.73819 0.0
O214 O 0.89991 0.60406 0.79813 0.0
O215 O 0.88488 0.61782 0.77802 0.0
C216 C 0.88697 0.61382 0.79414 0.0
C217 C 0.89864 0.62214 0.71415 0.0
C218 C 0.8984 0.56974 0.75213 0.0
C219 C 0.94048 0.61144 0.75802 0.0
O220 O 0.93379 0.60827 0.74331 0.0
O221 O 0.9312 0.61107 0.77165 0.0
O222 O 0.90872 0.60917 0.71116 0.0
O223 O 0.89327 0.62433 0.72987 0.0
O224 O 0.26754 0.40247 0.0782 0.0
Cd225 Cd 0.27295 0.40579 0.10414 0.0
Cd226 Cd 0.23704 0.40654 0.10567 0.0
O227 O 0.23933 0.39822 0.08011 0.0
O228 O 0.29811 0.40017 0.1061 0.0
O229 O 0.27768 0.38425 0.11835 0.0
C230 C 0.29391 0.38665 0.11494 0.0
C231 C 0.21603 0.3948 0.12423 0.0
C232 C 0.25315 0.39877 0.0711 0.0
C233 C 0.25679 0.43944 0.11434 0.0
O234 O 0.24234 0.43232 0.11084 0.0
O235 O 0.27078 0.43075 0.11364 0.0
O236 O 0.21184 0.40425 0.11112 0.0
O237 O 0.23224 0.39124 0.12644 0.0
O238 O 0.24762 0.57625 0.89822 0.0
Cd239 Cd 0.23953 0.60095 0.90449 0.0
Cd240 Cd 0.27622 0.60463 0.90791 0.0
O241 O 0.27608 0.57902 0.89968 0.0
O242 O 0.21431 0.59955 0.89899 0.0
O243 O 0.23213 0.61695 0.88495 0.0
C244 C 0.21673 0.6106 0.88672 0.0
C245 C 0.29707 0.62395 0.89717 0.0
C246 C 0.26272 0.56981 0.8968 0.0
C247 C 0.25374 0.61057 0.93974 0.0
O248 O 0.26881 0.60945 0.93315 0.0
O249 O 0.24031 0.60814 0.93046 0.0
O250 O 0.3012 0.61129 0.90724 0.0
O251 O 0.28102 0.62541 0.89261 0.0
O252 O 0.39823 0.26234 0.93267 0.0
Cd253 Cd 0.40418 0.2708 0.90792 0.0
Cd254 Cd 0.40852 0.23398 0.90464 0.0
O255 O 0.40006 0.23387 0.9301 0.0
O256 O 0.39823 0.2959 0.90971 0.0
O257 O 0.3844 0.2781 0.89214 0.0
C258 C 0.38597 0.29343 0.89867 0.0
C259 C 0.3993 0.21224 0.88539 0.0
C260 C 0.397 0.24726 0.93921 0.0
C261 C 0.43977 0.25752 0.89879 0.0
O262 O 0.43351 0.24237 0.90039 0.0
O263 O 0.4301 0.27079 0.90045 0.0
O264 O 0.40984 0.20905 0.89793 0.0
O265 O 0.39333 0.22784 0.88407 0.0
O266 O 0.7669 0.43422 0.90182 0.0
Cd267 Cd 0.7732 0.40861 0.90635 0.0
Cd268 Cd 0.73719 0.40684 0.9075 0.0
O269 O 0.73874 0.43176 0.89768 0.0
O270 O 0.79844 0.40823 0.90078 0.0
O271 O 0.77915 0.39338 0.88576 0.0
C272 C 0.79503 0.3983 0.88779 0.0
C273 C 0.71606 0.38768 0.89699 0.0
C274 C 0.75241 0.44095 0.89777 0.0
C275 C 0.75744 0.40018 0.94066 0.0
O276 O 0.74299 0.4036 0.93349 0.0
O277 O 0.77132 0.39997 0.93174 0.0
O278 O 0.71202 0.40113 0.90603 0.0
O279 O 0.73223 0.38531 0.89332 0.0
O280 O 0.60916 0.74454 0.9318 0.0
Cd281 Cd 0.6046 0.73769 0.90642 0.0
Cd282 Cd 0.60305 0.77398 0.90366 0.0
O283 O 0.61162 0.77289 0.9292 0.0
O284 O 0.61011 0.71245 0.90674 0.0
O285 O 0.62502 0.73124 0.89116 0.0
C286 C 0.62297 0.71552 0.89655 0.0
C287 C 0.61426 0.79492 0.88469 0.0
C288 C 0.6122 0.75928 0.93848 0.0
C289 C 0.57033 0.75298 0.89663 0.0
O290 O 0.57739 0.76772 0.8989 0.0
O291 O 0.57916 0.73914 0.89811 0.0
O292 O 0.60457 0.79909 0.89763 0.0
O293 O 0.61822 0.77876 0.88277 0.0
O294 O 0.74117 0.60577 0.07635 0.0
Cd295 Cd 0.73493 0.60262 0.10225 0.0
Cd296 Cd 0.77121 0.60069 0.10392 0.0
O297 O 0.76949 0.60924 0.07849 0.0
O298 O 0.70978 0.60864 0.10339 0.0
O299 O 0.73001 0.62427 0.11628 0.0
C300 C 0.71387 0.62209 0.1124 0.0
C301 C 0.79363 0.61054 0.12207 0.0
C302 C 0.75574 0.60909 0.06938 0.0
C303 C 0.74992 0.56849 0.11239 0.0
O304 O 0.7645 0.57519 0.10862 0.0
O305 O 0.73624 0.57768 0.11214 0.0
O306 O 0.79655 0.60041 0.10912 0.0
O307 O 0.77792 0.61588 0.12434 0.0
O308 O 0.43222 0.76361 0.11098 0.0
Cd309 Cd 0.40716 0.77161 0.1061 0.0
Cd310 Cd 0.40341 0.73503 0.10142 0.0
O311 O 0.42944 0.7352 0.10836 0.0
O312 O 0.4073 0.79665 0.11263 0.0
O313 O 0.39195 0.77709 0.12683 0.0
C314 C 0.39702 0.79297 0.12526 0.0
C315 C 0.385 0.71285 0.11125 0.0
C316 C 0.43875 0.74848 0.11142 0.0
C317 C 0.39601 0.7589 0.07086 0.0
O318 O 0.39721 0.74362 0.07688 0.0
O319 O 0.39905 0.77197 0.08044 0.0
O320 O 0.39707 0.71001 0.10007 0.0
O321 O 0.3838 0.7283 0.11761 0.0
O322 O 0.57601 0.24087 0.1068 0.0
Cd323 Cd 0.60182 0.23465 0.10318 0.0
Cd324 Cd 0.60372 0.27066 0.10141 0.0
O325 O 0.57843 0.26916 0.11034 0.0
O326 O 0.60328 0.20961 0.10944 0.0
O327 O 0.61627 0.23014 0.12462 0.0
C328 C 0.61249 0.21395 0.12268 0.0
C329 C 0.62219 0.29281 0.11121 0.0
C330 C 0.56921 0.25548 0.1103 0.0
C331 C 0.6114 0.24954 0.06891 0.0
O332 O 0.60795 0.26412 0.07577 0.0
O333 O 0.61117 0.23583 0.07803 0.0
O334 O 0.60917 0.29593 0.10124 0.0
O335 O 0.62437 0.27704 0.11641 0.0
O336 O 0.90063 0.76391 0.57482 0.0
Cd337 Cd 0.90496 0.77073 0.60037 0.0
Cd338 Cd 0.90695 0.73452 0.60254 0.0
O339 O 0.89764 0.7356 0.57736 0.0
O340 O 0.89945 0.79599 0.60013 0.0
O341 O 0.88438 0.77715 0.61547 0.0
C342 C 0.88652 0.79291 0.61023 0.0
C343 C 0.89647 0.71356 0.62193 0.0
C344 C 0.89728 0.74923 0.5681 0.0
C345 C 0.93949 0.75561 0.60951 0.0
O346 O 0.9327 0.74093 0.60624 0.0
O347 O 0.93028 0.76929 0.60926 0.0
O348 O 0.90577 0.70941 0.60869 0.0
O349 O 0.89249 0.72971 0.62393 0.0
O350 O 0.26554 0.9332 0.60807 0.0
Cd351 Cd 0.27336 0.90811 0.60333 0.0
Cd352 Cd 0.23662 0.90433 0.60126 0.0
O353 O 0.23713 0.93002 0.60943 0.0
O354 O 0.29848 0.90897 0.60934 0.0
O355 O 0.27979 0.89266 0.6236 0.0
C356 C 0.29543 0.8984 0.6219 0.0
C357 C 0.2144 0.88593 0.61104 0.0
C358 C 0.25055 0.93956 0.61057 0.0
C359 C 0.2589 0.8974 0.56903 0.0
O360 O 0.24404 0.89896 0.57603 0.0
O361 O 0.27261 0.89986 0.57784 0.0
O362 O 0.21147 0.89845 0.60042 0.0
O363 O 0.23 0.88421 0.61687 0.0
O364 O 0.10993 0.24579 0.5763 0.0
Cd365 Cd 0.10456 0.24028 0.60202 0.0
Cd366 Cd 0.10282 0.27629 0.6029 0.0
O367 O 0.11205 0.2743 0.5778 0.0
O368 O 0.10944 0.21495 0.60393 0.0
O369 O 0.12506 0.23476 0.61748 0.0
C370 C 0.12247 0.21866 0.61368 0.0
C371 C 0.11404 0.29671 0.62238 0.0
C372 C 0.11308 0.26031 0.56914 0.0
C373 C 0.06991 0.25635 0.60997 0.0
O374 O 0.07692 0.27084 0.60644 0.0
O375 O 0.07898 0.24258 0.61025 0.0
O376 O 0.10509 0.30131 0.60905 0.0
O377 O 0.11731 0.2804 0.62437 0.0
O378 O 0.74626 0.07658 0.61219 0.0
Cd379 Cd 0.73797 0.10134 0.60607 0.0
Cd380 Cd 0.77485 0.10439 0.6018 0.0
O381 O 0.77476 0.07908 0.6107 0.0
O382 O 0.71285 0.09984 0.612 0.0
O383 O 0.7308 0.11736 0.6257 0.0
C384 C 0.71539 0.11099 0.62415 0.0
C385 C 0.79678 0.12366 0.6105 0.0
C386 C 0.76131 0.07002 0.61367 0.0
C387 C 0.75135 0.11006 0.57045 0.0
O388 O 0.76648 0.10832 0.57674 0.0
O389 O 0.73805 0.10864 0.58012 0.0
O390 O 0.79983 0.11088 0.60021 0.0
O391 O 0.78125 0.12519 0.61658 0.0
O392 O 0.93527 0.2634 0.39691 0.0
Cd393 Cd 0.91019 0.27097 0.40278 0.0
Cd394 Cd 0.90764 0.23436 0.40604 0.0
O395 O 0.9328 0.23489 0.39681 0.0
O396 O 0.91114 0.29623 0.39728 0.0
O397 O 0.8944 0.27804 0.38293 0.0
C398 C 0.90038 0.29356 0.3848 0.0
C399 C 0.88805 0.21329 0.39622 0.0
C400 C 0.94188 0.24847 0.39467 0.0
C401 C 0.90171 0.25647 0.43808 0.0
O402 O 0.90414 0.24154 0.43152 0.0
O403 O 0.90242 0.26998 0.42862 0.0
O404 O 0.90123 0.20931 0.40566 0.0
O405 O 0.88622 0.22932 0.39172 0.0
O406 O 0.7673 0.89994 0.43398 0.0
Cd407 Cd 0.77296 0.90492 0.40824 0.0
Cd408 Cd 0.7369 0.90731 0.40717 0.0
O409 O 0.73876 0.89841 0.43241 0.0
O410 O 0.79811 0.89923 0.40631 0.0
O411 O 0.77779 0.88419 0.39287 0.0
C412 C 0.79397 0.88626 0.39664 0.0
C413 C 0.71573 0.89653 0.38822 0.0
C414 C 0.7527 0.8972 0.44113 0.0
C415 C 0.75769 0.93975 0.39983 0.0
O416 O 0.74303 0.933 0.40317 0.0
O417 O 0.77133 0.93049 0.3999 0.0
O418 O 0.7117 0.90585 0.40148 0.0
O419 O 0.73187 0.89265 0.38599 0.0
O420 O 0.07606 0.74331 0.40287 0.0
Cd421 Cd 0.10191 0.73722 0.40659 0.0
Cd422 Cd 0.10341 0.77332 0.4086 0.0
O423 O 0.07811 0.77167 0.39969 0.0
O424 O 0.10345 0.7121 0.40052 0.0
O425 O 0.11643 0.73253 0.38521 0.0
C426 C 0.1127 0.71634 0.38727 0.0
C427 C 0.122 0.7953 0.39862 0.0
C428 C 0.06907 0.75787 0.39955 0.0
C429 C 0.1112 0.7522 0.441 0.0
O430 O 0.10759 0.76678 0.43423 0.0
O431 O 0.11118 0.73853 0.43178 0.0
O432 O 0.10899 0.79857 0.40857 0.0
O433 O 0.1241 0.77948 0.39356 0.0
O434 O 0.24541 0.10939 0.43475 0.0
Cd435 Cd 0.23996 0.10457 0.40889 0.0
Cd436 Cd 0.27572 0.10239 0.4081 0.0
O437 O 0.27394 0.11116 0.43335 0.0
O438 O 0.21474 0.11002 0.40679 0.0
O439 O 0.23504 0.12546 0.39376 0.0
C440 C 0.21884 0.12315 0.39733 0.0
C441 C 0.29579 0.11401 0.38855 0.0
C442 C 0.25995 0.11221 0.442 0.0
C443 C 0.25562 0.06986 0.40033 0.0
O444 O 0.27016 0.0766 0.40414 0.0
O445 O 0.24196 0.07913 0.4001 0.0
O446 O 0.30063 0.10485 0.40166 0.0
O447 O 0.27944 0.11727 0.38686 0.0
O448 O 0.60736 0.93224 0.74087 0.0
Cd449 Cd 0.60421 0.9062 0.73533 0.0
Cd450 Cd 0.60306 0.90525 0.77122 0.0
O451 O 0.61201 0.93047 0.76905 0.0
O452 O 0.61034 0.90418 0.71026 0.0
O453 O 0.62593 0.89211 0.73104 0.0
C454 C 0.62383 0.89543 0.71475 0.0
C455 C 0.61318 0.88689 0.7933 0.0
C456 C 0.61131 0.9394 0.7552 0.0
C457 C 0.57026 0.8969 0.751 0.0
O458 O 0.57728 0.90112 0.7653 0.0
O459 O 0.57925 0.8964 0.73718 0.0
O460 O 0.60347 0.90008 0.79654 0.0
O461 O 0.61801 0.88452 0.77744 0.0
O462 O 0.07731 0.60978 0.74512 0.0
Cd463 Cd 0.10246 0.60386 0.73824 0.0
Cd464 Cd 0.10535 0.6012 0.77469 0.0
O465 O 0.0798 0.60956 0.77367 0.0
O466 O 0.1034 0.60946 0.71299 0.0
O467 O 0.1183 0.62404 0.73263 0.0
C468 C 0.1137 0.62208 0.71665 0.0
C469 C 0.12425 0.6122 0.79581 0.0
C470 C 0.0707 0.61177 0.76009 0.0
C471 C 0.11174 0.56891 0.75313 0.0
O472 O 0.11015 0.57574 0.76806 0.0
O473 O 0.10982 0.57799 0.73949 0.0
O474 O 0.11138 0.60234 0.79982 0.0
O475 O 0.12613 0.61644 0.77972 0.0
O476 O 0.43203 0.10651 0.76584 0.0
Cd477 Cd 0.40597 0.10299 0.77097 0.0
Cd478 Cd 0.40533 0.10255 0.73548 0.0
O479 O 0.43024 0.11234 0.73791 0.0
O480 O 0.40392 0.10818 0.79624 0.0
O481 O 0.39179 0.12448 0.77606 0.0
C482 C 0.39516 0.12182 0.79225 0.0
C483 C 0.38574 0.11363 0.71506 0.0
C484 C 0.43916 0.11121 0.75173 0.0
C485 C 0.39765 0.06916 0.75446 0.0
O486 O 0.40221 0.0764 0.74036 0.0
O487 O 0.39645 0.07803 0.76832 0.0
O488 O 0.39934 0.10511 0.71043 0.0
O489 O 0.38358 0.11663 0.7314 0.0
O490 O 0.90208 0.43189 0.76825 0.0
Cd491 Cd 0.90502 0.40583 0.77384 0.0
Cd492 Cd 0.90655 0.40494 0.73764 0.0
O493 O 0.89787 0.43027 0.73998 0.0
O494 O 0.89929 0.40413 0.79903 0.0
O495 O 0.88325 0.39195 0.77867 0.0
C496 C 0.88569 0.39539 0.79488 0.0
C497 C 0.89657 0.38706 0.71506 0.0
C498 C 0.89842 0.43913 0.75388 0.0
C499 C 0.93896 0.39603 0.7583 0.0
O500 O 0.93218 0.40033 0.74391 0.0
O501 O 0.92984 0.39573 0.77203 0.0
O502 O 0.90654 0.40014 0.71221 0.0
O503 O 0.89142 0.38453 0.7308 0.0
O504 O 0.57356 0.11064 0.24458 0.0
Cd505 Cd 0.59895 0.10533 0.23777 0.0
Cd506 Cd 0.60077 0.10245 0.27426 0.0
O507 O 0.5754 0.11103 0.27315 0.0
O508 O 0.59867 0.11071 0.21249 0.0
O509 O 0.61454 0.12545 0.23115 0.0
C510 C 0.6091 0.1234 0.21544 0.0
C511 C 0.61975 0.11301 0.2955 0.0
C512 C 0.56657 0.11283 0.25935 0.0
C513 C 0.6079 0.07036 0.25264 0.0
O514 O 0.60505 0.07699 0.26746 0.0
O515 O 0.6072 0.07969 0.23904 0.0
O516 O 0.60672 0.10333 0.29941 0.0
O517 O 0.62175 0.11734 0.27944 0.0
O518 O 0.90255 0.57613 0.23931 0.0
Cd519 Cd 0.90594 0.60197 0.23348 0.0
Cd520 Cd 0.90674 0.60412 0.26953 0.0
O521 O 0.89858 0.5785 0.26755 0.0
O522 O 0.89993 0.60383 0.20838 0.0
O523 O 0.8844 0.61626 0.22902 0.0
C524 C 0.88652 0.61278 0.21276 0.0
C525 C 0.89522 0.62234 0.29099 0.0
C526 C 0.89899 0.56927 0.25387 0.0
C527 C 0.93959 0.61257 0.24945 0.0
O528 O 0.93243 0.60946 0.26397 0.0
O529 O 0.93096 0.61143 0.23545 0.0
O530 O 0.90492 0.60931 0.29482 0.0
O531 O 0.89132 0.6247 0.27487 0.0
O532 O 0.40107 0.93225 0.26777 0.0
Cd533 Cd 0.4057 0.90683 0.27478 0.0
Cd534 Cd 0.40759 0.90452 0.23848 0.0
O535 O 0.3979 0.92955 0.23947 0.0
O536 O 0.39958 0.90701 0.2999 0.0
O537 O 0.38518 0.89148 0.28066 0.0
C538 C 0.38683 0.8968 0.29647 0.0
C539 C 0.39853 0.8855 0.21648 0.0
C540 C 0.39749 0.93884 0.25309 0.0
C541 C 0.44028 0.8982 0.26 0.0
O542 O 0.43327 0.90113 0.24537 0.0
O543 O 0.43119 0.89842 0.27377 0.0
O544 O 0.40823 0.8987 0.2133 0.0
O545 O 0.3932 0.88341 0.23222 0.0
O546 O 0.11216 0.43423 0.24493 0.0
Cd547 Cd 0.10663 0.40884 0.23827 0.0
Cd548 Cd 0.1041 0.40708 0.27465 0.0
O549 O 0.11312 0.4323 0.27348 0.0
O550 O 0.11202 0.40884 0.21297 0.0
O551 O 0.12663 0.39301 0.23177 0.0
C552 C 0.12463 0.39834 0.21602 0.0
C553 C 0.11473 0.38758 0.29542 0.0
C554 C 0.1147 0.44117 0.25967 0.0
C555 C 0.07166 0.40049 0.25346 0.0
O556 O 0.07844 0.40338 0.2682 0.0
O557 O 0.08091 0.40085 0.23978 0.0
O558 O 0.1054 0.40076 0.29972 0.0
O559 O 0.11867 0.38573 0.27924 0.0
O560 O 0.74311 0.6103 0.93176 0.0
Cd561 Cd 0.73637 0.60559 0.9063 0.0
Cd562 Cd 0.77304 0.60231 0.90384 0.0
O563 O 0.77169 0.60938 0.92981 0.0
O564 O 0.71126 0.61168 0.90527 0.0
O565 O 0.73134 0.62638 0.89108 0.0
C566 C 0.71526 0.6245 0.89536 0.0
C567 C 0.79563 0.61249 0.88612 0.0
C568 C 0.75798 0.61155 0.93875 0.0
C569 C 0.75057 0.57093 0.89554 0.0
O570 O 0.76555 0.57746 0.89751 0.0
O571 O 0.73705 0.58007 0.89791 0.0
O572 O 0.79832 0.60158 0.89846 0.0
O573 O 0.78008 0.61845 0.8843 0.0
O574 O 0.76391 0.43213 0.11297 0.0
Cd575 Cd 0.772 0.40748 0.10648 0.0
Cd576 Cd 0.73516 0.40369 0.10342 0.0
O577 O 0.73545 0.42922 0.11188 0.0
O578 O 0.79726 0.40881 0.11185 0.0
O579 O 0.77951 0.3913 0.12583 0.0
C580 C 0.7949 0.39764 0.12403 0.0
C581 C 0.71397 0.38454 0.11383 0.0
C582 C 0.74881 0.43848 0.11463 0.0
C583 C 0.75746 0.39814 0.07132 0.0
O584 O 0.74245 0.39911 0.07809 0.0
O585 O 0.77099 0.40055 0.08045 0.0
O586 O 0.71007 0.39738 0.1039 0.0
O587 O 0.72997 0.38279 0.11844 0.0
O588 O 0.61062 0.74562 0.07505 0.0
Cd589 Cd 0.60454 0.7372 0.0998 0.0
Cd590 Cd 0.60077 0.77408 0.10318 0.0
O591 O 0.60946 0.77411 0.07782 0.0
O592 O 0.61046 0.71207 0.09823 0.0
O593 O 0.62427 0.73002 0.11568 0.0
C594 C 0.62271 0.71463 0.10927 0.0
C595 C 0.60973 0.79603 0.12231 0.0
C596 C 0.61224 0.76071 0.06862 0.0
C597 C 0.56913 0.75094 0.10883 0.0
O598 O 0.57566 0.76598 0.1072 0.0
O599 O 0.5786 0.73751 0.10726 0.0
O600 O 0.59933 0.79907 0.10962 0.0
O601 O 0.61574 0.78047 0.12385 0.0
O602 O 0.24039 0.5767 0.10855 0.0
Cd603 Cd 0.23481 0.60252 0.10432 0.0
Cd604 Cd 0.2707 0.60347 0.10399 0.0
O605 O 0.26837 0.57866 0.114 0.0
O606 O 0.20955 0.60351 0.10971 0.0
O607 O 0.22913 0.61763 0.12507 0.0
C608 C 0.21314 0.61314 0.12287 0.0
C609 C 0.29199 0.62244 0.11458 0.0
C610 C 0.25456 0.56969 0.1132 0.0
C611 C 0.2513 0.61048 0.07038 0.0
O612 O 0.26547 0.60655 0.07785 0.0
O613 O 0.23729 0.6113 0.07905 0.0
O614 O 0.29596 0.60876 0.10586 0.0
O615 O 0.2758 0.62512 0.11795 0.0
O616 O 0.40015 0.26577 0.07578 0.0
Cd617 Cd 0.40466 0.27341 0.10097 0.0
Cd618 Cd 0.40674 0.23679 0.10458 0.0
O619 O 0.39888 0.23735 0.07881 0.0
O620 O 0.39856 0.29851 0.1003 0.0
O621 O 0.38424 0.27963 0.11632 0.0
C622 C 0.38592 0.29532 0.11073 0.0
C623 C 0.39669 0.21453 0.12278 0.0
C624 C 0.39779 0.2508 0.06932 0.0
C625 C 0.43892 0.25891 0.11178 0.0
O626 O 0.43194 0.24408 0.11013 0.0
O627 O 0.43012 0.27264 0.10935 0.0
O628 O 0.40741 0.21162 0.11033 0.0
O629 O 0.39094 0.23015 0.12456 0.0
O630 O 0.26705 0.40009 0.93349 0.0
Cd631 Cd 0.27367 0.4048 0.9079 0.0
Cd632 Cd 0.23723 0.40821 0.90609 0.0
O633 O 0.23846 0.39998 0.9316 0.0
O634 O 0.29879 0.39866 0.90688 0.0
O635 O 0.2787 0.3839 0.89278 0.0
C636 C 0.29478 0.38576 0.89707 0.0
C637 C 0.21493 0.39852 0.88775 0.0
C638 C 0.25224 0.39817 0.94049 0.0
C639 C 0.25952 0.43981 0.89844 0.0
O640 O 0.24463 0.4334 0.90133 0.0
O641 O 0.27298 0.43031 0.89927 0.0
O642 O 0.212 0.40891 0.90049 0.0
O643 O 0.23057 0.39287 0.88578 0.0
O644 O 0.5763 0.24626 0.89764 0.0
Cd645 Cd 0.60083 0.2373 0.90342 0.0
Cd646 Cd 0.60515 0.27427 0.90818 0.0
O647 O 0.5792 0.27457 0.90102 0.0
O648 O 0.59884 0.21232 0.89709 0.0
O649 O 0.61669 0.23015 0.88365 0.0
C650 C 0.61005 0.21484 0.88498 0.0
C651 C 0.62366 0.29661 0.89893 0.0
C652 C 0.56991 0.26145 0.89737 0.0
C653 C 0.61176 0.24997 0.93876 0.0
O654 O 0.61115 0.26523 0.93258 0.0
O655 O 0.60827 0.23691 0.9293 0.0
O656 O 0.61156 0.29922 0.91014 0.0
O657 O 0.62487 0.28131 0.89225 0.0
O658 O 0.43295 0.76948 0.90271 0.0
Cd659 Cd 0.40727 0.776 0.90657 0.0
Cd660 Cd 0.40556 0.7396 0.90813 0.0
O661 O 0.43086 0.74118 0.89918 0.0
O662 O 0.40717 0.80112 0.90056 0.0
O663 O 0.39241 0.78167 0.88565 0.0
C664 C 0.39739 0.79755 0.88751 0.0
C665 C 0.38739 0.71709 0.8986 0.0
C666 C 0.43991 0.75495 0.8992 0.0
C667 C 0.39779 0.76085 0.94073 0.0
O668 O 0.4012 0.74633 0.93371 0.0
O669 O 0.39808 0.77469 0.93177 0.0
O670 O 0.40043 0.71428 0.90863 0.0
O671 O 0.38501 0.73276 0.8932 0.0
H672 H 0.12167 0.35311 0.29051 0.0
H673 H 0.11805 0.39239 0.33017 0.0
H674 H 0.12415 0.33079 0.31283 0.0
H675 H 0.12149 0.37037 0.35246 0.0
H676 H 0.1003 0.3269 0.38607 0.0
H677 H 0.10362 0.34934 0.36447 0.0
H678 H 0.13904 0.3167 0.33576 0.0
H679 H 0.13503 0.29372 0.35728 0.0
C680 C 0.1219 0.35701 0.304 0.0
C681 C 0.11944 0.37446 0.30861 0.0
C682 C 0.12338 0.34422 0.31684 0.0
C683 C 0.1227 0.34866 0.33456 0.0
C684 C 0.12151 0.36632 0.33902 0.0
C685 C 0.1197 0.37901 0.32623 0.0
C686 C 0.10896 0.32451 0.37527 0.0
C687 C 0.11737 0.30846 0.37342 0.0
C688 C 0.11099 0.33751 0.36286 0.0
C689 C 0.12169 0.33499 0.34829 0.0
C690 C 0.13053 0.31908 0.34667 0.0
C691 C 0.12835 0.30593 0.35908 0.0
H692 H 0.71229 0.13301 0.35943 0.0
H693 H 0.67971 0.09585 0.38575 0.0
H694 H 0.68948 0.13756 0.33781 0.0
H695 H 0.65744 0.09981 0.36407 0.0
H696 H 0.61444 0.11517 0.33027 0.0
H697 H 0.63615 0.1182 0.35292 0.0
H698 H 0.67611 0.12311 0.3139 0.0
H699 H 0.6541 0.12095 0.29122 0.0
C700 C 0.70024 0.12591 0.36067 0.0
C701 C 0.69783 0.11408 0.37433 0.0
C702 C 0.68721 0.12842 0.34821 0.0
C703 C 0.67152 0.1191 0.34914 0.0
C704 C 0.6691 0.10754 0.36304 0.0
C705 C 0.68201 0.10515 0.37548 0.0
C706 C 0.62783 0.11723 0.32654 0.0
C707 C 0.6326 0.11765 0.30898 0.0
C708 C 0.64033 0.11883 0.33953 0.0
C709 C 0.65801 0.12049 0.33531 0.0
C710 C 0.66265 0.12193 0.3177 0.0
C711 C 0.65004 0.12064 0.30466 0.0
H712 H 0.87538 0.71387 0.35637 0.0
H713 H 0.91138 0.68006 0.38273 0.0
H714 H 0.87071 0.69154 0.33429 0.0
H715 H 0.90733 0.65825 0.3606 0.0
H716 H 0.88757 0.65681 0.28729 0.0
H717 H 0.88523 0.67835 0.31039 0.0
H718 H 0.88886 0.63753 0.34863 0.0
H719 H 0.89209 0.61627 0.32556 0.0
C720 C 0.88219 0.70165 0.35753 0.0
C721 C 0.89375 0.69877 0.37133 0.0
C722 C 0.87962 0.68889 0.3448 0.0
C723 C 0.88859 0.67299 0.34559 0.0
C724 C 0.89985 0.67009 0.35965 0.0
C725 C 0.90231 0.68273 0.37236 0.0
C726 C 0.88754 0.65245 0.30064 0.0
C727 C 0.89024 0.63489 0.30463 0.0
C728 C 0.88615 0.6648 0.31393 0.0
C729 C 0.88721 0.65979 0.33147 0.0
C730 C 0.88854 0.642 0.33532 0.0
C731 C 0.89023 0.62975 0.32209 0.0
H732 H 0.38587 0.90902 0.3295 0.0
H733 H 0.35834 0.87536 0.29422 0.0
H734 H 0.36337 0.90518 0.35096 0.0
H735 H 0.33589 0.87084 0.31621 0.0
H736 H 0.28919 0.88834 0.35085 0.0
H737 H 0.31249 0.8857 0.32956 0.0
H738 H 0.35023 0.88697 0.37099 0.0
H739 H 0.32699 0.89057 0.39201 0.0
C740 C 0.37515 0.90047 0.32644 0.0
C741 C 0.37391 0.89254 0.31009 0.0
C742 C 0.36223 0.89814 0.33888 0.0
C743 C 0.34772 0.88762 0.33546 0.0
C744 C 0.34673 0.87921 0.31926 0.0
C745 C 0.35967 0.88168 0.30669 0.0
C746 C 0.30247 0.88774 0.35538 0.0
C747 C 0.3063 0.88989 0.37305 0.0
C748 C 0.31586 0.88617 0.34317 0.0
C749 C 0.33336 0.88647 0.34845 0.0
C750 C 0.337 0.88725 0.36633 0.0
C751 C 0.32366 0.88916 0.37843 0.0
H752 H 0.122 0.65636 0.72045 0.0
H753 H 0.11613 0.61617 0.68199 0.0
H754 H 0.12443 0.67801 0.69748 0.0
H755 H 0.11953 0.6375 0.65902 0.0
H756 H 0.09775 0.68059 0.62524 0.0
H757 H 0.10166 0.65854 0.64713 0.0
H758 H 0.13866 0.69124 0.67368 0.0
H759 H 0.13406 0.71385 0.65188 0.0
C760 C 0.12176 0.6521 0.70707 0.0
C761 C 0.11866 0.63463 0.703 0.0
C762 C 0.1232 0.66451 0.69385 0.0
C763 C 0.12183 0.65963 0.67629 0.0
C764 C 0.12009 0.64189 0.67234 0.0
C765 C 0.1183 0.62959 0.68552 0.0
C766 C 0.10689 0.68307 0.63562 0.0
C767 C 0.11555 0.69904 0.6368 0.0
C768 C 0.10926 0.67029 0.64818 0.0
C769 C 0.12056 0.67296 0.66226 0.0
C770 C 0.12969 0.68877 0.66317 0.0
C771 C 0.12716 0.70169 0.65061 0.0
H772 H 0.29109 0.13272 0.65396 0.0
H773 H 0.32436 0.09796 0.62532 0.0
H774 H 0.31424 0.13722 0.67523 0.0
H775 H 0.34702 0.10186 0.64663 0.0
H776 H 0.39021 0.11744 0.68027 0.0
H777 H 0.3679 0.12051 0.65819 0.0
H778 H 0.32864 0.12225 0.69818 0.0
H779 H 0.35119 0.12001 0.7203 0.0
C780 C 0.30336 0.12614 0.65213 0.0
C781 C 0.30585 0.11498 0.63793 0.0
C782 C 0.3166 0.12862 0.66439 0.0
C783 C 0.33259 0.11994 0.66272 0.0
C784 C 0.3351 0.10909 0.64826 0.0
C785 C 0.32198 0.10672 0.63603 0.0
C786 C 0.37684 0.11882 0.68435 0.0
C787 C 0.37244 0.11832 0.70201 0.0
C788 C 0.364 0.12043 0.67168 0.0
C789 C 0.34635 0.12123 0.67631 0.0
C790 C 0.34205 0.12175 0.69406 0.0
C791 C 0.35498 0.12042 0.70678 0.0
H792 H 0.89174 0.33124 0.61697 0.0
H793 H 0.88818 0.29183 0.65649 0.0
H794 H 0.88794 0.35365 0.63884 0.0
H795 H 0.88541 0.31425 0.67866 0.0
H796 H 0.87505 0.35855 0.7158 0.0
H797 H 0.87074 0.3371 0.69281 0.0
H798 H 0.9056 0.36597 0.65971 0.0
H799 H 0.90917 0.3875 0.68216 0.0
C800 C 0.89 0.32738 0.63037 0.0
C801 C 0.8904 0.30981 0.63504 0.0
C802 C 0.88799 0.34024 0.64298 0.0
C803 C 0.88679 0.33589 0.66068 0.0
C804 C 0.88619 0.31819 0.66521 0.0
C805 C 0.88783 0.30529 0.6525 0.0
C806 C 0.88153 0.3604 0.70348 0.0
C807 C 0.89245 0.37476 0.70084 0.0
C808 C 0.87918 0.34803 0.69033 0.0
C809 C 0.8878 0.34969 0.67429 0.0
C810 C 0.89838 0.36431 0.67164 0.0
C811 C 0.90057 0.37669 0.68465 0.0
H812 H 0.71817 0.87664 0.65311 0.0
H813 H 0.68387 0.90966 0.62366 0.0
H814 H 0.69531 0.87229 0.6747 0.0
H815 H 0.66151 0.906 0.64532 0.0
H816 H 0.61901 0.89106 0.6801 0.0
H817 H 0.64107 0.88777 0.65781 0.0
H818 H 0.68082 0.88726 0.69734 0.0
H819 H 0.65851 0.88961 0.71968 0.0
C820 C 0.70573 0.88287 0.65118 0.0
C821 C 0.70286 0.89349 0.63664 0.0
C822 C 0.69266 0.88049 0.66363 0.0
C823 C 0.67646 0.88877 0.66185 0.0
C824 C 0.67359 0.89907 0.64706 0.0
C825 C 0.68653 0.9013 0.63462 0.0
C826 C 0.63245 0.88991 0.68403 0.0
C827 C 0.63704 0.89074 0.70162 0.0
C828 C 0.64515 0.88818 0.67123 0.0
C829 C 0.66286 0.88765 0.67565 0.0
C830 C 0.66737 0.88752 0.69336 0.0
C831 C 0.65457 0.88893 0.70621 0.0
H832 H 0.35547 0.13304 0.29311 0.0
H833 H 0.38501 0.09944 0.32678 0.0
H834 H 0.33452 0.13789 0.31648 0.0
H835 H 0.364 0.10364 0.34964 0.0
H836 H 0.33045 0.11873 0.39281 0.0
H837 H 0.35229 0.12225 0.37032 0.0
H838 H 0.31198 0.12299 0.33137 0.0
H839 H 0.2901 0.12039 0.35411 0.0
C840 C 0.35757 0.12681 0.30552 0.0
C841 C 0.37191 0.11585 0.30805 0.0
C842 C 0.3455 0.12948 0.31889 0.0
C843 C 0.34749 0.12118 0.33504 0.0
C844 C 0.36212 0.11059 0.33759 0.0
C845 C 0.37418 0.10804 0.32435 0.0
C846 C 0.32625 0.12001 0.37947 0.0
C847 C 0.30859 0.11912 0.3752 0.0
C848 C 0.33878 0.12188 0.36652 0.0
C849 C 0.334 0.12248 0.34891 0.0
C850 C 0.31621 0.12266 0.34475 0.0
C851 C 0.30363 0.12112 0.35778 0.0
H852 H 0.91388 0.32609 0.38428 0.0
H853 H 0.87784 0.293 0.35708 0.0
H854 H 0.91003 0.34836 0.36259 0.0
H855 H 0.87333 0.31581 0.33547 0.0
H856 H 0.89004 0.35129 0.28918 0.0
H857 H 0.88772 0.32936 0.3119 0.0
H858 H 0.89207 0.36946 0.35084 0.0
H859 H 0.89533 0.39109 0.32813 0.0
C860 C 0.90483 0.32368 0.37382 0.0
C861 C 0.89621 0.3077 0.37242 0.0
C862 C 0.90249 0.33659 0.36137 0.0
C863 C 0.89128 0.33403 0.34719 0.0
C864 C 0.88222 0.31821 0.34606 0.0
C865 C 0.8847 0.30516 0.35852 0.0
C866 C 0.89019 0.3554 0.30261 0.0
C867 C 0.89309 0.37286 0.30688 0.0
C868 C 0.88881 0.34283 0.31568 0.0
C869 C 0.89004 0.34752 0.3333 0.0
C870 C 0.89162 0.36522 0.33746 0.0
C871 C 0.89333 0.37769 0.32443 0.0
H872 H 0.71997 0.88928 0.3537 0.0
H873 H 0.68102 0.89359 0.39365 0.0
H874 H 0.69724 0.88705 0.33176 0.0
H875 H 0.65833 0.89048 0.37198 0.0
H876 H 0.62476 0.91275 0.32891 0.0
H877 H 0.64655 0.90883 0.35108 0.0
H878 H 0.67367 0.87243 0.31816 0.0
H879 H 0.65194 0.87698 0.29548 0.0
C880 C 0.70655 0.88925 0.35783 0.0
C881 C 0.70227 0.89184 0.37535 0.0
C882 C 0.69348 0.88791 0.34526 0.0
C883 C 0.67586 0.88891 0.34999 0.0
C884 C 0.6717 0.8902 0.36773 0.0
C885 C 0.68472 0.89184 0.38021 0.0
C886 C 0.63524 0.90375 0.3264 0.0
C887 C 0.6366 0.89522 0.31036 0.0
C888 C 0.64775 0.90137 0.33925 0.0
C889 C 0.66195 0.89023 0.33655 0.0
C890 C 0.66306 0.88127 0.32066 0.0
C891 C 0.65053 0.88377 0.30769 0.0
H892 H 0.13283 0.65336 0.29411 0.0
H893 H 0.09998 0.62405 0.3287 0.0
H894 H 0.13676 0.67537 0.31664 0.0
H895 H 0.10317 0.64612 0.3507 0.0
H896 H 0.11713 0.68183 0.39272 0.0
H897 H 0.12088 0.6592 0.37108 0.0
H898 H 0.12164 0.69805 0.33067 0.0
H899 H 0.1189 0.72074 0.35259 0.0
C900 C 0.12655 0.65156 0.30654 0.0
C901 C 0.11611 0.63693 0.30959 0.0
C902 C 0.12868 0.66424 0.31943 0.0
C903 C 0.12031 0.66263 0.3356 0.0
C904 C 0.11018 0.64776 0.33865 0.0
C905 C 0.10822 0.63507 0.32591 0.0
C906 C 0.11843 0.68553 0.37923 0.0
C907 C 0.11757 0.70303 0.37433 0.0
C908 C 0.12042 0.67254 0.36676 0.0
C909 C 0.12116 0.67666 0.34898 0.0
C910 C 0.12123 0.6943 0.34418 0.0
C911 C 0.1196 0.70734 0.35675 0.0
H912 H 0.39237 0.89127 0.67914 0.0
H913 H 0.35224 0.88762 0.71795 0.0
H914 H 0.37078 0.88821 0.65636 0.0
H915 H 0.33038 0.88549 0.69515 0.0
H916 H 0.29407 0.87611 0.64977 0.0
H917 H 0.31662 0.87113 0.67156 0.0
H918 H 0.35025 0.9069 0.64451 0.0
H919 H 0.32822 0.91123 0.62267 0.0
C920 C 0.37891 0.88965 0.68279 0.0
C921 C 0.37397 0.88985 0.70031 0.0
C922 C 0.36647 0.88805 0.66973 0.0
C923 C 0.34871 0.88703 0.67382 0.0
C924 C 0.34389 0.88616 0.69143 0.0
C925 C 0.35643 0.88743 0.70454 0.0
C926 C 0.3064 0.88267 0.6484 0.0
C927 C 0.30933 0.89406 0.63447 0.0
C928 C 0.3193 0.87992 0.66095 0.0
C929 C 0.33535 0.88857 0.65987 0.0
C930 C 0.33828 0.89966 0.64568 0.0
C931 C 0.32552 0.90228 0.63315 0.0
H932 H 0.13319 0.35766 0.71703 0.0
H933 H 0.09928 0.38676 0.6833 0.0
H934 H 0.13787 0.33645 0.69387 0.0
H935 H 0.10331 0.36549 0.66065 0.0
H936 H 0.11832 0.33138 0.61773 0.0
H937 H 0.12173 0.35352 0.63994 0.0
H938 H 0.12293 0.3137 0.67938 0.0
H939 H 0.12043 0.29152 0.65692 0.0
C940 C 0.12686 0.35961 0.70465 0.0
C941 C 0.11585 0.37391 0.70204 0.0
C942 C 0.12943 0.34738 0.69141 0.0
C943 C 0.12099 0.34916 0.67529 0.0
C944 C 0.11036 0.36376 0.67266 0.0
C945 C 0.10792 0.37597 0.68578 0.0
C946 C 0.11966 0.32736 0.63113 0.0
C947 C 0.11894 0.30974 0.6356 0.0
C948 C 0.12147 0.34006 0.64391 0.0
C949 C 0.1222 0.3355 0.66158 0.0
C950 C 0.12251 0.31777 0.66595 0.0
C951 C 0.12102 0.30502 0.65307 0.0
H952 H 0.68289 0.09746 0.62474 0.0
H953 H 0.71591 0.13377 0.65169 0.0
H954 H 0.66052 0.1016 0.64629 0.0
H955 H 0.69301 0.13852 0.67318 0.0
H956 H 0.65724 0.12165 0.71942 0.0
H957 H 0.67932 0.12402 0.69683 0.0
H958 H 0.63944 0.12008 0.65764 0.0
H959 H 0.61764 0.11683 0.68021 0.0
C960 C 0.68526 0.10662 0.63512 0.0
C961 C 0.70124 0.11524 0.63649 0.0
C962 C 0.6723 0.10913 0.64748 0.0
C963 C 0.67481 0.12049 0.66154 0.0
C964 C 0.69065 0.12953 0.66266 0.0
C965 C 0.70374 0.12691 0.65027 0.0
C966 C 0.65321 0.12162 0.70597 0.0
C967 C 0.63576 0.11882 0.70157 0.0
C968 C 0.66587 0.12303 0.69298 0.0
C969 C 0.66127 0.12189 0.67533 0.0
C970 C 0.64358 0.12047 0.67105 0.0
C971 C 0.63103 0.11875 0.684 0.0
H972 H 0.89294 0.67891 0.6167 0.0
H973 H 0.8899 0.71807 0.65653 0.0
H974 H 0.88965 0.65636 0.63848 0.0
H975 H 0.88758 0.69548 0.6786 0.0
H976 H 0.87716 0.65067 0.7153 0.0
H977 H 0.87283 0.67242 0.6926 0.0
H978 H 0.90773 0.64404 0.65912 0.0
H979 H 0.91137 0.62222 0.68129 0.0
C980 C 0.89145 0.68269 0.63015 0.0
C981 C 0.89183 0.70024 0.63493 0.0
C982 C 0.88972 0.66975 0.6427 0.0
C983 C 0.88876 0.67398 0.66044 0.0
C984 C 0.88818 0.69164 0.66511 0.0
C985 C 0.88957 0.70463 0.65247 0.0
C986 C 0.88365 0.64899 0.70296 0.0
C987 C 0.89459 0.63468 0.70012 0.0
C988 C 0.88129 0.66153 0.68998 0.0
C989 C 0.8899 0.66009 0.67392 0.0
C990 C 0.90053 0.64553 0.67108 0.0
C991 C 0.90275 0.63299 0.68392 0.0
H992 H 0.28962 0.35192 0.12089 0.0
H993 H 0.32848 0.3921 0.11899 0.0
H994 H 0.31238 0.32999 0.12283 0.0
H995 H 0.35119 0.37041 0.12182 0.0
H996 H 0.35764 0.29354 0.13249 0.0
H997 H 0.33572 0.31596 0.13746 0.0
H998 H 0.36337 0.35027 0.10282 0.0
H999 H 0.38533 0.32834 0.09848 0.0
C1000 C 0.30302 0.35609 0.1214 0.0
C1001 C 0.30729 0.37369 0.11955 0.0
C1002 C 0.3161 0.34352 0.12257 0.0
C1003 C 0.33372 0.34834 0.12214 0.0
C1004 C 0.33783 0.36612 0.12164 0.0
C1005 C 0.3248 0.3786 0.12017 0.0
C1006 C 0.35911 0.30599 0.12617 0.0
C1007 C 0.37325 0.30913 0.11509 0.0
C1008 C 0.34649 0.31881 0.12892 0.0
C1009 C 0.3477 0.33502 0.12059 0.0
C1010 C 0.36209 0.33817 0.1098 0.0
C1011 C 0.37469 0.32547 0.10718 0.0
H1012 H 0.38753 0.68445 0.91178 0.0
H1013 H 0.35903 0.71768 0.87688 0.0
H1014 H 0.36599 0.662 0.90824 0.0
H1015 H 0.33758 0.69467 0.87262 0.0
H1016 H 0.29219 0.6583 0.88974 0.0
H1017 H 0.31454 0.68058 0.8872 0.0
H1018 H 0.35411 0.64098 0.89042 0.0
H1019 H 0.33178 0.61903 0.89398 0.0
C1020 C 0.37681 0.68685 0.90302 0.0
C1021 C 0.37501 0.70291 0.89465 0.0
C1022 C 0.36444 0.67384 0.90086 0.0
C1023 C 0.34997 0.67636 0.89004 0.0
C1024 C 0.34841 0.69229 0.88122 0.0
C1025 C 0.36077 0.70545 0.88355 0.0
C1026 C 0.30568 0.65439 0.88961 0.0
C1027 C 0.31027 0.63698 0.89229 0.0
C1028 C 0.31854 0.66716 0.8881 0.0
C1029 C 0.33624 0.66271 0.88895 0.0
C1030 C 0.34068 0.64505 0.89028 0.0
C1031 C 0.32787 0.63239 0.89216 0.0
H1032 H 0.29037 0.35145 0.88905 0.0
H1033 H 0.32951 0.39103 0.8945 0.0
H1034 H 0.313 0.32942 0.88652 0.0
H1035 H 0.35211 0.36931 0.89108 0.0
H1036 H 0.38525 0.32569 0.91278 0.0
H1037 H 0.36356 0.348 0.90916 0.0
H1038 H 0.33667 0.31599 0.87181 0.0
H1039 H 0.3583 0.29314 0.87605 0.0
C1040 C 0.30382 0.35549 0.88921 0.0
C1041 C 0.30819 0.37291 0.89221 0.0
C1042 C 0.31683 0.34287 0.8877 0.0
C1043 C 0.33447 0.34747 0.88894 0.0
C1044 C 0.33871 0.36514 0.89062 0.0
C1045 C 0.32575 0.37765 0.89243 0.0
C1046 C 0.37484 0.32341 0.90364 0.0
C1047 C 0.37352 0.30758 0.89474 0.0
C1048 C 0.36239 0.33634 0.90143 0.0
C1049 C 0.3483 0.33394 0.8901 0.0
C1050 C 0.34721 0.31825 0.88079 0.0
C1051 C 0.35968 0.30519 0.88312 0.0
H1052 H 0.62468 0.32901 0.91271 0.0
H1053 H 0.65148 0.2957 0.87653 0.0
H1054 H 0.64672 0.35097 0.90903 0.0
H1055 H 0.6735 0.31818 0.87228 0.0
H1056 H 0.72011 0.35312 0.88986 0.0
H1057 H 0.69721 0.33137 0.88739 0.0
H1058 H 0.6586 0.37188 0.89054 0.0
H1059 H 0.68144 0.39336 0.89383 0.0
C1060 C 0.63514 0.32649 0.90368 0.0
C1061 C 0.63631 0.31055 0.89495 0.0
C1062 C 0.64778 0.33921 0.90145 0.0
C1063 C 0.66195 0.33648 0.89027 0.0
C1064 C 0.66289 0.32069 0.88113 0.0
C1065 C 0.65021 0.30785 0.88346 0.0
C1066 C 0.70672 0.35735 0.88972 0.0
C1067 C 0.70255 0.3749 0.89228 0.0
C1068 C 0.69356 0.34489 0.88825 0.0
C1069 C 0.67598 0.34978 0.88909 0.0
C1070 C 0.67195 0.36753 0.89036 0.0
C1071 C 0.68505 0.37989 0.89212 0.0
H1072 H 0.71939 0.659 0.88818 0.0
H1073 H 0.68075 0.61872 0.89155 0.0
H1074 H 0.69653 0.68073 0.88542 0.0
H1075 H 0.65792 0.64015 0.88779 0.0
H1076 H 0.62331 0.6827 0.9093 0.0
H1077 H 0.64533 0.66074 0.90569 0.0
H1078 H 0.67332 0.69432 0.87058 0.0
H1079 H 0.65137 0.71683 0.8749 0.0
C1080 C 0.70601 0.65476 0.88781 0.0
C1081 C 0.70182 0.63722 0.89032 0.0
C1082 C 0.69286 0.66721 0.88617 0.0
C1083 C 0.67527 0.66231 0.88673 0.0
C1084 C 0.67125 0.64454 0.88788 0.0
C1085 C 0.68434 0.6322 0.88988 0.0
C1086 C 0.63404 0.6854 0.90063 0.0
C1087 C 0.63558 0.70158 0.89243 0.0
C1088 C 0.64669 0.67267 0.89843 0.0
C1089 C 0.6612 0.67561 0.88776 0.0
C1090 C 0.66247 0.69163 0.87907 0.0
C1091 C 0.64982 0.7045 0.88143 0.0
H1092 H 0.62332 0.68214 0.09565 0.0
H1093 H 0.6505 0.71522 0.13173 0.0
H1094 H 0.64502 0.65986 0.0995 0.0
H1095 H 0.67215 0.69242 0.13618 0.0
H1096 H 0.71831 0.65664 0.11942 0.0
H1097 H 0.69572 0.67875 0.12148 0.0
H1098 H 0.65655 0.63883 0.11795 0.0
H1099 H 0.6791 0.61699 0.11503 0.0
C1100 C 0.63378 0.68455 0.10469 0.0
C1101 C 0.63516 0.70052 0.11334 0.0
C1102 C 0.64624 0.67165 0.10703 0.0
C1103 C 0.6604 0.67421 0.11824 0.0
C1104 C 0.66155 0.69003 0.1273 0.0
C1105 C 0.64907 0.70307 0.12485 0.0
C1106 C 0.70486 0.65261 0.11937 0.0
C1107 C 0.70047 0.63512 0.11682 0.0
C1108 C 0.69187 0.66528 0.12061 0.0
C1109 C 0.67422 0.66068 0.11956 0.0
C1110 C 0.66995 0.64298 0.11828 0.0
C1111 C 0.68289 0.63041 0.11674 0.0
H1112 H 0.35716 0.7143 0.13361 0.0
H1113 H 0.38394 0.68014 0.09821 0.0
H1114 H 0.33503 0.69202 0.13825 0.0
H1115 H 0.36178 0.65835 0.10227 0.0
H1116 H 0.32657 0.61651 0.11798 0.0
H1117 H 0.34958 0.63785 0.12099 0.0
H1118 H 0.31131 0.67873 0.12334 0.0
H1119 H 0.28824 0.65714 0.12117 0.0
C1120 C 0.35841 0.70201 0.12694 0.0
C1121 C 0.37233 0.69902 0.11554 0.0
C1122 C 0.34566 0.68927 0.12949 0.0
C1123 C 0.34654 0.6733 0.12067 0.0
C1124 C 0.36074 0.67027 0.10961 0.0
C1125 C 0.37346 0.68289 0.10716 0.0
C1126 C 0.32307 0.63003 0.11947 0.0
C1127 C 0.30561 0.63517 0.11917 0.0
C1128 C 0.33627 0.64232 0.12105 0.0
C1129 C 0.3324 0.66012 0.12201 0.0
C1130 C 0.31485 0.66517 0.12272 0.0
C1131 C 0.30159 0.65279 0.12142 0.0
H1132 H 0.71827 0.35004 0.12091 0.0
H1133 H 0.67932 0.38996 0.11691 0.0
H1134 H 0.69557 0.32808 0.12314 0.0
H1135 H 0.65663 0.36832 0.12016 0.0
H1136 H 0.62258 0.32558 0.09836 0.0
H1137 H 0.64445 0.34765 0.10215 0.0
H1138 H 0.67228 0.31421 0.13751 0.0
H1139 H 0.6505 0.29158 0.13298 0.0
C1140 C 0.70485 0.35415 0.12102 0.0
C1141 C 0.70054 0.37166 0.1185 0.0
C1142 C 0.69179 0.34157 0.12236 0.0
C1143 C 0.67415 0.34631 0.12149 0.0
C1144 C 0.67 0.36404 0.12031 0.0
C1145 C 0.68301 0.37652 0.1186 0.0
C1146 C 0.63324 0.32293 0.10711 0.0
C1147 C 0.63478 0.30676 0.11533 0.0
C1148 C 0.6458 0.33573 0.10942 0.0
C1149 C 0.66022 0.33288 0.12023 0.0
C1150 C 0.66151 0.31684 0.12891 0.0
C1151 C 0.64895 0.3039 0.12643 0.0
H1152 H 0.60114 0.88701 0.82641 0.0
H1153 H 0.6342 0.85804 0.7917 0.0
H1154 H 0.60471 0.86503 0.84842 0.0
H1155 H 0.63851 0.83613 0.81425 0.0
H1156 H 0.62086 0.79057 0.85009 0.0
H1157 H 0.62364 0.81331 0.82824 0.0
H1158 H 0.62252 0.85208 0.86875 0.0
H1159 H 0.61871 0.82939 0.89031 0.0
C1160 C 0.60952 0.87609 0.82359 0.0
C1161 C 0.61734 0.87429 0.80724 0.0
C1162 C 0.6117 0.86346 0.83634 0.0
C1163 C 0.62198 0.8487 0.83326 0.0
C1164 C 0.63031 0.84717 0.81706 0.0
C1165 C 0.62796 0.8598 0.80416 0.0
C1166 C 0.62151 0.80396 0.85429 0.0
C1167 C 0.61934 0.80824 0.87186 0.0
C1168 C 0.62316 0.81704 0.84177 0.0
C1169 C 0.62296 0.83466 0.84661 0.0
C1170 C 0.62215 0.83874 0.8644 0.0
C1171 C 0.62013 0.82572 0.87682 0.0
H1172 H 0.21695 0.63325 0.85908 0.0
H1173 H 0.18433 0.5968 0.88633 0.0
H1174 H 0.19401 0.63757 0.83757 0.0
H1175 H 0.16193 0.60049 0.86474 0.0
H1176 H 0.11893 0.61488 0.83054 0.0
H1177 H 0.14063 0.61841 0.85315 0.0
H1178 H 0.18055 0.62288 0.81402 0.0
H1179 H 0.15854 0.62026 0.7914 0.0
C1180 C 0.20486 0.62627 0.86056 0.0
C1181 C 0.20249 0.61469 0.87444 0.0
C1182 C 0.19175 0.62864 0.84816 0.0
C1183 C 0.17602 0.61941 0.84933 0.0
C1184 C 0.17363 0.60815 0.86349 0.0
C1185 C 0.1866 0.60591 0.87588 0.0
C1186 C 0.13231 0.61696 0.82678 0.0
C1187 C 0.13707 0.61713 0.80922 0.0
C1188 C 0.14481 0.61884 0.83975 0.0
C1189 C 0.16248 0.62052 0.8355 0.0
C1190 C 0.1671 0.6217 0.81785 0.0
C1191 C 0.15449 0.62015 0.80485 0.0
H1192 H 0.38887 0.15656 0.78839 0.0
H1193 H 0.3917 0.11604 0.82686 0.0
H1194 H 0.38707 0.17826 0.81139 0.0
H1195 H 0.38906 0.13751 0.84981 0.0
H1196 H 0.41227 0.17951 0.88409 0.0
H1197 H 0.40806 0.1578 0.86188 0.0
H1198 H 0.3725 0.19186 0.83511 0.0
H1199 H 0.37731 0.21407 0.85729 0.0
C1200 C 0.3886 0.15226 0.80176 0.0
C1201 C 0.39066 0.13463 0.80583 0.0
C1202 C 0.38753 0.1647 0.81498 0.0
C1203 C 0.38826 0.15973 0.83255 0.0
C1204 C 0.38899 0.14192 0.83649 0.0
C1205 C 0.39036 0.12957 0.82331 0.0
C1206 C 0.4034 0.18238 0.87359 0.0
C1207 C 0.39516 0.19858 0.87248 0.0
C1208 C 0.40086 0.1698 0.86084 0.0
C1209 C 0.38984 0.17294 0.84664 0.0
C1210 C 0.38122 0.18903 0.84573 0.0
C1211 C 0.38388 0.20172 0.85851 0.0
H1212 H 0.85084 0.38994 0.79085 0.0
H1213 H 0.8914 0.3908 0.82935 0.0
H1214 H 0.82911 0.38768 0.81379 0.0
H1215 H 0.86993 0.38759 0.85222 0.0
H1216 H 0.82831 0.40987 0.88757 0.0
H1217 H 0.85005 0.40598 0.86534 0.0
H1218 H 0.81509 0.37277 0.83674 0.0
H1219 H 0.79285 0.37736 0.85892 0.0
C1220 C 0.85513 0.38915 0.8042 0.0
C1221 C 0.87279 0.39078 0.80833 0.0
C1222 C 0.84267 0.38779 0.81739 0.0
C1223 C 0.84767 0.38777 0.83498 0.0
C1224 C 0.86549 0.38811 0.83891 0.0
C1225 C 0.87786 0.3898 0.82578 0.0
C1226 C 0.82526 0.40156 0.87666 0.0
C1227 C 0.80879 0.39397 0.87504 0.0
C1228 C 0.83785 0.39919 0.86389 0.0
C1229 C 0.83447 0.38898 0.84914 0.0
C1230 C 0.81814 0.3809 0.84777 0.0
C1231 C 0.80541 0.38341 0.86056 0.0
H1232 H 0.61647 0.17931 0.11769 0.0
H1233 H 0.61874 0.21875 0.1573 0.0
H1234 H 0.61962 0.15692 0.13966 0.0
H1235 H 0.62095 0.19632 0.17954 0.0
H1236 H 0.63081 0.15174 0.21668 0.0
H1237 H 0.63562 0.17329 0.19387 0.0
H1238 H 0.60104 0.14488 0.16011 0.0
H1239 H 0.5969 0.12328 0.1824 0.0
C1240 C 0.61778 0.18318 0.13113 0.0
C1241 C 0.61719 0.20076 0.1358 0.0
C1242 C 0.61944 0.17034 0.14378 0.0
C1243 C 0.62013 0.17471 0.1615 0.0
C1244 C 0.62055 0.19239 0.16607 0.0
C1245 C 0.61923 0.20529 0.15332 0.0
C1246 C 0.62449 0.15001 0.20426 0.0
C1247 C 0.61348 0.13578 0.20138 0.0
C1248 C 0.62714 0.16243 0.19121 0.0
C1249 C 0.61875 0.16091 0.17505 0.0
C1250 C 0.60806 0.14641 0.17216 0.0
C1251 C 0.60556 0.134 0.18508 0.0
H1252 H 0.8519 0.61901 0.21756 0.0
H1253 H 0.89149 0.61681 0.17809 0.0
H1254 H 0.82967 0.62139 0.19515 0.0
H1255 H 0.86953 0.62013 0.15572 0.0
H1256 H 0.82662 0.59818 0.12174 0.0
H1257 H 0.84896 0.60191 0.14339 0.0
H1258 H 0.81539 0.63627 0.17232 0.0
H1259 H 0.79254 0.63186 0.15074 0.0
C1260 C 0.85588 0.61954 0.2041 0.0
C1261 C 0.8734 0.6175 0.19956 0.0
C1262 C 0.84314 0.62096 0.19121 0.0
C1263 C 0.84769 0.62063 0.17351 0.0
C1264 C 0.86541 0.61988 0.16914 0.0
C1265 C 0.87806 0.61814 0.18198 0.0
C1266 C 0.824 0.6067 0.1326 0.0
C1267 C 0.80774 0.61468 0.1345 0.0
C1268 C 0.83694 0.60898 0.14503 0.0
C1269 C 0.83412 0.61947 0.15969 0.0
C1270 C 0.818 0.62792 0.16134 0.0
C1271 C 0.80493 0.6255 0.1489 0.0
H1272 H 0.39447 0.82761 0.11969 0.0
H1273 H 0.38944 0.78886 0.1597 0.0
H1274 H 0.3911 0.85041 0.14119 0.0
H1275 H 0.38711 0.81168 0.18155 0.0
H1276 H 0.37684 0.85713 0.21762 0.0
H1277 H 0.37274 0.83513 0.19511 0.0
H1278 H 0.40879 0.86259 0.16209 0.0
H1279 H 0.41216 0.88467 0.18403 0.0
C1280 C 0.39254 0.82399 0.13313 0.0
C1281 C 0.39236 0.80648 0.13805 0.0
C1282 C 0.39077 0.83706 0.14552 0.0
C1283 C 0.38926 0.833 0.16327 0.0
C1284 C 0.38815 0.8154 0.16806 0.0
C1285 C 0.38954 0.80227 0.15554 0.0
C1286 C 0.38365 0.85853 0.20542 0.0
C1287 C 0.39479 0.87268 0.20263 0.0
C1288 C 0.38141 0.84585 0.19255 0.0
C1289 C 0.39038 0.84699 0.17665 0.0
C1290 C 0.40129 0.86135 0.17389 0.0
C1291 C 0.40336 0.87404 0.18661 0.0
H1292 H 0.18145 0.39074 0.1187 0.0
H1293 H 0.22036 0.38802 0.15879 0.0
H1294 H 0.15876 0.38749 0.14038 0.0
H1295 H 0.19764 0.38572 0.18072 0.0
H1296 H 0.15276 0.37635 0.21745 0.0
H1297 H 0.17442 0.3713 0.19479 0.0
H1298 H 0.14649 0.40598 0.16075 0.0
H1299 H 0.12476 0.41035 0.18289 0.0
C1300 C 0.18514 0.38928 0.13218 0.0
C1301 C 0.20266 0.38978 0.13707 0.0
C1302 C 0.17212 0.38758 0.14466 0.0
C1303 C 0.17626 0.38677 0.16243 0.0
C1304 C 0.19389 0.38621 0.16721 0.0
C1305 C 0.20695 0.38758 0.15463 0.0
C1306 C 0.15115 0.38263 0.205 0.0
C1307 C 0.13702 0.39376 0.20201 0.0
C1308 C 0.16364 0.37985 0.19204 0.0
C1309 C 0.1623 0.38821 0.17584 0.0
C1310 C 0.14788 0.39897 0.17283 0.0
C1311 C 0.13541 0.40162 0.18566 0.0
H1312 H 0.82834 0.59941 0.88576 0.0
H1313 H 0.79479 0.63477 0.8582 0.0
H1314 H 0.85046 0.60312 0.86389 0.0
H1315 H 0.81745 0.63913 0.8364 0.0
H1316 H 0.85254 0.62146 0.79008 0.0
H1317 H 0.83083 0.62427 0.81297 0.0
H1318 H 0.87134 0.62099 0.85158 0.0
H1319 H 0.89275 0.61724 0.82873 0.0
C1320 C 0.8258 0.6083 0.87519 0.0
C1321 C 0.80973 0.61674 0.87373 0.0
C1322 C 0.83862 0.61056 0.86263 0.0
C1323 C 0.83588 0.62149 0.84828 0.0
C1324 C 0.81998 0.63044 0.84712 0.0
C1325 C 0.80703 0.62805 0.85969 0.0
C1326 C 0.85678 0.62165 0.80347 0.0
C1327 C 0.87429 0.61889 0.80764 0.0
C1328 C 0.84434 0.62332 0.81663 0.0
C1329 C 0.84921 0.62252 0.83423 0.0
C1330 C 0.86697 0.62111 0.83824 0.0
C1331 C 0.8793 0.61911 0.82513 0.0
H1332 H 0.39209 0.89283 0.82724 0.0
H1333 H 0.38915 0.85155 0.78962 0.0
H1334 H 0.3883 0.87198 0.8506 0.0
H1335 H 0.3864 0.8304 0.81301 0.0
H1336 H 0.37606 0.79529 0.85893 0.0
H1337 H 0.37168 0.81721 0.83642 0.0
H1338 H 0.40614 0.85187 0.86389 0.0
H1339 H 0.40979 0.83049 0.88646 0.0
C1340 C 0.39049 0.87926 0.82398 0.0
C1341 C 0.39106 0.87379 0.80664 0.0
C1342 C 0.38849 0.86724 0.83738 0.0
C1343 C 0.38747 0.84936 0.83382 0.0
C1344 C 0.38704 0.84402 0.81634 0.0
C1345 C 0.38867 0.85614 0.80288 0.0
C1346 C 0.38244 0.80773 0.86024 0.0
C1347 C 0.39326 0.81112 0.87451 0.0
C1348 C 0.38004 0.82027 0.84727 0.0
C1349 C 0.38853 0.83642 0.84822 0.0
C1350 C 0.39903 0.83983 0.86276 0.0
C1351 C 0.40126 0.82743 0.87573 0.0
H1352 H 0.18209 0.41128 0.88755 0.0
H1353 H 0.21606 0.37674 0.85945 0.0
H1354 H 0.15988 0.40736 0.8658 0.0
H1355 H 0.19333 0.37216 0.83776 0.0
H1356 H 0.1174 0.39192 0.83132 0.0
H1357 H 0.13927 0.38889 0.85382 0.0
H1358 H 0.17926 0.38682 0.81456 0.0
H1359 H 0.15711 0.38892 0.79202 0.0
C1360 C 0.18471 0.40254 0.87687 0.0
C1361 C 0.2009 0.39436 0.87525 0.0
C1362 C 0.17185 0.40016 0.86438 0.0
C1363 C 0.17467 0.38935 0.84995 0.0
C1364 C 0.19073 0.38074 0.84857 0.0
C1365 C 0.20372 0.38325 0.86106 0.0
C1366 C 0.13084 0.39048 0.8275 0.0
C1367 C 0.13556 0.39082 0.80992 0.0
C1368 C 0.14344 0.3889 0.84041 0.0
C1369 C 0.16116 0.38802 0.83611 0.0
C1370 C 0.16578 0.38737 0.81844 0.0
C1371 C 0.15309 0.38863 0.80548 0.0
H1372 H 0.61543 0.11745 0.82831 0.0
H1373 H 0.62135 0.15718 0.78938 0.0
H1374 H 0.61849 0.1391 0.85103 0.0
H1375 H 0.62354 0.17912 0.81212 0.0
H1376 H 0.63316 0.21526 0.85772 0.0
H1377 H 0.63787 0.19247 0.83611 0.0
H1378 H 0.60002 0.16036 0.86215 0.0
H1379 H 0.59589 0.18262 0.88382 0.0
C1380 C 0.61756 0.13083 0.82462 0.0
C1381 C 0.61798 0.13565 0.80707 0.0
C1382 C 0.61916 0.1433 0.83765 0.0
C1383 C 0.62085 0.16099 0.83348 0.0
C1384 C 0.62234 0.16566 0.81588 0.0
C1385 C 0.62104 0.15308 0.80281 0.0
C1386 C 0.62607 0.20321 0.85891 0.0
C1387 C 0.61416 0.20078 0.87251 0.0
C1388 C 0.62867 0.19018 0.84646 0.0
C1389 C 0.61937 0.17448 0.84732 0.0
C1390 C 0.60774 0.17204 0.86117 0.0
C1391 C 0.60525 0.18494 0.8736 0.0
H1392 H 0.89302 0.39276 0.17965 0.0
H1393 H 0.8536 0.38683 0.2189 0.0
H1394 H 0.87122 0.38942 0.1571 0.0
H1395 H 0.8315 0.38441 0.19636 0.0
H1396 H 0.79484 0.37466 0.15139 0.0
H1397 H 0.81791 0.37005 0.1727 0.0
H1398 H 0.84984 0.40745 0.14581 0.0
H1399 H 0.82731 0.41143 0.12441 0.0
C1400 C 0.87967 0.39058 0.18344 0.0
C1401 C 0.87499 0.39021 0.20103 0.0
C1402 C 0.86711 0.38882 0.17051 0.0
C1403 C 0.84945 0.38706 0.17482 0.0
C1404 C 0.84493 0.38565 0.19247 0.0
C1405 C 0.85759 0.38709 0.20544 0.0
C1406 C 0.80693 0.38165 0.14993 0.0
C1407 C 0.80921 0.39341 0.13618 0.0
C1408 C 0.82011 0.37911 0.16222 0.0
C1409 C 0.83584 0.38835 0.16107 0.0
C1410 C 0.83816 0.39978 0.14703 0.0
C1411 C 0.8251 0.40219 0.13475 0.0
H1412 H 0.61432 0.89241 0.18072 0.0
H1413 H 0.62077 0.85222 0.21908 0.0
H1414 H 0.61735 0.87109 0.15769 0.0
H1415 H 0.62282 0.83056 0.19604 0.0
H1416 H 0.63237 0.79502 0.14994 0.0
H1417 H 0.63685 0.81743 0.17199 0.0
H1418 H 0.59931 0.85002 0.14607 0.0
H1419 H 0.5955 0.82818 0.12394 0.0
C1420 C 0.61652 0.87898 0.1842 0.0
C1421 C 0.61715 0.87395 0.20168 0.0
C1422 C 0.6181 0.86669 0.171 0.0
C1423 C 0.6199 0.84895 0.17492 0.0
C1424 C 0.62153 0.84407 0.19245 0.0
C1425 C 0.6203 0.85647 0.2057 0.0
C1426 C 0.6253 0.8071 0.14888 0.0
C1427 C 0.61361 0.80981 0.13515 0.0
C1428 C 0.62776 0.81991 0.16158 0.0
C1429 C 0.6185 0.83565 0.16088 0.0
C1430 C 0.60703 0.83833 0.14694 0.0
C1431 C 0.60471 0.82567 0.13424 0.0
H1432 H 0.11716 0.62026 0.18202 0.0
H1433 H 0.15803 0.62094 0.22018 0.0
H1434 H 0.13843 0.62381 0.159 0.0
H1435 H 0.17956 0.62346 0.1971 0.0
H1436 H 0.21561 0.6338 0.15192 0.0
H1437 H 0.19351 0.63834 0.17424 0.0
H1438 H 0.15815 0.60574 0.14543 0.0
H1439 H 0.17974 0.60195 0.12306 0.0
C1440 C 0.13073 0.62129 0.18547 0.0
C1441 C 0.13595 0.62018 0.20287 0.0
C1442 C 0.14299 0.62316 0.17226 0.0
C1443 C 0.16085 0.62351 0.17605 0.0
C1444 C 0.16598 0.62335 0.19359 0.0
C1445 C 0.15364 0.62185 0.20687 0.0
C1446 C 0.20299 0.62789 0.15027 0.0
C1447 C 0.19946 0.61752 0.13569 0.0
C1448 C 0.19034 0.63036 0.16314 0.0
C1449 C 0.17394 0.62242 0.16176 0.0
C1450 C 0.1704 0.61242 0.1469 0.0
C1451 C 0.18291 0.61012 0.13404 0.0
H1452 H 0.40918 0.18162 0.123 0.0
H1453 H 0.37459 0.21575 0.15085 0.0
H1454 H 0.40491 0.1594 0.14465 0.0
H1455 H 0.36968 0.19301 0.17246 0.0
H1456 H 0.38652 0.15677 0.21828 0.0
H1457 H 0.38428 0.1789 0.19574 0.0
H1458 H 0.38618 0.1389 0.15649 0.0
H1459 H 0.38935 0.11704 0.17899 0.0
C1460 C 0.40035 0.18428 0.1336 0.0
C1461 C 0.39227 0.20052 0.13519 0.0
C1462 C 0.39777 0.17141 0.14603 0.0
C1463 C 0.38685 0.17427 0.16037 0.0
C1464 C 0.37832 0.19038 0.16171 0.0
C1465 C 0.38104 0.20338 0.14927 0.0
C1466 C 0.38614 0.15274 0.20483 0.0
C1467 C 0.38836 0.13522 0.20037 0.0
C1468 C 0.3848 0.16542 0.19187 0.0
C1469 C 0.3854 0.16079 0.1742 0.0
C1470 C 0.38623 0.14307 0.1699 0.0
C1471 C 0.3879 0.13048 0.1828 0.0
H1472 H 0.88656 0.82597 0.59809 0.0
H1473 H 0.85805 0.79153 0.63179 0.0
H1474 H 0.86498 0.84827 0.60241 0.0
H1475 H 0.83653 0.81433 0.63677 0.0
H1476 H 0.79118 0.85134 0.62075 0.0
H1477 H 0.81351 0.82895 0.6224 0.0
H1478 H 0.85312 0.86859 0.6213 0.0
H1479 H 0.83083 0.89074 0.61873 0.0
C1480 C 0.87582 0.82326 0.60673 0.0
C1481 C 0.87405 0.80691 0.61456 0.0
C1482 C 0.86343 0.83617 0.60934 0.0
C1483 C 0.84894 0.83325 0.62004 0.0
C1484 C 0.84739 0.81702 0.62829 0.0
C1485 C 0.85979 0.80398 0.62554 0.0
C1486 C 0.80467 0.85524 0.62117 0.0
C1487 C 0.80927 0.87276 0.61939 0.0
C1488 C 0.81751 0.8424 0.62217 0.0
C1489 C 0.83522 0.84686 0.62165 0.0
C1490 C 0.83968 0.86455 0.62118 0.0
C1491 C 0.82689 0.87731 0.61986 0.0
H1492 H 0.85371 0.21803 0.38844 0.0
H1493 H 0.89268 0.1784 0.3948 0.0
H1494 H 0.83129 0.19571 0.38672 0.0
H1495 H 0.87056 0.15609 0.39223 0.0
H1496 H 0.82646 0.12419 0.41477 0.0
H1497 H 0.84904 0.14555 0.41073 0.0
H1498 H 0.81756 0.17183 0.37252 0.0
H1499 H 0.79446 0.15054 0.37713 0.0
C1500 C 0.85753 0.20453 0.38899 0.0
C1501 C 0.87491 0.19996 0.39199 0.0
C1502 C 0.84468 0.19169 0.38795 0.0
C1503 C 0.84901 0.17403 0.38967 0.0
C1504 C 0.86662 0.16954 0.39139 0.0
C1505 C 0.87936 0.18233 0.39272 0.0
C1506 C 0.82435 0.1344 0.40536 0.0
C1507 C 0.8086 0.13564 0.3963 0.0
C1508 C 0.83743 0.14665 0.40292 0.0
C1509 C 0.83527 0.16046 0.3912 0.0
C1510 C 0.81964 0.16149 0.38179 0.0
C1511 C 0.80644 0.14923 0.38433 0.0
H1512 H 0.78961 0.85194 0.38866 0.0
H1513 H 0.82862 0.89175 0.39337 0.0
H1514 H 0.81231 0.83003 0.38585 0.0
H1515 H 0.85128 0.87013 0.38969 0.0
H1516 H 0.8847 0.82665 0.4115 0.0
H1517 H 0.86298 0.84893 0.40784 0.0
H1518 H 0.83589 0.81667 0.37087 0.0
H1519 H 0.85756 0.79386 0.37512 0.0
C1520 C 0.80304 0.85606 0.38858 0.0
C1521 C 0.80736 0.87351 0.39148 0.0
C1522 C 0.81608 0.8435 0.38691 0.0
C1523 C 0.83371 0.8482 0.38788 0.0
C1524 C 0.8379 0.8659 0.38942 0.0
C1525 C 0.8249 0.87835 0.39139 0.0
C1526 C 0.87424 0.82431 0.40243 0.0
C1527 C 0.87287 0.80841 0.39365 0.0
C1528 C 0.86178 0.83722 0.4002 0.0
C1529 C 0.84761 0.83474 0.38898 0.0
C1530 C 0.84649 0.819 0.37976 0.0
C1531 C 0.85898 0.80596 0.3821 0.0
H1532 H 0.12227 0.82837 0.41077 0.0
H1533 H 0.15057 0.79359 0.37723 0.0
H1534 H 0.14423 0.85034 0.40676 0.0
H1535 H 0.17247 0.81607 0.37252 0.0
H1536 H 0.21833 0.85206 0.38913 0.0
H1537 H 0.19558 0.83015 0.38703 0.0
H1538 H 0.15676 0.87058 0.38839 0.0
H1539 H 0.17948 0.89223 0.39146 0.0
C1540 C 0.13304 0.82552 0.40222 0.0
C1541 C 0.13465 0.80917 0.39436 0.0
C1542 C 0.14566 0.83824 0.39978 0.0
C1543 C 0.16022 0.83513 0.38922 0.0
C1544 C 0.16158 0.81891 0.38091 0.0
C1545 C 0.14896 0.80605 0.3835 0.0
C1546 C 0.20493 0.85623 0.38868 0.0
C1547 C 0.20067 0.87382 0.39069 0.0
C1548 C 0.19184 0.84367 0.38742 0.0
C1549 C 0.17422 0.84849 0.38788 0.0
C1550 C 0.17012 0.86627 0.38856 0.0
C1551 C 0.18315 0.87874 0.39016 0.0
H1552 H 0.22274 0.15776 0.39053 0.0
H1553 H 0.18443 0.11708 0.39283 0.0
H1554 H 0.19972 0.17929 0.38752 0.0
H1555 H 0.16147 0.13832 0.38884 0.0
H1556 H 0.12588 0.18042 0.40965 0.0
H1557 H 0.14825 0.15872 0.40653 0.0
H1558 H 0.17673 0.19276 0.37228 0.0
H1559 H 0.15441 0.215 0.37611 0.0
C1560 C 0.20941 0.15338 0.38988 0.0
C1561 C 0.20536 0.13578 0.39214 0.0
C1562 C 0.19617 0.16572 0.38809 0.0
C1563 C 0.17861 0.16066 0.38827 0.0
C1564 C 0.17476 0.14284 0.38921 0.0
C1565 C 0.18793 0.1306 0.39133 0.0
C1566 C 0.1368 0.18328 0.40129 0.0
C1567 C 0.13834 0.1995 0.39317 0.0
C1568 C 0.14965 0.1707 0.39936 0.0
C1569 C 0.16439 0.17383 0.38907 0.0
C1570 C 0.1657 0.18991 0.38049 0.0
C1571 C 0.15284 0.20263 0.38257 0.0
H1572 H 0.21257 0.15185 0.635 0.0
H1573 H 0.17777 0.12485 0.60044 0.0
H1574 H 0.19078 0.17458 0.63906 0.0
H1575 H 0.15652 0.14761 0.60382 0.0
H1576 H 0.11556 0.18437 0.61776 0.0
H1577 H 0.13623 0.16089 0.62168 0.0
H1578 H 0.17803 0.19818 0.62398 0.0
H1579 H 0.15706 0.22171 0.62102 0.0
C1580 C 0.20025 0.1507 0.62837 0.0
C1581 C 0.19693 0.13652 0.61741 0.0
C1582 C 0.18779 0.16379 0.63059 0.0
C1583 C 0.17179 0.16302 0.6218 0.0
C1584 C 0.16845 0.14859 0.61115 0.0
C1585 C 0.18076 0.13551 0.60908 0.0
C1586 C 0.12913 0.18755 0.61947 0.0
C1587 C 0.13471 0.20485 0.61893 0.0
C1588 C 0.14105 0.17407 0.62155 0.0
C1589 C 0.15894 0.17752 0.62273 0.0
C1590 C 0.1644 0.19495 0.62321 0.0
C1591 C 0.15238 0.20848 0.62147 0.0
H1592 H 0.82897 0.12522 0.59626 0.0
H1593 H 0.79561 0.15169 0.63263 0.0
H1594 H 0.85064 0.14759 0.59962 0.0
H1595 H 0.81783 0.174 0.63664 0.0
H1596 H 0.85213 0.22105 0.61965 0.0
H1597 H 0.8307 0.19786 0.62206 0.0
H1598 H 0.87163 0.15983 0.61741 0.0
H1599 H 0.89274 0.183 0.61407 0.0
C1600 C 0.82638 0.13568 0.60527 0.0
C1601 C 0.81051 0.13665 0.61415 0.0
C1602 C 0.83894 0.14853 0.60732 0.0
C1603 C 0.83614 0.16268 0.6185 0.0
C1604 C 0.82041 0.16343 0.62777 0.0
C1605 C 0.8077 0.15058 0.62557 0.0
C1606 C 0.85652 0.20772 0.61944 0.0
C1607 C 0.87406 0.20382 0.61645 0.0
C1608 C 0.84424 0.19438 0.62088 0.0
C1609 C 0.84931 0.17687 0.6196 0.0
C1610 C 0.8671 0.1731 0.6179 0.0
C1611 C 0.87927 0.18639 0.61614 0.0
H1612 H 0.18191 0.88491 0.59752 0.0
H1613 H 0.21536 0.8583 0.63368 0.0
H1614 H 0.15989 0.86302 0.60154 0.0
H1615 H 0.19277 0.83649 0.63838 0.0
H1616 H 0.1576 0.7898 0.62205 0.0
H1617 H 0.17936 0.81269 0.62425 0.0
H1618 H 0.13894 0.85128 0.61965 0.0
H1619 H 0.11751 0.82838 0.61646 0.0
C1620 C 0.18444 0.87453 0.60664 0.0
C1621 C 0.20045 0.87336 0.61524 0.0
C1622 C 0.17168 0.86197 0.60908 0.0
C1623 C 0.17439 0.84791 0.62039 0.0
C1624 C 0.19025 0.84699 0.62942 0.0
C1625 C 0.20317 0.85956 0.62683 0.0
C1626 C 0.1534 0.80319 0.62182 0.0
C1627 C 0.13591 0.80732 0.61886 0.0
C1628 C 0.16586 0.81636 0.62313 0.0
C1629 C 0.16103 0.83393 0.62178 0.0
C1630 C 0.14329 0.83794 0.62018 0.0
C1631 C 0.13094 0.82482 0.61852 0.0
H1632 H 0.1081 0.23095 0.46237 0.0
H1633 H 0.12427 0.2844 0.45814 0.0
H1634 H 0.11035 0.23261 0.4936 0.0
H1635 H 0.12731 0.28589 0.48966 0.0
H1636 H 0.10845 0.28748 0.5468 0.0
H1637 H 0.11058 0.28701 0.51527 0.0
H1638 H 0.12878 0.23402 0.51742 0.0
H1639 H 0.12575 0.2343 0.54881 0.0
C1640 C 0.11244 0.24301 0.46809 0.0
C1641 C 0.11595 0.25756 0.4577 0.0
C1642 C 0.11388 0.24393 0.48611 0.0
C1643 C 0.11911 0.25937 0.49431 0.0
C1644 C 0.12302 0.27384 0.48387 0.0
C1645 C 0.12139 0.27297 0.46578 0.0
C1646 C 0.1131 0.27581 0.54052 0.0
C1647 C 0.11673 0.26086 0.55028 0.0
C1648 C 0.11441 0.27555 0.5224 0.0
C1649 C 0.11962 0.26039 0.51365 0.0
C1650 C 0.12423 0.24578 0.52359 0.0
C1651 C 0.12262 0.24596 0.54164 0.0
H1652 H 0.72146 0.11554 0.55158 0.0
H1653 H 0.77703 0.11078 0.54624 0.0
H1654 H 0.71884 0.11881 0.52012 0.0
H1655 H 0.7744 0.11339 0.51513 0.0
H1656 H 0.76915 0.13011 0.46092 0.0
H1657 H 0.76851 0.1326 0.49234 0.0
H1658 H 0.72132 0.10241 0.49378 0.0
H1659 H 0.72159 0.10065 0.46213 0.0
C1660 C 0.73311 0.11524 0.54374 0.0
C1661 C 0.74946 0.11292 0.55149 0.0
C1662 C 0.7316 0.11702 0.52568 0.0
C1663 C 0.7464 0.11647 0.515 0.0
C1664 C 0.76271 0.11431 0.52286 0.0
C1665 C 0.76422 0.11265 0.5408 0.0
C1666 C 0.75849 0.12424 0.46793 0.0
C1667 C 0.74553 0.11502 0.45907 0.0
C1668 C 0.75817 0.12554 0.48598 0.0
C1669 C 0.74508 0.11736 0.49571 0.0
C1670 C 0.73157 0.10894 0.48676 0.0
C1671 C 0.73174 0.10788 0.46861 0.0
H1672 H 0.87913 0.77044 0.45869 0.0
H1673 H 0.90537 0.72102 0.45956 0.0
H1674 H 0.87627 0.76959 0.49007 0.0
H1675 H 0.90321 0.72047 0.49117 0.0
H1676 H 0.88944 0.72036 0.54859 0.0
H1677 H 0.88615 0.71866 0.5171 0.0
H1678 H 0.89544 0.77378 0.51335 0.0
H1679 H 0.89809 0.77556 0.54456 0.0
C1680 C 0.88421 0.75933 0.46561 0.0
C1681 C 0.89264 0.74589 0.45666 0.0
C1682 C 0.88269 0.75889 0.48364 0.0
C1683 C 0.88983 0.74514 0.49327 0.0
C1684 C 0.89746 0.73123 0.48423 0.0
C1685 C 0.89876 0.73155 0.46609 0.0
C1686 C 0.89055 0.73214 0.54103 0.0
C1687 C 0.89403 0.7481 0.54915 0.0
C1688 C 0.88878 0.73114 0.52295 0.0
C1689 C 0.89049 0.74608 0.5126 0.0
C1690 C 0.89367 0.76204 0.52083 0.0
C1691 C 0.89533 0.76305 0.53882 0.0
H1692 H 0.28403 0.88827 0.45804 0.0
H1693 H 0.22973 0.90132 0.46246 0.0
H1694 H 0.28575 0.88511 0.48953 0.0
H1695 H 0.23156 0.89883 0.49368 0.0
H1696 H 0.23427 0.88253 0.54856 0.0
H1697 H 0.23436 0.87971 0.51715 0.0
H1698 H 0.28563 0.90228 0.51528 0.0
H1699 H 0.28579 0.90435 0.54686 0.0
C1700 C 0.27246 0.89041 0.4657 0.0
C1701 C 0.25674 0.89505 0.45768 0.0
C1702 C 0.27346 0.88871 0.48377 0.0
C1703 C 0.2588 0.89169 0.49424 0.0
C1704 C 0.24306 0.89606 0.48612 0.0
C1705 C 0.24203 0.89763 0.46813 0.0
C1706 C 0.24566 0.88667 0.54145 0.0
C1707 C 0.25995 0.89382 0.55018 0.0
C1708 C 0.24568 0.88517 0.52341 0.0
C1709 C 0.25986 0.89107 0.51356 0.0
C1710 C 0.27451 0.89748 0.52238 0.0
C1711 C 0.27459 0.89875 0.54051 0.0
H1712 H 0.10409 0.72311 0.54941 0.0
H1713 H 0.12726 0.77403 0.5507 0.0
H1714 H 0.10626 0.72293 0.51782 0.0
H1715 H 0.13019 0.77358 0.51931 0.0
H1716 H 0.1203 0.72373 0.46054 0.0
H1717 H 0.12341 0.72215 0.49206 0.0
H1718 H 0.11125 0.77672 0.4958 0.0
H1719 H 0.10883 0.77841 0.46458 0.0
C1720 C 0.11001 0.73409 0.54296 0.0
C1721 C 0.11528 0.74868 0.55252 0.0
C1722 C 0.11133 0.73397 0.52484 0.0
C1723 C 0.11816 0.74837 0.5159 0.0
C1724 C 0.1244 0.76247 0.52565 0.0
C1725 C 0.12283 0.7627 0.54368 0.0
C1726 C 0.11852 0.73542 0.46812 0.0
C1727 C 0.11431 0.75119 0.45999 0.0
C1728 C 0.12018 0.73449 0.48621 0.0
C1729 C 0.11761 0.7493 0.49657 0.0
C1730 C 0.1137 0.7651 0.48833 0.0
C1731 C 0.11217 0.76604 0.47033 0.0
H1732 H 0.23437 0.12567 0.46233 0.0
H1733 H 0.28672 0.10603 0.46443 0.0
H1734 H 0.23398 0.12822 0.49376 0.0
H1735 H 0.28609 0.10763 0.496 0.0
H1736 H 0.28336 0.12023 0.5535 0.0
H1737 H 0.28547 0.12369 0.52204 0.0
H1738 H 0.23146 0.10948 0.51711 0.0
H1739 H 0.22923 0.10686 0.54824 0.0
C1740 C 0.24582 0.12192 0.46954 0.0
C1741 C 0.26051 0.11551 0.46092 0.0
C1742 C 0.24557 0.12324 0.48761 0.0
C1743 C 0.25988 0.1178 0.49758 0.0
C1744 C 0.27487 0.11208 0.48885 0.0
C1745 C 0.27522 0.11108 0.47071 0.0
C1746 C 0.27193 0.11804 0.54566 0.0
C1747 C 0.25613 0.11331 0.55343 0.0
C1748 C 0.27314 0.11992 0.5276 0.0
C1749 C 0.25862 0.11693 0.5169 0.0
C1750 C 0.24285 0.11233 0.52481 0.0
C1751 C 0.24159 0.11067 0.54277 0.0
H1752 H 0.88347 0.23619 0.54762 0.0
H1753 H 0.90574 0.2875 0.54656 0.0
H1754 H 0.88169 0.23621 0.51615 0.0
H1755 H 0.90479 0.28726 0.51491 0.0
H1756 H 0.89264 0.28538 0.45704 0.0
H1757 H 0.88888 0.28747 0.48847 0.0
H1758 H 0.90135 0.23305 0.49336 0.0
H1759 H 0.90437 0.23086 0.46223 0.0
C1760 C 0.88794 0.24752 0.54063 0.0
C1761 C 0.89489 0.26177 0.54957 0.0
C1762 C 0.88706 0.2475 0.52255 0.0
C1763 C 0.89344 0.26159 0.51286 0.0
C1764 C 0.89965 0.27621 0.52186 0.0
C1765 C 0.90026 0.27635 0.54003 0.0
C1766 C 0.89441 0.27385 0.46486 0.0
C1767 C 0.89877 0.25795 0.45707 0.0
C1768 C 0.89235 0.27506 0.4829 0.0
C1769 C 0.89472 0.26042 0.49356 0.0
C1770 C 0.89899 0.24455 0.48566 0.0
C1771 C 0.90088 0.24331 0.46771 0.0
H1772 H 0.72531 0.902 0.46321 0.0
H1773 H 0.77862 0.88499 0.46185 0.0
H1774 H 0.72554 0.90032 0.49477 0.0
H1775 H 0.77867 0.88248 0.49329 0.0
H1776 H 0.781 0.90405 0.54812 0.0
H1777 H 0.77967 0.90142 0.51688 0.0
H1778 H 0.72663 0.88368 0.52053 0.0
H1779 H 0.72777 0.88705 0.55201 0.0
C1780 C 0.73696 0.89752 0.46964 0.0
C1781 C 0.75201 0.89383 0.46004 0.0
C1782 C 0.73709 0.89647 0.48777 0.0
C1783 C 0.75221 0.89149 0.49671 0.0
C1784 C 0.76693 0.88684 0.48695 0.0
C1785 C 0.76688 0.88815 0.46888 0.0
C1786 C 0.76906 0.89946 0.54233 0.0
C1787 C 0.75447 0.89581 0.55263 0.0
C1788 C 0.76833 0.89781 0.52432 0.0
C1789 C 0.75305 0.89226 0.51604 0.0
C1790 C 0.73855 0.88822 0.52639 0.0
C1791 C 0.73923 0.89004 0.54446 0.0
H1792 H 0.45535 0.1198 0.28402 0.0
H1793 H 0.46025 0.10645 0.22982 0.0
H1794 H 0.48676 0.12362 0.28583 0.0
H1795 H 0.4914 0.10954 0.23175 0.0
H1796 H 0.54591 0.12685 0.23438 0.0
H1797 H 0.51445 0.129 0.23433 0.0
H1798 H 0.51291 0.1074 0.28604 0.0
H1799 H 0.54451 0.10608 0.28634 0.0
C1800 C 0.46311 0.1177 0.27249 0.0
C1801 C 0.45525 0.11283 0.25677 0.0
C1802 C 0.48113 0.11979 0.27355 0.0
C1803 C 0.49172 0.11694 0.25893 0.0
C1804 C 0.48375 0.11225 0.24321 0.0
C1805 C 0.4658 0.11033 0.24212 0.0
C1806 C 0.53885 0.1228 0.24584 0.0
C1807 C 0.54768 0.11615 0.2603 0.0
C1808 C 0.52078 0.1239 0.24577 0.0
C1809 C 0.51102 0.11805 0.26004 0.0
C1810 C 0.51993 0.11215 0.27485 0.0
C1811 C 0.53807 0.11133 0.27502 0.0
H1812 H 0.90314 0.54558 0.22798 0.0
H1813 H 0.88889 0.54976 0.28201 0.0
H1814 H 0.90088 0.51434 0.22969 0.0
H1815 H 0.88594 0.51825 0.28359 0.0
H1816 H 0.88463 0.45942 0.23182 0.0
H1817 H 0.88186 0.49082 0.23192 0.0
H1818 H 0.903 0.4925 0.28381 0.0
H1819 H 0.905 0.46092 0.28394 0.0
C1820 C 0.89924 0.53985 0.24019 0.0
C1821 C 0.89623 0.55024 0.25487 0.0
C1822 C 0.8978 0.52185 0.24115 0.0
C1823 C 0.89312 0.51365 0.25676 0.0
C1824 C 0.88977 0.52406 0.27139 0.0
C1825 C 0.89135 0.54214 0.27047 0.0
C1826 C 0.88847 0.46648 0.24334 0.0
C1827 C 0.89518 0.4577 0.25781 0.0
C1828 C 0.887 0.48453 0.24336 0.0
C1829 C 0.89251 0.49432 0.25774 0.0
C1830 C 0.8985 0.48545 0.27254 0.0
C1831 C 0.89972 0.46732 0.27261 0.0
H1832 H 0.54924 0.90676 0.28721 0.0
H1833 H 0.54964 0.88246 0.23677 0.0
H1834 H 0.51767 0.90458 0.288 0.0
H1835 H 0.51828 0.87954 0.23785 0.0
H1836 H 0.46347 0.90049 0.23346 0.0
H1837 H 0.49472 0.89842 0.23472 0.0
H1838 H 0.49193 0.8874 0.28961 0.0
H1839 H 0.46036 0.89015 0.28844 0.0
C1840 C 0.54261 0.9006 0.27647 0.0
C1841 C 0.55191 0.895 0.26182 0.0
C1842 C 0.52449 0.89928 0.27694 0.0
C1843 C 0.51531 0.89213 0.26286 0.0
C1844 C 0.52481 0.88558 0.24871 0.0
C1845 C 0.54283 0.88714 0.24813 0.0
C1846 C 0.46943 0.89749 0.24582 0.0
C1847 C 0.45933 0.89552 0.26086 0.0
C1848 C 0.48745 0.89616 0.24652 0.0
C1849 C 0.49597 0.89263 0.26226 0.0
C1850 C 0.48586 0.89032 0.27729 0.0
C1851 C 0.46774 0.89178 0.27661 0.0
H1852 H 0.12358 0.55201 0.28519 0.0
H1853 H 0.1076 0.54802 0.23164 0.0
H1854 H 0.12735 0.52058 0.28633 0.0
H1855 H 0.11066 0.51682 0.23295 0.0
H1856 H 0.1276 0.46201 0.2342 0.0
H1857 H 0.12992 0.49346 0.23432 0.0
H1858 H 0.11088 0.49464 0.28704 0.0
H1859 H 0.10935 0.46307 0.28713 0.0
C1860 C 0.12091 0.54445 0.27365 0.0
C1861 C 0.11528 0.55257 0.25832 0.0
C1862 C 0.12296 0.5264 0.27433 0.0
C1863 C 0.11933 0.51605 0.25974 0.0
C1864 C 0.11395 0.52428 0.24437 0.0
C1865 C 0.11206 0.54227 0.24364 0.0
C1866 C 0.12415 0.46898 0.2459 0.0
C1867 C 0.11815 0.46005 0.2606 0.0
C1868 C 0.12535 0.48705 0.24594 0.0
C1869 C 0.12028 0.49672 0.26057 0.0
C1870 C 0.11504 0.4877 0.27557 0.0
C1871 C 0.11409 0.46956 0.27561 0.0
H1872 H 0.46078 0.88278 0.77537 0.0
H1873 H 0.46163 0.90174 0.7227 0.0
H1874 H 0.49216 0.87978 0.77486 0.0
H1875 H 0.49318 0.89956 0.72241 0.0
H1876 H 0.55036 0.88581 0.7235 0.0
H1877 H 0.51884 0.88256 0.7226 0.0
H1878 H 0.51585 0.89856 0.77626 0.0
H1879 H 0.54708 0.90108 0.77732 0.0
C1880 C 0.46769 0.88627 0.76365 0.0
C1881 C 0.45874 0.89265 0.74914 0.0
C1882 C 0.48573 0.88467 0.76338 0.0
C1883 C 0.49534 0.88973 0.7487 0.0
C1884 C 0.48628 0.8954 0.7339 0.0
C1885 C 0.46816 0.89673 0.73408 0.0
C1886 C 0.54294 0.88841 0.73515 0.0
C1887 C 0.55128 0.89371 0.75047 0.0
C1888 C 0.52485 0.88666 0.73461 0.0
C1889 C 0.51469 0.89028 0.74935 0.0
C1890 C 0.52315 0.89529 0.76472 0.0
C1891 C 0.54116 0.89688 0.7653 0.0
H1892 H 0.10565 0.46187 0.78083 0.0
H1893 H 0.11835 0.45807 0.72639 0.0
H1894 H 0.10831 0.49308 0.77939 0.0
H1895 H 0.12172 0.48955 0.72507 0.0
H1896 H 0.10421 0.54734 0.72592 0.0
H1897 H 0.10537 0.51572 0.72561 0.0
H1898 H 0.12775 0.51619 0.77701 0.0
H1899 H 0.1258 0.54764 0.77756 0.0
C1900 C 0.10928 0.46767 0.76857 0.0
C1901 C 0.11177 0.4574 0.75372 0.0
C1902 C 0.11095 0.48566 0.76776 0.0
C1903 C 0.11537 0.49396 0.75213 0.0
C1904 C 0.11812 0.48367 0.73729 0.0
C1905 C 0.11629 0.46559 0.73806 0.0
C1906 C 0.10957 0.54066 0.73705 0.0
C1907 C 0.11471 0.54997 0.75185 0.0
C1908 C 0.1103 0.52251 0.73686 0.0
C1909 C 0.1164 0.51329 0.7514 0.0
C1910 C 0.12249 0.52275 0.76577 0.0
C1911 C 0.1215 0.54083 0.76605 0.0
H1912 H 0.45917 0.12305 0.72466 0.0
H1913 H 0.46229 0.10606 0.77796 0.0
H1914 H 0.49069 0.12624 0.7239 0.0
H1915 H 0.49355 0.10858 0.77702 0.0
H1916 H 0.54858 0.12487 0.77662 0.0
H1917 H 0.51718 0.12764 0.77617 0.0
H1918 H 0.51634 0.10907 0.72327 0.0
H1919 H 0.54791 0.10706 0.72354 0.0
C1920 C 0.46655 0.12005 0.73622 0.0
C1921 C 0.45816 0.1143 0.75136 0.0
C1922 C 0.48464 0.12177 0.73576 0.0
C1923 C 0.49476 0.11768 0.75039 0.0
C1924 C 0.48627 0.1122 0.76558 0.0
C1925 C 0.46825 0.11063 0.76609 0.0
C1926 C 0.5417 0.12158 0.76482 0.0
C1927 C 0.55072 0.11558 0.75017 0.0
C1928 C 0.52366 0.12306 0.76458 0.0
C1929 C 0.5141 0.11829 0.74979 0.0
C1930 C 0.52321 0.113 0.73486 0.0
C1931 C 0.54134 0.11177 0.73503 0.0
H1932 H 0.88605 0.54898 0.77796 0.0
H1933 H 0.90334 0.54769 0.72472 0.0
H1934 H 0.88331 0.51757 0.77789 0.0
H1935 H 0.90139 0.51615 0.72483 0.0
H1936 H 0.8871 0.45915 0.72663 0.0
H1937 H 0.8843 0.49068 0.72568 0.0
H1938 H 0.90188 0.49366 0.77883 0.0
H1939 H 0.90396 0.46236 0.77996 0.0
C1940 C 0.88924 0.54197 0.76621 0.0
C1941 C 0.89504 0.55083 0.75139 0.0
C1942 C 0.88779 0.52391 0.76619 0.0
C1943 C 0.8924 0.51418 0.75145 0.0
C1944 C 0.89757 0.52314 0.73639 0.0
C1945 C 0.89876 0.54126 0.73633 0.0
C1946 C 0.89019 0.46656 0.73815 0.0
C1947 C 0.89575 0.45819 0.75337 0.0
C1948 C 0.88869 0.48467 0.73758 0.0
C1949 C 0.89286 0.49483 0.75217 0.0
C1950 C 0.8982 0.48636 0.76742 0.0
C1951 C 0.89952 0.46832 0.76804 0.0
H1952 H 0.28138 0.5501 0.12623 0.0
H1953 H 0.22875 0.5463 0.10746 0.0
H1954 H 0.28232 0.51865 0.12977 0.0
H1955 H 0.2299 0.51509 0.11023 0.0
H1956 H 0.23041 0.45995 0.12591 0.0
H1957 H 0.23026 0.49135 0.12891 0.0
H1958 H 0.284 0.49305 0.113 0.0
H1959 H 0.28431 0.46155 0.11087 0.0
C1960 C 0.27001 0.54258 0.12291 0.0
C1961 C 0.255 0.55075 0.11655 0.0
C1962 C 0.27057 0.52452 0.12482 0.0
C1963 C 0.25619 0.51421 0.12028 0.0
C1964 C 0.24112 0.52251 0.11423 0.0
C1965 C 0.2405 0.5405 0.1125 0.0
C1966 C 0.24226 0.46703 0.12329 0.0
C1967 C 0.25733 0.45828 0.11801 0.0
C1968 C 0.24216 0.48507 0.12488 0.0
C1969 C 0.25703 0.49488 0.12091 0.0
C1970 C 0.27233 0.48601 0.11634 0.0
C1971 C 0.2725 0.46791 0.11503 0.0
H1972 H 0.23982 0.54929 0.87955 0.0
H1973 H 0.2893 0.54796 0.90566 0.0
H1974 H 0.24038 0.5179 0.87672 0.0
H1975 H 0.28953 0.51637 0.90362 0.0
H1976 H 0.28882 0.45879 0.89071 0.0
H1977 H 0.29101 0.49022 0.88707 0.0
H1978 H 0.23586 0.49487 0.89592 0.0
H1979 H 0.23361 0.46377 0.89886 0.0
C1980 C 0.25088 0.54226 0.88461 0.0
C1981 C 0.26442 0.55107 0.893 0.0
C1982 C 0.25116 0.52423 0.88311 0.0
C1983 C 0.26481 0.51448 0.89028 0.0
C1984 C 0.27883 0.52339 0.89785 0.0
C1985 C 0.27869 0.54152 0.89909 0.0
C1986 C 0.27715 0.46655 0.89165 0.0
C1987 C 0.26104 0.45871 0.89508 0.0
C1988 C 0.27842 0.48458 0.88967 0.0
C1989 C 0.26362 0.49518 0.89114 0.0
C1990 C 0.24752 0.48722 0.8943 0.0
C1991 C 0.24624 0.46928 0.89614 0.0
H1992 H 0.46397 0.23186 0.89747 0.0
H1993 H 0.45863 0.2875 0.89375 0.0
H1994 H 0.49506 0.23454 0.89489 0.0
H1995 H 0.49009 0.29018 0.8905 0.0
H1996 H 0.54805 0.28714 0.90863 0.0
H1997 H 0.51641 0.28744 0.90683 0.0
H1998 H 0.5179 0.24073 0.87589 0.0
H1999 H 0.54931 0.24004 0.87844 0.0
C2000 C 0.4694 0.2447 0.89582 0.0
C2001 C 0.45872 0.25946 0.89585 0.0
C2002 C 0.48733 0.24624 0.89419 0.0
C2003 C 0.4952 0.26258 0.89234 0.0
C2004 C 0.48452 0.27739 0.89205 0.0
C2005 C 0.46647 0.27585 0.89381 0.0
C2006 C 0.54158 0.27711 0.90123 0.0
C2007 C 0.55113 0.26343 0.89389 0.0
C2008 C 0.52343 0.27729 0.90014 0.0
C2009 C 0.5145 0.26392 0.89149 0.0
C2010 C 0.52424 0.25095 0.88312 0.0
C2011 C 0.54229 0.25061 0.88446 0.0
H2012 H 0.77463 0.55022 0.88013 0.0
H2013 H 0.72335 0.54922 0.90255 0.0
H2014 H 0.77414 0.51882 0.87737 0.0
H2015 H 0.72311 0.51764 0.90055 0.0
H2016 H 0.72416 0.46024 0.88759 0.0
H2017 H 0.72265 0.49166 0.88372 0.0
H2018 H 0.77698 0.49568 0.89689 0.0
H2019 H 0.7786 0.46453 0.9001 0.0
C2020 C 0.76319 0.54327 0.88439 0.0
C2021 C 0.74911 0.55218 0.89173 0.0
C2022 C 0.76295 0.52524 0.88292 0.0
C2023 C 0.74873 0.51559 0.88907 0.0
C2024 C 0.73424 0.5246 0.89558 0.0
C2025 C 0.73439 0.54272 0.89679 0.0
C2026 C 0.73581 0.46785 0.88944 0.0
C2027 C 0.7515 0.45983 0.89418 0.0
C2028 C 0.73493 0.48588 0.88733 0.0
C2029 C 0.74969 0.49629 0.88997 0.0
C2030 C 0.7654 0.48815 0.89438 0.0
C2031 C 0.76631 0.47021 0.89637 0.0
H2032 H 0.45951 0.7272 0.88822 0.0
H2033 H 0.46339 0.78099 0.90335 0.0
H2034 H 0.49097 0.72602 0.88461 0.0
H2035 H 0.49459 0.77966 0.90049 0.0
H2036 H 0.54939 0.77832 0.88364 0.0
H2037 H 0.51794 0.77809 0.88132 0.0
H2038 H 0.51691 0.72565 0.90109 0.0
H2039 H 0.54848 0.72566 0.90257 0.0
C2040 C 0.46705 0.73877 0.89075 0.0
C2041 C 0.45889 0.75419 0.89607 0.0
C2042 C 0.48511 0.73808 0.88879 0.0
C2043 C 0.49543 0.75275 0.89222 0.0
C2044 C 0.48715 0.76818 0.89733 0.0
C2045 C 0.46917 0.76892 0.89912 0.0
C2046 C 0.54245 0.76666 0.88727 0.0
C2047 C 0.55141 0.75207 0.89344 0.0
C2048 C 0.52438 0.76655 0.88607 0.0
C2049 C 0.51475 0.75196 0.89131 0.0
C2050 C 0.52381 0.73708 0.89678 0.0
C2051 C 0.54194 0.7371 0.89772 0.0
H2052 H 0.72141 0.54907 0.12163 0.0
H2053 H 0.77628 0.54501 0.11104 0.0
H2054 H 0.71993 0.51765 0.12552 0.0
H2055 H 0.7747 0.51387 0.11425 0.0
H2056 H 0.77217 0.45935 0.13088 0.0
H2057 H 0.77134 0.49074 0.13365 0.0
H2058 H 0.7211 0.49158 0.10884 0.0
H2059 H 0.72164 0.46 0.10683 0.0
C2060 C 0.73316 0.54152 0.12021 0.0
C2061 C 0.74896 0.54961 0.11601 0.0
C2062 C 0.73229 0.52348 0.12233 0.0
C2063 C 0.74719 0.51313 0.12023 0.0
C2064 C 0.763 0.52134 0.11635 0.0
C2065 C 0.76389 0.53929 0.11436 0.0
C2066 C 0.76082 0.46622 0.12627 0.0
C2067 C 0.74705 0.45722 0.11847 0.0
C2068 C 0.76039 0.48426 0.12774 0.0
C2069 C 0.74632 0.49382 0.12114 0.0
C2070 C 0.73211 0.48471 0.11417 0.0
C2071 C 0.73243 0.46658 0.11295 0.0
H2072 H 0.54529 0.77695 0.10903 0.0
H2073 H 0.54982 0.72142 0.11486 0.0
H2074 H 0.51417 0.77484 0.11171 0.0
H2075 H 0.51833 0.71934 0.11826 0.0
H2076 H 0.46029 0.72225 0.10083 0.0
H2077 H 0.49194 0.72173 0.10217 0.0
H2078 H 0.49131 0.76985 0.13092 0.0
H2079 H 0.45988 0.77072 0.1288 0.0
C2080 C 0.53968 0.76426 0.11117 0.0
C2081 C 0.55014 0.74935 0.11172 0.0
C2082 C 0.52172 0.76306 0.11286 0.0
C2083 C 0.51361 0.74692 0.11537 0.0
C2084 C 0.52408 0.73197 0.11619 0.0
C2085 C 0.54215 0.73317 0.11435 0.0
C2086 C 0.46695 0.73257 0.10762 0.0
C2087 C 0.45762 0.74665 0.11449 0.0
C2088 C 0.48511 0.73226 0.10846 0.0
C2089 C 0.49429 0.74592 0.11639 0.0
C2090 C 0.48478 0.75937 0.12424 0.0
C2091 C 0.46672 0.75982 0.12314 0.0
H2092 H 0.54541 0.22955 0.10709 0.0
H2093 H 0.54994 0.28381 0.12026 0.0
H2094 H 0.5142 0.23142 0.10981 0.0
H2095 H 0.51849 0.28555 0.12365 0.0
H2096 H 0.46108 0.2858 0.10486 0.0
H2097 H 0.49266 0.28555 0.1067 0.0
H2098 H 0.49084 0.2342 0.12908 0.0
H2099 H 0.45942 0.23421 0.12649 0.0
C2100 C 0.53977 0.24185 0.11085 0.0
C2101 C 0.55024 0.25654 0.1134 0.0
C2102 C 0.52179 0.2429 0.11255 0.0
C2103 C 0.51371 0.25863 0.11703 0.0
C2104 C 0.52421 0.27327 0.11998 0.0
C2105 C 0.54226 0.27225 0.11814 0.0
C2106 C 0.46744 0.27457 0.11039 0.0
C2107 C 0.45777 0.25994 0.11531 0.0
C2108 C 0.48557 0.27444 0.11151 0.0
C2109 C 0.4944 0.25974 0.11779 0.0
C2110 C 0.48457 0.24556 0.12371 0.0
C2111 C 0.46652 0.2456 0.12235 0.0
H2112 H 0.60425 0.78768 0.04694 0.0
H2113 H 0.62898 0.73749 0.04799 0.0
H2114 H 0.60671 0.78823 0.01539 0.0
H2115 H 0.63225 0.73835 0.01663 0.0
H2116 H 0.61091 0.733 0.96201 0.0
H2117 H 0.61346 0.73469 0.99318 0.0
H2118 H 0.62363 0.78968 0.98955 0.0
H2119 H 0.62036 0.78807 0.95803 0.0
C2120 C 0.6106 0.77696 0.04045 0.0
C2121 C 0.61619 0.76242 0.04991 0.0
C2122 C 0.61209 0.77729 0.02234 0.0
C2123 C 0.61942 0.76319 0.01334 0.0
C2124 C 0.62606 0.74922 0.02302 0.0
C2125 C 0.6243 0.74876 0.04103 0.0
C2126 C 0.61384 0.74547 0.96776 0.0
C2127 C 0.61537 0.76042 0.95745 0.0
C2128 C 0.61546 0.74642 0.98574 0.0
C2129 C 0.61886 0.76232 0.99401 0.0
C2130 C 0.62082 0.77725 0.98368 0.0
C2131 C 0.61906 0.77632 0.96559 0.0
H2132 H 0.22593 0.60368 0.96083 0.0
H2133 H 0.27785 0.62461 0.96141 0.0
H2134 H 0.22481 0.60562 0.99241 0.0
H2135 H 0.27651 0.62725 0.99279 0.0
H2136 H 0.27821 0.60622 0.04785 0.0
H2137 H 0.27785 0.60823 0.01652 0.0
H2138 H 0.22383 0.62309 0.01799 0.0
H2139 H 0.22405 0.62044 0.04958 0.0
C2140 C 0.23697 0.60902 0.96767 0.0
C2141 C 0.25206 0.61378 0.95863 0.0
C2142 C 0.23631 0.61021 0.9858 0.0
C2143 C 0.25067 0.61637 0.99526 0.0
C2144 C 0.26538 0.622 0.98604 0.0
C2145 C 0.26611 0.62059 0.968 0.0
C2146 C 0.26626 0.61005 0.04157 0.0
C2147 C 0.25115 0.61313 0.0513 0.0
C2148 C 0.26607 0.61133 0.02352 0.0
C2149 C 0.25082 0.6159 0.01462 0.0
C2150 C 0.23576 0.61933 0.02436 0.0
C2151 C 0.23592 0.61793 0.04249 0.0
H2152 H 0.39824 0.27667 0.04532 0.0
H2153 H 0.39062 0.2214 0.0503 0.0
H2154 H 0.39558 0.27435 0.01419 0.0
H2155 H 0.38725 0.21913 0.01883 0.0
H2156 H 0.40604 0.22087 0.96119 0.0
H2157 H 0.40389 0.22072 0.99278 0.0
H2158 H 0.37662 0.26965 0.99102 0.0
H2159 H 0.37956 0.27014 0.95963 0.0
C2160 C 0.3957 0.26401 0.0398 0.0
C2161 C 0.39469 0.24921 0.05038 0.0
C2162 C 0.39402 0.26269 0.02184 0.0
C2163 C 0.39108 0.24656 0.01387 0.0
C2164 C 0.38969 0.23175 0.02447 0.0
C2165 C 0.39151 0.23306 0.04253 0.0
C2166 C 0.39937 0.23144 0.96758 0.0
C2167 C 0.39319 0.24563 0.95796 0.0
C2168 C 0.39807 0.23135 0.98571 0.0
C2169 C 0.39035 0.24533 0.99456 0.0
C2170 C 0.38312 0.25891 0.98475 0.0
C2171 C 0.38468 0.25914 0.96671 0.0
H2172 H 0.78477 0.40587 0.04988 0.0
H2173 H 0.7333 0.38387 0.04986 0.0
H2174 H 0.78536 0.40448 0.01825 0.0
H2175 H 0.73413 0.38177 0.01842 0.0
H2176 H 0.7309 0.40357 0.96378 0.0
H2177 H 0.73193 0.40112 0.99506 0.0
H2178 H 0.78624 0.38757 0.99233 0.0
H2179 H 0.78534 0.39068 0.9608 0.0
C2180 C 0.77373 0.4004 0.04314 0.0
C2181 C 0.7589 0.39519 0.05237 0.0
C2182 C 0.77409 0.39953 0.02499 0.0
C2183 C 0.75969 0.39324 0.01568 0.0
C2184 C 0.74527 0.38714 0.02506 0.0
C2185 C 0.74483 0.38823 0.04313 0.0
C2186 C 0.74307 0.39994 0.96977 0.0
C2187 C 0.75805 0.39736 0.95971 0.0
C2188 C 0.74364 0.3984 0.9878 0.0
C2189 C 0.75916 0.39405 0.99633 0.0
C2190 C 0.77411 0.39114 0.98625 0.0
C2191 C 0.77357 0.39281 0.96815 0.0
H2192 H 0.62942 0.27209 0.95978 0.0
H2193 H 0.60244 0.22306 0.96006 0.0
H2194 H 0.63244 0.27071 0.99112 0.0
H2195 H 0.60477 0.22199 0.99164 0.0
H2196 H 0.61079 0.2762 0.04574 0.0
H2197 H 0.6133 0.27483 0.01451 0.0
H2198 H 0.62206 0.21956 0.01744 0.0
H2199 H 0.61892 0.22086 0.04898 0.0
C2200 C 0.6242 0.26095 0.96656 0.0
C2201 C 0.61552 0.24778 0.95746 0.0
C2202 C 0.62582 0.26021 0.98457 0.0
C2203 C 0.61854 0.24642 0.99402 0.0
C2204 C 0.61064 0.23276 0.98482 0.0
C2205 C 0.60923 0.23339 0.96671 0.0
C2206 C 0.6134 0.26373 0.03982 0.0
C2207 C 0.6146 0.24863 0.04994 0.0
C2208 C 0.61499 0.26296 0.02182 0.0
C2209 C 0.61797 0.24708 0.01336 0.0
C2210 C 0.61958 0.23199 0.02349 0.0
C2211 C 0.6179 0.23275 0.04159 0.0
H2212 H 0.72964 0.60549 0.04582 0.0
H2213 H 0.78389 0.61886 0.04973 0.0
H2214 H 0.73117 0.60806 0.01457 0.0
H2215 H 0.7853 0.6221 0.01824 0.0
H2216 H 0.78503 0.6041 0.9606 0.0
H2217 H 0.78506 0.60536 0.99224 0.0
H2218 H 0.73356 0.62748 0.9913 0.0
H2219 H 0.7333 0.62549 0.95984 0.0
C2220 C 0.74187 0.60925 0.04003 0.0
C2221 C 0.75665 0.61194 0.05035 0.0
C2222 C 0.74273 0.61085 0.02203 0.0
C2223 C 0.75835 0.61538 0.01376 0.0
C2224 C 0.7731 0.61839 0.0241 0.0
C2225 C 0.77227 0.61664 0.04218 0.0
C2226 C 0.77381 0.60942 0.96718 0.0
C2227 C 0.75908 0.61449 0.95773 0.0
C2228 C 0.77384 0.61021 0.98534 0.0
C2229 C 0.7592 0.61628 0.99443 0.0
C2230 C 0.74488 0.62226 0.98483 0.0
C2231 C 0.74477 0.62124 0.96675 0.0
H2232 H 0.39892 0.734 0.96362 0.0
H2233 H 0.38938 0.78913 0.96091 0.0
H2234 H 0.39595 0.73492 0.99481 0.0
H2235 H 0.38574 0.78996 0.99241 0.0
H2236 H 0.4045 0.78639 0.05001 0.0
H2237 H 0.40251 0.78778 0.01844 0.0
H2238 H 0.37657 0.7381 0.01803 0.0
H2239 H 0.37931 0.73642 0.04939 0.0
C2240 C 0.3959 0.74632 0.96965 0.0
C2241 C 0.39445 0.76151 0.95969 0.0
C2242 C 0.39404 0.74682 0.98763 0.0
C2243 C 0.3905 0.7625 0.99624 0.0
C2244 C 0.38865 0.77768 0.98626 0.0
C2245 C 0.39063 0.77719 0.96818 0.0
C2246 C 0.39815 0.77591 0.04316 0.0
C2247 C 0.39229 0.76118 0.05215 0.0
C2248 C 0.39694 0.77671 0.02504 0.0
C2249 C 0.38965 0.7629 0.01558 0.0
C2250 C 0.38273 0.74875 0.02478 0.0
C2251 C 0.38419 0.74783 0.04281 0.0
H2252 H 0.27936 0.40348 0.04788 0.0
H2253 H 0.22558 0.38811 0.05106 0.0
H2254 H 0.27827 0.40123 0.01661 0.0
H2255 H 0.22466 0.38516 0.01951 0.0
H2256 H 0.22477 0.40406 0.96225 0.0
H2257 H 0.22451 0.40219 0.99382 0.0
H2258 H 0.27692 0.38233 0.99294 0.0
H2259 H 0.27739 0.38498 0.96152 0.0
C2260 C 0.26733 0.39934 0.04192 0.0
C2261 C 0.25254 0.39602 0.05204 0.0
C2262 C 0.26675 0.39791 0.0239 0.0
C2263 C 0.2514 0.39292 0.0154 0.0
C2264 C 0.23665 0.38924 0.02554 0.0
C2265 C 0.23721 0.39083 0.04366 0.0
C2266 C 0.23616 0.39911 0.96881 0.0
C2267 C 0.25118 0.39487 0.9594 0.0
C2268 C 0.23599 0.39796 0.98694 0.0
C2269 C 0.25078 0.39233 0.99605 0.0
C2270 C 0.26545 0.38718 0.98647 0.0
C2271 C 0.26569 0.38858 0.96841 0.0
H2272 H 0.04886 0.60446 0.78714 0.0
H2273 H 0.05009 0.62747 0.73613 0.0
H2274 H 0.0173 0.60675 0.78742 0.0
H2275 H 0.01873 0.63059 0.7367 0.0
H2276 H 0.96409 0.60925 0.73186 0.0
H2277 H 0.99527 0.61177 0.73357 0.0
H2278 H 0.99146 0.6236 0.78824 0.0
H2279 H 0.95996 0.62035 0.78663 0.0
C2280 C 0.04241 0.6104 0.77616 0.0
C2281 C 0.05193 0.61556 0.76151 0.0
C2282 C 0.02429 0.61179 0.77634 0.0
C2283 C 0.01534 0.6186 0.76195 0.0
C2284 C 0.02507 0.6248 0.7478 0.0
C2285 C 0.04309 0.62313 0.74751 0.0
C2286 C 0.96981 0.61253 0.74426 0.0
C2287 C 0.95945 0.61454 0.75912 0.0
C2288 C 0.98779 0.61413 0.74522 0.0
C2289 C 0.99601 0.61799 0.76103 0.0
C2290 C 0.98563 0.62042 0.77587 0.0
C2291 C 0.96755 0.61867 0.77494 0.0
H2292 H 0.40298 0.96062 0.78309 0.0
H2293 H 0.38547 0.95946 0.72992 0.0
H2294 H 0.40075 0.99216 0.78313 0.0
H2295 H 0.38249 0.99083 0.73015 0.0
H2296 H 0.40329 0.04606 0.7283 0.0
H2297 H 0.40124 0.01475 0.7293 0.0
H2298 H 0.38319 0.01753 0.78231 0.0
H2299 H 0.38591 0.04907 0.78148 0.0
C2300 C 0.39831 0.96708 0.77153 0.0
C2301 C 0.39461 0.95755 0.75644 0.0
C2302 C 0.39695 0.98519 0.77156 0.0
C2303 C 0.39165 0.99416 0.75656 0.0
C2304 C 0.38706 0.98447 0.7418 0.0
C2305 C 0.38866 0.96643 0.74169 0.0
C2306 C 0.39874 0.04006 0.74015 0.0
C2307 C 0.39482 0.05013 0.75483 0.0
C2308 C 0.39743 0.02202 0.7407 0.0
C2309 C 0.392 0.01349 0.75589 0.0
C2310 C 0.38765 0.0236 0.77047 0.0
C2311 C 0.3891 0.0417 0.76996 0.0
H2312 H 0.04862 0.38067 0.73551 0.0
H2313 H 0.04706 0.39974 0.78812 0.0
H2314 H 0.01723 0.37767 0.73561 0.0
H2315 H 0.01552 0.39757 0.788 0.0
H2316 H 0.95829 0.38458 0.78604 0.0
H2317 H 0.98972 0.38081 0.7874 0.0
H2318 H 0.99375 0.39671 0.73379 0.0
H2319 H 0.96257 0.39974 0.73228 0.0
C2320 C 0.04155 0.38415 0.74714 0.0
C2321 C 0.05031 0.3906 0.76175 0.0
C2322 C 0.02351 0.38256 0.74717 0.0
C2323 C 0.0137 0.3877 0.76169 0.0
C2324 C 0.02257 0.39335 0.77662 0.0
C2325 C 0.04068 0.39468 0.77668 0.0
C2326 C 0.9659 0.38704 0.77451 0.0
C2327 C 0.95787 0.39248 0.75906 0.0
C2328 C 0.98395 0.38499 0.77531 0.0
C2329 C 0.99438 0.38845 0.76072 0.0
C2330 C 0.98623 0.39356 0.74522 0.0
C2331 C 0.96826 0.39545 0.74438 0.0
H2332 H 0.60621 0.96267 0.72908 0.0
H2333 H 0.62242 0.95935 0.78261 0.0
H2334 H 0.60841 0.99396 0.73027 0.0
H2335 H 0.62531 0.99087 0.78363 0.0
H2336 H 0.60613 0.04799 0.78418 0.0
H2337 H 0.60811 0.01643 0.7842 0.0
H2338 H 0.62726 0.0177 0.73152 0.0
H2339 H 0.6245 0.04909 0.7313 0.0
C2340 C 0.61054 0.9686 0.74106 0.0
C2341 C 0.61409 0.95844 0.75576 0.0
C2342 C 0.61193 0.98662 0.74171 0.0
C2343 C 0.61711 0.99506 0.75704 0.0
C2344 C 0.62106 0.98488 0.77167 0.0
C2345 C 0.61952 0.96678 0.77105 0.0
C2346 C 0.61095 0.04151 0.77269 0.0
C2347 C 0.61495 0.05103 0.75767 0.0
C2348 C 0.61217 0.02339 0.77271 0.0
C2349 C 0.61762 0.0144 0.75777 0.0
C2350 C 0.62255 0.02408 0.74311 0.0
C2351 C 0.62108 0.04212 0.74301 0.0
H2352 H 0.96221 0.3834 0.27542 0.0
H2353 H 0.963 0.40451 0.22359 0.0
H2354 H 0.99367 0.38142 0.27517 0.0
H2355 H 0.99462 0.40335 0.22358 0.0
H2356 H 0.05231 0.39077 0.22505 0.0
H2357 H 0.02086 0.38716 0.22344 0.0
H2358 H 0.01671 0.40088 0.27764 0.0
H2359 H 0.04788 0.40376 0.27937 0.0
C2360 C 0.96913 0.38758 0.26393 0.0
C2361 C 0.96013 0.39426 0.24959 0.0
C2362 C 0.98721 0.38657 0.26382 0.0
C2363 C 0.99682 0.39255 0.24949 0.0
C2364 C 0.98773 0.39851 0.23481 0.0
C2365 C 0.96957 0.39924 0.23482 0.0
C2366 C 0.04465 0.39284 0.23664 0.0
C2367 C 0.05266 0.39753 0.25234 0.0
C2368 C 0.02659 0.39087 0.2357 0.0
C2369 C 0.01613 0.39366 0.25042 0.0
C2370 C 0.02425 0.39821 0.26611 0.0
C2371 C 0.04222 0.40001 0.26707 0.0
H2372 H 0.6069 0.04661 0.27874 0.0
H2373 H 0.61631 0.05116 0.22369 0.0
H2374 H 0.61042 0.01552 0.27687 0.0
H2375 H 0.6205 0.01978 0.22189 0.0
H2376 H 0.60343 0.96161 0.22378 0.0
H2377 H 0.60448 0.99325 0.22333 0.0
H2378 H 0.63045 0.99297 0.273 0.0
H2379 H 0.62866 0.96151 0.27375 0.0
C2380 C 0.60999 0.04101 0.26624 0.0
C2381 C 0.61129 0.05145 0.25136 0.0
C2382 C 0.61216 0.02309 0.26518 0.0
C2383 C 0.61588 0.01503 0.24924 0.0
C2384 C 0.61748 0.02549 0.23436 0.0
C2385 C 0.61518 0.0435 0.2354 0.0
C2386 C 0.60959 0.96834 0.23446 0.0
C2387 C 0.61574 0.95909 0.24891 0.0
C2388 C 0.61025 0.98649 0.23419 0.0
C2389 C 0.61727 0.99575 0.24828 0.0
C2390 C 0.62448 0.98635 0.26215 0.0
C2391 C 0.62357 0.96828 0.26254 0.0
H2392 H 0.04631 0.60777 0.27872 0.0
H2393 H 0.05045 0.62491 0.22554 0.0
H2394 H 0.01507 0.60997 0.27712 0.0
H2395 H 0.01894 0.62787 0.22412 0.0
H2396 H 0.96199 0.60837 0.22222 0.0
H2397 H 0.9935 0.61076 0.22275 0.0
H2398 H 0.99114 0.62842 0.27592 0.0
H2399 H 0.95978 0.62517 0.27558 0.0
C2400 C 0.04057 0.61232 0.26674 0.0
C2401 C 0.05094 0.6161 0.25224 0.0
C2402 C 0.02255 0.61372 0.26585 0.0
C2403 C 0.01434 0.61917 0.2505 0.0
C2404 C 0.02475 0.6234 0.23609 0.0
C2405 C 0.04284 0.62182 0.23693 0.0
C2406 C 0.96822 0.61296 0.23395 0.0
C2407 C 0.95842 0.61637 0.24893 0.0
C2408 C 0.98632 0.61442 0.23424 0.0
C2409 C 0.995 0.61955 0.24946 0.0
C2410 C 0.98502 0.62394 0.26411 0.0
C2411 C 0.96699 0.62221 0.26389 0.0
H2412 H 0.3997 0.04682 0.2223 0.0
H2413 H 0.3793 0.04827 0.27442 0.0
H2414 H 0.39832 0.01525 0.22261 0.0
H2415 H 0.37708 0.01682 0.27448 0.0
H2416 H 0.40025 0.9628 0.27888 0.0
H2417 H 0.39665 0.99388 0.27696 0.0
H2418 H 0.38228 0.98902 0.22299 0.0
H2419 H 0.38664 0.95768 0.22477 0.0
C2420 C 0.3945 0.0404 0.23366 0.0
C2421 C 0.38983 0.05002 0.24842 0.0
C2422 C 0.39364 0.02227 0.23383 0.0
C2423 C 0.38785 0.01337 0.24869 0.0
C2424 C 0.3821 0.02314 0.263 0.0
C2425 C 0.38324 0.04121 0.26293 0.0
C2426 C 0.39619 0.96828 0.2666 0.0
C2427 C 0.3938 0.95769 0.25196 0.0
C2428 C 0.39396 0.98619 0.26553 0.0
C2429 C 0.38907 0.99408 0.24983 0.0
C2430 C 0.38626 0.98345 0.23525 0.0
C2431 C 0.38865 0.96546 0.23628 0.0
H2432 H 0.73757 0.04943 0.62977 0.0
H2433 H 0.78846 0.04823 0.60646 0.0
H2434 H 0.73829 0.0181 0.63311 0.0
H2435 H 0.78891 0.0167 0.60907 0.0
H2436 H 0.78851 0.95958 0.6234 0.0
H2437 H 0.78986 0.9911 0.62649 0.0
H2438 H 0.73527 0.99444 0.61426 0.0
H2439 H 0.73382 0.96321 0.61184 0.0
C2440 C 0.74897 0.04246 0.62543 0.0
C2441 C 0.76288 0.0513 0.61769 0.0
C2442 C 0.74934 0.02445 0.62723 0.0
C2443 C 0.7635 0.01474 0.62106 0.0
C2444 C 0.77782 0.0237 0.61409 0.0
C2445 C 0.77755 0.04179 0.61253 0.0
C2446 C 0.77677 0.96706 0.62161 0.0
C2447 C 0.76106 0.95882 0.61736 0.0
C2448 C 0.77756 0.98516 0.62326 0.0
C2449 C 0.76268 0.99541 0.62064 0.0
C2450 C 0.74695 0.98705 0.61673 0.0
C2451 C 0.74614 0.96905 0.6152 0.0
H2452 H 0.78536 0.0485 0.40789 0.0
H2453 H 0.73609 0.04894 0.38133 0.0
H2454 H 0.78609 0.01689 0.40595 0.0
H2455 H 0.73711 0.01755 0.37873 0.0
H2456 H 0.73131 0.96324 0.4009 0.0
H2457 H 0.73297 0.99444 0.39824 0.0
H2458 H 0.7881 0.99088 0.38885 0.0
H2459 H 0.78651 0.95938 0.3921 0.0
C2460 C 0.7749 0.04187 0.40127 0.0
C2461 C 0.76055 0.05119 0.39499 0.0
C2462 C 0.77533 0.02374 0.4001 0.0
C2463 C 0.7615 0.01458 0.39244 0.0
C2464 C 0.74775 0.02408 0.38516 0.0
C2465 C 0.74721 0.04212 0.38654 0.0
C2466 C 0.7438 0.96902 0.39813 0.0
C2467 C 0.75878 0.95873 0.39676 0.0
C2468 C 0.74474 0.987 0.39646 0.0
C2469 C 0.76067 0.99527 0.39323 0.0
C2470 C 0.77564 0.98498 0.39151 0.0
C2471 C 0.77471 0.9669 0.39327 0.0
H2472 H 0.96006 0.73508 0.38089 0.0
H2473 H 0.96001 0.78525 0.4057 0.0
H2474 H 0.99149 0.73603 0.37879 0.0
H2475 H 0.99164 0.78594 0.40428 0.0
H2476 H 0.04924 0.78629 0.39098 0.0
H2477 H 0.01776 0.78754 0.3875 0.0
H2478 H 0.01456 0.73269 0.39845 0.0
H2479 H 0.04578 0.73134 0.40131 0.0
C2480 C 0.96678 0.74637 0.38583 0.0
C2481 C 0.95755 0.76001 0.39362 0.0
C2482 C 0.98484 0.74687 0.38475 0.0
C2483 C 0.99421 0.76091 0.39168 0.0
C2484 C 0.98491 0.77496 0.39871 0.0
C2485 C 0.96676 0.77456 0.39958 0.0
C2486 C 0.0418 0.77447 0.39245 0.0
C2487 C 0.05008 0.75871 0.39642 0.0
C2488 C 0.02373 0.77521 0.39056 0.0
C2489 C 0.01353 0.76022 0.39265 0.0
C2490 C 0.02192 0.74446 0.39638 0.0
C2491 C 0.03991 0.7437 0.39816 0.0
H2492 H 0.22792 0.05089 0.38826 0.0
H2493 H 0.28109 0.04586 0.40512 0.0
H2494 H 0.22629 0.01952 0.38423 0.0
H2495 H 0.27929 0.01471 0.40185 0.0
H2496 H 0.27749 0.96009 0.3844 0.0
H2497 H 0.27796 0.99156 0.38244 0.0
H2498 H 0.22483 0.99342 0.40028 0.0
H2499 H 0.22418 0.96185 0.40139 0.0
C2500 C 0.23926 0.04311 0.39109 0.0
C2501 C 0.25463 0.05093 0.39701 0.0
C2502 C 0.2383 0.02509 0.38889 0.0
C2503 C 0.25266 0.01446 0.39268 0.0
C2504 C 0.26806 0.02239 0.39841 0.0
C2505 C 0.26906 0.04034 0.40043 0.0
C2506 C 0.26583 0.96722 0.38766 0.0
C2507 C 0.25085 0.95848 0.39318 0.0
C2508 C 0.26613 0.9853 0.38668 0.0
C2509 C 0.25154 0.99516 0.39151 0.0
C2510 C 0.23629 0.98634 0.39631 0.0
C2511 C 0.23592 0.9682 0.39702 0.0
H2512 H 0.05256 0.22174 0.38645 0.0
H2513 H 0.04857 0.27622 0.39884 0.0
H2514 H 0.0211 0.22038 0.38275 0.0
H2515 H 0.01741 0.27474 0.39589 0.0
H2516 H 0.96267 0.27276 0.37968 0.0
H2517 H 0.99407 0.27218 0.37682 0.0
H2518 H 0.99513 0.22086 0.39932 0.0
H2519 H 0.96357 0.22117 0.40134 0.0
C2520 C 0.045 0.23343 0.38833 0.0
C2521 C 0.05313 0.24908 0.39294 0.0
C2522 C 0.02694 0.23263 0.38632 0.0
C2523 C 0.0166 0.24745 0.38898 0.0
C2524 C 0.02486 0.26312 0.39333 0.0
C2525 C 0.04282 0.26394 0.39518 0.0
C2526 C 0.9696 0.26124 0.38376 0.0
C2527 C 0.96066 0.24708 0.39089 0.0
C2528 C 0.98764 0.26095 0.38226 0.0
C2529 C 0.99727 0.24661 0.38817 0.0
C2530 C 0.98822 0.23208 0.39451 0.0
C2531 C 0.9701 0.23227 0.39574 0.0
H2532 H 0.26984 0.04892 0.63065 0.0
H2533 H 0.21938 0.04769 0.6065 0.0
H2534 H 0.26975 0.01746 0.63263 0.0
H2535 H 0.21959 0.01607 0.60764 0.0
H2536 H 0.22128 0.9582 0.61917 0.0
H2537 H 0.21893 0.98955 0.6234 0.0
H2538 H 0.27374 0.99483 0.61294 0.0
H2539 H 0.27617 0.9638 0.60945 0.0
C2540 C 0.25867 0.0419 0.62584 0.0
C2541 C 0.2447 0.05077 0.61827 0.0
C2542 C 0.25866 0.02382 0.62684 0.0
C2543 C 0.24483 0.0141 0.61995 0.0
C2544 C 0.23043 0.02306 0.61318 0.0
C2545 C 0.23032 0.04121 0.61247 0.0
C2546 C 0.23283 0.96609 0.61797 0.0
C2547 C 0.24891 0.95844 0.61399 0.0
C2548 C 0.23147 0.98408 0.6203 0.0
C2549 C 0.24615 0.99483 0.6186 0.0
C2550 C 0.2622 0.98706 0.61478 0.0
C2551 C 0.26358 0.96916 0.61262 0.0
H2552 H 0.96131 0.22727 0.60469 0.0
H2553 H 0.9603 0.27951 0.62475 0.0
H2554 H 0.99289 0.22716 0.60655 0.0
H2555 H 0.99171 0.27917 0.62741 0.0
H2556 H 0.04647 0.28247 0.60587 0.0
H2557 H 0.01522 0.28108 0.60833 0.0
H2558 H 0.01867 0.22724 0.62348 0.0
H2559 H 0.05018 0.22848 0.62032 0.0
C2560 C 0.96781 0.23859 0.60987 0.0
C2561 C 0.95833 0.25348 0.61436 0.0
C2562 C 0.98594 0.23851 0.61102 0.0
C2563 C 0.99496 0.25326 0.61689 0.0
C2564 C 0.98531 0.26775 0.62235 0.0
C2565 C 0.96725 0.26792 0.62095 0.0
C2566 C 0.04063 0.27033 0.60986 0.0
C2567 C 0.05089 0.25557 0.61285 0.0
C2568 C 0.02263 0.26957 0.61141 0.0
C2569 C 0.0143 0.25406 0.6162 0.0
C2570 C 0.02458 0.23935 0.61956 0.0
C2571 C 0.04267 0.24008 0.61785 0.0
H2572 H 0.04872 0.734 0.6283 0.0
H2573 H 0.0481 0.78502 0.60531 0.0
H2574 H 0.01725 0.73439 0.63022 0.0
H2575 H 0.01646 0.78515 0.60649 0.0
H2576 H 0.95876 0.78411 0.61896 0.0
H2577 H 0.99017 0.78578 0.62284 0.0
H2578 H 0.9944 0.7313 0.61039 0.0
H2579 H 0.96324 0.72953 0.60717 0.0
C2580 C 0.04183 0.74536 0.62373 0.0
C2581 C 0.05089 0.7594 0.6165 0.0
C2582 C 0.02376 0.74554 0.6247 0.0
C2583 C 0.01421 0.75965 0.61818 0.0
C2584 C 0.02333 0.7741 0.61174 0.0
C2585 C 0.04149 0.77401 0.611 0.0
C2586 C 0.96642 0.77247 0.61723 0.0
C2587 C 0.95844 0.75669 0.61276 0.0
C2588 C 0.98445 0.77344 0.61935 0.0
C2589 C 0.99491 0.75868 0.61698 0.0
C2590 C 0.98683 0.74289 0.61271 0.0
C2591 C 0.96888 0.7419 0.61072 0.0
loop_
_geom_bond_atom_site_label_1
_geom_bond_atom_site_label_2
_geom_bond_distance
_geom_bond_site_symmetry_2
_ccdc_geom_bond_type
O0 Cd1 2.223 . S
O0 C8 1.315 . S
Cd1 O0 2.223 . S
Cd1 O4 2.297 . S
Cd1 O5 2.439 . S
Cd1 O11 2.240 . S
Cd2 O3 2.240 . S
Cd2 O10 2.223 . S
Cd2 O12 2.297 . S
Cd2 O13 2.439 . S
O3 Cd2 2.240 . S
O3 C8 1.279 . S
O4 Cd1 2.297 . S
O4 C6 1.247 . S
O5 Cd1 2.439 . S
O5 C6 1.208 . S
C6 O4 1.247 . S
C6 O5 1.208 . S
C7 O12 1.247 . S
C7 O13 1.208 . S
C8 O0 1.315 . S
C8 O3 1.279 . S
C9 O10 1.315 . S
C9 O11 1.279 . S
O10 Cd2 2.223 . S
O10 C9 1.315 . S
O11 Cd1 2.240 . S
O11 C9 1.279 . S
O12 Cd2 2.297 . S
O12 C7 1.247 . S
O13 Cd2 2.439 . S
O13 C7 1.208 . S
O14 Cd15 2.223 . S
O14 C22 1.315 . S
Cd15 O14 2.223 . S
Cd15 O18 2.297 . S
Cd15 O19 2.439 . S
Cd15 O25 2.240 . S
Cd16 O17 2.240 . S
Cd16 O24 2.223 . S
Cd16 O26 2.297 . S
Cd16 O27 2.439 . S
O17 Cd16 2.240 . S
O17 C22 1.279 . S
O18 Cd15 2.297 . S
O18 C20 1.247 . S
O19 Cd15 2.439 . S
O19 C20 1.208 . S
C20 O18 1.247 . S
C20 O19 1.208 . S
C21 O26 1.247 . S
C21 O27 1.208 . S
C22 O14 1.315 . S
C22 O17 1.279 . S
C23 O24 1.315 . S
C23 O25 1.279 . S
O24 Cd16 2.223 . S
O24 C23 1.315 . S
O25 Cd15 2.240 . S
O25 C23 1.279 . S
O26 Cd16 2.297 . S
O26 C21 1.247 . S
O27 Cd16 2.439 . S
O27 C21 1.208 . S
O28 Cd29 2.223 . S
O28 C36 1.315 . S
Cd29 O28 2.223 . S
Cd29 O32 2.297 . S
Cd29 O33 2.439 . S
Cd29 O39 2.240 . S
Cd30 O31 2.240 . S
Cd30 O38 2.223 . S
Cd30 O40 2.297 . S
Cd30 O41 2.439 . S
O31 Cd30 2.240 . S
O31 C36 1.279 . S
O32 Cd29 2.297 . S
O32 C34 1.247 . S
O33 Cd29 2.439 . S
O33 C34 1.208 . S
C34 O32 1.247 . S
C34 O33 1.208 . S
C35 O40 1.247 . S
C35 O41 1.208 . S
C36 O28 1.315 . S
C36 O31 1.279 . S
C37 O38 1.315 . S
C37 O39 1.279 . S
O38 Cd30 2.223 . S
O38 C37 1.315 . S
O39 Cd29 2.240 . S
O39 C37 1.279 . S
O40 Cd30 2.297 . S
O40 C35 1.247 . S
O41 Cd30 2.439 . S
O41 C35 1.208 . S
O42 Cd43 2.223 . S
O42 C50 1.315 . S
Cd43 O42 2.223 . S
Cd43 O46 2.297 . S
Cd43 O47 2.439 . S
Cd43 O53 2.240 . S
Cd44 O45 2.240 . S
Cd44 O52 2.223 . S
Cd44 O54 2.297 . S
Cd44 O55 2.439 . S
O45 Cd44 2.240 . S
O45 C50 1.279 . S
O46 Cd43 2.297 . S
O46 C48 1.247 . S
O47 Cd43 2.439 . S
O47 C48 1.208 . S
C48 O46 1.247 . S
C48 O47 1.208 . S
C49 O54 1.247 . S
C49 O55 1.208 . S
C50 O42 1.315 . S
C50 O45 1.279 . S
C51 O52 1.315 . S
C51 O53 1.279 . S
O52 Cd44 2.223 . S
O52 C51 1.315 . S
O53 Cd43 2.240 . S
O53 C51 1.279 . S
O54 Cd44 2.297 . S
O54 C49 1.247 . S
O55 Cd44 2.439 . S
O55 C49 1.208 . S
O56 Cd57 2.223 . S
O56 C64 1.315 . S
Cd57 O56 2.223 . S
Cd57 O60 2.297 . S
Cd57 O61 2.439 . S
Cd57 O67 2.240 . S
Cd58 O59 2.240 . S
Cd58 O66 2.223 . S
Cd58 O68 2.297 . S
Cd58 O69 2.439 . S
O59 Cd58 2.240 . S
O59 C64 1.279 . S
O60 Cd57 2.297 . S
O60 C62 1.247 . S
O61 Cd57 2.439 . S
O61 C62 1.208 . S
C62 O60 1.247 . S
C62 O61 1.208 . S
C63 O68 1.247 . S
C63 O69 1.208 . S
C64 O56 1.315 . S
C64 O59 1.279 . S
C65 O66 1.315 . S
C65 O67 1.279 . S
O66 Cd58 2.223 . S
O66 C65 1.315 . S
O67 Cd57 2.240 . S
O67 C65 1.279 . S
O68 Cd58 2.297 . S
O68 C63 1.247 . S
O69 Cd58 2.439 . S
O69 C63 1.208 . S
O70 Cd71 2.223 . S
O70 C78 1.315 . S
Cd71 O70 2.223 . S
Cd71 O74 2.297 . S
Cd71 O75 2.439 . S
Cd71 O81 2.240 . S
Cd72 O73 2.240 . S
Cd72 O80 2.223 . S
Cd72 O82 2.297 . S
Cd72 O83 2.439 . S
O73 Cd72 2.240 . S
O73 C78 1.279 . S
O74 Cd71 2.297 . S
O74 C76 1.247 . S
O75 Cd71 2.439 . S
O75 C76 1.208 . S
C76 O74 1.247 . S
C76 O75 1.208 . S
C77 O82 1.247 . S
C77 O83 1.208 . S
C78 O70 1.315 . S
C78 O73 1.279 . S
C79 O80 1.315 . S
C79 O81 1.279 . S
O80 Cd72 2.223 . S
O80 C79 1.315 . S
O81 Cd71 2.240 . S
O81 C79 1.279 . S
O82 Cd72 2.297 . S
O82 C77 1.247 . S
O83 Cd72 2.439 . S
O83 C77 1.208 . S
O84 Cd85 2.223 . S
O84 C92 1.315 . S
Cd85 O84 2.223 . S
Cd85 O88 2.297 . S
Cd85 O89 2.439 . S
Cd85 O95 2.240 . S
Cd86 O87 2.240 . S
Cd86 O94 2.223 . S
Cd86 O96 2.297 . S
Cd86 O97 2.439 . S
O87 Cd86 2.240 . S
O87 C92 1.279 . S
O88 Cd85 2.297 . S
O88 C90 1.247 . S
O89 Cd85 2.439 . S
O89 C90 1.208 . S
C90 O88 1.247 . S
C90 O89 1.208 . S
C91 O96 1.247 . S
C91 O97 1.208 . S
C92 O84 1.315 . S
C92 O87 1.279 . S
C93 O94 1.315 . S
C93 O95 1.279 . S
O94 Cd86 2.223 . S
O94 C93 1.315 . S
O95 Cd85 2.240 . S
O95 C93 1.279 . S
O96 Cd86 2.297 . S
O96 C91 1.247 . S
O97 Cd86 2.439 . S
O97 C91 1.208 . S
O98 Cd99 2.223 . S
O98 C106 1.315 . S
Cd99 O98 2.223 . S
Cd99 O102 2.297 . S
Cd99 O103 2.439 . S
Cd99 O109 2.240 . S
Cd100 O101 2.240 . S
Cd100 O108 2.223 . S
Cd100 O110 2.297 . S
Cd100 O111 2.439 . S
O101 Cd100 2.240 . S
O101 C106 1.279 . S
O102 Cd99 2.297 . S
O102 C104 1.247 . S
O103 Cd99 2.439 . S
O103 C104 1.208 . S
C104 O102 1.247 . S
C104 O103 1.208 . S
C105 O110 1.247 . S
C105 O111 1.208 . S
C106 O98 1.315 . S
C106 O101 1.279 . S
C107 O108 1.315 . S
C107 O109 1.279 . S
O108 Cd100 2.223 . S
O108 C107 1.315 . S
O109 Cd99 2.240 . S
O109 C107 1.279 . S
O110 Cd100 2.297 . S
O110 C105 1.247 . S
O111 Cd100 2.439 . S
O111 C105 1.208 . S
O112 Cd113 2.223 . S
O112 C120 1.315 . S
Cd113 O112 2.223 . S
Cd113 O116 2.297 . S
Cd113 O117 2.439 . S
Cd113 O123 2.240 . S
Cd114 O115 2.240 . S
Cd114 O122 2.223 . S
Cd114 O124 2.297 . S
Cd114 O125 2.439 . S
O115 Cd114 2.240 . S
O115 C120 1.279 . S
O116 Cd113 2.297 . S
O116 C118 1.247 . S
O117 Cd113 2.439 . S
O117 C118 1.208 . S
C118 O116 1.247 . S
C118 O117 1.208 . S
C119 O124 1.247 . S
C119 O125 1.208 . S
C120 O112 1.315 . S
C120 O115 1.279 . S
C121 O122 1.315 . S
C121 O123 1.279 . S
O122 Cd114 2.223 . S
O122 C121 1.315 . S
O123 Cd113 2.240 . S
O123 C121 1.279 . S
O124 Cd114 2.297 . S
O124 C119 1.247 . S
O125 Cd114 2.439 . S
O125 C119 1.208 . S
O126 Cd127 2.223 . S
O126 C134 1.315 . S
Cd127 O126 2.223 . S
Cd127 O130 2.297 . S
Cd127 O131 2.439 . S
Cd127 O137 2.240 . S
Cd128 O129 2.240 . S
Cd128 O136 2.223 . S
Cd128 O138 2.297 . S
Cd128 O139 2.439 . S
O129 Cd128 2.240 . S
O129 C134 1.279 . S
O130 Cd127 2.297 . S
O130 C132 1.247 . S
O131 Cd127 2.439 . S
O131 C132 1.208 . S
C132 O130 1.247 . S
C132 O131 1.208 . S
C133 O138 1.247 . S
C133 O139 1.208 . S
C134 O126 1.315 . S
C134 O129 1.279 . S
C135 O136 1.315 . S
C135 O137 1.279 . S
O136 Cd128 2.223 . S
O136 C135 1.315 . S
O137 Cd127 2.240 . S
O137 C135 1.279 . S
O138 Cd128 2.297 . S
O138 C133 1.247 . S
O139 Cd128 2.439 . S
O139 C133 1.208 . S
O140 Cd141 2.223 . S
O140 C148 1.315 . S
Cd141 O140 2.223 . S
Cd141 O144 2.297 . S
Cd141 O145 2.439 . S
Cd141 O151 2.240 . S
Cd142 O143 2.240 . S
Cd142 O150 2.223 . S
Cd142 O152 2.297 . S
Cd142 O153 2.439 . S
O143 Cd142 2.240 . S
O143 C148 1.279 . S
O144 Cd141 2.297 . S
O144 C146 1.247 . S
O145 Cd141 2.439 . S
O145 C146 1.208 . S
C146 O144 1.247 . S
C146 O145 1.208 . S
C147 O152 1.247 . S
C147 O153 1.208 . S
C148 O140 1.315 . S
C148 O143 1.279 . S
C149 O150 1.315 . S
C149 O151 1.279 . S
O150 Cd142 2.223 . S
O150 C149 1.315 . S
O151 Cd141 2.240 . S
O151 C149 1.279 . S
O152 Cd142 2.297 . S
O152 C147 1.247 . S
O153 Cd142 2.439 . S
O153 C147 1.208 . S
O154 Cd155 2.223 . S
O154 C162 1.315 . S
Cd155 O154 2.223 . S
Cd155 O158 2.297 . S
Cd155 O159 2.439 . S
Cd155 O165 2.240 . S
Cd156 O157 2.240 . S
Cd156 O164 2.223 . S
Cd156 O166 2.297 . S
Cd156 O167 2.439 . S
O157 Cd156 2.240 . S
O157 C162 1.279 . S
O158 Cd155 2.297 . S
O158 C160 1.247 . S
O159 Cd155 2.439 . S
O159 C160 1.208 . S
C160 O158 1.247 . S
C160 O159 1.208 . S
C161 O166 1.247 . S
C161 O167 1.208 . S
C162 O154 1.315 . S
C162 O157 1.279 . S
C163 O164 1.315 . S
C163 O165 1.279 . S
O164 Cd156 2.223 . S
O164 C163 1.315 . S
O165 Cd155 2.240 . S
O165 C163 1.279 . S
O166 Cd156 2.297 . S
O166 C161 1.247 . S
O167 Cd156 2.439 . S
O167 C161 1.208 . S
O168 Cd169 2.223 . S
O168 C176 1.315 . S
Cd169 O168 2.223 . S
Cd169 O172 2.297 . S
Cd169 O173 2.439 . S
Cd169 O179 2.240 . S
Cd170 O171 2.240 . S
Cd170 O178 2.223 . S
Cd170 O180 2.297 . S
Cd170 O181 2.439 . S
O171 Cd170 2.240 . S
O171 C176 1.279 . S
O172 Cd169 2.297 . S
O172 C174 1.247 . S
O173 Cd169 2.439 . S
O173 C174 1.208 . S
C174 O172 1.247 . S
C174 O173 1.208 . S
C175 O180 1.247 . S
C175 O181 1.208 . S
C176 O168 1.315 . S
C176 O171 1.279 . S
C177 O178 1.315 . S
C177 O179 1.279 . S
O178 Cd170 2.223 . S
O178 C177 1.315 . S
O179 Cd169 2.240 . S
O179 C177 1.279 . S
O180 Cd170 2.297 . S
O180 C175 1.247 . S
O181 Cd170 2.439 . S
O181 C175 1.208 . S
O182 Cd183 2.223 . S
O182 C190 1.315 . S
Cd183 O182 2.223 . S
Cd183 O186 2.297 . S
Cd183 O187 2.439 . S
Cd183 O193 2.240 . S
Cd184 O185 2.240 . S
Cd184 O192 2.223 . S
Cd184 O194 2.297 . S
Cd184 O195 2.439 . S
O185 Cd184 2.240 . S
O185 C190 1.279 . S
O186 Cd183 2.297 . S
O186 C188 1.247 . S
O187 Cd183 2.439 . S
O187 C188 1.208 . S
C188 O186 1.247 . S
C188 O187 1.208 . S
C189 O194 1.247 . S
C189 O195 1.208 . S
C190 O182 1.315 . S
C190 O185 1.279 . S
C191 O192 1.315 . S
C191 O193 1.279 . S
O192 Cd184 2.223 . S
O192 C191 1.315 . S
O193 Cd183 2.240 . S
O193 C191 1.279 . S
O194 Cd184 2.297 . S
O194 C189 1.247 . S
O195 Cd184 2.439 . S
O195 C189 1.208 . S
O196 Cd197 2.223 . S
O196 C204 1.315 . S
Cd197 O196 2.223 . S
Cd197 O200 2.297 . S
Cd197 O201 2.439 . S
Cd197 O207 2.240 . S
Cd198 O199 2.240 . S
Cd198 O206 2.223 . S
Cd198 O208 2.297 . S
Cd198 O209 2.439 . S
O199 Cd198 2.240 . S
O199 C204 1.279 . S
O200 Cd197 2.297 . S
O200 C202 1.247 . S
O201 Cd197 2.439 . S
O201 C202 1.208 . S
C202 O200 1.247 . S
C202 O201 1.208 . S
C203 O208 1.247 . S
C203 O209 1.208 . S
C204 O196 1.315 . S
C204 O199 1.279 . S
C205 O206 1.315 . S
C205 O207 1.279 . S
O206 Cd198 2.223 . S
O206 C205 1.315 . S
O207 Cd197 2.240 . S
O207 C205 1.279 . S
O208 Cd198 2.297 . S
O208 C203 1.247 . S
O209 Cd198 2.439 . S
O209 C203 1.208 . S
O210 Cd211 2.223 . S
O210 C218 1.315 . S
Cd211 O210 2.223 . S
Cd211 O214 2.297 . S
Cd211 O215 2.439 . S
Cd211 O221 2.240 . S
Cd212 O213 2.240 . S
Cd212 O220 2.223 . S
Cd212 O222 2.297 . S
Cd212 O223 2.439 . S
O213 Cd212 2.240 . S
O213 C218 1.279 . S
O214 Cd211 2.297 . S
O214 C216 1.247 . S
O215 Cd211 2.439 . S
O215 C216 1.208 . S
C216 O214 1.247 . S
C216 O215 1.208 . S
C217 O222 1.247 . S
C217 O223 1.208 . S
C218 O210 1.315 . S
C218 O213 1.279 . S
C219 O220 1.315 . S
C219 O221 1.279 . S
O220 Cd212 2.223 . S
O220 C219 1.315 . S
O221 Cd211 2.240 . S
O221 C219 1.279 . S
O222 Cd212 2.297 . S
O222 C217 1.247 . S
O223 Cd212 2.439 . S
O223 C217 1.208 . S
O224 Cd225 2.223 . S
O224 C232 1.315 . S
Cd225 O224 2.223 . S
Cd225 O228 2.297 . S
Cd225 O229 2.439 . S
Cd225 O235 2.240 . S
Cd226 O227 2.240 . S
Cd226 O234 2.223 . S
Cd226 O236 2.297 . S
Cd226 O237 2.439 . S
O227 Cd226 2.240 . S
O227 C232 1.279 . S
O228 Cd225 2.297 . S
O228 C230 1.247 . S
O229 Cd225 2.439 . S
O229 C230 1.208 . S
C230 O228 1.247 . S
C230 O229 1.208 . S
C231 O236 1.247 . S
C231 O237 1.208 . S
C232 O224 1.315 . S
C232 O227 1.279 . S
C233 O234 1.315 . S
C233 O235 1.279 . S
O234 Cd226 2.223 . S
O234 C233 1.315 . S
O235 Cd225 2.240 . S
O235 C233 1.279 . S
O236 Cd226 2.297 . S
O236 C231 1.247 . S
O237 Cd226 2.439 . S
O237 C231 1.208 . S
O238 Cd239 2.223 . S
O238 C246 1.315 . S
Cd239 O238 2.223 . S
Cd239 O242 2.297 . S
Cd239 O243 2.439 . S
Cd239 O249 2.240 . S
Cd240 O241 2.240 . S
Cd240 O248 2.223 . S
Cd240 O250 2.297 . S
Cd240 O251 2.439 . S
O241 Cd240 2.240 . S
O241 C246 1.279 . S
O242 Cd239 2.297 . S
O242 C244 1.247 . S
O243 Cd239 2.439 . S
O243 C244 1.208 . S
C244 O242 1.247 . S
C244 O243 1.208 . S
C245 O250 1.247 . S
C245 O251 1.208 . S
C246 O238 1.315 . S
C246 O241 1.279 . S
C247 O248 1.315 . S
C247 O249 1.279 . S
O248 Cd240 2.223 . S
O248 C247 1.315 . S
O249 Cd239 2.240 . S
O249 C247 1.279 . S
O250 Cd240 2.297 . S
O250 C245 1.247 . S
O251 Cd240 2.439 . S
O251 C245 1.208 . S
O252 Cd253 2.223 . S
O252 C260 1.315 . S
Cd253 O252 2.223 . S
Cd253 O256 2.297 . S
Cd253 O257 2.439 . S
Cd253 O263 2.240 . S
Cd254 O255 2.240 . S
Cd254 O262 2.223 . S
Cd254 O264 2.297 . S
Cd254 O265 2.439 . S
O255 Cd254 2.240 . S
O255 C260 1.279 . S
O256 Cd253 2.297 . S
O256 C258 1.247 . S
O257 Cd253 2.439 . S
O257 C258 1.208 . S
C258 O256 1.247 . S
C258 O257 1.208 . S
C259 O264 1.247 . S
C259 O265 1.208 . S
C260 O252 1.315 . S
C260 O255 1.279 . S
C261 O262 1.315 . S
C261 O263 1.279 . S
O262 Cd254 2.223 . S
O262 C261 1.315 . S
O263 Cd253 2.240 . S
O263 C261 1.279 . S
O264 Cd254 2.297 . S
O264 C259 1.247 . S
O265 Cd254 2.439 . S
O265 C259 1.208 . S
O266 Cd267 2.223 . S
O266 C274 1.315 . S
Cd267 O266 2.223 . S
Cd267 O270 2.297 . S
Cd267 O271 2.439 . S
Cd267 O277 2.240 . S
Cd268 O269 2.240 . S
Cd268 O276 2.223 . S
Cd268 O278 2.297 . S
Cd268 O279 2.439 . S
O269 Cd268 2.240 . S
O269 C274 1.279 . S
O270 Cd267 2.297 . S
O270 C272 1.247 . S
O271 Cd267 2.439 . S
O271 C272 1.208 . S
C272 O270 1.247 . S
C272 O271 1.208 . S
C273 O278 1.247 . S
C273 O279 1.208 . S
C274 O266 1.315 . S
C274 O269 1.279 . S
C275 O276 1.315 . S
C275 O277 1.279 . S
O276 Cd268 2.223 . S
O276 C275 1.315 . S
O277 Cd267 2.240 . S
O277 C275 1.279 . S
O278 Cd268 2.297 . S
O278 C273 1.247 . S
O279 Cd268 2.439 . S
O279 C273 1.208 . S
O280 Cd281 2.223 . S
O280 C288 1.315 . S
Cd281 O280 2.223 . S
Cd281 O284 2.297 . S
Cd281 O285 2.439 . S
Cd281 O291 2.240 . S
Cd282 O283 2.240 . S
Cd282 O290 2.223 . S
Cd282 O292 2.297 . S
Cd282 O293 2.439 . S
O283 Cd282 2.240 . S
O283 C288 1.279 . S
O284 Cd281 2.297 . S
O284 C286 1.247 . S
O285 Cd281 2.439 . S
O285 C286 1.208 . S
C286 O284 1.247 . S
C286 O285 1.208 . S
C287 O292 1.247 . S
C287 O293 1.208 . S
C288 O280 1.315 . S
C288 O283 1.279 . S
C289 O290 1.315 . S
C289 O291 1.279 . S
O290 Cd282 2.223 . S
O290 C289 1.315 . S
O291 Cd281 2.240 . S
O291 C289 1.279 . S
O292 Cd282 2.297 . S
O292 C287 1.247 . S
O293 Cd282 2.439 . S
O293 C287 1.208 . S
O294 Cd295 2.223 . S
O294 C302 1.315 . S
Cd295 O294 2.223 . S
Cd295 O298 2.297 . S
Cd295 O299 2.439 . S
Cd295 O305 2.240 . S
Cd296 O297 2.240 . S
Cd296 O304 2.223 . S
Cd296 O306 2.297 . S
Cd296 O307 2.439 . S
O297 Cd296 2.240 . S
O297 C302 1.279 . S
O298 Cd295 2.297 . S
O298 C300 1.247 . S
O299 Cd295 2.439 . S
O299 C300 1.208 . S
C300 O298 1.247 . S
C300 O299 1.208 . S
C301 O306 1.247 . S
C301 O307 1.208 . S
C302 O294 1.315 . S
C302 O297 1.279 . S
C303 O304 1.315 . S
C303 O305 1.279 . S
O304 Cd296 2.223 . S
O304 C303 1.315 . S
O305 Cd295 2.240 . S
O305 C303 1.279 . S
O306 Cd296 2.297 . S
O306 C301 1.247 . S
O307 Cd296 2.439 . S
O307 C301 1.208 . S
O308 Cd309 2.223 . S
O308 C316 1.315 . S
Cd309 O308 2.223 . S
Cd309 O312 2.297 . S
Cd309 O313 2.439 . S
Cd309 O319 2.240 . S
Cd310 O311 2.240 . S
Cd310 O318 2.223 . S
Cd310 O320 2.297 . S
Cd310 O321 2.439 . S
O311 Cd310 2.240 . S
O311 C316 1.279 . S
O312 Cd309 2.297 . S
O312 C314 1.247 . S
O313 Cd309 2.439 . S
O313 C314 1.208 . S
C314 O312 1.247 . S
C314 O313 1.208 . S
C315 O320 1.247 . S
C315 O321 1.208 . S
C316 O308 1.315 . S
C316 O311 1.279 . S
C317 O318 1.315 . S
C317 O319 1.279 . S
O318 Cd310 2.223 . S
O318 C317 1.315 . S
O319 Cd309 2.240 . S
O319 C317 1.279 . S
O320 Cd310 2.297 . S
O320 C315 1.247 . S
O321 Cd310 2.439 . S
O321 C315 1.208 . S
O322 Cd323 2.223 . S
O322 C330 1.315 . S
Cd323 O322 2.223 . S
Cd323 O326 2.297 . S
Cd323 O327 2.439 . S
Cd323 O333 2.240 . S
Cd324 O325 2.240 . S
Cd324 O332 2.223 . S
Cd324 O334 2.297 . S
Cd324 O335 2.439 . S
O325 Cd324 2.240 . S
O325 C330 1.279 . S
O326 Cd323 2.297 . S
O326 C328 1.247 . S
O327 Cd323 2.439 . S
O327 C328 1.208 . S
C328 O326 1.247 . S
C328 O327 1.208 . S
C329 O334 1.247 . S
C329 O335 1.208 . S
C330 O322 1.315 . S
C330 O325 1.279 . S
C331 O332 1.315 . S
C331 O333 1.279 . S
O332 Cd324 2.223 . S
O332 C331 1.315 . S
O333 Cd323 2.240 . S
O333 C331 1.279 . S
O334 Cd324 2.297 . S
O334 C329 1.247 . S
O335 Cd324 2.439 . S
O335 C329 1.208 . S
O336 Cd337 2.223 . S
O336 C344 1.315 . S
Cd337 O336 2.223 . S
Cd337 O340 2.297 . S
Cd337 O341 2.439 . S
Cd337 O347 2.240 . S
Cd338 O339 2.240 . S
Cd338 O346 2.223 . S
Cd338 O348 2.297 . S
Cd338 O349 2.439 . S
O339 Cd338 2.240 . S
O339 C344 1.279 . S
O340 Cd337 2.297 . S
O340 C342 1.247 . S
O341 Cd337 2.439 . S
O341 C342 1.208 . S
C342 O340 1.247 . S
C342 O341 1.208 . S
C343 O348 1.247 . S
C343 O349 1.208 . S
C344 O336 1.315 . S
C344 O339 1.279 . S
C345 O346 1.315 . S
C345 O347 1.279 . S
O346 Cd338 2.223 . S
O346 C345 1.315 . S
O347 Cd337 2.240 . S
O347 C345 1.279 . S
O348 Cd338 2.297 . S
O348 C343 1.247 . S
O349 Cd338 2.439 . S
O349 C343 1.208 . S
O350 Cd351 2.223 . S
O350 C358 1.315 . S
Cd351 O350 2.223 . S
Cd351 O354 2.297 . S
Cd351 O355 2.439 . S
Cd351 O361 2.240 . S
Cd352 O353 2.240 . S
Cd352 O360 2.223 . S
Cd352 O362 2.297 . S
Cd352 O363 2.439 . S
O353 Cd352 2.240 . S
O353 C358 1.279 . S
O354 Cd351 2.297 . S
O354 C356 1.247 . S
O355 Cd351 2.439 . S
O355 C356 1.208 . S
C356 O354 1.247 . S
C356 O355 1.208 . S
C357 O362 1.247 . S
C357 O363 1.208 . S
C358 O350 1.315 . S
C358 O353 1.279 . S
C359 O360 1.315 . S
C359 O361 1.279 . S
O360 Cd352 2.223 . S
O360 C359 1.315 . S
O361 Cd351 2.240 . S
O361 C359 1.279 . S
O362 Cd352 2.297 . S
O362 C357 1.247 . S
O363 Cd352 2.439 . S
O363 C357 1.208 . S
O364 Cd365 2.223 . S
O364 C372 1.315 . S
Cd365 O364 2.223 . S
Cd365 O368 2.297 . S
Cd365 O369 2.439 . S
Cd365 O375 2.240 . S
Cd366 O367 2.240 . S
Cd366 O374 2.223 . S
Cd366 O376 2.297 . S
Cd366 O377 2.439 . S
O367 Cd366 2.240 . S
O367 C372 1.279 . S
O368 Cd365 2.297 . S
O368 C370 1.247 . S
O369 Cd365 2.439 . S
O369 C370 1.208 . S
C370 O368 1.247 . S
C370 O369 1.208 . S
C371 O376 1.247 . S
C371 O377 1.208 . S
C372 O364 1.315 . S
C372 O367 1.279 . S
C373 O374 1.315 . S
C373 O375 1.279 . S
O374 Cd366 2.223 . S
O374 C373 1.315 . S
O375 Cd365 2.240 . S
O375 C373 1.279 . S
O376 Cd366 2.297 . S
O376 C371 1.247 . S
O377 Cd366 2.439 . S
O377 C371 1.208 . S
O378 Cd379 2.223 . S
O378 C386 1.315 . S
Cd379 O378 2.223 . S
Cd379 O382 2.297 . S
Cd379 O383 2.439 . S
Cd379 O389 2.240 . S
Cd380 O381 2.240 . S
Cd380 O388 2.223 . S
Cd380 O390 2.297 . S
Cd380 O391 2.439 . S
O381 Cd380 2.240 . S
O381 C386 1.279 . S
O382 Cd379 2.297 . S
O382 C384 1.247 . S
O383 Cd379 2.439 . S
O383 C384 1.208 . S
C384 O382 1.247 . S
C384 O383 1.208 . S
C385 O390 1.247 . S
C385 O391 1.208 . S
C386 O378 1.315 . S
C386 O381 1.279 . S
C387 O388 1.315 . S
C387 O389 1.279 . S
O388 Cd380 2.223 . S
O388 C387 1.315 . S
O389 Cd379 2.240 . S
O389 C387 1.279 . S
O390 Cd380 2.297 . S
O390 C385 1.247 . S
O391 Cd380 2.439 . S
O391 C385 1.208 . S
O392 Cd393 2.223 . S
O392 C400 1.315 . S
Cd393 O392 2.223 . S
Cd393 O396 2.297 . S
Cd393 O397 2.439 . S
Cd393 O403 2.240 . S
Cd394 O395 2.240 . S
Cd394 O402 2.223 . S
Cd394 O404 2.297 . S
Cd394 O405 2.439 . S
O395 Cd394 2.240 . S
O395 C400 1.279 . S
O396 Cd393 2.297 . S
O396 C398 1.247 . S
O397 Cd393 2.439 . S
O397 C398 1.208 . S
C398 O396 1.247 . S
C398 O397 1.208 . S
C399 O404 1.247 . S
C399 O405 1.208 . S
C400 O392 1.315 . S
C400 O395 1.279 . S
C401 O402 1.315 . S
C401 O403 1.279 . S
O402 Cd394 2.223 . S
O402 C401 1.315 . S
O403 Cd393 2.240 . S
O403 C401 1.279 . S
O404 Cd394 2.297 . S
O404 C399 1.247 . S
O405 Cd394 2.439 . S
O405 C399 1.208 . S
O406 Cd407 2.223 . S
O406 C414 1.315 . S
Cd407 O406 2.223 . S
Cd407 O410 2.297 . S
Cd407 O411 2.439 . S
Cd407 O417 2.240 . S
Cd408 O409 2.240 . S
Cd408 O416 2.223 . S
Cd408 O418 2.297 . S
Cd408 O419 2.439 . S
O409 Cd408 2.240 . S
O409 C414 1.279 . S
O410 Cd407 2.297 . S
O410 C412 1.247 . S
O411 Cd407 2.439 . S
O411 C412 1.208 . S
C412 O410 1.247 . S
C412 O411 1.208 . S
C413 O418 1.247 . S
C413 O419 1.208 . S
C414 O406 1.315 . S
C414 O409 1.279 . S
C415 O416 1.315 . S
C415 O417 1.279 . S
O416 Cd408 2.223 . S
O416 C415 1.315 . S
O417 Cd407 2.240 . S
O417 C415 1.279 . S
O418 Cd408 2.297 . S
O418 C413 1.247 . S
O419 Cd408 2.439 . S
O419 C413 1.208 . S
O420 Cd421 2.223 . S
O420 C428 1.315 . S
Cd421 O420 2.223 . S
Cd421 O424 2.297 . S
Cd421 O425 2.439 . S
Cd421 O431 2.240 . S
Cd422 O423 2.240 . S
Cd422 O430 2.223 . S
Cd422 O432 2.297 . S
Cd422 O433 2.439 . S
O423 Cd422 2.240 . S
O423 C428 1.279 . S
O424 Cd421 2.297 . S
O424 C426 1.247 . S
O425 Cd421 2.439 . S
O425 C426 1.208 . S
C426 O424 1.247 . S
C426 O425 1.208 . S
C427 O432 1.247 . S
C427 O433 1.208 . S
C428 O420 1.315 . S
C428 O423 1.279 . S
C429 O430 1.315 . S
C429 O431 1.279 . S
O430 Cd422 2.223 . S
O430 C429 1.315 . S
O431 Cd421 2.240 . S
O431 C429 1.279 . S
O432 Cd422 2.297 . S
O432 C427 1.247 . S
O433 Cd422 2.439 . S
O433 C427 1.208 . S
O434 Cd435 2.223 . S
O434 C442 1.315 . S
Cd435 O434 2.223 . S
Cd435 O438 2.297 . S
Cd435 O439 2.439 . S
Cd435 O445 2.240 . S
Cd436 O437 2.240 . S
Cd436 O444 2.223 . S
Cd436 O446 2.297 . S
Cd436 O447 2.439 . S
O437 Cd436 2.240 . S
O437 C442 1.279 . S
O438 Cd435 2.297 . S
O438 C440 1.247 . S
O439 Cd435 2.439 . S
O439 C440 1.208 . S
C440 O438 1.247 . S
C440 O439 1.208 . S
C441 O446 1.247 . S
C441 O447 1.208 . S
C442 O434 1.315 . S
C442 O437 1.279 . S
C443 O444 1.315 . S
C443 O445 1.279 . S
O444 Cd436 2.223 . S
O444 C443 1.315 . S
O445 Cd435 2.240 . S
O445 C443 1.279 . S
O446 Cd436 2.297 . S
O446 C441 1.247 . S
O447 Cd436 2.439 . S
O447 C441 1.208 . S
O448 Cd449 2.223 . S
O448 C456 1.315 . S
Cd449 O448 2.223 . S
Cd449 O452 2.297 . S
Cd449 O453 2.439 . S
Cd449 O459 2.240 . S
Cd450 O451 2.240 . S
Cd450 O458 2.223 . S
Cd450 O460 2.297 . S
Cd450 O461 2.439 . S
O451 Cd450 2.240 . S
O451 C456 1.279 . S
O452 Cd449 2.297 . S
O452 C454 1.247 . S
O453 Cd449 2.439 . S
O453 C454 1.208 . S
C454 O452 1.247 . S
C454 O453 1.208 . S
C455 O460 1.247 . S
C455 O461 1.208 . S
C456 O448 1.315 . S
C456 O451 1.279 . S
C457 O458 1.315 . S
C457 O459 1.279 . S
O458 Cd450 2.223 . S
O458 C457 1.315 . S
O459 Cd449 2.240 . S
O459 C457 1.279 . S
O460 Cd450 2.297 . S
O460 C455 1.247 . S
O461 Cd450 2.439 . S
O461 C455 1.208 . S
O462 Cd463 2.223 . S
O462 C470 1.315 . S
Cd463 O462 2.223 . S
Cd463 O466 2.297 . S
Cd463 O467 2.439 . S
Cd463 O473 2.240 . S
Cd464 O465 2.240 . S
Cd464 O472 2.223 . S
Cd464 O474 2.297 . S
Cd464 O475 2.439 . S
O465 Cd464 2.240 . S
O465 C470 1.279 . S
O466 Cd463 2.297 . S
O466 C468 1.247 . S
O467 Cd463 2.439 . S
O467 C468 1.208 . S
C468 O466 1.247 . S
C468 O467 1.208 . S
C469 O474 1.247 . S
C469 O475 1.208 . S
C470 O462 1.315 . S
C470 O465 1.279 . S
C471 O472 1.315 . S
C471 O473 1.279 . S
O472 Cd464 2.223 . S
O472 C471 1.315 . S
O473 Cd463 2.240 . S
O473 C471 1.279 . S
O474 Cd464 2.297 . S
O474 C469 1.247 . S
O475 Cd464 2.439 . S
O475 C469 1.208 . S
O476 Cd477 2.223 . S
O476 C484 1.315 . S
Cd477 O476 2.223 . S
Cd477 O480 2.297 . S
Cd477 O481 2.439 . S
Cd477 O487 2.240 . S
Cd478 O479 2.240 . S
Cd478 O486 2.223 . S
Cd478 O488 2.297 . S
Cd478 O489 2.439 . S
O479 Cd478 2.240 . S
O479 C484 1.279 . S
O480 Cd477 2.297 . S
O480 C482 1.247 . S
O481 Cd477 2.439 . S
O481 C482 1.208 . S
C482 O480 1.247 . S
C482 O481 1.208 . S
C483 O488 1.247 . S
C483 O489 1.208 . S
C484 O476 1.315 . S
C484 O479 1.279 . S
C485 O486 1.315 . S
C485 O487 1.279 . S
O486 Cd478 2.223 . S
O486 C485 1.315 . S
O487 Cd477 2.240 . S
O487 C485 1.279 . S
O488 Cd478 2.297 . S
O488 C483 1.247 . S
O489 Cd478 2.439 . S
O489 C483 1.208 . S
O490 Cd491 2.223 . S
O490 C498 1.315 . S
Cd491 O490 2.223 . S
Cd491 O494 2.297 . S
Cd491 O495 2.439 . S
Cd491 O501 2.240 . S
Cd492 O493 2.240 . S
Cd492 O500 2.223 . S
Cd492 O502 2.297 . S
Cd492 O503 2.439 . S
O493 Cd492 2.240 . S
O493 C498 1.279 . S
O494 Cd491 2.297 . S
O494 C496 1.247 . S
O495 Cd491 2.439 . S
O495 C496 1.208 . S
C496 O494 1.247 . S
C496 O495 1.208 . S
C497 O502 1.247 . S
C497 O503 1.208 . S
C498 O490 1.315 . S
C498 O493 1.279 . S
C499 O500 1.315 . S
C499 O501 1.279 . S
O500 Cd492 2.223 . S
O500 C499 1.315 . S
O501 Cd491 2.240 . S
O501 C499 1.279 . S
O502 Cd492 2.297 . S
O502 C497 1.247 . S
O503 Cd492 2.439 . S
O503 C497 1.208 . S
O504 Cd505 2.223 . S
O504 C512 1.315 . S
Cd505 O504 2.223 . S
Cd505 O508 2.297 . S
Cd505 O509 2.439 . S
Cd505 O515 2.240 . S
Cd506 O507 2.240 . S
Cd506 O514 2.223 . S
Cd506 O516 2.297 . S
Cd506 O517 2.439 . S
O507 Cd506 2.240 . S
O507 C512 1.279 . S
O508 Cd505 2.297 . S
O508 C510 1.247 . S
O509 Cd505 2.439 . S
O509 C510 1.208 . S
C510 O508 1.247 . S
C510 O509 1.208 . S
C511 O516 1.247 . S
C511 O517 1.208 . S
C512 O504 1.315 . S
C512 O507 1.279 . S
C513 O514 1.315 . S
C513 O515 1.279 . S
O514 Cd506 2.223 . S
O514 C513 1.315 . S
O515 Cd505 2.240 . S
O515 C513 1.279 . S
O516 Cd506 2.297 . S
O516 C511 1.247 . S
O517 Cd506 2.439 . S
O517 C511 1.208 . S
O518 Cd519 2.223 . S
O518 C526 1.315 . S
Cd519 O518 2.223 . S
Cd519 O522 2.297 . S
Cd519 O523 2.439 . S
Cd519 O529 2.240 . S
Cd520 O521 2.240 . S
Cd520 O528 2.223 . S
Cd520 O530 2.297 . S
Cd520 O531 2.439 . S
O521 Cd520 2.240 . S
O521 C526 1.279 . S
O522 Cd519 2.297 . S
O522 C524 1.247 . S
O523 Cd519 2.439 . S
O523 C524 1.208 . S
C524 O522 1.247 . S
C524 O523 1.208 . S
C525 O530 1.247 . S
C525 O531 1.208 . S
C526 O518 1.315 . S
C526 O521 1.279 . S
C527 O528 1.315 . S
C527 O529 1.279 . S
O528 Cd520 2.223 . S
O528 C527 1.315 . S
O529 Cd519 2.240 . S
O529 C527 1.279 . S
O530 Cd520 2.297 . S
O530 C525 1.247 . S
O531 Cd520 2.439 . S
O531 C525 1.208 . S
O532 Cd533 2.223 . S
O532 C540 1.315 . S
Cd533 O532 2.223 . S
Cd533 O536 2.297 . S
Cd533 O537 2.439 . S
Cd533 O543 2.240 . S
Cd534 O535 2.240 . S
Cd534 O542 2.223 . S
Cd534 O544 2.297 . S
Cd534 O545 2.439 . S
O535 Cd534 2.240 . S
O535 C540 1.279 . S
O536 Cd533 2.297 . S
O536 C538 1.247 . S
O537 Cd533 2.439 . S
O537 C538 1.208 . S
C538 O536 1.247 . S
C538 O537 1.208 . S
C539 O544 1.247 . S
C539 O545 1.208 . S
C540 O532 1.315 . S
C540 O535 1.279 . S
C541 O542 1.315 . S
C541 O543 1.279 . S
O542 Cd534 2.223 . S
O542 C541 1.315 . S
O543 Cd533 2.240 . S
O543 C541 1.279 . S
O544 Cd534 2.297 . S
O544 C539 1.247 . S
O545 Cd534 2.439 . S
O545 C539 1.208 . S
O546 Cd547 2.223 . S
O546 C554 1.315 . S
Cd547 O546 2.223 . S
Cd547 O550 2.297 . S
Cd547 O551 2.439 . S
Cd547 O557 2.240 . S
Cd548 O549 2.240 . S
Cd548 O556 2.223 . S
Cd548 O558 2.297 . S
Cd548 O559 2.439 . S
O549 Cd548 2.240 . S
O549 C554 1.279 . S
O550 Cd547 2.297 . S
O550 C552 1.247 . S
O551 Cd547 2.439 . S
O551 C552 1.208 . S
C552 O550 1.247 . S
C552 O551 1.208 . S
C553 O558 1.247 . S
C553 O559 1.208 . S
C554 O546 1.315 . S
C554 O549 1.279 . S
C555 O556 1.315 . S
C555 O557 1.279 . S
O556 Cd548 2.223 . S
O556 C555 1.315 . S
O557 Cd547 2.240 . S
O557 C555 1.279 . S
O558 Cd548 2.297 . S
O558 C553 1.247 . S
O559 Cd548 2.439 . S
O559 C553 1.208 . S
O560 Cd561 2.223 . S
O560 C568 1.315 . S
Cd561 O560 2.223 . S
Cd561 O564 2.297 . S
Cd561 O565 2.439 . S
Cd561 O571 2.240 . S
Cd562 O563 2.240 . S
Cd562 O570 2.223 . S
Cd562 O572 2.297 . S
Cd562 O573 2.439 . S
O563 Cd562 2.240 . S
O563 C568 1.279 . S
O564 Cd561 2.297 . S
O564 C566 1.247 . S
O565 Cd561 2.439 . S
O565 C566 1.208 . S
C566 O564 1.247 . S
C566 O565 1.208 . S
C567 O572 1.247 . S
C567 O573 1.208 . S
C568 O560 1.315 . S
C568 O563 1.279 . S
C569 O570 1.315 . S
C569 O571 1.279 . S
O570 Cd562 2.223 . S
O570 C569 1.315 . S
O571 Cd561 2.240 . S
O571 C569 1.279 . S
O572 Cd562 2.297 . S
O572 C567 1.247 . S
O573 Cd562 2.439 . S
O573 C567 1.208 . S
O574 Cd575 2.223 . S
O574 C582 1.315 . S
Cd575 O574 2.223 . S
Cd575 O578 2.297 . S
Cd575 O579 2.439 . S
Cd575 O585 2.240 . S
Cd576 O577 2.240 . S
Cd576 O584 2.223 . S
Cd576 O586 2.297 . S
Cd576 O587 2.439 . S
O577 Cd576 2.240 . S
O577 C582 1.279 . S
O578 Cd575 2.297 . S
O578 C580 1.247 . S
O579 Cd575 2.439 . S
O579 C580 1.208 . S
C580 O578 1.247 . S
C580 O579 1.208 . S
C581 O586 1.247 . S
C581 O587 1.208 . S
C582 O574 1.315 . S
C582 O577 1.279 . S
C583 O584 1.315 . S
C583 O585 1.279 . S
O584 Cd576 2.223 . S
O584 C583 1.315 . S
O585 Cd575 2.240 . S
O585 C583 1.279 . S
O586 Cd576 2.297 . S
O586 C581 1.247 . S
O587 Cd576 2.439 . S
O587 C581 1.208 . S
O588 Cd589 2.223 . S
O588 C596 1.315 . S
Cd589 O588 2.223 . S
Cd589 O592 2.297 . S
Cd589 O593 2.439 . S
Cd589 O599 2.240 . S
Cd590 O591 2.240 . S
Cd590 O598 2.223 . S
Cd590 O600 2.297 . S
Cd590 O601 2.439 . S
O591 Cd590 2.240 . S
O591 C596 1.279 . S
O592 Cd589 2.297 . S
O592 C594 1.247 . S
O593 Cd589 2.439 . S
O593 C594 1.208 . S
C594 O592 1.247 . S
C594 O593 1.208 . S
C595 O600 1.247 . S
C595 O601 1.208 . S
C596 O588 1.315 . S
C596 O591 1.279 . S
C597 O598 1.315 . S
C597 O599 1.279 . S
O598 Cd590 2.223 . S
O598 C597 1.315 . S
O599 Cd589 2.240 . S
O599 C597 1.279 . S
O600 Cd590 2.297 . S
O600 C595 1.247 . S
O601 Cd590 2.439 . S
O601 C595 1.208 . S
O602 Cd603 2.223 . S
O602 C610 1.315 . S
Cd603 O602 2.223 . S
Cd603 O606 2.297 . S
Cd603 O607 2.439 . S
Cd603 O613 2.240 . S
Cd604 O605 2.240 . S
Cd604 O612 2.223 . S
Cd604 O614 2.297 . S
Cd604 O615 2.439 . S
O605 Cd604 2.240 . S
O605 C610 1.279 . S
O606 Cd603 2.297 . S
O606 C608 1.247 . S
O607 Cd603 2.439 . S
O607 C608 1.208 . S
C608 O606 1.247 . S
C608 O607 1.208 . S
C609 O614 1.247 . S
C609 O615 1.208 . S
C610 O602 1.315 . S
C610 O605 1.279 . S
C611 O612 1.315 . S
C611 O613 1.279 . S
O612 Cd604 2.223 . S
O612 C611 1.315 . S
O613 Cd603 2.240 . S
O613 C611 1.279 . S
O614 Cd604 2.297 . S
O614 C609 1.247 . S
O615 Cd604 2.439 . S
O615 C609 1.208 . S
O616 Cd617 2.223 . S
O616 C624 1.315 . S
Cd617 O616 2.223 . S
Cd617 O620 2.297 . S
Cd617 O621 2.439 . S
Cd617 O627 2.240 . S
Cd618 O619 2.240 . S
Cd618 O626 2.223 . S
Cd618 O628 2.297 . S
Cd618 O629 2.439 . S
O619 Cd618 2.240 . S
O619 C624 1.279 . S
O620 Cd617 2.297 . S
O620 C622 1.247 . S
O621 Cd617 2.439 . S
O621 C622 1.208 . S
C622 O620 1.247 . S
C622 O621 1.208 . S
C623 O628 1.247 . S
C623 O629 1.208 . S
C624 O616 1.315 . S
C624 O619 1.279 . S
C625 O626 1.315 . S
C625 O627 1.279 . S
O626 Cd618 2.223 . S
O626 C625 1.315 . S
O627 Cd617 2.240 . S
O627 C625 1.279 . S
O628 Cd618 2.297 . S
O628 C623 1.247 . S
O629 Cd618 2.439 . S
O629 C623 1.208 . S
O630 Cd631 2.223 . S
O630 C638 1.315 . S
Cd631 O630 2.223 . S
Cd631 O634 2.297 . S
Cd631 O635 2.439 . S
Cd631 O641 2.240 . S
Cd632 O633 2.240 . S
Cd632 O640 2.223 . S
Cd632 O642 2.297 . S
Cd632 O643 2.439 . S
O633 Cd632 2.240 . S
O633 C638 1.279 . S
O634 Cd631 2.297 . S
O634 C636 1.247 . S
O635 Cd631 2.439 . S
O635 C636 1.208 . S
C636 O634 1.247 . S
C636 O635 1.208 . S
C637 O642 1.247 . S
C637 O643 1.208 . S
C638 O630 1.315 . S
C638 O633 1.279 . S
C639 O640 1.315 . S
C639 O641 1.279 . S
O640 Cd632 2.223 . S
O640 C639 1.315 . S
O641 Cd631 2.240 . S
O641 C639 1.279 . S
O642 Cd632 2.297 . S
O642 C637 1.247 . S
O643 Cd632 2.439 . S
O643 C637 1.208 . S
O644 Cd645 2.223 . S
O644 C652 1.315 . S
Cd645 O644 2.223 . S
Cd645 O648 2.297 . S
Cd645 O649 2.439 . S
Cd645 O655 2.240 . S
Cd646 O647 2.240 . S
Cd646 O654 2.223 . S
Cd646 O656 2.297 . S
Cd646 O657 2.439 . S
O647 Cd646 2.240 . S
O647 C652 1.279 . S
O648 Cd645 2.297 . S
O648 C650 1.247 . S
O649 Cd645 2.439 . S
O649 C650 1.208 . S
C650 O648 1.247 . S
C650 O649 1.208 . S
C651 O656 1.247 . S
C651 O657 1.208 . S
C652 O644 1.315 . S
C652 O647 1.279 . S
C653 O654 1.315 . S
C653 O655 1.279 . S
O654 Cd646 2.223 . S
O654 C653 1.315 . S
O655 Cd645 2.240 . S
O655 C653 1.279 . S
O656 Cd646 2.297 . S
O656 C651 1.247 . S
O657 Cd646 2.439 . S
O657 C651 1.208 . S
O658 Cd659 2.223 . S
O658 C666 1.315 . S
Cd659 O658 2.223 . S
Cd659 O662 2.297 . S
Cd659 O663 2.439 . S
Cd659 O669 2.240 . S
Cd660 O661 2.240 . S
Cd660 O668 2.223 . S
Cd660 O670 2.297 . S
Cd660 O671 2.439 . S
O661 Cd660 2.240 . S
O661 C666 1.279 . S
O662 Cd659 2.297 . S
O662 C664 1.247 . S
O663 Cd659 2.439 . S
O663 C664 1.208 . S
C664 O662 1.247 . S
C664 O663 1.208 . S
C665 O670 1.247 . S
C665 O671 1.208 . S
C666 O658 1.315 . S
C666 O661 1.279 . S
C667 O668 1.315 . S
C667 O669 1.279 . S
O668 Cd660 2.223 . S
O668 C667 1.315 . S
O669 Cd659 2.240 . S
O669 C667 1.279 . S
O670 Cd660 2.297 . S
O670 C665 1.247 . S
O671 Cd660 2.439 . S
O671 C665 1.208 . S
H672 C680 0.950 . S
H673 C685 0.950 . S
H674 C682 0.950 . S
H675 C684 0.950 . S
H676 C686 0.950 . S
H677 C688 0.950 . S
H678 C690 0.950 . S
H679 C691 0.950 . S
C680 H672 0.950 . S
C680 C681 1.386 . S
C680 C682 1.391 . S
C681 C680 1.386 . S
C681 C685 1.393 . S
C682 H674 0.950 . S
C682 C680 1.391 . S
C682 C683 1.400 . S
C683 C682 1.400 . S
C683 C684 1.398 . S
C683 C689 1.491 . S
C684 H675 0.950 . S
C684 C683 1.398 . S
C684 C685 1.391 . S
C685 H673 0.950 . S
C685 C681 1.393 . S
C685 C684 1.391 . S
C686 H676 0.950 . S
C686 C687 1.386 . S
C686 C688 1.391 . S
C687 C686 1.386 . S
C687 C691 1.393 . S
C688 H677 0.950 . S
C688 C686 1.391 . S
C688 C689 1.400 . S
C689 C683 1.491 . S
C689 C688 1.400 . S
C689 C690 1.398 . S
C690 H678 0.950 . S
C690 C689 1.398 . S
C690 C691 1.391 . S
C691 H679 0.950 . S
C691 C687 1.393 . S
C691 C690 1.391 . S
H692 C700 0.950 . S
H693 C705 0.950 . S
H694 C702 0.950 . S
H695 C704 0.950 . S
H696 C706 0.950 . S
H697 C708 0.950 . S
H698 C710 0.950 . S
H699 C711 0.950 . S
C700 H692 0.950 . S
C700 C701 1.386 . S
C700 C702 1.391 . S
C701 C700 1.386 . S
C701 C705 1.393 . S
C702 H694 0.950 . S
C702 C700 1.391 . S
C702 C703 1.400 . S
C703 C702 1.400 . S
C703 C704 1.398 . S
C703 C709 1.491 . S
C704 H695 0.950 . S
C704 C703 1.398 . S
C704 C705 1.391 . S
C705 H693 0.950 . S
C705 C701 1.393 . S
C705 C704 1.391 . S
C706 H696 0.950 . S
C706 C707 1.386 . S
C706 C708 1.391 . S
C707 C706 1.386 . S
C707 C711 1.393 . S
C708 H697 0.950 . S
C708 C706 1.391 . S
C708 C709 1.400 . S
C709 C703 1.491 . S
C709 C708 1.400 . S
C709 C710 1.398 . S
C710 H698 0.950 . S
C710 C709 1.398 . S
C710 C711 1.391 . S
C711 H699 0.950 . S
C711 C707 1.393 . S
C711 C710 1.391 . S
H712 C720 0.950 . S
H713 C725 0.950 . S
H714 C722 0.950 . S
H715 C724 0.950 . S
H716 C726 0.950 . S
H717 C728 0.950 . S
H718 C730 0.950 . S
H719 C731 0.950 . S
C720 H712 0.950 . S
C720 C721 1.386 . S
C720 C722 1.391 . S
C721 C720 1.386 . S
C721 C725 1.393 . S
C722 H714 0.950 . S
C722 C720 1.391 . S
C722 C723 1.400 . S
C723 C722 1.400 . S
C723 C724 1.398 . S
C723 C729 1.491 . S
C724 H715 0.950 . S
C724 C723 1.398 . S
C724 C725 1.391 . S
C725 H713 0.950 . S
C725 C721 1.393 . S
C725 C724 1.391 . S
C726 H716 0.950 . S
C726 C727 1.386 . S
C726 C728 1.391 . S
C727 C726 1.386 . S
C727 C731 1.393 . S
C728 H717 0.950 . S
C728 C726 1.391 . S
C728 C729 1.400 . S
C729 C723 1.491 . S
C729 C728 1.400 . S
C729 C730 1.398 . S
C730 H718 0.950 . S
C730 C729 1.398 . S
C730 C731 1.391 . S
C731 H719 0.950 . S
C731 C727 1.393 . S
C731 C730 1.391 . S
H732 C740 0.950 . S
H733 C745 0.950 . S
H734 C742 0.950 . S
H735 C744 0.950 . S
H736 C746 0.950 . S
H737 C748 0.950 . S
H738 C750 0.950 . S
H739 C751 0.950 . S
C740 H732 0.950 . S
C740 C741 1.386 . S
C740 C742 1.391 . S
C741 C740 1.386 . S
C741 C745 1.393 . S
C742 H734 0.950 . S
C742 C740 1.391 . S
C742 C743 1.400 . S
C743 C742 1.400 . S
C743 C744 1.398 . S
C743 C749 1.491 . S
C744 H735 0.950 . S
C744 C743 1.398 . S
C744 C745 1.391 . S
C745 H733 0.950 . S
C745 C741 1.393 . S
C745 C744 1.391 . S
C746 H736 0.950 . S
C746 C747 1.386 . S
C746 C748 1.391 . S
C747 C746 1.386 . S
C747 C751 1.393 . S
C748 H737 0.950 . S
C748 C746 1.391 . S
C748 C749 1.400 . S
C749 C743 1.491 . S
C749 C748 1.400 . S
C749 C750 1.398 . S
C750 H738 0.950 . S
C750 C749 1.398 . S
C750 C751 1.391 . S
C751 H739 0.950 . S
C751 C747 1.393 . S
C751 C750 1.391 . S
H752 C760 0.950 . S
H753 C765 0.950 . S
H754 C762 0.950 . S
H755 C764 0.950 . S
H756 C766 0.950 . S
H757 C768 0.950 . S
H758 C770 0.950 . S
H759 C771 0.950 . S
C760 H752 0.950 . S
C760 C761 1.386 . S
C760 C762 1.391 . S
C761 C760 1.386 . S
C761 C765 1.393 . S
C762 H754 0.950 . S
C762 C760 1.391 . S
C762 C763 1.400 . S
C763 C762 1.400 . S
C763 C764 1.398 . S
C763 C769 1.491 . S
C764 H755 0.950 . S
C764 C763 1.398 . S
C764 C765 1.391 . S
C765 H753 0.950 . S
C765 C761 1.393 . S
C765 C764 1.391 . S
C766 H756 0.950 . S
C766 C767 1.386 . S
C766 C768 1.391 . S
C767 C766 1.386 . S
C767 C771 1.393 . S
C768 H757 0.950 . S
C768 C766 1.391 . S
C768 C769 1.400 . S
C769 C763 1.491 . S
C769 C768 1.400 . S
C769 C770 1.398 . S
C770 H758 0.950 . S
C770 C769 1.398 . S
C770 C771 1.391 . S
C771 H759 0.950 . S
C771 C767 1.393 . S
C771 C770 1.391 . S
H772 C780 0.950 . S
H773 C785 0.950 . S
H774 C782 0.950 . S
H775 C784 0.950 . S
H776 C786 0.950 . S
H777 C788 0.950 . S
H778 C790 0.950 . S
H779 C791 0.950 . S
C780 H772 0.950 . S
C780 C781 1.386 . S
C780 C782 1.391 . S
C781 C780 1.386 . S
C781 C785 1.393 . S
C782 H774 0.950 . S
C782 C780 1.391 . S
C782 C783 1.400 . S
C783 C782 1.400 . S
C783 C784 1.398 . S
C783 C789 1.491 . S
C784 H775 0.950 . S
C784 C783 1.398 . S
C784 C785 1.391 . S
C785 H773 0.950 . S
C785 C781 1.393 . S
C785 C784 1.391 . S
C786 H776 0.950 . S
C786 C787 1.386 . S
C786 C788 1.391 . S
C787 C786 1.386 . S
C787 C791 1.393 . S
C788 H777 0.950 . S
C788 C786 1.391 . S
C788 C789 1.400 . S
C789 C783 1.491 . S
C789 C788 1.400 . S
C789 C790 1.398 . S
C790 H778 0.950 . S
C790 C789 1.398 . S
C790 C791 1.391 . S
C791 H779 0.950 . S
C791 C787 1.393 . S
C791 C790 1.391 . S
H792 C800 0.950 . S
H793 C805 0.950 . S
H794 C802 0.950 . S
H795 C804 0.950 . S
H796 C806 0.950 . S
H797 C808 0.950 . S
H798 C810 0.950 . S
H799 C811 0.950 . S
C800 H792 0.950 . S
C800 C801 1.386 . S
C800 C802 1.391 . S
C801 C800 1.386 . S
C801 C805 1.393 . S
C802 H794 0.950 . S
C802 C800 1.391 . S
C802 C803 1.400 . S
C803 C802 1.400 . S
C803 C804 1.398 . S
C803 C809 1.491 . S
C804 H795 0.950 . S
C804 C803 1.398 . S
C804 C805 1.391 . S
C805 H793 0.950 . S
C805 C801 1.393 . S
C805 C804 1.391 . S
C806 H796 0.950 . S
C806 C807 1.386 . S
C806 C808 1.391 . S
C807 C806 1.386 . S
C807 C811 1.393 . S
C808 H797 0.950 . S
C808 C806 1.391 . S
C808 C809 1.400 . S
C809 C803 1.491 . S
C809 C808 1.400 . S
C809 C810 1.398 . S
C810 H798 0.950 . S
C810 C809 1.398 . S
C810 C811 1.391 . S
C811 H799 0.950 . S
C811 C807 1.393 . S
C811 C810 1.391 . S
H812 C820 0.950 . S
H813 C825 0.950 . S
H814 C822 0.950 . S
H815 C824 0.950 . S
H816 C826 0.950 . S
H817 C828 0.950 . S
H818 C830 0.950 . S
H819 C831 0.950 . S
C820 H812 0.950 . S
C820 C821 1.386 . S
C820 C822 1.391 . S
C821 C820 1.386 . S
C821 C825 1.393 . S
C822 H814 0.950 . S
C822 C820 1.391 . S
C822 C823 1.400 . S
C823 C822 1.400 . S
C823 C824 1.398 . S
C823 C829 1.491 . S
C824 H815 0.950 . S
C824 C823 1.398 . S
C824 C825 1.391 . S
C825 H813 0.950 . S
C825 C821 1.393 . S
C825 C824 1.391 . S
C826 H816 0.950 . S
C826 C827 1.386 . S
C826 C828 1.391 . S
C827 C826 1.386 . S
C827 C831 1.393 . S
C828 H817 0.950 . S
C828 C826 1.391 . S
C828 C829 1.400 . S
C829 C823 1.491 . S
C829 C828 1.400 . S
C829 C830 1.398 . S
C830 H818 0.950 . S
C830 C829 1.398 . S
C830 C831 1.391 . S
C831 H819 0.950 . S
C831 C827 1.393 . S
C831 C830 1.391 . S
H832 C840 0.950 . S
H833 C845 0.950 . S
H834 C842 0.950 . S
H835 C844 0.950 . S
H836 C846 0.950 . S
H837 C848 0.950 . S
H838 C850 0.950 . S
H839 C851 0.950 . S
C840 H832 0.950 . S
C840 C841 1.386 . S
C840 C842 1.391 . S
C841 C840 1.386 . S
C841 C845 1.393 . S
C842 H834 0.950 . S
C842 C840 1.391 . S
C842 C843 1.400 . S
C843 C842 1.400 . S
C843 C844 1.398 . S
C843 C849 1.491 . S
C844 H835 0.950 . S
C844 C843 1.398 . S
C844 C845 1.391 . S
C845 H833 0.950 . S
C845 C841 1.393 . S
C845 C844 1.391 . S
C846 H836 0.950 . S
C846 C847 1.386 . S
C846 C848 1.391 . S
C847 C846 1.386 . S
C847 C851 1.393 . S
C848 H837 0.950 . S
C848 C846 1.391 . S
C848 C849 1.400 . S
C849 C843 1.491 . S
C849 C848 1.400 . S
C849 C850 1.398 . S
C850 H838 0.950 . S
C850 C849 1.398 . S
C850 C851 1.391 . S
C851 H839 0.950 . S
C851 C847 1.393 . S
C851 C850 1.391 . S
H852 C860 0.950 . S
H853 C865 0.950 . S
H854 C862 0.950 . S
H855 C864 0.950 . S
H856 C866 0.950 . S
H857 C868 0.950 . S
H858 C870 0.950 . S
H859 C871 0.950 . S
C860 H852 0.950 . S
C860 C861 1.386 . S
C860 C862 1.391 . S
C861 C860 1.386 . S
C861 C865 1.393 . S
C862 H854 0.950 . S
C862 C860 1.391 . S
C862 C863 1.400 . S
C863 C862 1.400 . S
C863 C864 1.398 . S
C863 C869 1.491 . S
C864 H855 0.950 . S
C864 C863 1.398 . S
C864 C865 1.391 . S
C865 H853 0.950 . S
C865 C861 1.393 . S
C865 C864 1.391 . S
C866 H856 0.950 . S
C866 C867 1.386 . S
C866 C868 1.391 . S
C867 C866 1.386 . S
C867 C871 1.393 . S
C868 H857 0.950 . S
C868 C866 1.391 . S
C868 C869 1.400 . S
C869 C863 1.491 . S
C869 C868 1.400 . S
C869 C870 1.398 . S
C870 H858 0.950 . S
C870 C869 1.398 . S
C870 C871 1.391 . S
C871 H859 0.950 . S
C871 C867 1.393 . S
C871 C870 1.391 . S
H872 C880 0.950 . S
H873 C885 0.950 . S
H874 C882 0.950 . S
H875 C884 0.950 . S
H876 C886 0.950 . S
H877 C888 0.950 . S
H878 C890 0.950 . S
H879 C891 0.950 . S
C880 H872 0.950 . S
C880 C881 1.386 . S
C880 C882 1.391 . S
C881 C880 1.386 . S
C881 C885 1.393 . S
C882 H874 0.950 . S
C882 C880 1.391 . S
C882 C883 1.400 . S
C883 C882 1.400 . S
C883 C884 1.398 . S
C883 C889 1.491 . S
C884 H875 0.950 . S
C884 C883 1.398 . S
C884 C885 1.391 . S
C885 H873 0.950 . S
C885 C881 1.393 . S
C885 C884 1.391 . S
C886 H876 0.950 . S
C886 C887 1.386 . S
C886 C888 1.391 . S
C887 C886 1.386 . S
C887 C891 1.393 . S
C888 H877 0.950 . S
C888 C886 1.391 . S
C888 C889 1.400 . S
C889 C883 1.491 . S
C889 C888 1.400 . S
C889 C890 1.398 . S
C890 H878 0.950 . S
C890 C889 1.398 . S
C890 C891 1.391 . S
C891 H879 0.950 . S
C891 C887 1.393 . S
C891 C890 1.391 . S
H892 C900 0.950 . S
H893 C905 0.950 . S
H894 C902 0.950 . S
H895 C904 0.950 . S
H896 C906 0.950 . S
H897 C908 0.950 . S
H898 C910 0.950 . S
H899 C911 0.950 . S
C900 H892 0.950 . S
C900 C901 1.386 . S
C900 C902 1.391 . S
C901 C900 1.386 . S
C901 C905 1.393 . S
C902 H894 0.950 . S
C902 C900 1.391 . S
C902 C903 1.400 . S
C903 C902 1.400 . S
C903 C904 1.398 . S
C903 C909 1.491 . S
C904 H895 0.950 . S
C904 C903 1.398 . S
C904 C905 1.391 . S
C905 H893 0.950 . S
C905 C901 1.393 . S
C905 C904 1.391 . S
C906 H896 0.950 . S
C906 C907 1.386 . S
C906 C908 1.391 . S
C907 C906 1.386 . S
C907 C911 1.393 . S
C908 H897 0.950 . S
C908 C906 1.391 . S
C908 C909 1.400 . S
C909 C903 1.491 . S
C909 C908 1.400 . S
C909 C910 1.398 . S
C910 H898 0.950 . S
C910 C909 1.398 . S
C910 C911 1.391 . S
C911 H899 0.950 . S
C911 C907 1.393 . S
C911 C910 1.391 . S
H912 C920 0.950 . S
H913 C925 0.950 . S
H914 C922 0.950 . S
H915 C924 0.950 . S
H916 C926 0.950 . S
H917 C928 0.950 . S
H918 C930 0.950 . S
H919 C931 0.950 . S
C920 H912 0.950 . S
C920 C921 1.386 . S
C920 C922 1.391 . S
C921 C920 1.386 . S
C921 C925 1.393 . S
C922 H914 0.950 . S
C922 C920 1.391 . S
C922 C923 1.400 . S
C923 C922 1.400 . S
C923 C924 1.398 . S
C923 C929 1.491 . S
C924 H915 0.950 . S
C924 C923 1.398 . S
C924 C925 1.391 . S
C925 H913 0.950 . S
C925 C921 1.393 . S
C925 C924 1.391 . S
C926 H916 0.950 . S
C926 C927 1.386 . S
C926 C928 1.391 . S
C927 C926 1.386 . S
C927 C931 1.393 . S
C928 H917 0.950 . S
C928 C926 1.391 . S
C928 C929 1.400 . S
C929 C923 1.491 . S
C929 C928 1.400 . S
C929 C930 1.398 . S
C930 H918 0.950 . S
C930 C929 1.398 . S
C930 C931 1.391 . S
C931 H919 0.950 . S
C931 C927 1.393 . S
C931 C930 1.391 . S
H932 C940 0.950 . S
H933 C945 0.950 . S
H934 C942 0.950 . S
H935 C944 0.950 . S
H936 C946 0.950 . S
H937 C948 0.950 . S
H938 C950 0.950 . S
H939 C951 0.950 . S
C940 H932 0.950 . S
C940 C941 1.386 . S
C940 C942 1.391 . S
C941 C940 1.386 . S
C941 C945 1.393 . S
C942 H934 0.950 . S
C942 C940 1.391 . S
C942 C943 1.400 . S
C943 C942 1.400 . S
C943 C944 1.398 . S
C943 C949 1.491 . S
C944 H935 0.950 . S
C944 C943 1.398 . S
C944 C945 1.391 . S
C945 H933 0.950 . S
C945 C941 1.393 . S
C945 C944 1.391 . S
C946 H936 0.950 . S
C946 C947 1.386 . S
C946 C948 1.391 . S
C947 C946 1.386 . S
C947 C951 1.393 . S
C948 H937 0.950 . S
C948 C946 1.391 . S
C948 C949 1.400 . S
C949 C943 1.491 . S
C949 C948 1.400 . S
C949 C950 1.398 . S
C950 H938 0.950 . S
C950 C949 1.398 . S
C950 C951 1.391 . S
C951 H939 0.950 . S
C951 C947 1.393 . S
C951 C950 1.391 . S
H952 C960 0.950 . S
H953 C965 0.950 . S
H954 C962 0.950 . S
H955 C964 0.950 . S
H956 C966 0.950 . S
H957 C968 0.950 . S
H958 C970 0.950 . S
H959 C971 0.950 . S
C960 H952 0.950 . S
C960 C961 1.386 . S
C960 C962 1.391 . S
C961 C960 1.386 . S
C961 C965 1.393 . S
C962 H954 0.950 . S
C962 C960 1.391 . S
C962 C963 1.400 . S
C963 C962 1.400 . S
C963 C964 1.398 . S
C963 C969 1.491 . S
C964 H955 0.950 . S
C964 C963 1.398 . S
C964 C965 1.391 . S
C965 H953 0.950 . S
C965 C961 1.393 . S
C965 C964 1.391 . S
C966 H956 0.950 . S
C966 C967 1.386 . S
C966 C968 1.391 . S
C967 C966 1.386 . S
C967 C971 1.393 . S
C968 H957 0.950 . S
C968 C966 1.391 . S
C968 C969 1.400 . S
C969 C963 1.491 . S
C969 C968 1.400 . S
C969 C970 1.398 . S
C970 H958 0.950 . S
C970 C969 1.398 . S
C970 C971 1.391 . S
C971 H959 0.950 . S
C971 C967 1.393 . S
C971 C970 1.391 . S
H972 C980 0.950 . S
H973 C985 0.950 . S
H974 C982 0.950 . S
H975 C984 0.950 . S
H976 C986 0.950 . S
H977 C988 0.950 . S
H978 C990 0.950 . S
H979 C991 0.950 . S
C980 H972 0.950 . S
C980 C981 1.386 . S
C980 C982 1.391 . S
C981 C980 1.386 . S
C981 C985 1.393 . S
C982 H974 0.950 . S
C982 C980 1.391 . S
C982 C983 1.400 . S
C983 C982 1.400 . S
C983 C984 1.398 . S
C983 C989 1.491 . S
C984 H975 0.950 . S
C984 C983 1.398 . S
C984 C985 1.391 . S
C985 H973 0.950 . S
C985 C981 1.393 . S
C985 C984 1.391 . S
C986 H976 0.950 . S
C986 C987 1.386 . S
C986 C988 1.391 . S
C987 C986 1.386 . S
C987 C991 1.393 . S
C988 H977 0.950 . S
C988 C986 1.391 . S
C988 C989 1.400 . S
C989 C983 1.491 . S
C989 C988 1.400 . S
C989 C990 1.398 . S
C990 H978 0.950 . S
C990 C989 1.398 . S
C990 C991 1.391 . S
C991 H979 0.950 . S
C991 C987 1.393 . S
C991 C990 1.391 . S
H992 C1000 0.950 . S
H993 C1005 0.950 . S
H994 C1002 0.950 . S
H995 C1004 0.950 . S
H996 C1006 0.950 . S
H997 C1008 0.950 . S
H998 C1010 0.950 . S
H999 C1011 0.950 . S
C1000 H992 0.950 . S
C1000 C1001 1.386 . S
C1000 C1002 1.391 . S
C1001 C1000 1.386 . S
C1001 C1005 1.393 . S
C1002 H994 0.950 . S
C1002 C1000 1.391 . S
C1002 C1003 1.400 . S
C1003 C1002 1.400 . S
C1003 C1004 1.398 . S
C1003 C1009 1.491 . S
C1004 H995 0.950 . S
C1004 C1003 1.398 . S
C1004 C1005 1.391 . S
C1005 H993 0.950 . S
C1005 C1001 1.393 . S
C1005 C1004 1.391 . S
C1006 H996 0.950 . S
C1006 C1007 1.386 . S
C1006 C1008 1.391 . S
C1007 C1006 1.386 . S
C1007 C1011 1.393 . S
C1008 H997 0.950 . S
C1008 C1006 1.391 . S
C1008 C1009 1.400 . S
C1009 C1003 1.491 . S
C1009 C1008 1.400 . S
C1009 C1010 1.398 . S
C1010 H998 0.950 . S
C1010 C1009 1.398 . S
C1010 C1011 1.391 . S
C1011 H999 0.950 . S
C1011 C1007 1.393 . S
C1011 C1010 1.391 . S
H1012 C1020 0.950 . S
H1013 C1025 0.950 . S
H1014 C1022 0.950 . S
H1015 C1024 0.950 . S
H1016 C1026 0.950 . S
H1017 C1028 0.950 . S
H1018 C1030 0.950 . S
H1019 C1031 0.950 . S
C1020 H1012 0.950 . S
C1020 C1021 1.386 . S
C1020 C1022 1.391 . S
C1021 C1020 1.386 . S
C1021 C1025 1.393 . S
C1022 H1014 0.950 . S
C1022 C1020 1.391 . S
C1022 C1023 1.400 . S
C1023 C1022 1.400 . S
C1023 C1024 1.398 . S
C1023 C1029 1.491 . S
C1024 H1015 0.950 . S
C1024 C1023 1.398 . S
C1024 C1025 1.391 . S
C1025 H1013 0.950 . S
C1025 C1021 1.393 . S
C1025 C1024 1.391 . S
C1026 H1016 0.950 . S
C1026 C1027 1.386 . S
C1026 C1028 1.391 . S
C1027 C1026 1.386 . S
C1027 C1031 1.393 . S
C1028 H1017 0.950 . S
C1028 C1026 1.391 . S
C1028 C1029 1.400 . S
C1029 C1023 1.491 . S
C1029 C1028 1.400 . S
C1029 C1030 1.398 . S
C1030 H1018 0.950 . S
C1030 C1029 1.398 . S
C1030 C1031 1.391 . S
C1031 H1019 0.950 . S
C1031 C1027 1.393 . S
C1031 C1030 1.391 . S
H1032 C1040 0.950 . S
H1033 C1045 0.950 . S
H1034 C1042 0.950 . S
H1035 C1044 0.950 . S
H1036 C1046 0.950 . S
H1037 C1048 0.950 . S
H1038 C1050 0.950 . S
H1039 C1051 0.950 . S
C1040 H1032 0.950 . S
C1040 C1041 1.386 . S
C1040 C1042 1.391 . S
C1041 C1040 1.386 . S
C1041 C1045 1.393 . S
C1042 H1034 0.950 . S
C1042 C1040 1.391 . S
C1042 C1043 1.400 . S
C1043 C1042 1.400 . S
C1043 C1044 1.398 . S
C1043 C1049 1.491 . S
C1044 H1035 0.950 . S
C1044 C1043 1.398 . S
C1044 C1045 1.391 . S
C1045 H1033 0.950 . S
C1045 C1041 1.393 . S
C1045 C1044 1.391 . S
C1046 H1036 0.950 . S
C1046 C1047 1.386 . S
C1046 C1048 1.391 . S
C1047 C1046 1.386 . S
C1047 C1051 1.393 . S
C1048 H1037 0.950 . S
C1048 C1046 1.391 . S
C1048 C1049 1.400 . S
C1049 C1043 1.491 . S
C1049 C1048 1.400 . S
C1049 C1050 1.398 . S
C1050 H1038 0.950 . S
C1050 C1049 1.398 . S
C1050 C1051 1.391 . S
C1051 H1039 0.950 . S
C1051 C1047 1.393 . S
C1051 C1050 1.391 . S
H1052 C1060 0.950 . S
H1053 C1065 0.950 . S
H1054 C1062 0.950 . S
H1055 C1064 0.950 . S
H1056 C1066 0.950 . S
H1057 C1068 0.950 . S
H1058 C1070 0.950 . S
H1059 C1071 0.950 . S
C1060 H1052 0.950 . S
C1060 C1061 1.386 . S
C1060 C1062 1.391 . S
C1061 C1060 1.386 . S
C1061 C1065 1.393 . S
C1062 H1054 0.950 . S
C1062 C1060 1.391 . S
C1062 C1063 1.400 . S
C1063 C1062 1.400 . S
C1063 C1064 1.398 . S
C1063 C1069 1.491 . S
C1064 H1055 0.950 . S
C1064 C1063 1.398 . S
C1064 C1065 1.391 . S
C1065 H1053 0.950 . S
C1065 C1061 1.393 . S
C1065 C1064 1.391 . S
C1066 H1056 0.950 . S
C1066 C1067 1.386 . S
C1066 C1068 1.391 . S
C1067 C1066 1.386 . S
C1067 C1071 1.393 . S
C1068 H1057 0.950 . S
C1068 C1066 1.391 . S
C1068 C1069 1.400 . S
C1069 C1063 1.491 . S
C1069 C1068 1.400 . S
C1069 C1070 1.398 . S
C1070 H1058 0.950 . S
C1070 C1069 1.398 . S
C1070 C1071 1.391 . S
C1071 H1059 0.950 . S
C1071 C1067 1.393 . S
C1071 C1070 1.391 . S
H1072 C1080 0.950 . S
H1073 C1085 0.950 . S
H1074 C1082 0.950 . S
H1075 C1084 0.950 . S
H1076 C1086 0.950 . S
H1077 C1088 0.950 . S
H1078 C1090 0.950 . S
H1079 C1091 0.950 . S
C1080 H1072 0.950 . S
C1080 C1081 1.386 . S
C1080 C1082 1.391 . S
C1081 C1080 1.386 . S
C1081 C1085 1.393 . S
C1082 H1074 0.950 . S
C1082 C1080 1.391 . S
C1082 C1083 1.400 . S
C1083 C1082 1.400 . S
C1083 C1084 1.398 . S
C1083 C1089 1.491 . S
C1084 H1075 0.950 . S
C1084 C1083 1.398 . S
C1084 C1085 1.391 . S
C1085 H1073 0.950 . S
C1085 C1081 1.393 . S
C1085 C1084 1.391 . S
C1086 H1076 0.950 . S
C1086 C1087 1.386 . S
C1086 C1088 1.391 . S
C1087 C1086 1.386 . S
C1087 C1091 1.393 . S
C1088 H1077 0.950 . S
C1088 C1086 1.391 . S
C1088 C1089 1.400 . S
C1089 C1083 1.491 . S
C1089 C1088 1.400 . S
C1089 C1090 1.398 . S
C1090 H1078 0.950 . S
C1090 C1089 1.398 . S
C1090 C1091 1.391 . S
C1091 H1079 0.950 . S
C1091 C1087 1.393 . S
C1091 C1090 1.391 . S
H1092 C1100 0.950 . S
H1093 C1105 0.950 . S
H1094 C1102 0.950 . S
H1095 C1104 0.950 . S
H1096 C1106 0.950 . S
H1097 C1108 0.950 . S
H1098 C1110 0.950 . S
H1099 C1111 0.950 . S
C1100 H1092 0.950 . S
C1100 C1101 1.386 . S
C1100 C1102 1.391 . S
C1101 C1100 1.386 . S
C1101 C1105 1.393 . S
C1102 H1094 0.950 . S
C1102 C1100 1.391 . S
C1102 C1103 1.400 . S
C1103 C1102 1.400 . S
C1103 C1104 1.398 . S
C1103 C1109 1.491 . S
C1104 H1095 0.950 . S
C1104 C1103 1.398 . S
C1104 C1105 1.391 . S
C1105 H1093 0.950 . S
C1105 C1101 1.393 . S
C1105 C1104 1.391 . S
C1106 H1096 0.950 . S
C1106 C1107 1.386 . S
C1106 C1108 1.391 . S
C1107 C1106 1.386 . S
C1107 C1111 1.393 . S
C1108 H1097 0.950 . S
C1108 C1106 1.391 . S
C1108 C1109 1.400 . S
C1109 C1103 1.491 . S
C1109 C1108 1.400 . S
C1109 C1110 1.398 . S
C1110 H1098 0.950 . S
C1110 C1109 1.398 . S
C1110 C1111 1.391 . S
C1111 H1099 0.950 . S
C1111 C1107 1.393 . S
C1111 C1110 1.391 . S
H1112 C1120 0.950 . S
H1113 C1125 0.950 . S
H1114 C1122 0.950 . S
H1115 C1124 0.950 . S
H1116 C1126 0.950 . S
H1117 C1128 0.950 . S
H1118 C1130 0.950 . S
H1119 C1131 0.950 . S
C1120 H1112 0.950 . S
C1120 C1121 1.386 . S
C1120 C1122 1.391 . S
C1121 C1120 1.386 . S
C1121 C1125 1.393 . S
C1122 H1114 0.950 . S
C1122 C1120 1.391 . S
C1122 C1123 1.400 . S
C1123 C1122 1.400 . S
C1123 C1124 1.398 . S
C1123 C1129 1.491 . S
C1124 H1115 0.950 . S
C1124 C1123 1.398 . S
C1124 C1125 1.391 . S
C1125 H1113 0.950 . S
C1125 C1121 1.393 . S
C1125 C1124 1.391 . S
C1126 H1116 0.950 . S
C1126 C1127 1.386 . S
C1126 C1128 1.391 . S
C1127 C1126 1.386 . S
C1127 C1131 1.393 . S
C1128 H1117 0.950 . S
C1128 C1126 1.391 . S
C1128 C1129 1.400 . S
C1129 C1123 1.491 . S
C1129 C1128 1.400 . S
C1129 C1130 1.398 . S
C1130 H1118 0.950 . S
C1130 C1129 1.398 . S
C1130 C1131 1.391 . S
C1131 H1119 0.950 . S
C1131 C1127 1.393 . S
C1131 C1130 1.391 . S
H1132 C1140 0.950 . S
H1133 C1145 0.950 . S
H1134 C1142 0.950 . S
H1135 C1144 0.950 . S
H1136 C1146 0.950 . S
H1137 C1148 0.950 . S
H1138 C1150 0.950 . S
H1139 C1151 0.950 . S
C1140 H1132 0.950 . S
C1140 C1141 1.386 . S
C1140 C1142 1.391 . S
C1141 C1140 1.386 . S
C1141 C1145 1.393 . S
C1142 H1134 0.950 . S
C1142 C1140 1.391 . S
C1142 C1143 1.400 . S
C1143 C1142 1.400 . S
C1143 C1144 1.398 . S
C1143 C1149 1.491 . S
C1144 H1135 0.950 . S
C1144 C1143 1.398 . S
C1144 C1145 1.391 . S
C1145 H1133 0.950 . S
C1145 C1141 1.393 . S
C1145 C1144 1.391 . S
C1146 H1136 0.950 . S
C1146 C1147 1.386 . S
C1146 C1148 1.391 . S
C1147 C1146 1.386 . S
C1147 C1151 1.393 . S
C1148 H1137 0.950 . S
C1148 C1146 1.391 . S
C1148 C1149 1.400 . S
C1149 C1143 1.491 . S
C1149 C1148 1.400 . S
C1149 C1150 1.398 . S
C1150 H1138 0.950 . S
C1150 C1149 1.398 . S
C1150 C1151 1.391 . S
C1151 H1139 0.950 . S
C1151 C1147 1.393 . S
C1151 C1150 1.391 . S
H1152 C1160 0.950 . S
H1153 C1165 0.950 . S
H1154 C1162 0.950 . S
H1155 C1164 0.950 . S
H1156 C1166 0.950 . S
H1157 C1168 0.950 . S
H1158 C1170 0.950 . S
H1159 C1171 0.950 . S
C1160 H1152 0.950 . S
C1160 C1161 1.386 . S
C1160 C1162 1.391 . S
C1161 C1160 1.386 . S
C1161 C1165 1.393 . S
C1162 H1154 0.950 . S
C1162 C1160 1.391 . S
C1162 C1163 1.400 . S
C1163 C1162 1.400 . S
C1163 C1164 1.398 . S
C1163 C1169 1.491 . S
C1164 H1155 0.950 . S
C1164 C1163 1.398 . S
C1164 C1165 1.391 . S
C1165 H1153 0.950 . S
C1165 C1161 1.393 . S
C1165 C1164 1.391 . S
C1166 H1156 0.950 . S
C1166 C1167 1.386 . S
C1166 C1168 1.391 . S
C1167 C1166 1.386 . S
C1167 C1171 1.393 . S
C1168 H1157 0.950 . S
C1168 C1166 1.391 . S
C1168 C1169 1.400 . S
C1169 C1163 1.491 . S
C1169 C1168 1.400 . S
C1169 C1170 1.398 . S
C1170 H1158 0.950 . S
C1170 C1169 1.398 . S
C1170 C1171 1.391 . S
C1171 H1159 0.950 . S
C1171 C1167 1.393 . S
C1171 C1170 1.391 . S
H1172 C1180 0.950 . S
H1173 C1185 0.950 . S
H1174 C1182 0.950 . S
H1175 C1184 0.950 . S
H1176 C1186 0.950 . S
H1177 C1188 0.950 . S
H1178 C1190 0.950 . S
H1179 C1191 0.950 . S
C1180 H1172 0.950 . S
C1180 C1181 1.386 . S
C1180 C1182 1.391 . S
C1181 C1180 1.386 . S
C1181 C1185 1.393 . S
C1182 H1174 0.950 . S
C1182 C1180 1.391 . S
C1182 C1183 1.400 . S
C1183 C1182 1.400 . S
C1183 C1184 1.398 . S
C1183 C1189 1.491 . S
C1184 H1175 0.950 . S
C1184 C1183 1.398 . S
C1184 C1185 1.391 . S
C1185 H1173 0.950 . S
C1185 C1181 1.393 . S
C1185 C1184 1.391 . S
C1186 H1176 0.950 . S
C1186 C1187 1.386 . S
C1186 C1188 1.391 . S
C1187 C1186 1.386 . S
C1187 C1191 1.393 . S
C1188 H1177 0.950 . S
C1188 C1186 1.391 . S
C1188 C1189 1.400 . S
C1189 C1183 1.491 . S
C1189 C1188 1.400 . S
C1189 C1190 1.398 . S
C1190 H1178 0.950 . S
C1190 C1189 1.398 . S
C1190 C1191 1.391 . S
C1191 H1179 0.950 . S
C1191 C1187 1.393 . S
C1191 C1190 1.391 . S
H1192 C1200 0.950 . S
H1193 C1205 0.950 . S
H1194 C1202 0.950 . S
H1195 C1204 0.950 . S
H1196 C1206 0.950 . S
H1197 C1208 0.950 . S
H1198 C1210 0.950 . S
H1199 C1211 0.950 . S
C1200 H1192 0.950 . S
C1200 C1201 1.386 . S
C1200 C1202 1.391 . S
C1201 C1200 1.386 . S
C1201 C1205 1.393 . S
C1202 H1194 0.950 . S
C1202 C1200 1.391 . S
C1202 C1203 1.400 . S
C1203 C1202 1.400 . S
C1203 C1204 1.398 . S
C1203 C1209 1.491 . S
C1204 H1195 0.950 . S
C1204 C1203 1.398 . S
C1204 C1205 1.391 . S
C1205 H1193 0.950 . S
C1205 C1201 1.393 . S
C1205 C1204 1.391 . S
C1206 H1196 0.950 . S
C1206 C1207 1.386 . S
C1206 C1208 1.391 . S
C1207 C1206 1.386 . S
C1207 C1211 1.393 . S
C1208 H1197 0.950 . S
C1208 C1206 1.391 . S
C1208 C1209 1.400 . S
C1209 C1203 1.491 . S
C1209 C1208 1.400 . S
C1209 C1210 1.398 . S
C1210 H1198 0.950 . S
C1210 C1209 1.398 . S
C1210 C1211 1.391 . S
C1211 H1199 0.950 . S
C1211 C1207 1.393 . S
C1211 C1210 1.391 . S
H1212 C1220 0.950 . S
H1213 C1225 0.950 . S
H1214 C1222 0.950 . S
H1215 C1224 0.950 . S
H1216 C1226 0.950 . S
H1217 C1228 0.950 . S
H1218 C1230 0.950 . S
H1219 C1231 0.950 . S
C1220 H1212 0.950 . S
C1220 C1221 1.386 . S
C1220 C1222 1.391 . S
C1221 C1220 1.386 . S
C1221 C1225 1.393 . S
C1222 H1214 0.950 . S
C1222 C1220 1.391 . S
C1222 C1223 1.400 . S
C1223 C1222 1.400 . S
C1223 C1224 1.398 . S
C1223 C1229 1.491 . S
C1224 H1215 0.950 . S
C1224 C1223 1.398 . S
C1224 C1225 1.391 . S
C1225 H1213 0.950 . S
C1225 C1221 1.393 . S
C1225 C1224 1.391 . S
C1226 H1216 0.950 . S
C1226 C1227 1.386 . S
C1226 C1228 1.391 . S
C1227 C1226 1.386 . S
C1227 C1231 1.393 . S
C1228 H1217 0.950 . S
C1228 C1226 1.391 . S
C1228 C1229 1.400 . S
C1229 C1223 1.491 . S
C1229 C1228 1.400 . S
C1229 C1230 1.398 . S
C1230 H1218 0.950 . S
C1230 C1229 1.398 . S
C1230 C1231 1.391 . S
C1231 H1219 0.950 . S
C1231 C1227 1.393 . S
C1231 C1230 1.391 . S
H1232 C1240 0.950 . S
H1233 C1245 0.950 . S
H1234 C1242 0.950 . S
H1235 C1244 0.950 . S
H1236 C1246 0.950 . S
H1237 C1248 0.950 . S
H1238 C1250 0.950 . S
H1239 C1251 0.950 . S
C1240 H1232 0.950 . S
C1240 C1241 1.386 . S
C1240 C1242 1.391 . S
C1241 C1240 1.386 . S
C1241 C1245 1.393 . S
C1242 H1234 0.950 . S
C1242 C1240 1.391 . S
C1242 C1243 1.400 . S
C1243 C1242 1.400 . S
C1243 C1244 1.398 . S
C1243 C1249 1.491 . S
C1244 H1235 0.950 . S
C1244 C1243 1.398 . S
C1244 C1245 1.391 . S
C1245 H1233 0.950 . S
C1245 C1241 1.393 . S
C1245 C1244 1.391 . S
C1246 H1236 0.950 . S
C1246 C1247 1.386 . S
C1246 C1248 1.391 . S
C1247 C1246 1.386 . S
C1247 C1251 1.393 . S
C1248 H1237 0.950 . S
C1248 C1246 1.391 . S
C1248 C1249 1.400 . S
C1249 C1243 1.491 . S
C1249 C1248 1.400 . S
C1249 C1250 1.398 . S
C1250 H1238 0.950 . S
C1250 C1249 1.398 . S
C1250 C1251 1.391 . S
C1251 H1239 0.950 . S
C1251 C1247 1.393 . S
C1251 C1250 1.391 . S
H1252 C1260 0.950 . S
H1253 C1265 0.950 . S
H1254 C1262 0.950 . S
H1255 C1264 0.950 . S
H1256 C1266 0.950 . S
H1257 C1268 0.950 . S
H1258 C1270 0.950 . S
H1259 C1271 0.950 . S
C1260 H1252 0.950 . S
C1260 C1261 1.386 . S
C1260 C1262 1.391 . S
C1261 C1260 1.386 . S
C1261 C1265 1.393 . S
C1262 H1254 0.950 . S
C1262 C1260 1.391 . S
C1262 C1263 1.400 . S
C1263 C1262 1.400 . S
C1263 C1264 1.398 . S
C1263 C1269 1.491 . S
C1264 H1255 0.950 . S
C1264 C1263 1.398 . S
C1264 C1265 1.391 . S
C1265 H1253 0.950 . S
C1265 C1261 1.393 . S
C1265 C1264 1.391 . S
C1266 H1256 0.950 . S
C1266 C1267 1.386 . S
C1266 C1268 1.391 . S
C1267 C1266 1.386 . S
C1267 C1271 1.393 . S
C1268 H1257 0.950 . S
C1268 C1266 1.391 . S
C1268 C1269 1.400 . S
C1269 C1263 1.491 . S
C1269 C1268 1.400 . S
C1269 C1270 1.398 . S
C1270 H1258 0.950 . S
C1270 C1269 1.398 . S
C1270 C1271 1.391 . S
C1271 H1259 0.950 . S
C1271 C1267 1.393 . S
C1271 C1270 1.391 . S
H1272 C1280 0.950 . S
H1273 C1285 0.950 . S
H1274 C1282 0.950 . S
H1275 C1284 0.950 . S
H1276 C1286 0.950 . S
H1277 C1288 0.950 . S
H1278 C1290 0.950 . S
H1279 C1291 0.950 . S
C1280 H1272 0.950 . S
C1280 C1281 1.386 . S
C1280 C1282 1.391 . S
C1281 C1280 1.386 . S
C1281 C1285 1.393 . S
C1282 H1274 0.950 . S
C1282 C1280 1.391 . S
C1282 C1283 1.400 . S
C1283 C1282 1.400 . S
C1283 C1284 1.398 . S
C1283 C1289 1.491 . S
C1284 H1275 0.950 . S
C1284 C1283 1.398 . S
C1284 C1285 1.391 . S
C1285 H1273 0.950 . S
C1285 C1281 1.393 . S
C1285 C1284 1.391 . S
C1286 H1276 0.950 . S
C1286 C1287 1.386 . S
C1286 C1288 1.391 . S
C1287 C1286 1.386 . S
C1287 C1291 1.393 . S
C1288 H1277 0.950 . S
C1288 C1286 1.391 . S
C1288 C1289 1.400 . S
C1289 C1283 1.491 . S
C1289 C1288 1.400 . S
C1289 C1290 1.398 . S
C1290 H1278 0.950 . S
C1290 C1289 1.398 . S
C1290 C1291 1.391 . S
C1291 H1279 0.950 . S
C1291 C1287 1.393 . S
C1291 C1290 1.391 . S
H1292 C1300 0.950 . S
H1293 C1305 0.950 . S
H1294 C1302 0.950 . S
H1295 C1304 0.950 . S
H1296 C1306 0.950 . S
H1297 C1308 0.950 . S
H1298 C1310 0.950 . S
H1299 C1311 0.950 . S
C1300 H1292 0.950 . S
C1300 C1301 1.386 . S
C1300 C1302 1.391 . S
C1301 C1300 1.386 . S
C1301 C1305 1.393 . S
C1302 H1294 0.950 . S
C1302 C1300 1.391 . S
C1302 C1303 1.400 . S
C1303 C1302 1.400 . S
C1303 C1304 1.398 . S
C1303 C1309 1.491 . S
C1304 H1295 0.950 . S
C1304 C1303 1.398 . S
C1304 C1305 1.391 . S
C1305 H1293 0.950 . S
C1305 C1301 1.393 . S
C1305 C1304 1.391 . S
C1306 H1296 0.950 . S
C1306 C1307 1.386 . S
C1306 C1308 1.391 . S
C1307 C1306 1.386 . S
C1307 C1311 1.393 . S
C1308 H1297 0.950 . S
C1308 C1306 1.391 . S
C1308 C1309 1.400 . S
C1309 C1303 1.491 . S
C1309 C1308 1.400 . S
C1309 C1310 1.398 . S
C1310 H1298 0.950 . S
C1310 C1309 1.398 . S
C1310 C1311 1.391 . S
C1311 H1299 0.950 . S
C1311 C1307 1.393 . S
C1311 C1310 1.391 . S
H1312 C1320 0.950 . S
H1313 C1325 0.950 . S
H1314 C1322 0.950 . S
H1315 C1324 0.950 . S
H1316 C1326 0.950 . S
H1317 C1328 0.950 . S
H1318 C1330 0.950 . S
H1319 C1331 0.950 . S
C1320 H1312 0.950 . S
C1320 C1321 1.386 . S
C1320 C1322 1.391 . S
C1321 C1320 1.386 . S
C1321 C1325 1.393 . S
C1322 H1314 0.950 . S
C1322 C1320 1.391 . S
C1322 C1323 1.400 . S
C1323 C1322 1.400 . S
C1323 C1324 1.398 . S
C1323 C1329 1.491 . S
C1324 H1315 0.950 . S
C1324 C1323 1.398 . S
C1324 C1325 1.391 . S
C1325 H1313 0.950 . S
C1325 C1321 1.393 . S
C1325 C1324 1.391 . S
C1326 H1316 0.950 . S
C1326 C1327 1.386 . S
C1326 C1328 1.391 . S
C1327 C1326 1.386 . S
C1327 C1331 1.393 . S
C1328 H1317 0.950 . S
C1328 C1326 1.391 . S
C1328 C1329 1.400 . S
C1329 C1323 1.491 . S
C1329 C1328 1.400 . S
C1329 C1330 1.398 . S
C1330 H1318 0.950 . S
C1330 C1329 1.398 . S
C1330 C1331 1.391 . S
C1331 H1319 0.950 . S
C1331 C1327 1.393 . S
C1331 C1330 1.391 . S
H1332 C1340 0.950 . S
H1333 C1345 0.950 . S
H1334 C1342 0.950 . S
H1335 C1344 0.950 . S
H1336 C1346 0.950 . S
H1337 C1348 0.950 . S
H1338 C1350 0.950 . S
H1339 C1351 0.950 . S
C1340 H1332 0.950 . S
C1340 C1341 1.386 . S
C1340 C1342 1.391 . S
C1341 C1340 1.386 . S
C1341 C1345 1.393 . S
C1342 H1334 0.950 . S
C1342 C1340 1.391 . S
C1342 C1343 1.400 . S
C1343 C1342 1.400 . S
C1343 C1344 1.398 . S
C1343 C1349 1.491 . S
C1344 H1335 0.950 . S
C1344 C1343 1.398 . S
C1344 C1345 1.391 . S
C1345 H1333 0.950 . S
C1345 C1341 1.393 . S
C1345 C1344 1.391 . S
C1346 H1336 0.950 . S
C1346 C1347 1.386 . S
C1346 C1348 1.391 . S
C1347 C1346 1.386 . S
C1347 C1351 1.393 . S
C1348 H1337 0.950 . S
C1348 C1346 1.391 . S
C1348 C1349 1.400 . S
C1349 C1343 1.491 . S
C1349 C1348 1.400 . S
C1349 C1350 1.398 . S
C1350 H1338 0.950 . S
C1350 C1349 1.398 . S
C1350 C1351 1.391 . S
C1351 H1339 0.950 . S
C1351 C1347 1.393 . S
C1351 C1350 1.391 . S
H1352 C1360 0.950 . S
H1353 C1365 0.950 . S
H1354 C1362 0.950 . S
H1355 C1364 0.950 . S
H1356 C1366 0.950 . S
H1357 C1368 0.950 . S
H1358 C1370 0.950 . S
H1359 C1371 0.950 . S
C1360 H1352 0.950 . S
C1360 C1361 1.386 . S
C1360 C1362 1.391 . S
C1361 C1360 1.386 . S
C1361 C1365 1.393 . S
C1362 H1354 0.950 . S
C1362 C1360 1.391 . S
C1362 C1363 1.400 . S
C1363 C1362 1.400 . S
C1363 C1364 1.398 . S
C1363 C1369 1.491 . S
C1364 H1355 0.950 . S
C1364 C1363 1.398 . S
C1364 C1365 1.391 . S
C1365 H1353 0.950 . S
C1365 C1361 1.393 . S
C1365 C1364 1.391 . S
C1366 H1356 0.950 . S
C1366 C1367 1.386 . S
C1366 C1368 1.391 . S
C1367 C1366 1.386 . S
C1367 C1371 1.393 . S
C1368 H1357 0.950 . S
C1368 C1366 1.391 . S
C1368 C1369 1.400 . S
C1369 C1363 1.491 . S
C1369 C1368 1.400 . S
C1369 C1370 1.398 . S
C1370 H1358 0.950 . S
C1370 C1369 1.398 . S
C1370 C1371 1.391 . S
C1371 H1359 0.950 . S
C1371 C1367 1.393 . S
C1371 C1370 1.391 . S
H1372 C1380 0.950 . S
H1373 C1385 0.950 . S
H1374 C1382 0.950 . S
H1375 C1384 0.950 . S
H1376 C1386 0.950 . S
H1377 C1388 0.950 . S
H1378 C1390 0.950 . S
H1379 C1391 0.950 . S
C1380 H1372 0.950 . S
C1380 C1381 1.386 . S
C1380 C1382 1.391 . S
C1381 C1380 1.386 . S
C1381 C1385 1.393 . S
C1382 H1374 0.950 . S
C1382 C1380 1.391 . S
C1382 C1383 1.400 . S
C1383 C1382 1.400 . S
C1383 C1384 1.398 . S
C1383 C1389 1.491 . S
C1384 H1375 0.950 . S
C1384 C1383 1.398 . S
C1384 C1385 1.391 . S
C1385 H1373 0.950 . S
C1385 C1381 1.393 . S
C1385 C1384 1.391 . S
C1386 H1376 0.950 . S
C1386 C1387 1.386 . S
C1386 C1388 1.391 . S
C1387 C1386 1.386 . S
C1387 C1391 1.393 . S
C1388 H1377 0.950 . S
C1388 C1386 1.391 . S
C1388 C1389 1.400 . S
C1389 C1383 1.491 . S
C1389 C1388 1.400 . S
C1389 C1390 1.398 . S
C1390 H1378 0.950 . S
C1390 C1389 1.398 . S
C1390 C1391 1.391 . S
C1391 H1379 0.950 . S
C1391 C1387 1.393 . S
C1391 C1390 1.391 . S
H1392 C1400 0.950 . S
H1393 C1405 0.950 . S
H1394 C1402 0.950 . S
H1395 C1404 0.950 . S
H1396 C1406 0.950 . S
H1397 C1408 0.950 . S
H1398 C1410 0.950 . S
H1399 C1411 0.950 . S
C1400 H1392 0.950 . S
C1400 C1401 1.386 . S
C1400 C1402 1.391 . S
C1401 C1400 1.386 . S
C1401 C1405 1.393 . S
C1402 H1394 0.950 . S
C1402 C1400 1.391 . S
C1402 C1403 1.400 . S
C1403 C1402 1.400 . S
C1403 C1404 1.398 . S
C1403 C1409 1.491 . S
C1404 H1395 0.950 . S
C1404 C1403 1.398 . S
C1404 C1405 1.391 . S
C1405 H1393 0.950 . S
C1405 C1401 1.393 . S
C1405 C1404 1.391 . S
C1406 H1396 0.950 . S
C1406 C1407 1.386 . S
C1406 C1408 1.391 . S
C1407 C1406 1.386 . S
C1407 C1411 1.393 . S
C1408 H1397 0.950 . S
C1408 C1406 1.391 . S
C1408 C1409 1.400 . S
C1409 C1403 1.491 . S
C1409 C1408 1.400 . S
C1409 C1410 1.398 . S
C1410 H1398 0.950 . S
C1410 C1409 1.398 . S
C1410 C1411 1.391 . S
C1411 H1399 0.950 . S
C1411 C1407 1.393 . S
C1411 C1410 1.391 . S
H1412 C1420 0.950 . S
H1413 C1425 0.950 . S
H1414 C1422 0.950 . S
H1415 C1424 0.950 . S
H1416 C1426 0.950 . S
H1417 C1428 0.950 . S
H1418 C1430 0.950 . S
H1419 C1431 0.950 . S
C1420 H1412 0.950 . S
C1420 C1421 1.386 . S
C1420 C1422 1.391 . S
C1421 C1420 1.386 . S
C1421 C1425 1.393 . S
C1422 H1414 0.950 . S
C1422 C1420 1.391 . S
C1422 C1423 1.400 . S
C1423 C1422 1.400 . S
C1423 C1424 1.398 . S
C1423 C1429 1.491 . S
C1424 H1415 0.950 . S
C1424 C1423 1.398 . S
C1424 C1425 1.391 . S
C1425 H1413 0.950 . S
C1425 C1421 1.393 . S
C1425 C1424 1.391 . S
C1426 H1416 0.950 . S
C1426 C1427 1.386 . S
C1426 C1428 1.391 . S
C1427 C1426 1.386 . S
C1427 C1431 1.393 . S
C1428 H1417 0.950 . S
C1428 C1426 1.391 . S
C1428 C1429 1.400 . S
C1429 C1423 1.491 . S
C1429 C1428 1.400 . S
C1429 C1430 1.398 . S
C1430 H1418 0.950 . S
C1430 C1429 1.398 . S
C1430 C1431 1.391 . S
C1431 H1419 0.950 . S
C1431 C1427 1.393 . S
C1431 C1430 1.391 . S
H1432 C1440 0.950 . S
H1433 C1445 0.950 . S
H1434 C1442 0.950 . S
H1435 C1444 0.950 . S
H1436 C1446 0.950 . S
H1437 C1448 0.950 . S
H1438 C1450 0.950 . S
H1439 C1451 0.950 . S
C1440 H1432 0.950 . S
C1440 C1441 1.386 . S
C1440 C1442 1.391 . S
C1441 C1440 1.386 . S
C1441 C1445 1.393 . S
C1442 H1434 0.950 . S
C1442 C1440 1.391 . S
C1442 C1443 1.400 . S
C1443 C1442 1.400 . S
C1443 C1444 1.398 . S
C1443 C1449 1.491 . S
C1444 H1435 0.950 . S
C1444 C1443 1.398 . S
C1444 C1445 1.391 . S
C1445 H1433 0.950 . S
C1445 C1441 1.393 . S
C1445 C1444 1.391 . S
C1446 H1436 0.950 . S
C1446 C1447 1.386 . S
C1446 C1448 1.391 . S
C1447 C1446 1.386 . S
C1447 C1451 1.393 . S
C1448 H1437 0.950 . S
C1448 C1446 1.391 . S
C1448 C1449 1.400 . S
C1449 C1443 1.491 . S
C1449 C1448 1.400 . S
C1449 C1450 1.398 . S
C1450 H1438 0.950 . S
C1450 C1449 1.398 . S
C1450 C1451 1.391 . S
C1451 H1439 0.950 . S
C1451 C1447 1.393 . S
C1451 C1450 1.391 . S
H1452 C1460 0.950 . S
H1453 C1465 0.950 . S
H1454 C1462 0.950 . S
H1455 C1464 0.950 . S
H1456 C1466 0.950 . S
H1457 C1468 0.950 . S
H1458 C1470 0.950 . S
H1459 C1471 0.950 . S
C1460 H1452 0.950 . S
C1460 C1461 1.386 . S
C1460 C1462 1.391 . S
C1461 C1460 1.386 . S
C1461 C1465 1.393 . S
C1462 H1454 0.950 . S
C1462 C1460 1.391 . S
C1462 C1463 1.400 . S
C1463 C1462 1.400 . S
C1463 C1464 1.398 . S
C1463 C1469 1.491 . S
C1464 H1455 0.950 . S
C1464 C1463 1.398 . S
C1464 C1465 1.391 . S
C1465 H1453 0.950 . S
C1465 C1461 1.393 . S
C1465 C1464 1.391 . S
C1466 H1456 0.950 . S
C1466 C1467 1.386 . S
C1466 C1468 1.391 . S
C1467 C1466 1.386 . S
C1467 C1471 1.393 . S
C1468 H1457 0.950 . S
C1468 C1466 1.391 . S
C1468 C1469 1.400 . S
C1469 C1463 1.491 . S
C1469 C1468 1.400 . S
C1469 C1470 1.398 . S
C1470 H1458 0.950 . S
C1470 C1469 1.398 . S
C1470 C1471 1.391 . S
C1471 H1459 0.950 . S
C1471 C1467 1.393 . S
C1471 C1470 1.391 . S
H1472 C1480 0.950 . S
H1473 C1485 0.950 . S
H1474 C1482 0.950 . S
H1475 C1484 0.950 . S
H1476 C1486 0.950 . S
H1477 C1488 0.950 . S
H1478 C1490 0.950 . S
H1479 C1491 0.950 . S
C1480 H1472 0.950 . S
C1480 C1481 1.386 . S
C1480 C1482 1.391 . S
C1481 C1480 1.386 . S
C1481 C1485 1.393 . S
C1482 H1474 0.950 . S
C1482 C1480 1.391 . S
C1482 C1483 1.400 . S
C1483 C1482 1.400 . S
C1483 C1484 1.398 . S
C1483 C1489 1.491 . S
C1484 H1475 0.950 . S
C1484 C1483 1.398 . S
C1484 C1485 1.391 . S
C1485 H1473 0.950 . S
C1485 C1481 1.393 . S
C1485 C1484 1.391 . S
C1486 H1476 0.950 . S
C1486 C1487 1.386 . S
C1486 C1488 1.391 . S
C1487 C1486 1.386 . S
C1487 C1491 1.393 . S
C1488 H1477 0.950 . S
C1488 C1486 1.391 . S
C1488 C1489 1.400 . S
C1489 C1483 1.491 . S
C1489 C1488 1.400 . S
C1489 C1490 1.398 . S
C1490 H1478 0.950 . S
C1490 C1489 1.398 . S
C1490 C1491 1.391 . S
C1491 H1479 0.950 . S
C1491 C1487 1.393 . S
C1491 C1490 1.391 . S
H1492 C1500 0.950 . S
H1493 C1505 0.950 . S
H1494 C1502 0.950 . S
H1495 C1504 0.950 . S
H1496 C1506 0.950 . S
H1497 C1508 0.950 . S
H1498 C1510 0.950 . S
H1499 C1511 0.950 . S
C1500 H1492 0.950 . S
C1500 C1501 1.386 . S
C1500 C1502 1.391 . S
C1501 C1500 1.386 . S
C1501 C1505 1.393 . S
C1502 H1494 0.950 . S
C1502 C1500 1.391 . S
C1502 C1503 1.400 . S
C1503 C1502 1.400 . S
C1503 C1504 1.398 . S
C1503 C1509 1.491 . S
C1504 H1495 0.950 . S
C1504 C1503 1.398 . S
C1504 C1505 1.391 . S
C1505 H1493 0.950 . S
C1505 C1501 1.393 . S
C1505 C1504 1.391 . S
C1506 H1496 0.950 . S
C1506 C1507 1.386 . S
C1506 C1508 1.391 . S
C1507 C1506 1.386 . S
C1507 C1511 1.393 . S
C1508 H1497 0.950 . S
C1508 C1506 1.391 . S
C1508 C1509 1.400 . S
C1509 C1503 1.491 . S
C1509 C1508 1.400 . S
C1509 C1510 1.398 . S
C1510 H1498 0.950 . S
C1510 C1509 1.398 . S
C1510 C1511 1.391 . S
C1511 H1499 0.950 . S
C1511 C1507 1.393 . S
C1511 C1510 1.391 . S
H1512 C1520 0.950 . S
H1513 C1525 0.950 . S
H1514 C1522 0.950 . S
H1515 C1524 0.950 . S
H1516 C1526 0.950 . S
H1517 C1528 0.950 . S
H1518 C1530 0.950 . S
H1519 C1531 0.950 . S
C1520 H1512 0.950 . S
C1520 C1521 1.386 . S
C1520 C1522 1.391 . S
C1521 C1520 1.386 . S
C1521 C1525 1.393 . S
C1522 H1514 0.950 . S
C1522 C1520 1.391 . S
C1522 C1523 1.400 . S
C1523 C1522 1.400 . S
C1523 C1524 1.398 . S
C1523 C1529 1.491 . S
C1524 H1515 0.950 . S
C1524 C1523 1.398 . S
C1524 C1525 1.391 . S
C1525 H1513 0.950 . S
C1525 C1521 1.393 . S
C1525 C1524 1.391 . S
C1526 H1516 0.950 . S
C1526 C1527 1.386 . S
C1526 C1528 1.391 . S
C1527 C1526 1.386 . S
C1527 C1531 1.393 . S
C1528 H1517 0.950 . S
C1528 C1526 1.391 . S
C1528 C1529 1.400 . S
C1529 C1523 1.491 . S
C1529 C1528 1.400 . S
C1529 C1530 1.398 . S
C1530 H1518 0.950 . S
C1530 C1529 1.398 . S
C1530 C1531 1.391 . S
C1531 H1519 0.950 . S
C1531 C1527 1.393 . S
C1531 C1530 1.391 . S
H1532 C1540 0.950 . S
H1533 C1545 0.950 . S
H1534 C1542 0.950 . S
H1535 C1544 0.950 . S
H1536 C1546 0.950 . S
H1537 C1548 0.950 . S
H1538 C1550 0.950 . S
H1539 C1551 0.950 . S
C1540 H1532 0.950 . S
C1540 C1541 1.386 . S
C1540 C1542 1.391 . S
C1541 C1540 1.386 . S
C1541 C1545 1.393 . S
C1542 H1534 0.950 . S
C1542 C1540 1.391 . S
C1542 C1543 1.400 . S
C1543 C1542 1.400 . S
C1543 C1544 1.398 . S
C1543 C1549 1.491 . S
C1544 H1535 0.950 . S
C1544 C1543 1.398 . S
C1544 C1545 1.391 . S
C1545 H1533 0.950 . S
C1545 C1541 1.393 . S
C1545 C1544 1.391 . S
C1546 H1536 0.950 . S
C1546 C1547 1.386 . S
C1546 C1548 1.391 . S
C1547 C1546 1.386 . S
C1547 C1551 1.393 . S
C1548 H1537 0.950 . S
C1548 C1546 1.391 . S
C1548 C1549 1.400 . S
C1549 C1543 1.491 . S
C1549 C1548 1.400 . S
C1549 C1550 1.398 . S
C1550 H1538 0.950 . S
C1550 C1549 1.398 . S
C1550 C1551 1.391 . S
C1551 H1539 0.950 . S
C1551 C1547 1.393 . S
C1551 C1550 1.391 . S
H1552 C1560 0.950 . S
H1553 C1565 0.950 . S
H1554 C1562 0.950 . S
H1555 C1564 0.950 . S
H1556 C1566 0.950 . S
H1557 C1568 0.950 . S
H1558 C1570 0.950 . S
H1559 C1571 0.950 . S
C1560 H1552 0.950 . S
C1560 C1561 1.386 . S
C1560 C1562 1.391 . S
C1561 C1560 1.386 . S
C1561 C1565 1.393 . S
C1562 H1554 0.950 . S
C1562 C1560 1.391 . S
C1562 C1563 1.400 . S
C1563 C1562 1.400 . S
C1563 C1564 1.398 . S
C1563 C1569 1.491 . S
C1564 H1555 0.950 . S
C1564 C1563 1.398 . S
C1564 C1565 1.391 . S
C1565 H1553 0.950 . S
C1565 C1561 1.393 . S
C1565 C1564 1.391 . S
C1566 H1556 0.950 . S
C1566 C1567 1.386 . S
C1566 C1568 1.391 . S
C1567 C1566 1.386 . S
C1567 C1571 1.393 . S
C1568 H1557 0.950 . S
C1568 C1566 1.391 . S
C1568 C1569 1.400 . S
C1569 C1563 1.491 . S
C1569 C1568 1.400 . S
C1569 C1570 1.398 . S
C1570 H1558 0.950 . S
C1570 C1569 1.398 . S
C1570 C1571 1.391 . S
C1571 H1559 0.950 . S
C1571 C1567 1.393 . S
C1571 C1570 1.391 . S
H1572 C1580 0.950 . S
H1573 C1585 0.950 . S
H1574 C1582 0.950 . S
H1575 C1584 0.950 . S
H1576 C1586 0.950 . S
H1577 C1588 0.950 . S
H1578 C1590 0.950 . S
H1579 C1591 0.950 . S
C1580 H1572 0.950 . S
C1580 C1581 1.386 . S
C1580 C1582 1.391 . S
C1581 C1580 1.386 . S
C1581 C1585 1.393 . S
C1582 H1574 0.950 . S
C1582 C1580 1.391 . S
C1582 C1583 1.400 . S
C1583 C1582 1.400 . S
C1583 C1584 1.398 . S
C1583 C1589 1.491 . S
C1584 H1575 0.950 . S
C1584 C1583 1.398 . S
C1584 C1585 1.391 . S
C1585 H1573 0.950 . S
C1585 C1581 1.393 . S
C1585 C1584 1.391 . S
C1586 H1576 0.950 . S
C1586 C1587 1.386 . S
C1586 C1588 1.391 . S
C1587 C1586 1.386 . S
C1587 C1591 1.393 . S
C1588 H1577 0.950 . S
C1588 C1586 1.391 . S
C1588 C1589 1.400 . S
C1589 C1583 1.491 . S
C1589 C1588 1.400 . S
C1589 C1590 1.398 . S
C1590 H1578 0.950 . S
C1590 C1589 1.398 . S
C1590 C1591 1.391 . S
C1591 H1579 0.950 . S
C1591 C1587 1.393 . S
C1591 C1590 1.391 . S
H1592 C1600 0.950 . S
H1593 C1605 0.950 . S
H1594 C1602 0.950 . S
H1595 C1604 0.950 . S
H1596 C1606 0.950 . S
H1597 C1608 0.950 . S
H1598 C1610 0.950 . S
H1599 C1611 0.950 . S
C1600 H1592 0.950 . S
C1600 C1601 1.386 . S
C1600 C1602 1.391 . S
C1601 C1600 1.386 . S
C1601 C1605 1.393 . S
C1602 H1594 0.950 . S
C1602 C1600 1.391 . S
C1602 C1603 1.400 . S
C1603 C1602 1.400 . S
C1603 C1604 1.398 . S
C1603 C1609 1.491 . S
C1604 H1595 0.950 . S
C1604 C1603 1.398 . S
C1604 C1605 1.391 . S
C1605 H1593 0.950 . S
C1605 C1601 1.393 . S
C1605 C1604 1.391 . S
C1606 H1596 0.950 . S
C1606 C1607 1.386 . S
C1606 C1608 1.391 . S
C1607 C1606 1.386 . S
C1607 C1611 1.393 . S
C1608 H1597 0.950 . S
C1608 C1606 1.391 . S
C1608 C1609 1.400 . S
C1609 C1603 1.491 . S
C1609 C1608 1.400 . S
C1609 C1610 1.398 . S
C1610 H1598 0.950 . S
C1610 C1609 1.398 . S
C1610 C1611 1.391 . S
C1611 H1599 0.950 . S
C1611 C1607 1.393 . S
C1611 C1610 1.391 . S
H1612 C1620 0.950 . S
H1613 C1625 0.950 . S
H1614 C1622 0.950 . S
H1615 C1624 0.950 . S
H1616 C1626 0.950 . S
H1617 C1628 0.950 . S
H1618 C1630 0.950 . S
H1619 C1631 0.950 . S
C1620 H1612 0.950 . S
C1620 C1621 1.386 . S
C1620 C1622 1.391 . S
C1621 C1620 1.386 . S
C1621 C1625 1.393 . S
C1622 H1614 0.950 . S
C1622 C1620 1.391 . S
C1622 C1623 1.400 . S
C1623 C1622 1.400 . S
C1623 C1624 1.398 . S
C1623 C1629 1.491 . S
C1624 H1615 0.950 . S
C1624 C1623 1.398 . S
C1624 C1625 1.391 . S
C1625 H1613 0.950 . S
C1625 C1621 1.393 . S
C1625 C1624 1.391 . S
C1626 H1616 0.950 . S
C1626 C1627 1.386 . S
C1626 C1628 1.391 . S
C1627 C1626 1.386 . S
C1627 C1631 1.393 . S
C1628 H1617 0.950 . S
C1628 C1626 1.391 . S
C1628 C1629 1.400 . S
C1629 C1623 1.491 . S
C1629 C1628 1.400 . S
C1629 C1630 1.398 . S
C1630 H1618 0.950 . S
C1630 C1629 1.398 . S
C1630 C1631 1.391 . S
C1631 H1619 0.950 . S
C1631 C1627 1.393 . S
C1631 C1630 1.391 . S
H1632 C1640 0.950 . S
H1633 C1645 0.950 . S
H1634 C1642 0.950 . S
H1635 C1644 0.950 . S
H1636 C1646 0.950 . S
H1637 C1648 0.950 . S
H1638 C1650 0.950 . S
H1639 C1651 0.950 . S
C1640 H1632 0.950 . S
C1640 C1641 1.386 . S
C1640 C1642 1.391 . S
C1641 C1640 1.386 . S
C1641 C1645 1.393 . S
C1642 H1634 0.950 . S
C1642 C1640 1.391 . S
C1642 C1643 1.400 . S
C1643 C1642 1.400 . S
C1643 C1644 1.398 . S
C1643 C1649 1.491 . S
C1644 H1635 0.950 . S
C1644 C1643 1.398 . S
C1644 C1645 1.391 . S
C1645 H1633 0.950 . S
C1645 C1641 1.393 . S
C1645 C1644 1.391 . S
C1646 H1636 0.950 . S
C1646 C1647 1.386 . S
C1646 C1648 1.391 . S
C1647 C1646 1.386 . S
C1647 C1651 1.393 . S
C1648 H1637 0.950 . S
C1648 C1646 1.391 . S
C1648 C1649 1.400 . S
C1649 C1643 1.491 . S
C1649 C1648 1.400 . S
C1649 C1650 1.398 . S
C1650 H1638 0.950 . S
C1650 C1649 1.398 . S
C1650 C1651 1.391 . S
C1651 H1639 0.950 . S
C1651 C1647 1.393 . S
C1651 C1650 1.391 . S
H1652 C1660 0.950 . S
H1653 C1665 0.950 . S
H1654 C1662 0.950 . S
H1655 C1664 0.950 . S
H1656 C1666 0.950 . S
H1657 C1668 0.950 . S
H1658 C1670 0.950 . S
H1659 C1671 0.950 . S
C1660 H1652 0.950 . S
C1660 C1661 1.386 . S
C1660 C1662 1.391 . S
C1661 C1660 1.386 . S
C1661 C1665 1.393 . S
C1662 H1654 0.950 . S
C1662 C1660 1.391 . S
C1662 C1663 1.400 . S
C1663 C1662 1.400 . S
C1663 C1664 1.398 . S
C1663 C1669 1.491 . S
C1664 H1655 0.950 . S
C1664 C1663 1.398 . S
C1664 C1665 1.391 . S
C1665 H1653 0.950 . S
C1665 C1661 1.393 . S
C1665 C1664 1.391 . S
C1666 H1656 0.950 . S
C1666 C1667 1.386 . S
C1666 C1668 1.391 . S
C1667 C1666 1.386 . S
C1667 C1671 1.393 . S
C1668 H1657 0.950 . S
C1668 C1666 1.391 . S
C1668 C1669 1.400 . S
C1669 C1663 1.491 . S
C1669 C1668 1.400 . S
C1669 C1670 1.398 . S
C1670 H1658 0.950 . S
C1670 C1669 1.398 . S
C1670 C1671 1.391 . S
C1671 H1659 0.950 . S
C1671 C1667 1.393 . S
C1671 C1670 1.391 . S
H1672 C1680 0.950 . S
H1673 C1685 0.950 . S
H1674 C1682 0.950 . S
H1675 C1684 0.950 . S
H1676 C1686 0.950 . S
H1677 C1688 0.950 . S
H1678 C1690 0.950 . S
H1679 C1691 0.950 . S
C1680 H1672 0.950 . S
C1680 C1681 1.386 . S
C1680 C1682 1.391 . S
C1681 C1680 1.386 . S
C1681 C1685 1.393 . S
C1682 H1674 0.950 . S
C1682 C1680 1.391 . S
C1682 C1683 1.400 . S
C1683 C1682 1.400 . S
C1683 C1684 1.398 . S
C1683 C1689 1.491 . S
C1684 H1675 0.950 . S
C1684 C1683 1.398 . S
C1684 C1685 1.391 . S
C1685 H1673 0.950 . S
C1685 C1681 1.393 . S
C1685 C1684 1.391 . S
C1686 H1676 0.950 . S
C1686 C1687 1.386 . S
C1686 C1688 1.391 . S
C1687 C1686 1.386 . S
C1687 C1691 1.393 . S
C1688 H1677 0.950 . S
C1688 C1686 1.391 . S
C1688 C1689 1.400 . S
C1689 C1683 1.491 . S
C1689 C1688 1.400 . S
C1689 C1690 1.398 . S
C1690 H1678 0.950 . S
C1690 C1689 1.398 . S
C1690 C1691 1.391 . S
C1691 H1679 0.950 . S
C1691 C1687 1.393 . S
C1691 C1690 1.391 . S
H1692 C1700 0.950 . S
H1693 C1705 0.950 . S
H1694 C1702 0.950 . S
H1695 C1704 0.950 . S
H1696 C1706 0.950 . S
H1697 C1708 0.950 . S
H1698 C1710 0.950 . S
H1699 C1711 0.950 . S
C1700 H1692 0.950 . S
C1700 C1701 1.386 . S
C1700 C1702 1.391 . S
C1701 C1700 1.386 . S
C1701 C1705 1.393 . S
C1702 H1694 0.950 . S
C1702 C1700 1.391 . S
C1702 C1703 1.400 . S
C1703 C1702 1.400 . S
C1703 C1704 1.398 . S
C1703 C1709 1.491 . S
C1704 H1695 0.950 . S
C1704 C1703 1.398 . S
C1704 C1705 1.391 . S
C1705 H1693 0.950 . S
C1705 C1701 1.393 . S
C1705 C1704 1.391 . S
C1706 H1696 0.950 . S
C1706 C1707 1.386 . S
C1706 C1708 1.391 . S
C1707 C1706 1.386 . S
C1707 C1711 1.393 . S
C1708 H1697 0.950 . S
C1708 C1706 1.391 . S
C1708 C1709 1.400 . S
C1709 C1703 1.491 . S
C1709 C1708 1.400 . S
C1709 C1710 1.398 . S
C1710 H1698 0.950 . S
C1710 C1709 1.398 . S
C1710 C1711 1.391 . S
C1711 H1699 0.950 . S
C1711 C1707 1.393 . S
C1711 C1710 1.391 . S
H1712 C1720 0.950 . S
H1713 C1725 0.950 . S
H1714 C1722 0.950 . S
H1715 C1724 0.950 . S
H1716 C1726 0.950 . S
H1717 C1728 0.950 . S
H1718 C1730 0.950 . S
H1719 C1731 0.950 . S
C1720 H1712 0.950 . S
C1720 C1721 1.386 . S
C1720 C1722 1.391 . S
C1721 C1720 1.386 . S
C1721 C1725 1.393 . S
C1722 H1714 0.950 . S
C1722 C1720 1.391 . S
C1722 C1723 1.400 . S
C1723 C1722 1.400 . S
C1723 C1724 1.398 . S
C1723 C1729 1.491 . S
C1724 H1715 0.950 . S
C1724 C1723 1.398 . S
C1724 C1725 1.391 . S
C1725 H1713 0.950 . S
C1725 C1721 1.393 . S
C1725 C1724 1.391 . S
C1726 H1716 0.950 . S
C1726 C1727 1.386 . S
C1726 C1728 1.391 . S
C1727 C1726 1.386 . S
C1727 C1731 1.393 . S
C1728 H1717 0.950 . S
C1728 C1726 1.391 . S
C1728 C1729 1.400 . S
C1729 C1723 1.491 . S
C1729 C1728 1.400 . S
C1729 C1730 1.398 . S
C1730 H1718 0.950 . S
C1730 C1729 1.398 . S
C1730 C1731 1.391 . S
C1731 H1719 0.950 . S
C1731 C1727 1.393 . S
C1731 C1730 1.391 . S
H1732 C1740 0.950 . S
H1733 C1745 0.950 . S
H1734 C1742 0.950 . S
H1735 C1744 0.950 . S
H1736 C1746 0.950 . S
H1737 C1748 0.950 . S
H1738 C1750 0.950 . S
H1739 C1751 0.950 . S
C1740 H1732 0.950 . S
C1740 C1741 1.386 . S
C1740 C1742 1.391 . S
C1741 C1740 1.386 . S
C1741 C1745 1.393 . S
C1742 H1734 0.950 . S
C1742 C1740 1.391 . S
C1742 C1743 1.400 . S
C1743 C1742 1.400 . S
C1743 C1744 1.398 . S
C1743 C1749 1.491 . S
C1744 H1735 0.950 . S
C1744 C1743 1.398 . S
C1744 C1745 1.391 . S
C1745 H1733 0.950 . S
C1745 C1741 1.393 . S
C1745 C1744 1.391 . S
C1746 H1736 0.950 . S
C1746 C1747 1.386 . S
C1746 C1748 1.391 . S
C1747 C1746 1.386 . S
C1747 C1751 1.393 . S
C1748 H1737 0.950 . S
C1748 C1746 1.391 . S
C1748 C1749 1.400 . S
C1749 C1743 1.491 . S
C1749 C1748 1.400 . S
C1749 C1750 1.398 . S
C1750 H1738 0.950 . S
C1750 C1749 1.398 . S
C1750 C1751 1.391 . S
C1751 H1739 0.950 . S
C1751 C1747 1.393 . S
C1751 C1750 1.391 . S
H1752 C1760 0.950 . S
H1753 C1765 0.950 . S
H1754 C1762 0.950 . S
H1755 C1764 0.950 . S
H1756 C1766 0.950 . S
H1757 C1768 0.950 . S
H1758 C1770 0.950 . S
H1759 C1771 0.950 . S
C1760 H1752 0.950 . S
C1760 C1761 1.386 . S
C1760 C1762 1.391 . S
C1761 C1760 1.386 . S
C1761 C1765 1.393 . S
C1762 H1754 0.950 . S
C1762 C1760 1.391 . S
C1762 C1763 1.400 . S
C1763 C1762 1.400 . S
C1763 C1764 1.398 . S
C1763 C1769 1.491 . S
C1764 H1755 0.950 . S
C1764 C1763 1.398 . S
C1764 C1765 1.391 . S
C1765 H1753 0.950 . S
C1765 C1761 1.393 . S
C1765 C1764 1.391 . S
C1766 H1756 0.950 . S
C1766 C1767 1.386 . S
C1766 C1768 1.391 . S
C1767 C1766 1.386 . S
C1767 C1771 1.393 . S
C1768 H1757 0.950 . S
C1768 C1766 1.391 . S
C1768 C1769 1.400 . S
C1769 C1763 1.491 . S
C1769 C1768 1.400 . S
C1769 C1770 1.398 . S
C1770 H1758 0.950 . S
C1770 C1769 1.398 . S
C1770 C1771 1.391 . S
C1771 H1759 0.950 . S
C1771 C1767 1.393 . S
C1771 C1770 1.391 . S
H1772 C1780 0.950 . S
H1773 C1785 0.950 . S
H1774 C1782 0.950 . S
H1775 C1784 0.950 . S
H1776 C1786 0.950 . S
H1777 C1788 0.950 . S
H1778 C1790 0.950 . S
H1779 C1791 0.950 . S
C1780 H1772 0.950 . S
C1780 C1781 1.386 . S
C1780 C1782 1.391 . S
C1781 C1780 1.386 . S
C1781 C1785 1.393 . S
C1782 H1774 0.950 . S
C1782 C1780 1.391 . S
C1782 C1783 1.400 . S
C1783 C1782 1.400 . S
C1783 C1784 1.398 . S
C1783 C1789 1.491 . S
C1784 H1775 0.950 . S
C1784 C1783 1.398 . S
C1784 C1785 1.391 . S
C1785 H1773 0.950 . S
C1785 C1781 1.393 . S
C1785 C1784 1.391 . S
C1786 H1776 0.950 . S
C1786 C1787 1.386 . S
C1786 C1788 1.391 . S
C1787 C1786 1.386 . S
C1787 C1791 1.393 . S
C1788 H1777 0.950 . S
C1788 C1786 1.391 . S
C1788 C1789 1.400 . S
C1789 C1783 1.491 . S
C1789 C1788 1.400 . S
C1789 C1790 1.398 . S
C1790 H1778 0.950 . S
C1790 C1789 1.398 . S
C1790 C1791 1.391 . S
C1791 H1779 0.950 . S
C1791 C1787 1.393 . S
C1791 C1790 1.391 . S
H1792 C1800 0.950 . S
H1793 C1805 0.950 . S
H1794 C1802 0.950 . S
H1795 C1804 0.950 . S
H1796 C1806 0.950 . S
H1797 C1808 0.950 . S
H1798 C1810 0.950 . S
H1799 C1811 0.950 . S
C1800 H1792 0.950 . S
C1800 C1801 1.386 . S
C1800 C1802 1.391 . S
C1801 C1800 1.386 . S
C1801 C1805 1.393 . S
C1802 H1794 0.950 . S
C1802 C1800 1.391 . S
C1802 C1803 1.400 . S
C1803 C1802 1.400 . S
C1803 C1804 1.398 . S
C1803 C1809 1.491 . S
C1804 H1795 0.950 . S
C1804 C1803 1.398 . S
C1804 C1805 1.391 . S
C1805 H1793 0.950 . S
C1805 C1801 1.393 . S
C1805 C1804 1.391 . S
C1806 H1796 0.950 . S
C1806 C1807 1.386 . S
C1806 C1808 1.391 . S
C1807 C1806 1.386 . S
C1807 C1811 1.393 . S
C1808 H1797 0.950 . S
C1808 C1806 1.391 . S
C1808 C1809 1.400 . S
C1809 C1803 1.491 . S
C1809 C1808 1.400 . S
C1809 C1810 1.398 . S
C1810 H1798 0.950 . S
C1810 C1809 1.398 . S
C1810 C1811 1.391 . S
C1811 H1799 0.950 . S
C1811 C1807 1.393 . S
C1811 C1810 1.391 . S
H1812 C1820 0.950 . S
H1813 C1825 0.950 . S
H1814 C1822 0.950 . S
H1815 C1824 0.950 . S
H1816 C1826 0.950 . S
H1817 C1828 0.950 . S
H1818 C1830 0.950 . S
H1819 C1831 0.950 . S
C1820 H1812 0.950 . S
C1820 C1821 1.386 . S
C1820 C1822 1.391 . S
C1821 C1820 1.386 . S
C1821 C1825 1.393 . S
C1822 H1814 0.950 . S
C1822 C1820 1.391 . S
C1822 C1823 1.400 . S
C1823 C1822 1.400 . S
C1823 C1824 1.398 . S
C1823 C1829 1.491 . S
C1824 H1815 0.950 . S
C1824 C1823 1.398 . S
C1824 C1825 1.391 . S
C1825 H1813 0.950 . S
C1825 C1821 1.393 . S
C1825 C1824 1.391 . S
C1826 H1816 0.950 . S
C1826 C1827 1.386 . S
C1826 C1828 1.391 . S
C1827 C1826 1.386 . S
C1827 C1831 1.393 . S
C1828 H1817 0.950 . S
C1828 C1826 1.391 . S
C1828 C1829 1.400 . S
C1829 C1823 1.491 . S
C1829 C1828 1.400 . S
C1829 C1830 1.398 . S
C1830 H1818 0.950 . S
C1830 C1829 1.398 . S
C1830 C1831 1.391 . S
C1831 H1819 0.950 . S
C1831 C1827 1.393 . S
C1831 C1830 1.391 . S
H1832 C1840 0.950 . S
H1833 C1845 0.950 . S
H1834 C1842 0.950 . S
H1835 C1844 0.950 . S
H1836 C1846 0.950 . S
H1837 C1848 0.950 . S
H1838 C1850 0.950 . S
H1839 C1851 0.950 . S
C1840 H1832 0.950 . S
C1840 C1841 1.386 . S
C1840 C1842 1.391 . S
C1841 C1840 1.386 . S
C1841 C1845 1.393 . S
C1842 H1834 0.950 . S
C1842 C1840 1.391 . S
C1842 C1843 1.400 . S
C1843 C1842 1.400 . S
C1843 C1844 1.398 . S
C1843 C1849 1.491 . S
C1844 H1835 0.950 . S
C1844 C1843 1.398 . S
C1844 C1845 1.391 . S
C1845 H1833 0.950 . S
C1845 C1841 1.393 . S
C1845 C1844 1.391 . S
C1846 H1836 0.950 . S
C1846 C1847 1.386 . S
C1846 C1848 1.391 . S
C1847 C1846 1.386 . S
C1847 C1851 1.393 . S
C1848 H1837 0.950 . S
C1848 C1846 1.391 . S
C1848 C1849 1.400 . S
C1849 C1843 1.491 . S
C1849 C1848 1.400 . S
C1849 C1850 1.398 . S
C1850 H1838 0.950 . S
C1850 C1849 1.398 . S
C1850 C1851 1.391 . S
C1851 H1839 0.950 . S
C1851 C1847 1.393 . S
C1851 C1850 1.391 . S
H1852 C1860 0.950 . S
H1853 C1865 0.950 . S
H1854 C1862 0.950 . S
H1855 C1864 0.950 . S
H1856 C1866 0.950 . S
H1857 C1868 0.950 . S
H1858 C1870 0.950 . S
H1859 C1871 0.950 . S
C1860 H1852 0.950 . S
C1860 C1861 1.386 . S
C1860 C1862 1.391 . S
C1861 C1860 1.386 . S
C1861 C1865 1.393 . S
C1862 H1854 0.950 . S
C1862 C1860 1.391 . S
C1862 C1863 1.400 . S
C1863 C1862 1.400 . S
C1863 C1864 1.398 . S
C1863 C1869 1.491 . S
C1864 H1855 0.950 . S
C1864 C1863 1.398 . S
C1864 C1865 1.391 . S
C1865 H1853 0.950 . S
C1865 C1861 1.393 . S
C1865 C1864 1.391 . S
C1866 H1856 0.950 . S
C1866 C1867 1.386 . S
C1866 C1868 1.391 . S
C1867 C1866 1.386 . S
C1867 C1871 1.393 . S
C1868 H1857 0.950 . S
C1868 C1866 1.391 . S
C1868 C1869 1.400 . S
C1869 C1863 1.491 . S
C1869 C1868 1.400 . S
C1869 C1870 1.398 . S
C1870 H1858 0.950 . S
C1870 C1869 1.398 . S
C1870 C1871 1.391 . S
C1871 H1859 0.950 . S
C1871 C1867 1.393 . S
C1871 C1870 1.391 . S
H1872 C1880 0.950 . S
H1873 C1885 0.950 . S
H1874 C1882 0.950 . S
H1875 C1884 0.950 . S
H1876 C1886 0.950 . S
H1877 C1888 0.950 . S
H1878 C1890 0.950 . S
H1879 C1891 0.950 . S
C1880 H1872 0.950 . S
C1880 C1881 1.386 . S
C1880 C1882 1.391 . S
C1881 C1880 1.386 . S
C1881 C1885 1.393 . S
C1882 H1874 0.950 . S
C1882 C1880 1.391 . S
C1882 C1883 1.400 . S
C1883 C1882 1.400 . S
C1883 C1884 1.398 . S
C1883 C1889 1.491 . S
C1884 H1875 0.950 . S
C1884 C1883 1.398 . S
C1884 C1885 1.391 . S
C1885 H1873 0.950 . S
C1885 C1881 1.393 . S
C1885 C1884 1.391 . S
C1886 H1876 0.950 . S
C1886 C1887 1.386 . S
C1886 C1888 1.391 . S
C1887 C1886 1.386 . S
C1887 C1891 1.393 . S
C1888 H1877 0.950 . S
C1888 C1886 1.391 . S
C1888 C1889 1.400 . S
C1889 C1883 1.491 . S
C1889 C1888 1.400 . S
C1889 C1890 1.398 . S
C1890 H1878 0.950 . S
C1890 C1889 1.398 . S
C1890 C1891 1.391 . S
C1891 H1879 0.950 . S
C1891 C1887 1.393 . S
C1891 C1890 1.391 . S
H1892 C1900 0.950 . S
H1893 C1905 0.950 . S
H1894 C1902 0.950 . S
H1895 C1904 0.950 . S
H1896 C1906 0.950 . S
H1897 C1908 0.950 . S
H1898 C1910 0.950 . S
H1899 C1911 0.950 . S
C1900 H1892 0.950 . S
C1900 C1901 1.386 . S
C1900 C1902 1.391 . S
C1901 C1900 1.386 . S
C1901 C1905 1.393 . S
C1902 H1894 0.950 . S
C1902 C1900 1.391 . S
C1902 C1903 1.400 . S
C1903 C1902 1.400 . S
C1903 C1904 1.398 . S
C1903 C1909 1.491 . S
C1904 H1895 0.950 . S
C1904 C1903 1.398 . S
C1904 C1905 1.391 . S
C1905 H1893 0.950 . S
C1905 C1901 1.393 . S
C1905 C1904 1.391 . S
C1906 H1896 0.950 . S
C1906 C1907 1.386 . S
C1906 C1908 1.391 . S
C1907 C1906 1.386 . S
C1907 C1911 1.393 . S
C1908 H1897 0.950 . S
C1908 C1906 1.391 . S
C1908 C1909 1.400 . S
C1909 C1903 1.491 . S
C1909 C1908 1.400 . S
C1909 C1910 1.398 . S
C1910 H1898 0.950 . S
C1910 C1909 1.398 . S
C1910 C1911 1.391 . S
C1911 H1899 0.950 . S
C1911 C1907 1.393 . S
C1911 C1910 1.391 . S
H1912 C1920 0.950 . S
H1913 C1925 0.950 . S
H1914 C1922 0.950 . S
H1915 C1924 0.950 . S
H1916 C1926 0.950 . S
H1917 C1928 0.950 . S
H1918 C1930 0.950 . S
H1919 C1931 0.950 . S
C1920 H1912 0.950 . S
C1920 C1921 1.386 . S
C1920 C1922 1.391 . S
C1921 C1920 1.386 . S
C1921 C1925 1.393 . S
C1922 H1914 0.950 . S
C1922 C1920 1.391 . S
C1922 C1923 1.400 . S
C1923 C1922 1.400 . S
C1923 C1924 1.398 . S
C1923 C1929 1.491 . S
C1924 H1915 0.950 . S
C1924 C1923 1.398 . S
C1924 C1925 1.391 . S
C1925 H1913 0.950 . S
C1925 C1921 1.393 . S
C1925 C1924 1.391 . S
C1926 H1916 0.950 . S
C1926 C1927 1.386 . S
C1926 C1928 1.391 . S
C1927 C1926 1.386 . S
C1927 C1931 1.393 . S
C1928 H1917 0.950 . S
C1928 C1926 1.391 . S
C1928 C1929 1.400 . S
C1929 C1923 1.491 . S
C1929 C1928 1.400 . S
C1929 C1930 1.398 . S
C1930 H1918 0.950 . S
C1930 C1929 1.398 . S
C1930 C1931 1.391 . S
C1931 H1919 0.950 . S
C1931 C1927 1.393 . S
C1931 C1930 1.391 . S
H1932 C1940 0.950 . S
H1933 C1945 0.950 . S
H1934 C1942 0.950 . S
H1935 C1944 0.950 . S
H1936 C1946 0.950 . S
H1937 C1948 0.950 . S
H1938 C1950 0.950 . S
H1939 C1951 0.950 . S
C1940 H1932 0.950 . S
C1940 C1941 1.386 . S
C1940 C1942 1.391 . S
C1941 C1940 1.386 . S
C1941 C1945 1.393 . S
C1942 H1934 0.950 . S
C1942 C1940 1.391 . S
C1942 C1943 1.400 . S
C1943 C1942 1.400 . S
C1943 C1944 1.398 . S
C1943 C1949 1.491 . S
C1944 H1935 0.950 . S
C1944 C1943 1.398 . S
C1944 C1945 1.391 . S
C1945 H1933 0.950 . S
C1945 C1941 1.393 . S
C1945 C1944 1.391 . S
C1946 H1936 0.950 . S
C1946 C1947 1.386 . S
C1946 C1948 1.391 . S
C1947 C1946 1.386 . S
C1947 C1951 1.393 . S
C1948 H1937 0.950 . S
C1948 C1946 1.391 . S
C1948 C1949 1.400 . S
C1949 C1943 1.491 . S
C1949 C1948 1.400 . S
C1949 C1950 1.398 . S
C1950 H1938 0.950 . S
C1950 C1949 1.398 . S
C1950 C1951 1.391 . S
C1951 H1939 0.950 . S
C1951 C1947 1.393 . S
C1951 C1950 1.391 . S
H1952 C1960 0.950 . S
H1953 C1965 0.950 . S
H1954 C1962 0.950 . S
H1955 C1964 0.950 . S
H1956 C1966 0.950 . S
H1957 C1968 0.950 . S
H1958 C1970 0.950 . S
H1959 C1971 0.950 . S
C1960 H1952 0.950 . S
C1960 C1961 1.386 . S
C1960 C1962 1.391 . S
C1961 C1960 1.386 . S
C1961 C1965 1.393 . S
C1962 H1954 0.950 . S
C1962 C1960 1.391 . S
C1962 C1963 1.400 . S
C1963 C1962 1.400 . S
C1963 C1964 1.398 . S
C1963 C1969 1.491 . S
C1964 H1955 0.950 . S
C1964 C1963 1.398 . S
C1964 C1965 1.391 . S
C1965 H1953 0.950 . S
C1965 C1961 1.393 . S
C1965 C1964 1.391 . S
C1966 H1956 0.950 . S
C1966 C1967 1.386 . S
C1966 C1968 1.391 . S
C1967 C1966 1.386 . S
C1967 C1971 1.393 . S
C1968 H1957 0.950 . S
C1968 C1966 1.391 . S
C1968 C1969 1.400 . S
C1969 C1963 1.491 . S
C1969 C1968 1.400 . S
C1969 C1970 1.398 . S
C1970 H1958 0.950 . S
C1970 C1969 1.398 . S
C1970 C1971 1.391 . S
C1971 H1959 0.950 . S
C1971 C1967 1.393 . S
C1971 C1970 1.391 . S
H1972 C1980 0.950 . S
H1973 C1985 0.950 . S
H1974 C1982 0.950 . S
H1975 C1984 0.950 . S
H1976 C1986 0.950 . S
H1977 C1988 0.950 . S
H1978 C1990 0.950 . S
H1979 C1991 0.950 . S
C1980 H1972 0.950 . S
C1980 C1981 1.386 . S
C1980 C1982 1.391 . S
C1981 C1980 1.386 . S
C1981 C1985 1.393 . S
C1982 H1974 0.950 . S
C1982 C1980 1.391 . S
C1982 C1983 1.400 . S
C1983 C1982 1.400 . S
C1983 C1984 1.398 . S
C1983 C1989 1.491 . S
C1984 H1975 0.950 . S
C1984 C1983 1.398 . S
C1984 C1985 1.391 . S
C1985 H1973 0.950 . S
C1985 C1981 1.393 . S
C1985 C1984 1.391 . S
C1986 H1976 0.950 . S
C1986 C1987 1.386 . S
C1986 C1988 1.391 . S
C1987 C1986 1.386 . S
C1987 C1991 1.393 . S
C1988 H1977 0.950 . S
C1988 C1986 1.391 . S
C1988 C1989 1.400 . S
C1989 C1983 1.491 . S
C1989 C1988 1.400 . S
C1989 C1990 1.398 . S
C1990 H1978 0.950 . S
C1990 C1989 1.398 . S
C1990 C1991 1.391 . S
C1991 H1979 0.950 . S
C1991 C1987 1.393 . S
C1991 C1990 1.391 . S
H1992 C2000 0.950 . S
H1993 C2005 0.950 . S
H1994 C2002 0.950 . S
H1995 C2004 0.950 . S
H1996 C2006 0.950 . S
H1997 C2008 0.950 . S
H1998 C2010 0.950 . S
H1999 C2011 0.950 . S
C2000 H1992 0.950 . S
C2000 C2001 1.386 . S
C2000 C2002 1.391 . S
C2001 C2000 1.386 . S
C2001 C2005 1.393 . S
C2002 H1994 0.950 . S
C2002 C2000 1.391 . S
C2002 C2003 1.400 . S
C2003 C2002 1.400 . S
C2003 C2004 1.398 . S
C2003 C2009 1.491 . S
C2004 H1995 0.950 . S
C2004 C2003 1.398 . S
C2004 C2005 1.391 . S
C2005 H1993 0.950 . S
C2005 C2001 1.393 . S
C2005 C2004 1.391 . S
C2006 H1996 0.950 . S
C2006 C2007 1.386 . S
C2006 C2008 1.391 . S
C2007 C2006 1.386 . S
C2007 C2011 1.393 . S
C2008 H1997 0.950 . S
C2008 C2006 1.391 . S
C2008 C2009 1.400 . S
C2009 C2003 1.491 . S
C2009 C2008 1.400 . S
C2009 C2010 1.398 . S
C2010 H1998 0.950 . S
C2010 C2009 1.398 . S
C2010 C2011 1.391 . S
C2011 H1999 0.950 . S
C2011 C2007 1.393 . S
C2011 C2010 1.391 . S
H2012 C2020 0.950 . S
H2013 C2025 0.950 . S
H2014 C2022 0.950 . S
H2015 C2024 0.950 . S
H2016 C2026 0.950 . S
H2017 C2028 0.950 . S
H2018 C2030 0.950 . S
H2019 C2031 0.950 . S
C2020 H2012 0.950 . S
C2020 C2021 1.386 . S
C2020 C2022 1.391 . S
C2021 C2020 1.386 . S
C2021 C2025 1.393 . S
C2022 H2014 0.950 . S
C2022 C2020 1.391 . S
C2022 C2023 1.400 . S
C2023 C2022 1.400 . S
C2023 C2024 1.398 . S
C2023 C2029 1.491 . S
C2024 H2015 0.950 . S
C2024 C2023 1.398 . S
C2024 C2025 1.391 . S
C2025 H2013 0.950 . S
C2025 C2021 1.393 . S
C2025 C2024 1.391 . S
C2026 H2016 0.950 . S
C2026 C2027 1.386 . S
C2026 C2028 1.391 . S
C2027 C2026 1.386 . S
C2027 C2031 1.393 . S
C2028 H2017 0.950 . S
C2028 C2026 1.391 . S
C2028 C2029 1.400 . S
C2029 C2023 1.491 . S
C2029 C2028 1.400 . S
C2029 C2030 1.398 . S
C2030 H2018 0.950 . S
C2030 C2029 1.398 . S
C2030 C2031 1.391 . S
C2031 H2019 0.950 . S
C2031 C2027 1.393 . S
C2031 C2030 1.391 . S
H2032 C2040 0.950 . S
H2033 C2045 0.950 . S
H2034 C2042 0.950 . S
H2035 C2044 0.950 . S
H2036 C2046 0.950 . S
H2037 C2048 0.950 . S
H2038 C2050 0.950 . S
H2039 C2051 0.950 . S
C2040 H2032 0.950 . S
C2040 C2041 1.386 . S
C2040 C2042 1.391 . S
C2041 C2040 1.386 . S
C2041 C2045 1.393 . S
C2042 H2034 0.950 . S
C2042 C2040 1.391 . S
C2042 C2043 1.400 . S
C2043 C2042 1.400 . S
C2043 C2044 1.398 . S
C2043 C2049 1.491 . S
C2044 H2035 0.950 . S
C2044 C2043 1.398 . S
C2044 C2045 1.391 . S
C2045 H2033 0.950 . S
C2045 C2041 1.393 . S
C2045 C2044 1.391 . S
C2046 H2036 0.950 . S
C2046 C2047 1.386 . S
C2046 C2048 1.391 . S
C2047 C2046 1.386 . S
C2047 C2051 1.393 . S
C2048 H2037 0.950 . S
C2048 C2046 1.391 . S
C2048 C2049 1.400 . S
C2049 C2043 1.491 . S
C2049 C2048 1.400 . S
C2049 C2050 1.398 . S
C2050 H2038 0.950 . S
C2050 C2049 1.398 . S
C2050 C2051 1.391 . S
C2051 H2039 0.950 . S
C2051 C2047 1.393 . S
C2051 C2050 1.391 . S
H2052 C2060 0.950 . S
H2053 C2065 0.950 . S
H2054 C2062 0.950 . S
H2055 C2064 0.950 . S
H2056 C2066 0.950 . S
H2057 C2068 0.950 . S
H2058 C2070 0.950 . S
H2059 C2071 0.950 . S
C2060 H2052 0.950 . S
C2060 C2061 1.386 . S
C2060 C2062 1.391 . S
C2061 C2060 1.386 . S
C2061 C2065 1.393 . S
C2062 H2054 0.950 . S
C2062 C2060 1.391 . S
C2062 C2063 1.400 . S
C2063 C2062 1.400 . S
C2063 C2064 1.398 . S
C2063 C2069 1.491 . S
C2064 H2055 0.950 . S
C2064 C2063 1.398 . S
C2064 C2065 1.391 . S
C2065 H2053 0.950 . S
C2065 C2061 1.393 . S
C2065 C2064 1.391 . S
C2066 H2056 0.950 . S
C2066 C2067 1.386 . S
C2066 C2068 1.391 . S
C2067 C2066 1.386 . S
C2067 C2071 1.393 . S
C2068 H2057 0.950 . S
C2068 C2066 1.391 . S
C2068 C2069 1.400 . S
C2069 C2063 1.491 . S
C2069 C2068 1.400 . S
C2069 C2070 1.398 . S
C2070 H2058 0.950 . S
C2070 C2069 1.398 . S
C2070 C2071 1.391 . S
C2071 H2059 0.950 . S
C2071 C2067 1.393 . S
C2071 C2070 1.391 . S
H2072 C2080 0.950 . S
H2073 C2085 0.950 . S
H2074 C2082 0.950 . S
H2075 C2084 0.950 . S
H2076 C2086 0.950 . S
H2077 C2088 0.950 . S
H2078 C2090 0.950 . S
H2079 C2091 0.950 . S
C2080 H2072 0.950 . S
C2080 C2081 1.386 . S
C2080 C2082 1.391 . S
C2081 C2080 1.386 . S
C2081 C2085 1.393 . S
C2082 H2074 0.950 . S
C2082 C2080 1.391 . S
C2082 C2083 1.400 . S
C2083 C2082 1.400 . S
C2083 C2084 1.398 . S
C2083 C2089 1.491 . S
C2084 H2075 0.950 . S
C2084 C2083 1.398 . S
C2084 C2085 1.391 . S
C2085 H2073 0.950 . S
C2085 C2081 1.393 . S
C2085 C2084 1.391 . S
C2086 H2076 0.950 . S
C2086 C2087 1.386 . S
C2086 C2088 1.391 . S
C2087 C2086 1.386 . S
C2087 C2091 1.393 . S
C2088 H2077 0.950 . S
C2088 C2086 1.391 . S
C2088 C2089 1.400 . S
C2089 C2083 1.491 . S
C2089 C2088 1.400 . S
C2089 C2090 1.398 . S
C2090 H2078 0.950 . S
C2090 C2089 1.398 . S
C2090 C2091 1.391 . S
C2091 H2079 0.950 . S
C2091 C2087 1.393 . S
C2091 C2090 1.391 . S
H2092 C2100 0.950 . S
H2093 C2105 0.950 . S
H2094 C2102 0.950 . S
H2095 C2104 0.950 . S
H2096 C2106 0.950 . S
H2097 C2108 0.950 . S
H2098 C2110 0.950 . S
H2099 C2111 0.950 . S
C2100 H2092 0.950 . S
C2100 C2101 1.386 . S
C2100 C2102 1.391 . S
C2101 C2100 1.386 . S
C2101 C2105 1.393 . S
C2102 H2094 0.950 . S
C2102 C2100 1.391 . S
C2102 C2103 1.400 . S
C2103 C2102 1.400 . S
C2103 C2104 1.398 . S
C2103 C2109 1.491 . S
C2104 H2095 0.950 . S
C2104 C2103 1.398 . S
C2104 C2105 1.391 . S
C2105 H2093 0.950 . S
C2105 C2101 1.393 . S
C2105 C2104 1.391 . S
C2106 H2096 0.950 . S
C2106 C2107 1.386 . S
C2106 C2108 1.391 . S
C2107 C2106 1.386 . S
C2107 C2111 1.393 . S
C2108 H2097 0.950 . S
C2108 C2106 1.391 . S
C2108 C2109 1.400 . S
C2109 C2103 1.491 . S
C2109 C2108 1.400 . S
C2109 C2110 1.398 . S
C2110 H2098 0.950 . S
C2110 C2109 1.398 . S
C2110 C2111 1.391 . S
C2111 H2099 0.950 . S
C2111 C2107 1.393 . S
C2111 C2110 1.391 . S
H2112 C2120 0.950 . S
H2113 C2125 0.950 . S
H2114 C2122 0.950 . S
H2115 C2124 0.950 . S
H2116 C2126 0.950 . S
H2117 C2128 0.950 . S
H2118 C2130 0.950 . S
H2119 C2131 0.950 . S
C2120 H2112 0.950 . S
C2120 C2121 1.386 . S
C2120 C2122 1.391 . S
C2121 C2120 1.386 . S
C2121 C2125 1.393 . S
C2122 H2114 0.950 . S
C2122 C2120 1.391 . S
C2122 C2123 1.400 . S
C2123 C2122 1.400 . S
C2123 C2124 1.398 . S
C2123 C2129 1.491 1_554 S
C2124 H2115 0.950 . S
C2124 C2123 1.398 . S
C2124 C2125 1.391 . S
C2125 H2113 0.950 . S
C2125 C2121 1.393 . S
C2125 C2124 1.391 . S
C2126 H2116 0.950 . S
C2126 C2127 1.386 . S
C2126 C2128 1.391 . S
C2127 C2126 1.386 . S
C2127 C2131 1.393 . S
C2128 H2117 0.950 . S
C2128 C2126 1.391 . S
C2128 C2129 1.400 . S
C2129 C2123 1.491 1_556 S
C2129 C2128 1.400 . S
C2129 C2130 1.398 . S
C2130 H2118 0.950 . S
C2130 C2129 1.398 . S
C2130 C2131 1.391 . S
C2131 H2119 0.950 . S
C2131 C2127 1.393 . S
C2131 C2130 1.391 . S
H2132 C2140 0.950 . S
H2133 C2145 0.950 . S
H2134 C2142 0.950 . S
H2135 C2144 0.950 . S
H2136 C2146 0.950 . S
H2137 C2148 0.950 . S
H2138 C2150 0.950 . S
H2139 C2151 0.950 . S
C2140 H2132 0.950 . S
C2140 C2141 1.386 . S
C2140 C2142 1.391 . S
C2141 C2140 1.386 . S
C2141 C2145 1.393 . S
C2142 H2134 0.950 . S
C2142 C2140 1.391 . S
C2142 C2143 1.400 . S
C2143 C2142 1.400 . S
C2143 C2144 1.398 . S
C2143 C2149 1.491 1_556 S
C2144 H2135 0.950 . S
C2144 C2143 1.398 . S
C2144 C2145 1.391 . S
C2145 H2133 0.950 . S
C2145 C2141 1.393 . S
C2145 C2144 1.391 . S
C2146 H2136 0.950 . S
C2146 C2147 1.386 . S
C2146 C2148 1.391 . S
C2147 C2146 1.386 . S
C2147 C2151 1.393 . S
C2148 H2137 0.950 . S
C2148 C2146 1.391 . S
C2148 C2149 1.400 . S
C2149 C2143 1.491 1_554 S
C2149 C2148 1.400 . S
C2149 C2150 1.398 . S
C2150 H2138 0.950 . S
C2150 C2149 1.398 . S
C2150 C2151 1.391 . S
C2151 H2139 0.950 . S
C2151 C2147 1.393 . S
C2151 C2150 1.391 . S
H2152 C2160 0.950 . S
H2153 C2165 0.950 . S
H2154 C2162 0.950 . S
H2155 C2164 0.950 . S
H2156 C2166 0.950 . S
H2157 C2168 0.950 . S
H2158 C2170 0.950 . S
H2159 C2171 0.950 . S
C2160 H2152 0.950 . S
C2160 C2161 1.386 . S
C2160 C2162 1.391 . S
C2161 C2160 1.386 . S
C2161 C2165 1.393 . S
C2162 H2154 0.950 . S
C2162 C2160 1.391 . S
C2162 C2163 1.400 . S
C2163 C2162 1.400 . S
C2163 C2164 1.398 . S
C2163 C2169 1.491 1_554 S
C2164 H2155 0.950 . S
C2164 C2163 1.398 . S
C2164 C2165 1.391 . S
C2165 H2153 0.950 . S
C2165 C2161 1.393 . S
C2165 C2164 1.391 . S
C2166 H2156 0.950 . S
C2166 C2167 1.386 . S
C2166 C2168 1.391 . S
C2167 C2166 1.386 . S
C2167 C2171 1.393 . S
C2168 H2157 0.950 . S
C2168 C2166 1.391 . S
C2168 C2169 1.400 . S
C2169 C2163 1.491 1_556 S
C2169 C2168 1.400 . S
C2169 C2170 1.398 . S
C2170 H2158 0.950 . S
C2170 C2169 1.398 . S
C2170 C2171 1.391 . S
C2171 H2159 0.950 . S
C2171 C2167 1.393 . S
C2171 C2170 1.391 . S
H2172 C2180 0.950 . S
H2173 C2185 0.950 . S
H2174 C2182 0.950 . S
H2175 C2184 0.950 . S
H2176 C2186 0.950 . S
H2177 C2188 0.950 . S
H2178 C2190 0.950 . S
H2179 C2191 0.950 . S
C2180 H2172 0.950 . S
C2180 C2181 1.386 . S
C2180 C2182 1.391 . S
C2181 C2180 1.386 . S
C2181 C2185 1.393 . S
C2182 H2174 0.950 . S
C2182 C2180 1.391 . S
C2182 C2183 1.400 . S
C2183 C2182 1.400 . S
C2183 C2184 1.398 . S
C2183 C2189 1.491 1_554 S
C2184 H2175 0.950 . S
C2184 C2183 1.398 . S
C2184 C2185 1.391 . S
C2185 H2173 0.950 . S
C2185 C2181 1.393 . S
C2185 C2184 1.391 . S
C2186 H2176 0.950 . S
C2186 C2187 1.386 . S
C2186 C2188 1.391 . S
C2187 C2186 1.386 . S
C2187 C2191 1.393 . S
C2188 H2177 0.950 . S
C2188 C2186 1.391 . S
C2188 C2189 1.400 . S
C2189 C2183 1.491 1_556 S
C2189 C2188 1.400 . S
C2189 C2190 1.398 . S
C2190 H2178 0.950 . S
C2190 C2189 1.398 . S
C2190 C2191 1.391 . S
C2191 H2179 0.950 . S
C2191 C2187 1.393 . S
C2191 C2190 1.391 . S
H2192 C2200 0.950 . S
H2193 C2205 0.950 . S
H2194 C2202 0.950 . S
H2195 C2204 0.950 . S
H2196 C2206 0.950 . S
H2197 C2208 0.950 . S
H2198 C2210 0.950 . S
H2199 C2211 0.950 . S
C2200 H2192 0.950 . S
C2200 C2201 1.386 . S
C2200 C2202 1.391 . S
C2201 C2200 1.386 . S
C2201 C2205 1.393 . S
C2202 H2194 0.950 . S
C2202 C2200 1.391 . S
C2202 C2203 1.400 . S
C2203 C2202 1.400 . S
C2203 C2204 1.398 . S
C2203 C2209 1.491 1_556 S
C2204 H2195 0.950 . S
C2204 C2203 1.398 . S
C2204 C2205 1.391 . S
C2205 H2193 0.950 . S
C2205 C2201 1.393 . S
C2205 C2204 1.391 . S
C2206 H2196 0.950 . S
C2206 C2207 1.386 . S
C2206 C2208 1.391 . S
C2207 C2206 1.386 . S
C2207 C2211 1.393 . S
C2208 H2197 0.950 . S
C2208 C2206 1.391 . S
C2208 C2209 1.400 . S
C2209 C2203 1.491 1_554 S
C2209 C2208 1.400 . S
C2209 C2210 1.398 . S
C2210 H2198 0.950 . S
C2210 C2209 1.398 . S
C2210 C2211 1.391 . S
C2211 H2199 0.950 . S
C2211 C2207 1.393 . S
C2211 C2210 1.391 . S
H2212 C2220 0.950 . S
H2213 C2225 0.950 . S
H2214 C2222 0.950 . S
H2215 C2224 0.950 . S
H2216 C2226 0.950 . S
H2217 C2228 0.950 . S
H2218 C2230 0.950 . S
H2219 C2231 0.950 . S
C2220 H2212 0.950 . S
C2220 C2221 1.386 . S
C2220 C2222 1.391 . S
C2221 C2220 1.386 . S
C2221 C2225 1.393 . S
C2222 H2214 0.950 . S
C2222 C2220 1.391 . S
C2222 C2223 1.400 . S
C2223 C2222 1.400 . S
C2223 C2224 1.398 . S
C2223 C2229 1.491 1_554 S
C2224 H2215 0.950 . S
C2224 C2223 1.398 . S
C2224 C2225 1.391 . S
C2225 H2213 0.950 . S
C2225 C2221 1.393 . S
C2225 C2224 1.391 . S
C2226 H2216 0.950 . S
C2226 C2227 1.386 . S
C2226 C2228 1.391 . S
C2227 C2226 1.386 . S
C2227 C2231 1.393 . S
C2228 H2217 0.950 . S
C2228 C2226 1.391 . S
C2228 C2229 1.400 . S
C2229 C2223 1.491 1_556 S
C2229 C2228 1.400 . S
C2229 C2230 1.398 . S
C2230 H2218 0.950 . S
C2230 C2229 1.398 . S
C2230 C2231 1.391 . S
C2231 H2219 0.950 . S
C2231 C2227 1.393 . S
C2231 C2230 1.391 . S
H2232 C2240 0.950 . S
H2233 C2245 0.950 . S
H2234 C2242 0.950 . S
H2235 C2244 0.950 . S
H2236 C2246 0.950 . S
H2237 C2248 0.950 . S
H2238 C2250 0.950 . S
H2239 C2251 0.950 . S
C2240 H2232 0.950 . S
C2240 C2241 1.386 . S
C2240 C2242 1.391 . S
C2241 C2240 1.386 . S
C2241 C2245 1.393 . S
C2242 H2234 0.950 . S
C2242 C2240 1.391 . S
C2242 C2243 1.400 . S
C2243 C2242 1.400 . S
C2243 C2244 1.398 . S
C2243 C2249 1.491 1_556 S
C2244 H2235 0.950 . S
C2244 C2243 1.398 . S
C2244 C2245 1.391 . S
C2245 H2233 0.950 . S
C2245 C2241 1.393 . S
C2245 C2244 1.391 . S
C2246 H2236 0.950 . S
C2246 C2247 1.386 . S
C2246 C2248 1.391 . S
C2247 C2246 1.386 . S
C2247 C2251 1.393 . S
C2248 H2237 0.950 . S
C2248 C2246 1.391 . S
C2248 C2249 1.400 . S
C2249 C2243 1.491 1_554 S
C2249 C2248 1.400 . S
C2249 C2250 1.398 . S
C2250 H2238 0.950 . S
C2250 C2249 1.398 . S
C2250 C2251 1.391 . S
C2251 H2239 0.950 . S
C2251 C2247 1.393 . S
C2251 C2250 1.391 . S
H2252 C2260 0.950 . S
H2253 C2265 0.950 . S
H2254 C2262 0.950 . S
H2255 C2264 0.950 . S
H2256 C2266 0.950 . S
H2257 C2268 0.950 . S
H2258 C2270 0.950 . S
H2259 C2271 0.950 . S
C2260 H2252 0.950 . S
C2260 C2261 1.386 . S
C2260 C2262 1.391 . S
C2261 C2260 1.386 . S
C2261 C2265 1.393 . S
C2262 H2254 0.950 . S
C2262 C2260 1.391 . S
C2262 C2263 1.400 . S
C2263 C2262 1.400 . S
C2263 C2264 1.398 . S
C2263 C2269 1.491 1_554 S
C2264 H2255 0.950 . S
C2264 C2263 1.398 . S
C2264 C2265 1.391 . S
C2265 H2253 0.950 . S
C2265 C2261 1.393 . S
C2265 C2264 1.391 . S
C2266 H2256 0.950 . S
C2266 C2267 1.386 . S
C2266 C2268 1.391 . S
C2267 C2266 1.386 . S
C2267 C2271 1.393 . S
C2268 H2257 0.950 . S
C2268 C2266 1.391 . S
C2268 C2269 1.400 . S
C2269 C2263 1.491 1_556 S
C2269 C2268 1.400 . S
C2269 C2270 1.398 . S
C2270 H2258 0.950 . S
C2270 C2269 1.398 . S
C2270 C2271 1.391 . S
C2271 H2259 0.950 . S
C2271 C2267 1.393 . S
C2271 C2270 1.391 . S
H2272 C2280 0.950 . S
H2273 C2285 0.950 . S
H2274 C2282 0.950 . S
H2275 C2284 0.950 . S
H2276 C2286 0.950 . S
H2277 C2288 0.950 . S
H2278 C2290 0.950 . S
H2279 C2291 0.950 . S
C2280 H2272 0.950 . S
C2280 C2281 1.386 . S
C2280 C2282 1.391 . S
C2281 C2280 1.386 . S
C2281 C2285 1.393 . S
C2282 H2274 0.950 . S
C2282 C2280 1.391 . S
C2282 C2283 1.400 . S
C2283 C2282 1.400 . S
C2283 C2284 1.398 . S
C2283 C2289 1.491 1_455 S
C2284 H2275 0.950 . S
C2284 C2283 1.398 . S
C2284 C2285 1.391 . S
C2285 H2273 0.950 . S
C2285 C2281 1.393 . S
C2285 C2284 1.391 . S
C2286 H2276 0.950 . S
C2286 C2287 1.386 . S
C2286 C2288 1.391 . S
C2287 C2286 1.386 . S
C2287 C2291 1.393 . S
C2288 H2277 0.950 . S
C2288 C2286 1.391 . S
C2288 C2289 1.400 . S
C2289 C2283 1.491 1_655 S
C2289 C2288 1.400 . S
C2289 C2290 1.398 . S
C2290 H2278 0.950 . S
C2290 C2289 1.398 . S
C2290 C2291 1.391 . S
C2291 H2279 0.950 . S
C2291 C2287 1.393 . S
C2291 C2290 1.391 . S
H2292 C2300 0.950 . S
H2293 C2305 0.950 . S
H2294 C2302 0.950 . S
H2295 C2304 0.950 . S
H2296 C2306 0.950 . S
H2297 C2308 0.950 . S
H2298 C2310 0.950 . S
H2299 C2311 0.950 . S
C2300 H2292 0.950 . S
C2300 C2301 1.386 . S
C2300 C2302 1.391 . S
C2301 C2300 1.386 . S
C2301 C2305 1.393 . S
C2302 H2294 0.950 . S
C2302 C2300 1.391 . S
C2302 C2303 1.400 . S
C2303 C2302 1.400 . S
C2303 C2304 1.398 . S
C2303 C2309 1.491 1_565 S
C2304 H2295 0.950 . S
C2304 C2303 1.398 . S
C2304 C2305 1.391 . S
C2305 H2293 0.950 . S
C2305 C2301 1.393 . S
C2305 C2304 1.391 . S
C2306 H2296 0.950 . S
C2306 C2307 1.386 . S
C2306 C2308 1.391 . S
C2307 C2306 1.386 . S
C2307 C2311 1.393 . S
C2308 H2297 0.950 . S
C2308 C2306 1.391 . S
C2308 C2309 1.400 . S
C2309 C2303 1.491 1_545 S
C2309 C2308 1.400 . S
C2309 C2310 1.398 . S
C2310 H2298 0.950 . S
C2310 C2309 1.398 . S
C2310 C2311 1.391 . S
C2311 H2299 0.950 . S
C2311 C2307 1.393 . S
C2311 C2310 1.391 . S
H2312 C2320 0.950 . S
H2313 C2325 0.950 . S
H2314 C2322 0.950 . S
H2315 C2324 0.950 . S
H2316 C2326 0.950 . S
H2317 C2328 0.950 . S
H2318 C2330 0.950 . S
H2319 C2331 0.950 . S
C2320 H2312 0.950 . S
C2320 C2321 1.386 . S
C2320 C2322 1.391 . S
C2321 C2320 1.386 . S
C2321 C2325 1.393 . S
C2322 H2314 0.950 . S
C2322 C2320 1.391 . S
C2322 C2323 1.400 . S
C2323 C2322 1.400 . S
C2323 C2324 1.398 . S
C2323 C2329 1.491 1_455 S
C2324 H2315 0.950 . S
C2324 C2323 1.398 . S
C2324 C2325 1.391 . S
C2325 H2313 0.950 . S
C2325 C2321 1.393 . S
C2325 C2324 1.391 . S
C2326 H2316 0.950 . S
C2326 C2327 1.386 . S
C2326 C2328 1.391 . S
C2327 C2326 1.386 . S
C2327 C2331 1.393 . S
C2328 H2317 0.950 . S
C2328 C2326 1.391 . S
C2328 C2329 1.400 . S
C2329 C2323 1.491 1_655 S
C2329 C2328 1.400 . S
C2329 C2330 1.398 . S
C2330 H2318 0.950 . S
C2330 C2329 1.398 . S
C2330 C2331 1.391 . S
C2331 H2319 0.950 . S
C2331 C2327 1.393 . S
C2331 C2330 1.391 . S
H2332 C2340 0.950 . S
H2333 C2345 0.950 . S
H2334 C2342 0.950 . S
H2335 C2344 0.950 . S
H2336 C2346 0.950 . S
H2337 C2348 0.950 . S
H2338 C2350 0.950 . S
H2339 C2351 0.950 . S
C2340 H2332 0.950 . S
C2340 C2341 1.386 . S
C2340 C2342 1.391 . S
C2341 C2340 1.386 . S
C2341 C2345 1.393 . S
C2342 H2334 0.950 . S
C2342 C2340 1.391 . S
C2342 C2343 1.400 . S
C2343 C2342 1.400 . S
C2343 C2344 1.398 . S
C2343 C2349 1.491 1_565 S
C2344 H2335 0.950 . S
C2344 C2343 1.398 . S
C2344 C2345 1.391 . S
C2345 H2333 0.950 . S
C2345 C2341 1.393 . S
C2345 C2344 1.391 . S
C2346 H2336 0.950 . S
C2346 C2347 1.386 . S
C2346 C2348 1.391 . S
C2347 C2346 1.386 . S
C2347 C2351 1.393 . S
C2348 H2337 0.950 . S
C2348 C2346 1.391 . S
C2348 C2349 1.400 . S
C2349 C2343 1.491 1_545 S
C2349 C2348 1.400 . S
C2349 C2350 1.398 . S
C2350 H2338 0.950 . S
C2350 C2349 1.398 . S
C2350 C2351 1.391 . S
C2351 H2339 0.950 . S
C2351 C2347 1.393 . S
C2351 C2350 1.391 . S
H2352 C2360 0.950 . S
H2353 C2365 0.950 . S
H2354 C2362 0.950 . S
H2355 C2364 0.950 . S
H2356 C2366 0.950 . S
H2357 C2368 0.950 . S
H2358 C2370 0.950 . S
H2359 C2371 0.950 . S
C2360 H2352 0.950 . S
C2360 C2361 1.386 . S
C2360 C2362 1.391 . S
C2361 C2360 1.386 . S
C2361 C2365 1.393 . S
C2362 H2354 0.950 . S
C2362 C2360 1.391 . S
C2362 C2363 1.400 . S
C2363 C2362 1.400 . S
C2363 C2364 1.398 . S
C2363 C2369 1.491 1_655 S
C2364 H2355 0.950 . S
C2364 C2363 1.398 . S
C2364 C2365 1.391 . S
C2365 H2353 0.950 . S
C2365 C2361 1.393 . S
C2365 C2364 1.391 . S
C2366 H2356 0.950 . S
C2366 C2367 1.386 . S
C2366 C2368 1.391 . S
C2367 C2366 1.386 . S
C2367 C2371 1.393 . S
C2368 H2357 0.950 . S
C2368 C2366 1.391 . S
C2368 C2369 1.400 . S
C2369 C2363 1.491 1_455 S
C2369 C2368 1.400 . S
C2369 C2370 1.398 . S
C2370 H2358 0.950 . S
C2370 C2369 1.398 . S
C2370 C2371 1.391 . S
C2371 H2359 0.950 . S
C2371 C2367 1.393 . S
C2371 C2370 1.391 . S
H2372 C2380 0.950 . S
H2373 C2385 0.950 . S
H2374 C2382 0.950 . S
H2375 C2384 0.950 . S
H2376 C2386 0.950 . S
H2377 C2388 0.950 . S
H2378 C2390 0.950 . S
H2379 C2391 0.950 . S
C2380 H2372 0.950 . S
C2380 C2381 1.386 . S
C2380 C2382 1.391 . S
C2381 C2380 1.386 . S
C2381 C2385 1.393 . S
C2382 H2374 0.950 . S
C2382 C2380 1.391 . S
C2382 C2383 1.400 . S
C2383 C2382 1.400 . S
C2383 C2384 1.398 . S
C2383 C2389 1.491 1_545 S
C2384 H2375 0.950 . S
C2384 C2383 1.398 . S
C2384 C2385 1.391 . S
C2385 H2373 0.950 . S
C2385 C2381 1.393 . S
C2385 C2384 1.391 . S
C2386 H2376 0.950 . S
C2386 C2387 1.386 . S
C2386 C2388 1.391 . S
C2387 C2386 1.386 . S
C2387 C2391 1.393 . S
C2388 H2377 0.950 . S
C2388 C2386 1.391 . S
C2388 C2389 1.400 . S
C2389 C2383 1.491 1_565 S
C2389 C2388 1.400 . S
C2389 C2390 1.398 . S
C2390 H2378 0.950 . S
C2390 C2389 1.398 . S
C2390 C2391 1.391 . S
C2391 H2379 0.950 . S
C2391 C2387 1.393 . S
C2391 C2390 1.391 . S
H2392 C2400 0.950 . S
H2393 C2405 0.950 . S
H2394 C2402 0.950 . S
H2395 C2404 0.950 . S
H2396 C2406 0.950 . S
H2397 C2408 0.950 . S
H2398 C2410 0.950 . S
H2399 C2411 0.950 . S
C2400 H2392 0.950 . S
C2400 C2401 1.386 . S
C2400 C2402 1.391 . S
C2401 C2400 1.386 . S
C2401 C2405 1.393 . S
C2402 H2394 0.950 . S
C2402 C2400 1.391 . S
C2402 C2403 1.400 . S
C2403 C2402 1.400 . S
C2403 C2404 1.398 . S
C2403 C2409 1.491 1_455 S
C2404 H2395 0.950 . S
C2404 C2403 1.398 . S
C2404 C2405 1.391 . S
C2405 H2393 0.950 . S
C2405 C2401 1.393 . S
C2405 C2404 1.391 . S
C2406 H2396 0.950 . S
C2406 C2407 1.386 . S
C2406 C2408 1.391 . S
C2407 C2406 1.386 . S
C2407 C2411 1.393 . S
C2408 H2397 0.950 . S
C2408 C2406 1.391 . S
C2408 C2409 1.400 . S
C2409 C2403 1.491 1_655 S
C2409 C2408 1.400 . S
C2409 C2410 1.398 . S
C2410 H2398 0.950 . S
C2410 C2409 1.398 . S
C2410 C2411 1.391 . S
C2411 H2399 0.950 . S
C2411 C2407 1.393 . S
C2411 C2410 1.391 . S
H2412 C2420 0.950 . S
H2413 C2425 0.950 . S
H2414 C2422 0.950 . S
H2415 C2424 0.950 . S
H2416 C2426 0.950 . S
H2417 C2428 0.950 . S
H2418 C2430 0.950 . S
H2419 C2431 0.950 . S
C2420 H2412 0.950 . S
C2420 C2421 1.386 . S
C2420 C2422 1.391 . S
C2421 C2420 1.386 . S
C2421 C2425 1.393 . S
C2422 H2414 0.950 . S
C2422 C2420 1.391 . S
C2422 C2423 1.400 . S
C2423 C2422 1.400 . S
C2423 C2424 1.398 . S
C2423 C2429 1.491 1_545 S
C2424 H2415 0.950 . S
C2424 C2423 1.398 . S
C2424 C2425 1.391 . S
C2425 H2413 0.950 . S
C2425 C2421 1.393 . S
C2425 C2424 1.391 . S
C2426 H2416 0.950 . S
C2426 C2427 1.386 . S
C2426 C2428 1.391 . S
C2427 C2426 1.386 . S
C2427 C2431 1.393 . S
C2428 H2417 0.950 . S
C2428 C2426 1.391 . S
C2428 C2429 1.400 . S
C2429 C2423 1.491 1_565 S
C2429 C2428 1.400 . S
C2429 C2430 1.398 . S
C2430 H2418 0.950 . S
C2430 C2429 1.398 . S
C2430 C2431 1.391 . S
C2431 H2419 0.950 . S
C2431 C2427 1.393 . S
C2431 C2430 1.391 . S
H2432 C2440 0.950 . S
H2433 C2445 0.950 . S
H2434 C2442 0.950 . S
H2435 C2444 0.950 . S
H2436 C2446 0.950 . S
H2437 C2448 0.950 . S
H2438 C2450 0.950 . S
H2439 C2451 0.950 . S
C2440 H2432 0.950 . S
C2440 C2441 1.386 . S
C2440 C2442 1.391 . S
C2441 C2440 1.386 . S
C2441 C2445 1.393 . S
C2442 H2434 0.950 . S
C2442 C2440 1.391 . S
C2442 C2443 1.400 . S
C2443 C2442 1.400 . S
C2443 C2444 1.398 . S
C2443 C2449 1.491 1_545 S
C2444 H2435 0.950 . S
C2444 C2443 1.398 . S
C2444 C2445 1.391 . S
C2445 H2433 0.950 . S
C2445 C2441 1.393 . S
C2445 C2444 1.391 . S
C2446 H2436 0.950 . S
C2446 C2447 1.386 . S
C2446 C2448 1.391 . S
C2447 C2446 1.386 . S
C2447 C2451 1.393 . S
C2448 H2437 0.950 . S
C2448 C2446 1.391 . S
C2448 C2449 1.400 . S
C2449 C2443 1.491 1_565 S
C2449 C2448 1.400 . S
C2449 C2450 1.398 . S
C2450 H2438 0.950 . S
C2450 C2449 1.398 . S
C2450 C2451 1.391 . S
C2451 H2439 0.950 . S
C2451 C2447 1.393 . S
C2451 C2450 1.391 . S
H2452 C2460 0.950 . S
H2453 C2465 0.950 . S
H2454 C2462 0.950 . S
H2455 C2464 0.950 . S
H2456 C2466 0.950 . S
H2457 C2468 0.950 . S
H2458 C2470 0.950 . S
H2459 C2471 0.950 . S
C2460 H2452 0.950 . S
C2460 C2461 1.386 . S
C2460 C2462 1.391 . S
C2461 C2460 1.386 . S
C2461 C2465 1.393 . S
C2462 H2454 0.950 . S
C2462 C2460 1.391 . S
C2462 C2463 1.400 . S
C2463 C2462 1.400 . S
C2463 C2464 1.398 . S
C2463 C2469 1.491 1_545 S
C2464 H2455 0.950 . S
C2464 C2463 1.398 . S
C2464 C2465 1.391 . S
C2465 H2453 0.950 . S
C2465 C2461 1.393 . S
C2465 C2464 1.391 . S
C2466 H2456 0.950 . S
C2466 C2467 1.386 . S
C2466 C2468 1.391 . S
C2467 C2466 1.386 . S
C2467 C2471 1.393 . S
C2468 H2457 0.950 . S
C2468 C2466 1.391 . S
C2468 C2469 1.400 . S
C2469 C2463 1.491 1_565 S
C2469 C2468 1.400 . S
C2469 C2470 1.398 . S
C2470 H2458 0.950 . S
C2470 C2469 1.398 . S
C2470 C2471 1.391 . S
C2471 H2459 0.950 . S
C2471 C2467 1.393 . S
C2471 C2470 1.391 . S
H2472 C2480 0.950 . S
H2473 C2485 0.950 . S
H2474 C2482 0.950 . S
H2475 C2484 0.950 . S
H2476 C2486 0.950 . S
H2477 C2488 0.950 . S
H2478 C2490 0.950 . S
H2479 C2491 0.950 . S
C2480 H2472 0.950 . S
C2480 C2481 1.386 . S
C2480 C2482 1.391 . S
C2481 C2480 1.386 . S
C2481 C2485 1.393 . S
C2482 H2474 0.950 . S
C2482 C2480 1.391 . S
C2482 C2483 1.400 . S
C2483 C2482 1.400 . S
C2483 C2484 1.398 . S
C2483 C2489 1.491 1_655 S
C2484 H2475 0.950 . S
C2484 C2483 1.398 . S
C2484 C2485 1.391 . S
C2485 H2473 0.950 . S
C2485 C2481 1.393 . S
C2485 C2484 1.391 . S
C2486 H2476 0.950 . S
C2486 C2487 1.386 . S
C2486 C2488 1.391 . S
C2487 C2486 1.386 . S
C2487 C2491 1.393 . S
C2488 H2477 0.950 . S
C2488 C2486 1.391 . S
C2488 C2489 1.400 . S
C2489 C2483 1.491 1_455 S
C2489 C2488 1.400 . S
C2489 C2490 1.398 . S
C2490 H2478 0.950 . S
C2490 C2489 1.398 . S
C2490 C2491 1.391 . S
C2491 H2479 0.950 . S
C2491 C2487 1.393 . S
C2491 C2490 1.391 . S
H2492 C2500 0.950 . S
H2493 C2505 0.950 . S
H2494 C2502 0.950 . S
H2495 C2504 0.950 . S
H2496 C2506 0.950 . S
H2497 C2508 0.950 . S
H2498 C2510 0.950 . S
H2499 C2511 0.950 . S
C2500 H2492 0.950 . S
C2500 C2501 1.386 . S
C2500 C2502 1.391 . S
C2501 C2500 1.386 . S
C2501 C2505 1.393 . S
C2502 H2494 0.950 . S
C2502 C2500 1.391 . S
C2502 C2503 1.400 . S
C2503 C2502 1.400 . S
C2503 C2504 1.398 . S
C2503 C2509 1.491 1_545 S
C2504 H2495 0.950 . S
C2504 C2503 1.398 . S
C2504 C2505 1.391 . S
C2505 H2493 0.950 . S
C2505 C2501 1.393 . S
C2505 C2504 1.391 . S
C2506 H2496 0.950 . S
C2506 C2507 1.386 . S
C2506 C2508 1.391 . S
C2507 C2506 1.386 . S
C2507 C2511 1.393 . S
C2508 H2497 0.950 . S
C2508 C2506 1.391 . S
C2508 C2509 1.400 . S
C2509 C2503 1.491 1_565 S
C2509 C2508 1.400 . S
C2509 C2510 1.398 . S
C2510 H2498 0.950 . S
C2510 C2509 1.398 . S
C2510 C2511 1.391 . S
C2511 H2499 0.950 . S
C2511 C2507 1.393 . S
C2511 C2510 1.391 . S
H2512 C2520 0.950 . S
H2513 C2525 0.950 . S
H2514 C2522 0.950 . S
H2515 C2524 0.950 . S
H2516 C2526 0.950 . S
H2517 C2528 0.950 . S
H2518 C2530 0.950 . S
H2519 C2531 0.950 . S
C2520 H2512 0.950 . S
C2520 C2521 1.386 . S
C2520 C2522 1.391 . S
C2521 C2520 1.386 . S
C2521 C2525 1.393 . S
C2522 H2514 0.950 . S
C2522 C2520 1.391 . S
C2522 C2523 1.400 . S
C2523 C2522 1.400 . S
C2523 C2524 1.398 . S
C2523 C2529 1.491 1_455 S
C2524 H2515 0.950 . S
C2524 C2523 1.398 . S
C2524 C2525 1.391 . S
C2525 H2513 0.950 . S
C2525 C2521 1.393 . S
C2525 C2524 1.391 . S
C2526 H2516 0.950 . S
C2526 C2527 1.386 . S
C2526 C2528 1.391 . S
C2527 C2526 1.386 . S
C2527 C2531 1.393 . S
C2528 H2517 0.950 . S
C2528 C2526 1.391 . S
C2528 C2529 1.400 . S
C2529 C2523 1.491 1_655 S
C2529 C2528 1.400 . S
C2529 C2530 1.398 . S
C2530 H2518 0.950 . S
C2530 C2529 1.398 . S
C2530 C2531 1.391 . S
C2531 H2519 0.950 . S
C2531 C2527 1.393 . S
C2531 C2530 1.391 . S
H2532 C2540 0.950 . S
H2533 C2545 0.950 . S
H2534 C2542 0.950 . S
H2535 C2544 0.950 . S
H2536 C2546 0.950 . S
H2537 C2548 0.950 . S
H2538 C2550 0.950 . S
H2539 C2551 0.950 . S
C2540 H2532 0.950 . S
C2540 C2541 1.386 . S
C2540 C2542 1.391 . S
C2541 C2540 1.386 . S
C2541 C2545 1.393 . S
C2542 H2534 0.950 . S
C2542 C2540 1.391 . S
C2542 C2543 1.400 . S
C2543 C2542 1.400 . S
C2543 C2544 1.398 . S
C2543 C2549 1.491 1_545 S
C2544 H2535 0.950 . S
C2544 C2543 1.398 . S
C2544 C2545 1.391 . S
C2545 H2533 0.950 . S
C2545 C2541 1.393 . S
C2545 C2544 1.391 . S
C2546 H2536 0.950 . S
C2546 C2547 1.386 . S
C2546 C2548 1.391 . S
C2547 C2546 1.386 . S
C2547 C2551 1.393 . S
C2548 H2537 0.950 . S
C2548 C2546 1.391 . S
C2548 C2549 1.400 . S
C2549 C2543 1.491 1_565 S
C2549 C2548 1.400 . S
C2549 C2550 1.398 . S
C2550 H2538 0.950 . S
C2550 C2549 1.398 . S
C2550 C2551 1.391 . S
C2551 H2539 0.950 . S
C2551 C2547 1.393 . S
C2551 C2550 1.391 . S
H2552 C2560 0.950 . S
H2553 C2565 0.950 . S
H2554 C2562 0.950 . S
H2555 C2564 0.950 . S
H2556 C2566 0.950 . S
H2557 C2568 0.950 . S
H2558 C2570 0.950 . S
H2559 C2571 0.950 . S
C2560 H2552 0.950 . S
C2560 C2561 1.386 . S
C2560 C2562 1.391 . S
C2561 C2560 1.386 . S
C2561 C2565 1.393 . S
C2562 H2554 0.950 . S
C2562 C2560 1.391 . S
C2562 C2563 1.400 . S
C2563 C2562 1.400 . S
C2563 C2564 1.398 . S
C2563 C2569 1.491 1_655 S
C2564 H2555 0.950 . S
C2564 C2563 1.398 . S
C2564 C2565 1.391 . S
C2565 H2553 0.950 . S
C2565 C2561 1.393 . S
C2565 C2564 1.391 . S
C2566 H2556 0.950 . S
C2566 C2567 1.386 . S
C2566 C2568 1.391 . S
C2567 C2566 1.386 . S
C2567 C2571 1.393 . S
C2568 H2557 0.950 . S
C2568 C2566 1.391 . S
C2568 C2569 1.400 . S
C2569 C2563 1.491 1_455 S
C2569 C2568 1.400 . S
C2569 C2570 1.398 . S
C2570 H2558 0.950 . S
C2570 C2569 1.398 . S
C2570 C2571 1.391 . S
C2571 H2559 0.950 . S
C2571 C2567 1.393 . S
C2571 C2570 1.391 . S
H2572 C2580 0.950 . S
H2573 C2585 0.950 . S
H2574 C2582 0.950 . S
H2575 C2584 0.950 . S
H2576 C2586 0.950 . S
H2577 C2588 0.950 . S
H2578 C2590 0.950 . S
H2579 C2591 0.950 . S
C2580 H2572 0.950 . S
C2580 C2581 1.386 . S
C2580 C2582 1.391 . S
C2581 C2580 1.386 . S
C2581 C2585 1.393 . S
C2582 H2574 0.950 . S
C2582 C2580 1.391 . S
C2582 C2583 1.400 . S
C2583 C2582 1.400 . S
C2583 C2584 1.398 . S
C2583 C2589 1.491 1_455 S
C2584 H2575 0.950 . S
C2584 C2583 1.398 . S
C2584 C2585 1.391 . S
C2585 H2573 0.950 . S
C2585 C2581 1.393 . S
C2585 C2584 1.391 . S
C2586 H2576 0.950 . S
C2586 C2587 1.386 . S
C2586 C2588 1.391 . S
C2587 C2586 1.386 . S
C2587 C2591 1.393 . S
C2588 H2577 0.950 . S
C2588 C2586 1.391 . S
C2588 C2589 1.400 . S
C2589 C2583 1.491 1_655 S
C2589 C2588 1.400 . S
C2589 C2590 1.398 . S
C2590 H2578 0.950 . S
C2590 C2589 1.398 . S
C2590 C2591 1.391 . S
C2591 H2579 0.950 . S
C2591 C2587 1.393 . S
C2591 C2590 1.391 . S
C681 C553 1.381 . S
C687 C7 1.400 . S
C701 C20 1.393 . S
C707 C511 1.388 . S
C721 C35 1.402 . S
C727 C525 1.379 . S
C741 C538 1.398 . S
C747 C48 1.383 . S
C761 C468 1.382 . S
C767 C62 1.399 . S
C781 C77 1.380 . S
C787 C483 1.401 . S
C801 C90 1.399 . S
C807 C497 1.382 . S
C821 C105 1.390 . S
C827 C454 1.391 . S
C841 C118 1.381 . S
C847 C441 1.400 . S
C861 C398 1.399 . S
C867 C132 1.383 . S
C881 C413 1.392 . S
C887 C147 1.390 . S
C901 C161 1.381 . S
C907 C426 1.401 . S
C921 C175 1.385 . S
C927 C356 1.396 . S
C941 C189 1.380 . S
C947 C371 1.401 . S
C961 C384 1.399 . S
C967 C202 1.382 . S
C981 C343 1.402 . S
C987 C217 1.380 . S
C1001 C230 1.379 . S
C1007 C622 1.402 . S
C1021 C665 1.396 . S
C1027 C245 1.385 . S
C1041 C636 1.385 . S
C1047 C258 1.396 . S
C1061 C651 1.397 . S
C1067 C273 1.385 . S
C1081 C566 1.387 . S
C1087 C286 1.394 . S
C1101 C594 1.396 . S
C1107 C300 1.385 . S
C1121 C315 1.385 . S
C1127 C609 1.397 . S
C1141 C581 1.386 . S
C1147 C329 1.396 . S
C1161 C455 1.389 . S
C1167 C287 1.392 . S
C1181 C244 1.381 . S
C1187 C469 1.400 . S
C1201 C482 1.384 . S
C1207 C259 1.397 . S
C1221 C496 1.396 . S
C1227 C272 1.385 . S
C1241 C328 1.401 . S
C1247 C510 1.380 . S
C1261 C524 1.386 . S
C1267 C301 1.395 . S
C1281 C314 1.395 . S
C1287 C539 1.387 . S
C1301 C231 1.397 . S
C1307 C552 1.384 . S
C1321 C567 1.396 . S
C1327 C216 1.385 . S
C1341 C174 1.381 . S
C1347 C664 1.400 . S
C1361 C637 1.402 . S
C1367 C188 1.380 . S
C1381 C203 1.380 . S
C1387 C650 1.401 . S
C1401 C133 1.393 . S
C1407 C580 1.388 . S
C1421 C146 1.402 . S
C1427 C595 1.380 . S
C1441 C160 1.401 . S
C1447 C608 1.380 . S
C1461 C623 1.392 . S
C1467 C119 1.390 . S
C1481 C342 1.395 . S
C1487 C104 1.386 . S
C1501 C399 1.383 . S
C1507 C21 1.399 . S
C1521 C412 1.388 . S
C1527 C34 1.394 . S
C1541 C427 1.385 . S
C1547 C49 1.396 . S
C1561 C440 1.380 . S
C1567 C6 1.401 . S
C1581 C76 1.391 . S
C1587 C370 1.390 . S
C1601 C385 1.398 . S
C1607 C91 1.383 . S
C1621 C357 1.395 . S
C1627 C63 1.386 . S
C1641 C8 1.510 . S
C1647 C372 1.527 . S
C1661 C387 1.510 . S
C1667 C23 1.527 . S
C1681 C36 1.525 . S
C1687 C344 1.513 . S
C1701 C51 1.516 . S
C1707 C359 1.522 . S
C1721 C65 1.510 . S
C1727 C429 1.527 . S
C1741 C442 1.527 . S
C1747 C78 1.510 . S
C1761 C93 1.525 . S
C1767 C401 1.513 . S
C1781 C414 1.516 . S
C1787 C106 1.522 . S
C1801 C121 1.513 . S
C1807 C512 1.525 . S
C1821 C526 1.527 . S
C1827 C135 1.510 . S
C1841 C148 1.527 . S
C1847 C541 1.510 . S
C1861 C162 1.512 . S
C1867 C554 1.526 . S
C1881 C176 1.520 . S
C1887 C457 1.518 . S
C1901 C190 1.511 . S
C1907 C471 1.526 . S
C1921 C484 1.521 . S
C1927 C205 1.516 . S
C1941 C218 1.523 . S
C1947 C498 1.514 . S
C1961 C610 1.510 . S
C1967 C233 1.528 . S
C1981 C246 1.517 . S
C1987 C639 1.521 . S
C2001 C261 1.510 . S
C2007 C652 1.527 . S
C2021 C569 1.527 . S
C2027 C274 1.511 . S
C2041 C666 1.512 . S
C2047 C289 1.525 . S
C2061 C303 1.519 . S
C2067 C582 1.519 . S
C2081 C597 1.520 . S
C2087 C316 1.517 . S
C2101 C330 1.517 . S
C2107 C625 1.521 . S
C2121 C596 1.514 . S
C2127 C288 1.523 . S
C2141 C247 1.527 . S
C2147 C611 1.510 . S
C2161 C624 1.521 . S
C2167 C260 1.517 . S
C2181 C583 1.524 . S
C2187 C275 1.513 . S
C2201 C653 1.510 . S
C2207 C331 1.527 . S
C2221 C302 1.510 . S
C2227 C568 1.527 . S
C2241 C667 1.519 . S
C2247 C317 1.518 . S
C2261 C232 1.513 . S
C2267 C638 1.524 . S
C2281 C470 1.524 . S
C2287 C219 1.513 . S
C2301 C177 1.527 . S
C2307 C485 1.511 . S
C2321 C191 1.525 . S
C2327 C499 1.512 . S
C2341 C456 1.514 . S
C2347 C204 1.524 . S
C2361 C134 1.527 . S
C2367 C555 1.510 . S
C2381 C513 1.517 . S
C2387 C149 1.520 . S
C2401 C163 1.512 . S
C2407 C527 1.526 . S
C2421 C120 1.524 . S
C2427 C540 1.513 . S
C2441 C386 1.526 . S
C2447 C107 1.511 . S
C2461 C22 1.522 . S
C2467 C415 1.516 . S
C2481 C37 1.519 . S
C2487 C428 1.519 . S
C2501 C443 1.510 . S
C2507 C50 1.527 . S
C2521 C9 1.514 . S
C2527 C400 1.524 . S
C2541 C79 1.516 . S
C2547 C358 1.522 . S
C2561 C92 1.522 . S
C2567 C373 1.515 . S
C2581 C64 1.517 . S
C2587 C345 1.521 . S
