# Generated by pormake.
# Topology snk, (6)-cn, num edge types: 1
# Building blocks:
#     Node 0, Type 0, BuildingBlock: UKALOJ_clean_sbu_0, # of connection points: 6
#     Node 1, Type 0, BuildingBlock: UKALOJ_clean_sbu_0, # of connection points: 6
#     Node 2, Type 0, BuildingBlock: UKALOJ_clean_sbu_0, # of connection points: 6
#     Node 3, Type 0, BuildingBlock: UKALOJ_clean_sbu_0, # of connection points: 6
#     Node 4, Type 0, BuildingBlock: UKALOJ_clean_sbu_0, # of connection points: 6
#     Node 5, Type 0, BuildingBlock: UKALOJ_clean_sbu_0, # of connection points: 6
#     Node 6, Type 0, BuildingBlock: UKALOJ_clean_sbu_0, # of connection points: 6
#     Node 7, Type 0, BuildingBlock: UKALOJ_clean_sbu_0, # of connection points: 6
#     Edge 8, Type (0, 0), BuildingBlock: OJICUG_clean_linker_0, # of connection points: 2
#     Edge 9, Type (0, 0), BuildingBlock: OJICUG_clean_linker_0, # of connection points: 2
#     Edge 10, Type (0, 0), BuildingBlock: OJICUG_clean_linker_0, # of connection points: 2
#     Edge 11, Type (0, 0), BuildingBlock: OJICUG_clean_linker_0, # of connection points: 2
#     Edge 12, Type (0, 0), BuildingBlock: OJICUG_clean_linker_0, # of connection points: 2
#     Edge 13, Type (0, 0), BuildingBlock: OJICUG_clean_linker_0, # of connection points: 2
#     Edge 14, Type (0, 0), BuildingBlock: OJICUG_clean_linker_0, # of connection points: 2
#     Edge 15, Type (0, 0), BuildingBlock: OJICUG_clean_linker_0, # of connection points: 2
#     Edge 16, Type (0, 0), BuildingBlock: OJICUG_clean_linker_0, # of connection points: 2
#     Edge 17, Type (0, 0), BuildingBlock: OJICUG_clean_linker_0, # of connection points: 2
#     Edge 18, Type (0, 0), BuildingBlock: OJICUG_clean_linker_0, # of connection points: 2
#     Edge 19, Type (0, 0), BuildingBlock: OJICUG_clean_linker_0, # of connection points: 2
#     Edge 20, Type (0, 0), BuildingBlock: OJICUG_clean_linker_0, # of connection points: 2
#     Edge 21, Type (0, 0), BuildingBlock: OJICUG_clean_linker_0, # of connection points: 2
#     Edge 22, Type (0, 0), BuildingBlock: OJICUG_clean_linker_0, # of connection points: 2
#     Edge 23, Type (0, 0), BuildingBlock: OJICUG_clean_linker_0, # of connection points: 2
#     Edge 24, Type (0, 0), BuildingBlock: OJICUG_clean_linker_0, # of connection points: 2
#     Edge 25, Type (0, 0), BuildingBlock: OJICUG_clean_linker_0, # of connection points: 2
#     Edge 26, Type (0, 0), BuildingBlock: OJICUG_clean_linker_0, # of connection points: 2
#     Edge 27, Type (0, 0), BuildingBlock: OJICUG_clean_linker_0, # of connection points: 2
#     Edge 28, Type (0, 0), BuildingBlock: OJICUG_clean_linker_0, # of connection points: 2
#     Edge 29, Type (0, 0), BuildingBlock: OJICUG_clean_linker_0, # of connection points: 2
#     Edge 30, Type (0, 0), BuildingBlock: OJICUG_clean_linker_0, # of connection points: 2
#     Edge 31, Type (0, 0), BuildingBlock: OJICUG_clean_linker_0, # of connection points: 2
# Relax obj value: 0.213
# Max RMSD: 0.115
# Mean RMSD: 0.107
data_MOF--net-snk--node1-UKALOJ_clean_sbu_0--edge1-OJICUG_clean_linker_0
_symmetry_space_group_name_H-M    P1
_symmetry_Int_Tables_number       1
_symmetry_cell_setting            triclinic
loop_
_symmetry_equiv_pos_as_xyz
'x, y, z'
_cell_length_a     36.081081
_cell_length_b     36.323858
_cell_length_c     11.337785
_cell_angle_alpha  77.066606
_cell_angle_beta   77.015386
_cell_angle_gamma 94.753034
loop_
_atom_site_label
_atom_site_type_symbol
_atom_site_fract_x
_atom_site_fract_y
_atom_site_fract_z
_atom_type_partial_charge
Zn0 Zn 0.07413 1.02163 0.50107 0.0
O1 O 0.07216 1.02115 0.68991 0.0
C2 C 0.9952 0.97508 0.57373 0.0
Zn3 Zn 1.02997 0.06099 0.50431 0.0
C4 C 0.05006 0.03991 0.74943 0.0
O5 O 1.02818 0.05916 0.69471 0.0
C6 C 0.05425 0.04271 0.25579 0.0
O7 O 0.07385 0.11254 0.44697 0.0
O8 O 0.11671 0.07325 0.44376 0.0
N9 N 0.98464 0.09195 0.51665 0.0
C10 C 0.97214 0.11786 0.43441 0.0
C11 C 0.92786 0.10158 0.60388 0.0
N12 N 0.95715 0.08222 0.62188 0.0
N13 N 0.93633 0.12406 0.48687 0.0
C14 C 0.12658 0.96106 0.57995 0.0
C15 C 0.17751 0.98114 0.43306 0.0
N16 N 0.11875 0.99009 0.49563 0.0
N17 N 0.15036 1.00223 0.40418 0.0
N18 N 0.16357 0.95516 0.54334 0.0
H19 H 0.07256 0.95391 0.7196 0.0
H20 H 0.11249 0.93739 0.77909 0.0
H21 H 0.08883 0.91102 0.69339 0.0
C22 C 0.09856 0.94004 0.70025 0.0
C23 C 0.99335 0.1337 0.3002 0.0
H24 H 1.0241 0.13009 0.28596 0.0
H25 H 0.99152 0.16441 0.26871 0.0
H26 H 0.98006 0.11874 0.24157 0.0
O27 O 1.03223 0.06177 0.31481 0.0
O28 O 0.076 1.02325 0.31087 0.0
C29 C 0.10919 0.10747 0.42968 0.0
O30 O 1.03051 0.97023 0.55758 0.0
O31 O 0.98744 1.00921 0.56042 0.0
Zn32 Zn 0.2753 0.77174 0.82129 0.0
O33 O 0.24428 0.81918 0.80577 0.0
C34 C 0.30627 0.79286 0.5317 0.0
Zn35 Zn 0.32575 0.81456 0.7391 0.0
C36 C 0.25865 0.85353 0.75227 0.0
O37 O 0.29488 0.86166 0.71393 0.0
C38 C 0.34273 0.73313 0.80694 0.0
O39 O 0.31908 0.81494 0.93461 0.0
O40 O 0.26974 0.77006 0.0105 0.0
N41 N 0.37482 0.84959 0.69423 0.0
C42 C 0.40046 0.8508 0.76311 0.0
C43 C 0.41013 0.90405 0.62842 0.0
N44 N 0.38146 0.88221 0.6079 0.0
N45 N 0.42222 0.88514 0.72643 0.0
C46 C 0.19909 0.73933 0.79644 0.0
C47 C 0.18764 0.68438 0.9227 0.0
N48 N 0.22549 0.73742 0.86361 0.0
N49 N 0.21783 0.70368 0.94471 0.0
N50 N 0.17546 0.70611 0.8296 0.0
H51 H 0.22168 0.79551 0.6624 0.0
H52 H 0.17134 0.78148 0.69618 0.0
H53 H 0.20401 0.75972 0.59847 0.0
C54 C 0.19958 0.77091 0.68315 0.0
C55 C 0.40181 0.82034 0.8765 0.0
H56 H 0.38112 0.79452 0.89642 0.0
H57 H 0.39665 0.83182 0.96057 0.0
H58 H 0.43085 0.81153 0.86251 0.0
O59 O 0.35693 0.76776 0.75796 0.0
O60 O 0.30643 0.72449 0.84275 0.0
C61 C 0.29465 0.79337 0.0288 0.0
O62 O 0.28151 0.77183 0.62589 0.0
O63 O 0.33172 0.81557 0.54994 0.0
Zn64 Zn 0.60207 0.09582 0.89793 0.0
O65 O 0.56352 0.13815 0.91364 0.0
C66 C 0.58054 0.06917 0.18349 0.0
Zn67 Zn 0.55598 0.04744 0.97795 0.0
C68 C 0.52808 0.12407 0.95548 0.0
O69 O 0.51873 0.08816 0.98199 0.0
C70 C 0.62745 1.01627 0.92669 0.0
O71 O 0.55467 0.04949 0.78678 0.0
O72 O 0.59895 0.09928 0.71346 0.0
N73 N 0.51162 1.00601 0.04174 0.0
C74 C 0.50594 0.97436 0.00243 0.0
C75 C 0.45546 0.97592 0.14032 0.0
N76 N 0.48065 1.00677 0.12927 0.0
N77 N 0.47103 0.95483 0.06323 0.0
C78 C 0.66738 0.14917 0.90134 0.0
C79 C 0.71031 0.12408 0.79873 0.0
N80 N 0.65123 0.13399 0.82497 0.0
N81 N 0.67876 0.12049 0.75533 0.0
N82 N 0.70365 0.14117 0.89358 0.0
H83 H 0.61547 0.16774 -0.00726 0.0
H84 H 0.65902 0.19968 0.96396 0.0
H85 H 0.64966 0.15712 0.08598 0.0
C86 C 0.6463 0.16926 0.99171 0.0
C87 C 0.53202 0.9646 0.89273 0.0
H88 H 0.55864 0.98451 0.84941 0.0
H89 H 0.51647 0.96355 0.81923 0.0
H90 H 0.54031 0.93598 0.92357 0.0
O91 O 0.59234 1.00592 0.97998 0.0
O92 O 0.63935 0.05171 0.88446 0.0
C93 C 0.57607 0.07432 0.69381 0.0
O94 O 0.60421 0.09236 0.09072 0.0
O95 O 0.55627 0.04577 0.16294 0.0
Zn96 Zn 0.32322 0.27127 0.23757 0.0
O97 O 0.32438 0.27475 0.04726 0.0
C98 C 0.36668 0.35108 0.17089 0.0
Zn99 Zn 0.28228 0.31383 0.23622 0.0
C100 C 0.3044 0.29565 0.98911 0.0
O101 O 0.28373 0.31625 0.04546 0.0
C102 C 0.30127 0.28932 0.4845 0.0
O103 O 0.23228 0.2688 0.2928 0.0
O104 O 0.27249 0.22669 0.2914 0.0
N105 N 0.24919 0.357 0.23043 0.0
C106 C 0.22027 0.36603 0.31274 0.0
C107 C 0.23925 0.41439 0.15678 0.0
N108 N 0.26059 0.38701 0.13345 0.0
N109 N 0.2138 0.4022 0.269 0.0
C110 C 0.39348 0.23063 0.1505 0.0
C111 C 0.37781 0.17538 0.2754 0.0
N112 N 0.35976 0.23087 0.23179 0.0
N113 N 0.35025 0.19654 0.30961 0.0
N114 N 0.40541 0.19617 0.17627 0.0
H115 H 0.39425 0.28357 0.01477 0.0
H116 H 0.42674 0.25236 0.95996 0.0
H117 H 0.43725 0.27859 0.06788 0.0
C118 C 0.41373 0.26316 0.04172 0.0
C119 C 0.20007 0.34025 0.43781 0.0
H120 H 0.21387 0.31437 0.45938 0.0
H121 H 0.17017 0.33059 0.43731 0.0
H122 H 0.19907 0.35589 0.51185 0.0
O123 O 0.282 0.31102 0.42549 0.0
O124 O 0.32117 0.26789 0.42923 0.0
C125 C 0.2378 0.23389 0.30724 0.0
O126 O 0.37243 0.31636 0.18716 0.0
O127 O 0.33222 0.35802 0.18133 0.0
Zn128 Zn 0.74663 0.24183 0.35525 0.0
O129 O 0.70442 0.28051 0.33908 0.0
C130 C 0.77374 0.26303 0.06957 0.0
Zn131 Zn 0.79588 0.28703 0.27514 0.0
C132 C 0.71903 0.31559 0.29724 0.0
O133 O 0.75524 0.32444 0.271 0.0
C134 C 0.82644 0.21575 0.32676 0.0
O135 O 0.79383 0.28822 0.46641 0.0
O136 O 0.74314 0.24493 0.53975 0.0
N137 N 0.83791 0.33079 0.21199 0.0
C138 C 0.86949 0.33639 0.25279 0.0
C139 C 0.8681 0.38675 0.11576 0.0
N140 N 0.83729 0.36168 0.1249 0.0
N141 N 0.88903 0.37123 0.19375 0.0
C142 C 0.69333 0.17708 0.35081 0.0
C143 C 0.71832 0.13477 0.45559 0.0
N144 N 0.70776 0.1933 0.42846 0.0
N145 N 0.7211 0.16611 0.4995 0.0
N146 N 0.70181 0.14118 0.35914 0.0
H147 H 0.67435 0.22827 0.25854 0.0
H148 H 0.64254 0.18474 0.28744 0.0
H149 H 0.68556 0.19416 0.16586 0.0
C150 C 0.6731 0.19762 0.25988 0.0
C151 C 0.87908 0.31023 0.36232 0.0
H152 H 0.87959 0.32533 0.437 0.0
H153 H 0.90808 0.30232 0.33192 0.0
H154 H 0.85921 0.28361 0.40392 0.0
O155 O 0.83726 0.25054 0.27318 0.0
O156 O 0.79068 0.20434 0.36902 0.0
C157 C 0.76858 0.26731 0.55939 0.0
O158 O 0.75014 0.2398 0.16237 0.0
O159 O 0.7976 0.28686 0.09005 0.0
Zn160 Zn 0.82205 0.76944 0.7534 0.0
O161 O 0.82261 0.77133 0.56457 0.0
C162 C 0.8683 0.84809 0.68123 0.0
Zn163 Zn 0.78195 0.8129 0.75112 0.0
C164 C 0.80348 0.79308 0.50554 0.0
O165 O 0.78387 0.81459 0.56073 0.0
C166 C 0.80054 0.789 -0.0008 0.0
O167 O 0.73033 0.76896 0.80846 0.0
O168 O 0.77033 0.72681 0.81068 0.0
N169 N 0.75041 0.85769 0.73871 0.0
C170 C 0.72471 0.87049 0.82112 0.0
C171 C 0.74024 0.91371 0.64989 0.0
N172 N 0.75966 0.88453 0.6324 0.0
N173 N 0.71819 0.90582 0.76765 0.0
C174 C 0.88327 0.7176 0.67384 0.0
C175 C 0.86339 0.66713 0.8213 0.0
N176 N 0.85415 0.72539 0.75858 0.0
N177 N 0.84214 0.69408 0.8504 0.0
N178 N 0.88934 0.68092 0.71051 0.0
H179 H 0.9063 0.73146 0.47436 0.0
H180 H 0.93365 0.75473 0.55842 0.0
H181 H 0.89041 0.77128 0.53462 0.0
C182 C 0.9042 0.74531 0.55306 0.0
C183 C 0.70947 0.85009 0.95619 0.0
H184 H 0.71232 0.81936 0.97118 0.0
H185 H 0.67886 0.85274 0.9902 0.0
H186 H 0.7257 0.86322 0.01212 0.0
O187 O 0.78111 0.81068 0.94068 0.0
O188 O 0.82035 0.76762 0.9436 0.0
C189 C 0.73576 0.73396 0.82521 0.0
O190 O 0.87351 0.81311 0.6969 0.0
O191 O 0.83382 0.85548 0.695 0.0
Zn192 Zn 0.57231 0.52038 0.01586 0.0
O193 O 0.56872 0.51925 0.20621 0.0
C194 C 0.49211 0.47672 0.0827 0.0
Zn195 Zn 0.52909 0.56065 0.01808 0.0
C196 C 0.54748 0.53888 0.26482 0.0
O197 O 0.52654 0.55922 0.20891 0.0
C198 C 0.55405 0.54199 0.76929 0.0
O199 O 0.57422 0.6105 0.96173 0.0
O200 O 0.61699 0.57094 0.96225 0.0
N201 N 0.4855 0.59334 0.02368 0.0
C202 C 0.47681 0.62242 0.94177 0.0
C203 C 0.42757 0.60317 0.09575 0.0
N204 N 0.45494 0.58174 0.11943 0.0
N205 N 0.44032 0.62885 0.98454 0.0
C206 C 0.61318 0.45061 0.1026 0.0
C207 C 0.66896 0.46619 0.97847 0.0
N208 N 0.6131 0.4842 0.02169 0.0
N209 N 0.64776 0.49366 0.94436 0.0
N210 N 0.64785 0.4387 0.07705 0.0
H211 H 0.591 0.41703 0.29239 0.0
H212 H 0.5645 0.40749 0.18362 0.0
H213 H 0.55997 0.44991 0.23882 0.0
C214 C 0.58028 0.43045 0.21089 0.0
C215 C 0.50329 0.64291 0.81803 0.0
H216 H 0.52891 0.62866 0.79539 0.0
H217 H 0.5137 0.6721 0.82172 0.0
H218 H 0.48777 0.64525 0.74311 0.0
O219 O 0.53202 0.56093 0.82875 0.0
O220 O 0.5758 0.52241 0.82413 0.0
C221 C 0.60946 0.6053 0.94693 0.0
O222 O 0.52715 0.47133 0.066 0.0
O223 O 0.4848 0.51084 0.0728 0.0
Zn224 Zn 1.02901 0.51877 0.51298 0.0
O225 O 1.0285 0.52521 0.31774 0.0
C226 C 0.11069 0.50087 0.44557 0.0
Zn227 Zn 0.07273 0.56838 0.43105 0.0
C228 C 0.05048 0.54927 0.22364 0.0
O229 O 0.07418 0.57377 0.24211 0.0
C230 C 0.05134 0.53798 0.72029 0.0
O231 O 1.02534 0.59981 0.44691 0.0
O232 O 0.98203 0.54993 0.53781 0.0
N233 N 0.10781 0.61756 0.38719 0.0
C234 C 0.1061 0.64431 0.45234 0.0
C235 C 0.16104 0.65551 0.32369 0.0
N236 N 0.14153 0.62501 0.30468 0.0
N237 N 0.1394 0.66812 0.41607 0.0
C238 C 0.992 0.44435 0.49181 0.0
C239 C 0.93858 0.43502 0.62753 0.0
N240 N 0.99329 0.47031 0.55892 0.0
N241 N 0.96057 0.46394 0.64581 0.0
N242 N 0.95755 0.42248 0.53056 0.0
H243 H 1.01047 0.44729 0.29473 0.0
H244 H 1.03156 0.41403 0.39274 0.0
H245 H 0.04832 0.46354 0.35619 0.0
C246 C 1.02241 0.44275 0.37798 0.0
C247 C 0.07476 0.64412 0.56659 0.0
H248 H 0.05002 0.62198 0.58948 0.0
H249 H 0.0639 0.67205 0.55315 0.0
H250 H 0.08658 0.64027 0.65008 0.0
O251 O 0.07287 0.56233 0.62618 0.0
O252 O 1.02813 0.51304 0.70189 0.0
C253 C 0.99063 0.58588 0.49998 0.0
O254 O 0.07571 0.48723 0.4945 0.0
O255 O 0.11987 0.53687 0.40948 0.0
C256 C 0.18028 0.13353 0.3805 0.0
C257 C 0.14169 0.1404 0.39686 0.0
H258 H 0.23989 0.1565 0.34073 0.0
C259 C 0.13509 0.17874 0.38384 0.0
H260 H 0.18702 0.10468 0.38968 0.0
C261 C 0.16587 0.20886 0.35562 0.0
C262 C 0.20445 0.20184 0.33939 0.0
H263 H 0.10604 0.18556 0.39578 0.0
H264 H 0.15934 0.23778 0.34641 0.0
C265 C 0.21091 0.16352 0.35242 0.0
C266 C 0.17076 0.89345 0.67803 0.0
C267 C 0.18612 0.93077 0.60822 0.0
H268 H 0.18111 0.84051 0.78332 0.0
C269 C 0.22504 0.94356 0.59612 0.0
H270 H 0.14157 0.88195 0.68544 0.0
C271 C 0.24832 0.91926 0.64909 0.0
C272 C 0.23312 0.88163 0.71612 0.0
H273 H 0.23771 0.97223 0.54305 0.0
H274 H 0.27849 0.92956 0.63376 0.0
C275 C 0.1938 0.86941 0.73303 0.0
C276 C 0.46027 0.88631 0.87936 0.0
C277 C 0.43483 0.90285 0.81339 0.0
H278 H 0.48755 0.88698 0.028 0.0
C279 C 0.41572 0.93201 0.85093 0.0
H280 H 0.47487 0.86346 0.85277 0.0
C281 C 0.42367 0.94593 0.94821 0.0
C282 C 0.45056 0.93063 0.00981 0.0
H283 H 0.39473 0.94408 0.80458 0.0
H284 H 0.41132 0.9707 0.96838 0.0
C285 C 0.46668 0.89897 0.98089 0.0
C286 C 0.45878 0.13071 0.01335 0.0
C287 C 0.49727 0.14728 0.98909 0.0
H288 H 0.39967 0.13335 0.09289 0.0
C289 C 0.50493 0.1826 0.01668 0.0
H290 H 0.45174 0.10365 -0.00734 0.0
C291 C 0.47463 0.1997 0.07423 0.0
C292 C 0.43647 0.1816 0.10506 0.0
H293 H 0.53425 0.19585 0.00046 0.0
H294 H 0.48109 0.22598 0.10015 0.0
C295 C 0.42888 0.1475 0.07138 0.0
C296 C 0.9246 0.9485 0.61579 0.0
C297 C 0.96316 0.94196 0.60298 0.0
H298 H 0.86544 0.92513 0.64896 0.0
C299 C 0.97028 0.90376 0.61515 0.0
H300 H 0.9175 0.97722 0.60693 0.0
C301 C 0.93998 0.87343 0.63933 0.0
C302 C 0.90141 0.88016 0.652 0.0
H303 H 0.99939 0.89723 0.60572 0.0
H304 H 0.94683 0.84463 0.64836 0.0
C305 C 0.89446 0.91835 0.6397 0.0
C306 C 0.87159 0.12968 0.45383 0.0
C307 C 0.91002 0.14591 0.43301 0.0
H308 H 0.81493 0.13875 0.43527 0.0
C309 C 0.92102 0.18449 0.37025 0.0
H310 H 0.86237 0.10002 0.50336 0.0
C311 C 0.89421 0.20643 0.32923 0.0
C312 C 0.85545 0.1906 0.35336 0.0
H313 H 0.94979 0.19828 0.35866 0.0
H314 H 0.9036 0.23636 0.28373 0.0
C315 C 0.84453 0.15178 0.41453 0.0
C316 C 0.74511 0.15083 0.15251 0.0
C317 C 0.71508 0.12785 0.24972 0.0
H318 H 0.76418 0.17435 0.95407 0.0
C319 C 0.69231 0.09907 0.22481 0.0
H320 H 0.76442 0.17174 0.1721 0.0
C321 C 0.69422 0.09876 0.10088 0.0
C322 C 0.71701 0.12876 0.00348 0.0
H323 H 0.67029 0.07997 0.29926 0.0
H324 H 0.67363 0.07904 0.08137 0.0
C325 C 0.74525 0.15224 0.02855 0.0
C326 C 0.71329 0.97045 0.79855 0.0
C327 C 0.69663 0.93231 0.82122 0.0
H328 H 0.70477 1.02701 0.81547 0.0
C329 C 0.65789 0.9217 0.88567 0.0
H330 H 0.74308 0.97936 0.74774 0.0
C331 C 0.63618 0.94866 0.92641 0.0
C332 C 0.65243 0.98713 0.90042 0.0
H333 H 0.64378 0.8931 0.89893 0.0
H334 H 0.6061 0.93958 0.97327 0.0
C335 C 0.69143 0.99764 0.83767 0.0
C336 C 0.63406 0.67685 0.89928 0.0
C337 C 0.64147 0.63864 0.91496 0.0
H338 H 0.65701 0.73638 0.85972 0.0
C339 C 0.68017 0.63257 0.90159 0.0
H340 H 0.60485 0.68307 0.90877 0.0
C341 C 0.71012 0.66322 0.87369 0.0
C342 C 0.70285 0.70143 0.85787 0.0
H343 H 0.68749 0.60389 0.91286 0.0
H344 H 0.73927 0.65679 0.86422 0.0
C345 C 0.66415 0.70763 0.87125 0.0
C346 C 0.6605 0.33941 0.23566 0.0
C347 C 0.6961 0.34655 0.26342 0.0
H348 H 0.61714 0.36373 0.15221 0.0
C349 C 0.71323 0.38462 0.23929 0.0
H350 H 0.64683 0.31042 0.25175 0.0
C351 C 0.69668 0.41462 0.18137 0.0
C352 C 0.66227 0.40754 0.14768 0.0
H353 H 0.74053 0.39126 0.26008 0.0
H354 H 0.71124 0.44351 0.16009 0.0
C355 C 0.64365 0.3698 0.1782 0.0
C356 C 0.95662 0.38303 0.38222 0.0
C357 C 0.93965 0.40868 0.44594 0.0
H358 H 0.95684 0.35518 0.23482 0.0
C359 C 0.91008 0.42696 0.40729 0.0
H360 H 0.97973 0.369 0.40993 0.0
C361 C 0.89645 0.41831 0.31028 0.0
C362 C 0.9125 0.39159 0.24988 0.0
H363 H 0.89761 0.448 0.45209 0.0
H364 H 0.87151 0.43024 0.28876 0.0
C365 C 0.94429 0.37593 0.28088 0.0
C366 C 0.95124 0.67349 0.57493 0.0
C367 C 0.91363 0.65844 0.645 0.0
H368 H 1.00436 0.66288 0.46917 0.0
C369 C 0.90045 0.61988 0.65679 0.0
H370 H 0.96301 0.70243 0.56765 0.0
C371 C 0.92466 0.59663 0.60338 0.0
C372 C 0.96262 0.61149 0.53629 0.0
H373 H 0.87155 0.60747 0.71 0.0
H374 H 0.91406 0.56673 0.61852 0.0
C375 C 0.97521 0.65047 0.51959 0.0
C376 C 0.39193 0.42105 0.13656 0.0
C377 C 0.39919 0.38306 0.14615 0.0
H378 H 0.4147 0.47965 0.11051 0.0
C379 C 0.43757 0.37615 0.13604 0.0
H380 H 0.36294 0.42779 0.14425 0.0
C381 C 0.46755 0.40618 0.11679 0.0
C382 C 0.46018 0.44417 0.10739 0.0
H383 H 0.44453 0.34742 0.14328 0.0
H384 H 0.49659 0.39958 0.109 0.0
C385 C 0.4218 0.45097 0.11765 0.0
C386 C 0.43203 0.69189 0.86233 0.0
C387 C 0.41715 0.65396 0.92601 0.0
H388 H 0.42043 0.7463 0.7719 0.0
C389 C 0.378 0.64142 0.94113 0.0
H390 H 0.46154 0.70292 0.85309 0.0
C391 C 0.35397 0.66653 0.89694 0.0
C392 C 0.36865 0.70477 0.8365 0.0
H393 H 0.36579 0.61227 0.99001 0.0
H394 H 0.32372 0.65629 0.91386 0.0
C395 C 0.40816 0.7169 0.81699 0.0
C396 C 0.18271 0.66743 0.67946 0.0
C397 C 0.16153 0.69197 0.73783 0.0
H398 H 0.19383 0.64237 0.52424 0.0
C399 C 0.13608 0.71175 0.67951 0.0
H400 H 0.2035 0.65291 0.72074 0.0
C401 C 0.13373 0.70888 0.561 0.0
C402 C 0.15391 0.68333 0.5048 0.0
H403 H 0.12016 0.7314 0.72222 0.0
H404 H 0.11386 0.72421 0.51724 0.0
C405 C 0.17886 0.66308 0.56417 0.0
C406 C 0.15083 0.41134 0.39213 0.0
C407 C 0.18904 0.42563 0.32756 0.0
H408 H 0.09644 0.42367 0.48292 0.0
C409 C 0.2022 0.46445 0.31133 0.0
H410 H 0.13932 0.38209 0.40217 0.0
C411 C 0.17738 0.48875 0.35523 0.0
C412 C 0.13882 0.47468 0.41646 0.0
H413 H 0.2316 0.4762 0.26173 0.0
H414 H 0.18808 0.51875 0.3374 0.0
C415 C 0.1261 0.43549 0.43715 0.0
C416 C 0.07584 1.01972 0.93854 0.0
C417 C 0.05078 0.04022 0.87951 0.0
H418 H 0.0968 1.00457 0.10287 0.0
C419 C 1.0271 0.06167 0.94506 0.0
H420 H 0.09455 1.00293 0.89071 0.0
C421 C 1.02846 0.06265 0.06663 0.0
C422 C 0.05356 0.04226 0.12569 0.0
H423 H 1.0075 0.07783 0.90245 0.0
H424 H 1.00967 0.07933 0.11436 0.0
C425 C 0.07722 1.02074 0.06018 0.0
C426 C 0.32643 0.82056 0.29933 0.0
C427 C 0.30384 0.79248 0.40287 0.0
H428 H 0.34051 0.84353 0.10108 0.0
C429 C 0.27767 0.76513 0.38239 0.0
H430 H 0.3466 0.8423 0.3117 0.0
C431 C 0.2742 0.76582 0.26137 0.0
C432 C 0.29686 0.79386 0.15778 0.0
H433 H 0.2599 0.74302 0.45983 0.0
H434 H 0.25401 0.74409 0.24903 0.0
C435 C 0.32288 0.82131 0.17838 0.0
C436 C 0.59518 0.10405 0.4635 0.0
C437 C 0.57595 0.07328 0.56395 0.0
H438 H 0.61061 0.12716 0.26607 0.0
C439 C 0.55804 0.04114 0.53834 0.0
H440 H 0.60906 0.12937 0.4799 0.0
C441 C 0.55992 0.03964 0.41477 0.0
C442 C 0.57959 0.0703 0.31419 0.0
H443 H 0.54306 1.0169 0.61353 0.0
H444 H 0.54608 1.01435 0.39809 0.0
C445 C 0.59657 0.10268 0.34043 0.0
C446 C 0.28075 0.31623 0.79556 0.0
C447 C 0.30406 0.29458 0.85921 0.0
H448 H 0.26136 0.33137 0.62831 0.0
C449 C 0.32619 0.27082 0.79892 0.0
H450 H 0.26325 0.33471 0.83927 0.0
C451 C 0.32498 0.26874 0.67802 0.0
C452 C 0.30166 0.2904 0.61437 0.0
H453 H 0.34441 0.25366 0.84526 0.0
H454 H 0.34249 0.25027 0.63429 0.0
C455 C 0.27958 0.31418 0.67463 0.0
C456 C 0.73981 0.2475 0.91266 0.0
C457 C 0.77261 0.26393 0.93892 0.0
H458 H 0.7128 0.23537 0.77318 0.0
C459 C 0.80372 0.28299 0.83838 0.0
H460 H 0.71498 0.23402 0.98697 0.0
C461 C 0.80222 0.2848 0.71484 0.0
C462 C 0.76966 0.26743 0.68921 0.0
H463 H 0.82934 0.2964 0.85509 0.0
H464 H 0.8268 0.29932 0.6397 0.0
C465 C 0.73845 0.2488 0.78962 0.0
C466 C 0.78112 0.81553 0.31077 0.0
C467 C 0.80315 0.79237 0.37547 0.0
H468 H 0.76295 0.83255 0.14226 0.0
C469 C 0.82416 0.76785 0.31562 0.0
H470 H 0.76453 0.8347 0.35404 0.0
C471 C 0.8231 0.7665 0.19399 0.0
C472 C 0.80102 0.78965 0.12932 0.0
H473 H 0.84141 0.74956 0.3628 0.0
H474 H 0.83969 0.74735 0.15064 0.0
C475 C 0.78009 0.81419 0.18924 0.0
C476 C 0.52879 0.56338 0.57968 0.0
C477 C 0.55292 0.54161 0.63944 0.0
H478 H 0.50793 0.57947 0.41547 0.0
C479 C 0.57486 0.51861 0.57534 0.0
H480 H 0.51139 0.58135 0.62635 0.0
C481 C 0.57271 0.5174 0.45449 0.0
C482 C 0.54861 0.53921 0.3947 0.0
H483 H 0.59359 0.50135 0.61868 0.0
H484 H 0.5901 0.49942 0.4078 0.0
C485 C 0.52667 0.5622 0.4588 0.0
C486 C 0.07909 0.56636 0.86998 0.0
C487 C 0.05165 0.54032 0.84923 0.0
H488 H 0.10009 0.58985 0.00367 0.0
C489 C 1.0234 0.51778 0.95262 0.0
H490 H 0.10131 0.58411 0.79266 0.0
C491 C 1.02256 0.52122 0.07371 0.0
C492 C 0.05008 0.54713 0.09457 0.0
H493 H 1.00159 0.49769 0.94006 0.0
H494 H 1.00023 0.50359 0.15091 0.0
C495 C 0.0783 0.56974 0.99113 0.0
loop_
_geom_bond_atom_site_label_1
_geom_bond_atom_site_label_2
_geom_bond_distance
_geom_bond_site_symmetry_2
_ccdc_geom_bond_type
Zn0 O1 2.055 . S
Zn0 O8 2.046 1_565 S
Zn0 N16 2.036 . S
Zn0 O28 2.053 . S
Zn0 O30 2.059 1_455 S
O1 Zn0 2.055 . S
O1 C4 1.259 1_565 S
C2 O30 1.265 . S
C2 O31 1.244 . S
Zn3 O5 2.046 . S
Zn3 O7 2.055 1_655 S
Zn3 N9 2.036 . S
Zn3 O27 2.066 . S
Zn3 O31 2.053 1_545 S
C4 O1 1.259 1_545 S
C4 O5 1.254 1_455 S
O5 Zn3 2.046 . S
O5 C4 1.254 1_655 S
C6 O27 1.256 1_455 S
C6 O28 1.244 1_545 S
O7 Zn3 2.055 1_455 S
O7 C29 1.259 . S
O8 Zn0 2.046 1_545 S
O8 C29 1.254 . S
N9 Zn3 2.036 . S
N9 C10 1.298 . S
N9 N12 1.398 . S
C10 N9 1.298 . S
C10 N13 1.367 . S
C10 C23 1.481 . S
C11 N12 1.299 . S
C11 N13 1.379 . S
N12 N9 1.398 . S
N12 C11 1.299 . S
N13 C10 1.367 . S
N13 C11 1.379 . S
C14 N16 1.298 . S
C14 N18 1.367 . S
C14 C22 1.481 . S
C15 N17 1.299 . S
C15 N18 1.379 . S
N16 Zn0 2.036 . S
N16 C14 1.298 . S
N16 N17 1.398 . S
N17 C15 1.299 . S
N17 N16 1.398 . S
N18 C14 1.367 . S
N18 C15 1.379 . S
H19 C22 0.980 . S
H20 C22 0.981 . S
H21 C22 0.981 . S
C22 C14 1.481 . S
C22 H19 0.980 . S
C22 H20 0.981 . S
C22 H21 0.981 . S
C23 C10 1.481 . S
C23 H24 0.980 . S
C23 H25 0.981 . S
C23 H26 0.981 . S
H24 C23 0.980 . S
H25 C23 0.981 . S
H26 C23 0.981 . S
O27 Zn3 2.066 . S
O27 C6 1.256 1_655 S
O28 Zn0 2.053 . S
O28 C6 1.244 1_565 S
C29 O7 1.259 . S
C29 O8 1.254 . S
O30 Zn0 2.059 1_655 S
O30 C2 1.265 . S
O31 C2 1.244 . S
O31 Zn3 2.053 1_565 S
Zn32 O33 2.055 . S
Zn32 O40 2.046 . S
Zn32 N48 2.036 . S
Zn32 O60 2.053 . S
Zn32 O62 2.066 . S
O33 Zn32 2.055 . S
O33 C36 1.259 . S
C34 O62 1.256 . S
C34 O63 1.244 . S
Zn35 O37 2.046 . S
Zn35 O39 2.055 . S
Zn35 N41 2.036 . S
Zn35 O59 2.066 . S
Zn35 O63 2.053 . S
C36 O33 1.259 . S
C36 O37 1.254 . S
O37 Zn35 2.046 . S
O37 C36 1.254 . S
C38 O59 1.256 . S
C38 O60 1.244 . S
O39 Zn35 2.055 . S
O39 C61 1.259 1_556 S
O40 Zn32 2.046 . S
O40 C61 1.254 1_556 S
N41 Zn35 2.036 . S
N41 C42 1.298 . S
N41 N44 1.398 . S
C42 N41 1.298 . S
C42 N45 1.367 . S
C42 C55 1.481 . S
C43 N44 1.299 . S
C43 N45 1.379 . S
N44 N41 1.398 . S
N44 C43 1.299 . S
N45 C42 1.367 . S
N45 C43 1.379 . S
C46 N48 1.298 . S
C46 N50 1.367 . S
C46 C54 1.481 . S
C47 N49 1.299 . S
C47 N50 1.379 . S
N48 Zn32 2.036 . S
N48 C46 1.298 . S
N48 N49 1.398 . S
N49 C47 1.299 . S
N49 N48 1.398 . S
N50 C46 1.367 . S
N50 C47 1.379 . S
H51 C54 0.980 . S
H52 C54 0.981 . S
H53 C54 0.981 . S
C54 C46 1.481 . S
C54 H51 0.980 . S
C54 H52 0.981 . S
C54 H53 0.981 . S
C55 C42 1.481 . S
C55 H56 0.980 . S
C55 H57 0.981 1_556 S
C55 H58 0.981 . S
H56 C55 0.980 . S
H57 C55 0.981 1_554 S
H58 C55 0.981 . S
O59 Zn35 2.066 . S
O59 C38 1.256 . S
O60 Zn32 2.053 . S
O60 C38 1.244 . S
C61 O39 1.259 1_554 S
C61 O40 1.254 1_554 S
O62 Zn32 2.066 . S
O62 C34 1.256 . S
O63 C34 1.244 . S
O63 Zn35 2.053 . S
Zn64 O65 2.055 1_556 S
Zn64 O72 2.046 . S
Zn64 N80 2.036 . S
Zn64 O92 2.053 1_545 S
Zn64 O94 2.066 1_556 S
O65 Zn64 2.055 1_554 S
O65 C68 1.259 . S
C66 O94 1.254 1_565 S
C66 O95 1.247 . S
Zn67 O69 2.046 1_566 S
Zn67 O71 2.055 . S
Zn67 N73 2.036 1_556 S
Zn67 O91 2.066 . S
Zn67 O95 2.053 1_556 S
C68 O65 1.259 . S
C68 O69 1.254 . S
O69 Zn67 2.046 1_544 S
O69 C68 1.254 . S
C70 O91 1.256 . S
C70 O92 1.244 . S
O71 Zn67 2.055 . S
O71 C93 1.259 1_565 S
O72 Zn64 2.046 . S
O72 C93 1.254 . S
N73 Zn67 2.036 1_554 S
N73 C74 1.298 1_554 S
N73 N76 1.398 . S
C74 N73 1.298 1_556 S
C74 N77 1.367 1_556 S
C74 C87 1.481 . S
C75 N76 1.299 . S
C75 N77 1.379 . S
N76 N73 1.398 . S
N76 C75 1.299 . S
N77 C74 1.367 1_554 S
N77 C75 1.379 . S
C78 N80 1.298 1_554 S
C78 N82 1.367 . S
C78 C86 1.481 . S
C79 N81 1.299 . S
C79 N82 1.379 1_556 S
N80 Zn64 2.036 . S
N80 C78 1.298 1_556 S
N80 N81 1.398 . S
N81 C79 1.299 . S
N81 N80 1.398 . S
N82 C78 1.367 . S
N82 C79 1.379 1_554 S
H83 C86 0.980 . S
H84 C86 0.981 . S
H85 C86 0.981 . S
C86 C78 1.481 . S
C86 H83 0.980 . S
C86 H84 0.981 . S
C86 H85 0.981 . S
C87 C74 1.481 . S
C87 H88 0.980 . S
C87 H89 0.981 . S
C87 H90 0.981 . S
H88 C87 0.980 . S
H89 C87 0.981 . S
H90 C87 0.981 . S
O91 Zn67 2.066 . S
O91 C70 1.256 . S
O92 Zn64 2.053 1_565 S
O92 C70 1.244 . S
C93 O71 1.259 1_545 S
C93 O72 1.254 . S
O94 Zn64 2.066 1_554 S
O94 C66 1.254 1_545 S
O95 C66 1.247 . S
O95 Zn67 2.053 1_554 S
Zn96 O97 2.055 . S
Zn96 O104 2.046 . S
Zn96 N112 2.036 . S
Zn96 O124 2.053 . S
Zn96 O126 2.066 . S
O97 Zn96 2.055 . S
O97 C100 1.259 1_554 S
C98 O126 1.256 . S
C98 O127 1.244 . S
Zn99 O101 2.046 . S
Zn99 O103 2.055 . S
Zn99 N105 2.036 . S
Zn99 O123 2.066 . S
Zn99 O127 2.053 . S
C100 O97 1.259 1_556 S
C100 O101 1.254 1_556 S
O101 Zn99 2.046 . S
O101 C100 1.254 1_554 S
C102 O123 1.256 . S
C102 O124 1.244 . S
O103 Zn99 2.055 . S
O103 C125 1.259 . S
O104 Zn96 2.046 . S
O104 C125 1.254 . S
N105 Zn99 2.036 . S
N105 C106 1.298 . S
N105 N108 1.398 . S
C106 N105 1.298 . S
C106 N109 1.367 . S
C106 C119 1.481 . S
C107 N108 1.299 . S
C107 N109 1.379 . S
N108 N105 1.398 . S
N108 C107 1.299 . S
N109 C106 1.367 . S
N109 C107 1.379 . S
C110 N112 1.298 . S
C110 N114 1.367 . S
C110 C118 1.481 . S
C111 N113 1.299 . S
C111 N114 1.379 . S
N112 Zn96 2.036 . S
N112 C110 1.298 . S
N112 N113 1.398 . S
N113 C111 1.299 . S
N113 N112 1.398 . S
N114 C110 1.367 . S
N114 C111 1.379 . S
H115 C118 0.980 1_556 S
H116 C118 0.981 1_556 S
H117 C118 0.981 . S
C118 C110 1.481 . S
C118 H115 0.980 1_554 S
C118 H116 0.981 1_554 S
C118 H117 0.981 . S
C119 C106 1.481 . S
C119 H120 0.980 . S
C119 H121 0.981 . S
C119 H122 0.981 . S
H120 C119 0.980 . S
H121 C119 0.981 . S
H122 C119 0.981 . S
O123 Zn99 2.066 . S
O123 C102 1.256 . S
O124 Zn96 2.053 . S
O124 C102 1.244 . S
C125 O103 1.259 . S
C125 O104 1.254 . S
O126 Zn96 2.066 . S
O126 C98 1.256 . S
O127 C98 1.244 . S
O127 Zn99 2.053 . S
Zn128 O129 2.055 . S
Zn128 O136 2.046 . S
Zn128 N144 2.036 . S
Zn128 O156 2.053 . S
Zn128 O158 2.066 . S
O129 Zn128 2.055 . S
O129 C132 1.259 . S
C130 O158 1.256 . S
C130 O159 1.244 . S
Zn131 O133 2.046 . S
Zn131 O135 2.055 . S
Zn131 N137 2.036 . S
Zn131 O155 2.066 . S
Zn131 O159 2.053 . S
C132 O129 1.259 . S
C132 O133 1.254 . S
O133 Zn131 2.046 . S
O133 C132 1.254 . S
C134 O155 1.256 . S
C134 O156 1.244 . S
O135 Zn131 2.055 . S
O135 C157 1.259 . S
O136 Zn128 2.046 . S
O136 C157 1.254 . S
N137 Zn131 2.036 . S
N137 C138 1.298 . S
N137 N140 1.398 . S
C138 N137 1.298 . S
C138 N141 1.367 . S
C138 C151 1.481 . S
C139 N140 1.299 . S
C139 N141 1.379 . S
N140 N137 1.398 . S
N140 C139 1.299 . S
N141 C138 1.367 . S
N141 C139 1.379 . S
C142 N144 1.298 . S
C142 N146 1.367 . S
C142 C150 1.481 . S
C143 N145 1.299 . S
C143 N146 1.379 . S
N144 Zn128 2.036 . S
N144 C142 1.298 . S
N144 N145 1.398 . S
N145 C143 1.299 . S
N145 N144 1.398 . S
N146 C142 1.367 . S
N146 C143 1.379 . S
H147 C150 0.980 . S
H148 C150 0.981 . S
H149 C150 0.981 . S
C150 C142 1.481 . S
C150 H147 0.980 . S
C150 H148 0.981 . S
C150 H149 0.981 . S
C151 C138 1.481 . S
C151 H152 0.980 . S
C151 H153 0.981 . S
C151 H154 0.981 . S
H152 C151 0.980 . S
H153 C151 0.981 . S
H154 C151 0.981 . S
O155 Zn131 2.066 . S
O155 C134 1.256 . S
O156 Zn128 2.053 . S
O156 C134 1.244 . S
C157 O135 1.259 . S
C157 O136 1.254 . S
O158 Zn128 2.066 . S
O158 C130 1.256 . S
O159 C130 1.244 . S
O159 Zn131 2.053 . S
Zn160 O161 2.055 . S
Zn160 O168 2.046 . S
Zn160 N176 2.036 . S
Zn160 O188 2.053 . S
Zn160 O190 2.066 . S
O161 Zn160 2.055 . S
O161 C164 1.259 . S
C162 O190 1.256 . S
C162 O191 1.244 . S
Zn163 O165 2.046 . S
Zn163 O167 2.055 . S
Zn163 N169 2.036 . S
Zn163 O187 2.066 . S
Zn163 O191 2.053 . S
C164 O161 1.259 . S
C164 O165 1.254 . S
O165 Zn163 2.046 . S
O165 C164 1.254 . S
C166 O187 1.256 . S
C166 O188 1.244 . S
O167 Zn163 2.055 . S
O167 C189 1.259 . S
O168 Zn160 2.046 . S
O168 C189 1.254 . S
N169 Zn163 2.036 . S
N169 C170 1.298 . S
N169 N172 1.398 . S
C170 N169 1.298 . S
C170 N173 1.367 . S
C170 C183 1.481 . S
C171 N172 1.299 . S
C171 N173 1.379 . S
N172 N169 1.398 . S
N172 C171 1.299 . S
N173 C170 1.367 . S
N173 C171 1.379 . S
C174 N176 1.298 . S
C174 N178 1.367 . S
C174 C182 1.481 . S
C175 N177 1.299 . S
C175 N178 1.379 . S
N176 Zn160 2.036 . S
N176 C174 1.298 . S
N176 N177 1.398 . S
N177 C175 1.299 . S
N177 N176 1.398 . S
N178 C174 1.367 . S
N178 C175 1.379 . S
H179 C182 0.980 . S
H180 C182 0.981 . S
H181 C182 0.981 . S
C182 C174 1.481 . S
C182 H179 0.980 . S
C182 H180 0.981 . S
C182 H181 0.981 . S
C183 C170 1.481 . S
C183 H184 0.980 . S
C183 H185 0.981 . S
C183 H186 0.981 . S
H184 C183 0.980 . S
H185 C183 0.981 . S
H186 C183 0.981 . S
O187 Zn163 2.066 . S
O187 C166 1.256 . S
O188 Zn160 2.053 . S
O188 C166 1.244 . S
C189 O167 1.259 . S
C189 O168 1.254 . S
O190 Zn160 2.066 . S
O190 C162 1.256 . S
O191 C162 1.244 . S
O191 Zn163 2.053 . S
Zn192 O193 2.055 . S
Zn192 O200 2.046 . S
Zn192 N208 2.036 . S
Zn192 O220 2.053 1_554 S
Zn192 O222 2.066 . S
O193 Zn192 2.055 . S
O193 C196 1.259 . S
C194 O222 1.256 . S
C194 O223 1.244 . S
Zn195 O197 2.046 . S
Zn195 O199 2.055 1_554 S
Zn195 N201 2.036 . S
Zn195 O219 2.066 1_554 S
Zn195 O223 2.053 . S
C196 O193 1.259 . S
C196 O197 1.254 . S
O197 Zn195 2.046 . S
O197 C196 1.254 . S
C198 O219 1.256 . S
C198 O220 1.244 . S
O199 Zn195 2.055 1_556 S
O199 C221 1.259 . S
O200 Zn192 2.046 . S
O200 C221 1.254 1_554 S
N201 Zn195 2.036 . S
N201 C202 1.298 1_554 S
N201 N204 1.398 . S
C202 N201 1.298 1_556 S
C202 N205 1.367 . S
C202 C215 1.481 . S
C203 N204 1.299 . S
C203 N205 1.379 1_554 S
N204 N201 1.398 . S
N204 C203 1.299 . S
N205 C202 1.367 . S
N205 C203 1.379 1_556 S
C206 N208 1.298 . S
C206 N210 1.367 . S
C206 C214 1.481 . S
C207 N209 1.299 . S
C207 N210 1.379 1_556 S
N208 Zn192 2.036 . S
N208 C206 1.298 . S
N208 N209 1.398 1_554 S
N209 C207 1.299 . S
N209 N208 1.398 1_556 S
N210 C206 1.367 . S
N210 C207 1.379 1_554 S
H211 C214 0.980 . S
H212 C214 0.981 . S
H213 C214 0.981 . S
C214 C206 1.481 . S
C214 H211 0.980 . S
C214 H212 0.981 . S
C214 H213 0.981 . S
C215 C202 1.481 . S
C215 H216 0.980 . S
C215 H217 0.981 . S
C215 H218 0.981 . S
H216 C215 0.980 . S
H217 C215 0.981 . S
H218 C215 0.981 . S
O219 Zn195 2.066 1_556 S
O219 C198 1.256 . S
O220 Zn192 2.053 1_556 S
O220 C198 1.244 . S
C221 O199 1.259 . S
C221 O200 1.254 1_556 S
O222 Zn192 2.066 . S
O222 C194 1.256 . S
O223 C194 1.244 . S
O223 Zn195 2.053 . S
Zn224 O225 2.055 . S
Zn224 O232 2.046 . S
Zn224 N240 2.036 . S
Zn224 O252 2.053 . S
Zn224 O254 2.066 1_655 S
O225 Zn224 2.055 . S
O225 C228 1.259 1_655 S
C226 O254 1.256 . S
C226 O255 1.244 . S
Zn227 O229 2.046 . S
Zn227 O231 2.055 1_455 S
Zn227 N233 2.036 . S
Zn227 O251 2.066 . S
Zn227 O255 2.053 . S
C228 O225 1.259 1_455 S
C228 O229 1.254 . S
O229 Zn227 2.046 . S
O229 C228 1.254 . S
C230 O251 1.256 . S
C230 O252 1.244 1_455 S
O231 Zn227 2.055 1_655 S
O231 C253 1.259 . S
O232 Zn224 2.046 . S
O232 C253 1.254 . S
N233 Zn227 2.036 . S
N233 C234 1.298 . S
N233 N236 1.398 . S
C234 N233 1.298 . S
C234 N237 1.367 . S
C234 C247 1.481 . S
C235 N236 1.299 . S
C235 N237 1.379 . S
N236 N233 1.398 . S
N236 C235 1.299 . S
N237 C234 1.367 . S
N237 C235 1.379 . S
C238 N240 1.298 . S
C238 N242 1.367 . S
C238 C246 1.481 . S
C239 N241 1.299 . S
C239 N242 1.379 . S
N240 Zn224 2.036 . S
N240 C238 1.298 . S
N240 N241 1.398 . S
N241 C239 1.299 . S
N241 N240 1.398 . S
N242 C238 1.367 . S
N242 C239 1.379 . S
H243 C246 0.980 . S
H244 C246 0.981 . S
H245 C246 0.981 . S
C246 C238 1.481 . S
C246 H243 0.980 . S
C246 H244 0.981 . S
C246 H245 0.981 . S
C247 C234 1.481 . S
C247 H248 0.980 . S
C247 H249 0.981 . S
C247 H250 0.981 . S
H248 C247 0.980 . S
H249 C247 0.981 . S
H250 C247 0.981 . S
O251 Zn227 2.066 . S
O251 C230 1.256 . S
O252 Zn224 2.053 . S
O252 C230 1.244 1_655 S
C253 O231 1.259 . S
C253 O232 1.254 . S
O254 Zn224 2.066 1_455 S
O254 C226 1.256 . S
O255 C226 1.244 . S
O255 Zn227 2.053 . S
C256 C257 1.387 . S
C256 H260 0.950 . S
C256 C265 1.390 . S
C257 C256 1.387 . S
C257 C259 1.387 . S
H258 C265 0.950 . S
C259 C257 1.387 . S
C259 C261 1.390 . S
C259 H263 0.950 . S
H260 C256 0.950 . S
C261 C259 1.390 . S
C261 C262 1.387 . S
C261 H264 0.950 . S
C262 C261 1.387 . S
C262 C265 1.387 . S
H263 C259 0.950 . S
H264 C261 0.950 . S
C265 C256 1.390 . S
C265 H258 0.950 . S
C265 C262 1.387 . S
C266 C267 1.387 . S
C266 H270 0.950 . S
C266 C275 1.390 . S
C267 C266 1.387 . S
C267 C269 1.387 . S
H268 C275 0.950 . S
C269 C267 1.387 . S
C269 C271 1.390 . S
C269 H273 0.950 . S
H270 C266 0.950 . S
C271 C269 1.390 . S
C271 C272 1.387 . S
C271 H274 0.950 . S
C272 C271 1.387 . S
C272 C275 1.387 . S
H273 C269 0.950 . S
H274 C271 0.950 . S
C275 C266 1.390 . S
C275 H268 0.950 . S
C275 C272 1.387 . S
C276 C277 1.387 . S
C276 H280 0.950 . S
C276 C285 1.390 1_556 S
C277 C276 1.387 . S
C277 C279 1.387 . S
H278 C285 0.950 . S
C279 C277 1.387 . S
C279 C281 1.390 . S
C279 H283 0.950 . S
H280 C276 0.950 . S
C281 C279 1.390 . S
C281 C282 1.387 . S
C281 H284 0.950 . S
C282 C281 1.387 . S
C282 C285 1.387 1_556 S
H283 C279 0.950 . S
H284 C281 0.950 . S
C285 C276 1.390 1_554 S
C285 H278 0.950 . S
C285 C282 1.387 1_554 S
C286 C287 1.387 . S
C286 H290 0.950 . S
C286 C295 1.390 . S
C287 C286 1.387 . S
C287 C289 1.387 1_554 S
H288 C295 0.950 . S
C289 C287 1.387 1_556 S
C289 C291 1.390 1_556 S
C289 H293 0.950 . S
H290 C286 0.950 . S
C291 C289 1.390 1_554 S
C291 C292 1.387 . S
C291 H294 0.950 1_554 S
C292 C291 1.387 . S
C292 C295 1.387 . S
H293 C289 0.950 . S
H294 C291 0.950 1_556 S
C295 C286 1.390 . S
C295 H288 0.950 . S
C295 C292 1.387 . S
C296 C297 1.387 . S
C296 H300 0.950 . S
C296 C305 1.390 . S
C297 C296 1.387 . S
C297 C299 1.387 . S
H298 C305 0.950 . S
C299 C297 1.387 . S
C299 C301 1.390 . S
C299 H303 0.950 . S
H300 C296 0.950 . S
C301 C299 1.390 . S
C301 C302 1.387 . S
C301 H304 0.950 . S
C302 C301 1.387 . S
C302 C305 1.387 . S
H303 C299 0.950 . S
H304 C301 0.950 . S
C305 C296 1.390 . S
C305 H298 0.950 . S
C305 C302 1.387 . S
C306 C307 1.387 . S
C306 H310 0.950 . S
C306 C315 1.390 . S
C307 C306 1.387 . S
C307 C309 1.387 . S
H308 C315 0.950 . S
C309 C307 1.387 . S
C309 C311 1.390 . S
C309 H313 0.950 . S
H310 C306 0.950 . S
C311 C309 1.390 . S
C311 C312 1.387 . S
C311 H314 0.950 . S
C312 C311 1.387 . S
C312 C315 1.387 . S
H313 C309 0.950 . S
H314 C311 0.950 . S
C315 C306 1.390 . S
C315 H308 0.950 . S
C315 C312 1.387 . S
C316 C317 1.387 . S
C316 H320 0.950 . S
C316 C325 1.390 . S
C317 C316 1.387 . S
C317 C319 1.387 . S
H318 C325 0.950 1_556 S
C319 C317 1.387 . S
C319 C321 1.390 . S
C319 H323 0.950 . S
H320 C316 0.950 . S
C321 C319 1.390 . S
C321 C322 1.387 . S
C321 H324 0.950 . S
C322 C321 1.387 . S
C322 C325 1.387 . S
H323 C319 0.950 . S
H324 C321 0.950 . S
C325 C316 1.390 . S
C325 H318 0.950 1_554 S
C325 C322 1.387 . S
C326 C327 1.387 . S
C326 H330 0.950 1_556 S
C326 C335 1.390 1_556 S
C327 C326 1.387 . S
C327 C329 1.387 . S
H328 C335 0.950 . S
C329 C327 1.387 . S
C329 C331 1.390 . S
C329 H333 0.950 . S
H330 C326 0.950 1_554 S
C331 C329 1.390 . S
C331 C332 1.387 . S
C331 H334 0.950 . S
C332 C331 1.387 . S
C332 C335 1.387 1_556 S
H333 C329 0.950 . S
H334 C331 0.950 . S
C335 C326 1.390 1_554 S
C335 H328 0.950 . S
C335 C332 1.387 1_554 S
C336 C337 1.387 1_554 S
C336 H340 0.950 . S
C336 C345 1.390 1_554 S
C337 C336 1.387 1_556 S
C337 C339 1.387 . S
H338 C345 0.950 1_554 S
C339 C337 1.387 . S
C339 C341 1.390 . S
C339 H343 0.950 . S
H340 C336 0.950 . S
C341 C339 1.390 . S
C341 C342 1.387 . S
C341 H344 0.950 . S
C342 C341 1.387 . S
C342 C345 1.387 . S
H343 C339 0.950 . S
H344 C341 0.950 . S
C345 C336 1.390 1_556 S
C345 H338 0.950 1_556 S
C345 C342 1.387 . S
C346 C347 1.387 . S
C346 H350 0.950 . S
C346 C355 1.390 . S
C347 C346 1.387 . S
C347 C349 1.387 . S
H348 C355 0.950 1_556 S
C349 C347 1.387 . S
C349 C351 1.390 . S
C349 H353 0.950 . S
H350 C346 0.950 . S
C351 C349 1.390 . S
C351 C352 1.387 . S
C351 H354 0.950 . S
C352 C351 1.387 . S
C352 C355 1.387 . S
H353 C349 0.950 . S
H354 C351 0.950 . S
C355 C346 1.390 . S
C355 H348 0.950 1_554 S
C355 C352 1.387 . S
C356 C357 1.387 . S
C356 H360 0.950 . S
C356 C365 1.390 . S
C357 C356 1.387 . S
C357 C359 1.387 . S
H358 C365 0.950 . S
C359 C357 1.387 . S
C359 C361 1.390 . S
C359 H363 0.950 . S
H360 C356 0.950 . S
C361 C359 1.390 . S
C361 C362 1.387 . S
C361 H364 0.950 . S
C362 C361 1.387 . S
C362 C365 1.387 . S
H363 C359 0.950 . S
H364 C361 0.950 . S
C365 C356 1.390 . S
C365 H358 0.950 . S
C365 C362 1.387 . S
C366 C367 1.387 . S
C366 H370 0.950 . S
C366 C375 1.390 . S
C367 C366 1.387 . S
C367 C369 1.387 . S
H368 C375 0.950 . S
C369 C367 1.387 . S
C369 C371 1.390 . S
C369 H373 0.950 . S
H370 C366 0.950 . S
C371 C369 1.390 . S
C371 C372 1.387 . S
C371 H374 0.950 . S
C372 C371 1.387 . S
C372 C375 1.387 . S
H373 C369 0.950 . S
H374 C371 0.950 . S
C375 C366 1.390 . S
C375 H368 0.950 . S
C375 C372 1.387 . S
C376 C377 1.387 . S
C376 H380 0.950 . S
C376 C385 1.390 . S
C377 C376 1.387 . S
C377 C379 1.387 . S
H378 C385 0.950 . S
C379 C377 1.387 . S
C379 C381 1.390 . S
C379 H383 0.950 1_554 S
H380 C376 0.950 . S
C381 C379 1.390 . S
C381 C382 1.387 . S
C381 H384 0.950 1_554 S
C382 C381 1.387 . S
C382 C385 1.387 . S
H383 C379 0.950 1_556 S
H384 C381 0.950 1_556 S
C385 C376 1.390 . S
C385 H378 0.950 . S
C385 C382 1.387 . S
C386 C387 1.387 . S
C386 H390 0.950 1_556 S
C386 C395 1.390 . S
C387 C386 1.387 . S
C387 C389 1.387 . S
H388 C395 0.950 1_554 S
C389 C387 1.387 . S
C389 C391 1.390 . S
C389 H393 0.950 . S
H390 C386 0.950 1_554 S
C391 C389 1.390 . S
C391 C392 1.387 . S
C391 H394 0.950 . S
C392 C391 1.387 . S
C392 C395 1.387 . S
H393 C389 0.950 . S
H394 C391 0.950 . S
C395 C386 1.390 . S
C395 H388 0.950 1_556 S
C395 C392 1.387 . S
C396 C397 1.387 . S
C396 H400 0.950 . S
C396 C405 1.390 . S
C397 C396 1.387 . S
C397 C399 1.387 . S
H398 C405 0.950 . S
C399 C397 1.387 . S
C399 C401 1.390 . S
C399 H403 0.950 . S
H400 C396 0.950 . S
C401 C399 1.390 . S
C401 C402 1.387 . S
C401 H404 0.950 . S
C402 C401 1.387 . S
C402 C405 1.387 . S
H403 C399 0.950 . S
H404 C401 0.950 . S
C405 C396 1.390 . S
C405 H398 0.950 . S
C405 C402 1.387 . S
C406 C407 1.387 . S
C406 H410 0.950 . S
C406 C415 1.390 . S
C407 C406 1.387 . S
C407 C409 1.387 . S
H408 C415 0.950 . S
C409 C407 1.387 . S
C409 C411 1.390 . S
C409 H413 0.950 . S
H410 C406 0.950 . S
C411 C409 1.390 . S
C411 C412 1.387 . S
C411 H414 0.950 . S
C412 C411 1.387 . S
C412 C415 1.387 . S
H413 C409 0.950 . S
H414 C411 0.950 . S
C415 C406 1.390 . S
C415 H408 0.950 . S
C415 C412 1.387 . S
C416 C417 1.387 1_565 S
C416 H420 0.950 . S
C416 C425 1.390 1_556 S
C417 C416 1.387 1_545 S
C417 C419 1.387 1_455 S
H418 C425 0.950 . S
C419 C417 1.387 1_655 S
C419 C421 1.390 1_556 S
C419 H423 0.950 . S
H420 C416 0.950 . S
C421 C419 1.390 1_554 S
C421 C422 1.387 1_655 S
C421 H424 0.950 . S
C422 C421 1.387 1_455 S
C422 C425 1.387 1_545 S
H423 C419 0.950 . S
H424 C421 0.950 . S
C425 C416 1.390 1_554 S
C425 H418 0.950 . S
C425 C422 1.387 1_565 S
C426 C427 1.387 . S
C426 H430 0.950 . S
C426 C435 1.390 . S
C427 C426 1.387 . S
C427 C429 1.387 . S
H428 C435 0.950 . S
C429 C427 1.387 . S
C429 C431 1.390 . S
C429 H433 0.950 . S
H430 C426 0.950 . S
C431 C429 1.390 . S
C431 C432 1.387 . S
C431 H434 0.950 . S
C432 C431 1.387 . S
C432 C435 1.387 . S
H433 C429 0.950 . S
H434 C431 0.950 . S
C435 C426 1.390 . S
C435 H428 0.950 . S
C435 C432 1.387 . S
C436 C437 1.387 . S
C436 H440 0.950 . S
C436 C445 1.390 . S
C437 C436 1.387 . S
C437 C439 1.387 1_545 S
H438 C445 0.950 . S
C439 C437 1.387 1_565 S
C439 C441 1.390 . S
C439 H443 0.950 . S
H440 C436 0.950 . S
C441 C439 1.390 . S
C441 C442 1.387 1_565 S
C441 H444 0.950 . S
C442 C441 1.387 1_545 S
C442 C445 1.387 . S
H443 C439 0.950 . S
H444 C441 0.950 . S
C445 C436 1.390 . S
C445 H438 0.950 . S
C445 C442 1.387 . S
C446 C447 1.387 . S
C446 H450 0.950 . S
C446 C455 1.390 . S
C447 C446 1.387 . S
C447 C449 1.387 . S
H448 C455 0.950 . S
C449 C447 1.387 . S
C449 C451 1.390 . S
C449 H453 0.950 . S
H450 C446 0.950 . S
C451 C449 1.390 . S
C451 C452 1.387 . S
C451 H454 0.950 . S
C452 C451 1.387 . S
C452 C455 1.387 . S
H453 C449 0.950 . S
H454 C451 0.950 . S
C455 C446 1.390 . S
C455 H448 0.950 . S
C455 C452 1.387 . S
C456 C457 1.387 . S
C456 H460 0.950 . S
C456 C465 1.390 . S
C457 C456 1.387 . S
C457 C459 1.387 . S
H458 C465 0.950 . S
C459 C457 1.387 . S
C459 C461 1.390 . S
C459 H463 0.950 . S
H460 C456 0.950 . S
C461 C459 1.390 . S
C461 C462 1.387 . S
C461 H464 0.950 . S
C462 C461 1.387 . S
C462 C465 1.387 . S
H463 C459 0.950 . S
H464 C461 0.950 . S
C465 C456 1.390 . S
C465 H458 0.950 . S
C465 C462 1.387 . S
C466 C467 1.387 . S
C466 H470 0.950 . S
C466 C475 1.390 . S
C467 C466 1.387 . S
C467 C469 1.387 . S
H468 C475 0.950 . S
C469 C467 1.387 . S
C469 C471 1.390 . S
C469 H473 0.950 . S
H470 C466 0.950 . S
C471 C469 1.390 . S
C471 C472 1.387 . S
C471 H474 0.950 . S
C472 C471 1.387 . S
C472 C475 1.387 . S
H473 C469 0.950 . S
H474 C471 0.950 . S
C475 C466 1.390 . S
C475 H468 0.950 . S
C475 C472 1.387 . S
C476 C477 1.387 . S
C476 H480 0.950 . S
C476 C485 1.390 . S
C477 C476 1.387 . S
C477 C479 1.387 . S
H478 C485 0.950 . S
C479 C477 1.387 . S
C479 C481 1.390 . S
C479 H483 0.950 . S
H480 C476 0.950 . S
C481 C479 1.390 . S
C481 C482 1.387 . S
C481 H484 0.950 . S
C482 C481 1.387 . S
C482 C485 1.387 . S
H483 C479 0.950 . S
H484 C481 0.950 . S
C485 C476 1.390 . S
C485 H478 0.950 . S
C485 C482 1.387 . S
C486 C487 1.387 . S
C486 H490 0.950 . S
C486 C495 1.390 1_556 S
C487 C486 1.387 . S
C487 C489 1.387 . S
H488 C495 0.950 . S
C489 C487 1.387 . S
C489 C491 1.390 1_556 S
C489 H493 0.950 . S
H490 C486 0.950 . S
C491 C489 1.390 1_554 S
C491 C492 1.387 . S
C491 H494 0.950 . S
C492 C491 1.387 . S
C492 C495 1.387 . S
H493 C489 0.950 . S
H494 C491 0.950 . S
C495 C486 1.390 1_554 S
C495 H488 0.950 . S
C495 C492 1.387 . S
C257 C29 2.755 . S
C262 C125 2.755 . S
C267 N18 1.497 . S
C272 C36 1.556 . S
C277 N45 0.849 . S
C282 N77 0.854 1_556 S
C287 C68 1.556 . S
C292 N114 1.500 . S
C297 C2 3.091 . S
C302 C162 3.091 . S
C307 N13 1.455 . S
C312 C134 1.497 . S
C317 N146 0.504 . S
C322 N82 0.500 . S
C327 N173 1.455 . S
C332 C70 1.497 . S
C337 C221 2.756 . S
C342 C189 2.756 . S
C347 C132 1.556 . S
C352 N210 1.500 . S
C357 N242 0.851 . S
C362 N141 0.848 . S
C367 N178 1.498 . S
C372 C253 1.556 . S
C377 C98 3.091 . S
C382 C194 3.091 . S
C387 N205 1.453 . S
C392 C38 1.497 . S
C397 N50 0.498 . S
C402 N237 0.501 . S
C407 N109 1.455 . S
C412 C226 1.497 . S
C417 C4 1.422 . S
C422 C6 1.431 . S
C427 C34 1.461 . S
C432 C61 1.464 . S
C437 C93 1.463 . S
C442 C66 1.460 1_545 S
C447 C100 1.421 . S
C452 C102 1.430 . S
C457 C130 1.462 1_556 S
C462 C157 1.465 . S
C467 C164 1.420 . S
C472 C166 1.429 1_554 S
C477 C198 1.429 . S
C482 C196 1.421 . S
C487 C230 1.461 . S
C492 C228 1.463 . S
