# Generated by pormake.
# Topology wjo, (5)-cn, num edge types: 1
# Building blocks:
#     Node 0, Type 0, BuildingBlock: XOMCOT_clean_sbu_0, # of connection points: 5
#     Node 1, Type 0, BuildingBlock: XOMCOT_clean_sbu_0, # of connection points: 5
#     Node 2, Type 0, BuildingBlock: XOMCOT_clean_sbu_0, # of connection points: 5
#     Node 3, Type 0, BuildingBlock: XOMCOT_clean_sbu_0, # of connection points: 5
#     Node 4, Type 0, BuildingBlock: XOMCOT_clean_sbu_0, # of connection points: 5
#     Node 5, Type 0, BuildingBlock: XOMCOT_clean_sbu_0, # of connection points: 5
#     Node 6, Type 0, BuildingBlock: XOMCOT_clean_sbu_0, # of connection points: 5
#     Node 7, Type 0, BuildingBlock: XOMCOT_clean_sbu_0, # of connection points: 5
#     Node 8, Type 0, BuildingBlock: XOMCOT_clean_sbu_0, # of connection points: 5
#     Node 9, Type 0, BuildingBlock: XOMCOT_clean_sbu_0, # of connection points: 5
#     Node 10, Type 0, BuildingBlock: XOMCOT_clean_sbu_0, # of connection points: 5
#     Node 11, Type 0, BuildingBlock: XOMCOT_clean_sbu_0, # of connection points: 5
#     Edge 12, Type (0, 0), BuildingBlock: XIVTED_clean_linker_0, # of connection points: 2
#     Edge 13, Type (0, 0), BuildingBlock: XIVTED_clean_linker_0, # of connection points: 2
#     Edge 14, Type (0, 0), BuildingBlock: XIVTED_clean_linker_0, # of connection points: 2
#     Edge 15, Type (0, 0), BuildingBlock: XIVTED_clean_linker_0, # of connection points: 2
#     Edge 16, Type (0, 0), BuildingBlock: XIVTED_clean_linker_0, # of connection points: 2
#     Edge 17, Type (0, 0), BuildingBlock: XIVTED_clean_linker_0, # of connection points: 2
#     Edge 18, Type (0, 0), BuildingBlock: XIVTED_clean_linker_0, # of connection points: 2
#     Edge 19, Type (0, 0), BuildingBlock: XIVTED_clean_linker_0, # of connection points: 2
#     Edge 20, Type (0, 0), BuildingBlock: XIVTED_clean_linker_0, # of connection points: 2
#     Edge 21, Type (0, 0), BuildingBlock: XIVTED_clean_linker_0, # of connection points: 2
#     Edge 22, Type (0, 0), BuildingBlock: XIVTED_clean_linker_0, # of connection points: 2
#     Edge 23, Type (0, 0), BuildingBlock: XIVTED_clean_linker_0, # of connection points: 2
#     Edge 24, Type (0, 0), BuildingBlock: XIVTED_clean_linker_0, # of connection points: 2
#     Edge 25, Type (0, 0), BuildingBlock: XIVTED_clean_linker_0, # of connection points: 2
#     Edge 26, Type (0, 0), BuildingBlock: XIVTED_clean_linker_0, # of connection points: 2
#     Edge 27, Type (0, 0), BuildingBlock: XIVTED_clean_linker_0, # of connection points: 2
#     Edge 28, Type (0, 0), BuildingBlock: XIVTED_clean_linker_0, # of connection points: 2
#     Edge 29, Type (0, 0), BuildingBlock: XIVTED_clean_linker_0, # of connection points: 2
#     Edge 30, Type (0, 0), BuildingBlock: XIVTED_clean_linker_0, # of connection points: 2
#     Edge 31, Type (0, 0), BuildingBlock: XIVTED_clean_linker_0, # of connection points: 2
#     Edge 32, Type (0, 0), BuildingBlock: XIVTED_clean_linker_0, # of connection points: 2
#     Edge 33, Type (0, 0), BuildingBlock: XIVTED_clean_linker_0, # of connection points: 2
#     Edge 34, Type (0, 0), BuildingBlock: XIVTED_clean_linker_0, # of connection points: 2
#     Edge 35, Type (0, 0), BuildingBlock: XIVTED_clean_linker_0, # of connection points: 2
#     Edge 36, Type (0, 0), BuildingBlock: XIVTED_clean_linker_0, # of connection points: 2
#     Edge 37, Type (0, 0), BuildingBlock: XIVTED_clean_linker_0, # of connection points: 2
#     Edge 38, Type (0, 0), BuildingBlock: XIVTED_clean_linker_0, # of connection points: 2
#     Edge 39, Type (0, 0), BuildingBlock: XIVTED_clean_linker_0, # of connection points: 2
#     Edge 40, Type (0, 0), BuildingBlock: XIVTED_clean_linker_0, # of connection points: 2
#     Edge 41, Type (0, 0), BuildingBlock: XIVTED_clean_linker_0, # of connection points: 2
# Relax obj value: 0.367
# Max RMSD: 0.208
# Mean RMSD: 0.207
data_MOF--net-wjo--node1-XOMCOT_clean_sbu_0--edge1-XIVTED_clean_linker_0
_symmetry_space_group_name_H-M    P1
_symmetry_Int_Tables_number       1
_symmetry_cell_setting            triclinic
loop_
_symmetry_equiv_pos_as_xyz
'x, y, z'
_cell_length_a     46.832384
_cell_length_b     46.818087
_cell_length_c     29.616502
_cell_angle_alpha  89.970005
_cell_angle_beta   90.070881
_cell_angle_gamma 120.04958
loop_
_atom_site_label
_atom_site_type_symbol
_atom_site_fract_x
_atom_site_fract_y
_atom_site_fract_z
_atom_type_partial_charge
Co0 Co 0.26276 0.36917 0.98058 0.0
C1 C 0.27613 0.33183 0.91033 0.0
C2 C 0.22451 0.31097 0.92293 0.0
C3 C 0.22886 0.29019 0.89457 0.0
N4 N 0.25408 0.33765 0.93211 0.0
N5 N 0.26142 0.30319 0.88686 0.0
H6 H 0.30242 0.34621 0.91508 0.0
H7 H 0.20146 0.30566 0.93835 0.0
C8 C 0.20189 0.36467 0.93547 0.0
O9 O 0.21151 0.36255 0.89459 0.0
N10 N 0.27139 0.3994 0.02977 0.0
C11 C 0.3012 0.42378 0.04335 0.0
C12 C 0.29813 0.43362 0.08601 0.0
C13 C 0.25062 0.3948 0.06401 0.0
N14 N 0.26637 0.41523 0.09889 0.0
C15 C 0.31935 0.41383 0.92952 0.0
C16 C 0.30245 0.46223 0.9201 0.0
C17 C 0.33471 0.46986 0.90958 0.0
C18 C 0.34259 0.44475 0.91304 0.0
C19 C 0.27966 0.43065 0.93593 0.0
N20 N 0.28841 0.40699 0.94133 0.0
H21 H 0.32766 0.39672 0.93702 0.0
H22 H 0.25608 0.42646 0.94762 0.0
H23 H 0.32397 0.43214 0.02499 0.0
H24 H 0.22522 0.37494 0.06499 0.0
O25 O 0.29758 0.36213 0.00336 0.0
O26 O 0.24481 0.33359 0.02318 0.0
O27 O 0.22016 0.36877 0.96962 0.0
C28 C 0.27483 0.33972 0.02906 0.0
H29 H 0.20954 0.26648 0.88258 0.0
H30 H 0.31797 0.45177 0.10677 0.0
H31 H 0.29534 0.48094 0.91824 0.0
H32 H 0.36743 0.44967 0.90676 0.0
Co33 Co 0.90699 0.26086 0.14609 0.0
C34 C 0.95859 0.2772 0.07701 0.0
C35 C 0.92596 0.22508 0.08074 0.0
C36 C 0.9513 0.23122 0.05141 0.0
N37 N 0.92998 0.25404 0.09599 0.0
N38 N 0.97195 0.26408 0.04939 0.0
H39 H 0.97088 0.30299 0.08559 0.0
H40 H 0.90745 0.201 0.09256 0.0
C41 C 0.84901 0.19883 0.10361 0.0
O42 O 0.85688 0.20893 0.06171 0.0
N43 N 0.8853 0.26797 0.19659 0.0
C44 C 0.88647 0.2964 0.208 0.0
C45 C 0.87171 0.29237 0.24945 0.0
C46 C 0.87041 0.24724 0.2314 0.0
N47 N 0.86185 0.26154 0.2642 0.0
C48 C 0.91535 0.31624 0.0955 0.0
C49 C 0.84952 0.29867 0.09548 0.0
C50 C 0.87349 0.33157 0.08716 0.0
C51 C 0.90653 0.33973 0.08467 0.0
C52 C 0.85943 0.27569 0.10607 0.0
N53 N 0.8922 0.28503 0.10808 0.0
H54 H 0.94116 0.32474 0.09929 0.0
H55 H 0.84088 0.25172 0.11802 0.0
H56 H 0.89849 0.31896 0.18857 0.0
H57 H 0.86697 0.22262 0.23325 0.0
O58 O 0.94837 0.29723 0.1678 0.0
O59 O 0.92723 0.24466 0.18725 0.0
O60 O 0.8659 0.21703 0.13651 0.0
C61 C 0.95008 0.27522 0.19276 0.0
H62 H 0.9555 0.21281 0.03559 0.0
H63 H 0.86996 0.31123 0.26829 0.0
H64 H 0.82374 0.29155 0.09824 0.0
H65 H 0.92577 0.36495 0.07846 0.0
Co66 Co 0.6498 0.89904 0.30882 0.0
C67 C 0.69188 0.95696 0.2508 0.0
C68 C 0.67855 0.91181 0.21633 0.0
C69 C 0.69723 0.93787 0.18759 0.0
N70 N 0.67527 0.9238 0.25616 0.0
N71 N 0.70563 0.96632 0.2094 0.0
H72 H 0.69303 0.97405 0.27613 0.0
H73 H 0.66767 0.886 0.20809 0.0
C74 C 0.65272 0.83783 0.27398 0.0
O75 O 0.62884 0.82785 0.24418 0.0
N76 N 0.62504 0.87536 0.36161 0.0
C77 C 0.59873 0.87633 0.37823 0.0
C78 C 0.59243 0.86342 0.42107 0.0
C79 C 0.6345 0.86198 0.39456 0.0
N80 N 0.61498 0.85458 0.43127 0.0
C81 C 0.60246 0.89933 0.24936 0.0
C82 C 0.55229 0.83592 0.26775 0.0
C83 C 0.54455 0.85773 0.2457 0.0
C84 C 0.57045 0.88937 0.23492 0.0
C85 C 0.5848 0.84684 0.28137 0.0
N86 N 0.60925 0.87858 0.27344 0.0
H87 H 0.62123 0.92481 0.24464 0.0
H88 H 0.58966 0.83058 0.30176 0.0
H89 H 0.58623 0.88746 0.3613 0.0
H90 H 0.65659 0.86008 0.39305 0.0
O91 O 0.64756 0.93679 0.33106 0.0
O92 O 0.68693 0.9251 0.34721 0.0
O93 O 0.66164 0.86376 0.29757 0.0
C94 C 0.67387 0.9435 0.35438 0.0
H95 H 0.70403 0.93587 0.15333 0.0
H96 H 0.57352 0.86179 0.44368 0.0
H97 H 0.53314 0.8112 0.27657 0.0
H98 H 0.56575 0.90735 0.21873 0.0
Co99 Co 0.75908 0.64761 0.47775 0.0
C100 C 0.74417 0.68328 0.40688 0.0
C101 C 0.79565 0.69918 0.40892 0.0
C102 C 0.79094 0.71932 0.37972 0.0
N103 N 0.76623 0.67596 0.4255 0.0
N104 N 0.75853 0.70945 0.37863 0.0
H105 H 0.71862 0.67189 0.41697 0.0
H106 H 0.81942 0.70345 0.42001 0.0
C107 C 0.82189 0.65031 0.44192 0.0
O108 O 0.81058 0.64195 0.40055 0.0
N109 N 0.7519 0.62062 0.53062 0.0
C110 C 0.72351 0.59357 0.54277 0.0
C111 C 0.72751 0.58399 0.58513 0.0
C112 C 0.77252 0.62758 0.56592 0.0
N113 N 0.75828 0.60549 0.59971 0.0
C114 C 0.70976 0.60006 0.41884 0.0
C115 C 0.72487 0.55103 0.43582 0.0
C116 C 0.69441 0.54252 0.41615 0.0
C117 C 0.68773 0.5677 0.40548 0.0
C118 C 0.74674 0.58394 0.44742 0.0
N119 N 0.73827 0.6077 0.44107 0.0
H120 H 0.70212 0.61808 0.41526 0.0
H121 H 0.76866 0.58945 0.46633 0.0
H122 H 0.70116 0.58223 0.5228 0.0
H123 H 0.79711 0.64884 0.5672 0.0
O124 O 0.7204 0.64989 0.49478 0.0
O125 O 0.77181 0.68485 0.51634 0.0
O126 O 0.80428 0.65293 0.47262 0.0
C127 C 0.74057 0.67507 0.51949 0.0
H128 H 0.81022 0.74078 0.36269 0.0
H129 H 0.70875 0.56359 0.60444 0.0
H130 H 0.73077 0.53214 0.44482 0.0
H131 H 0.66423 0.562 0.39089 0.0
Co132 Co 0.12393 0.75655 0.64074 0.0
C133 C 0.06646 0.74382 0.58379 0.0
C134 C 0.11124 0.76875 0.5459 0.0
C135 C 0.08509 0.76154 0.5174 0.0
N136 N 0.09957 0.75764 0.58773 0.0
N137 N 0.05691 0.74583 0.5414 0.0
H138 H 0.0493 0.7311 0.6108 0.0
H139 H 0.13673 0.78 0.53596 0.0
C140 C 0.18364 0.82198 0.60624 0.0
O141 O 0.19173 0.80923 0.57256 0.0
N142 N 0.14715 0.7549 0.69379 0.0
C143 C 0.1463 0.72752 0.70989 0.0
C144 C 0.15961 0.73396 0.75254 0.0
C145 C 0.1609 0.77764 0.72682 0.0
N146 N 0.16865 0.76536 0.76306 0.0
C147 C 0.12562 0.70981 0.5816 0.0
C148 C 0.18919 0.72505 0.60316 0.0
C149 C 0.16802 0.69479 0.58232 0.0
C150 C 0.13653 0.68811 0.56924 0.0
C151 C 0.17759 0.74655 0.61385 0.0
N152 N 0.14555 0.73789 0.60531 0.0
H153 H 0.10002 0.70239 0.57602 0.0
H154 H 0.19324 0.76834 0.63353 0.0
H155 H 0.1352 0.70401 0.69262 0.0
H156 H 0.16303 0.80174 0.72564 0.0
O157 O 0.08625 0.7158 0.66137 0.0
O158 O 0.09712 0.76639 0.67918 0.0
O159 O 0.15903 0.80396 0.6315 0.0
C160 C 0.0791 0.73474 0.68542 0.0
H161 H 0.08677 0.76705 0.48169 0.0
H162 H 0.16156 0.71662 0.77471 0.0
H163 H 0.21369 0.73098 0.61385 0.0
H164 H 0.11934 0.6648 0.55356 0.0
Co165 Co 0.37803 0.12306 0.80776 0.0
C166 C 0.33172 0.06603 0.7509 0.0
C167 C 0.35456 0.11104 0.71297 0.0
C168 C 0.33546 0.08528 0.68402 0.0
N169 N 0.35234 0.09895 0.75498 0.0
N170 N 0.32111 0.05703 0.70805 0.0
H171 H 0.32562 0.04858 0.77813 0.0
H172 H 0.37006 0.13658 0.70352 0.0
C173 C 0.37518 0.18471 0.77317 0.0
O174 O 0.39893 0.19547 0.74316 0.0
N175 N 0.40338 0.14636 0.86046 0.0
C176 C 0.42953 0.14477 0.87641 0.0
C177 C 0.43698 0.15828 0.91886 0.0
C178 C 0.3951 0.16069 0.89348 0.0
N179 N 0.41528 0.16812 0.92956 0.0
C180 C 0.42518 0.12048 0.75155 0.0
C181 C 0.47619 0.18354 0.76993 0.0
C182 C 0.48355 0.15999 0.75311 0.0
C183 C 0.45749 0.12874 0.7416 0.0
C184 C 0.44333 0.17418 0.77967 0.0
N185 N 0.41853 0.14243 0.77257 0.0
H186 H 0.40587 0.09516 0.747 0.0
H187 H 0.43851 0.19127 0.798 0.0
H188 H 0.44125 0.13296 0.85924 0.0
H189 H 0.37348 0.16342 0.89245 0.0
O190 O 0.37896 0.08459 0.82994 0.0
O191 O 0.34076 0.09788 0.84617 0.0
O192 O 0.36716 0.15889 0.79651 0.0
C193 C 0.35307 0.07882 0.85345 0.0
H194 H 0.33271 0.08716 0.64803 0.0
H195 H 0.45614 0.15972 0.94086 0.0
H196 H 0.49577 0.20783 0.77971 0.0
H197 H 0.46226 0.10992 0.7285 0.0
Co198 Co 0.6526 0.75447 0.85334 0.0
C199 C 0.69996 0.74731 0.91255 0.0
C200 C 0.67287 0.76511 0.94975 0.0
C201 C 0.69175 0.75891 0.97965 0.0
N202 N 0.67785 0.75768 0.90752 0.0
N203 N 0.70872 0.74767 0.9561 0.0
H204 H 0.70812 0.73772 0.88546 0.0
H205 H 0.65516 0.77242 0.95886 0.0
C206 C 0.6532 0.81797 0.88681 0.0
O207 O 0.63301 0.80503 0.92114 0.0
N208 N 0.62777 0.75074 0.79932 0.0
C209 C 0.60255 0.72243 0.78292 0.0
C210 C 0.59598 0.72785 0.73954 0.0
C211 C 0.63632 0.77299 0.76575 0.0
N212 N 0.61728 0.75956 0.72885 0.0
C213 C 0.60529 0.70402 0.90841 0.0
C214 C 0.55367 0.71452 0.88747 0.0
C215 C 0.54673 0.68366 0.9042 0.0
C216 C 0.57305 0.67935 0.9173 0.0
C217 C 0.58655 0.73878 0.87915 0.0
N218 N 0.61162 0.73245 0.8872 0.0
H219 H 0.62496 0.69868 0.91397 0.0
H220 H 0.59137 0.76087 0.8612 0.0
H221 H 0.59097 0.69902 0.80046 0.0
H222 H 0.65746 0.79766 0.76709 0.0
O223 O 0.65375 0.71572 0.83318 0.0
O224 O 0.69075 0.76761 0.81635 0.0
O225 O 0.6608 0.80049 0.86211 0.0
C226 C 0.6795 0.73632 0.80975 0.0
H227 H 0.69217 0.76153 0.01599 0.0
H228 H 0.57766 0.70966 0.71706 0.0
H229 H 0.53392 0.71865 0.87673 0.0
H230 H 0.56865 0.65594 0.93067 0.0
Co231 Co 0.90442 0.64216 0.01645 0.0
C232 C 0.963 0.68834 0.07144 0.0
C233 C 0.91848 0.66856 0.10998 0.0
C234 C 0.94475 0.68779 0.13803 0.0
N235 N 0.92985 0.66883 0.06806 0.0
N236 N 0.97278 0.7002 0.11371 0.0
H237 H 0.97998 0.69271 0.04416 0.0
H238 H 0.89307 0.65426 0.1203 0.0
C239 C 0.84485 0.64776 0.05275 0.0
O240 O 0.83664 0.62706 0.08667 0.0
N241 N 0.87977 0.61596 0.96497 0.0
C242 C 0.87835 0.58791 0.95088 0.0
C243 C 0.86155 0.57854 0.91061 0.0
C244 C 0.86451 0.62375 0.93265 0.0
N245 N 0.85298 0.60113 0.89909 0.0
C246 C 0.90607 0.59596 0.07623 0.0
C247 C 0.84155 0.54625 0.06321 0.0
C248 C 0.86393 0.53856 0.08366 0.0
C249 C 0.89616 0.56428 0.09187 0.0
C250 C 0.85239 0.57859 0.04869 0.0
N251 N 0.88468 0.60262 0.05364 0.0
H252 H 0.93183 0.61456 0.07884 0.0
H253 H 0.83561 0.58349 0.02963 0.0
H254 H 0.88962 0.57566 0.96812 0.0
H255 H 0.86262 0.64586 0.9332 0.0
O256 O 0.94197 0.63966 0.99398 0.0
O257 O 0.92953 0.67831 0.97642 0.0
O258 O 0.86919 0.6539 0.02725 0.0
C259 C 0.94802 0.66532 0.96959 0.0
H260 H 0.94329 0.69193 0.17368 0.0
H261 H 0.85728 0.55752 0.89036 0.0
H262 H 0.81641 0.52714 0.05632 0.0
H263 H 0.91449 0.55952 0.10682 0.0
Co264 Co 0.27058 0.90532 0.18268 0.0
C265 C 0.29016 0.95763 0.2515 0.0
C266 C 0.23926 0.9213 0.25918 0.0
C267 C 0.24683 0.94683 0.289 0.0
N268 N 0.26666 0.92778 0.23598 0.0
N269 N 0.27887 0.9698 0.28382 0.0
H270 H 0.31485 0.97107 0.23798 0.0
H271 H 0.21481 0.90085 0.25306 0.0
C272 C 0.20645 0.84507 0.21809 0.0
O273 O 0.21809 0.84408 0.25808 0.0
N274 N 0.27509 0.88441 0.12916 0.0
C275 C 0.30323 0.88642 0.1142 0.0
C276 C 0.29811 0.87394 0.07105 0.0
C277 C 0.25331 0.87094 0.09503 0.0
N278 N 0.26677 0.86431 0.05918 0.0
C279 C 0.32066 0.90575 0.23727 0.0
C280 C 0.30336 0.84094 0.22047 0.0
C281 C 0.33511 0.86302 0.23636 0.0
C282 C 0.34306 0.89524 0.24692 0.0
C283 C 0.28149 0.85249 0.21131 0.0
N284 N 0.29098 0.88502 0.21757 0.0
H285 H 0.32896 0.93158 0.24089 0.0
H286 H 0.25866 0.83623 0.19409 0.0
H287 H 0.32628 0.89759 0.13263 0.0
H288 H 0.22895 0.86814 0.09523 0.0
O289 O 0.30995 0.94516 0.16379 0.0
O290 O 0.25863 0.93112 0.14527 0.0
O291 O 0.22444 0.86707 0.18938 0.0
C292 C 0.29006 0.95137 0.14047 0.0
H293 H 0.22949 0.94928 0.31048 0.0
H294 H 0.31621 0.87277 0.04963 0.0
H295 H 0.29666 0.81597 0.21124 0.0
H296 H 0.36755 0.91302 0.25876 0.0
Co297 Co 0.37594 0.26037 0.35263 0.0
C298 C 0.34015 0.27535 0.4228 0.0
C299 C 0.32229 0.22356 0.41818 0.0
C300 C 0.30202 0.22847 0.44686 0.0
N301 N 0.34692 0.25303 0.40391 0.0
N302 N 0.31312 0.26112 0.44954 0.0
H303 H 0.3529 0.30119 0.41433 0.0
H304 H 0.31737 0.19987 0.40557 0.0
C305 C 0.37465 0.2002 0.39581 0.0
O306 O 0.37688 0.21104 0.4373 0.0
N307 N 0.40355 0.26775 0.3007 0.0
C308 C 0.42761 0.29718 0.28549 0.0
C309 C 0.43603 0.29308 0.24244 0.0
C310 C 0.39766 0.24618 0.26703 0.0
N311 N 0.41708 0.26105 0.23099 0.0
C312 C 0.42307 0.31569 0.40477 0.0
C313 C 0.47248 0.29991 0.39891 0.0
C314 C 0.48049 0.33154 0.41327 0.0
C315 C 0.45512 0.33885 0.41803 0.0
C316 C 0.43988 0.27707 0.38723 0.0
N317 N 0.41576 0.28542 0.38873 0.0
H318 H 0.40517 0.32358 0.40322 0.0
H319 H 0.43499 0.25401 0.37238 0.0
H320 H 0.43693 0.32031 0.30335 0.0
H321 H 0.37783 0.22076 0.26755 0.0
O322 O 0.36921 0.2958 0.33151 0.0
O323 O 0.33849 0.2428 0.31342 0.0
O324 O 0.37484 0.21731 0.3622 0.0
C325 C 0.34526 0.27302 0.30749 0.0
H326 H 0.27925 0.20925 0.46137 0.0
H327 H 0.45382 0.31233 0.22064 0.0
H328 H 0.49157 0.29356 0.39425 0.0
H329 H 0.46053 0.36333 0.428 0.0
Co330 Co 0.12777 0.37564 0.52129 0.0
C331 C 0.06961 0.3293 0.57659 0.0
C332 C 0.11388 0.35328 0.61611 0.0
C333 C 0.08769 0.33449 0.64449 0.0
N334 N 0.10255 0.35004 0.57346 0.0
N335 N 0.05986 0.31945 0.61953 0.0
H336 H 0.0527 0.32266 0.54853 0.0
H337 H 0.1393 0.36914 0.62612 0.0
C338 C 0.16294 0.34154 0.54427 0.0
O339 O 0.13312 0.31566 0.54575 0.0
N340 N 0.15216 0.40169 0.46968 0.0
C341 C 0.15107 0.42827 0.45444 0.0
C342 C 0.16481 0.43612 0.41219 0.0
C343 C 0.16652 0.39361 0.43644 0.0
N344 N 0.17432 0.41427 0.40086 0.0
C345 C 0.12132 0.42343 0.57249 0.0
C346 C 0.18705 0.47196 0.56655 0.0
C347 C 0.16372 0.48064 0.58008 0.0
C348 C 0.13079 0.4557 0.58522 0.0
C349 C 0.17667 0.43915 0.55535 0.0
N350 N 0.14393 0.4159 0.55599 0.0
H351 H 0.09542 0.40497 0.57252 0.0
H352 H 0.19445 0.43318 0.54175 0.0
H353 H 0.13918 0.43986 0.47171 0.0
H354 H 0.16877 0.37169 0.43677 0.0
O355 O 0.08861 0.37322 0.49524 0.0
O356 O 0.10628 0.3379 0.48226 0.0
O357 O 0.16639 0.37017 0.53847 0.0
C358 C 0.08572 0.348 0.4727 0.0
H359 H 0.08901 0.33243 0.68074 0.0
H360 H 0.16638 0.45551 0.39055 0.0
H361 H 0.21271 0.49065 0.56225 0.0
H362 H 0.11208 0.46154 0.59533 0.0
Co363 Co 0.75965 0.11998 0.68448 0.0
C364 C 0.74901 0.06216 0.73971 0.0
C365 C 0.77089 0.10655 0.77886 0.0
C366 C 0.76373 0.08041 0.80717 0.0
N367 N 0.76159 0.09519 0.7364 0.0
N368 N 0.7499 0.05249 0.78246 0.0
H369 H 0.7377 0.04508 0.71207 0.0
H370 H 0.78034 0.13173 0.78939 0.0
C371 C 0.82469 0.18012 0.7204 0.0
O372 O 0.81213 0.18715 0.75537 0.0
N373 N 0.75725 0.14394 0.63287 0.0
C374 C 0.73036 0.14501 0.61917 0.0
C375 C 0.73712 0.16105 0.57836 0.0
C376 C 0.77978 0.15866 0.5999 0.0
N377 N 0.76811 0.16948 0.5662 0.0
C378 C 0.71138 0.11802 0.74351 0.0
C379 C 0.72651 0.18269 0.73144 0.0
C380 C 0.69618 0.16018 0.75123 0.0
C381 C 0.6895 0.12782 0.75887 0.0
C382 C 0.748 0.17188 0.71688 0.0
N383 N 0.73965 0.13955 0.7215 0.0
H384 H 0.7042 0.09224 0.74587 0.0
H385 H 0.76979 0.18875 0.6981 0.0
H386 H 0.70707 0.1339 0.63694 0.0
H387 H 0.80377 0.16054 0.60004 0.0
O388 O 0.71965 0.08188 0.66269 0.0
O389 O 0.77076 0.09485 0.64452 0.0
O390 O 0.80665 0.15596 0.69442 0.0
C391 C 0.73924 0.076 0.63807 0.0
H392 H 0.76767 0.0818 0.8433 0.0
H393 H 0.71997 0.16478 0.55818 0.0
H394 H 0.73281 0.20795 0.72507 0.0
H395 H 0.66625 0.10932 0.77322 0.0
H396 H 0.15167 0.42101 0.32027 0.0
H397 H 0.29684 0.42316 0.17955 0.0
H398 H 0.22278 0.40053 0.38225 0.0
H399 H 0.20516 0.40359 0.11855 0.0
H400 H 0.27307 0.42005 0.25437 0.0
H401 H 0.17348 0.41936 0.24596 0.0
C402 C 0.17195 0.41618 0.31805 0.0
C403 C 0.18575 0.41119 0.35719 0.0
C404 C 0.25816 0.41636 0.2246 0.0
C405 C 0.21092 0.40945 0.27254 0.0
C406 C 0.27179 0.41847 0.18198 0.0
C407 C 0.25295 0.41393 0.14296 0.0
C408 C 0.22567 0.4102 0.22808 0.0
C409 C 0.22041 0.40722 0.14789 0.0
C410 C 0.18424 0.41504 0.27573 0.0
C411 C 0.21158 0.40447 0.35267 0.0
N412 N 0.20787 0.40585 0.18969 0.0
N413 N 0.22369 0.40418 0.31101 0.0
H414 H 0.82331 0.27645 0.31541 0.0
H415 H 0.8134 0.16047 0.52072 0.0
H416 H 0.86924 0.21636 0.31272 0.0
H417 H 0.75848 0.21181 0.51508 0.0
H418 H 0.83715 0.18337 0.44678 0.0
H419 H 0.80178 0.25518 0.39056 0.0
C420 C 0.82889 0.2588 0.3307 0.0
C421 C 0.84803 0.24813 0.30775 0.0
C422 C 0.81994 0.18966 0.46179 0.0
C423 C 0.82346 0.22359 0.39379 0.0
C424 C 0.8066 0.17682 0.50416 0.0
C425 C 0.78384 0.18418 0.52401 0.0
C426 C 0.81059 0.21014 0.43929 0.0
C427 C 0.77557 0.20515 0.50073 0.0
C428 C 0.8165 0.24656 0.37353 0.0
C429 C 0.85421 0.22492 0.32893 0.0
N430 N 0.78892 0.21736 0.45964 0.0
N431 N 0.84204 0.21349 0.37085 0.0
H432 H 0.60859 0.87606 0.51306 0.0
H433 H 0.61094 0.73136 0.64713 0.0
H434 H 0.63167 0.80796 0.44753 0.0
H435 H 0.63211 0.82226 0.71205 0.0
H436 H 0.61448 0.75673 0.57346 0.0
H437 H 0.61318 0.85473 0.58654 0.0
C438 C 0.61461 0.85657 0.51431 0.0
C439 C 0.61945 0.84342 0.47443 0.0
C440 C 0.61859 0.7712 0.60381 0.0
C441 C 0.62459 0.81887 0.55801 0.0
C442 C 0.6163 0.75668 0.64574 0.0
C443 C 0.62092 0.77474 0.68551 0.0
C444 C 0.62491 0.8038 0.60174 0.0
C445 C 0.62841 0.80763 0.68204 0.0
C446 C 0.61748 0.8446 0.55613 0.0
C447 C 0.62778 0.81862 0.47767 0.0
N448 N 0.62975 0.82103 0.64081 0.0
N449 N 0.62966 0.80677 0.51883 0.0
H450 H 0.80488 0.65867 0.6461 0.0
H451 H 0.80876 0.54871 0.85028 0.0
H452 H 0.74303 0.55283 0.65323 0.0
H453 H 0.86152 0.6551 0.85294 0.0
H454 H 0.7852 0.55 0.77733 0.0
H455 H 0.8272 0.6582 0.72068 0.0
C456 C 0.79614 0.63531 0.66319 0.0
C457 C 0.77206 0.60571 0.64333 0.0
C458 C 0.8018 0.57311 0.79388 0.0
C459 C 0.79726 0.60503 0.72885 0.0
C460 C 0.81536 0.57236 0.83547 0.0
C461 C 0.83725 0.60183 0.85762 0.0
C462 C 0.81034 0.60358 0.77395 0.0
C463 C 0.84455 0.63181 0.8372 0.0
C464 C 0.8087 0.63509 0.70593 0.0
C465 C 0.76127 0.57625 0.66741 0.0
N466 N 0.83129 0.63193 0.79633 0.0
N467 N 0.77401 0.57665 0.70878 0.0
H468 H 0.14817 0.73774 0.84519 0.0
H469 H 0.29569 0.88358 0.97733 0.0
H470 H 0.21635 0.82844 0.77844 0.0
H471 H 0.20364 0.81738 0.04273 0.0
H472 H 0.26998 0.86112 0.90388 0.0
H473 H 0.17082 0.76378 0.91829 0.0
C474 C 0.16797 0.76317 0.8461 0.0
C475 C 0.1807 0.78101 0.80601 0.0
C476 C 0.25539 0.85167 0.93431 0.0
C477 C 0.20679 0.81077 0.88906 0.0
C478 C 0.27008 0.86424 0.9761 0.0
C479 C 0.25173 0.85205 0.01593 0.0
C480 C 0.22234 0.82628 0.93252 0.0
C481 C 0.2185 0.82738 0.01266 0.0
C482 C 0.18069 0.77805 0.88768 0.0
C483 C 0.20597 0.81401 0.80878 0.0
N484 N 0.20492 0.81498 0.97164 0.0
N485 N 0.21857 0.82779 0.84969 0.0
H486 H 0.40007 0.21581 0.94598 0.0
H487 H 0.40497 0.19931 0.21407 0.0
H488 H 0.42332 0.14767 0.01126 0.0
H489 H 0.42362 0.28946 0.14911 0.0
H490 H 0.40139 0.17481 0.1396 0.0
H491 H 0.39822 0.23812 0.02053 0.0
C492 C 0.40451 0.20547 0.97608 0.0
C493 C 0.41222 0.18023 0.97273 0.0
C494 C 0.40628 0.19996 0.14171 0.0
C495 C 0.40989 0.20511 0.0574 0.0
C496 C 0.40822 0.21384 0.18405 0.0
C497 C 0.41496 0.24648 0.18755 0.0
C498 C 0.41056 0.21872 0.10265 0.0
C499 C 0.41899 0.26439 0.14775 0.0
C500 C 0.40365 0.21823 0.01839 0.0
C501 C 0.41785 0.16753 0.01252 0.0
N502 N 0.41662 0.25023 0.10684 0.0
N503 N 0.41651 0.18006 0.05324 0.0
H504 H 0.32297 0.33238 0.84956 0.0
H505 H 0.31361 0.15928 0.80791 0.0
H506 H 0.23675 0.23737 0.87384 0.0
H507 H 0.39555 0.25089 0.76057 0.0
H508 H 0.28545 0.18855 0.83096 0.0
H509 H 0.35043 0.30437 0.81635 0.0
C510 C 0.30975 0.30571 0.84787 0.0
C511 C 0.27741 0.28731 0.86478 0.0
C512 C 0.30947 0.2024 0.81525 0.0
C513 C 0.30872 0.25512 0.82659 0.0
C514 C 0.32565 0.18564 0.80205 0.0
C515 C 0.35711 0.20264 0.78238 0.0
C516 C 0.32486 0.23671 0.80943 0.0
C517 C 0.37127 0.23679 0.77544 0.0
C518 C 0.3254 0.28976 0.82864 0.0
C519 C 0.26144 0.25278 0.86101 0.0
N520 N 0.35519 0.2528 0.78942 0.0
N521 N 0.27729 0.23794 0.84269 0.0
H522 H 0.17985 0.38564 0.00572 0.0
H523 H 0.99153 0.24627 0.97313 0.0
H524 H 0.14558 0.32355 0.88756 0.0
H525 H 0.02597 0.32105 0.07669 0.0
H526 H 0.04684 0.27462 0.93936 0.0
H527 H 0.12284 0.36381 0.0295 0.0
C528 C 0.16021 0.36781 0.98431 0.0
C529 C 0.16749 0.3564 0.94458 0.0
C530 C 0.04213 0.28496 0.96921 0.0
C531 C 0.10186 0.33051 0.97229 0.0
C532 C 1.01063 0.26866 0.98867 0.0
C533 C 1.00395 0.28122 0.02785 0.0
C534 C 0.06728 0.31386 0.98935 0.0
C535 C 0.02963 0.31057 0.04624 0.0
C536 C 0.1276 0.35522 -0.00199 0.0
C537 C 0.14105 0.3332 0.91824 0.0
N538 N 0.06007 0.32565 0.02708 0.0
N539 N 0.10939 0.32063 0.93291 0.0
H540 H 0.81936 0.14383 0.04794 0.0
H541 H 0.73762 0.02289 0.2586 0.0
H542 H 0.81949 0.17549 0.18482 0.0
H543 H 0.7182 0.98696 0.12132 0.0
H544 H 0.76857 0.07886 0.23038 0.0
H545 H 0.78229 0.08636 0.0718 0.0
C546 C 0.81125 0.13882 0.08273 0.0
C547 C 0.82287 0.16456 0.11447 0.0
C548 C 0.75744 0.05881 0.20626 0.0
C549 C 0.78102 0.09906 0.14205 0.0
C550 C 0.7395 0.0266 0.22245 0.0
C551 C 0.72478 0.99978 0.19248 0.0
C552 C 0.76121 0.0647 0.15954 0.0
C553 C 0.72918 1.00666 0.14585 0.0
C554 C 0.79026 0.10602 0.09638 0.0
C555 C 0.81162 0.15654 0.15918 0.0
N556 N 0.74703 0.03842 0.13082 0.0
N557 N 0.79167 0.12466 0.17157 0.0
H558 H 0.69495 0.68348 0.35025 0.0
H559 H 0.71414 0.86049 0.30865 0.0
H560 H 0.78726 0.77506 0.36075 0.0
H561 H 0.62955 0.77142 0.25997 0.0
H562 H 0.74022 0.82867 0.32983 0.0
H563 H 0.66925 0.71403 0.31942 0.0
C564 C 0.70983 0.70994 0.34596 0.0
C565 C 0.74336 0.72667 0.35818 0.0
C566 C 0.71607 0.816 0.31418 0.0
C567 C 0.71413 0.76174 0.32306 0.0
C568 C 0.7011 0.83419 0.30211 0.0
C569 C 0.66955 0.81861 0.28253 0.0
C570 C 0.69929 0.78171 0.30742 0.0
C571 C 0.65396 0.78444 0.27476 0.0
C572 C 0.6952 0.72731 0.32812 0.0
C573 C 0.76151 0.76096 0.35144 0.0
N574 N 0.66883 0.76703 0.28771 0.0
N575 N 0.74663 0.77729 0.33475 0.0
H576 H 1.00307 0.7329 0.59103 0.0
H577 H 0.87486 0.66627 0.38501 0.0
H578 H 0.03349 0.72765 0.45522 0.0
H579 H 0.84837 0.65858 0.52585 0.0
H580 H 0.93299 0.6893 0.40758 0.0
H581 H 0.94635 0.70738 0.56537 0.0
C582 C 0.99789 0.7262 0.55579 0.0
C583 C 0.02332 0.7322 0.52548 0.0
C584 C 0.91431 0.68233 0.4334 0.0
C585 C 0.95772 0.70304 0.49536 0.0
C586 C 0.88113 0.66904 0.42056 0.0
C587 C 0.85664 0.66071 0.45353 0.0
C588 C 0.92289 0.68732 0.47946 0.0
C589 C 0.86628 0.66497 0.4991 0.0
C590 C 0.96533 0.71166 0.54102 0.0
C591 C 0.01483 0.72368 0.47984 0.0
N592 N 0.89847 0.67808 0.51056 0.0
N593 N 0.98274 0.7095 0.46616 0.0
H594 H 0.27253 1.00552 0.75359 0.0
H595 H 0.23754 0.87162 0.56107 0.0
H596 H 0.32233 0.03243 0.62506 0.0
H597 H 0.17611 0.85388 0.67831 0.0
H598 H 0.27085 0.92983 0.58392 0.0
H599 H 0.23908 0.94888 0.727 0.0
C600 C 0.27647 0.99948 0.71974 0.0
C601 C 0.30035 0.02379 0.69161 0.0
C602 C 0.24997 0.9131 0.60442 0.0
C603 C 0.26194 0.95867 0.66062 0.0
C604 C 0.23098 0.87987 0.59143 0.0
C605 C 0.20395 0.85763 0.61776 0.0
C606 C 0.24203 0.92403 0.6442 0.0
C607 C 0.19666 0.86986 0.65681 0.0
C608 C 0.25722 0.96712 0.70442 0.0
C609 C 0.30401 0.01455 0.64775 0.0
N610 N 0.2156 0.90201 0.66882 0.0
N611 N 0.28517 0.98267 0.63367 0.0
H612 H 0.85479 0.68937 0.98253 0.0
H613 H 0.704 0.7185 0.03766 0.0
H614 H 0.79041 0.6434 0.09661 0.0
H615 H 0.76029 0.74814 0.91422 0.0
H616 H 0.73759 0.69498 0.06416 0.0
H617 H 0.82271 0.71487 0.96162 0.0
C618 C 0.83389 0.6846 0.00342 0.0
C619 C 0.82532 0.66395 0.04146 0.0
C620 C 0.74259 0.7067 0.03134 0.0
C621 C 0.78809 0.69352 0.01725 0.0
C622 C 0.7236 0.72036 0.01632 0.0
C623 C 0.72927 0.73526 0.97352 0.0
C624 C 0.76761 0.70824 0.00354 0.0
C625 C 0.75474 0.73657 0.94712 0.0
C626 C 0.81547 0.69926 0.99128 0.0
C627 C 0.79792 0.65903 0.06699 0.0
N628 N 0.77289 0.72329 0.96254 0.0
N629 N 0.78023 0.67369 0.0544 0.0
H630 H 0.02604 0.74303 0.06459 0.0
H631 H 0.15515 0.79763 0.2701 0.0
H632 H 0.99647 0.70424 0.19927 0.0
H633 H 0.17786 0.83929 0.13597 0.0
H634 H 0.09757 0.76131 0.24591 0.0
H635 H 0.08253 0.77656 0.09103 0.0
C636 C 0.03141 0.74139 0.09972 0.0
C637 C 1.00629 0.72062 0.12959 0.0
C638 C 0.11532 0.77844 0.22191 0.0
C639 C 0.07144 0.75949 0.16059 0.0
C640 C 0.14819 0.7991 0.23567 0.0
C641 C 0.17158 0.82169 0.20515 0.0
C642 C 0.10592 0.78034 0.17731 0.0
C643 C 0.161 0.82246 0.16093 0.0
C644 C 0.06377 0.76075 0.11497 0.0
C645 C 0.01489 0.72011 0.17507 0.0
N646 N 0.12918 0.80223 0.14852 0.0
N647 N 0.04673 0.73919 0.18917 0.0
H648 H 0.33025 0.02515 0.24779 0.0
H649 H 0.34093 0.14471 0.44899 0.0
H650 H 0.26723 0.98962 0.36498 0.0
H651 H 0.38941 0.17759 0.32014 0.0
H652 H 0.32001 0.0872 0.42515 0.0
H653 H 0.358 0.08025 0.27997 0.0
C654 C 0.32245 0.02873 0.28062 0.0
C655 C 0.29626 1.00244 0.30365 0.0
C656 C 0.33558 0.10707 0.40241 0.0
C657 C 0.32795 0.06627 0.3407 0.0
C658 C 0.34779 0.13987 0.41617 0.0
C659 C 0.36684 0.16594 0.38643 0.0
C660 C 0.34279 0.10047 0.35884 0.0
C661 C 0.37463 0.15826 0.34406 0.0
C662 C 0.33824 0.06043 0.29891 0.0
C663 C 0.28702 1.00914 0.34578 0.0
N664 N 0.36249 0.12635 0.33153 0.0
N665 N 0.30278 0.04039 0.36292 0.0
H666 H 0.27098 0.23834 0.52069 0.0
H667 H 0.2227 0.37995 0.50228 0.0
H668 H 0.31658 0.31944 0.42656 0.0
H669 H 0.1671 0.28952 0.57726 0.0
H670 H 0.26392 0.36373 0.4848 0.0
H671 H 0.23898 0.26195 0.5514 0.0
C672 C 0.27438 0.26114 0.50649 0.0
C673 C 0.29635 0.27658 0.47052 0.0
C674 C 0.24294 0.34771 0.50567 0.0
C675 C 0.25982 0.30408 0.50599 0.0
C676 C 0.21959 0.35711 0.51602 0.0
C677 C 0.19136 0.33597 0.54111 0.0
C678 C 0.23808 0.31709 0.52082 0.0
C679 C 0.18837 0.30646 0.55754 0.0
C680 C 0.25617 0.27473 0.52423 0.0
C681 C 0.30016 0.30658 0.45433 0.0
N682 N 0.21125 0.29782 0.54688 0.0
N683 N 0.2819 0.31917 0.4719 0.0
H684 H 1.00856 0.27087 0.57325 0.0
H685 H 0.87433 0.23353 0.76648 0.0
H686 H 0.03446 0.3208 0.70185 0.0
H687 H 0.85632 0.17439 0.64659 0.0
H688 H 0.93236 0.26756 0.74341 0.0
H689 H 0.9518 0.23725 0.59917 0.0
C690 C 1.0023 0.27485 0.60693 0.0
C691 C 0.02641 0.29879 0.6353 0.0
C692 C 0.91561 0.24704 0.72233 0.0
C693 C 0.96111 0.2601 0.66556 0.0
C694 C 0.88248 0.22763 0.73545 0.0
C695 C 0.86021 0.201 0.7085 0.0
C696 C 0.92646 0.2399 0.68182 0.0
C697 C 0.87232 0.19459 0.66861 0.0
C698 C 0.96985 0.25548 0.62188 0.0
C699 C 0.01681 0.30244 0.67896 0.0
N700 N 0.90439 0.21388 0.65653 0.0
N701 N 0.9849 0.28344 0.69267 0.0
H702 H 0.74501 1.00033 0.73621 0.0
H703 H 0.64831 0.86754 0.93137 0.0
H704 H 0.72379 0.02797 0.86538 0.0
H705 H 0.69031 0.84923 0.81277 0.0
H706 H 0.67211 0.92544 0.90726 0.0
H707 H 0.721 0.94359 0.76279 0.0
C708 C 0.73521 0.99444 0.77015 0.0
C709 C 0.73647 0.01902 0.79852 0.0
C710 C 0.67605 0.9086 0.8867 0.0
C711 C 0.70885 0.9538 0.82952 0.0
C712 C 0.66242 0.87556 0.90039 0.0
C713 C 0.66716 0.85328 0.87413 0.0
C714 C 0.69423 0.91927 0.84629 0.0
C715 C 0.68579 0.86522 0.83427 0.0
C716 C 0.72162 0.96202 0.78548 0.0
C717 C 0.72369 0.00992 0.8425 0.0
N718 N 0.69843 0.89715 0.82164 0.0
N719 N 0.71028 0.97802 0.8566 0.0
H720 H 0.24814 0.33225 0.11181 0.0
H721 H 0.33086 0.24241 0.22689 0.0
H722 H 0.32158 0.32124 0.03844 0.0
H723 H 0.33111 0.32306 0.29774 0.0
H724 H 0.31389 0.25866 0.15793 0.0
H725 H 0.26511 0.31664 0.18155 0.0
C726 C 0.26745 0.32594 0.11034 0.0
C727 C 0.2833 0.3275 0.06948 0.0
C728 C 0.31744 0.27256 0.18871 0.0
C729 C 0.30239 0.30962 0.1485 0.0
C730 C 0.32669 0.26318 0.22809 0.0
C731 C 0.33193 0.28129 0.268 0.0
C732 C 0.3125 0.29961 0.18967 0.0
C733 C 0.32704 0.30844 0.26758 0.0
C734 C 0.27728 0.31748 0.15007 0.0
C735 C 0.30869 0.31998 0.06936 0.0
N736 N 0.31712 0.31664 0.2289 0.0
N737 N 0.31723 0.31085 0.1084 0.0
H738 H 0.01419 0.32557 0.19997 0.0
H739 H 0.02194 0.33437 0.46256 0.0
H740 H 0.93466 0.24735 0.27532 0.0
H741 H 0.10241 0.33435 0.39192 0.0
H742 H 0.98884 0.31559 0.39255 0.0
H743 H 0.04783 0.34288 0.2696 0.0
C744 C 1.00403 0.31199 0.23103 0.0
C745 C 0.97202 0.28476 0.23209 0.0
C746 C 1.01376 0.3197 0.39277 0.0
C747 C 1.00921 0.30509 0.31101 0.0
C748 C 0.03246 0.33029 0.43239 0.0
C749 C 0.06451 0.33526 0.43278 0.0
C750 C 0.02792 0.31552 0.35338 0.0
C751 C 0.07746 0.3301 0.39291 0.0
C752 C 0.02303 0.32185 0.27044 0.0
C753 C 0.95956 0.26811 0.27312 0.0
N754 N 0.05923 0.32088 0.35447 0.0
N755 N 0.97803 0.27883 0.31124 0.0
H756 H 0.73235 0.96862 0.39885 0.0
H757 H 0.67803 0.04627 0.59874 0.0
H758 H 0.64111 0.97037 0.39733 0.0
H759 H 0.7735 0.05374 0.58983 0.0
H760 H 0.6623 0.01548 0.52744 0.0
H761 H 0.74723 0.99913 0.46972 0.0
C762 C 0.71568 0.97593 0.41312 0.0
C763 C 0.68551 0.96707 0.39219 0.0
C764 C 0.68659 0.02367 0.54132 0.0
C765 C 0.702 1.00135 0.47396 0.0
C766 C 0.69542 0.04087 0.58224 0.0
C767 C 0.72709 0.05251 0.60014 0.0
C768 C 0.70961 0.01807 0.51843 0.0
C769 C 0.74884 0.04524 0.57716 0.0
C770 C 0.72407 0.99316 0.45377 0.0
C771 C 0.66476 0.97701 0.41222 0.0
N772 N 0.73974 0.02862 0.53744 0.0
N773 N 0.67326 0.99341 0.4523 0.0
H774 H 0.6792 0.64512 0.5576 0.0
H775 H 0.73735 0.7717 0.76453 0.0
H776 H 0.77592 0.73154 0.56774 0.0
H777 H 0.64752 0.67728 0.76549 0.0
H778 H 0.75101 0.75846 0.6909 0.0
H779 H 0.66479 0.65915 0.63049 0.0
C780 C 0.69709 0.6675 0.5746 0.0
C781 C 0.7288 0.68722 0.55675 0.0
C782 C 0.72848 0.74044 0.70739 0.0
C783 C 0.71287 0.70287 0.64038 0.0
C784 C 0.72084 0.74787 0.7496 0.0
C785 C 0.69137 0.72547 0.77113 0.0
C786 C 0.70628 0.71055 0.68632 0.0
C787 C 0.67069 0.69507 0.7502 0.0
C788 C 0.68904 0.67521 0.61649 0.0
C789 C 0.75121 0.71565 0.58043 0.0
N790 N 0.67838 0.6886 0.70864 0.0
N791 N 0.74289 0.72251 0.62118 0.0
H792 H 0.05211 0.76632 0.72947 0.0
H793 H 0.97644 0.6332 0.92858 0.0
H794 H 0.05364 0.67494 0.72787 0.0
H795 H 0.97103 0.72247 0.92268 0.0
H796 H 1.00662 0.64847 0.85681 0.0
H797 H 0.02179 0.74985 0.80032 0.0
C798 C 0.04553 0.74248 0.74372 0.0
C799 C 0.0553 0.72192 0.72283 0.0
C800 C 0.99903 0.6648 0.87147 0.0
C801 C 0.02126 0.70317 0.80462 0.0
C802 C 0.98219 0.6563 0.91265 0.0
C803 C 0.97128 0.67664 0.9315 0.0
C804 C 1.00494 0.69381 0.8493 0.0
C805 C 0.97894 0.70605 0.90925 0.0
C806 C 0.02843 0.73317 0.78439 0.0
C807 C 0.04626 0.69136 0.74279 0.0
N808 N 0.99514 0.71366 0.86927 0.0
N809 N 0.02996 0.683 0.78291 0.0
H810 H 0.35137 0.98238 0.10209 0.0
H811 H 0.29499 0.05521 0.89839 0.0
H812 H 0.25518 0.97324 0.09255 0.0
H813 H 0.3855 0.05204 0.89738 0.0
H814 H 0.28075 0.02662 0.97081 0.0
H815 H 0.36637 0.01207 0.0301 0.0
C816 C 0.3337 0.98731 0.08539 0.0
C817 C 0.30199 0.97537 0.10322 0.0
C818 C 0.30358 0.03185 0.95461 0.0
C819 C 0.31864 1.00848 0.0206 0.0
C820 C 0.31159 0.04793 0.91309 0.0
C821 C 0.3414 0.05586 0.89189 0.0
C822 C 0.32571 0.02393 0.97533 0.0
C823 C 0.36211 0.04607 0.91247 0.0
C824 C 0.3421 1.00383 0.04402 0.0
C825 C 0.27988 0.98201 0.07992 0.0
N826 N 0.35402 0.03085 0.95336 0.0
N827 N 0.28856 0.99796 0.03968 0.0
H828 H 0.52994 0.62681 0.86045 0.0
H829 H 0.34605 0.52695 0.95188 0.0
H830 H 0.48753 0.67413 0.9382 0.0
H831 H 0.3848 0.49137 0.84777 0.0
H832 H 0.39561 0.58154 0.94595 0.0
H833 H 0.47592 0.57736 0.85522 0.0
C834 C 0.50912 0.62666 0.87659 0.0
C835 C 0.51325 0.65435 0.90044 0.0
C836 C 0.39299 0.5619 0.92393 0.0
C837 C 0.45095 0.59762 0.89444 0.0
C838 C 0.36458 0.53076 0.92703 0.0
C839 C 0.36136 0.50436 0.90058 0.0
C840 C 0.41843 0.56658 0.89443 0.0
C841 C 0.38643 0.51076 0.86943 0.0
C842 C 0.47818 0.59849 0.8733 0.0
C843 C 0.48533 0.65314 0.91982 0.0
N844 N 0.41398 0.54102 0.86763 0.0
N845 N 0.45532 0.625 0.91691 0.0
H846 H 0.82858 0.33999 0.03657 0.0
H847 H 0.87993 0.51294 0.1562 0.0
H848 H 0.89986 0.38373 0.14392 0.0
H849 H 0.83013 0.48523 0.02745 0.0
H850 H 0.87646 0.45923 0.1606 0.0
H851 H 0.81903 0.38727 0.04026 0.0
C852 C 0.84199 0.35942 0.061 0.0
C853 C 0.86546 0.3584 0.08941 0.0
C854 C 0.86591 0.4647 0.1316 0.0
C855 C 0.85438 0.41181 0.09442 0.0
C856 C 0.86783 0.49536 0.12914 0.0
C857 C 0.8557 0.50381 0.09115 0.0
C858 C 0.85182 0.44219 0.09577 0.0
C859 C 0.83975 0.47976 0.05744 0.0
C860 C 0.8366 0.38631 0.06311 0.0
C861 C 0.88204 0.38396 0.12079 0.0
N862 N 0.83865 0.45017 0.06024 0.0
N863 N 0.87625 0.40956 0.12237 0.0
H864 H 0.49193 0.82445 0.30318 0.0
H865 H 0.38351 0.88612 0.17435 0.0
H866 H 0.51772 0.87316 0.17361 0.0
H867 H 0.34785 0.82306 0.29119 0.0
H868 H 0.43135 0.87845 0.17167 0.0
H869 H 0.43756 0.81954 0.29726 0.0
C870 C 0.48597 0.83346 0.27299 0.0
C871 C 0.50969 0.84954 0.23899 0.0
C872 C 0.413 0.86591 0.19768 0.0
C873 C 0.4476 0.84463 0.23258 0.0
C874 C 0.38574 0.87034 0.19919 0.0
C875 C 0.36197 0.85526 0.2331 0.0
C876 C 0.41684 0.84657 0.23075 0.0
C877 C 0.36579 0.83505 0.26455 0.0
C878 C 0.45495 0.83087 0.26984 0.0
C879 C 0.50055 0.86114 0.20105 0.0
N880 N 0.393 0.83156 0.26295 0.0
N881 N 0.47045 0.85879 0.19913 0.0
H882 H 0.51183 0.37212 0.48521 0.0
H883 H 0.65733 0.50858 0.34256 0.0
H884 H 0.52749 0.35274 0.34793 0.0
H885 H 0.66938 0.49816 0.48481 0.0
H886 H 0.60761 0.45355 0.34266 0.0
H887 H 0.56757 0.4208 0.48591 0.0
C888 C 0.52725 0.3779 0.45553 0.0
C889 C 0.51532 0.35836 0.41662 0.0
C890 C 0.62149 0.46312 0.37365 0.0
C891 C 0.57836 0.41425 0.41664 0.0
C892 C 0.64977 0.49441 0.37356 0.0
C893 C 0.66754 0.50765 0.41362 0.0
C894 C 0.6104 0.44551 0.41437 0.0
C895 C 0.65657 0.48855 0.45311 0.0
C896 C 0.55895 0.40557 0.4559 0.0
C897 C 0.53604 0.36702 0.37876 0.0
N898 N 0.62838 0.45867 0.45269 0.0
N899 N 0.56637 0.39464 0.37943 0.0
H900 H 0.18648 0.67053 0.65288 0.0
H901 H 0.19126 0.52701 0.51416 0.0
H902 H 0.16627 0.65724 0.51003 0.0
H903 H 0.15444 0.51318 0.65043 0.0
H904 H 0.19829 0.58266 0.5141 0.0
H905 H 0.19109 0.62057 0.65383 0.0
C906 C 0.18385 0.65753 0.62152 0.0
C907 C 0.17616 0.66802 0.58123 0.0
C908 C 0.18914 0.56758 0.54418 0.0
C909 C 0.18136 0.61108 0.58218 0.0
C910 C 0.18539 0.53604 0.5444 0.0
C911 C 0.17241 0.51568 0.58247 0.0
C912 C 0.18045 0.57901 0.58261 0.0
C913 C 0.16459 0.52822 0.62052 0.0
C914 C 0.18617 0.62894 0.6222 0.0
C915 C 0.17231 0.64994 0.5417 0.0
N916 N 0.1688 0.55917 0.61969 0.0
N917 N 0.175 0.62231 0.54312 0.0
H918 H 0.65207 0.14122 0.82138 0.0
H919 H 0.54032 0.20877 0.71275 0.0
H920 H 0.67928 0.19756 0.69769 0.0
H921 H 0.50386 0.1238 0.79976 0.0
H922 H 0.59585 0.21494 0.71695 0.0
H923 H 0.60242 0.14574 0.82509 0.0
C924 C 0.64785 0.15489 0.79525 0.0
C925 C 0.66973 0.16855 0.75878 0.0
C926 C 0.57563 0.19507 0.73519 0.0
C927 C 0.61282 0.17396 0.763 0.0
C928 C 0.5441 0.19158 0.73281 0.0
C929 C 0.51754 0.16544 0.75536 0.0
C930 C 0.58053 0.17272 0.76119 0.0
C931 C 0.52362 0.14394 0.78123 0.0
C932 C 0.61947 0.15744 0.7974 0.0
C933 C 0.66323 0.18668 0.72651 0.0
N934 N 0.55439 0.14806 0.78347 0.0
N935 N 0.63518 0.18857 0.72911 0.0
loop_
_geom_bond_atom_site_label_1
_geom_bond_atom_site_label_2
_geom_bond_distance
_geom_bond_site_symmetry_2
_ccdc_geom_bond_type
Co0 N4 2.148 1_554 S
Co0 N10 2.128 . S
Co0 N20 2.194 1_554 S
Co0 O25 2.351 . S
Co0 O26 2.155 . S
Co0 O27 2.096 . S
C1 N4 1.301 . S
C1 N5 1.328 . S
C1 H6 0.930 . S
C2 C3 1.333 . S
C2 N4 1.317 . S
C2 H7 0.930 . S
C3 C2 1.333 . S
C3 N5 1.350 . S
C3 H29 0.931 . S
N4 Co0 2.148 1_556 S
N4 C1 1.301 . S
N4 C2 1.317 . S
N5 C1 1.328 . S
N5 C3 1.350 . S
H6 C1 0.930 . S
H7 C2 0.930 . S
C8 O9 1.224 . S
C8 O27 1.247 1_556 S
O9 C8 1.224 . S
N10 Co0 2.128 . S
N10 C11 1.355 . S
N10 C13 1.311 . S
C11 N10 1.355 . S
C11 C12 1.363 . S
C11 H23 0.929 . S
C12 C11 1.363 . S
C12 N14 1.375 . S
C12 H30 0.931 . S
C13 N10 1.311 . S
C13 N14 1.347 . S
C13 H24 0.929 . S
N14 C12 1.375 . S
N14 C13 1.347 . S
C15 C18 1.365 . S
C15 N20 1.328 . S
C15 H21 0.929 . S
C16 C17 1.362 . S
C16 C19 1.378 . S
C16 H31 0.929 . S
C17 C16 1.362 . S
C17 C18 1.366 . S
C18 C15 1.365 . S
C18 C17 1.366 . S
C18 H32 0.930 . S
C19 C16 1.378 . S
C19 N20 1.315 . S
C19 H22 0.930 . S
N20 Co0 2.194 1_556 S
N20 C15 1.328 . S
N20 C19 1.315 . S
H21 C15 0.929 . S
H22 C19 0.930 . S
H23 C11 0.929 . S
H24 C13 0.929 . S
O25 Co0 2.351 . S
O25 C28 1.244 . S
O26 Co0 2.155 . S
O26 C28 1.240 . S
O27 Co0 2.096 . S
O27 C8 1.247 1_554 S
C28 O25 1.244 . S
C28 O26 1.240 . S
H29 C3 0.931 . S
H30 C12 0.931 . S
H31 C16 0.929 . S
H32 C18 0.930 . S
Co33 N37 2.148 . S
Co33 N43 2.128 . S
Co33 N53 2.194 . S
Co33 O58 2.351 . S
Co33 O59 2.155 . S
Co33 O60 2.096 . S
C34 N37 1.301 . S
C34 N38 1.328 . S
C34 H39 0.930 . S
C35 C36 1.333 . S
C35 N37 1.317 . S
C35 H40 0.930 . S
C36 C35 1.333 . S
C36 N38 1.350 . S
C36 H62 0.931 . S
N37 Co33 2.148 . S
N37 C34 1.301 . S
N37 C35 1.317 . S
N38 C34 1.328 . S
N38 C36 1.350 . S
H39 C34 0.930 . S
H40 C35 0.930 . S
C41 O42 1.224 . S
C41 O60 1.247 . S
O42 C41 1.224 . S
N43 Co33 2.128 . S
N43 C44 1.355 . S
N43 C46 1.311 . S
C44 N43 1.355 . S
C44 C45 1.363 . S
C44 H56 0.929 . S
C45 C44 1.363 . S
C45 N47 1.375 . S
C45 H63 0.931 . S
C46 N43 1.311 . S
C46 N47 1.347 . S
C46 H57 0.929 . S
N47 C45 1.375 . S
N47 C46 1.347 . S
C48 C51 1.365 . S
C48 N53 1.328 . S
C48 H54 0.929 . S
C49 C50 1.362 . S
C49 C52 1.378 . S
C49 H64 0.929 . S
C50 C49 1.362 . S
C50 C51 1.366 . S
C51 C48 1.365 . S
C51 C50 1.366 . S
C51 H65 0.930 . S
C52 C49 1.378 . S
C52 N53 1.315 . S
C52 H55 0.930 . S
N53 Co33 2.194 . S
N53 C48 1.328 . S
N53 C52 1.315 . S
H54 C48 0.929 . S
H55 C52 0.930 . S
H56 C44 0.929 . S
H57 C46 0.929 . S
O58 Co33 2.351 . S
O58 C61 1.244 . S
O59 Co33 2.155 . S
O59 C61 1.240 . S
O60 Co33 2.096 . S
O60 C41 1.247 . S
C61 O58 1.244 . S
C61 O59 1.240 . S
H62 C36 0.931 . S
H63 C45 0.931 . S
H64 C49 0.929 . S
H65 C51 0.930 . S
Co66 N70 2.148 . S
Co66 N76 2.128 . S
Co66 N86 2.194 . S
Co66 O91 2.351 . S
Co66 O92 2.155 . S
Co66 O93 2.096 . S
C67 N70 1.301 . S
C67 N71 1.328 . S
C67 H72 0.930 . S
C68 C69 1.333 . S
C68 N70 1.317 . S
C68 H73 0.930 . S
C69 C68 1.333 . S
C69 N71 1.350 . S
C69 H95 0.931 . S
N70 Co66 2.148 . S
N70 C67 1.301 . S
N70 C68 1.317 . S
N71 C67 1.328 . S
N71 C69 1.350 . S
H72 C67 0.930 . S
H73 C68 0.930 . S
C74 O75 1.224 . S
C74 O93 1.247 . S
O75 C74 1.224 . S
N76 Co66 2.128 . S
N76 C77 1.355 . S
N76 C79 1.311 . S
C77 N76 1.355 . S
C77 C78 1.363 . S
C77 H89 0.929 . S
C78 C77 1.363 . S
C78 N80 1.375 . S
C78 H96 0.931 . S
C79 N76 1.311 . S
C79 N80 1.347 . S
C79 H90 0.929 . S
N80 C78 1.375 . S
N80 C79 1.347 . S
C81 C84 1.365 . S
C81 N86 1.328 . S
C81 H87 0.929 . S
C82 C83 1.362 . S
C82 C85 1.378 . S
C82 H97 0.929 . S
C83 C82 1.362 . S
C83 C84 1.366 . S
C84 C81 1.365 . S
C84 C83 1.366 . S
C84 H98 0.930 . S
C85 C82 1.378 . S
C85 N86 1.315 . S
C85 H88 0.930 . S
N86 Co66 2.194 . S
N86 C81 1.328 . S
N86 C85 1.315 . S
H87 C81 0.929 . S
H88 C85 0.930 . S
H89 C77 0.929 . S
H90 C79 0.929 . S
O91 Co66 2.351 . S
O91 C94 1.244 . S
O92 Co66 2.155 . S
O92 C94 1.240 . S
O93 Co66 2.096 . S
O93 C74 1.247 . S
C94 O91 1.244 . S
C94 O92 1.240 . S
H95 C69 0.931 . S
H96 C78 0.931 . S
H97 C82 0.929 . S
H98 C84 0.930 . S
Co99 N103 2.148 . S
Co99 N109 2.128 . S
Co99 N119 2.194 . S
Co99 O124 2.351 . S
Co99 O125 2.155 . S
Co99 O126 2.096 . S
C100 N103 1.301 . S
C100 N104 1.328 . S
C100 H105 0.930 . S
C101 C102 1.333 . S
C101 N103 1.317 . S
C101 H106 0.930 . S
C102 C101 1.333 . S
C102 N104 1.350 . S
C102 H128 0.931 . S
N103 Co99 2.148 . S
N103 C100 1.301 . S
N103 C101 1.317 . S
N104 C100 1.328 . S
N104 C102 1.350 . S
H105 C100 0.930 . S
H106 C101 0.930 . S
C107 O108 1.224 . S
C107 O126 1.247 . S
O108 C107 1.224 . S
N109 Co99 2.128 . S
N109 C110 1.355 . S
N109 C112 1.311 . S
C110 N109 1.355 . S
C110 C111 1.363 . S
C110 H122 0.929 . S
C111 C110 1.363 . S
C111 N113 1.375 . S
C111 H129 0.931 . S
C112 N109 1.311 . S
C112 N113 1.347 . S
C112 H123 0.929 . S
N113 C111 1.375 . S
N113 C112 1.347 . S
C114 C117 1.365 . S
C114 N119 1.328 . S
C114 H120 0.929 . S
C115 C116 1.362 . S
C115 C118 1.378 . S
C115 H130 0.929 . S
C116 C115 1.362 . S
C116 C117 1.366 . S
C117 C114 1.365 . S
C117 C116 1.366 . S
C117 H131 0.930 . S
C118 C115 1.378 . S
C118 N119 1.315 . S
C118 H121 0.930 . S
N119 Co99 2.194 . S
N119 C114 1.328 . S
N119 C118 1.315 . S
H120 C114 0.929 . S
H121 C118 0.930 . S
H122 C110 0.929 . S
H123 C112 0.929 . S
O124 Co99 2.351 . S
O124 C127 1.244 . S
O125 Co99 2.155 . S
O125 C127 1.240 . S
O126 Co99 2.096 . S
O126 C107 1.247 . S
C127 O124 1.244 . S
C127 O125 1.240 . S
H128 C102 0.931 . S
H129 C111 0.931 . S
H130 C115 0.929 . S
H131 C117 0.930 . S
Co132 N136 2.148 . S
Co132 N142 2.128 . S
Co132 N152 2.194 . S
Co132 O157 2.351 . S
Co132 O158 2.155 . S
Co132 O159 2.096 . S
C133 N136 1.301 . S
C133 N137 1.328 . S
C133 H138 0.930 . S
C134 C135 1.333 . S
C134 N136 1.317 . S
C134 H139 0.930 . S
C135 C134 1.333 . S
C135 N137 1.350 . S
C135 H161 0.931 . S
N136 Co132 2.148 . S
N136 C133 1.301 . S
N136 C134 1.317 . S
N137 C133 1.328 . S
N137 C135 1.350 . S
H138 C133 0.930 . S
H139 C134 0.930 . S
C140 O141 1.224 . S
C140 O159 1.247 . S
O141 C140 1.224 . S
N142 Co132 2.128 . S
N142 C143 1.355 . S
N142 C145 1.311 . S
C143 N142 1.355 . S
C143 C144 1.363 . S
C143 H155 0.929 . S
C144 C143 1.363 . S
C144 N146 1.375 . S
C144 H162 0.931 . S
C145 N142 1.311 . S
C145 N146 1.347 . S
C145 H156 0.929 . S
N146 C144 1.375 . S
N146 C145 1.347 . S
C147 C150 1.365 . S
C147 N152 1.328 . S
C147 H153 0.929 . S
C148 C149 1.362 . S
C148 C151 1.378 . S
C148 H163 0.929 . S
C149 C148 1.362 . S
C149 C150 1.366 . S
C150 C147 1.365 . S
C150 C149 1.366 . S
C150 H164 0.930 . S
C151 C148 1.378 . S
C151 N152 1.315 . S
C151 H154 0.930 . S
N152 Co132 2.194 . S
N152 C147 1.328 . S
N152 C151 1.315 . S
H153 C147 0.929 . S
H154 C151 0.930 . S
H155 C143 0.929 . S
H156 C145 0.929 . S
O157 Co132 2.351 . S
O157 C160 1.244 . S
O158 Co132 2.155 . S
O158 C160 1.240 . S
O159 Co132 2.096 . S
O159 C140 1.247 . S
C160 O157 1.244 . S
C160 O158 1.240 . S
H161 C135 0.931 . S
H162 C144 0.931 . S
H163 C148 0.929 . S
H164 C150 0.930 . S
Co165 N169 2.148 . S
Co165 N175 2.128 . S
Co165 N185 2.194 . S
Co165 O190 2.351 . S
Co165 O191 2.155 . S
Co165 O192 2.096 . S
C166 N169 1.301 . S
C166 N170 1.328 . S
C166 H171 0.930 . S
C167 C168 1.333 . S
C167 N169 1.317 . S
C167 H172 0.930 . S
C168 C167 1.333 . S
C168 N170 1.350 . S
C168 H194 0.931 . S
N169 Co165 2.148 . S
N169 C166 1.301 . S
N169 C167 1.317 . S
N170 C166 1.328 . S
N170 C168 1.350 . S
H171 C166 0.930 . S
H172 C167 0.930 . S
C173 O174 1.224 . S
C173 O192 1.247 . S
O174 C173 1.224 . S
N175 Co165 2.128 . S
N175 C176 1.355 . S
N175 C178 1.311 . S
C176 N175 1.355 . S
C176 C177 1.363 . S
C176 H188 0.929 . S
C177 C176 1.363 . S
C177 N179 1.375 . S
C177 H195 0.931 . S
C178 N175 1.311 . S
C178 N179 1.347 . S
C178 H189 0.929 . S
N179 C177 1.375 . S
N179 C178 1.347 . S
C180 C183 1.365 . S
C180 N185 1.328 . S
C180 H186 0.929 . S
C181 C182 1.362 . S
C181 C184 1.378 . S
C181 H196 0.929 . S
C182 C181 1.362 . S
C182 C183 1.366 . S
C183 C180 1.365 . S
C183 C182 1.366 . S
C183 H197 0.930 . S
C184 C181 1.378 . S
C184 N185 1.315 . S
C184 H187 0.930 . S
N185 Co165 2.194 . S
N185 C180 1.328 . S
N185 C184 1.315 . S
H186 C180 0.929 . S
H187 C184 0.930 . S
H188 C176 0.929 . S
H189 C178 0.929 . S
O190 Co165 2.351 . S
O190 C193 1.244 . S
O191 Co165 2.155 . S
O191 C193 1.240 . S
O192 Co165 2.096 . S
O192 C173 1.247 . S
C193 O190 1.244 . S
C193 O191 1.240 . S
H194 C168 0.931 . S
H195 C177 0.931 . S
H196 C181 0.929 . S
H197 C183 0.930 . S
Co198 N202 2.148 . S
Co198 N208 2.128 . S
Co198 N218 2.194 . S
Co198 O223 2.351 . S
Co198 O224 2.155 . S
Co198 O225 2.096 . S
C199 N202 1.301 . S
C199 N203 1.328 . S
C199 H204 0.930 . S
C200 C201 1.333 . S
C200 N202 1.317 . S
C200 H205 0.930 . S
C201 C200 1.333 . S
C201 N203 1.350 . S
C201 H227 0.931 . S
N202 Co198 2.148 . S
N202 C199 1.301 . S
N202 C200 1.317 . S
N203 C199 1.328 . S
N203 C201 1.350 . S
H204 C199 0.930 . S
H205 C200 0.930 . S
C206 O207 1.224 . S
C206 O225 1.247 . S
O207 C206 1.224 . S
N208 Co198 2.128 . S
N208 C209 1.355 . S
N208 C211 1.311 . S
C209 N208 1.355 . S
C209 C210 1.363 . S
C209 H221 0.929 . S
C210 C209 1.363 . S
C210 N212 1.375 . S
C210 H228 0.931 . S
C211 N208 1.311 . S
C211 N212 1.347 . S
C211 H222 0.929 . S
N212 C210 1.375 . S
N212 C211 1.347 . S
C213 C216 1.365 . S
C213 N218 1.328 . S
C213 H219 0.929 . S
C214 C215 1.362 . S
C214 C217 1.378 . S
C214 H229 0.929 . S
C215 C214 1.362 . S
C215 C216 1.366 . S
C216 C213 1.365 . S
C216 C215 1.366 . S
C216 H230 0.930 . S
C217 C214 1.378 . S
C217 N218 1.315 . S
C217 H220 0.930 . S
N218 Co198 2.194 . S
N218 C213 1.328 . S
N218 C217 1.315 . S
H219 C213 0.929 . S
H220 C217 0.930 . S
H221 C209 0.929 . S
H222 C211 0.929 . S
O223 Co198 2.351 . S
O223 C226 1.244 . S
O224 Co198 2.155 . S
O224 C226 1.240 . S
O225 Co198 2.096 . S
O225 C206 1.247 . S
C226 O223 1.244 . S
C226 O224 1.240 . S
H227 C201 0.931 . S
H228 C210 0.931 . S
H229 C214 0.929 . S
H230 C216 0.930 . S
Co231 N235 2.148 1_556 S
Co231 N241 2.128 . S
Co231 N251 2.194 1_556 S
Co231 O256 2.351 . S
Co231 O257 2.155 . S
Co231 O258 2.096 . S
C232 N235 1.301 . S
C232 N236 1.328 . S
C232 H237 0.930 . S
C233 C234 1.333 . S
C233 N235 1.317 . S
C233 H238 0.930 . S
C234 C233 1.333 . S
C234 N236 1.350 . S
C234 H260 0.931 . S
N235 Co231 2.148 1_554 S
N235 C232 1.301 . S
N235 C233 1.317 . S
N236 C232 1.328 . S
N236 C234 1.350 . S
H237 C232 0.930 . S
H238 C233 0.930 . S
C239 O240 1.224 . S
C239 O258 1.247 1_554 S
O240 C239 1.224 . S
N241 Co231 2.128 . S
N241 C242 1.355 . S
N241 C244 1.311 . S
C242 N241 1.355 . S
C242 C243 1.363 . S
C242 H254 0.929 . S
C243 C242 1.363 . S
C243 N245 1.375 . S
C243 H261 0.931 . S
C244 N241 1.311 . S
C244 N245 1.347 . S
C244 H255 0.929 . S
N245 C243 1.375 . S
N245 C244 1.347 . S
C246 C249 1.365 . S
C246 N251 1.328 . S
C246 H252 0.929 . S
C247 C248 1.362 . S
C247 C250 1.378 . S
C247 H262 0.929 . S
C248 C247 1.362 . S
C248 C249 1.366 . S
C249 C246 1.365 . S
C249 C248 1.366 . S
C249 H263 0.930 . S
C250 C247 1.378 . S
C250 N251 1.315 . S
C250 H253 0.930 . S
N251 Co231 2.194 1_554 S
N251 C246 1.328 . S
N251 C250 1.315 . S
H252 C246 0.929 . S
H253 C250 0.930 . S
H254 C242 0.929 . S
H255 C244 0.929 . S
O256 Co231 2.351 . S
O256 C259 1.244 . S
O257 Co231 2.155 . S
O257 C259 1.240 . S
O258 Co231 2.096 . S
O258 C239 1.247 1_556 S
C259 O256 1.244 . S
C259 O257 1.240 . S
H260 C234 0.931 . S
H261 C243 0.931 . S
H262 C247 0.929 . S
H263 C249 0.930 . S
Co264 N268 2.148 . S
Co264 N274 2.128 . S
Co264 N284 2.194 . S
Co264 O289 2.351 . S
Co264 O290 2.155 . S
Co264 O291 2.096 . S
C265 N268 1.301 . S
C265 N269 1.328 . S
C265 H270 0.930 . S
C266 C267 1.333 . S
C266 N268 1.317 . S
C266 H271 0.930 . S
C267 C266 1.333 . S
C267 N269 1.350 . S
C267 H293 0.931 . S
N268 Co264 2.148 . S
N268 C265 1.301 . S
N268 C266 1.317 . S
N269 C265 1.328 . S
N269 C267 1.350 . S
H270 C265 0.930 . S
H271 C266 0.930 . S
C272 O273 1.224 . S
C272 O291 1.247 . S
O273 C272 1.224 . S
N274 Co264 2.128 . S
N274 C275 1.355 . S
N274 C277 1.311 . S
C275 N274 1.355 . S
C275 C276 1.363 . S
C275 H287 0.929 . S
C276 C275 1.363 . S
C276 N278 1.375 . S
C276 H294 0.931 . S
C277 N274 1.311 . S
C277 N278 1.347 . S
C277 H288 0.929 . S
N278 C276 1.375 . S
N278 C277 1.347 . S
C279 C282 1.365 . S
C279 N284 1.328 . S
C279 H285 0.929 . S
C280 C281 1.362 . S
C280 C283 1.378 . S
C280 H295 0.929 . S
C281 C280 1.362 . S
C281 C282 1.366 . S
C282 C279 1.365 . S
C282 C281 1.366 . S
C282 H296 0.930 . S
C283 C280 1.378 . S
C283 N284 1.315 . S
C283 H286 0.930 . S
N284 Co264 2.194 . S
N284 C279 1.328 . S
N284 C283 1.315 . S
H285 C279 0.929 . S
H286 C283 0.930 . S
H287 C275 0.929 . S
H288 C277 0.929 . S
O289 Co264 2.351 . S
O289 C292 1.244 . S
O290 Co264 2.155 . S
O290 C292 1.240 . S
O291 Co264 2.096 . S
O291 C272 1.247 . S
C292 O289 1.244 . S
C292 O290 1.240 . S
H293 C267 0.931 . S
H294 C276 0.931 . S
H295 C280 0.929 . S
H296 C282 0.930 . S
Co297 N301 2.148 . S
Co297 N307 2.128 . S
Co297 N317 2.194 . S
Co297 O322 2.351 . S
Co297 O323 2.155 . S
Co297 O324 2.096 . S
C298 N301 1.301 . S
C298 N302 1.328 . S
C298 H303 0.930 . S
C299 C300 1.333 . S
C299 N301 1.317 . S
C299 H304 0.930 . S
C300 C299 1.333 . S
C300 N302 1.350 . S
C300 H326 0.931 . S
N301 Co297 2.148 . S
N301 C298 1.301 . S
N301 C299 1.317 . S
N302 C298 1.328 . S
N302 C300 1.350 . S
H303 C298 0.930 . S
H304 C299 0.930 . S
C305 O306 1.224 . S
C305 O324 1.247 . S
O306 C305 1.224 . S
N307 Co297 2.128 . S
N307 C308 1.355 . S
N307 C310 1.311 . S
C308 N307 1.355 . S
C308 C309 1.363 . S
C308 H320 0.929 . S
C309 C308 1.363 . S
C309 N311 1.375 . S
C309 H327 0.931 . S
C310 N307 1.311 . S
C310 N311 1.347 . S
C310 H321 0.929 . S
N311 C309 1.375 . S
N311 C310 1.347 . S
C312 C315 1.365 . S
C312 N317 1.328 . S
C312 H318 0.929 . S
C313 C314 1.362 . S
C313 C316 1.378 . S
C313 H328 0.929 . S
C314 C313 1.362 . S
C314 C315 1.366 . S
C315 C312 1.365 . S
C315 C314 1.366 . S
C315 H329 0.930 . S
C316 C313 1.378 . S
C316 N317 1.315 . S
C316 H319 0.930 . S
N317 Co297 2.194 . S
N317 C312 1.328 . S
N317 C316 1.315 . S
H318 C312 0.929 . S
H319 C316 0.930 . S
H320 C308 0.929 . S
H321 C310 0.929 . S
O322 Co297 2.351 . S
O322 C325 1.244 . S
O323 Co297 2.155 . S
O323 C325 1.240 . S
O324 Co297 2.096 . S
O324 C305 1.247 . S
C325 O322 1.244 . S
C325 O323 1.240 . S
H326 C300 0.931 . S
H327 C309 0.931 . S
H328 C313 0.929 . S
H329 C315 0.930 . S
Co330 N334 2.148 . S
Co330 N340 2.128 . S
Co330 N350 2.194 . S
Co330 O355 2.351 . S
Co330 O356 2.155 . S
Co330 O357 2.096 . S
C331 N334 1.301 . S
C331 N335 1.328 . S
C331 H336 0.930 . S
C332 C333 1.333 . S
C332 N334 1.317 . S
C332 H337 0.930 . S
C333 C332 1.333 . S
C333 N335 1.350 . S
C333 H359 0.931 . S
N334 Co330 2.148 . S
N334 C331 1.301 . S
N334 C332 1.317 . S
N335 C331 1.328 . S
N335 C333 1.350 . S
H336 C331 0.930 . S
H337 C332 0.930 . S
C338 O339 1.224 . S
C338 O357 1.247 . S
O339 C338 1.224 . S
N340 Co330 2.128 . S
N340 C341 1.355 . S
N340 C343 1.311 . S
C341 N340 1.355 . S
C341 C342 1.363 . S
C341 H353 0.929 . S
C342 C341 1.363 . S
C342 N344 1.375 . S
C342 H360 0.931 . S
C343 N340 1.311 . S
C343 N344 1.347 . S
C343 H354 0.929 . S
N344 C342 1.375 . S
N344 C343 1.347 . S
C345 C348 1.365 . S
C345 N350 1.328 . S
C345 H351 0.929 . S
C346 C347 1.362 . S
C346 C349 1.378 . S
C346 H361 0.929 . S
C347 C346 1.362 . S
C347 C348 1.366 . S
C348 C345 1.365 . S
C348 C347 1.366 . S
C348 H362 0.930 . S
C349 C346 1.378 . S
C349 N350 1.315 . S
C349 H352 0.930 . S
N350 Co330 2.194 . S
N350 C345 1.328 . S
N350 C349 1.315 . S
H351 C345 0.929 . S
H352 C349 0.930 . S
H353 C341 0.929 . S
H354 C343 0.929 . S
O355 Co330 2.351 . S
O355 C358 1.244 . S
O356 Co330 2.155 . S
O356 C358 1.240 . S
O357 Co330 2.096 . S
O357 C338 1.247 . S
C358 O355 1.244 . S
C358 O356 1.240 . S
H359 C333 0.931 . S
H360 C342 0.931 . S
H361 C346 0.929 . S
H362 C348 0.930 . S
Co363 N367 2.148 . S
Co363 N373 2.128 . S
Co363 N383 2.194 . S
Co363 O388 2.351 . S
Co363 O389 2.155 . S
Co363 O390 2.096 . S
C364 N367 1.301 . S
C364 N368 1.328 . S
C364 H369 0.930 . S
C365 C366 1.333 . S
C365 N367 1.317 . S
C365 H370 0.930 . S
C366 C365 1.333 . S
C366 N368 1.350 . S
C366 H392 0.931 . S
N367 Co363 2.148 . S
N367 C364 1.301 . S
N367 C365 1.317 . S
N368 C364 1.328 . S
N368 C366 1.350 . S
H369 C364 0.930 . S
H370 C365 0.930 . S
C371 O372 1.224 . S
C371 O390 1.247 . S
O372 C371 1.224 . S
N373 Co363 2.128 . S
N373 C374 1.355 . S
N373 C376 1.311 . S
C374 N373 1.355 . S
C374 C375 1.363 . S
C374 H386 0.929 . S
C375 C374 1.363 . S
C375 N377 1.375 . S
C375 H393 0.931 . S
C376 N373 1.311 . S
C376 N377 1.347 . S
C376 H387 0.929 . S
N377 C375 1.375 . S
N377 C376 1.347 . S
C378 C381 1.365 . S
C378 N383 1.328 . S
C378 H384 0.929 . S
C379 C380 1.362 . S
C379 C382 1.378 . S
C379 H394 0.929 . S
C380 C379 1.362 . S
C380 C381 1.366 . S
C381 C378 1.365 . S
C381 C380 1.366 . S
C381 H395 0.930 . S
C382 C379 1.378 . S
C382 N383 1.315 . S
C382 H385 0.930 . S
N383 Co363 2.194 . S
N383 C378 1.328 . S
N383 C382 1.315 . S
H384 C378 0.929 . S
H385 C382 0.930 . S
H386 C374 0.929 . S
H387 C376 0.929 . S
O388 Co363 2.351 . S
O388 C391 1.244 . S
O389 Co363 2.155 . S
O389 C391 1.240 . S
O390 Co363 2.096 . S
O390 C371 1.247 . S
C391 O388 1.244 . S
C391 O389 1.240 . S
H392 C366 0.931 . S
H393 C375 0.931 . S
H394 C379 0.929 . S
H395 C381 0.930 . S
H396 C402 0.930 . S
H397 C406 0.930 . S
H398 C411 0.929 . S
H399 C409 0.929 . S
H400 C404 0.929 . S
H401 C410 0.929 . S
C402 H396 0.930 . S
C402 C403 1.367 . S
C402 C410 1.378 . S
C403 C402 1.367 . S
C403 C411 1.433 . S
C404 H400 0.929 . S
C404 C406 1.378 . S
C404 C408 1.350 . S
C405 C408 1.463 . S
C405 C410 1.350 . S
C405 N413 1.427 . S
C406 H397 0.930 . S
C406 C404 1.378 . S
C406 C407 1.367 . S
C407 C406 1.367 . S
C407 C409 1.433 . S
C408 C404 1.350 . S
C408 C405 1.463 . S
C408 N412 1.427 . S
C409 H399 0.929 . S
C409 C407 1.433 . S
C409 N412 1.384 . S
C410 H401 0.929 . S
C410 C402 1.378 . S
C410 C405 1.350 . S
C411 H398 0.929 . S
C411 C403 1.433 . S
C411 N413 1.384 . S
N412 C408 1.427 . S
N412 C409 1.384 . S
N413 C405 1.427 . S
N413 C411 1.384 . S
H414 C420 0.930 . S
H415 C424 0.930 . S
H416 C429 0.929 . S
H417 C427 0.929 . S
H418 C422 0.929 . S
H419 C428 0.929 . S
C420 H414 0.930 . S
C420 C421 1.367 . S
C420 C428 1.378 . S
C421 C420 1.367 . S
C421 C429 1.433 . S
C422 H418 0.929 . S
C422 C424 1.378 . S
C422 C426 1.350 . S
C423 C426 1.463 . S
C423 C428 1.350 . S
C423 N431 1.427 . S
C424 H415 0.930 . S
C424 C422 1.378 . S
C424 C425 1.367 . S
C425 C424 1.367 . S
C425 C427 1.433 . S
C426 C422 1.350 . S
C426 C423 1.463 . S
C426 N430 1.427 . S
C427 H417 0.929 . S
C427 C425 1.433 . S
C427 N430 1.384 . S
C428 H419 0.929 . S
C428 C420 1.378 . S
C428 C423 1.350 . S
C429 H416 0.929 . S
C429 C421 1.433 . S
C429 N431 1.384 . S
N430 C426 1.427 . S
N430 C427 1.384 . S
N431 C423 1.427 . S
N431 C429 1.384 . S
H432 C438 0.930 . S
H433 C442 0.930 . S
H434 C447 0.929 . S
H435 C445 0.929 . S
H436 C440 0.929 . S
H437 C446 0.929 . S
C438 H432 0.930 . S
C438 C439 1.367 . S
C438 C446 1.378 . S
C439 C438 1.367 . S
C439 C447 1.433 . S
C440 H436 0.929 . S
C440 C442 1.378 . S
C440 C444 1.350 . S
C441 C444 1.463 . S
C441 C446 1.350 . S
C441 N449 1.427 . S
C442 H433 0.930 . S
C442 C440 1.378 . S
C442 C443 1.367 . S
C443 C442 1.367 . S
C443 C445 1.433 . S
C444 C440 1.350 . S
C444 C441 1.463 . S
C444 N448 1.427 . S
C445 H435 0.929 . S
C445 C443 1.433 . S
C445 N448 1.384 . S
C446 H437 0.929 . S
C446 C438 1.378 . S
C446 C441 1.350 . S
C447 H434 0.929 . S
C447 C439 1.433 . S
C447 N449 1.384 . S
N448 C444 1.427 . S
N448 C445 1.384 . S
N449 C441 1.427 . S
N449 C447 1.384 . S
H450 C456 0.930 . S
H451 C460 0.930 . S
H452 C465 0.929 . S
H453 C463 0.929 . S
H454 C458 0.929 . S
H455 C464 0.929 . S
C456 H450 0.930 . S
C456 C457 1.367 . S
C456 C464 1.378 . S
C457 C456 1.367 . S
C457 C465 1.433 . S
C458 H454 0.929 . S
C458 C460 1.378 . S
C458 C462 1.350 . S
C459 C462 1.463 . S
C459 C464 1.350 . S
C459 N467 1.427 . S
C460 H451 0.930 . S
C460 C458 1.378 . S
C460 C461 1.367 . S
C461 C460 1.367 . S
C461 C463 1.433 . S
C462 C458 1.350 . S
C462 C459 1.463 . S
C462 N466 1.427 . S
C463 H453 0.929 . S
C463 C461 1.433 . S
C463 N466 1.384 . S
C464 H455 0.929 . S
C464 C456 1.378 . S
C464 C459 1.350 . S
C465 H452 0.929 . S
C465 C457 1.433 . S
C465 N467 1.384 . S
N466 C462 1.427 . S
N466 C463 1.384 . S
N467 C459 1.427 . S
N467 C465 1.384 . S
H468 C474 0.930 . S
H469 C478 0.930 . S
H470 C483 0.929 . S
H471 C481 0.929 . S
H472 C476 0.929 . S
H473 C482 0.929 . S
C474 H468 0.930 . S
C474 C475 1.367 . S
C474 C482 1.378 . S
C475 C474 1.367 . S
C475 C483 1.433 . S
C476 H472 0.929 . S
C476 C478 1.378 1_556 S
C476 C480 1.350 . S
C477 C480 1.463 . S
C477 C482 1.350 . S
C477 N485 1.427 . S
C478 H469 0.930 . S
C478 C476 1.378 1_554 S
C478 C479 1.367 . S
C479 C478 1.367 . S
C479 C481 1.433 . S
C480 C476 1.350 . S
C480 C477 1.463 . S
C480 N484 1.427 . S
C481 H471 0.929 . S
C481 C479 1.433 . S
C481 N484 1.384 1_554 S
C482 H473 0.929 . S
C482 C474 1.378 . S
C482 C477 1.350 . S
C483 H470 0.929 . S
C483 C475 1.433 . S
C483 N485 1.384 . S
N484 C480 1.427 . S
N484 C481 1.384 1_556 S
N485 C477 1.427 . S
N485 C483 1.384 . S
H486 C492 0.930 . S
H487 C496 0.930 . S
H488 C501 0.929 . S
H489 C499 0.929 . S
H490 C494 0.929 . S
H491 C500 0.929 . S
C492 H486 0.930 . S
C492 C493 1.367 . S
C492 C500 1.378 1_556 S
C493 C492 1.367 . S
C493 C501 1.433 . S
C494 H490 0.929 . S
C494 C496 1.378 . S
C494 C498 1.350 . S
C495 C498 1.463 . S
C495 C500 1.350 . S
C495 N503 1.427 . S
C496 H487 0.930 . S
C496 C494 1.378 . S
C496 C497 1.367 . S
C497 C496 1.367 . S
C497 C499 1.433 . S
C498 C494 1.350 . S
C498 C495 1.463 . S
C498 N502 1.427 . S
C499 H489 0.929 . S
C499 C497 1.433 . S
C499 N502 1.384 . S
C500 H491 0.929 . S
C500 C492 1.378 1_554 S
C500 C495 1.350 . S
C501 H488 0.929 . S
C501 C493 1.433 . S
C501 N503 1.384 1_556 S
N502 C498 1.427 . S
N502 C499 1.384 . S
N503 C495 1.427 . S
N503 C501 1.384 1_554 S
H504 C510 0.930 . S
H505 C514 0.930 . S
H506 C519 0.929 . S
H507 C517 0.929 . S
H508 C512 0.929 . S
H509 C518 0.929 . S
C510 H504 0.930 . S
C510 C511 1.367 . S
C510 C518 1.378 . S
C511 C510 1.367 . S
C511 C519 1.433 . S
C512 H508 0.929 . S
C512 C514 1.378 . S
C512 C516 1.350 . S
C513 C516 1.463 . S
C513 C518 1.350 . S
C513 N521 1.427 . S
C514 H505 0.930 . S
C514 C512 1.378 . S
C514 C515 1.367 . S
C515 C514 1.367 . S
C515 C517 1.433 . S
C516 C512 1.350 . S
C516 C513 1.463 . S
C516 N520 1.427 . S
C517 H507 0.929 . S
C517 C515 1.433 . S
C517 N520 1.384 . S
C518 H509 0.929 . S
C518 C510 1.378 . S
C518 C513 1.350 . S
C519 H506 0.929 . S
C519 C511 1.433 . S
C519 N521 1.384 . S
N520 C516 1.427 . S
N520 C517 1.384 . S
N521 C513 1.427 . S
N521 C519 1.384 . S
H522 C528 0.930 . S
H523 C532 0.946 1_556 S
H524 C537 0.929 . S
H525 C535 0.929 . S
H526 C530 0.939 . S
H527 C536 0.929 . S
C528 H522 0.930 . S
C528 C529 1.367 1_554 S
C528 C536 1.378 . S
C529 C528 1.367 1_556 S
C529 C537 1.433 . S
C530 H526 0.939 . S
C530 C532 1.341 1_456 S
C530 C534 1.343 1_556 S
C531 C534 1.463 . S
C531 C536 1.350 . S
C531 N539 1.427 1_554 S
C532 H523 0.946 1_554 S
C532 C530 1.341 1_654 S
C532 C533 1.385 . S
C533 C532 1.385 . S
C533 C535 1.433 1_655 S
C534 C530 1.343 1_554 S
C534 C531 1.463 . S
C534 N538 1.427 . S
C535 H525 0.929 . S
C535 C533 1.433 1_455 S
C535 N538 1.384 . S
C536 H527 0.929 . S
C536 C528 1.378 . S
C536 C531 1.350 . S
C537 H524 0.929 . S
C537 C529 1.433 . S
C537 N539 1.384 . S
N538 C534 1.427 . S
N538 C535 1.384 . S
N539 C531 1.427 1_556 S
N539 C537 1.384 . S
H540 C546 0.930 . S
H541 C550 0.930 . S
H542 C555 0.929 . S
H543 C553 0.929 . S
H544 C548 0.929 . S
H545 C554 0.929 . S
C546 H540 0.930 . S
C546 C547 1.367 . S
C546 C554 1.378 . S
C547 C546 1.367 . S
C547 C555 1.433 . S
C548 H544 0.929 . S
C548 C550 1.378 . S
C548 C552 1.350 . S
C549 C552 1.463 . S
C549 C554 1.350 . S
C549 N557 1.427 . S
C550 H541 0.930 . S
C550 C548 1.378 . S
C550 C551 1.367 1_545 S
C551 C550 1.367 1_565 S
C551 C553 1.433 . S
C552 C548 1.350 . S
C552 C549 1.463 . S
C552 N556 1.427 . S
C553 H543 0.929 . S
C553 C551 1.433 . S
C553 N556 1.384 1_565 S
C554 H545 0.929 . S
C554 C546 1.378 . S
C554 C549 1.350 . S
C555 H542 0.929 . S
C555 C547 1.433 . S
C555 N557 1.384 . S
N556 C552 1.427 . S
N556 C553 1.384 1_545 S
N557 C549 1.427 . S
N557 C555 1.384 . S
H558 C564 0.930 . S
H559 C568 0.930 . S
H560 C573 0.929 . S
H561 C571 0.929 . S
H562 C566 0.929 . S
H563 C572 0.929 . S
C564 H558 0.930 . S
C564 C565 1.367 . S
C564 C572 1.378 . S
C565 C564 1.367 . S
C565 C573 1.433 . S
C566 H562 0.929 . S
C566 C568 1.378 . S
C566 C570 1.350 . S
C567 C570 1.463 . S
C567 C572 1.350 . S
C567 N575 1.427 . S
C568 H559 0.930 . S
C568 C566 1.378 . S
C568 C569 1.367 . S
C569 C568 1.367 . S
C569 C571 1.433 . S
C570 C566 1.350 . S
C570 C567 1.463 . S
C570 N574 1.427 . S
C571 H561 0.929 . S
C571 C569 1.433 . S
C571 N574 1.384 . S
C572 H563 0.929 . S
C572 C564 1.378 . S
C572 C567 1.350 . S
C573 H560 0.929 . S
C573 C565 1.433 . S
C573 N575 1.384 . S
N574 C570 1.427 . S
N574 C571 1.384 . S
N575 C567 1.427 . S
N575 C573 1.384 . S
H576 C582 0.930 . S
H577 C586 0.930 . S
H578 C591 0.929 . S
H579 C589 0.929 . S
H580 C584 0.929 . S
H581 C590 0.929 . S
C582 H576 0.930 . S
C582 C583 1.367 1_655 S
C582 C590 1.378 . S
C583 C582 1.367 1_455 S
C583 C591 1.433 . S
C584 H580 0.929 . S
C584 C586 1.378 . S
C584 C588 1.350 . S
C585 C588 1.463 . S
C585 C590 1.350 . S
C585 N593 1.427 . S
C586 H577 0.930 . S
C586 C584 1.378 . S
C586 C587 1.367 . S
C587 C586 1.367 . S
C587 C589 1.433 . S
C588 C584 1.350 . S
C588 C585 1.463 . S
C588 N592 1.427 . S
C589 H579 0.929 . S
C589 C587 1.433 . S
C589 N592 1.384 . S
C590 H581 0.929 . S
C590 C582 1.378 . S
C590 C585 1.350 . S
C591 H578 0.929 . S
C591 C583 1.433 . S
C591 N593 1.384 1_455 S
N592 C588 1.427 . S
N592 C589 1.384 . S
N593 C585 1.427 . S
N593 C591 1.384 1_655 S
H594 C600 0.930 . S
H595 C604 0.930 . S
H596 C609 0.929 1_545 S
H597 C607 0.929 . S
H598 C602 0.929 . S
H599 C608 0.929 . S
C600 H594 0.930 . S
C600 C601 1.367 1_565 S
C600 C608 1.378 . S
C601 C600 1.367 1_545 S
C601 C609 1.433 1_545 S
C602 H598 0.929 . S
C602 C604 1.378 . S
C602 C606 1.350 . S
C603 C606 1.463 . S
C603 C608 1.350 . S
C603 N611 1.427 . S
C604 H595 0.930 . S
C604 C602 1.378 . S
C604 C605 1.367 . S
C605 C604 1.367 . S
C605 C607 1.433 . S
C606 C602 1.350 . S
C606 C603 1.463 . S
C606 N610 1.427 . S
C607 H597 0.929 . S
C607 C605 1.433 . S
C607 N610 1.384 . S
C608 H599 0.929 . S
C608 C600 1.378 . S
C608 C603 1.350 . S
C609 H596 0.929 1_565 S
C609 C601 1.433 1_565 S
C609 N611 1.384 . S
N610 C606 1.427 . S
N610 C607 1.384 . S
N611 C603 1.427 . S
N611 C609 1.384 . S
H612 C618 0.930 . S
H613 C622 0.919 1_554 S
H614 C627 0.929 . S
H615 C625 0.929 . S
H616 C620 0.929 . S
H617 C626 0.929 . S
C618 H612 0.930 . S
C618 C619 1.367 1_556 S
C618 C626 1.378 . S
C619 C618 1.367 1_554 S
C619 C627 1.433 . S
C620 H616 0.929 . S
C620 C622 1.374 1_554 S
C620 C624 1.350 1_554 S
C621 C624 1.463 . S
C621 C626 1.350 . S
C621 N629 1.427 1_556 S
C622 H613 0.919 1_556 S
C622 C620 1.374 1_556 S
C622 C623 1.382 . S
C623 C622 1.382 . S
C623 C625 1.433 . S
C624 C620 1.350 1_556 S
C624 C621 1.463 . S
C624 N628 1.427 . S
C625 H615 0.929 . S
C625 C623 1.433 . S
C625 N628 1.384 . S
C626 H617 0.929 . S
C626 C618 1.378 . S
C626 C621 1.350 . S
C627 H614 0.929 . S
C627 C619 1.433 . S
C627 N629 1.384 . S
N628 C624 1.427 . S
N628 C625 1.384 . S
N629 C621 1.427 1_554 S
N629 C627 1.384 . S
H630 C636 0.930 . S
H631 C640 0.930 . S
H632 C645 0.929 . S
H633 C643 0.929 . S
H634 C638 0.929 . S
H635 C644 0.929 . S
C636 H630 0.930 . S
C636 C637 1.367 1_455 S
C636 C644 1.378 . S
C637 C636 1.367 1_655 S
C637 C645 1.433 . S
C638 H634 0.929 . S
C638 C640 1.378 . S
C638 C642 1.350 . S
C639 C642 1.463 . S
C639 C644 1.350 . S
C639 N647 1.427 . S
C640 H631 0.930 . S
C640 C638 1.378 . S
C640 C641 1.367 . S
C641 C640 1.367 . S
C641 C643 1.433 . S
C642 C638 1.350 . S
C642 C639 1.463 . S
C642 N646 1.427 . S
C643 H633 0.929 . S
C643 C641 1.433 . S
C643 N646 1.384 . S
C644 H635 0.929 . S
C644 C636 1.378 . S
C644 C639 1.350 . S
C645 H632 0.929 . S
C645 C637 1.433 . S
C645 N647 1.384 1_655 S
N646 C642 1.427 . S
N646 C643 1.384 . S
N647 C639 1.427 . S
N647 C645 1.384 1_455 S
H648 C654 0.930 . S
H649 C658 0.930 . S
H650 C663 0.929 . S
H651 C661 0.929 . S
H652 C656 0.929 . S
H653 C662 0.929 . S
C654 H648 0.930 . S
C654 C655 1.367 1_545 S
C654 C662 1.378 . S
C655 C654 1.367 1_565 S
C655 C663 1.433 . S
C656 H652 0.929 . S
C656 C658 1.378 . S
C656 C660 1.350 . S
C657 C660 1.463 . S
C657 C662 1.350 . S
C657 N665 1.427 . S
C658 H649 0.930 . S
C658 C656 1.378 . S
C658 C659 1.367 . S
C659 C658 1.367 . S
C659 C661 1.433 . S
C660 C656 1.350 . S
C660 C657 1.463 . S
C660 N664 1.427 . S
C661 H651 0.929 . S
C661 C659 1.433 . S
C661 N664 1.384 . S
C662 H653 0.929 . S
C662 C654 1.378 . S
C662 C657 1.350 . S
C663 H650 0.929 . S
C663 C655 1.433 . S
C663 N665 1.384 1_565 S
N664 C660 1.427 . S
N664 C661 1.384 . S
N665 C657 1.427 . S
N665 C663 1.384 1_545 S
H666 C672 0.930 . S
H667 C676 0.930 . S
H668 C681 0.929 . S
H669 C679 0.929 . S
H670 C674 0.929 . S
H671 C680 0.929 . S
C672 H666 0.930 . S
C672 C673 1.367 . S
C672 C680 1.378 . S
C673 C672 1.367 . S
C673 C681 1.433 . S
C674 H670 0.929 . S
C674 C676 1.378 . S
C674 C678 1.350 . S
C675 C678 1.463 . S
C675 C680 1.350 . S
C675 N683 1.427 . S
C676 H667 0.930 . S
C676 C674 1.378 . S
C676 C677 1.367 . S
C677 C676 1.367 . S
C677 C679 1.433 . S
C678 C674 1.350 . S
C678 C675 1.463 . S
C678 N682 1.427 . S
C679 H669 0.929 . S
C679 C677 1.433 . S
C679 N682 1.384 . S
C680 H671 0.929 . S
C680 C672 1.378 . S
C680 C675 1.350 . S
C681 H668 0.929 . S
C681 C673 1.433 . S
C681 N683 1.384 . S
N682 C678 1.427 . S
N682 C679 1.384 . S
N683 C675 1.427 . S
N683 C681 1.384 . S
H684 C690 0.930 . S
H685 C694 0.930 . S
H686 C699 0.929 1_455 S
H687 C697 0.929 . S
H688 C692 0.929 . S
H689 C698 0.929 . S
C690 H684 0.930 . S
C690 C691 1.367 1_655 S
C690 C698 1.378 . S
C691 C690 1.367 1_455 S
C691 C699 1.433 1_455 S
C692 H688 0.929 . S
C692 C694 1.378 . S
C692 C696 1.350 . S
C693 C696 1.463 . S
C693 C698 1.350 . S
C693 N701 1.427 . S
C694 H685 0.930 . S
C694 C692 1.378 . S
C694 C695 1.367 . S
C695 C694 1.367 . S
C695 C697 1.433 . S
C696 C692 1.350 . S
C696 C693 1.463 . S
C696 N700 1.427 . S
C697 H687 0.929 . S
C697 C695 1.433 . S
C697 N700 1.384 . S
C698 H689 0.929 . S
C698 C690 1.378 . S
C698 C693 1.350 . S
C699 H686 0.929 1_655 S
C699 C691 1.433 1_655 S
C699 N701 1.384 . S
N700 C696 1.427 . S
N700 C697 1.384 . S
N701 C693 1.427 . S
N701 C699 1.384 . S
H702 C708 0.930 . S
H703 C712 0.930 . S
H704 C717 0.929 1_545 S
H705 C715 0.929 . S
H706 C710 0.929 . S
H707 C716 0.929 . S
C708 H702 0.930 . S
C708 C709 1.367 1_565 S
C708 C716 1.378 . S
C709 C708 1.367 1_545 S
C709 C717 1.433 1_545 S
C710 H706 0.929 . S
C710 C712 1.378 . S
C710 C714 1.350 . S
C711 C714 1.463 . S
C711 C716 1.350 . S
C711 N719 1.427 . S
C712 H703 0.930 . S
C712 C710 1.378 . S
C712 C713 1.367 . S
C713 C712 1.367 . S
C713 C715 1.433 . S
C714 C710 1.350 . S
C714 C711 1.463 . S
C714 N718 1.427 . S
C715 H705 0.929 . S
C715 C713 1.433 . S
C715 N718 1.384 . S
C716 H707 0.929 . S
C716 C708 1.378 . S
C716 C711 1.350 . S
C717 H704 0.929 1_565 S
C717 C709 1.433 1_565 S
C717 N719 1.384 . S
N718 C714 1.427 . S
N718 C715 1.384 . S
N719 C711 1.427 . S
N719 C717 1.384 . S
H720 C726 0.930 . S
H721 C730 0.930 . S
H722 C735 0.929 . S
H723 C733 0.929 . S
H724 C728 0.929 . S
H725 C734 0.929 . S
C726 H720 0.930 . S
C726 C727 1.367 . S
C726 C734 1.378 . S
C727 C726 1.367 . S
C727 C735 1.433 . S
C728 H724 0.929 . S
C728 C730 1.378 . S
C728 C732 1.350 . S
C729 C732 1.463 . S
C729 C734 1.350 . S
C729 N737 1.427 . S
C730 H721 0.930 . S
C730 C728 1.378 . S
C730 C731 1.367 . S
C731 C730 1.367 . S
C731 C733 1.433 . S
C732 C728 1.350 . S
C732 C729 1.463 . S
C732 N736 1.427 . S
C733 H723 0.929 . S
C733 C731 1.433 . S
C733 N736 1.384 . S
C734 H725 0.929 . S
C734 C726 1.378 . S
C734 C729 1.350 . S
C735 H722 0.929 . S
C735 C727 1.433 . S
C735 N737 1.384 . S
N736 C732 1.427 . S
N736 C733 1.384 . S
N737 C729 1.427 . S
N737 C735 1.384 . S
H738 C744 0.930 . S
H739 C748 0.930 . S
H740 C753 0.929 . S
H741 C751 0.929 . S
H742 C746 0.929 . S
H743 C752 0.929 . S
C744 H738 0.930 . S
C744 C745 1.367 . S
C744 C752 1.378 1_655 S
C745 C744 1.367 . S
C745 C753 1.433 . S
C746 H742 0.929 . S
C746 C748 1.378 1_655 S
C746 C750 1.350 1_655 S
C747 C750 1.463 1_655 S
C747 C752 1.350 1_655 S
C747 N755 1.427 . S
C748 H739 0.930 . S
C748 C746 1.378 1_455 S
C748 C749 1.367 . S
C749 C748 1.367 . S
C749 C751 1.433 . S
C750 C746 1.350 1_455 S
C750 C747 1.463 1_455 S
C750 N754 1.427 . S
C751 H741 0.929 . S
C751 C749 1.433 . S
C751 N754 1.384 . S
C752 H743 0.929 . S
C752 C744 1.378 1_455 S
C752 C747 1.350 1_455 S
C753 H740 0.929 . S
C753 C745 1.433 . S
C753 N755 1.384 . S
N754 C750 1.427 . S
N754 C751 1.384 . S
N755 C747 1.427 . S
N755 C753 1.384 . S
H756 C762 0.930 . S
H757 C766 0.930 . S
H758 C771 0.929 . S
H759 C769 0.929 . S
H760 C764 0.929 . S
H761 C770 0.929 . S
C762 H756 0.930 . S
C762 C763 1.367 . S
C762 C770 1.378 . S
C763 C762 1.367 . S
C763 C771 1.433 . S
C764 H760 0.929 . S
C764 C766 1.378 . S
C764 C768 1.350 . S
C765 C768 1.463 1_565 S
C765 C770 1.350 . S
C765 N773 1.427 1_565 S
C766 H757 0.930 . S
C766 C764 1.378 . S
C766 C767 1.367 . S
C767 C766 1.367 . S
C767 C769 1.433 . S
C768 C764 1.350 . S
C768 C765 1.463 1_545 S
C768 N772 1.427 1_545 S
C769 H759 0.929 . S
C769 C767 1.433 . S
C769 N772 1.384 1_545 S
C770 H761 0.929 . S
C770 C762 1.378 . S
C770 C765 1.350 . S
C771 H758 0.929 . S
C771 C763 1.433 . S
C771 N773 1.384 1_565 S
N772 C768 1.427 1_565 S
N772 C769 1.384 1_565 S
N773 C765 1.427 1_545 S
N773 C771 1.384 1_545 S
H774 C780 0.930 . S
H775 C784 0.930 . S
H776 C789 0.929 . S
H777 C787 0.929 . S
H778 C782 0.929 . S
H779 C788 0.929 . S
C780 H774 0.930 . S
C780 C781 1.367 . S
C780 C788 1.378 . S
C781 C780 1.367 . S
C781 C789 1.433 . S
C782 H778 0.929 . S
C782 C784 1.378 . S
C782 C786 1.350 . S
C783 C786 1.463 . S
C783 C788 1.350 . S
C783 N791 1.427 . S
C784 H775 0.930 . S
C784 C782 1.378 . S
C784 C785 1.367 . S
C785 C784 1.367 . S
C785 C787 1.433 . S
C786 C782 1.350 . S
C786 C783 1.463 . S
C786 N790 1.427 . S
C787 H777 0.929 . S
C787 C785 1.433 . S
C787 N790 1.384 . S
C788 H779 0.929 . S
C788 C780 1.378 . S
C788 C783 1.350 . S
C789 H776 0.929 . S
C789 C781 1.433 . S
C789 N791 1.384 . S
N790 C786 1.427 . S
N790 C787 1.384 . S
N791 C783 1.427 . S
N791 C789 1.384 . S
H792 C798 0.930 . S
H793 C802 0.930 . S
H794 C807 0.929 . S
H795 C805 0.929 . S
H796 C800 0.903 1_455 S
H797 C806 0.929 1_655 S
C798 H792 0.930 . S
C798 C799 1.367 . S
C798 C806 1.378 . S
C799 C798 1.367 . S
C799 C807 1.433 . S
C800 H796 0.903 1_655 S
C800 C802 1.390 . S
C800 C804 1.364 . S
C801 C804 1.463 1_455 S
C801 C806 1.350 . S
C801 N809 1.427 . S
C802 H793 0.930 . S
C802 C800 1.390 . S
C802 C803 1.367 . S
C803 C802 1.367 . S
C803 C805 1.433 . S
C804 C800 1.364 . S
C804 C801 1.463 1_655 S
C804 N808 1.427 . S
C805 H795 0.929 . S
C805 C803 1.433 . S
C805 N808 1.384 . S
C806 H797 0.929 1_455 S
C806 C798 1.378 . S
C806 C801 1.350 . S
C807 H794 0.929 . S
C807 C799 1.433 . S
C807 N809 1.384 . S
N808 C804 1.427 . S
N808 C805 1.384 . S
N809 C801 1.427 . S
N809 C807 1.384 . S
H810 C816 0.930 . S
H811 C820 0.930 . S
H812 C825 0.929 . S
H813 C823 0.929 . S
H814 C818 0.929 . S
H815 C824 0.929 . S
C816 H810 0.930 . S
C816 C817 1.367 . S
C816 C824 1.378 . S
C817 C816 1.367 . S
C817 C825 1.433 . S
C818 H814 0.929 . S
C818 C820 1.378 . S
C818 C822 1.350 . S
C819 C822 1.463 1_564 S
C819 C824 1.350 . S
C819 N827 1.427 . S
C820 H811 0.930 . S
C820 C818 1.378 . S
C820 C821 1.367 . S
C821 C820 1.367 . S
C821 C823 1.433 . S
C822 C818 1.350 . S
C822 C819 1.463 1_546 S
C822 N826 1.427 . S
C823 H813 0.929 . S
C823 C821 1.433 . S
C823 N826 1.384 . S
C824 H815 0.929 . S
C824 C816 1.378 . S
C824 C819 1.350 . S
C825 H812 0.929 . S
C825 C817 1.433 . S
C825 N827 1.384 . S
N826 C822 1.427 . S
N826 C823 1.384 . S
N827 C819 1.427 . S
N827 C825 1.384 . S
H828 C834 0.930 . S
H829 C838 0.930 . S
H830 C843 0.929 . S
H831 C841 0.929 . S
H832 C836 0.929 . S
H833 C842 0.929 . S
C834 H828 0.930 . S
C834 C835 1.367 . S
C834 C842 1.378 . S
C835 C834 1.367 . S
C835 C843 1.433 . S
C836 H832 0.929 . S
C836 C838 1.378 . S
C836 C840 1.350 . S
C837 C840 1.463 . S
C837 C842 1.350 . S
C837 N845 1.427 . S
C838 H829 0.930 . S
C838 C836 1.378 . S
C838 C839 1.367 . S
C839 C838 1.367 . S
C839 C841 1.433 . S
C840 C836 1.350 . S
C840 C837 1.463 . S
C840 N844 1.427 . S
C841 H831 0.929 . S
C841 C839 1.433 . S
C841 N844 1.384 . S
C842 H833 0.929 . S
C842 C834 1.378 . S
C842 C837 1.350 . S
C843 H830 0.929 . S
C843 C835 1.433 . S
C843 N845 1.384 . S
N844 C840 1.427 . S
N844 C841 1.384 . S
N845 C837 1.427 . S
N845 C843 1.384 . S
H846 C852 0.930 . S
H847 C856 0.930 . S
H848 C861 0.929 . S
H849 C859 0.929 . S
H850 C854 0.929 . S
H851 C860 0.929 . S
C852 H846 0.930 . S
C852 C853 1.367 . S
C852 C860 1.378 . S
C853 C852 1.367 . S
C853 C861 1.433 . S
C854 H850 0.929 . S
C854 C856 1.378 . S
C854 C858 1.350 . S
C855 C858 1.463 . S
C855 C860 1.350 . S
C855 N863 1.427 . S
C856 H847 0.930 . S
C856 C854 1.378 . S
C856 C857 1.367 . S
C857 C856 1.367 . S
C857 C859 1.433 . S
C858 C854 1.350 . S
C858 C855 1.463 . S
C858 N862 1.427 . S
C859 H849 0.929 . S
C859 C857 1.433 . S
C859 N862 1.384 . S
C860 H851 0.929 . S
C860 C852 1.378 . S
C860 C855 1.350 . S
C861 H848 0.929 . S
C861 C853 1.433 . S
C861 N863 1.384 . S
N862 C858 1.427 . S
N862 C859 1.384 . S
N863 C855 1.427 . S
N863 C861 1.384 . S
H864 C870 0.930 . S
H865 C874 0.930 . S
H866 C879 0.929 . S
H867 C877 0.929 . S
H868 C872 0.929 . S
H869 C878 0.929 . S
C870 H864 0.930 . S
C870 C871 1.367 . S
C870 C878 1.378 . S
C871 C870 1.367 . S
C871 C879 1.433 . S
C872 H868 0.929 . S
C872 C874 1.378 . S
C872 C876 1.350 . S
C873 C876 1.463 . S
C873 C878 1.350 . S
C873 N881 1.427 . S
C874 H865 0.930 . S
C874 C872 1.378 . S
C874 C875 1.367 . S
C875 C874 1.367 . S
C875 C877 1.433 . S
C876 C872 1.350 . S
C876 C873 1.463 . S
C876 N880 1.427 . S
C877 H867 0.929 . S
C877 C875 1.433 . S
C877 N880 1.384 . S
C878 H869 0.929 . S
C878 C870 1.378 . S
C878 C873 1.350 . S
C879 H866 0.929 . S
C879 C871 1.433 . S
C879 N881 1.384 . S
N880 C876 1.427 . S
N880 C877 1.384 . S
N881 C873 1.427 . S
N881 C879 1.384 . S
H882 C888 0.930 . S
H883 C892 0.930 . S
H884 C897 0.929 . S
H885 C895 0.929 . S
H886 C890 0.929 . S
H887 C896 0.929 . S
C888 H882 0.930 . S
C888 C889 1.367 . S
C888 C896 1.378 . S
C889 C888 1.367 . S
C889 C897 1.433 . S
C890 H886 0.929 . S
C890 C892 1.378 . S
C890 C894 1.350 . S
C891 C894 1.463 . S
C891 C896 1.350 . S
C891 N899 1.427 . S
C892 H883 0.930 . S
C892 C890 1.378 . S
C892 C893 1.367 . S
C893 C892 1.367 . S
C893 C895 1.433 . S
C894 C890 1.350 . S
C894 C891 1.463 . S
C894 N898 1.427 . S
C895 H885 0.929 . S
C895 C893 1.433 . S
C895 N898 1.384 . S
C896 H887 0.929 . S
C896 C888 1.378 . S
C896 C891 1.350 . S
C897 H884 0.929 . S
C897 C889 1.433 . S
C897 N899 1.384 . S
N898 C894 1.427 . S
N898 C895 1.384 . S
N899 C891 1.427 . S
N899 C897 1.384 . S
H900 C906 0.930 . S
H901 C910 0.930 . S
H902 C915 0.929 . S
H903 C913 0.929 . S
H904 C908 0.929 . S
H905 C914 0.929 . S
C906 H900 0.930 . S
C906 C907 1.367 . S
C906 C914 1.378 . S
C907 C906 1.367 . S
C907 C915 1.433 . S
C908 H904 0.929 . S
C908 C910 1.378 . S
C908 C912 1.350 . S
C909 C912 1.463 . S
C909 C914 1.350 . S
C909 N917 1.427 . S
C910 H901 0.930 . S
C910 C908 1.378 . S
C910 C911 1.367 . S
C911 C910 1.367 . S
C911 C913 1.433 . S
C912 C908 1.350 . S
C912 C909 1.463 . S
C912 N916 1.427 . S
C913 H903 0.929 . S
C913 C911 1.433 . S
C913 N916 1.384 . S
C914 H905 0.929 . S
C914 C906 1.378 . S
C914 C909 1.350 . S
C915 H902 0.929 . S
C915 C907 1.433 . S
C915 N917 1.384 . S
N916 C912 1.427 . S
N916 C913 1.384 . S
N917 C909 1.427 . S
N917 C915 1.384 . S
H918 C924 0.930 . S
H919 C928 0.930 . S
H920 C933 0.929 . S
H921 C931 0.929 . S
H922 C926 0.929 . S
H923 C932 0.929 . S
C924 H918 0.930 . S
C924 C925 1.367 . S
C924 C932 1.378 . S
C925 C924 1.367 . S
C925 C933 1.433 . S
C926 H922 0.929 . S
C926 C928 1.378 . S
C926 C930 1.350 . S
C927 C930 1.463 . S
C927 C932 1.350 . S
C927 N935 1.427 . S
C928 H919 0.930 . S
C928 C926 1.378 . S
C928 C929 1.367 . S
C929 C928 1.367 . S
C929 C931 1.433 . S
C930 C926 1.350 . S
C930 C927 1.463 . S
C930 N934 1.427 . S
C931 H921 0.929 . S
C931 C929 1.433 . S
C931 N934 1.384 . S
C932 H923 0.929 . S
C932 C924 1.378 . S
C932 C927 1.350 . S
C933 H920 0.929 . S
C933 C925 1.433 . S
C933 N935 1.384 . S
N934 C930 1.427 . S
N934 C931 1.384 . S
N935 C927 1.427 . S
N935 C933 1.384 . S
C403 N344 1.071 . S
C407 N14 1.070 . S
C421 N47 1.142 . S
C425 N377 1.138 . S
C439 N80 1.115 . S
C443 N212 1.115 . S
C457 N113 1.073 . S
C461 N245 1.078 . S
C475 N146 1.113 . S
C479 N278 1.115 . S
C493 N179 1.141 . S
C497 N311 1.141 . S
C511 N5 1.697 . S
C515 C173 1.704 . S
C529 C8 1.711 . S
C533 N38 1.691 . S
C547 C41 1.727 . S
C551 N71 1.704 . S
C565 N104 1.706 . S
C569 C74 1.720 . S
C583 N137 1.724 . S
C587 C107 1.750 . S
C601 N170 1.700 . S
C605 C140 1.726 . S
C619 C239 1.711 . S
C623 N203 1.693 . S
C637 N236 1.689 . S
C641 C272 1.712 . S
C655 N269 1.707 . S
C659 C305 1.726 . S
C673 N302 1.725 . S
C677 C338 1.741 . S
C691 N335 1.694 . S
C695 C371 1.725 . S
C709 N368 1.697 . S
C713 C206 1.727 . S
C727 C28 0.725 . S
C731 C325 0.723 . S
C745 C61 0.806 . S
C749 C358 0.806 . S
C763 C94 0.770 . S
C767 C391 0.770 . S
C781 C127 0.794 . S
C785 C226 0.795 . S
C799 C160 0.746 . S
C803 C259 0.743 . S
C817 C292 0.762 . S
C821 C193 0.763 . S
C835 C215 1.383 . S
C839 C17 1.390 . S
C853 C50 1.397 . S
C857 C248 1.392 . S
C871 C83 1.400 . S
C875 C281 1.393 . S
C889 C314 1.420 . S
C893 C116 1.419 . S
C907 C149 1.407 . S
C911 C347 1.410 . S
C925 C380 1.403 . S
C929 C182 1.408 . S
