# Generated by pormake.
# Topology ato, (4)-cn, num edge types: 1
# Building blocks:
#     Node 0, Type 0, BuildingBlock: NAHDIM_clean_sbu_0, # of connection points: 4
#     Node 1, Type 0, BuildingBlock: NAHDIM_clean_sbu_0, # of connection points: 4
#     Node 2, Type 0, BuildingBlock: NAHDIM_clean_sbu_0, # of connection points: 4
#     Node 3, Type 0, BuildingBlock: NAHDIM_clean_sbu_0, # of connection points: 4
#     Node 4, Type 0, BuildingBlock: NAHDIM_clean_sbu_0, # of connection points: 4
#     Node 5, Type 0, BuildingBlock: NAHDIM_clean_sbu_0, # of connection points: 4
#     Node 6, Type 0, BuildingBlock: NAHDIM_clean_sbu_0, # of connection points: 4
#     Node 7, Type 0, BuildingBlock: NAHDIM_clean_sbu_0, # of connection points: 4
#     Node 8, Type 0, BuildingBlock: NAHDIM_clean_sbu_0, # of connection points: 4
#     Node 9, Type 0, BuildingBlock: NAHDIM_clean_sbu_0, # of connection points: 4
#     Node 10, Type 0, BuildingBlock: NAHDIM_clean_sbu_0, # of connection points: 4
#     Node 11, Type 0, BuildingBlock: NAHDIM_clean_sbu_0, # of connection points: 4
#     Node 12, Type 0, BuildingBlock: NAHDIM_clean_sbu_0, # of connection points: 4
#     Node 13, Type 0, BuildingBlock: NAHDIM_clean_sbu_0, # of connection points: 4
#     Node 14, Type 0, BuildingBlock: NAHDIM_clean_sbu_0, # of connection points: 4
#     Node 15, Type 0, BuildingBlock: NAHDIM_clean_sbu_0, # of connection points: 4
#     Node 16, Type 0, BuildingBlock: NAHDIM_clean_sbu_0, # of connection points: 4
#     Node 17, Type 0, BuildingBlock: NAHDIM_clean_sbu_0, # of connection points: 4
#     Node 18, Type 0, BuildingBlock: NAHDIM_clean_sbu_0, # of connection points: 4
#     Node 19, Type 0, BuildingBlock: NAHDIM_clean_sbu_0, # of connection points: 4
#     Node 20, Type 0, BuildingBlock: NAHDIM_clean_sbu_0, # of connection points: 4
#     Node 21, Type 0, BuildingBlock: NAHDIM_clean_sbu_0, # of connection points: 4
#     Node 22, Type 0, BuildingBlock: NAHDIM_clean_sbu_0, # of connection points: 4
#     Node 23, Type 0, BuildingBlock: NAHDIM_clean_sbu_0, # of connection points: 4
#     Node 24, Type 0, BuildingBlock: NAHDIM_clean_sbu_0, # of connection points: 4
#     Node 25, Type 0, BuildingBlock: NAHDIM_clean_sbu_0, # of connection points: 4
#     Node 26, Type 0, BuildingBlock: NAHDIM_clean_sbu_0, # of connection points: 4
#     Node 27, Type 0, BuildingBlock: NAHDIM_clean_sbu_0, # of connection points: 4
#     Node 28, Type 0, BuildingBlock: NAHDIM_clean_sbu_0, # of connection points: 4
#     Node 29, Type 0, BuildingBlock: NAHDIM_clean_sbu_0, # of connection points: 4
#     Node 30, Type 0, BuildingBlock: NAHDIM_clean_sbu_0, # of connection points: 4
#     Node 31, Type 0, BuildingBlock: NAHDIM_clean_sbu_0, # of connection points: 4
#     Node 32, Type 0, BuildingBlock: NAHDIM_clean_sbu_0, # of connection points: 4
#     Node 33, Type 0, BuildingBlock: NAHDIM_clean_sbu_0, # of connection points: 4
#     Node 34, Type 0, BuildingBlock: NAHDIM_clean_sbu_0, # of connection points: 4
#     Node 35, Type 0, BuildingBlock: NAHDIM_clean_sbu_0, # of connection points: 4
#     Edge 36, Type (0, 0), BuildingBlock: MIFKUJ_clean_linker_0, # of connection points: 2
#     Edge 37, Type (0, 0), BuildingBlock: MIFKUJ_clean_linker_0, # of connection points: 2
#     Edge 38, Type (0, 0), BuildingBlock: MIFKUJ_clean_linker_0, # of connection points: 2
#     Edge 39, Type (0, 0), BuildingBlock: MIFKUJ_clean_linker_0, # of connection points: 2
#     Edge 40, Type (0, 0), BuildingBlock: MIFKUJ_clean_linker_0, # of connection points: 2
#     Edge 41, Type (0, 0), BuildingBlock: MIFKUJ_clean_linker_0, # of connection points: 2
#     Edge 42, Type (0, 0), BuildingBlock: MIFKUJ_clean_linker_0, # of connection points: 2
#     Edge 43, Type (0, 0), BuildingBlock: MIFKUJ_clean_linker_0, # of connection points: 2
#     Edge 44, Type (0, 0), BuildingBlock: MIFKUJ_clean_linker_0, # of connection points: 2
#     Edge 45, Type (0, 0), BuildingBlock: MIFKUJ_clean_linker_0, # of connection points: 2
#     Edge 46, Type (0, 0), BuildingBlock: MIFKUJ_clean_linker_0, # of connection points: 2
#     Edge 47, Type (0, 0), BuildingBlock: MIFKUJ_clean_linker_0, # of connection points: 2
#     Edge 48, Type (0, 0), BuildingBlock: MIFKUJ_clean_linker_0, # of connection points: 2
#     Edge 49, Type (0, 0), BuildingBlock: MIFKUJ_clean_linker_0, # of connection points: 2
#     Edge 50, Type (0, 0), BuildingBlock: MIFKUJ_clean_linker_0, # of connection points: 2
#     Edge 51, Type (0, 0), BuildingBlock: MIFKUJ_clean_linker_0, # of connection points: 2
#     Edge 52, Type (0, 0), BuildingBlock: MIFKUJ_clean_linker_0, # of connection points: 2
#     Edge 53, Type (0, 0), BuildingBlock: MIFKUJ_clean_linker_0, # of connection points: 2
#     Edge 54, Type (0, 0), BuildingBlock: MIFKUJ_clean_linker_0, # of connection points: 2
#     Edge 55, Type (0, 0), BuildingBlock: MIFKUJ_clean_linker_0, # of connection points: 2
#     Edge 56, Type (0, 0), BuildingBlock: MIFKUJ_clean_linker_0, # of connection points: 2
#     Edge 57, Type (0, 0), BuildingBlock: MIFKUJ_clean_linker_0, # of connection points: 2
#     Edge 58, Type (0, 0), BuildingBlock: MIFKUJ_clean_linker_0, # of connection points: 2
#     Edge 59, Type (0, 0), BuildingBlock: MIFKUJ_clean_linker_0, # of connection points: 2
#     Edge 60, Type (0, 0), BuildingBlock: MIFKUJ_clean_linker_0, # of connection points: 2
#     Edge 61, Type (0, 0), BuildingBlock: MIFKUJ_clean_linker_0, # of connection points: 2
#     Edge 62, Type (0, 0), BuildingBlock: MIFKUJ_clean_linker_0, # of connection points: 2
#     Edge 63, Type (0, 0), BuildingBlock: MIFKUJ_clean_linker_0, # of connection points: 2
#     Edge 64, Type (0, 0), BuildingBlock: MIFKUJ_clean_linker_0, # of connection points: 2
#     Edge 65, Type (0, 0), BuildingBlock: MIFKUJ_clean_linker_0, # of connection points: 2
#     Edge 66, Type (0, 0), BuildingBlock: MIFKUJ_clean_linker_0, # of connection points: 2
#     Edge 67, Type (0, 0), BuildingBlock: MIFKUJ_clean_linker_0, # of connection points: 2
#     Edge 68, Type (0, 0), BuildingBlock: MIFKUJ_clean_linker_0, # of connection points: 2
#     Edge 69, Type (0, 0), BuildingBlock: MIFKUJ_clean_linker_0, # of connection points: 2
#     Edge 70, Type (0, 0), BuildingBlock: MIFKUJ_clean_linker_0, # of connection points: 2
#     Edge 71, Type (0, 0), BuildingBlock: MIFKUJ_clean_linker_0, # of connection points: 2
#     Edge 72, Type (0, 0), BuildingBlock: MIFKUJ_clean_linker_0, # of connection points: 2
#     Edge 73, Type (0, 0), BuildingBlock: MIFKUJ_clean_linker_0, # of connection points: 2
#     Edge 74, Type (0, 0), BuildingBlock: MIFKUJ_clean_linker_0, # of connection points: 2
#     Edge 75, Type (0, 0), BuildingBlock: MIFKUJ_clean_linker_0, # of connection points: 2
#     Edge 76, Type (0, 0), BuildingBlock: MIFKUJ_clean_linker_0, # of connection points: 2
#     Edge 77, Type (0, 0), BuildingBlock: MIFKUJ_clean_linker_0, # of connection points: 2
#     Edge 78, Type (0, 0), BuildingBlock: MIFKUJ_clean_linker_0, # of connection points: 2
#     Edge 79, Type (0, 0), BuildingBlock: MIFKUJ_clean_linker_0, # of connection points: 2
#     Edge 80, Type (0, 0), BuildingBlock: MIFKUJ_clean_linker_0, # of connection points: 2
#     Edge 81, Type (0, 0), BuildingBlock: MIFKUJ_clean_linker_0, # of connection points: 2
#     Edge 82, Type (0, 0), BuildingBlock: MIFKUJ_clean_linker_0, # of connection points: 2
#     Edge 83, Type (0, 0), BuildingBlock: MIFKUJ_clean_linker_0, # of connection points: 2
#     Edge 84, Type (0, 0), BuildingBlock: MIFKUJ_clean_linker_0, # of connection points: 2
#     Edge 85, Type (0, 0), BuildingBlock: MIFKUJ_clean_linker_0, # of connection points: 2
#     Edge 86, Type (0, 0), BuildingBlock: MIFKUJ_clean_linker_0, # of connection points: 2
#     Edge 87, Type (0, 0), BuildingBlock: MIFKUJ_clean_linker_0, # of connection points: 2
#     Edge 88, Type (0, 0), BuildingBlock: MIFKUJ_clean_linker_0, # of connection points: 2
#     Edge 89, Type (0, 0), BuildingBlock: MIFKUJ_clean_linker_0, # of connection points: 2
#     Edge 90, Type (0, 0), BuildingBlock: MIFKUJ_clean_linker_0, # of connection points: 2
#     Edge 91, Type (0, 0), BuildingBlock: MIFKUJ_clean_linker_0, # of connection points: 2
#     Edge 92, Type (0, 0), BuildingBlock: MIFKUJ_clean_linker_0, # of connection points: 2
#     Edge 93, Type (0, 0), BuildingBlock: MIFKUJ_clean_linker_0, # of connection points: 2
#     Edge 94, Type (0, 0), BuildingBlock: MIFKUJ_clean_linker_0, # of connection points: 2
#     Edge 95, Type (0, 0), BuildingBlock: MIFKUJ_clean_linker_0, # of connection points: 2
#     Edge 96, Type (0, 0), BuildingBlock: MIFKUJ_clean_linker_0, # of connection points: 2
#     Edge 97, Type (0, 0), BuildingBlock: MIFKUJ_clean_linker_0, # of connection points: 2
#     Edge 98, Type (0, 0), BuildingBlock: MIFKUJ_clean_linker_0, # of connection points: 2
#     Edge 99, Type (0, 0), BuildingBlock: MIFKUJ_clean_linker_0, # of connection points: 2
#     Edge 100, Type (0, 0), BuildingBlock: MIFKUJ_clean_linker_0, # of connection points: 2
#     Edge 101, Type (0, 0), BuildingBlock: MIFKUJ_clean_linker_0, # of connection points: 2
#     Edge 102, Type (0, 0), BuildingBlock: MIFKUJ_clean_linker_0, # of connection points: 2
#     Edge 103, Type (0, 0), BuildingBlock: MIFKUJ_clean_linker_0, # of connection points: 2
#     Edge 104, Type (0, 0), BuildingBlock: MIFKUJ_clean_linker_0, # of connection points: 2
#     Edge 105, Type (0, 0), BuildingBlock: MIFKUJ_clean_linker_0, # of connection points: 2
#     Edge 106, Type (0, 0), BuildingBlock: MIFKUJ_clean_linker_0, # of connection points: 2
#     Edge 107, Type (0, 0), BuildingBlock: MIFKUJ_clean_linker_0, # of connection points: 2
# Relax obj value: 0.060
# Max RMSD: 0.066
# Mean RMSD: 0.066
data_MOF--net-ato--node1-NAHDIM_clean_sbu_0--edge1-MIFKUJ_clean_linker_0
_symmetry_space_group_name_H-M    P1
_symmetry_Int_Tables_number       1
_symmetry_cell_setting            triclinic
loop_
_symmetry_equiv_pos_as_xyz
'x, y, z'
_cell_length_a     130.78428
_cell_length_b     130.79198
_cell_length_c     31.449582
_cell_angle_alpha  90.00068
_cell_angle_beta   90.002384
_cell_angle_gamma 119.99612
loop_
_atom_site_label
_atom_site_type_symbol
_atom_site_fract_x
_atom_site_fract_y
_atom_site_fract_z
_atom_type_partial_charge
C0 C 0.24245 0.04436 0.32483 0.0
O1 O 0.24379 0.055 0.32597 0.0
O2 O 0.24301 0.06188 0.23867 0.0
Zn3 Zn 0.24778 0.04948 0.2353 0.0
O4 O 0.23905 0.03803 0.18818 0.0
C5 C 0.2724 0.06685 0.24353 0.0
O6 O 0.26831 0.07134 0.27168 0.0
O7 O 0.24387 0.04036 0.28988 0.0
C8 C 0.24364 0.03909 0.15169 0.0
O9 O 0.25427 0.048 0.14432 0.0
C10 C 0.23438 0.06142 0.21848 0.0
O11 O 0.22796 0.05237 0.19361 0.0
O12 O 0.26523 0.05738 0.22445 0.0
C13 C 0.96318 0.20001 0.30516 0.0
O14 O 0.96427 0.19352 0.2756 0.0
O15 O 0.93293 0.17987 0.25583 0.0
Zn16 Zn 0.94502 0.19704 0.24892 0.0
O17 O 0.95563 0.19997 0.19867 0.0
C18 C 0.92727 0.20149 0.21695 0.0
O19 O 0.92343 0.19085 0.20152 0.0
O20 O 0.95518 0.20276 0.3012 0.0
C21 C 0.95236 0.1952 0.16229 0.0
O22 O 0.9412 0.18738 0.15573 0.0
C23 C 0.93404 0.17116 0.24431 0.0
O24 O 0.94392 0.17305 0.22657 0.0
O25 O 0.93656 0.20617 0.23968 0.0
C26 C 0.80041 0.76907 0.31837 0.0
O27 O 0.80613 0.7765 0.28739 0.0
O28 O 0.81974 0.75716 0.26611 0.0
Zn29 Zn 0.80285 0.75327 0.26234 0.0
O30 O 0.80055 0.76118 0.21168 0.0
C31 C 0.79563 0.72847 0.26643 0.0
O32 O 0.80563 0.73241 0.28715 0.0
O33 O 0.79807 0.75843 0.31514 0.0
C34 C 0.80238 0.7586 0.1746 0.0
O35 O 0.80616 0.75105 0.1703 0.0
C36 C 0.82853 0.76685 0.25411 0.0
O37 O 0.82678 0.77521 0.23893 0.0
O38 O 0.79252 0.73575 0.2539 0.0
C39 C 0.04195 0.23711 0.66309 0.0
O40 O 0.04955 0.23338 0.66676 0.0
O41 O 0.06133 0.24025 0.74584 0.0
Zn42 Zn 0.04974 0.24614 0.74851 0.0
O43 O 0.03788 0.23804 0.79539 0.0
C44 C 0.06852 0.26853 0.7785 0.0
O45 O 0.0731 0.262 0.78979 0.0
O46 O 0.04077 0.24283 0.69351 0.0
C47 C 0.03998 0.24184 0.8334 0.0
O48 O 0.05023 0.2511 0.84257 0.0
C49 C 0.06133 0.23271 0.77136 0.0
O50 O 0.0532 0.2281 0.80105 0.0
O51 O 0.05859 0.2637 0.75964 0.0
C52 C 0.75742 0.80518 0.67526 0.0
O53 O 0.75776 0.81539 0.67566 0.0
O54 O 0.75457 0.82088 0.76092 0.0
Zn55 Zn 0.74988 0.80376 0.763 0.0
O56 O 0.75815 0.8008 0.81099 0.0
C57 C 0.72538 0.7973 0.7573 0.0
O58 O 0.72969 0.80677 0.73324 0.0
O59 O 0.75416 0.79879 0.70846 0.0
C60 C 0.75455 0.79013 0.821 0.0
O61 O 0.7457 0.78168 0.79979 0.0
C62 C 0.76506 0.8294 0.76535 0.0
O63 O 0.77365 0.82716 0.77243 0.0
O64 O 0.73236 0.79417 0.77293 0.0
C65 C 0.19814 0.96567 0.68243 0.0
O66 O 0.19391 0.96833 0.71586 0.0
O67 O 0.17589 0.93352 0.72871 0.0
Zn68 Zn 0.19299 0.9458 0.73442 0.0
O69 O 0.19611 0.95618 0.78552 0.0
C70 C 0.20203 0.93313 0.77842 0.0
O71 O 0.19547 0.93393 0.80839 0.0
O72 O 0.19851 0.95614 0.68244 0.0
C73 C 0.18945 0.95431 0.81744 0.0
O74 O 0.17907 0.94466 0.81911 0.0
C75 C 0.16738 0.9356 0.72804 0.0
O76 O 0.16956 0.94651 0.73168 0.0
O77 O 0.20238 0.93755 0.74208 0.0
C78 C 0.75372 0.95246 0.66502 0.0
O79 O 0.75434 0.94274 0.6649 0.0
O80 O 0.75455 0.93554 0.75043 0.0
Zn81 Zn 0.74938 0.94761 0.75536 0.0
O82 O 0.75881 0.95981 0.79956 0.0
C83 C 0.72902 0.93143 0.80208 0.0
O84 O 0.73676 0.92892 0.81829 0.0
O85 O 0.75146 0.95597 0.69957 0.0
C86 C 0.76292 0.95775 0.83302 0.0
O87 O 0.7613 0.94712 0.83951 0.0
C88 C 0.76518 0.93775 0.74968 0.0
O89 O 0.77383 0.94873 0.75227 0.0
O90 O 0.73233 0.9393 0.77336 0.0
C91 C 0.03076 0.79574 0.70198 0.0
O92 O 0.02866 0.80133 0.7324 0.0
O93 O 0.06227 0.81807 0.74615 0.0
Zn94 Zn 0.05019 0.80108 0.75626 0.0
O95 O 0.04006 0.79965 0.80618 0.0
C96 C 0.06864 0.79507 0.75451 0.0
O97 O 0.07379 0.80434 0.72948 0.0
O98 O 0.03979 0.79451 0.70476 0.0
C99 C 0.04419 0.80366 0.84281 0.0
O100 O 0.05566 0.8091 0.84889 0.0
C101 C 0.06035 0.82658 0.7521 0.0
O102 O 0.04994 0.82437 0.76564 0.0
O103 O 0.05841 0.79189 0.76904 0.0
C104 C 0.19647 0.23272 0.68829 0.0
O105 O 0.18875 0.22476 0.71443 0.0
O106 O 0.17799 0.24153 0.74858 0.0
Zn107 Zn 0.19547 0.24742 0.75169 0.0
O108 O 0.19919 0.2394 0.79888 0.0
C109 C 0.19936 0.2699 0.78126 0.0
O110 O 0.18829 0.26343 0.79314 0.0
O111 O 0.20075 0.24358 0.69709 0.0
C112 C 0.19956 0.24228 0.83767 0.0
O113 O 0.19727 0.25067 0.84782 0.0
C114 C 0.17038 0.23353 0.77264 0.0
O115 O 0.17382 0.22845 0.80075 0.0
O116 O 0.20434 0.265 0.76205 0.0
C117 C 0.95299 0.75471 0.34185 0.0
O118 O 0.94334 0.75545 0.34219 0.0
O119 O 0.9352 0.75411 0.25647 0.0
Zn120 Zn 0.94778 0.74961 0.25184 0.0
O121 O 0.95985 0.75954 0.20804 0.0
C122 C 0.93084 0.72794 0.21217 0.0
O123 O 0.92639 0.73454 0.20035 0.0
O124 O 0.95628 0.75215 0.30742 0.0
C125 C 0.9572 0.76043 0.16991 0.0
O126 O 0.94607 0.7548 0.1582 0.0
C127 C 0.93663 0.76427 0.24856 0.0
O128 O 0.94709 0.77285 0.23719 0.0
O129 O 0.94013 0.73247 0.23488 0.0
C130 C 0.23613 0.19337 0.33054 0.0
O131 O 0.23015 0.18214 0.3203 0.0
O132 O 0.24289 0.17764 0.25504 0.0
Zn133 Zn 0.24821 0.19499 0.2519 0.0
O134 O 0.2401 0.19838 0.20421 0.0
C135 C 0.27051 0.19933 0.21941 0.0
O136 O 0.26398 0.18835 0.20665 0.0
O137 O 0.24446 0.20052 0.30645 0.0
C138 C 0.24002 0.19503 0.16621 0.0
O139 O 0.24511 0.1888 0.15748 0.0
C140 C 0.23325 0.16945 0.23984 0.0
O141 O 0.22584 0.17211 0.22163 0.0
O142 O 0.26573 0.20412 0.24049 0.0
C143 C 0.79512 0.03158 0.30868 0.0
O144 O 0.80188 0.03044 0.2804 0.0
O145 O 0.81694 0.0621 0.2652 0.0
Zn146 Zn 0.79986 0.0505 0.25367 0.0
O147 O 0.79843 0.04038 0.20338 0.0
C148 C 0.79692 0.06998 0.22777 0.0
O149 O 0.80846 0.07519 0.22423 0.0
O150 O 0.79286 0.03992 0.30444 0.0
C151 C 0.7981 0.04336 0.16519 0.0
O152 O 0.79876 0.05355 0.15745 0.0
C153 C 0.82546 0.06139 0.24901 0.0
O154 O 0.82324 0.05239 0.22448 0.0
O155 O 0.79123 0.05934 0.24072 0.0
C156 C 0.90164 0.36858 0.64404 0.0
O157 O 0.89411 0.36815 0.61546 0.0
O158 O 0.91145 0.39922 0.60154 0.0
Zn159 Zn 0.91703 0.38765 0.59143 0.0
O160 O 0.90987 0.37839 0.53799 0.0
C161 C 0.93844 0.4048 0.555 0.0
O162 O 0.93089 0.40696 0.53505 0.0
O163 O 0.91246 0.37645 0.64069 0.0
C164 C 0.91523 0.37372 0.51997 0.0
O165 O 0.92496 0.37502 0.53718 0.0
C166 C 0.90158 0.39772 0.58874 0.0
O167 O 0.89433 0.38801 0.56816 0.0
O168 O 0.93461 0.39675 0.58314 0.0
C169 C 0.63566 0.53426 0.63609 0.0
O170 O 0.63778 0.52863 0.6059 0.0
O171 O 0.60401 0.51295 0.58745 0.0
Zn172 Zn 0.61678 0.52983 0.58 0.0
O173 O 0.6271 0.53141 0.53046 0.0
C174 C 0.59929 0.53703 0.58384 0.0
O175 O 0.59419 0.52809 0.61032 0.0
O176 O 0.62681 0.53575 0.63254 0.0
C177 C 0.62312 0.52928 0.49273 0.0
O178 O 0.61191 0.52572 0.48613 0.0
C179 C 0.60459 0.50409 0.57403 0.0
O180 O 0.61422 0.50574 0.55484 0.0
O181 O 0.6092 0.53962 0.56766 0.0
C182 C 0.46742 0.09855 0.64778 0.0
O183 O 0.47507 0.10656 0.62161 0.0
O184 O 0.4869 0.09062 0.59081 0.0
Zn185 Zn 0.46939 0.08409 0.58603 0.0
O186 O 0.46594 0.09203 0.53791 0.0
C187 C 0.46083 0.06235 0.53934 0.0
O188 O 0.46571 0.06969 0.5074 0.0
O189 O 0.46353 0.08771 0.63962 0.0
C190 C 0.45572 0.08724 0.52131 0.0
O191 O 0.44743 0.07695 0.53551 0.0
C192 C 0.49324 0.09269 0.55781 0.0
O193 O 0.48827 0.09071 0.52013 0.0
O194 O 0.46129 0.06647 0.57636 0.0
C195 C 0.71452 0.58198 0.99186 0.0
O196 O 0.72467 0.58219 0.99225 0.0
O197 O 0.73137 0.5818 0.07797 0.0
Zn198 Zn 0.71904 0.58664 0.08207 0.0
O199 O 0.7069 0.57684 0.12582 0.0
C200 C 0.73592 0.60805 0.12292 0.0
O201 O 0.74021 0.60129 0.13451 0.0
O202 O 0.71065 0.58397 0.02609 0.0
C203 C 0.70957 0.57491 0.16261 0.0
O204 O 0.72074 0.57935 0.17281 0.0
C205 C 0.72925 0.57125 0.08196 0.0
O206 O 0.71839 0.56275 0.08907 0.0
O207 O 0.72678 0.60375 0.09945 0.0
C208 C 0.42607 0.13736 0.00165 0.0
O209 O 0.42884 0.14848 0.00324 0.0
O210 O 0.4219 0.1536 0.08299 0.0
Zn211 Zn 0.4166 0.13628 0.0864 0.0
O212 O 0.42384 0.13257 0.13616 0.0
C213 C 0.39495 0.13098 0.1249 0.0
O214 O 0.40224 0.14047 0.14646 0.0
O215 O 0.4207 0.13061 0.03287 0.0
C216 C 0.42772 0.13874 0.16974 0.0
O217 O 0.42754 0.14866 0.17306 0.0
C218 C 0.43244 0.16207 0.08677 0.0
O219 O 0.44102 0.15979 0.09346 0.0
O220 O 0.39905 0.12735 0.09564 0.0
C221 C 0.861 0.29205 0.00784 0.0
O222 O 0.84971 0.28632 0.01735 0.0
O223 O 0.84583 0.27142 0.08863 0.0
Zn224 Zn 0.86311 0.28342 0.08979 0.0
O225 O 0.86662 0.29529 0.13594 0.0
C226 C 0.86879 0.26476 0.08842 0.0
O227 O 0.85944 0.2596 0.06378 0.0
O228 O 0.86836 0.2919 0.03386 0.0
C229 C 0.8774 0.30187 0.14588 0.0
O230 O 0.88547 0.30068 0.12521 0.0
C231 C 0.84043 0.26638 0.12265 0.0
O232 O 0.84621 0.26943 0.15887 0.0
O233 O 0.87211 0.27505 0.10256 0.0
C234 C 0.42339 0.28683 0.00381 0.0
O235 O 0.42415 0.27719 0.00347 0.0
O236 O 0.42149 0.26831 0.08847 0.0
Zn237 Zn 0.41677 0.28071 0.09231 0.0
O238 O 0.42575 0.29216 0.13879 0.0
C239 C 0.39227 0.26281 0.09058 0.0
O240 O 0.39627 0.25758 0.06542 0.0
O241 O 0.42024 0.28979 0.03768 0.0
C242 C 0.42545 0.28873 0.17676 0.0
O243 O 0.41927 0.2774 0.18548 0.0
C244 C 0.43184 0.27017 0.09602 0.0
O245 O 0.44014 0.28079 0.10726 0.0
O246 O 0.39945 0.27293 0.10558 0.0
C247 C 0.69808 0.13051 0.02207 0.0
O248 O 0.69611 0.13537 0.05531 0.0
O249 O 0.72841 0.15103 0.07537 0.0
Zn250 Zn 0.71695 0.13356 0.07507 0.0
O251 O 0.70617 0.1294 0.12563 0.0
C252 C 0.73691 0.12951 0.07471 0.0
O253 O 0.74297 0.14073 0.06424 0.0
O254 O 0.70693 0.12895 0.02238 0.0
C255 C 0.7073 0.12455 0.15892 0.0
O256 O 0.7159 0.12213 0.16119 0.0
C257 C 0.7328 0.1562 0.11044 0.0
O258 O 0.72952 0.15004 0.14581 0.0
O259 O 0.72578 0.12463 0.07923 0.0
C260 C 0.86037 0.5706 0.00883 0.0
O261 O 0.84895 0.5655 0.01556 0.0
O262 O 0.84505 0.57747 0.08642 0.0
Zn263 Zn 0.86186 0.5811 0.09129 0.0
O264 O 0.86329 0.57133 0.13741 0.0
C265 C 0.86999 0.60581 0.08798 0.0
O266 O 0.86135 0.60216 0.06024 0.0
O267 O 0.86746 0.57766 0.03652 0.0
C268 C 0.86321 0.57395 0.17623 0.0
O269 O 0.86204 0.58309 0.18588 0.0
C270 C 0.83617 0.56773 0.09753 0.0
O271 O 0.8378 0.55931 0.11288 0.0
O272 O 0.87207 0.59829 0.10555 0.0
C273 C 0.61729 0.08536 0.67054 0.0
O274 O 0.60602 0.082 0.67352 0.0
O275 O 0.60165 0.08758 0.57512 0.0
Zn276 Zn 0.61295 0.08142 0.57891 0.0
O277 O 0.62499 0.08827 0.53228 0.0
C278 C 0.59987 0.05969 0.53477 0.0
O279 O 0.60172 0.06707 0.50346 0.0
O280 O 0.62172 0.08563 0.63435 0.0
C281 C 0.62427 0.09394 0.50075 0.0
O282 O 0.61524 0.09569 0.49785 0.0
C283 C 0.60294 0.0968 0.59354 0.0
O284 O 0.61225 0.10308 0.61746 0.0
O285 O 0.60387 0.0638 0.57151 0.0
C286 C 0.90035 0.53406 0.64521 0.0
O287 O 0.89238 0.5274 0.61697 0.0
O288 O 0.90954 0.51325 0.59577 0.0
Zn289 Zn 0.91456 0.53035 0.58684 0.0
O290 O 0.90585 0.53251 0.53829 0.0
C291 C 0.93609 0.53464 0.54881 0.0
O292 O 0.92899 0.52398 0.53411 0.0
O293 O 0.91102 0.5367 0.63956 0.0
C294 C 0.90309 0.52677 0.50362 0.0
O295 O 0.90591 0.51854 0.49771 0.0
C296 C 0.89918 0.50464 0.58973 0.0
O297 O 0.89082 0.50668 0.57676 0.0
O298 O 0.93194 0.53939 0.5734 0.0
C299 C 0.46594 0.36674 0.64958 0.0
O300 O 0.4722 0.36532 0.61991 0.0
O301 O 0.48582 0.39653 0.59565 0.0
Zn302 Zn 0.46864 0.38428 0.59124 0.0
O303 O 0.46598 0.37308 0.54357 0.0
C304 C 0.46353 0.4033 0.58261 0.0
O305 O 0.47447 0.40971 0.59591 0.0
O306 O 0.4633 0.3748 0.6451 0.0
C307 C 0.46826 0.37623 0.50496 0.0
O308 O 0.47275 0.38743 0.49507 0.0
C309 C 0.49433 0.3955 0.58115 0.0
O310 O 0.49213 0.38565 0.56225 0.0
O311 O 0.45906 0.39218 0.57926 0.0
C312 C 0.57659 0.71128 0.00326 0.0
O313 O 0.57654 0.72129 0.00464 0.0
O314 O 0.57466 0.72764 0.91746 0.0
Zn315 Zn 0.58145 0.71681 0.91364 0.0
O316 O 0.5736 0.70488 0.86683 0.0
C317 C 0.60334 0.73643 0.88337 0.0
O318 O 0.59636 0.74051 0.87231 0.0
O319 O 0.57866 0.70784 0.9682 0.0
C320 C 0.57755 0.70683 0.82901 0.0
O321 O 0.5869 0.71701 0.81979 0.0
C322 C 0.56852 0.72857 0.88801 0.0
O323 O 0.56597 0.72187 0.8541 0.0
O324 O 0.59896 0.72649 0.90203 0.0
C325 C 0.29681 0.86682 0.97821 0.0
O326 O 0.2967 0.85911 0.95116 0.0
O327 O 0.2682 0.84863 0.9228 0.0
Zn328 Zn 0.28025 0.86585 0.91856 0.0
O329 O 0.29094 0.86907 0.86837 0.0
C330 C 0.26737 0.87439 0.87337 0.0
O331 O 0.26888 0.86826 0.84344 0.0
O332 O 0.29015 0.87113 0.97136 0.0
C333 C 0.29707 0.8797 0.85598 0.0
O334 O 0.29636 0.88802 0.87689 0.0
C335 C 0.26842 0.84054 0.90108 0.0
O336 O 0.27716 0.84331 0.87444 0.0
O337 O 0.27152 0.87476 0.91026 0.0
C338 C 0.13184 0.42964 0.9673 0.0
O339 O 0.13734 0.43712 0.93624 0.0
O340 O 0.15094 0.41849 0.9077 0.0
Zn341 Zn 0.1339 0.41437 0.90834 0.0
O342 O 0.13088 0.42285 0.86141 0.0
C343 C 0.1267 0.38974 0.91323 0.0
O344 O 0.13623 0.39382 0.93691 0.0
O345 O 0.1295 0.419 0.96337 0.0
C346 C 0.13529 0.42431 0.82445 0.0
O347 O 0.14228 0.42008 0.81557 0.0
C348 C 0.15899 0.42598 0.93186 0.0
O349 O 0.15642 0.43186 0.95964 0.0
O350 O 0.12375 0.39692 0.89824 0.0
C351 C 0.37466 0.90323 0.33894 0.0
O352 O 0.37968 0.89711 0.35034 0.0
O353 O 0.39612 0.90939 0.41802 0.0
Zn354 Zn 0.3848 0.91557 0.41755 0.0
O355 O 0.37316 0.90845 0.46536 0.0
C356 C 0.39834 0.93718 0.46244 0.0
O357 O 0.39655 0.92971 0.49337 0.0
O358 O 0.37583 0.91165 0.36245 0.0
C359 C 0.36728 0.91331 0.47666 0.0
O360 O 0.36877 0.9227 0.45606 0.0
C361 C 0.39735 0.90423 0.45023 0.0
O362 O 0.39089 0.90266 0.48423 0.0
O363 O 0.39411 0.93318 0.42582 0.0
C364 C 0.09436 0.46917 0.33003 0.0
O365 O 0.09989 0.48048 0.33923 0.0
O366 O 0.08707 0.48414 0.40815 0.0
Zn367 Zn 0.08293 0.46715 0.41057 0.0
O368 O 0.09199 0.46482 0.45712 0.0
C369 C 0.0584 0.4601 0.40756 0.0
O370 O 0.06235 0.46894 0.38059 0.0
O371 O 0.08658 0.46189 0.35549 0.0
C372 C 0.09041 0.4667 0.49552 0.0
O373 O 0.08292 0.47035 0.50403 0.0
C374 C 0.09659 0.49274 0.42233 0.0
O375 O 0.10468 0.49077 0.43872 0.0
O376 O 0.06563 0.4574 0.42391 0.0
C377 C 0.53656 0.63193 0.3596 0.0
O378 O 0.53147 0.63404 0.39173 0.0
O379 O 0.51452 0.60057 0.4053 0.0
Zn380 Zn 0.53173 0.61245 0.41252 0.0
O381 O 0.53457 0.62287 0.46319 0.0
C382 C 0.53626 0.59505 0.44695 0.0
O383 O 0.52588 0.5917 0.46398 0.0
O384 O 0.53769 0.62283 0.36066 0.0
C385 C 0.52905 0.61985 0.49832 0.0
O386 O 0.52041 0.60895 0.5036 0.0
C387 C 0.50612 0.60265 0.41102 0.0
O388 O 0.5085 0.61329 0.42238 0.0
O389 O 0.54073 0.60388 0.42199 0.0
C390 C 0.09654 0.62613 0.34883 0.0
O391 O 0.10358 0.6229 0.36658 0.0
O392 O 0.08608 0.60087 0.41817 0.0
Zn393 Zn 0.08196 0.61374 0.42022 0.0
O394 O 0.08998 0.62464 0.4693 0.0
C395 C 0.05728 0.59618 0.41321 0.0
O396 O 0.06137 0.5909 0.38873 0.0
O397 O 0.08663 0.62308 0.366 0.0
C398 C 0.08611 0.63147 0.47966 0.0
O399 O 0.07747 0.63119 0.45745 0.0
C400 C 0.09507 0.60136 0.43565 0.0
O401 O 0.10261 0.61097 0.45607 0.0
O402 O 0.06445 0.60616 0.42928 0.0
C403 C 0.37806 0.46942 0.32657 0.0
O404 O 0.38711 0.48022 0.32576 0.0
O405 O 0.39872 0.48641 0.40432 0.0
Zn406 Zn 0.38626 0.4694 0.41225 0.0
O407 O 0.37577 0.46814 0.461 0.0
C408 C 0.4046 0.4648 0.43931 0.0
O409 O 0.4103 0.4763 0.44464 0.0
O410 O 0.37616 0.46316 0.35971 0.0
C411 C 0.37856 0.46758 0.49927 0.0
O412 O 0.38857 0.4679 0.50727 0.0
C413 C 0.39714 0.49503 0.41258 0.0
O414 O 0.38681 0.49295 0.42656 0.0
O415 O 0.39408 0.45975 0.42522 0.0
C416 C 0.52545 0.90209 0.32898 0.0
O417 O 0.51417 0.89796 0.33624 0.0
O418 O 0.51102 0.90726 0.41379 0.0
Zn419 Zn 0.5284 0.9129 0.41205 0.0
O420 O 0.53286 0.90557 0.45921 0.0
C421 C 0.53817 0.93455 0.4577 0.0
O422 O 0.53339 0.92713 0.48949 0.0
O423 O 0.53298 0.90872 0.35646 0.0
C424 C 0.54364 0.90855 0.46376 0.0
O425 O 0.55145 0.91608 0.43679 0.0
C426 C 0.50466 0.90218 0.44612 0.0
O427 O 0.50948 0.9003 0.47965 0.0
O428 O 0.53721 0.93051 0.42026 0.0
C429 C 0.3001 0.43054 0.96677 0.0
O430 O 0.3028 0.43808 0.93534 0.0
O431 O 0.26986 0.42016 0.90655 0.0
Zn432 Zn 0.28258 0.41579 0.907 0.0
O433 O 0.29417 0.42406 0.85979 0.0
C434 C 0.26464 0.3914 0.91225 0.0
O435 O 0.25952 0.3958 0.93608 0.0
O436 O 0.29139 0.42014 0.96255 0.0
C437 C 0.29282 0.43005 0.83081 0.0
O438 O 0.28324 0.43092 0.83051 0.0
C439 C 0.26947 0.4279 0.92988 0.0
O440 O 0.27807 0.43399 0.95687 0.0
O441 O 0.27483 0.3983 0.89703 0.0
C442 C 0.566 0.86454 0.96891 0.0
O443 O 0.55885 0.85799 0.93842 0.0
O444 O 0.57769 0.84642 0.91501 0.0
Zn445 Zn 0.58294 0.86376 0.91408 0.0
O446 O 0.57664 0.86775 0.86197 0.0
C447 C 0.60738 0.87 0.92974 0.0
O448 O 0.6027 0.86011 0.95155 0.0
O449 O 0.57695 0.86804 0.96583 0.0
C450 C 0.58321 0.87238 0.82968 0.0
O451 O 0.5941 0.87436 0.83037 0.0
C452 C 0.57479 0.84032 0.88109 0.0
O453 O 0.57506 0.8454 0.84476 0.0
O454 O 0.60066 0.87324 0.91263 0.0
C455 C 0.13485 0.70293 0.98505 0.0
O456 O 0.14389 0.70432 0.96232 0.0
O457 O 0.15267 0.73017 0.92802 0.0
Zn458 Zn 0.13535 0.71861 0.92213 0.0
O459 O 0.13211 0.70822 0.87096 0.0
C460 C 0.13134 0.73625 0.88716 0.0
O461 O 0.14114 0.73865 0.8674 0.0
O462 O 0.12952 0.7084 0.97413 0.0
C463 C 0.12196 0.70377 0.85395 0.0
O464 O 0.11409 0.70603 0.87059 0.0
C465 C 0.16069 0.73004 0.90559 0.0
O466 O 0.15778 0.72165 0.87728 0.0
O467 O 0.12698 0.72787 0.91404 0.0
H468 H 0.20613 0.96234 0.60613 0.0
H469 H 0.21412 0.97619 0.54669 0.0
H470 H 0.2089 0.00151 0.61727 0.0
H471 H 0.20065 0.98763 0.6764 0.0
H472 H 0.20197 0.00042 0.5377 0.0
H473 H 0.23644 0.00447 0.60678 0.0
H474 H 0.24933 0.99765 0.63762 0.0
H475 H 0.25155 0.98382 0.5163 0.0
H476 H 0.23854 0.99042 0.48485 0.0
H477 H 0.23693 0.04936 0.40317 0.0
H478 H 0.22996 0.03644 0.46549 0.0
H479 H 0.2326 0.00947 0.39562 0.0
H480 H 0.23966 0.02233 0.33337 0.0
H481 H 0.24123 0.01197 0.47623 0.0
H482 H 0.20622 0.00765 0.40819 0.0
H483 H 0.19352 0.01479 0.37798 0.0
H484 H 0.19264 0.02962 0.49882 0.0
H485 H 0.20548 0.0227 0.52961 0.0
C486 C 0.20667 0.97085 0.60898 0.0
C487 C 0.20279 0.9739 0.64603 0.0
C488 C 0.21129 0.97878 0.57507 0.0
C489 C 0.21226 0.98995 0.57781 0.0
C490 C 0.20825 0.99294 0.61452 0.0
C491 C 0.20356 0.985 0.64831 0.0
C492 C 0.21735 0.99848 0.54223 0.0
C493 C 0.21063 0.00308 0.52468 0.0
C494 C 0.22857 0.00179 0.52477 0.0
C495 C 0.23642 0.99784 0.54356 0.0
C496 C 0.2396 -0.00011 0.58675 0.0
C497 C 0.24694 0.99608 0.60433 0.0
C498 C 0.25123 0.99028 0.57896 0.0
C499 C 0.24821 0.9883 0.53592 0.0
C500 C 0.24086 0.99209 0.5182 0.0
C501 C 0.23609 0.04071 0.40113 0.0
C502 C 0.23878 0.03684 0.36325 0.0
C503 C 0.23207 0.03333 0.43671 0.0
C504 C 0.23064 0.02196 0.43495 0.0
C505 C 0.23362 0.01821 0.39758 0.0
C506 C 0.23762 0.02556 0.362 0.0
C507 C 0.22582 0.01386 0.47172 0.0
C508 C 0.23259 0.00934 0.48944 0.0
C509 C 0.21468 0.01067 0.48948 0.0
C510 C 0.20691 0.01477 0.47108 0.0
C511 C 0.20339 0.01251 0.42823 0.0
C512 C 0.19616 0.0165 0.41102 0.0
C513 C 0.1923 0.02268 0.43643 0.0
C514 C 0.19565 0.02485 0.47915 0.0
C515 C 0.2029 0.02089 0.49651 0.0
H516 H 0.1867 0.02576 0.42305 0.0
H517 H 0.25691 0.98733 0.59263 0.0
H518 H 0.02473 0.24264 0.6472 0.0
H519 H 0.01163 0.23697 0.58562 0.0
H520 H 0.02881 0.21918 0.53125 0.0
H521 H 0.04205 0.22492 0.59257 0.0
H522 H 0.02483 0.23199 0.47206 0.0
H523 H 0.00264 0.20351 0.58029 0.0
H524 H 0.99389 0.19687 0.65146 0.0
H525 H 0.97335 0.2139 0.63452 0.0
H526 H 0.98211 0.22079 0.56344 0.0
H527 H 0.98149 0.19616 0.32109 0.0
H528 H 0.99507 0.20323 0.38133 0.0
H529 H 0.97699 0.22048 0.43256 0.0
H530 H 0.96325 0.21333 0.3725 0.0
H531 H 0.98146 0.20849 0.49328 0.0
H532 H 0.00328 0.23648 0.38382 0.0
H533 H 0.01201 0.24297 0.31254 0.0
H534 H 0.03319 0.22671 0.33153 0.0
H535 H 0.02446 0.21998 0.40274 0.0
C536 C 0.02577 0.23757 0.62208 0.0
C537 C 0.03439 0.23417 0.62491 0.0
C538 C 0.01824 0.2343 0.58698 0.0
C539 C 0.01915 0.22753 0.55417 0.0
C540 C 0.02795 0.22439 0.55632 0.0
C541 C 0.03548 0.22764 0.59144 0.0
C542 C 0.01081 0.22356 0.51793 0.0
C543 C 0.01535 0.22673 0.47661 0.0
C544 C 0.99844 0.21693 0.52406 0.0
C545 C 0.99313 0.21277 0.56673 0.0
C546 C 0.99633 0.20592 0.59188 0.0
C547 C 0.99136 0.2021 0.63218 0.0
C548 C 0.9831 0.20499 0.64755 0.0
C549 C 0.97977 0.21168 0.6226 0.0
C550 C 0.98473 0.21554 0.58229 0.0
C551 C 0.98038 0.20145 0.34514 0.0
C552 C 0.97131 0.20421 0.34194 0.0
C553 C 0.98819 0.20553 0.37945 0.0
C554 C 0.98712 0.2125 0.41111 0.0
C555 C 0.97798 0.21514 0.40836 0.0
C556 C 0.97016 0.21107 0.37399 0.0
C557 C 0.99547 0.21689 0.44735 0.0
C558 C 0.99093 0.21378 0.4887 0.0
C559 C 0.00784 0.22356 0.44123 0.0
C560 C 0.01313 0.22763 0.39847 0.0
C561 C 0.00973 0.23421 0.37267 0.0
C562 C 0.01469 0.23794 0.3323 0.0
C563 C 0.02312 0.23523 0.31747 0.0
C564 C 0.02664 0.2288 0.34304 0.0
C565 C 0.0217 0.22503 0.38342 0.0
H566 H 0.02695 0.23813 0.28621 0.0
H567 H 0.97925 0.20202 0.67875 0.0
H568 H 0.80264 0.79072 0.33231 0.0
H569 H 0.79534 0.79688 0.39287 0.0
H570 H 0.78179 0.76246 0.44963 0.0
H571 H 0.78889 0.75614 0.38876 0.0
H572 H 0.76585 0.76944 0.45359 0.0
H573 H 0.8069 0.78642 0.48724 0.0
H574 H 0.82834 0.79823 0.47459 0.0
H575 H 0.82561 0.82938 0.45848 0.0
H576 H 0.80411 0.81772 0.47046 0.0
H577 H 0.75626 0.78398 0.66195 0.0
H578 H 0.76339 0.778 0.60032 0.0
H579 H 0.77458 0.81173 0.54122 0.0
H580 H 0.7675 0.81783 0.60286 0.0
H581 H 0.79165 0.80527 0.53822 0.0
H582 H 0.75042 0.788 0.50578 0.0
H583 H 0.72906 0.776 0.51973 0.0
H584 H 0.7323 0.74512 0.53516 0.0
H585 H 0.75373 0.75698 0.52188 0.0
C586 C 0.79816 0.78447 0.35775 0.0
C587 C 0.79636 0.77294 0.35575 0.0
C588 C 0.79402 0.78802 0.39243 0.0
C589 C 0.78812 0.78017 0.42596 0.0
C590 C 0.78633 0.76866 0.42408 0.0
C591 C 0.79042 0.76508 0.38934 0.0
C592 C 0.78359 0.78387 0.46254 0.0
C593 C 0.77153 0.77718 0.47246 0.0
C594 C 0.79094 0.79413 0.48653 0.0
C595 C 0.80387 0.80117 0.47932 0.0
C596 C 0.81085 0.79577 0.48064 0.0
C597 C 0.82302 0.80244 0.47367 0.0
C598 C 0.82833 0.81454 0.46562 0.0
C599 C 0.82148 0.82 0.46465 0.0
C600 C 0.80931 0.81337 0.47157 0.0
C601 C 0.76019 0.79012 0.63578 0.0
C602 C 0.76131 0.80138 0.63727 0.0
C603 C 0.76422 0.78667 0.60054 0.0
C604 C 0.76943 0.7944 0.56615 0.0
C605 C 0.77056 0.80564 0.56748 0.0
C606 C 0.76647 0.80908 0.60263 0.0
C607 C 0.77394 0.79083 0.52921 0.0
C608 C 0.78599 0.79754 0.51926 0.0
C609 C 0.76659 0.78056 0.50535 0.0
C610 C 0.7537 0.7734 0.51323 0.0
C611 C 0.7466 0.77867 0.5125 0.0
C612 C 0.73447 0.77189 0.52022 0.0
C613 C 0.72933 0.75981 0.52843 0.0
C614 C 0.7363 0.75448 0.52884 0.0
C615 C 0.74843 0.76122 0.52118 0.0
H616 H 0.71994 0.75458 0.5344 0.0
H617 H 0.83776 0.81969 0.46024 0.0
H618 H 0.7514 0.97188 0.65239 0.0
H619 H 0.75738 0.98471 0.5899 0.0
H620 H 0.76846 0.96249 0.52762 0.0
H621 H 0.76251 0.94959 0.58995 0.0
H622 H 0.7854 0.98614 0.52562 0.0
H623 H 0.74405 0.96191 0.49501 0.0
H624 H 0.72273 0.95244 0.51013 0.0
H625 H 0.72584 0.98648 0.52642 0.0
H626 H 0.74722 0.99615 0.51198 0.0
H627 H 0.79648 0.01169 0.32163 0.0
H628 H 0.78857 0.99793 0.38112 0.0
H629 H 0.77493 0.01882 0.43705 0.0
H630 H 0.7826 0.03252 0.37696 0.0
H631 H 0.75911 0.99587 0.44272 0.0
H632 H 0.80014 0.02024 0.47501 0.0
H633 H 0.82157 0.03013 0.46175 0.0
H634 H 0.8193 0.99647 0.44502 0.0
H635 H 0.79781 0.98638 0.45761 0.0
C636 C 0.75501 0.96966 0.62526 0.0
C637 C 0.75651 0.95973 0.62615 0.0
C638 C 0.75838 0.97698 0.58954 0.0
C639 C 0.76331 0.97451 0.55414 0.0
C640 C 0.76466 0.96453 0.55467 0.0
C641 C 0.76122 0.95715 0.59025 0.0
C642 C 0.7676 0.98267 0.5174 0.0
C643 C 0.77963 0.98814 0.50704 0.0
C644 C 0.76011 0.98554 0.49419 0.0
C645 C 0.74726 0.97975 0.50283 0.0
C646 C 0.74021 0.96737 0.50219 0.0
C647 C 0.72811 0.96197 0.51056 0.0
C648 C 0.72294 0.96886 0.51934 0.0
C649 C 0.72986 0.98116 0.51966 0.0
C650 C 0.74196 0.98661 0.51135 0.0
C651 C 0.7918 0.01338 0.34656 0.0
C652 C 0.79023 0.02324 0.3447 0.0
C653 C 0.78732 0.00552 0.38063 0.0
C654 C 0.78131 0.00745 0.41385 0.0
C655 C 0.77956 0.01718 0.41179 0.0
C656 C 0.78398 0.02502 0.37752 0.0
C657 C 0.77691 0.9993 0.45072 0.0
C658 C 0.76488 0.99387 0.46122 0.0
C659 C 0.78442 0.99652 0.47437 0.0
C660 C 0.79734 0.00256 0.46685 0.0
C661 C 0.80419 0.01495 0.46817 0.0
C662 C 0.81635 0.02059 0.46084 0.0
C663 C 0.82179 0.01393 0.45244 0.0
C664 C 0.81508 0.00162 0.45147 0.0
C665 C 0.80291 0.99593 0.45874 0.0
H666 H 0.83121 0.01832 0.44678 0.0
H667 H 0.71357 0.96466 0.5258 0.0
H668 H 0.03334 0.78532 0.63041 0.0
H669 H 0.01986 0.77744 0.56979 0.0
H670 H 0.99643 0.78732 0.63 0.0
H671 H 0.0098 0.79517 0.69074 0.0
H672 H 0.98455 0.76495 0.59651 0.0
H673 H 0.01396 0.8039 0.55179 0.0
H674 H 0.03419 0.82013 0.53778 0.0
H675 H 0.03942 0.7984 0.44812 0.0
H676 H 0.01927 0.78198 0.46206 0.0
H677 H 0.94957 0.76217 0.41908 0.0
H678 H 0.96254 0.76802 0.4811 0.0
H679 H 0.98609 0.7595 0.41401 0.0
H680 H 0.97328 0.75381 0.35165 0.0
H681 H 0.99802 0.7806 0.45105 0.0
H682 H 0.96837 0.7418 0.49375 0.0
H683 H 0.94816 0.72556 0.50774 0.0
H684 H 0.94335 0.74677 0.60096 0.0
H685 H 0.96348 0.76321 0.58711 0.0
C686 C 0.02532 0.78581 0.63077 0.0
C687 C 0.02266 0.79091 0.6653 0.0
C688 C 0.01764 0.78133 0.59609 0.0
C689 C 0.0072 0.78188 0.59536 0.0
C690 C 0.00445 0.78681 0.63001 0.0
C691 C 0.01213 0.79134 0.66458 0.0
C692 C -0.00084 0.77741 0.5583 0.0
C693 C 0.98744 0.76844 0.56474 0.0
C694 C 0.00305 0.7818 0.5168 0.0
C695 C 0.01516 0.79167 0.50832 0.0
C696 C 0.01946 0.80255 0.52936 0.0
C697 C 0.0309 0.81179 0.52138 0.0
C698 C 0.0381 0.81028 0.49218 0.0
C699 C 0.03385 0.79954 0.4708 0.0
C700 C 0.02241 0.79027 0.4787 0.0
C701 C 0.95745 0.76145 0.41762 0.0
C702 C 0.9604 0.75754 0.3804 0.0
C703 C 0.96484 0.76475 0.45316 0.0
C704 C 0.97524 0.76411 0.45227 0.0
C705 C 0.97811 0.76007 0.41536 0.0
C706 C 0.97076 0.75679 0.37979 0.0
C707 C 0.98337 0.76812 0.48917 0.0
C708 C 0.99512 0.77703 0.48273 0.0
C709 C 0.97951 0.76366 0.53065 0.0
C710 C 0.9674 0.75378 0.53909 0.0
C711 C 0.96297 0.74304 0.51698 0.0
C712 C 0.95153 0.73379 0.52494 0.0
C713 C 0.94446 0.73514 0.55514 0.0
C714 C 0.94883 0.74574 0.57754 0.0
C715 C 0.96026 0.75503 0.56968 0.0
H716 H 0.93561 0.72797 0.56126 0.0
H717 H 0.04695 0.81745 0.48603 0.0
H718 H 0.21981 0.18031 0.39108 0.0
H719 H 0.21346 0.18752 0.45139 0.0
H720 H 0.23814 0.22344 0.41538 0.0
H721 H 0.24473 0.2163 0.35539 0.0
H722 H 0.23824 0.22074 0.49949 0.0
H723 H 0.20871 0.21096 0.39234 0.0
H724 H 0.19392 0.19827 0.33919 0.0
H725 H 0.17377 0.17323 0.43667 0.0
H726 H 0.18854 0.1857 0.49033 0.0
H727 H 0.21276 0.24682 0.62889 0.0
H728 H 0.21973 0.24057 0.56741 0.0
H729 H 0.19634 0.2041 0.60053 0.0
H730 H 0.18921 0.21025 0.66166 0.0
H731 H 0.19574 0.20775 0.51643 0.0
H732 H 0.22564 0.21748 0.62321 0.0
H733 H 0.24047 0.23029 0.67605 0.0
H734 H 0.25991 0.25568 0.57862 0.0
H735 H 0.2451 0.24308 0.52528 0.0
C736 C 0.22393 0.18975 0.39605 0.0
C737 C 0.23272 0.19774 0.36828 0.0
C738 C 0.22025 0.19386 0.43044 0.0
C739 C 0.22518 0.20602 0.43743 0.0
C740 C 0.23418 0.21402 0.41046 0.0
C741 C 0.23793 0.20992 0.37616 0.0
C742 C 0.22085 0.21039 0.47267 0.0
C743 C 0.22897 0.21804 0.50286 0.0
C744 C 0.20872 0.2067 0.47745 0.0
C745 C 0.19979 0.19921 0.44528 0.0
C746 C 0.20117 0.20271 0.40239 0.0
C747 C 0.19278 0.19556 0.37218 0.0
C748 C 0.18292 0.18494 0.38453 0.0
C749 C 0.18142 0.18146 0.42714 0.0
C750 C 0.18979 0.18856 0.45747 0.0
C751 C 0.20907 0.23747 0.62302 0.0
C752 C 0.20046 0.22903 0.65027 0.0
C753 C 0.2131 0.23392 0.58798 0.0
C754 C 0.20865 0.22187 0.57972 0.0
C755 C 0.1999 0.21344 0.60638 0.0
C756 C 0.19586 0.21698 0.64137 0.0
C757 C 0.21312 0.21802 0.54339 0.0
C758 C 0.20501 0.21048 0.51296 0.0
C759 C 0.22526 0.22183 0.53835 0.0
C760 C 0.2342 0.22939 0.57035 0.0
C761 C 0.23303 0.22584 0.61312 0.0
C762 C 0.24144 0.23305 0.64314 0.0
C763 C 0.25111 0.24381 0.63072 0.0
C764 C 0.2524 0.24736 0.58821 0.0
C765 C 0.24401 0.24018 0.55806 0.0
H766 H 0.25761 0.24938 0.65402 0.0
H767 H 0.17644 0.17942 0.36109 0.0
H768 H 0.91498 0.36602 0.70572 0.0
H769 H 0.90796 0.35223 0.76557 0.0
H770 H 0.87204 0.33826 0.72316 0.0
H771 H 0.87894 0.35203 0.66341 0.0
H772 H 0.87452 0.3431 0.80811 0.0
H773 H 0.8856 0.32262 0.70813 0.0
H774 H 0.89893 0.32033 0.65857 0.0
H775 H 0.92335 0.32688 0.76031 0.0
H776 H 0.91024 0.32938 0.81038 0.0
H777 H 0.84762 0.29357 0.9441 0.0
H778 H 0.85454 0.30588 0.88042 0.0
H779 H 0.89065 0.31885 0.91872 0.0
H780 H 0.88381 0.30639 0.9821 0.0
H781 H 0.888 0.31433 0.83511 0.0
H782 H 0.87742 0.33531 0.93464 0.0
H783 H 0.86439 0.33792 0.98471 0.0
H784 H 0.83943 0.33087 0.88445 0.0
H785 H 0.85224 0.32806 0.83389 0.0
C786 C 0.90559 0.35999 0.70906 0.0
C787 C 0.89752 0.36012 0.67983 0.0
C788 C 0.9016 0.35209 0.74315 0.0
C789 C 0.88949 0.34417 0.74855 0.0
C790 C 0.88142 0.34429 0.71949 0.0
C791 C 0.88539 0.35215 0.68532 0.0
C792 C 0.88519 0.33597 0.78517 0.0
C793 C 0.87733 0.33669 0.81371 0.0
C794 C 0.8891 0.32783 0.79295 0.0
C795 C 0.89699 0.32631 0.76292 0.0
C796 C 0.89386 0.32368 0.71986 0.0
C797 C 0.90137 0.32232 0.69169 0.0
C798 C 0.91199 0.32349 0.70626 0.0
C799 C 0.91512 0.32599 0.74906 0.0
C800 C 0.90766 0.32737 0.77736 0.0
C801 C 0.85704 0.29899 0.9389 0.0
C802 C 0.86516 0.29906 0.96831 0.0
C803 C 0.86098 0.30606 0.90256 0.0
C804 C 0.87311 0.31342 0.89519 0.0
C805 C 0.88125 0.31326 0.92387 0.0
C806 C 0.87732 0.30616 0.96013 0.0
C807 C 0.87732 0.32145 0.85803 0.0
C808 C 0.88517 0.32072 0.82945 0.0
C809 C 0.87344 0.32963 0.85028 0.0
C810 C 0.86573 0.33136 0.88059 0.0
C811 C 0.86911 0.33423 0.92335 0.0
C812 C 0.86177 0.33576 0.9518 0.0
C813 C 0.85107 0.33453 0.93779 0.0
C814 C 0.84771 0.3318 0.89527 0.0
C815 C 0.85501 0.33025 0.86669 0.0
H816 H 0.84541 0.33573 0.95987 0.0
H817 H 0.91779 0.32243 0.6844 0.0
H818 H 0.65675 0.53512 0.64771 0.0
H819 H 0.67039 0.54377 0.70728 0.0
H820 H 0.64649 0.55308 0.76737 0.0
H821 H 0.63291 0.54469 0.70727 0.0
H822 H 0.66844 0.5709 0.77196 0.0
H823 H 0.64914 0.52948 0.80206 0.0
H824 H 0.64203 0.50846 0.78723 0.0
H825 H 0.67768 0.5162 0.76718 0.0
H826 H 0.68499 0.5373 0.78134 0.0
H827 H 0.69351 0.58134 0.97967 0.0
H828 H 0.68064 0.574 0.91747 0.0
H829 H 0.70587 0.56716 0.85418 0.0
H830 H 0.7188 0.57443 0.91639 0.0
H831 H 0.68345 0.54827 0.85101 0.0
H832 H 0.70259 0.58989 0.82291 0.0
H833 H 0.70934 0.61074 0.83945 0.0
H834 H 0.67344 0.60236 0.858 0.0
H835 H 0.66649 0.58141 0.84214 0.0
C836 C 0.65436 0.53896 0.67366 0.0
C837 C 0.64373 0.53919 0.67284 0.0
C838 C 0.66216 0.54387 0.70778 0.0
C839 C 0.6594 0.54894 0.74204 0.0
C840 C 0.6488 0.5492 0.74127 0.0
C841 C 0.64103 0.54437 0.70698 0.0
C842 C 0.66765 0.55412 0.77838 0.0
C843 C 0.67159 0.5659 0.78962 0.0
C844 C 0.67197 0.54767 0.80082 0.0
C845 C 0.6676 0.53499 0.79236 0.0
C846 C 0.65545 0.52671 0.79416 0.0
C847 C 0.65139 0.51478 0.78593 0.0
C848 C 0.6594 0.511 0.77616 0.0
C849 C 0.67149 0.51914 0.7747 0.0
C850 C 0.6756 0.53109 0.78286 0.0
C851 C 0.69639 0.57838 0.95238 0.0
C852 C 0.70717 0.57845 0.953 0.0
C853 C 0.68903 0.57423 0.91681 0.0
C854 C 0.69234 0.57009 0.88118 0.0
C855 C 0.70317 0.57032 0.88141 0.0
C856 C 0.71056 0.57451 0.91692 0.0
C857 C 0.68423 0.56503 0.84449 0.0
C858 C 0.6803 0.55326 0.83325 0.0
C859 C 0.67987 0.57146 0.82229 0.0
C860 C 0.68403 0.58406 0.83172 0.0
C861 C 0.69614 0.59247 0.83086 0.0
C862 C 0.7 0.60431 0.84004 0.0
C863 C 0.69183 0.60786 0.84987 0.0
C864 C 0.67977 0.59959 0.85043 0.0
C865 C 0.67586 0.58774 0.8413 0.0
H866 H 0.69483 0.61704 0.85698 0.0
H867 H 0.65623 0.50176 0.7698 0.0
H868 H 0.45138 0.08431 0.70758 0.0
H869 H 0.4441 0.09038 0.76864 0.0
H870 H 0.46642 0.12691 0.73365 0.0
H871 H 0.47386 0.12094 0.67296 0.0
H872 H 0.4674 0.12387 0.81751 0.0
H873 H 0.43703 0.11257 0.71216 0.0
H874 H 0.4223 0.09933 0.65989 0.0
H875 H 0.40367 0.07393 0.75823 0.0
H876 H 0.41841 0.08697 0.81101 0.0
H877 H 0.44065 0.15012 0.93642 0.0
H878 H 0.44738 0.14283 0.87737 0.0
H879 H 0.42649 0.10724 0.9244 0.0
H880 H 0.41971 0.11446 0.98375 0.0
H881 H 0.42458 0.10912 0.83642 0.0
H882 H 0.45485 0.12097 0.94213 0.0
H883 H 0.46956 0.13453 0.99383 0.0
H884 H 0.48834 0.15924 0.89381 0.0
H885 H 0.47363 0.1459 0.84157 0.0
C886 C 0.45476 0.09363 0.71293 0.0
C887 C 0.46317 0.10214 0.68534 0.0
C888 C 0.45055 0.09708 0.74774 0.0
C889 C 0.45462 0.10909 0.75538 0.0
C890 C 0.46315 0.1176 0.72829 0.0
C891 C 0.46737 0.11416 0.69355 0.0
C892 C 0.45 0.11283 0.79157 0.0
C893 C 0.45805 0.12075 0.82137 0.0
C894 C 0.43777 0.10854 0.79709 0.0
C895 C 0.4289 0.10069 0.76544 0.0
C896 C 0.42985 0.10412 0.72257 0.0
C897 C 0.42149 0.09666 0.69286 0.0
C898 C 0.41207 0.08578 0.70571 0.0
C899 C 0.41098 0.08236 0.74831 0.0
C900 C 0.41933 0.08978 0.77815 0.0
C901 C 0.43744 0.14074 0.93414 0.0
C902 C 0.42969 0.13287 0.96487 0.0
C903 C 0.44132 0.1366 0.90047 0.0
C904 C 0.43751 0.12452 0.89685 0.0
C905 C 0.42954 0.1166 0.92678 0.0
C906 C 0.42572 0.12074 0.96069 0.0
C907 C 0.44199 0.12022 0.86203 0.0
C908 C 0.43392 0.11219 0.83257 0.0
C909 C 0.4542 0.12444 0.85668 0.0
C910 C 0.46307 0.13248 0.888 0.0
C911 C 0.46206 0.12934 0.93121 0.0
C912 C 0.47041 0.13698 0.96061 0.0
C913 C 0.47986 0.14775 0.94714 0.0
C914 C 0.481 0.1509 0.90421 0.0
C915 C 0.47267 0.1433 0.87469 0.0
H916 H 0.48632 0.15365 0.96994 0.0
H917 H 0.40561 0.08002 0.68266 0.0
H918 H 0.45443 0.36822 0.71998 0.0
H919 H 0.44688 0.35451 0.78008 0.0
H920 H 0.46004 0.33339 0.72272 0.0
H921 H 0.4676 0.347 0.66258 0.0
H922 H 0.4371 0.32003 0.75141 0.0
H923 H 0.47453 0.35066 0.80376 0.0
H924 H 0.48967 0.37113 0.8209 0.0
H925 H 0.46555 0.37402 0.90593 0.0
H926 H 0.4502 0.3536 0.88883 0.0
H927 H 0.43266 0.28443 0.92899 0.0
H928 H 0.4393 0.29788 0.86826 0.0
H929 H 0.42841 0.32007 0.93212 0.0
H930 H 0.42195 0.3068 0.99327 0.0
H931 H 0.44991 0.33295 0.89983 0.0
H932 H 0.41254 0.30234 0.84877 0.0
H933 H 0.39725 0.28192 0.83162 0.0
H934 H 0.42091 0.27904 0.74424 0.0
H935 H 0.4364 0.29939 0.7613 0.0
C936 C 0.45575 0.36068 0.72022 0.0
C937 C 0.46163 0.3587 0.68657 0.0
C938 C 0.45146 0.35288 0.7546 0.0
C939 C 0.45296 0.34298 0.75585 0.0
C940 C 0.45879 0.34097 0.72227 0.0
C941 C 0.46315 0.3488 0.68805 0.0
C942 C 0.44837 0.33465 0.79201 0.0
C943 C 0.43999 0.32281 0.78384 0.0
C944 C 0.45196 0.33837 0.83431 0.0
C945 C 0.46117 0.35065 0.84466 0.0
C946 C 0.47242 0.35569 0.82582 0.0
C947 C 0.48104 0.36728 0.83559 0.0
C948 C 0.47856 0.37388 0.86439 0.0
C949 C 0.46745 0.3689 0.88357 0.0
C950 C 0.45879 0.35732 0.87388 0.0
C951 C 0.43159 0.29212 0.93 0.0
C952 C 0.42678 0.29455 0.96597 0.0
C953 C 0.43536 0.29978 0.89519 0.0
C954 C 0.43426 0.30993 0.89554 0.0
C955 C 0.42935 0.3123 0.93122 0.0
C956 C 0.42563 0.30468 0.96608 0.0
C957 C 0.43861 0.3183 0.85934 0.0
C958 C 0.44697 0.33016 0.86746 0.0
C959 C 0.43497 0.3146 0.81701 0.0
C960 C 0.42567 0.30235 0.80663 0.0
C961 C 0.41451 0.29732 0.82616 0.0
C962 C 0.40581 0.28576 0.8164 0.0
C963 C 0.40812 0.27918 0.78694 0.0
C964 C 0.41914 0.28415 0.76709 0.0
C965 C 0.42788 0.2957 0.77676 0.0
H966 H 0.40136 0.27023 0.77943 0.0
H967 H 0.48526 0.38285 0.87193 0.0
H968 H 0.70042 0.12187 0.9457 0.0
H969 H 0.68632 0.11454 0.88679 0.0
H970 H 0.66287 0.12246 0.95752 0.0
H971 H 0.6769 0.1298 0.01659 0.0
H972 H 0.65144 0.10012 0.92179 0.0
H973 H 0.67815 0.13995 0.87811 0.0
H974 H 0.6976 0.15724 0.86217 0.0
H975 H 0.70345 0.13752 0.76558 0.0
H976 H 0.6841 0.12006 0.78136 0.0
H977 H 0.61259 0.09135 0.74861 0.0
H978 H 0.62598 0.09922 0.8095 0.0
H979 H 0.65267 0.0962 0.73898 0.0
H980 H 0.6395 0.08871 0.67776 0.0
H981 H 0.66218 0.11667 0.77613 0.0
H982 H 0.63611 0.07667 0.8207 0.0
H983 H 0.6169 0.05907 0.83675 0.0
H984 H 0.61006 0.07857 0.93136 0.0
H985 H 0.62918 0.09633 0.91549 0.0
C986 C 0.69229 0.1221 0.94866 0.0
C987 C 0.68979 0.12643 0.98578 0.0
C988 C 0.68426 0.11794 0.91495 0.0
C989 C 0.6736 0.11803 0.91778 0.0
C990 C 0.67106 0.12232 0.95477 0.0
C991 C 0.67911 0.12656 0.98839 0.0
C992 C 0.66501 0.11346 0.88235 0.0
C993 C 0.65371 0.10383 0.89003 0.0
C994 C 0.66809 0.11817 0.84083 0.0
C995 C 0.67972 0.12866 0.83121 0.0
C996 C 0.68363 0.13927 0.85372 0.0
C997 C 0.69463 0.14911 0.84466 0.0
C998 C 0.70177 0.14847 0.81296 0.0
C999 C 0.69792 0.138 0.79017 0.0
C1000 C 0.68693 0.12813 0.79913 0.0
C1001 C 0.62128 0.09229 0.74624 0.0
C1002 C 0.625 0.08942 0.70841 0.0
C1003 C 0.62892 0.09675 0.7811 0.0
C1004 C 0.64031 0.09821 0.77895 0.0
C1005 C 0.64394 0.0952 0.74135 0.0
C1006 C 0.63639 0.09088 0.70641 0.0
C1007 C 0.64861 0.10319 0.81529 0.0
C1008 C 0.65987 0.11294 0.80785 0.0
C1009 C 0.6455 0.09853 0.85695 0.0
C1010 C 0.63402 0.08786 0.86659 0.0
C1011 C 0.63047 0.07723 0.8447 0.0
C1012 C 0.61961 0.06722 0.8538 0.0
C1013 C 0.61225 0.06771 0.88497 0.0
C1014 C 0.61576 0.07821 0.90718 0.0
C1015 C 0.62661 0.08824 0.89817 0.0
H1016 H 0.60384 0.05996 0.89197 0.0
H1017 H 0.71028 0.15609 0.80599 0.0
H1018 H 0.87816 0.52896 0.66761 0.0
H1019 H 0.87232 0.53629 0.72882 0.0
H1020 H 0.90872 0.55657 0.76841 0.0
H1021 H 0.91465 0.54909 0.70742 0.0
H1022 H 0.89453 0.54536 0.8345 0.0
H1023 H 0.8951 0.57006 0.72142 0.0
H1024 H 0.89036 0.5746 0.65051 0.0
H1025 H 0.85342 0.55575 0.68108 0.0
H1026 H 0.85792 0.55095 0.752 0.0
H1027 H 0.88343 0.57859 0.98771 0.0
H1028 H 0.89094 0.57334 0.92524 0.0
H1029 H 0.85532 0.55102 0.88052 0.0
H1030 H 0.84771 0.55628 0.94273 0.0
H1031 H 0.87022 0.56449 0.81686 0.0
H1032 H 0.86973 0.53904 0.92857 0.0
H1033 H 0.87453 0.53451 -0.00058 0.0
H1034 H 0.91155 0.55505 0.97111 0.0
H1035 H 0.90696 0.55983 0.90026 0.0
C1036 C 0.88495 0.53499 0.68926 0.0
C1037 C 0.89688 0.53849 0.68257 0.0
C1038 C 0.88159 0.53922 0.72414 0.0
C1039 C 0.89011 0.54712 0.75278 0.0
C1040 C 0.90202 0.55052 0.74655 0.0
C1041 C 0.90539 0.54625 0.71168 0.0
C1042 C 0.88649 0.55165 0.78958 0.0
C1043 C 0.88939 0.54973 0.83062 0.0
C1044 C 0.87959 0.55714 0.78449 0.0
C1045 C 0.87685 0.56006 0.74191 0.0
C1046 C 0.88596 0.5668 0.71292 0.0
C1047 C 0.88332 0.56944 0.67273 0.0
C1048 C 0.87159 0.56544 0.66126 0.0
C1049 C 0.86249 0.55883 0.68999 0.0
C1050 C 0.86509 0.55616 0.73021 0.0
C1051 C 0.87718 0.5726 0.96452 0.0
C1052 C 0.86496 0.5678 0.97028 0.0
C1053 C 0.8815 0.56958 0.92893 0.0
C1054 C 0.87367 0.5617 0.89856 0.0
C1055 C 0.86149 0.55711 0.90368 0.0
C1056 C 0.85716 0.5601 0.9393 0.0
C1057 C 0.87816 0.5581 0.86167 0.0
C1058 C 0.87543 0.5602 0.82065 0.0
C1059 C 0.88523 0.5528 0.86677 0.0
C1060 C 0.888 0.5499 0.9093 0.0
C1061 C 0.8789 0.54267 0.93759 0.0
C1062 C 0.88158 0.54004 0.97772 0.0
C1063 C 0.89334 0.54452 0.9898 0.0
C1064 C 0.90244 0.55161 0.96173 0.0
C1065 C 0.89981 0.55427 0.92157 0.0
H1066 H 0.8954 0.54248 0.02088 0.0
H1067 H 0.86957 0.56749 0.63013 0.0
H1068 H 0.5462 0.6296 0.28541 0.0
H1069 H 0.55361 0.6434 0.2256 0.0
H1070 H 0.54475 0.66677 0.29218 0.0
H1071 H 0.5371 0.65295 0.35157 0.0
H1072 H 0.53795 0.6645 0.21196 0.0
H1073 H 0.57345 0.6726 0.28498 0.0
H1074 H 0.58764 0.66775 0.31771 0.0
H1075 H 0.59231 0.65495 0.19772 0.0
H1076 H 0.57802 0.65958 0.16437 0.0
H1077 H 0.5697 0.71487 0.08135 0.0
H1078 H 0.56359 0.70167 0.14286 0.0
H1079 H 0.57041 0.67733 0.07292 0.0
H1080 H 0.57661 0.69049 0.01141 0.0
H1081 H 0.57845 0.68022 0.15484 0.0
H1082 H 0.54273 0.67201 0.08239 0.0
H1083 H 0.52861 0.677 0.04995 0.0
H1084 H 0.5245 0.69025 0.16981 0.0
H1085 H 0.53872 0.68549 0.20285 0.0
C1086 C 0.54584 0.63768 0.28731 0.0
C1087 C 0.54108 0.64019 0.32326 0.0
C1088 C 0.55013 0.64559 0.2532 0.0
C1089 C 0.54986 0.65618 0.25466 0.0
C1090 C 0.54505 0.65865 0.29039 0.0
C1091 C 0.5407 0.65074 0.32436 0.0
C1092 C 0.55441 0.66464 0.21871 0.0
C1093 C 0.54686 0.66807 0.19988 0.0
C1094 C 0.56596 0.66909 0.20235 0.0
C1095 C 0.57458 0.66633 0.22229 0.0
C1096 C 0.57744 0.66867 0.26565 0.0
C1097 C 0.58551 0.66597 0.2843 0.0
C1098 C 0.59085 0.66102 0.25984 0.0
C1099 C 0.58815 0.65878 0.21664 0.0
C1100 C 0.58008 0.66144 0.19784 0.0
C1101 C 0.56998 0.70675 0.07913 0.0
C1102 C 0.57357 0.70369 0.0414 0.0
C1103 C 0.56645 0.6992 0.11425 0.0
C1104 C 0.56642 0.68847 0.1122 0.0
C1105 C 0.57035 0.68557 0.07508 0.0
C1106 C 0.57385 0.69309 0.03993 0.0
C1107 C 0.562 0.6801 0.14834 0.0
C1108 C 0.56956 0.67667 0.16708 0.0
C1109 C 0.55047 0.67567 0.16474 0.0
C1110 C 0.54188 0.6785 0.14498 0.0
C1111 C 0.53888 0.67607 0.10175 0.0
C1112 C 0.53085 0.67885 0.08327 0.0
C1113 C 0.52568 0.68397 0.10778 0.0
C1114 C 0.52852 0.6863 0.15085 0.0
C1115 C 0.53656 0.68356 0.16948 0.0
H1116 H 0.51947 0.68611 0.09341 0.0
H1117 H 0.5971 0.65894 0.27433 0.0
H1118 H 0.36107 0.9124 0.31146 0.0
H1119 H 0.34813 0.9064 0.24934 0.0
H1120 H 0.35843 0.88078 0.21691 0.0
H1121 H 0.37145 0.88674 0.27896 0.0
H1122 H 0.35785 0.89336 0.14705 0.0
H1123 H 0.33274 0.87168 0.26417 0.0
H1124 H 0.32403 0.86931 0.33554 0.0
H1125 H 0.30975 0.89134 0.2997 0.0
H1126 H 0.31853 0.89398 0.22825 0.0
H1127 H 0.31186 0.85907 0.00198 0.0
H1128 H 0.3253 0.86558 0.06267 0.0
H1129 H 0.31343 0.88975 0.09898 0.0
H1130 H 0.29981 0.88315 0.03864 0.0
H1131 H 0.31496 0.87808 0.16678 0.0
H1132 H 0.33982 0.89967 0.04952 0.0
H1133 H 0.34854 0.90215 0.97811 0.0
H1134 H 0.36335 0.88059 0.01391 0.0
H1135 H 0.35457 0.87783 0.08539 0.0
C1136 C 0.36064 0.90553 0.29103 0.0
C1137 C 0.36725 0.9 0.30028 0.0
C1138 C 0.35321 0.90209 0.25563 0.0
C1139 C 0.35224 0.89307 0.22885 0.0
C1140 C 0.35905 0.88775 0.23729 0.0
C1141 C 0.36645 0.89114 0.27282 0.0
C1142 C 0.34395 0.88904 0.19247 0.0
C1143 C 0.34845 0.88988 0.15133 0.0
C1144 C 0.33174 0.88476 0.19814 0.0
C1145 C 0.32639 0.88313 0.241 0.0
C1146 C 0.32782 0.8761 0.27161 0.0
C1147 C 0.32286 0.87469 0.31206 0.0
C1148 C 0.31636 0.8802 0.32219 0.0
C1149 C 0.31479 0.88709 0.29183 0.0
C1150 C 0.31975 0.88854 0.25134 0.0
C1151 C 0.31209 0.86576 0.02287 0.0
C1152 C 0.3048 0.87062 0.0154 0.0
C1153 C 0.31982 0.86951 0.05745 0.0
C1154 C 0.32048 0.87826 0.085 0.0
C1155 C 0.31308 0.883 0.07802 0.0
C1156 C 0.30532 0.87924 0.04348 0.0
C1157 C 0.32884 0.88241 0.12124 0.0
C1158 C 0.32436 0.88158 0.16241 0.0
C1159 C 0.34107 0.88674 0.11556 0.0
C1160 C 0.34643 0.88845 0.07269 0.0
C1161 C 0.34486 0.89538 0.04207 0.0
C1162 C 0.34982 0.89685 0.00159 0.0
C1163 C 0.35646 0.89151 0.99144 0.0
C1164 C 0.35819 0.88471 0.0218 0.0
C1165 C 0.35323 0.8832 0.06231 0.0
H1166 H 0.3603 0.89265 0.96007 0.0
H1167 H 0.31253 0.87909 0.35352 0.0
H1168 H 0.10959 0.48235 0.26675 0.0
H1169 H 0.1155 0.47522 0.20485 0.0
H1170 H 0.09242 0.43926 0.2446 0.0
H1171 H 0.08648 0.44629 0.3067 0.0
H1172 H 0.11464 0.44356 0.2229 0.0
H1173 H 0.0845 0.45 0.1633 0.0
H1174 H 0.07463 0.46143 0.14732 0.0
H1175 H 0.10535 0.48705 0.07965 0.0
H1176 H 0.11547 0.47585 0.09575 0.0
H1177 H 0.1177 0.41596 0.0323 0.0
H1178 H 0.1111 0.42245 0.09411 0.0
H1179 H 0.13132 0.45855 0.0512 0.0
H1180 H 0.13771 0.45211 0.98886 0.0
H1181 H 0.11012 0.45382 0.07488 0.0
H1182 H 0.14054 0.44801 0.13501 0.0
H1183 H 0.15087 0.43706 0.15152 0.0
H1184 H 0.12036 0.41091 0.2187 0.0
H1185 H 0.10978 0.42163 0.2021 0.0
C1186 C 0.10572 0.47292 0.26224 0.0
C1187 C 0.09756 0.46488 0.29162 0.0
C1188 C 0.10908 0.46887 0.2268 0.0
C1189 C 0.10433 0.45672 0.22009 0.0
C1190 C 0.09617 0.44867 0.24927 0.0
C1191 C 0.09276 0.45271 0.28462 0.0
C1192 C 0.10808 0.45241 0.18307 0.0
C1193 C 0.1135 0.44565 0.19047 0.0
C1194 C 0.10686 0.45542 0.14093 0.0
C1195 C 0.10078 0.46214 0.13108 0.0
C1196 C 0.08918 0.45812 0.14531 0.0
C1197 C 0.08354 0.46455 0.13617 0.0
C1198 C 0.08937 0.47498 0.11257 0.0
C1199 C 0.10085 0.47898 0.09797 0.0
C1200 C 0.10654 0.47259 0.10705 0.0
C1201 C 0.12079 0.42529 0.03616 0.0
C1202 C 0.12823 0.43352 0.00572 0.0
C1203 C 0.11705 0.42899 0.07157 0.0
C1204 C 0.12081 0.441 0.07748 0.0
C1205 C 0.12829 0.44924 0.04724 0.0
C1206 C 0.13196 0.44554 0.01169 0.0
C1207 C 0.11675 0.445 0.11462 0.0
C1208 C 0.11125 0.45171 0.10727 0.0
C1209 C 0.11798 0.44201 0.15683 0.0
C1210 C 0.12433 0.43556 0.16693 0.0
C1211 C 0.136 0.43987 0.15301 0.0
C1212 C 0.14191 0.43372 0.16244 0.0
C1213 C 0.13626 0.42328 0.18604 0.0
C1214 C 0.12471 0.41899 0.20037 0.0
C1215 C 0.11876 0.42511 0.19099 0.0
H1216 H 0.14085 0.41853 0.19332 0.0
H1217 H 0.08499 0.47994 0.10553 0.0
H1218 H 0.08513 0.63616 0.309 0.0
H1219 H 0.0916 0.64888 0.24635 0.0
H1220 H 0.12269 0.64546 0.23798 0.0
H1221 H 0.1164 0.63292 0.30125 0.0
H1222 H 0.12834 0.66777 0.22804 0.0
H1223 H 0.09935 0.63076 0.16902 0.0
H1224 H 0.07989 0.6127 0.16292 0.0
H1225 H 0.06354 0.6337 0.14144 0.0
H1226 H 0.08289 0.65189 0.14799 0.0
H1227 H 0.14526 0.69125 0.01963 0.0
H1228 H 0.13864 0.67803 0.08102 0.0
H1229 H 0.1089 0.68344 0.0964 0.0
H1230 H 0.11543 0.69664 0.03482 0.0
H1231 H 0.10264 0.66001 0.10205 0.0
H1232 H 0.13199 0.69707 0.1617 0.0
H1233 H 0.15163 0.71492 0.16695 0.0
H1234 H 0.16752 0.69341 0.18601 0.0
H1235 H 0.14798 0.67542 0.18029 0.0
C1236 C 0.09332 0.63806 0.29374 0.0
C1237 C 0.10025 0.63351 0.31007 0.0
C1238 C 0.09698 0.6453 0.2578 0.0
C1239 C 0.10757 0.64801 0.23718 0.0
C1240 C 0.11449 0.64347 0.25338 0.0
C1241 C 0.11087 0.63628 0.28948 0.0
C1242 C 0.11156 0.65583 0.19936 0.0
C1243 C 0.12279 0.66597 0.20024 0.0
C1244 C 0.10421 0.65362 0.16345 0.0
C1245 C 0.09256 0.64269 0.15941 0.0
C1246 C 0.09159 0.63153 0.16333 0.0
C1247 C 0.08058 0.62127 0.15973 0.0
C1248 C 0.07048 0.62206 0.15191 0.0
C1249 C 0.07137 0.6331 0.14756 0.0
C1250 C 0.08236 0.64339 0.15117 0.0
C1251 C 0.13732 0.68965 0.03607 0.0
C1252 C 0.13089 0.69502 0.02243 0.0
C1253 C 0.13357 0.68212 0.07122 0.0
C1254 C 0.12334 0.67984 0.09342 0.0
C1255 C 0.11683 0.6851 0.07968 0.0
C1256 C 0.1206 0.69267 0.04461 0.0
C1257 C 0.11939 0.67192 0.13085 0.0
C1258 C 0.10818 0.66177 0.12987 0.0
C1259 C 0.12678 0.67408 0.16655 0.0
C1260 C 0.13853 0.68489 0.17014 0.0
C1261 C 0.13968 0.69614 0.16666 0.0
C1262 C 0.15079 0.70629 0.16979 0.0
C1263 C 0.16082 0.7053 0.1767 0.0
C1264 C 0.15975 0.69416 0.18061 0.0
C1265 C 0.14866 0.68399 0.17746 0.0
H1266 H 0.16941 0.71317 0.17911 0.0
H1267 H 0.06197 0.6141 0.14913 0.0
H1268 H 0.35879 0.44736 0.31698 0.0
H1269 H 0.34484 0.44008 0.25762 0.0
H1270 H 0.36474 0.47371 0.19452 0.0
H1271 H 0.37867 0.4811 0.25378 0.0
H1272 H 0.34111 0.46586 0.19448 0.0
H1273 H 0.36668 0.45028 0.16141 0.0
H1274 H 0.37693 0.43913 0.17565 0.0
H1275 H 0.34361 0.40745 0.19392 0.0
H1276 H 0.33315 0.41845 0.18035 0.0
H1277 H 0.31902 0.45209 0.98528 0.0
H1278 H 0.33127 0.45788 0.04905 0.0
H1279 H 0.30974 0.42296 0.10107 0.0
H1280 H 0.29748 0.41701 0.03694 0.0
H1281 H 0.33301 0.43053 0.11005 0.0
H1282 H 0.30733 0.44572 0.13955 0.0
H1283 H 0.29694 0.45675 0.12543 0.0
H1284 H 0.33016 0.48896 0.11471 0.0
H1285 H 0.34075 0.4781 0.12816 0.0
C1286 C 0.36023 0.4532 0.29039 0.0
C1287 C 0.36985 0.46481 0.29007 0.0
C1288 C 0.35227 0.44901 0.25647 0.0
C1289 C 0.3538 0.45634 0.22161 0.0
C1290 C 0.3634 0.46792 0.22118 0.0
C1291 C 0.37137 0.47211 0.255 0.0
C1292 C 0.34532 0.45204 0.18579 0.0
C1293 C 0.33943 0.45821 0.17569 0.0
C1294 C 0.34287 0.44185 0.16223 0.0
C1295 C 0.34914 0.43522 0.17033 0.0
C1296 C 0.36154 0.44096 0.16883 0.0
C1297 C 0.36739 0.43466 0.1767 0.0
C1298 C 0.36093 0.4226 0.18581 0.0
C1299 C 0.3486 0.4168 0.18694 0.0
C1300 C 0.34271 0.42306 0.17913 0.0
C1301 C 0.31684 0.44564 0.01032 0.0
C1302 C 0.30726 0.43409 0.00607 0.0
C1303 C 0.32383 0.44899 0.04684 0.0
C1304 C 0.32133 0.44089 0.07998 0.0
C1305 C 0.31179 0.42934 0.07587 0.0
C1306 C 0.30478 0.42598 0.03928 0.0
C1307 C 0.32891 0.44445 0.11834 0.0
C1308 C 0.33462 0.43813 0.12899 0.0
C1309 C 0.33117 0.45449 0.14251 0.0
C1310 C 0.32484 0.46107 0.13451 0.0
C1311 C 0.31242 0.45514 0.13384 0.0
C1312 C 0.3065 0.46136 0.12602 0.0
C1313 C 0.31289 0.47354 0.11908 0.0
C1314 C 0.32522 0.47953 0.12005 0.0
C1315 C 0.33119 0.47334 0.12782 0.0
H1316 H 0.30828 0.47835 0.11304 0.0
H1317 H 0.36547 0.41774 0.19189 0.0
H1318 H 0.51185 0.8887 0.2625 0.0
H1319 H 0.51831 0.88245 0.19965 0.0
H1320 H 0.55423 0.9012 0.24514 0.0
H1321 H 0.54791 0.90766 0.30761 0.0
H1322 H 0.55336 0.90475 0.16197 0.0
H1323 H 0.53714 0.87119 0.25584 0.0
H1324 H 0.52183 0.85574 0.30124 0.0
H1325 H 0.49845 0.84199 0.19411 0.0
H1326 H 0.51357 0.85746 0.14817 0.0
H1327 H 0.57846 0.87808 0.03686 0.0
H1328 H 0.57101 0.88446 0.09638 0.0
H1329 H 0.5359 0.86571 0.04345 0.0
H1330 H 0.54325 0.85914 0.98398 0.0
H1331 H 0.53572 0.86216 0.12824 0.0
H1332 H 0.55235 0.89539 0.03378 0.0
H1333 H 0.5678 0.91076 0.98863 0.0
H1334 H 0.59055 0.92513 0.09712 0.0
H1335 H 0.5753 0.90973 0.14285 0.0
C1336 C 0.52113 0.89153 0.25907 0.0
C1337 C 0.52936 0.89863 0.29016 0.0
C1338 C 0.5248 0.88791 0.22321 0.0
C1339 C 0.53673 0.89123 0.21802 0.0
C1340 C 0.54498 0.89852 0.24855 0.0
C1341 C 0.54134 0.90219 0.2843 0.0
C1342 C 0.54063 0.88704 0.18099 0.0
C1343 C 0.5496 0.89544 0.15486 0.0
C1344 C 0.53552 0.87489 0.17115 0.0
C1345 C 0.52644 0.86556 0.19868 0.0
C1346 C 0.5287 0.86493 0.24204 0.0
C1347 C 0.52006 0.85616 0.26785 0.0
C1348 C 0.50916 0.84791 0.25059 0.0
C1349 C 0.50689 0.8484 0.20745 0.0
C1350 C 0.51549 0.85716 0.1815 0.0
C1351 C 0.56915 0.87528 0.03787 0.0
C1352 C 0.56145 0.86814 0.00557 0.0
C1353 C 0.56492 0.87898 0.07183 0.0
C1354 C 0.55294 0.87569 0.07399 0.0
C1355 C 0.54519 0.86838 0.04228 0.0
C1356 C 0.54941 0.86465 0.00829 0.0
C1357 C 0.54851 0.87988 0.10946 0.0
C1358 C 0.53945 0.87148 0.13525 0.0
C1359 C 0.55355 0.89202 0.11905 0.0
C1360 C 0.56272 0.90134 0.09166 0.0
C1361 C 0.56068 0.90177 0.04796 0.0
C1362 C 0.5694 0.9105 0.02227 0.0
C1363 C 0.58016 0.9189 0.03998 0.0
C1364 C 0.58222 0.91861 0.08344 0.0
C1365 C 0.57353 0.90989 0.10927 0.0
H1366 H 0.5869 0.92565 0.02003 0.0
H1367 H 0.50249 0.84113 0.27063 0.0
H1368 H 0.21109 0.97399 0.82535 0.0
H1369 H 0.21882 0.9874 0.88566 0.0
H1370 H 0.18569 0.96723 0.95152 0.0
H1371 H 0.17777 0.95365 0.89087 0.0
H1372 H 0.19506 0.99177 0.957 0.0
H1373 H 0.20739 0.96365 0.98157 0.0
H1374 H 0.21602 0.95123 0.96313 0.0
H1375 H 0.24947 0.98224 0.93882 0.0
H1376 H 0.24099 0.99486 0.95647 0.0
H1377 H 0.22083 0.02086 0.15397 0.0
H1378 H 0.21044 0.00577 0.09962 0.0
H1379 H 0.24148 0.02197 0.02019 0.0
H1380 H 0.25195 0.03708 0.07435 0.0
H1381 H 0.23174 0.99783 0.02676 0.0
H1382 H 0.21877 0.02578 0.99766 0.0
H1383 H 0.20993 0.03804 0.01553 0.0
H1384 H 0.17742 0.00697 0.0493 0.0
H1385 H 0.18613 0.99453 0.03218 0.0
C1386 C 0.20539 0.97238 0.85252 0.0
C1387 C 0.19383 0.9627 0.85343 0.0
C1388 C 0.20985 0.98005 0.88702 0.0
C1389 C 0.20287 0.97819 0.92317 0.0
C1390 C 0.19121 0.96875 0.92388 0.0
C1391 C 0.18673 0.961 0.8893 0.0
C1392 C 0.20795 0.98613 0.96019 0.0
C1393 C 0.20295 0.99295 0.97287 0.0
C1394 C 0.21833 0.98774 0.9803 0.0
C1395 C 0.22352 0.9802 0.97003 0.0
C1396 C 0.21657 0.96783 0.97198 0.0
C1397 C 0.22143 0.96075 0.96172 0.0
C1398 C 0.23327 0.96594 0.94973 0.0
C1399 C 0.24029 0.97823 0.94808 0.0
C1400 C 0.23546 0.98535 0.95826 0.0
C1401 C 0.22544 0.02123 0.12489 0.0
C1402 C 0.23722 0.03017 0.11843 0.0
C1403 C 0.21948 0.01263 0.09385 0.0
C1404 C 0.22519 0.0128 0.05589 0.0
C1405 C 0.23693 0.02169 0.04935 0.0
C1406 C 0.24288 0.03034 0.08025 0.0
C1407 C 0.21899 0.00365 0.02305 0.0
C1408 C 0.22378 0.99657 0.01122 0.0
C1409 C 0.2084 0.00177 0.00389 0.0
C1410 C 0.20315 0.00924 0.01411 0.0
C1411 C 0.20977 0.02157 0.00926 0.0
C1412 C 0.20477 0.02855 0.01918 0.0
C1413 C 0.19313 0.02329 0.03367 0.0
C1414 C 0.18645 0.01104 0.03815 0.0
C1415 C 0.1914 0.00401 0.02832 0.0
H1416 H 0.18928 0.02871 0.04132 0.0
H1417 H 0.23702 0.96045 0.94181 0.0
H1418 H 0.97528 0.21299 0.16343 0.0
H1419 H 0.98943 0.2198 0.10505 0.0
H1420 H 0.96346 0.19273 0.02367 0.0
H1421 H 0.94913 0.18581 0.08215 0.0
H1422 H 0.98625 0.19527 0.01761 0.0
H1423 H 0.96809 0.21915 0.01047 0.0
H1424 H 0.96102 0.23212 0.03844 0.0
H1425 H 0.99643 0.25799 0.07333 0.0
H1426 H 0.0037 0.24508 0.04614 0.0
H1427 H 0.01836 0.22184 0.82639 0.0
H1428 H 0.00303 0.21291 0.88091 0.0
H1429 H 0.02559 0.23997 0.96983 0.0
H1430 H 0.04093 0.249 0.91554 0.0
H1431 H 0.00337 0.23672 0.96865 0.0
H1432 H 0.02144 0.21259 0.97844 0.0
H1433 H 0.02859 0.19961 0.95125 0.0
H1434 H 0.99346 0.17423 0.9116 0.0
H1435 H 0.98612 0.18716 0.93803 0.0
C1436 C 0.97256 0.20842 0.13322 0.0
C1437 C 0.96105 0.1989 0.12733 0.0
C1438 C 0.98066 0.21235 0.09987 0.0
C1439 C 0.97743 0.20684 0.06002 0.0
C1440 C 0.96608 0.19711 0.05424 0.0
C1441 C 0.95791 0.1932 0.0876 0.0
C1442 C 0.98592 0.21148 0.02435 0.0
C1443 C 0.98987 0.20426 0.00633 0.0
C1444 C 0.99075 0.22328 0.01035 0.0
C1445 C 0.98643 0.23109 0.02661 0.0
C1446 C 0.97436 0.22756 0.02444 0.0
C1447 C 0.97032 0.2349 0.04009 0.0
C1448 C 0.97827 0.24586 0.05774 0.0
C1449 C 0.99028 0.24949 0.05969 0.0
C1450 C 0.99437 0.24217 0.04412 0.0
C1451 C 0.02008 0.22586 0.85761 0.0
C1452 C 0.03086 0.23614 0.86665 0.0
C1453 C 0.01133 0.22072 0.88874 0.0
C1454 C 0.01321 0.22575 0.92943 0.0
C1455 C 0.02397 0.23597 0.93858 0.0
C1456 C 0.03274 0.24109 0.90755 0.0
C1457 C 0.00386 0.22057 0.96224 0.0
C1458 C -0.00028 0.2277 0.97969 0.0
C1459 C 0.99887 0.20869 0.97566 0.0
C1460 C 0.00326 0.20091 0.95977 0.0
C1461 C 0.01526 0.20429 0.96357 0.0
C1462 C 0.01934 0.19694 0.94837 0.0
C1463 C 0.01149 0.18612 0.92959 0.0
C1464 C -0.00047 0.18262 0.92609 0.0
C1465 C 0.9954 0.18996 0.94119 0.0
H1466 H 0.01467 0.18043 0.91786 0.0
H1467 H 0.97512 0.25154 0.06983 0.0
H1468 H 0.7742 0.80526 0.86665 0.0
H1469 H 0.7833 0.80032 0.92517 0.0
H1470 H 0.75677 0.76358 0.9132 0.0
H1471 H 0.74759 0.76841 0.85486 0.0
H1472 H 0.76003 0.77088 0.99532 0.0
H1473 H 0.78386 0.77281 0.87639 0.0
H1474 H 0.79649 0.7819 0.8136 0.0
H1475 H 0.82194 0.81027 0.89112 0.0
H1476 H 0.80937 0.80142 0.95431 0.0
H1477 H 0.80331 0.75333 0.09103 0.0
H1478 H 0.79623 0.75944 0.02949 0.0
H1479 H 0.78747 0.78046 0.11109 0.0
H1480 H 0.79437 0.77429 0.17283 0.0
H1481 H 0.80185 0.78046 0.99268 0.0
H1482 H 0.76127 0.77724 0.07805 0.0
H1483 H 0.74819 0.76675 0.13861 0.0
H1484 H 0.75536 0.7383 0.12345 0.0
H1485 H 0.76835 0.74854 0.06247 0.0
C1486 C 0.77031 0.79612 0.87644 0.0
C1487 C 0.76017 0.78722 0.85612 0.0
C1488 C 0.77555 0.79332 0.90975 0.0
C1489 C 0.77074 0.78158 0.92328 0.0
C1490 C 0.7606 0.77269 0.9032 0.0
C1491 C 0.7554 0.77547 0.86979 0.0
C1492 C 0.77614 0.77855 0.95891 0.0
C1493 C 0.76918 0.773 0.99478 0.0
C1494 C 0.78803 0.78119 0.9579 0.0
C1495 C 0.79561 0.78651 0.91999 0.0
C1496 C 0.7921 0.78104 0.87998 0.0
C1497 C 0.79926 0.78614 0.84434 0.0
C1498 C 0.81 0.79667 0.84835 0.0
C1499 C 0.81361 0.80211 0.88805 0.0
C1500 C 0.80648 0.79706 0.9238 0.0
C1501 C 0.79998 0.75934 0.09585 0.0
C1502 C 0.79927 0.76322 0.13687 0.0
C1503 C 0.79598 0.76285 0.06062 0.0
C1504 C 0.79118 0.77026 0.06586 0.0
C1505 C 0.79098 0.77459 0.10649 0.0
C1506 C 0.79495 0.77107 0.14171 0.0
C1507 C 0.78579 0.77293 0.02925 0.0
C1508 C 0.79273 0.77841 0.99327 0.0
C1509 C 0.77382 0.77006 0.0298 0.0
C1510 C 0.76587 0.76372 0.06599 0.0
C1511 C 0.76001 0.76872 0.08755 0.0
C1512 C 0.75262 0.76282 0.12196 0.0
C1513 C 0.75098 0.75188 0.13496 0.0
C1514 C 0.75668 0.74679 0.11346 0.0
C1515 C 0.76406 0.75265 0.079 0.0
H1516 H 0.74526 0.74734 0.16163 0.0
H1517 H 0.81553 0.8006 0.82071 0.0
H1518 H 0.77268 0.95647 0.90845 0.0
H1519 H 0.78101 0.97149 0.96427 0.0
H1520 H 0.77449 0.99496 0.88734 0.0
H1521 H 0.76638 0.98013 0.83118 0.0
H1522 H 0.79551 0.00679 0.92693 0.0
H1523 H 0.75536 0.9784 0.96558 0.0
H1524 H 0.73878 0.95847 0.9811 0.0
H1525 H 0.75855 0.95484 0.08316 0.0
H1526 H 0.77531 0.9747 0.06786 0.0
H1527 H 0.7934 0.04514 0.08167 0.0
H1528 H 0.78964 0.03097 0.02477 0.0
H1529 H 0.79565 0.00908 0.1122 0.0
H1530 H 0.79913 0.02306 0.1695 0.0
H1531 H 0.77626 0.99621 0.06856 0.0
H1532 H 0.8159 0.0255 0.03357 0.0
H1533 H 0.83227 0.04555 0.0181 0.0
H1534 H 0.81351 0.04767 0.90954 0.0
H1535 H 0.79695 0.0277 0.92469 0.0
C1536 C 0.77312 0.96487 0.90326 0.0
C1537 C 0.76876 0.96706 0.86556 0.0
C1538 C 0.77785 0.97342 0.93522 0.0
C1539 C 0.77821 0.98427 0.93015 0.0
C1540 C 0.77429 0.98664 0.89191 0.0
C1541 C 0.7696 0.97813 0.85991 0.0
C1542 C 0.78212 0.99294 0.96535 0.0
C1543 C 0.79127 0.00452 0.95785 0.0
C1544 C 0.77673 0.98988 0.00591 0.0
C1545 C 0.76663 0.97798 0.01528 0.0
C1546 C 0.7562 0.97331 0.99113 0.0
C1547 C 0.74676 0.96204 -9e-05 0.0
C1548 C 0.74762 0.95538 0.03301 0.0
C1549 C 0.7579 0.96 0.05748 0.0
C1550 C 0.76737 0.97127 0.04879 0.0
C1551 C 0.79402 0.03736 0.0887 0.0
C1552 C 0.79653 0.0352 0.13009 0.0
C1553 C 0.79193 0.02929 0.05609 0.0
C1554 C 0.79249 0.01902 0.06412 0.0
C1555 C 0.79518 0.01695 0.10529 0.0
C1556 C 0.79717 0.02495 0.13798 0.0
C1557 C 0.78964 0.01012 0.0302 0.0
C1558 C 0.78064 0.99848 0.03788 0.0
C1559 C 0.79516 0.01314 0.98984 0.0
C1560 C 0.80514 0.02513 0.98048 0.0
C1561 C 0.81523 0.03028 0.00657 0.0
C1562 C 0.82455 0.04162 0.99783 0.0
C1563 C 0.82392 0.04789 0.96291 0.0
C1564 C 0.81398 0.04281 0.93659 0.0
C1565 C 0.80463 0.03147 0.94521 0.0
H1566 H 0.83114 0.05667 0.95621 0.0
H1567 H 0.74031 0.94665 0.03977 0.0
H1568 H 0.04965 0.80929 0.92685 0.0
H1569 H 0.03585 0.80477 0.98597 0.0
H1570 H 0.00657 0.789 0.89836 0.0
H1571 H 0.02024 0.7936 0.83922 0.0
H1572 H 0.00343 0.80215 0.95836 0.0
H1573 H 0.01455 0.77198 0.95347 0.0
H1574 H 0.02866 0.76467 0.95387 0.0
H1575 H 0.0413 0.78028 0.07668 0.0
H1576 H 0.02736 0.78781 0.07673 0.0
H1577 H 0.95495 0.76204 0.0841 0.0
H1578 H 0.97076 0.77222 0.03215 0.0
H1579 H 0.99657 0.78456 0.13305 0.0
H1580 H 0.98083 0.77421 0.18513 0.0
H1581 H 0.00289 0.77534 0.07106 0.0
H1582 H 0.99 0.80356 0.07957 0.0
H1583 H 0.97571 0.81063 0.07907 0.0
H1584 H 0.96627 0.79877 0.95021 0.0
H1585 H 0.98039 0.79147 0.95011 0.0
C1586 C 0.04028 0.80496 0.92015 0.0
C1587 C 0.03603 0.8017 0.87842 0.0
C1588 C 0.03241 0.80236 0.95395 0.0
C1589 C 0.02019 0.79644 0.94653 0.0
C1590 C 0.01597 0.79358 0.90475 0.0
C1591 C 0.0238 0.79616 0.87102 0.0
C1592 C 0.0117 0.79262 0.98227 0.0
C1593 C 0.00325 0.79624 0.98294 0.0
C1594 C 0.01167 0.78514 0.01481 0.0
C1595 C 0.02002 0.78058 0.01488 0.0
C1596 C 0.02041 0.77393 0.9804 0.0
C1597 C 0.02836 0.76973 0.98057 0.0
C1598 C 0.0359 0.77204 0.01522 0.0
C1599 C 0.03547 0.77852 0.04982 0.0
C1600 C 0.02754 0.78275 0.04978 0.0
C1601 C 0.96398 0.76702 0.0953 0.0
C1602 C 0.96664 0.76728 0.13871 0.0
C1603 C 0.973 0.77289 0.06558 0.0
C1604 C 0.98484 0.77925 0.07877 0.0
C1605 C 0.9875 0.77972 0.12219 0.0
C1606 C 0.97849 0.7738 0.1519 0.0
C1607 C 0.99448 0.78474 0.04701 0.0
C1608 C 0.00314 0.7814 0.04697 0.0
C1609 C 0.99468 0.79247 0.01509 0.0
C1610 C 0.9862 0.79688 0.01496 0.0
C1611 C 0.98482 0.80238 0.05122 0.0
C1612 C 0.97675 0.80644 0.05103 0.0
C1613 C 0.97007 0.80513 0.01466 0.0
C1614 C 0.97145 0.79978 0.97837 0.0
C1615 C 0.97949 0.79569 0.97841 0.0
H1616 H 0.96383 0.80828 0.01458 0.0
H1617 H 0.04205 0.76878 0.0153 0.0
H1618 H 0.23678 0.1881 0.08288 0.0
H1619 H 0.22863 0.19463 0.02594 0.0
H1620 H 0.22318 0.21654 0.11505 0.0
H1621 H 0.23104 0.20986 0.17227 0.0
H1622 H 0.2048 0.20571 0.06317 0.0
H1623 H 0.24711 0.22807 0.04737 0.0
H1624 H 0.26704 0.23074 0.03864 0.0
H1625 H 0.25642 0.21133 0.92143 0.0
H1626 H 0.23636 0.20841 0.92976 0.0
H1627 H 0.20137 0.2464 0.92331 0.0
H1628 H 0.20704 0.23687 0.97784 0.0
H1629 H 0.21038 0.21512 0.88201 0.0
H1630 H 0.20486 0.2247 0.82715 0.0
H1631 H 0.2291 0.22464 0.93496 0.0
H1632 H 0.18698 0.20348 0.94902 0.0
H1633 H 0.16726 0.20129 0.95796 0.0
H1634 H 0.17768 0.2189 0.07869 0.0
H1635 H 0.19753 0.22134 0.0702 0.0
C1636 C 0.23379 0.19427 0.09039 0.0
C1637 C 0.23463 0.19853 0.13202 0.0
C1638 C 0.22917 0.19802 0.05779 0.0
C1639 C 0.22546 0.20621 0.06614 0.0
C1640 C 0.22601 0.21023 0.10789 0.0
C1641 C 0.23054 0.20643 0.14053 0.0
C1642 C 0.22126 0.21083 0.03135 0.0
C1643 C 0.21016 0.20994 0.03531 0.0
C1644 C 0.22814 0.21612 0.99457 0.0
C1645 C 0.24021 0.21791 0.98943 0.0
C1646 C 0.249 0.2243 0.0199 0.0
C1647 C 0.26032 0.22587 0.015 0.0
C1648 C 0.26298 0.22118 0.97957 0.0
C1649 C 0.25434 0.21494 0.9489 0.0
C1650 C 0.24299 0.21333 0.95368 0.0
C1651 C 0.20326 0.23955 0.91382 0.0
C1652 C 0.20266 0.23631 0.8709 0.0
C1653 C 0.20644 0.23408 0.94506 0.0
C1654 C 0.20901 0.2252 0.93399 0.0
C1655 C 0.20842 0.22193 0.8912 0.0
C1656 C 0.20524 0.2274 0.85993 0.0
C1657 C 0.21268 0.2196 0.96694 0.0
C1658 C 0.2237 0.22032 0.96265 0.0
C1659 C 0.20574 0.21421 0.00347 0.0
C1660 C 0.19378 0.21268 0.00879 0.0
C1661 C 0.1851 0.20697 0.97733 0.0
C1662 C 0.17389 0.20567 0.98234 0.0
C1663 C 0.17122 0.20998 0.01882 0.0
C1664 C 0.17976 0.21557 0.05043 0.0
C1665 C 0.19099 0.2169 0.04556 0.0
H1666 H 0.16254 0.20896 0.02264 0.0
H1667 H 0.27176 0.2224 0.97583 0.0
H1668 H 0.92643 0.36589 0.46749 0.0
H1669 H 0.91904 0.35483 0.40134 0.0
H1670 H 0.88651 0.35536 0.41553 0.0
H1671 H 0.89385 0.36648 0.48199 0.0
H1672 H 0.88328 0.33305 0.39515 0.0
H1673 H 0.90541 0.37285 0.34427 0.0
H1674 H 0.92289 0.39276 0.33926 0.0
H1675 H 0.94342 0.37799 0.29091 0.0
H1676 H 0.9261 0.35797 0.29617 0.0
H1677 H 0.86336 0.30815 0.19023 0.0
H1678 H 0.86898 0.32156 0.25102 0.0
H1679 H 0.9046 0.32781 0.2434 0.0
H1680 H 0.89915 0.31471 0.18202 0.0
H1681 H 0.90502 0.34774 0.25906 0.0
H1682 H 0.88427 0.30829 0.31614 0.0
H1683 H 0.86752 0.28802 0.32391 0.0
H1684 H 0.84517 0.30164 0.36296 0.0
H1685 H 0.86176 0.32202 0.35488 0.0
C1686 C 0.9177 0.36367 0.4566 0.0
C1687 C 0.91072 0.36706 0.47993 0.0
C1688 C 0.91352 0.3574 0.41869 0.0
C1689 C 0.90228 0.35439 0.40345 0.0
C1690 C 0.89522 0.35765 0.4268 0.0
C1691 C 0.89944 0.36402 0.46463 0.0
C1692 C 0.89788 0.34763 0.36347 0.0
C1693 C 0.88787 0.33633 0.36515 0.0
C1694 C 0.90408 0.35185 0.32473 0.0
C1695 C 0.91447 0.3639 0.3209 0.0
C1696 C 0.91367 0.37384 0.33282 0.0
C1697 C 0.92355 0.38515 0.3299 0.0
C1698 C 0.93426 0.38664 0.31486 0.0
C1699 C 0.93511 0.37683 0.30257 0.0
C1700 C 0.92526 0.36549 0.30545 0.0
C1701 C 0.87241 0.31243 0.20138 0.0
C1702 C 0.8808 0.31032 0.1815 0.0
C1703 C 0.87559 0.32006 0.2362 0.0
C1704 C 0.88717 0.32556 0.25214 0.0
C1705 C 0.89562 0.32367 0.23166 0.0
C1706 C 0.89248 0.31614 0.19664 0.0
C1707 C 0.89049 0.33305 0.29077 0.0
C1708 C 0.90031 0.34449 0.28887 0.0
C1709 C 0.88419 0.32891 0.32947 0.0
C1710 C 0.87422 0.31667 0.33442 0.0
C1711 C 0.87576 0.30696 0.32606 0.0
C1712 C 0.8663 0.29546 0.33057 0.0
C1713 C 0.85528 0.29354 0.34379 0.0
C1714 C 0.85371 0.30314 0.35264 0.0
C1715 C 0.86313 0.31467 0.34812 0.0
H1716 H 0.84797 0.28463 0.34727 0.0
H1717 H 0.9419 0.3954 0.31267 0.0
H1718 H 0.71212 0.57059 0.24593 0.0
H1719 H 0.69653 0.56046 0.29874 0.0
H1720 H 0.6702 0.55371 0.20323 0.0
H1721 H 0.68573 0.56399 0.15043 0.0
H1722 H 0.66633 0.56267 0.27303 0.0
H1723 H 0.67413 0.53143 0.24182 0.0
H1724 H 0.68639 0.52216 0.2322 0.0
H1725 H 0.69725 0.52913 0.36285 0.0
H1726 H 0.68519 0.53861 0.37312 0.0
H1727 H 0.61801 0.52736 0.40771 0.0
H1728 H 0.63188 0.53275 0.34842 0.0
H1729 H 0.66039 0.5419 0.43684 0.0
H1730 H 0.6466 0.53641 0.49621 0.0
H1731 H 0.66218 0.5304 0.36738 0.0
H1732 H 0.65586 0.56305 0.39659 0.0
H1733 H 0.64388 0.57261 0.40664 0.0
H1734 H 0.63049 0.56313 0.27942 0.0
H1735 H 0.64228 0.55336 0.26883 0.0
C1736 C 0.70301 0.56686 0.23607 0.0
C1737 C 0.70017 0.56814 0.19404 0.0
C1738 C 0.6941 0.56102 0.26624 0.0
C1739 C 0.68219 0.55625 0.25481 0.0
C1740 C 0.67933 0.55733 0.2127 0.0
C1741 C 0.68822 0.5632 0.18258 0.0
C1742 C 0.67277 0.55077 0.28732 0.0
C1743 C 0.66528 0.55546 0.29309 0.0
C1744 C 0.67159 0.54155 0.31415 0.0
C1745 C 0.67883 0.53582 0.30813 0.0
C1746 C 0.67921 0.53107 0.26842 0.0
C1747 C 0.68611 0.52576 0.26287 0.0
C1748 C 0.69262 0.52508 0.29687 0.0
C1749 C 0.69222 0.52968 0.33653 0.0
C1750 C 0.68533 0.53501 0.34225 0.0
C1751 C 0.62721 0.5304 0.41453 0.0
C1752 C 0.63123 0.53158 0.45667 0.0
C1753 C 0.63512 0.5335 0.38063 0.0
C1754 C 0.64717 0.53786 0.38833 0.0
C1755 C 0.65112 0.53856 0.43025 0.0
C1756 C 0.64323 0.53547 0.46413 0.0
C1757 C 0.65581 0.54234 0.35301 0.0
C1758 C 0.66316 0.53751 0.34687 0.0
C1759 C 0.6569 0.55145 0.32583 0.0
C1760 C 0.64985 0.55736 0.33209 0.0
C1761 C 0.65029 0.56292 0.37088 0.0
C1762 C 0.64355 0.56839 0.37665 0.0
C1763 C 0.6364 0.56845 0.34373 0.0
C1764 C 0.63601 0.56306 0.30492 0.0
C1765 C 0.64273 0.55756 0.29901 0.0
H1766 H 0.63119 0.57269 0.34826 0.0
H1767 H 0.69796 0.52097 0.2925 0.0
H1768 H 0.42335 0.11631 0.18237 0.0
H1769 H 0.42883 0.10865 0.24385 0.0
H1770 H 0.44644 0.14338 0.29997 0.0
H1771 H 0.44081 0.15113 0.23872 0.0
H1772 H 0.45926 0.12952 0.29981 0.0
H1773 H 0.42236 0.12708 0.33969 0.0
H1774 H 0.40157 0.12151 0.32798 0.0
H1775 H 0.39198 0.08503 0.31836 0.0
H1776 H 0.41276 0.09041 0.32935 0.0
H1777 H 0.46713 0.11072 0.50246 0.0
H1778 H 0.46287 0.1204 0.44421 0.0
H1779 H 0.43488 0.08652 0.40108 0.0
H1780 H 0.43871 0.07692 0.46066 0.0
H1781 H 0.42761 0.10114 0.39563 0.0
H1782 H 0.46331 0.10238 0.35175 0.0
H1783 H 0.48392 0.10681 0.35818 0.0
H1784 H 0.49569 0.14379 0.36912 0.0
H1785 H 0.47512 0.13957 0.36331 0.0
C1786 C 0.42846 0.12235 0.20762 0.0
C1787 C 0.43163 0.13432 0.20582 0.0
C1788 C 0.43155 0.11795 0.2427 0.0
C1789 C 0.43797 0.12546 0.27631 0.0
C1790 C 0.44147 0.13748 0.27419 0.0
C1791 C 0.43821 0.14187 0.23934 0.0
C1792 C 0.4407 0.12059 0.31415 0.0
C1793 C 0.45241 0.12346 0.3213 0.0
C1794 C 0.43166 0.11242 0.34109 0.0
C1795 C 0.41914 0.10916 0.33495 0.0
C1796 C 0.41584 0.11788 0.33472 0.0
C1797 C 0.40405 0.11476 0.32828 0.0
C1798 C 0.39546 0.10293 0.32233 0.0
C1799 C 0.39864 0.0942 0.32293 0.0
C1800 C 0.41042 0.09728 0.3293 0.0
C1801 C 0.46007 0.10536 0.48049 0.0
C1802 C 0.45326 0.09307 0.48593 0.0
C1803 C 0.45769 0.11088 0.44705 0.0
C1804 C 0.44869 0.10418 0.41769 0.0
C1805 C 0.44186 0.0919 0.42328 0.0
C1806 C 0.44407 0.08641 0.45727 0.0
C1807 C 0.44624 0.10994 0.38148 0.0
C1808 C 0.43454 0.10724 0.3745 0.0
C1809 C 0.45529 0.11808 0.35417 0.0
C1810 C 0.46767 0.12065 0.35754 0.0
C1811 C 0.47028 0.11145 0.35584 0.0
C1812 C 0.48196 0.11392 0.35932 0.0
C1813 C 0.49111 0.12557 0.36418 0.0
C1814 C 0.4886 0.13477 0.36543 0.0
C1815 C 0.47693 0.13235 0.36201 0.0
H1816 H 0.50014 0.12747 0.36688 0.0
H1817 H 0.38634 0.10053 0.31734 0.0
H1818 H 0.42574 0.28461 0.26194 0.0
H1819 H 0.43458 0.29929 0.31865 0.0
H1820 H 0.44739 0.32726 0.22571 0.0
H1821 H 0.43874 0.31269 0.16883 0.0
H1822 H 0.46374 0.33184 0.287 0.0
H1823 H 0.42243 0.31969 0.27984 0.0
H1824 H 0.40107 0.30537 0.27971 0.0
H1825 H 0.40375 0.29381 0.4049 0.0
H1826 H 0.42518 0.30796 0.40552 0.0
H1827 H 0.47131 0.37958 0.41887 0.0
H1828 H 0.46558 0.36441 0.36398 0.0
H1829 H 0.45317 0.33746 0.46081 0.0
H1830 H 0.45876 0.3525 0.51575 0.0
H1831 H 0.43707 0.33198 0.39893 0.0
H1832 H 0.47839 0.34511 0.40745 0.0
H1833 H 0.49969 0.35966 0.40721 0.0
H1834 H 0.497 0.36968 0.27947 0.0
H1835 H 0.47564 0.35529 0.27916 0.0
C1836 C 0.43052 0.29388 0.25353 0.0
C1837 C 0.43144 0.29749 0.21093 0.0
C1838 C 0.43554 0.30225 0.28597 0.0
C1839 C 0.4415 0.31436 0.27636 0.0
C1840 C 0.44281 0.31796 0.23378 0.0
C1841 C 0.43781 0.30961 0.20134 0.0
C1842 C 0.44591 0.32329 0.31072 0.0
C1843 C 0.45791 0.33195 0.31129 0.0
C1844 C 0.43831 0.32328 0.34277 0.0
C1845 C 0.42543 0.31479 0.34253 0.0
C1846 C 0.41848 0.31403 0.3072 0.0
C1847 C 0.40636 0.30596 0.30706 0.0
C1848 C 0.40106 0.29866 0.34223 0.0
C1849 C 0.40787 0.29945 0.37765 0.0
C1850 C 0.42 0.3075 0.37792 0.0
C1851 C 0.46745 0.37044 0.42848 0.0
C1852 C 0.46545 0.36724 0.47164 0.0
C1853 C 0.46422 0.36179 0.3971 0.0
C1854 C 0.45901 0.34983 0.4084 0.0
C1855 C 0.45717 0.34665 0.45146 0.0
C1856 C 0.46039 0.35526 0.48279 0.0
C1857 C 0.45492 0.34055 0.37531 0.0
C1858 C 0.44295 0.33184 0.37487 0.0
C1859 C 0.46254 0.34055 0.34338 0.0
C1860 C 0.47539 0.3492 0.34344 0.0
C1861 C 0.48232 0.35048 0.37943 0.0
C1862 C 0.49441 0.35869 0.37937 0.0
C1863 C 0.49969 0.36561 0.34339 0.0
C1864 C 0.49289 0.36432 0.30734 0.0
C1865 C 0.4808 0.35613 0.30725 0.0
H1866 H 0.50905 0.37196 0.3434 0.0
H1867 H 0.39168 0.29242 0.34206 0.0
H1868 H 0.68862 0.12835 0.16393 0.0
H1869 H 0.6749 0.12367 0.22307 0.0
H1870 H 0.69353 0.10986 0.29431 0.0
H1871 H 0.70724 0.11438 0.235 0.0
H1872 H 0.66988 0.09534 0.29797 0.0
H1873 H 0.69703 0.13665 0.31811 0.0
H1874 H 0.70844 0.15757 0.29691 0.0
H1875 H 0.67627 0.15771 0.27102 0.0
H1876 H 0.66466 0.13672 0.29151 0.0
H1877 H 0.64394 0.09175 0.49783 0.0
H1878 H 0.65829 0.09756 0.44029 0.0
H1879 H 0.63929 0.11092 0.36888 0.0
H1880 H 0.62491 0.10526 0.42668 0.0
H1881 H 0.66313 0.12578 0.3654 0.0
H1882 H 0.63601 0.08448 0.34466 0.0
H1883 H 0.62456 0.06356 0.36588 0.0
H1884 H 0.65667 0.0634 0.39258 0.0
H1885 H 0.66833 0.08439 0.37212 0.0
C1886 C 0.68982 0.12434 0.19219 0.0
C1887 C 0.69904 0.12176 0.19483 0.0
C1888 C 0.682 0.12171 0.22602 0.0
C1889 C 0.68329 0.11655 0.26322 0.0
C1890 C 0.69241 0.11388 0.26586 0.0
C1891 C 0.70024 0.11649 0.232 0.0
C1892 C 0.67498 0.11375 0.2991 0.0
C1893 C 0.66853 0.10202 0.31315 0.0
C1894 C 0.67302 0.12244 0.31808 0.0
C1895 C 0.67998 0.13508 0.30597 0.0
C1896 C 0.69239 0.14111 0.30759 0.0
C1897 C 0.69889 0.15299 0.29575 0.0
C1898 C 0.69308 0.15896 0.28253 0.0
C1899 C 0.68076 0.15307 0.28122 0.0
C1900 C 0.67421 0.14119 0.29298 0.0
C1901 C 0.64282 0.09597 0.46999 0.0
C1902 C 0.63323 0.09797 0.46668 0.0
C1903 C 0.65101 0.09925 0.43709 0.0
C1904 C 0.64974 0.10451 0.40012 0.0
C1905 C 0.64038 0.10683 0.39715 0.0
C1906 C 0.63217 0.10356 0.43013 0.0
C1907 C 0.65807 0.10738 0.36431 0.0
C1908 C 0.66451 0.11911 0.35024 0.0
C1909 C 0.66002 0.09869 0.34526 0.0
C1910 C 0.65304 0.08604 0.35724 0.0
C1911 C 0.64063 0.08001 0.35536 0.0
C1912 C 0.6341 0.06814 0.3672 0.0
C1913 C 0.63988 0.06216 0.38067 0.0
C1914 C 0.65221 0.06805 0.3822 0.0
C1915 C 0.65878 0.07993 0.37045 0.0
H1916 H 0.63481 0.05297 0.38984 0.0
H1917 H 0.69814 0.16816 0.27337 0.0
H1918 H 0.89524 0.51599 0.42625 0.0
H1919 H 0.88603 0.52149 0.36971 0.0
H1920 H 0.88835 0.54965 0.44807 0.0
H1921 H 0.89728 0.54409 0.50486 0.0
H1922 H 0.8676 0.53856 0.40782 0.0
H1923 H 0.90876 0.55479 0.36994 0.0
H1924 H 0.92666 0.55372 0.35387 0.0
H1925 H 0.90874 0.53003 0.25031 0.0
H1926 H 0.89068 0.53085 0.26612 0.0
H1927 H 0.86679 0.57906 0.26102 0.0
H1928 H 0.87118 0.56854 0.31562 0.0
H1929 H 0.86802 0.54289 0.22249 0.0
H1930 H 0.8639 0.55352 0.16745 0.0
H1931 H 0.88742 0.55023 0.26735 0.0
H1932 H 0.84686 0.53593 0.30047 0.0
H1933 H 0.82915 0.53736 0.31645 0.0
H1934 H 0.84587 0.55754 0.42868 0.0
H1935 H 0.86374 0.55638 0.41307 0.0
C1936 C 0.89372 0.52331 0.4315 0.0
C1937 C 0.89708 0.52966 0.4699 0.0
C1938 C 0.88849 0.52645 0.39915 0.0
C1939 C 0.88664 0.53607 0.40453 0.0
C1940 C 0.88968 0.5422 0.44326 0.0
C1941 C 0.89485 0.53903 0.47562 0.0
C1942 C 0.88195 0.5401 0.36947 0.0
C1943 C 0.87196 0.54118 0.37715 0.0
C1944 C 0.88747 0.54322 0.32914 0.0
C1945 C 0.89834 0.54277 0.31951 0.0
C1946 C 0.90861 0.54929 0.34394 0.0
C1947 C 0.91879 0.54874 0.33485 0.0
C1948 C 0.91883 0.54179 0.30117 0.0
C1949 C 0.90869 0.5354 0.27643 0.0
C1950 C 0.89849 0.5359 0.28543 0.0
C1951 C 0.86691 0.57112 0.25222 0.0
C1952 C 0.86503 0.56715 0.2099 0.0
C1953 C 0.86936 0.56507 0.28353 0.0
C1954 C 0.8698 0.55485 0.27323 0.0
C1955 C 0.86771 0.55075 0.23114 0.0
C1956 C 0.86535 0.55683 0.19975 0.0
C1957 C 0.87316 0.54889 0.30585 0.0
C1958 C 0.88293 0.54745 0.29774 0.0
C1959 C 0.86744 0.54547 0.34579 0.0
C1960 C 0.85668 0.54614 0.35541 0.0
C1961 C 0.84679 0.54075 0.3284 0.0
C1962 C 0.83672 0.5415 0.33742 0.0
C1963 C 0.83639 0.54756 0.37351 0.0
C1964 C 0.84613 0.55286 0.40072 0.0
C1965 C 0.85623 0.55214 0.39183 0.0
H1966 H 0.82859 0.54813 0.38043 0.0
H1967 H 0.92672 0.54137 0.29418 0.0
H1968 H 0.54637 0.64295 0.49635 0.0
H1969 H 0.55343 0.65704 0.55484 0.0
H1970 H 0.52747 0.63065 0.63822 0.0
H1971 H 0.52022 0.6164 0.57949 0.0
H1972 H 0.52959 0.65278 0.64853 0.0
H1973 H 0.5549 0.63615 0.64456 0.0
H1974 H 0.568 0.62998 0.61105 0.0
H1975 H 0.5922 0.66588 0.5758 0.0
H1976 H 0.57915 0.67225 0.60856 0.0
H1977 H 0.55808 0.68488 0.83738 0.0
H1978 H 0.54883 0.66966 0.78272 0.0
H1979 H 0.57448 0.69292 0.69109 0.0
H1980 H 0.58388 0.70813 0.74561 0.0
H1981 H 0.57188 0.67122 0.68834 0.0
H1982 H 0.54628 0.68777 0.68988 0.0
H1983 H 0.53313 0.69398 0.72264 0.0
H1984 H 0.50951 0.65834 0.76237 0.0
H1985 H 0.52261 0.65193 0.73033 0.0
C1986 C 0.5421 0.64012 0.52703 0.0
C1987 C 0.5328 0.62851 0.53338 0.0
C1988 C 0.54618 0.64819 0.56045 0.0
C1989 C 0.54109 0.64482 0.60094 0.0
C1990 C 0.53154 0.63338 0.60717 0.0
C1991 C 0.52744 0.62526 0.57365 0.0
C1992 C 0.54603 0.65323 0.63678 0.0
C1993 C 0.53879 0.65669 0.65778 0.0
C1994 C 0.55808 0.65845 0.64819 0.0
C1995 C 0.56599 0.65466 0.62872 0.0
C1996 C 0.56297 0.64272 0.62939 0.0
C1997 C 0.57039 0.63919 0.61057 0.0
C1998 C 0.58091 0.64753 0.59123 0.0
C1999 C 0.58404 0.65943 0.59076 0.0
C2000 C 0.57664 0.66301 0.60949 0.0
C2001 C 0.56173 0.68678 0.80556 0.0
C2002 C 0.57172 0.69772 0.79582 0.0
C2003 C 0.5564 0.67808 0.77434 0.0
C2004 C 0.56092 0.6802 0.7328 0.0
C2005 C 0.57086 0.69111 0.72298 0.0
C2006 C 0.5762 0.69981 0.75416 0.0
C2007 C 0.5555 0.67094 0.69973 0.0
C2008 C 0.56267 0.66729 0.6793 0.0
C2009 C 0.54339 0.66557 0.68892 0.0
C2010 C 0.53549 0.6694 0.70812 0.0
C2011 C 0.53833 0.68127 0.70592 0.0
C2012 C 0.53088 0.68483 0.7243 0.0
C2013 C 0.52051 0.67657 0.74468 0.0
C2014 C 0.51756 0.66473 0.74663 0.0
C2015 C 0.52499 0.66113 0.72834 0.0
H2016 H 0.51474 0.67934 0.75888 0.0
H2017 H 0.58665 0.64478 0.57667 0.0
H2018 H 0.3038 0.86577 0.81354 0.0
H2019 H 0.31547 0.87056 0.74803 0.0
H2020 H 0.31816 0.90479 0.74491 0.0
H2021 H 0.30664 0.90015 0.8105 0.0
H2022 H 0.31118 0.8921 0.66645 0.0
H2023 H 0.34099 0.9037 0.77564 0.0
H2024 H 0.34995 0.90041 0.83938 0.0
H2025 H 0.35222 0.87264 0.77515 0.0
H2026 H 0.3431 0.87565 0.71119 0.0
H2027 H 0.35595 0.92348 0.51578 0.0
H2028 H 0.3435 0.91654 0.57898 0.0
H2029 H 0.34802 0.88607 0.58468 0.0
H2030 H 0.36077 0.89313 0.52198 0.0
H2031 H 0.35057 0.89526 0.66086 0.0
H2032 H 0.32187 0.88382 0.55091 0.0
H2033 H 0.31244 0.88624 0.48681 0.0
H2034 H 0.30726 0.91228 0.55097 0.0
H2035 H 0.31682 0.91014 0.6153 0.0
C2036 C 0.30692 0.87433 0.79896 0.0
C2037 C 0.30434 0.8826 0.81717 0.0
C2038 C 0.31358 0.87705 0.76164 0.0
C2039 C 0.31766 0.88802 0.74183 0.0
C2040 C 0.31506 0.89626 0.75981 0.0
C2041 C 0.30854 0.89362 0.79736 0.0
C2042 C 0.3246 0.89093 0.70214 0.0
C2043 C 0.31984 0.89292 0.66518 0.0
C2044 C 0.3357 0.89158 0.70047 0.0
C2045 C 0.34124 0.88981 0.73881 0.0
C2046 C 0.3433 0.89682 0.77524 0.0
C2047 C 0.34843 0.89502 0.81138 0.0
C2048 C 0.35162 0.88629 0.81136 0.0
C2049 C 0.34972 0.87938 0.77514 0.0
C2050 C 0.34458 0.88113 0.73893 0.0
C2051 C 0.35424 0.91526 0.53029 0.0
C2052 C 0.35932 0.90883 0.51382 0.0
C2053 C 0.34708 0.91128 0.56634 0.0
C2054 C 0.3447 0.9007 0.58624 0.0
C2055 C 0.34973 0.89424 0.56979 0.0
C2056 C 0.35698 0.89827 0.5339 0.0
C2057 C 0.33724 0.8966 0.62496 0.0
C2058 C 0.34187 0.89437 0.66183 0.0
C2059 C 0.32595 0.89558 0.62643 0.0
C2060 C 0.32016 0.89689 0.58782 0.0
C2061 C 0.31881 0.89013 0.55125 0.0
C2062 C 0.31342 0.89144 0.51489 0.0
C2063 C 0.30927 0.89943 0.51479 0.0
C2064 C 0.31048 0.9061 0.55109 0.0
C2065 C 0.31588 0.90483 0.58752 0.0
H2066 H 0.3051 0.90043 0.48661 0.0
H2067 H 0.35559 0.88491 0.83937 0.0
H2068 H 0.14154 0.4275 0.74027 0.0
H2069 H 0.13531 0.43656 0.68561 0.0
H2070 H 0.11588 0.44393 0.77984 0.0
H2071 H 0.12191 0.43478 0.83441 0.0
H2072 H 0.10265 0.43368 0.71162 0.0
H2073 H 0.14152 0.46599 0.73833 0.0
H2074 H 0.16316 0.47591 0.74606 0.0
H2075 H 0.16641 0.46792 0.61604 0.0
H2076 H 0.14477 0.4578 0.60769 0.0
H2077 H 0.088 0.46841 0.58116 0.0
H2078 H 0.09707 0.46299 0.63828 0.0
H2079 H 0.11551 0.45389 0.54558 0.0
H2080 H 0.10659 0.4594 0.48826 0.0
H2081 H 0.12955 0.46569 0.61392 0.0
H2082 H 0.09066 0.43262 0.5887 0.0
H2083 H 0.06902 0.4227 0.58099 0.0
H2084 H 0.06592 0.43222 0.70906 0.0
H2085 H 0.08758 0.44234 0.71732 0.0
C2086 C 0.13602 0.43113 0.74939 0.0
C2087 C 0.13217 0.43037 0.79161 0.0
C2088 C 0.13251 0.43636 0.71817 0.0
C2089 C 0.12519 0.44098 0.72875 0.0
C2090 C 0.12152 0.4404 0.771 0.0
C2091 C 0.12499 0.43517 0.80215 0.0
C2092 C 0.1208 0.44584 0.69549 0.0
C2093 C 0.10855 0.44082 0.69073 0.0
C2094 C 0.12849 0.45495 0.6676 0.0
C2095 C 0.14151 0.46103 0.67252 0.0
C2096 C 0.14684 0.46626 0.71149 0.0
C2097 C 0.15911 0.47194 0.71596 0.0
C2098 C 0.16615 0.47252 0.6816 0.0
C2099 C 0.16094 0.46745 0.64265 0.0
C2100 C 0.14868 0.46175 0.63802 0.0
C2101 C 0.09406 0.46535 0.57291 0.0
C2102 C 0.09648 0.46422 0.53018 0.0
C2103 C 0.09921 0.46224 0.60558 0.0
C2104 C 0.10684 0.4579 0.59606 0.0
C2105 C 0.10964 0.4572 0.55353 0.0
C2106 C 0.10448 0.4603 0.52085 0.0
C2107 C 0.11144 0.45355 0.6303 0.0
C2108 C 0.1237 0.45862 0.63508 0.0
C2109 C 0.10376 0.44448 0.6583 0.0
C2110 C 0.09074 0.43835 0.65347 0.0
C2111 C 0.08537 0.43268 0.6151 0.0
C2112 C 0.0731 0.42701 0.61065 0.0
C2113 C 0.0661 0.42686 0.64448 0.0
C2114 C 0.07136 0.43236 0.68287 0.0
C2115 C 0.08362 0.43806 0.68746 0.0
H2116 H 0.0566 0.42246 0.64097 0.0
H2117 H 0.17565 0.47693 0.68512 0.0
H2118 H 0.10267 0.69612 0.80302 0.0
H2119 H 0.09764 0.68359 0.74026 0.0
H2120 H 0.12935 0.68155 0.75616 0.0
H2121 H 0.13464 0.69443 0.81855 0.0
H2122 H 0.12634 0.68458 0.67521 0.0
H2123 H 0.10205 0.65827 0.78384 0.0
H2124 H 0.08787 0.65123 0.84332 0.0
H2125 H 0.06143 0.65123 0.76234 0.0
H2126 H 0.07551 0.65842 0.70249 0.0
H2127 H 0.10528 0.63585 0.52823 0.0
H2128 H 0.11244 0.64808 0.59237 0.0
H2129 H 0.08467 0.65659 0.58056 0.0
H2130 H 0.07749 0.64446 0.51656 0.0
H2131 H 0.08654 0.64916 0.66181 0.0
H2132 H 0.11187 0.67658 0.55414 0.0
H2133 H 0.12631 0.68316 0.49551 0.0
H2134 H 0.15109 0.68014 0.57658 0.0
H2135 H 0.13672 0.67338 0.63556 0.0
C2136 C 0.10857 0.693 0.79327 0.0
C2137 C 0.11901 0.6962 0.81589 0.0
C2138 C 0.10566 0.68578 0.75746 0.0
C2139 C 0.11301 0.68144 0.74397 0.0
C2140 C 0.12353 0.68476 0.76613 0.0
C2141 C 0.12652 0.69209 0.80179 0.0
C2142 C 0.10969 0.67354 0.70647 0.0
C2143 C 0.11771 0.67672 0.6726 0.0
C2144 C 0.09839 0.66335 0.70287 0.0
C2145 C 0.08987 0.65897 0.73876 0.0
C2146 C 0.09324 0.65685 0.77879 0.0
C2147 C 0.08521 0.65282 0.81256 0.0
C2148 C 0.07377 0.65081 0.80664 0.0
C2149 C 0.07031 0.6528 0.76689 0.0
C2150 C 0.0783 0.65684 0.73301 0.0
C2151 C 0.10074 0.64038 0.53919 0.0
C2152 C 0.09081 0.63919 0.51737 0.0
C2153 C 0.10486 0.64738 0.57573 0.0
C2154 C 0.09909 0.65324 0.59104 0.0
C2155 C 0.08922 0.65211 0.56921 0.0
C2156 C 0.08516 0.64521 0.53258 0.0
C2157 C 0.10309 0.66034 0.63043 0.0
C2158 C 0.0952 0.65698 0.66468 0.0
C2159 C 0.11454 0.67026 0.63452 0.0
C2160 C 0.12317 0.67435 0.59911 0.0
C2161 C 0.12036 0.67722 0.55935 0.0
C2162 C 0.12854 0.681 0.52608 0.0
C2163 C 0.13959 0.68203 0.53227 0.0
C2164 C 0.14251 0.67931 0.5718 0.0
C2165 C 0.13436 0.67551 0.60517 0.0
H2166 H 0.14591 0.68497 0.50648 0.0
H2167 H 0.06757 0.64769 0.83283 0.0
H2168 H 0.29215 0.44215 0.76074 0.0
H2169 H 0.30706 0.45107 0.70467 0.0
H2170 H 0.32888 0.43992 0.76962 0.0
H2171 H 0.31414 0.43109 0.82583 0.0
H2172 H 0.34175 0.46258 0.73918 0.0
H2173 H 0.31183 0.4241 0.68764 0.0
H2174 H 0.29151 0.40895 0.66859 0.0
H2175 H 0.2898 0.43264 0.57814 0.0
H2176 H 0.31007 0.44799 0.59708 0.0
H2177 H 0.37943 0.46142 0.58152 0.0
H2178 H 0.36514 0.45759 0.63791 0.0
H2179 H 0.345 0.46665 0.55279 0.0
H2180 H 0.35908 0.47013 0.49575 0.0
H2181 H 0.3309 0.4472 0.59206 0.0
H2182 H 0.3615 0.48499 0.63699 0.0
H2183 H 0.38177 0.50035 0.65558 0.0
H2184 H 0.38227 0.47881 0.75769 0.0
H2185 H 0.36206 0.46324 0.73935 0.0
C2186 C 0.30015 0.44165 0.76318 0.0
C2187 C 0.30192 0.43583 0.79755 0.0
C2188 C 0.30864 0.44673 0.73112 0.0
C2189 C 0.31902 0.44606 0.73289 0.0
C2190 C 0.32094 0.44054 0.76771 0.0
C2191 C 0.31247 0.43544 0.79968 0.0
C2192 C 0.32771 0.45066 0.69778 0.0
C2193 C 0.33942 0.45919 0.70701 0.0
C2194 C 0.32456 0.44648 0.65565 0.0
C2195 C 0.3124 0.43723 0.64411 0.0
C2196 C 0.30709 0.42611 0.66393 0.0
C2197 C 0.29559 0.41748 0.65311 0.0
C2198 C 0.28935 0.41984 0.62227 0.0
C2199 C 0.29462 0.43083 0.60208 0.0
C2200 C 0.30612 0.43949 0.61282 0.0
C2201 C 0.37202 0.4627 0.5749 0.0
C2202 C 0.37036 0.46604 0.53417 0.0
C2203 C 0.36389 0.46058 0.60727 0.0
C2204 C 0.35407 0.46198 0.59979 0.0
C2205 C 0.35251 0.46552 0.55931 0.0
C2206 C 0.36057 0.46752 0.52677 0.0
C2207 C 0.34506 0.45903 0.63343 0.0
C2208 C 0.33326 0.45077 0.62399 0.0
C2209 C 0.34814 0.46353 0.67529 0.0
C2210 C 0.36028 0.47291 0.68658 0.0
C2211 C 0.36596 0.48349 0.66322 0.0
C2212 C 0.37743 0.49224 0.67375 0.0
C2213 C 0.38331 0.49055 0.70774 0.0
C2214 C 0.37771 0.48011 0.73135 0.0
C2215 C 0.36624 0.47132 0.72094 0.0
H2216 H 0.39219 0.49734 0.71583 0.0
H2217 H 0.28045 0.41315 0.61393 0.0
H2218 H 0.59574 0.88476 0.76015 0.0
H2219 H 0.58846 0.89041 0.69811 0.0
H2220 H 0.55336 0.87297 0.75121 0.0
H2221 H 0.56056 0.86725 0.8136 0.0
H2222 H 0.55386 0.86799 0.66519 0.0
H2223 H 0.56885 0.9018 0.75651 0.0
H2224 H 0.58362 0.91766 0.80208 0.0
H2225 H 0.60743 0.93174 0.69623 0.0
H2226 H 0.59287 0.91585 0.65015 0.0
H2227 H 0.52987 0.89382 0.52725 0.0
H2228 H 0.53628 0.88711 0.5889 0.0
H2229 H 0.57227 0.90637 0.54424 0.0
H2230 H 0.56596 0.91326 0.48277 0.0
H2231 H 0.57092 0.91025 0.62714 0.0
H2232 H 0.55611 0.87642 0.53581 0.0
H2233 H 0.54147 0.86051 0.49009 0.0
H2234 H 0.51744 0.84644 0.59536 0.0
H2235 H 0.53188 0.86237 0.64159 0.0
C2236 C 0.58646 0.8821 0.75867 0.0
C2237 C 0.57873 0.8756 0.79186 0.0
C2238 C 0.58234 0.88536 0.72325 0.0
C2239 C 0.57041 0.88219 0.72034 0.0
C2240 C 0.5626 0.87551 0.75299 0.0
C2241 C 0.56674 0.8723 0.78862 0.0
C2242 C 0.56614 0.88593 0.68323 0.0
C2243 C 0.55745 0.87723 0.65712 0.0
C2244 C 0.57104 0.89797 0.67238 0.0
C2245 C 0.57981 0.90756 0.69998 0.0
C2246 C 0.57728 0.90821 0.74303 0.0
C2247 C 0.5856 0.91722 0.76894 0.0
C2248 C 0.59647 0.92568 0.75209 0.0
C2249 C 0.59902 0.92517 0.70925 0.0
C2250 C 0.59072 0.91617 0.68322 0.0
C2251 C 0.53914 0.89657 0.53039 0.0
C2252 C 0.54741 0.90406 0.50009 0.0
C2253 C 0.54278 0.8927 0.56558 0.0
C2254 C 0.55473 0.89616 0.57094 0.0
C2255 C 0.563 0.90359 0.54067 0.0
C2256 C 0.55937 0.90749 0.50551 0.0
C2257 C 0.55868 0.89232 0.60876 0.0
C2258 C 0.56731 0.90101 0.63512 0.0
C2259 C 0.55373 0.88026 0.61975 0.0
C2260 C 0.54503 0.87066 0.59204 0.0
C2261 C 0.54766 0.86999 0.54912 0.0
C2262 C 0.53941 0.86096 0.52313 0.0
C2263 C 0.52852 0.85249 0.53978 0.0
C2264 C 0.52587 0.85302 0.58249 0.0
C2265 C 0.5341 0.86204 0.60861 0.0
H2266 H 0.52214 0.8455 0.51961 0.0
H2267 H 0.6029 0.93265 0.77219 0.0
H2268 H 0.37764 0.1103 0.09029 0.0
H2269 H 0.35681 0.09921 0.11044 0.0
H2270 H 0.36268 0.12572 0.20401 0.0
H2271 H 0.38354 0.13677 0.18458 0.0
H2272 H 0.34985 0.10407 0.23653 0.0
H2273 H 0.34886 0.12406 0.10984 0.0
H2274 H 0.35283 0.13011 0.03462 0.0
H2275 H 0.33285 0.09384 0.99567 0.0
H2276 H 0.32889 0.08756 0.07073 0.0
H2277 H 0.29006 0.08744 0.27716 0.0
H2278 H 0.3109 0.09796 0.25711 0.0
H2279 H 0.30436 0.07078 0.16559 0.0
H2280 H 0.28348 0.06027 0.18503 0.0
H2281 H 0.31751 0.09244 0.13185 0.0
H2282 H 0.31823 0.07249 0.25882 0.0
H2283 H 0.31425 0.06654 0.33412 0.0
H2284 H 0.33472 0.1028 0.37264 0.0
H2285 H 0.33869 0.109 0.29752 0.0
C2286 C 0.37449 0.1138 0.11502 0.0
C2287 C 0.38225 0.12443 0.13579 0.0
C2288 C 0.36257 0.10747 0.12642 0.0
C2289 C 0.35817 0.11169 0.15848 0.0
C2290 C 0.3659 0.1223 0.1792 0.0
C2291 C 0.37781 0.12862 0.16793 0.0
C2292 C 0.34556 0.10498 0.17101 0.0
C2293 C 0.34278 0.10165 0.21375 0.0
C2294 C 0.33634 0.10159 0.14108 0.0
C2295 C 0.33868 0.10534 0.09592 0.0
C2296 C 0.34539 0.11737 0.08525 0.0
C2297 C 0.34762 0.12084 0.04264 0.0
C2298 C 0.34312 0.11236 0.01039 0.0
C2299 C 0.33634 0.10039 0.02069 0.0
C2300 C 0.3341 0.09688 0.06326 0.0
C2301 C 0.29306 0.08366 0.25292 0.0
C2302 C 0.28511 0.07301 0.23273 0.0
C2303 C 0.30498 0.08966 0.2416 0.0
C2304 C 0.3092 0.08509 0.21011 0.0
C2305 C 0.30129 0.07445 0.18998 0.0
C2306 C 0.28937 0.06844 0.20125 0.0
C2307 C 0.3218 0.09156 0.19739 0.0
C2308 C 0.32458 0.09483 0.15462 0.0
C2309 C 0.33102 0.09492 0.22731 0.0
C2310 C 0.32866 0.09122 0.27252 0.0
C2311 C 0.3218 0.07921 0.28334 0.0
C2312 C 0.31956 0.07579 0.32599 0.0
C2313 C 0.3242 0.08429 0.35814 0.0
C2314 C 0.33112 0.09623 0.3477 0.0
C2315 C 0.33337 0.0997 0.30509 0.0
H2316 H 0.32246 0.08162 0.39114 0.0
H2317 H 0.34485 0.11506 0.97742 0.0
H2318 H 0.88814 0.27283 0.13995 0.0
H2319 H 0.89815 0.26223 0.16281 0.0
H2320 H 0.87383 0.232 0.08866 0.0
H2321 H 0.86365 0.24248 0.06603 0.0
H2322 H 0.87678 0.22564 0.16735 0.0
H2323 H 0.9019 0.25003 0.0545 0.0
H2324 H 0.91424 0.26868 0.01607 0.0
H2325 H 0.9374 0.28252 0.12376 0.0
H2326 H 0.9251 0.264 0.16307 0.0
H2327 H 0.90763 0.19405 0.16771 0.0
H2328 H 0.89782 0.20505 0.14813 0.0
H2329 H 0.92298 0.23471 0.22272 0.0
H2330 H 0.933 0.2238 0.24204 0.0
H2331 H 0.91972 0.24165 0.14588 0.0
H2332 H 0.89489 0.2171 0.25822 0.0
H2333 H 0.88257 0.19845 0.29669 0.0
H2334 H 0.85887 0.18493 0.19034 0.0
H2335 H 0.87115 0.20345 0.15097 0.0
C2336 C 0.88494 0.26394 0.12832 0.0
C2337 C 0.87511 0.2585 0.10108 0.0
C2338 C 0.8907 0.25791 0.14133 0.0
C2339 C 0.88679 0.24637 0.12713 0.0
C2340 C 0.87698 0.24091 0.09996 0.0
C2341 C 0.87121 0.24693 0.08695 0.0
C2342 C 0.89281 0.2399 0.14122 0.0
C2343 C 0.88614 0.22906 0.16217 0.0
C2344 C 0.90508 0.24454 0.13549 0.0
C2345 C 0.91251 0.25567 0.11188 0.0
C2346 C 0.90957 0.25709 0.07012 0.0
C2347 C 0.91657 0.26763 0.04815 0.0
C2348 C 0.92658 0.27679 0.0675 0.0
C2349 C 0.92963 0.27542 0.10883 0.0
C2350 C 0.92266 0.2649 0.13095 0.0
C2351 C 0.91106 0.20289 0.18018 0.0
C2352 C 0.9211 0.20804 0.20651 0.0
C2353 C 0.9054 0.20915 0.16907 0.0
C2354 C 0.90959 0.22065 0.18434 0.0
C2355 C 0.91959 0.22583 0.21066 0.0
C2356 C 0.92529 0.21957 0.22176 0.0
C2357 C 0.90368 0.22735 0.17182 0.0
C2358 C 0.91037 0.23824 0.15118 0.0
C2359 C 0.89142 0.22277 0.17786 0.0
C2360 C 0.884 0.21163 0.2015 0.0
C2361 C 0.8871 0.21012 0.2429 0.0
C2362 C 0.88012 0.19958 0.26489 0.0
C2363 C 0.86996 0.1905 0.24593 0.0
C2364 C 0.86675 0.19196 0.20497 0.0
C2365 C 0.87371 0.20249 0.18282 0.0
H2366 H 0.86456 0.18235 0.26301 0.0
H2367 H 0.93199 0.28495 0.05044 0.0
H2368 H 0.72884 0.62424 0.10831 0.0
H2369 H 0.73811 0.64458 0.13428 0.0
H2370 H 0.76503 0.64019 0.19687 0.0
H2371 H 0.75573 0.61984 0.17168 0.0
H2372 H 0.75701 0.65099 0.24804 0.0
H2373 H 0.77061 0.65539 0.10337 0.0
H2374 H 0.7684 0.65269 0.02565 0.0
H2375 H 0.74834 0.67051 0.02246 0.0
H2376 H 0.7503 0.67318 0.1003 0.0
H2377 H 0.80043 0.71081 0.28386 0.0
H2378 H 0.78924 0.69021 0.26134 0.0
H2379 H 0.76348 0.69684 0.20114 0.0
H2380 H 0.77471 0.71753 0.22296 0.0
H2381 H 0.76992 0.68485 0.14942 0.0
H2382 H 0.75715 0.68127 0.29407 0.0
H2383 H 0.75955 0.68405 0.37172 0.0
H2384 H 0.77815 0.66475 0.37509 0.0
H2385 H 0.776 0.66199 0.29734 0.0
C2386 C 0.73674 0.62761 0.12753 0.0
C2387 C 0.74156 0.62043 0.13783 0.0
C2388 C 0.74205 0.63925 0.14225 0.0
C2389 C 0.75232 0.64393 0.16721 0.0
C2390 C 0.7571 0.63675 0.1777 0.0
C2391 C 0.75179 0.62513 0.16312 0.0
C2392 C 0.7581 0.6563 0.1826 0.0
C2393 C 0.75995 0.6584 0.22646 0.0
C2394 C 0.76166 0.66595 0.15451 0.0
C2395 C 0.7605 0.66437 0.10771 0.0
C2396 C 0.76565 0.65865 0.08614 0.0
C2397 C 0.76445 0.65714 0.04206 0.0
C2398 C 0.7582 0.6614 0.01915 0.0
C2399 C 0.75316 0.6672 0.04026 0.0
C2400 C 0.75432 0.66873 0.08435 0.0
C2401 C 0.79233 0.70788 0.26614 0.0
C2402 C 0.78847 0.71582 0.25522 0.0
C2403 C 0.78592 0.69608 0.25342 0.0
C2404 C 0.77546 0.69196 0.22987 0.0
C2405 C 0.77152 0.69983 0.2193 0.0
C2406 C 0.77794 0.71164 0.23193 0.0
C2407 C 0.76891 0.67955 0.21487 0.0
C2408 C 0.76692 0.67743 0.17106 0.0
C2409 C 0.76523 0.6699 0.24302 0.0
C2410 C 0.76651 0.67151 0.28981 0.0
C2411 C 0.76183 0.67769 0.31131 0.0
C2412 C 0.76313 0.67925 0.35536 0.0
C2413 C 0.76902 0.6746 0.37831 0.0
C2414 C 0.7736 0.66836 0.35726 0.0
C2415 C 0.77233 0.66678 0.31321 0.0
H2416 H 0.77002 0.67582 0.4124 0.0
H2417 H 0.75729 0.66022 0.98502 0.0
H2418 H 0.08864 0.28089 0.82533 0.0
H2419 H 0.09789 0.30145 0.84824 0.0
H2420 H 0.07109 0.30531 0.78239 0.0
H2421 H 0.06177 0.28472 0.75907 0.0
H2422 H 0.09342 0.32421 0.76942 0.0
H2423 H 0.06933 0.30189 0.88724 0.0
H2424 H 0.06185 0.28625 0.94174 0.0
H2425 H 0.09655 0.30134 0.99596 0.0
H2426 H 0.10427 0.31698 0.94134 0.0
H2427 H 0.10661 0.37847 0.86519 0.0
H2428 H 0.09616 0.35781 0.84294 0.0
H2429 H 0.12113 0.35176 0.91213 0.0
H2430 H 0.13153 0.37237 0.93513 0.0
H2431 H 0.09902 0.33385 0.92334 0.0
H2432 H 0.1233 0.3557 0.8047 0.0
H2433 H 0.13102 0.37123 0.74976 0.0
H2434 H 0.09626 0.35698 0.69685 0.0
H2435 H 0.0883 0.34145 0.75187 0.0
C2436 C 0.08472 0.28611 0.81552 0.0
C2437 C 0.07443 0.28115 0.79053 0.0
C2438 C 0.09 0.29784 0.8288 0.0
C2439 C 0.08508 0.30484 0.81746 0.0
C2440 C 0.07499 0.30003 0.79159 0.0
C2441 C 0.06967 0.28827 0.77839 0.0
C2442 C 0.09043 0.31716 0.83295 0.0
C2443 C 0.09449 0.32632 0.80307 0.0
C2444 C 0.09204 0.31989 0.87686 0.0
C2445 C 0.0874 0.31055 0.90995 0.0
C2446 C 0.07538 0.30183 0.91058 0.0
C2447 C 0.0711 0.29297 0.94152 0.0
C2448 C 0.07873 0.29279 0.97223 0.0
C2449 C 0.09065 0.30148 0.97212 0.0
C2450 C 0.09499 0.31035 0.9412 0.0
C2451 C 0.10985 0.37274 0.8759 0.0
C2452 C 0.11995 0.37709 0.90173 0.0
C2453 C 0.10389 0.36094 0.86299 0.0
C2454 C 0.10797 0.35329 0.87535 0.0
C2455 C 0.11785 0.35752 0.90213 0.0
C2456 C 0.1238 0.36931 0.91517 0.0
C2457 C 0.10208 0.34094 0.8598 0.0
C2458 C 0.09792 0.33175 0.88968 0.0
C2459 C 0.10041 0.33819 0.81589 0.0
C2460 C 0.10518 0.34749 0.78267 0.0
C2461 C 0.11729 0.35593 0.78155 0.0
C2462 C 0.12171 0.36472 0.75036 0.0
C2463 C 0.11413 0.36511 0.7199 0.0
C2464 C 0.10212 0.35668 0.7205 0.0
C2465 C 0.09765 0.34787 0.75166 0.0
H2466 H 0.11757 0.37192 0.69578 0.0
H2467 H 0.07539 0.28592 0.99617 0.0
H2468 H 0.70839 0.80264 0.73482 0.0
H2469 H 0.68758 0.79224 0.75544 0.0
H2470 H 0.69279 0.76675 0.8248 0.0
H2471 H 0.71359 0.77704 0.8041 0.0
H2472 H 0.67244 0.7563 0.77798 0.0
H2473 H 0.69161 0.78848 0.87715 0.0
H2474 H 0.70399 0.80933 0.89826 0.0
H2475 H 0.68046 0.81807 0.83355 0.0
H2476 H 0.66802 0.79729 0.81154 0.0
H2477 H 0.62026 0.7306 0.90146 0.0
H2478 H 0.64094 0.74102 0.87936 0.0
H2479 H 0.63566 0.76726 0.81591 0.0
H2480 H 0.61502 0.75703 0.83854 0.0
H2481 H 0.656 0.77742 0.85863 0.0
H2482 H 0.6367 0.74547 0.75985 0.0
H2483 H 0.62423 0.72472 0.73778 0.0
H2484 H 0.64784 0.71562 0.79987 0.0
H2485 H 0.66037 0.7363 0.82286 0.0
C2486 C 0.70511 0.79479 0.75428 0.0
C2487 C 0.71267 0.7907 0.768 0.0
C2488 C 0.69322 0.78889 0.76617 0.0
C2489 C 0.68869 0.77881 0.79206 0.0
C2490 C 0.69613 0.77453 0.80488 0.0
C2491 C 0.70802 0.78044 0.7931 0.0
C2492 C 0.67622 0.77281 0.80631 0.0
C2493 C 0.66887 0.76086 0.79607 0.0
C2494 C 0.67152 0.77887 0.82899 0.0
C2495 C 0.67895 0.79136 0.84234 0.0
C2496 C 0.68913 0.79487 0.86713 0.0
C2497 C 0.69614 0.80667 0.87931 0.0
C2498 C 0.69303 0.81502 0.86715 0.0
C2499 C 0.68287 0.81159 0.84289 0.0
C2500 C 0.67583 0.7998 0.83058 0.0
C2501 C 0.6235 0.73861 0.88295 0.0
C2502 C 0.61598 0.74295 0.87158 0.0
C2503 C 0.63531 0.74453 0.87016 0.0
C2504 C 0.63979 0.75482 0.84543 0.0
C2505 C 0.63237 0.75932 0.83487 0.0
C2506 C 0.62057 0.75344 0.84777 0.0
C2507 C 0.65221 0.76087 0.83042 0.0
C2508 C 0.65955 0.77284 0.8405 0.0
C2509 C 0.65689 0.75484 0.8074 0.0
C2510 C 0.64941 0.74241 0.79343 0.0
C2511 C 0.63918 0.73903 0.76908 0.0
C2512 C 0.63211 0.72729 0.75636 0.0
C2513 C 0.63522 0.71886 0.76751 0.0
C2514 C 0.64543 0.72216 0.79131 0.0
C2515 C 0.65253 0.73389 0.80416 0.0
H2516 H 0.62973 0.70977 0.75763 0.0
H2517 H 0.69847 0.82416 0.87662 0.0
H2518 H 0.2058 0.92604 0.85545 0.0
H2519 H 0.2174 0.91653 0.87072 0.0
H2520 H 0.22566 0.91755 0.73748 0.0
H2521 H 0.21406 0.92712 0.7218 0.0
H2522 H 0.21829 0.8956 0.77599 0.0
H2523 H 0.24621 0.9366 0.80142 0.0
H2524 H 0.25314 0.9562 0.83341 0.0
H2525 H 0.24919 0.94139 0.95826 0.0
H2526 H 0.24209 0.92166 0.92702 0.0
H2527 H 0.26207 0.87953 0.79536 0.0
H2528 H 0.25144 0.88995 0.77915 0.0
H2529 H 0.24742 0.89398 0.91329 0.0
H2530 H 0.25846 0.8839 0.92974 0.0
H2531 H 0.25265 0.91356 0.87384 0.0
H2532 H 0.22442 0.87277 0.85101 0.0
H2533 H 0.21676 0.8528 0.82128 0.0
H2534 H 0.22022 0.86657 0.69486 0.0
H2535 H 0.22806 0.88665 0.72383 0.0
C2536 C 0.21008 0.92424 0.82933 0.0
C2537 C 0.20903 0.92734 0.78739 0.0
C2538 C 0.21674 0.91886 0.83817 0.0
C2539 C 0.22245 0.91643 0.80526 0.0
C2540 C 0.22133 0.91938 0.7633 0.0
C2541 C 0.21473 0.92487 0.75443 0.0
C2542 C 0.22947 0.91068 0.81474 0.0
C2543 C 0.22592 0.89958 0.79686 0.0
C2544 C 0.23918 0.91576 0.84302 0.0
C2545 C 0.24352 0.92763 0.86188 0.0
C2546 C 0.24674 0.9375 0.83571 0.0
C2547 C 0.25071 0.94864 0.8537 0.0
C2548 C 0.25159 0.95003 0.89783 0.0
C2549 C 0.2485 0.9403 0.92407 0.0
C2550 C 0.24452 0.92914 0.90624 0.0
C2551 C 0.25892 0.88262 0.82144 0.0
C2552 C 0.26103 0.88082 0.86384 0.0
C2553 C 0.2528 0.88854 0.81212 0.0
C2554 C 0.24842 0.89255 0.84499 0.0
C2555 C 0.25068 0.89093 0.88739 0.0
C2556 C 0.25696 0.88515 0.89676 0.0
C2557 C 0.2415 0.89843 0.83506 0.0
C2558 C 0.24505 0.90955 0.8529 0.0
C2559 C 0.23169 0.89331 0.8071 0.0
C2560 C 0.22693 0.88123 0.78958 0.0
C2561 C 0.22363 0.87155 0.81686 0.0
C2562 C 0.21924 0.86021 0.80015 0.0
C2563 C 0.21803 0.85842 0.75621 0.0
C2564 C 0.22118 0.86797 0.72889 0.0
C2565 C 0.22558 0.87933 0.74544 0.0
H2566 H 0.21464 0.84963 0.74333 0.0
H2567 H 0.25468 0.95867 0.91169 0.0
H2568 H 0.71926 0.91408 0.86217 0.0
H2569 H 0.69893 0.90393 0.88802 0.0
H2570 H 0.69052 0.92457 0.80307 0.0
H2571 H 0.7109 0.93488 0.77726 0.0
H2572 H 0.68158 0.92318 0.8826 0.0
H2573 H 0.68226 0.89632 0.77926 0.0
H2574 H 0.68962 0.88404 0.74696 0.0
H2575 H 0.682 0.86391 0.86219 0.0
H2576 H 0.67475 0.87617 0.89539 0.0
H2577 H 0.61937 0.88957 0.87998 0.0
H2578 H 0.64039 0.90023 0.86371 0.0
H2579 H 0.64569 0.87691 0.94615 0.0
H2580 H 0.62452 0.86598 0.96197 0.0
H2581 H 0.65664 0.87962 0.87253 0.0
H2582 H 0.65499 0.90568 0.97502 0.0
H2583 H 0.64763 0.91789 0.00782 0.0
H2584 H 0.65713 0.93952 0.89582 0.0
H2585 H 0.6644 0.92733 0.86209 0.0
C2586 C 0.71309 0.91646 0.84891 0.0
C2587 C 0.71669 0.92526 0.81752 0.0
C2588 C 0.70147 0.91063 0.86367 0.0
C2589 C 0.6932 0.91342 0.84717 0.0
C2590 C 0.69678 0.92228 0.81619 0.0
C2591 C 0.70841 0.92813 0.80137 0.0
C2592 C 0.6808 0.90709 0.86218 0.0
C2593 C 0.67607 0.91367 0.87999 0.0
C2594 C 0.67375 0.89465 0.85993 0.0
C2595 C 0.67808 0.88724 0.83996 0.0
C2596 C 0.68225 0.88933 0.79783 0.0
C2597 C 0.68638 0.88237 0.77933 0.0
C2598 C 0.68631 0.87322 0.80254 0.0
C2599 C 0.68207 0.871 0.84427 0.0
C2600 C 0.67794 0.87796 0.86293 0.0
C2601 C 0.625 0.88675 0.89502 0.0
C2602 C 0.62026 0.87692 0.92233 0.0
C2603 C 0.63704 0.8929 0.88581 0.0
C2604 C 0.64465 0.88946 0.90411 0.0
C2605 C 0.63998 0.87973 0.93176 0.0
C2606 C 0.62789 0.87352 0.94085 0.0
C2607 C 0.65735 0.89571 0.89267 0.0
C2608 C 0.66215 0.88912 0.87548 0.0
C2609 C 0.66448 0.90814 0.89565 0.0
C2610 C 0.66015 0.91553 0.9159 0.0
C2611 C 0.65543 0.91298 0.95725 0.0
C2612 C 0.65129 0.91991 0.97604 0.0
C2613 C 0.65189 0.92946 0.95389 0.0
C2614 C 0.65666 0.93211 0.91293 0.0
C2615 C 0.66081 0.92521 0.89399 0.0
H2616 H 0.64867 0.93481 0.96849 0.0
H2617 H 0.68951 0.86783 0.78817 0.0
H2618 H 0.0909 0.80016 0.73214 0.0
H2619 H 0.10144 0.79011 0.75527 0.0
H2620 H 0.0711 0.76559 0.82854 0.0
H2621 H 0.06055 0.7757 0.80608 0.0
H2622 H 0.09106 0.77356 0.87376 0.0
H2623 H 0.0778 0.75734 0.73435 0.0
H2624 H 0.07529 0.75799 0.65687 0.0
H2625 H 0.11291 0.77655 0.64021 0.0
H2626 H 0.11566 0.77615 0.71769 0.0
H2627 H 0.10938 0.73149 0.91279 0.0
H2628 H 0.0988 0.74164 0.89113 0.0
H2629 H 0.12871 0.7659 0.8155 0.0
H2630 H 0.13926 0.75567 0.83636 0.0
H2631 H 0.10883 0.75797 0.77161 0.0
H2632 H 0.12216 0.77427 0.91081 0.0
H2633 H 0.12475 0.7737 0.98828 0.0
H2634 H 0.08714 0.75512 0.00539 0.0
H2635 H 0.08432 0.75544 0.92793 0.0
C2636 C 0.08644 0.79259 0.75301 0.0
C2637 C 0.07487 0.78872 0.76719 0.0
C2638 C 0.09246 0.78683 0.7661 0.0
C2639 C 0.08701 0.77703 0.79332 0.0
C2640 C 0.07547 0.77314 0.80752 0.0
C2641 C 0.06944 0.7789 0.79451 0.0
C2642 C 0.09343 0.77097 0.80763 0.0
C2643 C 0.09481 0.77 0.85145 0.0
C2644 C 0.09856 0.76659 0.77849 0.0
C2645 C 0.09693 0.76681 0.73187 0.0
C2646 C 0.08554 0.76164 0.7142 0.0
C2647 C 0.08407 0.76195 0.67027 0.0
C2648 C 0.09393 0.76733 0.64364 0.0
C2649 C 0.10528 0.77239 0.66088 0.0
C2650 C 0.1068 0.77212 0.70479 0.0
C2651 C 0.11374 0.73904 0.89181 0.0
C2652 C 0.12515 0.74277 0.87626 0.0
C2653 C 0.1077 0.74486 0.87955 0.0
C2654 C 0.113 0.75459 0.85194 0.0
C2655 C 0.12444 0.7584 0.83676 0.0
C2656 C 0.13046 0.75256 0.84882 0.0
C2657 C 0.1065 0.76058 0.83777 0.0
C2658 C 0.10509 0.76153 0.79395 0.0
C2659 C 0.10136 0.76495 0.86692 0.0
C2660 C 0.10303 0.76478 0.91352 0.0
C2661 C 0.11444 0.76998 0.93106 0.0
C2662 C 0.11595 0.76972 0.97497 0.0
C2663 C 0.10611 0.76435 0.00173 0.0
C2664 C 0.09475 0.75926 0.98462 0.0
C2665 C 0.09319 0.75949 0.94072 0.0
H2666 H 0.1073 0.76416 0.03572 0.0
H2667 H 0.09278 0.76756 0.60964 0.0
H2668 H 0.19181 0.28247 0.82789 0.0
H2669 H 0.20316 0.30315 0.84915 0.0
H2670 H 0.23347 0.30678 0.78132 0.0
H2671 H 0.22223 0.28598 0.76055 0.0
H2672 H 0.23967 0.31661 0.85808 0.0
H2673 H 0.21696 0.3184 0.74186 0.0
H2674 H 0.19891 0.31293 0.70057 0.0
H2675 H 0.18494 0.32347 0.80449 0.0
H2676 H 0.20284 0.32885 0.84665 0.0
H2677 H 0.27268 0.37949 0.86379 0.0
H2678 H 0.26176 0.35881 0.84178 0.0
H2679 H 0.2314 0.35395 0.9126 0.0
H2680 H 0.2422 0.37465 0.93445 0.0
H2681 H 0.22546 0.34488 0.83314 0.0
H2682 H 0.24822 0.3429 0.94944 0.0
H2683 H 0.26637 0.34845 0.99019 0.0
H2684 H 0.28039 0.33839 0.88507 0.0
H2685 H 0.26238 0.33293 0.84345 0.0
C2686 C 0.20087 0.28767 0.81725 0.0
C2687 C 0.2061 0.28258 0.79244 0.0
C2688 C 0.20733 0.29952 0.82932 0.0
C2689 C 0.21913 0.30655 0.81644 0.0
C2690 C 0.22438 0.30151 0.79158 0.0
C2691 C 0.21793 0.28964 0.77962 0.0
C2692 C 0.22605 0.31908 0.82987 0.0
C2693 C 0.23666 0.32284 0.85205 0.0
C2694 C 0.22197 0.32714 0.82287 0.0
C2695 C 0.2112 0.32393 0.79756 0.0
C2696 C 0.21 0.31947 0.75604 0.0
C2697 C 0.1998 0.3164 0.73246 0.0
C2698 C 0.19077 0.31782 0.74994 0.0
C2699 C 0.19194 0.32235 0.79101 0.0
C2700 C 0.20211 0.32543 0.81475 0.0
C2701 C 0.2637 0.37401 0.87495 0.0
C2702 C 0.25831 0.37872 0.9009 0.0
C2703 C 0.25749 0.36218 0.86243 0.0
C2704 C 0.24579 0.35483 0.87578 0.0
C2705 C 0.24042 0.35948 0.90194 0.0
C2706 C 0.24663 0.3713 0.91453 0.0
C2707 C 0.23904 0.34238 0.86145 0.0
C2708 C 0.22847 0.33864 0.83909 0.0
C2709 C 0.24317 0.33436 0.86818 0.0
C2710 C 0.254 0.33762 0.89317 0.0
C2711 C 0.25521 0.34197 0.93488 0.0
C2712 C 0.26547 0.34508 0.95816 0.0
C2713 C 0.27454 0.34381 0.94019 0.0
C2714 C 0.27336 0.33939 0.89893 0.0
C2715 C 0.26313 0.33627 0.87549 0.0
H2716 H 0.28247 0.34622 0.95827 0.0
H2717 H 0.18289 0.31544 0.73163 0.0
H2718 H 0.93702 0.71145 0.23388 0.0
H2719 H 0.92718 0.69067 0.21278 0.0
H2720 H 0.9019 0.69535 0.1397 0.0
H2721 H 0.91153 0.71604 0.16118 0.0
H2722 H 0.8911 0.67573 0.18571 0.0
H2723 H 0.92445 0.6935 0.09159 0.0
H2724 H 0.94553 0.70529 0.07268 0.0
H2725 H 0.95284 0.68172 0.14435 0.0
H2726 H 0.93182 0.66988 0.16417 0.0
H2727 H 0.86641 0.6237 0.06198 0.0
H2728 H 0.87733 0.6444 0.08358 0.0
H2729 H 0.90004 0.63724 0.16227 0.0
H2730 H 0.88918 0.61648 0.14073 0.0
H2731 H 0.91237 0.65783 0.11538 0.0
H2732 H 0.87874 0.63987 0.20805 0.0
H2733 H 0.85757 0.62807 0.22561 0.0
H2734 H 0.85075 0.65214 0.15508 0.0
H2735 H 0.87186 0.664 0.13657 0.0
C2736 C 0.92938 0.70806 0.21326 0.0
C2737 C 0.92506 0.7154 0.19918 0.0
C2738 C 0.9238 0.6962 0.20108 0.0
C2739 C 0.91388 0.69149 0.17432 0.0
C2740 C 0.90954 0.6988 0.16037 0.0
C2741 C 0.91508 0.71063 0.17262 0.0
C2742 C 0.90784 0.6789 0.1614 0.0
C2743 C 0.89573 0.67187 0.16986 0.0
C2744 C 0.91394 0.67378 0.14164 0.0
C2745 C 0.92658 0.68088 0.12974 0.0
C2746 C 0.93057 0.69089 0.10361 0.0
C2747 C 0.94251 0.69757 0.09267 0.0
C2748 C 0.95053 0.69427 0.10741 0.0
C2749 C 0.94662 0.68427 0.13302 0.0
C2750 C 0.9347 0.67757 0.14409 0.0
C2751 C 0.87375 0.62652 0.08375 0.0
C2752 C 0.87689 0.61843 0.0998 0.0
C2753 C 0.87996 0.63835 0.09616 0.0
C2754 C 0.8894 0.64231 0.12486 0.0
C2755 C 0.89275 0.63434 0.14015 0.0
C2756 C 0.88652 0.62248 0.1279 0.0
C2757 C 0.89564 0.65474 0.13937 0.0
C2758 C 0.90778 0.66173 0.1313 0.0
C2759 C 0.88956 0.65984 0.15934 0.0
C2760 C 0.87687 0.65276 0.1706 0.0
C2761 C 0.87271 0.6426 0.196 0.0
C2762 C 0.86072 0.63591 0.20618 0.0
C2763 C 0.85281 0.63934 0.19138 0.0
C2764 C 0.85688 0.64949 0.16647 0.0
C2765 C 0.86886 0.6562 0.15616 0.0
H2766 H 0.84354 0.63415 0.1993 0.0
H2767 H 0.95976 0.69945 0.0989 0.0
H2768 H 0.37495 0.24057 0.06892 0.0
H2769 H 0.35427 0.23045 0.09071 0.0
H2770 H 0.36025 0.26133 0.16072 0.0
H2771 H 0.38103 0.27145 0.13975 0.0
H2772 H 0.34778 0.24195 0.20692 0.0
H2773 H 0.34551 0.2541 0.06543 0.0
H2774 H 0.34901 0.25618 0.98806 0.0
H2775 H 0.32993 0.21847 0.97406 0.0
H2776 H 0.32645 0.21616 0.05146 0.0
H2777 H 0.28664 0.22221 0.24002 0.0
H2778 H 0.30735 0.2335 0.21829 0.0
H2779 H 0.30367 0.20315 0.15061 0.0
H2780 H 0.28296 0.19184 0.17179 0.0
H2781 H 0.31491 0.22304 0.10315 0.0
H2782 H 0.31776 0.21105 0.24539 0.0
H2783 H 0.31425 0.20914 0.32277 0.0
H2784 H 0.3322 0.24688 0.33506 0.0
H2785 H 0.33568 0.24901 0.25762 0.0
C2786 C 0.37187 0.24524 0.08878 0.0
C2787 C 0.37964 0.25682 0.10253 0.0
C2788 C 0.36002 0.23945 0.10108 0.0
C2789 C 0.35568 0.24518 0.12696 0.0
C2790 C 0.36341 0.25675 0.14071 0.0
C2791 C 0.37528 0.26253 0.12857 0.0
C2792 C 0.34313 0.23899 0.14052 0.0
C2793 C 0.34058 0.23798 0.18419 0.0
C2794 C 0.33376 0.2336 0.11091 0.0
C2795 C 0.33581 0.23496 0.06432 0.0
C2796 C 0.34214 0.24625 0.0459 0.0
C2797 C 0.3441 0.24747 0.00203 0.0
C2798 C 0.33972 0.23746 0.97618 0.0
C2799 C 0.33333 0.22622 0.99413 0.0
C2800 C 0.33135 0.22495 0.038 0.0
C2801 C 0.29025 0.21792 0.22066 0.0
C2802 C 0.28315 0.20612 0.20769 0.0
C2803 C 0.30209 0.22438 0.20837 0.0
C2804 C 0.30706 0.21913 0.18306 0.0
C2805 C 0.3 0.20736 0.1701 0.0
C2806 C 0.28818 0.2009 0.1824 0.0
C2807 C 0.31958 0.22593 0.16949 0.0
C2808 C 0.32211 0.22706 0.12582 0.0
C2809 C 0.32893 0.23146 0.19909 0.0
C2810 C 0.32687 0.23019 0.24566 0.0
C2811 C 0.32087 0.21894 0.26454 0.0
C2812 C 0.3189 0.21782 0.30842 0.0
C2813 C 0.32297 0.22788 0.3338 0.0
C2814 C 0.32904 0.23909 0.31536 0.0
C2815 C 0.33102 0.24027 0.27148 0.0
H2816 H 0.32144 0.227 0.36777 0.0
H2817 H 0.34125 0.23843 0.94222 0.0
H2818 H 0.72702 0.10632 0.09773 0.0
H2819 H 0.7372 0.096 0.12173 0.0
H2820 H 0.77081 0.12751 0.1013 0.0
H2821 H 0.76071 0.13787 0.07654 0.0
H2822 H 0.77123 0.10797 0.07551 0.0
H2823 H 0.75901 0.12036 0.19997 0.0
H2824 H 0.74467 0.12205 0.24611 0.0
H2825 H 0.7246 0.08432 0.25829 0.0
H2826 H 0.73872 0.0824 0.21166 0.0
H2827 H 0.80656 0.09277 0.20042 0.0
H2828 H 0.79622 0.10265 0.17364 0.0
H2829 H 0.76277 0.07109 0.19577 0.0
H2830 H 0.77304 0.06116 0.22332 0.0
H2831 H 0.76214 0.09049 0.22025 0.0
H2832 H 0.77449 0.07811 0.09623 0.0
H2833 H 0.78876 0.07645 0.04967 0.0
H2834 H 0.80862 0.11416 0.03663 0.0
H2835 H 0.79455 0.11606 0.08362 0.0
C2836 C 0.73658 0.11104 0.09793 0.0
C2837 C 0.74305 0.12295 0.08552 0.0
C2838 C 0.74238 0.10513 0.11184 0.0
C2839 C 0.75475 0.11105 0.114 0.0
C2840 C 0.76125 0.12279 0.10004 0.0
C2841 C 0.75546 0.1287 0.08596 0.0
C2842 C 0.7609 0.10511 0.13216 0.0
C2843 C 0.76935 0.10427 0.10733 0.0
C2844 C 0.75826 0.10009 0.17339 0.0
C2845 C 0.74986 0.10123 0.20199 0.0
C2846 C 0.75149 0.11242 0.21227 0.0
C2847 C 0.74341 0.11342 0.23853 0.0
C2848 C 0.73371 0.10329 0.25503 0.0
C2849 C 0.7321 0.09215 0.24543 0.0
C2850 C 0.74015 0.0911 0.21911 0.0
C2851 C 0.797 0.08793 0.19981 0.0
C2852 C 0.79062 0.07615 0.21378 0.0
C2853 C 0.79111 0.09358 0.1843 0.0
C2854 C 0.77873 0.08754 0.18206 0.0
C2855 C 0.77233 0.0759 0.19708 0.0
C2856 C 0.77821 0.07023 0.21275 0.0
C2857 C 0.77248 0.09334 0.16359 0.0
C2858 C 0.76401 0.09417 0.18839 0.0
C2859 C 0.77511 0.09836 0.12234 0.0
C2860 C 0.78352 0.09723 0.09375 0.0
C2861 C 0.78194 0.08606 0.08367 0.0
C2862 C 0.78999 0.08507 0.05717 0.0
C2863 C 0.7996 0.0952 0.04029 0.0
C2864 C 0.80117 0.10633 0.04977 0.0
C2865 C 0.79316 0.10737 0.0763 0.0
H2866 H 0.80582 0.09441 0.01979 0.0
H2867 H 0.72746 0.10408 0.27532 0.0
H2868 H 0.04098 0.46447 0.38199 0.0
H2869 H 0.0206 0.455 0.40736 0.0
H2870 H 0.02714 0.43242 0.48923 0.0
H2871 H 0.04751 0.44175 0.46373 0.0
H2872 H 0.00592 0.4203 0.44867 0.0
H2873 H 0.02706 0.45629 0.52923 0.0
H2874 H 0.0398 0.47778 0.53889 0.0
H2875 H 0.01496 0.48382 0.46999 0.0
H2876 H 0.00216 0.46237 0.45935 0.0
H2877 H 0.95583 0.40047 0.58184 0.0
H2878 H 0.9763 0.40999 0.55715 0.0
H2879 H 0.96992 0.43258 0.47476 0.0
H2880 H 0.94948 0.42318 0.49942 0.0
H2881 H 0.99106 0.44471 0.51583 0.0
H2882 H 0.97012 0.4093 0.43383 0.0
H2883 H 0.95709 0.38793 0.42262 0.0
H2884 H 0.98124 0.38091 0.49173 0.0
H2885 H 0.99434 0.40225 0.50391 0.0
C2886 C 0.03808 0.45744 0.40521 0.0
C2887 C 0.04589 0.45391 0.42101 0.0
C2888 C 0.02644 0.45208 0.4198 0.0
C2889 C 0.02242 0.44313 0.4506 0.0
C2890 C 0.03009 0.43934 0.46554 0.0
C2891 C 0.04173 0.4447 0.45098 0.0
C2892 C 0.01027 0.43784 0.46775 0.0
C2893 C 0.00272 0.42561 0.46388 0.0
C2894 C 0.00602 0.44482 0.48665 0.0
C2895 C 0.0137 0.45773 0.49316 0.0
C2896 C 0.02436 0.46221 0.51584 0.0
C2897 C 0.03159 0.47438 0.52153 0.0
C2898 C 0.0282 0.48216 0.50498 0.0
C2899 C 0.01758 0.47778 0.48275 0.0
C2900 C 0.01033 0.46562 0.4769 0.0
C2901 C 0.95881 0.40752 0.55872 0.0
C2902 C 0.95102 0.41103 0.54243 0.0
C2903 C 0.97048 0.41292 0.54451 0.0
C2904 C 0.97457 0.42189 0.51377 0.0
C2905 C 0.96692 0.42566 0.49844 0.0
C2906 C 0.95524 0.42024 0.5125 0.0
C2907 C 0.98674 0.42718 0.49685 0.0
C2908 C 0.99428 0.4394 0.50072 0.0
C2909 C 0.99095 0.4202 0.4777 0.0
C2910 C 0.98315 0.40737 0.47017 0.0
C2911 C 0.97261 0.4032 0.44694 0.0
C2912 C 0.96522 0.39109 0.44036 0.0
C2913 C 0.96832 0.38306 0.45656 0.0
C2914 C 0.97884 0.38714 0.47926 0.0
C2915 C 0.98625 0.39924 0.48599 0.0
H2916 H 0.96259 0.37369 0.45143 0.0
H2917 H 0.03378 0.49157 0.50949 0.0
H2918 H 0.60725 0.5557 0.52895 0.0
H2919 H 0.59681 0.5658 0.50516 0.0
H2920 H 0.5673 0.54329 0.5856 0.0
H2921 H 0.57761 0.53304 0.60927 0.0
H2922 H 0.56019 0.5449 0.50649 0.0
H2923 H 0.58597 0.57177 0.61286 0.0
H2924 H 0.60505 0.58459 0.64803 0.0
H2925 H 0.61792 0.60579 0.53523 0.0
H2926 H 0.59896 0.59299 0.49917 0.0
H2927 H 0.52921 0.57632 0.50061 0.0
H2928 H 0.54026 0.56669 0.52196 0.0
H2929 H 0.56914 0.59018 0.44085 0.0
H2930 H 0.55818 0.60002 0.4197 0.0
H2931 H 0.57689 0.58821 0.5181 0.0
H2932 H 0.55095 0.5616 0.41218 0.0
H2933 H 0.53185 0.5488 0.37708 0.0
H2934 H 0.51929 0.5271 0.48879 0.0
H2935 H 0.53827 0.53986 0.5248 0.0
C2936 C 0.59857 0.55294 0.54182 0.0
C2937 C 0.59326 0.54357 0.57105 0.0
C2938 C 0.59263 0.55875 0.52826 0.0
C2939 C 0.58131 0.55535 0.54383 0.0
C2940 C 0.57603 0.54605 0.57319 0.0
C2941 C 0.58195 0.54023 0.58679 0.0
C2942 C 0.57484 0.56126 0.52865 0.0
C2943 C 0.56377 0.55435 0.50953 0.0
C2944 C 0.57968 0.57363 0.53154 0.0
C2945 C 0.59109 0.58135 0.55317 0.0
C2946 C 0.5929 0.57911 0.59543 0.0
C2947 C 0.60369 0.58638 0.61555 0.0
C2948 C 0.61271 0.59598 0.59384 0.0
C2949 C 0.61094 0.59834 0.55199 0.0
C2950 C 0.60017 0.59108 0.5317 0.0
C2951 C 0.53788 0.57942 0.48708 0.0
C2952 C 0.5428 0.58893 0.45837 0.0
C2953 C 0.54417 0.57386 0.49923 0.0
C2954 C 0.55547 0.57764 0.48265 0.0
C2955 C 0.56042 0.58712 0.45395 0.0
C2956 C 0.55413 0.5927 0.4418 0.0
C2957 C 0.5622 0.57183 0.49617 0.0
C2958 C 0.57333 0.57876 0.51494 0.0
C2959 C 0.55742 0.55947 0.49294 0.0
C2960 C 0.546 0.55175 0.47132 0.0
C2961 C 0.54408 0.55415 0.42939 0.0
C2962 C 0.53328 0.54689 0.4093 0.0
C2963 C 0.52435 0.53716 0.43073 0.0
C2964 C 0.52621 0.53465 0.47225 0.0
C2965 C 0.53699 0.54188 0.4925 0.0
H2966 H 0.516 0.53155 0.41512 0.0
H2967 H 0.62105 0.6016 0.60948 0.0
H2968 H 0.45223 0.04468 0.59874 0.0
H2969 H 0.44181 0.02336 0.58588 0.0
H2970 H 0.44487 0.02957 0.45058 0.0
H2971 H 0.4553 0.05087 0.46306 0.0
H2972 H 0.42228 0.01259 0.47577 0.0
H2973 H 0.46241 0.02161 0.49696 0.0
H2974 H 0.48129 0.02981 0.53561 0.0
H2975 H 0.46362 0.00689 0.64124 0.0
H2976 H 0.44459 0.99867 0.60344 0.0
H2977 H 0.40556 0.95505 0.40435 0.0
H2978 H 0.41633 0.97628 0.41807 0.0
H2979 H 0.41661 0.96964 0.55235 0.0
H2980 H 0.4061 0.9484 0.53877 0.0
H2981 H 0.43745 0.98693 0.52864 0.0
H2982 H 0.39747 0.97784 0.50944 0.0
H2983 H 0.37828 0.96967 0.47289 0.0
H2984 H 0.3951 0.99265 0.36661 0.0
H2985 H 0.41443 0.00085 0.40229 0.0
C2986 C 0.4507 0.04151 0.56625 0.0
C2987 C 0.45461 0.04946 0.53191 0.0
C2988 C 0.44478 0.02934 0.55897 0.0
C2989 C 0.44264 0.02491 0.51728 0.0
C2990 C 0.44644 0.03282 0.48298 0.0
C2991 C 0.45244 0.04498 0.49021 0.0
C2992 C 0.43634 0.01203 0.50934 0.0
C2993 C 0.42566 0.00698 0.48683 0.0
C2994 C 0.44061 0.00471 0.52484 0.0
C2995 C 0.45205 0.00961 0.54754 0.0
C2996 C 0.46253 0.01839 0.52858 0.0
C2997 C 0.47327 0.02302 0.5503 0.0
C2998 C 0.47365 0.01889 0.5909 0.0
C2999 C 0.46331 0.01009 0.60981 0.0
C3000 C 0.45254 0.00543 0.58824 0.0
C3001 C 0.40791 0.9581 0.43681 0.0
C3002 C 0.40494 0.95004 0.47049 0.0
C3003 C 0.41403 0.97025 0.44462 0.0
C3004 C 0.41713 0.97455 0.48633 0.0
C3005 C 0.41429 0.96652 0.51993 0.0
C3006 C 0.40826 0.95438 0.51211 0.0
C3007 C 0.42336 0.98744 0.4949 0.0
C3008 C 0.43404 0.9925 0.51757 0.0
C3009 C 0.41903 0.99476 0.47987 0.0
C3010 C 0.40741 0.98988 0.45837 0.0
C3011 C 0.39709 0.98109 0.47813 0.0
C3012 C 0.38619 0.97646 0.4576 0.0
C3013 C 0.38547 0.98062 0.41741 0.0
C3014 C 0.39567 0.98943 0.39772 0.0
C3015 C 0.4066 0.99408 0.4181 0.0
H3016 H 0.37702 0.97703 0.40156 0.0
H3017 H 0.48197 0.02249 0.60767 0.0
H3018 H 0.59292 0.04195 0.59331 0.0
H3019 H 0.58238 0.02069 0.58005 0.0
H3020 H 0.58187 0.02705 0.44564 0.0
H3021 H 0.59218 0.0483 0.45872 0.0
H3022 H 0.56104 0.00968 0.47048 0.0
H3023 H 0.60126 0.01927 0.48803 0.0
H3024 H 0.62055 0.02769 0.52403 0.0
H3025 H 0.60416 0.00474 0.63077 0.0
H3026 H 0.58474 0.99629 0.59562 0.0
H3027 H 0.54667 0.95235 0.39886 0.0
H3028 H 0.55706 0.97362 0.41231 0.0
H3029 H 0.55452 0.96715 0.54741 0.0
H3030 H 0.54412 0.94587 0.53433 0.0
H3031 H 0.57687 0.98446 0.52201 0.0
H3032 H 0.53655 0.97486 0.50278 0.0
H3033 H 0.5175 0.96643 0.46513 0.0
H3034 H 0.53452 0.98947 0.35915 0.0
H3035 H 0.55372 0.99793 0.39595 0.0
C3036 C 0.59056 0.03882 0.56093 0.0
C3037 C 0.59342 0.04681 0.52705 0.0
C3038 C 0.58458 0.02667 0.55337 0.0
C3039 C 0.58147 0.02228 0.51178 0.0
C3040 C 0.58419 0.03024 0.47798 0.0
C3041 C 0.59011 0.04238 0.48552 0.0
C3042 C 0.57534 0.00939 0.50346 0.0
C3043 C 0.56459 0.0042 0.48126 0.0
C3044 C 0.57985 0.0022 0.5182 0.0
C3045 C 0.59153 0.00723 0.53937 0.0
C3046 C 0.60175 0.01609 0.51932 0.0
C3047 C 0.61271 0.02085 0.53955 0.0
C3048 C 0.61357 0.01678 0.57971 0.0
C3049 C 0.60348 0.0079 0.59968 0.0
C3050 C 0.59249 0.00311 0.57961 0.0
C3051 C 0.54833 0.95545 0.43143 0.0
C3052 C 0.54454 0.94742 0.46554 0.0
C3053 C 0.55423 0.9676 0.43905 0.0
C3054 C 0.55647 0.97193 0.48085 0.0
C3055 C 0.55285 0.96396 0.51493 0.0
C3056 C 0.54688 0.95181 0.50737 0.0
C3057 C 0.56261 0.9848 0.48909 0.0
C3058 C 0.57335 0.98997 0.51126 0.0
C3059 C 0.55813 0.99198 0.47406 0.0
C3060 C 0.54659 0.98694 0.45195 0.0
C3061 C 0.53625 0.97806 0.4713 0.0
C3062 C 0.52542 0.97329 0.45014 0.0
C3063 C 0.5248 0.97738 0.40972 0.0
C3064 C 0.53502 0.98629 0.39043 0.0
C3065 C 0.54587 0.99108 0.41144 0.0
H3066 H 0.51641 0.97368 0.3934 0.0
H3067 H 0.62207 0.02048 0.59532 0.0
H3068 H 0.94742 0.52695 0.49609 0.0
H3069 H 0.96798 0.5377 0.4731 0.0
H3070 H 0.97379 0.56765 0.5488 0.0
H3071 H 0.95313 0.55699 0.5716 0.0
H3072 H 0.9833 0.57433 0.47037 0.0
H3073 H 0.984 0.54975 0.58196 0.0
H3074 H 0.97767 0.53111 0.62048 0.0
H3075 H 0.98661 0.51708 0.51238 0.0
H3076 H 0.99283 0.53558 0.47298 0.0
H3077 H 0.0461 0.60461 0.46363 0.0
H3078 H 0.0254 0.59436 0.48537 0.0
H3079 H 0.01904 0.56417 0.41003 0.0
H3080 H 0.03978 0.57431 0.38847 0.0
H3081 H 0.00985 0.55776 0.48882 0.0
H3082 H 0.00915 0.58241 0.37723 0.0
H3083 H 0.01555 0.60112 0.33905 0.0
H3084 H 0.00674 0.6151 0.44759 0.0
H3085 H 0.00043 0.59653 0.48666 0.0
C3086 C 0.95306 0.53581 0.50801 0.0
C3087 C 0.94864 0.5411 0.5358 0.0
C3088 C 0.96483 0.54193 0.49493 0.0
C3089 C 0.97245 0.55343 0.50959 0.0
C3090 C 0.96806 0.55877 0.53716 0.0
C3091 C 0.95627 0.55265 0.55027 0.0
C3092 C 0.98494 0.55991 0.49562 0.0
C3093 C 0.98917 0.5708 0.47494 0.0
C3094 C 0.9925 0.55515 0.50073 0.0
C3095 C 0.98877 0.54402 0.52437 0.0
C3096 C 0.98452 0.54266 0.56627 0.0
C3097 C 0.98097 0.53212 0.58829 0.0
C3098 C 0.98171 0.5229 0.56885 0.0
C3099 C 0.98603 0.52422 0.52738 0.0
C3100 C 0.98958 0.53473 0.5052 0.0
C3101 C 0.04029 0.59582 0.45141 0.0
C3102 C 0.04459 0.59027 0.42431 0.0
C3103 C 0.02845 0.58999 0.46376 0.0
C3104 C 0.02067 0.57853 0.44907 0.0
C3105 C 0.02491 0.57301 0.42172 0.0
C3106 C 0.03675 0.57884 0.40932 0.0
C3107 C 0.0082 0.57216 0.46341 0.0
C3108 C 0.00399 0.5613 0.48423 0.0
C3109 C 0.00067 0.57695 0.45847 0.0
C3110 C 0.00443 0.58812 0.43501 0.0
C3111 C 0.00867 0.58951 0.39309 0.0
C3112 C 0.01226 0.60008 0.37126 0.0
C3113 C 0.01158 0.6093 0.39092 0.0
C3114 C 0.00727 0.60796 0.43242 0.0
C3115 C 0.00368 0.59741 0.4544 0.0
H3116 H 0.01437 0.61748 0.37397 0.0
H3117 H 0.97896 0.51475 0.58595 0.0
H3118 H 0.42699 0.4731 0.46888 0.0
H3119 H 0.43618 0.4617 0.49092 0.0
H3120 H 0.40431 0.42937 0.45946 0.0
H3121 H 0.39494 0.44074 0.43767 0.0
H3122 H 0.41303 0.42793 0.53618 0.0
H3123 H 0.42804 0.43952 0.39533 0.0
H3124 H 0.43753 0.45327 0.33553 0.0
H3125 H 0.46933 0.47246 0.40855 0.0
H3126 H 0.45999 0.45892 0.46904 0.0
H3127 H 0.44076 0.39275 0.55339 0.0
H3128 H 0.43005 0.40245 0.52794 0.0
H3129 H 0.46026 0.43648 0.55585 0.0
H3130 H 0.47107 0.42689 0.58097 0.0
H3131 H 0.45155 0.43593 0.47738 0.0
H3132 H 0.43611 0.42483 0.61932 0.0
H3133 H 0.42657 0.41108 0.67908 0.0
H3134 H 0.39549 0.39084 0.6034 0.0
H3135 H 0.40491 0.40439 0.54296 0.0
C3136 C 0.42192 0.46356 0.46644 0.0
C3137 C 0.41023 0.45783 0.4514 0.0
C3138 C 0.42722 0.45706 0.47892 0.0
C3139 C 0.42098 0.44469 0.47639 0.0
C3140 C 0.40929 0.43892 0.46155 0.0
C3141 C 0.40397 0.44543 0.44899 0.0
C3142 C 0.42664 0.43785 0.49011 0.0
C3143 C 0.42135 0.42953 0.52283 0.0
C3144 C 0.4376 0.4401 0.47322 0.0
C3145 C 0.44327 0.44826 0.43686 0.0
C3146 C 0.43703 0.44673 0.39877 0.0
C3147 C 0.44239 0.45448 0.36472 0.0
C3148 C 0.45401 0.46375 0.36827 0.0
C3149 C 0.46032 0.46528 0.40585 0.0
C3150 C 0.455 0.45756 0.44002 0.0
C3151 C 0.4451 0.4023 0.55437 0.0
C3152 C 0.45677 0.40905 0.56924 0.0
C3153 C 0.43896 0.40782 0.53991 0.0
C3154 C 0.44434 0.42018 0.54022 0.0
C3155 C 0.45595 0.42693 0.55529 0.0
C3156 C 0.46209 0.42142 0.5698 0.0
C3157 C 0.43803 0.42614 0.52385 0.0
C3158 C 0.44319 0.43428 0.49055 0.0
C3159 C 0.42695 0.4237 0.54016 0.0
C3160 C 0.42127 0.41555 0.57647 0.0
C3161 C 0.42728 0.41739 0.6153 0.0
C3162 C 0.42189 0.40964 0.64932 0.0
C3163 C 0.41044 0.40007 0.645 0.0
C3164 C 0.40436 0.39824 0.60668 0.0
C3165 C 0.40972 0.40596 0.57254 0.0
H3166 H 0.40628 0.39409 0.67138 0.0
H3167 H 0.45815 0.46974 0.34187 0.0
H3168 H 0.24517 0.08061 0.27065 0.0
H3169 H 0.24153 0.09711 0.27553 0.0
H3170 H 0.21421 0.08099 0.18051 0.0
H3171 H 0.21788 0.0644 0.17507 0.0
H3172 H 0.22911 0.10411 0.16395 0.0
H3173 H 0.2067 0.0815 0.28241 0.0
H3174 H 0.2026 0.06984 0.34819 0.0
H3175 H 0.2302 0.09996 0.41262 0.0
H3176 H 0.23459 0.11177 0.34703 0.0
H3177 H 0.21594 0.15038 0.19717 0.0
H3178 H 0.21289 0.13032 0.19511 0.0
H3179 H 0.24187 0.14063 0.28241 0.0
H3180 H 0.24498 0.16065 0.28465 0.0
H3181 H 0.22253 0.11862 0.30128 0.0
H3182 H 0.24654 0.14001 0.17978 0.0
H3183 H 0.25083 0.15164 0.1138 0.0
H3184 H 0.21989 0.12345 0.05524 0.0
H3185 H 0.21533 0.11171 0.12116 0.0
C3186 C 0.23834 0.08051 0.25092 0.0
C3187 C 0.23181 0.07119 0.22244 0.0
C3188 C 0.23622 0.08993 0.25395 0.0
C3189 C 0.2275 0.0902 0.22877 0.0
C3190 C 0.22094 0.08091 0.20036 0.0
C3191 C 0.22303 0.07144 0.19736 0.0
C3192 C 0.22573 0.10052 0.23092 0.0
C3193 C 0.22739 0.10713 0.19381 0.0
C3194 C 0.22365 0.10455 0.27 0.0
C3195 C 0.22102 0.09751 0.30966 0.0
C3196 C 0.21195 0.08562 0.3105 0.0
C3197 C 0.20957 0.07899 0.34778 0.0
C3198 C 0.21615 0.08415 0.38454 0.0
C3199 C 0.22511 0.09597 0.38411 0.0
C3200 C 0.22754 0.10265 0.3469 0.0
C3201 C 0.22158 0.14834 0.21626 0.0
C3202 C 0.23076 0.15712 0.24085 0.0
C3203 C 0.21984 0.13689 0.21497 0.0
C3204 C 0.22721 0.13404 0.23839 0.0
C3205 C 0.23608 0.14266 0.26416 0.0
C3206 C 0.23788 0.15411 0.26521 0.0
C3207 C 0.22617 0.12228 0.23455 0.0
C3208 C 0.224 0.11544 0.27134 0.0
C3209 C 0.22776 0.11802 0.19519 0.0
C3210 C 0.23051 0.12505 0.15554 0.0
C3211 C 0.2406 0.13634 0.15296 0.0
C3212 C 0.24309 0.14294 0.11556 0.0
C3213 C 0.23561 0.13831 0.0804 0.0
C3214 C 0.22566 0.12704 0.08254 0.0
C3215 C 0.22311 0.12041 0.1199 0.0
H3216 H 0.23756 0.14343 0.05147 0.0
H3217 H 0.21429 0.079 0.41337 0.0
H3218 H 0.83297 0.08071 0.29996 0.0
H3219 H 0.85253 0.09824 0.30183 0.0
H3220 H 0.86512 0.08232 0.21116 0.0
H3221 H 0.84553 0.06459 0.20941 0.0
H3222 H 0.88179 0.09534 0.2745 0.0
H3223 H 0.85681 0.10044 0.17516 0.0
H3224 H 0.83852 0.09998 0.15267 0.0
H3225 H 0.84395 0.12584 0.24746 0.0
H3226 H 0.86218 0.12632 0.27102 0.0
H3227 H 0.9313 0.15074 0.20925 0.0
H3228 H 0.91376 0.13106 0.2124 0.0
H3229 H 0.89647 0.14457 0.29283 0.0
H3230 H 0.91379 0.16424 0.28901 0.0
H3231 H 0.88246 0.1321 0.23041 0.0
H3232 H 0.90712 0.12671 0.33127 0.0
H3233 H 0.92508 0.12677 0.35559 0.0
H3234 H 0.92028 0.10153 0.25904 0.0
H3235 H 0.90237 0.10144 0.23377 0.0
C3236 C 0.83992 0.08084 0.28081 0.0
C3237 C 0.83766 0.07132 0.25407 0.0
C3238 C 0.85109 0.09087 0.28192 0.0
C3239 C 0.86019 0.09163 0.25608 0.0
C3240 C 0.85818 0.0819 0.23121 0.0
C3241 C 0.84698 0.07181 0.23017 0.0
C3242 C 0.87144 0.10294 0.25271 0.0
C3243 C 0.882 0.10337 0.26435 0.0
C3244 C 0.87163 0.11339 0.23987 0.0
C3245 C 0.86082 0.11334 0.22508 0.0
C3246 C 0.85407 0.10598 0.19137 0.0
C3247 C 0.84372 0.10572 0.17842 0.0
C3248 C 0.84006 0.11285 0.19869 0.0
C3249 C 0.84679 0.12031 0.23182 0.0
C3250 C 0.85714 0.12059 0.24496 0.0
C3251 C 0.9238 0.14948 0.22793 0.0
C3252 C 0.92391 0.15905 0.24872 0.0
C3253 C 0.9138 0.13822 0.22983 0.0
C3254 C 0.90382 0.13633 0.25302 0.0
C3255 C 0.90405 0.14583 0.2746 0.0
C3256 C 0.91397 0.15707 0.27243 0.0
C3257 C 0.89287 0.12464 0.25322 0.0
C3258 C 0.88232 0.12411 0.24057 0.0
C3259 C 0.89273 0.11413 0.26515 0.0
C3260 C 0.90348 0.11417 0.28034 0.0
C3261 C 0.90995 0.12125 0.315 0.0
C3262 C 0.92011 0.12127 0.329 0.0
C3263 C 0.92384 0.11419 0.30879 0.0
C3264 C 0.91739 0.10703 0.27461 0.0
C3265 C 0.90723 0.10698 0.26046 0.0
H3266 H 0.9317 0.11422 0.31968 0.0
H3267 H 0.83202 0.11262 0.18867 0.0
H3268 H 0.93573 0.78412 0.22672 0.0
H3269 H 0.91831 0.78654 0.22633 0.0
H3270 H 0.89706 0.75108 0.27422 0.0
H3271 H 0.91427 0.74853 0.27417 0.0
H3272 H 0.88671 0.75497 0.20784 0.0
H3273 H 0.90576 0.77533 0.33795 0.0
H3274 H 0.92221 0.79034 0.38086 0.0
H3275 H 0.92219 0.81792 0.30681 0.0
H3276 H 0.90582 0.80305 0.26308 0.0
H3277 H 0.83476 0.75103 0.28239 0.0
H3278 H 0.85417 0.75274 0.27969 0.0
H3279 H 0.86885 0.7875 0.22489 0.0
H3280 H 0.84936 0.78592 0.22773 0.0
H3281 H 0.88341 0.78601 0.28704 0.0
H3282 H 0.86323 0.7656 0.16082 0.0
H3283 H 0.84657 0.75054 0.11882 0.0
H3284 H 0.84877 0.72305 0.18544 0.0
H3285 H 0.86533 0.73794 0.22831 0.0
C3286 C 0.92735 0.77687 0.23742 0.0
C3287 C 0.92637 0.76612 0.25036 0.0
C3288 C 0.91743 0.77829 0.23729 0.0
C3289 C 0.9064 0.769 0.25037 0.0
C3290 C 0.90547 0.75835 0.26384 0.0
C3291 C 0.91534 0.75692 0.26388 0.0
C3292 C 0.89567 0.77011 0.2489 0.0
C3293 C 0.88597 0.7617 0.22544 0.0
C3294 C 0.89485 0.77915 0.27064 0.0
C3295 C 0.90467 0.78808 0.29694 0.0
C3296 C 0.90933 0.78459 0.33059 0.0
C3297 C 0.91863 0.79308 0.3551 0.0
C3298 C 0.92327 0.80508 0.34648 0.0
C3299 C 0.9186 0.80862 0.3134 0.0
C3300 C 0.90931 0.80017 0.28876 0.0
C3301 C 0.8421 0.75909 0.26997 0.0
C3302 C 0.84049 0.7683 0.25492 0.0
C3303 C 0.85319 0.76003 0.26838 0.0
C3304 C 0.86289 0.77017 0.25151 0.0
C3305 C 0.86144 0.77959 0.23786 0.0
C3306 C 0.85031 0.77865 0.23941 0.0
C3307 C 0.87438 0.77065 0.24708 0.0
C3308 C 0.88422 0.77936 0.26912 0.0
C3309 C 0.87536 0.76189 0.22401 0.0
C3310 C 0.86547 0.7529 0.19799 0.0
C3311 C 0.86011 0.75634 0.16672 0.0
C3312 C 0.85069 0.74784 0.14273 0.0
C3313 C 0.8466 0.73585 0.14951 0.0
C3314 C 0.85194 0.73234 0.18023 0.0
C3315 C 0.86135 0.74081 0.20436 0.0
H3316 H 0.8393 0.72927 0.13091 0.0
H3317 H 0.93046 0.81163 0.3655 0.0
H3318 H 0.06568 0.21918 0.82671 0.0
H3319 H 0.0826 0.21598 0.82653 0.0
H3320 H 0.09567 0.23678 0.71216 0.0
H3321 H 0.07879 0.23993 0.71185 0.0
H3322 H 0.09824 0.21726 0.70995 0.0
H3323 H 0.10638 0.24914 0.80678 0.0
H3324 H 0.10238 0.25832 0.86826 0.0
H3325 H 0.10292 0.23255 0.95145 0.0
H3326 H 0.10675 0.22311 0.89029 0.0
H3327 H 0.16 0.24068 0.71346 0.0
H3328 H 0.13976 0.23697 0.71317 0.0
H3329 H 0.13228 0.21611 0.82727 0.0
H3330 H 0.15257 0.2198 0.82789 0.0
H3331 H 0.12549 0.23275 0.83328 0.0
H3332 H 0.12011 0.20254 0.73617 0.0
H3333 H 0.12452 0.19388 0.6741 0.0
H3334 H 0.11919 0.21682 0.59082 0.0
H3335 H 0.11492 0.22574 0.65246 0.0
C3336 C 0.07209 0.22296 0.80126 0.0
C3337 C 0.07095 0.2299 0.76951 0.0
C3338 C 0.08175 0.22115 0.80127 0.0
C3339 C 0.09044 0.22625 0.76958 0.0
C3340 C 0.08906 0.23276 0.7369 0.0
C3341 C 0.07944 0.2346 0.73691 0.0
C3342 C 0.10132 0.22544 0.77161 0.0
C3343 C 0.10424 0.22069 0.73679 0.0
C3344 C 0.10898 0.22965 0.80714 0.0
C3345 C 0.1067 0.23533 0.84392 0.0
C3346 C 0.10554 0.24537 0.83814 0.0
C3347 C 0.10332 0.25063 0.87292 0.0
C3348 C 0.10236 0.246 0.91372 0.0
C3349 C 0.10364 0.23611 0.91982 0.0
C3350 C 0.10584 0.2308 0.88511 0.0
C3351 C 0.15403 0.23521 0.73829 0.0
C3352 C 0.1579 0.23056 0.77077 0.0
C3353 C 0.14244 0.23304 0.73794 0.0
C3354 C 0.1345 0.22619 0.77002 0.0
C3355 C 0.13827 0.22139 0.80216 0.0
C3356 C 0.14985 0.22349 0.80239 0.0
C3357 C 0.12253 0.22474 0.7713 0.0
C3358 C 0.11941 0.22911 0.80673 0.0
C3359 C 0.11473 0.22022 0.73625 0.0
C3360 C 0.11728 0.21487 0.69902 0.0
C3361 C 0.11997 0.20581 0.70466 0.0
C3362 C 0.12243 0.20084 0.66954 0.0
C3363 C 0.12215 0.20481 0.62855 0.0
C3364 C 0.1194 0.21375 0.62259 0.0
C3365 C 0.11695 0.21876 0.65762 0.0
H3366 H 0.12406 0.20095 0.6014 0.0
H3367 H 0.10065 0.25008 0.94062 0.0
H3368 H 0.74929 0.83658 0.74678 0.0
H3369 H 0.75308 0.85668 0.73882 0.0
H3370 H 0.78999 0.87023 0.76589 0.0
H3371 H 0.78625 0.84998 0.77434 0.0
H3372 H 0.78083 0.88216 0.80926 0.0
H3373 H 0.78225 0.87138 0.6663 0.0
H3374 H 0.77575 0.85867 0.60269 0.0
H3375 H 0.74368 0.86013 0.59927 0.0
H3376 H 0.7499 0.8727 0.66326 0.0
H3377 H 0.78647 0.93855 0.75794 0.0
H3378 H 0.79007 0.92185 0.75524 0.0
H3379 H 0.75302 0.89812 0.73202 0.0
H3380 H 0.74936 0.91462 0.73448 0.0
H3381 H 0.76711 0.89358 0.6801 0.0
H3382 H 0.76434 0.9011 0.83028 0.0
H3383 H 0.77054 0.91345 0.89488 0.0
H3384 H 0.80534 0.91807 0.88401 0.0
H3385 H 0.79937 0.90586 0.81897 0.0
C3386 C 0.75824 0.8438 0.75104 0.0
C3387 C 0.76748 0.84167 0.76107 0.0
C3388 C 0.76039 0.85529 0.74623 0.0
C3389 C 0.77185 0.86493 0.75108 0.0
C3390 C 0.7811 0.86289 0.76174 0.0
C3391 C 0.77895 0.85134 0.7665 0.0
C3392 C 0.7739 0.87706 0.74581 0.0
C3393 C 0.77812 0.88479 0.78063 0.0
C3394 C 0.77028 0.88044 0.70855 0.0
C3395 C 0.76653 0.87296 0.66975 0.0
C3396 C 0.77378 0.86894 0.65215 0.0
C3397 C 0.77014 0.86176 0.616 0.0
C3398 C 0.7593 0.85858 0.59697 0.0
C3399 C 0.75208 0.8626 0.61403 0.0
C3400 C 0.75566 0.86977 0.65021 0.0
C3401 C 0.77912 0.92978 0.75202 0.0
C3402 C 0.76762 0.9279 0.74662 0.0
C3403 C 0.78119 0.92026 0.75057 0.0
C3404 C 0.7718 0.90876 0.7436 0.0
C3405 C 0.76039 0.90693 0.7373 0.0
C3406 C 0.75831 0.91638 0.73895 0.0
C3407 C 0.77359 0.89845 0.7441 0.0
C3408 C 0.77011 0.89107 0.70829 0.0
C3409 C 0.7779 0.89541 0.7804 0.0
C3410 C 0.78146 0.90271 0.8195 0.0
C3411 C 0.77334 0.90484 0.84147 0.0
C3412 C 0.77681 0.91179 0.8782 0.0
C3413 C 0.78834 0.91658 0.89345 0.0
C3414 C 0.79642 0.91438 0.87209 0.0
C3415 C 0.793 0.90745 0.83531 0.0
H3416 H 0.79101 0.92196 0.9219 0.0
H3417 H 0.7565 0.85302 0.56899 0.0
H3418 H 0.14679 0.93592 0.74065 0.0
H3419 H 0.1266 0.91903 0.73838 0.0
H3420 H 0.14024 0.89608 0.70557 0.0
H3421 H 0.16032 0.91279 0.70774 0.0
H3422 H 0.12067 0.89168 0.65774 0.0
H3423 H 0.13321 0.89778 0.80594 0.0
H3424 H 0.14028 0.90949 0.87187 0.0
H3425 H 0.10982 0.91382 0.87307 0.0
H3426 H 0.10266 0.90226 0.80676 0.0
H3427 H 0.08245 0.83382 0.72175 0.0
H3428 H 0.09847 0.85397 0.7112 0.0
H3429 H 0.07606 0.86735 0.75435 0.0
H3430 H 0.05991 0.84708 0.76554 0.0
H3431 H 0.09754 0.87877 0.79164 0.0
H3432 H 0.08316 0.86942 0.65047 0.0
H3433 H 0.07601 0.8575 0.58507 0.0
H3434 H 0.1095 0.85931 0.56964 0.0
H3435 H 0.11681 0.87109 0.6353 0.0
C3436 C 0.14546 0.92728 0.73263 0.0
C3437 C 0.15514 0.92567 0.72464 0.0
C3438 C 0.13394 0.91766 0.73142 0.0
C3439 C 0.13196 0.90632 0.72199 0.0
C3440 C 0.14159 0.90477 0.71279 0.0
C3441 C 0.15306 0.91433 0.7143 0.0
C3442 C 0.11997 0.89586 0.72348 0.0
C3443 C 0.11559 0.88883 0.68695 0.0
C3444 C 0.1132 0.89239 0.76127 0.0
C3445 C 0.11748 0.8993 0.80115 0.0
C3446 C 0.12808 0.90132 0.82007 0.0
C3447 C 0.13209 0.90791 0.85753 0.0
C3448 C 0.12553 0.91243 0.87656 0.0
C3449 C 0.11491 0.91034 0.85823 0.0
C3450 C 0.11087 0.90377 0.82073 0.0
C3451 C 0.08087 0.84102 0.7288 0.0
C3452 C 0.06989 0.83884 0.74448 0.0
C3453 C 0.09003 0.85255 0.72247 0.0
C3454 C 0.0884 0.86215 0.73139 0.0
C3455 C 0.07746 0.86004 0.74704 0.0
C3456 C 0.06825 0.84847 0.75335 0.0
C3457 C 0.0984 0.87434 0.72622 0.0
C3458 C 0.10243 0.88172 0.76204 0.0
C3459 C 0.10483 0.87815 0.6877 0.0
C3460 C 0.10051 0.8711 0.64799 0.0
C3461 C 0.08898 0.86721 0.6333 0.0
C3462 C 0.0849 0.86049 0.59615 0.0
C3463 C 0.09229 0.85764 0.57324 0.0
C3464 C 0.10379 0.86153 0.58741 0.0
C3465 C 0.10791 0.86825 0.62457 0.0
H3466 H 0.08912 0.85243 0.54449 0.0
H3467 H 0.12864 0.91753 0.90557 0.0
H3468 H 0.88116 0.3975 0.56706 0.0
H3469 H 0.877 0.41372 0.57387 0.0
H3470 H 0.91129 0.43551 0.63046 0.0
H3471 H 0.91541 0.41935 0.62463 0.0
H3472 H 0.89503 0.43854 0.67043 0.0
H3473 H 0.90609 0.43728 0.5238 0.0
H3474 H 0.904 0.42786 0.45391 0.0
H3475 H 0.86889 0.42235 0.44185 0.0
H3476 H 0.87073 0.43162 0.51196 0.0
H3477 H 0.91402 0.49763 0.62214 0.0
H3478 H 0.91053 0.47757 0.62862 0.0
H3479 H 0.87548 0.46386 0.5773 0.0
H3480 H 0.87893 0.48402 0.57043 0.0
H3481 H 0.88764 0.45457 0.5383 0.0
H3482 H 0.87851 0.45953 0.68041 0.0
H3483 H 0.88137 0.46962 0.74926 0.0
H3484 H 0.91338 0.46872 0.76965 0.0
H3485 H 0.91081 0.45878 0.70062 0.0
C3486 C 0.88777 0.40571 0.58127 0.0
C3487 C 0.89865 0.40717 0.59499 0.0
C3488 C 0.88538 0.41497 0.58506 0.0
C3489 C 0.89389 0.42586 0.60223 0.0
C3490 C 0.90459 0.42718 0.61717 0.0
C3491 C 0.90695 0.41794 0.61362 0.0
C3492 C 0.89203 0.43614 0.60291 0.0
C3493 C 0.89343 0.44207 0.64156 0.0
C3494 C 0.88959 0.44053 0.56543 0.0
C3495 C 0.88849 0.435 0.5233 0.0
C3496 C 0.89789 0.43397 0.50637 0.0
C3497 C 0.89676 0.42868 0.46671 0.0
C3498 C 0.8863 0.42447 0.44352 0.0
C3499 C 0.87697 0.42559 0.45989 0.0
C3500 C 0.87806 0.43086 0.49957 0.0
C3501 C 0.90552 0.49036 0.61253 0.0
C3502 C 0.89675 0.49242 0.5957 0.0
C3503 C 0.90352 0.47889 0.61652 0.0
C3504 C 0.8927 0.46923 0.60392 0.0
C3505 C 0.88387 0.47121 0.58742 0.0
C3506 C 0.88585 0.48272 0.58358 0.0
C3507 C 0.89103 0.45718 0.6056 0.0
C3508 C 0.88896 0.45091 0.56739 0.0
C3509 C 0.89293 0.45252 0.64345 0.0
C3510 C 0.89449 0.45845 0.68517 0.0
C3511 C 0.88621 0.46155 0.69942 0.0
C3512 C 0.88777 0.46724 0.73852 0.0
C3513 C 0.89756 0.46982 0.76379 0.0
C3514 C 0.90579 0.46671 0.75004 0.0
C3515 C 0.90428 0.46103 0.71096 0.0
H3516 H 0.89875 0.47423 0.79404 0.0
H3517 H 0.88544 0.42038 0.41282 0.0
H3518 H 0.50176 0.41638 0.62229 0.0
H3519 H 0.5214 0.43378 0.62127 0.0
H3520 H 0.53407 0.41529 0.54337 0.0
H3521 H 0.51437 0.39766 0.54468 0.0
H3522 H 0.55021 0.42903 0.60515 0.0
H3523 H 0.52728 0.43385 0.49686 0.0
H3524 H 0.50987 0.43397 0.46734 0.0
H3525 H 0.51509 0.46149 0.55425 0.0
H3526 H 0.53243 0.46142 0.58474 0.0
H3527 H 0.60162 0.48335 0.54113 0.0
H3528 H 0.5837 0.46393 0.54292 0.0
H3529 H 0.56613 0.47841 0.61685 0.0
H3530 H 0.58387 0.49781 0.61471 0.0
H3531 H 0.55292 0.46595 0.55099 0.0
H3532 H 0.57535 0.46043 0.66145 0.0
H3533 H 0.59261 0.4601 0.69138 0.0
H3534 H 0.58844 0.43394 0.59981 0.0
H3535 H 0.57124 0.43423 0.56895 0.0
C3536 C 0.50872 0.41595 0.60516 0.0
C3537 C 0.50648 0.40567 0.58317 0.0
C3538 C 0.51994 0.42592 0.60457 0.0
C3539 C 0.52912 0.42588 0.58163 0.0
C3540 C 0.52707 0.4155 0.5611 0.0
C3541 C 0.51582 0.40546 0.5618 0.0
C3542 C 0.54066 0.43689 0.57779 0.0
C3543 C 0.55086 0.43707 0.59272 0.0
C3544 C 0.54145 0.44738 0.56195 0.0
C3545 C 0.53111 0.44756 0.5433 0.0
C3546 C 0.52467 0.43988 0.50986 0.0
C3547 C 0.51482 0.43994 0.49294 0.0
C3548 C 0.51136 0.44771 0.50897 0.0
C3549 C 0.51777 0.45546 0.54188 0.0
C3550 C 0.52762 0.45543 0.55896 0.0
C3551 C 0.59397 0.48237 0.55809 0.0
C3552 C 0.59415 0.49213 0.57762 0.0
C3553 C 0.58375 0.47126 0.55919 0.0
C3554 C 0.5736 0.46972 0.58013 0.0
C3555 C 0.57386 0.47941 0.60039 0.0
C3556 C 0.58403 0.49049 0.5992 0.0
C3557 C 0.56246 0.45821 0.57941 0.0
C3558 C 0.55231 0.45791 0.56327 0.0
C3559 C 0.56176 0.44764 0.59403 0.0
C3560 C 0.57209 0.44745 0.61259 0.0
C3561 C 0.57818 0.45468 0.64746 0.0
C3562 C 0.58794 0.45449 0.66464 0.0
C3563 C 0.59164 0.44703 0.64743 0.0
C3564 C 0.58557 0.43972 0.61306 0.0
C3565 C 0.57581 0.43989 0.59574 0.0
H3566 H 0.5992 0.44689 0.66078 0.0
H3567 H 0.50372 0.44774 0.49585 0.0
H3568 H 0.58692 0.09077 0.52972 0.0
H3569 H 0.57038 0.09446 0.52584 0.0
H3570 H 0.58105 0.11325 0.64499 0.0
H3571 H 0.59783 0.10979 0.64871 0.0
H3572 H 0.55678 0.09403 0.63968 0.0
H3573 H 0.58397 0.12903 0.56501 0.0
H3574 H 0.59904 0.14064 0.51105 0.0
H3575 H 0.57453 0.12096 0.41155 0.0
H3576 H 0.55937 0.1091 0.46494 0.0
H3577 H 0.50734 0.10206 0.62764 0.0
H3578 H 0.52786 0.10686 0.63577 0.0
H3579 H 0.52802 0.09618 0.50601 0.0
H3580 H 0.50769 0.09183 0.4972 0.0
H3581 H 0.54847 0.11442 0.52313 0.0
H3582 H 0.52294 0.07745 0.59319 0.0
H3583 H 0.50761 0.06424 0.6439 0.0
H3584 H 0.5286 0.08572 0.74803 0.0
H3585 H 0.54399 0.09915 0.69783 0.0
C3586 C 0.58584 0.09582 0.55483 0.0
C3587 C 0.59361 0.09995 0.58962 0.0
C3588 C 0.57643 0.09797 0.55245 0.0
C3589 C 0.57456 0.10417 0.58504 0.0
C3590 C 0.58242 0.10851 0.61946 0.0
C3591 C 0.59199 0.10654 0.62148 0.0
C3592 C 0.56379 0.10515 0.58452 0.0
C3593 C 0.55504 0.09873 0.61486 0.0
C3594 C 0.56147 0.11098 0.5513 0.0
C3595 C 0.57055 0.11811 0.51904 0.0
C3596 C 0.58182 0.1271 0.53164 0.0
C3597 C 0.59038 0.13375 0.50114 0.0
C3598 C 0.58775 0.13153 0.4579 0.0
C3599 C 0.57656 0.12267 0.44506 0.0
C3600 C 0.56797 0.11599 0.47544 0.0
C3601 C 0.5118 0.10085 0.60074 0.0
C3602 C 0.50588 0.09645 0.56191 0.0
C3603 C 0.52351 0.10356 0.60545 0.0
C3604 C 0.52942 0.10166 0.57177 0.0
C3605 C 0.52366 0.09771 0.53248 0.0
C3606 C 0.51201 0.09519 0.52753 0.0
C3607 C 0.54133 0.1031 0.5779 0.0
C3608 C 0.55027 0.10992 0.54852 0.0
C3609 C 0.54377 0.09744 0.61154 0.0
C3610 C 0.53454 0.08938 0.64175 0.0
C3611 C 0.52424 0.0794 0.62688 0.0
C3612 C 0.51555 0.07187 0.65553 0.0
C3613 C 0.51711 0.07416 0.69915 0.0
C3614 C 0.52739 0.08397 0.71423 0.0
C3615 C 0.5361 0.09154 0.6857 0.0
H3616 H 0.51038 0.06832 0.72128 0.0
H3617 H 0.59438 0.13668 0.43434 0.0
H3618 H 0.72865 0.55037 0.09871 0.0
H3619 H 0.74527 0.54666 0.09707 0.0
H3620 H 0.76853 0.58268 0.0583 0.0
H3621 H 0.75207 0.58645 0.05965 0.0
H3622 H 0.77222 0.56691 0.01269 0.0
H3623 H 0.76741 0.57472 0.16047 0.0
H3624 H 0.75622 0.57091 0.22733 0.0
H3625 H 0.75089 0.53576 0.23161 0.0
H3626 H 0.76193 0.53931 0.16443 0.0
H3627 H 0.83007 0.58358 0.06841 0.0
H3628 H 0.81035 0.58093 0.06161 0.0
H3629 H 0.79523 0.54532 0.10893 0.0
H3630 H 0.81506 0.54796 0.11653 0.0
H3631 H 0.78534 0.55677 0.14625 0.0
H3632 H 0.79282 0.55 0.00436 0.0
H3633 H 0.80411 0.55377 0.93781 0.0
H3634 H 0.80424 0.58642 0.92137 0.0
H3635 H 0.7931 0.58294 0.98817 0.0
C3636 C 0.7373 0.55747 0.0896 0.0
C3637 C 0.73906 0.56872 0.07952 0.0
C3638 C 0.74677 0.55534 0.08877 0.0
C3639 C 0.75812 0.56442 0.0778 0.0
C3640 C 0.75982 0.57555 0.06676 0.0
C3641 C 0.75041 0.5777 0.06777 0.0
C3642 C 0.76841 0.56259 0.07898 0.0
C3643 C 0.77512 0.56473 0.04187 0.0
C3644 C 0.77194 0.55934 0.11675 0.0
C3645 C 0.76536 0.55723 0.1572 0.0
C3646 C 0.76377 0.56615 0.1755 0.0
C3647 C 0.75747 0.56404 0.21348 0.0
C3648 C 0.75281 0.55309 0.23363 0.0
C3649 C 0.75448 0.54423 0.21592 0.0
C3650 C 0.76076 0.54628 0.17791 0.0
C3651 C 0.82257 0.57515 0.07724 0.0
C3652 C 0.82414 0.56597 0.09291 0.0
C3653 C 0.81129 0.57363 0.0731 0.0
C3654 C 0.80131 0.56286 0.0841 0.0
C3655 C 0.80282 0.55368 0.10003 0.0
C3656 C 0.81415 0.5552 0.10429 0.0
C3657 C 0.78939 0.56148 0.08022 0.0
C3658 C 0.78234 0.55872 0.11679 0.0
C3659 C 0.78552 0.56412 0.04187 0.0
C3660 C 0.79217 0.56623 0.00146 0.0
C3661 C 0.79532 0.55802 0.98672 0.0
C3662 C 0.80169 0.5601 0.94892 0.0
C3663 C 0.80491 0.57034 0.92541 0.0
C3664 C 0.80174 0.5785 0.93962 0.0
C3665 C 0.79538 0.57647 0.97742 0.0
H3666 H 0.80984 0.57194 0.89616 0.0
H3667 H 0.74793 0.55147 0.26303 0.0
H3668 H 0.45304 0.18246 0.10549 0.0
H3669 H 0.45655 0.20272 0.10306 0.0
H3670 H 0.42086 0.18962 0.05943 0.0
H3671 H 0.41729 0.16948 0.06169 0.0
H3672 H 0.43705 0.2092 0.01471 0.0
H3673 H 0.4276 0.19632 0.16184 0.0
H3674 H 0.43075 0.189 0.23005 0.0
H3675 H 0.46556 0.21924 0.23889 0.0
H3676 H 0.46266 0.22665 0.17037 0.0
H3677 H 0.41704 0.2479 0.06714 0.0
H3678 H 0.42094 0.2316 0.06141 0.0
H3679 H 0.45618 0.25381 0.10981 0.0
H3680 H 0.45232 0.27028 0.116 0.0
H3681 H 0.44496 0.23211 0.1484 0.0
H3682 H 0.45289 0.24672 0.00714 0.0
H3683 H 0.44948 0.25411 0.93959 0.0
H3684 H 0.4178 0.22093 0.91908 0.0
H3685 H 0.42092 0.21339 0.98685 0.0
C3686 C 0.44598 0.18392 0.09515 0.0
C3687 C 0.43487 0.17437 0.08398 0.0
C3688 C 0.44799 0.19548 0.09386 0.0
C3689 C 0.43894 0.19764 0.08122 0.0
C3690 C 0.42797 0.18814 0.06915 0.0
C3691 C 0.42593 0.17663 0.07069 0.0
C3692 C 0.4406 0.20969 0.08174 0.0
C3693 C 0.43877 0.21423 0.0439 0.0
C3694 C 0.44325 0.2164 0.11959 0.0
C3695 C 0.44498 0.21195 0.16076 0.0
C3696 C 0.43596 0.20135 0.17815 0.0
C3697 C 0.4377 0.1972 0.2169 0.0
C3698 C 0.44837 0.20363 0.23872 0.0
C3699 C 0.45732 0.21425 0.2219 0.0
C3700 C 0.45563 0.21843 0.18312 0.0
C3701 C 0.42565 0.24937 0.07647 0.0
C3702 C 0.43438 0.2604 0.09199 0.0
C3703 C 0.42789 0.24005 0.07293 0.0
C3704 C 0.43891 0.24155 0.08463 0.0
C3705 C 0.44764 0.25251 0.10039 0.0
C3706 C 0.44542 0.2619 0.10382 0.0
C3707 C 0.44098 0.23143 0.08162 0.0
C3708 C 0.44352 0.22726 0.11895 0.0
C3709 C 0.43901 0.22506 0.04325 0.0
C3710 C 0.43711 0.22951 0.00225 0.0
C3711 C 0.44515 0.24102 0.98838 0.0
C3712 C 0.44328 0.24523 0.95002 0.0
C3713 C 0.43342 0.238 0.92509 0.0
C3714 C 0.42543 0.22652 0.93843 0.0
C3715 C 0.42726 0.22227 0.97679 0.0
H3716 H 0.43199 0.24127 0.8954 0.0
H3717 H 0.44969 0.2004 0.26872 0.0
H3718 H 0.7425 0.17116 0.04276 0.0
H3719 H 0.75939 0.19123 0.04361 0.0
H3720 H 0.76149 0.18956 0.1801 0.0
H3721 H 0.74452 0.16955 0.17967 0.0
H3722 H 0.76573 0.21128 0.15364 0.0
H3723 H 0.77883 0.18385 0.11905 0.0
H3724 H 0.77875 0.16768 0.0784 0.0
H3725 H 0.78757 0.18848 0.96444 0.0
H3726 H 0.7875 0.2047 0.00431 0.0
H3727 H 0.82639 0.2534 0.18895 0.0
H3728 H 0.80667 0.23603 0.18503 0.0
H3729 H 0.80688 0.23962 0.04864 0.0
H3730 H 0.82663 0.25694 0.05217 0.0
H3731 H 0.80088 0.2175 0.07216 0.0
H3732 H 0.78926 0.24571 0.10943 0.0
H3733 H 0.78941 0.26169 0.15151 0.0
H3734 H 0.77817 0.23945 0.26207 0.0
H3735 H 0.77812 0.22339 0.2208 0.0
C3736 C 0.74646 0.1751 0.07302 0.0
C3737 C 0.74226 0.16871 0.11111 0.0
C3738 C 0.75612 0.18657 0.07343 0.0
C3739 C 0.76178 0.1918 0.11186 0.0
C3740 C 0.75725 0.18567 0.15011 0.0
C3741 C 0.74759 0.17421 0.14975 0.0
C3742 C 0.77286 0.20334 0.11198 0.0
C3743 C 0.77345 0.21264 0.13611 0.0
C3744 C 0.78286 0.20513 0.08852 0.0
C3745 C 0.78303 0.19543 0.06456 0.0
C3746 C 0.78066 0.18494 0.08525 0.0
C3747 C 0.78066 0.17577 0.06237 0.0
C3748 C 0.78313 0.17705 0.01884 0.0
C3749 C 0.78564 0.1875 0.99814 0.0
C3750 C 0.78562 0.19669 0.02087 0.0
C3751 C 0.82219 0.25058 0.15815 0.0
C3752 C 0.8281 0.25652 0.12085 0.0
C3753 C 0.81089 0.24068 0.156 0.0
C3754 C 0.80529 0.23658 0.11655 0.0
C3755 C 0.81105 0.24265 0.07938 0.0
C3756 C 0.82234 0.25256 0.0815 0.0
C3757 C 0.79378 0.22549 0.11381 0.0
C3758 C 0.79313 0.21622 0.08933 0.0
C3759 C 0.78378 0.22374 0.13717 0.0
C3760 C 0.78379 0.23338 0.16209 0.0
C3761 C 0.78691 0.24426 0.1428 0.0
C3762 C 0.78696 0.25333 0.16649 0.0
C3763 C 0.78383 0.2516 0.20946 0.0
C3764 C 0.78061 0.24079 0.22879 0.0
C3765 C 0.78056 0.23169 0.20525 0.0
H3766 H 0.78387 0.25863 0.22774 0.0
H3767 H 0.78312 0.16994 0.00118 0.0
H3768 H 0.5598 0.7361 0.82384 0.0
H3769 H 0.55791 0.75377 0.82322 0.0
H3770 H 0.56911 0.76057 0.95418 0.0
H3771 H 0.57107 0.74293 0.95515 0.0
H3772 H 0.55072 0.76546 0.93378 0.0
H3773 H 0.58901 0.77387 0.88334 0.0
H3774 H 0.60247 0.77067 0.83765 0.0
H3775 H 0.58771 0.77749 0.72663 0.0
H3776 H 0.574 0.78054 0.77168 0.0
H3777 H 0.57459 0.82747 0.95001 0.0
H3778 H 0.57063 0.80713 0.95079 0.0
H3779 H 0.56396 0.80447 0.81575 0.0
H3780 H 0.56808 0.82486 0.81455 0.0
H3781 H 0.57866 0.79673 0.83575 0.0
H3782 H 0.5414 0.79 0.88687 0.0
H3783 H 0.52784 0.793 0.93277 0.0
H3784 H 0.54048 0.78306 0.04231 0.0
H3785 H 0.55424 0.78017 0.99713 0.0
C3786 C 0.56167 0.74122 0.85275 0.0
C3787 C 0.56573 0.7382 0.8894 0.0
C3788 C 0.56059 0.75132 0.85231 0.0
C3789 C 0.5635 0.75851 0.88851 0.0
C3790 C 0.56683 0.75512 0.92593 0.0
C3791 C 0.568 0.74507 0.92634 0.0
C3792 C 0.56416 0.77011 0.88617 0.0
C3793 C 0.55687 0.77235 0.91261 0.0
C3794 C 0.57205 0.77897 0.85794 0.0
C3795 C 0.58039 0.7773 0.83084 0.0
C3796 C 0.58856 0.77459 0.84916 0.0
C3797 C 0.59625 0.77282 0.82339 0.0
C3798 C 0.59592 0.77385 0.77926 0.0
C3799 C 0.58793 0.77668 0.76082 0.0
C3800 C 0.5802 0.77843 0.78645 0.0
C3801 C 0.57218 0.82253 0.92052 0.0
C3802 C 0.57169 0.82779 0.88218 0.0
C3803 C 0.56986 0.81088 0.92107 0.0
C3804 C 0.56689 0.80425 0.88339 0.0
C3805 C 0.56622 0.80942 0.8452 0.0
C3806 C 0.56856 0.82108 0.84459 0.0
C3807 C 0.56521 0.79217 0.8834 0.0
C3808 C 0.57238 0.78984 0.85661 0.0
C3809 C 0.55721 0.78325 0.91134 0.0
C3810 C 0.54893 0.78497 0.93863 0.0
C3811 C 0.54136 0.78855 0.92079 0.0
C3812 C 0.53362 0.79021 0.94667 0.0
C3813 C 0.53331 0.78825 0.99044 0.0
C3814 C 0.54073 0.78459 0.0084 0.0
C3815 C 0.5485 0.78292 0.98266 0.0
H3816 H 0.52731 0.78954 0.01042 0.0
H3817 H 0.60188 0.77247 0.75936 0.0
H3818 H 0.16937 0.74851 0.96108 0.0
H3819 H 0.18888 0.76611 0.96066 0.0
H3820 H 0.19932 0.7519 0.85645 0.0
H3821 H 0.17974 0.73412 0.85672 0.0
H3822 H 0.2174 0.76403 0.91804 0.0
H3823 H 0.19068 0.77028 0.83262 0.0
H3824 H 0.172 0.76992 0.81746 0.0
H3825 H 0.17871 0.79411 0.92014 0.0
H3826 H 0.19734 0.79446 0.9364 0.0
H3827 H 0.26506 0.82121 0.85554 0.0
H3828 H 0.24778 0.80132 0.85717 0.0
H3829 H 0.23212 0.81229 0.95474 0.0
H3830 H 0.24921 0.83214 0.95306 0.0
H3831 H 0.21697 0.8012 0.89079 0.0
H3832 H 0.2434 0.79448 0.97766 0.0
H3833 H 0.26181 0.79444 0.99405 0.0
H3834 H 0.25574 0.77119 0.8887 0.0
H3835 H 0.23736 0.77122 0.87131 0.0
C3836 C 0.17583 0.74903 0.93837 0.0
C3837 C 0.17295 0.73998 0.90852 0.0
C3838 C 0.18698 0.7591 0.93821 0.0
C3839 C 0.19544 0.76036 0.90811 0.0
C3840 C 0.19287 0.75108 0.87983 0.0
C3841 C 0.18167 0.74096 0.87995 0.0
C3842 C 0.20658 0.77175 0.90433 0.0
C3843 C 0.21736 0.77216 0.91147 0.0
C3844 C 0.20645 0.78232 0.89617 0.0
C3845 C 0.19536 0.78232 0.88595 0.0
C3846 C 0.18814 0.77547 0.85215 0.0
C3847 C 0.17756 0.77527 0.84334 0.0
C3848 C 0.17416 0.78197 0.86788 0.0
C3849 C 0.18135 0.78892 0.90118 0.0
C3850 C 0.19192 0.78913 0.91019 0.0
C3851 C 0.25798 0.81936 0.87761 0.0
C3852 C 0.25848 0.82828 0.904 0.0
C3853 C 0.24814 0.80797 0.8786 0.0
C3854 C 0.23869 0.80533 0.90615 0.0
C3855 C 0.2393 0.81416 0.93315 0.0
C3856 C 0.2491 0.8255 0.93217 0.0
C3857 C 0.22784 0.79358 0.90552 0.0
C3858 C 0.21707 0.7931 0.89721 0.0
C3859 C 0.22802 0.78298 0.91251 0.0
C3860 C 0.23907 0.78296 0.92289 0.0
C3861 C 0.24605 0.78945 0.95774 0.0
C3862 C 0.25647 0.78941 0.96727 0.0
C3863 C 0.25997 0.78285 0.94235 0.0
C3864 C 0.25303 0.77629 0.90792 0.0
C3865 C 0.24261 0.77631 0.89824 0.0
H3866 H 0.26804 0.78282 0.94978 0.0
H3867 H 0.16596 0.78179 0.86105 0.0
H3868 H 0.17842 0.44126 0.97831 0.0
H3869 H 0.19798 0.44309 0.97729 0.0
H3870 H 0.18629 0.41627 0.88015 0.0
H3871 H 0.16673 0.41431 0.88116 0.0
H3872 H 0.19728 0.412 0.94444 0.0
H3873 H 0.20459 0.44493 0.8559 0.0
H3874 H 0.20497 0.46347 0.83793 0.0
H3875 H 0.22833 0.4809 0.94277 0.0
H3876 H 0.22796 0.4624 0.96174 0.0
H3877 H 0.25038 0.4166 0.87762 0.0
H3878 H 0.23244 0.41792 0.87812 0.0
H3879 H 0.24674 0.44376 0.9787 0.0
H3880 H 0.26487 0.44259 0.97824 0.0
H3881 H 0.23483 0.44917 0.91693 0.0
H3882 H 0.22785 0.41627 0.00423 0.0
H3883 H 0.22769 0.39777 0.02108 0.0
H3884 H 0.20363 0.38028 0.91802 0.0
H3885 H 0.20379 0.39873 0.90014 0.0
C3886 C 0.18003 0.4358 0.95654 0.0
C3887 C 0.17101 0.42761 0.92991 0.0
C3888 C 0.19123 0.4369 0.95588 0.0
C3889 C 0.19358 0.42985 0.92851 0.0
C3890 C 0.18464 0.42178 0.90155 0.0
C3891 C 0.17347 0.42069 0.90212 0.0
C3892 C 0.2052 0.43047 0.92908 0.0
C3893 C 0.20547 0.4201 0.93794 0.0
C3894 C 0.21591 0.44112 0.92184 0.0
C3895 C 0.21614 0.45225 0.91053 0.0
C3896 C 0.20972 0.45269 0.87537 0.0
C3897 C 0.20995 0.46319 0.86495 0.0
C3898 C 0.21664 0.47334 0.88927 0.0
C3899 C 0.22314 0.47302 0.92401 0.0
C3900 C 0.22292 0.46253 0.93459 0.0
C3901 C 0.24978 0.42264 0.89969 0.0
C3902 C 0.25901 0.42941 0.92823 0.0
C3903 C 0.2395 0.42337 0.89995 0.0
C3904 C 0.23821 0.4308 0.92888 0.0
C3905 C 0.24757 0.43793 0.95625 0.0
C3906 C 0.2579 0.43722 0.95602 0.0
C3907 C 0.22685 0.43066 0.93159 0.0
C3908 C 0.22663 0.4411 0.92358 0.0
C3909 C 0.21616 0.42007 0.93962 0.0
C3910 C 0.21592 0.40891 0.95063 0.0
C3911 C 0.22259 0.4085 0.98497 0.0
C3912 C 0.22249 0.39802 0.99473 0.0
C3913 C 0.21568 0.38787 0.97057 0.0
C3914 C 0.20892 0.38816 0.93668 0.0
C3915 C 0.209 0.39862 0.92675 0.0
H3916 H 0.21562 0.37976 0.97816 0.0
H3917 H 0.21681 0.48147 0.88114 0.0
H3918 H 0.41224 0.90644 0.38548 0.0
H3919 H 0.42843 0.90226 0.38753 0.0
H3920 H 0.41946 0.88998 0.51685 0.0
H3921 H 0.40329 0.8943 0.51531 0.0
H3922 H 0.44244 0.90555 0.50908 0.0
H3923 H 0.41481 0.87057 0.43662 0.0
H3924 H 0.39997 0.85865 0.38242 0.0
H3925 H 0.42562 0.87603 0.2837 0.0
H3926 H 0.44058 0.88819 0.33726 0.0
H3927 H 0.48879 0.89226 0.51125 0.0
H3928 H 0.46864 0.88889 0.51419 0.0
H3929 H 0.47221 0.90212 0.38619 0.0
H3930 H 0.49225 0.90536 0.3827 0.0
H3931 H 0.45045 0.88316 0.39952 0.0
H3932 H 0.47682 0.91996 0.47067 0.0
H3933 H 0.49173 0.93236 0.52401 0.0
H3934 H 0.46824 0.91167 0.62452 0.0
H3935 H 0.45324 0.89905 0.57169 0.0
C3936 C 0.41361 0.90273 0.41424 0.0
C3937 C 0.40651 0.90076 0.45032 0.0
C3938 C 0.42283 0.90027 0.41526 0.0
C3939 C 0.42507 0.8957 0.45222 0.0
C3940 C 0.41784 0.89347 0.48798 0.0
C3941 C 0.40861 0.89594 0.48701 0.0
C3942 C 0.43555 0.89417 0.45438 0.0
C3943 C 0.44406 0.90042 0.48572 0.0
C3944 C 0.43776 0.88767 0.42337 0.0
C3945 C 0.4288 0.88035 0.391 0.0
C3946 C 0.41727 0.87192 0.40334 0.0
C3947 C 0.40884 0.86511 0.37272 0.0
C3948 C 0.41184 0.8666 0.32964 0.0
C3949 C 0.4233 0.87489 0.31709 0.0
C3950 C 0.43176 0.88173 0.34757 0.0
C3951 C 0.48525 0.89434 0.48357 0.0
C3952 C 0.49217 0.8992 0.4469 0.0
C3953 C 0.47374 0.89242 0.48534 0.0
C3954 C 0.469 0.8954 0.4506 0.0
C3955 C 0.47571 0.89977 0.41335 0.0
C3956 C 0.48719 0.90167 0.41151 0.0
C3957 C 0.45737 0.8947 0.45371 0.0
C3958 C 0.44869 0.88808 0.42334 0.0
C3959 C 0.45499 0.90088 0.48551 0.0
C3960 C 0.46398 0.90848 0.51726 0.0
C3961 C 0.47488 0.918 0.50415 0.0
C3962 C 0.48333 0.92508 0.53428 0.0
C3963 C 0.48095 0.92278 0.57763 0.0
C3964 C 0.47009 0.91342 0.59093 0.0
C3965 C 0.4616 0.90631 0.56092 0.0
H3966 H 0.48751 0.92827 0.60091 0.0
H3967 H 0.4053 0.86132 0.30599 0.0
H3968 H 0.11343 0.59923 0.46777 0.0
H3969 H 0.11545 0.58158 0.46745 0.0
H3970 H 0.0824 0.5624 0.40021 0.0
H3971 H 0.08026 0.57987 0.40053 0.0
H3972 H 0.08358 0.55017 0.46835 0.0
H3973 H 0.1082 0.57202 0.34901 0.0
H3974 H 0.12462 0.58932 0.31406 0.0
H3975 H 0.14939 0.58712 0.39776 0.0
H3976 H 0.13309 0.56989 0.4336 0.0
H3977 H 0.08168 0.49958 0.38934 0.0
H3978 H 0.08336 0.51896 0.39395 0.0
H3979 H 0.11645 0.53245 0.46062 0.0
H3980 H 0.11491 0.51301 0.45578 0.0
H3981 H 0.11685 0.54821 0.40075 0.0
H3982 H 0.09266 0.52566 0.51682 0.0
H3983 H 0.07644 0.50823 0.55183 0.0
H3984 H 0.0511 0.51184 0.47614 0.0
H3985 H 0.0672 0.52922 0.44021 0.0
C3986 C 0.10662 0.59126 0.45275 0.0
C3987 C 0.09668 0.59095 0.43424 0.0
C3988 C 0.10781 0.58121 0.4525 0.0
C3989 C 0.09908 0.57071 0.43371 0.0
C3990 C 0.08921 0.57042 0.41498 0.0
C3991 C 0.08803 0.58043 0.41509 0.0
C3992 C 0.09998 0.55987 0.43422 0.0
C3993 C 0.09081 0.54972 0.45328 0.0
C3994 C 0.10962 0.55941 0.41586 0.0
C3995 C 0.11942 0.56976 0.39431 0.0
C3996 C 0.11714 0.57529 0.36022 0.0
C3997 C 0.12643 0.58507 0.34019 0.0
C3998 C 0.13804 0.58934 0.35377 0.0
C3999 C 0.14039 0.58382 0.38733 0.0
C4000 C 0.13113 0.57404 0.4075 0.0
C4001 C 0.08936 0.50667 0.40477 0.0
C4002 C 0.09811 0.50473 0.42256 0.0
C4003 C 0.09029 0.51773 0.40746 0.0
C4004 C 0.09993 0.52706 0.42825 0.0
C4005 C 0.10892 0.52532 0.44463 0.0
C4006 C 0.10801 0.51422 0.44191 0.0
C4007 C 0.10029 0.53847 0.43385 0.0
C4008 C 0.1097 0.54871 0.41618 0.0
C4009 C 0.09089 0.53906 0.45371 0.0
C4010 C 0.08115 0.5287 0.47561 0.0
C4011 C 0.08364 0.5227 0.50744 0.0
C4012 C 0.07446 0.51283 0.52748 0.0
C4013 C 0.06275 0.50892 0.51617 0.0
C4014 C 0.06018 0.51488 0.48486 0.0
C4015 C 0.06933 0.52475 0.46469 0.0
H4016 H 0.05567 0.50128 0.53175 0.0
H4017 H 0.14522 0.59691 0.33822 0.0
H4018 H 0.49852 0.58024 0.38346 0.0
H4019 H 0.47828 0.56403 0.37777 0.0
H4020 H 0.46542 0.5868 0.42157 0.0
H4021 H 0.48579 0.60318 0.42774 0.0
H4022 H 0.45499 0.56568 0.46302 0.0
H4023 H 0.4615 0.57845 0.31929 0.0
H4024 H 0.47217 0.58485 0.25112 0.0
H4025 H 0.4704 0.55133 0.23777 0.0
H4026 H 0.45987 0.54477 0.30619 0.0
H4027 H 0.3973 0.51569 0.42951 0.0
H4028 H 0.41405 0.53583 0.42339 0.0
H4029 H 0.43596 0.52207 0.37843 0.0
H4030 H 0.41933 0.50203 0.38385 0.0
H4031 H 0.43964 0.54111 0.33302 0.0
H4032 H 0.43655 0.5301 0.48229 0.0
H4033 H 0.42628 0.52369 0.55125 0.0
H4034 H 0.42181 0.55405 0.55384 0.0
H4035 H 0.43193 0.56056 0.48458 0.0
C4036 C 0.49141 0.58186 0.39165 0.0
C4037 C 0.49377 0.59301 0.40605 0.0
C4038 C 0.47983 0.57259 0.38812 0.0
C4039 C 0.47034 0.57426 0.39869 0.0
C4040 C 0.47263 0.58537 0.41302 0.0
C4041 C 0.48426 0.5947 0.41645 0.0
C4042 C 0.45813 0.56413 0.39671 0.0
C4043 C 0.45149 0.56045 0.43433 0.0
C4044 C 0.45365 0.55727 0.35938 0.0
C4045 C 0.45994 0.56114 0.31804 0.0
C4046 C 0.46345 0.57246 0.30198 0.0
C4047 C 0.46947 0.57612 0.26326 0.0
C4048 C 0.47197 0.56851 0.24016 0.0
C4049 C 0.46845 0.55722 0.2557 0.0
C4050 C 0.46244 0.55352 0.29442 0.0
C4051 C 0.40567 0.51697 0.41807 0.0
C4052 C 0.407 0.50726 0.4074 0.0
C4053 C 0.41522 0.52848 0.41468 0.0
C4054 C 0.42626 0.53043 0.40077 0.0
C4055 C 0.42751 0.52076 0.38913 0.0
C4056 C 0.418 0.5093 0.39246 0.0
C4057 C 0.43672 0.54245 0.39966 0.0
C4058 C 0.44302 0.54648 0.36142 0.0
C4059 C 0.44089 0.54963 0.43642 0.0
C4060 C 0.43486 0.54574 0.47806 0.0
C4061 C 0.43329 0.53536 0.49742 0.0
C4062 C 0.42751 0.53171 0.53658 0.0
C4063 C 0.42335 0.53844 0.55684 0.0
C4064 C 0.425 0.54884 0.53805 0.0
C4065 C 0.43077 0.55251 0.49887 0.0
H4066 H 0.41888 0.5356 0.58715 0.0
H4067 H 0.47663 0.57136 0.21019 0.0
loop_
_geom_bond_atom_site_label_1
_geom_bond_atom_site_label_2
_geom_bond_distance
_geom_bond_site_symmetry_2
_ccdc_geom_bond_type
C0 O1 1.160 . S
C0 O7 1.185 . S
O1 C0 1.160 . S
O2 Zn3 1.899 . S
O2 C10 1.284 . S
Zn3 O2 1.899 . S
Zn3 O4 2.032 . S
Zn3 O7 2.086 . S
Zn3 O12 1.977 . S
O4 Zn3 2.032 . S
O4 C8 1.278 . S
C5 O6 1.203 . S
C5 O12 1.267 . S
O6 C5 1.203 . S
O7 C0 1.185 . S
O7 Zn3 2.086 . S
C8 O4 1.278 . S
C8 O9 1.211 . S
O9 C8 1.211 . S
C10 O2 1.284 . S
C10 O11 1.273 . S
O11 C10 1.273 . S
O12 Zn3 1.977 . S
O12 C5 1.267 . S
C13 O14 1.160 . S
C13 O20 1.185 . S
O14 C13 1.160 . S
O15 Zn16 1.899 . S
O15 C23 1.284 . S
Zn16 O15 1.899 . S
Zn16 O17 2.032 . S
Zn16 O20 2.086 . S
Zn16 O25 1.977 . S
O17 Zn16 2.032 . S
O17 C21 1.278 . S
C18 O19 1.203 . S
C18 O25 1.267 . S
O19 C18 1.203 . S
O20 C13 1.185 . S
O20 Zn16 2.086 . S
C21 O17 1.278 . S
C21 O22 1.211 . S
O22 C21 1.211 . S
C23 O15 1.284 . S
C23 O24 1.273 . S
O24 C23 1.273 . S
O25 Zn16 1.977 . S
O25 C18 1.267 . S
C26 O27 1.160 . S
C26 O33 1.185 . S
O27 C26 1.160 . S
O28 Zn29 1.899 . S
O28 C36 1.284 . S
Zn29 O28 1.899 . S
Zn29 O30 2.032 . S
Zn29 O33 2.086 . S
Zn29 O38 1.977 . S
O30 Zn29 2.032 . S
O30 C34 1.278 . S
C31 O32 1.203 . S
C31 O38 1.267 . S
O32 C31 1.203 . S
O33 C26 1.185 . S
O33 Zn29 2.086 . S
C34 O30 1.278 . S
C34 O35 1.211 . S
O35 C34 1.211 . S
C36 O28 1.284 . S
C36 O37 1.273 . S
O37 C36 1.273 . S
O38 Zn29 1.977 . S
O38 C31 1.267 . S
C39 O40 1.160 . S
C39 O46 1.185 . S
O40 C39 1.160 . S
O41 Zn42 1.899 . S
O41 C49 1.284 . S
Zn42 O41 1.899 . S
Zn42 O43 2.032 . S
Zn42 O46 2.086 . S
Zn42 O51 1.977 . S
O43 Zn42 2.032 . S
O43 C47 1.278 . S
C44 O45 1.203 . S
C44 O51 1.267 . S
O45 C44 1.203 . S
O46 C39 1.185 . S
O46 Zn42 2.086 . S
C47 O43 1.278 . S
C47 O48 1.211 . S
O48 C47 1.211 . S
C49 O41 1.284 . S
C49 O50 1.273 . S
O50 C49 1.273 . S
O51 Zn42 1.977 . S
O51 C44 1.267 . S
C52 O53 1.160 . S
C52 O59 1.185 . S
O53 C52 1.160 . S
O54 Zn55 1.899 . S
O54 C62 1.284 . S
Zn55 O54 1.899 . S
Zn55 O56 2.032 . S
Zn55 O59 2.086 . S
Zn55 O64 1.977 . S
O56 Zn55 2.032 . S
O56 C60 1.278 . S
C57 O58 1.203 . S
C57 O64 1.267 . S
O58 C57 1.203 . S
O59 C52 1.185 . S
O59 Zn55 2.086 . S
C60 O56 1.278 . S
C60 O61 1.211 . S
O61 C60 1.211 . S
C62 O54 1.284 . S
C62 O63 1.273 . S
O63 C62 1.273 . S
O64 Zn55 1.977 . S
O64 C57 1.267 . S
C65 O66 1.160 . S
C65 O72 1.185 . S
O66 C65 1.160 . S
O67 Zn68 1.899 . S
O67 C75 1.284 . S
Zn68 O67 1.899 . S
Zn68 O69 2.032 . S
Zn68 O72 2.086 . S
Zn68 O77 1.977 . S
O69 Zn68 2.032 . S
O69 C73 1.278 . S
C70 O71 1.203 . S
C70 O77 1.267 . S
O71 C70 1.203 . S
O72 C65 1.185 . S
O72 Zn68 2.086 . S
C73 O69 1.278 . S
C73 O74 1.211 . S
O74 C73 1.211 . S
C75 O67 1.284 . S
C75 O76 1.273 . S
O76 C75 1.273 . S
O77 Zn68 1.977 . S
O77 C70 1.267 . S
C78 O79 1.160 . S
C78 O85 1.185 . S
O79 C78 1.160 . S
O80 Zn81 1.899 . S
O80 C88 1.284 . S
Zn81 O80 1.899 . S
Zn81 O82 2.032 . S
Zn81 O85 2.086 . S
Zn81 O90 1.977 . S
O82 Zn81 2.032 . S
O82 C86 1.278 . S
C83 O84 1.203 . S
C83 O90 1.267 . S
O84 C83 1.203 . S
O85 C78 1.185 . S
O85 Zn81 2.086 . S
C86 O82 1.278 . S
C86 O87 1.211 . S
O87 C86 1.211 . S
C88 O80 1.284 . S
C88 O89 1.273 . S
O89 C88 1.273 . S
O90 Zn81 1.977 . S
O90 C83 1.267 . S
C91 O92 1.160 . S
C91 O98 1.185 . S
O92 C91 1.160 . S
O93 Zn94 1.899 . S
O93 C101 1.284 . S
Zn94 O93 1.899 . S
Zn94 O95 2.032 . S
Zn94 O98 2.086 . S
Zn94 O103 1.977 . S
O95 Zn94 2.032 . S
O95 C99 1.278 . S
C96 O97 1.203 . S
C96 O103 1.267 . S
O97 C96 1.203 . S
O98 C91 1.185 . S
O98 Zn94 2.086 . S
C99 O95 1.278 . S
C99 O100 1.211 . S
O100 C99 1.211 . S
C101 O93 1.284 . S
C101 O102 1.273 . S
O102 C101 1.273 . S
O103 Zn94 1.977 . S
O103 C96 1.267 . S
C104 O105 1.160 . S
C104 O111 1.185 . S
O105 C104 1.160 . S
O106 Zn107 1.899 . S
O106 C114 1.284 . S
Zn107 O106 1.899 . S
Zn107 O108 2.032 . S
Zn107 O111 2.086 . S
Zn107 O116 1.977 . S
O108 Zn107 2.032 . S
O108 C112 1.278 . S
C109 O110 1.203 . S
C109 O116 1.267 . S
O110 C109 1.203 . S
O111 C104 1.185 . S
O111 Zn107 2.086 . S
C112 O108 1.278 . S
C112 O113 1.211 . S
O113 C112 1.211 . S
C114 O106 1.284 . S
C114 O115 1.273 . S
O115 C114 1.273 . S
O116 Zn107 1.977 . S
O116 C109 1.267 . S
C117 O118 1.160 . S
C117 O124 1.185 . S
O118 C117 1.160 . S
O119 Zn120 1.899 . S
O119 C127 1.284 . S
Zn120 O119 1.899 . S
Zn120 O121 2.032 . S
Zn120 O124 2.086 . S
Zn120 O129 1.977 . S
O121 Zn120 2.032 . S
O121 C125 1.278 . S
C122 O123 1.203 . S
C122 O129 1.267 . S
O123 C122 1.203 . S
O124 C117 1.185 . S
O124 Zn120 2.086 . S
C125 O121 1.278 . S
C125 O126 1.211 . S
O126 C125 1.211 . S
C127 O119 1.284 . S
C127 O128 1.273 . S
O128 C127 1.273 . S
O129 Zn120 1.977 . S
O129 C122 1.267 . S
C130 O131 1.160 . S
C130 O137 1.185 . S
O131 C130 1.160 . S
O132 Zn133 1.899 . S
O132 C140 1.284 . S
Zn133 O132 1.899 . S
Zn133 O134 2.032 . S
Zn133 O137 2.086 . S
Zn133 O142 1.977 . S
O134 Zn133 2.032 . S
O134 C138 1.278 . S
C135 O136 1.203 . S
C135 O142 1.267 . S
O136 C135 1.203 . S
O137 C130 1.185 . S
O137 Zn133 2.086 . S
C138 O134 1.278 . S
C138 O139 1.211 . S
O139 C138 1.211 . S
C140 O132 1.284 . S
C140 O141 1.273 . S
O141 C140 1.273 . S
O142 Zn133 1.977 . S
O142 C135 1.267 . S
C143 O144 1.160 . S
C143 O150 1.185 . S
O144 C143 1.160 . S
O145 Zn146 1.899 . S
O145 C153 1.284 . S
Zn146 O145 1.899 . S
Zn146 O147 2.032 . S
Zn146 O150 2.086 . S
Zn146 O155 1.977 . S
O147 Zn146 2.032 . S
O147 C151 1.278 . S
C148 O149 1.203 . S
C148 O155 1.267 . S
O149 C148 1.203 . S
O150 C143 1.185 . S
O150 Zn146 2.086 . S
C151 O147 1.278 . S
C151 O152 1.211 . S
O152 C151 1.211 . S
C153 O145 1.284 . S
C153 O154 1.273 . S
O154 C153 1.273 . S
O155 Zn146 1.977 . S
O155 C148 1.267 . S
C156 O157 1.160 . S
C156 O163 1.185 . S
O157 C156 1.160 . S
O158 Zn159 1.899 . S
O158 C166 1.284 . S
Zn159 O158 1.899 . S
Zn159 O160 2.032 . S
Zn159 O163 2.086 . S
Zn159 O168 1.977 . S
O160 Zn159 2.032 . S
O160 C164 1.278 . S
C161 O162 1.203 . S
C161 O168 1.267 . S
O162 C161 1.203 . S
O163 C156 1.185 . S
O163 Zn159 2.086 . S
C164 O160 1.278 . S
C164 O165 1.211 . S
O165 C164 1.211 . S
C166 O158 1.284 . S
C166 O167 1.273 . S
O167 C166 1.273 . S
O168 Zn159 1.977 . S
O168 C161 1.267 . S
C169 O170 1.160 . S
C169 O176 1.185 . S
O170 C169 1.160 . S
O171 Zn172 1.899 . S
O171 C179 1.284 . S
Zn172 O171 1.899 . S
Zn172 O173 2.032 . S
Zn172 O176 2.086 . S
Zn172 O181 1.977 . S
O173 Zn172 2.032 . S
O173 C177 1.278 . S
C174 O175 1.203 . S
C174 O181 1.267 . S
O175 C174 1.203 . S
O176 C169 1.185 . S
O176 Zn172 2.086 . S
C177 O173 1.278 . S
C177 O178 1.211 . S
O178 C177 1.211 . S
C179 O171 1.284 . S
C179 O180 1.273 . S
O180 C179 1.273 . S
O181 Zn172 1.977 . S
O181 C174 1.267 . S
C182 O183 1.160 . S
C182 O189 1.185 . S
O183 C182 1.160 . S
O184 Zn185 1.899 . S
O184 C192 1.284 . S
Zn185 O184 1.899 . S
Zn185 O186 2.032 . S
Zn185 O189 2.086 . S
Zn185 O194 1.977 . S
O186 Zn185 2.032 . S
O186 C190 1.278 . S
C187 O188 1.203 . S
C187 O194 1.267 . S
O188 C187 1.203 . S
O189 C182 1.185 . S
O189 Zn185 2.086 . S
C190 O186 1.278 . S
C190 O191 1.211 . S
O191 C190 1.211 . S
C192 O184 1.284 . S
C192 O193 1.273 . S
O193 C192 1.273 . S
O194 Zn185 1.977 . S
O194 C187 1.267 . S
C195 O196 1.160 . S
C195 O202 1.185 . S
O196 C195 1.160 . S
O197 Zn198 1.899 . S
O197 C205 1.284 . S
Zn198 O197 1.899 . S
Zn198 O199 2.032 . S
Zn198 O202 2.086 . S
Zn198 O207 1.977 . S
O199 Zn198 2.032 . S
O199 C203 1.278 . S
C200 O201 1.203 . S
C200 O207 1.267 . S
O201 C200 1.203 . S
O202 C195 1.185 . S
O202 Zn198 2.086 . S
C203 O199 1.278 . S
C203 O204 1.211 . S
O204 C203 1.211 . S
C205 O197 1.284 . S
C205 O206 1.273 . S
O206 C205 1.273 . S
O207 Zn198 1.977 . S
O207 C200 1.267 . S
C208 O209 1.160 . S
C208 O215 1.185 . S
O209 C208 1.160 . S
O210 Zn211 1.899 . S
O210 C218 1.284 . S
Zn211 O210 1.899 . S
Zn211 O212 2.032 . S
Zn211 O215 2.086 . S
Zn211 O220 1.977 . S
O212 Zn211 2.032 . S
O212 C216 1.278 . S
C213 O214 1.203 . S
C213 O220 1.267 . S
O214 C213 1.203 . S
O215 C208 1.185 . S
O215 Zn211 2.086 . S
C216 O212 1.278 . S
C216 O217 1.211 . S
O217 C216 1.211 . S
C218 O210 1.284 . S
C218 O219 1.273 . S
O219 C218 1.273 . S
O220 Zn211 1.977 . S
O220 C213 1.267 . S
C221 O222 1.160 . S
C221 O228 1.185 . S
O222 C221 1.160 . S
O223 Zn224 1.899 . S
O223 C231 1.284 . S
Zn224 O223 1.899 . S
Zn224 O225 2.032 . S
Zn224 O228 2.086 . S
Zn224 O233 1.977 . S
O225 Zn224 2.032 . S
O225 C229 1.278 . S
C226 O227 1.203 . S
C226 O233 1.267 . S
O227 C226 1.203 . S
O228 C221 1.185 . S
O228 Zn224 2.086 . S
C229 O225 1.278 . S
C229 O230 1.211 . S
O230 C229 1.211 . S
C231 O223 1.284 . S
C231 O232 1.273 . S
O232 C231 1.273 . S
O233 Zn224 1.977 . S
O233 C226 1.267 . S
C234 O235 1.160 . S
C234 O241 1.185 . S
O235 C234 1.160 . S
O236 Zn237 1.899 . S
O236 C244 1.284 . S
Zn237 O236 1.899 . S
Zn237 O238 2.032 . S
Zn237 O241 2.086 . S
Zn237 O246 1.977 . S
O238 Zn237 2.032 . S
O238 C242 1.278 . S
C239 O240 1.203 . S
C239 O246 1.267 . S
O240 C239 1.203 . S
O241 C234 1.185 . S
O241 Zn237 2.086 . S
C242 O238 1.278 . S
C242 O243 1.211 . S
O243 C242 1.211 . S
C244 O236 1.284 . S
C244 O245 1.273 . S
O245 C244 1.273 . S
O246 Zn237 1.977 . S
O246 C239 1.267 . S
C247 O248 1.160 . S
C247 O254 1.185 . S
O248 C247 1.160 . S
O249 Zn250 1.899 . S
O249 C257 1.284 . S
Zn250 O249 1.899 . S
Zn250 O251 2.032 . S
Zn250 O254 2.086 . S
Zn250 O259 1.977 . S
O251 Zn250 2.032 . S
O251 C255 1.278 . S
C252 O253 1.203 . S
C252 O259 1.267 . S
O253 C252 1.203 . S
O254 C247 1.185 . S
O254 Zn250 2.086 . S
C255 O251 1.278 . S
C255 O256 1.211 . S
O256 C255 1.211 . S
C257 O249 1.284 . S
C257 O258 1.273 . S
O258 C257 1.273 . S
O259 Zn250 1.977 . S
O259 C252 1.267 . S
C260 O261 1.160 . S
C260 O267 1.185 . S
O261 C260 1.160 . S
O262 Zn263 1.899 . S
O262 C270 1.284 . S
Zn263 O262 1.899 . S
Zn263 O264 2.032 . S
Zn263 O267 2.086 . S
Zn263 O272 1.977 . S
O264 Zn263 2.032 . S
O264 C268 1.278 . S
C265 O266 1.203 . S
C265 O272 1.267 . S
O266 C265 1.203 . S
O267 C260 1.185 . S
O267 Zn263 2.086 . S
C268 O264 1.278 . S
C268 O269 1.211 . S
O269 C268 1.211 . S
C270 O262 1.284 . S
C270 O271 1.273 . S
O271 C270 1.273 . S
O272 Zn263 1.977 . S
O272 C265 1.267 . S
C273 O274 1.160 . S
C273 O280 1.185 . S
O274 C273 1.160 . S
O275 Zn276 1.899 . S
O275 C283 1.284 . S
Zn276 O275 1.899 . S
Zn276 O277 2.032 . S
Zn276 O280 2.086 . S
Zn276 O285 1.977 . S
O277 Zn276 2.032 . S
O277 C281 1.278 . S
C278 O279 1.203 . S
C278 O285 1.267 . S
O279 C278 1.203 . S
O280 C273 1.185 . S
O280 Zn276 2.086 . S
C281 O277 1.278 . S
C281 O282 1.211 . S
O282 C281 1.211 . S
C283 O275 1.284 . S
C283 O284 1.273 . S
O284 C283 1.273 . S
O285 Zn276 1.977 . S
O285 C278 1.267 . S
C286 O287 1.160 . S
C286 O293 1.185 . S
O287 C286 1.160 . S
O288 Zn289 1.899 . S
O288 C296 1.284 . S
Zn289 O288 1.899 . S
Zn289 O290 2.032 . S
Zn289 O293 2.086 . S
Zn289 O298 1.977 . S
O290 Zn289 2.032 . S
O290 C294 1.278 . S
C291 O292 1.203 . S
C291 O298 1.267 . S
O292 C291 1.203 . S
O293 C286 1.185 . S
O293 Zn289 2.086 . S
C294 O290 1.278 . S
C294 O295 1.211 . S
O295 C294 1.211 . S
C296 O288 1.284 . S
C296 O297 1.273 . S
O297 C296 1.273 . S
O298 Zn289 1.977 . S
O298 C291 1.267 . S
C299 O300 1.160 . S
C299 O306 1.185 . S
O300 C299 1.160 . S
O301 Zn302 1.899 . S
O301 C309 1.284 . S
Zn302 O301 1.899 . S
Zn302 O303 2.032 . S
Zn302 O306 2.086 . S
Zn302 O311 1.977 . S
O303 Zn302 2.032 . S
O303 C307 1.278 . S
C304 O305 1.203 . S
C304 O311 1.267 . S
O305 C304 1.203 . S
O306 C299 1.185 . S
O306 Zn302 2.086 . S
C307 O303 1.278 . S
C307 O308 1.211 . S
O308 C307 1.211 . S
C309 O301 1.284 . S
C309 O310 1.273 . S
O310 C309 1.273 . S
O311 Zn302 1.977 . S
O311 C304 1.267 . S
C312 O313 1.160 . S
C312 O319 1.185 . S
O313 C312 1.160 . S
O314 Zn315 1.899 . S
O314 C322 1.284 . S
Zn315 O314 1.899 . S
Zn315 O316 2.032 . S
Zn315 O319 2.086 . S
Zn315 O324 1.977 . S
O316 Zn315 2.032 . S
O316 C320 1.278 . S
C317 O318 1.203 . S
C317 O324 1.267 . S
O318 C317 1.203 . S
O319 C312 1.185 . S
O319 Zn315 2.086 . S
C320 O316 1.278 . S
C320 O321 1.211 . S
O321 C320 1.211 . S
C322 O314 1.284 . S
C322 O323 1.273 . S
O323 C322 1.273 . S
O324 Zn315 1.977 . S
O324 C317 1.267 . S
C325 O326 1.160 . S
C325 O332 1.185 . S
O326 C325 1.160 . S
O327 Zn328 1.899 . S
O327 C335 1.284 . S
Zn328 O327 1.899 . S
Zn328 O329 2.032 . S
Zn328 O332 2.086 . S
Zn328 O337 1.977 . S
O329 Zn328 2.032 . S
O329 C333 1.278 . S
C330 O331 1.203 . S
C330 O337 1.267 . S
O331 C330 1.203 . S
O332 C325 1.185 . S
O332 Zn328 2.086 . S
C333 O329 1.278 . S
C333 O334 1.211 . S
O334 C333 1.211 . S
C335 O327 1.284 . S
C335 O336 1.273 . S
O336 C335 1.273 . S
O337 Zn328 1.977 . S
O337 C330 1.267 . S
C338 O339 1.160 . S
C338 O345 1.185 . S
O339 C338 1.160 . S
O340 Zn341 1.899 . S
O340 C348 1.284 . S
Zn341 O340 1.899 . S
Zn341 O342 2.032 . S
Zn341 O345 2.086 . S
Zn341 O350 1.977 . S
O342 Zn341 2.032 . S
O342 C346 1.278 . S
C343 O344 1.203 . S
C343 O350 1.267 . S
O344 C343 1.203 . S
O345 C338 1.185 . S
O345 Zn341 2.086 . S
C346 O342 1.278 . S
C346 O347 1.211 . S
O347 C346 1.211 . S
C348 O340 1.284 . S
C348 O349 1.273 . S
O349 C348 1.273 . S
O350 Zn341 1.977 . S
O350 C343 1.267 . S
C351 O352 1.160 . S
C351 O358 1.185 . S
O352 C351 1.160 . S
O353 Zn354 1.899 . S
O353 C361 1.284 . S
Zn354 O353 1.899 . S
Zn354 O355 2.032 . S
Zn354 O358 2.086 . S
Zn354 O363 1.977 . S
O355 Zn354 2.032 . S
O355 C359 1.278 . S
C356 O357 1.203 . S
C356 O363 1.267 . S
O357 C356 1.203 . S
O358 C351 1.185 . S
O358 Zn354 2.086 . S
C359 O355 1.278 . S
C359 O360 1.211 . S
O360 C359 1.211 . S
C361 O353 1.284 . S
C361 O362 1.273 . S
O362 C361 1.273 . S
O363 Zn354 1.977 . S
O363 C356 1.267 . S
C364 O365 1.160 . S
C364 O371 1.185 . S
O365 C364 1.160 . S
O366 Zn367 1.899 . S
O366 C374 1.284 . S
Zn367 O366 1.899 . S
Zn367 O368 2.032 . S
Zn367 O371 2.086 . S
Zn367 O376 1.977 . S
O368 Zn367 2.032 . S
O368 C372 1.278 . S
C369 O370 1.203 . S
C369 O376 1.267 . S
O370 C369 1.203 . S
O371 C364 1.185 . S
O371 Zn367 2.086 . S
C372 O368 1.278 . S
C372 O373 1.211 . S
O373 C372 1.211 . S
C374 O366 1.284 . S
C374 O375 1.273 . S
O375 C374 1.273 . S
O376 Zn367 1.977 . S
O376 C369 1.267 . S
C377 O378 1.160 . S
C377 O384 1.185 . S
O378 C377 1.160 . S
O379 Zn380 1.899 . S
O379 C387 1.284 . S
Zn380 O379 1.899 . S
Zn380 O381 2.032 . S
Zn380 O384 2.086 . S
Zn380 O389 1.977 . S
O381 Zn380 2.032 . S
O381 C385 1.278 . S
C382 O383 1.203 . S
C382 O389 1.267 . S
O383 C382 1.203 . S
O384 C377 1.185 . S
O384 Zn380 2.086 . S
C385 O381 1.278 . S
C385 O386 1.211 . S
O386 C385 1.211 . S
C387 O379 1.284 . S
C387 O388 1.273 . S
O388 C387 1.273 . S
O389 Zn380 1.977 . S
O389 C382 1.267 . S
C390 O391 1.160 . S
C390 O397 1.185 . S
O391 C390 1.160 . S
O392 Zn393 1.899 . S
O392 C400 1.284 . S
Zn393 O392 1.899 . S
Zn393 O394 2.032 . S
Zn393 O397 2.086 . S
Zn393 O402 1.977 . S
O394 Zn393 2.032 . S
O394 C398 1.278 . S
C395 O396 1.203 . S
C395 O402 1.267 . S
O396 C395 1.203 . S
O397 C390 1.185 . S
O397 Zn393 2.086 . S
C398 O394 1.278 . S
C398 O399 1.211 . S
O399 C398 1.211 . S
C400 O392 1.284 . S
C400 O401 1.273 . S
O401 C400 1.273 . S
O402 Zn393 1.977 . S
O402 C395 1.267 . S
C403 O404 1.160 . S
C403 O410 1.185 . S
O404 C403 1.160 . S
O405 Zn406 1.899 . S
O405 C413 1.284 . S
Zn406 O405 1.899 . S
Zn406 O407 2.032 . S
Zn406 O410 2.086 . S
Zn406 O415 1.977 . S
O407 Zn406 2.032 . S
O407 C411 1.278 . S
C408 O409 1.203 . S
C408 O415 1.267 . S
O409 C408 1.203 . S
O410 C403 1.185 . S
O410 Zn406 2.086 . S
C411 O407 1.278 . S
C411 O412 1.211 . S
O412 C411 1.211 . S
C413 O405 1.284 . S
C413 O414 1.273 . S
O414 C413 1.273 . S
O415 Zn406 1.977 . S
O415 C408 1.267 . S
C416 O417 1.160 . S
C416 O423 1.185 . S
O417 C416 1.160 . S
O418 Zn419 1.899 . S
O418 C426 1.284 . S
Zn419 O418 1.899 . S
Zn419 O420 2.032 . S
Zn419 O423 2.086 . S
Zn419 O428 1.977 . S
O420 Zn419 2.032 . S
O420 C424 1.278 . S
C421 O422 1.203 . S
C421 O428 1.267 . S
O422 C421 1.203 . S
O423 C416 1.185 . S
O423 Zn419 2.086 . S
C424 O420 1.278 . S
C424 O425 1.211 . S
O425 C424 1.211 . S
C426 O418 1.284 . S
C426 O427 1.273 . S
O427 C426 1.273 . S
O428 Zn419 1.977 . S
O428 C421 1.267 . S
C429 O430 1.160 . S
C429 O436 1.185 . S
O430 C429 1.160 . S
O431 Zn432 1.899 . S
O431 C439 1.284 . S
Zn432 O431 1.899 . S
Zn432 O433 2.032 . S
Zn432 O436 2.086 . S
Zn432 O441 1.977 . S
O433 Zn432 2.032 . S
O433 C437 1.278 . S
C434 O435 1.203 . S
C434 O441 1.267 . S
O435 C434 1.203 . S
O436 C429 1.185 . S
O436 Zn432 2.086 . S
C437 O433 1.278 . S
C437 O438 1.211 . S
O438 C437 1.211 . S
C439 O431 1.284 . S
C439 O440 1.273 . S
O440 C439 1.273 . S
O441 Zn432 1.977 . S
O441 C434 1.267 . S
C442 O443 1.160 . S
C442 O449 1.185 . S
O443 C442 1.160 . S
O444 Zn445 1.899 . S
O444 C452 1.284 . S
Zn445 O444 1.899 . S
Zn445 O446 2.032 . S
Zn445 O449 2.086 . S
Zn445 O454 1.977 . S
O446 Zn445 2.032 . S
O446 C450 1.278 . S
C447 O448 1.203 . S
C447 O454 1.267 . S
O448 C447 1.203 . S
O449 C442 1.185 . S
O449 Zn445 2.086 . S
C450 O446 1.278 . S
C450 O451 1.211 . S
O451 C450 1.211 . S
C452 O444 1.284 . S
C452 O453 1.273 . S
O453 C452 1.273 . S
O454 Zn445 1.977 . S
O454 C447 1.267 . S
C455 O456 1.160 . S
C455 O462 1.185 . S
O456 C455 1.160 . S
O457 Zn458 1.899 . S
O457 C465 1.284 . S
Zn458 O457 1.899 . S
Zn458 O459 2.032 . S
Zn458 O462 2.086 . S
Zn458 O467 1.977 . S
O459 Zn458 2.032 . S
O459 C463 1.278 . S
C460 O461 1.203 . S
C460 O467 1.267 . S
O461 C460 1.203 . S
O462 C455 1.185 . S
O462 Zn458 2.086 . S
C463 O459 1.278 . S
C463 O464 1.211 . S
O464 C463 1.211 . S
C465 O457 1.284 . S
C465 O466 1.273 . S
O466 C465 1.273 . S
O467 Zn458 1.977 . S
O467 C460 1.267 . S
H468 C486 0.951 . S
H469 C488 0.951 . S
H470 C490 0.950 . S
H471 C491 0.950 . S
H472 C493 0.940 . S
H473 C496 0.950 . S
H474 C497 0.950 . S
H475 C499 0.950 . S
H476 C500 0.950 . S
H477 C501 0.951 . S
H478 C503 0.951 . S
H479 C505 0.950 . S
H480 C506 0.950 . S
H481 C508 0.940 . S
H482 C511 0.950 . S
H483 C512 0.950 . S
H484 C514 0.950 . S
H485 C515 0.950 . S
C486 H468 0.951 . S
C486 C487 1.366 . S
C486 C488 1.388 . S
C487 C486 1.366 . S
C487 C491 1.385 . S
C488 H469 0.951 . S
C488 C486 1.388 . S
C488 C489 1.366 . S
C489 C488 1.366 . S
C489 C490 1.414 . S
C489 C492 1.499 . S
C490 H470 0.950 . S
C490 C489 1.414 . S
C490 C491 1.374 . S
C491 H471 0.950 . S
C491 C487 1.385 . S
C491 C490 1.374 . S
C492 C489 1.499 . S
C492 C493 1.370 1_565 S
C492 C494 1.389 . S
C493 H472 0.940 . S
C493 C492 1.370 1_545 S
C493 C509 1.378 . S
C494 C492 1.389 . S
C494 C495 1.524 . S
C494 C508 1.378 . S
C495 C494 1.524 . S
C495 C496 1.397 . S
C495 C500 1.363 . S
C496 H473 0.950 . S
C496 C495 1.397 . S
C496 C497 1.334 . S
C497 H474 0.950 . S
C497 C496 1.334 . S
C497 C498 1.287 . S
C498 C497 1.287 . S
C498 C499 1.524 . S
C498 H517 0.913 . S
C499 H475 0.950 . S
C499 C498 1.524 . S
C499 C500 1.415 . S
C500 H476 0.950 . S
C500 C495 1.363 . S
C500 C499 1.415 . S
C501 H477 0.951 . S
C501 C502 1.366 . S
C501 C503 1.388 . S
C502 C501 1.366 . S
C502 C506 1.385 . S
C503 H478 0.951 . S
C503 C501 1.388 . S
C503 C504 1.366 . S
C504 C503 1.366 . S
C504 C505 1.414 . S
C504 C507 1.499 . S
C505 H479 0.950 . S
C505 C504 1.414 . S
C505 C506 1.374 . S
C506 H480 0.950 . S
C506 C502 1.385 . S
C506 C505 1.374 . S
C507 C504 1.499 . S
C507 C508 1.370 1_545 S
C507 C509 1.389 . S
C508 H481 0.940 . S
C508 C494 1.378 . S
C508 C507 1.370 1_565 S
C509 C493 1.378 . S
C509 C507 1.389 . S
C509 C510 1.524 . S
C510 C509 1.524 . S
C510 C511 1.397 . S
C510 C515 1.363 . S
C511 H482 0.950 . S
C511 C510 1.397 . S
C511 C512 1.334 . S
C512 H483 0.950 . S
C512 C511 1.334 . S
C512 C513 1.287 . S
C513 C512 1.287 . S
C513 C514 1.524 . S
C513 H516 0.999 . S
C514 H484 0.950 . S
C514 C513 1.524 . S
C514 C515 1.415 . S
C515 H485 0.950 . S
C515 C510 1.363 . S
C515 C514 1.415 . S
H516 C513 0.999 . S
H517 C498 0.913 . S
H518 C536 0.951 . S
H519 C538 0.951 . S
H520 C540 0.950 . S
H521 C541 0.950 . S
H522 C543 0.950 . S
H523 C546 0.966 . S
H524 C547 0.950 . S
H525 C549 0.950 . S
H526 C550 0.950 . S
H527 C551 0.951 . S
H528 C553 0.951 . S
H529 C555 0.950 . S
H530 C556 0.950 . S
H531 C558 0.950 . S
H532 C561 0.966 . S
H533 C562 0.950 . S
H534 C564 0.950 . S
H535 C565 0.950 . S
C536 H518 0.951 . S
C536 C537 1.366 . S
C536 C538 1.388 . S
C537 C536 1.366 . S
C537 C541 1.385 . S
C538 H519 0.951 . S
C538 C536 1.388 . S
C538 C539 1.366 . S
C539 C538 1.366 . S
C539 C540 1.414 . S
C539 C542 1.499 . S
C540 H520 0.950 . S
C540 C539 1.414 . S
C540 C541 1.374 . S
C541 H521 0.950 . S
C541 C537 1.385 . S
C541 C540 1.374 . S
C542 C539 1.499 . S
C542 C543 1.373 . S
C542 C544 1.389 1_455 S
C543 H522 0.950 . S
C543 C542 1.373 . S
C543 C559 1.377 . S
C544 C542 1.389 1_655 S
C544 C545 1.524 . S
C544 C558 1.377 . S
C545 C544 1.524 . S
C545 C546 1.397 . S
C545 C550 1.363 . S
C546 H523 0.966 . S
C546 C545 1.397 . S
C546 C547 1.334 . S
C547 H524 0.950 . S
C547 C546 1.334 . S
C547 C548 1.287 . S
C548 C547 1.287 . S
C548 C549 1.524 . S
C548 H567 0.913 . S
C549 H525 0.950 . S
C549 C548 1.524 . S
C549 C550 1.415 . S
C550 H526 0.950 . S
C550 C545 1.363 . S
C550 C549 1.415 . S
C551 H527 0.951 . S
C551 C552 1.366 . S
C551 C553 1.388 . S
C552 C551 1.366 . S
C552 C556 1.385 . S
C553 H528 0.951 . S
C553 C551 1.388 . S
C553 C554 1.366 . S
C554 C553 1.366 . S
C554 C555 1.414 . S
C554 C557 1.499 . S
C555 H529 0.950 . S
C555 C554 1.414 . S
C555 C556 1.374 . S
C556 H530 0.950 . S
C556 C552 1.385 . S
C556 C555 1.374 . S
C557 C554 1.499 . S
C557 C558 1.373 . S
C557 C559 1.389 1_655 S
C558 H531 0.950 . S
C558 C544 1.377 . S
C558 C557 1.373 . S
C559 C543 1.377 . S
C559 C557 1.389 1_455 S
C559 C560 1.524 . S
C560 C559 1.524 . S
C560 C561 1.397 . S
C560 C565 1.363 . S
C561 H532 0.966 . S
C561 C560 1.397 . S
C561 C562 1.334 . S
C562 H533 0.950 . S
C562 C561 1.334 . S
C562 C563 1.287 . S
C563 C562 1.287 . S
C563 C564 1.524 . S
C563 H566 0.999 . S
C564 H534 0.950 . S
C564 C563 1.524 . S
C564 C565 1.415 . S
C565 H535 0.950 . S
C565 C560 1.363 . S
C565 C564 1.415 . S
H566 C563 0.999 . S
H567 C548 0.913 . S
H568 C586 0.951 . S
H569 C588 0.951 . S
H570 C590 0.950 . S
H571 C591 0.950 . S
H572 C593 0.950 . S
H573 C596 0.950 . S
H574 C597 0.950 . S
H575 C599 0.950 . S
H576 C600 0.950 . S
H577 C601 0.951 . S
H578 C603 0.951 . S
H579 C605 0.950 . S
H580 C606 0.950 . S
H581 C608 0.950 . S
H582 C611 0.950 . S
H583 C612 0.950 . S
H584 C614 0.950 . S
H585 C615 0.950 . S
C586 H568 0.951 . S
C586 C587 1.366 . S
C586 C588 1.388 . S
C587 C586 1.366 . S
C587 C591 1.385 . S
C588 H569 0.951 . S
C588 C586 1.388 . S
C588 C589 1.366 . S
C589 C588 1.366 . S
C589 C590 1.414 . S
C589 C592 1.499 . S
C590 H570 0.950 . S
C590 C589 1.414 . S
C590 C591 1.374 . S
C591 H571 0.950 . S
C591 C587 1.385 . S
C591 C590 1.374 . S
C592 C589 1.499 . S
C592 C593 1.373 . S
C592 C594 1.389 . S
C593 H572 0.950 . S
C593 C592 1.373 . S
C593 C609 1.377 . S
C594 C592 1.389 . S
C594 C595 1.524 . S
C594 C608 1.377 . S
C595 C594 1.524 . S
C595 C596 1.397 . S
C595 C600 1.363 . S
C596 H573 0.950 . S
C596 C595 1.397 . S
C596 C597 1.334 . S
C597 H574 0.950 . S
C597 C596 1.334 . S
C597 C598 1.287 . S
C598 C597 1.287 . S
C598 C599 1.524 . S
C598 H617 0.913 . S
C599 H575 0.950 . S
C599 C598 1.524 . S
C599 C600 1.415 . S
C600 H576 0.950 . S
C600 C595 1.363 . S
C600 C599 1.415 . S
C601 H577 0.951 . S
C601 C602 1.366 . S
C601 C603 1.388 . S
C602 C601 1.366 . S
C602 C606 1.385 . S
C603 H578 0.951 . S
C603 C601 1.388 . S
C603 C604 1.366 . S
C604 C603 1.366 . S
C604 C605 1.414 . S
C604 C607 1.499 . S
C605 H579 0.950 . S
C605 C604 1.414 . S
C605 C606 1.374 . S
C606 H580 0.950 . S
C606 C602 1.385 . S
C606 C605 1.374 . S
C607 C604 1.499 . S
C607 C608 1.373 . S
C607 C609 1.389 . S
C608 H581 0.950 . S
C608 C594 1.377 . S
C608 C607 1.373 . S
C609 C593 1.377 . S
C609 C607 1.389 . S
C609 C610 1.524 . S
C610 C609 1.524 . S
C610 C611 1.397 . S
C610 C615 1.363 . S
C611 H582 0.950 . S
C611 C610 1.397 . S
C611 C612 1.334 . S
C612 H583 0.950 . S
C612 C611 1.334 . S
C612 C613 1.287 . S
C613 C612 1.287 . S
C613 C614 1.524 . S
C613 H616 0.999 . S
C614 H584 0.950 . S
C614 C613 1.524 . S
C614 C615 1.415 . S
C615 H585 0.950 . S
C615 C610 1.363 . S
C615 C614 1.415 . S
H616 C613 0.999 . S
H617 C598 0.913 . S
H618 C636 0.951 . S
H619 C638 0.951 . S
H620 C640 0.950 . S
H621 C641 0.950 . S
H622 C643 0.950 . S
H623 C646 0.950 . S
H624 C647 0.950 . S
H625 C649 0.950 . S
H626 C650 0.950 1_545 S
H627 C651 0.951 . S
H628 C653 0.951 . S
H629 C655 0.950 . S
H630 C656 0.950 . S
H631 C658 0.950 . S
H632 C661 0.950 . S
H633 C662 0.950 . S
H634 C664 0.950 . S
H635 C665 0.950 1_565 S
C636 H618 0.951 . S
C636 C637 1.366 . S
C636 C638 1.388 . S
C637 C636 1.366 . S
C637 C641 1.385 . S
C638 H619 0.951 . S
C638 C636 1.388 . S
C638 C639 1.366 . S
C639 C638 1.366 . S
C639 C640 1.414 . S
C639 C642 1.499 . S
C640 H620 0.950 . S
C640 C639 1.414 . S
C640 C641 1.374 . S
C641 H621 0.950 . S
C641 C637 1.385 . S
C641 C640 1.374 . S
C642 C639 1.499 . S
C642 C643 1.373 . S
C642 C644 1.389 . S
C643 H622 0.950 . S
C643 C642 1.373 . S
C643 C659 1.377 1_565 S
C644 C642 1.389 . S
C644 C645 1.524 . S
C644 C658 1.377 1_565 S
C645 C644 1.524 . S
C645 C646 1.397 . S
C645 C650 1.363 . S
C646 H623 0.950 . S
C646 C645 1.397 . S
C646 C647 1.334 . S
C647 H624 0.950 . S
C647 C646 1.334 . S
C647 C648 1.287 . S
C648 C647 1.287 . S
C648 C649 1.524 . S
C648 H667 0.913 . S
C649 H625 0.950 . S
C649 C648 1.524 . S
C649 C650 1.415 . S
C650 H626 0.950 1_565 S
C650 C645 1.363 . S
C650 C649 1.415 . S
C651 H627 0.951 . S
C651 C652 1.366 . S
C651 C653 1.388 . S
C652 C651 1.366 . S
C652 C656 1.385 . S
C653 H628 0.951 . S
C653 C651 1.388 . S
C653 C654 1.366 . S
C654 C653 1.366 . S
C654 C655 1.414 . S
C654 C657 1.499 . S
C655 H629 0.950 . S
C655 C654 1.414 . S
C655 C656 1.374 . S
C656 H630 0.950 . S
C656 C652 1.385 . S
C656 C655 1.374 . S
C657 C654 1.499 . S
C657 C658 1.373 . S
C657 C659 1.389 . S
C658 H631 0.950 . S
C658 C644 1.377 1_545 S
C658 C657 1.373 . S
C659 C643 1.377 1_545 S
C659 C657 1.389 . S
C659 C660 1.524 . S
C660 C659 1.524 . S
C660 C661 1.397 . S
C660 C665 1.363 . S
C661 H632 0.950 . S
C661 C660 1.397 . S
C661 C662 1.334 . S
C662 H633 0.950 . S
C662 C661 1.334 . S
C662 C663 1.287 . S
C663 C662 1.287 . S
C663 C664 1.524 . S
C663 H666 0.999 . S
C664 H634 0.950 . S
C664 C663 1.524 . S
C664 C665 1.415 . S
C665 H635 0.950 1_545 S
C665 C660 1.363 . S
C665 C664 1.415 . S
H666 C663 0.999 . S
H667 C648 0.913 . S
H668 C686 0.951 . S
H669 C688 0.951 . S
H670 C690 0.950 . S
H671 C691 0.950 . S
H672 C693 0.950 . S
H673 C696 0.950 . S
H674 C697 0.950 . S
H675 C699 0.950 . S
H676 C700 0.950 . S
H677 C701 0.951 . S
H678 C703 0.951 . S
H679 C705 0.950 . S
H680 C706 0.950 . S
H681 C708 0.950 . S
H682 C711 0.950 . S
H683 C712 0.950 . S
H684 C714 0.950 . S
H685 C715 0.950 . S
C686 H668 0.951 . S
C686 C687 1.366 . S
C686 C688 1.388 . S
C687 C686 1.366 . S
C687 C691 1.385 . S
C688 H669 0.951 . S
C688 C686 1.388 . S
C688 C689 1.366 . S
C689 C688 1.366 . S
C689 C690 1.414 . S
C689 C692 1.499 . S
C690 H670 0.950 . S
C690 C689 1.414 . S
C690 C691 1.374 . S
C691 H671 0.950 . S
C691 C687 1.385 . S
C691 C690 1.374 . S
C692 C689 1.499 . S
C692 C693 1.373 1_455 S
C692 C694 1.389 . S
C693 H672 0.950 . S
C693 C692 1.373 1_655 S
C693 C709 1.377 . S
C694 C692 1.389 . S
C694 C695 1.524 . S
C694 C708 1.377 . S
C695 C694 1.524 . S
C695 C696 1.397 . S
C695 C700 1.363 . S
C696 H673 0.950 . S
C696 C695 1.397 . S
C696 C697 1.334 . S
C697 H674 0.950 . S
C697 C696 1.334 . S
C697 C698 1.287 . S
C698 C697 1.287 . S
C698 C699 1.524 . S
C698 H717 0.913 . S
C699 H675 0.950 . S
C699 C698 1.524 . S
C699 C700 1.415 . S
C700 H676 0.950 . S
C700 C695 1.363 . S
C700 C699 1.415 . S
C701 H677 0.951 . S
C701 C702 1.366 . S
C701 C703 1.388 . S
C702 C701 1.366 . S
C702 C706 1.385 . S
C703 H678 0.951 . S
C703 C701 1.388 . S
C703 C704 1.366 . S
C704 C703 1.366 . S
C704 C705 1.414 . S
C704 C707 1.499 . S
C705 H679 0.950 . S
C705 C704 1.414 . S
C705 C706 1.374 . S
C706 H680 0.950 . S
C706 C702 1.385 . S
C706 C705 1.374 . S
C707 C704 1.499 . S
C707 C708 1.373 1_655 S
C707 C709 1.389 . S
C708 H681 0.950 . S
C708 C694 1.377 . S
C708 C707 1.373 1_455 S
C709 C693 1.377 . S
C709 C707 1.389 . S
C709 C710 1.524 . S
C710 C709 1.524 . S
C710 C711 1.397 . S
C710 C715 1.363 . S
C711 H682 0.950 . S
C711 C710 1.397 . S
C711 C712 1.334 . S
C712 H683 0.950 . S
C712 C711 1.334 . S
C712 C713 1.287 . S
C713 C712 1.287 . S
C713 C714 1.524 . S
C713 H716 0.999 . S
C714 H684 0.950 . S
C714 C713 1.524 . S
C714 C715 1.415 . S
C715 H685 0.950 . S
C715 C710 1.363 . S
C715 C714 1.415 . S
H716 C713 0.999 . S
H717 C698 0.913 . S
H718 C736 0.951 . S
H719 C738 0.951 . S
H720 C740 0.950 . S
H721 C741 0.950 . S
H722 C743 0.950 . S
H723 C746 0.950 . S
H724 C747 0.950 . S
H725 C749 0.950 . S
H726 C750 0.950 . S
H727 C751 0.951 . S
H728 C753 0.951 . S
H729 C755 0.950 . S
H730 C756 0.950 . S
H731 C758 0.950 . S
H732 C761 0.950 . S
H733 C762 0.950 . S
H734 C764 0.950 . S
H735 C765 0.950 . S
C736 H718 0.951 . S
C736 C737 1.366 . S
C736 C738 1.388 . S
C737 C736 1.366 . S
C737 C741 1.385 . S
C738 H719 0.951 . S
C738 C736 1.388 . S
C738 C739 1.366 . S
C739 C738 1.366 . S
C739 C740 1.414 . S
C739 C742 1.499 . S
C740 H720 0.950 . S
C740 C739 1.414 . S
C740 C741 1.374 . S
C741 H721 0.950 . S
C741 C737 1.385 . S
C741 C740 1.374 . S
C742 C739 1.499 . S
C742 C743 1.373 . S
C742 C744 1.389 . S
C743 H722 0.950 . S
C743 C742 1.373 . S
C743 C759 1.377 . S
C744 C742 1.389 . S
C744 C745 1.524 . S
C744 C758 1.377 . S
C745 C744 1.524 . S
C745 C746 1.397 . S
C745 C750 1.363 . S
C746 H723 0.950 . S
C746 C745 1.397 . S
C746 C747 1.334 . S
C747 H724 0.950 . S
C747 C746 1.334 . S
C747 C748 1.287 . S
C748 C747 1.287 . S
C748 C749 1.524 . S
C748 H767 0.913 . S
C749 H725 0.950 . S
C749 C748 1.524 . S
C749 C750 1.415 . S
C750 H726 0.950 . S
C750 C745 1.363 . S
C750 C749 1.415 . S
C751 H727 0.951 . S
C751 C752 1.366 . S
C751 C753 1.388 . S
C752 C751 1.366 . S
C752 C756 1.385 . S
C753 H728 0.951 . S
C753 C751 1.388 . S
C753 C754 1.366 . S
C754 C753 1.366 . S
C754 C755 1.414 . S
C754 C757 1.499 . S
C755 H729 0.950 . S
C755 C754 1.414 . S
C755 C756 1.374 . S
C756 H730 0.950 . S
C756 C752 1.385 . S
C756 C755 1.374 . S
C757 C754 1.499 . S
C757 C758 1.373 . S
C757 C759 1.389 . S
C758 H731 0.950 . S
C758 C744 1.377 . S
C758 C757 1.373 . S
C759 C743 1.377 . S
C759 C757 1.389 . S
C759 C760 1.524 . S
C760 C759 1.524 . S
C760 C761 1.397 . S
C760 C765 1.363 . S
C761 H732 0.950 . S
C761 C760 1.397 . S
C761 C762 1.334 . S
C762 H733 0.950 . S
C762 C761 1.334 . S
C762 C763 1.287 . S
C763 C762 1.287 . S
C763 C764 1.524 . S
C763 H766 0.999 . S
C764 H734 0.950 . S
C764 C763 1.524 . S
C764 C765 1.415 . S
C765 H735 0.950 . S
C765 C760 1.363 . S
C765 C764 1.415 . S
H766 C763 0.999 . S
H767 C748 0.913 . S
H768 C786 0.951 . S
H769 C788 0.951 . S
H770 C790 0.950 . S
H771 C791 0.950 . S
H772 C793 0.950 . S
H773 C796 0.950 . S
H774 C797 0.950 . S
H775 C799 0.950 . S
H776 C800 0.950 . S
H777 C801 0.951 . S
H778 C803 0.951 . S
H779 C805 0.950 . S
H780 C806 0.950 . S
H781 C808 0.950 . S
H782 C811 0.950 . S
H783 C812 0.950 . S
H784 C814 0.950 . S
H785 C815 0.950 . S
C786 H768 0.951 . S
C786 C787 1.366 . S
C786 C788 1.388 . S
C787 C786 1.366 . S
C787 C791 1.385 . S
C788 H769 0.951 . S
C788 C786 1.388 . S
C788 C789 1.366 . S
C789 C788 1.366 . S
C789 C790 1.414 . S
C789 C792 1.499 . S
C790 H770 0.950 . S
C790 C789 1.414 . S
C790 C791 1.374 . S
C791 H771 0.950 . S
C791 C787 1.385 . S
C791 C790 1.374 . S
C792 C789 1.499 . S
C792 C793 1.373 . S
C792 C794 1.389 . S
C793 H772 0.950 . S
C793 C792 1.373 . S
C793 C809 1.377 . S
C794 C792 1.389 . S
C794 C795 1.524 . S
C794 C808 1.377 . S
C795 C794 1.524 . S
C795 C796 1.397 . S
C795 C800 1.363 . S
C796 H773 0.950 . S
C796 C795 1.397 . S
C796 C797 1.334 . S
C797 H774 0.950 . S
C797 C796 1.334 . S
C797 C798 1.287 . S
C798 C797 1.287 . S
C798 C799 1.524 . S
C798 H817 0.913 . S
C799 H775 0.950 . S
C799 C798 1.524 . S
C799 C800 1.415 . S
C800 H776 0.950 . S
C800 C795 1.363 . S
C800 C799 1.415 . S
C801 H777 0.951 . S
C801 C802 1.366 . S
C801 C803 1.388 . S
C802 C801 1.366 . S
C802 C806 1.385 . S
C803 H778 0.951 . S
C803 C801 1.388 . S
C803 C804 1.366 . S
C804 C803 1.366 . S
C804 C805 1.414 . S
C804 C807 1.499 . S
C805 H779 0.950 . S
C805 C804 1.414 . S
C805 C806 1.374 . S
C806 H780 0.950 . S
C806 C802 1.385 . S
C806 C805 1.374 . S
C807 C804 1.499 . S
C807 C808 1.373 . S
C807 C809 1.389 . S
C808 H781 0.950 . S
C808 C794 1.377 . S
C808 C807 1.373 . S
C809 C793 1.377 . S
C809 C807 1.389 . S
C809 C810 1.524 . S
C810 C809 1.524 . S
C810 C811 1.397 . S
C810 C815 1.363 . S
C811 H782 0.950 . S
C811 C810 1.397 . S
C811 C812 1.334 . S
C812 H783 0.950 . S
C812 C811 1.334 . S
C812 C813 1.287 . S
C813 C812 1.287 . S
C813 C814 1.524 . S
C813 H816 0.999 . S
C814 H784 0.950 . S
C814 C813 1.524 . S
C814 C815 1.415 . S
C815 H785 0.950 . S
C815 C810 1.363 . S
C815 C814 1.415 . S
H816 C813 0.999 . S
H817 C798 0.913 . S
H818 C836 0.951 . S
H819 C838 0.951 . S
H820 C840 0.950 . S
H821 C841 0.950 . S
H822 C843 0.950 . S
H823 C846 0.950 . S
H824 C847 0.950 . S
H825 C849 0.950 . S
H826 C850 0.950 . S
H827 C851 0.951 1_554 S
H828 C853 0.951 . S
H829 C855 0.950 . S
H830 C856 0.950 . S
H831 C858 0.950 . S
H832 C861 0.950 . S
H833 C862 0.950 . S
H834 C864 0.950 . S
H835 C865 0.950 . S
C836 H818 0.951 . S
C836 C837 1.366 . S
C836 C838 1.388 . S
C837 C836 1.366 . S
C837 C841 1.385 . S
C838 H819 0.951 . S
C838 C836 1.388 . S
C838 C839 1.366 . S
C839 C838 1.366 . S
C839 C840 1.414 . S
C839 C842 1.499 . S
C840 H820 0.950 . S
C840 C839 1.414 . S
C840 C841 1.374 . S
C841 H821 0.950 . S
C841 C837 1.385 . S
C841 C840 1.374 . S
C842 C839 1.499 . S
C842 C843 1.373 . S
C842 C844 1.389 . S
C843 H822 0.950 . S
C843 C842 1.373 . S
C843 C859 1.377 . S
C844 C842 1.389 . S
C844 C845 1.524 . S
C844 C858 1.377 . S
C845 C844 1.524 . S
C845 C846 1.397 . S
C845 C850 1.363 . S
C846 H823 0.950 . S
C846 C845 1.397 . S
C846 C847 1.334 . S
C847 H824 0.950 . S
C847 C846 1.334 . S
C847 C848 1.287 . S
C848 C847 1.287 . S
C848 C849 1.524 . S
C848 H867 0.913 . S
C849 H825 0.950 . S
C849 C848 1.524 . S
C849 C850 1.415 . S
C850 H826 0.950 . S
C850 C845 1.363 . S
C850 C849 1.415 . S
C851 H827 0.951 1_556 S
C851 C852 1.366 . S
C851 C853 1.388 . S
C852 C851 1.366 . S
C852 C856 1.385 . S
C853 H828 0.951 . S
C853 C851 1.388 . S
C853 C854 1.366 . S
C854 C853 1.366 . S
C854 C855 1.414 . S
C854 C857 1.499 . S
C855 H829 0.950 . S
C855 C854 1.414 . S
C855 C856 1.374 . S
C856 H830 0.950 . S
C856 C852 1.385 . S
C856 C855 1.374 . S
C857 C854 1.499 . S
C857 C858 1.373 . S
C857 C859 1.389 . S
C858 H831 0.950 . S
C858 C844 1.377 . S
C858 C857 1.373 . S
C859 C843 1.377 . S
C859 C857 1.389 . S
C859 C860 1.524 . S
C860 C859 1.524 . S
C860 C861 1.397 . S
C860 C865 1.363 . S
C861 H832 0.950 . S
C861 C860 1.397 . S
C861 C862 1.334 . S
C862 H833 0.950 . S
C862 C861 1.334 . S
C862 C863 1.287 . S
C863 C862 1.287 . S
C863 C864 1.524 . S
C863 H866 0.999 . S
C864 H834 0.950 . S
C864 C863 1.524 . S
C864 C865 1.415 . S
C865 H835 0.950 . S
C865 C860 1.363 . S
C865 C864 1.415 . S
H866 C863 0.999 . S
H867 C848 0.913 . S
H868 C886 0.951 . S
H869 C888 0.951 . S
H870 C890 0.950 . S
H871 C891 0.950 . S
H872 C893 0.950 . S
H873 C896 0.950 . S
H874 C897 0.950 . S
H875 C899 0.950 . S
H876 C900 0.950 . S
H877 C901 0.951 . S
H878 C903 0.951 . S
H879 C905 0.950 . S
H880 C906 0.950 . S
H881 C908 0.950 . S
H882 C911 0.950 . S
H883 C912 0.950 . S
H884 C914 0.950 . S
H885 C915 0.950 . S
C886 H868 0.951 . S
C886 C887 1.366 . S
C886 C888 1.388 . S
C887 C886 1.366 . S
C887 C891 1.385 . S
C888 H869 0.951 . S
C888 C886 1.388 . S
C888 C889 1.366 . S
C889 C888 1.366 . S
C889 C890 1.414 . S
C889 C892 1.499 . S
C890 H870 0.950 . S
C890 C889 1.414 . S
C890 C891 1.374 . S
C891 H871 0.950 . S
C891 C887 1.385 . S
C891 C890 1.374 . S
C892 C889 1.499 . S
C892 C893 1.373 . S
C892 C894 1.389 . S
C893 H872 0.950 . S
C893 C892 1.373 . S
C893 C909 1.377 . S
C894 C892 1.389 . S
C894 C895 1.524 . S
C894 C908 1.377 . S
C895 C894 1.524 . S
C895 C896 1.397 . S
C895 C900 1.363 . S
C896 H873 0.950 . S
C896 C895 1.397 . S
C896 C897 1.334 . S
C897 H874 0.950 . S
C897 C896 1.334 . S
C897 C898 1.287 . S
C898 C897 1.287 . S
C898 C899 1.524 . S
C898 H917 0.913 . S
C899 H875 0.950 . S
C899 C898 1.524 . S
C899 C900 1.415 . S
C900 H876 0.950 . S
C900 C895 1.363 . S
C900 C899 1.415 . S
C901 H877 0.951 . S
C901 C902 1.366 . S
C901 C903 1.388 . S
C902 C901 1.366 . S
C902 C906 1.385 . S
C903 H878 0.951 . S
C903 C901 1.388 . S
C903 C904 1.366 . S
C904 C903 1.366 . S
C904 C905 1.414 . S
C904 C907 1.499 . S
C905 H879 0.950 . S
C905 C904 1.414 . S
C905 C906 1.374 . S
C906 H880 0.950 . S
C906 C902 1.385 . S
C906 C905 1.374 . S
C907 C904 1.499 . S
C907 C908 1.373 . S
C907 C909 1.389 . S
C908 H881 0.950 . S
C908 C894 1.377 . S
C908 C907 1.373 . S
C909 C893 1.377 . S
C909 C907 1.389 . S
C909 C910 1.524 . S
C910 C909 1.524 . S
C910 C911 1.397 . S
C910 C915 1.363 . S
C911 H882 0.950 . S
C911 C910 1.397 . S
C911 C912 1.334 . S
C912 H883 0.950 . S
C912 C911 1.334 . S
C912 C913 1.287 . S
C913 C912 1.287 . S
C913 C914 1.524 . S
C913 H916 0.999 . S
C914 H884 0.950 . S
C914 C913 1.524 . S
C914 C915 1.415 . S
C915 H885 0.950 . S
C915 C910 1.363 . S
C915 C914 1.415 . S
H916 C913 0.999 . S
H917 C898 0.913 . S
H918 C936 0.951 . S
H919 C938 0.951 . S
H920 C940 0.950 . S
H921 C941 0.950 . S
H922 C943 0.950 . S
H923 C946 0.950 . S
H924 C947 0.950 . S
H925 C949 0.950 . S
H926 C950 0.950 . S
H927 C951 0.951 . S
H928 C953 0.951 . S
H929 C955 0.950 . S
H930 C956 0.950 1_554 S
H931 C958 0.950 . S
H932 C961 0.950 . S
H933 C962 0.950 . S
H934 C964 0.950 . S
H935 C965 0.950 . S
C936 H918 0.951 . S
C936 C937 1.366 . S
C936 C938 1.388 . S
C937 C936 1.366 . S
C937 C941 1.385 . S
C938 H919 0.951 . S
C938 C936 1.388 . S
C938 C939 1.366 . S
C939 C938 1.366 . S
C939 C940 1.414 . S
C939 C942 1.499 . S
C940 H920 0.950 . S
C940 C939 1.414 . S
C940 C941 1.374 . S
C941 H921 0.950 . S
C941 C937 1.385 . S
C941 C940 1.374 . S
C942 C939 1.499 . S
C942 C943 1.373 . S
C942 C944 1.389 . S
C943 H922 0.950 . S
C943 C942 1.373 . S
C943 C959 1.377 . S
C944 C942 1.389 . S
C944 C945 1.524 . S
C944 C958 1.377 . S
C945 C944 1.524 . S
C945 C946 1.397 . S
C945 C950 1.363 . S
C946 H923 0.950 . S
C946 C945 1.397 . S
C946 C947 1.334 . S
C947 H924 0.950 . S
C947 C946 1.334 . S
C947 C948 1.287 . S
C948 C947 1.287 . S
C948 C949 1.524 . S
C948 H967 0.913 . S
C949 H925 0.950 . S
C949 C948 1.524 . S
C949 C950 1.415 . S
C950 H926 0.950 . S
C950 C945 1.363 . S
C950 C949 1.415 . S
C951 H927 0.951 . S
C951 C952 1.366 . S
C951 C953 1.388 . S
C952 C951 1.366 . S
C952 C956 1.385 . S
C953 H928 0.951 . S
C953 C951 1.388 . S
C953 C954 1.366 . S
C954 C953 1.366 . S
C954 C955 1.414 . S
C954 C957 1.499 . S
C955 H929 0.950 . S
C955 C954 1.414 . S
C955 C956 1.374 . S
C956 H930 0.950 1_556 S
C956 C952 1.385 . S
C956 C955 1.374 . S
C957 C954 1.499 . S
C957 C958 1.373 . S
C957 C959 1.389 . S
C958 H931 0.950 . S
C958 C944 1.377 . S
C958 C957 1.373 . S
C959 C943 1.377 . S
C959 C957 1.389 . S
C959 C960 1.524 . S
C960 C959 1.524 . S
C960 C961 1.397 . S
C960 C965 1.363 . S
C961 H932 0.950 . S
C961 C960 1.397 . S
C961 C962 1.334 . S
C962 H933 0.950 . S
C962 C961 1.334 . S
C962 C963 1.287 . S
C963 C962 1.287 . S
C963 C964 1.524 . S
C963 H966 0.999 . S
C964 H934 0.950 . S
C964 C963 1.524 . S
C964 C965 1.415 . S
C965 H935 0.950 . S
C965 C960 1.363 . S
C965 C964 1.415 . S
H966 C963 0.999 . S
H967 C948 0.913 . S
H968 C986 0.951 . S
H969 C988 0.951 . S
H970 C990 0.950 . S
H971 C991 0.950 1_554 S
H972 C993 0.950 . S
H973 C996 0.950 . S
H974 C997 0.950 . S
H975 C999 0.950 . S
H976 C1000 0.950 . S
H977 C1001 0.951 . S
H978 C1003 0.951 . S
H979 C1005 0.950 . S
H980 C1006 0.950 . S
H981 C1008 0.950 . S
H982 C1011 0.950 . S
H983 C1012 0.950 . S
H984 C1014 0.950 . S
H985 C1015 0.950 . S
C986 H968 0.951 . S
C986 C987 1.366 . S
C986 C988 1.388 . S
C987 C986 1.366 . S
C987 C991 1.385 . S
C988 H969 0.951 . S
C988 C986 1.388 . S
C988 C989 1.366 . S
C989 C988 1.366 . S
C989 C990 1.414 . S
C989 C992 1.499 . S
C990 H970 0.950 . S
C990 C989 1.414 . S
C990 C991 1.374 . S
C991 H971 0.950 1_556 S
C991 C987 1.385 . S
C991 C990 1.374 . S
C992 C989 1.499 . S
C992 C993 1.373 . S
C992 C994 1.389 . S
C993 H972 0.950 . S
C993 C992 1.373 . S
C993 C1009 1.377 . S
C994 C992 1.389 . S
C994 C995 1.524 . S
C994 C1008 1.377 . S
C995 C994 1.524 . S
C995 C996 1.397 . S
C995 C1000 1.363 . S
C996 H973 0.950 . S
C996 C995 1.397 . S
C996 C997 1.334 . S
C997 H974 0.950 . S
C997 C996 1.334 . S
C997 C998 1.287 . S
C998 C997 1.287 . S
C998 C999 1.524 . S
C998 H1017 0.913 . S
C999 H975 0.950 . S
C999 C998 1.524 . S
C999 C1000 1.415 . S
C1000 H976 0.950 . S
C1000 C995 1.363 . S
C1000 C999 1.415 . S
C1001 H977 0.951 . S
C1001 C1002 1.366 . S
C1001 C1003 1.388 . S
C1002 C1001 1.366 . S
C1002 C1006 1.385 . S
C1003 H978 0.951 . S
C1003 C1001 1.388 . S
C1003 C1004 1.366 . S
C1004 C1003 1.366 . S
C1004 C1005 1.414 . S
C1004 C1007 1.499 . S
C1005 H979 0.950 . S
C1005 C1004 1.414 . S
C1005 C1006 1.374 . S
C1006 H980 0.950 . S
C1006 C1002 1.385 . S
C1006 C1005 1.374 . S
C1007 C1004 1.499 . S
C1007 C1008 1.373 . S
C1007 C1009 1.389 . S
C1008 H981 0.950 . S
C1008 C994 1.377 . S
C1008 C1007 1.373 . S
C1009 C993 1.377 . S
C1009 C1007 1.389 . S
C1009 C1010 1.524 . S
C1010 C1009 1.524 . S
C1010 C1011 1.397 . S
C1010 C1015 1.363 . S
C1011 H982 0.950 . S
C1011 C1010 1.397 . S
C1011 C1012 1.334 . S
C1012 H983 0.950 . S
C1012 C1011 1.334 . S
C1012 C1013 1.287 . S
C1013 C1012 1.287 . S
C1013 C1014 1.524 . S
C1013 H1016 0.999 . S
C1014 H984 0.950 . S
C1014 C1013 1.524 . S
C1014 C1015 1.415 . S
C1015 H985 0.950 . S
C1015 C1010 1.363 . S
C1015 C1014 1.415 . S
H1016 C1013 0.999 . S
H1017 C998 0.913 . S
H1018 C1036 0.951 . S
H1019 C1038 0.951 . S
H1020 C1040 0.950 . S
H1021 C1041 0.950 . S
H1022 C1043 0.950 . S
H1023 C1046 0.950 . S
H1024 C1047 0.950 . S
H1025 C1049 0.950 . S
H1026 C1050 0.950 . S
H1027 C1051 0.951 . S
H1028 C1053 0.951 . S
H1029 C1055 0.950 . S
H1030 C1056 0.950 . S
H1031 C1058 0.950 . S
H1032 C1061 0.950 . S
H1033 C1062 0.952 . S
H1034 C1064 0.950 . S
H1035 C1065 0.950 . S
C1036 H1018 0.951 . S
C1036 C1037 1.366 . S
C1036 C1038 1.388 . S
C1037 C1036 1.366 . S
C1037 C1041 1.385 . S
C1038 H1019 0.951 . S
C1038 C1036 1.388 . S
C1038 C1039 1.366 . S
C1039 C1038 1.366 . S
C1039 C1040 1.414 . S
C1039 C1042 1.499 . S
C1040 H1020 0.950 . S
C1040 C1039 1.414 . S
C1040 C1041 1.374 . S
C1041 H1021 0.950 . S
C1041 C1037 1.385 . S
C1041 C1040 1.374 . S
C1042 C1039 1.499 . S
C1042 C1043 1.373 . S
C1042 C1044 1.389 . S
C1043 H1022 0.950 . S
C1043 C1042 1.373 . S
C1043 C1059 1.377 . S
C1044 C1042 1.389 . S
C1044 C1045 1.524 . S
C1044 C1058 1.377 . S
C1045 C1044 1.524 . S
C1045 C1046 1.397 . S
C1045 C1050 1.363 . S
C1046 H1023 0.950 . S
C1046 C1045 1.397 . S
C1046 C1047 1.334 . S
C1047 H1024 0.950 . S
C1047 C1046 1.334 . S
C1047 C1048 1.287 . S
C1048 C1047 1.287 . S
C1048 C1049 1.524 . S
C1048 H1067 0.913 . S
C1049 H1025 0.950 . S
C1049 C1048 1.524 . S
C1049 C1050 1.415 . S
C1050 H1026 0.950 . S
C1050 C1045 1.363 . S
C1050 C1049 1.415 . S
C1051 H1027 0.951 . S
C1051 C1052 1.366 . S
C1051 C1053 1.388 . S
C1052 C1051 1.366 . S
C1052 C1056 1.385 . S
C1053 H1028 0.951 . S
C1053 C1051 1.388 . S
C1053 C1054 1.366 . S
C1054 C1053 1.366 . S
C1054 C1055 1.414 . S
C1054 C1057 1.499 . S
C1055 H1029 0.950 . S
C1055 C1054 1.414 . S
C1055 C1056 1.374 . S
C1056 H1030 0.950 . S
C1056 C1052 1.385 . S
C1056 C1055 1.374 . S
C1057 C1054 1.499 . S
C1057 C1058 1.373 . S
C1057 C1059 1.389 . S
C1058 H1031 0.950 . S
C1058 C1044 1.377 . S
C1058 C1057 1.373 . S
C1059 C1043 1.377 . S
C1059 C1057 1.389 . S
C1059 C1060 1.524 . S
C1060 C1059 1.524 . S
C1060 C1061 1.397 . S
C1060 C1065 1.363 . S
C1061 H1032 0.950 . S
C1061 C1060 1.397 . S
C1061 C1062 1.334 . S
C1062 H1033 0.952 . S
C1062 C1061 1.334 . S
C1062 C1063 1.287 . S
C1063 C1062 1.287 . S
C1063 C1064 1.524 . S
C1063 H1066 0.999 1_556 S
C1064 H1034 0.950 . S
C1064 C1063 1.524 . S
C1064 C1065 1.415 . S
C1065 H1035 0.950 . S
C1065 C1060 1.363 . S
C1065 C1064 1.415 . S
H1066 C1063 0.999 1_554 S
H1067 C1048 0.913 . S
H1068 C1086 0.951 . S
H1069 C1088 0.951 . S
H1070 C1090 0.950 . S
H1071 C1091 0.950 . S
H1072 C1093 0.950 . S
H1073 C1096 0.950 . S
H1074 C1097 0.950 . S
H1075 C1099 0.950 . S
H1076 C1100 0.950 . S
H1077 C1101 0.951 . S
H1078 C1103 0.951 . S
H1079 C1105 0.950 . S
H1080 C1106 0.950 1_556 S
H1081 C1108 0.950 . S
H1082 C1111 0.950 . S
H1083 C1112 0.950 . S
H1084 C1114 0.950 . S
H1085 C1115 0.950 . S
C1086 H1068 0.951 . S
C1086 C1087 1.366 . S
C1086 C1088 1.388 . S
C1087 C1086 1.366 . S
C1087 C1091 1.385 . S
C1088 H1069 0.951 . S
C1088 C1086 1.388 . S
C1088 C1089 1.366 . S
C1089 C1088 1.366 . S
C1089 C1090 1.414 . S
C1089 C1092 1.499 . S
C1090 H1070 0.950 . S
C1090 C1089 1.414 . S
C1090 C1091 1.374 . S
C1091 H1071 0.950 . S
C1091 C1087 1.385 . S
C1091 C1090 1.374 . S
C1092 C1089 1.499 . S
C1092 C1093 1.373 . S
C1092 C1094 1.389 . S
C1093 H1072 0.950 . S
C1093 C1092 1.373 . S
C1093 C1109 1.377 . S
C1094 C1092 1.389 . S
C1094 C1095 1.524 . S
C1094 C1108 1.377 . S
C1095 C1094 1.524 . S
C1095 C1096 1.397 . S
C1095 C1100 1.363 . S
C1096 H1073 0.950 . S
C1096 C1095 1.397 . S
C1096 C1097 1.334 . S
C1097 H1074 0.950 . S
C1097 C1096 1.334 . S
C1097 C1098 1.287 . S
C1098 C1097 1.287 . S
C1098 C1099 1.524 . S
C1098 H1117 0.913 . S
C1099 H1075 0.950 . S
C1099 C1098 1.524 . S
C1099 C1100 1.415 . S
C1100 H1076 0.950 . S
C1100 C1095 1.363 . S
C1100 C1099 1.415 . S
C1101 H1077 0.951 . S
C1101 C1102 1.366 . S
C1101 C1103 1.388 . S
C1102 C1101 1.366 . S
C1102 C1106 1.385 . S
C1103 H1078 0.951 . S
C1103 C1101 1.388 . S
C1103 C1104 1.366 . S
C1104 C1103 1.366 . S
C1104 C1105 1.414 . S
C1104 C1107 1.499 . S
C1105 H1079 0.950 . S
C1105 C1104 1.414 . S
C1105 C1106 1.374 . S
C1106 H1080 0.950 1_554 S
C1106 C1102 1.385 . S
C1106 C1105 1.374 . S
C1107 C1104 1.499 . S
C1107 C1108 1.373 . S
C1107 C1109 1.389 . S
C1108 H1081 0.950 . S
C1108 C1094 1.377 . S
C1108 C1107 1.373 . S
C1109 C1093 1.377 . S
C1109 C1107 1.389 . S
C1109 C1110 1.524 . S
C1110 C1109 1.524 . S
C1110 C1111 1.397 . S
C1110 C1115 1.363 . S
C1111 H1082 0.950 . S
C1111 C1110 1.397 . S
C1111 C1112 1.334 . S
C1112 H1083 0.950 . S
C1112 C1111 1.334 . S
C1112 C1113 1.287 . S
C1113 C1112 1.287 . S
C1113 C1114 1.524 . S
C1113 H1116 0.999 . S
C1114 H1084 0.950 . S
C1114 C1113 1.524 . S
C1114 C1115 1.415 . S
C1115 H1085 0.950 . S
C1115 C1110 1.363 . S
C1115 C1114 1.415 . S
H1116 C1113 0.999 . S
H1117 C1098 0.913 . S
H1118 C1136 0.951 . S
H1119 C1138 0.951 . S
H1120 C1140 0.950 . S
H1121 C1141 0.950 . S
H1122 C1143 0.950 . S
H1123 C1146 0.950 . S
H1124 C1147 0.950 . S
H1125 C1149 0.950 . S
H1126 C1150 0.950 . S
H1127 C1151 0.951 1_556 S
H1128 C1153 0.951 . S
H1129 C1155 0.950 . S
H1130 C1156 0.950 . S
H1131 C1158 0.950 . S
H1132 C1161 0.950 . S
H1133 C1162 0.950 . S
H1134 C1164 0.950 . S
H1135 C1165 0.950 . S
C1136 H1118 0.951 . S
C1136 C1137 1.366 . S
C1136 C1138 1.388 . S
C1137 C1136 1.366 . S
C1137 C1141 1.385 . S
C1138 H1119 0.951 . S
C1138 C1136 1.388 . S
C1138 C1139 1.366 . S
C1139 C1138 1.366 . S
C1139 C1140 1.414 . S
C1139 C1142 1.499 . S
C1140 H1120 0.950 . S
C1140 C1139 1.414 . S
C1140 C1141 1.374 . S
C1141 H1121 0.950 . S
C1141 C1137 1.385 . S
C1141 C1140 1.374 . S
C1142 C1139 1.499 . S
C1142 C1143 1.373 . S
C1142 C1144 1.389 . S
C1143 H1122 0.950 . S
C1143 C1142 1.373 . S
C1143 C1159 1.377 . S
C1144 C1142 1.389 . S
C1144 C1145 1.524 . S
C1144 C1158 1.377 . S
C1145 C1144 1.524 . S
C1145 C1146 1.397 . S
C1145 C1150 1.363 . S
C1146 H1123 0.950 . S
C1146 C1145 1.397 . S
C1146 C1147 1.334 . S
C1147 H1124 0.950 . S
C1147 C1146 1.334 . S
C1147 C1148 1.287 . S
C1148 C1147 1.287 . S
C1148 C1149 1.524 . S
C1148 H1167 0.913 . S
C1149 H1125 0.950 . S
C1149 C1148 1.524 . S
C1149 C1150 1.415 . S
C1150 H1126 0.950 . S
C1150 C1145 1.363 . S
C1150 C1149 1.415 . S
C1151 H1127 0.951 1_554 S
C1151 C1152 1.366 . S
C1151 C1153 1.388 . S
C1152 C1151 1.366 . S
C1152 C1156 1.385 . S
C1153 H1128 0.951 . S
C1153 C1151 1.388 . S
C1153 C1154 1.366 . S
C1154 C1153 1.366 . S
C1154 C1155 1.414 . S
C1154 C1157 1.499 . S
C1155 H1129 0.950 . S
C1155 C1154 1.414 . S
C1155 C1156 1.374 . S
C1156 H1130 0.950 . S
C1156 C1152 1.385 . S
C1156 C1155 1.374 . S
C1157 C1154 1.499 . S
C1157 C1158 1.373 . S
C1157 C1159 1.389 . S
C1158 H1131 0.950 . S
C1158 C1144 1.377 . S
C1158 C1157 1.373 . S
C1159 C1143 1.377 . S
C1159 C1157 1.389 . S
C1159 C1160 1.524 . S
C1160 C1159 1.524 . S
C1160 C1161 1.397 . S
C1160 C1165 1.363 . S
C1161 H1132 0.950 . S
C1161 C1160 1.397 . S
C1161 C1162 1.334 . S
C1162 H1133 0.950 . S
C1162 C1161 1.334 . S
C1162 C1163 1.287 . S
C1163 C1162 1.287 . S
C1163 C1164 1.524 . S
C1163 H1166 0.999 1_554 S
C1164 H1134 0.950 . S
C1164 C1163 1.524 . S
C1164 C1165 1.415 . S
C1165 H1135 0.950 . S
C1165 C1160 1.363 . S
C1165 C1164 1.415 . S
H1166 C1163 0.999 1_556 S
H1167 C1148 0.913 . S
H1168 C1186 0.951 . S
H1169 C1188 0.951 . S
H1170 C1190 0.950 . S
H1171 C1191 0.950 . S
H1172 C1193 0.950 . S
H1173 C1196 0.950 . S
H1174 C1197 0.950 . S
H1175 C1199 0.950 . S
H1176 C1200 0.950 . S
H1177 C1201 0.951 . S
H1178 C1203 0.951 . S
H1179 C1205 0.950 . S
H1180 C1206 0.950 . S
H1181 C1208 0.950 . S
H1182 C1211 0.950 . S
H1183 C1212 0.950 . S
H1184 C1214 0.950 . S
H1185 C1215 0.950 . S
C1186 H1168 0.951 . S
C1186 C1187 1.366 . S
C1186 C1188 1.388 . S
C1187 C1186 1.366 . S
C1187 C1191 1.385 . S
C1188 H1169 0.951 . S
C1188 C1186 1.388 . S
C1188 C1189 1.366 . S
C1189 C1188 1.366 . S
C1189 C1190 1.414 . S
C1189 C1192 1.499 . S
C1190 H1170 0.950 . S
C1190 C1189 1.414 . S
C1190 C1191 1.374 . S
C1191 H1171 0.950 . S
C1191 C1187 1.385 . S
C1191 C1190 1.374 . S
C1192 C1189 1.499 . S
C1192 C1193 1.373 . S
C1192 C1194 1.389 . S
C1193 H1172 0.950 . S
C1193 C1192 1.373 . S
C1193 C1209 1.377 . S
C1194 C1192 1.389 . S
C1194 C1195 1.524 . S
C1194 C1208 1.377 . S
C1195 C1194 1.524 . S
C1195 C1196 1.397 . S
C1195 C1200 1.363 . S
C1196 H1173 0.950 . S
C1196 C1195 1.397 . S
C1196 C1197 1.334 . S
C1197 H1174 0.950 . S
C1197 C1196 1.334 . S
C1197 C1198 1.287 . S
C1198 C1197 1.287 . S
C1198 C1199 1.524 . S
C1198 H1217 0.913 . S
C1199 H1175 0.950 . S
C1199 C1198 1.524 . S
C1199 C1200 1.415 . S
C1200 H1176 0.950 . S
C1200 C1195 1.363 . S
C1200 C1199 1.415 . S
C1201 H1177 0.951 . S
C1201 C1202 1.366 . S
C1201 C1203 1.388 . S
C1202 C1201 1.366 . S
C1202 C1206 1.385 . S
C1203 H1178 0.951 . S
C1203 C1201 1.388 . S
C1203 C1204 1.366 . S
C1204 C1203 1.366 . S
C1204 C1205 1.414 . S
C1204 C1207 1.499 . S
C1205 H1179 0.950 . S
C1205 C1204 1.414 . S
C1205 C1206 1.374 . S
C1206 H1180 0.950 . S
C1206 C1202 1.385 . S
C1206 C1205 1.374 . S
C1207 C1204 1.499 . S
C1207 C1208 1.373 . S
C1207 C1209 1.389 . S
C1208 H1181 0.950 . S
C1208 C1194 1.377 . S
C1208 C1207 1.373 . S
C1209 C1193 1.377 . S
C1209 C1207 1.389 . S
C1209 C1210 1.524 . S
C1210 C1209 1.524 . S
C1210 C1211 1.397 . S
C1210 C1215 1.363 . S
C1211 H1182 0.950 . S
C1211 C1210 1.397 . S
C1211 C1212 1.334 . S
C1212 H1183 0.950 . S
C1212 C1211 1.334 . S
C1212 C1213 1.287 . S
C1213 C1212 1.287 . S
C1213 C1214 1.524 . S
C1213 H1216 0.999 . S
C1214 H1184 0.950 . S
C1214 C1213 1.524 . S
C1214 C1215 1.415 . S
C1215 H1185 0.950 . S
C1215 C1210 1.363 . S
C1215 C1214 1.415 . S
H1216 C1213 0.999 . S
H1217 C1198 0.913 . S
H1218 C1236 0.951 . S
H1219 C1238 0.951 . S
H1220 C1240 0.950 . S
H1221 C1241 0.950 . S
H1222 C1243 0.950 . S
H1223 C1246 0.950 . S
H1224 C1247 0.950 . S
H1225 C1249 0.950 . S
H1226 C1250 0.950 . S
H1227 C1251 0.951 . S
H1228 C1253 0.951 . S
H1229 C1255 0.950 . S
H1230 C1256 0.950 . S
H1231 C1258 0.950 . S
H1232 C1261 0.950 . S
H1233 C1262 0.950 . S
H1234 C1264 0.950 . S
H1235 C1265 0.950 . S
C1236 H1218 0.951 . S
C1236 C1237 1.366 . S
C1236 C1238 1.388 . S
C1237 C1236 1.366 . S
C1237 C1241 1.385 . S
C1238 H1219 0.951 . S
C1238 C1236 1.388 . S
C1238 C1239 1.366 . S
C1239 C1238 1.366 . S
C1239 C1240 1.414 . S
C1239 C1242 1.499 . S
C1240 H1220 0.950 . S
C1240 C1239 1.414 . S
C1240 C1241 1.374 . S
C1241 H1221 0.950 . S
C1241 C1237 1.385 . S
C1241 C1240 1.374 . S
C1242 C1239 1.499 . S
C1242 C1243 1.373 . S
C1242 C1244 1.389 . S
C1243 H1222 0.950 . S
C1243 C1242 1.373 . S
C1243 C1259 1.377 . S
C1244 C1242 1.389 . S
C1244 C1245 1.524 . S
C1244 C1258 1.377 . S
C1245 C1244 1.524 . S
C1245 C1246 1.397 . S
C1245 C1250 1.363 . S
C1246 H1223 0.950 . S
C1246 C1245 1.397 . S
C1246 C1247 1.334 . S
C1247 H1224 0.950 . S
C1247 C1246 1.334 . S
C1247 C1248 1.287 . S
C1248 C1247 1.287 . S
C1248 C1249 1.524 . S
C1248 H1267 0.913 . S
C1249 H1225 0.950 . S
C1249 C1248 1.524 . S
C1249 C1250 1.415 . S
C1250 H1226 0.950 . S
C1250 C1245 1.363 . S
C1250 C1249 1.415 . S
C1251 H1227 0.951 . S
C1251 C1252 1.366 . S
C1251 C1253 1.388 . S
C1252 C1251 1.366 . S
C1252 C1256 1.385 . S
C1253 H1228 0.951 . S
C1253 C1251 1.388 . S
C1253 C1254 1.366 . S
C1254 C1253 1.366 . S
C1254 C1255 1.414 . S
C1254 C1257 1.499 . S
C1255 H1229 0.950 . S
C1255 C1254 1.414 . S
C1255 C1256 1.374 . S
C1256 H1230 0.950 . S
C1256 C1252 1.385 . S
C1256 C1255 1.374 . S
C1257 C1254 1.499 . S
C1257 C1258 1.373 . S
C1257 C1259 1.389 . S
C1258 H1231 0.950 . S
C1258 C1244 1.377 . S
C1258 C1257 1.373 . S
C1259 C1243 1.377 . S
C1259 C1257 1.389 . S
C1259 C1260 1.524 . S
C1260 C1259 1.524 . S
C1260 C1261 1.397 . S
C1260 C1265 1.363 . S
C1261 H1232 0.950 . S
C1261 C1260 1.397 . S
C1261 C1262 1.334 . S
C1262 H1233 0.950 . S
C1262 C1261 1.334 . S
C1262 C1263 1.287 . S
C1263 C1262 1.287 . S
C1263 C1264 1.524 . S
C1263 H1266 0.999 . S
C1264 H1234 0.950 . S
C1264 C1263 1.524 . S
C1264 C1265 1.415 . S
C1265 H1235 0.950 . S
C1265 C1260 1.363 . S
C1265 C1264 1.415 . S
H1266 C1263 0.999 . S
H1267 C1248 0.913 . S
H1268 C1286 0.951 . S
H1269 C1288 0.951 . S
H1270 C1290 0.950 . S
H1271 C1291 0.950 . S
H1272 C1293 0.950 . S
H1273 C1296 0.950 . S
H1274 C1297 0.950 . S
H1275 C1299 0.950 . S
H1276 C1300 0.950 . S
H1277 C1301 0.951 . S
H1278 C1303 0.951 . S
H1279 C1305 0.950 . S
H1280 C1306 0.950 . S
H1281 C1308 0.950 . S
H1282 C1311 0.950 . S
H1283 C1312 0.950 . S
H1284 C1314 0.950 . S
H1285 C1315 0.950 . S
C1286 H1268 0.951 . S
C1286 C1287 1.366 . S
C1286 C1288 1.388 . S
C1287 C1286 1.366 . S
C1287 C1291 1.385 . S
C1288 H1269 0.951 . S
C1288 C1286 1.388 . S
C1288 C1289 1.366 . S
C1289 C1288 1.366 . S
C1289 C1290 1.414 . S
C1289 C1292 1.499 . S
C1290 H1270 0.950 . S
C1290 C1289 1.414 . S
C1290 C1291 1.374 . S
C1291 H1271 0.950 . S
C1291 C1287 1.385 . S
C1291 C1290 1.374 . S
C1292 C1289 1.499 . S
C1292 C1293 1.373 . S
C1292 C1294 1.389 . S
C1293 H1272 0.950 . S
C1293 C1292 1.373 . S
C1293 C1309 1.377 . S
C1294 C1292 1.389 . S
C1294 C1295 1.524 . S
C1294 C1308 1.377 . S
C1295 C1294 1.524 . S
C1295 C1296 1.397 . S
C1295 C1300 1.363 . S
C1296 H1273 0.950 . S
C1296 C1295 1.397 . S
C1296 C1297 1.334 . S
C1297 H1274 0.950 . S
C1297 C1296 1.334 . S
C1297 C1298 1.287 . S
C1298 C1297 1.287 . S
C1298 C1299 1.524 . S
C1298 H1317 0.913 . S
C1299 H1275 0.950 . S
C1299 C1298 1.524 . S
C1299 C1300 1.415 . S
C1300 H1276 0.950 . S
C1300 C1295 1.363 . S
C1300 C1299 1.415 . S
C1301 H1277 0.951 . S
C1301 C1302 1.366 . S
C1301 C1303 1.388 . S
C1302 C1301 1.366 . S
C1302 C1306 1.385 . S
C1303 H1278 0.951 . S
C1303 C1301 1.388 . S
C1303 C1304 1.366 . S
C1304 C1303 1.366 . S
C1304 C1305 1.414 . S
C1304 C1307 1.499 . S
C1305 H1279 0.950 . S
C1305 C1304 1.414 . S
C1305 C1306 1.374 . S
C1306 H1280 0.950 . S
C1306 C1302 1.385 . S
C1306 C1305 1.374 . S
C1307 C1304 1.499 . S
C1307 C1308 1.373 . S
C1307 C1309 1.389 . S
C1308 H1281 0.950 . S
C1308 C1294 1.377 . S
C1308 C1307 1.373 . S
C1309 C1293 1.377 . S
C1309 C1307 1.389 . S
C1309 C1310 1.524 . S
C1310 C1309 1.524 . S
C1310 C1311 1.397 . S
C1310 C1315 1.363 . S
C1311 H1282 0.950 . S
C1311 C1310 1.397 . S
C1311 C1312 1.334 . S
C1312 H1283 0.950 . S
C1312 C1311 1.334 . S
C1312 C1313 1.287 . S
C1313 C1312 1.287 . S
C1313 C1314 1.524 . S
C1313 H1316 0.999 . S
C1314 H1284 0.950 . S
C1314 C1313 1.524 . S
C1314 C1315 1.415 . S
C1315 H1285 0.950 . S
C1315 C1310 1.363 . S
C1315 C1314 1.415 . S
H1316 C1313 0.999 . S
H1317 C1298 0.913 . S
H1318 C1336 0.951 . S
H1319 C1338 0.951 . S
H1320 C1340 0.950 . S
H1321 C1341 0.950 . S
H1322 C1343 0.950 . S
H1323 C1346 0.950 . S
H1324 C1347 0.950 . S
H1325 C1349 0.950 . S
H1326 C1350 0.950 . S
H1327 C1351 0.951 . S
H1328 C1353 0.951 . S
H1329 C1355 0.950 . S
H1330 C1356 0.950 1_556 S
H1331 C1358 0.950 . S
H1332 C1361 0.950 . S
H1333 C1362 0.950 . S
H1334 C1364 0.950 . S
H1335 C1365 0.950 . S
C1336 H1318 0.951 . S
C1336 C1337 1.366 . S
C1336 C1338 1.388 . S
C1337 C1336 1.366 . S
C1337 C1341 1.385 . S
C1338 H1319 0.951 . S
C1338 C1336 1.388 . S
C1338 C1339 1.366 . S
C1339 C1338 1.366 . S
C1339 C1340 1.414 . S
C1339 C1342 1.499 . S
C1340 H1320 0.950 . S
C1340 C1339 1.414 . S
C1340 C1341 1.374 . S
C1341 H1321 0.950 . S
C1341 C1337 1.385 . S
C1341 C1340 1.374 . S
C1342 C1339 1.499 . S
C1342 C1343 1.373 . S
C1342 C1344 1.389 . S
C1343 H1322 0.950 . S
C1343 C1342 1.373 . S
C1343 C1359 1.377 . S
C1344 C1342 1.389 . S
C1344 C1345 1.524 . S
C1344 C1358 1.377 . S
C1345 C1344 1.524 . S
C1345 C1346 1.397 . S
C1345 C1350 1.363 . S
C1346 H1323 0.950 . S
C1346 C1345 1.397 . S
C1346 C1347 1.334 . S
C1347 H1324 0.950 . S
C1347 C1346 1.334 . S
C1347 C1348 1.287 . S
C1348 C1347 1.287 . S
C1348 C1349 1.524 . S
C1348 H1367 0.913 . S
C1349 H1325 0.950 . S
C1349 C1348 1.524 . S
C1349 C1350 1.415 . S
C1350 H1326 0.950 . S
C1350 C1345 1.363 . S
C1350 C1349 1.415 . S
C1351 H1327 0.951 . S
C1351 C1352 1.366 . S
C1351 C1353 1.388 . S
C1352 C1351 1.366 . S
C1352 C1356 1.385 . S
C1353 H1328 0.951 . S
C1353 C1351 1.388 . S
C1353 C1354 1.366 . S
C1354 C1353 1.366 . S
C1354 C1355 1.414 . S
C1354 C1357 1.499 . S
C1355 H1329 0.950 . S
C1355 C1354 1.414 . S
C1355 C1356 1.374 . S
C1356 H1330 0.950 1_554 S
C1356 C1352 1.385 . S
C1356 C1355 1.374 . S
C1357 C1354 1.499 . S
C1357 C1358 1.373 . S
C1357 C1359 1.389 . S
C1358 H1331 0.950 . S
C1358 C1344 1.377 . S
C1358 C1357 1.373 . S
C1359 C1343 1.377 . S
C1359 C1357 1.389 . S
C1359 C1360 1.524 . S
C1360 C1359 1.524 . S
C1360 C1361 1.397 . S
C1360 C1365 1.363 . S
C1361 H1332 0.950 . S
C1361 C1360 1.397 . S
C1361 C1362 1.334 . S
C1362 H1333 0.950 . S
C1362 C1361 1.334 . S
C1362 C1363 1.287 . S
C1363 C1362 1.287 . S
C1363 C1364 1.524 . S
C1363 H1366 0.999 . S
C1364 H1334 0.950 . S
C1364 C1363 1.524 . S
C1364 C1365 1.415 . S
C1365 H1335 0.950 . S
C1365 C1360 1.363 . S
C1365 C1364 1.415 . S
H1366 C1363 0.999 . S
H1367 C1348 0.913 . S
H1368 C1386 0.951 . S
H1369 C1388 0.951 . S
H1370 C1390 0.950 . S
H1371 C1391 0.950 . S
H1372 C1393 0.950 . S
H1373 C1396 0.945 1_556 S
H1374 C1397 0.950 . S
H1375 C1399 0.950 . S
H1376 C1400 0.950 . S
H1377 C1401 0.951 . S
H1378 C1403 0.951 . S
H1379 C1405 0.950 . S
H1380 C1406 0.950 . S
H1381 C1408 0.950 . S
H1382 C1411 0.945 1_554 S
H1383 C1412 0.950 . S
H1384 C1414 0.950 . S
H1385 C1415 0.950 . S
C1386 H1368 0.951 . S
C1386 C1387 1.366 . S
C1386 C1388 1.388 . S
C1387 C1386 1.366 . S
C1387 C1391 1.385 . S
C1388 H1369 0.951 . S
C1388 C1386 1.388 . S
C1388 C1389 1.366 . S
C1389 C1388 1.366 . S
C1389 C1390 1.414 . S
C1389 C1392 1.499 . S
C1390 H1370 0.950 . S
C1390 C1389 1.414 . S
C1390 C1391 1.374 . S
C1391 H1371 0.950 . S
C1391 C1387 1.385 . S
C1391 C1390 1.374 . S
C1392 C1389 1.499 . S
C1392 C1393 1.373 1_565 S
C1392 C1394 1.368 1_556 S
C1393 H1372 0.950 . S
C1393 C1392 1.373 1_545 S
C1393 C1409 1.397 . S
C1394 C1392 1.368 1_554 S
C1394 C1395 1.528 . S
C1394 C1408 1.397 . S
C1395 C1394 1.528 . S
C1395 C1396 1.397 . S
C1395 C1400 1.363 . S
C1396 H1373 0.945 1_554 S
C1396 C1395 1.397 . S
C1396 C1397 1.334 . S
C1397 H1374 0.950 . S
C1397 C1396 1.334 . S
C1397 C1398 1.287 . S
C1398 C1397 1.287 . S
C1398 C1399 1.524 . S
C1398 H1417 0.913 . S
C1399 H1375 0.950 . S
C1399 C1398 1.524 . S
C1399 C1400 1.415 . S
C1400 H1376 0.950 . S
C1400 C1395 1.363 . S
C1400 C1399 1.415 . S
C1401 H1377 0.951 . S
C1401 C1402 1.366 . S
C1401 C1403 1.388 . S
C1402 C1401 1.366 . S
C1402 C1406 1.385 . S
C1403 H1378 0.951 . S
C1403 C1401 1.388 . S
C1403 C1404 1.366 . S
C1404 C1403 1.366 . S
C1404 C1405 1.414 . S
C1404 C1407 1.499 . S
C1405 H1379 0.950 . S
C1405 C1404 1.414 . S
C1405 C1406 1.374 . S
C1406 H1380 0.950 . S
C1406 C1402 1.385 . S
C1406 C1405 1.374 . S
C1407 C1404 1.499 . S
C1407 C1408 1.373 1_545 S
C1407 C1409 1.368 1_554 S
C1408 H1381 0.950 . S
C1408 C1394 1.397 . S
C1408 C1407 1.373 1_565 S
C1409 C1393 1.397 . S
C1409 C1407 1.368 1_556 S
C1409 C1410 1.528 . S
C1410 C1409 1.528 . S
C1410 C1411 1.397 . S
C1410 C1415 1.363 . S
C1411 H1382 0.945 1_556 S
C1411 C1410 1.397 . S
C1411 C1412 1.334 . S
C1412 H1383 0.950 . S
C1412 C1411 1.334 . S
C1412 C1413 1.287 . S
C1413 C1412 1.287 . S
C1413 C1414 1.524 . S
C1413 H1416 0.999 . S
C1414 H1384 0.950 . S
C1414 C1413 1.524 . S
C1414 C1415 1.415 . S
C1415 H1385 0.950 . S
C1415 C1410 1.363 . S
C1415 C1414 1.415 . S
H1416 C1413 0.999 . S
H1417 C1398 0.913 . S
H1418 C1436 0.951 . S
H1419 C1438 0.951 . S
H1420 C1440 0.950 . S
H1421 C1441 0.950 . S
H1422 C1443 0.957 1_455 S
H1423 C1446 0.950 . S
H1424 C1447 0.950 1_554 S
H1425 C1449 0.950 . S
H1426 C1450 0.950 . S
H1427 C1451 0.951 . S
H1428 C1453 0.951 . S
H1429 C1455 0.950 . S
H1430 C1456 0.950 . S
H1431 C1458 0.957 1_655 S
H1432 C1461 0.950 . S
H1433 C1462 0.950 1_556 S
H1434 C1464 0.950 . S
H1435 C1465 0.950 . S
C1436 H1418 0.951 . S
C1436 C1437 1.366 . S
C1436 C1438 1.388 . S
C1437 C1436 1.366 . S
C1437 C1441 1.385 . S
C1438 H1419 0.951 . S
C1438 C1436 1.388 . S
C1438 C1439 1.366 . S
C1439 C1438 1.366 . S
C1439 C1440 1.414 . S
C1439 C1442 1.499 . S
C1440 H1420 0.950 . S
C1440 C1439 1.414 . S
C1440 C1441 1.374 . S
C1441 H1421 0.950 . S
C1441 C1437 1.385 . S
C1441 C1440 1.374 . S
C1442 C1439 1.499 . S
C1442 C1443 1.361 . S
C1442 C1444 1.389 . S
C1443 H1422 0.957 1_655 S
C1443 C1442 1.361 . S
C1443 C1459 1.384 1_654 S
C1444 C1442 1.389 . S
C1444 C1445 1.524 . S
C1444 C1458 1.383 1_654 S
C1445 C1444 1.524 . S
C1445 C1446 1.397 . S
C1445 C1450 1.363 1_554 S
C1446 H1423 0.950 . S
C1446 C1445 1.397 . S
C1446 C1447 1.334 1_554 S
C1447 H1424 0.950 1_556 S
C1447 C1446 1.334 1_556 S
C1447 C1448 1.288 . S
C1448 C1447 1.288 . S
C1448 C1449 1.524 . S
C1448 H1467 0.913 . S
C1449 H1425 0.950 . S
C1449 C1448 1.524 . S
C1449 C1450 1.415 . S
C1450 H1426 0.950 . S
C1450 C1445 1.363 1_556 S
C1450 C1449 1.415 . S
C1451 H1427 0.951 . S
C1451 C1452 1.366 . S
C1451 C1453 1.388 . S
C1452 C1451 1.366 . S
C1452 C1456 1.385 . S
C1453 H1428 0.951 . S
C1453 C1451 1.388 . S
C1453 C1454 1.366 . S
C1454 C1453 1.366 . S
C1454 C1455 1.414 . S
C1454 C1457 1.499 . S
C1455 H1429 0.950 . S
C1455 C1454 1.414 . S
C1455 C1456 1.374 . S
C1456 H1430 0.950 . S
C1456 C1452 1.385 . S
C1456 C1455 1.374 . S
C1457 C1454 1.499 . S
C1457 C1458 1.362 . S
C1457 C1459 1.389 . S
C1458 H1431 0.957 1_455 S
C1458 C1444 1.383 1_456 S
C1458 C1457 1.362 . S
C1459 C1443 1.384 1_456 S
C1459 C1457 1.389 . S
C1459 C1460 1.524 . S
C1460 C1459 1.524 . S
C1460 C1461 1.397 . S
C1460 C1465 1.363 1_556 S
C1461 H1432 0.950 . S
C1461 C1460 1.397 . S
C1461 C1462 1.334 1_556 S
C1462 H1433 0.950 1_554 S
C1462 C1461 1.334 1_554 S
C1462 C1463 1.288 . S
C1463 C1462 1.288 . S
C1463 C1464 1.524 . S
C1463 H1466 0.999 . S
C1464 H1434 0.950 . S
C1464 C1463 1.524 . S
C1464 C1465 1.415 . S
C1465 H1435 0.950 . S
C1465 C1460 1.363 1_554 S
C1465 C1464 1.415 . S
H1466 C1463 0.999 . S
H1467 C1448 0.913 . S
H1468 C1486 0.951 . S
H1469 C1488 0.951 . S
H1470 C1490 0.950 . S
H1471 C1491 0.950 . S
H1472 C1493 0.950 . S
H1473 C1496 0.950 . S
H1474 C1497 0.950 . S
H1475 C1499 0.950 . S
H1476 C1500 0.950 . S
H1477 C1501 0.951 . S
H1478 C1503 0.951 . S
H1479 C1505 0.950 . S
H1480 C1506 0.950 . S
H1481 C1508 0.950 . S
H1482 C1511 0.950 . S
H1483 C1512 0.950 . S
H1484 C1514 0.950 . S
H1485 C1515 0.950 . S
C1486 H1468 0.951 . S
C1486 C1487 1.366 . S
C1486 C1488 1.388 . S
C1487 C1486 1.366 . S
C1487 C1491 1.385 . S
C1488 H1469 0.951 . S
C1488 C1486 1.388 . S
C1488 C1489 1.366 . S
C1489 C1488 1.366 . S
C1489 C1490 1.414 . S
C1489 C1492 1.499 . S
C1490 H1470 0.950 . S
C1490 C1489 1.414 . S
C1490 C1491 1.374 . S
C1491 H1471 0.950 . S
C1491 C1487 1.385 . S
C1491 C1490 1.374 . S
C1492 C1489 1.499 . S
C1492 C1493 1.373 . S
C1492 C1494 1.389 . S
C1493 H1472 0.950 . S
C1493 C1492 1.373 . S
C1493 C1509 1.377 1_556 S
C1494 C1492 1.389 . S
C1494 C1495 1.524 . S
C1494 C1508 1.377 1_556 S
C1495 C1494 1.524 . S
C1495 C1496 1.397 . S
C1495 C1500 1.363 . S
C1496 H1473 0.950 . S
C1496 C1495 1.397 . S
C1496 C1497 1.334 . S
C1497 H1474 0.950 . S
C1497 C1496 1.334 . S
C1497 C1498 1.287 . S
C1498 C1497 1.287 . S
C1498 C1499 1.524 . S
C1498 H1517 0.913 . S
C1499 H1475 0.950 . S
C1499 C1498 1.524 . S
C1499 C1500 1.415 . S
C1500 H1476 0.950 . S
C1500 C1495 1.363 . S
C1500 C1499 1.415 . S
C1501 H1477 0.951 . S
C1501 C1502 1.366 . S
C1501 C1503 1.388 . S
C1502 C1501 1.366 . S
C1502 C1506 1.385 . S
C1503 H1478 0.951 . S
C1503 C1501 1.388 . S
C1503 C1504 1.366 . S
C1504 C1503 1.366 . S
C1504 C1505 1.414 . S
C1504 C1507 1.499 . S
C1505 H1479 0.950 . S
C1505 C1504 1.414 . S
C1505 C1506 1.374 . S
C1506 H1480 0.950 . S
C1506 C1502 1.385 . S
C1506 C1505 1.374 . S
C1507 C1504 1.499 . S
C1507 C1508 1.373 . S
C1507 C1509 1.389 . S
C1508 H1481 0.950 . S
C1508 C1494 1.377 1_554 S
C1508 C1507 1.373 . S
C1509 C1493 1.377 1_554 S
C1509 C1507 1.389 . S
C1509 C1510 1.524 . S
C1510 C1509 1.524 . S
C1510 C1511 1.397 . S
C1510 C1515 1.363 . S
C1511 H1482 0.950 . S
C1511 C1510 1.397 . S
C1511 C1512 1.334 . S
C1512 H1483 0.950 . S
C1512 C1511 1.334 . S
C1512 C1513 1.287 . S
C1513 C1512 1.287 . S
C1513 C1514 1.524 . S
C1513 H1516 0.999 . S
C1514 H1484 0.950 . S
C1514 C1513 1.524 . S
C1514 C1515 1.415 . S
C1515 H1485 0.950 . S
C1515 C1510 1.363 . S
C1515 C1514 1.415 . S
H1516 C1513 0.999 . S
H1517 C1498 0.913 . S
H1518 C1536 0.951 . S
H1519 C1538 0.951 . S
H1520 C1540 0.950 . S
H1521 C1541 0.950 . S
H1522 C1543 0.950 . S
H1523 C1546 0.950 1_556 S
H1524 C1547 0.950 . S
H1525 C1549 0.950 . S
H1526 C1550 0.950 . S
H1527 C1551 0.951 . S
H1528 C1553 0.951 . S
H1529 C1555 0.950 . S
H1530 C1556 0.950 . S
H1531 C1558 0.950 . S
H1532 C1561 0.950 1_554 S
H1533 C1562 0.950 . S
H1534 C1564 0.950 . S
H1535 C1565 0.950 . S
C1536 H1518 0.951 . S
C1536 C1537 1.366 . S
C1536 C1538 1.388 . S
C1537 C1536 1.366 . S
C1537 C1541 1.385 . S
C1538 H1519 0.951 . S
C1538 C1536 1.388 . S
C1538 C1539 1.366 . S
C1539 C1538 1.366 . S
C1539 C1540 1.414 . S
C1539 C1542 1.499 . S
C1540 H1520 0.950 . S
C1540 C1539 1.414 . S
C1540 C1541 1.374 . S
C1541 H1521 0.950 . S
C1541 C1537 1.385 . S
C1541 C1540 1.374 . S
C1542 C1539 1.499 . S
C1542 C1543 1.373 1_565 S
C1542 C1544 1.389 1_556 S
C1543 H1522 0.950 . S
C1543 C1542 1.373 1_545 S
C1543 C1559 1.377 . S
C1544 C1542 1.389 1_554 S
C1544 C1545 1.524 . S
C1544 C1558 1.377 . S
C1545 C1544 1.524 . S
C1545 C1546 1.397 . S
C1545 C1550 1.363 . S
C1546 H1523 0.950 1_554 S
C1546 C1545 1.397 . S
C1546 C1547 1.334 . S
C1547 H1524 0.950 . S
C1547 C1546 1.334 . S
C1547 C1548 1.287 . S
C1548 C1547 1.287 . S
C1548 C1549 1.524 . S
C1548 H1567 0.913 . S
C1549 H1525 0.950 . S
C1549 C1548 1.524 . S
C1549 C1550 1.415 . S
C1550 H1526 0.950 . S
C1550 C1545 1.363 . S
C1550 C1549 1.415 . S
C1551 H1527 0.951 . S
C1551 C1552 1.366 . S
C1551 C1553 1.388 . S
C1552 C1551 1.366 . S
C1552 C1556 1.385 . S
C1553 H1528 0.951 . S
C1553 C1551 1.388 . S
C1553 C1554 1.366 . S
C1554 C1553 1.366 . S
C1554 C1555 1.414 . S
C1554 C1557 1.499 . S
C1555 H1529 0.950 . S
C1555 C1554 1.414 . S
C1555 C1556 1.374 . S
C1556 H1530 0.950 . S
C1556 C1552 1.385 . S
C1556 C1555 1.374 . S
C1557 C1554 1.499 . S
C1557 C1558 1.373 1_545 S
C1557 C1559 1.389 1_554 S
C1558 H1531 0.950 . S
C1558 C1544 1.377 . S
C1558 C1557 1.373 1_565 S
C1559 C1543 1.377 . S
C1559 C1557 1.389 1_556 S
C1559 C1560 1.524 . S
C1560 C1559 1.524 . S
C1560 C1561 1.397 . S
C1560 C1565 1.363 . S
C1561 H1532 0.950 1_556 S
C1561 C1560 1.397 . S
C1561 C1562 1.334 . S
C1562 H1533 0.950 . S
C1562 C1561 1.334 . S
C1562 C1563 1.287 . S
C1563 C1562 1.287 . S
C1563 C1564 1.524 . S
C1563 H1566 0.999 . S
C1564 H1534 0.950 . S
C1564 C1563 1.524 . S
C1564 C1565 1.415 . S
C1565 H1535 0.950 . S
C1565 C1560 1.363 . S
C1565 C1564 1.415 . S
H1566 C1563 0.999 . S
H1567 C1548 0.913 . S
H1568 C1586 0.951 . S
H1569 C1588 0.951 . S
H1570 C1590 0.950 . S
H1571 C1591 0.950 . S
H1572 C1593 0.950 . S
H1573 C1596 0.950 . S
H1574 C1597 0.950 . S
H1575 C1599 0.950 . S
H1576 C1600 0.950 . S
H1577 C1601 0.951 . S
H1578 C1603 0.951 . S
H1579 C1605 0.950 . S
H1580 C1606 0.950 . S
H1581 C1608 0.950 . S
H1582 C1611 0.950 . S
H1583 C1612 0.950 . S
H1584 C1614 0.950 . S
H1585 C1615 0.950 . S
C1586 H1568 0.951 . S
C1586 C1587 1.366 . S
C1586 C1588 1.388 . S
C1587 C1586 1.366 . S
C1587 C1591 1.385 . S
C1588 H1569 0.951 . S
C1588 C1586 1.388 . S
C1588 C1589 1.366 . S
C1589 C1588 1.366 . S
C1589 C1590 1.414 . S
C1589 C1592 1.499 . S
C1590 H1570 0.950 . S
C1590 C1589 1.414 . S
C1590 C1591 1.374 . S
C1591 H1571 0.950 . S
C1591 C1587 1.385 . S
C1591 C1590 1.374 . S
C1592 C1589 1.499 . S
C1592 C1593 1.373 1_455 S
C1592 C1594 1.367 1_556 S
C1593 H1572 0.950 . S
C1593 C1592 1.373 1_655 S
C1593 C1609 1.398 . S
C1594 C1592 1.367 1_554 S
C1594 C1595 1.526 . S
C1594 C1608 1.398 . S
C1595 C1594 1.526 . S
C1595 C1596 1.397 1_554 S
C1595 C1600 1.363 . S
C1596 H1573 0.950 . S
C1596 C1595 1.397 1_556 S
C1596 C1597 1.334 . S
C1597 H1574 0.950 . S
C1597 C1596 1.334 . S
C1597 C1598 1.287 1_556 S
C1598 C1597 1.287 1_554 S
C1598 C1599 1.524 . S
C1598 H1617 0.913 . S
C1599 H1575 0.950 . S
C1599 C1598 1.524 . S
C1599 C1600 1.415 . S
C1600 H1576 0.950 . S
C1600 C1595 1.363 . S
C1600 C1599 1.415 . S
C1601 H1577 0.951 . S
C1601 C1602 1.366 . S
C1601 C1603 1.388 . S
C1602 C1601 1.366 . S
C1602 C1606 1.385 . S
C1603 H1578 0.951 . S
C1603 C1601 1.388 . S
C1603 C1604 1.366 . S
C1604 C1603 1.366 . S
C1604 C1605 1.414 . S
C1604 C1607 1.499 . S
C1605 H1579 0.950 . S
C1605 C1604 1.414 . S
C1605 C1606 1.374 . S
C1606 H1580 0.950 . S
C1606 C1602 1.385 . S
C1606 C1605 1.374 . S
C1607 C1604 1.499 . S
C1607 C1608 1.373 1_655 S
C1607 C1609 1.367 1_554 S
C1608 H1581 0.950 . S
C1608 C1594 1.398 . S
C1608 C1607 1.373 1_455 S
C1609 C1593 1.398 . S
C1609 C1607 1.367 1_556 S
C1609 C1610 1.526 . S
C1610 C1609 1.526 . S
C1610 C1611 1.397 1_556 S
C1610 C1615 1.363 . S
C1611 H1582 0.950 . S
C1611 C1610 1.397 1_554 S
C1611 C1612 1.334 . S
C1612 H1583 0.950 . S
C1612 C1611 1.334 . S
C1612 C1613 1.287 1_554 S
C1613 C1612 1.287 1_556 S
C1613 C1614 1.524 . S
C1613 H1616 0.999 . S
C1614 H1584 0.950 . S
C1614 C1613 1.524 . S
C1614 C1615 1.415 . S
C1615 H1585 0.950 . S
C1615 C1610 1.363 . S
C1615 C1614 1.415 . S
H1616 C1613 0.999 . S
H1617 C1598 0.913 . S
H1618 C1636 0.951 . S
H1619 C1638 0.951 . S
H1620 C1640 0.950 . S
H1621 C1641 0.950 . S
H1622 C1643 0.950 . S
H1623 C1646 0.950 . S
H1624 C1647 0.950 1_554 S
H1625 C1649 0.950 . S
H1626 C1650 0.950 . S
H1627 C1651 0.951 . S
H1628 C1653 0.951 . S
H1629 C1655 0.950 . S
H1630 C1656 0.950 . S
H1631 C1658 0.950 . S
H1632 C1661 0.950 . S
H1633 C1662 0.950 1_556 S
H1634 C1664 0.950 . S
H1635 C1665 0.950 . S
C1636 H1618 0.951 . S
C1636 C1637 1.366 . S
C1636 C1638 1.388 . S
C1637 C1636 1.366 . S
C1637 C1641 1.385 . S
C1638 H1619 0.951 . S
C1638 C1636 1.388 . S
C1638 C1639 1.366 . S
C1639 C1638 1.366 . S
C1639 C1640 1.414 . S
C1639 C1642 1.499 . S
C1640 H1620 0.950 . S
C1640 C1639 1.414 . S
C1640 C1641 1.374 . S
C1641 H1621 0.950 . S
C1641 C1637 1.385 . S
C1641 C1640 1.374 . S
C1642 C1639 1.499 . S
C1642 C1643 1.373 . S
C1642 C1644 1.389 1_554 S
C1643 H1622 0.950 . S
C1643 C1642 1.373 . S
C1643 C1659 1.377 . S
C1644 C1642 1.389 1_556 S
C1644 C1645 1.524 . S
C1644 C1658 1.377 . S
C1645 C1644 1.524 . S
C1645 C1646 1.397 1_556 S
C1645 C1650 1.363 . S
C1646 H1623 0.950 . S
C1646 C1645 1.397 1_554 S
C1646 C1647 1.334 1_554 S
C1647 H1624 0.950 1_556 S
C1647 C1646 1.334 1_556 S
C1647 C1648 1.287 . S
C1648 C1647 1.287 . S
C1648 C1649 1.524 . S
C1648 H1667 0.913 . S
C1649 H1625 0.950 . S
C1649 C1648 1.524 . S
C1649 C1650 1.415 . S
C1650 H1626 0.950 . S
C1650 C1645 1.363 . S
C1650 C1649 1.415 . S
C1651 H1627 0.951 . S
C1651 C1652 1.366 . S
C1651 C1653 1.388 . S
C1652 C1651 1.366 . S
C1652 C1656 1.385 . S
C1653 H1628 0.951 . S
C1653 C1651 1.388 . S
C1653 C1654 1.366 . S
C1654 C1653 1.366 . S
C1654 C1655 1.414 . S
C1654 C1657 1.499 . S
C1655 H1629 0.950 . S
C1655 C1654 1.414 . S
C1655 C1656 1.374 . S
C1656 H1630 0.950 . S
C1656 C1652 1.385 . S
C1656 C1655 1.374 . S
C1657 C1654 1.499 . S
C1657 C1658 1.373 . S
C1657 C1659 1.389 1_556 S
C1658 H1631 0.950 . S
C1658 C1644 1.377 . S
C1658 C1657 1.373 . S
C1659 C1643 1.377 . S
C1659 C1657 1.389 1_554 S
C1659 C1660 1.524 . S
C1660 C1659 1.524 . S
C1660 C1661 1.397 1_554 S
C1660 C1665 1.363 . S
C1661 H1632 0.950 . S
C1661 C1660 1.397 1_556 S
C1661 C1662 1.334 1_556 S
C1662 H1633 0.950 1_554 S
C1662 C1661 1.334 1_554 S
C1662 C1663 1.287 . S
C1663 C1662 1.287 . S
C1663 C1664 1.524 . S
C1663 H1666 0.999 . S
C1664 H1634 0.950 . S
C1664 C1663 1.524 . S
C1664 C1665 1.415 . S
C1665 H1635 0.950 . S
C1665 C1660 1.363 . S
C1665 C1664 1.415 . S
H1666 C1663 0.999 . S
H1667 C1648 0.913 . S
H1668 C1686 0.951 . S
H1669 C1688 0.951 . S
H1670 C1690 0.950 . S
H1671 C1691 0.950 . S
H1672 C1693 0.950 . S
H1673 C1696 0.950 . S
H1674 C1697 0.950 . S
H1675 C1699 0.950 . S
H1676 C1700 0.950 . S
H1677 C1701 0.951 . S
H1678 C1703 0.951 . S
H1679 C1705 0.950 . S
H1680 C1706 0.950 . S
H1681 C1708 0.950 . S
H1682 C1711 0.950 . S
H1683 C1712 0.950 . S
H1684 C1714 0.950 . S
H1685 C1715 0.950 . S
C1686 H1668 0.951 . S
C1686 C1687 1.366 . S
C1686 C1688 1.388 . S
C1687 C1686 1.366 . S
C1687 C1691 1.385 . S
C1688 H1669 0.951 . S
C1688 C1686 1.388 . S
C1688 C1689 1.366 . S
C1689 C1688 1.366 . S
C1689 C1690 1.414 . S
C1689 C1692 1.499 . S
C1690 H1670 0.950 . S
C1690 C1689 1.414 . S
C1690 C1691 1.374 . S
C1691 H1671 0.950 . S
C1691 C1687 1.385 . S
C1691 C1690 1.374 . S
C1692 C1689 1.499 . S
C1692 C1693 1.373 . S
C1692 C1694 1.389 . S
C1693 H1672 0.950 . S
C1693 C1692 1.373 . S
C1693 C1709 1.377 . S
C1694 C1692 1.389 . S
C1694 C1695 1.524 . S
C1694 C1708 1.377 . S
C1695 C1694 1.524 . S
C1695 C1696 1.397 . S
C1695 C1700 1.363 . S
C1696 H1673 0.950 . S
C1696 C1695 1.397 . S
C1696 C1697 1.334 . S
C1697 H1674 0.950 . S
C1697 C1696 1.334 . S
C1697 C1698 1.287 . S
C1698 C1697 1.287 . S
C1698 C1699 1.524 . S
C1698 H1717 0.913 . S
C1699 H1675 0.950 . S
C1699 C1698 1.524 . S
C1699 C1700 1.415 . S
C1700 H1676 0.950 . S
C1700 C1695 1.363 . S
C1700 C1699 1.415 . S
C1701 H1677 0.951 . S
C1701 C1702 1.366 . S
C1701 C1703 1.388 . S
C1702 C1701 1.366 . S
C1702 C1706 1.385 . S
C1703 H1678 0.951 . S
C1703 C1701 1.388 . S
C1703 C1704 1.366 . S
C1704 C1703 1.366 . S
C1704 C1705 1.414 . S
C1704 C1707 1.499 . S
C1705 H1679 0.950 . S
C1705 C1704 1.414 . S
C1705 C1706 1.374 . S
C1706 H1680 0.950 . S
C1706 C1702 1.385 . S
C1706 C1705 1.374 . S
C1707 C1704 1.499 . S
C1707 C1708 1.373 . S
C1707 C1709 1.389 . S
C1708 H1681 0.950 . S
C1708 C1694 1.377 . S
C1708 C1707 1.373 . S
C1709 C1693 1.377 . S
C1709 C1707 1.389 . S
C1709 C1710 1.524 . S
C1710 C1709 1.524 . S
C1710 C1711 1.397 . S
C1710 C1715 1.363 . S
C1711 H1682 0.950 . S
C1711 C1710 1.397 . S
C1711 C1712 1.334 . S
C1712 H1683 0.950 . S
C1712 C1711 1.334 . S
C1712 C1713 1.287 . S
C1713 C1712 1.287 . S
C1713 C1714 1.524 . S
C1713 H1716 0.999 . S
C1714 H1684 0.950 . S
C1714 C1713 1.524 . S
C1714 C1715 1.415 . S
C1715 H1685 0.950 . S
C1715 C1710 1.363 . S
C1715 C1714 1.415 . S
H1716 C1713 0.999 . S
H1717 C1698 0.913 . S
H1718 C1736 0.951 . S
H1719 C1738 0.951 . S
H1720 C1740 0.950 . S
H1721 C1741 0.950 . S
H1722 C1743 0.950 . S
H1723 C1746 0.950 . S
H1724 C1747 0.950 . S
H1725 C1749 0.950 . S
H1726 C1750 0.950 . S
H1727 C1751 0.951 . S
H1728 C1753 0.951 . S
H1729 C1755 0.950 . S
H1730 C1756 0.950 . S
H1731 C1758 0.950 . S
H1732 C1761 0.950 . S
H1733 C1762 0.950 . S
H1734 C1764 0.950 . S
H1735 C1765 0.950 . S
C1736 H1718 0.951 . S
C1736 C1737 1.366 . S
C1736 C1738 1.388 . S
C1737 C1736 1.366 . S
C1737 C1741 1.385 . S
C1738 H1719 0.951 . S
C1738 C1736 1.388 . S
C1738 C1739 1.366 . S
C1739 C1738 1.366 . S
C1739 C1740 1.414 . S
C1739 C1742 1.499 . S
C1740 H1720 0.950 . S
C1740 C1739 1.414 . S
C1740 C1741 1.374 . S
C1741 H1721 0.950 . S
C1741 C1737 1.385 . S
C1741 C1740 1.374 . S
C1742 C1739 1.499 . S
C1742 C1743 1.373 . S
C1742 C1744 1.389 . S
C1743 H1722 0.950 . S
C1743 C1742 1.373 . S
C1743 C1759 1.377 . S
C1744 C1742 1.389 . S
C1744 C1745 1.524 . S
C1744 C1758 1.377 . S
C1745 C1744 1.524 . S
C1745 C1746 1.397 . S
C1745 C1750 1.363 . S
C1746 H1723 0.950 . S
C1746 C1745 1.397 . S
C1746 C1747 1.334 . S
C1747 H1724 0.950 . S
C1747 C1746 1.334 . S
C1747 C1748 1.287 . S
C1748 C1747 1.287 . S
C1748 C1749 1.524 . S
C1748 H1767 0.913 . S
C1749 H1725 0.950 . S
C1749 C1748 1.524 . S
C1749 C1750 1.415 . S
C1750 H1726 0.950 . S
C1750 C1745 1.363 . S
C1750 C1749 1.415 . S
C1751 H1727 0.951 . S
C1751 C1752 1.366 . S
C1751 C1753 1.388 . S
C1752 C1751 1.366 . S
C1752 C1756 1.385 . S
C1753 H1728 0.951 . S
C1753 C1751 1.388 . S
C1753 C1754 1.366 . S
C1754 C1753 1.366 . S
C1754 C1755 1.414 . S
C1754 C1757 1.499 . S
C1755 H1729 0.950 . S
C1755 C1754 1.414 . S
C1755 C1756 1.374 . S
C1756 H1730 0.950 . S
C1756 C1752 1.385 . S
C1756 C1755 1.374 . S
C1757 C1754 1.499 . S
C1757 C1758 1.373 . S
C1757 C1759 1.389 . S
C1758 H1731 0.950 . S
C1758 C1744 1.377 . S
C1758 C1757 1.373 . S
C1759 C1743 1.377 . S
C1759 C1757 1.389 . S
C1759 C1760 1.524 . S
C1760 C1759 1.524 . S
C1760 C1761 1.397 . S
C1760 C1765 1.363 . S
C1761 H1732 0.950 . S
C1761 C1760 1.397 . S
C1761 C1762 1.334 . S
C1762 H1733 0.950 . S
C1762 C1761 1.334 . S
C1762 C1763 1.287 . S
C1763 C1762 1.287 . S
C1763 C1764 1.524 . S
C1763 H1766 0.999 . S
C1764 H1734 0.950 . S
C1764 C1763 1.524 . S
C1764 C1765 1.415 . S
C1765 H1735 0.950 . S
C1765 C1760 1.363 . S
C1765 C1764 1.415 . S
H1766 C1763 0.999 . S
H1767 C1748 0.913 . S
H1768 C1786 0.951 . S
H1769 C1788 0.951 . S
H1770 C1790 0.950 . S
H1771 C1791 0.950 . S
H1772 C1793 0.950 . S
H1773 C1796 0.950 . S
H1774 C1797 0.950 . S
H1775 C1799 0.950 . S
H1776 C1800 0.950 . S
H1777 C1801 0.951 . S
H1778 C1803 0.951 . S
H1779 C1805 0.950 . S
H1780 C1806 0.950 . S
H1781 C1808 0.950 . S
H1782 C1811 0.950 . S
H1783 C1812 0.950 . S
H1784 C1814 0.950 . S
H1785 C1815 0.950 . S
C1786 H1768 0.951 . S
C1786 C1787 1.366 . S
C1786 C1788 1.388 . S
C1787 C1786 1.366 . S
C1787 C1791 1.385 . S
C1788 H1769 0.951 . S
C1788 C1786 1.388 . S
C1788 C1789 1.366 . S
C1789 C1788 1.366 . S
C1789 C1790 1.414 . S
C1789 C1792 1.499 . S
C1790 H1770 0.950 . S
C1790 C1789 1.414 . S
C1790 C1791 1.374 . S
C1791 H1771 0.950 . S
C1791 C1787 1.385 . S
C1791 C1790 1.374 . S
C1792 C1789 1.499 . S
C1792 C1793 1.373 . S
C1792 C1794 1.389 . S
C1793 H1772 0.950 . S
C1793 C1792 1.373 . S
C1793 C1809 1.377 . S
C1794 C1792 1.389 . S
C1794 C1795 1.524 . S
C1794 C1808 1.377 . S
C1795 C1794 1.524 . S
C1795 C1796 1.397 . S
C1795 C1800 1.363 . S
C1796 H1773 0.950 . S
C1796 C1795 1.397 . S
C1796 C1797 1.334 . S
C1797 H1774 0.950 . S
C1797 C1796 1.334 . S
C1797 C1798 1.287 . S
C1798 C1797 1.287 . S
C1798 C1799 1.524 . S
C1798 H1817 0.913 . S
C1799 H1775 0.950 . S
C1799 C1798 1.524 . S
C1799 C1800 1.415 . S
C1800 H1776 0.950 . S
C1800 C1795 1.363 . S
C1800 C1799 1.415 . S
C1801 H1777 0.951 . S
C1801 C1802 1.366 . S
C1801 C1803 1.388 . S
C1802 C1801 1.366 . S
C1802 C1806 1.385 . S
C1803 H1778 0.951 . S
C1803 C1801 1.388 . S
C1803 C1804 1.366 . S
C1804 C1803 1.366 . S
C1804 C1805 1.414 . S
C1804 C1807 1.499 . S
C1805 H1779 0.950 . S
C1805 C1804 1.414 . S
C1805 C1806 1.374 . S
C1806 H1780 0.950 . S
C1806 C1802 1.385 . S
C1806 C1805 1.374 . S
C1807 C1804 1.499 . S
C1807 C1808 1.373 . S
C1807 C1809 1.389 . S
C1808 H1781 0.950 . S
C1808 C1794 1.377 . S
C1808 C1807 1.373 . S
C1809 C1793 1.377 . S
C1809 C1807 1.389 . S
C1809 C1810 1.524 . S
C1810 C1809 1.524 . S
C1810 C1811 1.397 . S
C1810 C1815 1.363 . S
C1811 H1782 0.950 . S
C1811 C1810 1.397 . S
C1811 C1812 1.334 . S
C1812 H1783 0.950 . S
C1812 C1811 1.334 . S
C1812 C1813 1.287 . S
C1813 C1812 1.287 . S
C1813 C1814 1.524 . S
C1813 H1816 0.999 . S
C1814 H1784 0.950 . S
C1814 C1813 1.524 . S
C1814 C1815 1.415 . S
C1815 H1785 0.950 . S
C1815 C1810 1.363 . S
C1815 C1814 1.415 . S
H1816 C1813 0.999 . S
H1817 C1798 0.913 . S
H1818 C1836 0.951 . S
H1819 C1838 0.951 . S
H1820 C1840 0.950 . S
H1821 C1841 0.950 . S
H1822 C1843 0.950 . S
H1823 C1846 0.950 . S
H1824 C1847 0.950 . S
H1825 C1849 0.950 . S
H1826 C1850 0.950 . S
H1827 C1851 0.951 . S
H1828 C1853 0.951 . S
H1829 C1855 0.950 . S
H1830 C1856 0.950 . S
H1831 C1858 0.950 . S
H1832 C1861 0.950 . S
H1833 C1862 0.950 . S
H1834 C1864 0.950 . S
H1835 C1865 0.950 . S
C1836 H1818 0.951 . S
C1836 C1837 1.366 . S
C1836 C1838 1.388 . S
C1837 C1836 1.366 . S
C1837 C1841 1.385 . S
C1838 H1819 0.951 . S
C1838 C1836 1.388 . S
C1838 C1839 1.366 . S
C1839 C1838 1.366 . S
C1839 C1840 1.414 . S
C1839 C1842 1.499 . S
C1840 H1820 0.950 . S
C1840 C1839 1.414 . S
C1840 C1841 1.374 . S
C1841 H1821 0.950 . S
C1841 C1837 1.385 . S
C1841 C1840 1.374 . S
C1842 C1839 1.499 . S
C1842 C1843 1.373 . S
C1842 C1844 1.389 . S
C1843 H1822 0.950 . S
C1843 C1842 1.373 . S
C1843 C1859 1.377 . S
C1844 C1842 1.389 . S
C1844 C1845 1.524 . S
C1844 C1858 1.377 . S
C1845 C1844 1.524 . S
C1845 C1846 1.397 . S
C1845 C1850 1.363 . S
C1846 H1823 0.950 . S
C1846 C1845 1.397 . S
C1846 C1847 1.334 . S
C1847 H1824 0.950 . S
C1847 C1846 1.334 . S
C1847 C1848 1.287 . S
C1848 C1847 1.287 . S
C1848 C1849 1.524 . S
C1848 H1867 0.913 . S
C1849 H1825 0.950 . S
C1849 C1848 1.524 . S
C1849 C1850 1.415 . S
C1850 H1826 0.950 . S
C1850 C1845 1.363 . S
C1850 C1849 1.415 . S
C1851 H1827 0.951 . S
C1851 C1852 1.366 . S
C1851 C1853 1.388 . S
C1852 C1851 1.366 . S
C1852 C1856 1.385 . S
C1853 H1828 0.951 . S
C1853 C1851 1.388 . S
C1853 C1854 1.366 . S
C1854 C1853 1.366 . S
C1854 C1855 1.414 . S
C1854 C1857 1.499 . S
C1855 H1829 0.950 . S
C1855 C1854 1.414 . S
C1855 C1856 1.374 . S
C1856 H1830 0.950 . S
C1856 C1852 1.385 . S
C1856 C1855 1.374 . S
C1857 C1854 1.499 . S
C1857 C1858 1.373 . S
C1857 C1859 1.389 . S
C1858 H1831 0.950 . S
C1858 C1844 1.377 . S
C1858 C1857 1.373 . S
C1859 C1843 1.377 . S
C1859 C1857 1.389 . S
C1859 C1860 1.524 . S
C1860 C1859 1.524 . S
C1860 C1861 1.397 . S
C1860 C1865 1.363 . S
C1861 H1832 0.950 . S
C1861 C1860 1.397 . S
C1861 C1862 1.334 . S
C1862 H1833 0.950 . S
C1862 C1861 1.334 . S
C1862 C1863 1.287 . S
C1863 C1862 1.287 . S
C1863 C1864 1.524 . S
C1863 H1866 0.999 . S
C1864 H1834 0.950 . S
C1864 C1863 1.524 . S
C1864 C1865 1.415 . S
C1865 H1835 0.950 . S
C1865 C1860 1.363 . S
C1865 C1864 1.415 . S
H1866 C1863 0.999 . S
H1867 C1848 0.913 . S
H1868 C1886 0.951 . S
H1869 C1888 0.951 . S
H1870 C1890 0.950 . S
H1871 C1891 0.950 . S
H1872 C1893 0.950 . S
H1873 C1896 0.950 . S
H1874 C1897 0.950 . S
H1875 C1899 0.950 . S
H1876 C1900 0.950 . S
H1877 C1901 0.951 . S
H1878 C1903 0.951 . S
H1879 C1905 0.950 . S
H1880 C1906 0.950 . S
H1881 C1908 0.950 . S
H1882 C1911 0.950 . S
H1883 C1912 0.950 . S
H1884 C1914 0.950 . S
H1885 C1915 0.950 . S
C1886 H1868 0.951 . S
C1886 C1887 1.366 . S
C1886 C1888 1.388 . S
C1887 C1886 1.366 . S
C1887 C1891 1.385 . S
C1888 H1869 0.951 . S
C1888 C1886 1.388 . S
C1888 C1889 1.366 . S
C1889 C1888 1.366 . S
C1889 C1890 1.414 . S
C1889 C1892 1.499 . S
C1890 H1870 0.950 . S
C1890 C1889 1.414 . S
C1890 C1891 1.374 . S
C1891 H1871 0.950 . S
C1891 C1887 1.385 . S
C1891 C1890 1.374 . S
C1892 C1889 1.499 . S
C1892 C1893 1.373 . S
C1892 C1894 1.389 . S
C1893 H1872 0.950 . S
C1893 C1892 1.373 . S
C1893 C1909 1.377 . S
C1894 C1892 1.389 . S
C1894 C1895 1.524 . S
C1894 C1908 1.377 . S
C1895 C1894 1.524 . S
C1895 C1896 1.397 . S
C1895 C1900 1.363 . S
C1896 H1873 0.950 . S
C1896 C1895 1.397 . S
C1896 C1897 1.334 . S
C1897 H1874 0.950 . S
C1897 C1896 1.334 . S
C1897 C1898 1.287 . S
C1898 C1897 1.287 . S
C1898 C1899 1.524 . S
C1898 H1917 0.913 . S
C1899 H1875 0.950 . S
C1899 C1898 1.524 . S
C1899 C1900 1.415 . S
C1900 H1876 0.950 . S
C1900 C1895 1.363 . S
C1900 C1899 1.415 . S
C1901 H1877 0.951 . S
C1901 C1902 1.366 . S
C1901 C1903 1.388 . S
C1902 C1901 1.366 . S
C1902 C1906 1.385 . S
C1903 H1878 0.951 . S
C1903 C1901 1.388 . S
C1903 C1904 1.366 . S
C1904 C1903 1.366 . S
C1904 C1905 1.414 . S
C1904 C1907 1.499 . S
C1905 H1879 0.950 . S
C1905 C1904 1.414 . S
C1905 C1906 1.374 . S
C1906 H1880 0.950 . S
C1906 C1902 1.385 . S
C1906 C1905 1.374 . S
C1907 C1904 1.499 . S
C1907 C1908 1.373 . S
C1907 C1909 1.389 . S
C1908 H1881 0.950 . S
C1908 C1894 1.377 . S
C1908 C1907 1.373 . S
C1909 C1893 1.377 . S
C1909 C1907 1.389 . S
C1909 C1910 1.524 . S
C1910 C1909 1.524 . S
C1910 C1911 1.397 . S
C1910 C1915 1.363 . S
C1911 H1882 0.950 . S
C1911 C1910 1.397 . S
C1911 C1912 1.334 . S
C1912 H1883 0.950 . S
C1912 C1911 1.334 . S
C1912 C1913 1.287 . S
C1913 C1912 1.287 . S
C1913 C1914 1.524 . S
C1913 H1916 0.999 . S
C1914 H1884 0.950 . S
C1914 C1913 1.524 . S
C1914 C1915 1.415 . S
C1915 H1885 0.950 . S
C1915 C1910 1.363 . S
C1915 C1914 1.415 . S
H1916 C1913 0.999 . S
H1917 C1898 0.913 . S
H1918 C1936 0.951 . S
H1919 C1938 0.951 . S
H1920 C1940 0.950 . S
H1921 C1941 0.950 . S
H1922 C1943 0.950 . S
H1923 C1946 0.950 . S
H1924 C1947 0.950 . S
H1925 C1949 0.950 . S
H1926 C1950 0.950 . S
H1927 C1951 0.951 . S
H1928 C1953 0.951 . S
H1929 C1955 0.950 . S
H1930 C1956 0.950 . S
H1931 C1958 0.950 . S
H1932 C1961 0.950 . S
H1933 C1962 0.950 . S
H1934 C1964 0.950 . S
H1935 C1965 0.950 . S
C1936 H1918 0.951 . S
C1936 C1937 1.366 . S
C1936 C1938 1.388 . S
C1937 C1936 1.366 . S
C1937 C1941 1.385 . S
C1938 H1919 0.951 . S
C1938 C1936 1.388 . S
C1938 C1939 1.366 . S
C1939 C1938 1.366 . S
C1939 C1940 1.414 . S
C1939 C1942 1.499 . S
C1940 H1920 0.950 . S
C1940 C1939 1.414 . S
C1940 C1941 1.374 . S
C1941 H1921 0.950 . S
C1941 C1937 1.385 . S
C1941 C1940 1.374 . S
C1942 C1939 1.499 . S
C1942 C1943 1.373 . S
C1942 C1944 1.389 . S
C1943 H1922 0.950 . S
C1943 C1942 1.373 . S
C1943 C1959 1.377 . S
C1944 C1942 1.389 . S
C1944 C1945 1.524 . S
C1944 C1958 1.377 . S
C1945 C1944 1.524 . S
C1945 C1946 1.397 . S
C1945 C1950 1.363 . S
C1946 H1923 0.950 . S
C1946 C1945 1.397 . S
C1946 C1947 1.334 . S
C1947 H1924 0.950 . S
C1947 C1946 1.334 . S
C1947 C1948 1.287 . S
C1948 C1947 1.287 . S
C1948 C1949 1.524 . S
C1948 H1967 0.913 . S
C1949 H1925 0.950 . S
C1949 C1948 1.524 . S
C1949 C1950 1.415 . S
C1950 H1926 0.950 . S
C1950 C1945 1.363 . S
C1950 C1949 1.415 . S
C1951 H1927 0.951 . S
C1951 C1952 1.366 . S
C1951 C1953 1.388 . S
C1952 C1951 1.366 . S
C1952 C1956 1.385 . S
C1953 H1928 0.951 . S
C1953 C1951 1.388 . S
C1953 C1954 1.366 . S
C1954 C1953 1.366 . S
C1954 C1955 1.414 . S
C1954 C1957 1.499 . S
C1955 H1929 0.950 . S
C1955 C1954 1.414 . S
C1955 C1956 1.374 . S
C1956 H1930 0.950 . S
C1956 C1952 1.385 . S
C1956 C1955 1.374 . S
C1957 C1954 1.499 . S
C1957 C1958 1.373 . S
C1957 C1959 1.389 . S
C1958 H1931 0.950 . S
C1958 C1944 1.377 . S
C1958 C1957 1.373 . S
C1959 C1943 1.377 . S
C1959 C1957 1.389 . S
C1959 C1960 1.524 . S
C1960 C1959 1.524 . S
C1960 C1961 1.397 . S
C1960 C1965 1.363 . S
C1961 H1932 0.950 . S
C1961 C1960 1.397 . S
C1961 C1962 1.334 . S
C1962 H1933 0.950 . S
C1962 C1961 1.334 . S
C1962 C1963 1.287 . S
C1963 C1962 1.287 . S
C1963 C1964 1.524 . S
C1963 H1966 0.999 . S
C1964 H1934 0.950 . S
C1964 C1963 1.524 . S
C1964 C1965 1.415 . S
C1965 H1935 0.950 . S
C1965 C1960 1.363 . S
C1965 C1964 1.415 . S
H1966 C1963 0.999 . S
H1967 C1948 0.913 . S
H1968 C1986 0.951 . S
H1969 C1988 0.951 . S
H1970 C1990 0.950 . S
H1971 C1991 0.950 . S
H1972 C1993 0.950 . S
H1973 C1996 0.950 . S
H1974 C1997 0.950 . S
H1975 C1999 0.950 . S
H1976 C2000 0.950 . S
H1977 C2001 0.951 . S
H1978 C2003 0.951 . S
H1979 C2005 0.950 . S
H1980 C2006 0.950 . S
H1981 C2008 0.950 . S
H1982 C2011 0.950 . S
H1983 C2012 0.950 . S
H1984 C2014 0.950 . S
H1985 C2015 0.950 . S
C1986 H1968 0.951 . S
C1986 C1987 1.366 . S
C1986 C1988 1.388 . S
C1987 C1986 1.366 . S
C1987 C1991 1.385 . S
C1988 H1969 0.951 . S
C1988 C1986 1.388 . S
C1988 C1989 1.366 . S
C1989 C1988 1.366 . S
C1989 C1990 1.414 . S
C1989 C1992 1.499 . S
C1990 H1970 0.950 . S
C1990 C1989 1.414 . S
C1990 C1991 1.374 . S
C1991 H1971 0.950 . S
C1991 C1987 1.385 . S
C1991 C1990 1.374 . S
C1992 C1989 1.499 . S
C1992 C1993 1.373 . S
C1992 C1994 1.389 . S
C1993 H1972 0.950 . S
C1993 C1992 1.373 . S
C1993 C2009 1.377 . S
C1994 C1992 1.389 . S
C1994 C1995 1.524 . S
C1994 C2008 1.377 . S
C1995 C1994 1.524 . S
C1995 C1996 1.397 . S
C1995 C2000 1.363 . S
C1996 H1973 0.950 . S
C1996 C1995 1.397 . S
C1996 C1997 1.334 . S
C1997 H1974 0.950 . S
C1997 C1996 1.334 . S
C1997 C1998 1.287 . S
C1998 C1997 1.287 . S
C1998 C1999 1.524 . S
C1998 H2017 0.913 . S
C1999 H1975 0.950 . S
C1999 C1998 1.524 . S
C1999 C2000 1.415 . S
C2000 H1976 0.950 . S
C2000 C1995 1.363 . S
C2000 C1999 1.415 . S
C2001 H1977 0.951 . S
C2001 C2002 1.366 . S
C2001 C2003 1.388 . S
C2002 C2001 1.366 . S
C2002 C2006 1.385 . S
C2003 H1978 0.951 . S
C2003 C2001 1.388 . S
C2003 C2004 1.366 . S
C2004 C2003 1.366 . S
C2004 C2005 1.414 . S
C2004 C2007 1.499 . S
C2005 H1979 0.950 . S
C2005 C2004 1.414 . S
C2005 C2006 1.374 . S
C2006 H1980 0.950 . S
C2006 C2002 1.385 . S
C2006 C2005 1.374 . S
C2007 C2004 1.499 . S
C2007 C2008 1.373 . S
C2007 C2009 1.389 . S
C2008 H1981 0.950 . S
C2008 C1994 1.377 . S
C2008 C2007 1.373 . S
C2009 C1993 1.377 . S
C2009 C2007 1.389 . S
C2009 C2010 1.524 . S
C2010 C2009 1.524 . S
C2010 C2011 1.397 . S
C2010 C2015 1.363 . S
C2011 H1982 0.950 . S
C2011 C2010 1.397 . S
C2011 C2012 1.334 . S
C2012 H1983 0.950 . S
C2012 C2011 1.334 . S
C2012 C2013 1.287 . S
C2013 C2012 1.287 . S
C2013 C2014 1.524 . S
C2013 H2016 0.999 . S
C2014 H1984 0.950 . S
C2014 C2013 1.524 . S
C2014 C2015 1.415 . S
C2015 H1985 0.950 . S
C2015 C2010 1.363 . S
C2015 C2014 1.415 . S
H2016 C2013 0.999 . S
H2017 C1998 0.913 . S
H2018 C2036 0.951 . S
H2019 C2038 0.951 . S
H2020 C2040 0.950 . S
H2021 C2041 0.950 . S
H2022 C2043 0.950 . S
H2023 C2046 0.950 . S
H2024 C2047 0.950 . S
H2025 C2049 0.950 . S
H2026 C2050 0.950 . S
H2027 C2051 0.951 . S
H2028 C2053 0.951 . S
H2029 C2055 0.950 . S
H2030 C2056 0.950 . S
H2031 C2058 0.950 . S
H2032 C2061 0.950 . S
H2033 C2062 0.950 . S
H2034 C2064 0.950 . S
H2035 C2065 0.950 . S
C2036 H2018 0.951 . S
C2036 C2037 1.366 . S
C2036 C2038 1.388 . S
C2037 C2036 1.366 . S
C2037 C2041 1.385 . S
C2038 H2019 0.951 . S
C2038 C2036 1.388 . S
C2038 C2039 1.366 . S
C2039 C2038 1.366 . S
C2039 C2040 1.414 . S
C2039 C2042 1.499 . S
C2040 H2020 0.950 . S
C2040 C2039 1.414 . S
C2040 C2041 1.374 . S
C2041 H2021 0.950 . S
C2041 C2037 1.385 . S
C2041 C2040 1.374 . S
C2042 C2039 1.499 . S
C2042 C2043 1.373 . S
C2042 C2044 1.389 . S
C2043 H2022 0.950 . S
C2043 C2042 1.373 . S
C2043 C2059 1.377 . S
C2044 C2042 1.389 . S
C2044 C2045 1.524 . S
C2044 C2058 1.377 . S
C2045 C2044 1.524 . S
C2045 C2046 1.397 . S
C2045 C2050 1.363 . S
C2046 H2023 0.950 . S
C2046 C2045 1.397 . S
C2046 C2047 1.334 . S
C2047 H2024 0.950 . S
C2047 C2046 1.334 . S
C2047 C2048 1.287 . S
C2048 C2047 1.287 . S
C2048 C2049 1.524 . S
C2048 H2067 0.913 . S
C2049 H2025 0.950 . S
C2049 C2048 1.524 . S
C2049 C2050 1.415 . S
C2050 H2026 0.950 . S
C2050 C2045 1.363 . S
C2050 C2049 1.415 . S
C2051 H2027 0.951 . S
C2051 C2052 1.366 . S
C2051 C2053 1.388 . S
C2052 C2051 1.366 . S
C2052 C2056 1.385 . S
C2053 H2028 0.951 . S
C2053 C2051 1.388 . S
C2053 C2054 1.366 . S
C2054 C2053 1.366 . S
C2054 C2055 1.414 . S
C2054 C2057 1.499 . S
C2055 H2029 0.950 . S
C2055 C2054 1.414 . S
C2055 C2056 1.374 . S
C2056 H2030 0.950 . S
C2056 C2052 1.385 . S
C2056 C2055 1.374 . S
C2057 C2054 1.499 . S
C2057 C2058 1.373 . S
C2057 C2059 1.389 . S
C2058 H2031 0.950 . S
C2058 C2044 1.377 . S
C2058 C2057 1.373 . S
C2059 C2043 1.377 . S
C2059 C2057 1.389 . S
C2059 C2060 1.524 . S
C2060 C2059 1.524 . S
C2060 C2061 1.397 . S
C2060 C2065 1.363 . S
C2061 H2032 0.950 . S
C2061 C2060 1.397 . S
C2061 C2062 1.334 . S
C2062 H2033 0.950 . S
C2062 C2061 1.334 . S
C2062 C2063 1.287 . S
C2063 C2062 1.287 . S
C2063 C2064 1.524 . S
C2063 H2066 0.999 . S
C2064 H2034 0.950 . S
C2064 C2063 1.524 . S
C2064 C2065 1.415 . S
C2065 H2035 0.950 . S
C2065 C2060 1.363 . S
C2065 C2064 1.415 . S
H2066 C2063 0.999 . S
H2067 C2048 0.913 . S
H2068 C2086 0.951 . S
H2069 C2088 0.951 . S
H2070 C2090 0.950 . S
H2071 C2091 0.950 . S
H2072 C2093 0.950 . S
H2073 C2096 0.950 . S
H2074 C2097 0.950 . S
H2075 C2099 0.950 . S
H2076 C2100 0.950 . S
H2077 C2101 0.951 . S
H2078 C2103 0.951 . S
H2079 C2105 0.950 . S
H2080 C2106 0.950 . S
H2081 C2108 0.950 . S
H2082 C2111 0.950 . S
H2083 C2112 0.950 . S
H2084 C2114 0.950 . S
H2085 C2115 0.950 . S
C2086 H2068 0.951 . S
C2086 C2087 1.366 . S
C2086 C2088 1.388 . S
C2087 C2086 1.366 . S
C2087 C2091 1.385 . S
C2088 H2069 0.951 . S
C2088 C2086 1.388 . S
C2088 C2089 1.366 . S
C2089 C2088 1.366 . S
C2089 C2090 1.414 . S
C2089 C2092 1.499 . S
C2090 H2070 0.950 . S
C2090 C2089 1.414 . S
C2090 C2091 1.374 . S
C2091 H2071 0.950 . S
C2091 C2087 1.385 . S
C2091 C2090 1.374 . S
C2092 C2089 1.499 . S
C2092 C2093 1.373 . S
C2092 C2094 1.389 . S
C2093 H2072 0.950 . S
C2093 C2092 1.373 . S
C2093 C2109 1.377 . S
C2094 C2092 1.389 . S
C2094 C2095 1.524 . S
C2094 C2108 1.377 . S
C2095 C2094 1.524 . S
C2095 C2096 1.397 . S
C2095 C2100 1.363 . S
C2096 H2073 0.950 . S
C2096 C2095 1.397 . S
C2096 C2097 1.334 . S
C2097 H2074 0.950 . S
C2097 C2096 1.334 . S
C2097 C2098 1.287 . S
C2098 C2097 1.287 . S
C2098 C2099 1.524 . S
C2098 H2117 0.913 . S
C2099 H2075 0.950 . S
C2099 C2098 1.524 . S
C2099 C2100 1.415 . S
C2100 H2076 0.950 . S
C2100 C2095 1.363 . S
C2100 C2099 1.415 . S
C2101 H2077 0.951 . S
C2101 C2102 1.366 . S
C2101 C2103 1.388 . S
C2102 C2101 1.366 . S
C2102 C2106 1.385 . S
C2103 H2078 0.951 . S
C2103 C2101 1.388 . S
C2103 C2104 1.366 . S
C2104 C2103 1.366 . S
C2104 C2105 1.414 . S
C2104 C2107 1.499 . S
C2105 H2079 0.950 . S
C2105 C2104 1.414 . S
C2105 C2106 1.374 . S
C2106 H2080 0.950 . S
C2106 C2102 1.385 . S
C2106 C2105 1.374 . S
C2107 C2104 1.499 . S
C2107 C2108 1.373 . S
C2107 C2109 1.389 . S
C2108 H2081 0.950 . S
C2108 C2094 1.377 . S
C2108 C2107 1.373 . S
C2109 C2093 1.377 . S
C2109 C2107 1.389 . S
C2109 C2110 1.524 . S
C2110 C2109 1.524 . S
C2110 C2111 1.397 . S
C2110 C2115 1.363 . S
C2111 H2082 0.950 . S
C2111 C2110 1.397 . S
C2111 C2112 1.334 . S
C2112 H2083 0.950 . S
C2112 C2111 1.334 . S
C2112 C2113 1.287 . S
C2113 C2112 1.287 . S
C2113 C2114 1.524 . S
C2113 H2116 0.999 . S
C2114 H2084 0.950 . S
C2114 C2113 1.524 . S
C2114 C2115 1.415 . S
C2115 H2085 0.950 . S
C2115 C2110 1.363 . S
C2115 C2114 1.415 . S
H2116 C2113 0.999 . S
H2117 C2098 0.913 . S
H2118 C2136 0.951 . S
H2119 C2138 0.951 . S
H2120 C2140 0.950 . S
H2121 C2141 0.950 . S
H2122 C2143 0.950 . S
H2123 C2146 0.950 . S
H2124 C2147 0.950 . S
H2125 C2149 0.950 . S
H2126 C2150 0.950 . S
H2127 C2151 0.951 . S
H2128 C2153 0.951 . S
H2129 C2155 0.950 . S
H2130 C2156 0.950 . S
H2131 C2158 0.950 . S
H2132 C2161 0.950 . S
H2133 C2162 0.950 . S
H2134 C2164 0.950 . S
H2135 C2165 0.950 . S
C2136 H2118 0.951 . S
C2136 C2137 1.366 . S
C2136 C2138 1.388 . S
C2137 C2136 1.366 . S
C2137 C2141 1.385 . S
C2138 H2119 0.951 . S
C2138 C2136 1.388 . S
C2138 C2139 1.366 . S
C2139 C2138 1.366 . S
C2139 C2140 1.414 . S
C2139 C2142 1.499 . S
C2140 H2120 0.950 . S
C2140 C2139 1.414 . S
C2140 C2141 1.374 . S
C2141 H2121 0.950 . S
C2141 C2137 1.385 . S
C2141 C2140 1.374 . S
C2142 C2139 1.499 . S
C2142 C2143 1.373 . S
C2142 C2144 1.389 . S
C2143 H2122 0.950 . S
C2143 C2142 1.373 . S
C2143 C2159 1.377 . S
C2144 C2142 1.389 . S
C2144 C2145 1.524 . S
C2144 C2158 1.377 . S
C2145 C2144 1.524 . S
C2145 C2146 1.397 . S
C2145 C2150 1.363 . S
C2146 H2123 0.950 . S
C2146 C2145 1.397 . S
C2146 C2147 1.334 . S
C2147 H2124 0.950 . S
C2147 C2146 1.334 . S
C2147 C2148 1.287 . S
C2148 C2147 1.287 . S
C2148 C2149 1.524 . S
C2148 H2167 0.913 . S
C2149 H2125 0.950 . S
C2149 C2148 1.524 . S
C2149 C2150 1.415 . S
C2150 H2126 0.950 . S
C2150 C2145 1.363 . S
C2150 C2149 1.415 . S
C2151 H2127 0.951 . S
C2151 C2152 1.366 . S
C2151 C2153 1.388 . S
C2152 C2151 1.366 . S
C2152 C2156 1.385 . S
C2153 H2128 0.951 . S
C2153 C2151 1.388 . S
C2153 C2154 1.366 . S
C2154 C2153 1.366 . S
C2154 C2155 1.414 . S
C2154 C2157 1.499 . S
C2155 H2129 0.950 . S
C2155 C2154 1.414 . S
C2155 C2156 1.374 . S
C2156 H2130 0.950 . S
C2156 C2152 1.385 . S
C2156 C2155 1.374 . S
C2157 C2154 1.499 . S
C2157 C2158 1.373 . S
C2157 C2159 1.389 . S
C2158 H2131 0.950 . S
C2158 C2144 1.377 . S
C2158 C2157 1.373 . S
C2159 C2143 1.377 . S
C2159 C2157 1.389 . S
C2159 C2160 1.524 . S
C2160 C2159 1.524 . S
C2160 C2161 1.397 . S
C2160 C2165 1.363 . S
C2161 H2132 0.950 . S
C2161 C2160 1.397 . S
C2161 C2162 1.334 . S
C2162 H2133 0.950 . S
C2162 C2161 1.334 . S
C2162 C2163 1.287 . S
C2163 C2162 1.287 . S
C2163 C2164 1.524 . S
C2163 H2166 0.999 . S
C2164 H2134 0.950 . S
C2164 C2163 1.524 . S
C2164 C2165 1.415 . S
C2165 H2135 0.950 . S
C2165 C2160 1.363 . S
C2165 C2164 1.415 . S
H2166 C2163 0.999 . S
H2167 C2148 0.913 . S
H2168 C2186 0.951 . S
H2169 C2188 0.951 . S
H2170 C2190 0.950 . S
H2171 C2191 0.950 . S
H2172 C2193 0.950 . S
H2173 C2196 0.950 . S
H2174 C2197 0.950 . S
H2175 C2199 0.950 . S
H2176 C2200 0.950 . S
H2177 C2201 0.951 . S
H2178 C2203 0.951 . S
H2179 C2205 0.950 . S
H2180 C2206 0.950 . S
H2181 C2208 0.950 . S
H2182 C2211 0.950 . S
H2183 C2212 0.950 . S
H2184 C2214 0.950 . S
H2185 C2215 0.950 . S
C2186 H2168 0.951 . S
C2186 C2187 1.366 . S
C2186 C2188 1.388 . S
C2187 C2186 1.366 . S
C2187 C2191 1.385 . S
C2188 H2169 0.951 . S
C2188 C2186 1.388 . S
C2188 C2189 1.366 . S
C2189 C2188 1.366 . S
C2189 C2190 1.414 . S
C2189 C2192 1.499 . S
C2190 H2170 0.950 . S
C2190 C2189 1.414 . S
C2190 C2191 1.374 . S
C2191 H2171 0.950 . S
C2191 C2187 1.385 . S
C2191 C2190 1.374 . S
C2192 C2189 1.499 . S
C2192 C2193 1.373 . S
C2192 C2194 1.389 . S
C2193 H2172 0.950 . S
C2193 C2192 1.373 . S
C2193 C2209 1.377 . S
C2194 C2192 1.389 . S
C2194 C2195 1.524 . S
C2194 C2208 1.377 . S
C2195 C2194 1.524 . S
C2195 C2196 1.397 . S
C2195 C2200 1.363 . S
C2196 H2173 0.950 . S
C2196 C2195 1.397 . S
C2196 C2197 1.334 . S
C2197 H2174 0.950 . S
C2197 C2196 1.334 . S
C2197 C2198 1.287 . S
C2198 C2197 1.287 . S
C2198 C2199 1.524 . S
C2198 H2217 0.913 . S
C2199 H2175 0.950 . S
C2199 C2198 1.524 . S
C2199 C2200 1.415 . S
C2200 H2176 0.950 . S
C2200 C2195 1.363 . S
C2200 C2199 1.415 . S
C2201 H2177 0.951 . S
C2201 C2202 1.366 . S
C2201 C2203 1.388 . S
C2202 C2201 1.366 . S
C2202 C2206 1.385 . S
C2203 H2178 0.951 . S
C2203 C2201 1.388 . S
C2203 C2204 1.366 . S
C2204 C2203 1.366 . S
C2204 C2205 1.414 . S
C2204 C2207 1.499 . S
C2205 H2179 0.950 . S
C2205 C2204 1.414 . S
C2205 C2206 1.374 . S
C2206 H2180 0.950 . S
C2206 C2202 1.385 . S
C2206 C2205 1.374 . S
C2207 C2204 1.499 . S
C2207 C2208 1.373 . S
C2207 C2209 1.389 . S
C2208 H2181 0.950 . S
C2208 C2194 1.377 . S
C2208 C2207 1.373 . S
C2209 C2193 1.377 . S
C2209 C2207 1.389 . S
C2209 C2210 1.524 . S
C2210 C2209 1.524 . S
C2210 C2211 1.397 . S
C2210 C2215 1.363 . S
C2211 H2182 0.950 . S
C2211 C2210 1.397 . S
C2211 C2212 1.334 . S
C2212 H2183 0.950 . S
C2212 C2211 1.334 . S
C2212 C2213 1.287 . S
C2213 C2212 1.287 . S
C2213 C2214 1.524 . S
C2213 H2216 0.999 . S
C2214 H2184 0.950 . S
C2214 C2213 1.524 . S
C2214 C2215 1.415 . S
C2215 H2185 0.950 . S
C2215 C2210 1.363 . S
C2215 C2214 1.415 . S
H2216 C2213 0.999 . S
H2217 C2198 0.913 . S
H2218 C2236 0.951 . S
H2219 C2238 0.951 . S
H2220 C2240 0.950 . S
H2221 C2241 0.950 . S
H2222 C2243 0.950 . S
H2223 C2246 0.950 . S
H2224 C2247 0.950 . S
H2225 C2249 0.950 . S
H2226 C2250 0.950 . S
H2227 C2251 0.951 . S
H2228 C2253 0.951 . S
H2229 C2255 0.950 . S
H2230 C2256 0.950 . S
H2231 C2258 0.950 . S
H2232 C2261 0.950 . S
H2233 C2262 0.950 . S
H2234 C2264 0.950 . S
H2235 C2265 0.950 . S
C2236 H2218 0.951 . S
C2236 C2237 1.366 . S
C2236 C2238 1.388 . S
C2237 C2236 1.366 . S
C2237 C2241 1.385 . S
C2238 H2219 0.951 . S
C2238 C2236 1.388 . S
C2238 C2239 1.366 . S
C2239 C2238 1.366 . S
C2239 C2240 1.414 . S
C2239 C2242 1.499 . S
C2240 H2220 0.950 . S
C2240 C2239 1.414 . S
C2240 C2241 1.374 . S
C2241 H2221 0.950 . S
C2241 C2237 1.385 . S
C2241 C2240 1.374 . S
C2242 C2239 1.499 . S
C2242 C2243 1.373 . S
C2242 C2244 1.389 . S
C2243 H2222 0.950 . S
C2243 C2242 1.373 . S
C2243 C2259 1.377 . S
C2244 C2242 1.389 . S
C2244 C2245 1.524 . S
C2244 C2258 1.377 . S
C2245 C2244 1.524 . S
C2245 C2246 1.397 . S
C2245 C2250 1.363 . S
C2246 H2223 0.950 . S
C2246 C2245 1.397 . S
C2246 C2247 1.334 . S
C2247 H2224 0.950 . S
C2247 C2246 1.334 . S
C2247 C2248 1.287 . S
C2248 C2247 1.287 . S
C2248 C2249 1.524 . S
C2248 H2267 0.913 . S
C2249 H2225 0.950 . S
C2249 C2248 1.524 . S
C2249 C2250 1.415 . S
C2250 H2226 0.950 . S
C2250 C2245 1.363 . S
C2250 C2249 1.415 . S
C2251 H2227 0.951 . S
C2251 C2252 1.366 . S
C2251 C2253 1.388 . S
C2252 C2251 1.366 . S
C2252 C2256 1.385 . S
C2253 H2228 0.951 . S
C2253 C2251 1.388 . S
C2253 C2254 1.366 . S
C2254 C2253 1.366 . S
C2254 C2255 1.414 . S
C2254 C2257 1.499 . S
C2255 H2229 0.950 . S
C2255 C2254 1.414 . S
C2255 C2256 1.374 . S
C2256 H2230 0.950 . S
C2256 C2252 1.385 . S
C2256 C2255 1.374 . S
C2257 C2254 1.499 . S
C2257 C2258 1.373 . S
C2257 C2259 1.389 . S
C2258 H2231 0.950 . S
C2258 C2244 1.377 . S
C2258 C2257 1.373 . S
C2259 C2243 1.377 . S
C2259 C2257 1.389 . S
C2259 C2260 1.524 . S
C2260 C2259 1.524 . S
C2260 C2261 1.397 . S
C2260 C2265 1.363 . S
C2261 H2232 0.950 . S
C2261 C2260 1.397 . S
C2261 C2262 1.334 . S
C2262 H2233 0.950 . S
C2262 C2261 1.334 . S
C2262 C2263 1.287 . S
C2263 C2262 1.287 . S
C2263 C2264 1.524 . S
C2263 H2266 0.999 . S
C2264 H2234 0.950 . S
C2264 C2263 1.524 . S
C2264 C2265 1.415 . S
C2265 H2235 0.950 . S
C2265 C2260 1.363 . S
C2265 C2264 1.415 . S
H2266 C2263 0.999 . S
H2267 C2248 0.913 . S
H2268 C2286 0.951 . S
H2269 C2288 0.951 . S
H2270 C2290 0.950 . S
H2271 C2291 0.950 . S
H2272 C2293 0.950 . S
H2273 C2296 0.950 . S
H2274 C2297 0.950 . S
H2275 C2299 0.950 1_556 S
H2276 C2300 0.950 . S
H2277 C2301 0.951 . S
H2278 C2303 0.951 . S
H2279 C2305 0.950 . S
H2280 C2306 0.950 . S
H2281 C2308 0.950 . S
H2282 C2311 0.950 . S
H2283 C2312 0.950 . S
H2284 C2314 0.950 . S
H2285 C2315 0.950 . S
C2286 H2268 0.951 . S
C2286 C2287 1.366 . S
C2286 C2288 1.388 . S
C2287 C2286 1.366 . S
C2287 C2291 1.385 . S
C2288 H2269 0.951 . S
C2288 C2286 1.388 . S
C2288 C2289 1.366 . S
C2289 C2288 1.366 . S
C2289 C2290 1.414 . S
C2289 C2292 1.499 . S
C2290 H2270 0.950 . S
C2290 C2289 1.414 . S
C2290 C2291 1.374 . S
C2291 H2271 0.950 . S
C2291 C2287 1.385 . S
C2291 C2290 1.374 . S
C2292 C2289 1.499 . S
C2292 C2293 1.373 . S
C2292 C2294 1.389 . S
C2293 H2272 0.950 . S
C2293 C2292 1.373 . S
C2293 C2309 1.377 . S
C2294 C2292 1.389 . S
C2294 C2295 1.524 . S
C2294 C2308 1.377 . S
C2295 C2294 1.524 . S
C2295 C2296 1.397 . S
C2295 C2300 1.363 . S
C2296 H2273 0.950 . S
C2296 C2295 1.397 . S
C2296 C2297 1.334 . S
C2297 H2274 0.950 . S
C2297 C2296 1.334 . S
C2297 C2298 1.287 . S
C2298 C2297 1.287 . S
C2298 C2299 1.524 . S
C2298 H2317 0.913 1_554 S
C2299 H2275 0.950 1_554 S
C2299 C2298 1.524 . S
C2299 C2300 1.415 . S
C2300 H2276 0.950 . S
C2300 C2295 1.363 . S
C2300 C2299 1.415 . S
C2301 H2277 0.951 . S
C2301 C2302 1.366 . S
C2301 C2303 1.388 . S
C2302 C2301 1.366 . S
C2302 C2306 1.385 . S
C2303 H2278 0.951 . S
C2303 C2301 1.388 . S
C2303 C2304 1.366 . S
C2304 C2303 1.366 . S
C2304 C2305 1.414 . S
C2304 C2307 1.499 . S
C2305 H2279 0.950 . S
C2305 C2304 1.414 . S
C2305 C2306 1.374 . S
C2306 H2280 0.950 . S
C2306 C2302 1.385 . S
C2306 C2305 1.374 . S
C2307 C2304 1.499 . S
C2307 C2308 1.373 . S
C2307 C2309 1.389 . S
C2308 H2281 0.950 . S
C2308 C2294 1.377 . S
C2308 C2307 1.373 . S
C2309 C2293 1.377 . S
C2309 C2307 1.389 . S
C2309 C2310 1.524 . S
C2310 C2309 1.524 . S
C2310 C2311 1.397 . S
C2310 C2315 1.363 . S
C2311 H2282 0.950 . S
C2311 C2310 1.397 . S
C2311 C2312 1.334 . S
C2312 H2283 0.950 . S
C2312 C2311 1.334 . S
C2312 C2313 1.287 . S
C2313 C2312 1.287 . S
C2313 C2314 1.524 . S
C2313 H2316 0.999 . S
C2314 H2284 0.950 . S
C2314 C2313 1.524 . S
C2314 C2315 1.415 . S
C2315 H2285 0.950 . S
C2315 C2310 1.363 . S
C2315 C2314 1.415 . S
H2316 C2313 0.999 . S
H2317 C2298 0.913 1_556 S
H2318 C2336 0.951 . S
H2319 C2338 0.951 . S
H2320 C2340 0.950 . S
H2321 C2341 0.950 . S
H2322 C2343 0.950 . S
H2323 C2346 0.950 . S
H2324 C2347 0.950 . S
H2325 C2349 0.950 . S
H2326 C2350 0.950 . S
H2327 C2351 0.951 . S
H2328 C2353 0.951 . S
H2329 C2355 0.950 . S
H2330 C2356 0.950 . S
H2331 C2358 0.950 . S
H2332 C2361 0.950 . S
H2333 C2362 0.950 . S
H2334 C2364 0.950 . S
H2335 C2365 0.950 . S
C2336 H2318 0.951 . S
C2336 C2337 1.366 . S
C2336 C2338 1.388 . S
C2337 C2336 1.366 . S
C2337 C2341 1.385 . S
C2338 H2319 0.951 . S
C2338 C2336 1.388 . S
C2338 C2339 1.366 . S
C2339 C2338 1.366 . S
C2339 C2340 1.414 . S
C2339 C2342 1.499 . S
C2340 H2320 0.950 . S
C2340 C2339 1.414 . S
C2340 C2341 1.374 . S
C2341 H2321 0.950 . S
C2341 C2337 1.385 . S
C2341 C2340 1.374 . S
C2342 C2339 1.499 . S
C2342 C2343 1.373 . S
C2342 C2344 1.389 . S
C2343 H2322 0.950 . S
C2343 C2342 1.373 . S
C2343 C2359 1.377 . S
C2344 C2342 1.389 . S
C2344 C2345 1.524 . S
C2344 C2358 1.377 . S
C2345 C2344 1.524 . S
C2345 C2346 1.397 . S
C2345 C2350 1.363 . S
C2346 H2323 0.950 . S
C2346 C2345 1.397 . S
C2346 C2347 1.334 . S
C2347 H2324 0.950 . S
C2347 C2346 1.334 . S
C2347 C2348 1.287 . S
C2348 C2347 1.287 . S
C2348 C2349 1.524 . S
C2348 H2367 0.913 . S
C2349 H2325 0.950 . S
C2349 C2348 1.524 . S
C2349 C2350 1.415 . S
C2350 H2326 0.950 . S
C2350 C2345 1.363 . S
C2350 C2349 1.415 . S
C2351 H2327 0.951 . S
C2351 C2352 1.366 . S
C2351 C2353 1.388 . S
C2352 C2351 1.366 . S
C2352 C2356 1.385 . S
C2353 H2328 0.951 . S
C2353 C2351 1.388 . S
C2353 C2354 1.366 . S
C2354 C2353 1.366 . S
C2354 C2355 1.414 . S
C2354 C2357 1.499 . S
C2355 H2329 0.950 . S
C2355 C2354 1.414 . S
C2355 C2356 1.374 . S
C2356 H2330 0.950 . S
C2356 C2352 1.385 . S
C2356 C2355 1.374 . S
C2357 C2354 1.499 . S
C2357 C2358 1.373 . S
C2357 C2359 1.389 . S
C2358 H2331 0.950 . S
C2358 C2344 1.377 . S
C2358 C2357 1.373 . S
C2359 C2343 1.377 . S
C2359 C2357 1.389 . S
C2359 C2360 1.524 . S
C2360 C2359 1.524 . S
C2360 C2361 1.397 . S
C2360 C2365 1.363 . S
C2361 H2332 0.950 . S
C2361 C2360 1.397 . S
C2361 C2362 1.334 . S
C2362 H2333 0.950 . S
C2362 C2361 1.334 . S
C2362 C2363 1.287 . S
C2363 C2362 1.287 . S
C2363 C2364 1.524 . S
C2363 H2366 0.999 . S
C2364 H2334 0.950 . S
C2364 C2363 1.524 . S
C2364 C2365 1.415 . S
C2365 H2335 0.950 . S
C2365 C2360 1.363 . S
C2365 C2364 1.415 . S
H2366 C2363 0.999 . S
H2367 C2348 0.913 . S
H2368 C2386 0.951 . S
H2369 C2388 0.951 . S
H2370 C2390 0.950 . S
H2371 C2391 0.950 . S
H2372 C2393 0.950 . S
H2373 C2396 0.950 . S
H2374 C2397 0.961 . S
H2375 C2399 0.950 . S
H2376 C2400 0.950 . S
H2377 C2401 0.951 . S
H2378 C2403 0.951 . S
H2379 C2405 0.950 . S
H2380 C2406 0.950 . S
H2381 C2408 0.950 . S
H2382 C2411 0.950 . S
H2383 C2412 0.950 . S
H2384 C2414 0.950 . S
H2385 C2415 0.950 . S
C2386 H2368 0.951 . S
C2386 C2387 1.366 . S
C2386 C2388 1.388 . S
C2387 C2386 1.366 . S
C2387 C2391 1.385 . S
C2388 H2369 0.951 . S
C2388 C2386 1.388 . S
C2388 C2389 1.366 . S
C2389 C2388 1.366 . S
C2389 C2390 1.414 . S
C2389 C2392 1.499 . S
C2390 H2370 0.950 . S
C2390 C2389 1.414 . S
C2390 C2391 1.374 . S
C2391 H2371 0.950 . S
C2391 C2387 1.385 . S
C2391 C2390 1.374 . S
C2392 C2389 1.499 . S
C2392 C2393 1.373 . S
C2392 C2394 1.389 . S
C2393 H2372 0.950 . S
C2393 C2392 1.373 . S
C2393 C2409 1.377 . S
C2394 C2392 1.389 . S
C2394 C2395 1.524 . S
C2394 C2408 1.377 . S
C2395 C2394 1.524 . S
C2395 C2396 1.397 . S
C2395 C2400 1.363 . S
C2396 H2373 0.950 . S
C2396 C2395 1.397 . S
C2396 C2397 1.334 . S
C2397 H2374 0.961 . S
C2397 C2396 1.334 . S
C2397 C2398 1.287 1_554 S
C2398 C2397 1.287 1_556 S
C2398 C2399 1.524 1_556 S
C2398 H2417 0.913 . S
C2399 H2375 0.950 . S
C2399 C2398 1.524 1_554 S
C2399 C2400 1.415 . S
C2400 H2376 0.950 . S
C2400 C2395 1.363 . S
C2400 C2399 1.415 . S
C2401 H2377 0.951 . S
C2401 C2402 1.366 . S
C2401 C2403 1.388 . S
C2402 C2401 1.366 . S
C2402 C2406 1.385 . S
C2403 H2378 0.951 . S
C2403 C2401 1.388 . S
C2403 C2404 1.366 . S
C2404 C2403 1.366 . S
C2404 C2405 1.414 . S
C2404 C2407 1.499 . S
C2405 H2379 0.950 . S
C2405 C2404 1.414 . S
C2405 C2406 1.374 . S
C2406 H2380 0.950 . S
C2406 C2402 1.385 . S
C2406 C2405 1.374 . S
C2407 C2404 1.499 . S
C2407 C2408 1.373 . S
C2407 C2409 1.389 . S
C2408 H2381 0.950 . S
C2408 C2394 1.377 . S
C2408 C2407 1.373 . S
C2409 C2393 1.377 . S
C2409 C2407 1.389 . S
C2409 C2410 1.524 . S
C2410 C2409 1.524 . S
C2410 C2411 1.397 . S
C2410 C2415 1.363 . S
C2411 H2382 0.950 . S
C2411 C2410 1.397 . S
C2411 C2412 1.334 . S
C2412 H2383 0.950 . S
C2412 C2411 1.334 . S
C2412 C2413 1.287 . S
C2413 C2412 1.287 . S
C2413 C2414 1.524 . S
C2413 H2416 0.999 . S
C2414 H2384 0.950 . S
C2414 C2413 1.524 . S
C2414 C2415 1.415 . S
C2415 H2385 0.950 . S
C2415 C2410 1.363 . S
C2415 C2414 1.415 . S
H2416 C2413 0.999 . S
H2417 C2398 0.913 . S
H2418 C2436 0.951 . S
H2419 C2438 0.951 . S
H2420 C2440 0.950 . S
H2421 C2441 0.950 . S
H2422 C2443 0.950 . S
H2423 C2446 0.950 . S
H2424 C2447 0.950 . S
H2425 C2449 0.950 . S
H2426 C2450 0.950 . S
H2427 C2451 0.951 . S
H2428 C2453 0.951 . S
H2429 C2455 0.950 . S
H2430 C2456 0.950 . S
H2431 C2458 0.950 . S
H2432 C2461 0.950 . S
H2433 C2462 0.950 . S
H2434 C2464 0.950 . S
H2435 C2465 0.950 . S
C2436 H2418 0.951 . S
C2436 C2437 1.366 . S
C2436 C2438 1.388 . S
C2437 C2436 1.366 . S
C2437 C2441 1.385 . S
C2438 H2419 0.951 . S
C2438 C2436 1.388 . S
C2438 C2439 1.366 . S
C2439 C2438 1.366 . S
C2439 C2440 1.414 . S
C2439 C2442 1.499 . S
C2440 H2420 0.950 . S
C2440 C2439 1.414 . S
C2440 C2441 1.374 . S
C2441 H2421 0.950 . S
C2441 C2437 1.385 . S
C2441 C2440 1.374 . S
C2442 C2439 1.499 . S
C2442 C2443 1.373 . S
C2442 C2444 1.389 . S
C2443 H2422 0.950 . S
C2443 C2442 1.373 . S
C2443 C2459 1.377 . S
C2444 C2442 1.389 . S
C2444 C2445 1.524 . S
C2444 C2458 1.377 . S
C2445 C2444 1.524 . S
C2445 C2446 1.397 . S
C2445 C2450 1.363 . S
C2446 H2423 0.950 . S
C2446 C2445 1.397 . S
C2446 C2447 1.334 . S
C2447 H2424 0.950 . S
C2447 C2446 1.334 . S
C2447 C2448 1.287 . S
C2448 C2447 1.287 . S
C2448 C2449 1.524 . S
C2448 H2467 0.913 . S
C2449 H2425 0.950 . S
C2449 C2448 1.524 . S
C2449 C2450 1.415 . S
C2450 H2426 0.950 . S
C2450 C2445 1.363 . S
C2450 C2449 1.415 . S
C2451 H2427 0.951 . S
C2451 C2452 1.366 . S
C2451 C2453 1.388 . S
C2452 C2451 1.366 . S
C2452 C2456 1.385 . S
C2453 H2428 0.951 . S
C2453 C2451 1.388 . S
C2453 C2454 1.366 . S
C2454 C2453 1.366 . S
C2454 C2455 1.414 . S
C2454 C2457 1.499 . S
C2455 H2429 0.950 . S
C2455 C2454 1.414 . S
C2455 C2456 1.374 . S
C2456 H2430 0.950 . S
C2456 C2452 1.385 . S
C2456 C2455 1.374 . S
C2457 C2454 1.499 . S
C2457 C2458 1.373 . S
C2457 C2459 1.389 . S
C2458 H2431 0.950 . S
C2458 C2444 1.377 . S
C2458 C2457 1.373 . S
C2459 C2443 1.377 . S
C2459 C2457 1.389 . S
C2459 C2460 1.524 . S
C2460 C2459 1.524 . S
C2460 C2461 1.397 . S
C2460 C2465 1.363 . S
C2461 H2432 0.950 . S
C2461 C2460 1.397 . S
C2461 C2462 1.334 . S
C2462 H2433 0.950 . S
C2462 C2461 1.334 . S
C2462 C2463 1.287 . S
C2463 C2462 1.287 . S
C2463 C2464 1.524 . S
C2463 H2466 0.999 . S
C2464 H2434 0.950 . S
C2464 C2463 1.524 . S
C2464 C2465 1.415 . S
C2465 H2435 0.950 . S
C2465 C2460 1.363 . S
C2465 C2464 1.415 . S
H2466 C2463 0.999 . S
H2467 C2448 0.913 . S
H2468 C2486 0.951 . S
H2469 C2488 0.951 . S
H2470 C2490 0.950 . S
H2471 C2491 0.950 . S
H2472 C2493 0.950 . S
H2473 C2496 0.950 . S
H2474 C2497 0.950 . S
H2475 C2499 0.950 . S
H2476 C2500 0.950 . S
H2477 C2501 0.951 . S
H2478 C2503 0.951 . S
H2479 C2505 0.950 . S
H2480 C2506 0.950 . S
H2481 C2508 0.950 . S
H2482 C2511 0.950 . S
H2483 C2512 0.950 . S
H2484 C2514 0.950 . S
H2485 C2515 0.950 . S
C2486 H2468 0.951 . S
C2486 C2487 1.366 . S
C2486 C2488 1.388 . S
C2487 C2486 1.366 . S
C2487 C2491 1.385 . S
C2488 H2469 0.951 . S
C2488 C2486 1.388 . S
C2488 C2489 1.366 . S
C2489 C2488 1.366 . S
C2489 C2490 1.414 . S
C2489 C2492 1.499 . S
C2490 H2470 0.950 . S
C2490 C2489 1.414 . S
C2490 C2491 1.374 . S
C2491 H2471 0.950 . S
C2491 C2487 1.385 . S
C2491 C2490 1.374 . S
C2492 C2489 1.499 . S
C2492 C2493 1.373 . S
C2492 C2494 1.389 . S
C2493 H2472 0.950 . S
C2493 C2492 1.373 . S
C2493 C2509 1.377 . S
C2494 C2492 1.389 . S
C2494 C2495 1.524 . S
C2494 C2508 1.377 . S
C2495 C2494 1.524 . S
C2495 C2496 1.397 . S
C2495 C2500 1.363 . S
C2496 H2473 0.950 . S
C2496 C2495 1.397 . S
C2496 C2497 1.334 . S
C2497 H2474 0.950 . S
C2497 C2496 1.334 . S
C2497 C2498 1.287 . S
C2498 C2497 1.287 . S
C2498 C2499 1.524 . S
C2498 H2517 0.913 . S
C2499 H2475 0.950 . S
C2499 C2498 1.524 . S
C2499 C2500 1.415 . S
C2500 H2476 0.950 . S
C2500 C2495 1.363 . S
C2500 C2499 1.415 . S
C2501 H2477 0.951 . S
C2501 C2502 1.366 . S
C2501 C2503 1.388 . S
C2502 C2501 1.366 . S
C2502 C2506 1.385 . S
C2503 H2478 0.951 . S
C2503 C2501 1.388 . S
C2503 C2504 1.366 . S
C2504 C2503 1.366 . S
C2504 C2505 1.414 . S
C2504 C2507 1.499 . S
C2505 H2479 0.950 . S
C2505 C2504 1.414 . S
C2505 C2506 1.374 . S
C2506 H2480 0.950 . S
C2506 C2502 1.385 . S
C2506 C2505 1.374 . S
C2507 C2504 1.499 . S
C2507 C2508 1.373 . S
C2507 C2509 1.389 . S
C2508 H2481 0.950 . S
C2508 C2494 1.377 . S
C2508 C2507 1.373 . S
C2509 C2493 1.377 . S
C2509 C2507 1.389 . S
C2509 C2510 1.524 . S
C2510 C2509 1.524 . S
C2510 C2511 1.397 . S
C2510 C2515 1.363 . S
C2511 H2482 0.950 . S
C2511 C2510 1.397 . S
C2511 C2512 1.334 . S
C2512 H2483 0.950 . S
C2512 C2511 1.334 . S
C2512 C2513 1.287 . S
C2513 C2512 1.287 . S
C2513 C2514 1.524 . S
C2513 H2516 0.999 . S
C2514 H2484 0.950 . S
C2514 C2513 1.524 . S
C2514 C2515 1.415 . S
C2515 H2485 0.950 . S
C2515 C2510 1.363 . S
C2515 C2514 1.415 . S
H2516 C2513 0.999 . S
H2517 C2498 0.913 . S
H2518 C2536 0.951 . S
H2519 C2538 0.951 . S
H2520 C2540 0.950 . S
H2521 C2541 0.950 . S
H2522 C2543 0.950 . S
H2523 C2546 0.950 . S
H2524 C2547 0.950 . S
H2525 C2549 0.950 . S
H2526 C2550 0.950 . S
H2527 C2551 0.951 . S
H2528 C2553 0.951 . S
H2529 C2555 0.950 . S
H2530 C2556 0.950 . S
H2531 C2558 0.950 . S
H2532 C2561 0.950 . S
H2533 C2562 0.950 . S
H2534 C2564 0.950 . S
H2535 C2565 0.950 . S
C2536 H2518 0.951 . S
C2536 C2537 1.366 . S
C2536 C2538 1.388 . S
C2537 C2536 1.366 . S
C2537 C2541 1.385 . S
C2538 H2519 0.951 . S
C2538 C2536 1.388 . S
C2538 C2539 1.366 . S
C2539 C2538 1.366 . S
C2539 C2540 1.414 . S
C2539 C2542 1.499 . S
C2540 H2520 0.950 . S
C2540 C2539 1.414 . S
C2540 C2541 1.374 . S
C2541 H2521 0.950 . S
C2541 C2537 1.385 . S
C2541 C2540 1.374 . S
C2542 C2539 1.499 . S
C2542 C2543 1.373 . S
C2542 C2544 1.389 . S
C2543 H2522 0.950 . S
C2543 C2542 1.373 . S
C2543 C2559 1.377 . S
C2544 C2542 1.389 . S
C2544 C2545 1.524 . S
C2544 C2558 1.377 . S
C2545 C2544 1.524 . S
C2545 C2546 1.397 . S
C2545 C2550 1.363 . S
C2546 H2523 0.950 . S
C2546 C2545 1.397 . S
C2546 C2547 1.334 . S
C2547 H2524 0.950 . S
C2547 C2546 1.334 . S
C2547 C2548 1.287 . S
C2548 C2547 1.287 . S
C2548 C2549 1.524 . S
C2548 H2567 0.913 . S
C2549 H2525 0.950 . S
C2549 C2548 1.524 . S
C2549 C2550 1.415 . S
C2550 H2526 0.950 . S
C2550 C2545 1.363 . S
C2550 C2549 1.415 . S
C2551 H2527 0.951 . S
C2551 C2552 1.366 . S
C2551 C2553 1.388 . S
C2552 C2551 1.366 . S
C2552 C2556 1.385 . S
C2553 H2528 0.951 . S
C2553 C2551 1.388 . S
C2553 C2554 1.366 . S
C2554 C2553 1.366 . S
C2554 C2555 1.414 . S
C2554 C2557 1.499 . S
C2555 H2529 0.950 . S
C2555 C2554 1.414 . S
C2555 C2556 1.374 . S
C2556 H2530 0.950 . S
C2556 C2552 1.385 . S
C2556 C2555 1.374 . S
C2557 C2554 1.499 . S
C2557 C2558 1.373 . S
C2557 C2559 1.389 . S
C2558 H2531 0.950 . S
C2558 C2544 1.377 . S
C2558 C2557 1.373 . S
C2559 C2543 1.377 . S
C2559 C2557 1.389 . S
C2559 C2560 1.524 . S
C2560 C2559 1.524 . S
C2560 C2561 1.397 . S
C2560 C2565 1.363 . S
C2561 H2532 0.950 . S
C2561 C2560 1.397 . S
C2561 C2562 1.334 . S
C2562 H2533 0.950 . S
C2562 C2561 1.334 . S
C2562 C2563 1.287 . S
C2563 C2562 1.287 . S
C2563 C2564 1.524 . S
C2563 H2566 0.999 . S
C2564 H2534 0.950 . S
C2564 C2563 1.524 . S
C2564 C2565 1.415 . S
C2565 H2535 0.950 . S
C2565 C2560 1.363 . S
C2565 C2564 1.415 . S
H2566 C2563 0.999 . S
H2567 C2548 0.913 . S
H2568 C2586 0.951 . S
H2569 C2588 0.951 . S
H2570 C2590 0.950 . S
H2571 C2591 0.950 . S
H2572 C2593 0.950 . S
H2573 C2596 0.950 . S
H2574 C2597 0.950 . S
H2575 C2599 0.950 . S
H2576 C2600 0.950 . S
H2577 C2601 0.951 . S
H2578 C2603 0.951 . S
H2579 C2605 0.950 . S
H2580 C2606 0.950 . S
H2581 C2608 0.950 . S
H2582 C2611 0.950 . S
H2583 C2612 0.950 . S
H2584 C2614 0.950 . S
H2585 C2615 0.950 . S
C2586 H2568 0.951 . S
C2586 C2587 1.366 . S
C2586 C2588 1.388 . S
C2587 C2586 1.366 . S
C2587 C2591 1.385 . S
C2588 H2569 0.951 . S
C2588 C2586 1.388 . S
C2588 C2589 1.366 . S
C2589 C2588 1.366 . S
C2589 C2590 1.414 . S
C2589 C2592 1.499 . S
C2590 H2570 0.950 . S
C2590 C2589 1.414 . S
C2590 C2591 1.374 . S
C2591 H2571 0.950 . S
C2591 C2587 1.385 . S
C2591 C2590 1.374 . S
C2592 C2589 1.499 . S
C2592 C2593 1.373 . S
C2592 C2594 1.389 . S
C2593 H2572 0.950 . S
C2593 C2592 1.373 . S
C2593 C2609 1.377 . S
C2594 C2592 1.389 . S
C2594 C2595 1.524 . S
C2594 C2608 1.377 . S
C2595 C2594 1.524 . S
C2595 C2596 1.397 . S
C2595 C2600 1.363 . S
C2596 H2573 0.950 . S
C2596 C2595 1.397 . S
C2596 C2597 1.334 . S
C2597 H2574 0.950 . S
C2597 C2596 1.334 . S
C2597 C2598 1.287 . S
C2598 C2597 1.287 . S
C2598 C2599 1.524 . S
C2598 H2617 0.913 . S
C2599 H2575 0.950 . S
C2599 C2598 1.524 . S
C2599 C2600 1.415 . S
C2600 H2576 0.950 . S
C2600 C2595 1.363 . S
C2600 C2599 1.415 . S
C2601 H2577 0.951 . S
C2601 C2602 1.366 . S
C2601 C2603 1.388 . S
C2602 C2601 1.366 . S
C2602 C2606 1.385 . S
C2603 H2578 0.951 . S
C2603 C2601 1.388 . S
C2603 C2604 1.366 . S
C2604 C2603 1.366 . S
C2604 C2605 1.414 . S
C2604 C2607 1.499 . S
C2605 H2579 0.950 . S
C2605 C2604 1.414 . S
C2605 C2606 1.374 . S
C2606 H2580 0.950 . S
C2606 C2602 1.385 . S
C2606 C2605 1.374 . S
C2607 C2604 1.499 . S
C2607 C2608 1.373 . S
C2607 C2609 1.389 . S
C2608 H2581 0.950 . S
C2608 C2594 1.377 . S
C2608 C2607 1.373 . S
C2609 C2593 1.377 . S
C2609 C2607 1.389 . S
C2609 C2610 1.524 . S
C2610 C2609 1.524 . S
C2610 C2611 1.397 . S
C2610 C2615 1.363 . S
C2611 H2582 0.950 . S
C2611 C2610 1.397 . S
C2611 C2612 1.334 . S
C2612 H2583 0.950 . S
C2612 C2611 1.334 . S
C2612 C2613 1.287 . S
C2613 C2612 1.287 . S
C2613 C2614 1.524 . S
C2613 H2616 0.999 . S
C2614 H2584 0.950 . S
C2614 C2613 1.524 . S
C2614 C2615 1.415 . S
C2615 H2585 0.950 . S
C2615 C2610 1.363 . S
C2615 C2614 1.415 . S
H2616 C2613 0.999 . S
H2617 C2598 0.913 . S
H2618 C2636 0.951 . S
H2619 C2638 0.951 . S
H2620 C2640 0.950 . S
H2621 C2641 0.950 . S
H2622 C2643 0.950 . S
H2623 C2646 0.950 . S
H2624 C2647 0.950 . S
H2625 C2649 0.950 . S
H2626 C2650 0.950 . S
H2627 C2651 0.951 . S
H2628 C2653 0.951 . S
H2629 C2655 0.950 . S
H2630 C2656 0.950 . S
H2631 C2658 0.950 . S
H2632 C2661 0.950 . S
H2633 C2662 0.950 . S
H2634 C2664 0.950 1_554 S
H2635 C2665 0.950 . S
C2636 H2618 0.951 . S
C2636 C2637 1.366 . S
C2636 C2638 1.388 . S
C2637 C2636 1.366 . S
C2637 C2641 1.385 . S
C2638 H2619 0.951 . S
C2638 C2636 1.388 . S
C2638 C2639 1.366 . S
C2639 C2638 1.366 . S
C2639 C2640 1.414 . S
C2639 C2642 1.499 . S
C2640 H2620 0.950 . S
C2640 C2639 1.414 . S
C2640 C2641 1.374 . S
C2641 H2621 0.950 . S
C2641 C2637 1.385 . S
C2641 C2640 1.374 . S
C2642 C2639 1.499 . S
C2642 C2643 1.373 . S
C2642 C2644 1.389 . S
C2643 H2622 0.950 . S
C2643 C2642 1.373 . S
C2643 C2659 1.377 . S
C2644 C2642 1.389 . S
C2644 C2645 1.524 . S
C2644 C2658 1.377 . S
C2645 C2644 1.524 . S
C2645 C2646 1.397 . S
C2645 C2650 1.363 . S
C2646 H2623 0.950 . S
C2646 C2645 1.397 . S
C2646 C2647 1.334 . S
C2647 H2624 0.950 . S
C2647 C2646 1.334 . S
C2647 C2648 1.287 . S
C2648 C2647 1.287 . S
C2648 C2649 1.524 . S
C2648 H2667 0.913 . S
C2649 H2625 0.950 . S
C2649 C2648 1.524 . S
C2649 C2650 1.415 . S
C2650 H2626 0.950 . S
C2650 C2645 1.363 . S
C2650 C2649 1.415 . S
C2651 H2627 0.951 . S
C2651 C2652 1.366 . S
C2651 C2653 1.388 . S
C2652 C2651 1.366 . S
C2652 C2656 1.385 . S
C2653 H2628 0.951 . S
C2653 C2651 1.388 . S
C2653 C2654 1.366 . S
C2654 C2653 1.366 . S
C2654 C2655 1.414 . S
C2654 C2657 1.499 . S
C2655 H2629 0.950 . S
C2655 C2654 1.414 . S
C2655 C2656 1.374 . S
C2656 H2630 0.950 . S
C2656 C2652 1.385 . S
C2656 C2655 1.374 . S
C2657 C2654 1.499 . S
C2657 C2658 1.373 . S
C2657 C2659 1.389 . S
C2658 H2631 0.950 . S
C2658 C2644 1.377 . S
C2658 C2657 1.373 . S
C2659 C2643 1.377 . S
C2659 C2657 1.389 . S
C2659 C2660 1.524 . S
C2660 C2659 1.524 . S
C2660 C2661 1.397 . S
C2660 C2665 1.363 . S
C2661 H2632 0.950 . S
C2661 C2660 1.397 . S
C2661 C2662 1.334 . S
C2662 H2633 0.950 . S
C2662 C2661 1.334 . S
C2662 C2663 1.287 1_556 S
C2663 C2662 1.287 1_554 S
C2663 C2664 1.524 1_554 S
C2663 H2666 0.999 . S
C2664 H2634 0.950 1_556 S
C2664 C2663 1.524 1_556 S
C2664 C2665 1.415 . S
C2665 H2635 0.950 . S
C2665 C2660 1.363 . S
C2665 C2664 1.415 . S
H2666 C2663 0.999 . S
H2667 C2648 0.913 . S
H2668 C2686 0.951 . S
H2669 C2688 0.951 . S
H2670 C2690 0.950 . S
H2671 C2691 0.950 . S
H2672 C2693 0.950 . S
H2673 C2696 0.950 . S
H2674 C2697 0.950 . S
H2675 C2699 0.950 . S
H2676 C2700 0.950 . S
H2677 C2701 0.951 . S
H2678 C2703 0.951 . S
H2679 C2705 0.950 . S
H2680 C2706 0.950 . S
H2681 C2708 0.950 . S
H2682 C2711 0.950 . S
H2683 C2712 0.950 . S
H2684 C2714 0.950 . S
H2685 C2715 0.950 . S
C2686 H2668 0.951 . S
C2686 C2687 1.366 . S
C2686 C2688 1.388 . S
C2687 C2686 1.366 . S
C2687 C2691 1.385 . S
C2688 H2669 0.951 . S
C2688 C2686 1.388 . S
C2688 C2689 1.366 . S
C2689 C2688 1.366 . S
C2689 C2690 1.414 . S
C2689 C2692 1.499 . S
C2690 H2670 0.950 . S
C2690 C2689 1.414 . S
C2690 C2691 1.374 . S
C2691 H2671 0.950 . S
C2691 C2687 1.385 . S
C2691 C2690 1.374 . S
C2692 C2689 1.499 . S
C2692 C2693 1.373 . S
C2692 C2694 1.389 . S
C2693 H2672 0.950 . S
C2693 C2692 1.373 . S
C2693 C2709 1.377 . S
C2694 C2692 1.389 . S
C2694 C2695 1.524 . S
C2694 C2708 1.377 . S
C2695 C2694 1.524 . S
C2695 C2696 1.397 . S
C2695 C2700 1.363 . S
C2696 H2673 0.950 . S
C2696 C2695 1.397 . S
C2696 C2697 1.334 . S
C2697 H2674 0.950 . S
C2697 C2696 1.334 . S
C2697 C2698 1.287 . S
C2698 C2697 1.287 . S
C2698 C2699 1.524 . S
C2698 H2717 0.913 . S
C2699 H2675 0.950 . S
C2699 C2698 1.524 . S
C2699 C2700 1.415 . S
C2700 H2676 0.950 . S
C2700 C2695 1.363 . S
C2700 C2699 1.415 . S
C2701 H2677 0.951 . S
C2701 C2702 1.366 . S
C2701 C2703 1.388 . S
C2702 C2701 1.366 . S
C2702 C2706 1.385 . S
C2703 H2678 0.951 . S
C2703 C2701 1.388 . S
C2703 C2704 1.366 . S
C2704 C2703 1.366 . S
C2704 C2705 1.414 . S
C2704 C2707 1.499 . S
C2705 H2679 0.950 . S
C2705 C2704 1.414 . S
C2705 C2706 1.374 . S
C2706 H2680 0.950 . S
C2706 C2702 1.385 . S
C2706 C2705 1.374 . S
C2707 C2704 1.499 . S
C2707 C2708 1.373 . S
C2707 C2709 1.389 . S
C2708 H2681 0.950 . S
C2708 C2694 1.377 . S
C2708 C2707 1.373 . S
C2709 C2693 1.377 . S
C2709 C2707 1.389 . S
C2709 C2710 1.524 . S
C2710 C2709 1.524 . S
C2710 C2711 1.397 . S
C2710 C2715 1.363 . S
C2711 H2682 0.950 . S
C2711 C2710 1.397 . S
C2711 C2712 1.334 . S
C2712 H2683 0.950 . S
C2712 C2711 1.334 . S
C2712 C2713 1.287 . S
C2713 C2712 1.287 . S
C2713 C2714 1.524 . S
C2713 H2716 0.999 . S
C2714 H2684 0.950 . S
C2714 C2713 1.524 . S
C2714 C2715 1.415 . S
C2715 H2685 0.950 . S
C2715 C2710 1.363 . S
C2715 C2714 1.415 . S
H2716 C2713 0.999 . S
H2717 C2698 0.913 . S
H2718 C2736 0.951 . S
H2719 C2738 0.951 . S
H2720 C2740 0.950 . S
H2721 C2741 0.950 . S
H2722 C2743 0.950 . S
H2723 C2746 0.950 . S
H2724 C2747 0.950 . S
H2725 C2749 0.950 . S
H2726 C2750 0.950 . S
H2727 C2751 0.951 . S
H2728 C2753 0.951 . S
H2729 C2755 0.950 . S
H2730 C2756 0.950 . S
H2731 C2758 0.950 . S
H2732 C2761 0.950 . S
H2733 C2762 0.950 . S
H2734 C2764 0.950 . S
H2735 C2765 0.950 . S
C2736 H2718 0.951 . S
C2736 C2737 1.366 . S
C2736 C2738 1.388 . S
C2737 C2736 1.366 . S
C2737 C2741 1.385 . S
C2738 H2719 0.951 . S
C2738 C2736 1.388 . S
C2738 C2739 1.366 . S
C2739 C2738 1.366 . S
C2739 C2740 1.414 . S
C2739 C2742 1.499 . S
C2740 H2720 0.950 . S
C2740 C2739 1.414 . S
C2740 C2741 1.374 . S
C2741 H2721 0.950 . S
C2741 C2737 1.385 . S
C2741 C2740 1.374 . S
C2742 C2739 1.499 . S
C2742 C2743 1.373 . S
C2742 C2744 1.389 . S
C2743 H2722 0.950 . S
C2743 C2742 1.373 . S
C2743 C2759 1.377 . S
C2744 C2742 1.389 . S
C2744 C2745 1.524 . S
C2744 C2758 1.377 . S
C2745 C2744 1.524 . S
C2745 C2746 1.397 . S
C2745 C2750 1.363 . S
C2746 H2723 0.950 . S
C2746 C2745 1.397 . S
C2746 C2747 1.334 . S
C2747 H2724 0.950 . S
C2747 C2746 1.334 . S
C2747 C2748 1.287 . S
C2748 C2747 1.287 . S
C2748 C2749 1.524 . S
C2748 H2767 0.913 . S
C2749 H2725 0.950 . S
C2749 C2748 1.524 . S
C2749 C2750 1.415 . S
C2750 H2726 0.950 . S
C2750 C2745 1.363 . S
C2750 C2749 1.415 . S
C2751 H2727 0.951 . S
C2751 C2752 1.366 . S
C2751 C2753 1.388 . S
C2752 C2751 1.366 . S
C2752 C2756 1.385 . S
C2753 H2728 0.951 . S
C2753 C2751 1.388 . S
C2753 C2754 1.366 . S
C2754 C2753 1.366 . S
C2754 C2755 1.414 . S
C2754 C2757 1.499 . S
C2755 H2729 0.950 . S
C2755 C2754 1.414 . S
C2755 C2756 1.374 . S
C2756 H2730 0.950 . S
C2756 C2752 1.385 . S
C2756 C2755 1.374 . S
C2757 C2754 1.499 . S
C2757 C2758 1.373 . S
C2757 C2759 1.389 . S
C2758 H2731 0.950 . S
C2758 C2744 1.377 . S
C2758 C2757 1.373 . S
C2759 C2743 1.377 . S
C2759 C2757 1.389 . S
C2759 C2760 1.524 . S
C2760 C2759 1.524 . S
C2760 C2761 1.397 . S
C2760 C2765 1.363 . S
C2761 H2732 0.950 . S
C2761 C2760 1.397 . S
C2761 C2762 1.334 . S
C2762 H2733 0.950 . S
C2762 C2761 1.334 . S
C2762 C2763 1.287 . S
C2763 C2762 1.287 . S
C2763 C2764 1.524 . S
C2763 H2766 0.999 . S
C2764 H2734 0.950 . S
C2764 C2763 1.524 . S
C2764 C2765 1.415 . S
C2765 H2735 0.950 . S
C2765 C2760 1.363 . S
C2765 C2764 1.415 . S
H2766 C2763 0.999 . S
H2767 C2748 0.913 . S
H2768 C2786 0.951 . S
H2769 C2788 0.951 . S
H2770 C2790 0.950 . S
H2771 C2791 0.950 . S
H2772 C2793 0.950 . S
H2773 C2796 0.950 . S
H2774 C2797 0.950 . S
H2775 C2799 0.958 . S
H2776 C2800 0.950 . S
H2777 C2801 0.951 . S
H2778 C2803 0.951 . S
H2779 C2805 0.950 . S
H2780 C2806 0.950 . S
H2781 C2808 0.950 . S
H2782 C2811 0.950 . S
H2783 C2812 0.950 . S
H2784 C2814 0.950 . S
H2785 C2815 0.950 . S
C2786 H2768 0.951 . S
C2786 C2787 1.366 . S
C2786 C2788 1.388 . S
C2787 C2786 1.366 . S
C2787 C2791 1.385 . S
C2788 H2769 0.951 . S
C2788 C2786 1.388 . S
C2788 C2789 1.366 . S
C2789 C2788 1.366 . S
C2789 C2790 1.414 . S
C2789 C2792 1.499 . S
C2790 H2770 0.950 . S
C2790 C2789 1.414 . S
C2790 C2791 1.374 . S
C2791 H2771 0.950 . S
C2791 C2787 1.385 . S
C2791 C2790 1.374 . S
C2792 C2789 1.499 . S
C2792 C2793 1.373 . S
C2792 C2794 1.389 . S
C2793 H2772 0.950 . S
C2793 C2792 1.373 . S
C2793 C2809 1.377 . S
C2794 C2792 1.389 . S
C2794 C2795 1.524 . S
C2794 C2808 1.377 . S
C2795 C2794 1.524 . S
C2795 C2796 1.397 . S
C2795 C2800 1.363 . S
C2796 H2773 0.950 . S
C2796 C2795 1.397 . S
C2796 C2797 1.334 . S
C2797 H2774 0.950 . S
C2797 C2796 1.334 . S
C2797 C2798 1.287 1_554 S
C2798 C2797 1.287 1_556 S
C2798 C2799 1.524 1_556 S
C2798 H2817 0.913 . S
C2799 H2775 0.958 . S
C2799 C2798 1.524 1_554 S
C2799 C2800 1.415 . S
C2800 H2776 0.950 . S
C2800 C2795 1.363 . S
C2800 C2799 1.415 . S
C2801 H2777 0.951 . S
C2801 C2802 1.366 . S
C2801 C2803 1.388 . S
C2802 C2801 1.366 . S
C2802 C2806 1.385 . S
C2803 H2778 0.951 . S
C2803 C2801 1.388 . S
C2803 C2804 1.366 . S
C2804 C2803 1.366 . S
C2804 C2805 1.414 . S
C2804 C2807 1.499 . S
C2805 H2779 0.950 . S
C2805 C2804 1.414 . S
C2805 C2806 1.374 . S
C2806 H2780 0.950 . S
C2806 C2802 1.385 . S
C2806 C2805 1.374 . S
C2807 C2804 1.499 . S
C2807 C2808 1.373 . S
C2807 C2809 1.389 . S
C2808 H2781 0.950 . S
C2808 C2794 1.377 . S
C2808 C2807 1.373 . S
C2809 C2793 1.377 . S
C2809 C2807 1.389 . S
C2809 C2810 1.524 . S
C2810 C2809 1.524 . S
C2810 C2811 1.397 . S
C2810 C2815 1.363 . S
C2811 H2782 0.950 . S
C2811 C2810 1.397 . S
C2811 C2812 1.334 . S
C2812 H2783 0.950 . S
C2812 C2811 1.334 . S
C2812 C2813 1.287 . S
C2813 C2812 1.287 . S
C2813 C2814 1.524 . S
C2813 H2816 0.999 . S
C2814 H2784 0.950 . S
C2814 C2813 1.524 . S
C2814 C2815 1.415 . S
C2815 H2785 0.950 . S
C2815 C2810 1.363 . S
C2815 C2814 1.415 . S
H2816 C2813 0.999 . S
H2817 C2798 0.913 . S
H2818 C2836 0.951 . S
H2819 C2838 0.951 . S
H2820 C2840 0.950 . S
H2821 C2841 0.950 . S
H2822 C2843 0.950 . S
H2823 C2846 0.950 . S
H2824 C2847 0.950 . S
H2825 C2849 0.950 . S
H2826 C2850 0.950 . S
H2827 C2851 0.951 . S
H2828 C2853 0.951 . S
H2829 C2855 0.950 . S
H2830 C2856 0.950 . S
H2831 C2858 0.950 . S
H2832 C2861 0.950 . S
H2833 C2862 0.950 . S
H2834 C2864 0.950 . S
H2835 C2865 0.950 . S
C2836 H2818 0.951 . S
C2836 C2837 1.366 . S
C2836 C2838 1.388 . S
C2837 C2836 1.366 . S
C2837 C2841 1.385 . S
C2838 H2819 0.951 . S
C2838 C2836 1.388 . S
C2838 C2839 1.366 . S
C2839 C2838 1.366 . S
C2839 C2840 1.414 . S
C2839 C2842 1.499 . S
C2840 H2820 0.950 . S
C2840 C2839 1.414 . S
C2840 C2841 1.374 . S
C2841 H2821 0.950 . S
C2841 C2837 1.385 . S
C2841 C2840 1.374 . S
C2842 C2839 1.499 . S
C2842 C2843 1.373 . S
C2842 C2844 1.389 . S
C2843 H2822 0.950 . S
C2843 C2842 1.373 . S
C2843 C2859 1.377 . S
C2844 C2842 1.389 . S
C2844 C2845 1.524 . S
C2844 C2858 1.377 . S
C2845 C2844 1.524 . S
C2845 C2846 1.397 . S
C2845 C2850 1.363 . S
C2846 H2823 0.950 . S
C2846 C2845 1.397 . S
C2846 C2847 1.334 . S
C2847 H2824 0.950 . S
C2847 C2846 1.334 . S
C2847 C2848 1.287 . S
C2848 C2847 1.287 . S
C2848 C2849 1.524 . S
C2848 H2867 0.913 . S
C2849 H2825 0.950 . S
C2849 C2848 1.524 . S
C2849 C2850 1.415 . S
C2850 H2826 0.950 . S
C2850 C2845 1.363 . S
C2850 C2849 1.415 . S
C2851 H2827 0.951 . S
C2851 C2852 1.366 . S
C2851 C2853 1.388 . S
C2852 C2851 1.366 . S
C2852 C2856 1.385 . S
C2853 H2828 0.951 . S
C2853 C2851 1.388 . S
C2853 C2854 1.366 . S
C2854 C2853 1.366 . S
C2854 C2855 1.414 . S
C2854 C2857 1.499 . S
C2855 H2829 0.950 . S
C2855 C2854 1.414 . S
C2855 C2856 1.374 . S
C2856 H2830 0.950 . S
C2856 C2852 1.385 . S
C2856 C2855 1.374 . S
C2857 C2854 1.499 . S
C2857 C2858 1.373 . S
C2857 C2859 1.389 . S
C2858 H2831 0.950 . S
C2858 C2844 1.377 . S
C2858 C2857 1.373 . S
C2859 C2843 1.377 . S
C2859 C2857 1.389 . S
C2859 C2860 1.524 . S
C2860 C2859 1.524 . S
C2860 C2861 1.397 . S
C2860 C2865 1.363 . S
C2861 H2832 0.950 . S
C2861 C2860 1.397 . S
C2861 C2862 1.334 . S
C2862 H2833 0.950 . S
C2862 C2861 1.334 . S
C2862 C2863 1.287 . S
C2863 C2862 1.287 . S
C2863 C2864 1.524 . S
C2863 H2866 0.999 . S
C2864 H2834 0.950 . S
C2864 C2863 1.524 . S
C2864 C2865 1.415 . S
C2865 H2835 0.950 . S
C2865 C2860 1.363 . S
C2865 C2864 1.415 . S
H2866 C2863 0.999 . S
H2867 C2848 0.913 . S
H2868 C2886 0.951 . S
H2869 C2888 0.951 . S
H2870 C2890 0.950 . S
H2871 C2891 0.950 . S
H2872 C2893 0.950 . S
H2873 C2896 0.950 . S
H2874 C2897 0.950 . S
H2875 C2899 0.950 . S
H2876 C2900 0.950 . S
H2877 C2901 0.951 . S
H2878 C2903 0.951 . S
H2879 C2905 0.950 . S
H2880 C2906 0.950 . S
H2881 C2908 0.950 . S
H2882 C2911 0.950 . S
H2883 C2912 0.950 . S
H2884 C2914 0.950 . S
H2885 C2915 0.950 . S
C2886 H2868 0.951 . S
C2886 C2887 1.366 . S
C2886 C2888 1.388 . S
C2887 C2886 1.366 . S
C2887 C2891 1.385 . S
C2888 H2869 0.951 . S
C2888 C2886 1.388 . S
C2888 C2889 1.366 . S
C2889 C2888 1.366 . S
C2889 C2890 1.414 . S
C2889 C2892 1.499 . S
C2890 H2870 0.950 . S
C2890 C2889 1.414 . S
C2890 C2891 1.374 . S
C2891 H2871 0.950 . S
C2891 C2887 1.385 . S
C2891 C2890 1.374 . S
C2892 C2889 1.499 . S
C2892 C2893 1.373 . S
C2892 C2894 1.389 . S
C2893 H2872 0.950 . S
C2893 C2892 1.373 . S
C2893 C2909 1.377 1_455 S
C2894 C2892 1.389 . S
C2894 C2895 1.524 . S
C2894 C2908 1.377 1_455 S
C2895 C2894 1.524 . S
C2895 C2896 1.397 . S
C2895 C2900 1.363 . S
C2896 H2873 0.950 . S
C2896 C2895 1.397 . S
C2896 C2897 1.334 . S
C2897 H2874 0.950 . S
C2897 C2896 1.334 . S
C2897 C2898 1.287 . S
C2898 C2897 1.287 . S
C2898 C2899 1.524 . S
C2898 H2917 0.913 . S
C2899 H2875 0.950 . S
C2899 C2898 1.524 . S
C2899 C2900 1.415 . S
C2900 H2876 0.950 . S
C2900 C2895 1.363 . S
C2900 C2899 1.415 . S
C2901 H2877 0.951 . S
C2901 C2902 1.366 . S
C2901 C2903 1.388 . S
C2902 C2901 1.366 . S
C2902 C2906 1.385 . S
C2903 H2878 0.951 . S
C2903 C2901 1.388 . S
C2903 C2904 1.366 . S
C2904 C2903 1.366 . S
C2904 C2905 1.414 . S
C2904 C2907 1.499 . S
C2905 H2879 0.950 . S
C2905 C2904 1.414 . S
C2905 C2906 1.374 . S
C2906 H2880 0.950 . S
C2906 C2902 1.385 . S
C2906 C2905 1.374 . S
C2907 C2904 1.499 . S
C2907 C2908 1.373 . S
C2907 C2909 1.389 . S
C2908 H2881 0.950 . S
C2908 C2894 1.377 1_655 S
C2908 C2907 1.373 . S
C2909 C2893 1.377 1_655 S
C2909 C2907 1.389 . S
C2909 C2910 1.524 . S
C2910 C2909 1.524 . S
C2910 C2911 1.397 . S
C2910 C2915 1.363 . S
C2911 H2882 0.950 . S
C2911 C2910 1.397 . S
C2911 C2912 1.334 . S
C2912 H2883 0.950 . S
C2912 C2911 1.334 . S
C2912 C2913 1.287 . S
C2913 C2912 1.287 . S
C2913 C2914 1.524 . S
C2913 H2916 0.999 . S
C2914 H2884 0.950 . S
C2914 C2913 1.524 . S
C2914 C2915 1.415 . S
C2915 H2885 0.950 . S
C2915 C2910 1.363 . S
C2915 C2914 1.415 . S
H2916 C2913 0.999 . S
H2917 C2898 0.913 . S
H2918 C2936 0.951 . S
H2919 C2938 0.951 . S
H2920 C2940 0.950 . S
H2921 C2941 0.950 . S
H2922 C2943 0.950 . S
H2923 C2946 0.950 . S
H2924 C2947 0.950 . S
H2925 C2949 0.950 . S
H2926 C2950 0.950 . S
H2927 C2951 0.951 . S
H2928 C2953 0.951 . S
H2929 C2955 0.950 . S
H2930 C2956 0.950 . S
H2931 C2958 0.950 . S
H2932 C2961 0.950 . S
H2933 C2962 0.950 . S
H2934 C2964 0.950 . S
H2935 C2965 0.950 . S
C2936 H2918 0.951 . S
C2936 C2937 1.366 . S
C2936 C2938 1.388 . S
C2937 C2936 1.366 . S
C2937 C2941 1.385 . S
C2938 H2919 0.951 . S
C2938 C2936 1.388 . S
C2938 C2939 1.366 . S
C2939 C2938 1.366 . S
C2939 C2940 1.414 . S
C2939 C2942 1.499 . S
C2940 H2920 0.950 . S
C2940 C2939 1.414 . S
C2940 C2941 1.374 . S
C2941 H2921 0.950 . S
C2941 C2937 1.385 . S
C2941 C2940 1.374 . S
C2942 C2939 1.499 . S
C2942 C2943 1.373 . S
C2942 C2944 1.389 . S
C2943 H2922 0.950 . S
C2943 C2942 1.373 . S
C2943 C2959 1.377 . S
C2944 C2942 1.389 . S
C2944 C2945 1.524 . S
C2944 C2958 1.377 . S
C2945 C2944 1.524 . S
C2945 C2946 1.397 . S
C2945 C2950 1.363 . S
C2946 H2923 0.950 . S
C2946 C2945 1.397 . S
C2946 C2947 1.334 . S
C2947 H2924 0.950 . S
C2947 C2946 1.334 . S
C2947 C2948 1.287 . S
C2948 C2947 1.287 . S
C2948 C2949 1.524 . S
C2948 H2967 0.913 . S
C2949 H2925 0.950 . S
C2949 C2948 1.524 . S
C2949 C2950 1.415 . S
C2950 H2926 0.950 . S
C2950 C2945 1.363 . S
C2950 C2949 1.415 . S
C2951 H2927 0.951 . S
C2951 C2952 1.366 . S
C2951 C2953 1.388 . S
C2952 C2951 1.366 . S
C2952 C2956 1.385 . S
C2953 H2928 0.951 . S
C2953 C2951 1.388 . S
C2953 C2954 1.366 . S
C2954 C2953 1.366 . S
C2954 C2955 1.414 . S
C2954 C2957 1.499 . S
C2955 H2929 0.950 . S
C2955 C2954 1.414 . S
C2955 C2956 1.374 . S
C2956 H2930 0.950 . S
C2956 C2952 1.385 . S
C2956 C2955 1.374 . S
C2957 C2954 1.499 . S
C2957 C2958 1.373 . S
C2957 C2959 1.389 . S
C2958 H2931 0.950 . S
C2958 C2944 1.377 . S
C2958 C2957 1.373 . S
C2959 C2943 1.377 . S
C2959 C2957 1.389 . S
C2959 C2960 1.524 . S
C2960 C2959 1.524 . S
C2960 C2961 1.397 . S
C2960 C2965 1.363 . S
C2961 H2932 0.950 . S
C2961 C2960 1.397 . S
C2961 C2962 1.334 . S
C2962 H2933 0.950 . S
C2962 C2961 1.334 . S
C2962 C2963 1.287 . S
C2963 C2962 1.287 . S
C2963 C2964 1.524 . S
C2963 H2966 0.999 . S
C2964 H2934 0.950 . S
C2964 C2963 1.524 . S
C2964 C2965 1.415 . S
C2965 H2935 0.950 . S
C2965 C2960 1.363 . S
C2965 C2964 1.415 . S
H2966 C2963 0.999 . S
H2967 C2948 0.913 . S
H2968 C2986 0.951 . S
H2969 C2988 0.951 . S
H2970 C2990 0.950 . S
H2971 C2991 0.950 . S
H2972 C2993 0.950 . S
H2973 C2996 0.950 . S
H2974 C2997 0.950 . S
H2975 C2999 0.950 . S
H2976 C3000 0.950 1_565 S
H2977 C3001 0.951 . S
H2978 C3003 0.951 . S
H2979 C3005 0.950 . S
H2980 C3006 0.950 . S
H2981 C3008 0.950 . S
H2982 C3011 0.950 . S
H2983 C3012 0.950 . S
H2984 C3014 0.950 . S
H2985 C3015 0.950 1_545 S
C2986 H2968 0.951 . S
C2986 C2987 1.366 . S
C2986 C2988 1.388 . S
C2987 C2986 1.366 . S
C2987 C2991 1.385 . S
C2988 H2969 0.951 . S
C2988 C2986 1.388 . S
C2988 C2989 1.366 . S
C2989 C2988 1.366 . S
C2989 C2990 1.414 . S
C2989 C2992 1.499 . S
C2990 H2970 0.950 . S
C2990 C2989 1.414 . S
C2990 C2991 1.374 . S
C2991 H2971 0.950 . S
C2991 C2987 1.385 . S
C2991 C2990 1.374 . S
C2992 C2989 1.499 . S
C2992 C2993 1.373 . S
C2992 C2994 1.389 . S
C2993 H2972 0.950 . S
C2993 C2992 1.373 . S
C2993 C3009 1.377 1_545 S
C2994 C2992 1.389 . S
C2994 C2995 1.524 . S
C2994 C3008 1.377 1_545 S
C2995 C2994 1.524 . S
C2995 C2996 1.397 . S
C2995 C3000 1.363 . S
C2996 H2973 0.950 . S
C2996 C2995 1.397 . S
C2996 C2997 1.334 . S
C2997 H2974 0.950 . S
C2997 C2996 1.334 . S
C2997 C2998 1.287 . S
C2998 C2997 1.287 . S
C2998 C2999 1.524 . S
C2998 H3017 0.913 . S
C2999 H2975 0.950 . S
C2999 C2998 1.524 . S
C2999 C3000 1.415 . S
C3000 H2976 0.950 1_545 S
C3000 C2995 1.363 . S
C3000 C2999 1.415 . S
C3001 H2977 0.951 . S
C3001 C3002 1.366 . S
C3001 C3003 1.388 . S
C3002 C3001 1.366 . S
C3002 C3006 1.385 . S
C3003 H2978 0.951 . S
C3003 C3001 1.388 . S
C3003 C3004 1.366 . S
C3004 C3003 1.366 . S
C3004 C3005 1.414 . S
C3004 C3007 1.499 . S
C3005 H2979 0.950 . S
C3005 C3004 1.414 . S
C3005 C3006 1.374 . S
C3006 H2980 0.950 . S
C3006 C3002 1.385 . S
C3006 C3005 1.374 . S
C3007 C3004 1.499 . S
C3007 C3008 1.373 . S
C3007 C3009 1.389 . S
C3008 H2981 0.950 . S
C3008 C2994 1.377 1_565 S
C3008 C3007 1.373 . S
C3009 C2993 1.377 1_565 S
C3009 C3007 1.389 . S
C3009 C3010 1.524 . S
C3010 C3009 1.524 . S
C3010 C3011 1.397 . S
C3010 C3015 1.363 . S
C3011 H2982 0.950 . S
C3011 C3010 1.397 . S
C3011 C3012 1.334 . S
C3012 H2983 0.950 . S
C3012 C3011 1.334 . S
C3012 C3013 1.287 . S
C3013 C3012 1.287 . S
C3013 C3014 1.524 . S
C3013 H3016 0.999 . S
C3014 H2984 0.950 . S
C3014 C3013 1.524 . S
C3014 C3015 1.415 . S
C3015 H2985 0.950 1_565 S
C3015 C3010 1.363 . S
C3015 C3014 1.415 . S
H3016 C3013 0.999 . S
H3017 C2998 0.913 . S
H3018 C3036 0.951 . S
H3019 C3038 0.951 . S
H3020 C3040 0.950 . S
H3021 C3041 0.950 . S
H3022 C3043 0.950 . S
H3023 C3046 0.950 . S
H3024 C3047 0.950 . S
H3025 C3049 0.950 . S
H3026 C3050 0.950 1_565 S
H3027 C3051 0.951 . S
H3028 C3053 0.951 . S
H3029 C3055 0.950 . S
H3030 C3056 0.950 . S
H3031 C3058 0.950 . S
H3032 C3061 0.950 . S
H3033 C3062 0.950 . S
H3034 C3064 0.950 . S
H3035 C3065 0.950 1_545 S
C3036 H3018 0.951 . S
C3036 C3037 1.366 . S
C3036 C3038 1.388 . S
C3037 C3036 1.366 . S
C3037 C3041 1.385 . S
C3038 H3019 0.951 . S
C3038 C3036 1.388 . S
C3038 C3039 1.366 . S
C3039 C3038 1.366 . S
C3039 C3040 1.414 . S
C3039 C3042 1.499 . S
C3040 H3020 0.950 . S
C3040 C3039 1.414 . S
C3040 C3041 1.374 . S
C3041 H3021 0.950 . S
C3041 C3037 1.385 . S
C3041 C3040 1.374 . S
C3042 C3039 1.499 . S
C3042 C3043 1.373 . S
C3042 C3044 1.389 . S
C3043 H3022 0.950 . S
C3043 C3042 1.373 . S
C3043 C3059 1.377 1_545 S
C3044 C3042 1.389 . S
C3044 C3045 1.524 . S
C3044 C3058 1.377 1_545 S
C3045 C3044 1.524 . S
C3045 C3046 1.397 . S
C3045 C3050 1.363 . S
C3046 H3023 0.950 . S
C3046 C3045 1.397 . S
C3046 C3047 1.334 . S
C3047 H3024 0.950 . S
C3047 C3046 1.334 . S
C3047 C3048 1.287 . S
C3048 C3047 1.287 . S
C3048 C3049 1.524 . S
C3048 H3067 0.913 . S
C3049 H3025 0.950 . S
C3049 C3048 1.524 . S
C3049 C3050 1.415 . S
C3050 H3026 0.950 1_545 S
C3050 C3045 1.363 . S
C3050 C3049 1.415 . S
C3051 H3027 0.951 . S
C3051 C3052 1.366 . S
C3051 C3053 1.388 . S
C3052 C3051 1.366 . S
C3052 C3056 1.385 . S
C3053 H3028 0.951 . S
C3053 C3051 1.388 . S
C3053 C3054 1.366 . S
C3054 C3053 1.366 . S
C3054 C3055 1.414 . S
C3054 C3057 1.499 . S
C3055 H3029 0.950 . S
C3055 C3054 1.414 . S
C3055 C3056 1.374 . S
C3056 H3030 0.950 . S
C3056 C3052 1.385 . S
C3056 C3055 1.374 . S
C3057 C3054 1.499 . S
C3057 C3058 1.373 . S
C3057 C3059 1.389 . S
C3058 H3031 0.950 . S
C3058 C3044 1.377 1_565 S
C3058 C3057 1.373 . S
C3059 C3043 1.377 1_565 S
C3059 C3057 1.389 . S
C3059 C3060 1.524 . S
C3060 C3059 1.524 . S
C3060 C3061 1.397 . S
C3060 C3065 1.363 . S
C3061 H3032 0.950 . S
C3061 C3060 1.397 . S
C3061 C3062 1.334 . S
C3062 H3033 0.950 . S
C3062 C3061 1.334 . S
C3062 C3063 1.287 . S
C3063 C3062 1.287 . S
C3063 C3064 1.524 . S
C3063 H3066 0.999 . S
C3064 H3034 0.950 . S
C3064 C3063 1.524 . S
C3064 C3065 1.415 . S
C3065 H3035 0.950 1_565 S
C3065 C3060 1.363 . S
C3065 C3064 1.415 . S
H3066 C3063 0.999 . S
H3067 C3048 0.913 . S
H3068 C3086 0.951 . S
H3069 C3088 0.951 . S
H3070 C3090 0.950 . S
H3071 C3091 0.950 . S
H3072 C3093 0.950 . S
H3073 C3096 0.950 . S
H3074 C3097 0.950 . S
H3075 C3099 0.950 . S
H3076 C3100 0.950 . S
H3077 C3101 0.951 . S
H3078 C3103 0.951 . S
H3079 C3105 0.950 . S
H3080 C3106 0.950 . S
H3081 C3108 0.950 . S
H3082 C3111 0.950 . S
H3083 C3112 0.950 . S
H3084 C3114 0.950 . S
H3085 C3115 0.950 . S
C3086 H3068 0.951 . S
C3086 C3087 1.366 . S
C3086 C3088 1.388 . S
C3087 C3086 1.366 . S
C3087 C3091 1.385 . S
C3088 H3069 0.951 . S
C3088 C3086 1.388 . S
C3088 C3089 1.366 . S
C3089 C3088 1.366 . S
C3089 C3090 1.414 . S
C3089 C3092 1.499 . S
C3090 H3070 0.950 . S
C3090 C3089 1.414 . S
C3090 C3091 1.374 . S
C3091 H3071 0.950 . S
C3091 C3087 1.385 . S
C3091 C3090 1.374 . S
C3092 C3089 1.499 . S
C3092 C3093 1.373 . S
C3092 C3094 1.389 . S
C3093 H3072 0.950 . S
C3093 C3092 1.373 . S
C3093 C3109 1.377 1_655 S
C3094 C3092 1.389 . S
C3094 C3095 1.524 . S
C3094 C3108 1.377 1_655 S
C3095 C3094 1.524 . S
C3095 C3096 1.397 . S
C3095 C3100 1.363 . S
C3096 H3073 0.950 . S
C3096 C3095 1.397 . S
C3096 C3097 1.334 . S
C3097 H3074 0.950 . S
C3097 C3096 1.334 . S
C3097 C3098 1.287 . S
C3098 C3097 1.287 . S
C3098 C3099 1.524 . S
C3098 H3117 0.913 . S
C3099 H3075 0.950 . S
C3099 C3098 1.524 . S
C3099 C3100 1.415 . S
C3100 H3076 0.950 . S
C3100 C3095 1.363 . S
C3100 C3099 1.415 . S
C3101 H3077 0.951 . S
C3101 C3102 1.366 . S
C3101 C3103 1.388 . S
C3102 C3101 1.366 . S
C3102 C3106 1.385 . S
C3103 H3078 0.951 . S
C3103 C3101 1.388 . S
C3103 C3104 1.366 . S
C3104 C3103 1.366 . S
C3104 C3105 1.414 . S
C3104 C3107 1.499 . S
C3105 H3079 0.950 . S
C3105 C3104 1.414 . S
C3105 C3106 1.374 . S
C3106 H3080 0.950 . S
C3106 C3102 1.385 . S
C3106 C3105 1.374 . S
C3107 C3104 1.499 . S
C3107 C3108 1.373 . S
C3107 C3109 1.389 . S
C3108 H3081 0.950 . S
C3108 C3094 1.377 1_455 S
C3108 C3107 1.373 . S
C3109 C3093 1.377 1_455 S
C3109 C3107 1.389 . S
C3109 C3110 1.524 . S
C3110 C3109 1.524 . S
C3110 C3111 1.397 . S
C3110 C3115 1.363 . S
C3111 H3082 0.950 . S
C3111 C3110 1.397 . S
C3111 C3112 1.334 . S
C3112 H3083 0.950 . S
C3112 C3111 1.334 . S
C3112 C3113 1.287 . S
C3113 C3112 1.287 . S
C3113 C3114 1.524 . S
C3113 H3116 0.999 . S
C3114 H3084 0.950 . S
C3114 C3113 1.524 . S
C3114 C3115 1.415 . S
C3115 H3085 0.950 . S
C3115 C3110 1.363 . S
C3115 C3114 1.415 . S
H3116 C3113 0.999 . S
H3117 C3098 0.913 . S
H3118 C3136 0.951 . S
H3119 C3138 0.951 . S
H3120 C3140 0.950 . S
H3121 C3141 0.950 . S
H3122 C3143 0.950 . S
H3123 C3146 0.950 . S
H3124 C3147 0.950 . S
H3125 C3149 0.950 . S
H3126 C3150 0.950 . S
H3127 C3151 0.951 . S
H3128 C3153 0.951 . S
H3129 C3155 0.950 . S
H3130 C3156 0.950 . S
H3131 C3158 0.950 . S
H3132 C3161 0.950 . S
H3133 C3162 0.950 . S
H3134 C3164 0.950 . S
H3135 C3165 0.950 . S
C3136 H3118 0.951 . S
C3136 C3137 1.366 . S
C3136 C3138 1.388 . S
C3137 C3136 1.366 . S
C3137 C3141 1.385 . S
C3138 H3119 0.951 . S
C3138 C3136 1.388 . S
C3138 C3139 1.366 . S
C3139 C3138 1.366 . S
C3139 C3140 1.414 . S
C3139 C3142 1.499 . S
C3140 H3120 0.950 . S
C3140 C3139 1.414 . S
C3140 C3141 1.374 . S
C3141 H3121 0.950 . S
C3141 C3137 1.385 . S
C3141 C3140 1.374 . S
C3142 C3139 1.499 . S
C3142 C3143 1.373 . S
C3142 C3144 1.389 . S
C3143 H3122 0.950 . S
C3143 C3142 1.373 . S
C3143 C3159 1.377 . S
C3144 C3142 1.389 . S
C3144 C3145 1.524 . S
C3144 C3158 1.377 . S
C3145 C3144 1.524 . S
C3145 C3146 1.397 . S
C3145 C3150 1.363 . S
C3146 H3123 0.950 . S
C3146 C3145 1.397 . S
C3146 C3147 1.334 . S
C3147 H3124 0.950 . S
C3147 C3146 1.334 . S
C3147 C3148 1.287 . S
C3148 C3147 1.287 . S
C3148 C3149 1.524 . S
C3148 H3167 0.913 . S
C3149 H3125 0.950 . S
C3149 C3148 1.524 . S
C3149 C3150 1.415 . S
C3150 H3126 0.950 . S
C3150 C3145 1.363 . S
C3150 C3149 1.415 . S
C3151 H3127 0.951 . S
C3151 C3152 1.366 . S
C3151 C3153 1.388 . S
C3152 C3151 1.366 . S
C3152 C3156 1.385 . S
C3153 H3128 0.951 . S
C3153 C3151 1.388 . S
C3153 C3154 1.366 . S
C3154 C3153 1.366 . S
C3154 C3155 1.414 . S
C3154 C3157 1.499 . S
C3155 H3129 0.950 . S
C3155 C3154 1.414 . S
C3155 C3156 1.374 . S
C3156 H3130 0.950 . S
C3156 C3152 1.385 . S
C3156 C3155 1.374 . S
C3157 C3154 1.499 . S
C3157 C3158 1.373 . S
C3157 C3159 1.389 . S
C3158 H3131 0.950 . S
C3158 C3144 1.377 . S
C3158 C3157 1.373 . S
C3159 C3143 1.377 . S
C3159 C3157 1.389 . S
C3159 C3160 1.524 . S
C3160 C3159 1.524 . S
C3160 C3161 1.397 . S
C3160 C3165 1.363 . S
C3161 H3132 0.950 . S
C3161 C3160 1.397 . S
C3161 C3162 1.334 . S
C3162 H3133 0.950 . S
C3162 C3161 1.334 . S
C3162 C3163 1.287 . S
C3163 C3162 1.287 . S
C3163 C3164 1.524 . S
C3163 H3166 0.999 . S
C3164 H3134 0.950 . S
C3164 C3163 1.524 . S
C3164 C3165 1.415 . S
C3165 H3135 0.950 . S
C3165 C3160 1.363 . S
C3165 C3164 1.415 . S
H3166 C3163 0.999 . S
H3167 C3148 0.913 . S
H3168 C3186 0.951 . S
H3169 C3188 0.951 . S
H3170 C3190 0.950 . S
H3171 C3191 0.950 . S
H3172 C3193 0.950 . S
H3173 C3196 0.950 . S
H3174 C3197 0.950 . S
H3175 C3199 0.950 . S
H3176 C3200 0.950 . S
H3177 C3201 0.951 . S
H3178 C3203 0.951 . S
H3179 C3205 0.950 . S
H3180 C3206 0.950 . S
H3181 C3208 0.950 . S
H3182 C3211 0.950 . S
H3183 C3212 0.950 . S
H3184 C3214 0.950 . S
H3185 C3215 0.950 . S
C3186 H3168 0.951 . S
C3186 C3187 1.366 . S
C3186 C3188 1.388 . S
C3187 C3186 1.366 . S
C3187 C3191 1.385 . S
C3188 H3169 0.951 . S
C3188 C3186 1.388 . S
C3188 C3189 1.366 . S
C3189 C3188 1.366 . S
C3189 C3190 1.414 . S
C3189 C3192 1.499 . S
C3190 H3170 0.950 . S
C3190 C3189 1.414 . S
C3190 C3191 1.374 . S
C3191 H3171 0.950 . S
C3191 C3187 1.385 . S
C3191 C3190 1.374 . S
C3192 C3189 1.499 . S
C3192 C3193 1.373 . S
C3192 C3194 1.389 . S
C3193 H3172 0.950 . S
C3193 C3192 1.373 . S
C3193 C3209 1.377 . S
C3194 C3192 1.389 . S
C3194 C3195 1.524 . S
C3194 C3208 1.377 . S
C3195 C3194 1.524 . S
C3195 C3196 1.397 . S
C3195 C3200 1.363 . S
C3196 H3173 0.950 . S
C3196 C3195 1.397 . S
C3196 C3197 1.334 . S
C3197 H3174 0.950 . S
C3197 C3196 1.334 . S
C3197 C3198 1.287 . S
C3198 C3197 1.287 . S
C3198 C3199 1.524 . S
C3198 H3217 0.913 . S
C3199 H3175 0.950 . S
C3199 C3198 1.524 . S
C3199 C3200 1.415 . S
C3200 H3176 0.950 . S
C3200 C3195 1.363 . S
C3200 C3199 1.415 . S
C3201 H3177 0.951 . S
C3201 C3202 1.366 . S
C3201 C3203 1.388 . S
C3202 C3201 1.366 . S
C3202 C3206 1.385 . S
C3203 H3178 0.951 . S
C3203 C3201 1.388 . S
C3203 C3204 1.366 . S
C3204 C3203 1.366 . S
C3204 C3205 1.414 . S
C3204 C3207 1.499 . S
C3205 H3179 0.950 . S
C3205 C3204 1.414 . S
C3205 C3206 1.374 . S
C3206 H3180 0.950 . S
C3206 C3202 1.385 . S
C3206 C3205 1.374 . S
C3207 C3204 1.499 . S
C3207 C3208 1.373 . S
C3207 C3209 1.389 . S
C3208 H3181 0.950 . S
C3208 C3194 1.377 . S
C3208 C3207 1.373 . S
C3209 C3193 1.377 . S
C3209 C3207 1.389 . S
C3209 C3210 1.524 . S
C3210 C3209 1.524 . S
C3210 C3211 1.397 . S
C3210 C3215 1.363 . S
C3211 H3182 0.950 . S
C3211 C3210 1.397 . S
C3211 C3212 1.334 . S
C3212 H3183 0.950 . S
C3212 C3211 1.334 . S
C3212 C3213 1.287 . S
C3213 C3212 1.287 . S
C3213 C3214 1.524 . S
C3213 H3216 0.999 . S
C3214 H3184 0.950 . S
C3214 C3213 1.524 . S
C3214 C3215 1.415 . S
C3215 H3185 0.950 . S
C3215 C3210 1.363 . S
C3215 C3214 1.415 . S
H3216 C3213 0.999 . S
H3217 C3198 0.913 . S
H3218 C3236 0.951 . S
H3219 C3238 0.951 . S
H3220 C3240 0.950 . S
H3221 C3241 0.950 . S
H3222 C3243 0.950 . S
H3223 C3246 0.950 . S
H3224 C3247 0.950 . S
H3225 C3249 0.950 . S
H3226 C3250 0.950 . S
H3227 C3251 0.951 . S
H3228 C3253 0.951 . S
H3229 C3255 0.950 . S
H3230 C3256 0.950 . S
H3231 C3258 0.950 . S
H3232 C3261 0.950 . S
H3233 C3262 0.950 . S
H3234 C3264 0.950 . S
H3235 C3265 0.950 . S
C3236 H3218 0.951 . S
C3236 C3237 1.366 . S
C3236 C3238 1.388 . S
C3237 C3236 1.366 . S
C3237 C3241 1.385 . S
C3238 H3219 0.951 . S
C3238 C3236 1.388 . S
C3238 C3239 1.366 . S
C3239 C3238 1.366 . S
C3239 C3240 1.414 . S
C3239 C3242 1.499 . S
C3240 H3220 0.950 . S
C3240 C3239 1.414 . S
C3240 C3241 1.374 . S
C3241 H3221 0.950 . S
C3241 C3237 1.385 . S
C3241 C3240 1.374 . S
C3242 C3239 1.499 . S
C3242 C3243 1.373 . S
C3242 C3244 1.389 . S
C3243 H3222 0.950 . S
C3243 C3242 1.373 . S
C3243 C3259 1.377 . S
C3244 C3242 1.389 . S
C3244 C3245 1.524 . S
C3244 C3258 1.377 . S
C3245 C3244 1.524 . S
C3245 C3246 1.397 . S
C3245 C3250 1.363 . S
C3246 H3223 0.950 . S
C3246 C3245 1.397 . S
C3246 C3247 1.334 . S
C3247 H3224 0.950 . S
C3247 C3246 1.334 . S
C3247 C3248 1.287 . S
C3248 C3247 1.287 . S
C3248 C3249 1.524 . S
C3248 H3267 0.913 . S
C3249 H3225 0.950 . S
C3249 C3248 1.524 . S
C3249 C3250 1.415 . S
C3250 H3226 0.950 . S
C3250 C3245 1.363 . S
C3250 C3249 1.415 . S
C3251 H3227 0.951 . S
C3251 C3252 1.366 . S
C3251 C3253 1.388 . S
C3252 C3251 1.366 . S
C3252 C3256 1.385 . S
C3253 H3228 0.951 . S
C3253 C3251 1.388 . S
C3253 C3254 1.366 . S
C3254 C3253 1.366 . S
C3254 C3255 1.414 . S
C3254 C3257 1.499 . S
C3255 H3229 0.950 . S
C3255 C3254 1.414 . S
C3255 C3256 1.374 . S
C3256 H3230 0.950 . S
C3256 C3252 1.385 . S
C3256 C3255 1.374 . S
C3257 C3254 1.499 . S
C3257 C3258 1.373 . S
C3257 C3259 1.389 . S
C3258 H3231 0.950 . S
C3258 C3244 1.377 . S
C3258 C3257 1.373 . S
C3259 C3243 1.377 . S
C3259 C3257 1.389 . S
C3259 C3260 1.524 . S
C3260 C3259 1.524 . S
C3260 C3261 1.397 . S
C3260 C3265 1.363 . S
C3261 H3232 0.950 . S
C3261 C3260 1.397 . S
C3261 C3262 1.334 . S
C3262 H3233 0.950 . S
C3262 C3261 1.334 . S
C3262 C3263 1.287 . S
C3263 C3262 1.287 . S
C3263 C3264 1.524 . S
C3263 H3266 0.999 . S
C3264 H3234 0.950 . S
C3264 C3263 1.524 . S
C3264 C3265 1.415 . S
C3265 H3235 0.950 . S
C3265 C3260 1.363 . S
C3265 C3264 1.415 . S
H3266 C3263 0.999 . S
H3267 C3248 0.913 . S
H3268 C3286 0.951 . S
H3269 C3288 0.951 . S
H3270 C3290 0.950 . S
H3271 C3291 0.950 . S
H3272 C3293 0.950 . S
H3273 C3296 0.950 . S
H3274 C3297 0.950 . S
H3275 C3299 0.950 . S
H3276 C3300 0.950 . S
H3277 C3301 0.951 . S
H3278 C3303 0.951 . S
H3279 C3305 0.950 . S
H3280 C3306 0.950 . S
H3281 C3308 0.950 . S
H3282 C3311 0.950 . S
H3283 C3312 0.950 . S
H3284 C3314 0.950 . S
H3285 C3315 0.950 . S
C3286 H3268 0.951 . S
C3286 C3287 1.366 . S
C3286 C3288 1.388 . S
C3287 C3286 1.366 . S
C3287 C3291 1.385 . S
C3288 H3269 0.951 . S
C3288 C3286 1.388 . S
C3288 C3289 1.366 . S
C3289 C3288 1.366 . S
C3289 C3290 1.414 . S
C3289 C3292 1.499 . S
C3290 H3270 0.950 . S
C3290 C3289 1.414 . S
C3290 C3291 1.374 . S
C3291 H3271 0.950 . S
C3291 C3287 1.385 . S
C3291 C3290 1.374 . S
C3292 C3289 1.499 . S
C3292 C3293 1.373 . S
C3292 C3294 1.389 . S
C3293 H3272 0.950 . S
C3293 C3292 1.373 . S
C3293 C3309 1.377 . S
C3294 C3292 1.389 . S
C3294 C3295 1.524 . S
C3294 C3308 1.377 . S
C3295 C3294 1.524 . S
C3295 C3296 1.397 . S
C3295 C3300 1.363 . S
C3296 H3273 0.950 . S
C3296 C3295 1.397 . S
C3296 C3297 1.334 . S
C3297 H3274 0.950 . S
C3297 C3296 1.334 . S
C3297 C3298 1.287 . S
C3298 C3297 1.287 . S
C3298 C3299 1.524 . S
C3298 H3317 0.913 . S
C3299 H3275 0.950 . S
C3299 C3298 1.524 . S
C3299 C3300 1.415 . S
C3300 H3276 0.950 . S
C3300 C3295 1.363 . S
C3300 C3299 1.415 . S
C3301 H3277 0.951 . S
C3301 C3302 1.366 . S
C3301 C3303 1.388 . S
C3302 C3301 1.366 . S
C3302 C3306 1.385 . S
C3303 H3278 0.951 . S
C3303 C3301 1.388 . S
C3303 C3304 1.366 . S
C3304 C3303 1.366 . S
C3304 C3305 1.414 . S
C3304 C3307 1.499 . S
C3305 H3279 0.950 . S
C3305 C3304 1.414 . S
C3305 C3306 1.374 . S
C3306 H3280 0.950 . S
C3306 C3302 1.385 . S
C3306 C3305 1.374 . S
C3307 C3304 1.499 . S
C3307 C3308 1.373 . S
C3307 C3309 1.389 . S
C3308 H3281 0.950 . S
C3308 C3294 1.377 . S
C3308 C3307 1.373 . S
C3309 C3293 1.377 . S
C3309 C3307 1.389 . S
C3309 C3310 1.524 . S
C3310 C3309 1.524 . S
C3310 C3311 1.397 . S
C3310 C3315 1.363 . S
C3311 H3282 0.950 . S
C3311 C3310 1.397 . S
C3311 C3312 1.334 . S
C3312 H3283 0.950 . S
C3312 C3311 1.334 . S
C3312 C3313 1.287 . S
C3313 C3312 1.287 . S
C3313 C3314 1.524 . S
C3313 H3316 0.999 . S
C3314 H3284 0.950 . S
C3314 C3313 1.524 . S
C3314 C3315 1.415 . S
C3315 H3285 0.950 . S
C3315 C3310 1.363 . S
C3315 C3314 1.415 . S
H3316 C3313 0.999 . S
H3317 C3298 0.913 . S
H3318 C3336 0.951 . S
H3319 C3338 0.951 . S
H3320 C3340 0.950 . S
H3321 C3341 0.950 . S
H3322 C3343 0.950 . S
H3323 C3346 0.950 . S
H3324 C3347 0.950 . S
H3325 C3349 0.950 . S
H3326 C3350 0.950 . S
H3327 C3351 0.951 . S
H3328 C3353 0.951 . S
H3329 C3355 0.950 . S
H3330 C3356 0.950 . S
H3331 C3358 0.950 . S
H3332 C3361 0.950 . S
H3333 C3362 0.950 . S
H3334 C3364 0.950 . S
H3335 C3365 0.950 . S
C3336 H3318 0.951 . S
C3336 C3337 1.366 . S
C3336 C3338 1.388 . S
C3337 C3336 1.366 . S
C3337 C3341 1.385 . S
C3338 H3319 0.951 . S
C3338 C3336 1.388 . S
C3338 C3339 1.366 . S
C3339 C3338 1.366 . S
C3339 C3340 1.414 . S
C3339 C3342 1.499 . S
C3340 H3320 0.950 . S
C3340 C3339 1.414 . S
C3340 C3341 1.374 . S
C3341 H3321 0.950 . S
C3341 C3337 1.385 . S
C3341 C3340 1.374 . S
C3342 C3339 1.499 . S
C3342 C3343 1.373 . S
C3342 C3344 1.389 . S
C3343 H3322 0.950 . S
C3343 C3342 1.373 . S
C3343 C3359 1.377 . S
C3344 C3342 1.389 . S
C3344 C3345 1.524 . S
C3344 C3358 1.377 . S
C3345 C3344 1.524 . S
C3345 C3346 1.397 . S
C3345 C3350 1.363 . S
C3346 H3323 0.950 . S
C3346 C3345 1.397 . S
C3346 C3347 1.334 . S
C3347 H3324 0.950 . S
C3347 C3346 1.334 . S
C3347 C3348 1.287 . S
C3348 C3347 1.287 . S
C3348 C3349 1.524 . S
C3348 H3367 0.913 . S
C3349 H3325 0.950 . S
C3349 C3348 1.524 . S
C3349 C3350 1.415 . S
C3350 H3326 0.950 . S
C3350 C3345 1.363 . S
C3350 C3349 1.415 . S
C3351 H3327 0.951 . S
C3351 C3352 1.366 . S
C3351 C3353 1.388 . S
C3352 C3351 1.366 . S
C3352 C3356 1.385 . S
C3353 H3328 0.951 . S
C3353 C3351 1.388 . S
C3353 C3354 1.366 . S
C3354 C3353 1.366 . S
C3354 C3355 1.414 . S
C3354 C3357 1.499 . S
C3355 H3329 0.950 . S
C3355 C3354 1.414 . S
C3355 C3356 1.374 . S
C3356 H3330 0.950 . S
C3356 C3352 1.385 . S
C3356 C3355 1.374 . S
C3357 C3354 1.499 . S
C3357 C3358 1.373 . S
C3357 C3359 1.389 . S
C3358 H3331 0.950 . S
C3358 C3344 1.377 . S
C3358 C3357 1.373 . S
C3359 C3343 1.377 . S
C3359 C3357 1.389 . S
C3359 C3360 1.524 . S
C3360 C3359 1.524 . S
C3360 C3361 1.397 . S
C3360 C3365 1.363 . S
C3361 H3332 0.950 . S
C3361 C3360 1.397 . S
C3361 C3362 1.334 . S
C3362 H3333 0.950 . S
C3362 C3361 1.334 . S
C3362 C3363 1.287 . S
C3363 C3362 1.287 . S
C3363 C3364 1.524 . S
C3363 H3366 0.999 . S
C3364 H3334 0.950 . S
C3364 C3363 1.524 . S
C3364 C3365 1.415 . S
C3365 H3335 0.950 . S
C3365 C3360 1.363 . S
C3365 C3364 1.415 . S
H3366 C3363 0.999 . S
H3367 C3348 0.913 . S
H3368 C3386 0.951 . S
H3369 C3388 0.951 . S
H3370 C3390 0.950 . S
H3371 C3391 0.950 . S
H3372 C3393 0.950 . S
H3373 C3396 0.950 . S
H3374 C3397 0.950 . S
H3375 C3399 0.950 . S
H3376 C3400 0.950 . S
H3377 C3401 0.951 . S
H3378 C3403 0.951 . S
H3379 C3405 0.950 . S
H3380 C3406 0.950 . S
H3381 C3408 0.950 . S
H3382 C3411 0.950 . S
H3383 C3412 0.950 . S
H3384 C3414 0.950 . S
H3385 C3415 0.950 . S
C3386 H3368 0.951 . S
C3386 C3387 1.366 . S
C3386 C3388 1.388 . S
C3387 C3386 1.366 . S
C3387 C3391 1.385 . S
C3388 H3369 0.951 . S
C3388 C3386 1.388 . S
C3388 C3389 1.366 . S
C3389 C3388 1.366 . S
C3389 C3390 1.414 . S
C3389 C3392 1.499 . S
C3390 H3370 0.950 . S
C3390 C3389 1.414 . S
C3390 C3391 1.374 . S
C3391 H3371 0.950 . S
C3391 C3387 1.385 . S
C3391 C3390 1.374 . S
C3392 C3389 1.499 . S
C3392 C3393 1.373 . S
C3392 C3394 1.389 . S
C3393 H3372 0.950 . S
C3393 C3392 1.373 . S
C3393 C3409 1.377 . S
C3394 C3392 1.389 . S
C3394 C3395 1.524 . S
C3394 C3408 1.377 . S
C3395 C3394 1.524 . S
C3395 C3396 1.397 . S
C3395 C3400 1.363 . S
C3396 H3373 0.950 . S
C3396 C3395 1.397 . S
C3396 C3397 1.334 . S
C3397 H3374 0.950 . S
C3397 C3396 1.334 . S
C3397 C3398 1.287 . S
C3398 C3397 1.287 . S
C3398 C3399 1.524 . S
C3398 H3417 0.913 . S
C3399 H3375 0.950 . S
C3399 C3398 1.524 . S
C3399 C3400 1.415 . S
C3400 H3376 0.950 . S
C3400 C3395 1.363 . S
C3400 C3399 1.415 . S
C3401 H3377 0.951 . S
C3401 C3402 1.366 . S
C3401 C3403 1.388 . S
C3402 C3401 1.366 . S
C3402 C3406 1.385 . S
C3403 H3378 0.951 . S
C3403 C3401 1.388 . S
C3403 C3404 1.366 . S
C3404 C3403 1.366 . S
C3404 C3405 1.414 . S
C3404 C3407 1.499 . S
C3405 H3379 0.950 . S
C3405 C3404 1.414 . S
C3405 C3406 1.374 . S
C3406 H3380 0.950 . S
C3406 C3402 1.385 . S
C3406 C3405 1.374 . S
C3407 C3404 1.499 . S
C3407 C3408 1.373 . S
C3407 C3409 1.389 . S
C3408 H3381 0.950 . S
C3408 C3394 1.377 . S
C3408 C3407 1.373 . S
C3409 C3393 1.377 . S
C3409 C3407 1.389 . S
C3409 C3410 1.524 . S
C3410 C3409 1.524 . S
C3410 C3411 1.397 . S
C3410 C3415 1.363 . S
C3411 H3382 0.950 . S
C3411 C3410 1.397 . S
C3411 C3412 1.334 . S
C3412 H3383 0.950 . S
C3412 C3411 1.334 . S
C3412 C3413 1.287 . S
C3413 C3412 1.287 . S
C3413 C3414 1.524 . S
C3413 H3416 0.999 . S
C3414 H3384 0.950 . S
C3414 C3413 1.524 . S
C3414 C3415 1.415 . S
C3415 H3385 0.950 . S
C3415 C3410 1.363 . S
C3415 C3414 1.415 . S
H3416 C3413 0.999 . S
H3417 C3398 0.913 . S
H3418 C3436 0.951 . S
H3419 C3438 0.951 . S
H3420 C3440 0.950 . S
H3421 C3441 0.950 . S
H3422 C3443 0.950 . S
H3423 C3446 0.950 . S
H3424 C3447 0.950 . S
H3425 C3449 0.950 . S
H3426 C3450 0.950 . S
H3427 C3451 0.951 . S
H3428 C3453 0.951 . S
H3429 C3455 0.950 . S
H3430 C3456 0.950 . S
H3431 C3458 0.950 . S
H3432 C3461 0.950 . S
H3433 C3462 0.950 . S
H3434 C3464 0.950 . S
H3435 C3465 0.950 . S
C3436 H3418 0.951 . S
C3436 C3437 1.366 . S
C3436 C3438 1.388 . S
C3437 C3436 1.366 . S
C3437 C3441 1.385 . S
C3438 H3419 0.951 . S
C3438 C3436 1.388 . S
C3438 C3439 1.366 . S
C3439 C3438 1.366 . S
C3439 C3440 1.414 . S
C3439 C3442 1.499 . S
C3440 H3420 0.950 . S
C3440 C3439 1.414 . S
C3440 C3441 1.374 . S
C3441 H3421 0.950 . S
C3441 C3437 1.385 . S
C3441 C3440 1.374 . S
C3442 C3439 1.499 . S
C3442 C3443 1.373 . S
C3442 C3444 1.389 . S
C3443 H3422 0.950 . S
C3443 C3442 1.373 . S
C3443 C3459 1.377 . S
C3444 C3442 1.389 . S
C3444 C3445 1.524 . S
C3444 C3458 1.377 . S
C3445 C3444 1.524 . S
C3445 C3446 1.397 . S
C3445 C3450 1.363 . S
C3446 H3423 0.950 . S
C3446 C3445 1.397 . S
C3446 C3447 1.334 . S
C3447 H3424 0.950 . S
C3447 C3446 1.334 . S
C3447 C3448 1.287 . S
C3448 C3447 1.287 . S
C3448 C3449 1.524 . S
C3448 H3467 0.913 . S
C3449 H3425 0.950 . S
C3449 C3448 1.524 . S
C3449 C3450 1.415 . S
C3450 H3426 0.950 . S
C3450 C3445 1.363 . S
C3450 C3449 1.415 . S
C3451 H3427 0.951 . S
C3451 C3452 1.366 . S
C3451 C3453 1.388 . S
C3452 C3451 1.366 . S
C3452 C3456 1.385 . S
C3453 H3428 0.951 . S
C3453 C3451 1.388 . S
C3453 C3454 1.366 . S
C3454 C3453 1.366 . S
C3454 C3455 1.414 . S
C3454 C3457 1.499 . S
C3455 H3429 0.950 . S
C3455 C3454 1.414 . S
C3455 C3456 1.374 . S
C3456 H3430 0.950 . S
C3456 C3452 1.385 . S
C3456 C3455 1.374 . S
C3457 C3454 1.499 . S
C3457 C3458 1.373 . S
C3457 C3459 1.389 . S
C3458 H3431 0.950 . S
C3458 C3444 1.377 . S
C3458 C3457 1.373 . S
C3459 C3443 1.377 . S
C3459 C3457 1.389 . S
C3459 C3460 1.524 . S
C3460 C3459 1.524 . S
C3460 C3461 1.397 . S
C3460 C3465 1.363 . S
C3461 H3432 0.950 . S
C3461 C3460 1.397 . S
C3461 C3462 1.334 . S
C3462 H3433 0.950 . S
C3462 C3461 1.334 . S
C3462 C3463 1.287 . S
C3463 C3462 1.287 . S
C3463 C3464 1.524 . S
C3463 H3466 0.999 . S
C3464 H3434 0.950 . S
C3464 C3463 1.524 . S
C3464 C3465 1.415 . S
C3465 H3435 0.950 . S
C3465 C3460 1.363 . S
C3465 C3464 1.415 . S
H3466 C3463 0.999 . S
H3467 C3448 0.913 . S
H3468 C3486 0.951 . S
H3469 C3488 0.951 . S
H3470 C3490 0.950 . S
H3471 C3491 0.950 . S
H3472 C3493 0.950 . S
H3473 C3496 0.950 . S
H3474 C3497 0.950 . S
H3475 C3499 0.950 . S
H3476 C3500 0.950 . S
H3477 C3501 0.951 . S
H3478 C3503 0.951 . S
H3479 C3505 0.950 . S
H3480 C3506 0.950 . S
H3481 C3508 0.950 . S
H3482 C3511 0.950 . S
H3483 C3512 0.950 . S
H3484 C3514 0.950 . S
H3485 C3515 0.950 . S
C3486 H3468 0.951 . S
C3486 C3487 1.366 . S
C3486 C3488 1.388 . S
C3487 C3486 1.366 . S
C3487 C3491 1.385 . S
C3488 H3469 0.951 . S
C3488 C3486 1.388 . S
C3488 C3489 1.366 . S
C3489 C3488 1.366 . S
C3489 C3490 1.414 . S
C3489 C3492 1.499 . S
C3490 H3470 0.950 . S
C3490 C3489 1.414 . S
C3490 C3491 1.374 . S
C3491 H3471 0.950 . S
C3491 C3487 1.385 . S
C3491 C3490 1.374 . S
C3492 C3489 1.499 . S
C3492 C3493 1.373 . S
C3492 C3494 1.389 . S
C3493 H3472 0.950 . S
C3493 C3492 1.373 . S
C3493 C3509 1.377 . S
C3494 C3492 1.389 . S
C3494 C3495 1.524 . S
C3494 C3508 1.377 . S
C3495 C3494 1.524 . S
C3495 C3496 1.397 . S
C3495 C3500 1.363 . S
C3496 H3473 0.950 . S
C3496 C3495 1.397 . S
C3496 C3497 1.334 . S
C3497 H3474 0.950 . S
C3497 C3496 1.334 . S
C3497 C3498 1.287 . S
C3498 C3497 1.287 . S
C3498 C3499 1.524 . S
C3498 H3517 0.913 . S
C3499 H3475 0.950 . S
C3499 C3498 1.524 . S
C3499 C3500 1.415 . S
C3500 H3476 0.950 . S
C3500 C3495 1.363 . S
C3500 C3499 1.415 . S
C3501 H3477 0.951 . S
C3501 C3502 1.366 . S
C3501 C3503 1.388 . S
C3502 C3501 1.366 . S
C3502 C3506 1.385 . S
C3503 H3478 0.951 . S
C3503 C3501 1.388 . S
C3503 C3504 1.366 . S
C3504 C3503 1.366 . S
C3504 C3505 1.414 . S
C3504 C3507 1.499 . S
C3505 H3479 0.950 . S
C3505 C3504 1.414 . S
C3505 C3506 1.374 . S
C3506 H3480 0.950 . S
C3506 C3502 1.385 . S
C3506 C3505 1.374 . S
C3507 C3504 1.499 . S
C3507 C3508 1.373 . S
C3507 C3509 1.389 . S
C3508 H3481 0.950 . S
C3508 C3494 1.377 . S
C3508 C3507 1.373 . S
C3509 C3493 1.377 . S
C3509 C3507 1.389 . S
C3509 C3510 1.524 . S
C3510 C3509 1.524 . S
C3510 C3511 1.397 . S
C3510 C3515 1.363 . S
C3511 H3482 0.950 . S
C3511 C3510 1.397 . S
C3511 C3512 1.334 . S
C3512 H3483 0.950 . S
C3512 C3511 1.334 . S
C3512 C3513 1.287 . S
C3513 C3512 1.287 . S
C3513 C3514 1.524 . S
C3513 H3516 0.999 . S
C3514 H3484 0.950 . S
C3514 C3513 1.524 . S
C3514 C3515 1.415 . S
C3515 H3485 0.950 . S
C3515 C3510 1.363 . S
C3515 C3514 1.415 . S
H3516 C3513 0.999 . S
H3517 C3498 0.913 . S
H3518 C3536 0.951 . S
H3519 C3538 0.951 . S
H3520 C3540 0.950 . S
H3521 C3541 0.950 . S
H3522 C3543 0.950 . S
H3523 C3546 0.950 . S
H3524 C3547 0.950 . S
H3525 C3549 0.950 . S
H3526 C3550 0.950 . S
H3527 C3551 0.951 . S
H3528 C3553 0.951 . S
H3529 C3555 0.950 . S
H3530 C3556 0.950 . S
H3531 C3558 0.950 . S
H3532 C3561 0.950 . S
H3533 C3562 0.950 . S
H3534 C3564 0.950 . S
H3535 C3565 0.950 . S
C3536 H3518 0.951 . S
C3536 C3537 1.366 . S
C3536 C3538 1.388 . S
C3537 C3536 1.366 . S
C3537 C3541 1.385 . S
C3538 H3519 0.951 . S
C3538 C3536 1.388 . S
C3538 C3539 1.366 . S
C3539 C3538 1.366 . S
C3539 C3540 1.414 . S
C3539 C3542 1.499 . S
C3540 H3520 0.950 . S
C3540 C3539 1.414 . S
C3540 C3541 1.374 . S
C3541 H3521 0.950 . S
C3541 C3537 1.385 . S
C3541 C3540 1.374 . S
C3542 C3539 1.499 . S
C3542 C3543 1.373 . S
C3542 C3544 1.389 . S
C3543 H3522 0.950 . S
C3543 C3542 1.373 . S
C3543 C3559 1.377 . S
C3544 C3542 1.389 . S
C3544 C3545 1.524 . S
C3544 C3558 1.377 . S
C3545 C3544 1.524 . S
C3545 C3546 1.397 . S
C3545 C3550 1.363 . S
C3546 H3523 0.950 . S
C3546 C3545 1.397 . S
C3546 C3547 1.334 . S
C3547 H3524 0.950 . S
C3547 C3546 1.334 . S
C3547 C3548 1.287 . S
C3548 C3547 1.287 . S
C3548 C3549 1.524 . S
C3548 H3567 0.913 . S
C3549 H3525 0.950 . S
C3549 C3548 1.524 . S
C3549 C3550 1.415 . S
C3550 H3526 0.950 . S
C3550 C3545 1.363 . S
C3550 C3549 1.415 . S
C3551 H3527 0.951 . S
C3551 C3552 1.366 . S
C3551 C3553 1.388 . S
C3552 C3551 1.366 . S
C3552 C3556 1.385 . S
C3553 H3528 0.951 . S
C3553 C3551 1.388 . S
C3553 C3554 1.366 . S
C3554 C3553 1.366 . S
C3554 C3555 1.414 . S
C3554 C3557 1.499 . S
C3555 H3529 0.950 . S
C3555 C3554 1.414 . S
C3555 C3556 1.374 . S
C3556 H3530 0.950 . S
C3556 C3552 1.385 . S
C3556 C3555 1.374 . S
C3557 C3554 1.499 . S
C3557 C3558 1.373 . S
C3557 C3559 1.389 . S
C3558 H3531 0.950 . S
C3558 C3544 1.377 . S
C3558 C3557 1.373 . S
C3559 C3543 1.377 . S
C3559 C3557 1.389 . S
C3559 C3560 1.524 . S
C3560 C3559 1.524 . S
C3560 C3561 1.397 . S
C3560 C3565 1.363 . S
C3561 H3532 0.950 . S
C3561 C3560 1.397 . S
C3561 C3562 1.334 . S
C3562 H3533 0.950 . S
C3562 C3561 1.334 . S
C3562 C3563 1.287 . S
C3563 C3562 1.287 . S
C3563 C3564 1.524 . S
C3563 H3566 0.999 . S
C3564 H3534 0.950 . S
C3564 C3563 1.524 . S
C3564 C3565 1.415 . S
C3565 H3535 0.950 . S
C3565 C3560 1.363 . S
C3565 C3564 1.415 . S
H3566 C3563 0.999 . S
H3567 C3548 0.913 . S
H3568 C3586 0.951 . S
H3569 C3588 0.951 . S
H3570 C3590 0.950 . S
H3571 C3591 0.950 . S
H3572 C3593 0.950 . S
H3573 C3596 0.950 . S
H3574 C3597 0.950 . S
H3575 C3599 0.950 . S
H3576 C3600 0.950 . S
H3577 C3601 0.951 . S
H3578 C3603 0.951 . S
H3579 C3605 0.950 . S
H3580 C3606 0.950 . S
H3581 C3608 0.950 . S
H3582 C3611 0.950 . S
H3583 C3612 0.950 . S
H3584 C3614 0.950 . S
H3585 C3615 0.950 . S
C3586 H3568 0.951 . S
C3586 C3587 1.366 . S
C3586 C3588 1.388 . S
C3587 C3586 1.366 . S
C3587 C3591 1.385 . S
C3588 H3569 0.951 . S
C3588 C3586 1.388 . S
C3588 C3589 1.366 . S
C3589 C3588 1.366 . S
C3589 C3590 1.414 . S
C3589 C3592 1.499 . S
C3590 H3570 0.950 . S
C3590 C3589 1.414 . S
C3590 C3591 1.374 . S
C3591 H3571 0.950 . S
C3591 C3587 1.385 . S
C3591 C3590 1.374 . S
C3592 C3589 1.499 . S
C3592 C3593 1.373 . S
C3592 C3594 1.389 . S
C3593 H3572 0.950 . S
C3593 C3592 1.373 . S
C3593 C3609 1.377 . S
C3594 C3592 1.389 . S
C3594 C3595 1.524 . S
C3594 C3608 1.377 . S
C3595 C3594 1.524 . S
C3595 C3596 1.397 . S
C3595 C3600 1.363 . S
C3596 H3573 0.950 . S
C3596 C3595 1.397 . S
C3596 C3597 1.334 . S
C3597 H3574 0.950 . S
C3597 C3596 1.334 . S
C3597 C3598 1.287 . S
C3598 C3597 1.287 . S
C3598 C3599 1.524 . S
C3598 H3617 0.913 . S
C3599 H3575 0.950 . S
C3599 C3598 1.524 . S
C3599 C3600 1.415 . S
C3600 H3576 0.950 . S
C3600 C3595 1.363 . S
C3600 C3599 1.415 . S
C3601 H3577 0.951 . S
C3601 C3602 1.366 . S
C3601 C3603 1.388 . S
C3602 C3601 1.366 . S
C3602 C3606 1.385 . S
C3603 H3578 0.951 . S
C3603 C3601 1.388 . S
C3603 C3604 1.366 . S
C3604 C3603 1.366 . S
C3604 C3605 1.414 . S
C3604 C3607 1.499 . S
C3605 H3579 0.950 . S
C3605 C3604 1.414 . S
C3605 C3606 1.374 . S
C3606 H3580 0.950 . S
C3606 C3602 1.385 . S
C3606 C3605 1.374 . S
C3607 C3604 1.499 . S
C3607 C3608 1.373 . S
C3607 C3609 1.389 . S
C3608 H3581 0.950 . S
C3608 C3594 1.377 . S
C3608 C3607 1.373 . S
C3609 C3593 1.377 . S
C3609 C3607 1.389 . S
C3609 C3610 1.524 . S
C3610 C3609 1.524 . S
C3610 C3611 1.397 . S
C3610 C3615 1.363 . S
C3611 H3582 0.950 . S
C3611 C3610 1.397 . S
C3611 C3612 1.334 . S
C3612 H3583 0.950 . S
C3612 C3611 1.334 . S
C3612 C3613 1.287 . S
C3613 C3612 1.287 . S
C3613 C3614 1.524 . S
C3613 H3616 0.999 . S
C3614 H3584 0.950 . S
C3614 C3613 1.524 . S
C3614 C3615 1.415 . S
C3615 H3585 0.950 . S
C3615 C3610 1.363 . S
C3615 C3614 1.415 . S
H3616 C3613 0.999 . S
H3617 C3598 0.913 . S
H3618 C3636 0.951 . S
H3619 C3638 0.951 . S
H3620 C3640 0.950 . S
H3621 C3641 0.950 . S
H3622 C3643 0.950 . S
H3623 C3646 0.950 . S
H3624 C3647 0.950 . S
H3625 C3649 0.950 . S
H3626 C3650 0.950 . S
H3627 C3651 0.951 . S
H3628 C3653 0.951 . S
H3629 C3655 0.950 . S
H3630 C3656 0.950 . S
H3631 C3658 0.950 . S
H3632 C3661 0.950 . S
H3633 C3662 0.950 . S
H3634 C3664 0.950 . S
H3635 C3665 0.950 . S
C3636 H3618 0.951 . S
C3636 C3637 1.366 . S
C3636 C3638 1.388 . S
C3637 C3636 1.366 . S
C3637 C3641 1.385 . S
C3638 H3619 0.951 . S
C3638 C3636 1.388 . S
C3638 C3639 1.366 . S
C3639 C3638 1.366 . S
C3639 C3640 1.414 . S
C3639 C3642 1.499 . S
C3640 H3620 0.950 . S
C3640 C3639 1.414 . S
C3640 C3641 1.374 . S
C3641 H3621 0.950 . S
C3641 C3637 1.385 . S
C3641 C3640 1.374 . S
C3642 C3639 1.499 . S
C3642 C3643 1.373 . S
C3642 C3644 1.389 . S
C3643 H3622 0.950 . S
C3643 C3642 1.373 . S
C3643 C3659 1.377 . S
C3644 C3642 1.389 . S
C3644 C3645 1.524 . S
C3644 C3658 1.377 . S
C3645 C3644 1.524 . S
C3645 C3646 1.397 . S
C3645 C3650 1.363 . S
C3646 H3623 0.950 . S
C3646 C3645 1.397 . S
C3646 C3647 1.334 . S
C3647 H3624 0.950 . S
C3647 C3646 1.334 . S
C3647 C3648 1.287 . S
C3648 C3647 1.287 . S
C3648 C3649 1.524 . S
C3648 H3667 0.913 . S
C3649 H3625 0.950 . S
C3649 C3648 1.524 . S
C3649 C3650 1.415 . S
C3650 H3626 0.950 . S
C3650 C3645 1.363 . S
C3650 C3649 1.415 . S
C3651 H3627 0.951 . S
C3651 C3652 1.366 . S
C3651 C3653 1.388 . S
C3652 C3651 1.366 . S
C3652 C3656 1.385 . S
C3653 H3628 0.951 . S
C3653 C3651 1.388 . S
C3653 C3654 1.366 . S
C3654 C3653 1.366 . S
C3654 C3655 1.414 . S
C3654 C3657 1.499 . S
C3655 H3629 0.950 . S
C3655 C3654 1.414 . S
C3655 C3656 1.374 . S
C3656 H3630 0.950 . S
C3656 C3652 1.385 . S
C3656 C3655 1.374 . S
C3657 C3654 1.499 . S
C3657 C3658 1.373 . S
C3657 C3659 1.389 . S
C3658 H3631 0.950 . S
C3658 C3644 1.377 . S
C3658 C3657 1.373 . S
C3659 C3643 1.377 . S
C3659 C3657 1.389 . S
C3659 C3660 1.524 . S
C3660 C3659 1.524 . S
C3660 C3661 1.397 . S
C3660 C3665 1.363 . S
C3661 H3632 0.950 . S
C3661 C3660 1.397 . S
C3661 C3662 1.334 1_554 S
C3662 H3633 0.950 . S
C3662 C3661 1.334 1_556 S
C3662 C3663 1.287 . S
C3663 C3662 1.287 . S
C3663 C3664 1.524 . S
C3663 H3666 0.999 . S
C3664 H3634 0.950 . S
C3664 C3663 1.524 . S
C3664 C3665 1.415 1_556 S
C3665 H3635 0.950 . S
C3665 C3660 1.363 . S
C3665 C3664 1.415 1_554 S
H3666 C3663 0.999 . S
H3667 C3648 0.913 . S
H3668 C3686 0.951 . S
H3669 C3688 0.951 . S
H3670 C3690 0.950 . S
H3671 C3691 0.950 . S
H3672 C3693 0.950 . S
H3673 C3696 0.950 . S
H3674 C3697 0.950 . S
H3675 C3699 0.950 . S
H3676 C3700 0.950 . S
H3677 C3701 0.951 . S
H3678 C3703 0.951 . S
H3679 C3705 0.950 . S
H3680 C3706 0.950 . S
H3681 C3708 0.950 . S
H3682 C3711 0.950 . S
H3683 C3712 0.950 . S
H3684 C3714 0.950 . S
H3685 C3715 0.950 1_554 S
C3686 H3668 0.951 . S
C3686 C3687 1.366 . S
C3686 C3688 1.388 . S
C3687 C3686 1.366 . S
C3687 C3691 1.385 . S
C3688 H3669 0.951 . S
C3688 C3686 1.388 . S
C3688 C3689 1.366 . S
C3689 C3688 1.366 . S
C3689 C3690 1.414 . S
C3689 C3692 1.499 . S
C3690 H3670 0.950 . S
C3690 C3689 1.414 . S
C3690 C3691 1.374 . S
C3691 H3671 0.950 . S
C3691 C3687 1.385 . S
C3691 C3690 1.374 . S
C3692 C3689 1.499 . S
C3692 C3693 1.373 . S
C3692 C3694 1.389 . S
C3693 H3672 0.950 . S
C3693 C3692 1.373 . S
C3693 C3709 1.377 . S
C3694 C3692 1.389 . S
C3694 C3695 1.524 . S
C3694 C3708 1.377 . S
C3695 C3694 1.524 . S
C3695 C3696 1.397 . S
C3695 C3700 1.363 . S
C3696 H3673 0.950 . S
C3696 C3695 1.397 . S
C3696 C3697 1.334 . S
C3697 H3674 0.950 . S
C3697 C3696 1.334 . S
C3697 C3698 1.287 . S
C3698 C3697 1.287 . S
C3698 C3699 1.524 . S
C3698 H3717 0.913 . S
C3699 H3675 0.950 . S
C3699 C3698 1.524 . S
C3699 C3700 1.415 . S
C3700 H3676 0.950 . S
C3700 C3695 1.363 . S
C3700 C3699 1.415 . S
C3701 H3677 0.951 . S
C3701 C3702 1.366 . S
C3701 C3703 1.388 . S
C3702 C3701 1.366 . S
C3702 C3706 1.385 . S
C3703 H3678 0.951 . S
C3703 C3701 1.388 . S
C3703 C3704 1.366 . S
C3704 C3703 1.366 . S
C3704 C3705 1.414 . S
C3704 C3707 1.499 . S
C3705 H3679 0.950 . S
C3705 C3704 1.414 . S
C3705 C3706 1.374 . S
C3706 H3680 0.950 . S
C3706 C3702 1.385 . S
C3706 C3705 1.374 . S
C3707 C3704 1.499 . S
C3707 C3708 1.373 . S
C3707 C3709 1.389 . S
C3708 H3681 0.950 . S
C3708 C3694 1.377 . S
C3708 C3707 1.373 . S
C3709 C3693 1.377 . S
C3709 C3707 1.389 . S
C3709 C3710 1.524 . S
C3710 C3709 1.524 . S
C3710 C3711 1.397 . S
C3710 C3715 1.363 1_554 S
C3711 H3682 0.950 . S
C3711 C3710 1.397 . S
C3711 C3712 1.334 1_554 S
C3712 H3683 0.950 . S
C3712 C3711 1.334 1_556 S
C3712 C3713 1.287 . S
C3713 C3712 1.287 . S
C3713 C3714 1.524 . S
C3713 H3716 0.999 . S
C3714 H3684 0.950 . S
C3714 C3713 1.524 . S
C3714 C3715 1.415 . S
C3715 H3685 0.950 1_556 S
C3715 C3710 1.363 1_556 S
C3715 C3714 1.415 . S
H3716 C3713 0.999 . S
H3717 C3698 0.913 . S
H3718 C3736 0.951 . S
H3719 C3738 0.951 . S
H3720 C3740 0.950 . S
H3721 C3741 0.950 . S
H3722 C3743 0.950 . S
H3723 C3746 0.950 . S
H3724 C3747 0.950 . S
H3725 C3749 0.950 . S
H3726 C3750 0.950 1_556 S
H3727 C3751 0.951 . S
H3728 C3753 0.951 . S
H3729 C3755 0.950 . S
H3730 C3756 0.950 . S
H3731 C3758 0.950 . S
H3732 C3761 0.950 . S
H3733 C3762 0.950 . S
H3734 C3764 0.950 . S
H3735 C3765 0.950 . S
C3736 H3718 0.951 . S
C3736 C3737 1.366 . S
C3736 C3738 1.388 . S
C3737 C3736 1.366 . S
C3737 C3741 1.385 . S
C3738 H3719 0.951 . S
C3738 C3736 1.388 . S
C3738 C3739 1.366 . S
C3739 C3738 1.366 . S
C3739 C3740 1.414 . S
C3739 C3742 1.499 . S
C3740 H3720 0.950 . S
C3740 C3739 1.414 . S
C3740 C3741 1.374 . S
C3741 H3721 0.950 . S
C3741 C3737 1.385 . S
C3741 C3740 1.374 . S
C3742 C3739 1.499 . S
C3742 C3743 1.373 . S
C3742 C3744 1.389 . S
C3743 H3722 0.950 . S
C3743 C3742 1.373 . S
C3743 C3759 1.377 . S
C3744 C3742 1.389 . S
C3744 C3745 1.524 . S
C3744 C3758 1.377 . S
C3745 C3744 1.524 . S
C3745 C3746 1.397 . S
C3745 C3750 1.363 . S
C3746 H3723 0.950 . S
C3746 C3745 1.397 . S
C3746 C3747 1.334 . S
C3747 H3724 0.950 . S
C3747 C3746 1.334 . S
C3747 C3748 1.287 . S
C3748 C3747 1.287 . S
C3748 C3749 1.524 1_554 S
C3748 H3767 0.913 1_554 S
C3749 H3725 0.950 . S
C3749 C3748 1.524 1_556 S
C3749 C3750 1.415 1_556 S
C3750 H3726 0.950 1_554 S
C3750 C3745 1.363 . S
C3750 C3749 1.415 1_554 S
C3751 H3727 0.951 . S
C3751 C3752 1.366 . S
C3751 C3753 1.388 . S
C3752 C3751 1.366 . S
C3752 C3756 1.385 . S
C3753 H3728 0.951 . S
C3753 C3751 1.388 . S
C3753 C3754 1.366 . S
C3754 C3753 1.366 . S
C3754 C3755 1.414 . S
C3754 C3757 1.499 . S
C3755 H3729 0.950 . S
C3755 C3754 1.414 . S
C3755 C3756 1.374 . S
C3756 H3730 0.950 . S
C3756 C3752 1.385 . S
C3756 C3755 1.374 . S
C3757 C3754 1.499 . S
C3757 C3758 1.373 . S
C3757 C3759 1.389 . S
C3758 H3731 0.950 . S
C3758 C3744 1.377 . S
C3758 C3757 1.373 . S
C3759 C3743 1.377 . S
C3759 C3757 1.389 . S
C3759 C3760 1.524 . S
C3760 C3759 1.524 . S
C3760 C3761 1.397 . S
C3760 C3765 1.363 . S
C3761 H3732 0.950 . S
C3761 C3760 1.397 . S
C3761 C3762 1.334 . S
C3762 H3733 0.950 . S
C3762 C3761 1.334 . S
C3762 C3763 1.287 . S
C3763 C3762 1.287 . S
C3763 C3764 1.524 . S
C3763 H3766 0.999 . S
C3764 H3734 0.950 . S
C3764 C3763 1.524 . S
C3764 C3765 1.415 . S
C3765 H3735 0.950 . S
C3765 C3760 1.363 . S
C3765 C3764 1.415 . S
H3766 C3763 0.999 . S
H3767 C3748 0.913 1_556 S
H3768 C3786 0.951 . S
H3769 C3788 0.951 . S
H3770 C3790 0.950 . S
H3771 C3791 0.950 . S
H3772 C3793 0.950 . S
H3773 C3796 0.950 . S
H3774 C3797 0.950 . S
H3775 C3799 0.950 . S
H3776 C3800 0.950 . S
H3777 C3801 0.951 . S
H3778 C3803 0.951 . S
H3779 C3805 0.950 . S
H3780 C3806 0.950 . S
H3781 C3808 0.950 . S
H3782 C3811 0.950 . S
H3783 C3812 0.950 . S
H3784 C3814 0.950 . S
H3785 C3815 0.950 1_554 S
C3786 H3768 0.951 . S
C3786 C3787 1.366 . S
C3786 C3788 1.388 . S
C3787 C3786 1.366 . S
C3787 C3791 1.385 . S
C3788 H3769 0.951 . S
C3788 C3786 1.388 . S
C3788 C3789 1.366 . S
C3789 C3788 1.366 . S
C3789 C3790 1.414 . S
C3789 C3792 1.499 . S
C3790 H3770 0.950 . S
C3790 C3789 1.414 . S
C3790 C3791 1.374 . S
C3791 H3771 0.950 . S
C3791 C3787 1.385 . S
C3791 C3790 1.374 . S
C3792 C3789 1.499 . S
C3792 C3793 1.373 . S
C3792 C3794 1.389 . S
C3793 H3772 0.950 . S
C3793 C3792 1.373 . S
C3793 C3809 1.377 . S
C3794 C3792 1.389 . S
C3794 C3795 1.524 . S
C3794 C3808 1.377 . S
C3795 C3794 1.524 . S
C3795 C3796 1.397 . S
C3795 C3800 1.363 . S
C3796 H3773 0.950 . S
C3796 C3795 1.397 . S
C3796 C3797 1.334 . S
C3797 H3774 0.950 . S
C3797 C3796 1.334 . S
C3797 C3798 1.287 . S
C3798 C3797 1.287 . S
C3798 C3799 1.524 . S
C3798 H3817 0.913 . S
C3799 H3775 0.950 . S
C3799 C3798 1.524 . S
C3799 C3800 1.415 . S
C3800 H3776 0.950 . S
C3800 C3795 1.363 . S
C3800 C3799 1.415 . S
C3801 H3777 0.951 . S
C3801 C3802 1.366 . S
C3801 C3803 1.388 . S
C3802 C3801 1.366 . S
C3802 C3806 1.385 . S
C3803 H3778 0.951 . S
C3803 C3801 1.388 . S
C3803 C3804 1.366 . S
C3804 C3803 1.366 . S
C3804 C3805 1.414 . S
C3804 C3807 1.499 . S
C3805 H3779 0.950 . S
C3805 C3804 1.414 . S
C3805 C3806 1.374 . S
C3806 H3780 0.950 . S
C3806 C3802 1.385 . S
C3806 C3805 1.374 . S
C3807 C3804 1.499 . S
C3807 C3808 1.373 . S
C3807 C3809 1.389 . S
C3808 H3781 0.950 . S
C3808 C3794 1.377 . S
C3808 C3807 1.373 . S
C3809 C3793 1.377 . S
C3809 C3807 1.389 . S
C3809 C3810 1.524 . S
C3810 C3809 1.524 . S
C3810 C3811 1.397 . S
C3810 C3815 1.363 . S
C3811 H3782 0.950 . S
C3811 C3810 1.397 . S
C3811 C3812 1.334 . S
C3812 H3783 0.950 . S
C3812 C3811 1.334 . S
C3812 C3813 1.287 . S
C3813 C3812 1.287 . S
C3813 C3814 1.524 1_556 S
C3813 H3816 0.999 . S
C3814 H3784 0.950 . S
C3814 C3813 1.524 1_554 S
C3814 C3815 1.415 1_554 S
C3815 H3785 0.950 1_556 S
C3815 C3810 1.363 . S
C3815 C3814 1.415 1_556 S
H3816 C3813 0.999 . S
H3817 C3798 0.913 . S
H3818 C3836 0.951 . S
H3819 C3838 0.951 . S
H3820 C3840 0.950 . S
H3821 C3841 0.950 . S
H3822 C3843 0.950 . S
H3823 C3846 0.950 . S
H3824 C3847 0.950 . S
H3825 C3849 0.950 . S
H3826 C3850 0.950 . S
H3827 C3851 0.951 . S
H3828 C3853 0.951 . S
H3829 C3855 0.950 . S
H3830 C3856 0.950 . S
H3831 C3858 0.950 . S
H3832 C3861 0.950 . S
H3833 C3862 0.950 1_554 S
H3834 C3864 0.950 . S
H3835 C3865 0.950 . S
C3836 H3818 0.951 . S
C3836 C3837 1.366 . S
C3836 C3838 1.388 . S
C3837 C3836 1.366 . S
C3837 C3841 1.385 . S
C3838 H3819 0.951 . S
C3838 C3836 1.388 . S
C3838 C3839 1.366 . S
C3839 C3838 1.366 . S
C3839 C3840 1.414 . S
C3839 C3842 1.499 . S
C3840 H3820 0.950 . S
C3840 C3839 1.414 . S
C3840 C3841 1.374 . S
C3841 H3821 0.950 . S
C3841 C3837 1.385 . S
C3841 C3840 1.374 . S
C3842 C3839 1.499 . S
C3842 C3843 1.373 . S
C3842 C3844 1.389 . S
C3843 H3822 0.950 . S
C3843 C3842 1.373 . S
C3843 C3859 1.377 . S
C3844 C3842 1.389 . S
C3844 C3845 1.524 . S
C3844 C3858 1.377 . S
C3845 C3844 1.524 . S
C3845 C3846 1.397 . S
C3845 C3850 1.363 . S
C3846 H3823 0.950 . S
C3846 C3845 1.397 . S
C3846 C3847 1.334 . S
C3847 H3824 0.950 . S
C3847 C3846 1.334 . S
C3847 C3848 1.287 . S
C3848 C3847 1.287 . S
C3848 C3849 1.524 . S
C3848 H3867 0.913 . S
C3849 H3825 0.950 . S
C3849 C3848 1.524 . S
C3849 C3850 1.415 . S
C3850 H3826 0.950 . S
C3850 C3845 1.363 . S
C3850 C3849 1.415 . S
C3851 H3827 0.951 . S
C3851 C3852 1.366 . S
C3851 C3853 1.388 . S
C3852 C3851 1.366 . S
C3852 C3856 1.385 . S
C3853 H3828 0.951 . S
C3853 C3851 1.388 . S
C3853 C3854 1.366 . S
C3854 C3853 1.366 . S
C3854 C3855 1.414 . S
C3854 C3857 1.499 . S
C3855 H3829 0.950 . S
C3855 C3854 1.414 . S
C3855 C3856 1.374 . S
C3856 H3830 0.950 . S
C3856 C3852 1.385 . S
C3856 C3855 1.374 . S
C3857 C3854 1.499 . S
C3857 C3858 1.373 . S
C3857 C3859 1.389 . S
C3858 H3831 0.950 . S
C3858 C3844 1.377 . S
C3858 C3857 1.373 . S
C3859 C3843 1.377 . S
C3859 C3857 1.389 . S
C3859 C3860 1.524 . S
C3860 C3859 1.524 . S
C3860 C3861 1.397 . S
C3860 C3865 1.363 . S
C3861 H3832 0.950 . S
C3861 C3860 1.397 . S
C3861 C3862 1.334 . S
C3862 H3833 0.950 1_556 S
C3862 C3861 1.334 . S
C3862 C3863 1.287 . S
C3863 C3862 1.287 . S
C3863 C3864 1.524 . S
C3863 H3866 0.999 . S
C3864 H3834 0.950 . S
C3864 C3863 1.524 . S
C3864 C3865 1.415 . S
C3865 H3835 0.950 . S
C3865 C3860 1.363 . S
C3865 C3864 1.415 . S
H3866 C3863 0.999 . S
H3867 C3848 0.913 . S
H3868 C3886 0.951 . S
H3869 C3888 0.951 . S
H3870 C3890 0.950 . S
H3871 C3891 0.950 . S
H3872 C3893 0.950 . S
H3873 C3896 0.950 . S
H3874 C3897 0.950 . S
H3875 C3899 0.950 . S
H3876 C3900 0.950 . S
H3877 C3901 0.951 . S
H3878 C3903 0.951 . S
H3879 C3905 0.950 . S
H3880 C3906 0.950 . S
H3881 C3908 0.950 . S
H3882 C3911 0.950 . S
H3883 C3912 0.950 . S
H3884 C3914 0.950 . S
H3885 C3915 0.950 . S
C3886 H3868 0.951 . S
C3886 C3887 1.366 . S
C3886 C3888 1.388 . S
C3887 C3886 1.366 . S
C3887 C3891 1.385 . S
C3888 H3869 0.951 . S
C3888 C3886 1.388 . S
C3888 C3889 1.366 . S
C3889 C3888 1.366 . S
C3889 C3890 1.414 . S
C3889 C3892 1.499 . S
C3890 H3870 0.950 . S
C3890 C3889 1.414 . S
C3890 C3891 1.374 . S
C3891 H3871 0.950 . S
C3891 C3887 1.385 . S
C3891 C3890 1.374 . S
C3892 C3889 1.499 . S
C3892 C3893 1.373 . S
C3892 C3894 1.389 . S
C3893 H3872 0.950 . S
C3893 C3892 1.373 . S
C3893 C3909 1.377 . S
C3894 C3892 1.389 . S
C3894 C3895 1.524 . S
C3894 C3908 1.377 . S
C3895 C3894 1.524 . S
C3895 C3896 1.397 . S
C3895 C3900 1.363 . S
C3896 H3873 0.950 . S
C3896 C3895 1.397 . S
C3896 C3897 1.334 . S
C3897 H3874 0.950 . S
C3897 C3896 1.334 . S
C3897 C3898 1.287 . S
C3898 C3897 1.287 . S
C3898 C3899 1.524 . S
C3898 H3917 0.913 . S
C3899 H3875 0.950 . S
C3899 C3898 1.524 . S
C3899 C3900 1.415 . S
C3900 H3876 0.950 . S
C3900 C3895 1.363 . S
C3900 C3899 1.415 . S
C3901 H3877 0.951 . S
C3901 C3902 1.366 . S
C3901 C3903 1.388 . S
C3902 C3901 1.366 . S
C3902 C3906 1.385 . S
C3903 H3878 0.951 . S
C3903 C3901 1.388 . S
C3903 C3904 1.366 . S
C3904 C3903 1.366 . S
C3904 C3905 1.414 . S
C3904 C3907 1.499 . S
C3905 H3879 0.950 . S
C3905 C3904 1.414 . S
C3905 C3906 1.374 . S
C3906 H3880 0.950 . S
C3906 C3902 1.385 . S
C3906 C3905 1.374 . S
C3907 C3904 1.499 . S
C3907 C3908 1.373 . S
C3907 C3909 1.389 . S
C3908 H3881 0.950 . S
C3908 C3894 1.377 . S
C3908 C3907 1.373 . S
C3909 C3893 1.377 . S
C3909 C3907 1.389 . S
C3909 C3910 1.524 . S
C3910 C3909 1.524 . S
C3910 C3911 1.397 . S
C3910 C3915 1.363 . S
C3911 H3882 0.950 . S
C3911 C3910 1.397 . S
C3911 C3912 1.334 . S
C3912 H3883 0.950 . S
C3912 C3911 1.334 . S
C3912 C3913 1.287 . S
C3913 C3912 1.287 . S
C3913 C3914 1.524 . S
C3913 H3916 0.999 . S
C3914 H3884 0.950 . S
C3914 C3913 1.524 . S
C3914 C3915 1.415 . S
C3915 H3885 0.950 . S
C3915 C3910 1.363 . S
C3915 C3914 1.415 . S
H3916 C3913 0.999 . S
H3917 C3898 0.913 . S
H3918 C3936 0.951 . S
H3919 C3938 0.951 . S
H3920 C3940 0.950 . S
H3921 C3941 0.950 . S
H3922 C3943 0.950 . S
H3923 C3946 0.950 . S
H3924 C3947 0.950 . S
H3925 C3949 0.950 . S
H3926 C3950 0.950 . S
H3927 C3951 0.951 . S
H3928 C3953 0.951 . S
H3929 C3955 0.950 . S
H3930 C3956 0.950 . S
H3931 C3958 0.950 . S
H3932 C3961 0.950 . S
H3933 C3962 0.950 . S
H3934 C3964 0.950 . S
H3935 C3965 0.950 . S
C3936 H3918 0.951 . S
C3936 C3937 1.366 . S
C3936 C3938 1.388 . S
C3937 C3936 1.366 . S
C3937 C3941 1.385 . S
C3938 H3919 0.951 . S
C3938 C3936 1.388 . S
C3938 C3939 1.366 . S
C3939 C3938 1.366 . S
C3939 C3940 1.414 . S
C3939 C3942 1.499 . S
C3940 H3920 0.950 . S
C3940 C3939 1.414 . S
C3940 C3941 1.374 . S
C3941 H3921 0.950 . S
C3941 C3937 1.385 . S
C3941 C3940 1.374 . S
C3942 C3939 1.499 . S
C3942 C3943 1.373 . S
C3942 C3944 1.389 . S
C3943 H3922 0.950 . S
C3943 C3942 1.373 . S
C3943 C3959 1.377 . S
C3944 C3942 1.389 . S
C3944 C3945 1.524 . S
C3944 C3958 1.377 . S
C3945 C3944 1.524 . S
C3945 C3946 1.397 . S
C3945 C3950 1.363 . S
C3946 H3923 0.950 . S
C3946 C3945 1.397 . S
C3946 C3947 1.334 . S
C3947 H3924 0.950 . S
C3947 C3946 1.334 . S
C3947 C3948 1.287 . S
C3948 C3947 1.287 . S
C3948 C3949 1.524 . S
C3948 H3967 0.913 . S
C3949 H3925 0.950 . S
C3949 C3948 1.524 . S
C3949 C3950 1.415 . S
C3950 H3926 0.950 . S
C3950 C3945 1.363 . S
C3950 C3949 1.415 . S
C3951 H3927 0.951 . S
C3951 C3952 1.366 . S
C3951 C3953 1.388 . S
C3952 C3951 1.366 . S
C3952 C3956 1.385 . S
C3953 H3928 0.951 . S
C3953 C3951 1.388 . S
C3953 C3954 1.366 . S
C3954 C3953 1.366 . S
C3954 C3955 1.414 . S
C3954 C3957 1.499 . S
C3955 H3929 0.950 . S
C3955 C3954 1.414 . S
C3955 C3956 1.374 . S
C3956 H3930 0.950 . S
C3956 C3952 1.385 . S
C3956 C3955 1.374 . S
C3957 C3954 1.499 . S
C3957 C3958 1.373 . S
C3957 C3959 1.389 . S
C3958 H3931 0.950 . S
C3958 C3944 1.377 . S
C3958 C3957 1.373 . S
C3959 C3943 1.377 . S
C3959 C3957 1.389 . S
C3959 C3960 1.524 . S
C3960 C3959 1.524 . S
C3960 C3961 1.397 . S
C3960 C3965 1.363 . S
C3961 H3932 0.950 . S
C3961 C3960 1.397 . S
C3961 C3962 1.334 . S
C3962 H3933 0.950 . S
C3962 C3961 1.334 . S
C3962 C3963 1.287 . S
C3963 C3962 1.287 . S
C3963 C3964 1.524 . S
C3963 H3966 0.999 . S
C3964 H3934 0.950 . S
C3964 C3963 1.524 . S
C3964 C3965 1.415 . S
C3965 H3935 0.950 . S
C3965 C3960 1.363 . S
C3965 C3964 1.415 . S
H3966 C3963 0.999 . S
H3967 C3948 0.913 . S
H3968 C3986 0.951 . S
H3969 C3988 0.951 . S
H3970 C3990 0.950 . S
H3971 C3991 0.950 . S
H3972 C3993 0.950 . S
H3973 C3996 0.950 . S
H3974 C3997 0.950 . S
H3975 C3999 0.950 . S
H3976 C4000 0.950 . S
H3977 C4001 0.951 . S
H3978 C4003 0.951 . S
H3979 C4005 0.950 . S
H3980 C4006 0.950 . S
H3981 C4008 0.950 . S
H3982 C4011 0.950 . S
H3983 C4012 0.950 . S
H3984 C4014 0.950 . S
H3985 C4015 0.950 . S
C3986 H3968 0.951 . S
C3986 C3987 1.366 . S
C3986 C3988 1.388 . S
C3987 C3986 1.366 . S
C3987 C3991 1.385 . S
C3988 H3969 0.951 . S
C3988 C3986 1.388 . S
C3988 C3989 1.366 . S
C3989 C3988 1.366 . S
C3989 C3990 1.414 . S
C3989 C3992 1.499 . S
C3990 H3970 0.950 . S
C3990 C3989 1.414 . S
C3990 C3991 1.374 . S
C3991 H3971 0.950 . S
C3991 C3987 1.385 . S
C3991 C3990 1.374 . S
C3992 C3989 1.499 . S
C3992 C3993 1.373 . S
C3992 C3994 1.389 . S
C3993 H3972 0.950 . S
C3993 C3992 1.373 . S
C3993 C4009 1.377 . S
C3994 C3992 1.389 . S
C3994 C3995 1.524 . S
C3994 C4008 1.377 . S
C3995 C3994 1.524 . S
C3995 C3996 1.397 . S
C3995 C4000 1.363 . S
C3996 H3973 0.950 . S
C3996 C3995 1.397 . S
C3996 C3997 1.334 . S
C3997 H3974 0.950 . S
C3997 C3996 1.334 . S
C3997 C3998 1.287 . S
C3998 C3997 1.287 . S
C3998 C3999 1.524 . S
C3998 H4017 0.913 . S
C3999 H3975 0.950 . S
C3999 C3998 1.524 . S
C3999 C4000 1.415 . S
C4000 H3976 0.950 . S
C4000 C3995 1.363 . S
C4000 C3999 1.415 . S
C4001 H3977 0.951 . S
C4001 C4002 1.366 . S
C4001 C4003 1.388 . S
C4002 C4001 1.366 . S
C4002 C4006 1.385 . S
C4003 H3978 0.951 . S
C4003 C4001 1.388 . S
C4003 C4004 1.366 . S
C4004 C4003 1.366 . S
C4004 C4005 1.414 . S
C4004 C4007 1.499 . S
C4005 H3979 0.950 . S
C4005 C4004 1.414 . S
C4005 C4006 1.374 . S
C4006 H3980 0.950 . S
C4006 C4002 1.385 . S
C4006 C4005 1.374 . S
C4007 C4004 1.499 . S
C4007 C4008 1.373 . S
C4007 C4009 1.389 . S
C4008 H3981 0.950 . S
C4008 C3994 1.377 . S
C4008 C4007 1.373 . S
C4009 C3993 1.377 . S
C4009 C4007 1.389 . S
C4009 C4010 1.524 . S
C4010 C4009 1.524 . S
C4010 C4011 1.397 . S
C4010 C4015 1.363 . S
C4011 H3982 0.950 . S
C4011 C4010 1.397 . S
C4011 C4012 1.334 . S
C4012 H3983 0.950 . S
C4012 C4011 1.334 . S
C4012 C4013 1.287 . S
C4013 C4012 1.287 . S
C4013 C4014 1.524 . S
C4013 H4016 0.999 . S
C4014 H3984 0.950 . S
C4014 C4013 1.524 . S
C4014 C4015 1.415 . S
C4015 H3985 0.950 . S
C4015 C4010 1.363 . S
C4015 C4014 1.415 . S
H4016 C4013 0.999 . S
H4017 C3998 0.913 . S
H4018 C4036 0.951 . S
H4019 C4038 0.951 . S
H4020 C4040 0.950 . S
H4021 C4041 0.950 . S
H4022 C4043 0.950 . S
H4023 C4046 0.950 . S
H4024 C4047 0.950 . S
H4025 C4049 0.950 . S
H4026 C4050 0.950 . S
H4027 C4051 0.951 . S
H4028 C4053 0.951 . S
H4029 C4055 0.950 . S
H4030 C4056 0.950 . S
H4031 C4058 0.950 . S
H4032 C4061 0.950 . S
H4033 C4062 0.950 . S
H4034 C4064 0.950 . S
H4035 C4065 0.950 . S
C4036 H4018 0.951 . S
C4036 C4037 1.366 . S
C4036 C4038 1.388 . S
C4037 C4036 1.366 . S
C4037 C4041 1.385 . S
C4038 H4019 0.951 . S
C4038 C4036 1.388 . S
C4038 C4039 1.366 . S
C4039 C4038 1.366 . S
C4039 C4040 1.414 . S
C4039 C4042 1.499 . S
C4040 H4020 0.950 . S
C4040 C4039 1.414 . S
C4040 C4041 1.374 . S
C4041 H4021 0.950 . S
C4041 C4037 1.385 . S
C4041 C4040 1.374 . S
C4042 C4039 1.499 . S
C4042 C4043 1.373 . S
C4042 C4044 1.389 . S
C4043 H4022 0.950 . S
C4043 C4042 1.373 . S
C4043 C4059 1.377 . S
C4044 C4042 1.389 . S
C4044 C4045 1.524 . S
C4044 C4058 1.377 . S
C4045 C4044 1.524 . S
C4045 C4046 1.397 . S
C4045 C4050 1.363 . S
C4046 H4023 0.950 . S
C4046 C4045 1.397 . S
C4046 C4047 1.334 . S
C4047 H4024 0.950 . S
C4047 C4046 1.334 . S
C4047 C4048 1.287 . S
C4048 C4047 1.287 . S
C4048 C4049 1.524 . S
C4048 H4067 0.913 . S
C4049 H4025 0.950 . S
C4049 C4048 1.524 . S
C4049 C4050 1.415 . S
C4050 H4026 0.950 . S
C4050 C4045 1.363 . S
C4050 C4049 1.415 . S
C4051 H4027 0.951 . S
C4051 C4052 1.366 . S
C4051 C4053 1.388 . S
C4052 C4051 1.366 . S
C4052 C4056 1.385 . S
C4053 H4028 0.951 . S
C4053 C4051 1.388 . S
C4053 C4054 1.366 . S
C4054 C4053 1.366 . S
C4054 C4055 1.414 . S
C4054 C4057 1.499 . S
C4055 H4029 0.950 . S
C4055 C4054 1.414 . S
C4055 C4056 1.374 . S
C4056 H4030 0.950 . S
C4056 C4052 1.385 . S
C4056 C4055 1.374 . S
C4057 C4054 1.499 . S
C4057 C4058 1.373 . S
C4057 C4059 1.389 . S
C4058 H4031 0.950 . S
C4058 C4044 1.377 . S
C4058 C4057 1.373 . S
C4059 C4043 1.377 . S
C4059 C4057 1.389 . S
C4059 C4060 1.524 . S
C4060 C4059 1.524 . S
C4060 C4061 1.397 . S
C4060 C4065 1.363 . S
C4061 H4032 0.950 . S
C4061 C4060 1.397 . S
C4061 C4062 1.334 . S
C4062 H4033 0.950 . S
C4062 C4061 1.334 . S
C4062 C4063 1.287 . S
C4063 C4062 1.287 . S
C4063 C4064 1.524 . S
C4063 H4066 0.999 . S
C4064 H4034 0.950 . S
C4064 C4063 1.524 . S
C4064 C4065 1.415 . S
C4065 H4035 0.950 . S
C4065 C4060 1.363 . S
C4065 C4064 1.415 . S
H4066 C4063 0.999 . S
H4067 C4048 0.913 . S
C487 C65 1.556 . S
C502 C0 1.557 . S
C537 C39 1.557 . S
C552 C13 1.556 . S
C587 C26 1.557 . S
C602 C52 1.557 . S
C637 C78 1.557 . S
C652 C143 1.557 . S
C687 C91 1.557 . S
C702 C117 1.557 . S
C737 C130 1.557 . S
C752 C104 1.557 . S
C787 C156 1.556 . S
C802 C221 1.557 1_556 S
C837 C169 1.557 . S
C852 C195 1.556 1_556 S
C887 C182 1.557 . S
C902 C208 1.557 1_556 S
C937 C299 1.557 . S
C952 C234 1.557 1_556 S
C987 C247 1.557 1_556 S
C1002 C273 1.557 . S
C1037 C286 1.557 . S
C1052 C260 1.557 1_556 S
C1087 C377 1.556 . S
C1102 C312 1.557 1_554 S
C1137 C351 1.557 . S
C1152 C325 1.556 1_554 S
C1187 C364 1.557 . S
C1202 C338 1.557 1_554 S
C1237 C390 1.557 . S
C1252 C455 1.557 1_554 S
C1287 C403 1.557 . S
C1302 C429 1.557 1_554 S
C1337 C416 1.557 . S
C1352 C442 1.557 1_554 S
C1387 C73 1.091 . S
C1402 C8 1.090 . S
C1437 C21 1.091 . S
C1452 C47 1.090 . S
C1487 C60 1.089 . S
C1502 C34 1.090 . S
C1537 C86 1.091 . S
C1552 C151 1.090 . S
C1587 C99 1.091 . S
C1602 C125 1.090 . S
C1637 C138 1.091 . S
C1652 C112 1.090 . S
C1687 C164 1.091 . S
C1702 C229 1.091 . S
C1737 C203 1.089 . S
C1752 C177 1.091 . S
C1787 C216 1.091 . S
C1802 C190 1.090 . S
C1837 C242 1.091 . S
C1852 C307 1.089 . S
C1887 C255 1.090 . S
C1902 C281 1.091 . S
C1937 C294 1.090 . S
C1952 C268 1.090 . S
C1987 C385 1.091 . S
C2002 C320 1.090 . S
C2037 C333 1.090 . S
C2052 C359 1.090 . S
C2087 C346 1.089 . S
C2102 C372 1.091 . S
C2137 C463 1.090 . S
C2152 C398 1.090 . S
C2187 C437 1.091 . S
C2202 C411 1.090 . S
C2237 C450 1.090 . S
C2252 C424 1.089 . S
C2287 C213 1.604 . S
C2302 C5 1.604 . S
C2337 C226 1.604 . S
C2352 C18 1.604 . S
C2387 C200 1.604 . S
C2402 C31 1.604 . S
C2437 C44 1.604 . S
C2452 C343 1.605 . S
C2487 C57 1.605 . S
C2502 C317 1.604 . S
C2537 C70 1.604 . S
C2552 C330 1.605 . S
C2587 C83 1.605 . S
C2602 C447 1.604 . S
C2637 C96 1.604 . S
C2652 C460 1.604 . S
C2687 C109 1.604 . S
C2702 C434 1.604 . S
C2737 C122 1.604 . S
C2752 C265 1.605 . S
C2787 C239 1.604 . S
C2802 C135 1.604 . S
C2837 C252 1.605 . S
C2852 C148 1.605 . S
C2887 C369 1.605 . S
C2902 C161 1.604 . S
C2937 C174 1.604 . S
C2952 C382 1.604 . S
C2987 C187 1.605 . S
C3002 C356 1.604 . S
C3037 C278 1.604 . S
C3052 C421 1.605 . S
C3087 C291 1.604 . S
C3102 C395 1.604 . S
C3137 C408 1.604 . S
C3152 C304 1.604 . S
C3187 C10 1.219 . S
C3202 C140 1.220 . S
C3237 C153 1.220 . S
C3252 C23 1.220 . S
C3287 C127 1.219 . S
C3302 C36 1.220 . S
C3337 C49 1.220 . S
C3352 C114 1.219 . S
C3387 C62 1.219 . S
C3402 C88 1.220 . S
C3437 C75 1.220 . S
C3452 C101 1.220 . S
C3487 C166 1.220 . S
C3502 C296 1.220 . S
C3537 C309 1.220 . S
C3552 C179 1.220 . S
C3587 C283 1.220 . S
C3602 C192 1.220 . S
C3637 C205 1.220 . S
C3652 C270 1.220 . S
C3687 C218 1.220 . S
C3702 C244 1.220 . S
C3737 C257 1.220 . S
C3752 C231 1.220 . S
C3787 C322 1.220 . S
C3802 C452 1.220 . S
C3837 C465 1.220 . S
C3852 C335 1.220 . S
C3887 C348 1.220 . S
C3902 C439 1.220 . S
C3937 C361 1.220 . S
C3952 C426 1.220 . S
C3987 C400 1.220 . S
C4002 C374 1.220 . S
C4037 C387 1.220 . S
C4052 C413 1.220 . S
