# Generated by pormake.
# Topology uof, (4)-cn, num edge types: 1
# Building blocks:
#     Node 0, Type 0, BuildingBlock: TATPOV_clean_sbu_0, # of connection points: 4
#     Node 1, Type 0, BuildingBlock: TATPOV_clean_sbu_0, # of connection points: 4
#     Node 2, Type 0, BuildingBlock: TATPOV_clean_sbu_0, # of connection points: 4
#     Node 3, Type 0, BuildingBlock: TATPOV_clean_sbu_0, # of connection points: 4
#     Node 4, Type 0, BuildingBlock: TATPOV_clean_sbu_0, # of connection points: 4
#     Node 5, Type 0, BuildingBlock: TATPOV_clean_sbu_0, # of connection points: 4
#     Node 6, Type 0, BuildingBlock: TATPOV_clean_sbu_0, # of connection points: 4
#     Node 7, Type 0, BuildingBlock: TATPOV_clean_sbu_0, # of connection points: 4
#     Node 8, Type 0, BuildingBlock: TATPOV_clean_sbu_0, # of connection points: 4
#     Node 9, Type 0, BuildingBlock: TATPOV_clean_sbu_0, # of connection points: 4
#     Node 10, Type 0, BuildingBlock: TATPOV_clean_sbu_0, # of connection points: 4
#     Node 11, Type 0, BuildingBlock: TATPOV_clean_sbu_0, # of connection points: 4
#     Edge 12, Type (0, 0), BuildingBlock: AJUNOK_clean_linker_0, # of connection points: 2
#     Edge 13, Type (0, 0), BuildingBlock: AJUNOK_clean_linker_0, # of connection points: 2
#     Edge 14, Type (0, 0), BuildingBlock: AJUNOK_clean_linker_0, # of connection points: 2
#     Edge 15, Type (0, 0), BuildingBlock: AJUNOK_clean_linker_0, # of connection points: 2
#     Edge 16, Type (0, 0), BuildingBlock: AJUNOK_clean_linker_0, # of connection points: 2
#     Edge 17, Type (0, 0), BuildingBlock: AJUNOK_clean_linker_0, # of connection points: 2
#     Edge 18, Type (0, 0), BuildingBlock: AJUNOK_clean_linker_0, # of connection points: 2
#     Edge 19, Type (0, 0), BuildingBlock: AJUNOK_clean_linker_0, # of connection points: 2
#     Edge 20, Type (0, 0), BuildingBlock: AJUNOK_clean_linker_0, # of connection points: 2
#     Edge 21, Type (0, 0), BuildingBlock: AJUNOK_clean_linker_0, # of connection points: 2
#     Edge 22, Type (0, 0), BuildingBlock: AJUNOK_clean_linker_0, # of connection points: 2
#     Edge 23, Type (0, 0), BuildingBlock: AJUNOK_clean_linker_0, # of connection points: 2
#     Edge 24, Type (0, 0), BuildingBlock: AJUNOK_clean_linker_0, # of connection points: 2
#     Edge 25, Type (0, 0), BuildingBlock: AJUNOK_clean_linker_0, # of connection points: 2
#     Edge 26, Type (0, 0), BuildingBlock: AJUNOK_clean_linker_0, # of connection points: 2
#     Edge 27, Type (0, 0), BuildingBlock: AJUNOK_clean_linker_0, # of connection points: 2
#     Edge 28, Type (0, 0), BuildingBlock: AJUNOK_clean_linker_0, # of connection points: 2
#     Edge 29, Type (0, 0), BuildingBlock: AJUNOK_clean_linker_0, # of connection points: 2
#     Edge 30, Type (0, 0), BuildingBlock: AJUNOK_clean_linker_0, # of connection points: 2
#     Edge 31, Type (0, 0), BuildingBlock: AJUNOK_clean_linker_0, # of connection points: 2
#     Edge 32, Type (0, 0), BuildingBlock: AJUNOK_clean_linker_0, # of connection points: 2
#     Edge 33, Type (0, 0), BuildingBlock: AJUNOK_clean_linker_0, # of connection points: 2
#     Edge 34, Type (0, 0), BuildingBlock: AJUNOK_clean_linker_0, # of connection points: 2
#     Edge 35, Type (0, 0), BuildingBlock: AJUNOK_clean_linker_0, # of connection points: 2
# Relax obj value: 0.211
# Max RMSD: 0.182
# Mean RMSD: 0.182
data_MOF--net-uof--node1-TATPOV_clean_sbu_0--edge1-AJUNOK_clean_linker_0
_symmetry_space_group_name_H-M    P1
_symmetry_Int_Tables_number       1
_symmetry_cell_setting            triclinic
loop_
_symmetry_equiv_pos_as_xyz
'x, y, z'
_cell_length_a     23.281922
_cell_length_b     23.317147
_cell_length_c     47.196906
_cell_angle_alpha  90.025513
_cell_angle_beta   89.870128
_cell_angle_gamma 119.95483
loop_
_atom_site_label
_atom_site_type_symbol
_atom_site_fract_x
_atom_site_fract_y
_atom_site_fract_z
_atom_type_partial_charge
Zn0 Zn 0.24694 0.35977 0.19498 0.0
Zn1 Zn 0.20644 0.31038 0.24685 0.0
O2 O 0.13021 0.32419 0.23071 0.0
O3 O 0.16685 0.36759 0.18845 0.0
O4 O 0.19019 0.28214 0.28826 0.0
O5 O 0.33331 0.43537 0.20806 0.0
O6 O 0.30416 0.38389 0.24905 0.0
C7 C 0.12149 0.34555 0.20699 0.0
C8 C 0.22093 0.22542 0.20292 0.0
O9 O 0.20362 0.23223 0.22765 0.0
O10 O 0.24188 0.27252 0.1852 0.0
C11 C 0.16007 0.22231 0.29683 0.0
O12 O 0.12761 0.17453 0.27846 0.0
C13 C 0.34724 0.42933 0.23332 0.0
Zn14 Zn 0.8671 0.25065 0.5242 0.0
Zn15 Zn 0.87867 0.2094 0.57576 0.0
O16 O 0.78835 0.13336 0.56021 0.0
O17 O 0.77947 0.1695 0.51819 0.0
O18 O 0.89184 0.19378 0.61704 0.0
O19 O 0.87745 0.33653 0.53818 0.0
O20 O 0.90263 0.30664 0.57829 0.0
C21 C 0.7573 0.12433 0.53677 0.0
C22 C 0.97662 0.22509 0.53089 0.0
O23 O 0.95341 0.20708 0.55572 0.0
O24 O 0.94988 0.24667 0.51379 0.0
C25 C 0.92658 0.16891 0.62561 0.0
O26 O 0.94624 0.13975 0.60733 0.0
C27 C 0.8996 0.35014 0.56317 0.0
Zn28 Zn 0.61519 0.88028 0.86416 0.0
Zn29 Zn 0.67318 0.89749 0.91456 0.0
O30 O 0.66015 0.80709 0.8995 0.0
O31 O 0.61021 0.79336 0.85837 0.0
O32 O 0.70551 0.9133 0.95545 0.0
O33 O 0.53941 0.88971 0.87882 0.0
O34 O 0.59921 0.92101 0.91764 0.0
C35 C 0.63661 0.77403 0.87659 0.0
C36 C 0.75013 -0.00864 0.86786 0.0
O37 O 0.74782 0.97076 0.89297 0.0
O38 O 0.70004 0.96271 0.85178 0.0
C39 C 0.76569 0.94967 0.96303 0.0
O40 O 0.8127 0.97138 0.94376 0.0
C41 C 0.55025 0.9148 0.90332 0.0
Zn42 Zn 0.72185 0.62457 0.1885 0.0
Zn43 Zn 0.76817 0.67331 0.24039 0.0
O44 O 0.8424 0.65918 0.22226 0.0
O45 O 0.80257 0.61853 0.18005 0.0
O46 O 0.79011 0.70408 0.2814 0.0
O47 O 0.63766 0.54858 0.20363 0.0
O48 O 0.67145 0.59916 0.24463 0.0
C49 C 0.84931 0.63937 0.1978 0.0
C50 C 0.7486 0.75841 0.19798 0.0
O51 O 0.76942 0.75127 0.2218 0.0
O52 O 0.72492 0.71158 0.18012 0.0
C53 C 0.75238 0.72406 0.29168 0.0
O54 O 0.70701 0.72403 0.27518 0.0
C55 C 0.62666 0.55407 0.22944 0.0
Zn56 Zn 0.09137 0.73226 0.52717 0.0
Zn57 Zn 0.08514 0.77107 0.57973 0.0
O58 O 0.17433 0.84738 0.56307 0.0
O59 O 0.17959 0.81186 0.52037 0.0
O60 O 0.07516 0.78526 0.62155 0.0
O61 O 0.07923 0.64448 0.53901 0.0
O62 O 0.05976 0.67305 0.58076 0.0
C63 C 0.20352 0.85669 0.53904 0.0
C64 C 0.98435 0.7598 0.53751 0.0
O65 O 0.0094 0.77563 0.56209 0.0
O66 O 0.00953 0.73945 0.519 0.0
C67 C 0.04385 0.81297 0.63117 0.0
O68 O 0.0274 0.84644 0.61385 0.0
C69 C 0.06031 0.62997 0.56442 0.0
Zn70 Zn 0.36372 0.10193 0.85888 0.0
Zn71 Zn 0.30623 0.09106 0.90984 0.0
O72 O 0.31902 0.17949 0.89271 0.0
O73 O 0.36653 0.18752 0.85127 0.0
O74 O 0.27227 0.07866 0.95054 0.0
O75 O 0.43954 0.09501 0.87539 0.0
O76 O 0.38115 0.06987 0.9147 0.0
C77 C 0.34142 0.20941 0.86903 0.0
C78 C 0.23028 -0.00971 0.86481 0.0
O79 O 0.23305 0.01458 0.88918 0.0
O80 O 0.27956 0.01716 0.84814 0.0
C81 C 0.21219 0.0396 0.95772 0.0
O82 O 0.16676 0.01341 0.93792 0.0
C83 C 0.42957 0.07382 0.90059 0.0
Zn84 Zn 0.60771 0.72972 0.51223 0.0
Zn85 Zn 0.66241 0.77315 0.4613 0.0
O86 O 0.64476 0.84692 0.4771 0.0
O87 O 0.5974 0.80855 0.51855 0.0
O88 O 0.69533 0.79337 0.42043 0.0
O89 O 0.53522 0.6429 0.49767 0.0
O90 O 0.5916 0.67479 0.45783 0.0
C91 C 0.6212 0.85468 0.50044 0.0
C92 C 0.74465 0.76105 0.50717 0.0
O93 O 0.73999 0.77915 0.48232 0.0
O94 O 0.69512 0.73686 0.52374 0.0
C95 C 0.72477 0.76291 0.41164 0.0
O96 O 0.73353 0.72478 0.42949 0.0
C97 C 0.54499 0.63036 0.47266 0.0
Zn98 Zn 0.87896 0.61668 0.84599 0.0
Zn99 Zn 0.88325 0.66666 0.79454 0.0
O100 O 0.79684 0.6569 0.81311 0.0
O101 O 0.79441 0.61476 0.85516 0.0
O102 O 0.89177 0.69362 0.75313 0.0
O103 O 0.88308 0.53785 0.83149 0.0
O104 O 0.90467 0.5916 0.79113 0.0
C105 C 0.77016 0.63784 0.83764 0.0
C106 C -0.00987 0.74899 0.83584 0.0
O107 O 0.9622 0.74332 0.81215 0.0
O108 O 0.96541 0.7021 0.85372 0.0
C109 C 0.92565 0.75295 0.74419 0.0
O110 O 0.94554 0.80209 0.76225 0.0
C111 C 0.90184 0.54478 0.80596 0.0
Zn112 Zn 0.24532 0.87638 0.17366 0.0
Zn113 Zn 0.2076 0.89328 0.12287 0.0
O114 O 0.1298 0.8027 0.13741 0.0
O115 O 0.16406 0.78875 0.17898 0.0
O116 O 0.19476 0.90876 0.08166 0.0
O117 O 0.33226 0.88706 0.16078 0.0
O118 O 0.30546 0.91809 0.12142 0.0
C119 C 0.11927 0.76938 0.16033 0.0
C120 C 0.21961 0.9866 0.16852 0.0
O121 O 0.20312 0.96626 0.14325 0.0
O122 O 0.24047 0.95815 0.18505 0.0
C123 C 0.1556 0.92676 0.07156 0.0
O124 O 0.11135 0.92895 0.08814 0.0
C125 C 0.34779 0.91259 0.13638 0.0
Zn126 Zn 0.35278 0.25262 0.51195 0.0
Zn127 Zn 0.30633 0.21062 0.45966 0.0
O128 O 0.31833 0.13443 0.47706 0.0
O129 O 0.35876 0.17181 0.51954 0.0
O130 O 0.27913 0.1933 0.41819 0.0
O131 O 0.4298 0.33794 0.49851 0.0
O132 O 0.38096 0.30754 0.45704 0.0
C133 C 0.33771 0.12599 0.50133 0.0
C134 C 0.21959 0.22806 0.5019 0.0
O135 O 0.22794 0.20972 0.47767 0.0
O136 O 0.26533 0.24907 0.52025 0.0
C137 C 0.21928 0.16306 0.40961 0.0
O138 O 0.17127 0.1309 0.42801 0.0
C139 C 0.42536 0.35112 0.47293 0.0
Zn140 Zn 0.09848 0.36234 0.83991 0.0
Zn141 Zn 0.08898 0.31074 0.78911 0.0
O142 O 0.17801 0.32306 0.80589 0.0
O143 O 0.18538 0.36874 0.84755 0.0
O144 O 0.07829 0.28459 0.74754 0.0
O145 O 0.08904 0.43895 0.82699 0.0
O146 O 0.06288 0.38285 0.7872 0.0
C147 C 0.20785 0.34459 0.82964 0.0
C148 C -0.0114 0.22779 0.83237 0.0
O149 O 0.01323 0.23271 0.80787 0.0
O150 O 0.01492 0.27581 0.84962 0.0
C151 C 0.04476 0.22549 0.73835 0.0
O152 O 0.02589 0.17581 0.75606 0.0
C153 C 0.06584 0.42955 0.80219 0.0
Zn154 Zn 0.72506 0.11006 0.1769 0.0
Zn155 Zn 0.76992 0.1017 0.12641 0.0
O156 O 0.84563 0.18954 0.14415 0.0
O157 O 0.80532 0.19641 0.18547 0.0
O158 O 0.78818 0.09227 0.08507 0.0
O159 O 0.63967 0.10116 0.1631 0.0
O160 O 0.6721 0.07631 0.12357 0.0
C161 C 0.8529 0.21872 0.16801 0.0
C162 C 0.75098 0.00065 0.16943 0.0
O163 O 0.77132 0.02539 0.145 0.0
O164 O 0.72795 0.02635 0.18642 0.0
C165 C 0.82111 0.06567 0.07618 0.0
O166 O 0.85531 0.0519 0.09427 0.0
C167 C 0.62744 0.07889 0.13812 0.0
C168 C 0.97393 0.29485 0.15907 0.0
C169 C 0.92036 0.26832 0.17812 0.0
C170 C 0.0395 0.3261 0.16881 0.0
C171 C 0.05427 0.33091 0.19804 0.0
H172 H 0.96526 0.28769 0.13647 0.0
H173 H 0.0785 0.34165 0.15312 0.0
S174 S 0.93288 0.28222 0.25676 0.0
N175 N 0.8872 0.25959 0.22779 0.0
N176 N 0.01046 0.31625 0.24581 0.0
C177 C 0.00166 0.31068 0.21728 0.0
C178 C 0.93475 0.28 0.20739 0.0
C179 C 0.69701 0.04051 0.49899 0.0
C180 C 0.70527 0.05685 0.52808 0.0
C181 C 0.6638 0.97449 0.48988 0.0
C182 C 0.63634 0.92208 0.50945 0.0
H183 H 0.7212 0.07864 0.48304 0.0
H184 H 0.66384 0.96461 0.46745 0.0
S185 S 0.62979 0.93902 0.58769 0.0
N186 N 0.67352 0.01587 0.57609 0.0
N187 N 0.60885 0.89173 0.55921 0.0
C188 C 0.63694 0.93805 0.53844 0.0
C189 C 0.67208 0.00541 0.5477 0.0
C190 C 0.65829 0.71241 0.83863 0.0
C191 C 0.65384 0.72318 0.86781 0.0
C192 C 0.69138 0.67977 0.82891 0.0
C193 C 0.72025 0.6553 0.84796 0.0
H194 H 0.64079 0.73391 0.82291 0.0
H195 H 0.69779 0.67736 0.80629 0.0
S196 S 0.70925 0.65754 0.92668 0.0
N197 N 0.67212 0.69798 0.91566 0.0
N198 N 0.73228 0.63454 0.89773 0.0
C199 C 0.70947 0.65911 0.87728 0.0
C200 C 0.67687 0.69361 0.88712 0.0
C201 C 0.96861 0.6758 0.20709 0.0
C202 C 0.916 0.6539 0.18778 0.0
C203 C 0.03457 0.70688 0.19772 0.0
C204 C 0.05075 0.71862 0.16863 0.0
H205 H 0.95918 0.67289 0.22968 0.0
H206 H 0.07312 0.72675 0.21365 0.0
S207 S 0.93134 0.6584 0.10913 0.0
N208 N 0.88448 0.63565 0.13785 0.0
N209 N 0.0086 0.69621 0.12054 0.0
C210 C -0.00136 0.69099 0.14904 0.0
C211 C 0.93127 0.65807 0.15853 0.0
C212 C 0.29514 0.00584 0.49141 0.0
C213 C 0.32224 0.05869 0.51071 0.0
C214 C 0.26277 0.94002 0.50083 0.0
C215 C 0.25501 0.92425 0.53 0.0
H216 H 0.29484 0.01513 0.46893 0.0
H217 H 0.23888 0.90151 0.48504 0.0
S218 S 0.33021 0.04366 0.589 0.0
N219 N 0.35016 0.09026 0.56031 0.0
N220 N 0.2871 0.96649 0.57777 0.0
C221 C 0.28793 0.97624 0.54935 0.0
C222 C 0.32214 0.04343 0.53977 0.0
C223 C 0.31487 0.2647 0.83 0.0
C224 C 0.32457 0.25977 0.85922 0.0
C225 C 0.28217 0.29757 0.82017 0.0
C226 C 0.25886 0.32792 0.8391 0.0
H227 H 0.32774 0.23845 0.81461 0.0
H228 H 0.2713 0.29531 0.79776 0.0
S229 S 0.28608 0.34248 0.91716 0.0
N230 N 0.31789 0.29677 0.90649 0.0
N231 N 0.25871 0.36082 0.88826 0.0
C232 C 0.27534 0.32997 0.8681 0.0
C233 C 0.30745 0.29521 0.87811 0.0
C234 C 0.51775 0.45227 0.23665 0.0
C235 C 0.55751 0.52115 0.23903 0.0
C236 C 0.44857 0.42211 0.23804 0.0
C237 C 0.41741 0.46026 0.24087 0.0
H238 H 0.54003 0.42212 0.23206 0.0
H239 H 0.4192 0.36922 0.23446 0.0
S240 S 0.49972 0.64186 0.24943 0.0
N241 N 0.56132 0.62621 0.24652 0.0
N242 N 0.43083 0.56934 0.24754 0.0
C243 C 0.45654 0.52862 0.2447 0.0
C244 C 0.52696 0.55916 0.24421 0.0
C245 C 0.95065 0.5301 0.56892 0.0
C246 C 0.01985 0.55981 0.5717 0.0
C247 C 0.91032 0.46113 0.56832 0.0
C248 C 0.93793 0.42009 0.57138 0.0
H249 H 0.92816 0.56036 0.56505 0.0
H250 H 0.85791 0.43988 0.56395 0.0
S251 S 0.11578 0.47413 0.58163 0.0
N252 N 0.11396 0.54387 0.57885 0.0
N253 N 0.03794 0.41381 0.57922 0.0
C254 C 0.00652 0.44937 0.57632 0.0
C255 C 0.04773 0.51957 0.57605 0.0
C256 C 0.52951 0.06356 0.90924 0.0
C257 C 0.46038 0.03527 0.90975 0.0
C258 C 0.55858 0.0235 0.91042 0.0
C259 C 0.51921 0.95402 0.91105 0.0
H260 H 0.56099 0.11645 0.90632 0.0
H261 H 0.61196 0.04674 0.90834 0.0
S262 S 0.3362 0.85635 0.91417 0.0
N263 N 0.35344 0.93419 0.91318 0.0
N264 N 0.40843 0.85893 0.91367 0.0
C265 C 0.45035 0.92541 0.91294 0.0
C266 C 0.4208 0.96618 0.91276 0.0
C267 C 0.55562 0.53078 0.46984 0.0
C268 C 0.51714 0.5608 0.46472 0.0
C269 C 0.52675 0.46179 0.47011 0.0
C270 C 0.45904 0.42103 0.46441 0.0
H271 H 0.60721 0.5607 0.47588 0.0
H272 H 0.55657 0.44021 0.47643 0.0
S273 S 0.33874 0.47615 0.44717 0.0
N274 N 0.40947 0.54559 0.45234 0.0
N275 N 0.3553 0.41554 0.4514 0.0
C276 C 0.42132 0.45075 0.457 0.0
C277 C 0.45037 0.52096 0.45757 0.0
C278 C 0.00832 0.55307 0.79278 0.0
C279 C 0.93943 0.51291 0.79684 0.0
C280 C 0.04989 0.5256 0.79242 0.0
C281 C 0.02326 0.45708 0.79498 0.0
H282 H 0.03083 0.6065 0.79237 0.0
H283 H 0.10311 0.55823 0.79167 0.0
S284 S 0.84575 0.33044 0.80293 0.0
N285 N 0.84628 0.40154 0.80179 0.0
N286 N 0.92384 0.34919 0.79935 0.0
C287 C 0.95404 0.41609 0.79667 0.0
C288 C 0.91209 0.44423 0.79805 0.0
C289 C 0.44671 0.0212 0.12659 0.0
C290 C 0.41834 0.95208 0.12911 0.0
C291 C 0.51563 0.06311 0.1276 0.0
C292 C 0.55787 0.03673 0.13004 0.0
H293 H 0.41534 0.04329 0.1262 0.0
H294 H 0.53574 0.11622 0.12788 0.0
S295 S 0.50824 0.85914 0.13456 0.0
N296 N 0.4374 0.85919 0.13269 0.0
N297 N 0.56724 0.9376 0.1329 0.0
C298 C 0.53021 0.96757 0.13037 0.0
C299 C 0.46017 0.92518 0.13033 0.0
C300 C 0.21696 0.08963 0.15787 0.0
C301 C 0.21702 0.04538 0.17809 0.0
C302 C 0.21783 0.14754 0.16614 0.0
C303 C 0.2179 0.16291 0.19493 0.0
H304 H 0.21761 0.08027 0.13542 0.0
H305 H 0.2185 0.18048 0.1498 0.0
S306 S 0.21544 0.06196 0.25627 0.0
N307 N 0.2153 0.01969 0.22818 0.0
N308 N 0.21661 0.12864 0.2438 0.0
C309 C 0.21658 0.11844 0.21543 0.0
C310 C 0.21631 0.05967 0.20698 0.0
C311 C 0.07885 0.22284 0.54385 0.0
C312 C 0.03689 0.22364 0.52265 0.0
C313 C 0.13786 0.22428 0.53692 0.0
C314 C 0.15664 0.22566 0.50852 0.0
H315 H 0.06673 0.22231 0.56607 0.0
H316 H 0.16883 0.22407 0.55398 0.0
S317 S 0.06343 0.22678 0.44496 0.0
N318 N 0.01754 0.22491 0.47205 0.0
N319 N 0.12859 0.22729 0.45895 0.0
C320 C 0.11476 0.22558 0.48704 0.0
C321 C 0.05487 0.22473 0.49412 0.0
C322 C 0.91421 0.15088 0.86946 0.0
C323 C 0.92835 0.1664 0.84062 0.0
C324 C 0.85681 0.09359 0.87797 0.0
C325 C 0.81101 0.05022 0.85796 0.0
H326 H 0.94783 0.18306 0.88563 0.0
H327 H 0.8479 0.08389 0.90047 0.0
S328 S 0.82511 0.06868 0.77974 0.0
N329 N 0.89228 0.13406 0.79193 0.0
N330 N 0.78389 0.02621 0.80798 0.0
C331 C 0.82457 0.06506 0.829 0.0
C332 C 0.88345 0.12317 0.82032 0.0
C333 C 0.7523 0.89819 0.15615 0.0
C334 C 0.75209 0.94029 0.17745 0.0
C335 C 0.75111 0.83935 0.163 0.0
C336 C 0.75079 0.82112 0.19137 0.0
H337 H 0.75223 0.91013 0.13397 0.0
H338 H 0.75078 0.80814 0.14591 0.0
S339 S 0.75134 0.91496 0.25508 0.0
N340 N 0.75214 0.96027 0.22806 0.0
N341 N 0.75078 0.8499 0.241 0.0
C342 C 0.75147 0.86321 0.21292 0.0
C343 C 0.7518 0.92273 0.20593 0.0
C344 C 0.85172 0.76797 0.49493 0.0
C345 C 0.807 0.76459 0.51585 0.0
C346 C 0.90928 0.76701 0.5022 0.0
C347 C 0.92471 0.76354 0.53066 0.0
H348 H 0.84156 0.76976 0.47266 0.0
H349 H 0.94177 0.76875 0.48533 0.0
S350 S 0.82549 0.75679 0.5936 0.0
N351 N 0.7829 0.75975 0.56628 0.0
N352 N 0.89163 0.75832 0.58003 0.0
C353 C 0.88131 0.76179 0.55189 0.0
C354 C 0.82225 0.76213 0.54446 0.0
C355 C 0.12696 0.88717 0.8778 0.0
C356 C 0.16973 0.92927 0.85657 0.0
C357 C 0.06924 0.82857 0.87088 0.0
C358 C 0.05176 0.81048 0.84249 0.0
H359 H 0.13839 0.89912 0.90001 0.0
H360 H 0.03775 0.79768 0.88793 0.0
S361 S 0.14704 0.90333 0.77892 0.0
N362 N 0.19105 0.94877 0.80599 0.0
N363 N 0.08202 0.83849 0.79291 0.0
C364 C 0.09402 0.85205 0.821 0.0
C365 C 0.15324 0.91147 0.82806 0.0
C366 C 0.24714 0.23458 0.36648 0.0
C367 C 0.20355 0.17505 0.38045 0.0
C368 C 0.2315 0.25019 0.33995 0.0
C369 C 0.17216 0.2064 0.32595 0.0
H370 H 0.29331 0.27026 0.37636 0.0
H371 H 0.267 0.29655 0.33011 0.0
S372 S 0.0413 0.04368 0.35318 0.0
N373 N 0.09811 0.0722 0.37834 0.0
N374 N 0.06966 0.10061 0.32804 0.0
C375 C 0.12833 0.1464 0.33952 0.0
C376 C 0.14372 0.13103 0.36686 0.0
C377 C 0.97169 0.13958 0.66807 0.0
C378 C 0.95434 0.18282 0.65475 0.0
C379 C 0.0014 0.15385 0.69502 0.0
C380 C 0.01688 0.21292 0.70924 0.0
H381 H 0.96178 0.0941 0.65769 0.0
H382 H 0.01282 0.11859 0.70468 0.0
S383 S 0.98269 0.34333 0.68335 0.0
N384 N 0.955 0.2873 0.65792 0.0
N385 N 0.01209 0.31476 0.70799 0.0
C386 C 0.00039 0.25687 0.696 0.0
C387 C 0.96878 0.24164 0.66894 0.0
C388 C 0.74659 0.01265 0.03472 0.0
C389 C 0.80969 0.03826 0.04704 0.0
C390 C 0.73239 0.98207 1.00806 0.0
C391 C 0.78109 0.97702 0.99228 0.0
H392 H 0.70728 0.01508 0.04601 0.0
H393 H 0.68308 0.96352 0.99952 0.0
S394 S 0.95476 0.0378 1.01482 0.0
N395 N 0.92131 0.05655 0.04157 0.0
N396 N 0.89552 0.00113 0.99096 0.0
C397 C 0.84466 0.00299 1.00426 0.0
C398 C 0.85868 0.03295 0.03175 0.0
C399 C 0.71462 0.76847 0.33147 0.0
C400 C 0.75415 0.74192 0.3221 0.0
C401 C 0.70821 0.77862 0.36034 0.0
C402 C 0.74072 0.76224 0.38114 0.0
H403 H 0.6866 0.77984 0.31645 0.0
H404 H 0.67514 0.79664 0.36641 0.0
S405 S 0.85711 0.69958 0.36784 0.0
N406 N 0.83145 0.70563 0.33598 0.0
N407 N 0.81941 0.72449 0.3902 0.0
C408 C 0.78345 0.73929 0.37202 0.0
C409 C 0.79024 0.72925 0.34256 0.0
C410 C 0.00076 0.84189 0.67454 0.0
C411 C 0.01593 0.79794 0.66036 0.0
C412 C 0.9709 0.82679 0.70151 0.0
C413 C 0.95314 0.76624 0.71494 0.0
H414 H 0.01249 0.88859 0.66482 0.0
H415 H 0.96127 0.86265 0.71184 0.0
S416 S 0.98096 0.63338 0.68662 0.0
N417 N 0.01063 0.69108 0.66185 0.0
N418 N 0.95334 0.66216 0.71198 0.0
C419 C 0.96737 0.72154 0.70083 0.0
C420 C -0.00091 0.73754 0.67372 0.0
C421 C 0.2332 -0.00804 0.0324 0.0
C422 C 0.16777 0.95544 0.04263 0.0
C423 C 0.24709 0.02134 1.00548 0.0
C424 C 0.19603 0.01439 0.98735 0.0
H425 H 0.2743 -0.00154 0.04543 0.0
H426 H 0.29833 0.0482 0.99859 0.0
S427 S 0.01591 0.92256 1.00402 0.0
N428 N 0.05138 0.91429 0.0328 0.0
N429 N 0.07693 0.96778 0.9818 0.0
C430 C 0.13023 0.97809 0.9974 0.0
C431 C 0.11626 0.94915 0.02512 0.0
loop_
_geom_bond_atom_site_label_1
_geom_bond_atom_site_label_2
_geom_bond_distance
_geom_bond_site_symmetry_2
_ccdc_geom_bond_type
Zn0 O3 2.031 . S
Zn0 O5 2.049 . S
Zn0 O10 2.067 . S
Zn1 O2 1.962 . S
Zn1 O4 1.986 . S
Zn1 O6 1.996 . S
Zn1 O9 1.943 . S
O2 Zn1 1.962 . S
O2 C7 1.254 . S
O3 Zn0 2.031 . S
O3 C7 1.269 . S
O4 Zn1 1.986 . S
O4 C11 1.262 . S
O5 Zn0 2.049 . S
O5 C13 1.260 . S
O6 Zn1 1.996 . S
O6 C13 1.257 . S
C7 O2 1.254 . S
C7 O3 1.269 . S
C8 O9 1.249 . S
C8 O10 1.270 . S
O9 Zn1 1.943 . S
O9 C8 1.249 . S
O10 Zn0 2.067 . S
O10 C8 1.270 . S
C11 O4 1.262 . S
C11 O12 1.232 . S
O12 C11 1.232 . S
C13 O5 1.260 . S
C13 O6 1.257 . S
Zn14 O17 2.031 . S
Zn14 O19 2.049 . S
Zn14 O24 2.067 1_655 S
Zn15 O16 1.962 . S
Zn15 O18 1.986 . S
Zn15 O20 1.996 . S
Zn15 O23 1.943 1_655 S
O16 Zn15 1.962 . S
O16 C21 1.254 . S
O17 Zn14 2.031 . S
O17 C21 1.269 . S
O18 Zn15 1.986 . S
O18 C25 1.262 . S
O19 Zn14 2.049 . S
O19 C27 1.260 . S
O20 Zn15 1.996 . S
O20 C27 1.257 . S
C21 O16 1.254 . S
C21 O17 1.269 . S
C22 O23 1.249 . S
C22 O24 1.270 . S
O23 Zn15 1.943 1_455 S
O23 C22 1.249 . S
O24 Zn14 2.067 1_455 S
O24 C22 1.270 . S
C25 O18 1.262 . S
C25 O26 1.232 . S
O26 C25 1.232 . S
C27 O19 1.260 . S
C27 O20 1.257 . S
Zn28 O31 2.031 . S
Zn28 O33 2.049 . S
Zn28 O38 2.067 1_565 S
Zn29 O30 1.962 . S
Zn29 O32 1.986 . S
Zn29 O34 1.996 . S
Zn29 O37 1.943 1_565 S
O30 Zn29 1.962 . S
O30 C35 1.254 . S
O31 Zn28 2.031 . S
O31 C35 1.269 . S
O32 Zn29 1.986 . S
O32 C39 1.262 . S
O33 Zn28 2.049 . S
O33 C41 1.260 . S
O34 Zn29 1.996 . S
O34 C41 1.257 . S
C35 O30 1.254 . S
C35 O31 1.269 . S
C36 O37 1.249 . S
C36 O38 1.270 . S
O37 Zn29 1.943 1_545 S
O37 C36 1.249 . S
O38 Zn28 2.067 1_545 S
O38 C36 1.270 . S
C39 O32 1.262 . S
C39 O40 1.232 . S
O40 C39 1.232 . S
C41 O33 1.260 . S
C41 O34 1.257 . S
Zn42 O45 2.031 . S
Zn42 O47 2.049 . S
Zn42 O52 2.067 . S
Zn43 O44 1.962 . S
Zn43 O46 1.986 . S
Zn43 O48 1.996 . S
Zn43 O51 1.943 . S
O44 Zn43 1.962 . S
O44 C49 1.254 . S
O45 Zn42 2.031 . S
O45 C49 1.269 . S
O46 Zn43 1.986 . S
O46 C53 1.262 . S
O47 Zn42 2.049 . S
O47 C55 1.260 . S
O48 Zn43 1.996 . S
O48 C55 1.257 . S
C49 O44 1.254 . S
C49 O45 1.269 . S
C50 O51 1.249 . S
C50 O52 1.270 . S
O51 Zn43 1.943 . S
O51 C50 1.249 . S
O52 Zn42 2.067 . S
O52 C50 1.270 . S
C53 O46 1.262 . S
C53 O54 1.232 . S
O54 C53 1.232 . S
C55 O47 1.260 . S
C55 O48 1.257 . S
Zn56 O59 2.031 . S
Zn56 O61 2.049 . S
Zn56 O66 2.067 1_455 S
Zn57 O58 1.962 . S
Zn57 O60 1.986 . S
Zn57 O62 1.996 . S
Zn57 O65 1.943 1_455 S
O58 Zn57 1.962 . S
O58 C63 1.254 . S
O59 Zn56 2.031 . S
O59 C63 1.269 . S
O60 Zn57 1.986 . S
O60 C67 1.262 . S
O61 Zn56 2.049 . S
O61 C69 1.260 . S
O62 Zn57 1.996 . S
O62 C69 1.257 . S
C63 O58 1.254 . S
C63 O59 1.269 . S
C64 O65 1.249 . S
C64 O66 1.270 . S
O65 Zn57 1.943 1_655 S
O65 C64 1.249 . S
O66 Zn56 2.067 1_655 S
O66 C64 1.270 . S
C67 O60 1.262 . S
C67 O68 1.232 . S
O68 C67 1.232 . S
C69 O61 1.260 . S
C69 O62 1.257 . S
Zn70 O73 2.031 . S
Zn70 O75 2.049 . S
Zn70 O80 2.067 1_545 S
Zn71 O72 1.962 . S
Zn71 O74 1.986 . S
Zn71 O76 1.996 . S
Zn71 O79 1.943 1_545 S
O72 Zn71 1.962 . S
O72 C77 1.254 . S
O73 Zn70 2.031 . S
O73 C77 1.269 . S
O74 Zn71 1.986 . S
O74 C81 1.262 . S
O75 Zn70 2.049 . S
O75 C83 1.260 . S
O76 Zn71 1.996 . S
O76 C83 1.257 . S
C77 O72 1.254 . S
C77 O73 1.269 . S
C78 O79 1.249 . S
C78 O80 1.270 . S
O79 Zn71 1.943 1_565 S
O79 C78 1.249 . S
O80 Zn70 2.067 1_565 S
O80 C78 1.270 . S
C81 O74 1.262 . S
C81 O82 1.232 . S
O82 C81 1.232 . S
C83 O75 1.260 . S
C83 O76 1.257 . S
Zn84 O87 2.031 . S
Zn84 O89 2.049 . S
Zn84 O94 2.067 . S
Zn85 O86 1.962 . S
Zn85 O88 1.986 . S
Zn85 O90 1.996 . S
Zn85 O93 1.943 . S
O86 Zn85 1.962 . S
O86 C91 1.254 . S
O87 Zn84 2.031 . S
O87 C91 1.269 . S
O88 Zn85 1.986 . S
O88 C95 1.262 . S
O89 Zn84 2.049 . S
O89 C97 1.260 . S
O90 Zn85 1.996 . S
O90 C97 1.257 . S
C91 O86 1.254 . S
C91 O87 1.269 . S
C92 O93 1.249 . S
C92 O94 1.270 . S
O93 Zn85 1.943 . S
O93 C92 1.249 . S
O94 Zn84 2.067 . S
O94 C92 1.270 . S
C95 O88 1.262 . S
C95 O96 1.232 . S
O96 C95 1.232 . S
C97 O89 1.260 . S
C97 O90 1.257 . S
Zn98 O101 2.031 . S
Zn98 O103 2.049 . S
Zn98 O108 2.067 1_655 S
Zn99 O100 1.962 . S
Zn99 O102 1.986 . S
Zn99 O104 1.996 . S
Zn99 O107 1.943 1_655 S
O100 Zn99 1.962 . S
O100 C105 1.254 . S
O101 Zn98 2.031 . S
O101 C105 1.269 . S
O102 Zn99 1.986 . S
O102 C109 1.262 . S
O103 Zn98 2.049 . S
O103 C111 1.260 . S
O104 Zn99 1.996 . S
O104 C111 1.257 . S
C105 O100 1.254 . S
C105 O101 1.269 . S
C106 O107 1.249 . S
C106 O108 1.270 . S
O107 Zn99 1.943 1_455 S
O107 C106 1.249 . S
O108 Zn98 2.067 1_455 S
O108 C106 1.270 . S
C109 O102 1.262 . S
C109 O110 1.232 . S
O110 C109 1.232 . S
C111 O103 1.260 . S
C111 O104 1.257 . S
Zn112 O115 2.031 . S
Zn112 O117 2.049 . S
Zn112 O122 2.067 1_565 S
Zn113 O114 1.962 . S
Zn113 O116 1.986 . S
Zn113 O118 1.996 . S
Zn113 O121 1.943 1_565 S
O114 Zn113 1.962 . S
O114 C119 1.254 . S
O115 Zn112 2.031 . S
O115 C119 1.269 . S
O116 Zn113 1.986 . S
O116 C123 1.262 . S
O117 Zn112 2.049 . S
O117 C125 1.260 . S
O118 Zn113 1.996 . S
O118 C125 1.257 . S
C119 O114 1.254 . S
C119 O115 1.269 . S
C120 O121 1.249 . S
C120 O122 1.270 . S
O121 Zn113 1.943 1_545 S
O121 C120 1.249 . S
O122 Zn112 2.067 1_545 S
O122 C120 1.270 . S
C123 O116 1.262 . S
C123 O124 1.232 . S
O124 C123 1.232 . S
C125 O117 1.260 . S
C125 O118 1.257 . S
Zn126 O129 2.031 . S
Zn126 O131 2.049 . S
Zn126 O136 2.067 . S
Zn127 O128 1.962 . S
Zn127 O130 1.986 . S
Zn127 O132 1.996 . S
Zn127 O135 1.943 . S
O128 Zn127 1.962 . S
O128 C133 1.254 . S
O129 Zn126 2.031 . S
O129 C133 1.269 . S
O130 Zn127 1.986 . S
O130 C137 1.262 . S
O131 Zn126 2.049 . S
O131 C139 1.260 . S
O132 Zn127 1.996 . S
O132 C139 1.257 . S
C133 O128 1.254 . S
C133 O129 1.269 . S
C134 O135 1.249 . S
C134 O136 1.270 . S
O135 Zn127 1.943 . S
O135 C134 1.249 . S
O136 Zn126 2.067 . S
O136 C134 1.270 . S
C137 O130 1.262 . S
C137 O138 1.232 . S
O138 C137 1.232 . S
C139 O131 1.260 . S
C139 O132 1.257 . S
Zn140 O143 2.031 . S
Zn140 O145 2.049 . S
Zn140 O150 2.067 1_455 S
Zn141 O142 1.962 . S
Zn141 O144 1.986 . S
Zn141 O146 1.996 . S
Zn141 O149 1.943 1_455 S
O142 Zn141 1.962 . S
O142 C147 1.254 . S
O143 Zn140 2.031 . S
O143 C147 1.269 . S
O144 Zn141 1.986 . S
O144 C151 1.262 . S
O145 Zn140 2.049 . S
O145 C153 1.260 . S
O146 Zn141 1.996 . S
O146 C153 1.257 . S
C147 O142 1.254 . S
C147 O143 1.269 . S
C148 O149 1.249 . S
C148 O150 1.270 . S
O149 Zn141 1.943 1_655 S
O149 C148 1.249 . S
O150 Zn140 2.067 1_655 S
O150 C148 1.270 . S
C151 O144 1.262 . S
C151 O152 1.232 . S
O152 C151 1.232 . S
C153 O145 1.260 . S
C153 O146 1.257 . S
Zn154 O157 2.031 . S
Zn154 O159 2.049 . S
Zn154 O164 2.067 1_545 S
Zn155 O156 1.962 . S
Zn155 O158 1.986 . S
Zn155 O160 1.996 . S
Zn155 O163 1.943 1_545 S
O156 Zn155 1.962 . S
O156 C161 1.254 . S
O157 Zn154 2.031 . S
O157 C161 1.269 . S
O158 Zn155 1.986 . S
O158 C165 1.262 . S
O159 Zn154 2.049 . S
O159 C167 1.260 . S
O160 Zn155 1.996 . S
O160 C167 1.257 . S
C161 O156 1.254 . S
C161 O157 1.269 . S
C162 O163 1.249 . S
C162 O164 1.270 . S
O163 Zn155 1.943 1_565 S
O163 C162 1.249 . S
O164 Zn154 2.067 1_565 S
O164 C162 1.270 . S
C165 O158 1.262 . S
C165 O166 1.232 . S
O166 C165 1.232 . S
C167 O159 1.260 . S
C167 O160 1.257 . S
C168 C169 1.369 . S
C168 C170 1.419 1_655 S
C168 H172 0.930 . S
C169 C168 1.369 . S
C169 C178 1.429 . S
C170 C168 1.419 1_455 S
C170 C171 1.363 . S
C170 H173 0.929 . S
C171 C170 1.363 . S
C171 C177 1.428 . S
H172 C168 0.930 . S
H173 C170 0.929 . S
S174 N175 1.613 . S
S174 N176 1.610 1_655 S
N175 S174 1.613 . S
N175 C178 1.350 . S
N176 S174 1.610 1_455 S
N176 C177 1.351 . S
C177 C171 1.428 . S
C177 N176 1.351 . S
C177 C178 1.434 1_455 S
C178 C169 1.429 . S
C178 N175 1.350 . S
C178 C177 1.434 1_655 S
C179 C180 1.369 . S
C179 C181 1.419 1_545 S
C179 H183 0.930 . S
C180 C179 1.369 . S
C180 C189 1.429 . S
C181 C179 1.419 1_565 S
C181 C182 1.363 . S
C181 H184 0.929 . S
C182 C181 1.363 . S
C182 C188 1.428 . S
H183 C179 0.930 . S
H184 C181 0.929 . S
S185 N186 1.613 1_565 S
S185 N187 1.610 . S
N186 S185 1.613 1_545 S
N186 C189 1.350 . S
N187 S185 1.610 . S
N187 C188 1.351 . S
C188 C182 1.428 . S
C188 N187 1.351 . S
C188 C189 1.434 1_565 S
C189 C180 1.429 . S
C189 N186 1.350 . S
C189 C188 1.434 1_545 S
C190 C191 1.369 . S
C190 C192 1.419 . S
C190 H194 0.930 . S
C191 C190 1.369 . S
C191 C200 1.429 . S
C192 C190 1.419 . S
C192 C193 1.363 . S
C192 H195 0.929 . S
C193 C192 1.363 . S
C193 C199 1.428 . S
H194 C190 0.930 . S
H195 C192 0.929 . S
S196 N197 1.613 . S
S196 N198 1.610 . S
N197 S196 1.613 . S
N197 C200 1.350 . S
N198 S196 1.610 . S
N198 C199 1.351 . S
C199 C193 1.428 . S
C199 N198 1.351 . S
C199 C200 1.434 . S
C200 C191 1.429 . S
C200 N197 1.350 . S
C200 C199 1.434 . S
C201 C202 1.369 . S
C201 C203 1.419 1_655 S
C201 H205 0.930 . S
C202 C201 1.369 . S
C202 C211 1.429 . S
C203 C201 1.419 1_455 S
C203 C204 1.363 . S
C203 H206 0.929 . S
C204 C203 1.363 . S
C204 C210 1.428 . S
H205 C201 0.930 . S
H206 C203 0.929 . S
S207 N208 1.613 . S
S207 N209 1.610 1_655 S
N208 S207 1.613 . S
N208 C211 1.350 . S
N209 S207 1.610 1_455 S
N209 C210 1.351 . S
C210 C204 1.428 . S
C210 N209 1.351 . S
C210 C211 1.434 1_455 S
C211 C202 1.429 . S
C211 N208 1.350 . S
C211 C210 1.434 1_655 S
C212 C213 1.369 . S
C212 C214 1.419 1_545 S
C212 H216 0.930 . S
C213 C212 1.369 . S
C213 C222 1.429 . S
C214 C212 1.419 1_565 S
C214 C215 1.363 . S
C214 H217 0.929 . S
C215 C214 1.363 . S
C215 C221 1.428 . S
H216 C212 0.930 . S
H217 C214 0.929 . S
S218 N219 1.613 . S
S218 N220 1.610 1_545 S
N219 S218 1.613 . S
N219 C222 1.350 . S
N220 S218 1.610 1_565 S
N220 C221 1.351 . S
C221 C215 1.428 . S
C221 N220 1.351 . S
C221 C222 1.434 1_565 S
C222 C213 1.429 . S
C222 N219 1.350 . S
C222 C221 1.434 1_545 S
C223 C224 1.369 . S
C223 C225 1.419 . S
C223 H227 0.930 . S
C224 C223 1.369 . S
C224 C233 1.429 . S
C225 C223 1.419 . S
C225 C226 1.363 . S
C225 H228 0.929 . S
C226 C225 1.363 . S
C226 C232 1.428 . S
H227 C223 0.930 . S
H228 C225 0.929 . S
S229 N230 1.613 . S
S229 N231 1.610 . S
N230 S229 1.613 . S
N230 C233 1.350 . S
N231 S229 1.610 . S
N231 C232 1.351 . S
C232 C226 1.428 . S
C232 N231 1.351 . S
C232 C233 1.434 . S
C233 C224 1.429 . S
C233 N230 1.350 . S
C233 C232 1.434 . S
C234 C235 1.369 . S
C234 C236 1.419 . S
C234 H238 0.930 . S
C235 C234 1.369 . S
C235 C244 1.429 . S
C236 C234 1.419 . S
C236 C237 1.363 . S
C236 H239 0.929 . S
C237 C236 1.363 . S
C237 C243 1.428 . S
H238 C234 0.930 . S
H239 C236 0.929 . S
S240 N241 1.613 . S
S240 N242 1.610 . S
N241 S240 1.613 . S
N241 C244 1.350 . S
N242 S240 1.610 . S
N242 C243 1.351 . S
C243 C237 1.428 . S
C243 N242 1.351 . S
C243 C244 1.434 . S
C244 C235 1.429 . S
C244 N241 1.350 . S
C244 C243 1.434 . S
C245 C246 1.369 1_655 S
C245 C247 1.419 . S
C245 H249 0.930 . S
C246 C245 1.369 1_455 S
C246 C255 1.429 . S
C247 C245 1.419 . S
C247 C248 1.363 . S
C247 H250 0.929 . S
C248 C247 1.363 . S
C248 C254 1.428 1_655 S
H249 C245 0.930 . S
H250 C247 0.929 . S
S251 N252 1.613 . S
S251 N253 1.610 . S
N252 S251 1.613 . S
N252 C255 1.350 . S
N253 S251 1.610 . S
N253 C254 1.351 . S
C254 C248 1.428 1_455 S
C254 N253 1.351 . S
C254 C255 1.434 . S
C255 C246 1.429 . S
C255 N252 1.350 . S
C255 C254 1.434 . S
C256 C257 1.369 . S
C256 C258 1.419 . S
C256 H260 0.930 . S
C257 C256 1.369 . S
C257 C266 1.429 1_545 S
C258 C256 1.419 . S
C258 C259 1.363 1_545 S
C258 H261 0.929 . S
C259 C258 1.363 1_565 S
C259 C265 1.428 . S
H260 C256 0.930 . S
H261 C258 0.929 . S
S262 N263 1.613 . S
S262 N264 1.610 . S
N263 S262 1.613 . S
N263 C266 1.350 . S
N264 S262 1.610 . S
N264 C265 1.351 . S
C265 C259 1.428 . S
C265 N264 1.351 . S
C265 C266 1.434 . S
C266 C257 1.429 1_565 S
C266 N263 1.350 . S
C266 C265 1.434 . S
C267 C268 1.369 . S
C267 C269 1.419 . S
C267 H271 0.930 . S
C268 C267 1.369 . S
C268 C277 1.429 . S
C269 C267 1.419 . S
C269 C270 1.363 . S
C269 H272 0.929 . S
C270 C269 1.363 . S
C270 C276 1.428 . S
H271 C267 0.930 . S
H272 C269 0.929 . S
S273 N274 1.613 . S
S273 N275 1.610 . S
N274 S273 1.613 . S
N274 C277 1.350 . S
N275 S273 1.610 . S
N275 C276 1.351 . S
C276 C270 1.428 . S
C276 N275 1.351 . S
C276 C277 1.434 . S
C277 C268 1.429 . S
C277 N274 1.350 . S
C277 C276 1.434 . S
C278 C279 1.369 1_455 S
C278 C280 1.419 . S
C278 H282 0.930 . S
C279 C278 1.369 1_655 S
C279 C288 1.429 . S
C280 C278 1.419 . S
C280 C281 1.363 . S
C280 H283 0.929 . S
C281 C280 1.363 . S
C281 C287 1.428 1_455 S
H282 C278 0.930 . S
H283 C280 0.929 . S
S284 N285 1.613 . S
S284 N286 1.610 . S
N285 S284 1.613 . S
N285 C288 1.350 . S
N286 S284 1.610 . S
N286 C287 1.351 . S
C287 C281 1.428 1_655 S
C287 N286 1.351 . S
C287 C288 1.434 . S
C288 C279 1.429 . S
C288 N285 1.350 . S
C288 C287 1.434 . S
C289 C290 1.369 1_545 S
C289 C291 1.419 . S
C289 H293 0.930 . S
C290 C289 1.369 1_565 S
C290 C299 1.429 . S
C291 C289 1.419 . S
C291 C292 1.363 . S
C291 H294 0.929 . S
C292 C291 1.363 . S
C292 C298 1.428 1_545 S
H293 C289 0.930 . S
H294 C291 0.929 . S
S295 N296 1.613 . S
S295 N297 1.610 . S
N296 S295 1.613 . S
N296 C299 1.350 . S
N297 S295 1.610 . S
N297 C298 1.351 . S
C298 C292 1.428 1_565 S
C298 N297 1.351 . S
C298 C299 1.434 . S
C299 C290 1.429 . S
C299 N296 1.350 . S
C299 C298 1.434 . S
C300 C301 1.369 . S
C300 C302 1.419 . S
C300 H304 0.930 . S
C301 C300 1.369 . S
C301 C310 1.429 . S
C302 C300 1.419 . S
C302 C303 1.363 . S
C302 H305 0.929 . S
C303 C302 1.363 . S
C303 C309 1.428 . S
H304 C300 0.930 . S
H305 C302 0.929 . S
S306 N307 1.613 . S
S306 N308 1.610 . S
N307 S306 1.613 . S
N307 C310 1.350 . S
N308 S306 1.610 . S
N308 C309 1.351 . S
C309 C303 1.428 . S
C309 N308 1.351 . S
C309 C310 1.434 . S
C310 C301 1.429 . S
C310 N307 1.350 . S
C310 C309 1.434 . S
C311 C312 1.369 . S
C311 C313 1.419 . S
C311 H315 0.930 . S
C312 C311 1.369 . S
C312 C321 1.429 . S
C313 C311 1.419 . S
C313 C314 1.363 . S
C313 H316 0.929 . S
C314 C313 1.363 . S
C314 C320 1.428 . S
H315 C311 0.930 . S
H316 C313 0.929 . S
S317 N318 1.613 . S
S317 N319 1.610 . S
N318 S317 1.613 . S
N318 C321 1.350 . S
N319 S317 1.610 . S
N319 C320 1.351 . S
C320 C314 1.428 . S
C320 N319 1.351 . S
C320 C321 1.434 . S
C321 C312 1.429 . S
C321 N318 1.350 . S
C321 C320 1.434 . S
C322 C323 1.369 . S
C322 C324 1.419 . S
C322 H326 0.930 . S
C323 C322 1.369 . S
C323 C332 1.429 . S
C324 C322 1.419 . S
C324 C325 1.363 . S
C324 H327 0.929 . S
C325 C324 1.363 . S
C325 C331 1.428 . S
H326 C322 0.930 . S
H327 C324 0.929 . S
S328 N329 1.613 . S
S328 N330 1.610 . S
N329 S328 1.613 . S
N329 C332 1.350 . S
N330 S328 1.610 . S
N330 C331 1.351 . S
C331 C325 1.428 . S
C331 N330 1.351 . S
C331 C332 1.434 . S
C332 C323 1.429 . S
C332 N329 1.350 . S
C332 C331 1.434 . S
C333 C334 1.369 . S
C333 C335 1.419 . S
C333 H337 0.930 . S
C334 C333 1.369 . S
C334 C343 1.429 . S
C335 C333 1.419 . S
C335 C336 1.363 . S
C335 H338 0.929 . S
C336 C335 1.363 . S
C336 C342 1.428 . S
H337 C333 0.930 . S
H338 C335 0.929 . S
S339 N340 1.613 . S
S339 N341 1.610 . S
N340 S339 1.613 . S
N340 C343 1.350 . S
N341 S339 1.610 . S
N341 C342 1.351 . S
C342 C336 1.428 . S
C342 N341 1.351 . S
C342 C343 1.434 . S
C343 C334 1.429 . S
C343 N340 1.350 . S
C343 C342 1.434 . S
C344 C345 1.369 . S
C344 C346 1.419 . S
C344 H348 0.930 . S
C345 C344 1.369 . S
C345 C354 1.429 . S
C346 C344 1.419 . S
C346 C347 1.363 . S
C346 H349 0.929 . S
C347 C346 1.363 . S
C347 C353 1.428 . S
H348 C344 0.930 . S
H349 C346 0.929 . S
S350 N351 1.613 . S
S350 N352 1.610 . S
N351 S350 1.613 . S
N351 C354 1.350 . S
N352 S350 1.610 . S
N352 C353 1.351 . S
C353 C347 1.428 . S
C353 N352 1.351 . S
C353 C354 1.434 . S
C354 C345 1.429 . S
C354 N351 1.350 . S
C354 C353 1.434 . S
C355 C356 1.369 . S
C355 C357 1.419 . S
C355 H359 0.930 . S
C356 C355 1.369 . S
C356 C365 1.429 . S
C357 C355 1.419 . S
C357 C358 1.363 . S
C357 H360 0.929 . S
C358 C357 1.363 . S
C358 C364 1.428 . S
H359 C355 0.930 . S
H360 C357 0.929 . S
S361 N362 1.613 . S
S361 N363 1.610 . S
N362 S361 1.613 . S
N362 C365 1.350 . S
N363 S361 1.610 . S
N363 C364 1.351 . S
C364 C358 1.428 . S
C364 N363 1.351 . S
C364 C365 1.434 . S
C365 C356 1.429 . S
C365 N362 1.350 . S
C365 C364 1.434 . S
C366 C367 1.369 . S
C366 C368 1.419 . S
C366 H370 0.930 . S
C367 C366 1.369 . S
C367 C376 1.429 . S
C368 C366 1.419 . S
C368 C369 1.363 . S
C368 H371 0.929 . S
C369 C368 1.363 . S
C369 C375 1.428 . S
H370 C366 0.930 . S
H371 C368 0.929 . S
S372 N373 1.613 . S
S372 N374 1.610 . S
N373 S372 1.613 . S
N373 C376 1.350 . S
N374 S372 1.610 . S
N374 C375 1.351 . S
C375 C369 1.428 . S
C375 N374 1.351 . S
C375 C376 1.434 . S
C376 C367 1.429 . S
C376 N373 1.350 . S
C376 C375 1.434 . S
C377 C378 1.369 1_455 S
C377 C379 1.419 . S
C377 H381 0.930 . S
C378 C377 1.369 1_655 S
C378 C387 1.429 . S
C379 C377 1.419 . S
C379 C380 1.363 . S
C379 H382 0.929 . S
C380 C379 1.363 . S
C380 C386 1.428 1_455 S
H381 C377 0.930 . S
H382 C379 0.929 . S
S383 N384 1.613 . S
S383 N385 1.610 . S
N384 S383 1.613 . S
N384 C387 1.350 . S
N385 S383 1.610 . S
N385 C386 1.351 . S
C386 C380 1.428 1_655 S
C386 N385 1.351 . S
C386 C387 1.434 . S
C387 C378 1.429 . S
C387 N384 1.350 . S
C387 C386 1.434 . S
C388 C389 1.369 1_565 S
C388 C390 1.419 1_554 S
C388 H392 0.930 . S
C389 C388 1.369 1_545 S
C389 C398 1.429 . S
C390 C388 1.419 1_556 S
C390 C391 1.363 . S
C390 H393 0.929 . S
C391 C390 1.363 . S
C391 C397 1.428 1_565 S
H392 C388 0.930 . S
H393 C390 0.929 . S
S394 N395 1.613 1_556 S
S394 N396 1.610 . S
N395 S394 1.613 1_554 S
N395 C398 1.350 . S
N396 S394 1.610 . S
N396 C397 1.351 . S
C397 C391 1.428 1_545 S
C397 N396 1.351 . S
C397 C398 1.434 1_556 S
C398 C389 1.429 . S
C398 N395 1.350 . S
C398 C397 1.434 1_554 S
C399 C400 1.369 . S
C399 C401 1.419 . S
C399 H403 0.930 . S
C400 C399 1.369 . S
C400 C409 1.429 . S
C401 C399 1.419 . S
C401 C402 1.363 . S
C401 H404 0.929 . S
C402 C401 1.363 . S
C402 C408 1.428 . S
H403 C399 0.930 . S
H404 C401 0.929 . S
S405 N406 1.613 . S
S405 N407 1.610 . S
N406 S405 1.613 . S
N406 C409 1.350 . S
N407 S405 1.610 . S
N407 C408 1.351 . S
C408 C402 1.428 . S
C408 N407 1.351 . S
C408 C409 1.434 . S
C409 C400 1.429 . S
C409 N406 1.350 . S
C409 C408 1.434 . S
C410 C411 1.369 . S
C410 C412 1.419 1_455 S
C410 H414 0.930 . S
C411 C410 1.369 . S
C411 C420 1.429 . S
C412 C410 1.419 1_655 S
C412 C413 1.363 . S
C412 H415 0.929 . S
C413 C412 1.363 . S
C413 C419 1.428 . S
H414 C410 0.930 . S
H415 C412 0.929 . S
S416 N417 1.613 . S
S416 N418 1.610 1_455 S
N417 S416 1.613 . S
N417 C420 1.350 . S
N418 S416 1.610 1_655 S
N418 C419 1.351 . S
C419 C413 1.428 . S
C419 N418 1.351 . S
C419 C420 1.434 1_655 S
C420 C411 1.429 . S
C420 N417 1.350 . S
C420 C419 1.434 1_455 S
C421 C422 1.369 1_545 S
C421 C423 1.419 1_554 S
C421 H425 0.930 . S
C422 C421 1.369 1_565 S
C422 C431 1.429 . S
C423 C421 1.419 1_556 S
C423 C424 1.363 . S
C423 H426 0.929 . S
C424 C423 1.363 . S
C424 C430 1.428 1_545 S
H425 C421 0.930 . S
H426 C423 0.929 . S
S427 N428 1.613 1_556 S
S427 N429 1.610 . S
N428 S427 1.613 1_554 S
N428 C431 1.350 . S
N429 S427 1.610 . S
N429 C430 1.351 . S
C430 C424 1.428 1_565 S
C430 N429 1.351 . S
C430 C431 1.434 1_556 S
C431 C422 1.429 . S
C431 N428 1.350 . S
C431 C430 1.434 1_554 S
C169 C161 1.462 . S
C171 C7 1.465 . S
C180 C21 1.465 . S
C182 C91 1.462 . S
C191 C35 1.461 . S
C193 C105 1.460 . S
C202 C49 1.459 . S
C204 C119 1.462 . S
C213 C133 1.460 . S
C215 C63 1.463 . S
C224 C77 1.465 . S
C226 C147 1.462 . S
C235 C55 1.393 . S
C237 C13 1.398 . S
C246 C69 1.393 . S
C248 C27 1.391 . S
C257 C83 1.392 . S
C259 C41 1.398 . S
C268 C97 1.401 . S
C270 C139 1.398 . S
C279 C111 1.393 . S
C281 C153 1.391 . S
C290 C125 1.393 . S
C292 C167 1.391 . S
C301 C120 0.792 . S
C303 C8 0.796 . S
C312 C22 0.787 . S
C314 C134 0.794 . S
C323 C148 0.797 . S
C325 C36 0.790 . S
C334 C162 0.787 . S
C336 C50 0.792 . S
C345 C92 0.790 . S
C347 C64 0.796 . S
C356 C78 0.787 . S
C358 C106 0.793 . S
C367 C137 1.562 . S
C369 C11 1.562 . S
C378 C25 1.562 . S
C380 C151 1.562 . S
C389 C165 1.563 . S
C391 C39 1.561 . S
C400 C53 1.563 . S
C402 C95 1.561 . S
C411 C67 1.562 . S
C413 C109 1.562 . S
C422 C123 1.562 . S
C424 C81 1.561 . S
