# Generated by pormake.
# Topology wjk, (5)-cn, num edge types: 1
# Building blocks:
#     Node 0, Type 0, BuildingBlock: XOMCOT_clean_sbu_1, # of connection points: 5
#     Node 1, Type 0, BuildingBlock: XOMCOT_clean_sbu_1, # of connection points: 5
#     Node 2, Type 0, BuildingBlock: XOMCOT_clean_sbu_1, # of connection points: 5
#     Node 3, Type 0, BuildingBlock: XOMCOT_clean_sbu_1, # of connection points: 5
#     Node 4, Type 0, BuildingBlock: XOMCOT_clean_sbu_1, # of connection points: 5
#     Node 5, Type 0, BuildingBlock: XOMCOT_clean_sbu_1, # of connection points: 5
#     Node 6, Type 0, BuildingBlock: XOMCOT_clean_sbu_1, # of connection points: 5
#     Node 7, Type 0, BuildingBlock: XOMCOT_clean_sbu_1, # of connection points: 5
#     Node 8, Type 0, BuildingBlock: XOMCOT_clean_sbu_1, # of connection points: 5
#     Node 9, Type 0, BuildingBlock: XOMCOT_clean_sbu_1, # of connection points: 5
#     Node 10, Type 0, BuildingBlock: XOMCOT_clean_sbu_1, # of connection points: 5
#     Node 11, Type 0, BuildingBlock: XOMCOT_clean_sbu_1, # of connection points: 5
#     Edge 12, Type (0, 0), BuildingBlock: EZIPEK_clean_linker_0, # of connection points: 2
#     Edge 13, Type (0, 0), BuildingBlock: EZIPEK_clean_linker_0, # of connection points: 2
#     Edge 14, Type (0, 0), BuildingBlock: EZIPEK_clean_linker_0, # of connection points: 2
#     Edge 15, Type (0, 0), BuildingBlock: EZIPEK_clean_linker_0, # of connection points: 2
#     Edge 16, Type (0, 0), BuildingBlock: EZIPEK_clean_linker_0, # of connection points: 2
#     Edge 17, Type (0, 0), BuildingBlock: EZIPEK_clean_linker_0, # of connection points: 2
#     Edge 18, Type (0, 0), BuildingBlock: EZIPEK_clean_linker_0, # of connection points: 2
#     Edge 19, Type (0, 0), BuildingBlock: EZIPEK_clean_linker_0, # of connection points: 2
#     Edge 20, Type (0, 0), BuildingBlock: EZIPEK_clean_linker_0, # of connection points: 2
#     Edge 21, Type (0, 0), BuildingBlock: EZIPEK_clean_linker_0, # of connection points: 2
#     Edge 22, Type (0, 0), BuildingBlock: EZIPEK_clean_linker_0, # of connection points: 2
#     Edge 23, Type (0, 0), BuildingBlock: EZIPEK_clean_linker_0, # of connection points: 2
#     Edge 24, Type (0, 0), BuildingBlock: EZIPEK_clean_linker_0, # of connection points: 2
#     Edge 25, Type (0, 0), BuildingBlock: EZIPEK_clean_linker_0, # of connection points: 2
#     Edge 26, Type (0, 0), BuildingBlock: EZIPEK_clean_linker_0, # of connection points: 2
#     Edge 27, Type (0, 0), BuildingBlock: EZIPEK_clean_linker_0, # of connection points: 2
#     Edge 28, Type (0, 0), BuildingBlock: EZIPEK_clean_linker_0, # of connection points: 2
#     Edge 29, Type (0, 0), BuildingBlock: EZIPEK_clean_linker_0, # of connection points: 2
#     Edge 30, Type (0, 0), BuildingBlock: EZIPEK_clean_linker_0, # of connection points: 2
#     Edge 31, Type (0, 0), BuildingBlock: EZIPEK_clean_linker_0, # of connection points: 2
#     Edge 32, Type (0, 0), BuildingBlock: EZIPEK_clean_linker_0, # of connection points: 2
#     Edge 33, Type (0, 0), BuildingBlock: EZIPEK_clean_linker_0, # of connection points: 2
#     Edge 34, Type (0, 0), BuildingBlock: EZIPEK_clean_linker_0, # of connection points: 2
#     Edge 35, Type (0, 0), BuildingBlock: EZIPEK_clean_linker_0, # of connection points: 2
#     Edge 36, Type (0, 0), BuildingBlock: EZIPEK_clean_linker_0, # of connection points: 2
#     Edge 37, Type (0, 0), BuildingBlock: EZIPEK_clean_linker_0, # of connection points: 2
#     Edge 38, Type (0, 0), BuildingBlock: EZIPEK_clean_linker_0, # of connection points: 2
#     Edge 39, Type (0, 0), BuildingBlock: EZIPEK_clean_linker_0, # of connection points: 2
#     Edge 40, Type (0, 0), BuildingBlock: EZIPEK_clean_linker_0, # of connection points: 2
#     Edge 41, Type (0, 0), BuildingBlock: EZIPEK_clean_linker_0, # of connection points: 2
# Relax obj value: 0.535
# Max RMSD: 0.262
# Mean RMSD: 0.262
data_MOF--net-wjk--node1-XOMCOT_clean_sbu_1--edge1-EZIPEK_clean_linker_0
_symmetry_space_group_name_H-M    P1
_symmetry_Int_Tables_number       1
_symmetry_cell_setting            triclinic
loop_
_symmetry_equiv_pos_as_xyz
'x, y, z'
_cell_length_a     26.192103
_cell_length_b     26.103276
_cell_length_c     53.585765
_cell_angle_alpha  89.736194
_cell_angle_beta   90.158657
_cell_angle_gamma 120.30772
loop_
_atom_site_label
_atom_site_type_symbol
_atom_site_fract_x
_atom_site_fract_y
_atom_site_fract_z
_atom_type_partial_charge
C0 C 0.08339 0.21793 0.26813 0.0
C1 C 0.03645 0.16329 0.27464 0.0
N2 N 0.05072 0.12197 0.26891 0.0
N3 N 0.1267 0.2109 0.25811 0.0
C4 C 0.10536 0.15177 0.25886 0.0
H5 H 0.08571 0.26022 0.27029 0.0
Co6 Co 0.19792 0.2733 0.24576 0.0
C7 C 0.22295 0.2151 0.20232 0.0
O8 O 0.2185 0.2513 0.1866 0.0
N9 N 0.27039 0.33773 0.23367 0.0
C10 C 0.34041 0.40961 0.21014 0.0
C11 C 0.28208 0.36572 0.21125 0.0
C12 C 0.3228 0.36661 0.24589 0.0
N13 N 0.36572 0.41003 0.23198 0.0
O14 O 0.23776 0.26326 0.27368 0.0
H15 H 0.25044 0.35584 0.19645 0.0
H16 H 0.33043 0.35598 0.2645 0.0
O17 O 0.21212 0.21763 0.22551 0.0
C18 C 0.232 0.28908 0.29278 0.0
O19 O 0.20608 0.32068 0.29001 0.0
N20 N 0.15493 0.28509 0.22106 0.0
C21 C 0.0625 0.29553 0.20174 0.0
C22 C 0.06585 0.24453 0.19717 0.0
C23 C 0.11232 0.23981 0.20725 0.0
C24 C 0.15388 0.33639 0.22442 0.0
C25 C 0.10833 0.34304 0.21449 0.0
H26 H 0.11043 0.19756 0.20628 0.0
H27 H 0.18568 0.37022 0.23675 0.0
H28 H 0.12906 0.13069 0.25229 0.0
H29 H -0.00482 0.15445 0.28299 0.0
H30 H 0.36255 0.43932 0.19462 0.0
H31 H 0.03022 0.20676 0.18767 0.0
H32 H 0.10617 0.38252 0.21854 0.0
C33 C 0.89966 0.10338 0.60937 0.0
C34 C 0.9134 0.0589 0.60988 0.0
N35 N 0.96251 0.07679 0.59614 0.0
N36 N 0.93976 0.14878 0.59526 0.0
C37 C 0.97787 0.1314 0.58758 0.0
H38 H 0.8621 0.10229 0.61826 0.0
Co39 Co 0.93592 0.21643 0.58743 0.0
C40 C 0.00645 0.26426 0.54084 0.0
O41 O 0.96172 0.2675 0.53165 0.0
N42 N 0.93222 0.28618 0.57952 0.0
C43 C 0.90806 0.35005 0.56332 0.0
C44 C 0.89172 0.29152 0.56564 0.0
C45 C 0.97268 0.34305 0.58548 0.0
N46 N 0.95889 0.38239 0.57577 0.0
O47 O 0.98992 0.25578 0.61415 0.0
H48 H 0.85379 0.25615 0.55641 0.0
H49 H 0.01241 0.35581 0.59616 0.0
O50 O 0.0007 0.24176 0.56273 0.0
C51 C 0.96385 0.26136 0.6332 0.0
O52 O 0.91206 0.25697 0.62988 0.0
N53 N 0.87694 0.17127 0.56468 0.0
C54 C 0.7765 0.07089 0.54786 0.0
C55 C 0.83154 0.08866 0.5369 0.0
C56 C 0.88177 0.13913 0.54577 0.0
C57 C 0.82314 0.15532 0.5748 0.0
C58 C 0.77183 0.10641 0.566 0.0
H59 H 0.92456 0.14811 0.53936 0.0
H60 H 0.82071 0.17851 0.59102 0.0
H61 H 0.01547 0.15741 0.57557 0.0
H62 H 0.88909 0.01654 0.61935 0.0
H63 H 0.885 0.36784 0.55286 0.0
H64 H 0.83625 0.06104 0.52314 0.0
H65 H 0.72992 0.09299 0.575 0.0
C66 C 0.7863 0.89418 0.92943 0.0
C67 C 0.8432 0.90559 0.93292 0.0
N68 N 0.87943 0.96474 0.93248 0.0
N69 N 0.78711 0.94606 0.92653 0.0
C70 C 0.84453 0.98824 0.92895 0.0
H71 H 0.74715 0.85077 0.92816 0.0
Co72 Co 0.72377 0.95537 0.91692 0.0
C73 C 0.77487 0.0525 0.87835 0.0
O74 O 0.72578 0.02226 0.86555 0.0
N75 N 0.65855 0.96436 0.90723 0.0
C76 C 0.57605 0.95233 0.88942 0.0
C77 C 0.61596 0.93328 0.88998 0.0
C78 C 0.6435 0.00331 0.91643 0.0
N79 N 0.59327 0.99604 0.90605 0.0
O80 O 0.7315 0.99573 0.94785 0.0
H81 H 0.61344 0.89955 0.87775 0.0
H82 H 0.66874 0.03653 0.93031 0.0
O83 O 0.77943 0.03052 0.89917 0.0
C84 C 0.70095 0.95738 0.96462 0.0
O85 O 0.66727 0.90168 0.95803 0.0
N86 N 0.71444 0.90896 0.8892 0.0
C87 C 0.70876 0.8196 0.85968 0.0
C88 C 0.7541 0.8784 0.85622 0.0
C89 C 0.75663 0.92262 0.87141 0.0
C90 C 0.6697 0.85178 0.89252 0.0
C91 C 0.66462 0.80651 0.87724 0.0
H92 H 0.79552 0.96606 0.87039 0.0
H93 H 0.63923 0.84104 0.9079 0.0
H94 H 0.86105 0.03514 0.92703 0.0
H95 H 0.85725 0.87319 0.93455 0.0
H96 H 0.53707 0.93533 0.87774 0.0
H97 H 0.78957 0.88927 0.84309 0.0
H98 H 0.62967 0.76119 0.88048 0.0
C99 C 0.87723 0.77871 0.2933 0.0
C100 C 0.92202 0.83654 0.29648 0.0
N101 N 0.9071 0.87199 0.28407 0.0
N102 N 0.83459 0.77786 0.27882 0.0
C103 C 0.85385 0.83558 0.2737 0.0
H104 H 0.877 0.73952 0.30009 0.0
Co105 Co 0.77035 0.70912 0.2659 0.0
C106 C 0.74117 0.75137 0.21799 0.0
O107 O 0.73226 0.70383 0.20606 0.0
N108 N 0.70461 0.6383 0.25282 0.0
C109 C 0.64735 0.55825 0.22973 0.0
C110 C 0.704 0.60283 0.23421 0.0
C111 C 0.64683 0.61307 0.25938 0.0
N112 N 0.61157 0.56481 0.24553 0.0
O113 O 0.72079 0.71485 0.29048 0.0
H114 H 0.74146 0.6099 0.22322 0.0
H115 H 0.63012 0.63018 0.27353 0.0
O116 O 0.755 0.75775 0.24127 0.0
C117 C 0.72362 0.68782 0.30994 0.0
O118 O 0.75397 0.66033 0.30876 0.0
N119 N 0.82248 0.70179 0.24514 0.0
C120 C 0.90806 0.68864 0.22086 0.0
C121 C 0.90032 0.73675 0.21526 0.0
C122 C 0.8578 0.74317 0.22802 0.0
C123 C 0.83229 0.65699 0.25197 0.0
C124 C 0.874 0.64847 0.2395 0.0
H125 H 0.85502 0.78251 0.22497 0.0
H126 H 0.80675 0.62725 0.26698 0.0
H127 H 0.83105 0.85086 0.26163 0.0
H128 H 0.96327 0.85138 0.30632 0.0
H129 H 0.63315 0.52426 0.21557 0.0
H130 H 0.92789 0.76971 0.2015 0.0
H131 H 0.88031 0.61183 0.24457 0.0
C132 C 0.14882 0.92217 0.57524 0.0
C133 C 0.13778 0.96763 0.57973 0.0
N134 N 0.07915 0.94574 0.5777 0.0
N135 N 0.09735 0.87203 0.5703 0.0
C136 C 0.05558 0.88782 0.57198 0.0
H137 H 0.1916 0.92531 0.57554 0.0
Co138 Co 0.08932 0.79831 0.5629 0.0
C139 C -0.00425 0.75711 0.5223 0.0
O140 O 0.03005 0.75216 0.50592 0.0
N141 N 0.08088 0.72268 0.55571 0.0
C142 C 0.07416 0.64424 0.53605 0.0
C143 C 0.08852 0.70221 0.53364 0.0
C144 C 0.06331 0.67575 0.57142 0.0
N145 N 0.05814 0.62756 0.55978 0.0
O146 O 0.04655 0.76775 0.59355 0.0
H147 H 0.10392 0.72727 0.51653 0.0
H148 H 0.05279 0.67575 0.59088 0.0
O149 O 0.01419 0.77466 0.54461 0.0
C150 C 0.08083 0.78288 0.6125 0.0
O151 O 0.13822 0.81501 0.60897 0.0
N152 N 0.13692 0.83234 0.5347 0.0
C153 C 0.21868 0.89286 0.49715 0.0
C154 C 0.16699 0.89596 0.49895 0.0
C155 C 0.12714 0.86625 0.51814 0.0
C156 C 0.18844 0.83108 0.53391 0.0
C157 C 0.2293 0.85959 0.51471 0.0
H158 H 0.08935 0.87198 0.52024 0.0
H159 H 0.19779 0.8077 0.54827 0.0
H160 H 0.00872 0.85745 0.56945 0.0
H161 H 0.17 0.01299 0.58448 0.0
H162 H 0.0752 0.6162 0.52146 0.0
H163 H 0.15835 0.9227 0.48605 0.0
H164 H 0.26956 0.85755 0.5141 0.0
C165 C 0.22479 0.14504 0.92299 0.0
C166 C 0.17091 0.13895 0.92907 0.0
N167 N 0.13018 0.08092 0.92804 0.0
N168 N 0.21742 0.09111 0.9177 0.0
C169 C 0.15941 0.05289 0.92163 0.0
H170 H 0.26651 0.1863 0.92194 0.0
Co171 Co 0.27669 0.07519 0.90808 0.0
C172 C 0.17481 0.98967 0.87121 0.0
O173 O 0.14054 0.0128 0.87238 0.0
N174 N 0.33614 0.05992 0.89878 0.0
C175 C 0.39166 0.03429 0.87689 0.0
C176 C 0.34244 0.04017 0.87638 0.0
C177 C 0.3828 0.06716 0.91236 0.0
N178 N 0.41658 0.05097 0.89956 0.0
O179 O 0.25477 0.01967 0.9355 0.0
H180 H 0.31342 0.03095 0.86055 0.0
H181 H 0.392 0.08401 0.93113 0.0
O182 O 0.22282 0.01128 0.88406 0.0
C183 C 0.27466 0.04911 0.95578 0.0
O184 O 0.30612 0.10729 0.95421 0.0
N185 N 0.30324 0.13525 0.884 0.0
C186 C 0.33811 0.2464 0.86423 0.0
C187 C 0.28445 0.19697 0.85704 0.0
C188 C 0.26771 0.14161 0.86721 0.0
C189 C 0.35818 0.18199 0.8893 0.0
C190 C 0.37702 0.23822 0.87928 0.0
H191 H 0.22364 0.10647 0.86388 0.0
H192 H 0.38527 0.17722 0.90332 0.0
H193 H 0.13835 0.00541 0.91918 0.0
H194 H 0.16189 0.17422 0.9331 0.0
H195 H 0.40793 0.01879 0.86186 0.0
H196 H 0.25333 0.20211 0.84545 0.0
H197 H 0.41884 0.27571 0.88508 0.0
C198 C 0.70137 0.8333 0.44164 0.0
C199 C 0.74799 0.8873 0.43437 0.0
N200 N 0.79714 0.88326 0.43503 0.0
N201 N 0.7213 0.79565 0.44659 0.0
C202 C 0.77997 0.82749 0.44235 0.0
H203 H 0.65597 0.82246 0.44393 0.0
Co204 Co 0.67425 0.72076 0.46021 0.0
C205 C 0.76389 0.7103 0.49346 0.0
O206 O 0.73679 0.71122 0.51382 0.0
N207 N 0.6239 0.6446 0.47392 0.0
C208 C 0.57068 0.57107 0.50076 0.0
C209 C 0.6146 0.629 0.49837 0.0
C210 C 0.58309 0.59519 0.46191 0.0
N211 N 0.55089 0.55005 0.47785 0.0
O212 O 0.67878 0.68769 0.42868 0.0
H213 H 0.63387 0.65863 0.51392 0.0
H214 H 0.57467 0.59294 0.44211 0.0
O215 O 0.74506 0.71687 0.47217 0.0
C216 C 0.64669 0.68956 0.41108 0.0
O217 O 0.60497 0.70156 0.41656 0.0
N218 N 0.66874 0.75726 0.48909 0.0
C219 C 0.65951 0.8407 0.51723 0.0
C220 C 0.71434 0.84483 0.514 0.0
C221 C 0.71823 0.80317 0.49954 0.0
C222 C 0.61426 0.7503 0.49352 0.0
C223 C 0.60846 0.79157 0.50792 0.0
H224 H 0.76176 0.81181 0.49452 0.0
H225 H 0.57591 0.71583 0.48396 0.0
H226 H 0.81011 0.81155 0.44568 0.0
H227 H 0.74652 0.92703 0.42992 0.0
H228 H 0.55184 0.54729 0.51803 0.0
H229 H 0.75461 0.88306 0.5207 0.0
H230 H 0.56564 0.78797 0.50996 0.0
C231 C 0.92388 0.81047 0.73986 0.0
C232 C 0.93615 0.86791 0.73666 0.0
N233 N -0.00701 0.90422 0.74297 0.0
N234 N 0.97273 0.81097 0.74837 0.0
C235 C 0.01438 0.86887 0.74961 0.0
H236 H 0.88112 0.77094 0.73752 0.0
Co237 Co 0.97521 0.74565 0.76067 0.0
C238 C 0.05734 0.79162 0.80533 0.0
O239 O 0.02063 0.74335 0.81762 0.0
N240 N 0.97593 0.67746 0.77316 0.0
C241 C 0.95353 0.59517 0.79466 0.0
C242 C 0.94225 0.64048 0.79186 0.0
C243 C 0.00786 0.65298 0.76515 0.0
N244 N -0.0055 0.60312 0.77785 0.0
O245 O 0.02788 0.75531 0.73383 0.0
H246 H 0.91221 0.64603 0.8037 0.0
H247 H 0.03989 0.67057 0.75031 0.0
O248 O 0.04322 0.79819 0.78304 0.0
C249 C -0.0003 0.72349 0.71504 0.0
O250 O 0.9445 0.68109 0.7181 0.0
N251 N 0.91878 0.73583 0.78386 0.0
C252 C 0.82069 0.72537 0.8078 0.0
C253 C 0.87751 0.77051 0.81443 0.0
C254 C 0.9263 0.77542 0.80202 0.0
C255 C 0.86356 0.69164 0.77722 0.0
C256 C 0.81367 0.68443 0.78953 0.0
H257 H 0.96919 0.81324 0.80587 0.0
H258 H 0.85848 0.6628 0.76181 0.0
H259 H 0.05826 0.88527 0.75686 0.0
H260 H 0.90505 0.88203 0.73166 0.0
H261 H 0.93336 0.55903 0.808 0.0
H262 H 0.88378 0.80337 0.82826 0.0
H263 H 0.77007 0.64955 0.78395 0.0
C264 C 0.07725 0.88233 0.08682 0.0
C265 C 0.03179 0.89373 0.0833 0.0
N266 N 0.05274 0.9513 0.08848 0.0
N267 N 0.1259 0.9326 0.09435 0.0
C268 C 0.1097 0.974 0.09488 0.0
H269 H 0.07443 0.8397 0.08512 0.0
Co270 Co 0.19665 0.9409 0.10512 0.0
C271 C 0.22126 0.01761 0.1515 0.0
O272 O 0.23062 0.9814 0.16515 0.0
N273 N 0.26947 0.94905 0.11609 0.0
C274 C 0.33699 0.93971 0.13797 0.0
C275 C 0.27981 0.92726 0.13737 0.0
C276 C 0.32211 0.97455 0.10406 0.0
N277 N 0.36319 0.96908 0.117 0.0
O278 O 0.23473 0.99581 0.07807 0.0
H279 H 0.24795 0.90242 0.15175 0.0
H280 H 0.33026 0.99489 0.08588 0.0
O281 O 0.20835 0.00663 0.12822 0.0
C282 C 0.23147 0.96616 0.05857 0.0
O283 O 0.21312 0.90936 0.06118 0.0
N284 N 0.15514 0.88164 0.12854 0.0
C285 C 0.08497 0.78288 0.15755 0.0
C286 C 0.08236 0.8348 0.16035 0.0
C287 C 0.11723 0.88357 0.14531 0.0
C288 C 0.15567 0.83022 0.12462 0.0
C289 C 0.12205 0.78046 0.13954 0.0
H290 H 0.112 0.92188 0.14629 0.0
H291 H 0.1828 0.82821 0.10991 0.0
H292 H 0.1379 0.01918 0.1011 0.0
H293 H 0.98635 0.86187 0.07864 0.0
H294 H 0.35761 0.92702 0.15237 0.0
H295 H 0.05233 0.83694 0.17363 0.0
H296 H 0.12369 0.74027 0.13666 0.0
C297 C 0.11201 0.14465 0.40251 0.0
C298 C 0.05346 0.10344 0.39885 0.0
N299 N 0.03295 0.0714 0.41988 0.0
N300 N 0.12859 0.13865 0.42582 0.0
C301 C 0.07874 0.09378 0.43598 0.0
H302 H 0.13946 0.17786 0.38897 0.0
Co303 Co 0.20124 0.18741 0.44208 0.0
C304 C 0.14834 0.21878 0.47458 0.0
O305 O 0.14882 0.17255 0.48413 0.0
N306 N 0.27179 0.23623 0.45846 0.0
C307 C 0.35218 0.27001 0.48209 0.0
C308 C 0.30075 0.22016 0.47472 0.0
C309 C 0.30471 0.29583 0.4571 0.0
N310 N 0.3544 0.31716 0.47075 0.0
O311 O 0.23139 0.23037 0.41029 0.0
H312 H 0.2861 0.17499 0.48037 0.0
H313 H 0.29333 0.32311 0.4458 0.0
O314 O 0.17166 0.23754 0.45307 0.0
C315 C 0.27596 0.26623 0.39705 0.0
O316 O 0.3297 0.29241 0.40633 0.0
N317 N 0.22827 0.13492 0.43411 0.0
C318 C 0.27016 0.05586 0.43582 0.0
C319 C 0.2155 0.04096 0.44628 0.0
C320 C 0.19603 0.0814 0.44563 0.0
C321 C 0.28134 0.14981 0.42329 0.0
C322 C 0.30261 0.11023 0.42348 0.0
H323 H 0.15751 0.0717 0.45635 0.0
H324 H 0.30957 0.19343 0.4159 0.0
H325 H 0.07521 0.07877 0.45508 0.0
H326 H 0.02765 0.09769 0.38219 0.0
H327 H 0.38604 0.27155 0.49422 0.0
H328 H 0.19003 3e-05 0.45661 0.0
H329 H 0.3455 0.12349 0.41551 0.0
C330 C 0.1511 0.24381 0.77168 0.0
C331 C 0.15164 0.19398 0.76376 0.0
N332 N 0.09518 0.15056 0.76089 0.0
N333 N 0.09448 0.23083 0.77434 0.0
C334 C 0.06155 0.17408 0.76688 0.0
H335 H 0.18952 0.28664 0.77548 0.0
Co336 Co 0.06884 0.28278 0.78328 0.0
C337 C 0.98132 0.17265 0.81623 0.0
O338 O 0.00558 0.13949 0.8141 0.0
N339 N 0.04408 0.3356 0.79157 0.0
C340 C 0.01101 0.38626 0.81252 0.0
C341 C 0.02004 0.33881 0.81339 0.0
C342 C 0.04985 0.3817 0.77788 0.0
N343 N 0.02972 0.41266 0.79018 0.0
O344 O 0.01891 0.25774 0.75451 0.0
H345 H 0.01109 0.30958 0.8292 0.0
H346 H 0.06939 0.39346 0.75952 0.0
O347 O 0.00378 0.22309 0.80508 0.0
C348 C 0.04903 0.2875 0.73558 0.0
O349 O 0.10383 0.33017 0.73935 0.0
N350 N 0.12306 0.31151 0.8095 0.0
C351 C 0.23001 0.35137 0.83367 0.0
C352 C 0.18218 0.29451 0.83853 0.0
C353 C 0.12889 0.27531 0.82618 0.0
C354 C 0.16721 0.36913 0.80657 0.0
C355 C 0.22126 0.39046 0.81887 0.0
H356 H 0.09595 0.22933 0.82753 0.0
H357 H 0.1629 0.39695 0.79272 0.0
H358 H 0.01372 0.15007 0.76607 0.0
H359 H 0.19005 0.18941 0.7609 0.0
H360 H -0.00687 0.40098 0.8272 0.0
H361 H 0.1878 0.26316 0.84985 0.0
H362 H 0.25742 0.43477 0.81491 0.0
C363 C 0.86637 0.10665 0.10623 0.0
C364 C 0.9194 0.11015 0.1007 0.0
N365 N 0.91059 0.05481 0.10179 0.0
N366 N 0.82544 0.04953 0.11114 0.0
C367 C 0.8537 0.01906 0.1081 0.0
H368 H 0.85805 0.14321 0.10673 0.0
Co369 Co 0.74665 0.01954 0.11873 0.0
C370 C 0.72893 0.93861 0.16238 0.0
O371 O 0.70975 0.96838 0.17518 0.0
N372 N 0.6667 0.98955 0.12479 0.0
C373 C 0.57011 0.9278 0.12963 0.0
C374 C 0.62507 0.9338 0.13146 0.0
C375 C 0.6354 0.01493 0.11719 0.0
N376 N 0.57707 0.97904 0.12071 0.0
O377 O 0.72543 0.97372 0.08868 0.0
H378 H 0.63297 0.89777 0.1352 0.0
H379 H 0.65418 0.05717 0.10764 0.0
O380 O 0.74486 0.95332 0.13945 0.0
C381 C 0.72927 0.00763 0.07059 0.0
O382 O 0.74442 0.06281 0.07549 0.0
N383 N 0.77007 0.07128 0.14645 0.0
C384 C 0.84095 0.17602 0.17212 0.0
C385 C 0.84947 0.12765 0.17496 0.0
C386 C 0.81398 0.07592 0.16181 0.0
C387 C 0.75794 0.11645 0.14543 0.0
C388 C 0.79231 0.16911 0.15858 0.0
H389 H 0.82722 0.04307 0.16156 0.0
H390 H 0.72675 0.1156 0.1322 0.0
H391 H 0.83288 0.97138 0.11003 0.0
H392 H 0.9609 0.14973 0.09626 0.0
H393 H 0.52805 0.88789 0.13301 0.0
H394 H 0.88727 0.13199 0.18515 0.0
H395 H 0.78511 0.20615 0.15593 0.0
C396 C 0.52367 0.46622 0.25103 0.0
C397 C 0.54829 0.52759 0.24631 0.0
C398 C 0.44929 0.51149 0.23846 0.0
C399 C 0.42643 0.44941 0.23885 0.0
N400 N 0.44359 0.36714 0.24209 0.0
N401 N 0.53575 0.60837 0.23216 0.0
C402 C 0.46391 0.42641 0.24451 0.0
C403 C 0.51141 0.55047 0.23937 0.0
N404 N 0.55777 0.44635 0.26182 0.0
N405 N 0.41138 0.53295 0.23759 0.0
H406 H 0.58122 0.63772 0.2317 0.0
H407 H 0.5111 0.62581 0.22451 0.0
H408 H 0.36555 0.5051 0.23768 0.0
H409 H 0.42521 0.57783 0.23939 0.0
H410 H 0.54104 0.40263 0.26768 0.0
H411 H 0.60146 0.47518 0.2672 0.0
H412 H 0.47078 0.34883 0.24365 0.0
H413 H 0.40086 0.33697 0.23613 0.0
C414 C 0.98038 0.53422 0.57955 0.0
C415 C 0.03819 0.56893 0.56962 0.0
C416 C 0.04771 0.48049 0.56696 0.0
C417 C 0.99054 0.44617 0.57747 0.0
N418 N 0.91119 0.4433 0.60093 0.0
N419 N 0.13295 0.57889 0.56152 0.0
C420 C 0.96006 0.47437 0.58632 0.0
C421 C 0.07396 0.54315 0.56602 0.0
N422 N 0.9431 0.55641 0.58065 0.0
N423 N 0.07509 0.45343 0.55619 0.0
H424 H 0.15313 0.62508 0.56137 0.0
H425 H 0.16232 0.56305 0.56064 0.0
H426 H 0.0563 0.40754 0.55547 0.0
H427 H 0.11415 0.47647 0.546 0.0
H428 H 0.89855 0.5306 0.58535 0.0
H429 H 0.95485 0.59889 0.57462 0.0
H430 H 0.88963 0.46274 0.60962 0.0
H431 H 0.89636 0.39957 0.60641 0.0
C432 C 0.46116 0.00297 0.92399 0.0
C433 C 0.46789 0.04922 0.90791 0.0
C434 C 0.56847 0.07329 0.89744 0.0
C435 C 0.55992 0.02425 0.91192 0.0
N436 N 0.5074 0.95268 0.94397 0.0
N437 N 0.53089 0.13774 0.88475 0.0
C438 C 0.50944 0.99317 0.9272 0.0
C439 C 0.52306 0.0879 0.8966 0.0
N440 N 0.40735 0.96571 0.9345 0.0
N441 N 0.61845 0.10301 0.88332 0.0
H442 H 0.49761 0.14862 0.88417 0.0
H443 H 0.57106 0.17024 0.87733 0.0
H444 H 0.65258 0.09341 0.88432 0.0
H445 H 0.62536 0.1354 0.8702 0.0
H446 H 0.39754 0.92729 0.94429 0.0
H447 H 0.37105 0.97152 0.93235 0.0
H448 H 0.47404 0.93118 0.95717 0.0
H449 H 0.54226 0.94441 0.94593 0.0
C450 C 0.50685 0.44825 0.46159 0.0
C451 C 0.49982 0.49348 0.47253 0.0
C452 C 0.39635 0.42215 0.48214 0.0
C453 C 0.40295 0.37715 0.47068 0.0
N454 N 0.45883 0.3489 0.44436 0.0
N455 N 0.43629 0.5278 0.48786 0.0
C456 C 0.45662 0.39071 0.45881 0.0
C457 C 0.44381 0.48166 0.4811 0.0
N458 N 0.56195 0.45981 0.45493 0.0
N459 N 0.34562 0.40738 0.49486 0.0
H460 H 0.47043 0.5719 0.48667 0.0
H461 H 0.39542 0.52295 0.49234 0.0
H462 H 0.31045 0.36384 0.49613 0.0
H463 H 0.34012 0.43723 0.50571 0.0
H464 H 0.57112 0.42716 0.44931 0.0
H465 H 0.59942 0.50181 0.45664 0.0
H466 H 0.49503 0.35764 0.43333 0.0
H467 H 0.42223 0.30671 0.44167 0.0
C468 C 0.98045 0.51063 0.76059 0.0
C469 C 0.01591 0.56301 0.77428 0.0
C470 C 0.0723 0.52045 0.79193 0.0
C471 C 0.03021 0.46502 0.7818 0.0
N472 N 0.94551 0.4055 0.756 0.0
N473 N 0.0968 0.62108 0.80189 0.0
C474 C 0.98534 0.45981 0.76546 0.0
C475 C 0.06323 0.56935 0.78922 0.0
N476 N 0.94105 0.50973 0.74362 0.0
N477 N 0.12028 0.52545 0.80427 0.0
H478 H 0.09141 0.65778 0.79949 0.0
H479 H 0.12826 0.62712 0.81525 0.0
H480 H 0.12719 0.48961 0.80635 0.0
H481 H 0.15512 0.56543 0.81074 0.0
H482 H 0.91599 0.47443 0.73167 0.0
H483 H 0.93691 0.54688 0.74023 0.0
H484 H 0.90823 0.39705 0.74579 0.0
H485 H 0.94835 0.36765 0.7594 0.0
C486 C 0.43311 0.94928 0.0948 0.0
C487 C 0.42258 0.98673 0.11023 0.0
C488 C 0.52153 0.03065 0.12798 0.0
C489 C 0.53048 0.98998 0.11396 0.0
N490 N 0.50451 0.9242 0.07903 0.0
N491 N 0.45953 0.07375 0.13534 0.0
C492 C 0.48945 0.95414 0.09547 0.0
C493 C 0.46851 0.0318 0.12445 0.0
N494 N 0.38788 0.90621 0.08112 0.0
N495 N 0.56125 0.06432 0.14598 0.0
H496 H 0.41999 0.07387 0.13295 0.0
H497 H 0.49235 0.11067 0.14468 0.0
H498 H 0.60008 0.06363 0.14935 0.0
H499 H 0.55424 0.09035 0.15859 0.0
H500 H 0.39057 0.8728 0.07176 0.0
H501 H 0.34639 0.90246 0.08003 0.0
H502 H 0.47863 0.90095 0.06375 0.0
H503 H 0.54569 0.92704 0.07955 0.0
C504 C 0.28875 0.32884 0.3591 0.0
C505 C 0.26794 0.27193 0.36985 0.0
C506 C 0.22706 0.22549 0.32929 0.0
C507 C 0.25072 0.28249 0.31822 0.0
N508 N 0.31549 0.38839 0.32138 0.0
N509 N 0.23014 0.16706 0.36351 0.0
C510 C 0.28517 0.33417 0.33279 0.0
C511 C 0.24097 0.2206 0.35446 0.0
N512 N 0.30925 0.37756 0.3741 0.0
N513 N 0.18847 0.17574 0.31638 0.0
H514 H 0.23833 0.16062 0.38182 0.0
H515 H 0.21783 0.13015 0.35227 0.0
H516 H 0.17778 0.17629 0.29777 0.0
H517 H 0.1634 0.13417 0.32471 0.0
H518 H 0.31889 0.41916 0.3676 0.0
H519 H 0.31155 0.37545 0.39349 0.0
H520 H 0.34619 0.42685 0.33057 0.0
H521 H 0.31437 0.39399 0.30215 0.0
C522 C 0.94493 0.23858 0.67928 0.0
C523 C 0.9861 0.2643 0.65923 0.0
C524 C 0.06491 0.2864 0.68924 0.0
C525 C 0.02542 0.27491 0.70952 0.0
N526 N 0.9271 0.252 0.72213 0.0
N527 N 0.08913 0.32465 0.64724 0.0
C528 C 0.9651 0.25442 0.70416 0.0
C529 C 0.04735 0.29169 0.66472 0.0
N530 N 0.88738 0.19627 0.675 0.0
N531 N 0.11796 0.28944 0.69296 0.0
H532 H 0.07891 0.33415 0.62966 0.0
H533 H 0.13415 0.34855 0.65147 0.0
H534 H 0.12989 0.27914 0.71004 0.0
H535 H 0.14594 0.29381 0.67827 0.0
H536 H 0.85753 0.17436 0.68948 0.0
H537 H 0.87204 0.17675 0.65759 0.0
H538 H 0.88382 0.24113 0.71802 0.0
H539 H 0.94022 0.26764 0.74021 0.0
C540 C 0.75328 0.96879 0.03198 0.0
C541 C 0.71769 0.9878 0.04415 0.0
C542 C 0.67548 0.9927 1.00369 0.0
C543 C 0.70935 0.97149 0.99169 0.0
N544 N 0.77166 0.92817 0.9949 0.0
N545 N 0.63672 0.00675 0.04252 0.0
C546 C 0.74553 0.95613 1.00601 0.0
C547 C 0.6765 -0.0033 0.03021 0.0
N548 N 0.79666 0.96559 0.04488 0.0
N549 N 0.64244 0.00921 0.98971 0.0
H550 H 0.63551 0.00886 0.06192 0.0
H551 H 0.6015 0.00754 0.03388 0.0
H552 H 0.63838 0.00399 0.97044 0.0
H553 H 0.62211 0.03146 0.99687 0.0
H554 H 0.82903 0.95964 0.03642 0.0
H555 H 0.80304 0.97289 0.06396 0.0
H556 H 0.7921 0.90893 1.00473 0.0
H557 H 0.76912 0.92016 0.97585 0.0
C558 C 0.651 0.63457 0.37323 0.0
C559 C 0.66219 0.68839 0.38441 0.0
C560 C 0.71172 0.74265 0.34602 0.0
C561 C 0.69655 0.6883 0.33422 0.0
N562 N 0.63948 0.58138 0.33468 0.0
N563 N 0.68987 0.79144 0.37886 0.0
C564 C 0.66245 0.63385 0.34729 0.0
C565 C 0.68806 0.74163 0.36996 0.0
N566 N 0.62997 0.58421 0.38734 0.0
N567 N 0.75171 0.79552 0.33528 0.0
H568 H 0.67284 0.79312 0.39608 0.0
H569 H 0.7028 0.8293 0.36803 0.0
H570 H 0.77114 0.79891 0.31797 0.0
H571 H 0.76996 0.83592 0.34463 0.0
H572 H 0.6271 0.54529 0.38085 0.0
H573 H 0.61953 0.58261 0.40618 0.0
H574 H 0.60972 0.54047 0.34258 0.0
H575 H 0.64532 0.57935 0.31553 0.0
C576 C 0.01661 0.78038 0.64801 0.0
C577 C 0.0579 0.76558 0.6384 0.0
C578 C 0.06897 0.73331 0.68028 0.0
C579 C 0.02266 0.74147 0.68916 0.0
N580 N 0.94653 0.76576 0.68034 0.0
N581 N 0.11509 0.7173 0.64438 0.0
C582 C -0.00543 0.76262 0.67264 0.0
C583 C 0.08193 0.73921 0.65428 0.0
N584 N 0.00089 0.81449 0.63425 0.0
N585 N 0.10102 0.72042 0.69663 0.0
H586 H 0.1242 0.71905 0.62537 0.0
H587 H 0.12849 0.69205 0.65456 0.0
H588 H 0.0928 0.71578 0.71573 0.0
H589 H 0.1392 0.72 0.69162 0.0
H590 H 0.97697 0.83301 0.64149 0.0
H591 H 0.0165 0.82935 0.61632 0.0
H592 H 0.91985 0.7733 0.66819 0.0
H593 H 0.93059 0.75682 0.69851 0.0
C594 C 0.30971 0.04511 0.99895 0.0
C595 C 0.26263 0.02156 0.98127 0.0
C596 C 0.19389 0.96298 0.01498 0.0
C597 C 0.24042 0.9911 0.0328 0.0
N598 N 0.33925 0.06993 0.04205 0.0
N599 N 0.15741 0.96297 0.97349 0.0
C600 C 0.29721 0.0357 0.0249 0.0
C601 C 0.20405 0.98141 0.9895 0.0
N602 N 0.36699 0.07452 0.99089 0.0
N603 N 0.13943 0.91856 0.02242 0.0
H604 H 0.16216 0.97175 0.9545 0.0
H605 H 0.11344 0.94149 0.97924 0.0
H606 H 0.1277 0.90844 0.04108 0.0
H607 H 0.10657 0.89016 1.01008 0.0
H608 H 0.40308 0.08738 1.0027 0.0
H609 H 0.37815 0.07972 0.97207 0.0
H610 H 0.37967 0.10683 0.03722 0.0
H611 H 0.33123 0.06604 0.06116 0.0
C612 C -0.00078 0.03567 0.29734 0.0
C613 C 0.01488 0.05881 0.27277 0.0
C614 C 0.96524 0.95783 0.25609 0.0
C615 C 0.94376 0.93511 0.28029 0.0
N616 N 0.93268 0.9523 0.32345 0.0
N617 N 0.00422 0.04297 0.22839 0.0
C618 C 0.95871 0.97408 0.30083 0.0
C619 C -0.0045 0.02013 0.252 0.0
N620 N 0.02486 0.07227 0.31729 0.0
N621 N 0.95894 0.91993 0.2373 0.0
H622 H 0.0247 0.08842 0.22485 0.0
H623 H 0.98618 0.01685 0.21257 0.0
H624 H 0.93959 0.87434 0.2401 0.0
H625 H 0.97833 0.93417 0.21979 0.0
H626 H 0.01972 0.05703 0.33562 0.0
H627 H 0.0558 0.11728 0.31527 0.0
H628 H 0.93752 0.97915 0.33864 0.0
H629 H 0.902 0.90749 0.32635 0.0
C630 C 0.98915 0.02023 0.56721 0.0
C631 C -0.00818 0.04362 0.59132 0.0
C632 C 0.04594 0.99602 0.60684 0.0
C633 C 0.0481 0.9773 0.5823 0.0
N634 N 0.02909 0.97763 0.53843 0.0
N635 N 0.03034 0.06236 0.63309 0.0
C636 C 0.02154 0.99097 0.56225 0.0
C637 C 0.02227 0.03376 0.6109 0.0
N638 N 0.95408 0.02446 0.54938 0.0
N639 N 0.06476 0.97589 0.62634 0.0
H640 H 0.01396 0.09075 0.63645 0.0
H641 H 0.05765 0.06224 0.64721 0.0
H642 H 0.08135 0.94736 0.62391 0.0
H643 H 0.05898 0.983 0.64495 0.0
H644 H 0.94566 0.00364 0.5321 0.0
H645 H 0.92941 0.04502 0.55269 0.0
H646 H 0.01584 0.99141 0.52267 0.0
H647 H 0.05289 0.95652 0.53435 0.0
C648 C 0.03799 0.02993 0.9524 0.0
C649 C 0.06713 0.05454 0.92952 0.0
C650 C 0.97202 0.01769 0.90836 0.0
C651 C 0.94292 0.9958 0.93154 0.0
N652 N 0.94613 0.98593 0.97595 0.0
N653 N 0.06465 0.07821 0.88632 0.0
C654 C 0.97542 0.00323 0.95369 0.0
C655 C 0.03482 0.0505 0.90766 0.0
N656 N 0.07049 0.03128 0.97262 0.0
N657 N 0.93928 0.00468 0.88697 0.0
H658 H 0.11069 0.10116 0.88519 0.0
H659 H 0.04445 0.08168 0.87017 0.0
H660 H 0.89324 0.9795 0.88692 0.0
H661 H 0.95728 0.01482 0.86911 0.0
H662 H 0.05205 0.00875 0.98923 0.0
H663 H 0.11657 0.05251 0.97219 0.0
H664 H 0.96709 0.99413 0.99319 0.0
H665 H 0.90027 0.96641 0.97721 0.0
C666 C 0.88237 0.97826 0.44848 0.0
C667 C 0.85684 0.9305 0.43141 0.0
C668 C 0.95045 0.97217 0.4089 0.0
C669 C 0.97378 0.02332 0.42417 0.0
N670 N 0.95868 0.08021 0.45553 0.0
N671 N 0.86242 0.88547 0.39328 0.0
C672 C 0.93888 0.02781 0.44324 0.0
C673 C 0.88977 0.9284 0.41099 0.0
N674 N 0.85337 0.9752 0.47008 0.0
N675 N 0.98694 0.96451 0.39315 0.0
H676 H 0.81771 0.8532 0.3943 0.0
H677 H 0.88257 0.88494 0.37663 0.0
H678 H 0.03221 0.99469 0.39202 0.0
H679 H 0.9736 0.92575 0.38307 0.0
H680 H 0.8723 0.00617 0.48438 0.0
H681 H 0.8125 0.93861 0.47473 0.0
H682 H 0.93278 0.08774 0.46803 0.0
H683 H -0.00103 0.11807 0.45143 0.0
C684 C 0.0297 0.98805 0.77221 0.0
C685 C 0.02077 0.96684 0.74736 0.0
C686 C 0.06173 0.06794 0.73132 0.0
C687 C 0.07396 0.08916 0.75609 0.0
N688 N 0.07922 0.07247 0.79992 0.0
N689 N 0.03439 0.98513 0.70329 0.0
C690 C 0.06114 0.05002 0.7765 0.0
C691 C 0.03856 0.00647 0.72686 0.0
N692 N 0.00512 0.94883 0.79154 0.0
N693 N 0.07103 0.10663 0.71227 0.0
H694 H 0.01739 0.94012 0.69969 0.0
H695 H 0.05153 0.01218 0.68763 0.0
H696 H 0.0894 0.1521 0.7152 0.0
H697 H 0.05756 0.09352 0.69396 0.0
H698 H 0.00554 0.96148 0.80997 0.0
H699 H 0.97911 0.90325 0.78882 0.0
H700 H 0.07661 0.0467 0.81529 0.0
H701 H 0.10127 0.11788 0.8036 0.0
C702 C 0.97238 0.01833 0.11947 0.0
C703 C 0.95292 0.03622 0.09834 0.0
C704 C 0.0057 0.00431 0.0708 0.0
C705 C 0.01887 0.97992 0.09173 0.0
N706 N 0.00995 0.95693 0.1356 0.0
N707 N 0.94669 0.04405 0.05387 0.0
C708 C 0.00117 0.98534 0.11604 0.0
C709 C 0.96884 0.02915 0.07393 0.0
N710 N 0.9638 0.03388 0.14271 0.0
N711 N 0.02941 0.00438 0.04814 0.0
H712 H 0.92025 0.06314 0.05578 0.0
H713 H 0.9515 0.0344 0.0355 0.0
H714 H 0.05559 0.98519 0.04544 0.0
H715 H 0.02682 0.02707 0.03262 0.0
H716 H 0.98147 0.02684 0.15892 0.0
H717 H 0.94298 0.05855 0.14549 0.0
H718 H -0.00681 0.95453 0.15344 0.0
H719 H 0.02987 0.93133 0.13344 0.0
C720 C 0.90131 0.24386 0.20554 0.0
C721 C 0.88988 0.2348 0.17976 0.0
C722 C -0.00521 0.30027 0.17077 0.0
C723 C 0.00671 0.29412 0.19593 0.0
N724 N 0.97363 0.26922 0.23854 0.0
N725 N 0.92262 0.26285 0.13731 0.0
C726 C 0.96067 0.27055 0.21392 0.0
C727 C 0.93554 0.26765 0.16219 0.0
N728 N 0.8548 0.22329 0.22167 0.0
N729 N 0.04061 0.33525 0.15519 0.0
H730 H 0.87934 0.24137 0.13065 0.0
H731 H 0.95439 0.27915 0.12327 0.0
H732 H 0.08422 0.35882 0.16159 0.0
H733 H 0.03524 0.34485 0.13683 0.0
H734 H 0.85931 0.23075 0.24082 0.0
H735 H 0.81125 0.20278 0.21517 0.0
H736 H 0.94187 0.2466 0.25223 0.0
H737 H 0.01691 0.28984 0.24521 0.0
C738 C 0.69925 -0.00133 0.51906 0.0
C739 C 0.72635 0.01088 0.54283 0.0
C740 C 0.67314 0.90503 0.55279 0.0
C741 C 0.65964 0.89316 0.52729 0.0
N742 N 0.65374 0.92648 0.48596 0.0
N743 N 0.73934 0.9759 0.58302 0.0
C744 C 0.66909 0.93924 0.51048 0.0
C745 C 0.71199 0.96427 0.56028 0.0
N746 N 0.70379 0.0441 0.50466 0.0
N747 N 0.65128 0.85892 0.56935 0.0
H748 H 0.76912 0.01853 0.58925 0.0
H749 H 0.73559 0.94292 0.59516 0.0
H750 H 0.62345 0.81519 0.5636 0.0
H751 H 0.65584 0.8645 0.58862 0.0
H752 H 0.68129 0.03775 0.48787 0.0
H753 H 0.72608 0.08806 0.51076 0.0
H754 H 0.66655 0.95864 0.47205 0.0
H755 H 0.62964 0.88308 0.47938 0.0
C756 C 0.74088 0.75111 0.80641 0.0
C757 C 0.76945 0.72489 0.81925 0.0
C758 C 0.73685 0.7412 0.85931 0.0
C759 C 0.71298 0.77233 0.84665 0.0
N760 N 0.67278 0.78832 0.80909 0.0
N761 N 0.77617 0.67494 0.85571 0.0
C762 C 0.70768 0.77005 0.8204 0.0
C763 C 0.76019 0.71237 0.84501 0.0
N764 N 0.74954 0.76243 0.78139 0.0
N765 N 0.74218 0.74364 0.88472 0.0
H766 H 0.79392 0.65401 0.84522 0.0
H767 H 0.76653 0.66035 0.87414 0.0
H768 H 0.72541 0.76398 0.89605 0.0
H769 H 0.76613 0.7282 0.89455 0.0
H770 H 0.73582 0.78805 0.7717 0.0
H771 H 0.77312 0.74863 0.77042 0.0
H772 H 0.66352 0.78383 0.79005 0.0
H773 H 0.64857 0.80271 0.81937 0.0
C774 C 0.98798 0.69167 0.16445 0.0
C775 C 0.04583 0.73129 0.17316 0.0
C776 C 0.01243 0.71353 0.21627 0.0
C777 C 0.95368 0.68313 0.2072 0.0
N778 N 0.88515 0.62365 0.17534 0.0
N779 N 0.11719 0.76223 0.2061 0.0
C780 C 0.94156 0.66456 0.1821 0.0
C781 C 0.05939 0.73502 0.19883 0.0
N782 N 0.97717 0.68457 0.13939 0.0
N783 N 0.02267 0.72595 0.24112 0.0
H784 H 0.15149 0.77853 0.19306 0.0
H785 H 0.13079 0.76434 0.22452 0.0
H786 H 0.98849 0.70913 0.25419 0.0
H787 H 0.06434 0.7535 0.24873 0.0
H788 H 0.93504 0.66163 0.13162 0.0
H789 H 0.01112 0.70303 0.12624 0.0
H790 H 0.87324 0.60552 0.15756 0.0
H791 H 0.85103 0.60433 0.18844 0.0
C792 C 0.30742 0.98723 0.48363 0.0
C793 C 0.26224 0.92882 0.47768 0.0
C794 C 0.26189 0.95795 0.43444 0.0
C795 C 0.29498 0.01758 0.44221 0.0
N796 N 0.37302 0.08757 0.46846 0.0
N797 N 0.21291 0.85369 0.44662 0.0
C798 C 0.32708 0.03139 0.46475 0.0
C799 C 0.24624 0.91237 0.45249 0.0
N800 N 0.32702 0.00128 0.50764 0.0
N801 N 0.24065 0.9464 0.41063 0.0
H802 H 0.20137 0.82067 0.46014 0.0
H803 H 0.19996 0.83782 0.42858 0.0
H804 H 0.25255 0.98087 0.39778 0.0
H805 H 0.21219 0.90414 0.40372 0.0
H806 H 0.35462 0.04447 0.51383 0.0
H807 H 0.31427 0.96927 0.52163 0.0
H808 H 0.4004 0.10031 0.48408 0.0
H809 H 0.3869 0.11987 0.45452 0.0
C810 C 0.35359 0.32276 0.83323 0.0
C811 C 0.34717 0.30592 0.85856 0.0
C812 C 0.30028 0.36449 0.86693 0.0
C813 C 0.2896 0.36377 0.84113 0.0
N814 N 0.31684 0.35626 0.79898 0.0
N815 N 0.32704 0.32088 0.90092 0.0
C816 C 0.32175 0.34955 0.82399 0.0
C817 C 0.3266 0.33207 0.87604 0.0
N818 N 0.38699 0.30929 0.81813 0.0
N819 N 0.28115 0.39266 0.88241 0.0
H820 H 0.34784 0.29886 0.90803 0.0
H821 H 0.30641 0.33262 0.91445 0.0
H822 H 0.26073 0.41524 0.87533 0.0
H823 H 0.28951 0.39769 0.90151 0.0
H824 H 0.39629 0.32242 0.79955 0.0
H825 H 0.40933 0.28864 0.82522 0.0
H826 H 0.33315 0.34019 0.78528 0.0
H827 H 0.2956 0.37786 0.7919 0.0
C828 C 0.26458 0.17754 0.16868 0.0
C829 C 0.23413 0.16786 0.19188 0.0
C830 C 0.1938 0.06101 0.18741 0.0
C831 C 0.22343 0.06973 0.16418 0.0
N832 N 0.29847 0.13789 0.13572 0.0
N833 N 0.19937 0.10312 0.22788 0.0
C834 C 0.26186 0.12855 0.15552 0.0
C835 C 0.20739 0.1105 0.2027 0.0
N836 N 0.29842 0.23409 0.1598 0.0
N837 N 0.15148 0.0055 0.19489 0.0
H838 H 0.21878 0.13861 0.24022 0.0
H839 H 0.18297 0.06205 0.23667 0.0
H840 H 0.13871 0.9677 0.18426 0.0
H841 H 0.12478 -0.00186 0.21046 0.0
H842 H 0.31392 0.24417 0.14154 0.0
H843 H 0.31138 0.27129 0.17098 0.0
H844 H 0.3318 0.17959 0.12995 0.0
H845 H 0.2989 0.10359 0.12603 0.0
C846 C 0.10601 0.27075 0.53285 0.0
C847 C 0.05691 0.27459 0.52385 0.0
C848 C 0.07928 0.25927 0.48101 0.0
C849 C 0.12397 0.24871 0.49013 0.0
N850 N 0.19389 0.26548 0.52285 0.0
N851 N 0.02582 0.31058 0.48864 0.0
C852 C 0.14171 0.26101 0.51557 0.0
C853 C 0.05233 0.28076 0.49766 0.0
N854 N 0.11946 0.27801 0.55768 0.0
N855 N 0.0602 0.24635 0.45689 0.0
H856 H 0.01413 0.33503 0.5002 0.0
H857 H 0.02468 0.31916 0.46968 0.0
H858 H 0.07821 0.23026 0.44394 0.0
H859 H 0.02309 0.24725 0.45039 0.0
H860 H 0.14818 0.26662 0.56616 0.0
H861 H 0.10253 0.29696 0.56978 0.0
H862 H 0.21214 0.27855 0.54056 0.0
H863 H 0.22205 0.26142 0.5103 0.0
C864 C 0.93626 0.14568 0.8595 0.0
C865 C 0.92985 0.15308 0.83351 0.0
C866 C 0.82453 0.1187 0.84053 0.0
C867 C 0.82905 0.10096 0.86518 0.0
N868 N 0.89325 0.13107 0.9008 0.0
N869 N 0.86709 0.14605 0.79906 0.0
C870 C 0.88622 0.12405 0.87558 0.0
C871 C 0.87396 0.14053 0.82404 0.0
N872 N 0.98991 0.15834 0.86887 0.0
N873 N 0.77454 0.11915 0.83361 0.0
H874 H 0.90193 0.16198 0.78635 0.0
H875 H 0.82605 0.13065 0.79061 0.0
H876 H 0.7411 0.11076 0.84634 0.0
H877 H 0.76995 0.13596 0.81663 0.0
H878 H -0.00452 0.14636 0.88681 0.0
H879 H 0.02852 0.17799 0.85833 0.0
H880 H 0.93424 0.15194 0.90966 0.0
H881 H 0.85836 0.12352 0.91252 0.0
C882 C 0.78066 0.83152 0.1847 0.0
C883 C 0.73826 0.79907 0.20361 0.0
C884 C 0.68394 0.84929 0.19141 0.0
C885 C 0.73106 0.88819 0.17521 0.0
N886 N 0.83153 0.92352 0.1617 0.0
N887 N 0.65255 0.78219 0.22693 0.0
C888 C 0.78131 0.88112 0.17316 0.0
C889 C 0.69114 0.80995 0.2077 0.0
N890 N 0.82035 0.81517 0.17743 0.0
N891 N 0.63079 0.84724 0.19035 0.0
H892 H 0.65438 0.7509 0.23849 0.0
H893 H 0.62154 0.79357 0.23259 0.0
H894 H 0.6219 0.87236 0.17784 0.0
H895 H 0.59325 0.81568 0.19983 0.0
H896 H 0.84784 0.8336 0.16197 0.0
H897 H 0.82189 0.77932 0.18509 0.0
H898 H 0.87125 0.9234 0.1621 0.0
H899 H 0.83581 0.96235 0.15439 0.0
C900 C 0.82696 0.68013 0.51814 0.0
C901 C 0.82022 0.70872 0.49667 0.0
C902 C 0.92763 0.7676 0.49222 0.0
C903 C 0.93505 0.74141 0.51425 0.0
N904 N 0.89207 0.66188 0.54446 0.0
N905 N 0.86397 0.75328 0.4571 0.0
C906 C 0.88471 0.69451 0.52624 0.0
C907 C 0.87037 0.74461 0.48174 0.0
N908 N 0.77771 0.63795 0.53033 0.0
N909 N 0.97492 0.81572 0.48155 0.0
H910 H 0.82362 0.7294 0.44789 0.0
H911 H 0.89972 0.77624 0.44504 0.0
H912 H 0.0176 0.83507 0.48876 0.0
H913 H 0.9705 0.83989 0.46701 0.0
H914 H 0.77842 0.62141 0.54795 0.0
H915 H 0.73548 0.61947 0.52257 0.0
H916 H 0.8576 0.62359 0.55238 0.0
H917 H 0.93346 0.67041 0.55055 0.0
C918 C 0.14065 0.88215 0.8621 0.0
C919 C 0.15866 0.94018 0.85323 0.0
C920 C 0.13497 0.90141 0.81031 0.0
C921 C 0.10588 0.84279 0.81985 0.0
N922 N 0.11252 0.78088 0.85158 0.0
N923 N 0.17508 0.00597 0.81841 0.0
C924 C 0.11815 0.83403 0.84488 0.0
C925 C 0.15693 0.95014 0.82715 0.0
N926 N 0.14151 0.87225 0.88713 0.0
N927 N 0.14722 0.91067 0.78543 0.0
H928 H 0.19564 0.04347 0.82968 0.0
H929 H 0.16703 0.01457 0.80026 0.0
H930 H 0.13956 0.87611 0.77345 0.0
H931 H 0.1723 0.95258 0.77742 0.0
H932 H 0.12199 0.83001 0.89503 0.0
H933 H 0.1583 0.90622 0.90029 0.0
H934 H 0.12512 0.77279 0.86892 0.0
H935 H 0.10305 0.74766 0.83854 0.0
loop_
_geom_bond_atom_site_label_1
_geom_bond_atom_site_label_2
_geom_bond_distance
_geom_bond_site_symmetry_2
_ccdc_geom_bond_type
C0 C1 1.351 . S
C0 N3 1.368 . S
C0 H5 0.931 . S
C1 C0 1.351 . S
C1 N2 1.373 . S
C1 H29 0.930 . S
N2 C1 1.373 . S
N2 C4 1.340 . S
N3 C0 1.368 . S
N3 C4 1.321 . S
N3 Co6 2.135 . S
C4 N2 1.340 . S
C4 N3 1.321 . S
C4 H28 0.930 . S
H5 C0 0.931 . S
Co6 N3 2.135 . S
Co6 N9 2.121 . S
Co6 O14 2.055 . S
Co6 O17 2.039 . S
Co6 N20 2.140 . S
C7 O8 1.227 . S
C7 O17 1.265 . S
O8 C7 1.227 . S
N9 Co6 2.121 . S
N9 C11 1.375 . S
N9 C12 1.313 . S
C10 C11 1.338 . S
C10 N13 1.377 . S
C10 H30 0.930 . S
C11 N9 1.375 . S
C11 C10 1.338 . S
C11 H15 0.931 . S
C12 N9 1.313 . S
C12 N13 1.344 . S
C12 H16 0.930 . S
N13 C10 1.377 . S
N13 C12 1.344 . S
O14 Co6 2.055 . S
O14 C18 1.253 . S
H15 C11 0.931 . S
H16 C12 0.930 . S
O17 Co6 2.039 . S
O17 C7 1.265 . S
C18 O14 1.253 . S
C18 O19 1.227 . S
O19 C18 1.227 . S
N20 Co6 2.140 . S
N20 C23 1.346 . S
N20 C24 1.345 . S
C21 C22 1.387 . S
C21 C25 1.391 . S
C22 C21 1.387 . S
C22 C23 1.369 . S
C22 H31 0.929 . S
C23 N20 1.346 . S
C23 C22 1.369 . S
C23 H26 0.928 . S
C24 N20 1.345 . S
C24 C25 1.371 . S
C24 H27 0.931 . S
C25 C21 1.391 . S
C25 C24 1.371 . S
C25 H32 0.930 . S
H26 C23 0.928 . S
H27 C24 0.931 . S
H28 C4 0.930 . S
H29 C1 0.930 . S
H30 C10 0.930 . S
H31 C22 0.929 . S
H32 C25 0.930 . S
C33 C34 1.351 . S
C33 N36 1.368 . S
C33 H38 0.931 . S
C34 C33 1.351 . S
C34 N35 1.373 . S
C34 H62 0.930 . S
N35 C34 1.373 . S
N35 C37 1.340 . S
N36 C33 1.368 . S
N36 C37 1.321 . S
N36 Co39 2.135 . S
C37 N35 1.340 . S
C37 N36 1.321 . S
C37 H61 0.930 1_655 S
H38 C33 0.931 . S
Co39 N36 2.135 . S
Co39 N42 2.121 . S
Co39 O47 2.055 . S
Co39 O50 2.039 1_655 S
Co39 N53 2.140 . S
C40 O41 1.227 1_455 S
C40 O50 1.265 . S
O41 C40 1.227 1_655 S
N42 Co39 2.121 . S
N42 C44 1.375 . S
N42 C45 1.313 . S
C43 C44 1.338 . S
C43 N46 1.377 . S
C43 H63 0.930 . S
C44 N42 1.375 . S
C44 C43 1.338 . S
C44 H48 0.931 . S
C45 N42 1.313 . S
C45 N46 1.344 . S
C45 H49 0.930 . S
N46 C43 1.377 . S
N46 C45 1.344 . S
O47 Co39 2.055 . S
O47 C51 1.253 . S
H48 C44 0.931 . S
H49 C45 0.930 . S
O50 Co39 2.039 1_455 S
O50 C40 1.265 . S
C51 O47 1.253 . S
C51 O52 1.227 . S
O52 C51 1.227 . S
N53 Co39 2.140 . S
N53 C56 1.346 . S
N53 C57 1.345 . S
C54 C55 1.387 . S
C54 C58 1.391 . S
C55 C54 1.387 . S
C55 C56 1.369 . S
C55 H64 0.929 . S
C56 N53 1.346 . S
C56 C55 1.369 . S
C56 H59 0.928 . S
C57 N53 1.345 . S
C57 C58 1.371 . S
C57 H60 0.931 . S
C58 C54 1.391 . S
C58 C57 1.371 . S
C58 H65 0.930 . S
H59 C56 0.928 . S
H60 C57 0.931 . S
H61 C37 0.930 1_455 S
H62 C34 0.930 . S
H63 C43 0.930 . S
H64 C55 0.929 . S
H65 C58 0.930 . S
C66 C67 1.351 . S
C66 N69 1.368 . S
C66 H71 0.931 . S
C67 C66 1.351 . S
C67 N68 1.373 . S
C67 H95 0.930 . S
N68 C67 1.373 . S
N68 C70 1.340 . S
N69 C66 1.368 . S
N69 C70 1.321 . S
N69 Co72 2.135 . S
C70 N68 1.340 . S
C70 N69 1.321 . S
C70 H94 0.930 1_565 S
H71 C66 0.931 . S
Co72 N69 2.135 . S
Co72 N75 2.121 . S
Co72 O80 2.055 . S
Co72 O83 2.039 1_565 S
Co72 N86 2.140 . S
C73 O74 1.227 1_545 S
C73 O83 1.265 . S
O74 C73 1.227 1_565 S
N75 Co72 2.121 . S
N75 C77 1.375 . S
N75 C78 1.313 . S
C76 C77 1.338 . S
C76 N79 1.377 . S
C76 H96 0.930 . S
C77 N75 1.375 . S
C77 C76 1.338 . S
C77 H81 0.931 . S
C78 N75 1.313 . S
C78 N79 1.344 . S
C78 H82 0.930 . S
N79 C76 1.377 . S
N79 C78 1.344 . S
O80 Co72 2.055 . S
O80 C84 1.253 . S
H81 C77 0.931 . S
H82 C78 0.930 . S
O83 Co72 2.039 1_545 S
O83 C73 1.265 . S
C84 O80 1.253 . S
C84 O85 1.227 . S
O85 C84 1.227 . S
N86 Co72 2.140 . S
N86 C89 1.346 . S
N86 C90 1.345 . S
C87 C88 1.387 . S
C87 C91 1.391 . S
C88 C87 1.387 . S
C88 C89 1.369 . S
C88 H97 0.929 . S
C89 N86 1.346 . S
C89 C88 1.369 . S
C89 H92 0.928 . S
C90 N86 1.345 . S
C90 C91 1.371 . S
C90 H93 0.931 . S
C91 C87 1.391 . S
C91 C90 1.371 . S
C91 H98 0.930 . S
H92 C89 0.928 . S
H93 C90 0.931 . S
H94 C70 0.930 1_545 S
H95 C67 0.930 . S
H96 C76 0.930 . S
H97 C88 0.929 . S
H98 C91 0.930 . S
C99 C100 1.351 . S
C99 N102 1.368 . S
C99 H104 0.931 . S
C100 C99 1.351 . S
C100 N101 1.373 . S
C100 H128 0.930 . S
N101 C100 1.373 . S
N101 C103 1.340 . S
N102 C99 1.368 . S
N102 C103 1.321 . S
N102 Co105 2.135 . S
C103 N101 1.340 . S
C103 N102 1.321 . S
C103 H127 0.930 . S
H104 C99 0.931 . S
Co105 N102 2.135 . S
Co105 N108 2.121 . S
Co105 O113 2.055 . S
Co105 O116 2.039 . S
Co105 N119 2.140 . S
C106 O107 1.227 . S
C106 O116 1.265 . S
O107 C106 1.227 . S
N108 Co105 2.121 . S
N108 C110 1.375 . S
N108 C111 1.313 . S
C109 C110 1.338 . S
C109 N112 1.377 . S
C109 H129 0.930 . S
C110 N108 1.375 . S
C110 C109 1.338 . S
C110 H114 0.931 . S
C111 N108 1.313 . S
C111 N112 1.344 . S
C111 H115 0.930 . S
N112 C109 1.377 . S
N112 C111 1.344 . S
O113 Co105 2.055 . S
O113 C117 1.253 . S
H114 C110 0.931 . S
H115 C111 0.930 . S
O116 Co105 2.039 . S
O116 C106 1.265 . S
C117 O113 1.253 . S
C117 O118 1.227 . S
O118 C117 1.227 . S
N119 Co105 2.140 . S
N119 C122 1.346 . S
N119 C123 1.345 . S
C120 C121 1.387 . S
C120 C124 1.391 . S
C121 C120 1.387 . S
C121 C122 1.369 . S
C121 H130 0.929 . S
C122 N119 1.346 . S
C122 C121 1.369 . S
C122 H125 0.928 . S
C123 N119 1.345 . S
C123 C124 1.371 . S
C123 H126 0.931 . S
C124 C120 1.391 . S
C124 C123 1.371 . S
C124 H131 0.930 . S
H125 C122 0.928 . S
H126 C123 0.931 . S
H127 C103 0.930 . S
H128 C100 0.930 . S
H129 C109 0.930 . S
H130 C121 0.929 . S
H131 C124 0.930 . S
C132 C133 1.351 . S
C132 N135 1.368 . S
C132 H137 0.931 . S
C133 C132 1.351 . S
C133 N134 1.373 . S
C133 H161 0.930 . S
N134 C133 1.373 . S
N134 C136 1.340 . S
N135 C132 1.368 . S
N135 C136 1.321 . S
N135 Co138 2.135 . S
C136 N134 1.340 . S
C136 N135 1.321 . S
C136 H160 0.930 1_455 S
H137 C132 0.931 . S
Co138 N135 2.135 . S
Co138 N141 2.121 . S
Co138 O146 2.055 . S
Co138 O149 2.039 1_455 S
Co138 N152 2.140 . S
C139 O140 1.227 1_655 S
C139 O149 1.265 . S
O140 C139 1.227 1_455 S
N141 Co138 2.121 . S
N141 C143 1.375 . S
N141 C144 1.313 . S
C142 C143 1.338 . S
C142 N145 1.377 . S
C142 H162 0.930 . S
C143 N141 1.375 . S
C143 C142 1.338 . S
C143 H147 0.931 . S
C144 N141 1.313 . S
C144 N145 1.344 . S
C144 H148 0.930 . S
N145 C142 1.377 . S
N145 C144 1.344 . S
O146 Co138 2.055 . S
O146 C150 1.253 . S
H147 C143 0.931 . S
H148 C144 0.930 . S
O149 Co138 2.039 1_655 S
O149 C139 1.265 . S
C150 O146 1.253 . S
C150 O151 1.227 . S
O151 C150 1.227 . S
N152 Co138 2.140 . S
N152 C155 1.346 . S
N152 C156 1.345 . S
C153 C154 1.387 . S
C153 C157 1.391 . S
C154 C153 1.387 . S
C154 C155 1.369 . S
C154 H163 0.929 . S
C155 N152 1.346 . S
C155 C154 1.369 . S
C155 H158 0.928 . S
C156 N152 1.345 . S
C156 C157 1.371 . S
C156 H159 0.931 . S
C157 C153 1.391 . S
C157 C156 1.371 . S
C157 H164 0.930 . S
H158 C155 0.928 . S
H159 C156 0.931 . S
H160 C136 0.930 1_655 S
H161 C133 0.930 . S
H162 C142 0.930 . S
H163 C154 0.929 . S
H164 C157 0.930 . S
C165 C166 1.351 . S
C165 N168 1.368 . S
C165 H170 0.931 . S
C166 C165 1.351 . S
C166 N167 1.373 . S
C166 H194 0.930 . S
N167 C166 1.373 . S
N167 C169 1.340 . S
N168 C165 1.368 . S
N168 C169 1.321 . S
N168 Co171 2.135 . S
C169 N167 1.340 . S
C169 N168 1.321 . S
C169 H193 0.930 1_545 S
H170 C165 0.931 . S
Co171 N168 2.135 . S
Co171 N174 2.121 . S
Co171 O179 2.055 . S
Co171 O182 2.039 1_545 S
Co171 N185 2.140 . S
C172 O173 1.227 1_565 S
C172 O182 1.265 . S
O173 C172 1.227 1_545 S
N174 Co171 2.121 . S
N174 C176 1.375 . S
N174 C177 1.313 . S
C175 C176 1.338 . S
C175 N178 1.377 . S
C175 H195 0.930 . S
C176 N174 1.375 . S
C176 C175 1.338 . S
C176 H180 0.931 . S
C177 N174 1.313 . S
C177 N178 1.344 . S
C177 H181 0.930 . S
N178 C175 1.377 . S
N178 C177 1.344 . S
O179 Co171 2.055 . S
O179 C183 1.253 . S
H180 C176 0.931 . S
H181 C177 0.930 . S
O182 Co171 2.039 1_565 S
O182 C172 1.265 . S
C183 O179 1.253 . S
C183 O184 1.227 . S
O184 C183 1.227 . S
N185 Co171 2.140 . S
N185 C188 1.346 . S
N185 C189 1.345 . S
C186 C187 1.387 . S
C186 C190 1.391 . S
C187 C186 1.387 . S
C187 C188 1.369 . S
C187 H196 0.929 . S
C188 N185 1.346 . S
C188 C187 1.369 . S
C188 H191 0.928 . S
C189 N185 1.345 . S
C189 C190 1.371 . S
C189 H192 0.931 . S
C190 C186 1.391 . S
C190 C189 1.371 . S
C190 H197 0.930 . S
H191 C188 0.928 . S
H192 C189 0.931 . S
H193 C169 0.930 1_565 S
H194 C166 0.930 . S
H195 C175 0.930 . S
H196 C187 0.929 . S
H197 C190 0.930 . S
C198 C199 1.351 . S
C198 N201 1.368 . S
C198 H203 0.931 . S
C199 C198 1.351 . S
C199 N200 1.373 . S
C199 H227 0.930 . S
N200 C199 1.373 . S
N200 C202 1.340 . S
N201 C198 1.368 . S
N201 C202 1.321 . S
N201 Co204 2.135 . S
C202 N200 1.340 . S
C202 N201 1.321 . S
C202 H226 0.930 . S
H203 C198 0.931 . S
Co204 N201 2.135 . S
Co204 N207 2.121 . S
Co204 O212 2.055 . S
Co204 O215 2.039 . S
Co204 N218 2.140 . S
C205 O206 1.227 . S
C205 O215 1.265 . S
O206 C205 1.227 . S
N207 Co204 2.121 . S
N207 C209 1.375 . S
N207 C210 1.313 . S
C208 C209 1.338 . S
C208 N211 1.377 . S
C208 H228 0.930 . S
C209 N207 1.375 . S
C209 C208 1.338 . S
C209 H213 0.931 . S
C210 N207 1.313 . S
C210 N211 1.344 . S
C210 H214 0.930 . S
N211 C208 1.377 . S
N211 C210 1.344 . S
O212 Co204 2.055 . S
O212 C216 1.253 . S
H213 C209 0.931 . S
H214 C210 0.930 . S
O215 Co204 2.039 . S
O215 C205 1.265 . S
C216 O212 1.253 . S
C216 O217 1.227 . S
O217 C216 1.227 . S
N218 Co204 2.140 . S
N218 C221 1.346 . S
N218 C222 1.345 . S
C219 C220 1.387 . S
C219 C223 1.391 . S
C220 C219 1.387 . S
C220 C221 1.369 . S
C220 H229 0.929 . S
C221 N218 1.346 . S
C221 C220 1.369 . S
C221 H224 0.928 . S
C222 N218 1.345 . S
C222 C223 1.371 . S
C222 H225 0.931 . S
C223 C219 1.391 . S
C223 C222 1.371 . S
C223 H230 0.930 . S
H224 C221 0.928 . S
H225 C222 0.931 . S
H226 C202 0.930 . S
H227 C199 0.930 . S
H228 C208 0.930 . S
H229 C220 0.929 . S
H230 C223 0.930 . S
C231 C232 1.351 . S
C231 N234 1.368 . S
C231 H236 0.931 . S
C232 C231 1.351 . S
C232 N233 1.373 . S
C232 H260 0.930 . S
N233 C232 1.373 . S
N233 C235 1.340 . S
N234 C231 1.368 . S
N234 C235 1.321 . S
N234 Co237 2.135 . S
C235 N233 1.340 . S
C235 N234 1.321 . S
C235 H259 0.930 1_655 S
H236 C231 0.931 . S
Co237 N234 2.135 . S
Co237 N240 2.121 . S
Co237 O245 2.055 . S
Co237 O248 2.039 1_655 S
Co237 N251 2.140 . S
C238 O239 1.227 1_455 S
C238 O248 1.265 . S
O239 C238 1.227 1_655 S
N240 Co237 2.121 . S
N240 C242 1.375 . S
N240 C243 1.313 . S
C241 C242 1.338 . S
C241 N244 1.377 . S
C241 H261 0.930 . S
C242 N240 1.375 . S
C242 C241 1.338 . S
C242 H246 0.931 . S
C243 N240 1.313 . S
C243 N244 1.344 . S
C243 H247 0.930 . S
N244 C241 1.377 . S
N244 C243 1.344 . S
O245 Co237 2.055 . S
O245 C249 1.253 . S
H246 C242 0.931 . S
H247 C243 0.930 . S
O248 Co237 2.039 1_455 S
O248 C238 1.265 . S
C249 O245 1.253 . S
C249 O250 1.227 . S
O250 C249 1.227 . S
N251 Co237 2.140 . S
N251 C254 1.346 . S
N251 C255 1.345 . S
C252 C253 1.387 . S
C252 C256 1.391 . S
C253 C252 1.387 . S
C253 C254 1.369 . S
C253 H262 0.929 . S
C254 N251 1.346 . S
C254 C253 1.369 . S
C254 H257 0.928 . S
C255 N251 1.345 . S
C255 C256 1.371 . S
C255 H258 0.931 . S
C256 C252 1.391 . S
C256 C255 1.371 . S
C256 H263 0.930 . S
H257 C254 0.928 . S
H258 C255 0.931 . S
H259 C235 0.930 1_455 S
H260 C232 0.930 . S
H261 C241 0.930 . S
H262 C253 0.929 . S
H263 C256 0.930 . S
C264 C265 1.351 . S
C264 N267 1.368 . S
C264 H269 0.931 . S
C265 C264 1.351 . S
C265 N266 1.373 . S
C265 H293 0.930 . S
N266 C265 1.373 . S
N266 C268 1.340 . S
N267 C264 1.368 . S
N267 C268 1.321 . S
N267 Co270 2.135 . S
C268 N266 1.340 . S
C268 N267 1.321 . S
C268 H292 0.930 1_565 S
H269 C264 0.931 . S
Co270 N267 2.135 . S
Co270 N273 2.121 . S
Co270 O278 2.055 . S
Co270 O281 2.039 1_565 S
Co270 N284 2.140 . S
C271 O272 1.227 1_545 S
C271 O281 1.265 . S
O272 C271 1.227 1_565 S
N273 Co270 2.121 . S
N273 C275 1.375 . S
N273 C276 1.313 . S
C274 C275 1.338 . S
C274 N277 1.377 . S
C274 H294 0.930 . S
C275 N273 1.375 . S
C275 C274 1.338 . S
C275 H279 0.931 . S
C276 N273 1.313 . S
C276 N277 1.344 . S
C276 H280 0.930 . S
N277 C274 1.377 . S
N277 C276 1.344 . S
O278 Co270 2.055 . S
O278 C282 1.253 . S
H279 C275 0.931 . S
H280 C276 0.930 . S
O281 Co270 2.039 1_545 S
O281 C271 1.265 . S
C282 O278 1.253 . S
C282 O283 1.227 . S
O283 C282 1.227 . S
N284 Co270 2.140 . S
N284 C287 1.346 . S
N284 C288 1.345 . S
C285 C286 1.387 . S
C285 C289 1.391 . S
C286 C285 1.387 . S
C286 C287 1.369 . S
C286 H295 0.929 . S
C287 N284 1.346 . S
C287 C286 1.369 . S
C287 H290 0.928 . S
C288 N284 1.345 . S
C288 C289 1.371 . S
C288 H291 0.931 . S
C289 C285 1.391 . S
C289 C288 1.371 . S
C289 H296 0.930 . S
H290 C287 0.928 . S
H291 C288 0.931 . S
H292 C268 0.930 1_545 S
H293 C265 0.930 . S
H294 C274 0.930 . S
H295 C286 0.929 . S
H296 C289 0.930 . S
C297 C298 1.351 . S
C297 N300 1.368 . S
C297 H302 0.931 . S
C298 C297 1.351 . S
C298 N299 1.373 . S
C298 H326 0.930 . S
N299 C298 1.373 . S
N299 C301 1.340 . S
N300 C297 1.368 . S
N300 C301 1.321 . S
N300 Co303 2.135 . S
C301 N299 1.340 . S
C301 N300 1.321 . S
C301 H325 0.930 . S
H302 C297 0.931 . S
Co303 N300 2.135 . S
Co303 N306 2.121 . S
Co303 O311 2.055 . S
Co303 O314 2.039 . S
Co303 N317 2.140 . S
C304 O305 1.227 . S
C304 O314 1.265 . S
O305 C304 1.227 . S
N306 Co303 2.121 . S
N306 C308 1.375 . S
N306 C309 1.313 . S
C307 C308 1.338 . S
C307 N310 1.377 . S
C307 H327 0.930 . S
C308 N306 1.375 . S
C308 C307 1.338 . S
C308 H312 0.931 . S
C309 N306 1.313 . S
C309 N310 1.344 . S
C309 H313 0.930 . S
N310 C307 1.377 . S
N310 C309 1.344 . S
O311 Co303 2.055 . S
O311 C315 1.253 . S
H312 C308 0.931 . S
H313 C309 0.930 . S
O314 Co303 2.039 . S
O314 C304 1.265 . S
C315 O311 1.253 . S
C315 O316 1.227 . S
O316 C315 1.227 . S
N317 Co303 2.140 . S
N317 C320 1.346 . S
N317 C321 1.345 . S
C318 C319 1.387 . S
C318 C322 1.391 . S
C319 C318 1.387 . S
C319 C320 1.369 . S
C319 H328 0.929 . S
C320 N317 1.346 . S
C320 C319 1.369 . S
C320 H323 0.928 . S
C321 N317 1.345 . S
C321 C322 1.371 . S
C321 H324 0.931 . S
C322 C318 1.391 . S
C322 C321 1.371 . S
C322 H329 0.930 . S
H323 C320 0.928 . S
H324 C321 0.931 . S
H325 C301 0.930 . S
H326 C298 0.930 . S
H327 C307 0.930 . S
H328 C319 0.929 . S
H329 C322 0.930 . S
C330 C331 1.351 . S
C330 N333 1.368 . S
C330 H335 0.931 . S
C331 C330 1.351 . S
C331 N332 1.373 . S
C331 H359 0.930 . S
N332 C331 1.373 . S
N332 C334 1.340 . S
N333 C330 1.368 . S
N333 C334 1.321 . S
N333 Co336 2.135 . S
C334 N332 1.340 . S
C334 N333 1.321 . S
C334 H358 0.930 1_455 S
H335 C330 0.931 . S
Co336 N333 2.135 . S
Co336 N339 2.121 . S
Co336 O344 2.055 . S
Co336 O347 2.039 1_455 S
Co336 N350 2.140 . S
C337 O338 1.227 1_655 S
C337 O347 1.265 . S
O338 C337 1.227 1_455 S
N339 Co336 2.121 . S
N339 C341 1.375 . S
N339 C342 1.313 . S
C340 C341 1.338 . S
C340 N343 1.377 . S
C340 H360 0.930 . S
C341 N339 1.375 . S
C341 C340 1.338 . S
C341 H345 0.931 . S
C342 N339 1.313 . S
C342 N343 1.344 . S
C342 H346 0.930 . S
N343 C340 1.377 . S
N343 C342 1.344 . S
O344 Co336 2.055 . S
O344 C348 1.253 . S
H345 C341 0.931 . S
H346 C342 0.930 . S
O347 Co336 2.039 1_655 S
O347 C337 1.265 . S
C348 O344 1.253 . S
C348 O349 1.227 . S
O349 C348 1.227 . S
N350 Co336 2.140 . S
N350 C353 1.346 . S
N350 C354 1.345 . S
C351 C352 1.387 . S
C351 C355 1.391 . S
C352 C351 1.387 . S
C352 C353 1.369 . S
C352 H361 0.929 . S
C353 N350 1.346 . S
C353 C352 1.369 . S
C353 H356 0.928 . S
C354 N350 1.345 . S
C354 C355 1.371 . S
C354 H357 0.931 . S
C355 C351 1.391 . S
C355 C354 1.371 . S
C355 H362 0.930 . S
H356 C353 0.928 . S
H357 C354 0.931 . S
H358 C334 0.930 1_655 S
H359 C331 0.930 . S
H360 C340 0.930 . S
H361 C352 0.929 . S
H362 C355 0.930 . S
C363 C364 1.351 . S
C363 N366 1.368 . S
C363 H368 0.931 . S
C364 C363 1.351 . S
C364 N365 1.373 . S
C364 H392 0.930 . S
N365 C364 1.373 . S
N365 C367 1.340 . S
N366 C363 1.368 . S
N366 C367 1.321 . S
N366 Co369 2.135 . S
C367 N365 1.340 . S
C367 N366 1.321 . S
C367 H391 0.930 1_545 S
H368 C363 0.931 . S
Co369 N366 2.135 . S
Co369 N372 2.121 . S
Co369 O377 2.055 . S
Co369 O380 2.039 1_545 S
Co369 N383 2.140 . S
C370 O371 1.227 1_565 S
C370 O380 1.265 . S
O371 C370 1.227 1_545 S
N372 Co369 2.121 . S
N372 C374 1.375 . S
N372 C375 1.313 . S
C373 C374 1.338 . S
C373 N376 1.377 . S
C373 H393 0.930 . S
C374 N372 1.375 . S
C374 C373 1.338 . S
C374 H378 0.931 . S
C375 N372 1.313 . S
C375 N376 1.344 . S
C375 H379 0.930 . S
N376 C373 1.377 . S
N376 C375 1.344 . S
O377 Co369 2.055 . S
O377 C381 1.253 . S
H378 C374 0.931 . S
H379 C375 0.930 . S
O380 Co369 2.039 1_565 S
O380 C370 1.265 . S
C381 O377 1.253 . S
C381 O382 1.227 . S
O382 C381 1.227 . S
N383 Co369 2.140 . S
N383 C386 1.346 . S
N383 C387 1.345 . S
C384 C385 1.387 . S
C384 C388 1.391 . S
C385 C384 1.387 . S
C385 C386 1.369 . S
C385 H394 0.929 . S
C386 N383 1.346 . S
C386 C385 1.369 . S
C386 H389 0.928 . S
C387 N383 1.345 . S
C387 C388 1.371 . S
C387 H390 0.931 . S
C388 C384 1.391 . S
C388 C387 1.371 . S
C388 H395 0.930 . S
H389 C386 0.928 . S
H390 C387 0.931 . S
H391 C367 0.930 1_565 S
H392 C364 0.930 . S
H393 C373 0.930 . S
H394 C385 0.929 . S
H395 C388 0.930 . S
C396 C397 1.363 . S
C396 C402 1.379 . S
C396 N404 1.356 . S
C397 C396 1.363 . S
C397 C403 1.363 . S
C398 C399 1.363 . S
C398 C403 1.379 . S
C398 N405 1.356 . S
C399 C398 1.363 . S
C399 C402 1.363 . S
N400 C402 1.356 . S
N400 H412 0.984 . S
N400 H413 0.985 . S
N401 C403 1.356 . S
N401 H406 0.984 . S
N401 H407 0.985 . S
C402 C396 1.379 . S
C402 C399 1.363 . S
C402 N400 1.356 . S
C403 C397 1.363 . S
C403 C398 1.379 . S
C403 N401 1.356 . S
N404 C396 1.356 . S
N404 H410 0.984 . S
N404 H411 0.984 . S
N405 C398 1.356 . S
N405 H408 0.984 . S
N405 H409 0.985 . S
H406 N401 0.984 . S
H407 N401 0.985 . S
H408 N405 0.984 . S
H409 N405 0.985 . S
H410 N404 0.984 . S
H411 N404 0.984 . S
H412 N400 0.984 . S
H413 N400 0.985 . S
C414 C415 1.363 1_655 S
C414 C420 1.379 . S
C414 N422 1.356 1_655 S
C415 C414 1.363 1_455 S
C415 C421 1.363 . S
C416 C417 1.363 1_455 S
C416 C421 1.379 . S
C416 N423 1.356 1_455 S
C417 C416 1.363 1_655 S
C417 C420 1.363 . S
N418 C420 1.356 . S
N418 H430 0.984 . S
N418 H431 0.985 . S
N419 C421 1.356 . S
N419 H424 0.984 . S
N419 H425 0.985 . S
C420 C414 1.379 . S
C420 C417 1.363 . S
C420 N418 1.356 . S
C421 C415 1.363 . S
C421 C416 1.379 . S
C421 N419 1.356 . S
N422 C414 1.356 1_455 S
N422 H428 0.984 1_455 S
N422 H429 0.984 . S
N423 C416 1.356 1_655 S
N423 H426 0.984 . S
N423 H427 0.985 1_655 S
H424 N419 0.984 . S
H425 N419 0.985 . S
H426 N423 0.984 . S
H427 N423 0.985 1_455 S
H428 N422 0.984 1_655 S
H429 N422 0.984 . S
H430 N418 0.984 . S
H431 N418 0.985 . S
C432 C433 1.363 1_565 S
C432 C438 1.379 . S
C432 N440 1.356 1_565 S
C433 C432 1.363 1_545 S
C433 C439 1.363 . S
C434 C435 1.363 1_545 S
C434 C439 1.379 . S
C434 N441 1.356 1_545 S
C435 C434 1.363 1_565 S
C435 C438 1.363 . S
N436 C438 1.356 . S
N436 H448 0.984 . S
N436 H449 0.985 . S
N437 C439 1.356 . S
N437 H442 0.984 . S
N437 H443 0.985 . S
C438 C432 1.379 . S
C438 C435 1.363 . S
C438 N436 1.356 . S
C439 C433 1.363 . S
C439 C434 1.379 . S
C439 N437 1.356 . S
N440 C432 1.356 1_545 S
N440 H446 0.984 1_545 S
N440 H447 0.984 . S
N441 C434 1.356 1_565 S
N441 H444 0.984 . S
N441 H445 0.985 1_565 S
H442 N437 0.984 . S
H443 N437 0.985 . S
H444 N441 0.984 . S
H445 N441 0.985 1_545 S
H446 N440 0.984 1_565 S
H447 N440 0.984 . S
H448 N436 0.984 . S
H449 N436 0.985 . S
C450 C451 1.363 . S
C450 C456 1.379 . S
C450 N458 1.356 . S
C451 C450 1.363 . S
C451 C457 1.363 . S
C452 C453 1.363 . S
C452 C457 1.379 . S
C452 N459 1.356 . S
C453 C452 1.363 . S
C453 C456 1.363 . S
N454 C456 1.356 . S
N454 H466 0.984 . S
N454 H467 0.985 . S
N455 C457 1.356 . S
N455 H460 0.984 . S
N455 H461 0.985 . S
C456 C450 1.379 . S
C456 C453 1.363 . S
C456 N454 1.356 . S
C457 C451 1.363 . S
C457 C452 1.379 . S
C457 N455 1.356 . S
N458 C450 1.356 . S
N458 H464 0.984 . S
N458 H465 0.984 . S
N459 C452 1.356 . S
N459 H462 0.984 . S
N459 H463 0.985 . S
H460 N455 0.984 . S
H461 N455 0.985 . S
H462 N459 0.984 . S
H463 N459 0.985 . S
H464 N458 0.984 . S
H465 N458 0.984 . S
H466 N454 0.984 . S
H467 N454 0.985 . S
C468 C469 1.363 . S
C468 C474 1.379 . S
C468 N476 1.356 . S
C469 C468 1.363 . S
C469 C475 1.363 1_655 S
C470 C471 1.363 . S
C470 C475 1.379 . S
C470 N477 1.356 . S
C471 C470 1.363 . S
C471 C474 1.363 1_455 S
N472 C474 1.356 1_455 S
N472 H484 0.984 1_455 S
N472 H485 0.985 . S
N473 C475 1.356 1_655 S
N473 H478 0.984 . S
N473 H479 0.985 1_655 S
C474 C468 1.379 . S
C474 C471 1.363 1_655 S
C474 N472 1.356 1_655 S
C475 C469 1.363 1_455 S
C475 C470 1.379 . S
C475 N473 1.356 1_455 S
N476 C468 1.356 . S
N476 H482 0.984 . S
N476 H483 0.984 . S
N477 C470 1.356 . S
N477 H480 0.984 . S
N477 H481 0.985 . S
H478 N473 0.984 . S
H479 N473 0.985 1_455 S
H480 N477 0.984 . S
H481 N477 0.985 . S
H482 N476 0.984 . S
H483 N476 0.984 . S
H484 N472 0.984 1_655 S
H485 N472 0.985 . S
C486 C487 1.363 . S
C486 C492 1.379 . S
C486 N494 1.356 . S
C487 C486 1.363 . S
C487 C493 1.363 1_565 S
C488 C489 1.363 . S
C488 C493 1.379 . S
C488 N495 1.356 . S
C489 C488 1.363 . S
C489 C492 1.363 1_545 S
N490 C492 1.356 1_545 S
N490 H502 0.984 1_545 S
N490 H503 0.985 . S
N491 C493 1.356 1_565 S
N491 H496 0.984 . S
N491 H497 0.985 1_565 S
C492 C486 1.379 . S
C492 C489 1.363 1_565 S
C492 N490 1.356 1_565 S
C493 C487 1.363 1_545 S
C493 C488 1.379 . S
C493 N491 1.356 1_545 S
N494 C486 1.356 . S
N494 H500 0.984 . S
N494 H501 0.984 . S
N495 C488 1.356 . S
N495 H498 0.984 . S
N495 H499 0.985 . S
H496 N491 0.984 . S
H497 N491 0.985 1_545 S
H498 N495 0.984 . S
H499 N495 0.985 . S
H500 N494 0.984 . S
H501 N494 0.984 . S
H502 N490 0.984 1_565 S
H503 N490 0.985 . S
C504 C505 1.363 . S
C504 C510 1.379 . S
C504 N512 1.356 . S
C505 C504 1.363 . S
C505 C511 1.363 . S
C506 C507 1.363 . S
C506 C511 1.379 . S
C506 N513 1.356 . S
C507 C506 1.363 . S
C507 C510 1.363 . S
N508 C510 1.356 . S
N508 H520 0.984 . S
N508 H521 0.985 . S
N509 C511 1.356 . S
N509 H514 0.984 . S
N509 H515 0.985 . S
C510 C504 1.379 . S
C510 C507 1.363 . S
C510 N508 1.356 . S
C511 C505 1.363 . S
C511 C506 1.379 . S
C511 N509 1.356 . S
N512 C504 1.356 . S
N512 H518 0.984 . S
N512 H519 0.984 . S
N513 C506 1.356 . S
N513 H516 0.984 . S
N513 H517 0.985 . S
H514 N509 0.984 . S
H515 N509 0.985 . S
H516 N513 0.984 . S
H517 N513 0.985 . S
H518 N512 0.984 . S
H519 N512 0.984 . S
H520 N508 0.984 . S
H521 N508 0.985 . S
C522 C523 1.363 . S
C522 C528 1.379 . S
C522 N530 1.356 . S
C523 C522 1.363 . S
C523 C529 1.363 1_655 S
C524 C525 1.363 . S
C524 C529 1.379 . S
C524 N531 1.356 . S
C525 C524 1.363 . S
C525 C528 1.363 1_455 S
N526 C528 1.356 . S
N526 H538 0.984 . S
N526 H539 0.985 . S
N527 C529 1.356 . S
N527 H532 0.984 . S
N527 H533 0.985 . S
C528 C522 1.379 . S
C528 C525 1.363 1_655 S
C528 N526 1.356 . S
C529 C523 1.363 1_455 S
C529 C524 1.379 . S
C529 N527 1.356 . S
N530 C522 1.356 . S
N530 H536 0.984 . S
N530 H537 0.984 . S
N531 C524 1.356 . S
N531 H534 0.984 . S
N531 H535 0.985 . S
H532 N527 0.984 . S
H533 N527 0.985 . S
H534 N531 0.984 . S
H535 N531 0.985 . S
H536 N530 0.984 . S
H537 N530 0.984 . S
H538 N526 0.984 . S
H539 N526 0.985 . S
C540 C541 1.363 1_565 S
C540 C546 1.379 1_554 S
C540 N548 1.356 . S
C541 C540 1.363 1_545 S
C541 C547 1.363 . S
C542 C543 1.363 1_545 S
C542 C547 1.379 1_556 S
C542 N549 1.356 . S
C543 C542 1.363 1_565 S
C543 C546 1.363 . S
N544 C546 1.356 . S
N544 H556 0.984 . S
N544 H557 0.985 . S
N545 C547 1.356 . S
N545 H550 0.984 . S
N545 H551 0.985 . S
C546 C540 1.379 1_556 S
C546 C543 1.363 . S
C546 N544 1.356 . S
C547 C541 1.363 . S
C547 C542 1.379 1_554 S
C547 N545 1.356 . S
N548 C540 1.356 . S
N548 H554 0.984 . S
N548 H555 0.984 1_565 S
N549 C542 1.356 . S
N549 H552 0.984 1_545 S
N549 H553 0.985 . S
H550 N545 0.984 . S
H551 N545 0.985 . S
H552 N549 0.984 1_565 S
H553 N549 0.985 . S
H554 N548 0.984 . S
H555 N548 0.984 1_545 S
H556 N544 0.984 . S
H557 N544 0.985 . S
C558 C559 1.363 . S
C558 C564 1.379 . S
C558 N566 1.356 . S
C559 C558 1.363 . S
C559 C565 1.363 . S
C560 C561 1.363 . S
C560 C565 1.379 . S
C560 N567 1.356 . S
C561 C560 1.363 . S
C561 C564 1.363 . S
N562 C564 1.356 . S
N562 H574 0.984 . S
N562 H575 0.985 . S
N563 C565 1.356 . S
N563 H568 0.984 . S
N563 H569 0.985 . S
C564 C558 1.379 . S
C564 C561 1.363 . S
C564 N562 1.356 . S
C565 C559 1.363 . S
C565 C560 1.379 . S
C565 N563 1.356 . S
N566 C558 1.356 . S
N566 H572 0.984 . S
N566 H573 0.984 . S
N567 C560 1.356 . S
N567 H570 0.984 . S
N567 H571 0.985 . S
H568 N563 0.984 . S
H569 N563 0.985 . S
H570 N567 0.984 . S
H571 N567 0.985 . S
H572 N566 0.984 . S
H573 N566 0.984 . S
H574 N562 0.984 . S
H575 N562 0.985 . S
C576 C577 1.363 1_655 S
C576 C582 1.379 . S
C576 N584 1.356 . S
C577 C576 1.363 1_455 S
C577 C583 1.363 . S
C578 C579 1.363 1_455 S
C578 C583 1.379 . S
C578 N585 1.356 . S
C579 C578 1.363 1_655 S
C579 C582 1.363 . S
N580 C582 1.356 . S
N580 H592 0.984 . S
N580 H593 0.985 . S
N581 C583 1.356 . S
N581 H586 0.984 . S
N581 H587 0.985 . S
C582 C576 1.379 . S
C582 C579 1.363 . S
C582 N580 1.356 . S
C583 C577 1.363 . S
C583 C578 1.379 . S
C583 N581 1.356 . S
N584 C576 1.356 . S
N584 H590 0.984 . S
N584 H591 0.984 . S
N585 C578 1.356 . S
N585 H588 0.984 . S
N585 H589 0.985 . S
H586 N581 0.984 . S
H587 N581 0.985 . S
H588 N585 0.984 . S
H589 N585 0.985 . S
H590 N584 0.984 . S
H591 N584 0.984 . S
H592 N580 0.984 . S
H593 N580 0.985 . S
C594 C595 1.363 . S
C594 C600 1.379 1_556 S
C594 N602 1.356 . S
C595 C594 1.363 . S
C595 C601 1.363 1_545 S
C596 C597 1.363 . S
C596 C601 1.379 1_554 S
C596 N603 1.356 . S
C597 C596 1.363 . S
C597 C600 1.363 1_565 S
N598 C600 1.356 . S
N598 H610 0.984 . S
N598 H611 0.985 . S
N599 C601 1.356 . S
N599 H604 0.984 . S
N599 H605 0.985 . S
C600 C594 1.379 1_554 S
C600 C597 1.363 1_545 S
C600 N598 1.356 . S
C601 C595 1.363 1_565 S
C601 C596 1.379 1_556 S
C601 N599 1.356 . S
N602 C594 1.356 . S
N602 H608 0.984 1_556 S
N602 H609 0.984 . S
N603 C596 1.356 . S
N603 H606 0.984 . S
N603 H607 0.985 1_554 S
H604 N599 0.984 . S
H605 N599 0.985 . S
H606 N603 0.984 . S
H607 N603 0.985 1_556 S
H608 N602 0.984 1_554 S
H609 N602 0.984 . S
H610 N598 0.984 . S
H611 N598 0.985 . S
C612 C613 1.363 . S
C612 C618 1.379 1_545 S
C612 N620 1.356 . S
C613 C612 1.363 . S
C613 C619 1.363 1_455 S
C614 C615 1.363 . S
C614 C619 1.379 1_565 S
C614 N621 1.356 . S
C615 C614 1.363 . S
C615 C618 1.363 1_655 S
N616 C618 1.356 1_655 S
N616 H628 0.984 1_655 S
N616 H629 0.985 . S
N617 C619 1.356 1_455 S
N617 H622 0.984 . S
N617 H623 0.985 1_455 S
C618 C612 1.379 1_565 S
C618 C615 1.363 1_455 S
C618 N616 1.356 1_455 S
C619 C613 1.363 1_655 S
C619 C614 1.379 1_545 S
C619 N617 1.356 1_655 S
N620 C612 1.356 . S
N620 H626 0.984 . S
N620 H627 0.984 . S
N621 C614 1.356 . S
N621 H624 0.984 . S
N621 H625 0.985 . S
H622 N617 0.984 . S
H623 N617 0.985 1_655 S
H624 N621 0.984 . S
H625 N621 0.985 . S
H626 N620 0.984 . S
H627 N620 0.984 . S
H628 N616 0.984 1_455 S
H629 N616 0.985 . S
C630 C631 1.363 1_565 S
C630 C636 1.379 . S
C630 N638 1.356 1_565 S
C631 C630 1.363 1_545 S
C631 C637 1.363 1_655 S
C632 C633 1.363 1_545 S
C632 C637 1.379 . S
C632 N639 1.356 1_545 S
C633 C632 1.363 1_565 S
C633 C636 1.363 1_455 S
N634 C636 1.356 . S
N634 H646 0.984 . S
N634 H647 0.985 . S
N635 C637 1.356 . S
N635 H640 0.984 . S
N635 H641 0.985 . S
C636 C630 1.379 . S
C636 C633 1.363 1_655 S
C636 N634 1.356 . S
C637 C631 1.363 1_455 S
C637 C632 1.379 . S
C637 N635 1.356 . S
N638 C630 1.356 1_545 S
N638 H644 0.984 1_545 S
N638 H645 0.984 . S
N639 C632 1.356 1_565 S
N639 H642 0.984 . S
N639 H643 0.985 1_565 S
H640 N635 0.984 . S
H641 N635 0.985 . S
H642 N639 0.984 . S
H643 N639 0.985 1_545 S
H644 N638 0.984 1_565 S
H645 N638 0.984 . S
H646 N634 0.984 . S
H647 N634 0.985 . S
C648 C649 1.363 1_565 S
C648 C654 1.379 1_455 S
C648 N656 1.356 . S
C649 C648 1.363 1_545 S
C649 C655 1.363 . S
C650 C651 1.363 1_545 S
C650 C655 1.379 1_655 S
C650 N657 1.356 . S
C651 C650 1.363 1_565 S
C651 C654 1.363 . S
N652 C654 1.356 . S
N652 H664 0.984 . S
N652 H665 0.985 . S
N653 C655 1.356 . S
N653 H658 0.984 . S
N653 H659 0.985 . S
C654 C648 1.379 1_655 S
C654 C651 1.363 . S
C654 N652 1.356 . S
C655 C649 1.363 . S
C655 C650 1.379 1_455 S
C655 N653 1.356 . S
N656 C648 1.356 . S
N656 H662 0.984 . S
N656 H663 0.984 . S
N657 C650 1.356 . S
N657 H660 0.984 . S
N657 H661 0.985 . S
H658 N653 0.984 . S
H659 N653 0.985 . S
H660 N657 0.984 . S
H661 N657 0.985 . S
H662 N656 0.984 . S
H663 N656 0.984 . S
H664 N652 0.984 . S
H665 N652 0.985 . S
C666 C667 1.363 1_545 S
C666 C672 1.379 1_655 S
C666 N674 1.356 1_545 S
C667 C666 1.363 1_565 S
C667 C673 1.363 . S
C668 C669 1.363 1_565 S
C668 C673 1.379 1_455 S
C668 N675 1.356 1_565 S
C669 C668 1.363 1_545 S
C669 C672 1.363 . S
N670 C672 1.356 . S
N670 H682 0.984 . S
N670 H683 0.985 . S
N671 C673 1.356 . S
N671 H676 0.984 . S
N671 H677 0.985 . S
C672 C666 1.379 1_455 S
C672 C669 1.363 . S
C672 N670 1.356 . S
C673 C667 1.363 . S
C673 C668 1.379 1_655 S
C673 N671 1.356 . S
N674 C666 1.356 1_565 S
N674 H680 0.984 1_565 S
N674 H681 0.984 . S
N675 C668 1.356 1_545 S
N675 H678 0.984 . S
N675 H679 0.985 1_545 S
H676 N671 0.984 . S
H677 N671 0.985 . S
H678 N675 0.984 . S
H679 N675 0.985 1_565 S
H680 N674 0.984 1_545 S
H681 N674 0.984 . S
H682 N670 0.984 . S
H683 N670 0.985 . S
C684 C685 1.363 . S
C684 C690 1.379 1_565 S
C684 N692 1.356 . S
C685 C684 1.363 . S
C685 C691 1.363 1_655 S
C686 C687 1.363 . S
C686 C691 1.379 1_545 S
C686 N693 1.356 . S
C687 C686 1.363 . S
C687 C690 1.363 1_455 S
N688 C690 1.356 . S
N688 H700 0.984 . S
N688 H701 0.985 . S
N689 C691 1.356 . S
N689 H694 0.984 . S
N689 H695 0.985 . S
C690 C684 1.379 1_545 S
C690 C687 1.363 1_655 S
C690 N688 1.356 . S
C691 C685 1.363 1_455 S
C691 C686 1.379 1_565 S
C691 N689 1.356 . S
N692 C684 1.356 . S
N692 H698 0.984 . S
N692 H699 0.984 . S
N693 C686 1.356 . S
N693 H696 0.984 . S
N693 H697 0.985 . S
H694 N689 0.984 . S
H695 N689 0.985 . S
H696 N693 0.984 . S
H697 N693 0.985 . S
H698 N692 0.984 . S
H699 N692 0.984 . S
H700 N688 0.984 . S
H701 N688 0.985 . S
C702 C703 1.363 1_455 S
C702 C708 1.379 . S
C702 N710 1.356 1_455 S
C703 C702 1.363 1_655 S
C703 C709 1.363 1_545 S
C704 C705 1.363 1_655 S
C704 C709 1.379 . S
C704 N711 1.356 1_655 S
C705 C704 1.363 1_455 S
C705 C708 1.363 1_565 S
N706 C708 1.356 . S
N706 H718 0.984 . S
N706 H719 0.985 . S
N707 C709 1.356 . S
N707 H712 0.984 . S
N707 H713 0.985 . S
C708 C702 1.379 . S
C708 C705 1.363 1_545 S
C708 N706 1.356 . S
C709 C703 1.363 1_565 S
C709 C704 1.379 . S
C709 N707 1.356 . S
N710 C702 1.356 1_655 S
N710 H716 0.984 1_655 S
N710 H717 0.984 . S
N711 C704 1.356 1_455 S
N711 H714 0.984 . S
N711 H715 0.985 1_455 S
H712 N707 0.984 . S
H713 N707 0.985 . S
H714 N711 0.984 . S
H715 N711 0.985 1_655 S
H716 N710 0.984 1_455 S
H717 N710 0.984 . S
H718 N706 0.984 . S
H719 N706 0.985 . S
C720 C721 1.363 . S
C720 C726 1.379 . S
C720 N728 1.356 . S
C721 C720 1.363 . S
C721 C727 1.363 1_655 S
C722 C723 1.363 . S
C722 C727 1.379 . S
C722 N729 1.356 . S
C723 C722 1.363 . S
C723 C726 1.363 1_455 S
N724 C726 1.356 1_455 S
N724 H736 0.984 1_455 S
N724 H737 0.985 . S
N725 C727 1.356 1_655 S
N725 H730 0.984 . S
N725 H731 0.985 1_655 S
C726 C720 1.379 . S
C726 C723 1.363 1_655 S
C726 N724 1.356 1_655 S
C727 C721 1.363 1_455 S
C727 C722 1.379 . S
C727 N725 1.356 1_455 S
N728 C720 1.356 . S
N728 H734 0.984 . S
N728 H735 0.984 . S
N729 C722 1.356 . S
N729 H732 0.984 . S
N729 H733 0.985 . S
H730 N725 0.984 . S
H731 N725 0.985 1_455 S
H732 N729 0.984 . S
H733 N729 0.985 . S
H734 N728 0.984 . S
H735 N728 0.984 . S
H736 N724 0.984 1_655 S
H737 N724 0.985 . S
C738 C739 1.363 . S
C738 C744 1.379 1_545 S
C738 N746 1.356 . S
C739 C738 1.363 . S
C739 C745 1.363 . S
C740 C741 1.363 . S
C740 C745 1.379 1_565 S
C740 N747 1.356 . S
C741 C740 1.363 . S
C741 C744 1.363 . S
N742 C744 1.356 . S
N742 H754 0.985 1_565 S
N742 H755 0.985 . S
N743 C745 1.356 . S
N743 H748 0.984 . S
N743 H749 0.985 1_545 S
C744 C738 1.379 1_565 S
C744 C741 1.363 . S
C744 N742 1.356 . S
C745 C739 1.363 . S
C745 C740 1.379 1_545 S
C745 N743 1.356 . S
N746 C738 1.356 . S
N746 H752 0.984 . S
N746 H753 0.984 . S
N747 C740 1.356 . S
N747 H750 0.984 . S
N747 H751 0.985 . S
H748 N743 0.984 . S
H749 N743 0.985 1_565 S
H750 N747 0.984 . S
H751 N747 0.985 . S
H752 N746 0.984 . S
H753 N746 0.984 . S
H754 N742 0.985 1_545 S
H755 N742 0.985 . S
C756 C757 1.363 . S
C756 C762 1.379 . S
C756 N764 1.356 . S
C757 C756 1.363 . S
C757 C763 1.363 . S
C758 C759 1.363 . S
C758 C763 1.379 . S
C758 N765 1.356 . S
C759 C758 1.363 . S
C759 C762 1.363 . S
N760 C762 1.356 . S
N760 H772 0.984 . S
N760 H773 0.985 . S
N761 C763 1.356 . S
N761 H766 0.984 . S
N761 H767 0.985 . S
C762 C756 1.379 . S
C762 C759 1.363 . S
C762 N760 1.356 . S
C763 C757 1.363 . S
C763 C758 1.379 . S
C763 N761 1.356 . S
N764 C756 1.356 . S
N764 H770 0.984 . S
N764 H771 0.984 . S
N765 C758 1.356 . S
N765 H768 0.984 . S
N765 H769 0.985 . S
H766 N761 0.984 . S
H767 N761 0.985 . S
H768 N765 0.984 . S
H769 N765 0.985 . S
H770 N764 0.984 . S
H771 N764 0.984 . S
H772 N760 0.984 . S
H773 N760 0.985 . S
C774 C775 1.353 1_655 S
C774 C780 1.391 . S
C774 N782 1.350 1_655 S
C775 C774 1.353 1_455 S
C775 C781 1.363 . S
C776 C777 1.353 1_455 S
C776 C781 1.391 . S
C776 N783 1.350 1_455 S
C777 C776 1.353 1_655 S
C777 C780 1.363 . S
N778 C780 1.356 . S
N778 H790 0.984 . S
N778 H791 0.985 . S
N779 C781 1.356 . S
N779 H784 0.984 . S
N779 H785 0.985 . S
C780 C774 1.391 . S
C780 C777 1.363 . S
C780 N778 1.356 . S
C781 C775 1.363 . S
C781 C776 1.391 . S
C781 N779 1.356 . S
N782 C774 1.350 1_455 S
N782 H788 0.984 1_455 S
N782 H789 0.984 . S
N783 C776 1.350 1_655 S
N783 H786 0.984 . S
N783 H787 0.985 1_655 S
H784 N779 0.984 . S
H785 N779 0.985 . S
H786 N783 0.984 . S
H787 N783 0.985 1_455 S
H788 N782 0.984 1_655 S
H789 N782 0.984 . S
H790 N778 0.984 . S
H791 N778 0.985 . S
C792 C793 1.363 . S
C792 C798 1.379 1_565 S
C792 N800 1.356 . S
C793 C792 1.363 . S
C793 C799 1.363 . S
C794 C795 1.363 . S
C794 C799 1.379 1_545 S
C794 N801 1.356 . S
C795 C794 1.363 . S
C795 C798 1.363 . S
N796 C798 1.356 . S
N796 H808 0.984 . S
N796 H809 0.985 . S
N797 C799 1.356 . S
N797 H802 0.984 . S
N797 H803 0.985 . S
C798 C792 1.379 1_545 S
C798 C795 1.363 . S
C798 N796 1.356 . S
C799 C793 1.363 . S
C799 C794 1.379 1_565 S
C799 N797 1.356 . S
N800 C792 1.356 . S
N800 H806 0.984 1_565 S
N800 H807 0.984 . S
N801 C794 1.356 . S
N801 H804 0.984 . S
N801 H805 0.985 1_545 S
H802 N797 0.984 . S
H803 N797 0.985 . S
H804 N801 0.984 . S
H805 N801 0.985 1_565 S
H806 N800 0.984 1_545 S
H807 N800 0.984 . S
H808 N796 0.984 . S
H809 N796 0.985 . S
C810 C811 1.363 . S
C810 C816 1.379 . S
C810 N818 1.356 . S
C811 C810 1.363 . S
C811 C817 1.363 . S
C812 C813 1.363 . S
C812 C817 1.379 . S
C812 N819 1.356 . S
C813 C812 1.363 . S
C813 C816 1.363 . S
N814 C816 1.356 . S
N814 H826 0.984 . S
N814 H827 0.985 . S
N815 C817 1.356 . S
N815 H820 0.984 . S
N815 H821 0.985 . S
C816 C810 1.379 . S
C816 C813 1.363 . S
C816 N814 1.356 . S
C817 C811 1.363 . S
C817 C812 1.379 . S
C817 N815 1.356 . S
N818 C810 1.356 . S
N818 H824 0.984 . S
N818 H825 0.984 . S
N819 C812 1.356 . S
N819 H822 0.984 . S
N819 H823 0.985 . S
H820 N815 0.984 . S
H821 N815 0.985 . S
H822 N819 0.984 . S
H823 N819 0.985 . S
H824 N818 0.984 . S
H825 N818 0.984 . S
H826 N814 0.984 . S
H827 N814 0.985 . S
C828 C829 1.363 . S
C828 C834 1.379 . S
C828 N836 1.356 . S
C829 C828 1.363 . S
C829 C835 1.363 . S
C830 C831 1.363 . S
C830 C835 1.379 . S
C830 N837 1.356 . S
C831 C830 1.363 . S
C831 C834 1.363 . S
N832 C834 1.356 . S
N832 H844 0.984 . S
N832 H845 0.985 . S
N833 C835 1.356 . S
N833 H838 0.984 . S
N833 H839 0.985 . S
C834 C828 1.379 . S
C834 C831 1.363 . S
C834 N832 1.356 . S
C835 C829 1.363 . S
C835 C830 1.379 . S
C835 N833 1.356 . S
N836 C828 1.356 . S
N836 H842 0.984 . S
N836 H843 0.984 . S
N837 C830 1.356 . S
N837 H840 0.984 1_545 S
N837 H841 0.985 1_545 S
H838 N833 0.984 . S
H839 N833 0.985 . S
H840 N837 0.984 1_565 S
H841 N837 0.985 1_565 S
H842 N836 0.984 . S
H843 N836 0.984 . S
H844 N832 0.984 . S
H845 N832 0.985 . S
C846 C847 1.363 . S
C846 C852 1.379 . S
C846 N854 1.356 . S
C847 C846 1.363 . S
C847 C853 1.363 . S
C848 C849 1.363 . S
C848 C853 1.379 . S
C848 N855 1.356 . S
C849 C848 1.363 . S
C849 C852 1.363 . S
N850 C852 1.356 . S
N850 H862 0.984 . S
N850 H863 0.985 . S
N851 C853 1.356 . S
N851 H856 0.984 . S
N851 H857 0.985 . S
C852 C846 1.379 . S
C852 C849 1.363 . S
C852 N850 1.356 . S
C853 C847 1.363 . S
C853 C848 1.379 . S
C853 N851 1.356 . S
N854 C846 1.356 . S
N854 H860 0.984 . S
N854 H861 0.984 . S
N855 C848 1.356 . S
N855 H858 0.984 . S
N855 H859 0.985 . S
H856 N851 0.984 . S
H857 N851 0.985 . S
H858 N855 0.984 . S
H859 N855 0.985 . S
H860 N854 0.984 . S
H861 N854 0.984 . S
H862 N850 0.984 . S
H863 N850 0.985 . S
C864 C865 1.363 . S
C864 C870 1.379 . S
C864 N872 1.356 . S
C865 C864 1.363 . S
C865 C871 1.363 . S
C866 C867 1.363 . S
C866 C871 1.379 . S
C866 N873 1.356 . S
C867 C866 1.363 . S
C867 C870 1.363 . S
N868 C870 1.356 . S
N868 H880 0.984 . S
N868 H881 0.985 . S
N869 C871 1.356 . S
N869 H874 0.984 . S
N869 H875 0.985 . S
C870 C864 1.379 . S
C870 C867 1.363 . S
C870 N868 1.356 . S
C871 C865 1.363 . S
C871 C866 1.379 . S
C871 N869 1.356 . S
N872 C864 1.356 . S
N872 H878 0.984 1_655 S
N872 H879 0.984 1_655 S
N873 C866 1.356 . S
N873 H876 0.984 . S
N873 H877 0.985 . S
H874 N869 0.984 . S
H875 N869 0.985 . S
H876 N873 0.984 . S
H877 N873 0.985 . S
H878 N872 0.984 1_455 S
H879 N872 0.984 1_455 S
H880 N868 0.984 . S
H881 N868 0.985 . S
C882 C883 1.363 . S
C882 C888 1.379 . S
C882 N890 1.356 . S
C883 C882 1.363 . S
C883 C889 1.363 . S
C884 C885 1.363 . S
C884 C889 1.379 . S
C884 N891 1.356 . S
C885 C884 1.363 . S
C885 C888 1.363 . S
N886 C888 1.356 . S
N886 H898 0.984 . S
N886 H899 0.981 1_565 S
N887 C889 1.356 . S
N887 H892 0.984 . S
N887 H893 0.985 . S
C888 C882 1.379 . S
C888 C885 1.363 . S
C888 N886 1.356 . S
C889 C883 1.363 . S
C889 C884 1.379 . S
C889 N887 1.356 . S
N890 C882 1.356 . S
N890 H896 0.984 . S
N890 H897 0.984 . S
N891 C884 1.356 . S
N891 H894 0.984 . S
N891 H895 0.985 . S
H892 N887 0.984 . S
H893 N887 0.985 . S
H894 N891 0.984 . S
H895 N891 0.985 . S
H896 N890 0.984 . S
H897 N890 0.984 . S
H898 N886 0.984 . S
H899 N886 0.981 1_545 S
C900 C901 1.363 . S
C900 C906 1.379 . S
C900 N908 1.356 . S
C901 C900 1.363 . S
C901 C907 1.363 . S
C902 C903 1.363 . S
C902 C907 1.379 . S
C902 N909 1.356 . S
C903 C902 1.363 . S
C903 C906 1.363 . S
N904 C906 1.356 . S
N904 H916 0.984 . S
N904 H917 0.985 . S
N905 C907 1.356 . S
N905 H910 0.984 . S
N905 H911 0.985 . S
C906 C900 1.379 . S
C906 C903 1.363 . S
C906 N904 1.356 . S
C907 C901 1.363 . S
C907 C902 1.379 . S
C907 N905 1.356 . S
N908 C900 1.356 . S
N908 H914 0.984 . S
N908 H915 0.984 . S
N909 C902 1.356 . S
N909 H912 0.984 1_655 S
N909 H913 0.985 1_655 S
H910 N905 0.984 . S
H911 N905 0.985 . S
H912 N909 0.984 1_455 S
H913 N909 0.985 1_455 S
H914 N908 0.984 . S
H915 N908 0.984 . S
H916 N904 0.984 . S
H917 N904 0.985 . S
C918 C919 1.363 . S
C918 C924 1.379 . S
C918 N926 1.356 . S
C919 C918 1.363 . S
C919 C925 1.363 . S
C920 C921 1.363 . S
C920 C925 1.379 . S
C920 N927 1.356 . S
C921 C920 1.363 . S
C921 C924 1.363 . S
N922 C924 1.356 . S
N922 H934 0.984 . S
N922 H935 0.985 . S
N923 C925 1.356 . S
N923 H928 0.984 1_565 S
N923 H929 0.985 1_565 S
C924 C918 1.379 . S
C924 C921 1.363 . S
C924 N922 1.356 . S
C925 C919 1.363 . S
C925 C920 1.379 . S
C925 N923 1.356 . S
N926 C918 1.356 . S
N926 H932 0.984 . S
N926 H933 0.984 . S
N927 C920 1.356 . S
N927 H930 0.984 . S
N927 H931 0.985 . S
H928 N923 0.984 1_545 S
H929 N923 0.985 1_545 S
H930 N927 0.984 . S
H931 N927 0.985 . S
H932 N926 0.984 . S
H933 N926 0.984 . S
H934 N922 0.984 . S
H935 N922 0.985 . S
C397 N112 1.504 . S
C399 N13 1.504 . S
C415 N145 1.504 . S
C417 N46 1.504 . S
C433 N178 1.504 . S
C435 N79 1.504 . S
C451 N211 1.504 . S
C453 N310 1.504 . S
C469 N244 1.504 . S
C471 N343 1.504 . S
C487 N277 1.504 . S
C489 N376 1.504 . S
C505 C315 1.838 . S
C507 C18 1.838 . S
C523 C51 1.838 . S
C525 C348 1.838 . S
C541 C381 1.838 . S
C543 C84 1.838 . S
C559 C216 1.838 . S
C561 C117 1.838 . S
C577 C150 1.838 . S
C579 C249 1.838 . S
C595 C183 1.838 . S
C597 C282 1.838 . S
C613 N2 0.692 . S
C615 N101 0.691 . S
C631 N35 0.691 . S
C633 N134 0.691 . S
C649 N167 0.691 . S
C651 N68 0.691 . S
C667 N200 0.692 . S
C669 N299 0.691 . S
C685 N233 0.691 . S
C687 N332 0.691 . S
C703 N365 0.691 . S
C705 N266 0.691 . S
C721 C384 1.212 . S
C723 C21 1.212 . S
C739 C54 1.212 . S
C741 C219 1.212 . S
C757 C252 1.212 . S
C759 C87 1.212 . S
C775 C285 1.212 . S
C777 C120 1.212 . S
C793 C153 1.212 . S
C795 C318 1.212 . S
C811 C186 1.212 . S
C813 C351 1.212 . S
C829 C7 1.237 . S
C831 C271 1.237 . S
C847 C40 1.237 . S
C849 C304 1.237 . S
C865 C337 1.237 . S
C867 C73 1.237 . S
C883 C106 1.237 . S
C885 C370 1.237 . S
C901 C205 1.237 . S
C903 C139 1.237 . S
C919 C172 1.237 . S
C921 C238 1.237 . S
