# Generated by pormake.
# Topology hcp, (12)-cn, num edge types: 1
# Building blocks:
#     Node 0, Type 0, BuildingBlock: EZIPEK_clean_sbu_0, # of connection points: 12
#     Node 1, Type 0, BuildingBlock: EZIPEK_clean_sbu_0, # of connection points: 12
#     Edge 2, Type (0, 0), BuildingBlock: TEMPAE_clean_linker_10, # of connection points: 2
#     Edge 3, Type (0, 0), BuildingBlock: TEMPAE_clean_linker_10, # of connection points: 2
#     Edge 4, Type (0, 0), BuildingBlock: TEMPAE_clean_linker_10, # of connection points: 2
#     Edge 5, Type (0, 0), BuildingBlock: TEMPAE_clean_linker_10, # of connection points: 2
#     Edge 6, Type (0, 0), BuildingBlock: TEMPAE_clean_linker_10, # of connection points: 2
#     Edge 7, Type (0, 0), BuildingBlock: TEMPAE_clean_linker_10, # of connection points: 2
#     Edge 8, Type (0, 0), BuildingBlock: TEMPAE_clean_linker_10, # of connection points: 2
#     Edge 9, Type (0, 0), BuildingBlock: TEMPAE_clean_linker_10, # of connection points: 2
#     Edge 10, Type (0, 0), BuildingBlock: TEMPAE_clean_linker_10, # of connection points: 2
#     Edge 11, Type (0, 0), BuildingBlock: TEMPAE_clean_linker_10, # of connection points: 2
#     Edge 12, Type (0, 0), BuildingBlock: TEMPAE_clean_linker_10, # of connection points: 2
#     Edge 13, Type (0, 0), BuildingBlock: TEMPAE_clean_linker_10, # of connection points: 2
# Relax obj value: 0.186
# Max RMSD: 0.270
# Mean RMSD: 0.270
data_MOF--net-hcp--node1-EZIPEK_clean_sbu_0--edge1-TEMPAE_clean_linker_10
_symmetry_space_group_name_H-M    P1
_symmetry_Int_Tables_number       1
_symmetry_cell_setting            triclinic
loop_
_symmetry_equiv_pos_as_xyz
'x, y, z'
_cell_length_a     19.1302
_cell_length_b     19.146313
_cell_length_c     28.935043
_cell_angle_alpha  89.912473
_cell_angle_beta   90.032661
_cell_angle_gamma 120.00777
loop_
_atom_site_label
_atom_site_type_symbol
_atom_site_fract_x
_atom_site_fract_y
_atom_site_fract_z
_atom_type_partial_charge
C0 C 0.64546 0.07865 0.2979 0.0
C1 C 0.81969 0.39156 0.17302 0.0
C2 C 0.49265 0.22662 0.42809 0.0
C3 C 0.64307 0.55294 0.29424 0.0
C4 C 0.40487 0.31836 0.29927 0.0
C5 C 0.54349 0.14915 0.171 0.0
C6 C 0.70841 0.47114 0.42805 0.0
C7 C 0.88136 0.32059 0.29281 0.0
C8 C 0.88504 0.56098 0.29982 0.0
C9 C 0.57314 0.4224 0.174 0.0
C10 C 0.73757 0.25751 0.42775 0.0
C11 C 0.41099 0.08371 0.29533 0.0
Eu12 Eu 0.70043 0.25101 0.24463 0.0
O13 O 0.64538 0.31985 0.22128 0.0
O14 O 0.70486 0.26095 0.31924 0.0
Eu15 Eu 0.52196 0.2637 0.24547 0.0
Eu16 Eu 0.76946 0.38276 0.34723 0.0
O17 O 0.584 0.20481 0.2736 0.0
O18 O 0.75883 0.37152 0.27327 0.0
Eu19 Eu 0.58684 0.19541 0.34768 0.0
Eu20 Eu 0.71368 0.44321 0.24543 0.0
O21 O 0.52932 0.26008 0.31995 0.0
O22 O 0.59314 0.38006 0.27411 0.0
O23 O 0.70334 0.43565 0.31994 0.0
O24 O 0.64594 0.31883 0.36904 0.0
Eu25 Eu 0.58135 0.37815 0.3481 0.0
O26 O 0.67797 0.12633 0.26127 0.0
O27 O 0.78074 0.31429 0.18495 0.0
O28 O 0.52381 0.30536 0.4168 0.0
O29 O 0.59575 0.49813 0.32556 0.0
O30 O 0.41925 0.28488 0.26291 0.0
O31 O 0.50611 0.18851 0.18377 0.0
O32 O 0.7547 0.43869 0.41655 0.0
O33 O 0.87434 0.368 0.32413 0.0
O34 O 0.83605 0.54796 0.26409 0.0
O35 O 0.65055 0.46047 0.18572 0.0
O36 O 0.65862 0.21106 0.41672 0.0
O37 O 0.46376 0.09246 0.3282 0.0
O38 O 0.65046 0.46806 0.40198 0.0
O39 O 0.4536 0.35138 0.33545 0.0
O40 O 0.82458 0.27118 0.26303 0.0
O41 O 0.61476 0.16248 0.18808 0.0
O42 O 0.80474 0.44835 0.19003 0.0
O43 O 0.69219 0.54591 0.2641 0.0
O44 O 0.61324 0.0945 0.3344 0.0
O45 O 0.49803 0.17289 0.40233 0.0
O46 O 0.41996 0.13754 0.26292 0.0
O47 O 0.51643 0.35041 0.19082 0.0
O48 O 0.79189 0.31499 0.40125 0.0
O49 O 0.87105 0.50972 0.33448 0.0
C50 C 0.30887 0.409 0.79856 0.0
C51 C 0.13879 0.55524 0.67383 0.0
C52 C 0.46515 0.71342 0.92976 0.0
C53 C 0.31877 0.88965 0.7958 0.0
C54 C 0.25155 0.74448 0.92802 0.0
C55 C 0.07575 0.41767 0.79685 0.0
C56 C 0.55655 0.88825 0.79772 0.0
C57 C 0.40857 0.57238 0.67343 0.0
C58 C 0.39056 0.82365 0.6726 0.0
C59 C 0.07685 0.65876 0.79872 0.0
C60 C 0.54872 0.65052 0.79834 0.0
C61 C 0.22143 0.49906 0.92964 0.0
Eu62 Eu 0.2539 0.52754 0.74639 0.0
O63 O 0.19874 0.59332 0.7742 0.0
O64 O 0.37157 0.59487 0.77457 0.0
Eu65 Eu 0.1894 0.59486 0.84819 0.0
Eu66 Eu 0.43695 0.71516 0.74577 0.0
O67 O 0.25112 0.53426 0.82105 0.0
O68 O 0.31299 0.65117 0.72224 0.0
Eu69 Eu 0.36978 0.58444 0.84872 0.0
Eu70 Eu 0.24875 0.71086 0.74595 0.0
O71 O 0.31327 0.65173 0.86908 0.0
O72 O 0.25848 0.71354 0.82051 0.0
O73 O 0.36967 0.76569 0.77382 0.0
O74 O 0.43022 0.70612 0.82047 0.0
Eu75 Eu 0.3808 0.77519 0.8478 0.0
O76 O 0.27431 0.42374 0.76276 0.0
O77 O 0.17066 0.5112 0.68795 0.0
O78 O 0.44408 0.76741 0.91532 0.0
O79 O 0.36559 0.88127 0.82707 0.0
O80 O 0.1974 0.66876 0.91459 0.0
O81 O 0.08387 0.47286 0.82796 0.0
O82 O 0.54112 0.83943 0.76169 0.0
O83 O 0.45335 0.6481 0.68753 0.0
O84 O 0.31485 0.7923 0.68691 0.0
O85 O 0.12736 0.69653 0.76393 0.0
O86 O 0.49449 0.60593 0.83065 0.0
O87 O 0.29719 0.52111 0.91598 0.0
O88 O 0.50814 0.87422 0.83378 0.0
O89 O 0.31871 0.79425 0.90598 0.0
O90 O 0.33436 0.5193 0.68912 0.0
O91 O 0.13095 0.42468 0.76612 0.0
O92 O 0.1591 0.62921 0.6894 0.0
O93 O 0.27062 0.83466 0.76499 0.0
O94 O 0.34392 0.45789 0.83435 0.0
O95 O 0.44853 0.64617 0.90815 0.0
O96 O 0.17073 0.51476 0.90724 0.0
O97 O 0.08788 0.61886 0.83293 0.0
O98 O 0.53945 0.69441 0.76552 0.0
O99 O 0.44428 0.80331 0.68824 0.0
C100 C 0.27094 0.75691 1.01286 0.0
C101 C 0.2469 0.77999 0.97251 0.0
C102 C 0.31364 0.81347 1.04813 0.0
C103 C 0.33521 0.89529 1.04225 0.0
C104 C 0.30429 0.91694 1.00378 0.0
C105 C 0.25876 0.85859 0.97018 0.0
C106 C 0.34156 0.78721 0.08996 0.0
C107 C 0.32593 0.00338 0.99559 0.0
C108 C 0.40953 0.04105 0.14354 0.0
C109 C 0.49419 0.08062 0.139 0.0
C110 C 0.35785 0.97989 0.11324 0.0
C111 C 0.39073 0.95828 0.07599 0.0
C112 C 0.47621 -0.00345 0.07137 0.0
C113 C 0.52714 0.05671 0.10333 0.0
C114 C 0.26774 0.93888 0.12103 0.0
C115 C 0.51364 0.97489 1.03211 0.0
H116 H 0.26403 0.69727 1.01475 0.0
H117 H 0.242 0.87748 0.9387 0.0
H118 H 0.34415 0.82174 0.12128 0.0
H119 H 0.30073 0.7227 0.09733 0.0
H120 H 0.40301 0.79716 0.08343 0.0
H121 H 0.29334 0.00966 0.96551 0.0
H122 H 0.31217 0.02832 1.02657 0.0
H123 H 0.39182 0.0406 0.98915 0.0
H124 H 0.38292 0.05817 0.17118 0.0
H125 H 0.59215 0.08677 0.09943 0.0
H126 H 0.24064 0.87236 0.11985 0.0
H127 H 0.23934 0.95591 0.09313 0.0
H128 H 0.25233 0.95559 0.15471 0.0
H129 H 0.49661 0.91048 1.03478 0.0
H130 H 0.58054 0.01228 1.03192 0.0
H131 H 0.49012 0.98282 0.99861 0.0
C132 C 0.52188 0.54769 0.65863 0.0
C133 C 0.4518 0.54555 0.64211 0.0
C134 C 0.57451 0.53813 0.62878 0.0
C135 C 0.55776 0.52764 0.58086 0.0
C136 C 0.48552 0.52287 0.56417 0.0
C137 C 0.43345 0.53217 0.595 0.0
C138 C 0.64798 0.53903 0.6485 0.0
C139 C 0.4636 0.50843 0.51363 0.0
C140 C 0.71729 0.56916 0.48814 0.0
C141 C 0.69908 0.49067 0.47647 0.0
C142 C 0.67534 0.58294 0.52407 0.0
C143 C 0.61296 0.5166 0.54856 0.0
C144 C 0.59881 0.43825 0.53911 0.0
C145 C 0.64038 0.42679 0.50274 0.0
C146 C 0.69353 0.66783 0.53344 0.0
C147 C 0.53433 0.36439 0.56377 0.0
H148 H 0.53635 0.55852 0.6951 0.0
H149 H 0.38013 0.53188 0.58205 0.0
H150 H 0.64686 0.4821 0.63962 0.0
H151 H 0.7034 0.58921 0.6329 0.0
H152 H 0.65152 0.5458 0.68668 0.0
H153 H 0.40623 0.50746 0.50589 0.0
H154 H 0.51254 0.55625 0.49245 0.0
H155 H 0.45736 0.44991 0.50294 0.0
H156 H 0.75917 0.61904 0.46661 0.0
H157 H 0.61926 0.36648 0.49112 0.0
H158 H 0.70067 0.68026 0.57112 0.0
H159 H 0.64217 0.67478 0.52153 0.0
H160 H 0.74914 0.71336 0.51546 0.0
H161 H 0.5155 0.3782 0.59712 0.0
H162 H 0.55628 0.32157 0.57067 0.0
H163 H 0.48049 0.33337 0.54109 0.0
C164 C 0.90712 0.46099 0.10276 0.0
C165 C 0.89028 0.41322 0.14243 0.0
C166 C 0.96753 0.46926 0.07129 0.0
C167 C 0.01212 0.42925 0.07993 0.0
C168 C -0.0026 0.38416 0.12106 0.0
C169 C 0.93702 0.3767 0.1515 0.0
C170 C -0.01726 0.51948 1.02828 0.0
C171 C 0.04477 0.34279 0.13277 0.0
C172 C 0.11108 0.3928 0.9752 0.0
C173 C 0.18813 0.46216 0.97521 0.0
C174 C 0.05415 0.37926 1.01 0.0
C175 C 0.07507 0.43553 1.04644 0.0
C176 C 0.15567 0.49982 1.04974 0.0
C177 C 0.2112 0.51286 1.01397 0.0
C178 C 0.96948 0.30874 1.00537 0.0
C179 C 0.18121 0.55929 0.08889 0.0
H180 H 0.87125 0.4891 0.09545 0.0
H181 H 0.92529 0.3406 0.1825 0.0
H182 H 0.04671 0.56865 1.02738 0.0
H183 H 0.97225 0.48163 0.99718 0.0
H184 H 0.94327 0.54659 1.02635 0.0
H185 H 0.02932 0.31414 0.16751 0.0
H186 H 0.03261 0.29564 0.10668 0.0
H187 H 0.11046 0.38683 0.13171 0.0
H188 H 0.09201 0.35423 0.94494 0.0
H189 H 0.26953 0.56759 1.01394 0.0
H190 H 0.92765 0.33132 0.99696 0.0
H191 H 0.94906 0.27527 1.0385 0.0
H192 H 0.96477 0.26628 0.97778 0.0
H193 H 0.16779 0.60761 0.07962 0.0
H194 H 0.24645 0.58665 0.09545 0.0
H195 H 0.14905 0.531 0.12151 0.0
C196 C 0.43778 0.89292 0.59536 0.0
C197 C 0.41632 0.89382 0.64147 0.0
C198 C 0.44595 0.9536 0.56425 0.0
C199 C 0.43234 0.01634 0.57973 0.0
C200 C 0.41341 0.01845 0.62676 0.0
C201 C 0.40516 0.95712 0.6568 0.0
C202 C 0.46802 0.95004 0.5146 0.0
C203 C 0.40174 0.08545 0.64543 0.0
C204 C 0.53285 0.20306 0.50416 0.0
C205 C 0.47006 0.19602 0.47602 0.0
C206 C 0.52033 0.14974 0.54056 0.0
C207 C 0.44277 0.08229 0.54741 0.0
C208 C 0.37739 0.07533 0.5205 0.0
C209 C 0.39178 0.13238 0.48525 0.0
C210 C 0.59277 0.16207 0.56811 0.0
C211 C 0.29357 0.00403 0.52628 0.0
H212 H 0.44496 0.84332 0.58325 0.0
H213 H 0.38799 0.95754 0.69249 0.0
H214 H 0.4216 0.94918 0.49121 0.0
H215 H 0.52627 0.00482 0.50618 0.0
H216 H 0.4737 0.89608 0.5075 0.0
H217 H 0.38766 0.07828 0.68298 0.0
H218 H 0.45727 0.14449 0.63969 0.0
H219 H 0.3519 0.08698 0.62671 0.0
H220 H 0.59377 0.24409 0.4942 0.0
H221 H 0.34322 0.12269 0.46204 0.0
H222 H 0.62288 0.13362 0.54954 0.0
H223 H 0.57629 0.13541 0.60321 0.0
H224 H 0.6372 0.22733 0.57175 0.0
H225 H 0.29269 0.94863 0.51414 0.0
H226 H 0.24794 0.01133 0.50638 0.0
H227 H 0.27606 -0.00499 0.5633 0.0
C228 C 0.58957 0.5551 0.15208 0.0
C229 C 0.55122 0.47156 0.14375 0.0
C230 C 0.58135 0.60783 0.12184 0.0
C231 C 0.53357 0.57695 0.08171 0.0
C232 C 0.49138 0.49212 0.07402 0.0
C233 C 0.50045 0.44017 0.10528 0.0
C234 C 0.62534 0.69695 0.13249 0.0
C235 C 0.43822 0.45664 1.03214 0.0
C236 C 0.4536 0.69457 1.0146 0.0
C237 C 0.50294 0.7185 0.97518 0.0
C238 C 0.4662 0.65292 1.05107 0.0
C239 C 0.52844 0.63356 1.04768 0.0
C240 C 0.5838 0.66572 1.01051 0.0
C241 C 0.57094 0.70856 0.97513 0.0
C242 C 0.40829 0.62329 0.09117 0.0
C243 C 0.65226 0.64844 1.0057 0.0
H244 H 0.62778 0.57988 0.18228 0.0
H245 H 0.47062 0.37592 0.09865 0.0
H246 H 0.67258 0.72994 0.10602 0.0
H247 H 0.58295 0.72058 0.13109 0.0
H248 H 0.65449 0.71042 0.16707 0.0
H249 H 0.40893 0.38984 1.03113 0.0
H250 H 0.39058 0.47361 1.03194 0.0
H251 H 0.47459 0.48177 1.00023 0.0
H252 H 0.40012 0.70044 1.01475 0.0
H253 H 0.6085 0.72543 0.94442 0.0
H254 H 0.38415 0.66411 0.09752 0.0
H255 H 0.437 0.61909 0.12355 0.0
H256 H 0.35745 0.56223 0.08306 0.0
H257 H 0.68567 0.65997 1.03874 0.0
H258 H 0.69541 0.68553 0.97813 0.0
H259 H 0.62738 0.58381 0.99705 0.0
C260 C 0.83186 0.25205 0.48529 0.0
C261 C 0.76787 0.26601 0.4758 0.0
C262 C 0.88801 0.29432 0.52092 0.0
C263 C 0.87989 0.35178 0.54794 0.0
C264 C 0.81198 0.36114 0.54083 0.0
C265 C 0.75925 0.32047 0.50413 0.0
C266 C 0.95966 0.28242 0.52703 0.0
C267 C 0.79843 0.42011 0.56857 0.0
C268 C 0.00509 0.43651 0.65761 0.0
C269 C 0.06863 0.5112 0.64263 0.0
C270 C 0.9432 0.38465 0.62748 0.0
C271 C 0.94526 0.40695 0.58067 0.0
C272 C 0.00832 0.48354 0.56557 0.0
C273 C 0.0693 0.53498 0.5968 0.0
C274 C 0.87587 0.30577 0.64581 0.0
C275 C 0.01204 0.51046 0.51615 0.0
H276 H 0.84243 0.21388 0.46207 0.0
H277 H 0.71733 0.33935 0.49423 0.0
H278 H 0.01516 0.33749 0.51538 0.0
H279 H 0.9679 0.27315 0.56405 0.0
H280 H 0.95328 0.23017 0.50691 0.0
H281 H 0.73295 0.3989 0.57167 0.0
H282 H 0.82411 0.42929 0.60388 0.0
H283 H 0.8273 0.47921 0.55051 0.0
H284 H 0.00475 0.41788 0.69308 0.0
H285 H 0.11901 0.59203 0.58497 0.0
H286 H 0.87547 0.25472 0.62748 0.0
H287 H 0.81672 0.30165 0.6393 0.0
H288 H 0.88195 0.29895 0.6835 0.0
H289 H 0.01349 0.46577 0.49237 0.0
H290 H 0.06583 0.57048 0.50942 0.0
H291 H 0.95701 0.51358 0.5079 0.0
C292 C 0.6525 0.96714 0.33816 0.0
C293 C 0.64353 0.00092 0.29722 0.0
C294 C 0.65219 0.89375 0.33747 0.0
C295 C 0.64032 0.85253 0.29502 0.0
C296 C 0.62919 0.8856 0.25379 0.0
C297 C 0.63223 0.96015 0.25529 0.0
C298 C 0.66572 0.86092 0.38199 0.0
C299 C 0.6146 0.84267 0.20804 0.0
C300 C 0.7126 0.70169 0.28374 0.0
C301 C 0.64175 0.62902 0.2932 0.0
C302 C 0.71313 0.77511 0.28451 0.0
C303 C 0.6405 0.77523 0.2937 0.0
C304 C 0.56825 0.70163 0.30196 0.0
C305 C 0.57001 0.62933 0.30226 0.0
C306 C 0.79161 0.85256 0.27631 0.0
C307 C 0.48916 0.69927 0.31028 0.0
H308 H 0.66159 -0.00098 0.37053 0.0
H309 H 0.62433 0.98594 0.22368 0.0
H310 H 0.61312 0.80058 0.38941 0.0
H311 H 0.71929 0.85327 0.37851 0.0
H312 H 0.67519 0.90101 0.41191 0.0
H313 H 0.59589 0.87072 0.18066 0.0
H314 H 0.67083 0.84454 0.19662 0.0
H315 H 0.56729 0.77833 0.21154 0.0
H316 H 0.76818 0.70134 0.27699 0.0
H317 H 0.51499 0.57283 0.30896 0.0
H318 H 0.80536 0.89359 0.30625 0.0
H319 H 0.7862 0.88401 0.24548 0.0
H320 H 0.84314 0.84205 0.27097 0.0
H321 H 0.49341 0.73388 0.34189 0.0
H322 H 0.4379 0.63672 0.31435 0.0
H323 H 0.47584 0.7283 0.281 0.0
C324 C -0.00012 0.72983 0.80899 0.0
C325 C 0.00085 0.65904 0.79884 0.0
C326 C 0.9267 0.72991 0.81049 0.0
C327 C 0.85389 0.65792 0.80027 0.0
C328 C 0.85527 0.58655 0.78929 0.0
C329 C 0.92903 0.58776 0.7894 0.0
C330 C 0.92724 0.80665 0.82322 0.0
C331 C 0.7791 0.5093 0.777 0.0
C332 C 0.65318 0.63175 0.83931 0.0
C333 C 0.62673 0.65231 0.79904 0.0
C334 C 0.72773 0.63445 0.84044 0.0
C335 C 0.77626 0.65737 0.8002 0.0
C336 C 0.75002 0.67829 0.7595 0.0
C337 C 0.67571 0.67593 0.75947 0.0
C338 C 0.75487 0.61349 0.88476 0.0
C339 C 0.80004 0.70232 0.71582 0.0
H340 H 0.05615 0.78455 0.81652 0.0
H341 H 0.93089 0.53336 0.78143 0.0
H342 H 0.9041 0.82678 0.79398 0.0
H343 H 0.88656 0.79553 0.85306 0.0
H344 H -0.01134 0.85625 0.83224 0.0
H345 H 0.79108 0.45972 0.76836 0.0
H346 H 0.73594 0.48959 0.80629 0.0
H347 H 0.7493 0.51966 0.74696 0.0
H348 H 0.61619 0.61462 0.87022 0.0
H349 H 0.6556 0.69168 0.72816 0.0
H350 H 0.81223 0.66611 0.89662 0.0
H351 H 0.76688 0.56323 0.87879 0.0
H352 H 0.70936 0.59564 0.91277 0.0
H353 H 0.85997 0.75609 0.7223 0.0
H354 H 0.7706 0.71634 0.687 0.0
H355 H 0.81064 0.65289 0.70481 0.0
C356 C 0.31618 0.95088 0.26098 0.0
C357 C 0.33444 0.00768 0.29593 0.0
C358 C 0.24367 0.87694 0.26198 0.0
C359 C 0.18833 0.86071 0.29853 0.0
C360 C 0.20721 0.91818 0.3341 0.0
C361 C 0.28074 -0.00901 0.33255 0.0
C362 C 0.22642 0.81628 0.22408 0.0
C363 C 0.14963 0.90302 0.37354 0.0
C364 C 0.96898 0.70556 0.27718 0.0
C365 C 0.96198 0.63811 0.30049 0.0
C366 C 0.04228 0.77869 0.27661 0.0
C367 C 0.11026 0.78394 0.29934 0.0
C368 C 0.10364 0.71598 0.32282 0.0
C369 C 0.02928 0.64393 0.32341 0.0
C370 C 0.047 0.85028 0.25165 0.0
C371 C 0.17529 0.71909 0.34683 0.0
H372 H 0.35937 0.96364 0.2335 0.0
H373 H 0.29605 0.03536 0.35969 0.0
H374 H 0.21064 0.75684 0.23911 0.0
H375 H 0.17374 0.80774 0.20353 0.0
H376 H 0.27869 0.83553 0.20046 0.0
H377 H 0.17391 0.95375 0.39859 0.0
H378 H 0.0914 0.89377 0.35985 0.0
H379 H 0.13666 0.84718 0.39223 0.0
H380 H 0.91691 0.70142 0.25968 0.0
H381 H 0.02434 0.5916 0.341 0.0
H382 H 0.09205 0.86968 0.22335 0.0
H383 H 0.06752 0.90189 0.27577 0.0
H384 H -0.012 0.8367 0.2367 0.0
H385 H 0.22498 0.7357 0.3217 0.0
H386 H 0.16016 0.66055 0.36306 0.0
H387 H 0.19836 0.76626 0.37398 0.0
C388 C 0.31742 0.30114 0.75576 0.0
C389 C 0.31023 0.33291 0.79787 0.0
C390 C 0.32112 0.22995 0.75443 0.0
C391 C 0.31601 0.18905 0.79619 0.0
C392 C 0.30794 0.22056 0.83882 0.0
C393 C 0.30614 0.29286 0.83919 0.0
C394 C 0.33263 0.19992 0.70845 0.0
C395 C 0.30035 0.17748 0.88393 0.0
C396 C 0.24634 0.9663 0.7888 0.0
C397 C 0.3188 0.96632 0.7956 0.0
C398 C 0.24453 0.03848 0.78925 0.0
C399 C 0.31741 0.11237 0.79531 0.0
C400 C 0.39113 0.11278 0.80113 0.0
C401 C 0.39074 0.03934 0.80193 0.0
C402 C 0.16463 0.03562 0.78361 0.0
C403 C 0.47027 0.19065 0.80626 0.0
H404 H 0.32206 0.33301 0.72387 0.0
H405 H 0.30021 0.3174 0.87175 0.0
H406 H 0.39415 0.20792 0.70712 0.0
H407 H 0.28884 0.1347 0.7042 0.0
H408 H 0.32585 0.23316 0.67888 0.0
H409 H 0.29335 0.20952 0.91398 0.0
H410 H 0.24739 0.11558 0.88261 0.0
H411 H 0.3545 0.17154 0.88957 0.0
H412 H 0.19069 0.90952 0.78412 0.0
H413 H 0.44685 0.03905 0.80659 0.0
H414 H 0.1663 0.07048 0.75256 0.0
H415 H 0.1533 0.06411 0.81389 0.0
H416 H 0.11333 0.97298 0.78011 0.0
H417 H 0.47998 0.23031 0.77607 0.0
H418 H 0.52246 0.18052 0.80912 0.0
H419 H 0.46869 0.22339 0.83747 0.0
C420 C 0.30174 0.3346 0.25625 0.0
C421 C 0.32958 0.32124 0.29827 0.0
C422 C 0.23051 0.33819 0.25425 0.0
C423 C 0.18493 0.3255 0.29504 0.0
C424 C 0.21282 0.31193 0.33763 0.0
C425 C 0.28574 0.31116 0.33885 0.0
C426 C 0.20384 0.35479 0.20841 0.0
C427 C 0.16496 0.29679 0.38166 0.0
C428 C 0.03074 0.39422 0.30152 0.0
C429 C 0.95915 0.32256 0.29153 0.0
C430 C 0.1051 0.39653 0.30179 0.0
C431 C 0.10724 0.32492 0.29303 0.0
C432 C 0.03508 0.2525 0.28266 0.0
C433 C 0.96184 0.25247 0.28143 0.0
C434 C 0.18124 0.47548 0.31137 0.0
C435 C 0.03499 0.17473 0.27381 0.0
H436 H 0.33645 0.34353 0.22496 0.0
H437 H 0.30743 0.30066 0.37128 0.0
H438 H 0.15003 0.29909 0.19597 0.0
H439 H 0.18645 0.40176 0.21222 0.0
H440 H 0.25172 0.37484 0.18164 0.0
H441 H 0.19478 0.28658 0.41179 0.0
H442 H 0.15658 0.34889 0.38929 0.0
H443 H 0.10399 0.24318 0.37738 0.0
H444 H 0.02866 0.44873 0.30871 0.0
H445 H 0.90631 0.19697 0.27393 0.0
H446 H 0.22475 0.49019 0.28257 0.0
H447 H 0.21062 0.47024 0.3432 0.0
H448 H 0.16935 0.52628 0.31573 0.0
H449 H 0.07324 0.18171 0.24341 0.0
H450 H 0.97333 0.12325 0.26743 0.0
H451 H 0.06125 0.15994 0.3039 0.0
C452 C -0.00136 0.26891 0.78832 0.0
C453 C -0.00109 0.34109 0.79645 0.0
C454 C 0.92626 0.19506 0.78811 0.0
C455 C 0.85247 0.19395 0.79498 0.0
C456 C 0.85231 0.26702 0.80214 0.0
C457 C 0.92593 0.33991 0.80346 0.0
C458 C 0.92878 0.11822 0.78091 0.0
C459 C 0.7745 0.26821 0.80813 0.0
C460 C 0.66347 0.00589 0.75511 0.0
C461 C 0.63266 0.96559 0.79705 0.0
C462 C 0.7343 0.08112 0.75395 0.0
C463 C 0.77577 0.11587 0.79569 0.0
C464 C 0.74519 0.07491 0.83813 0.0
C465 C 0.67324 0.0005 0.83835 0.0
C466 C 0.76329 0.12409 0.70822 0.0
C467 C 0.78891 0.10923 0.88318 0.0
H468 H 0.05534 0.27007 0.78306 0.0
H469 H 0.92638 0.39612 0.80907 0.0
H470 H 0.90007 0.07692 0.81066 0.0
H471 H 0.89392 0.08669 0.74955 0.0
H472 H -0.00861 0.12953 0.777 0.0
H473 H 0.78489 0.33032 0.81258 0.0
H474 H 0.73519 0.24056 0.77755 0.0
H475 H 0.74119 0.23171 0.8387 0.0
H476 H 0.63104 0.97944 0.72327 0.0
H477 H 0.64933 0.96899 0.87077 0.0
H478 H 0.82871 0.14677 0.70351 0.0
H479 H 0.75402 0.17682 0.70772 0.0
H480 H 0.73013 0.08464 0.6785 0.0
H481 H 0.85092 0.11847 0.88118 0.0
H482 H 0.75738 0.06928 0.91308 0.0
H483 H 0.79473 0.16901 0.8896 0.0
loop_
_geom_bond_atom_site_label_1
_geom_bond_atom_site_label_2
_geom_bond_distance
_geom_bond_site_symmetry_2
_ccdc_geom_bond_type
C0 O26 1.283 . S
C0 O44 1.283 . S
C1 O27 1.283 . S
C1 O42 1.283 . S
C2 O28 1.283 . S
C2 O45 1.283 . S
C3 O29 1.283 . S
C3 O43 1.283 . S
C4 O30 1.283 . S
C4 O39 1.283 . S
C5 O31 1.283 . S
C5 O41 1.283 . S
C6 O32 1.283 . S
C6 O38 1.283 . S
C7 O33 1.283 . S
C7 O40 1.283 . S
C8 O34 1.283 . S
C8 O49 1.283 . S
C9 O35 1.283 . S
C9 O47 1.283 . S
C10 O36 1.283 . S
C10 O48 1.283 . S
C11 O37 1.283 . S
C11 O46 1.283 . S
Eu12 O13 2.370 . S
Eu12 O14 2.370 . S
Eu12 O17 2.370 . S
Eu12 O18 2.370 . S
Eu12 O26 2.363 . S
Eu12 O27 2.363 . S
Eu12 O40 2.363 . S
Eu12 O41 2.363 . S
O13 Eu12 2.370 . S
O13 Eu15 2.370 . S
O13 Eu20 2.370 . S
O14 Eu12 2.370 . S
O14 Eu16 2.370 . S
O14 Eu19 2.370 . S
Eu15 O13 2.370 . S
Eu15 O17 2.370 . S
Eu15 O21 2.370 . S
Eu15 O22 2.370 . S
Eu15 O30 2.363 . S
Eu15 O31 2.363 . S
Eu15 O46 2.363 . S
Eu15 O47 2.363 . S
Eu16 O14 2.370 . S
Eu16 O18 2.370 . S
Eu16 O23 2.370 . S
Eu16 O24 2.370 . S
Eu16 O32 2.363 . S
Eu16 O33 2.363 . S
Eu16 O48 2.363 . S
Eu16 O49 2.363 . S
O17 Eu12 2.370 . S
O17 Eu15 2.370 . S
O17 Eu19 2.370 . S
O18 Eu12 2.370 . S
O18 Eu16 2.370 . S
O18 Eu20 2.370 . S
Eu19 O14 2.370 . S
Eu19 O17 2.370 . S
Eu19 O21 2.370 . S
Eu19 O24 2.370 . S
Eu19 O36 2.363 . S
Eu19 O37 2.363 . S
Eu19 O44 2.363 . S
Eu19 O45 2.363 . S
Eu20 O13 2.370 . S
Eu20 O18 2.370 . S
Eu20 O22 2.370 . S
Eu20 O23 2.370 . S
Eu20 O34 2.363 . S
Eu20 O35 2.363 . S
Eu20 O42 2.363 . S
Eu20 O43 2.363 . S
O21 Eu15 2.370 . S
O21 Eu19 2.370 . S
O21 Eu25 2.370 . S
O22 Eu15 2.370 . S
O22 Eu20 2.370 . S
O22 Eu25 2.370 . S
O23 Eu16 2.370 . S
O23 Eu20 2.370 . S
O23 Eu25 2.370 . S
O24 Eu16 2.370 . S
O24 Eu19 2.370 . S
O24 Eu25 2.370 . S
Eu25 O21 2.370 . S
Eu25 O22 2.370 . S
Eu25 O23 2.370 . S
Eu25 O24 2.370 . S
Eu25 O28 2.363 . S
Eu25 O29 2.363 . S
Eu25 O38 2.363 . S
Eu25 O39 2.363 . S
O26 C0 1.283 . S
O26 Eu12 2.363 . S
O27 C1 1.283 . S
O27 Eu12 2.363 . S
O28 C2 1.283 . S
O28 Eu25 2.363 . S
O29 C3 1.283 . S
O29 Eu25 2.363 . S
O30 C4 1.283 . S
O30 Eu15 2.363 . S
O31 C5 1.283 . S
O31 Eu15 2.363 . S
O32 C6 1.283 . S
O32 Eu16 2.363 . S
O33 C7 1.283 . S
O33 Eu16 2.363 . S
O34 C8 1.283 . S
O34 Eu20 2.363 . S
O35 C9 1.283 . S
O35 Eu20 2.363 . S
O36 C10 1.283 . S
O36 Eu19 2.363 . S
O37 C11 1.283 . S
O37 Eu19 2.363 . S
O38 C6 1.283 . S
O38 Eu25 2.363 . S
O39 C4 1.283 . S
O39 Eu25 2.363 . S
O40 C7 1.283 . S
O40 Eu12 2.363 . S
O41 C5 1.283 . S
O41 Eu12 2.363 . S
O42 C1 1.283 . S
O42 Eu20 2.363 . S
O43 C3 1.283 . S
O43 Eu20 2.363 . S
O44 C0 1.283 . S
O44 Eu19 2.363 . S
O45 C2 1.283 . S
O45 Eu19 2.363 . S
O46 C11 1.283 . S
O46 Eu15 2.363 . S
O47 C9 1.283 . S
O47 Eu15 2.363 . S
O48 C10 1.283 . S
O48 Eu16 2.363 . S
O49 C8 1.283 . S
O49 Eu16 2.363 . S
C50 O76 1.283 . S
C50 O94 1.283 . S
C51 O77 1.283 . S
C51 O92 1.283 . S
C52 O78 1.283 . S
C52 O95 1.283 . S
C53 O79 1.283 . S
C53 O93 1.283 . S
C54 O80 1.283 . S
C54 O89 1.283 . S
C55 O81 1.283 . S
C55 O91 1.283 . S
C56 O82 1.283 . S
C56 O88 1.283 . S
C57 O83 1.283 . S
C57 O90 1.283 . S
C58 O84 1.283 . S
C58 O99 1.283 . S
C59 O85 1.283 . S
C59 O97 1.283 . S
C60 O86 1.283 . S
C60 O98 1.283 . S
C61 O87 1.283 . S
C61 O96 1.283 . S
Eu62 O63 2.370 . S
Eu62 O64 2.370 . S
Eu62 O67 2.370 . S
Eu62 O68 2.370 . S
Eu62 O76 2.363 . S
Eu62 O77 2.363 . S
Eu62 O90 2.363 . S
Eu62 O91 2.363 . S
O63 Eu62 2.370 . S
O63 Eu65 2.370 . S
O63 Eu70 2.370 . S
O64 Eu62 2.370 . S
O64 Eu66 2.370 . S
O64 Eu69 2.370 . S
Eu65 O63 2.370 . S
Eu65 O67 2.370 . S
Eu65 O71 2.370 . S
Eu65 O72 2.370 . S
Eu65 O80 2.363 . S
Eu65 O81 2.363 . S
Eu65 O96 2.363 . S
Eu65 O97 2.363 . S
Eu66 O64 2.370 . S
Eu66 O68 2.370 . S
Eu66 O73 2.370 . S
Eu66 O74 2.370 . S
Eu66 O82 2.363 . S
Eu66 O83 2.363 . S
Eu66 O98 2.363 . S
Eu66 O99 2.363 . S
O67 Eu62 2.370 . S
O67 Eu65 2.370 . S
O67 Eu69 2.370 . S
O68 Eu62 2.370 . S
O68 Eu66 2.370 . S
O68 Eu70 2.370 . S
Eu69 O64 2.370 . S
Eu69 O67 2.370 . S
Eu69 O71 2.370 . S
Eu69 O74 2.370 . S
Eu69 O86 2.363 . S
Eu69 O87 2.363 . S
Eu69 O94 2.363 . S
Eu69 O95 2.363 . S
Eu70 O63 2.370 . S
Eu70 O68 2.370 . S
Eu70 O72 2.370 . S
Eu70 O73 2.370 . S
Eu70 O84 2.363 . S
Eu70 O85 2.363 . S
Eu70 O92 2.363 . S
Eu70 O93 2.363 . S
O71 Eu65 2.370 . S
O71 Eu69 2.370 . S
O71 Eu75 2.370 . S
O72 Eu65 2.370 . S
O72 Eu70 2.370 . S
O72 Eu75 2.370 . S
O73 Eu66 2.370 . S
O73 Eu70 2.370 . S
O73 Eu75 2.370 . S
O74 Eu66 2.370 . S
O74 Eu69 2.370 . S
O74 Eu75 2.370 . S
Eu75 O71 2.370 . S
Eu75 O72 2.370 . S
Eu75 O73 2.370 . S
Eu75 O74 2.370 . S
Eu75 O78 2.363 . S
Eu75 O79 2.363 . S
Eu75 O88 2.363 . S
Eu75 O89 2.363 . S
O76 C50 1.283 . S
O76 Eu62 2.363 . S
O77 C51 1.283 . S
O77 Eu62 2.363 . S
O78 C52 1.283 . S
O78 Eu75 2.363 . S
O79 C53 1.283 . S
O79 Eu75 2.363 . S
O80 C54 1.283 . S
O80 Eu65 2.363 . S
O81 C55 1.283 . S
O81 Eu65 2.363 . S
O82 C56 1.283 . S
O82 Eu66 2.363 . S
O83 C57 1.283 . S
O83 Eu66 2.363 . S
O84 C58 1.283 . S
O84 Eu70 2.363 . S
O85 C59 1.283 . S
O85 Eu70 2.363 . S
O86 C60 1.283 . S
O86 Eu69 2.363 . S
O87 C61 1.283 . S
O87 Eu69 2.363 . S
O88 C56 1.283 . S
O88 Eu75 2.363 . S
O89 C54 1.283 . S
O89 Eu75 2.363 . S
O90 C57 1.283 . S
O90 Eu62 2.363 . S
O91 C55 1.283 . S
O91 Eu62 2.363 . S
O92 C51 1.283 . S
O92 Eu70 2.363 . S
O93 C53 1.283 . S
O93 Eu70 2.363 . S
O94 C50 1.283 . S
O94 Eu69 2.363 . S
O95 C52 1.283 . S
O95 Eu69 2.363 . S
O96 C61 1.283 . S
O96 Eu65 2.363 . S
O97 C59 1.283 . S
O97 Eu65 2.363 . S
O98 C60 1.283 . S
O98 Eu66 2.363 . S
O99 C58 1.283 . S
O99 Eu66 2.363 . S
C100 C101 1.391 . S
C100 C102 1.394 . S
C100 H116 0.931 . S
C101 C100 1.391 . S
C101 C105 1.376 . S
C102 C100 1.394 . S
C102 C103 1.369 . S
C102 C106 1.531 1_556 S
C103 C102 1.369 . S
C103 C104 1.410 . S
C103 C111 1.503 1_556 S
C104 C103 1.410 . S
C104 C105 1.392 . S
C104 C107 1.511 1_565 S
C105 C101 1.376 . S
C105 C104 1.392 . S
C105 H117 0.929 . S
C106 C102 1.531 1_554 S
C106 H118 0.960 . S
C106 H119 0.962 . S
C106 H120 0.960 . S
C107 C104 1.511 1_545 S
C107 H121 0.961 . S
C107 H122 0.961 . S
C107 H123 0.961 . S
C108 C109 1.370 . S
C108 C110 1.363 . S
C108 H124 0.931 . S
C109 C108 1.370 . S
C109 C113 1.408 . S
C110 C108 1.363 . S
C110 C111 1.370 1_545 S
C110 C114 1.524 . S
C111 C103 1.503 1_554 S
C111 C110 1.370 1_565 S
C111 C112 1.403 . S
C112 C111 1.403 . S
C112 C113 1.404 1_565 S
C112 C115 1.539 1_554 S
C113 C109 1.408 . S
C113 C112 1.404 1_545 S
C113 H125 0.930 . S
C114 C110 1.524 . S
C114 H126 0.956 1_545 S
C114 H127 0.961 . S
C114 H128 0.961 . S
C115 C112 1.539 1_556 S
C115 H129 0.958 1_556 S
C115 H130 0.963 . S
C115 H131 0.960 . S
H116 C100 0.931 . S
H117 C105 0.929 . S
H118 C106 0.960 . S
H119 C106 0.962 . S
H120 C106 0.960 . S
H121 C107 0.961 . S
H122 C107 0.961 . S
H123 C107 0.961 . S
H124 C108 0.931 . S
H125 C113 0.930 . S
H126 C114 0.956 1_565 S
H127 C114 0.961 . S
H128 C114 0.961 . S
H129 C115 0.958 1_554 S
H130 C115 0.963 . S
H131 C115 0.960 . S
C132 C133 1.391 . S
C132 C134 1.394 . S
C132 H148 0.931 . S
C133 C132 1.391 . S
C133 C137 1.376 . S
C134 C132 1.394 . S
C134 C135 1.369 . S
C134 C138 1.531 . S
C135 C134 1.369 . S
C135 C136 1.410 . S
C135 C143 1.503 . S
C136 C135 1.410 . S
C136 C137 1.392 . S
C136 C139 1.511 . S
C137 C133 1.376 . S
C137 C136 1.392 . S
C137 H149 0.929 . S
C138 C134 1.531 . S
C138 H150 0.960 . S
C138 H151 0.962 . S
C138 H152 0.960 . S
C139 C136 1.511 . S
C139 H153 0.961 . S
C139 H154 0.961 . S
C139 H155 0.961 . S
C140 C141 1.370 . S
C140 C142 1.363 . S
C140 H156 0.931 . S
C141 C140 1.370 . S
C141 C145 1.408 . S
C142 C140 1.363 . S
C142 C143 1.370 . S
C142 C146 1.524 . S
C143 C135 1.503 . S
C143 C142 1.370 . S
C143 C144 1.403 . S
C144 C143 1.403 . S
C144 C145 1.404 . S
C144 C147 1.539 . S
C145 C141 1.408 . S
C145 C144 1.404 . S
C145 H157 0.930 . S
C146 C142 1.524 . S
C146 H158 0.956 . S
C146 H159 0.961 . S
C146 H160 0.961 . S
C147 C144 1.539 . S
C147 H161 0.958 . S
C147 H162 0.961 . S
C147 H163 0.960 . S
H148 C132 0.931 . S
H149 C137 0.929 . S
H150 C138 0.960 . S
H151 C138 0.962 . S
H152 C138 0.960 . S
H153 C139 0.961 . S
H154 C139 0.961 . S
H155 C139 0.961 . S
H156 C140 0.931 . S
H157 C145 0.930 . S
H158 C146 0.956 . S
H159 C146 0.961 . S
H160 C146 0.961 . S
H161 C147 0.958 . S
H162 C147 0.961 . S
H163 C147 0.960 . S
C164 C165 1.391 . S
C164 C166 1.394 . S
C164 H180 0.931 . S
C165 C164 1.391 . S
C165 C169 1.376 . S
C166 C164 1.394 . S
C166 C167 1.369 1_655 S
C166 C170 1.531 1_554 S
C167 C166 1.369 1_455 S
C167 C168 1.410 . S
C167 C175 1.503 1_554 S
C168 C167 1.410 . S
C168 C169 1.392 1_455 S
C168 C171 1.511 . S
C169 C165 1.376 . S
C169 C168 1.392 1_655 S
C169 H181 0.929 . S
C170 C166 1.531 1_556 S
C170 H182 0.960 . S
C170 H183 0.962 . S
C170 H184 0.960 . S
C171 C168 1.511 . S
C171 H185 0.961 . S
C171 H186 0.961 . S
C171 H187 0.961 . S
C172 C173 1.370 . S
C172 C174 1.363 . S
C172 H188 0.931 . S
C173 C172 1.370 . S
C173 C177 1.408 . S
C174 C172 1.363 . S
C174 C175 1.370 . S
C174 C178 1.524 1_455 S
C175 C167 1.503 1_556 S
C175 C174 1.370 . S
C175 C176 1.403 . S
C176 C175 1.403 . S
C176 C177 1.404 . S
C176 C179 1.539 . S
C177 C173 1.408 . S
C177 C176 1.404 . S
C177 H189 0.930 . S
C178 C174 1.524 1_655 S
C178 H190 0.956 . S
C178 H191 0.961 1_556 S
C178 H192 0.961 . S
C179 C176 1.539 . S
C179 H193 0.958 . S
C179 H194 0.961 . S
C179 H195 0.960 1_556 S
H180 C164 0.931 . S
H181 C169 0.929 . S
H182 C170 0.960 . S
H183 C170 0.962 . S
H184 C170 0.960 . S
H185 C171 0.961 . S
H186 C171 0.961 . S
H187 C171 0.961 . S
H188 C172 0.931 . S
H189 C177 0.930 . S
H190 C178 0.956 . S
H191 C178 0.961 1_554 S
H192 C178 0.961 . S
H193 C179 0.958 . S
H194 C179 0.961 . S
H195 C179 0.960 1_554 S
C196 C197 1.391 . S
C196 C198 1.394 . S
C196 H212 0.931 . S
C197 C196 1.391 . S
C197 C201 1.376 . S
C198 C196 1.394 . S
C198 C199 1.369 1_565 S
C198 C202 1.531 . S
C199 C198 1.369 1_545 S
C199 C200 1.410 . S
C199 C207 1.503 . S
C200 C199 1.410 . S
C200 C201 1.392 1_545 S
C200 C203 1.511 . S
C201 C197 1.376 . S
C201 C200 1.392 1_565 S
C201 H213 0.929 . S
C202 C198 1.531 . S
C202 H214 0.960 . S
C202 H215 0.962 . S
C202 H216 0.960 . S
C203 C200 1.511 . S
C203 H217 0.961 . S
C203 H218 0.961 . S
C203 H219 0.961 . S
C204 C205 1.370 . S
C204 C206 1.363 . S
C204 H220 0.931 . S
C205 C204 1.370 . S
C205 C209 1.408 . S
C206 C204 1.363 . S
C206 C207 1.370 . S
C206 C210 1.524 . S
C207 C199 1.503 . S
C207 C206 1.370 . S
C207 C208 1.403 . S
C208 C207 1.403 . S
C208 C209 1.404 . S
C208 C211 1.539 . S
C209 C205 1.408 . S
C209 C208 1.404 . S
C209 H221 0.930 . S
C210 C206 1.524 . S
C210 H222 0.956 . S
C210 H223 0.961 . S
C210 H224 0.961 . S
C211 C208 1.539 . S
C211 H225 0.958 1_545 S
C211 H226 0.961 . S
C211 H227 0.960 1_545 S
H212 C196 0.931 . S
H213 C201 0.929 . S
H214 C202 0.960 . S
H215 C202 0.962 . S
H216 C202 0.960 . S
H217 C203 0.961 . S
H218 C203 0.961 . S
H219 C203 0.961 . S
H220 C204 0.931 . S
H221 C209 0.930 . S
H222 C210 0.956 . S
H223 C210 0.961 . S
H224 C210 0.961 . S
H225 C211 0.958 1_565 S
H226 C211 0.961 . S
H227 C211 0.960 1_565 S
C228 C229 1.391 . S
C228 C230 1.394 . S
C228 H244 0.931 . S
C229 C228 1.391 . S
C229 C233 1.376 . S
C230 C228 1.394 . S
C230 C231 1.369 . S
C230 C234 1.531 . S
C231 C230 1.369 . S
C231 C232 1.410 . S
C231 C239 1.503 1_554 S
C232 C231 1.410 . S
C232 C233 1.392 . S
C232 C235 1.511 1_554 S
C233 C229 1.376 . S
C233 C232 1.392 . S
C233 H245 0.929 . S
C234 C230 1.531 . S
C234 H246 0.960 . S
C234 H247 0.962 . S
C234 H248 0.960 . S
C235 C232 1.511 1_556 S
C235 H249 0.961 . S
C235 H250 0.961 . S
C235 H251 0.961 . S
C236 C237 1.370 . S
C236 C238 1.363 . S
C236 H252 0.931 . S
C237 C236 1.370 . S
C237 C241 1.408 . S
C238 C236 1.363 . S
C238 C239 1.370 . S
C238 C242 1.524 . S
C239 C231 1.503 1_556 S
C239 C238 1.370 . S
C239 C240 1.403 . S
C240 C239 1.403 . S
C240 C241 1.404 . S
C240 C243 1.539 1_556 S
C241 C237 1.408 . S
C241 C240 1.404 . S
C241 H253 0.930 . S
C242 C238 1.524 . S
C242 H254 0.956 . S
C242 H255 0.961 . S
C242 H256 0.961 . S
C243 C240 1.539 1_554 S
C243 H257 0.958 . S
C243 H258 0.961 1_554 S
C243 H259 0.960 . S
H244 C228 0.931 . S
H245 C233 0.929 . S
H246 C234 0.960 . S
H247 C234 0.962 . S
H248 C234 0.960 . S
H249 C235 0.961 . S
H250 C235 0.961 . S
H251 C235 0.961 . S
H252 C236 0.931 . S
H253 C241 0.930 . S
H254 C242 0.956 . S
H255 C242 0.961 . S
H256 C242 0.961 . S
H257 C243 0.958 . S
H258 C243 0.961 1_556 S
H259 C243 0.960 . S
C260 C261 1.391 . S
C260 C262 1.394 . S
C260 H276 0.931 . S
C261 C260 1.391 . S
C261 C265 1.376 . S
C262 C260 1.394 . S
C262 C263 1.369 . S
C262 C266 1.531 1_655 S
C263 C262 1.369 . S
C263 C264 1.410 . S
C263 C271 1.503 . S
C264 C263 1.410 . S
C264 C265 1.392 . S
C264 C267 1.511 . S
C265 C261 1.376 . S
C265 C264 1.392 . S
C265 H277 0.929 . S
C266 C262 1.531 1_455 S
C266 H278 0.960 . S
C266 H279 0.962 . S
C266 H280 0.960 . S
C267 C264 1.511 . S
C267 H281 0.961 . S
C267 H282 0.961 . S
C267 H283 0.961 . S
C268 C269 1.370 . S
C268 C270 1.363 . S
C268 H284 0.931 . S
C269 C268 1.370 . S
C269 C273 1.408 . S
C270 C268 1.363 . S
C270 C271 1.370 1_455 S
C270 C274 1.524 . S
C271 C263 1.503 . S
C271 C270 1.370 1_655 S
C271 C272 1.403 . S
C272 C271 1.403 . S
C272 C273 1.404 1_655 S
C272 C275 1.539 . S
C273 C269 1.408 . S
C273 C272 1.404 1_455 S
C273 H285 0.930 . S
C274 C270 1.524 . S
C274 H286 0.956 . S
C274 H287 0.961 1_455 S
C274 H288 0.961 . S
C275 C272 1.539 . S
C275 H289 0.958 . S
C275 H290 0.961 . S
C275 H291 0.960 . S
H276 C260 0.931 . S
H277 C265 0.929 . S
H278 C266 0.960 . S
H279 C266 0.962 . S
H280 C266 0.960 . S
H281 C267 0.961 . S
H282 C267 0.961 . S
H283 C267 0.961 . S
H284 C268 0.931 . S
H285 C273 0.930 . S
H286 C274 0.956 . S
H287 C274 0.961 1_655 S
H288 C274 0.961 . S
H289 C275 0.958 . S
H290 C275 0.961 . S
H291 C275 0.960 . S
C292 C293 1.391 1_565 S
C292 C294 1.394 . S
C292 H308 0.931 . S
C293 C292 1.391 1_545 S
C293 C297 1.376 . S
C294 C292 1.394 . S
C294 C295 1.369 . S
C294 C298 1.531 . S
C295 C294 1.369 . S
C295 C296 1.410 . S
C295 C303 1.503 . S
C296 C295 1.410 . S
C296 C297 1.392 1_565 S
C296 C299 1.511 . S
C297 C293 1.376 . S
C297 C296 1.392 1_545 S
C297 H309 0.929 . S
C298 C294 1.531 . S
C298 H310 0.960 . S
C298 H311 0.962 . S
C298 H312 0.960 . S
C299 C296 1.511 . S
C299 H313 0.961 . S
C299 H314 0.961 . S
C299 H315 0.961 . S
C300 C301 1.370 . S
C300 C302 1.363 . S
C300 H316 0.931 . S
C301 C300 1.370 . S
C301 C305 1.408 . S
C302 C300 1.363 . S
C302 C303 1.370 . S
C302 C306 1.524 . S
C303 C295 1.503 . S
C303 C302 1.370 . S
C303 C304 1.403 . S
C304 C303 1.403 . S
C304 C305 1.404 . S
C304 C307 1.539 . S
C305 C301 1.408 . S
C305 C304 1.404 . S
C305 H317 0.930 . S
C306 C302 1.524 . S
C306 H318 0.956 . S
C306 H319 0.961 . S
C306 H320 0.961 . S
C307 C304 1.539 . S
C307 H321 0.958 . S
C307 H322 0.961 . S
C307 H323 0.960 . S
H308 C292 0.931 . S
H309 C297 0.929 . S
H310 C298 0.960 . S
H311 C298 0.962 . S
H312 C298 0.960 . S
H313 C299 0.961 . S
H314 C299 0.961 . S
H315 C299 0.961 . S
H316 C300 0.931 . S
H317 C305 0.930 . S
H318 C306 0.956 . S
H319 C306 0.961 . S
H320 C306 0.961 . S
H321 C307 0.958 . S
H322 C307 0.961 . S
H323 C307 0.960 . S
C324 C325 1.391 . S
C324 C326 1.394 1_455 S
C324 H340 0.931 . S
C325 C324 1.391 . S
C325 C329 1.376 1_455 S
C326 C324 1.394 1_655 S
C326 C327 1.369 . S
C326 C330 1.531 . S
C327 C326 1.369 . S
C327 C328 1.410 . S
C327 C335 1.503 . S
C328 C327 1.410 . S
C328 C329 1.392 . S
C328 C331 1.511 . S
C329 C325 1.376 1_655 S
C329 C328 1.392 . S
C329 H341 0.929 . S
C330 C326 1.531 . S
C330 H342 0.960 . S
C330 H343 0.962 . S
C330 H344 0.960 . S
C331 C328 1.511 . S
C331 H345 0.961 . S
C331 H346 0.961 . S
C331 H347 0.961 . S
C332 C333 1.370 . S
C332 C334 1.363 . S
C332 H348 0.931 . S
C333 C332 1.370 . S
C333 C337 1.408 . S
C334 C332 1.363 . S
C334 C335 1.370 . S
C334 C338 1.524 . S
C335 C327 1.503 . S
C335 C334 1.370 . S
C335 C336 1.403 . S
C336 C335 1.403 . S
C336 C337 1.404 . S
C336 C339 1.539 . S
C337 C333 1.408 . S
C337 C336 1.404 . S
C337 H349 0.930 . S
C338 C334 1.524 . S
C338 H350 0.956 . S
C338 H351 0.961 . S
C338 H352 0.961 . S
C339 C336 1.539 . S
C339 H353 0.958 . S
C339 H354 0.961 . S
C339 H355 0.960 . S
H340 C324 0.931 . S
H341 C329 0.929 . S
H342 C330 0.960 . S
H343 C330 0.962 . S
H344 C330 0.960 . S
H345 C331 0.961 . S
H346 C331 0.961 . S
H347 C331 0.961 . S
H348 C332 0.931 . S
H349 C337 0.930 . S
H350 C338 0.956 . S
H351 C338 0.961 . S
H352 C338 0.961 . S
H353 C339 0.958 . S
H354 C339 0.961 . S
H355 C339 0.960 . S
C356 C357 1.401 . S
C356 C358 1.394 . S
C356 H372 0.931 . S
C357 C356 1.401 . S
C357 C361 1.371 . S
C358 C356 1.394 . S
C358 C359 1.369 . S
C358 C362 1.531 . S
C359 C358 1.369 . S
C359 C360 1.410 . S
C359 C367 1.503 . S
C360 C359 1.410 . S
C360 C361 1.392 . S
C360 C363 1.511 . S
C361 C357 1.371 . S
C361 C360 1.392 . S
C361 H373 0.929 1_565 S
C362 C358 1.531 . S
C362 H374 0.960 . S
C362 H375 0.962 . S
C362 H376 0.960 . S
C363 C360 1.511 . S
C363 H377 0.961 . S
C363 H378 0.961 . S
C363 H379 0.961 . S
C364 C365 1.370 . S
C364 C366 1.363 1_655 S
C364 H380 0.931 . S
C365 C364 1.370 . S
C365 C369 1.408 1_655 S
C366 C364 1.363 1_455 S
C366 C367 1.370 . S
C366 C370 1.524 . S
C367 C359 1.503 . S
C367 C366 1.370 . S
C367 C368 1.403 . S
C368 C367 1.403 . S
C368 C369 1.404 . S
C368 C371 1.539 . S
C369 C365 1.408 1_455 S
C369 C368 1.404 . S
C369 H381 0.930 1_455 S
C370 C366 1.524 . S
C370 H382 0.956 . S
C370 H383 0.961 . S
C370 H384 0.961 . S
C371 C368 1.539 . S
C371 H385 0.958 . S
C371 H386 0.961 . S
C371 H387 0.960 . S
H372 C356 0.931 . S
H373 C361 0.929 1_545 S
H374 C362 0.960 . S
H375 C362 0.962 . S
H376 C362 0.960 . S
H377 C363 0.961 . S
H378 C363 0.961 . S
H379 C363 0.961 . S
H380 C364 0.931 . S
H381 C369 0.930 1_655 S
H382 C370 0.956 . S
H383 C370 0.961 . S
H384 C370 0.961 . S
H385 C371 0.958 . S
H386 C371 0.961 . S
H387 C371 0.960 . S
C388 C389 1.391 . S
C388 C390 1.394 . S
C388 H404 0.931 . S
C389 C388 1.391 . S
C389 C393 1.376 . S
C390 C388 1.394 . S
C390 C391 1.369 . S
C390 C394 1.531 . S
C391 C390 1.369 . S
C391 C392 1.410 . S
C391 C399 1.503 . S
C392 C391 1.410 . S
C392 C393 1.392 . S
C392 C395 1.511 . S
C393 C389 1.376 . S
C393 C392 1.392 . S
C393 H405 0.929 . S
C394 C390 1.531 . S
C394 H406 0.960 . S
C394 H407 0.962 . S
C394 H408 0.960 . S
C395 C392 1.511 . S
C395 H409 0.961 . S
C395 H410 0.961 . S
C395 H411 0.961 . S
C396 C397 1.366 1_545 S
C396 C398 1.363 . S
C396 H412 0.931 1_545 S
C397 C396 1.366 1_565 S
C397 C401 1.404 1_565 S
C398 C396 1.363 . S
C398 C399 1.370 . S
C398 C402 1.524 . S
C399 C391 1.503 . S
C399 C398 1.370 . S
C399 C400 1.403 . S
C400 C399 1.403 . S
C400 C401 1.404 . S
C400 C403 1.539 . S
C401 C397 1.404 1_545 S
C401 C400 1.404 . S
C401 H413 0.930 . S
C402 C398 1.524 . S
C402 H414 0.956 . S
C402 H415 0.961 . S
C402 H416 0.961 . S
C403 C400 1.539 . S
C403 H417 0.958 . S
C403 H418 0.961 . S
C403 H419 0.960 . S
H404 C388 0.931 . S
H405 C393 0.929 . S
H406 C394 0.960 . S
H407 C394 0.962 . S
H408 C394 0.960 . S
H409 C395 0.961 . S
H410 C395 0.961 . S
H411 C395 0.961 . S
H412 C396 0.931 1_565 S
H413 C401 0.930 . S
H414 C402 0.956 . S
H415 C402 0.961 . S
H416 C402 0.961 . S
H417 C403 0.958 . S
H418 C403 0.961 . S
H419 C403 0.960 . S
C420 C421 1.391 . S
C420 C422 1.394 . S
C420 H436 0.931 . S
C421 C420 1.391 . S
C421 C425 1.376 . S
C422 C420 1.394 . S
C422 C423 1.369 . S
C422 C426 1.531 . S
C423 C422 1.369 . S
C423 C424 1.410 . S
C423 C431 1.503 . S
C424 C423 1.410 . S
C424 C425 1.392 . S
C424 C427 1.511 . S
C425 C421 1.376 . S
C425 C424 1.392 . S
C425 H437 0.929 . S
C426 C422 1.531 . S
C426 H438 0.960 . S
C426 H439 0.962 . S
C426 H440 0.960 . S
C427 C424 1.511 . S
C427 H441 0.961 . S
C427 H442 0.961 . S
C427 H443 0.961 . S
C428 C429 1.370 1_455 S
C428 C430 1.363 . S
C428 H444 0.931 . S
C429 C428 1.370 1_655 S
C429 C433 1.408 . S
C430 C428 1.363 . S
C430 C431 1.370 . S
C430 C434 1.524 . S
C431 C423 1.503 . S
C431 C430 1.370 . S
C431 C432 1.403 . S
C432 C431 1.403 . S
C432 C433 1.404 1_455 S
C432 C435 1.539 . S
C433 C429 1.408 . S
C433 C432 1.404 1_655 S
C433 H445 0.930 . S
C434 C430 1.524 . S
C434 H446 0.956 . S
C434 H447 0.961 . S
C434 H448 0.961 . S
C435 C432 1.539 . S
C435 H449 0.958 . S
C435 H450 0.961 1_455 S
C435 H451 0.960 . S
H436 C420 0.931 . S
H437 C425 0.929 . S
H438 C426 0.960 . S
H439 C426 0.962 . S
H440 C426 0.960 . S
H441 C427 0.961 . S
H442 C427 0.961 . S
H443 C427 0.961 . S
H444 C428 0.931 . S
H445 C433 0.930 . S
H446 C434 0.956 . S
H447 C434 0.961 . S
H448 C434 0.961 . S
H449 C435 0.958 . S
H450 C435 0.961 1_655 S
H451 C435 0.960 . S
C452 C453 1.395 . S
C452 C454 1.394 1_455 S
C452 H468 0.931 . S
C453 C452 1.395 . S
C453 C457 1.369 1_455 S
C454 C452 1.394 1_655 S
C454 C455 1.369 . S
C454 C458 1.531 . S
C455 C454 1.369 . S
C455 C456 1.410 . S
C455 C463 1.503 . S
C456 C455 1.410 . S
C456 C457 1.392 . S
C456 C459 1.511 . S
C457 C453 1.369 1_655 S
C457 C456 1.392 . S
C457 H469 0.929 . S
C458 C454 1.531 . S
C458 H470 0.960 . S
C458 H471 0.962 . S
C458 H472 0.960 . S
C459 C456 1.511 . S
C459 H473 0.961 . S
C459 H474 0.961 . S
C459 H475 0.961 . S
C460 C461 1.370 . S
C460 C462 1.363 1_565 S
C460 H476 0.931 . S
C461 C460 1.370 . S
C461 C465 1.408 1_565 S
C462 C460 1.363 1_545 S
C462 C463 1.370 . S
C462 C466 1.524 . S
C463 C455 1.503 . S
C463 C462 1.370 . S
C463 C464 1.403 . S
C464 C463 1.403 . S
C464 C465 1.404 . S
C464 C467 1.539 . S
C465 C461 1.408 1_545 S
C465 C464 1.404 . S
C465 H477 0.930 1_545 S
C466 C462 1.524 . S
C466 H478 0.956 . S
C466 H479 0.961 . S
C466 H480 0.961 . S
C467 C464 1.539 . S
C467 H481 0.958 . S
C467 H482 0.961 . S
C467 H483 0.960 . S
H468 C452 0.931 . S
H469 C457 0.929 . S
H470 C458 0.960 . S
H471 C458 0.962 . S
H472 C458 0.960 . S
H473 C459 0.961 . S
H474 C459 0.961 . S
H475 C459 0.961 . S
H476 C460 0.931 . S
H477 C465 0.930 1_565 S
H478 C466 0.956 . S
H479 C466 0.961 . S
H480 C466 0.961 . S
H481 C467 0.958 . S
H482 C467 0.961 . S
H483 C467 0.960 . S
C101 C54 1.786 . S
C109 C5 1.961 . S
C133 C57 1.964 . S
C141 C6 1.812 . S
C165 C1 1.961 . S
C173 C61 1.818 . S
C197 C58 1.934 . S
C205 C2 1.839 . S
C229 C9 1.932 . S
C237 C52 1.840 . S
C261 C10 1.791 . S
C269 C51 1.960 . S
C293 C0 1.101 . S
C301 C3 1.126 . S
C325 C59 1.114 . S
C333 C60 1.123 . S
C357 C11 1.125 1_565 S
C365 C8 1.115 . S
C389 C50 1.103 . S
C397 C53 1.135 . S
C421 C4 1.139 . S
C429 C7 1.111 . S
C453 C55 1.131 . S
C461 C56 1.115 . S
