# Generated by pormake.
# Topology crs, (6)-cn, num edge types: 1
# Building blocks:
#     Node 0, Type 0, BuildingBlock: CUKXOW_clean_sbu_0, # of connection points: 6
#     Node 1, Type 0, BuildingBlock: CUKXOW_clean_sbu_0, # of connection points: 6
#     Node 2, Type 0, BuildingBlock: CUKXOW_clean_sbu_0, # of connection points: 6
#     Node 3, Type 0, BuildingBlock: CUKXOW_clean_sbu_0, # of connection points: 6
#     Node 4, Type 0, BuildingBlock: CUKXOW_clean_sbu_0, # of connection points: 6
#     Node 5, Type 0, BuildingBlock: CUKXOW_clean_sbu_0, # of connection points: 6
#     Node 6, Type 0, BuildingBlock: CUKXOW_clean_sbu_0, # of connection points: 6
#     Node 7, Type 0, BuildingBlock: CUKXOW_clean_sbu_0, # of connection points: 6
#     Node 8, Type 0, BuildingBlock: CUKXOW_clean_sbu_0, # of connection points: 6
#     Node 9, Type 0, BuildingBlock: CUKXOW_clean_sbu_0, # of connection points: 6
#     Node 10, Type 0, BuildingBlock: CUKXOW_clean_sbu_0, # of connection points: 6
#     Node 11, Type 0, BuildingBlock: CUKXOW_clean_sbu_0, # of connection points: 6
#     Node 12, Type 0, BuildingBlock: CUKXOW_clean_sbu_0, # of connection points: 6
#     Node 13, Type 0, BuildingBlock: CUKXOW_clean_sbu_0, # of connection points: 6
#     Node 14, Type 0, BuildingBlock: CUKXOW_clean_sbu_0, # of connection points: 6
#     Node 15, Type 0, BuildingBlock: CUKXOW_clean_sbu_0, # of connection points: 6
#     Edge 16, Type (0, 0), BuildingBlock: MIFKUJ_clean_linker_0, # of connection points: 2
#     Edge 17, Type (0, 0), BuildingBlock: MIFKUJ_clean_linker_0, # of connection points: 2
#     Edge 18, Type (0, 0), BuildingBlock: MIFKUJ_clean_linker_0, # of connection points: 2
#     Edge 19, Type (0, 0), BuildingBlock: MIFKUJ_clean_linker_0, # of connection points: 2
#     Edge 20, Type (0, 0), BuildingBlock: MIFKUJ_clean_linker_0, # of connection points: 2
#     Edge 21, Type (0, 0), BuildingBlock: MIFKUJ_clean_linker_0, # of connection points: 2
#     Edge 22, Type (0, 0), BuildingBlock: MIFKUJ_clean_linker_0, # of connection points: 2
#     Edge 23, Type (0, 0), BuildingBlock: MIFKUJ_clean_linker_0, # of connection points: 2
#     Edge 24, Type (0, 0), BuildingBlock: MIFKUJ_clean_linker_0, # of connection points: 2
#     Edge 25, Type (0, 0), BuildingBlock: MIFKUJ_clean_linker_0, # of connection points: 2
#     Edge 26, Type (0, 0), BuildingBlock: MIFKUJ_clean_linker_0, # of connection points: 2
#     Edge 27, Type (0, 0), BuildingBlock: MIFKUJ_clean_linker_0, # of connection points: 2
#     Edge 28, Type (0, 0), BuildingBlock: MIFKUJ_clean_linker_0, # of connection points: 2
#     Edge 29, Type (0, 0), BuildingBlock: MIFKUJ_clean_linker_0, # of connection points: 2
#     Edge 30, Type (0, 0), BuildingBlock: MIFKUJ_clean_linker_0, # of connection points: 2
#     Edge 31, Type (0, 0), BuildingBlock: MIFKUJ_clean_linker_0, # of connection points: 2
#     Edge 32, Type (0, 0), BuildingBlock: MIFKUJ_clean_linker_0, # of connection points: 2
#     Edge 33, Type (0, 0), BuildingBlock: MIFKUJ_clean_linker_0, # of connection points: 2
#     Edge 34, Type (0, 0), BuildingBlock: MIFKUJ_clean_linker_0, # of connection points: 2
#     Edge 35, Type (0, 0), BuildingBlock: MIFKUJ_clean_linker_0, # of connection points: 2
#     Edge 36, Type (0, 0), BuildingBlock: MIFKUJ_clean_linker_0, # of connection points: 2
#     Edge 37, Type (0, 0), BuildingBlock: MIFKUJ_clean_linker_0, # of connection points: 2
#     Edge 38, Type (0, 0), BuildingBlock: MIFKUJ_clean_linker_0, # of connection points: 2
#     Edge 39, Type (0, 0), BuildingBlock: MIFKUJ_clean_linker_0, # of connection points: 2
#     Edge 40, Type (0, 0), BuildingBlock: MIFKUJ_clean_linker_0, # of connection points: 2
#     Edge 41, Type (0, 0), BuildingBlock: MIFKUJ_clean_linker_0, # of connection points: 2
#     Edge 42, Type (0, 0), BuildingBlock: MIFKUJ_clean_linker_0, # of connection points: 2
#     Edge 43, Type (0, 0), BuildingBlock: MIFKUJ_clean_linker_0, # of connection points: 2
#     Edge 44, Type (0, 0), BuildingBlock: MIFKUJ_clean_linker_0, # of connection points: 2
#     Edge 45, Type (0, 0), BuildingBlock: MIFKUJ_clean_linker_0, # of connection points: 2
#     Edge 46, Type (0, 0), BuildingBlock: MIFKUJ_clean_linker_0, # of connection points: 2
#     Edge 47, Type (0, 0), BuildingBlock: MIFKUJ_clean_linker_0, # of connection points: 2
#     Edge 48, Type (0, 0), BuildingBlock: MIFKUJ_clean_linker_0, # of connection points: 2
#     Edge 49, Type (0, 0), BuildingBlock: MIFKUJ_clean_linker_0, # of connection points: 2
#     Edge 50, Type (0, 0), BuildingBlock: MIFKUJ_clean_linker_0, # of connection points: 2
#     Edge 51, Type (0, 0), BuildingBlock: MIFKUJ_clean_linker_0, # of connection points: 2
#     Edge 52, Type (0, 0), BuildingBlock: MIFKUJ_clean_linker_0, # of connection points: 2
#     Edge 53, Type (0, 0), BuildingBlock: MIFKUJ_clean_linker_0, # of connection points: 2
#     Edge 54, Type (0, 0), BuildingBlock: MIFKUJ_clean_linker_0, # of connection points: 2
#     Edge 55, Type (0, 0), BuildingBlock: MIFKUJ_clean_linker_0, # of connection points: 2
#     Edge 56, Type (0, 0), BuildingBlock: MIFKUJ_clean_linker_0, # of connection points: 2
#     Edge 57, Type (0, 0), BuildingBlock: MIFKUJ_clean_linker_0, # of connection points: 2
#     Edge 58, Type (0, 0), BuildingBlock: MIFKUJ_clean_linker_0, # of connection points: 2
#     Edge 59, Type (0, 0), BuildingBlock: MIFKUJ_clean_linker_0, # of connection points: 2
#     Edge 60, Type (0, 0), BuildingBlock: MIFKUJ_clean_linker_0, # of connection points: 2
#     Edge 61, Type (0, 0), BuildingBlock: MIFKUJ_clean_linker_0, # of connection points: 2
#     Edge 62, Type (0, 0), BuildingBlock: MIFKUJ_clean_linker_0, # of connection points: 2
#     Edge 63, Type (0, 0), BuildingBlock: MIFKUJ_clean_linker_0, # of connection points: 2
# Relax obj value: 0.149
# Max RMSD: 0.216
# Mean RMSD: 0.189
data_MOF--net-crs--node1-CUKXOW_clean_sbu_0--edge1-MIFKUJ_clean_linker_0
_symmetry_space_group_name_H-M    P1
_symmetry_Int_Tables_number       1
_symmetry_cell_setting            triclinic
loop_
_symmetry_equiv_pos_as_xyz
'x, y, z'
_cell_length_a     49.490174
_cell_length_b     56.768142
_cell_length_c     59.610827
_cell_angle_alpha  93.72415
_cell_angle_beta   92.672981
_cell_angle_gamma 91.701569
loop_
_atom_site_label
_atom_site_type_symbol
_atom_site_fract_x
_atom_site_fract_y
_atom_site_fract_z
_atom_type_partial_charge
Tb0 Tb 0.01905 0.99007 0.98926 0.0
C1 C 0.04176 0.99425 0.03979 0.0
Tb2 Tb 0.00223 0.0315 0.02147 0.0
O3 O 0.04234 0.01458 0.96993 0.0
O4 O 0.03704 0.02196 0.00411 0.0
O5 O 0.03558 0.97986 0.02169 0.0
C6 C 0.99834 0.07361 0.04347 0.0
O7 O 0.03353 0.01629 0.04211 0.0
C8 C 0.976 0.99106 0.02418 0.0
C9 C 0.97749 0.02605 0.97144 0.0
O10 O 0.97985 0.05681 0.04221 0.0
O11 O 0.01871 0.06675 0.03215 0.0
O12 O 0.97804 0.00727 0.04067 0.0
O13 O 0.985 0.99948 0.00699 0.0
O14 O 0.98322 0.04078 0.9894 0.0
O15 O 0.98724 0.00461 0.96888 0.0
C16 C 0.02187 0.94786 0.96738 0.0
O17 O 0.00014 0.95697 0.97496 0.0
O18 O 0.0423 0.96256 0.97214 0.0
C19 C 0.04615 0.03026 0.9868 0.0
Tb20 Tb 0.00692 0.25312 0.27617 0.0
C21 C 0.06921 0.24521 0.26845 0.0
Tb22 Tb 0.03594 0.28276 0.24408 0.0
O23 O 0.98384 0.23428 0.24803 0.0
O24 O 0.02309 0.24703 0.24405 0.0
O25 O 0.04856 0.24227 0.28155 0.0
C26 C 0.05213 0.30293 0.20772 0.0
O27 O 0.06761 0.25803 0.2506 0.0
C28 C 0.0416 0.29782 0.28632 0.0
C29 C 0.9739 0.29147 0.25307 0.0
O30 O 0.05847 0.31038 0.22835 0.0
O31 O 0.0368 0.28399 0.20752 0.0
O32 O 0.05981 0.30125 0.2718 0.0
O33 O 0.02049 0.28865 0.27638 0.0
O34 O 0.99408 0.29394 0.23936 0.0
O35 O 0.97599 0.27866 0.27085 0.0
C36 C 0.98999 0.23262 0.31217 0.0
O37 O 0.98257 0.22634 0.29146 0.0
O38 O 0.00698 0.25048 0.31261 0.0
C39 C 0.00246 0.2374 0.23381 0.0
Tb40 Tb 0.73439 0.27649 0.47736 0.0
C41 C 0.70975 0.27431 0.52555 0.0
Tb42 Tb 0.75837 0.24154 0.51188 0.0
O43 O 0.71402 0.24614 0.4576 0.0
O44 O 0.72288 0.24483 0.49164 0.0
O45 O 0.71107 0.28546 0.50667 0.0
C46 C 0.76442 0.20071 0.53037 0.0
O47 O 0.72459 0.25585 0.53014 0.0
C48 C 0.78761 0.28137 0.51309 0.0
C49 C 0.78418 0.24685 0.46482 0.0
O50 O 0.76153 0.22092 0.54147 0.0
O51 O 0.76429 0.20355 0.50894 0.0
O52 O 0.79346 0.26396 0.5255 0.0
O53 O 0.76636 0.27521 0.50159 0.0
O54 O 0.77851 0.23247 0.48083 0.0
O55 O 0.77194 0.2671 0.4623 0.0
C56 C 0.71778 0.31443 0.45724 0.0
O57 O 0.71526 0.29283 0.44866 0.0
O58 O 0.73004 0.31468 0.47695 0.0
C59 C 0.7144 0.23262 0.47437 0.0
Tb60 Tb 0.77282 0.0422 0.74063 0.0
C61 C 0.77215 0.98694 0.74749 0.0
Tb62 Tb 0.74875 0.0224 0.78303 0.0
O63 O 0.8085 0.05752 0.75987 0.0
O64 O 0.78741 0.02777 0.77016 0.0
O65 O 0.77158 0.00365 0.73277 0.0
C66 C 0.73926 0.00917 0.82404 0.0
O67 O 0.76766 0.99132 0.76909 0.0
C68 C 0.71649 0.02196 0.74698 0.0
C69 C 0.74912 0.07786 0.77727 0.0
O70 O 0.72275 0.00597 0.80649 0.0
O71 O 0.76107 0.02023 0.81856 0.0
O72 O 0.71425 0.00649 0.76195 0.0
O73 O 0.73455 0.037 0.75361 0.0
O74 O 0.74558 0.06035 0.79077 0.0
O75 O 0.75822 0.07463 0.75668 0.0
C76 C 0.77595 0.05374 0.69817 0.0
O77 O 0.75755 0.06 0.71179 0.0
O78 O 0.79354 0.04126 0.7086 0.0
C79 C 0.80566 0.04315 0.77586 0.0
Tb80 Tb 0.50741 0.76064 0.2796 0.0
C81 C 0.56694 0.75134 0.26751 0.0
Tb82 Tb 0.53203 0.78739 0.24061 0.0
O83 O 0.491 0.72905 0.25877 0.0
O84 O 0.51256 0.75542 0.24537 0.0
O85 O 0.54961 0.7521 0.28386 0.0
C86 C 0.55715 0.80242 0.20581 0.0
O87 O 0.56262 0.76168 0.24831 0.0
C88 C 0.52551 0.8125 0.27846 0.0
C89 C 0.46984 0.78927 0.24725 0.0
O90 O 0.56685 0.80413 0.22648 0.0
O91 O 0.53339 0.79191 0.20461 0.0
O92 O 0.52463 0.82099 0.25879 0.0
O93 O 0.53244 0.79129 0.27651 0.0
O94 O 0.4891 0.79045 0.23253 0.0
O95 O 0.47376 0.78103 0.26748 0.0
C96 C 0.48933 0.75231 0.31953 0.0
O97 O 0.48808 0.77233 0.31019 0.0
O98 O 0.50104 0.737 0.3064 0.0
C99 C 0.50058 0.73597 0.24026 0.0
Tb100 Tb 0.23152 0.78189 0.47488 0.0
C101 C 0.20981 0.77882 0.52308 0.0
Tb102 Tb 0.2539 0.74543 0.50609 0.0
O103 O 0.1907 0.76573 0.47333 0.0
O104 O 0.22445 0.74551 0.47914 0.0
O105 O 0.21634 0.79302 0.50733 0.0
C106 C 0.26677 0.70614 0.5255 0.0
O107 O 0.21982 0.75761 0.52445 0.0
C108 C 0.2761 0.78852 0.51161 0.0
C109 C 0.27377 0.74605 0.45613 0.0
O110 O 0.28349 0.72368 0.52281 0.0
O111 O 0.24289 0.71081 0.51745 0.0
O112 O 0.27391 0.77446 0.52784 0.0
O113 O 0.26783 0.77742 0.4936 0.0
O114 O 0.27319 0.73488 0.47506 0.0
O115 O 0.26009 0.76543 0.45263 0.0
C116 C 0.22455 0.82265 0.45678 0.0
O117 O 0.21918 0.80205 0.44627 0.0
O118 O 0.23452 0.82009 0.47694 0.0
C119 C 0.19896 0.74528 0.47879 0.0
Tb120 Tb 0.2719 0.52536 0.72473 0.0
C121 C 0.2747 0.47109 0.73523 0.0
Tb122 Tb 0.24359 0.50784 0.7655 0.0
O123 O 0.30244 0.54483 0.74712 0.0
O124 O 0.28373 0.51375 0.75646 0.0
O125 O 0.27825 0.48726 0.72033 0.0
C126 C 0.23331 0.49867 0.80761 0.0
O127 O 0.26424 0.47598 0.75505 0.0
C128 C 0.2159 0.50228 0.72708 0.0
C129 C 0.2378 0.56149 0.75333 0.0
O130 O 0.21709 0.4936 0.7901 0.0
O131 O 0.2549 0.50939 0.80139 0.0
O132 O 0.21249 0.48863 0.74349 0.0
O133 O 0.23187 0.51914 0.73374 0.0
O134 O 0.2357 0.54585 0.76897 0.0
O135 O 0.24876 0.55628 0.73375 0.0
C136 C 0.28483 0.53464 0.68326 0.0
O137 O 0.29937 0.54058 0.70155 0.0
O138 O 0.26314 0.52317 0.68833 0.0
C139 C 0.29955 0.53072 0.7632 0.0
Tb140 Tb 0.00595 0.49551 0.49067 0.0
C141 C 0.02196 0.50948 0.54187 0.0
Tb142 Tb 0.97714 0.53546 0.51529 0.0
O143 O 0.02783 0.52083 0.47133 0.0
O144 O 0.01628 0.53028 0.50374 0.0
O145 O 0.0202 0.49209 0.52577 0.0
C146 C 0.96165 0.57783 0.53063 0.0
O147 O 0.00952 0.52966 0.53987 0.0
C148 C 0.95676 0.49284 0.51974 0.0
C149 C 0.96198 0.52255 0.46345 0.0
O150 O 0.95224 0.55775 0.53664 0.0
O151 O 0.97953 0.57403 0.51571 0.0
O152 O 0.95417 0.51057 0.53428 0.0
O153 O 0.96697 0.5005 0.50258 0.0
O154 O 0.96006 0.53782 0.48111 0.0
O155 O 0.97726 0.50373 0.4638 0.0
C156 C 0.02183 0.45338 0.47501 0.0
O157 O 0.03733 0.47226 0.47832 0.0
O158 O 0.99754 0.45827 0.48059 0.0
C159 C 0.02651 0.53806 0.48667 0.0
Tb160 Tb 0.24427 0.28029 0.98375 0.0
C161 C 0.22505 0.28983 0.03341 0.0
Tb162 Tb 0.26413 0.24841 0.0205 0.0
O163 O 0.22087 0.25075 0.96588 0.0
O164 O 0.22811 0.25194 0.0007 0.0
O165 O 0.22417 0.29637 0.01238 0.0
C166 C 0.26613 0.21396 0.04852 0.0
O167 O 0.23903 0.27177 0.04037 0.0
C168 C 0.29865 0.28179 0.01027 0.0
C169 C 0.28225 0.23866 0.97149 0.0
O170 O 0.25282 0.21297 0.02922 0.0
O171 O 0.27829 0.23459 0.05231 0.0
O172 O 0.30602 0.26185 0.01782 0.0
O173 O 0.27335 0.28273 0.01083 0.0
O174 O 0.27678 0.22916 0.99047 0.0
O175 O 0.27471 0.26003 0.96668 0.0
C176 C 0.24035 0.31744 0.95911 0.0
O177 O 0.26277 0.30908 0.96685 0.0
O178 O 0.21991 0.30466 0.96497 0.0
C179 C 0.2185 0.23925 0.98393 0.0
Tb180 Tb 0.26583 0.01251 0.22967 0.0
C181 C 0.27264 0.95942 0.24239 0.0
Tb182 Tb 0.23564 0.9941 0.26903 0.0
O183 O 0.29205 0.03475 0.25391 0.0
O184 O 0.27577 0.0024 0.26226 0.0
O185 O 0.27426 0.97477 0.22649 0.0
C186 C 0.21797 0.98726 0.30959 0.0
O187 O 0.26194 0.96475 0.26209 0.0
C188 C 0.21221 0.98459 0.22959 0.0
C189 C 0.22972 0.04759 0.25649 0.0
O190 O 0.20749 0.97758 0.29075 0.0
O191 O 0.23871 1.00059 0.30567 0.0
O192 O 0.20907 0.97149 0.24637 0.0
O193 O 0.22528 0.00338 0.23608 0.0
O194 O 0.22576 0.03154 0.27135 0.0
O195 O 0.2422 0.04309 0.23758 0.0
C196 C 0.28117 0.02364 0.18925 0.0
O197 O 0.29629 0.02569 0.20773 0.0
O198 O 0.25774 0.01462 0.19353 0.0
C199 C 0.28917 0.02044 0.26983 0.0
Tb200 Tb 0.47684 0.23945 0.76532 0.0
C201 C 0.53893 0.2334 0.7618 0.0
Tb202 Tb 0.50575 0.26458 0.73025 0.0
O203 O 0.4853 0.20509 0.74908 0.0
O204 O 0.48001 0.23398 0.7298 0.0
O205 O 0.51898 0.23484 0.77583 0.0
C206 C 0.52418 0.27718 0.69153 0.0
O207 O 0.5365 0.24079 0.74123 0.0
C208 C 0.51262 0.28437 0.77142 0.0
C209 C 0.44415 0.27514 0.73637 0.0
O210 O 0.52064 0.25565 0.69712 0.0
O211 O 0.51744 0.29181 0.70784 0.0
O212 O 0.53071 0.28533 0.75636 0.0
O213 O 0.49145 0.27437 0.76242 0.0
O214 O 0.46541 0.27763 0.72383 0.0
O215 O 0.44439 0.26183 0.75394 0.0
C216 C 0.45106 0.22514 0.80016 0.0
O217 O 0.44199 0.22238 0.77934 0.0
O218 O 0.47435 0.23641 0.80144 0.0
C219 C 0.48658 0.21266 0.72916 0.0
Tb220 Tb 0.98123 0.75377 0.76323 0.0
C221 C 0.03758 0.73772 0.74737 0.0
Tb222 Tb 0.00673 0.78009 0.72633 0.0
O223 O 0.97683 0.72145 0.74132 0.0
O224 O 0.97523 0.7545 0.7279 0.0
O225 O 0.02081 0.73826 0.76413 0.0
C226 C 0.0253 0.79452 0.68843 0.0
O227 O 0.03431 0.75088 0.72983 0.0
C228 C 0.01224 0.80117 0.76655 0.0
C229 C 0.95154 0.79719 0.74303 0.0
O230 O 0.0372 0.79863 0.7082 0.0
O231 O 0.0034 0.78179 0.68993 0.0
O232 O 0.01136 0.81241 0.74828 0.0
O233 O 0.01268 0.77933 0.76162 0.0
O234 O 0.96762 0.79606 0.72587 0.0
O235 O 0.95486 0.78405 0.76056 0.0
C236 C 0.95944 0.73876 0.79972 0.0
O237 O 0.94746 0.73836 0.7799 0.0
O238 O 0.98369 0.74796 0.79919 0.0
C239 C 0.97579 0.73263 0.72303 0.0
Tb240 Tb 0.76246 0.51272 0.22986 0.0
C241 C 0.76786 0.45856 0.23836 0.0
Tb242 Tb 0.72537 0.49059 0.262 0.0
O243 O 0.78437 0.53215 0.25832 0.0
O244 O 0.76705 0.49895 0.26203 0.0
O245 O 0.77261 0.47558 0.22464 0.0
C246 C 0.70293 0.47856 0.29952 0.0
O247 O 0.7529 0.46188 0.25615 0.0
C248 C 0.70775 0.48629 0.21983 0.0
C249 C 0.71985 0.54469 0.25255 0.0
O250 O 0.69717 0.46887 0.2795 0.0
O251 O 0.72117 0.49524 0.29841 0.0
O252 O 0.70075 0.47184 0.2347 0.0
O253 O 0.72078 0.50367 0.22961 0.0
O254 O 0.71557 0.52799 0.26673 0.0
O255 O 0.73399 0.54086 0.23437 0.0
C256 C 0.78926 0.5277 0.19537 0.0
O257 O 0.793 0.53552 0.21621 0.0
O258 O 0.77066 0.51103 0.19398 0.0
C259 C 0.77888 0.51648 0.27241 0.0
Tb260 Tb 0.75302 0.77796 0.98417 0.0
C261 C 0.73294 0.78372 0.03305 0.0
Tb262 Tb 0.77326 0.74384 0.0177 0.0
O263 O 0.71185 0.76289 0.98384 0.0
O264 O 0.74507 0.74178 0.98979 0.0
O265 O 0.7362 0.79412 0.01405 0.0
C266 C 0.77991 0.70944 0.04555 0.0
O267 O 0.74445 0.7636 0.03766 0.0
C268 C 0.80555 0.78078 0.01337 0.0
C269 C 0.78996 0.73614 0.9683 0.0
O270 O 0.75757 0.72038 0.04225 0.0
O271 O 0.7984 0.71807 0.03351 0.0
O272 O 0.81392 0.76075 0.01966 0.0
O273 O 0.78015 0.78003 0.01264 0.0
O274 O 0.78418 0.72549 0.98665 0.0
O275 O 0.78144 0.75751 0.96442 0.0
C276 C 0.75281 0.8143 0.95807 0.0
O277 O 0.73415 0.79762 0.95736 0.0
O278 O 0.77151 0.81016 0.97304 0.0
C279 C 0.71959 0.7424 0.98977 0.0
Tb280 Tb 0.52674 0.99953 0.51759 0.0
C281 C 0.51346 0.9816 0.46746 0.0
Tb282 Tb 0.47816 0.01874 0.49297 0.0
O283 O 0.50926 0.96376 0.51418 0.0
O284 O 0.48411 0.99277 0.51667 0.0
O285 O 0.53327 0.98642 0.48304 0.0
C286 C 0.42885 0.02856 0.47704 0.0
O287 O 0.48895 0.99007 0.46938 0.0
C288 C 0.52538 0.03854 0.48501 0.0
C289 C 0.49147 0.03775 0.54348 0.0
O290 O 0.43664 0.00782 0.48203 0.0
O291 O 0.44884 0.04377 0.4812 0.0
O292 O 0.5051 0.03627 0.47031 0.0
O293 O 0.51766 0.03135 0.50319 0.0
O294 O 0.47462 0.03815 0.52548 0.0
O295 O 0.51262 0.02385 0.54422 0.0
C296 C 0.574 0.9956 0.53965 0.0
O297 O 0.55115 0.98625 0.54507 0.0
O298 O 0.57032 0.007 0.52163 0.0
C299 C 0.48445 0.97056 0.51317 0.0
Tb300 Tb 0.5067 0.50264 0.97986 0.0
C301 C 0.53587 0.50623 0.02857 0.0
Tb302 Tb 0.48636 0.53792 0.01622 0.0
O303 O 0.52634 0.53085 0.9626 0.0
O304 O 0.52095 0.53516 0.99662 0.0
O305 O 0.53238 0.49373 0.0089 0.0
C306 C 0.47902 0.57646 0.04358 0.0
O307 O 0.52176 0.52517 0.03389 0.0
C308 C 0.46667 0.49413 0.01609 0.0
C309 C 0.45608 0.53288 0.96871 0.0
O310 O 0.4638 0.55732 0.04212 0.0
O311 O 0.49781 0.57401 0.02925 0.0
O312 O 0.46897 0.50859 0.03397 0.0
O313 O 0.47257 0.50538 -0.00054 0.0
O314 O 0.46275 0.54782 0.98632 0.0
O315 O 0.46754 0.51214 0.96562 0.0
C316 C 0.51576 0.4654 0.95165 0.0
O317 O 0.51512 0.48721 0.94652 0.0
O318 O 0.51186 0.46444 0.973 0.0
C319 C 0.52772 0.546 0.97988 0.0
H320 H 0.95589 0.09218 0.06532 0.0
H321 H 0.95774 0.12533 0.09394 0.0
H322 H 0.04305 0.136 0.08463 0.0
H323 H 0.04119 0.10326 0.05573 0.0
H324 H 0.03058 0.13059 0.12895 0.0
H325 H 0.0023 0.17634 0.0682 0.0
H326 H 0.97366 0.18576 0.03525 0.0
H327 H 0.90455 0.19014 0.07611 0.0
H328 H 0.93271 0.18038 0.10927 0.0
H329 H 0.04552 0.23038 0.20747 0.0
H330 H 0.04595 0.20653 0.17172 0.0
H331 H 0.95987 0.19295 0.17374 0.0
H332 H 0.95937 0.21664 0.20955 0.0
H333 H 0.97516 0.20202 0.13125 0.0
H334 H 0.00236 0.15482 0.19141 0.0
H335 H 0.02934 0.14192 0.22387 0.0
H336 H 0.09911 0.13676 0.18388 0.0
H337 H 0.07287 0.15064 0.15141 0.0
C338 C 0.97487 0.10195 0.06908 0.0
C339 C 0.99839 0.09524 0.05842 0.0
C340 C 0.9759 0.12087 0.08535 0.0
C341 C 0.00053 0.13313 0.09129 0.0
C342 C 0.02386 0.1268 0.08019 0.0
C343 C 0.02275 0.10815 0.0637 0.0
C344 C 0.00242 0.15107 0.11048 0.0
C345 C 0.01897 0.14653 0.12932 0.0
C346 C 0.98656 0.17136 0.11104 0.0
C347 C 0.96958 0.17743 0.09119 0.0
C348 C 0.98095 0.17912 0.07013 0.0
C349 C 0.96481 0.18455 0.05142 0.0
C350 C 0.93729 0.18849 0.05357 0.0
C351 C 0.92587 0.18707 0.07446 0.0
C352 C 0.94192 0.18161 0.09323 0.0
C353 C 0.02665 0.22253 0.20013 0.0
C354 C 0.00241 0.22515 0.21128 0.0
C355 C 0.02694 0.20888 0.17977 0.0
C356 C 0.00297 0.19782 0.17023 0.0
C357 C 0.97857 0.20134 0.18086 0.0
C358 C 0.97832 0.21478 0.20131 0.0
C359 C 0.00343 0.18158 0.14979 0.0
C360 C 0.98718 0.18634 0.13077 0.0
C361 C 0.0195 0.16133 0.1491 0.0
C362 C 0.03571 0.1542 0.16903 0.0
C363 C 0.02359 0.15145 0.18963 0.0
C364 C 0.03875 0.14388 0.20804 0.0
C365 C 0.06593 0.13855 0.20595 0.0
C366 C 0.07804 0.14088 0.18547 0.0
C367 C 0.06309 0.14879 0.16711 0.0
H368 H 0.07761 0.13261 0.22019 0.0
H369 H 0.92482 0.19269 0.03906 0.0
H370 H 0.79242 0.26193 0.42318 0.0
H371 H 0.83067 0.25364 0.3998 0.0
H372 H 0.86511 0.21105 0.45063 0.0
H373 H 0.82631 0.21848 0.47363 0.0
H374 H 0.88071 0.2653 0.40663 0.0
H375 H 0.90515 0.16966 0.42684 0.0
H376 H 0.88154 0.1334 0.43738 0.0
H377 H 0.80775 0.15502 0.4052 0.0
H378 H 0.83101 0.19123 0.39423 0.0
H379 H 0.00119 0.24674 0.35617 0.0
H380 H 0.97087 0.24185 0.387 0.0
H381 H 0.91706 0.19709 0.34272 0.0
H382 H 0.94759 0.20124 0.31213 0.0
H383 H 0.91363 0.18549 0.38563 0.0
H384 H 0.91209 0.25546 0.34412 0.0
H385 H 0.93208 0.29107 0.32899 0.0
H386 H 0.95156 0.32056 0.39614 0.0
H387 H 0.93256 0.28471 0.41168 0.0
C388 C 0.80801 0.25059 0.42923 0.0
C389 C 0.80638 0.24077 0.45014 0.0
C390 C 0.82989 0.24593 0.41592 0.0
C391 C 0.8507 0.23163 0.42341 0.0
C392 C 0.84905 0.22175 0.4443 0.0
C393 C 0.8269 0.22605 0.45744 0.0
C394 C 0.87453 0.22789 0.40964 0.0
C395 C 0.88793 0.24783 0.40215 0.0
C396 C 0.88391 0.2051 0.40367 0.0
C397 C 0.86977 0.18327 0.40996 0.0
C398 C 0.88391 0.16663 0.42197 0.0
C399 C 0.87058 0.14609 0.42802 0.0
C400 C 0.84314 0.14195 0.42204 0.0
C401 C 0.82898 0.15829 0.40991 0.0
C402 C 0.84222 0.17884 0.40379 0.0
C403 C 0.98341 0.23514 0.35332 0.0
C404 C 0.97631 0.22474 0.33178 0.0
C405 C 0.96617 0.23239 0.37088 0.0
C406 C 0.94149 0.21965 0.36691 0.0
C407 C 0.93595 0.2071 0.34608 0.0
C408 C 0.95333 0.2096 0.32859 0.0
C409 C 0.91951 0.22286 0.38263 0.0
C410 C 0.90656 0.20292 0.39048 0.0
C411 C 0.90987 0.24561 0.38833 0.0
C412 C 0.92122 0.26726 0.37905 0.0
C413 C 0.92091 0.26942 0.35566 0.0
C414 C 0.93212 0.28963 0.34701 0.0
C415 C 0.94325 0.308 0.3616 0.0
C416 C 0.94315 0.30622 0.38487 0.0
C417 C 0.93222 0.28594 0.39361 0.0
H418 H 0.95183 0.32367 0.35489 0.0
H419 H 0.83285 0.12606 0.42676 0.0
H420 H 0.80891 0.03806 0.66476 0.0
H421 H 0.80706 0.04916 0.62546 0.0
H422 H 0.73984 0.09367 0.63977 0.0
H423 H 0.74106 0.08211 0.67821 0.0
H424 H 0.73183 0.07377 0.59947 0.0
H425 H 0.80999 0.11418 0.64272 0.0
H426 H 0.8541 0.11405 0.66385 0.0
H427 H 0.88806 0.07578 0.60795 0.0
H428 H 0.84405 0.07556 0.5866 0.0
H429 H 0.74648 0.19025 0.57082 0.0
H430 H 0.74775 0.15217 0.58776 0.0
H431 H 0.7862 0.12165 0.52978 0.0
H432 H 0.78399 0.15971 0.51224 0.0
H433 H 0.81251 0.1196 0.57824 0.0
H434 H 0.73531 0.09772 0.53156 0.0
H435 H 0.69079 0.10178 0.51214 0.0
H436 H 0.65345 0.10802 0.57572 0.0
H437 H 0.69781 0.10468 0.59561 0.0
C438 C 0.79371 0.05008 0.65931 0.0
C439 C 0.77541 0.05955 0.6745 0.0
C440 C 0.79259 0.05634 0.63692 0.0
C441 C 0.77344 0.07242 0.62968 0.0
C442 C 0.75468 0.08113 0.64481 0.0
C443 C 0.7556 0.07471 0.66691 0.0
C444 C 0.77405 0.08244 0.60733 0.0
C445 C 0.74951 0.08361 0.59462 0.0
C446 C 0.79741 0.09444 0.60042 0.0
C447 C 0.82375 0.09458 0.61323 0.0
C448 C 0.82686 0.10565 0.63502 0.0
C449 C 0.85182 0.10564 0.64702 0.0
C450 C 0.87384 0.09484 0.63728 0.0
C451 C 0.87097 0.08408 0.61549 0.0
C452 C 0.84604 0.08401 0.60344 0.0
C453 C 0.75503 0.17539 0.56163 0.0
C454 C 0.76535 0.17781 0.54039 0.0
C455 C 0.75552 0.15365 0.57119 0.0
C456 C 0.76679 0.13417 0.55983 0.0
C457 C 0.77716 0.1365 0.53859 0.0
C458 C 0.77601 0.15816 0.52872 0.0
C459 C 0.76985 0.11237 0.57166 0.0
C460 C 0.79509 0.10892 0.58235 0.0
C461 C 0.74697 0.09871 0.57695 0.0
C462 C 0.72008 0.10104 0.56513 0.0
C463 C 0.7177 0.10025 0.54146 0.0
C464 C 0.69245 0.10239 0.53034 0.0
C465 C 0.66932 0.10513 0.54268 0.0
C466 C 0.6714 0.10586 0.56618 0.0
C467 C 0.69661 0.10384 0.57738 0.0
H468 H 0.64979 0.10663 0.53403 0.0
H469 H 0.89315 0.09485 0.64659 0.0
H470 H 0.93519 0.99837 0.9556 0.0
H471 H 0.90387 0.0049 0.924 0.0
H472 H 0.94248 0.0731 0.91717 0.0
H473 H 0.97341 0.06693 0.94974 0.0
H474 H 0.8864 0.07236 0.90803 0.0
H475 H 0.96266 0.02553 0.88682 0.0
H476 H 0.99291 0.9922 0.89125 0.0
H477 H 0.92557 0.94309 0.87767 0.0
H478 H 0.89493 0.97615 0.87331 0.0
H479 H 0.84071 0.07799 0.79351 0.0
H480 H 0.86948 0.07762 0.82811 0.0
H481 H 0.83858 0.00745 0.83859 0.0
H482 H 0.81037 0.00757 0.80387 0.0
H483 H 0.89233 0.0109 0.8454 0.0
H484 H 0.816 0.05422 0.86846 0.0
H485 H 0.7825 0.0854 0.86663 0.0
H486 H 0.84598 0.13861 0.87843 0.0
H487 H 0.87995 0.10771 0.87996 0.0
C488 C 0.93667 0.01494 0.94757 0.0
C489 C 0.95682 0.03205 0.95465 0.0
C490 C 0.91882 0.01863 0.92958 0.0
C491 C 0.92143 0.03917 0.91793 0.0
C492 C 0.94039 0.05705 0.92591 0.0
C493 C 0.95799 0.05355 0.94437 0.0
C494 C 0.90596 0.04079 0.89637 0.0
C495 C 0.888 0.05921 0.89415 0.0
C496 C 0.90765 0.02318 0.87858 0.0
C497 C 0.92643 0.00332 0.87997 0.0
C498 C 0.9543 0.00763 0.88481 0.0
C499 C 0.97153 0.98878 0.8873 0.0
C500 C 0.96115 0.96555 0.88482 0.0
C501 C 0.93358 0.96109 0.87962 0.0
C502 C 0.91629 0.97987 0.8771 0.0
C503 C 0.84018 0.06253 0.80323 0.0
C504 C 0.82319 0.04294 0.79632 0.0
C505 C 0.85644 0.06237 0.82298 0.0
C506 C 0.85582 0.04264 0.83599 0.0
C507 C 0.83921 0.02289 0.82881 0.0
C508 C 0.823 0.02304 0.80911 0.0
C509 C 0.87265 0.04244 0.85704 0.0
C510 C 0.89092 0.02425 0.85915 0.0
C511 C 0.87093 0.06004 0.8748 0.0
C512 C 0.85055 0.07866 0.87407 0.0
C513 C 0.82285 0.07258 0.87048 0.0
C514 C 0.80377 0.09019 0.86952 0.0
C515 C 0.81211 0.11397 0.87235 0.0
C516 C 0.83956 0.12018 0.87621 0.0
C517 C 0.85873 0.10262 0.87713 0.0
H518 H 0.79731 0.12759 0.87161 0.0
H519 H 0.97445 0.951 0.88691 0.0
H520 H 0.07717 0.02137 0.06687 0.0
H521 H 0.10885 0.00849 0.09584 0.0
H522 H 0.08004 0.93638 0.08169 0.0
H523 H 0.04859 0.94907 0.05192 0.0
H524 H 0.0836 0.96862 0.1328 0.0
H525 H 0.12986 0.93012 0.07116 0.0
H526 H 0.14826 0.92831 0.03338 0.0
H527 H 0.2 0.98904 0.05256 0.0
H528 H 0.18155 0.99143 0.09036 0.0
H529 H 0.1931 0.94195 0.21201 0.0
H530 H 0.16733 0.93329 0.17618 0.0
H531 H 0.17617 0.00635 0.16123 0.0
H532 H 0.20221 0.01513 0.197 0.0
H533 H 0.18226 0.96161 0.12327 0.0
H534 H 0.10496 0.00755 0.16839 0.0
H535 H 0.08754 0.01468 0.20633 0.0
H536 H 0.09863 0.94194 0.21923 0.0
H537 H 0.11585 0.93443 0.18127 0.0
C538 C 0.07757 0.00276 0.06988 0.0
C539 C 0.06041 0.98618 0.05732 0.0
C540 C 0.09577 0.99544 0.08626 0.0
C541 C 0.09681 0.97154 0.09056 0.0
C542 C 0.0796 0.95487 0.07826 0.0
C543 C 0.06171 0.96213 0.06141 0.0
C544 C 0.11495 0.96483 0.10906 0.0
C545 C 0.10502 0.96615 0.13069 0.0
C546 C 0.14292 0.96241 0.10617 0.0
C547 C 0.15411 0.96108 0.0835 0.0
C548 C 0.14493 0.94325 0.06724 0.0
C549 C 0.15543 0.94208 0.04584 0.0
C550 C 0.17524 0.95859 0.04055 0.0
C551 C 0.18463 0.97628 0.05667 0.0
C552 C 0.17418 0.97753 0.07809 0.0
C553 C 0.18987 0.95607 0.20089 0.0
C554 C 0.1994 0.97921 0.20715 0.0
C555 C 0.17532 0.95106 0.18048 0.0
C556 C 0.16996 0.96922 0.1663 0.0
C557 C 0.18042 0.99215 0.17204 0.0
C558 C 0.19518 0.99714 0.19239 0.0
C559 C 0.15076 0.96507 0.14686 0.0
C560 C 0.16063 0.96258 0.12524 0.0
C561 C 0.12269 0.96636 0.14965 0.0
C562 C 0.11174 0.97049 0.17216 0.0
C563 C 0.10354 0.9931 0.17933 0.0
C564 C 0.09374 0.99721 0.20081 0.0
C565 C 0.09202 0.97878 0.2152 0.0
C566 C 0.10001 0.9562 0.20809 0.0
C567 C 0.10978 0.95201 0.1866 0.0
H568 H 0.08448 0.982 0.23183 0.0
H569 H 0.18336 0.95765 0.02398 0.0
H570 H 0.07106 0.44216 0.45956 0.0
H571 H 0.08055 0.40905 0.433 0.0
H572 H 0.99827 0.38244 0.43588 0.0
H573 H 0.98888 0.41518 0.46278 0.0
H574 H 0.03337 0.34642 0.42994 0.0
H575 H 0.01322 0.41986 0.39722 0.0
H576 H 0.01944 0.46243 0.39218 0.0
H577 H 0.10083 0.45152 0.37273 0.0
H578 H 0.09519 0.4089 0.37798 0.0
H579 H 0.00197 0.29903 0.3168 0.0
H580 H 0.0047 0.31899 0.35459 0.0
H581 H 0.08824 0.33893 0.34618 0.0
H582 H 0.08571 0.31889 0.30855 0.0
H583 H 0.0574 0.37638 0.35684 0.0
H584 H 0.07218 0.29995 0.38266 0.0
H585 H 0.06303 0.25762 0.38689 0.0
H586 H 0.98889 0.27364 0.41837 0.0
H587 H 0.99731 0.31603 0.41396 0.0
C588 C 0.05526 0.42887 0.45498 0.0
C589 C 0.02915 0.43133 0.46286 0.0
C590 C 0.06067 0.41001 0.43982 0.0
C591 C 0.03994 0.3936 0.43218 0.0
C592 C 0.01451 0.39495 0.44154 0.0
C593 C 0.00914 0.41372 0.4568 0.0
C594 C 0.04349 0.37716 0.41233 0.0
C595 C 0.03855 0.35286 0.4139 0.0
C596 C 0.05051 0.38568 0.39153 0.0
C597 C 0.05391 0.41127 0.38827 0.0
C598 C 0.03251 0.42658 0.39204 0.0
C599 C 0.03592 0.45071 0.38912 0.0
C600 C 0.06055 0.45969 0.38221 0.0
C601 C 0.08179 0.44454 0.37814 0.0
C602 C 0.0785 0.42041 0.38108 0.0
C603 C 0.02104 0.30727 0.32323 0.0
C604 C 0.0436 0.30761 0.30979 0.0
C605 C 0.02259 0.31857 0.34481 0.0
C606 C 0.0467 0.33036 0.35314 0.0
C607 C 0.06949 0.3299 0.34002 0.0
C608 C 0.06799 0.31853 0.31855 0.0
C609 C 0.04726 0.34549 0.3743 0.0
C610 C 0.05274 0.3697 0.37292 0.0
C611 C 0.04035 0.33682 0.39508 0.0
C612 C 0.03518 0.31123 0.39766 0.0
C613 C 0.05373 0.29446 0.39022 0.0
C614 C 0.04873 0.27043 0.39272 0.0
C615 C 0.02538 0.26294 0.40286 0.0
C616 C 0.00696 0.27946 0.41049 0.0
C617 C 0.01183 0.30349 0.40797 0.0
H618 H 0.02157 0.24433 0.40482 0.0
H619 H 0.06315 0.47837 0.37994 0.0
H620 H 0.68347 0.24627 0.55328 0.0
H621 H 0.64629 0.25696 0.57715 0.0
H622 H 0.65095 0.32832 0.55659 0.0
H623 H 0.688 0.31769 0.53219 0.0
H624 H 0.65023 0.3164 0.60851 0.0
H625 H 0.6031 0.3089 0.5365 0.0
H626 H 0.58993 0.29059 0.49882 0.0
H627 H 0.55884 0.22902 0.52843 0.0
H628 H 0.57254 0.24666 0.56627 0.0
H629 H 0.53792 0.32138 0.67928 0.0
H630 H 0.5634 0.33105 0.6465 0.0
H631 H 0.56382 0.25696 0.62496 0.0
H632 H 0.53812 0.24738 0.65719 0.0
H633 H 0.55756 0.28296 0.58961 0.0
H634 H 0.61608 0.2843 0.6582 0.0
H635 H 0.63075 0.29929 0.69676 0.0
H636 H 0.64134 0.36918 0.67428 0.0
H637 H 0.62641 0.3546 0.63561 0.0
C638 C 0.67675 0.26429 0.55395 0.0
C639 C 0.68862 0.2812 0.54098 0.0
C640 C 0.6554 0.27028 0.5674 0.0
C641 C 0.64584 0.29329 0.56828 0.0
C642 C 0.65805 0.31044 0.55587 0.0
C643 C 0.67912 0.30434 0.54203 0.0
C644 C 0.62338 0.29906 0.58273 0.0
C645 C 0.62971 0.3098 0.60422 0.0
C646 C 0.59688 0.29001 0.57705 0.0
C647 C 0.58909 0.27907 0.55426 0.0
C648 C 0.59383 0.29131 0.53498 0.0
C649 C 0.58618 0.28108 0.51358 0.0
C650 C 0.57352 0.25867 0.51123 0.0
C651 C 0.56854 0.24643 0.53028 0.0
C652 C 0.57631 0.25652 0.55171 0.0
C653 C 0.54309 0.30729 0.66726 0.0
C654 C 0.53642 0.28364 0.67077 0.0
C655 C 0.55762 0.31281 0.64863 0.0
C656 C 0.56572 0.29468 0.63347 0.0
C657 C 0.55771 0.27122 0.63641 0.0
C658 C 0.54319 0.26574 0.6549 0.0
C659 C 0.58468 0.29937 0.61574 0.0
C660 C 0.57775 0.29047 0.59365 0.0
C661 C 0.61077 0.30973 0.62096 0.0
C662 C 0.61979 0.31845 0.64414 0.0
C663 C 0.62135 0.30289 0.66154 0.0
C664 C 0.62974 0.3113 0.68339 0.0
C665 C 0.63688 0.33519 0.68798 0.0
C666 C 0.63573 0.3507 0.67071 0.0
C667 C 0.6273 0.34238 0.64883 0.0
H668 H 0.64337 0.34167 0.70491 0.0
H669 H 0.5676 0.25078 0.49465 0.0
H670 H 0.77331 0.01217 0.86157 0.0
H671 H 0.77439 0.98438 0.8914 0.0
H672 H 0.70178 0.94901 0.86141 0.0
H673 H 0.69989 0.97734 0.83247 0.0
H674 H 0.70237 0.94607 0.90473 0.0
H675 H 0.7688 0.93432 0.84694 0.0
H676 H 0.80811 0.94679 0.82608 0.0
H677 H 0.85688 0.95481 0.88781 0.0
H678 H 0.81776 0.94282 0.909 0.0
H679 H 0.71483 0.82602 0.92637 0.0
H680 H 0.71205 0.86358 0.90841 0.0
H681 H 0.785 0.88937 0.94574 0.0
H682 H 0.78823 0.85173 0.96318 0.0
H683 H 0.78645 0.9006 0.90393 0.0
H684 H 0.72184 0.90721 0.96102 0.0
H685 H 0.68275 0.89472 0.98208 0.0
H686 H 0.63089 0.89602 0.92241 0.0
H687 H 0.66975 0.9082 0.90091 0.0
C688 C 0.75714 0.99891 0.86186 0.0
C689 C 0.73674 0.99658 0.84462 0.0
C690 C 0.75787 0.98296 0.87877 0.0
C691 C 0.73865 0.96416 0.87819 0.0
C692 C 0.71695 0.96323 0.86211 0.0
C693 C 0.71592 0.97941 0.84553 0.0
C694 C 0.7425 0.94392 0.89237 0.0
C695 C 0.72072 0.93609 0.90453 0.0
C696 C 0.76669 0.93116 0.8925 0.0
C697 C 0.79029 0.93796 0.87958 0.0
C698 C 0.78789 0.93888 0.85605 0.0
C699 C 0.81014 0.94589 0.84416 0.0
C700 C 0.83498 0.95173 0.8556 0.0
C701 C 0.83764 0.95043 0.87893 0.0
C702 C 0.81543 0.94354 0.8909 0.0
C703 C 0.73032 0.83968 0.93056 0.0
C704 C 0.7517 0.83608 0.94609 0.0
C705 C 0.72862 0.86117 0.92048 0.0
C706 C 0.74806 0.87943 0.92608 0.0
C707 C 0.76973 0.87558 0.94126 0.0
C708 C 0.77155 0.85408 0.95118 0.0
C709 C 0.74608 0.90243 0.91583 0.0
C710 C 0.76822 0.91075 0.90443 0.0
C711 C 0.72223 0.91558 0.91638 0.0
C712 C 0.69876 0.90846 0.92932 0.0
C713 C 0.70213 0.90469 0.95236 0.0
C714 C 0.68001 0.89769 0.96438 0.0
C715 C 0.65437 0.89454 0.95358 0.0
C716 C 0.65077 0.89845 0.93075 0.0
C717 C 0.67283 0.90544 0.91864 0.0
H718 H 0.63727 0.88911 0.96292 0.0
H719 H 0.85218 0.95717 0.84639 0.0
H720 H 0.23821 0.30294 0.07717 0.0
H721 H 0.20723 0.31658 0.10569 0.0
H722 H 0.14219 0.31577 0.05473 0.0
H723 H 0.17365 0.30365 0.02598 0.0
H724 H 0.13303 0.34817 0.08636 0.0
H725 H 0.15522 0.26686 0.08398 0.0
H726 H 0.18514 0.23288 0.08388 0.0
H727 H 0.21707 0.25589 0.15017 0.0
H728 H 0.18766 0.29026 0.1505 0.0
H729 H 0.03943 0.28977 0.16371 0.0
H730 H 0.06602 0.29901 0.13153 0.0
H731 H 0.1195 0.34468 0.17522 0.0
H732 H 0.09267 0.33607 0.20732 0.0
H733 H 0.133 0.29236 0.14709 0.0
H734 H 0.10476 0.3749 0.14662 0.0
H735 H 0.06966 0.40463 0.14366 0.0
H736 H 0.04207 0.37274 0.07903 0.0
H737 H 0.07676 0.34258 0.0818 0.0
C738 C 0.21746 0.30634 0.07206 0.0
C739 C 0.20805 0.30199 0.0496 0.0
C740 C 0.1998 0.31407 0.08828 0.0
C741 C 0.17224 0.31644 0.0824 0.0
C742 C 0.16333 0.31392 0.05965 0.0
C743 C 0.18125 0.30692 0.04328 0.0
C744 C 0.15233 0.31832 0.10011 0.0
C745 C 0.13305 0.33599 0.09965 0.0
C746 C 0.15194 0.30208 0.11718 0.0
C747 C 0.16946 0.28127 0.11716 0.0
C748 C 0.16875 0.26475 0.09848 0.0
C749 C 0.18561 0.24542 0.09838 0.0
C750 C 0.20305 0.24226 0.11698 0.0
C751 C 0.20359 0.25839 0.13575 0.0
C752 C 0.18683 0.2778 0.1359 0.0
C753 C 0.05628 0.30243 0.16626 0.0
C754 C 0.06426 0.31206 0.18792 0.0
C755 C 0.07129 0.3078 0.1479 0.0
C756 C 0.09441 0.32272 0.1511 0.0
C757 C 0.10135 0.33352 0.17246 0.0
C758 C 0.08615 0.32845 0.19075 0.0
C759 C 0.11441 0.32255 0.13367 0.0
C760 C 0.13341 0.30481 0.13402 0.0
C761 C 0.11385 0.33816 0.11622 0.0
C762 C 0.0931 0.35631 0.11457 0.0
C763 C 0.09098 0.37404 0.13192 0.0
C764 C 0.07122 0.39102 0.13024 0.0
C765 C 0.05357 0.39052 0.1112 0.0
C766 C 0.05571 0.37308 0.09378 0.0
C767 C 0.07543 0.35606 0.0954 0.0
H768 H 0.0383 0.40369 0.10992 0.0
H769 H 0.21609 0.22729 0.11687 0.0
H770 H 0.71001 0.49836 0.34254 0.0
H771 H 0.70228 0.47875 0.37729 0.0
H772 H 0.67194 0.4163 0.33759 0.0
H773 H 0.67779 0.43634 0.30335 0.0
H774 H 0.6457 0.41909 0.3724 0.0
H775 H 0.74463 0.43467 0.35499 0.0
H776 H 0.79724 0.45495 0.35379 0.0
H777 H 0.78018 0.48011 0.44718 0.0
H778 H 0.7313 0.4572 0.43517 0.0
H779 H 0.69403 0.31593 0.41536 0.0
H780 H 0.68107 0.35097 0.39627 0.0
H781 H 0.70652 0.39508 0.45569 0.0
H782 H 0.72012 0.35998 0.47465 0.0
H783 H 0.72821 0.41068 0.42106 0.0
H784 H 0.63896 0.39034 0.43715 0.0
H785 H 0.59831 0.3649 0.44046 0.0
H786 H 0.59258 0.35046 0.36877 0.0
H787 H 0.63344 0.37552 0.36502 0.0
C788 C 0.70105 0.48066 0.34142 0.0
C789 C 0.69464 0.46872 0.32038 0.0
C790 C 0.69691 0.46938 0.36123 0.0
C791 C 0.68723 0.44578 0.36011 0.0
C792 C 0.67946 0.43448 0.33902 0.0
C793 C 0.68288 0.44592 0.31937 0.0
C794 C 0.68681 0.43178 0.38024 0.0
C795 C 0.6638 0.41725 0.38304 0.0
C796 C 0.70971 0.43032 0.39514 0.0
C797 C 0.73458 0.44535 0.39491 0.0
C798 C 0.75331 0.44412 0.37008 0.0
C799 C 0.78689 0.45659 0.36958 0.0
C800 C 0.80277 0.47636 0.41085 0.0
C801 C 0.77665 0.47315 0.42995 0.0
C802 C 0.74531 0.4587 0.4219 0.0
C803 C 0.69656 0.33309 0.4244 0.0
C804 C 0.70826 0.33536 0.44635 0.0
C805 C 0.68886 0.35309 0.4136 0.0
C806 C 0.69245 0.37566 0.42466 0.0
C807 C 0.70341 0.37783 0.44688 0.0
C808 C 0.71126 0.35782 0.45765 0.0
C809 C 0.68803 0.39693 0.41195 0.0
C810 C 0.70991 0.41292 0.41076 0.0
C811 C 0.66408 0.39985 0.39873 0.0
C812 C 0.63938 0.38478 0.40082 0.0
C813 C 0.62915 0.38163 0.42209 0.0
C814 C 0.60604 0.36728 0.42405 0.0
C815 C 0.59288 0.35606 0.40485 0.0
C816 C 0.60278 0.35918 0.38363 0.0
C817 C 0.6259 0.3735 0.38158 0.0
H818 H 0.575 0.34495 0.4064 0.0
H819 H 0.8216 0.48537 0.41734 0.0
H820 H 0.61326 0.03038 0.54264 0.0
H821 H 0.64788 0.03772 0.57339 0.0
H822 H 0.62372 0.97226 0.60087 0.0
H823 H 0.58882 0.96523 0.57065 0.0
H824 H 0.63125 0.04237 0.61781 0.0
H825 H 0.67869 0.95009 0.62715 0.0
H826 H 0.69637 0.91808 0.60261 0.0
H827 H 0.7114 0.96689 0.55219 0.0
H828 H 0.69421 0.99928 0.57653 0.0
H829 H 0.69288 0.98354 0.72292 0.0
H830 H 0.67516 0.98199 0.68368 0.0
H831 H 0.69499 0.05642 0.6812 0.0
H832 H 0.7091 0.05841 0.72094 0.0
H833 H 0.69901 0.98804 0.64724 0.0
H834 H 0.66144 0.08112 0.6417 0.0
H835 H 0.64416 0.11359 0.66605 0.0
H836 H 0.60845 0.06324 0.70756 0.0
H837 H 0.62547 0.03049 0.68341 0.0
C838 C 0.61601 0.01725 0.55488 0.0
C839 C 0.59848 0.99729 0.55449 0.0
C840 C 0.63566 0.02149 0.5724 0.0
C841 C 0.63835 0.00547 0.58926 0.0
C842 C 0.62215 0.98467 0.58784 0.0
C843 C 0.6022 0.98069 0.57066 0.0
C844 C 0.65472 0.01176 0.6102 0.0
C845 C 0.6466 0.03087 0.62409 0.0
C846 C 0.67442 0.99655 0.61834 0.0
C847 C 0.68498 0.97712 0.60366 0.0
C848 C 0.68591 0.95405 0.61089 0.0
C849 C 0.69582 0.93581 0.59699 0.0
C850 C 0.70495 0.94043 0.57583 0.0
C851 C 0.70423 0.96331 0.56854 0.0
C852 C 0.69435 0.98161 0.58237 0.0
C853 C 0.69266 0.9996 0.71405 0.0
C854 C 0.70293 0.02099 0.72456 0.0
C855 C 0.68295 0.9987 0.6916 0.0
C856 C 0.68371 0.0191 0.67939 0.0
C857 C 0.69362 0.04051 0.6902 0.0
C858 C 0.70225 0.04155 0.71279 0.0
C859 C 0.67435 0.01781 0.65534 0.0
C860 C 0.68399 0.99977 0.64086 0.0
C861 C 0.65596 0.03399 0.64663 0.0
C862 C 0.64485 0.05342 0.66086 0.0
C863 C 0.64981 0.07701 0.65598 0.0
C864 C 0.64014 0.09545 0.66978 0.0
C865 C 0.62527 0.09048 0.68837 0.0
C866 C 0.61998 0.06706 0.69316 0.0
C867 C 0.62966 0.04856 0.67946 0.0
H868 H 0.61784 0.10476 0.69906 0.0
H869 H 0.71261 0.92629 0.5651 0.0
H870 H 0.06581 0.92512 0.95196 0.0
H871 H 0.06558 0.89316 0.92226 0.0
H872 H 0.9782 0.89104 0.91883 0.0
H873 H 0.97839 0.92212 0.94912 0.0
H874 H 0.99497 0.84847 0.9087 0.0
H875 H 0.01386 0.92629 0.88573 0.0
H876 H 0.03791 0.96504 0.88644 0.0
H877 H 0.11152 0.93081 0.87054 0.0
H878 H 0.08787 0.89184 0.87 0.0
H879 H 0.00028 0.84628 0.77808 0.0
H880 H 0.00179 0.86603 0.81572 0.0
H881 H 0.02662 0.80156 0.84411 0.0
H882 H 0.02468 0.78156 0.80625 0.0
H883 H 0.04338 0.87479 0.84323 0.0
H884 H 0.00315 0.80212 0.89899 0.0
H885 H 0.97069 0.76803 0.89591 0.0
H886 H 0.92713 0.79818 0.84139 0.0
H887 H 0.95895 0.83259 0.8444 0.0
C888 C 0.04662 0.91736 0.94523 0.0
C889 C 0.02214 0.92623 0.95249 0.0
C890 C 0.04648 0.89916 0.92829 0.0
C891 C 0.02187 0.89009 0.918 0.0
C892 C 0.99743 0.89776 0.92648 0.0
C893 C 0.99756 0.91564 0.94369 0.0
C894 C 0.02144 0.87519 0.89662 0.0
C895 C 0.00579 0.85402 0.89443 0.0
C896 C 0.03484 0.88285 0.87779 0.0
C897 C 0.04918 0.90619 0.8781 0.0
C898 C 0.0352 0.92706 0.88254 0.0
C899 C 0.04875 0.94905 0.88289 0.0
C900 C 0.07626 0.95038 0.87861 0.0
C901 C 0.09023 0.92974 0.87391 0.0
C902 C 0.07676 0.9077 0.87357 0.0
C903 C 0.00595 0.83631 0.79237 0.0
C904 C 0.01242 0.81248 0.78939 0.0
C905 C 0.00682 0.84758 0.81384 0.0
C906 C 0.01434 0.83527 0.83271 0.0
C907 C 0.02049 0.81131 0.8298 0.0
C908 C 0.01941 0.79993 0.80823 0.0
C909 C 0.01681 0.84807 0.85517 0.0
C910 C 0.03296 0.86888 0.85758 0.0
C911 C 0.00285 0.84056 0.87377 0.0
C912 C 0.9837 0.8198 0.87175 0.0
C913 C 0.98663 0.80148 0.88636 0.0
C914 C 0.96832 0.78212 0.88465 0.0
C915 C 0.94689 0.78095 0.86846 0.0
C916 C 0.94377 0.79909 0.85389 0.0
C917 C 0.96197 0.81851 0.85558 0.0
H918 H 0.93261 0.76608 0.86724 0.0
H919 H 0.08673 0.96742 0.87888 0.0
H920 H 0.06748 0.05738 0.02326 0.0
H921 H 0.0964 0.09315 0.0235 0.0
H922 H 0.09603 0.08637 0.95103 0.0
H923 H 0.06605 0.05105 0.95067 0.0
H924 H 0.14861 0.09477 0.97321 0.0
H925 H 0.05864 0.12488 0.9749 0.0
H926 H 0.01358 0.1306 0.9899 0.0
H927 H 0.05022 0.16308 0.05139 0.0
H928 H 0.09557 0.15667 0.03715 0.0
H929 H 0.20177 0.20763 0.94938 0.0
H930 H 0.17348 0.17166 0.9512 0.0
H931 H 0.16969 0.18525 0.023 0.0
H932 H 0.19798 0.22124 0.02124 0.0
H933 H 0.11964 0.17329 0.00275 0.0
H934 H 0.20754 0.14292 0.00463 0.0
H935 H 0.25407 0.13722 0.99288 0.0
H936 H 0.22337 0.10528 0.92912 0.0
H937 H 0.17656 0.11131 0.9403 0.0
C938 C 0.07297 0.06383 0.00735 0.0
C939 C 0.06387 0.05178 0.98691 0.0
C940 C 0.08975 0.08414 0.00753 0.0
C941 C 0.09819 0.09256 0.98728 0.0
C942 C 0.08968 0.08022 0.96685 0.0
C943 C 0.07253 0.0601 0.96666 0.0
C944 C 0.11605 0.11413 0.98744 0.0
C945 C 0.14214 0.112 0.97937 0.0
C946 C 0.10797 0.13644 0.99635 0.0
C947 C 0.08061 0.13997 0.00504 0.0
C948 C 0.05716 0.13287 0.99177 0.0
C949 C 0.03153 0.13626 0.00014 0.0
C950 C 0.02903 0.14709 0.02163 0.0
C951 C 0.05217 0.15456 0.03479 0.0
C952 C 0.07785 0.15098 0.02661 0.0
C953 C 0.19499 0.20287 0.96555 0.0
C954 C 0.20219 0.21714 0.98517 0.0
C955 C 0.17889 0.1823 0.96659 0.0
C956 C 0.16953 0.17568 0.98726 0.0
C957 C 0.17664 0.18999 0.00688 0.0
C958 C 0.19296 0.21046 0.00587 0.0
C959 C 0.15205 0.15398 0.98825 0.0
C960 C 0.12609 0.15606 0.99659 0.0
C961 C 0.16041 0.13153 0.98006 0.0
C962 C 0.18851 0.12781 0.97321 0.0
C963 C 0.21068 0.1349 0.98801 0.0
C964 C 0.23712 0.13156 0.98147 0.0
C965 C 0.24169 0.1209 0.96026 0.0
C966 C 0.2198 0.11356 0.94554 0.0
C967 C 0.1933 0.11694 0.95197 0.0
H968 H 0.26218 0.11829 0.95524 0.0
H969 H 0.00918 0.14972 0.02807 0.0
H970 H 0.6986 0.56297 0.29118 0.0
H971 H 0.67833 0.60144 0.2975 0.0
H972 H 0.69268 0.61703 0.22907 0.0
H973 H 0.71367 0.57896 0.22283 0.0
H974 H 0.7038 0.65497 0.25644 0.0
H975 H 0.62988 0.59755 0.24494 0.0
H976 H 0.60352 0.56156 0.25234 0.0
H977 H 0.59308 0.58897 0.32013 0.0
H978 H 0.6197 0.62501 0.3132 0.0
H979 H 0.60161 0.73748 0.2351 0.0
H980 H 0.63401 0.70604 0.23682 0.0
H981 H 0.61758 0.6986 0.3065 0.0
H982 H 0.58483 0.7298 0.30488 0.0
H983 H 0.61002 0.65779 0.28219 0.0
H984 H 0.67999 0.71802 0.29123 0.0
H985 H 0.70509 0.75408 0.28222 0.0
H986 H 0.72167 0.72183 0.21738 0.0
H987 H 0.69634 0.68566 0.22586 0.0
C988 C 0.69741 0.57459 0.27748 0.0
C989 C 0.70751 0.56785 0.25646 0.0
C990 C 0.68584 0.59656 0.28111 0.0
C991 C 0.68368 0.61198 0.26366 0.0
C992 C 0.69417 0.60544 0.24278 0.0
C993 C 0.70604 0.58361 0.23922 0.0
C994 C 0.66971 0.6346 0.26685 0.0
C995 C 0.68322 0.65562 0.26193 0.0
C996 C 0.64309 0.63547 0.27447 0.0
C997 C 0.62703 0.61384 0.27863 0.0
C998 C 0.62213 0.59582 0.26148 0.0
C999 C 0.60712 0.57543 0.26557 0.0
C1000 C 0.5967 0.57295 0.28671 0.0
C1001 C 0.60121 0.59089 0.30378 0.0
C1002 C 0.61624 0.61131 0.29977 0.0
C1003 C 0.60535 0.72959 0.25097 0.0
C1004 C 0.59035 0.73594 0.26977 0.0
C1005 C 0.62399 0.71165 0.25194 0.0
C1006 C 0.62818 0.69996 0.27179 0.0
C1007 C 0.61456 0.70735 0.291 0.0
C1008 C 0.59585 0.7252 0.29002 0.0
C1009 C 0.64401 0.67823 0.27167 0.0
C1010 C 0.63076 0.65729 0.27706 0.0
C1011 C 0.67073 0.67747 0.26426 0.0
C1012 C 0.68608 0.69917 0.25913 0.0
C1013 C 0.68881 0.71867 0.27498 0.0
C1014 C 0.70312 0.73912 0.26998 0.0
C1015 C 0.71493 0.74026 0.24923 0.0
C1016 C 0.7125 0.72092 0.23344 0.0
C1017 C 0.69821 0.70043 0.23835 0.0
H1018 H 0.72599 0.75612 0.24539 0.0
H1019 H 0.58508 0.55715 0.28985 0.0
H1020 H 0.30012 0.81269 0.54887 0.0
H1021 H 0.33139 0.84711 0.54998 0.0
H1022 H 0.32195 0.84834 0.47775 0.0
H1023 H 0.29053 0.81419 0.47664 0.0
H1024 H 0.37854 0.84949 0.5338 0.0
H1025 H 0.33828 0.9046 0.46095 0.0
H1026 H 0.29664 0.92113 0.4451 0.0
H1027 H 0.25637 0.90894 0.50573 0.0
H1028 H 0.29798 0.89276 0.52219 0.0
H1029 H 0.48316 0.92407 0.49955 0.0
H1030 H 0.44522 0.89559 0.49972 0.0
H1031 H 0.39437 0.9509 0.52476 0.0
H1032 H 0.43229 0.97969 0.52389 0.0
H1033 H 0.36674 0.92347 0.49513 0.0
H1034 H 0.42348 0.90942 0.55998 0.0
H1035 H 0.46646 0.90132 0.58024 0.0
H1036 H 0.47166 0.83603 0.54031 0.0
H1037 H 0.42885 0.84387 0.51963 0.0
C1038 C 0.30441 0.82055 0.53329 0.0
C1039 C 0.29288 0.81072 0.51269 0.0
C1040 C 0.32232 0.84021 0.53391 0.0
C1041 C 0.32905 0.85053 0.51396 0.0
C1042 C 0.31684 0.8411 0.49343 0.0
C1043 C 0.29893 0.82145 0.49282 0.0
C1044 C 0.35065 0.86956 0.51443 0.0
C1045 C 0.37578 0.86567 0.52537 0.0
C1046 C 0.34737 0.89082 0.50348 0.0
C1047 C 0.32125 0.89734 0.49276 0.0
C1048 C 0.32045 0.90519 0.47083 0.0
C1049 C 0.29692 0.91462 0.46178 0.0
C1050 C 0.27401 0.91626 0.47449 0.0
C1051 C 0.27423 0.90773 0.49598 0.0
C1052 C 0.29778 0.89835 0.50515 0.0
C1053 C 0.46385 0.93017 0.50502 0.0
C1054 C 0.4607 0.95403 0.51195 0.0
C1055 C 0.4422 0.91383 0.50524 0.0
C1056 C 0.41704 0.92089 0.51281 0.0
C1057 C 0.41362 0.94494 0.51902 0.0
C1058 C 0.43526 0.96139 0.51853 0.0
C1059 C 0.39438 0.90319 0.51422 0.0
C1060 C 0.36928 0.90723 0.50353 0.0
C1061 C 0.39752 0.88222 0.52558 0.0
C1062 C 0.42306 0.8773 0.53819 0.0
C1063 C 0.43386 0.89339 0.55547 0.0
C1064 C 0.45818 0.88884 0.56702 0.0
C1065 C 0.4718 0.86819 0.56154 0.0
C1066 C 0.46109 0.85202 0.54453 0.0
C1067 C 0.43678 0.85648 0.53292 0.0
H1068 H 0.49064 0.86472 0.5705 0.0
H1069 H 0.25622 0.92444 0.46777 0.0
H1070 H 0.04963 0.70669 0.77931 0.0
H1071 H 0.08712 0.6799 0.78065 0.0
H1072 H 0.11558 0.70546 0.71909 0.0
H1073 H 0.07768 0.73211 0.71733 0.0
H1074 H 0.11697 0.65847 0.71809 0.0
H1075 H 0.14777 0.72222 0.77018 0.0
H1076 H 0.1449 0.75132 0.80246 0.0
H1077 H 0.13694 0.69518 0.84686 0.0
H1078 H 0.13937 0.66572 0.81479 0.0
H1079 H 0.239 0.59827 0.72596 0.0
H1080 H 0.2089 0.6315 0.72588 0.0
H1081 H 0.17277 0.6084 0.7855 0.0
H1082 H 0.20307 0.57518 0.78592 0.0
H1083 H 0.17786 0.65634 0.78644 0.0
H1084 H 0.14364 0.59287 0.73368 0.0
H1085 H 0.14655 0.5638 0.70133 0.0
H1086 H 0.16156 0.61988 0.65809 0.0
H1087 H 0.15903 0.64928 0.69024 0.0
C1088 C 0.06386 0.70675 0.76606 0.0
C1089 C 0.06067 0.7217 0.74827 0.0
C1090 C 0.08541 0.69145 0.76692 0.0
C1091 C 0.10444 0.69092 0.75017 0.0
C1092 C 0.10121 0.70564 0.73226 0.0
C1093 C 0.07956 0.72092 0.73133 0.0
C1094 C 0.12735 0.67462 0.75121 0.0
C1095 C 0.13058 0.6583 0.73288 0.0
C1096 C 0.14483 0.67408 0.77067 0.0
C1097 C 0.14354 0.69176 0.79004 0.0
C1098 C 0.14522 0.71607 0.7868 0.0
C1099 C 0.1437 0.73264 0.80507 0.0
C1100 C 0.14068 0.7251 0.82669 0.0
C1101 C 0.13925 0.70099 0.8301 0.0
C1102 C 0.14073 0.68435 0.81188 0.0
C1103 C 0.225 0.60043 0.73932 0.0
C1104 C 0.22322 0.58385 0.7558 0.0
C1105 C 0.20772 0.61942 0.73917 0.0
C1106 C 0.18819 0.6221 0.75538 0.0
C1107 C 0.18759 0.60655 0.77274 0.0
C1108 C 0.20496 0.58756 0.77296 0.0
C1109 C 0.16727 0.64014 0.75344 0.0
C1110 C 0.16439 0.65671 0.77159 0.0
C1111 C 0.15013 0.64093 0.7338 0.0
C1112 C 0.15137 0.62327 0.71441 0.0
C1113 C 0.14771 0.59899 0.7173 0.0
C1114 C 0.14927 0.58246 0.69899 0.0
C1115 C 0.15428 0.59 0.67768 0.0
C1116 C 0.15769 0.61408 0.67462 0.0
C1117 C 0.15617 0.63068 0.69286 0.0
H1118 H 0.15545 0.57719 0.66353 0.0
H1119 H 0.1395 0.73796 0.84081 0.0
H1120 H 0.84186 0.28566 0.52028 0.0
H1121 H 0.87082 0.32116 0.51968 0.0
H1122 H 0.8009 0.36159 0.50334 0.0
H1123 H 0.77207 0.32559 0.50292 0.0
H1124 H 0.84053 0.37718 0.48149 0.0
H1125 H 0.83205 0.36155 0.55871 0.0
H1126 H 0.83364 0.33809 0.59212 0.0
H1127 H 0.91876 0.32882 0.58548 0.0
H1128 H 0.91761 0.35198 0.55185 0.0
H1129 H 0.90215 0.48912 0.52113 0.0
H1130 H 0.87364 0.45276 0.51867 0.0
H1131 H 0.94499 0.41114 0.51492 0.0
H1132 H 0.9735 0.44756 0.51719 0.0
H1133 H 0.90494 0.39688 0.5468 0.0
H1134 H 0.91157 0.41468 0.46903 0.0
H1135 H 0.90838 0.44158 0.43822 0.0
H1136 H 0.8239 0.44988 0.44889 0.0
H1137 H 0.82665 0.42331 0.47992 0.0
C1138 C 0.83271 0.30211 0.51642 0.0
C1139 C 0.80473 0.30293 0.51163 0.0
C1140 C 0.84926 0.32247 0.51622 0.0
C1141 C 0.83808 0.34433 0.51203 0.0
C1142 C 0.81011 0.34502 0.50668 0.0
C1143 C 0.7936 0.32445 0.50638 0.0
C1144 C 0.85553 0.36638 0.51367 0.0
C1145 C 0.85434 0.38154 0.49592 0.0
C1146 C 0.8739 0.37219 0.53237 0.0
C1147 C 0.87468 0.35831 0.55264 0.0
C1148 C 0.85107 0.35437 0.56429 0.0
C1149 C 0.8519 0.34115 0.58327 0.0
C1150 C 0.87627 0.33192 0.59088 0.0
C1151 C 0.89989 0.33595 0.57955 0.0
C1152 C 0.89917 0.34915 0.56054 0.0
C1153 C 0.91166 0.47217 0.51983 0.0
C1154 C 0.93989 0.47098 0.51912 0.0
C1155 C 0.89542 0.45147 0.51835 0.0
C1156 C 0.90721 0.42928 0.51646 0.0
C1157 C 0.93551 0.4281 0.51627 0.0
C1158 C 0.95173 0.44883 0.51739 0.0
C1159 C 0.88991 0.40734 0.51466 0.0
C1160 C 0.89113 0.39232 0.5324 0.0
C1161 C 0.87129 0.40191 0.49619 0.0
C1162 C 0.86937 0.41717 0.47694 0.0
C1163 C 0.89233 0.42233 0.46486 0.0
C1164 C 0.8906 0.43752 0.44734 0.0
C1165 C 0.86597 0.44752 0.44163 0.0
C1166 C 0.84297 0.44218 0.45331 0.0
C1167 C 0.84459 0.42702 0.47085 0.0
H1168 H 0.86473 0.45938 0.42817 0.0
H1169 H 0.87687 0.32168 0.60558 0.0
H1170 H 0.30625 0.94535 0.20928 0.0
H1171 H 0.33156 0.90917 0.20655 0.0
H1172 H 0.29302 0.88501 0.26473 0.0
H1173 H 0.26809 0.92143 0.26792 0.0
H1174 H 0.3455 0.8833 0.27016 0.0
H1175 H 0.28086 0.85692 0.21161 0.0
H1176 H 0.25258 0.85928 0.17673 0.0
H1177 H 0.32389 0.86534 0.13889 0.0
H1178 H 0.35264 0.86336 0.17359 0.0
H1179 H 0.42279 0.7828 0.26847 0.0
H1180 H 0.38118 0.80424 0.26343 0.0
H1181 H 0.41523 0.83976 0.20896 0.0
H1182 H 0.45682 0.81804 0.21356 0.0
H1183 H 0.35991 0.83104 0.20204 0.0
H1184 H 0.42289 0.86549 0.26098 0.0
H1185 H 0.45204 0.86446 0.29555 0.0
H1186 H 0.38349 0.84381 0.33216 0.0
H1187 H 0.3539 0.84468 0.29771 0.0
C1188 C 0.30281 0.93219 0.22129 0.0
C1189 C 0.28542 0.93638 0.23899 0.0
C1190 C 0.31716 0.9114 0.2196 0.0
C1191 C 0.31404 0.8943 0.23535 0.0
C1192 C 0.29573 0.89799 0.25241 0.0
C1193 C 0.28155 0.91884 0.25423 0.0
C1194 C 0.33222 0.87407 0.23565 0.0
C1195 C 0.34808 0.8715 0.2554 0.0
C1196 C 0.33613 0.85907 0.21623 0.0
C1197 C 0.31892 0.86014 0.19526 0.0
C1198 C 0.29053 0.85892 0.19588 0.0
C1199 C 0.27441 0.86017 0.17613 0.0
C1200 C 0.28643 0.8625 0.15561 0.0
C1201 C 0.31461 0.86353 0.15479 0.0
C1202 C 0.33083 0.86232 0.1745 0.0
C1203 C 0.42128 0.79484 0.25513 0.0
C1204 C 0.44329 0.79911 0.2417 0.0
C1205 C 0.39745 0.80701 0.25224 0.0
C1206 C 0.3954 0.82388 0.23612 0.0
C1207 C 0.41649 0.82682 0.22153 0.0
C1208 C 0.44028 0.81448 0.22426 0.0
C1209 C 0.37305 0.84056 0.23645 0.0
C1210 C 0.35668 0.84254 0.21686 0.0
C1211 C 0.36862 0.85517 0.25598 0.0
C1212 C 0.38627 0.85491 0.27675 0.0
C1213 C 0.41408 0.86061 0.27638 0.0
C1214 C 0.43067 0.86007 0.29595 0.0
C1215 C 0.41968 0.85395 0.31602 0.0
C1216 C 0.392 0.8485 0.31659 0.0
C1217 C 0.37529 0.84906 0.29706 0.0
H1218 H 0.43259 0.8535 0.33115 0.0
H1219 H 0.27392 0.86346 0.14034 0.0
H1220 H 0.26113 0.43097 0.75544 0.0
H1221 H 0.28262 0.39283 0.75172 0.0
H1222 H 0.33385 0.41913 0.70168 0.0
H1223 H 0.31189 0.45718 0.70485 0.0
H1224 H 0.31957 0.37282 0.69207 0.0
H1225 H 0.35307 0.42231 0.75692 0.0
H1226 H 0.34696 0.4463 0.79214 0.0
H1227 H 0.31737 0.38493 0.82294 0.0
H1228 H 0.32206 0.36074 0.7875 0.0
H1229 H 0.43825 0.30789 0.70498 0.0
H1230 H 0.40272 0.33634 0.70174 0.0
H1231 H 0.36083 0.30483 0.75477 0.0
H1232 H 0.39679 0.27652 0.75855 0.0
H1233 H 0.36573 0.35077 0.76301 0.0
H1234 H 0.33521 0.30044 0.69911 0.0
H1235 H 0.33917 0.27673 0.66334 0.0
H1236 H 0.36358 0.33891 0.63119 0.0
H1237 H 0.36015 0.36296 0.66684 0.0
C1238 C 0.2767 0.42854 0.7434 0.0
C1239 C 0.28514 0.4472 0.7307 0.0
C1240 C 0.28893 0.40672 0.74128 0.0
C1241 C 0.31023 0.40332 0.72679 0.0
C1242 C 0.31752 0.42141 0.71304 0.0
C1243 C 0.30502 0.44318 0.71492 0.0
C1244 C 0.3266 0.38188 0.72752 0.0
C1245 C 0.3298 0.36802 0.70753 0.0
C1246 C 0.33944 0.37537 0.74785 0.0
C1247 C 0.33763 0.38974 0.76945 0.0
C1248 C 0.34509 0.41394 0.77114 0.0
C1249 C 0.34186 0.42759 0.79115 0.0
C1250 C 0.33191 0.41714 0.80981 0.0
C1251 C 0.32508 0.39301 0.80847 0.0
C1252 C 0.3279 0.37933 0.78839 0.0
C1253 C 0.42129 0.30667 0.71573 0.0
C1254 C 0.4205 0.28994 0.73212 0.0
C1255 C 0.40085 0.32294 0.71376 0.0
C1256 C 0.37895 0.32266 0.7279 0.0
C1257 C 0.37754 0.30539 0.74368 0.0
C1258 C 0.39809 0.28916 0.74576 0.0
C1259 C 0.35895 0.34166 0.72748 0.0
C1260 C 0.35518 0.35524 0.74757 0.0
C1261 C 0.34564 0.34788 0.70725 0.0
C1262 C 0.3476 0.33348 0.68572 0.0
C1263 C 0.34161 0.30904 0.68446 0.0
C1264 C 0.34373 0.29554 0.66419 0.0
C1265 C 0.35167 0.3063 0.64501 0.0
C1266 C 0.35744 0.33059 0.64605 0.0
C1267 C 0.35537 0.34418 0.66628 0.0
H1268 H 0.3533 0.29581 0.62934 0.0
H1269 H 0.32949 0.42774 0.8253 0.0
H1270 H 0.16921 0.80844 0.51414 0.0
H1271 H 0.12988 0.81605 0.53646 0.0
H1272 H 0.16227 0.77246 0.58736 0.0
H1273 H 0.20101 0.76394 0.5646 0.0
H1274 H 0.11134 0.7615 0.57856 0.0
H1275 H 0.16482 0.83547 0.59221 0.0
H1276 H 0.18782 0.87129 0.58001 0.0
H1277 H 0.11302 0.89289 0.54953 0.0
H1278 H 0.08966 0.85706 0.56136 0.0
H1279 H 0.0715 0.81997 0.68346 0.0
H1280 H 0.09379 0.825 0.64835 0.0
H1281 H 0.02559 0.79005 0.61092 0.0
H1282 H 0.00332 0.78462 0.64614 0.0
H1283 H 0.0855 0.84187 0.60572 0.0
H1284 H 0.05067 0.74855 0.57821 0.0
H1285 H 0.03024 0.7134 0.59407 0.0
H1286 H 0.07366 0.73113 0.65727 0.0
H1287 H 0.09433 0.76629 0.64173 0.0
C1288 C 0.1681 0.80079 0.53026 0.0
C1289 C 0.18815 0.78574 0.53781 0.0
C1290 C 0.14561 0.8051 0.54293 0.0
C1291 C 0.14325 0.79491 0.56357 0.0
C1292 C 0.16365 0.78036 0.57136 0.0
C1293 C 0.18583 0.77564 0.55849 0.0
C1294 C 0.11946 0.79893 0.57713 0.0
C1295 C 0.10549 0.7791 0.58423 0.0
C1296 C 0.11158 0.82188 0.58428 0.0
C1297 C 0.12558 0.84351 0.57745 0.0
C1298 C 0.15333 0.84781 0.5828 0.0
C1299 C 0.16642 0.86811 0.57597 0.0
C1300 C 0.15191 0.88432 0.56395 0.0
C1301 C 0.12425 0.88031 0.55881 0.0
C1302 C 0.11107 0.86003 0.56559 0.0
C1303 C 0.06101 0.81389 0.66769 0.0
C1304 C 0.03612 0.80144 0.66736 0.0
C1305 C 0.07358 0.81702 0.64766 0.0
C1306 C 0.06138 0.80766 0.62718 0.0
C1307 C 0.03527 0.79727 0.62665 0.0
C1308 C 0.02272 0.79406 0.64672 0.0
C1309 C 0.07833 0.80449 0.60769 0.0
C1310 C 0.09084 0.82436 0.59937 0.0
C1311 C 0.08536 0.7816 0.59972 0.0
C1312 C 0.07385 0.76003 0.60887 0.0
C1313 C 0.05594 0.74482 0.59544 0.0
C1314 C 0.04429 0.72495 0.60438 0.0
C1315 C 0.05065 0.72006 0.62666 0.0
C1316 C 0.06873 0.73496 0.64003 0.0
C1317 C 0.08039 0.75485 0.63117 0.0
H1318 H 0.04163 0.70472 0.63358 0.0
H1319 H 0.16208 0.90002 0.55865 0.0
H1320 H 0.23509 0.00834 0.35055 0.0
H1321 H 0.22726 0.99326 0.38745 0.0
H1322 H 0.17666 0.93645 0.35492 0.0
H1323 H 0.18294 0.95232 0.31867 0.0
H1324 H 0.15958 0.94519 0.39404 0.0
H1325 H 0.25203 0.93626 0.3643 0.0
H1326 H 0.29597 0.95315 0.35401 0.0
H1327 H 0.30759 0.98805 0.42 0.0
H1328 H 0.26366 0.97148 0.43058 0.0
H1329 H 0.20739 0.83192 0.41423 0.0
H1330 H 0.19775 0.8708 0.4005 0.0
H1331 H 0.21547 0.90338 0.46709 0.0
H1332 H 0.22637 0.86487 0.48073 0.0
H1333 H 0.24728 0.91878 0.42545 0.0
H1334 H 0.16113 0.91223 0.45695 0.0
H1335 H 0.11833 0.89213 0.46543 0.0
H1336 H 0.09546 0.88387 0.39492 0.0
H1337 H 0.13833 0.90357 0.38597 0.0
C1338 C 0.22168 0.99305 0.35152 0.0
C1339 C 0.20999 0.98114 0.33189 0.0
C1340 C 0.21728 0.98442 0.37254 0.0
C1341 C 0.202 0.96332 0.37392 0.0
C1342 C 0.18858 0.95271 0.35439 0.0
C1343 C 0.19237 0.96166 0.33358 0.0
C1344 C 0.20301 0.9499 0.39442 0.0
C1345 C 0.17874 0.93967 0.4012 0.0
C1346 C 0.22797 0.94328 0.40442 0.0
C1347 C 0.25447 0.95294 0.3981 0.0
C1348 C 0.26397 0.9476 0.37656 0.0
C1349 C 0.28885 0.95712 0.37068 0.0
C1350 C 0.30453 0.97178 0.38631 0.0
C1351 C 0.29544 0.97675 0.40789 0.0
C1352 C 0.27054 0.96734 0.41383 0.0
C1353 C 0.2093 0.84741 0.42587 0.0
C1354 C 0.21809 0.84559 0.44835 0.0
C1355 C 0.20358 0.86948 0.41812 0.0
C1356 C 0.20632 0.88981 0.43284 0.0
C1357 C 0.214 0.88789 0.45548 0.0
C1358 C 0.22008 0.86592 0.46318 0.0
C1359 C 0.20404 0.91313 0.42371 0.0
C1360 C 0.22808 0.92515 0.41921 0.0
C1361 C 0.17896 0.92109 0.41557 0.0
C1362 C 0.15305 0.9093 0.4208 0.0
C1363 C 0.14709 0.90595 0.44323 0.0
C1364 C 0.12278 0.89466 0.44813 0.0
C1365 C 0.1042 0.8867 0.43073 0.0
C1366 C 0.10987 0.89005 0.40839 0.0
C1367 C 0.13416 0.90132 0.4034 0.0
H1368 H 0.08539 0.87797 0.43455 0.0
H1369 H 0.32373 0.97921 0.38172 0.0
H1370 H 0.96329 0.75207 0.68322 0.0
H1371 H 0.96256 0.73237 0.64535 0.0
H1372 H 0.98443 0.66722 0.67397 0.0
H1373 H 0.9867 0.68718 0.71155 0.0
H1374 H 0.01017 0.67144 0.63744 0.0
H1375 H 0.91809 0.67936 0.65905 0.0
H1376 H 0.87845 0.70109 0.67153 0.0
H1377 H 0.87918 0.74054 0.61247 0.0
H1378 H 0.91906 0.71921 0.59978 0.0
H1379 H 0.92464 0.58773 0.56169 0.0
H1380 H 0.92595 0.62186 0.58891 0.0
H1381 H 0.99217 0.65305 0.55529 0.0
H1382 H 0.99094 0.61883 0.52795 0.0
H1383 H 0.92435 0.67048 0.59082 0.0
H1384 H 0.04058 0.66946 0.59808 0.0
H1385 H 0.07749 0.64289 0.5884 0.0
H1386 H 0.0245 0.58254 0.59411 0.0
H1387 H 0.98748 0.60875 0.60429 0.0
C1388 C 0.9686 0.73372 0.6813 0.0
C1389 C 0.97534 0.72117 0.70019 0.0
C1390 C 0.96786 0.72241 0.65972 0.0
C1391 C 0.97325 0.69827 0.65685 0.0
C1392 C 0.98034 0.68588 0.67576 0.0
C1393 C 0.98139 0.69723 0.69723 0.0
C1394 C 0.97021 0.68539 0.63441 0.0
C1395 C 0.99161 0.67164 0.62705 0.0
C1396 C 0.94574 0.68516 0.62107 0.0
C1397 C 0.92173 0.69792 0.62862 0.0
C1398 C 0.90991 0.69279 0.64881 0.0
C1399 C 0.88739 0.70501 0.65591 0.0
C1400 C 0.87636 0.72225 0.64284 0.0
C1401 C 0.88778 0.72723 0.62261 0.0
C1402 C 0.91034 0.71508 0.61545 0.0
C1403 C 0.93888 0.60222 0.55969 0.0
C1404 C 0.95791 0.60061 0.54299 0.0
C1405 C 0.93955 0.62174 0.57518 0.0
C1406 C 0.95941 0.63975 0.57425 0.0
C1407 C 0.97683 0.6392 0.55632 0.0
C1408 C 0.97606 0.6197 0.54072 0.0
C1409 C 0.96437 0.65681 0.59389 0.0
C1410 C 0.9433 0.67114 0.6008 0.0
C1411 C 0.98886 0.65706 0.60717 0.0
C1412 C 0.01116 0.6411 0.60158 0.0
C1413 C 0.03685 0.65054 0.59734 0.0
C1414 C 0.05779 0.63553 0.59179 0.0
C1415 C 0.0533 0.61104 0.59056 0.0
C1416 C 0.02791 0.60151 0.59498 0.0
C1417 C 0.00695 0.61643 0.60066 0.0
H1418 H 0.06952 0.59945 0.58624 0.0
H1419 H 0.85893 0.73169 0.64837 0.0
H1420 H 0.28928 0.76851 0.41958 0.0
H1421 H 0.32588 0.75808 0.39549 0.0
H1422 H 0.33742 0.69416 0.42974 0.0
H1423 H 0.30107 0.70481 0.45446 0.0
H1424 H 0.38335 0.71752 0.42893 0.0
H1425 H 0.31666 0.69152 0.37321 0.0
H1426 H 0.27444 0.69182 0.34962 0.0
H1427 H 0.30266 0.75461 0.3204 0.0
H1428 H 0.34488 0.75494 0.34403 0.0
H1429 H 0.48284 0.70922 0.33665 0.0
H1430 H 0.44748 0.69793 0.36186 0.0
H1431 H 0.42432 0.77052 0.36966 0.0
H1432 H 0.45962 0.78198 0.34487 0.0
H1433 H 0.38477 0.72875 0.34718 0.0
H1434 H 0.44578 0.75789 0.41191 0.0
H1435 H 0.48798 0.75607 0.43535 0.0
H1436 H 0.46962 0.68335 0.44605 0.0
H1437 H 0.42746 0.6847 0.42238 0.0
C1438 C 0.29912 0.75196 0.4217 0.0
C1439 C 0.29248 0.73763 0.43909 0.0
C1440 C 0.31998 0.74591 0.40778 0.0
C1441 C 0.33424 0.72522 0.4107 0.0
C1442 C 0.32664 0.71019 0.42722 0.0
C1443 C 0.30588 0.71633 0.44131 0.0
C1444 C 0.35904 0.72119 0.39836 0.0
C1445 C 0.38355 0.71929 0.41093 0.0
C1446 C 0.35935 0.72335 0.37487 0.0
C1447 C 0.33399 0.72325 0.36047 0.0
C1448 C 0.31382 0.70548 0.36185 0.0
C1449 C 0.28988 0.70553 0.34845 0.0
C1450 C 0.28587 0.72322 0.33352 0.0
C1451 C 0.30581 0.7409 0.33194 0.0
C1452 C 0.32979 0.74094 0.34531 0.0
C1453 C 0.47078 0.72284 0.34439 0.0
C1454 C 0.4736 0.7464 0.33871 0.0
C1455 C 0.45066 0.71635 0.35869 0.0
C1456 C 0.43339 0.73343 0.36731 0.0
C1457 C 0.4376 0.75719 0.36304 0.0
C1458 C 0.45775 0.76369 0.34895 0.0
C1459 C 0.40859 0.72649 0.37804 0.0
C1460 C 0.38426 0.72618 0.36504 0.0
C1461 C 0.40842 0.72203 0.40099 0.0
C1462 C 0.43374 0.72129 0.41512 0.0
C1463 C 0.45092 0.74144 0.41903 0.0
C1464 C 0.47478 0.74052 0.43242 0.0
C1465 C 0.48154 0.71958 0.4421 0.0
C1466 C 0.4644 0.69954 0.43848 0.0
C1467 C 0.44053 0.70038 0.4251 0.0
H1468 H 0.50001 0.7189 0.45247 0.0
H1469 H 0.26731 0.72323 0.32317 0.0
H1470 H 0.32455 0.05236 0.18243 0.0
H1471 H 0.32657 0.08196 0.15445 0.0
H1472 H 0.25083 0.05425 0.12326 0.0
H1473 H 0.24862 0.02464 0.15128 0.0
H1474 H 0.28848 0.07198 0.09213 0.0
H1475 H 0.24409 0.09646 0.15988 0.0
H1476 H 0.23993 0.1021 0.20086 0.0
H1477 H 0.31321 0.14501 0.20666 0.0
H1478 H 0.31767 0.13967 0.16555 0.0
H1479 H 0.2364 0.17294 0.04451 0.0
H1480 H 0.24278 0.13808 0.06587 0.0
H1481 H 0.30945 0.17406 0.10453 0.0
H1482 H 0.30235 0.20939 0.08372 0.0
H1483 H 0.2792 0.15121 0.13094 0.0
H1484 H 0.31868 0.13063 0.06025 0.0
H1485 H 0.31904 0.1255 0.01886 0.0
H1486 H 0.25259 0.07501 0.01787 0.0
H1487 H 0.25166 0.08001 0.05925 0.0
C1488 C 0.30882 0.05205 0.16915 0.0
C1489 C 0.28627 0.03645 0.16912 0.0
C1490 C 0.30996 0.06899 0.15323 0.0
C1491 C 0.28863 0.07045 0.13707 0.0
C1492 C 0.26745 0.05338 0.13564 0.0
C1493 C 0.26621 0.03651 0.15165 0.0
C1494 C 0.28642 0.09165 0.12406 0.0
C1495 C 0.28638 0.08932 0.10051 0.0
C1496 C 0.28383 0.11422 0.13509 0.0
C1497 C 0.28137 0.11744 0.15976 0.0
C1498 C 0.25941 0.10695 0.16994 0.0
C1499 C 0.25698 0.11013 0.19318 0.0
C1500 C 0.27641 0.12377 0.20643 0.0
C1501 C 0.29822 0.13439 0.1964 0.0
C1502 C 0.30066 0.13136 0.17312 0.0
C1503 C 0.25229 0.17343 0.05769 0.0
C1504 C 0.26896 0.19374 0.06252 0.0
C1505 C 0.2561 0.15343 0.06971 0.0
C1506 C 0.27706 0.15322 0.0864 0.0
C1507 C 0.2933 0.17376 0.09159 0.0
C1508 C 0.28922 0.19393 0.07977 0.0
C1509 C 0.28158 0.13179 0.09883 0.0
C1510 C 0.28182 0.13402 0.1224 0.0
C1511 C 0.28416 0.10916 0.08771 0.0
C1512 C 0.28503 0.10579 0.06285 0.0
C1513 C 0.30409 0.11849 0.0512 0.0
C1514 C 0.30441 0.11559 0.02774 0.0
C1515 C 0.28587 0.09992 0.01575 0.0
C1516 C 0.26698 0.0871 0.02719 0.0
C1517 C 0.26658 0.08993 0.05065 0.0
H1518 H 0.28613 0.09772 -0.00241 0.0
H1519 H 0.27455 0.12618 0.22444 0.0
H1520 H 0.83005 0.70647 0.97818 0.0
H1521 H 0.86523 0.69288 0.95325 0.0
H1522 H 0.82507 0.72554 0.8981 0.0
H1523 H 0.79039 0.73995 0.92308 0.0
H1524 H 0.85229 0.67502 0.8907 0.0
H1525 H 0.86443 0.76022 0.92093 0.0
H1526 H 0.86936 0.78891 0.95393 0.0
H1527 H 0.93508 0.75012 0.98108 0.0
H1528 H 0.93016 0.72099 0.94839 0.0
H1529 H 0.90699 0.7265 0.80349 0.0
H1530 H 0.88574 0.71229 0.83614 0.0
H1531 H 0.96327 0.71509 0.87285 0.0
H1532 H 0.98456 0.7305 0.84011 0.0
H1533 H 0.92849 0.73434 0.8977 0.0
H1534 H 0.92853 0.66055 0.8588 0.0
H1535 H 0.92475 0.63042 0.82705 0.0
H1536 H 0.83981 0.64247 0.81813 0.0
H1537 H 0.8431 0.67295 0.84957 0.0
C1538 C 0.82837 0.71019 0.96058 0.0
C1539 C 0.80774 0.72437 0.95246 0.0
C1540 C 0.84838 0.70237 0.94644 0.0
C1541 C 0.84748 0.70819 0.92399 0.0
C1542 C 0.82577 0.72077 0.91543 0.0
C1543 C 0.80617 0.72911 0.92967 0.0
C1544 C 0.87099 0.70478 0.9102 0.0
C1545 C 0.86922 0.68769 0.89217 0.0
C1546 C 0.89357 0.72062 0.91307 0.0
C1547 C 0.89674 0.73834 0.93242 0.0
C1548 C 0.87978 0.75774 0.93404 0.0
C1549 C 0.88258 0.77408 0.95266 0.0
C1550 C 0.90249 0.77131 0.96961 0.0
C1551 C 0.91964 0.75222 0.96795 0.0
C1552 C 0.91684 0.73579 0.94941 0.0
C1553 C 0.91955 0.72388 0.81845 0.0
C1554 C 0.94731 0.72956 0.81942 0.0
C1555 C 0.90747 0.71542 0.83702 0.0
C1556 C 0.92304 0.71191 0.85675 0.0
C1557 C 0.95097 0.71731 0.85767 0.0
C1558 C 0.96305 0.72619 0.83908 0.0
C1559 C 0.90906 0.70547 0.87697 0.0
C1560 C 0.9125 0.72077 0.89642 0.0
C1561 C 0.88841 0.68752 0.8756 0.0
C1562 C 0.88609 0.66908 0.85665 0.0
C1563 C 0.90905 0.65688 0.85002 0.0
C1564 C 0.90699 0.63972 0.83206 0.0
C1565 C 0.88205 0.63452 0.82059 0.0
C1566 C 0.85911 0.64647 0.82707 0.0
C1567 C 0.86105 0.66366 0.84502 0.0
H1568 H 0.88051 0.62124 0.80668 0.0
H1569 H 0.90469 0.78398 0.98398 0.0
H1570 H 0.32574 0.56418 0.67295 0.0
H1571 H 0.32652 0.58827 0.64048 0.0
H1572 H 0.2537 0.55211 0.61215 0.0
H1573 H 0.25258 0.52801 0.64485 0.0
H1574 H 0.29589 0.56724 0.57947 0.0
H1575 H 0.23895 0.59557 0.63785 0.0
H1576 H 0.22768 0.60519 0.67721 0.0
H1577 H 0.29478 0.65523 0.68543 0.0
H1578 H 0.30664 0.64565 0.64617 0.0
H1579 H 0.23892 0.66406 0.52194 0.0
H1580 H 0.24763 0.62958 0.54367 0.0
H1581 H 0.31677 0.66643 0.57773 0.0
H1582 H 0.30895 0.70056 0.5553 0.0
H1583 H 0.27599 0.64931 0.60622 0.0
H1584 H 0.32872 0.62216 0.54413 0.0
H1585 H 0.33638 0.6118 0.50418 0.0
H1586 H 0.27223 0.55896 0.50181 0.0
H1587 H 0.26392 0.56925 0.5417 0.0
C1588 C 0.31037 0.56084 0.65948 0.0
C1589 C 0.28891 0.54452 0.66146 0.0
C1590 C 0.31087 0.57457 0.64096 0.0
C1591 C 0.29004 0.57202 0.62414 0.0
C1592 C 0.26997 0.55419 0.62499 0.0
C1593 C 0.26932 0.54054 0.64367 0.0
C1594 C 0.28701 0.59046 0.60799 0.0
C1595 C 0.29129 0.58515 0.58517 0.0
C1596 C 0.281 0.61372 0.61561 0.0
C1597 C 0.27388 0.61969 0.63918 0.0
C1598 C 0.25146 0.60846 0.64812 0.0
C1599 C 0.24492 0.61393 0.67039 0.0
C1600 C 0.26057 0.63075 0.68383 0.0
C1601 C 0.28271 0.64217 0.67501 0.0
C1602 C 0.28934 0.63675 0.65274 0.0
C1603 C 0.25622 0.6646 0.53382 0.0
C1604 C 0.27324 0.68487 0.53713 0.0
C1605 C 0.26114 0.64497 0.54615 0.0
C1606 C 0.28267 0.64562 0.56233 0.0
C1607 C 0.30007 0.66566 0.56526 0.0
C1608 C 0.2956 0.68507 0.55249 0.0
C1609 C 0.28543 0.62634 0.57764 0.0
C1610 C 0.28079 0.63147 0.60042 0.0
C1611 C 0.2905 0.6029 0.5698 0.0
C1612 C 0.29554 0.59663 0.54585 0.0
C1613 C 0.31608 0.60848 0.53504 0.0
C1614 C 0.32058 0.60259 0.51242 0.0
C1615 C 0.30476 0.58477 0.50045 0.0
C1616 C 0.28445 0.57277 0.5111 0.0
C1617 C 0.27986 0.57861 0.53372 0.0
H1618 H 0.30827 0.58023 0.48293 0.0
H1619 H 0.25549 0.63498 0.70106 0.0
H1620 H 0.30347 0.06247 0.29306 0.0
H1621 H 0.31924 0.06817 0.33294 0.0
H1622 H 0.31208 0.99302 0.33914 0.0
H1623 H 0.29612 0.98725 0.29973 0.0
H1624 H 0.29305 0.04731 0.37622 0.0
H1625 H 0.37552 0.98224 0.36203 0.0
H1626 H 0.40249 0.96533 0.33148 0.0
H1627 H 0.39964 0.03065 0.29905 0.0
H1628 H 0.373 0.04801 0.32957 0.0
H1629 H 0.38683 0.99753 0.46519 0.0
H1630 H 0.35283 0.00125 0.43456 0.0
H1631 H 0.3823 0.0723 0.42673 0.0
H1632 H 0.41597 0.06891 0.45756 0.0
H1633 H 0.38699 0.02228 0.39153 0.0
H1634 H 0.33352 0.08082 0.43319 0.0
H1635 H 0.30449 0.09299 0.46406 0.0
H1636 H 0.24682 0.03718 0.44239 0.0
H1637 H 0.27571 0.0245 0.41157 0.0
C1638 C 0.3052 0.04726 0.30305 0.0
C1639 C 0.2988 0.02444 0.29345 0.0
C1640 C 0.31382 0.05054 0.32577 0.0
C1641 C 0.3165 0.03098 0.33885 0.0
C1642 C 0.30981 0.00827 0.3293 0.0
C1643 C 0.30095 0.00503 0.30679 0.0
C1644 C 0.32901 0.03375 0.36179 0.0
C1645 C 0.31369 0.04216 0.37966 0.0
C1646 C 0.35558 0.02632 0.36613 0.0
C1647 C 0.37212 0.01632 0.34795 0.0
C1648 C 0.38078 0.993 0.34842 0.0
C1649 C 0.39598 0.98334 0.33111 0.0
C1650 C 0.40271 0.99689 0.3133 0.0
C1651 C 0.39434 0.02015 0.31281 0.0
C1652 C 0.37916 0.0299 0.33009 0.0
C1653 C 0.38523 0.01429 0.45759 0.0
C1654 C 0.40412 0.03286 0.4635 0.0
C1655 C 0.36568 0.01644 0.44023 0.0
C1656 C 0.3648 0.03718 0.4287 0.0
C1657 C 0.38225 0.05639 0.43584 0.0
C1658 C 0.40159 0.05435 0.45333 0.0
C1659 C 0.35142 0.03653 0.40609 0.0
C1660 C 0.36649 0.0279 0.3882 0.0
C1661 C 0.32457 0.04352 0.40194 0.0
C1662 C 0.30721 0.05128 0.42044 0.0
C1663 C 0.31495 0.07084 0.43527 0.0
C1664 C 0.2984 0.07795 0.45267 0.0
C1665 C 0.27393 0.06576 0.45531 0.0
C1666 C 0.26586 0.04653 0.44043 0.0
C1667 C 0.28233 0.03937 0.423 0.0
H1668 H 0.26114 0.0713 0.46878 0.0
H1669 H 0.41445 0.98937 0.2999 0.0
H1670 H 0.86022 0.78326 0.01074 0.0
H1671 H 0.88957 0.81877 0.01052 0.0
H1672 H 0.81964 0.86225 0.01301 0.0
H1673 H 0.79023 0.82677 0.01361 0.0
H1674 H 0.85764 0.87782 0.98322 0.0
H1675 H 0.85594 0.85589 0.06 0.0
H1676 H 0.86064 0.82857 0.09035 0.0
H1677 H 0.94389 0.81897 0.0757 0.0
H1678 H 0.93957 0.84601 0.04503 0.0
H1679 H 0.92152 0.98726 0.02712 0.0
H1680 H 0.89295 0.95087 0.02282 0.0
H1681 H 0.96419 0.90964 0.01533 0.0
H1682 H 0.99265 0.94604 0.0192 0.0
H1683 H 0.92652 0.89251 0.04621 0.0
H1684 H 0.92987 0.91598 0.97125 0.0
H1685 H 0.92605 0.94287 0.94052 0.0
H1686 H 0.84112 0.94901 0.95052 0.0
H1687 H 0.84453 0.92254 0.98169 0.0
C1688 C 0.85112 0.80039 0.01115 0.0
C1689 C 0.82296 0.80226 0.01212 0.0
C1690 C 0.86789 0.82065 0.01098 0.0
C1691 C 0.85683 0.84319 0.01187 0.0
C1692 C 0.82861 0.84505 0.01221 0.0
C1693 C 0.81183 0.82477 0.01252 0.0
C1694 C 0.87481 0.86478 0.01371 0.0
C1695 C 0.87248 0.8812 0.99712 0.0
C1696 C 0.89465 0.86889 0.03154 0.0
C1697 C 0.89736 0.85279 0.05009 0.0
C1698 C 0.87519 0.84782 0.06314 0.0
C1699 C 0.8778 0.83241 0.08042 0.0
C1700 C 0.90253 0.82199 0.08492 0.0
C1701 C 0.92473 0.82703 0.07218 0.0
C1702 C 0.92223 0.84241 0.05486 0.0
C1703 C 0.93097 0.97036 0.02474 0.0
C1704 C 0.95914 0.96925 0.02356 0.0
C1705 C 0.9147 0.94967 0.02213 0.0
C1706 C 0.92647 0.92759 0.01861 0.0
C1707 C 0.95473 0.9265 0.01798 0.0
C1708 C 0.97093 0.94722 0.02018 0.0
C1709 C 0.90925 0.90564 0.01585 0.0
C1710 C 0.91172 0.88914 0.03228 0.0
C1711 C 0.88969 0.90147 -0.0022 0.0
C1712 C 0.88754 0.9175 0.97908 0.0
C1713 C 0.91043 0.92329 0.96713 0.0
C1714 C 0.90834 0.93842 0.94957 0.0
C1715 C 0.88338 0.94771 0.94362 0.0
C1716 C 0.86046 0.94184 0.95519 0.0
C1717 C 0.86247 0.92678 0.97282 0.0
H1718 H 0.88179 0.9594 0.93 0.0
H1719 H 0.9045 0.81007 0.0983 0.0
H1720 H 0.68638 0.20723 0.43973 0.0
H1721 H 0.65894 0.17082 0.44196 0.0
H1722 H 0.68442 0.16853 0.51199 0.0
H1723 H 0.71024 0.20559 0.51017 0.0
H1724 H 0.66678 0.1262 0.45197 0.0
H1725 H 0.63107 0.14789 0.54153 0.0
H1726 H 0.62798 0.18261 0.56826 0.0
H1727 H 0.62028 0.22753 0.51326 0.0
H1728 H 0.62206 0.193 0.48619 0.0
H1729 H 0.56211 0.05391 0.5187 0.0
H1730 H 0.59926 0.08305 0.51715 0.0
H1731 H 0.57878 0.08981 0.44675 0.0
H1732 H 0.54192 0.06021 0.44814 0.0
H1733 H 0.5967 0.1281 0.50888 0.0
H1734 H 0.63459 0.10506 0.4195 0.0
H1735 H 0.6402 0.0698 0.39391 0.0
H1736 H 0.64572 0.02661 0.45036 0.0
H1737 H 0.64053 0.06164 0.47631 0.0
C1738 C 0.68625 0.19883 0.45552 0.0
C1739 C 0.70044 0.20925 0.47477 0.0
C1740 C 0.67068 0.17796 0.45677 0.0
C1741 C 0.6692 0.1671 0.47725 0.0
C1742 C 0.68476 0.17677 0.49611 0.0
C1743 C 0.69979 0.19785 0.49499 0.0
C1744 C 0.64992 0.14674 0.47923 0.0
C1745 C 0.65128 0.12671 0.46426 0.0
C1746 C 0.63016 0.14706 0.49574 0.0
C1747 C 0.62713 0.16784 0.51182 0.0
C1748 C 0.6284 0.16513 0.53512 0.0
C1749 C 0.62679 0.18478 0.55034 0.0
C1750 C 0.62393 0.20726 0.54246 0.0
C1751 C 0.62235 0.2101 0.51934 0.0
C1752 C 0.62355 0.19048 0.50405 0.0
C1753 C 0.56586 0.06125 0.50277 0.0
C1754 C 0.54921 0.05466 0.48347 0.0
C1755 C 0.58699 0.07806 0.50196 0.0
C1756 C 0.59199 0.08859 0.48181 0.0
C1757 C 0.57564 0.0817 0.46241 0.0
C1758 C 0.55451 0.06485 0.46322 0.0
C1759 C 0.61328 0.10767 0.48137 0.0
C1760 C 0.61228 0.12749 0.49665 0.0
C1761 C 0.63345 0.10709 0.46528 0.0
C1762 C 0.63689 0.08596 0.44981 0.0
C1763 C 0.63711 0.08805 0.42645 0.0
C1764 C 0.6402 0.0681 0.41189 0.0
C1765 C 0.64323 0.04597 0.4205 0.0
C1766 C 0.64327 0.04375 0.44371 0.0
C1767 C 0.64021 0.06364 0.45834 0.0
H1768 H 0.6456 0.03055 0.40919 0.0
H1769 H 0.62289 0.22246 0.55427 0.0
H1770 H 0.76318 0.41957 0.26261 0.0
H1771 H 0.79301 0.38611 0.26256 0.0
H1772 H 0.83681 0.4145 0.20896 0.0
H1773 H 0.80684 0.44786 0.2086 0.0
H1774 H 0.83183 0.36622 0.20433 0.0
H1775 H 0.85792 0.42696 0.2628 0.0
H1776 H 0.85031 0.45356 0.29614 0.0
H1777 H 0.8329 0.3938 0.33428 0.0
H1778 H 0.83995 0.36683 0.30103 0.0
H1779 H 0.96306 0.32217 0.22052 0.0
H1780 H 0.92302 0.34581 0.21604 0.0
H1781 H 0.88839 0.31443 0.27261 0.0
H1782 H 0.92854 0.29101 0.27751 0.0
H1783 H 0.88525 0.36107 0.27631 0.0
H1784 H 0.86332 0.30004 0.21891 0.0
H1785 H 0.87099 0.27342 0.18563 0.0
H1786 H 0.88059 0.33311 0.14568 0.0
H1787 H 0.87337 0.36012 0.1788 0.0
C1788 C 0.77886 0.41853 0.25054 0.0
C1789 C 0.78295 0.4366 0.23587 0.0
C1790 C 0.79588 0.39939 0.25056 0.0
C1791 C 0.81739 0.39814 0.23607 0.0
C1792 C 0.82036 0.41525 0.22035 0.0
C1793 C 0.80327 0.43434 0.22023 0.0
C1794 C 0.83824 0.3803 0.23864 0.0
C1795 C 0.84365 0.36512 0.22 0.0
C1796 C 0.85318 0.37865 0.25929 0.0
C1797 C 0.84918 0.39488 0.27935 0.0
C1798 C 0.85227 0.41949 0.27824 0.0
C1799 C 0.84807 0.43464 0.29713 0.0
C1800 C 0.84108 0.42537 0.3173 0.0
C1801 C 0.83828 0.40094 0.31863 0.0
C1802 C 0.84237 0.38572 0.29977 0.0
C1803 C 0.94686 0.32013 0.23191 0.0
C1804 C 0.94905 0.30475 0.24942 0.0
C1805 C 0.9239 0.33356 0.22924 0.0
C1806 C 0.90263 0.33168 0.24386 0.0
C1807 C 0.90458 0.3161 0.26113 0.0
C1808 C 0.92755 0.30272 0.26387 0.0
C1809 C 0.87908 0.34701 0.24192 0.0
C1810 C 0.87322 0.36185 0.26069 0.0
C1811 C 0.86377 0.34832 0.22141 0.0
C1812 C 0.86801 0.33212 0.20141 0.0
C1813 C 0.86727 0.30751 0.20307 0.0
C1814 C 0.8715 0.29234 0.18422 0.0
C1815 C 0.87633 0.30157 0.16356 0.0
C1816 C 0.87687 0.32598 0.1617 0.0
C1817 C 0.87268 0.34123 0.1805 0.0
H1818 H 0.8796 0.2898 0.14899 0.0
H1819 H 0.83792 0.43709 0.33193 0.0
H1820 H 0.03511 0.5714 0.52162 0.0
H1821 H 0.06214 0.60827 0.52218 0.0
H1822 H 0.08047 0.59246 0.45285 0.0
H1823 H 0.05292 0.55585 0.45208 0.0
H1824 H 0.11437 0.61605 0.51695 0.0
H1825 H 0.08723 0.64297 0.42635 0.0
H1826 H 0.04821 0.63962 0.39888 0.0
H1827 H 0.99394 0.63451 0.45262 0.0
H1828 H 0.03256 0.63818 0.48041 0.0
H1829 H 0.21219 0.69882 0.48035 0.0
H1830 H 0.18132 0.66487 0.48443 0.0
H1831 H 0.1141 0.71148 0.48772 0.0
H1832 H 0.14485 0.74532 0.48379 0.0
H1833 H 0.10158 0.67469 0.45954 0.0
H1834 H 0.14105 0.68776 0.5335 0.0
H1835 H 0.17666 0.69254 0.56387 0.0
H1836 H 0.20031 0.62124 0.54927 0.0
H1837 H 0.16584 0.61639 0.51806 0.0
C1838 C 0.0446 0.57596 0.5064 0.0
C1839 C 0.04174 0.56086 0.48672 0.0
C1840 C 0.06022 0.59695 0.50681 0.0
C1841 C 0.07323 0.60326 0.48752 0.0
C1842 C 0.07032 0.58818 0.46784 0.0
C1843 C 0.05465 0.56722 0.46742 0.0
C1844 C 0.0903 0.62534 0.48804 0.0
C1845 C 0.11164 0.62888 0.5044 0.0
C1846 C 0.08626 0.6424 0.47203 0.0
C1847 C 0.06284 0.64063 0.45544 0.0
C1848 C 0.06696 0.64125 0.43231 0.0
C1849 C 0.04491 0.63927 0.41668 0.0
C1850 C 0.01862 0.63677 0.42399 0.0
C1851 C 0.01431 0.63635 0.44696 0.0
C1852 C 0.03628 0.63836 0.46266 0.0
C1853 C 0.19089 0.7018 0.48229 0.0
C1854 C 0.18091 0.72468 0.48191 0.0
C1855 C 0.17326 0.68241 0.48456 0.0
C1856 C 0.14537 0.68562 0.48649 0.0
C1857 C 0.13549 0.70853 0.4862 0.0
C1858 C 0.15308 0.72786 0.48397 0.0
C1859 C 0.12627 0.6651 0.48806 0.0
C1860 C 0.10445 0.66187 0.47209 0.0
C1861 C 0.12957 0.64864 0.50478 0.0
C1862 C 0.15101 0.65182 0.52315 0.0
C1863 C 0.15418 0.67323 0.53643 0.0
C1864 C 0.17422 0.67597 0.55382 0.0
C1865 C 0.1909 0.65728 0.5584 0.0
C1866 C 0.18761 0.63582 0.54557 0.0
C1867 C 0.16789 0.6331 0.52796 0.0
H1868 H 0.20631 0.65938 0.57194 0.0
H1869 H 0.00159 0.6352 0.41186 0.0
H1870 H 0.71887 0.08908 0.81344 0.0
H1871 H 0.68887 0.12219 0.81725 0.0
H1872 H 0.72225 0.15192 0.75945 0.0
H1873 H 0.75228 0.11867 0.75521 0.0
H1874 H 0.70365 0.18645 0.79661 0.0
H1875 H 0.67393 0.12182 0.74351 0.0
H1876 H 0.6666 0.07979 0.73095 0.0
H1877 H 0.61637 0.06975 0.78659 0.0
H1878 H 0.62349 0.11182 0.79951 0.0
H1879 H 0.58803 0.23734 0.74316 0.0
H1880 H 0.62916 0.21669 0.75298 0.0
H1881 H 0.5885 0.18422 0.80607 0.0
H1882 H 0.5473 0.20501 0.79655 0.0
H1883 H 0.612 0.15248 0.77407 0.0
H1884 H 0.63616 0.22268 0.82099 0.0
H1885 H 0.64376 0.26554 0.82921 0.0
H1886 H 0.70528 0.26635 0.78077 0.0
H1887 H 0.69776 0.22352 0.772 0.0
C1888 C 0.7206 0.103 0.80195 0.0
C1889 C 0.73752 0.10091 0.78366 0.0
C1890 C 0.70343 0.12196 0.80422 0.0
C1891 C 0.70319 0.13922 0.78845 0.0
C1892 C 0.72223 0.1387 0.77177 0.0
C1893 C 0.73926 0.1196 0.76932 0.0
C1894 C 0.67994 0.15476 0.78678 0.0
C1895 C 0.6836 0.17916 0.79162 0.0
C1896 C 0.65391 0.14509 0.78023 0.0
C1897 C 0.64952 0.11983 0.77263 0.0
C1898 C 0.66153 0.11058 0.75318 0.0
C1899 C 0.65739 0.08678 0.74597 0.0
C1900 C 0.64119 0.07205 0.75805 0.0
C1901 C 0.62899 0.08116 0.7773 0.0
C1902 C 0.63302 0.105 0.78455 0.0
C1903 C 0.58793 0.22603 0.75711 0.0
C1904 C 0.5644 0.22264 0.76899 0.0
C1905 C 0.61149 0.2144 0.76279 0.0
C1906 C 0.61181 0.19907 0.7803 0.0
C1907 C 0.58859 0.19611 0.79258 0.0
C1908 C 0.56512 0.20799 0.78711 0.0
C1909 C 0.63543 0.18432 0.78421 0.0
C1910 C 0.63189 0.1599 0.77949 0.0
C1911 C 0.66155 0.19417 0.79036 0.0
C1912 C 0.66623 0.2199 0.7957 0.0
C1913 C 0.65115 0.23202 0.81194 0.0
C1914 C 0.65547 0.25631 0.81673 0.0
C1915 C 0.67495 0.26867 0.80548 0.0
C1916 C 0.69019 0.25675 0.78946 0.0
C1917 C 0.68592 0.23246 0.78459 0.0
H1918 H 0.67827 0.28748 0.80922 0.0
H1919 H 0.63801 0.05362 0.75242 0.0
H1920 H 0.8223 0.56675 0.19733 0.0
H1921 H 0.82644 0.59437 0.16794 0.0
H1922 H 0.7808 0.54549 0.12108 0.0
H1923 H 0.77581 0.51806 0.15079 0.0
H1924 H 0.84297 0.59932 0.12749 0.0
H1925 H 0.73375 0.57419 0.09402 0.0
H1926 H 0.69196 0.55631 0.10741 0.0
H1927 H 0.71599 0.5802 0.17546 0.0
H1928 H 0.75797 0.59816 0.16244 0.0
H1929 H 0.8159 0.6749 0.04011 0.0
H1930 H 0.82146 0.64057 0.06233 0.0
H1931 H 0.75861 0.66514 0.10518 0.0
H1932 H 0.75169 0.69855 0.08177 0.0
H1933 H 0.75197 0.62179 0.09938 0.0
H1934 H 0.83062 0.67072 0.1199 0.0
H1935 H 0.87196 0.69441 0.11398 0.0
H1936 H 0.90833 0.6331 0.08386 0.0
H1937 H 0.86706 0.6091 0.08936 0.0
C1938 C 0.81383 0.5616 0.18058 0.0
C1939 C 0.79833 0.54054 0.17635 0.0
C1940 C 0.81628 0.57737 0.16377 0.0
C1941 C 0.80336 0.57222 0.1425 0.0
C1942 C 0.79045 0.54998 0.13755 0.0
C1943 C 0.78776 0.53427 0.15445 0.0
C1944 C 0.80016 0.5913 0.12691 0.0
C1945 C 0.82314 0.60414 0.1211 0.0
C1946 C 0.7742 0.59814 0.11936 0.0
C1947 C 0.74903 0.58733 0.12726 0.0
C1948 C 0.73006 0.57564 0.11182 0.0
C1949 C 0.70634 0.5655 0.11936 0.0
C1950 C 0.70123 0.56722 0.14227 0.0
C1951 C 0.71995 0.5789 0.15772 0.0
C1952 C 0.74374 0.58899 0.15028 0.0
C1953 C 0.80331 0.67289 0.05429 0.0
C1954 C 0.78349 0.68928 0.05942 0.0
C1955 C 0.80661 0.65337 0.06708 0.0
C1956 C 0.79087 0.65045 0.08577 0.0
C1957 C 0.771 0.66694 0.09084 0.0
C1958 C 0.76711 0.68606 0.07758 0.0
C1959 C 0.79484 0.6301 0.09989 0.0
C1960 C 0.77193 0.61692 0.1054 0.0
C1961 C 0.82081 0.62382 0.10816 0.0
C1962 C 0.84565 0.63819 0.10482 0.0
C1963 C 0.84736 0.66234 0.11186 0.0
C1964 C 0.87079 0.67581 0.10861 0.0
C1965 C 0.89273 0.66528 0.09849 0.0
C1966 C 0.89131 0.64124 0.09166 0.0
C1967 C 0.86791 0.62769 0.09486 0.0
H1968 H 0.91085 0.67574 0.09598 0.0
H1969 H 0.68276 0.5596 0.1481 0.0
H1970 H 0.96775 0.5036 0.42065 0.0
H1971 H 0.9352 0.50455 0.3884 0.0
H1972 H 0.88306 0.54738 0.42884 0.0
H1973 H 0.91559 0.54707 0.46095 0.0
H1974 H 0.8643 0.49734 0.40412 0.0
H1975 H 0.90219 0.57669 0.39715 0.0
H1976 H 0.94044 0.60465 0.39296 0.0
H1977 H 0.95976 0.56658 0.33147 0.0
H1978 H 0.92187 0.53813 0.33554 0.0
H1979 H 0.79077 0.55444 0.30113 0.0
H1980 H 0.81742 0.55544 0.33674 0.0
H1981 H 0.82377 0.47966 0.32944 0.0
H1982 H 0.79547 0.47853 0.29455 0.0
H1983 H 0.86683 0.54581 0.33815 0.0
H1984 H 0.8541 0.45718 0.38127 0.0
H1985 H 0.82567 0.42305 0.39991 0.0
H1986 H 0.76578 0.47033 0.39525 0.0
H1987 H 0.78581 0.51537 0.37487 0.0
C1988 C 0.94956 0.51355 0.42254 0.0
C1989 C 0.94417 0.52523 0.44331 0.0
C1990 C 0.93111 0.51412 0.40413 0.0
C1991 C 0.90695 0.52611 0.40638 0.0
C1992 C 0.90179 0.53821 0.42688 0.0
C1993 C 0.92041 0.53804 0.44514 0.0
C1994 C 0.88586 0.52419 0.38807 0.0
C1995 C 0.86452 0.50778 0.38953 0.0
C1996 C 0.88683 0.53795 0.36934 0.0
C1997 C 0.90944 0.55512 0.36681 0.0
C1998 C 0.91479 0.57412 0.38288 0.0
C1999 C 0.93635 0.5901 0.3805 0.0
C2000 C 0.95258 0.58735 0.362 0.0
C2001 C 0.94721 0.56866 0.34581 0.0
C2002 C 0.92569 0.55261 0.34815 0.0
C2003 C 0.79726 0.53798 0.30752 0.0
C2004 C 0.79142 0.51648 0.29517 0.0
C2005 C 0.81244 0.53851 0.32783 0.0
C2006 C 0.82269 0.51761 0.33581 0.0
C2007 C 0.81563 0.49593 0.32398 0.0
C2008 C 0.79972 0.49533 0.30393 0.0
C2009 C 0.84385 0.5192 0.3543 0.0
C2010 C 0.86589 0.53525 0.35264 0.0
C2011 C 0.84352 0.50483 0.37282 0.0
C2012 C 0.82167 0.4873 0.37655 0.0
C2013 C 0.83302 0.46052 0.38384 0.0
C2014 C 0.81564 0.43903 0.3959 0.0
C2015 C 0.78266 0.44234 0.40217 0.0
C2016 C 0.76493 0.48179 0.39108 0.0
C2017 C 0.78995 0.49766 0.37944 0.0
H2018 H 0.77376 0.42724 0.41007 0.0
H2019 H 0.96926 0.59973 0.36018 0.0
H2020 H 0.1816 0.46675 0.70949 0.0
H2021 H 0.15002 0.46768 0.67659 0.0
H2022 H 0.1787 0.5384 0.66598 0.0
H2023 H 0.21017 0.53762 0.69875 0.0
H2024 H 0.12196 0.53306 0.66658 0.0
H2025 H 0.19651 0.49747 0.63117 0.0
H2026 H 0.23248 0.46873 0.62637 0.0
H2027 H 0.17278 0.41201 0.61774 0.0
H2028 H 0.13642 0.44041 0.62285 0.0
H2029 H 0.05183 0.54567 0.563 0.0
H2030 H 0.08617 0.54399 0.59331 0.0
H2031 H 0.07035 0.46888 0.59488 0.0
H2032 H 0.03701 0.47031 0.56321 0.0
H2033 H 0.12146 0.47695 0.59916 0.0
H2034 H 0.04646 0.51354 0.63556 0.0
H2035 H 0.0113 0.5431 0.64051 0.0
H2036 H 0.07241 0.59873 0.64744 0.0
H2037 H 0.1079 0.56954 0.64227 0.0
C2038 C 0.18126 0.48239 0.69999 0.0
C2039 C 0.19825 0.50208 0.70656 0.0
C2040 C 0.16332 0.48288 0.68125 0.0
C2041 C 0.16209 0.50313 0.66896 0.0
C2042 C 0.17932 0.52269 0.67535 0.0
C2043 C 0.19738 0.52214 0.69395 0.0
C2044 C 0.14206 0.50422 0.64996 0.0
C2045 C 0.12193 0.52099 0.6517 0.0
C2046 C 0.14195 0.48818 0.63083 0.0
C2047 C 0.16374 0.47104 0.62763 0.0
C2048 C 0.19105 0.47885 0.62846 0.0
C2049 C 0.21151 0.46262 0.62564 0.0
C2050 C 0.20493 0.43855 0.62181 0.0
C2051 C 0.17785 0.43066 0.62074 0.0
C2052 C 0.1573 0.44682 0.62357 0.0
C2053 C 0.05551 0.5288 0.56992 0.0
C2054 C 0.04156 0.50812 0.56101 0.0
C2055 C 0.07508 0.52788 0.58736 0.0
C2056 C 0.08038 0.50642 0.59688 0.0
C2057 C 0.0665 0.48568 0.58791 0.0
C2058 C 0.04741 0.48648 0.56993 0.0
C2059 C 0.10084 0.5056 0.61582 0.0
C2060 C 0.12121 0.48895 0.61407 0.0
C2061 C 0.10117 0.52181 0.63499 0.0
C2062 C 0.07983 0.53934 0.63842 0.0
C2063 C 0.05239 0.53208 0.63807 0.0
C2064 C 0.0324 0.54877 0.64093 0.0
C2065 C 0.03962 0.57277 0.64433 0.0
C2066 C 0.06685 0.58013 0.64488 0.0
C2067 C 0.08691 0.56352 0.64202 0.0
H2068 H 0.02412 0.58566 0.64648 0.0
H2069 H 0.2208 0.42601 0.61963 0.0
H2070 H 0.53682 0.80729 0.16321 0.0
H2071 H 0.56267 0.81548 0.13034 0.0
H2072 H 0.63636 0.82086 0.1724 0.0
H2073 H 0.61046 0.81396 0.20528 0.0
H2074 H 0.64036 0.85013 0.14116 0.0
H2075 H 0.61244 0.76787 0.14398 0.0
H2076 H 0.57915 0.7348 0.1453 0.0
H2077 H 0.54184 0.75265 0.08244 0.0
H2078 H 0.57469 0.78605 0.08093 0.0
H2079 H 0.73472 0.78044 0.07846 0.0
H2080 H 0.70133 0.79493 0.1047 0.0
H2081 H 0.65629 0.82454 0.05024 0.0
H2082 H 0.69001 0.81082 0.02399 0.0
H2083 H 0.63228 0.78453 0.08177 0.0
H2084 H 0.6708 0.86328 0.07794 0.0
H2085 H 0.70861 0.89267 0.07904 0.0
H2086 H 0.73118 0.87677 0.14669 0.0
H2087 H 0.69376 0.84699 0.14586 0.0
C2088 C 0.55847 0.81067 0.16539 0.0
C2089 C 0.57184 0.80968 0.18655 0.0
C2090 C 0.57318 0.81533 0.14668 0.0
C2091 C 0.60148 0.81829 0.14888 0.0
C2092 C 0.61455 0.81864 0.17031 0.0
C2093 C 0.59979 0.81451 0.18905 0.0
C2094 C 0.61799 0.81833 0.12887 0.0
C2095 C 0.63847 0.83588 0.12808 0.0
C2096 C 0.61537 0.79981 0.11172 0.0
C2097 C 0.59576 0.77962 0.11249 0.0
C2098 C 0.59702 0.76482 0.13052 0.0
C2099 C 0.57825 0.74602 0.1313 0.0
C2100 C 0.55833 0.74168 0.11401 0.0
C2101 C 0.55722 0.75608 0.09585 0.0
C2102 C 0.5759 0.77495 0.09503 0.0
C2103 C 0.71799 0.79045 0.0722 0.0
C2104 C 0.71484 0.79452 0.04928 0.0
C2105 C 0.6991 0.79877 0.08715 0.0
C2106 C 0.67666 0.81087 0.07926 0.0
C2107 C 0.67375 0.81546 0.05652 0.0
C2108 C 0.69299 0.80763 0.04164 0.0
C2109 C 0.6548 0.81599 0.09445 0.0
C2110 C 0.63348 0.79923 0.09441 0.0
C2111 C 0.65717 0.83478 0.11114 0.0
C2112 C 0.67962 0.85274 0.11175 0.0
C2113 C 0.68399 0.86587 0.09297 0.0
C2114 C 0.70532 0.88265 0.09356 0.0
C2115 C 0.72233 0.88655 0.1129 0.0
C2116 C 0.71801 0.87372 0.13171 0.0
C2117 C 0.69672 0.85691 0.13119 0.0
H2118 H 0.73882 0.89955 0.11333 0.0
H2119 H 0.54382 0.72712 0.11464 0.0
H2120 H 0.66711 0.45722 0.201 0.0
H2121 H 0.6461 0.45755 0.16331 0.0
H2122 H 0.70396 0.51196 0.14762 0.0
H2123 H 0.72178 0.51416 0.18641 0.0
H2124 H 0.66385 0.52365 0.13113 0.0
H2125 H 0.69995 0.44897 0.12308 0.0
H2126 H 0.71235 0.40871 0.13178 0.0
H2127 H 0.62838 0.38691 0.12912 0.0
H2128 H 0.61541 0.42712 0.12073 0.0
H2129 H 0.57769 0.47586 0.02213 0.0
H2130 H 0.61596 0.46987 0.04871 0.0
H2131 H 0.58154 0.51774 0.09798 0.0
H2132 H 0.54385 0.52392 0.07186 0.0
H2133 H 0.62169 0.4531 0.08856 0.0
H2134 H 0.62935 0.55302 0.12603 0.0
H2135 H 0.63193 0.59292 0.11209 0.0
H2136 H 0.64653 0.56336 0.04586 0.0
H2137 H 0.64523 0.52333 0.0595 0.0
C2138 C 0.67533 0.46919 0.18942 0.0
C2139 C 0.6965 0.48534 0.19647 0.0
C2140 C 0.66362 0.46908 0.16765 0.0
C2141 C 0.67377 0.48428 0.15206 0.0
C2142 C 0.69556 0.49996 0.15907 0.0
C2143 C 0.70622 0.50094 0.18121 0.0
C2144 C 0.65974 0.48568 0.12948 0.0
C2145 C 0.65505 0.50813 0.12179 0.0
C2146 C 0.64913 0.46545 0.11636 0.0
C2147 C 0.65671 0.44115 0.12136 0.0
C2148 C 0.6841 0.43564 0.12448 0.0
C2149 C 0.69124 0.41281 0.12934 0.0
C2150 C 0.67116 0.39528 0.13102 0.0
C2151 C 0.64391 0.40052 0.1278 0.0
C2152 C 0.63666 0.42332 0.12294 0.0
C2153 C 0.57826 0.48495 0.03869 0.0
C2154 C 0.55784 0.50052 0.04478 0.0
C2155 C 0.60015 0.48157 0.05381 0.0
C2156 C 0.6019 0.49379 0.07512 0.0
C2157 C 0.58102 0.50862 0.08141 0.0
C2158 C 0.55933 0.51202 0.06644 0.0
C2159 C 0.625 0.49108 0.09136 0.0
C2160 C 0.63125 0.46846 0.09779 0.0
C2161 C 0.63864 0.51107 0.10249 0.0
C2162 C 0.63703 0.53503 0.09382 0.0
C2163 C 0.63305 0.55496 0.10847 0.0
C2164 C 0.63442 0.57763 0.10065 0.0
C2165 C 0.63942 0.58065 0.07814 0.0
C2166 C 0.64272 0.56098 0.06332 0.0
C2167 C 0.64167 0.53828 0.07109 0.0
H2168 H 0.64076 0.59823 0.0722 0.0
H2169 H 0.67673 0.37762 0.1348 0.0
H2170 H 0.45811 0.46369 0.97887 0.0
H2171 H 0.43229 0.42612 0.9756 0.0
H2172 H 0.41466 0.43527 0.04581 0.0
H2173 H 0.44176 0.47221 0.04937 0.0
H2174 H 0.42373 0.39176 0.03699 0.0
H2175 H 0.36868 0.44768 -0.00027 0.0
H2176 H 0.35805 0.47678 0.97186 0.0
H2177 H 0.36973 0.42464 0.91803 0.0
H2178 H 0.38074 0.39531 0.94557 0.0
H2179 H 0.28512 0.3277 0.00717 0.0
H2180 H 0.3155 0.36219 0.00538 0.0
H2181 H 0.38411 0.31705 0.00514 0.0
H2182 H 0.35364 0.28241 0.0072 0.0
H2183 H 0.35046 0.37767 0.97755 0.0
H2184 H 0.43753 0.34524 0.03397 0.0
H2185 H 0.44477 0.31789 0.06407 0.0
H2186 H 0.36311 0.3268 0.08369 0.0
H2187 H 0.35551 0.3544 0.0539 0.0
C2188 C 0.44905 0.4575 0.99368 0.0
C2189 C 0.45204 0.47087 0.01441 0.0
C2190 C 0.434 0.43612 0.99173 0.0
C2191 C 0.42097 0.42793 0.01034 0.0
C2192 C 0.42442 0.44111 0.03116 0.0
C2193 C 0.43987 0.46229 0.03319 0.0
C2194 C 0.40354 0.40584 0.00822 0.0
C2195 C 0.40779 0.38872 0.02391 0.0
C2196 C 0.3825 0.40173 0.99128 0.0
C2197 C 0.37584 0.41937 0.97472 0.0
C2198 C 0.36917 0.44247 0.98195 0.0
C2199 C 0.36304 0.459 0.96621 0.0
C2200 C 0.36328 0.45258 0.9432 0.0
C2201 C 0.36959 0.4296 0.93586 0.0
C2202 C 0.37576 0.41302 0.95152 0.0
C2203 C 0.30666 0.32508 0.00644 0.0
C2204 C 0.31703 0.30236 0.0074 0.0
C2205 C 0.32403 0.34483 0.0054 0.0
C2206 C 0.3522 0.34235 0.0054 0.0
C2207 C 0.36252 0.31952 0.00549 0.0
C2208 C 0.34511 0.29972 0.00663 0.0
C2209 C 0.37061 0.36377 0.0064 0.0
C2210 C 0.36658 0.38069 0.99047 0.0
C2211 C 0.39146 0.36799 0.02342 0.0
C2212 C 0.3959 0.35167 0.04157 0.0
C2213 C 0.42117 0.34141 0.04477 0.0
C2214 C 0.42532 0.32586 0.06176 0.0
C2215 C 0.40438 0.32055 0.07574 0.0
C2216 C 0.37928 0.33085 0.07281 0.0
C2217 C 0.37503 0.34643 0.05586 0.0
H2218 H 0.40763 0.30849 0.08887 0.0
H2219 H 0.3585 0.46538 0.93104 0.0
H2220 H 0.11885 0.25071 0.25062 0.0
H2221 H 0.15659 0.22391 0.25316 0.0
H2222 H 0.11169 0.18168 0.29722 0.0
H2223 H 0.07459 0.20867 0.2955 0.0
H2224 H 0.16445 0.18137 0.3082 0.0
H2225 H 0.10664 0.17454 0.23933 0.0
H2226 H 0.08736 0.19095 0.20502 0.0
H2227 H 0.16689 0.19854 0.18001 0.0
H2228 H 0.18681 0.18339 0.21475 0.0
H2229 H 0.19009 0.06123 0.28457 0.0
H2230 H 0.17175 0.10062 0.2899 0.0
H2231 H 0.22817 0.12718 0.24381 0.0
H2232 H 0.24646 0.08781 0.23833 0.0
H2233 H 0.17864 0.14062 0.23369 0.0
H2234 H 0.23601 0.14228 0.30017 0.0
H2235 H 0.25565 0.12741 0.33509 0.0
H2236 H 0.17774 0.12848 0.36388 0.0
H2237 H 0.15753 0.14302 0.32901 0.0
C2238 C 0.11731 0.23597 0.26121 0.0
C2239 C 0.09355 0.23148 0.27246 0.0
C2240 C 0.13889 0.22075 0.26269 0.0
C2241 C 0.13663 0.20055 0.27496 0.0
C2242 C 0.11381 0.19712 0.28759 0.0
C2243 C 0.0925 0.21251 0.28644 0.0
C2244 C 0.15586 0.18124 0.27244 0.0
C2245 C 0.16765 0.17245 0.29193 0.0
C2246 C 0.16045 0.16999 0.2511 0.0
C2247 C 0.14827 0.17816 0.22982 0.0
C2248 C 0.12006 0.17992 0.22662 0.0
C2249 C 0.10902 0.18911 0.20715 0.0
C2250 C 0.12588 0.19575 0.19034 0.0
C2251 C 0.15385 0.1934 0.19306 0.0
C2252 C 0.16505 0.18469 0.21272 0.0
C2253 C 0.19872 0.07552 0.27574 0.0
C2254 C 0.21941 0.07144 0.26077 0.0
C2255 C 0.18834 0.09802 0.27887 0.0
C2256 C 0.19879 0.11685 0.26737 0.0
C2257 C 0.21982 0.11288 0.25279 0.0
C2258 C 0.2301 0.09038 0.24957 0.0
C2259 C 0.18658 0.14029 0.26954 0.0
C2260 C 0.17605 0.14981 0.24995 0.0
C2261 C 0.18309 0.15215 0.29077 0.0
C2262 C 0.19523 0.14363 0.3119 0.0
C2263 C 0.22303 0.13921 0.31389 0.0
C2264 C 0.23427 0.13085 0.33369 0.0
C2265 C 0.21795 0.12697 0.35168 0.0
C2266 C 0.19036 0.1315 0.34993 0.0
C2267 C 0.17901 0.13983 0.33016 0.0
H2268 H 0.22669 0.12049 0.36699 0.0
H2269 H 0.11726 0.20267 0.17519 0.0
H2270 H 0.19524 0.33561 0.93983 0.0
H2271 H 0.19297 0.37058 0.91785 0.0
H2272 H 0.27947 0.3818 0.92758 0.0
H2273 H 0.2818 0.34698 0.94968 0.0
H2274 H 0.25336 0.42314 0.93241 0.0
H2275 H 0.25501 0.35724 0.87914 0.0
H2276 H 0.24137 0.31824 0.86082 0.0
H2277 H 0.16193 0.343 0.8454 0.0
H2278 H 0.17499 0.38209 0.86394 0.0
H2279 H 0.27386 0.49375 0.839 0.0
H2280 H 0.27352 0.4671 0.86945 0.0
H2281 H 0.18804 0.45245 0.85549 0.0
H2282 H 0.18872 0.47821 0.82415 0.0
H2283 H 0.21388 0.41354 0.85422 0.0
H2284 H 0.21723 0.48271 0.90666 0.0
H2285 H 0.23609 0.52112 0.9229 0.0
H2286 H 0.31223 0.4897 0.93758 0.0
H2287 H 0.29394 0.45116 0.92119 0.0
C2288 C 0.21371 0.3456 0.9373 0.0
C2289 C 0.23869 0.33858 0.94621 0.0
C2290 C 0.21241 0.36552 0.92478 0.0
C2291 C 0.2361 0.37863 0.92098 0.0
C2292 C 0.26099 0.37193 0.93036 0.0
C2293 C 0.26229 0.35198 0.94281 0.0
C2294 C 0.23499 0.3988 0.9065 0.0
C2295 C 0.24484 0.42112 0.91526 0.0
C2296 C 0.22393 0.39603 0.88418 0.0
C2297 C 0.21587 0.3725 0.87319 0.0
C2298 C 0.23454 0.3543 0.87206 0.0
C2299 C 0.22693 0.33219 0.86159 0.0
C2300 C 0.20077 0.32812 0.85203 0.0
C2301 C 0.18217 0.34617 0.85287 0.0
C2302 C 0.18966 0.36831 0.86335 0.0
C2303 C 0.25483 0.48538 0.84287 0.0
C2304 C 0.23132 0.48783 0.8292 0.0
C2305 C 0.25463 0.47021 0.86037 0.0
C2306 C 0.23072 0.45778 0.86485 0.0
C2307 C 0.20674 0.46179 0.85229 0.0
C2308 C 0.20707 0.47657 0.83448 0.0
C2309 C 0.23144 0.43829 0.88025 0.0
C2310 C 0.22187 0.41585 0.87151 0.0
C2311 C 0.24336 0.44095 0.90238 0.0
C2312 C 0.25423 0.46407 0.91254 0.0
C2313 C 0.23803 0.48402 0.91324 0.0
C2314 C 0.24863 0.50581 0.92249 0.0
C2315 C 0.27536 0.50786 0.93122 0.0
C2316 C 0.29153 0.48809 0.9308 0.0
C2317 C 0.28104 0.46626 0.92156 0.0
H2318 H 0.28353 0.52476 0.93833 0.0
H2319 H 0.19493 0.311 0.8439 0.0
H2320 H 0.32263 0.20915 0.98157 0.0
H2321 H 0.35521 0.19253 0.9556 0.0
H2322 H 0.31156 0.22162 0.90008 0.0
H2323 H 0.27951 0.23893 0.92598 0.0
H2324 H 0.33682 0.1715 0.89323 0.0
H2325 H 0.3539 0.25654 0.92092 0.0
H2326 H 0.36207 0.2864 0.95271 0.0
H2327 H 0.42844 0.24709 0.97792 0.0
H2328 H 0.4203 0.21679 0.94648 0.0
H2329 H 0.39798 0.21285 0.80164 0.0
H2330 H 0.37409 0.20156 0.8343 0.0
H2331 H 0.44952 0.2053 0.87415 0.0
H2332 H 0.47316 0.21813 0.84166 0.0
H2333 H 0.41632 0.2272 0.89621 0.0
H2334 H 0.41086 0.15108 0.86141 0.0
H2335 H 0.40457 0.1191 0.83147 0.0
H2336 H 0.32084 0.13552 0.82216 0.0
H2337 H 0.32666 0.16785 0.85179 0.0
C2338 C 0.31966 0.21147 0.96373 0.0
C2339 C 0.29889 0.22551 0.95567 0.0
C2340 C 0.33814 0.20189 0.949 0.0
C2341 C 0.33554 0.20583 0.92606 0.0
C2342 C 0.31358 0.21826 0.91776 0.0
C2343 C 0.29554 0.22833 0.93253 0.0
C2344 C 0.35791 0.20103 0.9113 0.0
C2345 C 0.35443 0.18341 0.89379 0.0
C2346 C 0.38131 0.21595 0.9129 0.0
C2347 C 0.38631 0.23432 0.93156 0.0
C2348 C 0.37007 0.25419 0.93336 0.0
C2349 C 0.37471 0.2712 0.95129 0.0
C2350 C 0.39573 0.26861 0.96734 0.0
C2351 C 0.41215 0.24904 0.96549 0.0
C2352 C 0.40752 0.23195 0.94765 0.0
C2353 C 0.40943 0.21101 0.81734 0.0
C2354 C 0.43723 0.21654 0.81934 0.0
C2355 C 0.39587 0.2042 0.83594 0.0
C2356 C 0.41005 0.20208 0.85667 0.0
C2357 C 0.43814 0.20674 0.85836 0.0
C2358 C 0.4516 0.21413 0.83986 0.0
C2359 C 0.39486 0.19824 0.87702 0.0
C2360 C 0.39955 0.2144 0.89575 0.0
C2361 C 0.37303 0.18145 0.87676 0.0
C2362 C 0.36925 0.16198 0.85886 0.0
C2363 C 0.39113 0.14798 0.8529 0.0
C2364 C 0.38764 0.12977 0.83598 0.0
C2365 C 0.36233 0.12528 0.82492 0.0
C2366 C 0.34044 0.13899 0.83077 0.0
C2367 C 0.3438 0.15724 0.84768 0.0
H2368 H 0.35968 0.11118 0.81182 0.0
H2369 H 0.39937 0.2818 0.98116 0.0
H2370 H 0.44693 0.57314 0.94706 0.0
H2371 H 0.41576 0.57629 0.9141 0.0
H2372 H 0.3837 0.50595 0.9222 0.0
H2373 H 0.41518 0.50258 0.95446 0.0
H2374 H 0.40297 0.50925 0.88196 0.0
H2375 H 0.3443 0.5548 0.92869 0.0
H2376 H 0.33288 0.58749 0.95551 0.0
H2377 H 0.3568 0.63789 0.90892 0.0
H2378 H 0.36869 0.60549 0.88191 0.0
H2379 H 0.3046 0.49686 0.79314 0.0
H2380 H 0.32779 0.50041 0.83026 0.0
H2381 H 0.35342 0.57196 0.81932 0.0
H2382 H 0.32872 0.56886 0.78252 0.0
H2383 H 0.33807 0.56985 0.86084 0.0
H2384 H 0.39658 0.52434 0.81416 0.0
H2385 H 0.40984 0.49181 0.7879 0.0
H2386 H 0.3878 0.44132 0.83501 0.0
H2387 H 0.37397 0.47351 0.86139 0.0
C2388 C 0.43258 0.55875 0.94214 0.0
C2389 C 0.43348 0.53758 0.953 0.0
C2390 C 0.41481 0.56052 0.92336 0.0
C2391 C 0.39756 0.54126 0.9156 0.0
C2392 C 0.39699 0.52092 0.92776 0.0
C2393 C 0.41491 0.51904 0.94619 0.0
C2394 C 0.38294 0.54072 0.8933 0.0
C2395 C 0.38842 0.5223 0.87748 0.0
C2396 C 0.36482 0.55825 0.88718 0.0
C2397 C 0.35765 0.57773 0.90338 0.0
C2398 C 0.34735 0.57286 0.92424 0.0
C2399 C 0.34074 0.59134 0.93946 0.0
C2400 C 0.34419 0.61475 0.93395 0.0
C2401 C 0.35417 0.61974 0.91318 0.0
C2402 C 0.36082 0.60133 0.8979 0.0
C2403 C 0.31487 0.51345 0.79878 0.0
C2404 C 0.31457 0.53272 0.78517 0.0
C2405 C 0.3284 0.51538 0.81989 0.0
C2406 C 0.34265 0.53637 0.8275 0.0
C2407 C 0.34252 0.55561 0.81382 0.0
C2408 C 0.3286 0.55379 0.79278 0.0
C2409 C 0.35773 0.53808 0.84967 0.0
C2410 C 0.35254 0.55677 0.86537 0.0
C2411 C 0.37625 0.52079 0.85575 0.0
C2412 C 0.38407 0.50136 0.83969 0.0
C2413 C 0.39434 0.5063 0.81884 0.0
C2414 C 0.40201 0.48791 0.80395 0.0
C2415 C 0.39973 0.46453 0.80981 0.0
C2416 C 0.38965 0.45945 0.83053 0.0
C2417 C 0.38186 0.47776 0.84544 0.0
H2418 H 0.40568 0.45032 0.79827 0.0
H2419 H 0.33906 0.62903 0.94576 0.0
H2420 H 0.73188 0.69564 0.98877 0.0
H2421 H 0.70009 0.6616 0.98925 0.0
H2422 H 0.63392 0.70876 0.99658 0.0
H2423 H 0.66546 0.74279 0.99558 0.0
H2424 H 0.63373 0.66809 0.02538 0.0
H2425 H 0.64101 0.68749 0.94751 0.0
H2426 H 0.66659 0.69496 0.91402 0.0
H2427 H 0.69908 0.62569 0.9147 0.0
H2428 H 0.67397 0.61795 0.94842 0.0
H2429 H 0.51961 0.59161 0.99491 0.0
H2430 H 0.55296 0.62469 -0.00173 0.0
H2431 H 0.61352 0.57844 0.97228 0.0
H2432 H 0.57996 0.54569 0.96839 0.0
H2433 H 0.61854 0.61804 0.95426 0.0
H2434 H 0.60783 0.59568 0.02867 0.0
H2435 H 0.58222 0.58675 0.06171 0.0
H2436 H 0.56027 0.65923 0.0703 0.0
H2437 H 0.58428 0.66836 0.03648 0.0
C2438 C 0.71058 0.69872 0.99065 0.0
C2439 C 0.70106 0.72182 0.99192 0.0
C2440 C 0.69247 0.67929 0.99094 0.0
C2441 C 0.66463 0.68267 0.99288 0.0
C2442 C 0.6553 0.70577 0.99511 0.0
C2443 C 0.67331 0.72516 0.99442 0.0
C2444 C 0.645 0.66222 0.99111 0.0
C2445 C 0.63014 0.65721 0.00982 0.0
C2446 C 0.64098 0.64769 0.97099 0.0
C2447 C 0.65586 0.65225 0.95062 0.0
C2448 C 0.65379 0.67393 0.94063 0.0
C2449 C 0.66817 0.6782 0.92159 0.0
C2450 C 0.68451 0.66084 0.91228 0.0
C2451 C 0.68645 0.63914 0.92195 0.0
C2452 C 0.67214 0.6348 0.94102 0.0
C2453 C 0.54011 0.58857 0.99013 0.0
C2454 C 0.54739 0.56614 0.98168 0.0
C2455 C 0.55917 0.60745 0.99199 0.0
C2456 C 0.586 0.60406 0.98587 0.0
C2457 C 0.59305 0.5816 0.97713 0.0
C2458 C 0.5739 0.56288 0.97496 0.0
C2459 C 0.60679 0.6238 0.98852 0.0
C2460 C 0.62201 0.62871 0.96995 0.0
C2461 C 0.61141 0.63795 0.00895 0.0
C2462 C 0.59757 0.63265 0.02975 0.0
C2463 C 0.59724 0.60968 0.03738 0.0
C2464 C 0.58294 0.60455 0.05623 0.0
C2465 C 0.5696 0.62238 0.06803 0.0
C2466 C 0.57051 0.6454 0.06105 0.0
C2467 C 0.58432 0.65053 0.04195 0.0
H2468 H 0.55836 0.61829 0.08246 0.0
H2469 H 0.69563 0.66417 0.89753 0.0
H2470 H 0.90472 0.79747 0.76602 0.0
H2471 H 0.86952 0.82714 0.76525 0.0
H2472 H 0.91538 0.86635 0.71956 0.0
H2473 H 0.95015 0.83678 0.71983 0.0
H2474 H 0.89601 0.89347 0.75894 0.0
H2475 H 0.86595 0.83697 0.69746 0.0
H2476 H 0.85234 0.79715 0.68106 0.0
H2477 H 0.78735 0.79393 0.72615 0.0
H2478 H 0.80086 0.83362 0.74306 0.0
H2479 H 0.80971 0.97642 0.71672 0.0
H2480 H 0.83564 0.94034 0.71402 0.0
H2481 H 0.78455 0.90891 0.76134 0.0
H2482 H 0.75892 0.94512 0.76453 0.0
H2483 H 0.80418 0.87649 0.72327 0.0
H2484 H 0.83288 0.93049 0.7857 0.0
H2485 H 0.84485 0.96992 0.80384 0.0
H2486 H 0.91089 0.97691 0.76027 0.0
H2487 H 0.89897 0.93763 0.74156 0.0
C2488 C 0.90722 0.8124 0.75579 0.0
C2489 C 0.93008 0.81473 0.74288 0.0
C2490 C 0.88713 0.82926 0.75534 0.0
C2491 C 0.88994 0.84884 0.74231 0.0
C2492 C 0.9129 0.85134 0.7297 0.0
C2493 C 0.93265 0.83434 0.72979 0.0
C2494 C 0.86911 0.86695 0.74173 0.0
C2495 C 0.87602 0.8898 0.751 0.0
C2496 C 0.84281 0.86192 0.73194 0.0
C2497 C 0.83462 0.83813 0.72171 0.0
C2498 C 0.84893 0.82768 0.70403 0.0
C2499 C 0.8412 0.80515 0.69461 0.0
C2500 C 0.81905 0.79298 0.70261 0.0
C2501 C 0.80454 0.80336 0.72 0.0
C2502 C 0.81221 0.82587 0.72951 0.0
C2503 C 0.80339 0.96152 0.72589 0.0
C2504 C 0.78247 0.96356 0.74094 0.0
C2505 C 0.81827 0.94098 0.72442 0.0
C2506 C 0.81206 0.92214 0.73764 0.0
C2507 C 0.78954 0.92328 0.751 0.0
C2508 C 0.775 0.94396 0.75282 0.0
C2509 C 0.83136 0.90302 0.74004 0.0
C2510 C 0.82415 0.88007 0.73126 0.0
C2511 C 0.85727 0.90779 0.75065 0.0
C2512 C 0.86483 0.93125 0.76204 0.0
C2513 C 0.8498 0.94053 0.77983 0.0
C2514 C 0.85659 0.96283 0.79025 0.0
C2515 C 0.87856 0.97595 0.78317 0.0
C2516 C 0.89384 0.96674 0.7657 0.0
C2517 C 0.88708 0.94445 0.75519 0.0
H2518 H 0.88378 0.99322 0.79126 0.0
H2519 H 0.81309 0.77555 0.69529 0.0
H2520 H 0.4745 0.22129 0.68497 0.0
H2521 H 0.47634 0.19314 0.65193 0.0
H2522 H 0.50767 0.14065 0.69448 0.0
H2523 H 0.50578 0.16853 0.72734 0.0
H2524 H 0.53369 0.14114 0.65446 0.0
H2525 H 0.44213 0.13914 0.67957 0.0
H2526 H 0.39895 0.15673 0.6895 0.0
H2527 H 0.38808 0.18026 0.62275 0.0
H2528 H 0.43143 0.16308 0.61252 0.0
H2529 H 0.51064 0.03563 0.58708 0.0
H2530 H 0.50963 0.06636 0.61765 0.0
H2531 H 0.46602 0.11089 0.57352 0.0
H2532 H 0.46574 0.0797 0.54325 0.0
H2533 H 0.44719 0.11667 0.61279 0.0
H2534 H 0.53846 0.11954 0.5872 0.0
H2535 H 0.58132 0.10167 0.57658 0.0
H2536 H 0.59211 0.07626 0.64258 0.0
H2537 H 0.54973 0.09446 0.65374 0.0
C2538 C 0.48203 0.20383 0.68717 0.0
C2539 C 0.48978 0.19699 0.70871 0.0
C2540 C 0.48301 0.18775 0.66833 0.0
C2541 C 0.49191 0.16469 0.67077 0.0
C2542 C 0.50072 0.15829 0.69217 0.0
C2543 C 0.49951 0.17422 0.71095 0.0
C2544 C 0.49084 0.14671 0.6514 0.0
C2545 C 0.51476 0.13573 0.6454 0.0
C2546 C 0.46627 0.13988 0.63929 0.0
C2547 C 0.44015 0.15007 0.64537 0.0
C2548 C 0.43063 0.14823 0.66707 0.0
C2549 C 0.40611 0.1581 0.67274 0.0
C2550 C 0.39082 0.16967 0.65679 0.0
C2551 C 0.39998 0.17133 0.6351 0.0
C2552 C 0.42451 0.16153 0.62936 0.0
C2553 C 0.50055 0.05186 0.58397 0.0
C2554 C 0.48834 0.05523 0.56271 0.0
C2555 C 0.50024 0.06957 0.60141 0.0
C2556 C 0.48848 0.09135 0.59778 0.0
C2557 C 0.4754 0.09438 0.57678 0.0
C2558 C 0.4752 0.07647 0.55947 0.0
C2559 C 0.49005 0.111 0.61577 0.0
C2560 C 0.46622 0.12226 0.62159 0.0
C2561 C 0.51476 0.11825 0.62757 0.0
C2562 C 0.54093 0.10831 0.62127 0.0
C2563 C 0.55011 0.11027 0.59948 0.0
C2564 C 0.57437 0.10016 0.59339 0.0
C2565 C 0.58956 0.08797 0.60895 0.0
C2566 C 0.58058 0.08599 0.63065 0.0
C2567 C 0.55652 0.0963 0.63691 0.0
H2568 H 0.60823 0.08002 0.60417 0.0
H2569 H 0.37184 0.17729 0.66121 0.0
H2570 H 0.47019 0.30211 0.79383 0.0
H2571 H 0.47209 0.33039 0.82665 0.0
H2572 H 0.5592 0.32679 0.83101 0.0
H2573 H 0.55733 0.29978 0.79717 0.0
H2574 H 0.48568 0.33384 0.86774 0.0
H2575 H 0.5893 0.37765 0.84968 0.0
H2576 H 0.6171 0.38463 0.81729 0.0
H2577 H 0.54572 0.38031 0.77322 0.0
H2578 H 0.51749 0.3736 0.80537 0.0
H2579 H 0.51994 0.41845 0.9594 0.0
H2580 H 0.52112 0.3851 0.93106 0.0
H2581 H 0.51526 0.43354 0.87825 0.0
H2582 H 0.51527 0.46665 0.90635 0.0
H2583 H 0.54882 0.40323 0.86681 0.0
H2584 H 0.46024 0.39895 0.8944 0.0
H2585 H 0.42615 0.39688 0.92312 0.0
H2586 H 0.45566 0.33 0.94132 0.0
H2587 H 0.4903 0.33189 0.91294 0.0
C2588 C 0.48972 0.30732 0.80188 0.0
C2589 C 0.51366 0.29912 0.7928 0.0
C2590 C 0.49081 0.32342 0.82073 0.0
C2591 C 0.51583 0.33129 0.83115 0.0
C2592 C 0.53966 0.3217 0.82293 0.0
C2593 C 0.53862 0.30615 0.80368 0.0
C2594 C 0.51701 0.35043 0.84966 0.0
C2595 C 0.49958 0.34895 0.86755 0.0
C2596 C 0.53457 0.37059 0.8493 0.0
C2597 C 0.55136 0.37484 0.82989 0.0
C2598 C 0.57955 0.37826 0.83308 0.0
C2599 C 0.59538 0.38216 0.81477 0.0
C2600 C 0.5832 0.38282 0.7932 0.0
C2601 C 0.55515 0.3797 0.78992 0.0
C2602 C 0.53923 0.37583 0.80817 0.0
C2603 C 0.51916 0.42188 0.94173 0.0
C2604 C 0.5176 0.44509 0.93505 0.0
C2605 C 0.51963 0.40283 0.92553 0.0
C2606 C 0.51799 0.4067 0.90242 0.0
C2607 C 0.5167 0.42999 0.89589 0.0
C2608 C 0.51663 0.44894 0.91201 0.0
C2609 C 0.51746 0.38672 0.88483 0.0
C2610 C 0.53508 0.38802 0.86712 0.0
C2611 C 0.49909 0.36708 0.88481 0.0
C2612 C 0.47809 0.3657 0.90172 0.0
C2613 C 0.4596 0.38388 0.90464 0.0
C2614 C 0.44016 0.38274 0.92085 0.0
C2615 C 0.43879 0.36336 0.9341 0.0
C2616 C 0.45679 0.34504 0.93108 0.0
C2617 C 0.47634 0.34613 0.91493 0.0
H2618 H 0.42373 0.36252 0.94665 0.0
H2619 H 0.59549 0.38582 0.77904 0.0
H2620 H 0.50022 0.85379 0.28316 0.0
H2621 H 0.49873 0.8805 0.31677 0.0
H2622 H 0.54352 0.83142 0.35511 0.0
H2623 H 0.54389 0.80394 0.3214 0.0
H2624 H 0.50758 0.85243 0.38085 0.0
H2625 H 0.57532 0.88012 0.33344 0.0
H2626 H 0.59399 0.89184 0.29802 0.0
H2627 H 0.53728 0.94745 0.29478 0.0
H2628 H 0.51801 0.93587 0.33002 0.0
H2629 H 0.54882 0.94543 0.46526 0.0
H2630 H 0.5522 0.91502 0.43434 0.0
H2631 H 0.49137 0.94927 0.39515 0.0
H2632 H 0.48743 0.97933 0.42608 0.0
H2633 H 0.53945 0.93482 0.37152 0.0
H2634 H 0.47086 0.90525 0.41856 0.0
H2635 H 0.45403 0.89427 0.45485 0.0
H2636 H 0.51519 0.8425 0.45971 0.0
H2637 H 0.53271 0.8535 0.42358 0.0
C2638 C 0.50948 0.84855 0.29882 0.0
C2639 C 0.52249 0.82698 0.29965 0.0
C2640 C 0.50876 0.86391 0.31802 0.0
C2641 C 0.52177 0.85839 0.33837 0.0
C2642 C 0.53359 0.83622 0.33956 0.0
C2643 C 0.53384 0.82055 0.32033 0.0
C2644 C 0.52391 0.87633 0.35786 0.0
C2645 C 0.51498 0.87032 0.37887 0.0
C2646 C 0.53338 0.89983 0.35538 0.0
C2647 C 0.54511 0.90701 0.3343 0.0
C2648 C 0.56673 0.89477 0.32511 0.0
C2649 C 0.57743 0.90139 0.30507 0.0
C2650 C 0.5668 0.92035 0.29414 0.0
C2651 C 0.54549 0.93277 0.30326 0.0
C2652 C 0.53469 0.9262 0.32328 0.0
C2653 C 0.53645 0.94664 0.44993 0.0
C2654 C 0.51789 0.96477 0.44806 0.0
C2655 C 0.53828 0.92919 0.43237 0.0
C2656 C 0.52192 0.92986 0.41254 0.0
C2657 C 0.50414 0.94844 0.41033 0.0
C2658 C 0.5019 0.96557 0.42801 0.0
C2659 C 0.52278 0.91096 0.3942 0.0
C2660 C 0.53232 0.91684 0.37346 0.0
C2661 C 0.51416 0.88739 0.39703 0.0
C2662 C 0.50331 0.8804 0.4185 0.0
C2663 C 0.48088 0.89167 0.42746 0.0
C2664 C 0.47119 0.88542 0.44799 0.0
C2665 C 0.48359 0.86776 0.45963 0.0
C2666 C 0.50564 0.85622 0.4507 0.0
C2667 C 0.51545 0.86245 0.43019 0.0
H2668 H 0.47608 0.86296 0.47554 0.0
H2669 H 0.5751 0.92545 0.27862 0.0
H2670 H 0.5129 0.61519 0.04956 0.0
H2671 H 0.51513 0.64533 0.08106 0.0
H2672 H 0.44563 0.61245 0.10859 0.0
H2673 H 0.44338 0.58207 0.07718 0.0
H2674 H 0.44497 0.66259 0.11101 0.0
H2675 H 0.5023 0.60097 0.12948 0.0
H2676 H 0.53851 0.57227 0.12694 0.0
H2677 H 0.59811 0.6289 0.12815 0.0
H2678 H 0.56212 0.65804 0.1299 0.0
H2679 H 0.46346 0.70125 0.22726 0.0
H2680 H 0.45848 0.6783 0.19103 0.0
H2681 H 0.52504 0.71844 0.16659 0.0
H2682 H 0.52975 0.74191 0.2029 0.0
H2683 H 0.52794 0.6668 0.16138 0.0
H2684 H 0.46735 0.72848 0.14501 0.0
H2685 H 0.42963 0.75482 0.15251 0.0
H2686 H 0.3747 0.69478 0.15209 0.0
H2687 H 0.4122 0.66804 0.14496 0.0
C2688 C 0.49796 0.6145 0.06223 0.0
C2689 C 0.47811 0.59617 0.06104 0.0
C2690 C 0.49934 0.63166 0.08023 0.0
C2691 C 0.48087 0.63092 0.09734 0.0
C2692 C 0.46017 0.61331 0.09561 0.0
C2693 C 0.4589 0.59598 0.07767 0.0
C2694 C 0.48397 0.64792 0.11745 0.0
C2695 C 0.46305 0.66341 0.12208 0.0
C2696 C 0.50773 0.64918 0.1318 0.0
C2697 C 0.52939 0.63173 0.1294 0.0
C2698 C 0.52304 0.60736 0.12868 0.0
C2699 C 0.54355 0.59099 0.12749 0.0
C2700 C 0.57057 0.59875 0.12738 0.0
C2701 C 0.57715 0.62292 0.12828 0.0
C2702 C 0.55668 0.63938 0.12925 0.0
C2703 C 0.47683 0.70537 0.21407 0.0
C2704 C 0.49691 0.72339 0.2178 0.0
C2705 C 0.47392 0.69229 0.19338 0.0
C2706 C 0.49129 0.69673 0.17609 0.0
C2707 C 0.51136 0.71481 0.1797 0.0
C2708 C 0.51396 0.72824 0.20035 0.0
C2709 C 0.48911 0.68156 0.15476 0.0
C2710 C 0.51013 0.66627 0.15 0.0
C2711 C 0.4653 0.68021 0.14056 0.0
C2712 C 0.44265 0.69624 0.14463 0.0
C2713 C 0.44727 0.72087 0.1467 0.0
C2714 C 0.42592 0.73588 0.15085 0.0
C2715 C 0.39979 0.72648 0.15282 0.0
C2716 C 0.39496 0.70204 0.15058 0.0
C2717 C 0.41625 0.68695 0.14645 0.0
H2718 H 0.38329 0.73813 0.15604 0.0
H2719 H 0.58635 0.58601 0.12672 0.0
loop_
_geom_bond_atom_site_label_1
_geom_bond_atom_site_label_2
_geom_bond_distance
_geom_bond_site_symmetry_2
_ccdc_geom_bond_type
Tb0 O3 2.451 1_565 S
Tb0 O4 2.594 1_566 S
Tb0 O5 2.374 1_556 S
Tb0 O13 2.344 1_456 S
Tb0 O15 2.352 1_465 S
Tb0 O17 2.428 . S
Tb0 O18 2.515 . S
C1 O5 1.262 . S
C1 O7 1.252 1_565 S
Tb2 O4 2.343 1_655 S
Tb2 O7 2.353 1_655 S
Tb2 O10 2.422 1_655 S
Tb2 O11 2.513 . S
Tb2 O12 2.453 1_545 S
Tb2 O13 2.595 1_545 S
Tb2 O14 2.374 1_554 S
O3 Tb0 2.451 1_545 S
O3 C19 1.212 1_556 S
O4 Tb0 2.594 1_544 S
O4 Tb2 2.343 1_455 S
O4 C19 1.276 . S
O5 Tb0 2.374 1_554 S
O5 C1 1.262 . S
C6 O10 1.269 1_655 S
C6 O11 1.246 . S
O7 C1 1.252 1_545 S
O7 Tb2 2.353 1_455 S
C8 O12 1.245 . S
C8 O13 1.259 . S
C9 O14 1.250 . S
C9 O15 1.263 . S
O10 Tb2 2.422 1_455 S
O10 C6 1.269 1_455 S
O11 Tb2 2.513 . S
O11 C6 1.246 . S
O12 Tb2 2.453 1_565 S
O12 C8 1.245 . S
O13 Tb0 2.344 1_654 S
O13 Tb2 2.595 1_565 S
O13 C8 1.259 . S
O14 Tb2 2.374 1_556 S
O14 C9 1.250 . S
O15 Tb0 2.352 1_645 S
O15 C9 1.263 . S
C16 O17 1.275 . S
C16 O18 1.246 . S
O17 Tb0 2.428 . S
O17 C16 1.275 . S
O18 Tb0 2.515 . S
O18 C16 1.246 . S
C19 O3 1.212 1_554 S
C19 O4 1.276 . S
Tb20 O23 2.453 . S
Tb20 O24 2.596 1_655 S
Tb20 O25 2.374 1_655 S
Tb20 O33 2.343 1_655 S
Tb20 O35 2.353 . S
Tb20 O37 2.427 . S
Tb20 O38 2.513 . S
C21 O25 1.251 . S
C21 O27 1.263 . S
Tb22 O24 2.343 . S
Tb22 O27 2.353 . S
Tb22 O30 2.427 . S
Tb22 O31 2.513 . S
Tb22 O32 2.453 . S
Tb22 O33 2.596 . S
Tb22 O34 2.374 1_455 S
O23 Tb20 2.453 . S
O23 C39 1.245 . S
O24 Tb20 2.596 1_455 S
O24 Tb22 2.343 . S
O24 C39 1.259 1_455 S
O25 Tb20 2.374 1_455 S
O25 C21 1.251 . S
C26 O30 1.275 . S
C26 O31 1.246 . S
O27 C21 1.263 . S
O27 Tb22 2.353 . S
C28 O32 1.245 . S
C28 O33 1.259 . S
C29 O34 1.250 . S
C29 O35 1.263 . S
O30 Tb22 2.427 . S
O30 C26 1.275 . S
O31 Tb22 2.513 . S
O31 C26 1.246 . S
O32 Tb22 2.453 . S
O32 C28 1.245 . S
O33 Tb20 2.343 1_455 S
O33 Tb22 2.596 . S
O33 C28 1.259 . S
O34 Tb22 2.374 1_655 S
O34 C29 1.250 . S
O35 Tb20 2.353 . S
O35 C29 1.263 . S
C36 O37 1.275 . S
C36 O38 1.246 . S
O37 Tb20 2.427 . S
O37 C36 1.275 . S
O38 Tb20 2.513 . S
O38 C36 1.246 . S
C39 O23 1.245 . S
C39 O24 1.259 1_655 S
Tb40 O43 2.453 . S
Tb40 O44 2.596 . S
Tb40 O45 2.374 . S
Tb40 O53 2.343 . S
Tb40 O55 2.353 . S
Tb40 O57 2.427 . S
Tb40 O58 2.513 . S
C41 O45 1.251 . S
C41 O47 1.263 . S
Tb42 O44 2.343 . S
Tb42 O47 2.353 . S
Tb42 O50 2.427 . S
Tb42 O51 2.513 . S
Tb42 O52 2.453 . S
Tb42 O53 2.596 . S
Tb42 O54 2.374 . S
O43 Tb40 2.453 . S
O43 C59 1.245 . S
O44 Tb40 2.596 . S
O44 Tb42 2.343 . S
O44 C59 1.259 . S
O45 Tb40 2.374 . S
O45 C41 1.251 . S
C46 O50 1.275 . S
C46 O51 1.246 . S
O47 C41 1.263 . S
O47 Tb42 2.353 . S
C48 O52 1.245 . S
C48 O53 1.259 . S
C49 O54 1.250 . S
C49 O55 1.263 . S
O50 Tb42 2.427 . S
O50 C46 1.275 . S
O51 Tb42 2.513 . S
O51 C46 1.246 . S
O52 Tb42 2.453 . S
O52 C48 1.245 . S
O53 Tb40 2.343 . S
O53 Tb42 2.596 . S
O53 C48 1.259 . S
O54 Tb42 2.374 . S
O54 C49 1.250 . S
O55 Tb40 2.353 . S
O55 C49 1.263 . S
C56 O57 1.275 . S
C56 O58 1.246 . S
O57 Tb40 2.427 . S
O57 C56 1.275 . S
O58 Tb40 2.513 . S
O58 C56 1.246 . S
C59 O43 1.245 . S
C59 O44 1.259 . S
Tb60 O63 2.453 . S
Tb60 O64 2.596 . S
Tb60 O65 2.374 . S
Tb60 O73 2.343 . S
Tb60 O75 2.353 . S
Tb60 O77 2.427 . S
Tb60 O78 2.513 . S
C61 O65 1.251 1_565 S
C61 O67 1.263 . S
Tb62 O64 2.343 1_565 S
Tb62 O67 2.353 . S
Tb62 O70 2.427 . S
Tb62 O71 2.513 . S
Tb62 O72 2.453 . S
Tb62 O73 2.596 1_565 S
Tb62 O74 2.374 1_565 S
O63 Tb60 2.453 . S
O63 C79 1.245 . S
O64 Tb60 2.596 . S
O64 Tb62 2.343 1_545 S
O64 C79 1.259 . S
O65 Tb60 2.374 . S
O65 C61 1.251 1_545 S
C66 O70 1.275 . S
C66 O71 1.246 . S
O67 C61 1.263 . S
O67 Tb62 2.353 . S
C68 O72 1.245 1_545 S
C68 O73 1.259 . S
C69 O74 1.250 . S
C69 O75 1.263 . S
O70 Tb62 2.427 . S
O70 C66 1.275 . S
O71 Tb62 2.513 . S
O71 C66 1.246 . S
O72 Tb62 2.453 . S
O72 C68 1.245 1_565 S
O73 Tb60 2.343 . S
O73 Tb62 2.596 1_545 S
O73 C68 1.259 . S
O74 Tb62 2.374 1_545 S
O74 C69 1.250 . S
O75 Tb60 2.353 . S
O75 C69 1.263 . S
C76 O77 1.275 . S
C76 O78 1.246 . S
O77 Tb60 2.427 . S
O77 C76 1.275 . S
O78 Tb60 2.513 . S
O78 C76 1.246 . S
C79 O63 1.245 . S
C79 O64 1.259 . S
Tb80 O83 2.453 . S
Tb80 O84 2.596 . S
Tb80 O85 2.374 . S
Tb80 O93 2.343 . S
Tb80 O95 2.353 . S
Tb80 O97 2.427 . S
Tb80 O98 2.513 . S
C81 O85 1.251 . S
C81 O87 1.263 . S
Tb82 O84 2.343 . S
Tb82 O87 2.353 . S
Tb82 O90 2.427 . S
Tb82 O91 2.513 . S
Tb82 O92 2.453 . S
Tb82 O93 2.596 . S
Tb82 O94 2.374 . S
O83 Tb80 2.453 . S
O83 C99 1.245 . S
O84 Tb80 2.596 . S
O84 Tb82 2.343 . S
O84 C99 1.259 . S
O85 Tb80 2.374 . S
O85 C81 1.251 . S
C86 O90 1.275 . S
C86 O91 1.246 . S
O87 C81 1.263 . S
O87 Tb82 2.353 . S
C88 O92 1.245 . S
C88 O93 1.259 . S
C89 O94 1.250 . S
C89 O95 1.263 . S
O90 Tb82 2.427 . S
O90 C86 1.275 . S
O91 Tb82 2.513 . S
O91 C86 1.246 . S
O92 Tb82 2.453 . S
O92 C88 1.245 . S
O93 Tb80 2.343 . S
O93 Tb82 2.596 . S
O93 C88 1.259 . S
O94 Tb82 2.374 . S
O94 C89 1.250 . S
O95 Tb80 2.353 . S
O95 C89 1.263 . S
C96 O97 1.275 . S
C96 O98 1.246 . S
O97 Tb80 2.427 . S
O97 C96 1.275 . S
O98 Tb80 2.513 . S
O98 C96 1.246 . S
C99 O83 1.245 . S
C99 O84 1.259 . S
Tb100 O103 2.453 . S
Tb100 O104 2.596 . S
Tb100 O105 2.374 . S
Tb100 O113 2.343 . S
Tb100 O115 2.353 . S
Tb100 O117 2.427 . S
Tb100 O118 2.513 . S
C101 O105 1.251 . S
C101 O107 1.263 . S
Tb102 O104 2.343 . S
Tb102 O107 2.353 . S
Tb102 O110 2.427 . S
Tb102 O111 2.513 . S
Tb102 O112 2.453 . S
Tb102 O113 2.596 . S
Tb102 O114 2.374 . S
O103 Tb100 2.453 . S
O103 C119 1.245 . S
O104 Tb100 2.596 . S
O104 Tb102 2.343 . S
O104 C119 1.259 . S
O105 Tb100 2.374 . S
O105 C101 1.251 . S
C106 O110 1.275 . S
C106 O111 1.246 . S
O107 C101 1.263 . S
O107 Tb102 2.353 . S
C108 O112 1.245 . S
C108 O113 1.259 . S
C109 O114 1.250 . S
C109 O115 1.263 . S
O110 Tb102 2.427 . S
O110 C106 1.275 . S
O111 Tb102 2.513 . S
O111 C106 1.246 . S
O112 Tb102 2.453 . S
O112 C108 1.245 . S
O113 Tb100 2.343 . S
O113 Tb102 2.596 . S
O113 C108 1.259 . S
O114 Tb102 2.374 . S
O114 C109 1.250 . S
O115 Tb100 2.353 . S
O115 C109 1.263 . S
C116 O117 1.275 . S
C116 O118 1.246 . S
O117 Tb100 2.427 . S
O117 C116 1.275 . S
O118 Tb100 2.513 . S
O118 C116 1.246 . S
C119 O103 1.245 . S
C119 O104 1.259 . S
Tb120 O123 2.453 . S
Tb120 O124 2.596 . S
Tb120 O125 2.374 . S
Tb120 O133 2.343 . S
Tb120 O135 2.353 . S
Tb120 O137 2.427 . S
Tb120 O138 2.513 . S
C121 O125 1.251 . S
C121 O127 1.263 . S
Tb122 O124 2.343 . S
Tb122 O127 2.353 . S
Tb122 O130 2.427 . S
Tb122 O131 2.513 . S
Tb122 O132 2.453 . S
Tb122 O133 2.596 . S
Tb122 O134 2.374 . S
O123 Tb120 2.453 . S
O123 C139 1.245 . S
O124 Tb120 2.596 . S
O124 Tb122 2.343 . S
O124 C139 1.259 . S
O125 Tb120 2.374 . S
O125 C121 1.251 . S
C126 O130 1.275 . S
C126 O131 1.246 . S
O127 C121 1.263 . S
O127 Tb122 2.353 . S
C128 O132 1.245 . S
C128 O133 1.259 . S
C129 O134 1.250 . S
C129 O135 1.263 . S
O130 Tb122 2.427 . S
O130 C126 1.275 . S
O131 Tb122 2.513 . S
O131 C126 1.246 . S
O132 Tb122 2.453 . S
O132 C128 1.245 . S
O133 Tb120 2.343 . S
O133 Tb122 2.596 . S
O133 C128 1.259 . S
O134 Tb122 2.374 . S
O134 C129 1.250 . S
O135 Tb120 2.353 . S
O135 C129 1.263 . S
C136 O137 1.275 . S
C136 O138 1.246 . S
O137 Tb120 2.427 . S
O137 C136 1.275 . S
O138 Tb120 2.513 . S
O138 C136 1.246 . S
C139 O123 1.245 . S
C139 O124 1.259 . S
Tb140 O143 2.453 . S
Tb140 O144 2.596 . S
Tb140 O145 2.374 . S
Tb140 O153 2.343 1_455 S
Tb140 O155 2.353 1_455 S
Tb140 O157 2.427 . S
Tb140 O158 2.513 . S
C141 O145 1.251 . S
C141 O147 1.263 . S
Tb142 O144 2.343 1_655 S
Tb142 O147 2.353 1_655 S
Tb142 O150 2.427 1_655 S
Tb142 O151 2.513 . S
Tb142 O152 2.453 . S
Tb142 O153 2.596 . S
Tb142 O154 2.374 . S
O143 Tb140 2.453 . S
O143 C159 1.245 . S
O144 Tb140 2.596 . S
O144 Tb142 2.343 1_455 S
O144 C159 1.259 . S
O145 Tb140 2.374 . S
O145 C141 1.251 . S
C146 O150 1.275 1_655 S
C146 O151 1.246 . S
O147 C141 1.263 . S
O147 Tb142 2.353 1_455 S
C148 O152 1.245 . S
C148 O153 1.259 . S
C149 O154 1.250 . S
C149 O155 1.263 . S
O150 Tb142 2.427 1_455 S
O150 C146 1.275 1_455 S
O151 Tb142 2.513 . S
O151 C146 1.246 . S
O152 Tb142 2.453 . S
O152 C148 1.245 . S
O153 Tb140 2.343 1_655 S
O153 Tb142 2.596 . S
O153 C148 1.259 . S
O154 Tb142 2.374 . S
O154 C149 1.250 . S
O155 Tb140 2.353 1_655 S
O155 C149 1.263 . S
C156 O157 1.275 . S
C156 O158 1.246 . S
O157 Tb140 2.427 . S
O157 C156 1.275 . S
O158 Tb140 2.513 . S
O158 C156 1.246 . S
C159 O143 1.245 . S
C159 O144 1.259 . S
Tb160 O163 2.453 . S
Tb160 O164 2.596 1_556 S
Tb160 O165 2.374 1_556 S
Tb160 O173 2.336 1_556 S
Tb160 O175 2.353 . S
Tb160 O177 2.427 . S
Tb160 O178 2.513 . S
C161 O165 1.251 . S
C161 O167 1.263 . S
Tb162 O164 2.343 . S
Tb162 O167 2.353 . S
Tb162 O170 2.427 . S
Tb162 O171 2.513 . S
Tb162 O172 2.453 . S
Tb162 O173 2.604 . S
Tb162 O174 2.374 1_554 S
O163 Tb160 2.453 . S
O163 C179 1.245 . S
O164 Tb160 2.596 1_554 S
O164 Tb162 2.343 . S
O164 C179 1.259 1_554 S
O165 Tb160 2.374 1_554 S
O165 C161 1.251 . S
C166 O170 1.275 . S
C166 O171 1.246 . S
O167 C161 1.263 . S
O167 Tb162 2.353 . S
C168 O172 1.245 . S
C168 O173 1.264 . S
C169 O174 1.250 . S
C169 O175 1.263 . S
O170 Tb162 2.427 . S
O170 C166 1.275 . S
O171 Tb162 2.513 . S
O171 C166 1.246 . S
O172 Tb162 2.453 . S
O172 C168 1.245 . S
O173 Tb160 2.336 1_554 S
O173 Tb162 2.604 . S
O173 C168 1.264 . S
O174 Tb162 2.374 1_556 S
O174 C169 1.250 . S
O175 Tb160 2.353 . S
O175 C169 1.263 . S
C176 O177 1.275 . S
C176 O178 1.246 . S
O177 Tb160 2.427 . S
O177 C176 1.275 . S
O178 Tb160 2.513 . S
O178 C176 1.246 . S
C179 O163 1.245 . S
C179 O164 1.259 1_556 S
Tb180 O183 2.453 . S
Tb180 O184 2.596 . S
Tb180 O185 2.374 1_545 S
Tb180 O193 2.343 . S
Tb180 O195 2.353 . S
Tb180 O197 2.427 . S
Tb180 O198 2.513 . S
C181 O185 1.251 . S
C181 O187 1.263 . S
Tb182 O184 2.343 1_565 S
Tb182 O187 2.353 . S
Tb182 O190 2.427 . S
Tb182 O191 2.513 . S
Tb182 O192 2.453 . S
Tb182 O193 2.596 1_565 S
Tb182 O194 2.374 1_565 S
O183 Tb180 2.453 . S
O183 C199 1.245 . S
O184 Tb180 2.596 . S
O184 Tb182 2.343 1_545 S
O184 C199 1.259 . S
O185 Tb180 2.374 1_565 S
O185 C181 1.251 . S
C186 O190 1.275 . S
C186 O191 1.246 . S
O187 C181 1.263 . S
O187 Tb182 2.353 . S
C188 O192 1.245 . S
C188 O193 1.259 1_565 S
C189 O194 1.250 . S
C189 O195 1.263 . S
O190 Tb182 2.427 . S
O190 C186 1.275 . S
O191 Tb182 2.513 . S
O191 C186 1.246 . S
O192 Tb182 2.453 . S
O192 C188 1.245 . S
O193 Tb180 2.343 . S
O193 Tb182 2.596 1_545 S
O193 C188 1.259 1_545 S
O194 Tb182 2.374 1_545 S
O194 C189 1.250 . S
O195 Tb180 2.353 . S
O195 C189 1.263 . S
C196 O197 1.275 . S
C196 O198 1.246 . S
O197 Tb180 2.427 . S
O197 C196 1.275 . S
O198 Tb180 2.513 . S
O198 C196 1.246 . S
C199 O183 1.245 . S
C199 O184 1.259 . S
Tb200 O203 2.453 . S
Tb200 O204 2.596 . S
Tb200 O205 2.374 . S
Tb200 O213 2.343 . S
Tb200 O215 2.353 . S
Tb200 O217 2.427 . S
Tb200 O218 2.513 . S
C201 O205 1.251 . S
C201 O207 1.263 . S
Tb202 O204 2.343 . S
Tb202 O207 2.353 . S
Tb202 O210 2.427 . S
Tb202 O211 2.513 . S
Tb202 O212 2.453 . S
Tb202 O213 2.596 . S
Tb202 O214 2.374 . S
O203 Tb200 2.453 . S
O203 C219 1.245 . S
O204 Tb200 2.596 . S
O204 Tb202 2.343 . S
O204 C219 1.259 . S
O205 Tb200 2.374 . S
O205 C201 1.251 . S
C206 O210 1.275 . S
C206 O211 1.246 . S
O207 C201 1.263 . S
O207 Tb202 2.353 . S
C208 O212 1.245 . S
C208 O213 1.259 . S
C209 O214 1.250 . S
C209 O215 1.263 . S
O210 Tb202 2.427 . S
O210 C206 1.275 . S
O211 Tb202 2.513 . S
O211 C206 1.246 . S
O212 Tb202 2.453 . S
O212 C208 1.245 . S
O213 Tb200 2.343 . S
O213 Tb202 2.596 . S
O213 C208 1.259 . S
O214 Tb202 2.374 . S
O214 C209 1.250 . S
O215 Tb200 2.353 . S
O215 C209 1.263 . S
C216 O217 1.275 . S
C216 O218 1.246 . S
O217 Tb200 2.427 . S
O217 C216 1.275 . S
O218 Tb200 2.513 . S
O218 C216 1.246 . S
C219 O203 1.245 . S
C219 O204 1.259 . S
Tb220 O223 2.453 . S
Tb220 O224 2.596 1_655 S
Tb220 O225 2.374 1_655 S
Tb220 O233 2.343 1_655 S
Tb220 O235 2.353 . S
Tb220 O237 2.427 . S
Tb220 O238 2.513 . S
C221 O225 1.251 . S
C221 O227 1.263 . S
Tb222 O224 2.343 . S
Tb222 O227 2.353 . S
Tb222 O230 2.427 . S
Tb222 O231 2.513 . S
Tb222 O232 2.453 . S
Tb222 O233 2.596 . S
Tb222 O234 2.374 1_455 S
O223 Tb220 2.453 . S
O223 C239 1.245 . S
O224 Tb220 2.596 1_455 S
O224 Tb222 2.343 . S
O224 C239 1.259 1_455 S
O225 Tb220 2.374 1_455 S
O225 C221 1.251 . S
C226 O230 1.275 . S
C226 O231 1.246 . S
O227 C221 1.263 . S
O227 Tb222 2.353 . S
C228 O232 1.245 . S
C228 O233 1.259 . S
C229 O234 1.250 . S
C229 O235 1.263 . S
O230 Tb222 2.427 . S
O230 C226 1.275 . S
O231 Tb222 2.513 . S
O231 C226 1.246 . S
O232 Tb222 2.453 . S
O232 C228 1.245 . S
O233 Tb220 2.343 1_455 S
O233 Tb222 2.596 . S
O233 C228 1.259 . S
O234 Tb222 2.374 1_655 S
O234 C229 1.250 . S
O235 Tb220 2.353 . S
O235 C229 1.263 . S
C236 O237 1.275 . S
C236 O238 1.246 . S
O237 Tb220 2.427 . S
O237 C236 1.275 . S
O238 Tb220 2.513 . S
O238 C236 1.246 . S
C239 O223 1.245 . S
C239 O224 1.259 1_655 S
Tb240 O243 2.453 . S
Tb240 O244 2.596 . S
Tb240 O245 2.374 . S
Tb240 O253 2.343 . S
Tb240 O255 2.353 . S
Tb240 O257 2.427 . S
Tb240 O258 2.513 . S
C241 O245 1.251 . S
C241 O247 1.263 . S
Tb242 O244 2.343 . S
Tb242 O247 2.353 . S
Tb242 O250 2.427 . S
Tb242 O251 2.513 . S
Tb242 O252 2.453 . S
Tb242 O253 2.596 . S
Tb242 O254 2.374 . S
O243 Tb240 2.453 . S
O243 C259 1.245 . S
O244 Tb240 2.596 . S
O244 Tb242 2.343 . S
O244 C259 1.259 . S
O245 Tb240 2.374 . S
O245 C241 1.251 . S
C246 O250 1.275 . S
C246 O251 1.246 . S
O247 C241 1.263 . S
O247 Tb242 2.353 . S
C248 O252 1.245 . S
C248 O253 1.259 . S
C249 O254 1.250 . S
C249 O255 1.263 . S
O250 Tb242 2.427 . S
O250 C246 1.275 . S
O251 Tb242 2.513 . S
O251 C246 1.246 . S
O252 Tb242 2.453 . S
O252 C248 1.245 . S
O253 Tb240 2.343 . S
O253 Tb242 2.596 . S
O253 C248 1.259 . S
O254 Tb242 2.374 . S
O254 C249 1.250 . S
O255 Tb240 2.353 . S
O255 C249 1.263 . S
C256 O257 1.275 . S
C256 O258 1.246 . S
O257 Tb240 2.427 . S
O257 C256 1.275 . S
O258 Tb240 2.513 . S
O258 C256 1.246 . S
C259 O243 1.245 . S
C259 O244 1.259 . S
Tb260 O263 2.453 . S
Tb260 O264 2.596 1_556 S
Tb260 O265 2.374 1_556 S
Tb260 O273 2.343 1_556 S
Tb260 O275 2.353 . S
Tb260 O277 2.427 . S
Tb260 O278 2.513 . S
C261 O265 1.251 . S
C261 O267 1.263 . S
Tb262 O264 2.343 . S
Tb262 O267 2.353 . S
Tb262 O270 2.427 . S
Tb262 O271 2.513 . S
Tb262 O272 2.453 . S
Tb262 O273 2.596 . S
Tb262 O274 2.374 1_554 S
O263 Tb260 2.453 . S
O263 C279 1.276 . S
O264 Tb260 2.596 1_554 S
O264 Tb262 2.343 . S
O264 C279 1.248 1_554 S
O265 Tb260 2.374 1_554 S
O265 C261 1.251 . S
C266 O270 1.275 . S
C266 O271 1.246 . S
O267 C261 1.263 . S
O267 Tb262 2.353 . S
C268 O272 1.245 . S
C268 O273 1.259 . S
C269 O274 1.250 . S
C269 O275 1.263 . S
O270 Tb262 2.427 . S
O270 C266 1.275 . S
O271 Tb262 2.513 . S
O271 C266 1.246 . S
O272 Tb262 2.453 . S
O272 C268 1.245 . S
O273 Tb260 2.343 1_554 S
O273 Tb262 2.596 . S
O273 C268 1.259 . S
O274 Tb262 2.374 1_556 S
O274 C269 1.250 . S
O275 Tb260 2.353 . S
O275 C269 1.263 . S
C276 O277 1.275 . S
C276 O278 1.246 . S
O277 Tb260 2.427 . S
O277 C276 1.275 . S
O278 Tb260 2.513 . S
O278 C276 1.246 . S
C279 O263 1.276 . S
C279 O264 1.248 1_556 S
Tb280 O283 2.453 . S
Tb280 O284 2.596 . S
Tb280 O285 2.374 . S
Tb280 O293 2.343 1_565 S
Tb280 O295 2.353 1_565 S
Tb280 O297 2.427 1_565 S
Tb280 O298 2.513 . S
C281 O285 1.251 . S
C281 O287 1.263 . S
Tb282 O284 2.343 1_545 S
Tb282 O287 2.353 1_545 S
Tb282 O290 2.427 . S
Tb282 O291 2.513 . S
Tb282 O292 2.453 . S
Tb282 O293 2.596 . S
Tb282 O294 2.374 . S
O283 Tb280 2.453 . S
O283 C299 1.245 . S
O284 Tb280 2.596 . S
O284 Tb282 2.343 1_565 S
O284 C299 1.259 . S
O285 Tb280 2.374 . S
O285 C281 1.251 . S
C286 O290 1.275 . S
C286 O291 1.246 . S
O287 C281 1.263 . S
O287 Tb282 2.353 1_565 S
C288 O292 1.245 . S
C288 O293 1.259 . S
C289 O294 1.250 . S
C289 O295 1.263 . S
O290 Tb282 2.427 . S
O290 C286 1.275 . S
O291 Tb282 2.513 . S
O291 C286 1.246 . S
O292 Tb282 2.453 . S
O292 C288 1.245 . S
O293 Tb280 2.343 1_545 S
O293 Tb282 2.596 . S
O293 C288 1.259 . S
O294 Tb282 2.374 . S
O294 C289 1.250 . S
O295 Tb280 2.353 1_545 S
O295 C289 1.263 . S
C296 O297 1.275 . S
C296 O298 1.246 1_545 S
O297 Tb280 2.427 1_545 S
O297 C296 1.275 . S
O298 Tb280 2.513 . S
O298 C296 1.246 1_565 S
C299 O283 1.245 . S
C299 O284 1.259 . S
Tb300 O303 2.453 . S
Tb300 O304 2.596 1_556 S
Tb300 O305 2.374 1_556 S
Tb300 O313 2.337 1_556 S
Tb300 O315 2.353 . S
Tb300 O317 2.427 . S
Tb300 O318 2.513 . S
C301 O305 1.251 . S
C301 O307 1.263 . S
Tb302 O304 2.343 . S
Tb302 O307 2.353 . S
Tb302 O310 2.427 . S
Tb302 O311 2.513 . S
Tb302 O312 2.453 . S
Tb302 O313 2.602 . S
Tb302 O314 2.374 1_554 S
O303 Tb300 2.453 . S
O303 C319 1.231 1_556 S
O304 Tb300 2.596 1_554 S
O304 Tb302 2.343 . S
O304 C319 1.266 . S
O305 Tb300 2.374 1_554 S
O305 C301 1.251 . S
C306 O310 1.275 . S
C306 O311 1.246 . S
O307 C301 1.263 . S
O307 Tb302 2.353 . S
C308 O312 1.245 . S
C308 O313 1.264 . S
C309 O314 1.250 . S
C309 O315 1.263 . S
O310 Tb302 2.427 . S
O310 C306 1.275 . S
O311 Tb302 2.513 . S
O311 C306 1.246 . S
O312 Tb302 2.453 . S
O312 C308 1.245 . S
O313 Tb300 2.337 1_554 S
O313 Tb302 2.602 . S
O313 C308 1.264 . S
O314 Tb302 2.374 1_556 S
O314 C309 1.250 . S
O315 Tb300 2.353 . S
O315 C309 1.263 . S
C316 O317 1.275 . S
C316 O318 1.246 . S
O317 Tb300 2.427 . S
O317 C316 1.275 . S
O318 Tb300 2.513 . S
O318 C316 1.246 . S
C319 O303 1.231 1_554 S
C319 O304 1.266 . S
H320 C338 0.951 . S
H321 C340 0.951 . S
H322 C342 0.950 . S
H323 C343 0.950 . S
H324 C345 0.950 . S
H325 C348 0.950 . S
H326 C349 0.950 . S
H327 C351 0.950 . S
H328 C352 0.950 . S
H329 C353 0.951 . S
H330 C355 0.951 . S
H331 C357 0.950 . S
H332 C358 0.950 . S
H333 C360 0.950 . S
H334 C363 0.950 . S
H335 C364 0.950 . S
H336 C366 0.950 . S
H337 C367 0.950 . S
C338 H320 0.951 . S
C338 C339 1.366 . S
C338 C340 1.388 . S
C339 C338 1.366 . S
C339 C343 1.385 1_655 S
C340 H321 0.951 . S
C340 C338 1.388 . S
C340 C341 1.366 . S
C341 C340 1.366 . S
C341 C342 1.414 1_655 S
C341 C344 1.499 . S
C342 H322 0.950 . S
C342 C341 1.414 1_455 S
C342 C343 1.374 . S
C343 H323 0.950 . S
C343 C339 1.385 1_455 S
C343 C342 1.374 . S
C344 C341 1.499 . S
C344 C345 1.373 1_655 S
C344 C346 1.389 . S
C345 H324 0.950 . S
C345 C344 1.373 1_455 S
C345 C361 1.377 . S
C346 C344 1.389 . S
C346 C347 1.524 . S
C346 C360 1.377 . S
C347 C346 1.524 . S
C347 C348 1.397 . S
C347 C352 1.363 . S
C348 H325 0.950 . S
C348 C347 1.397 . S
C348 C349 1.334 . S
C349 H326 0.950 . S
C349 C348 1.334 . S
C349 C350 1.287 . S
C350 C349 1.287 . S
C350 C351 1.524 . S
C350 H369 0.913 . S
C351 H327 0.950 . S
C351 C350 1.524 . S
C351 C352 1.415 . S
C352 H328 0.950 . S
C352 C347 1.363 . S
C352 C351 1.415 . S
C353 H329 0.951 . S
C353 C354 1.366 . S
C353 C355 1.388 . S
C354 C353 1.366 . S
C354 C358 1.385 1_455 S
C355 H330 0.951 . S
C355 C353 1.388 . S
C355 C356 1.374 . S
C356 C355 1.374 . S
C356 C357 1.405 1_455 S
C356 C359 1.499 1_455 S
C357 H331 0.950 . S
C357 C356 1.405 1_655 S
C357 C358 1.374 . S
C358 H332 0.950 . S
C358 C354 1.385 1_655 S
C358 C357 1.374 . S
C359 C356 1.499 1_655 S
C359 C360 1.373 . S
C359 C361 1.389 1_655 S
C360 H333 0.950 . S
C360 C346 1.377 . S
C360 C359 1.373 . S
C361 C345 1.377 . S
C361 C359 1.389 1_455 S
C361 C362 1.524 . S
C362 C361 1.524 . S
C362 C363 1.397 . S
C362 C367 1.363 . S
C363 H334 0.950 . S
C363 C362 1.397 . S
C363 C364 1.334 . S
C364 H335 0.950 . S
C364 C363 1.334 . S
C364 C365 1.287 . S
C365 C364 1.287 . S
C365 C366 1.524 . S
C365 H368 0.999 . S
C366 H336 0.950 . S
C366 C365 1.524 . S
C366 C367 1.415 . S
C367 H337 0.950 . S
C367 C362 1.363 . S
C367 C366 1.415 . S
H368 C365 0.999 . S
H369 C350 0.913 . S
H370 C388 0.951 . S
H371 C390 0.951 . S
H372 C392 0.950 . S
H373 C393 0.950 . S
H374 C395 0.950 . S
H375 C398 0.950 . S
H376 C399 0.950 . S
H377 C401 0.950 . S
H378 C402 0.950 . S
H379 C403 0.951 . S
H380 C405 0.951 . S
H381 C407 0.950 . S
H382 C408 0.950 . S
H383 C410 0.950 . S
H384 C413 0.950 . S
H385 C414 0.950 . S
H386 C416 0.950 . S
H387 C417 0.950 . S
C388 H370 0.951 . S
C388 C389 1.366 . S
C388 C390 1.388 . S
C389 C388 1.366 . S
C389 C393 1.385 . S
C390 H371 0.951 . S
C390 C388 1.388 . S
C390 C391 1.366 . S
C391 C390 1.366 . S
C391 C392 1.414 . S
C391 C394 1.499 . S
C392 H372 0.950 . S
C392 C391 1.414 . S
C392 C393 1.374 . S
C393 H373 0.950 . S
C393 C389 1.385 . S
C393 C392 1.374 . S
C394 C391 1.499 . S
C394 C395 1.373 . S
C394 C396 1.389 . S
C395 H374 0.950 . S
C395 C394 1.373 . S
C395 C411 1.377 . S
C396 C394 1.389 . S
C396 C397 1.524 . S
C396 C410 1.377 . S
C397 C396 1.524 . S
C397 C398 1.397 . S
C397 C402 1.363 . S
C398 H375 0.950 . S
C398 C397 1.397 . S
C398 C399 1.334 . S
C399 H376 0.950 . S
C399 C398 1.334 . S
C399 C400 1.287 . S
C400 C399 1.287 . S
C400 C401 1.524 . S
C400 H419 0.913 . S
C401 H377 0.950 . S
C401 C400 1.524 . S
C401 C402 1.415 . S
C402 H378 0.950 . S
C402 C397 1.363 . S
C402 C401 1.415 . S
C403 H379 0.951 . S
C403 C404 1.366 . S
C403 C405 1.388 . S
C404 C403 1.366 . S
C404 C408 1.385 . S
C405 H380 0.951 . S
C405 C403 1.388 . S
C405 C406 1.366 . S
C406 C405 1.366 . S
C406 C407 1.414 . S
C406 C409 1.499 . S
C407 H381 0.950 . S
C407 C406 1.414 . S
C407 C408 1.374 . S
C408 H382 0.950 . S
C408 C404 1.385 . S
C408 C407 1.374 . S
C409 C406 1.499 . S
C409 C410 1.373 . S
C409 C411 1.389 . S
C410 H383 0.950 . S
C410 C396 1.377 . S
C410 C409 1.373 . S
C411 C395 1.377 . S
C411 C409 1.389 . S
C411 C412 1.524 . S
C412 C411 1.524 . S
C412 C413 1.397 . S
C412 C417 1.363 . S
C413 H384 0.950 . S
C413 C412 1.397 . S
C413 C414 1.334 . S
C414 H385 0.950 . S
C414 C413 1.334 . S
C414 C415 1.287 . S
C415 C414 1.287 . S
C415 C416 1.524 . S
C415 H418 0.999 . S
C416 H386 0.950 . S
C416 C415 1.524 . S
C416 C417 1.415 . S
C417 H387 0.950 . S
C417 C412 1.363 . S
C417 C416 1.415 . S
H418 C415 0.999 . S
H419 C400 0.913 . S
H420 C438 0.951 . S
H421 C440 0.951 . S
H422 C442 0.950 . S
H423 C443 0.950 . S
H424 C445 0.950 . S
H425 C448 0.950 . S
H426 C449 0.950 . S
H427 C451 0.950 . S
H428 C452 0.950 . S
H429 C453 0.951 . S
H430 C455 0.951 . S
H431 C457 0.950 . S
H432 C458 0.950 . S
H433 C460 0.950 . S
H434 C463 0.950 . S
H435 C464 0.950 . S
H436 C466 0.950 . S
H437 C467 0.950 . S
C438 H420 0.951 . S
C438 C439 1.366 . S
C438 C440 1.388 . S
C439 C438 1.366 . S
C439 C443 1.385 . S
C440 H421 0.951 . S
C440 C438 1.388 . S
C440 C441 1.366 . S
C441 C440 1.366 . S
C441 C442 1.414 . S
C441 C444 1.499 . S
C442 H422 0.950 . S
C442 C441 1.414 . S
C442 C443 1.374 . S
C443 H423 0.950 . S
C443 C439 1.385 . S
C443 C442 1.374 . S
C444 C441 1.499 . S
C444 C445 1.373 . S
C444 C446 1.389 . S
C445 H424 0.950 . S
C445 C444 1.373 . S
C445 C461 1.377 . S
C446 C444 1.389 . S
C446 C447 1.524 . S
C446 C460 1.377 . S
C447 C446 1.524 . S
C447 C448 1.397 . S
C447 C452 1.363 . S
C448 H425 0.950 . S
C448 C447 1.397 . S
C448 C449 1.334 . S
C449 H426 0.950 . S
C449 C448 1.334 . S
C449 C450 1.287 . S
C450 C449 1.287 . S
C450 C451 1.524 . S
C450 H469 0.913 . S
C451 H427 0.950 . S
C451 C450 1.524 . S
C451 C452 1.415 . S
C452 H428 0.950 . S
C452 C447 1.363 . S
C452 C451 1.415 . S
C453 H429 0.951 . S
C453 C454 1.366 . S
C453 C455 1.388 . S
C454 C453 1.366 . S
C454 C458 1.385 . S
C455 H430 0.951 . S
C455 C453 1.388 . S
C455 C456 1.366 . S
C456 C455 1.366 . S
C456 C457 1.414 . S
C456 C459 1.499 . S
C457 H431 0.950 . S
C457 C456 1.414 . S
C457 C458 1.374 . S
C458 H432 0.950 . S
C458 C454 1.385 . S
C458 C457 1.374 . S
C459 C456 1.499 . S
C459 C460 1.373 . S
C459 C461 1.389 . S
C460 H433 0.950 . S
C460 C446 1.377 . S
C460 C459 1.373 . S
C461 C445 1.377 . S
C461 C459 1.389 . S
C461 C462 1.524 . S
C462 C461 1.524 . S
C462 C463 1.397 . S
C462 C467 1.363 . S
C463 H434 0.950 . S
C463 C462 1.397 . S
C463 C464 1.334 . S
C464 H435 0.950 . S
C464 C463 1.334 . S
C464 C465 1.287 . S
C465 C464 1.287 . S
C465 C466 1.524 . S
C465 H468 0.999 . S
C466 H436 0.950 . S
C466 C465 1.524 . S
C466 C467 1.415 . S
C467 H437 0.950 . S
C467 C462 1.363 . S
C467 C466 1.415 . S
H468 C465 0.999 . S
H469 C450 0.913 . S
H470 C488 0.951 . S
H471 C490 0.951 . S
H472 C492 0.950 . S
H473 C493 0.950 . S
H474 C495 0.950 . S
H475 C498 0.950 . S
H476 C499 0.950 . S
H477 C501 0.950 . S
H478 C502 0.950 . S
H479 C503 0.951 . S
H480 C505 0.951 . S
H481 C507 0.950 . S
H482 C508 0.950 . S
H483 C510 0.950 1_565 S
H484 C513 0.950 . S
H485 C514 0.950 . S
H486 C516 0.950 . S
H487 C517 0.950 . S
C488 H470 0.951 . S
C488 C489 1.366 . S
C488 C490 1.388 . S
C489 C488 1.366 . S
C489 C493 1.385 . S
C490 H471 0.951 . S
C490 C488 1.388 . S
C490 C491 1.366 . S
C491 C490 1.366 . S
C491 C492 1.414 . S
C491 C494 1.499 . S
C492 H472 0.950 . S
C492 C491 1.414 . S
C492 C493 1.374 . S
C493 H473 0.950 . S
C493 C489 1.385 . S
C493 C492 1.374 . S
C494 C491 1.499 . S
C494 C495 1.373 . S
C494 C496 1.389 . S
C495 H474 0.950 . S
C495 C494 1.373 . S
C495 C511 1.377 . S
C496 C494 1.389 . S
C496 C497 1.524 1_545 S
C496 C510 1.377 . S
C497 C496 1.524 1_565 S
C497 C498 1.397 . S
C497 C502 1.363 . S
C498 H475 0.950 . S
C498 C497 1.397 . S
C498 C499 1.334 . S
C499 H476 0.950 . S
C499 C498 1.334 . S
C499 C500 1.287 . S
C500 C499 1.287 . S
C500 C501 1.524 . S
C500 H519 0.913 . S
C501 H477 0.950 . S
C501 C500 1.524 . S
C501 C502 1.415 . S
C502 H478 0.950 . S
C502 C497 1.363 . S
C502 C501 1.415 . S
C503 H479 0.951 . S
C503 C504 1.366 . S
C503 C505 1.388 . S
C504 C503 1.366 . S
C504 C508 1.385 . S
C505 H480 0.951 . S
C505 C503 1.388 . S
C505 C506 1.366 . S
C506 C505 1.366 . S
C506 C507 1.414 . S
C506 C509 1.499 . S
C507 H481 0.950 . S
C507 C506 1.414 . S
C507 C508 1.374 . S
C508 H482 0.950 . S
C508 C504 1.385 . S
C508 C507 1.374 . S
C509 C506 1.499 . S
C509 C510 1.373 . S
C509 C511 1.389 . S
C510 H483 0.950 1_545 S
C510 C496 1.377 . S
C510 C509 1.373 . S
C511 C495 1.377 . S
C511 C509 1.389 . S
C511 C512 1.524 . S
C512 C511 1.524 . S
C512 C513 1.397 . S
C512 C517 1.363 . S
C513 H484 0.950 . S
C513 C512 1.397 . S
C513 C514 1.334 . S
C514 H485 0.950 . S
C514 C513 1.334 . S
C514 C515 1.287 . S
C515 C514 1.287 . S
C515 C516 1.524 . S
C515 H518 0.999 . S
C516 H486 0.950 . S
C516 C515 1.524 . S
C516 C517 1.415 . S
C517 H487 0.950 . S
C517 C512 1.363 . S
C517 C516 1.415 . S
H518 C515 0.999 . S
H519 C500 0.913 . S
H520 C538 0.951 . S
H521 C540 0.951 . S
H522 C542 0.950 . S
H523 C543 0.950 . S
H524 C545 0.950 . S
H525 C548 0.950 . S
H526 C549 0.950 . S
H527 C551 0.950 . S
H528 C552 0.950 1_545 S
H529 C553 0.951 . S
H530 C555 0.951 . S
H531 C557 0.950 . S
H532 C558 0.950 . S
H533 C560 0.950 . S
H534 C563 0.950 . S
H535 C564 0.950 . S
H536 C566 0.950 . S
H537 C567 0.950 1_565 S
C538 H520 0.951 . S
C538 C539 1.360 1_545 S
C538 C540 1.388 . S
C539 C538 1.360 1_565 S
C539 C543 1.392 . S
C540 H521 0.951 . S
C540 C538 1.388 . S
C540 C541 1.349 1_545 S
C541 C540 1.349 1_565 S
C541 C542 1.428 . S
C541 C544 1.498 . S
C542 H522 0.950 . S
C542 C541 1.428 . S
C542 C543 1.374 . S
C543 H523 0.950 . S
C543 C539 1.392 . S
C543 C542 1.374 . S
C544 C541 1.498 . S
C544 C545 1.366 1_565 S
C544 C546 1.397 . S
C545 H524 0.950 . S
C545 C544 1.366 1_545 S
C545 C561 1.377 . S
C546 C544 1.397 . S
C546 C547 1.524 . S
C546 C560 1.377 . S
C547 C546 1.524 . S
C547 C548 1.397 . S
C547 C552 1.363 . S
C548 H525 0.950 . S
C548 C547 1.397 . S
C548 C549 1.334 . S
C549 H526 0.950 . S
C549 C548 1.334 . S
C549 C550 1.287 . S
C550 C549 1.287 . S
C550 C551 1.524 . S
C550 H569 0.913 . S
C551 H527 0.950 . S
C551 C550 1.524 . S
C551 C552 1.415 . S
C552 H528 0.950 1_565 S
C552 C547 1.363 . S
C552 C551 1.415 . S
C553 H529 0.951 . S
C553 C554 1.366 1_565 S
C553 C555 1.388 . S
C554 C553 1.366 1_545 S
C554 C558 1.385 . S
C555 H530 0.951 . S
C555 C553 1.388 . S
C555 C556 1.366 1_565 S
C556 C555 1.366 1_545 S
C556 C557 1.414 . S
C556 C559 1.499 . S
C557 H531 0.950 . S
C557 C556 1.414 . S
C557 C558 1.374 . S
C558 H532 0.950 . S
C558 C554 1.385 . S
C558 C557 1.374 . S
C559 C556 1.499 . S
C559 C560 1.373 1_545 S
C559 C561 1.389 . S
C560 H533 0.950 . S
C560 C546 1.377 . S
C560 C559 1.373 1_565 S
C561 C545 1.377 . S
C561 C559 1.389 . S
C561 C562 1.524 . S
C562 C561 1.524 . S
C562 C563 1.397 . S
C562 C567 1.363 . S
C563 H534 0.950 . S
C563 C562 1.397 . S
C563 C564 1.334 . S
C564 H535 0.950 . S
C564 C563 1.334 . S
C564 C565 1.287 . S
C565 C564 1.287 . S
C565 C566 1.524 . S
C565 H568 0.999 . S
C566 H536 0.950 . S
C566 C565 1.524 . S
C566 C567 1.415 . S
C567 H537 0.950 1_545 S
C567 C562 1.363 . S
C567 C566 1.415 . S
H568 C565 0.999 . S
H569 C550 0.913 . S
H570 C588 0.951 . S
H571 C590 0.951 . S
H572 C592 0.950 . S
H573 C593 0.950 . S
H574 C595 0.950 . S
H575 C598 0.950 1_655 S
H576 C599 0.950 1_655 S
H577 C601 0.950 . S
H578 C602 0.950 . S
H579 C603 0.951 . S
H580 C605 0.951 . S
H581 C607 0.950 . S
H582 C608 0.950 . S
H583 C610 0.950 . S
H584 C613 0.950 . S
H585 C614 0.950 . S
H586 C616 0.950 . S
H587 C617 0.950 . S
C588 H570 0.951 . S
C588 C589 1.366 . S
C588 C590 1.388 . S
C589 C588 1.366 . S
C589 C593 1.385 1_455 S
C590 H571 0.951 . S
C590 C588 1.388 . S
C590 C591 1.366 . S
C591 C590 1.366 . S
C591 C592 1.414 1_455 S
C591 C594 1.499 . S
C592 H572 0.950 . S
C592 C591 1.414 1_655 S
C592 C593 1.374 . S
C593 H573 0.950 . S
C593 C589 1.385 1_655 S
C593 C592 1.374 . S
C594 C591 1.499 . S
C594 C595 1.373 . S
C594 C596 1.389 . S
C595 H574 0.950 . S
C595 C594 1.373 . S
C595 C611 1.377 . S
C596 C594 1.389 . S
C596 C597 1.524 . S
C596 C610 1.377 . S
C597 C596 1.524 . S
C597 C598 1.397 . S
C597 C602 1.363 . S
C598 H575 0.950 1_455 S
C598 C597 1.397 . S
C598 C599 1.334 . S
C599 H576 0.950 1_455 S
C599 C598 1.334 . S
C599 C600 1.287 . S
C600 C599 1.287 . S
C600 C601 1.524 . S
C600 H619 0.913 . S
C601 H577 0.950 . S
C601 C600 1.524 . S
C601 C602 1.415 . S
C602 H578 0.950 . S
C602 C597 1.363 . S
C602 C601 1.415 . S
C603 H579 0.951 . S
C603 C604 1.366 1_655 S
C603 C605 1.388 . S
C604 C603 1.366 1_455 S
C604 C608 1.385 . S
C605 H580 0.951 . S
C605 C603 1.388 . S
C605 C606 1.366 1_655 S
C606 C605 1.366 1_455 S
C606 C607 1.414 . S
C606 C609 1.499 . S
C607 H581 0.950 . S
C607 C606 1.414 . S
C607 C608 1.374 . S
C608 H582 0.950 . S
C608 C604 1.385 . S
C608 C607 1.374 . S
C609 C606 1.499 . S
C609 C610 1.373 . S
C609 C611 1.389 . S
C610 H583 0.950 . S
C610 C596 1.377 . S
C610 C609 1.373 . S
C611 C595 1.377 . S
C611 C609 1.389 . S
C611 C612 1.524 . S
C612 C611 1.524 . S
C612 C613 1.397 . S
C612 C617 1.363 1_455 S
C613 H584 0.950 . S
C613 C612 1.397 . S
C613 C614 1.334 . S
C614 H585 0.950 . S
C614 C613 1.334 . S
C614 C615 1.287 . S
C615 C614 1.287 . S
C615 C616 1.524 1_455 S
C615 H618 0.997 1_455 S
C616 H586 0.950 . S
C616 C615 1.524 1_655 S
C616 C617 1.415 . S
C617 H587 0.950 . S
C617 C612 1.363 1_655 S
C617 C616 1.415 . S
H618 C615 0.997 1_655 S
H619 C600 0.913 . S
H620 C638 0.951 . S
H621 C640 0.951 . S
H622 C642 0.950 . S
H623 C643 0.950 . S
H624 C645 0.950 . S
H625 C648 0.950 . S
H626 C649 0.950 . S
H627 C651 0.950 . S
H628 C652 0.950 . S
H629 C653 0.951 . S
H630 C655 0.951 . S
H631 C657 0.950 . S
H632 C658 0.950 . S
H633 C660 0.950 . S
H634 C663 0.950 . S
H635 C664 0.950 . S
H636 C666 0.950 . S
H637 C667 0.950 . S
C638 H620 0.951 . S
C638 C639 1.366 . S
C638 C640 1.388 . S
C639 C638 1.366 . S
C639 C643 1.385 . S
C640 H621 0.951 . S
C640 C638 1.388 . S
C640 C641 1.366 . S
C641 C640 1.366 . S
C641 C642 1.414 . S
C641 C644 1.499 . S
C642 H622 0.950 . S
C642 C641 1.414 . S
C642 C643 1.374 . S
C643 H623 0.950 . S
C643 C639 1.385 . S
C643 C642 1.374 . S
C644 C641 1.499 . S
C644 C645 1.373 . S
C644 C646 1.389 . S
C645 H624 0.950 . S
C645 C644 1.373 . S
C645 C661 1.377 . S
C646 C644 1.389 . S
C646 C647 1.524 . S
C646 C660 1.377 . S
C647 C646 1.524 . S
C647 C648 1.397 . S
C647 C652 1.363 . S
C648 H625 0.950 . S
C648 C647 1.397 . S
C648 C649 1.334 . S
C649 H626 0.950 . S
C649 C648 1.334 . S
C649 C650 1.287 . S
C650 C649 1.287 . S
C650 C651 1.524 . S
C650 H669 0.913 . S
C651 H627 0.950 . S
C651 C650 1.524 . S
C651 C652 1.415 . S
C652 H628 0.950 . S
C652 C647 1.363 . S
C652 C651 1.415 . S
C653 H629 0.951 . S
C653 C654 1.366 . S
C653 C655 1.388 . S
C654 C653 1.366 . S
C654 C658 1.385 . S
C655 H630 0.951 . S
C655 C653 1.388 . S
C655 C656 1.366 . S
C656 C655 1.366 . S
C656 C657 1.414 . S
C656 C659 1.499 . S
C657 H631 0.950 . S
C657 C656 1.414 . S
C657 C658 1.374 . S
C658 H632 0.950 . S
C658 C654 1.385 . S
C658 C657 1.374 . S
C659 C656 1.499 . S
C659 C660 1.373 . S
C659 C661 1.389 . S
C660 H633 0.950 . S
C660 C646 1.377 . S
C660 C659 1.373 . S
C661 C645 1.377 . S
C661 C659 1.389 . S
C661 C662 1.524 . S
C662 C661 1.524 . S
C662 C663 1.397 . S
C662 C667 1.363 . S
C663 H634 0.950 . S
C663 C662 1.397 . S
C663 C664 1.334 . S
C664 H635 0.950 . S
C664 C663 1.334 . S
C664 C665 1.287 . S
C665 C664 1.287 . S
C665 C666 1.524 . S
C665 H668 0.999 . S
C666 H636 0.950 . S
C666 C665 1.524 . S
C666 C667 1.415 . S
C667 H637 0.950 . S
C667 C662 1.363 . S
C667 C666 1.415 . S
H668 C665 0.999 . S
H669 C650 0.913 . S
H670 C688 0.951 . S
H671 C690 0.951 . S
H672 C692 0.950 . S
H673 C693 0.950 . S
H674 C695 0.950 . S
H675 C698 0.950 . S
H676 C699 0.950 . S
H677 C701 0.950 . S
H678 C702 0.950 . S
H679 C703 0.951 . S
H680 C705 0.951 . S
H681 C707 0.950 . S
H682 C708 0.950 . S
H683 C710 0.950 . S
H684 C713 0.950 . S
H685 C714 0.950 . S
H686 C716 0.950 . S
H687 C717 0.950 . S
C688 H670 0.951 . S
C688 C689 1.366 . S
C688 C690 1.388 . S
C689 C688 1.366 . S
C689 C693 1.385 . S
C690 H671 0.951 . S
C690 C688 1.388 . S
C690 C691 1.366 . S
C691 C690 1.366 . S
C691 C692 1.414 . S
C691 C694 1.499 . S
C692 H672 0.950 . S
C692 C691 1.414 . S
C692 C693 1.374 . S
C693 H673 0.950 . S
C693 C689 1.385 . S
C693 C692 1.374 . S
C694 C691 1.499 . S
C694 C695 1.373 . S
C694 C696 1.389 . S
C695 H674 0.950 . S
C695 C694 1.373 . S
C695 C711 1.377 . S
C696 C694 1.389 . S
C696 C697 1.524 . S
C696 C710 1.377 . S
C697 C696 1.524 . S
C697 C698 1.397 . S
C697 C702 1.363 . S
C698 H675 0.950 . S
C698 C697 1.397 . S
C698 C699 1.334 . S
C699 H676 0.950 . S
C699 C698 1.334 . S
C699 C700 1.287 . S
C700 C699 1.287 . S
C700 C701 1.524 . S
C700 H719 0.913 . S
C701 H677 0.950 . S
C701 C700 1.524 . S
C701 C702 1.415 . S
C702 H678 0.950 . S
C702 C697 1.363 . S
C702 C701 1.415 . S
C703 H679 0.951 . S
C703 C704 1.366 . S
C703 C705 1.388 . S
C704 C703 1.366 . S
C704 C708 1.385 . S
C705 H680 0.951 . S
C705 C703 1.388 . S
C705 C706 1.366 . S
C706 C705 1.366 . S
C706 C707 1.414 . S
C706 C709 1.499 . S
C707 H681 0.950 . S
C707 C706 1.414 . S
C707 C708 1.374 . S
C708 H682 0.950 . S
C708 C704 1.385 . S
C708 C707 1.374 . S
C709 C706 1.499 . S
C709 C710 1.373 . S
C709 C711 1.389 . S
C710 H683 0.950 . S
C710 C696 1.377 . S
C710 C709 1.373 . S
C711 C695 1.377 . S
C711 C709 1.389 . S
C711 C712 1.524 . S
C712 C711 1.524 . S
C712 C713 1.397 . S
C712 C717 1.363 . S
C713 H684 0.950 . S
C713 C712 1.397 . S
C713 C714 1.334 . S
C714 H685 0.950 . S
C714 C713 1.334 . S
C714 C715 1.287 . S
C715 C714 1.287 . S
C715 C716 1.524 . S
C715 H718 0.999 . S
C716 H686 0.950 . S
C716 C715 1.524 . S
C716 C717 1.415 . S
C717 H687 0.950 . S
C717 C712 1.363 . S
C717 C716 1.415 . S
H718 C715 0.999 . S
H719 C700 0.913 . S
H720 C738 0.951 . S
H721 C740 0.951 . S
H722 C742 0.950 . S
H723 C743 0.950 . S
H724 C745 0.950 . S
H725 C748 0.950 . S
H726 C749 0.950 . S
H727 C751 0.950 . S
H728 C752 0.950 . S
H729 C753 0.951 . S
H730 C755 0.951 . S
H731 C757 0.950 . S
H732 C758 0.950 . S
H733 C760 0.950 . S
H734 C763 0.950 . S
H735 C764 0.950 . S
H736 C766 0.950 . S
H737 C767 0.950 . S
C738 H720 0.951 . S
C738 C739 1.366 . S
C738 C740 1.388 . S
C739 C738 1.366 . S
C739 C743 1.385 . S
C740 H721 0.951 . S
C740 C738 1.388 . S
C740 C741 1.366 . S
C741 C740 1.366 . S
C741 C742 1.414 . S
C741 C744 1.499 . S
C742 H722 0.950 . S
C742 C741 1.414 . S
C742 C743 1.374 . S
C743 H723 0.950 . S
C743 C739 1.385 . S
C743 C742 1.374 . S
C744 C741 1.499 . S
C744 C745 1.373 . S
C744 C746 1.389 . S
C745 H724 0.950 . S
C745 C744 1.373 . S
C745 C761 1.377 . S
C746 C744 1.389 . S
C746 C747 1.524 . S
C746 C760 1.377 . S
C747 C746 1.524 . S
C747 C748 1.397 . S
C747 C752 1.363 . S
C748 H725 0.950 . S
C748 C747 1.397 . S
C748 C749 1.334 . S
C749 H726 0.950 . S
C749 C748 1.334 . S
C749 C750 1.287 . S
C750 C749 1.287 . S
C750 C751 1.524 . S
C750 H769 0.913 . S
C751 H727 0.950 . S
C751 C750 1.524 . S
C751 C752 1.415 . S
C752 H728 0.950 . S
C752 C747 1.363 . S
C752 C751 1.415 . S
C753 H729 0.951 . S
C753 C754 1.366 . S
C753 C755 1.388 . S
C754 C753 1.366 . S
C754 C758 1.385 . S
C755 H730 0.951 . S
C755 C753 1.388 . S
C755 C756 1.366 . S
C756 C755 1.366 . S
C756 C757 1.414 . S
C756 C759 1.499 . S
C757 H731 0.950 . S
C757 C756 1.414 . S
C757 C758 1.374 . S
C758 H732 0.950 . S
C758 C754 1.385 . S
C758 C757 1.374 . S
C759 C756 1.499 . S
C759 C760 1.373 . S
C759 C761 1.389 . S
C760 H733 0.950 . S
C760 C746 1.377 . S
C760 C759 1.373 . S
C761 C745 1.377 . S
C761 C759 1.389 . S
C761 C762 1.524 . S
C762 C761 1.524 . S
C762 C763 1.397 . S
C762 C767 1.363 . S
C763 H734 0.950 . S
C763 C762 1.397 . S
C763 C764 1.334 . S
C764 H735 0.950 . S
C764 C763 1.334 . S
C764 C765 1.287 . S
C765 C764 1.287 . S
C765 C766 1.524 . S
C765 H768 0.999 . S
C766 H736 0.950 . S
C766 C765 1.524 . S
C766 C767 1.415 . S
C767 H737 0.950 . S
C767 C762 1.363 . S
C767 C766 1.415 . S
H768 C765 0.999 . S
H769 C750 0.913 . S
H770 C788 0.951 . S
H771 C790 0.951 . S
H772 C792 0.950 . S
H773 C793 0.950 . S
H774 C795 0.950 . S
H775 C798 0.950 . S
H776 C799 0.950 . S
H777 C801 0.950 . S
H778 C802 0.950 . S
H779 C803 0.951 . S
H780 C805 0.951 . S
H781 C807 0.950 . S
H782 C808 0.950 . S
H783 C810 0.950 . S
H784 C813 0.950 . S
H785 C814 0.950 . S
H786 C816 0.950 . S
H787 C817 0.950 . S
C788 H770 0.951 . S
C788 C789 1.366 . S
C788 C790 1.388 . S
C789 C788 1.366 . S
C789 C793 1.385 . S
C790 H771 0.951 . S
C790 C788 1.388 . S
C790 C791 1.366 . S
C791 C790 1.366 . S
C791 C792 1.414 . S
C791 C794 1.499 . S
C792 H772 0.950 . S
C792 C791 1.414 . S
C792 C793 1.374 . S
C793 H773 0.950 . S
C793 C789 1.385 . S
C793 C792 1.374 . S
C794 C791 1.499 . S
C794 C795 1.373 . S
C794 C796 1.389 . S
C795 H774 0.950 . S
C795 C794 1.373 . S
C795 C811 1.377 . S
C796 C794 1.389 . S
C796 C797 1.524 . S
C796 C810 1.377 . S
C797 C796 1.524 . S
C797 C798 1.397 . S
C797 C802 1.363 . S
C798 H775 0.950 . S
C798 C797 1.397 . S
C798 C799 1.334 . S
C799 H776 0.950 . S
C799 C798 1.334 . S
C799 C800 1.287 . S
C800 C799 1.287 . S
C800 C801 1.524 . S
C800 H819 0.913 . S
C801 H777 0.950 . S
C801 C800 1.524 . S
C801 C802 1.415 . S
C802 H778 0.950 . S
C802 C797 1.363 . S
C802 C801 1.415 . S
C803 H779 0.951 . S
C803 C804 1.366 . S
C803 C805 1.388 . S
C804 C803 1.366 . S
C804 C808 1.385 . S
C805 H780 0.951 . S
C805 C803 1.388 . S
C805 C806 1.366 . S
C806 C805 1.366 . S
C806 C807 1.414 . S
C806 C809 1.499 . S
C807 H781 0.950 . S
C807 C806 1.414 . S
C807 C808 1.374 . S
C808 H782 0.950 . S
C808 C804 1.385 . S
C808 C807 1.374 . S
C809 C806 1.499 . S
C809 C810 1.373 . S
C809 C811 1.389 . S
C810 H783 0.950 . S
C810 C796 1.377 . S
C810 C809 1.373 . S
C811 C795 1.377 . S
C811 C809 1.389 . S
C811 C812 1.524 . S
C812 C811 1.524 . S
C812 C813 1.397 . S
C812 C817 1.363 . S
C813 H784 0.950 . S
C813 C812 1.397 . S
C813 C814 1.334 . S
C814 H785 0.950 . S
C814 C813 1.334 . S
C814 C815 1.287 . S
C815 C814 1.287 . S
C815 C816 1.524 . S
C815 H818 0.999 . S
C816 H786 0.950 . S
C816 C815 1.524 . S
C816 C817 1.415 . S
C817 H787 0.950 . S
C817 C812 1.363 . S
C817 C816 1.415 . S
H818 C815 0.999 . S
H819 C800 0.913 . S
H820 C838 0.951 . S
H821 C840 0.951 . S
H822 C842 0.950 1_565 S
H823 C843 0.950 1_565 S
H824 C845 0.950 . S
H825 C848 0.950 . S
H826 C849 0.950 . S
H827 C851 0.950 . S
H828 C852 0.950 1_545 S
H829 C853 0.951 . S
H830 C855 0.951 . S
H831 C857 0.950 . S
H832 C858 0.950 . S
H833 C860 0.950 1_565 S
H834 C863 0.950 . S
H835 C864 0.950 . S
H836 C866 0.950 . S
H837 C867 0.950 . S
C838 H820 0.951 . S
C838 C839 1.366 . S
C838 C840 1.388 . S
C839 C838 1.366 . S
C839 C843 1.385 . S
C840 H821 0.951 . S
C840 C838 1.388 . S
C840 C841 1.366 . S
C841 C840 1.366 . S
C841 C842 1.414 . S
C841 C844 1.499 . S
C842 H822 0.950 1_545 S
C842 C841 1.414 . S
C842 C843 1.374 . S
C843 H823 0.950 1_545 S
C843 C839 1.385 . S
C843 C842 1.374 . S
C844 C841 1.499 . S
C844 C845 1.373 . S
C844 C846 1.389 . S
C845 H824 0.950 . S
C845 C844 1.373 . S
C845 C861 1.377 . S
C846 C844 1.389 . S
C846 C847 1.524 1_545 S
C846 C860 1.377 . S
C847 C846 1.524 1_565 S
C847 C848 1.397 . S
C847 C852 1.363 . S
C848 H825 0.950 . S
C848 C847 1.397 . S
C848 C849 1.334 . S
C849 H826 0.950 . S
C849 C848 1.334 . S
C849 C850 1.287 . S
C850 C849 1.287 . S
C850 C851 1.524 . S
C850 H869 0.913 . S
C851 H827 0.950 . S
C851 C850 1.524 . S
C851 C852 1.415 . S
C852 H828 0.950 1_565 S
C852 C847 1.363 . S
C852 C851 1.415 . S
C853 H829 0.951 . S
C853 C854 1.366 . S
C853 C855 1.388 . S
C854 C853 1.366 . S
C854 C858 1.385 . S
C855 H830 0.951 . S
C855 C853 1.388 . S
C855 C856 1.366 . S
C856 C855 1.366 . S
C856 C857 1.414 . S
C856 C859 1.499 . S
C857 H831 0.950 . S
C857 C856 1.414 . S
C857 C858 1.374 . S
C858 H832 0.950 . S
C858 C854 1.385 . S
C858 C857 1.374 . S
C859 C856 1.499 . S
C859 C860 1.373 . S
C859 C861 1.389 . S
C860 H833 0.950 1_545 S
C860 C846 1.377 . S
C860 C859 1.373 . S
C861 C845 1.377 . S
C861 C859 1.389 . S
C861 C862 1.524 . S
C862 C861 1.524 . S
C862 C863 1.397 . S
C862 C867 1.363 . S
C863 H834 0.950 . S
C863 C862 1.397 . S
C863 C864 1.334 . S
C864 H835 0.950 . S
C864 C863 1.334 . S
C864 C865 1.287 . S
C865 C864 1.287 . S
C865 C866 1.524 . S
C865 H868 0.999 . S
C866 H836 0.950 . S
C866 C865 1.524 . S
C866 C867 1.415 . S
C867 H837 0.950 . S
C867 C862 1.363 . S
C867 C866 1.415 . S
H868 C865 0.999 . S
H869 C850 0.913 . S
H870 C888 0.951 . S
H871 C890 0.951 . S
H872 C892 0.950 . S
H873 C893 0.950 . S
H874 C895 0.950 . S
H875 C898 0.950 . S
H876 C899 0.950 . S
H877 C901 0.950 . S
H878 C902 0.950 . S
H879 C903 0.951 . S
H880 C905 0.951 . S
H881 C907 0.950 . S
H882 C908 0.950 . S
H883 C910 0.950 . S
H884 C913 0.950 . S
H885 C914 0.950 . S
H886 C916 0.950 . S
H887 C917 0.950 . S
C888 H870 0.951 . S
C888 C889 1.366 . S
C888 C890 1.388 . S
C889 C888 1.366 . S
C889 C893 1.385 1_455 S
C890 H871 0.951 . S
C890 C888 1.388 . S
C890 C891 1.366 . S
C891 C890 1.366 . S
C891 C892 1.414 1_455 S
C891 C894 1.499 . S
C892 H872 0.950 . S
C892 C891 1.414 1_655 S
C892 C893 1.374 . S
C893 H873 0.950 . S
C893 C889 1.385 1_655 S
C893 C892 1.374 . S
C894 C891 1.499 . S
C894 C895 1.373 1_455 S
C894 C896 1.389 . S
C895 H874 0.950 . S
C895 C894 1.373 1_655 S
C895 C911 1.377 . S
C896 C894 1.389 . S
C896 C897 1.524 . S
C896 C910 1.377 . S
C897 C896 1.524 . S
C897 C898 1.397 . S
C897 C902 1.363 . S
C898 H875 0.950 . S
C898 C897 1.397 . S
C898 C899 1.334 . S
C899 H876 0.950 . S
C899 C898 1.334 . S
C899 C900 1.287 . S
C900 C899 1.287 . S
C900 C901 1.524 . S
C900 H919 0.913 . S
C901 H877 0.950 . S
C901 C900 1.524 . S
C901 C902 1.415 . S
C902 H878 0.950 . S
C902 C897 1.363 . S
C902 C901 1.415 . S
C903 H879 0.951 . S
C903 C904 1.366 1_655 S
C903 C905 1.388 . S
C904 C903 1.366 1_455 S
C904 C908 1.385 . S
C905 H880 0.951 . S
C905 C903 1.388 . S
C905 C906 1.366 1_655 S
C906 C905 1.366 1_455 S
C906 C907 1.414 . S
C906 C909 1.499 . S
C907 H881 0.950 . S
C907 C906 1.414 . S
C907 C908 1.374 . S
C908 H882 0.950 . S
C908 C904 1.385 . S
C908 C907 1.374 . S
C909 C906 1.499 . S
C909 C910 1.373 . S
C909 C911 1.389 1_455 S
C910 H883 0.950 . S
C910 C896 1.377 . S
C910 C909 1.373 . S
C911 C895 1.377 . S
C911 C909 1.389 1_655 S
C911 C912 1.524 . S
C912 C911 1.524 . S
C912 C913 1.397 . S
C912 C917 1.363 . S
C913 H884 0.950 . S
C913 C912 1.397 . S
C913 C914 1.334 . S
C914 H885 0.950 . S
C914 C913 1.334 . S
C914 C915 1.287 . S
C915 C914 1.287 . S
C915 C916 1.524 . S
C915 H918 0.999 . S
C916 H886 0.950 . S
C916 C915 1.524 . S
C916 C917 1.415 . S
C917 H887 0.950 . S
C917 C912 1.363 . S
C917 C916 1.415 . S
H918 C915 0.999 . S
H919 C900 0.913 . S
H920 C938 0.951 . S
H921 C940 0.951 . S
H922 C942 0.950 . S
H923 C943 0.950 . S
H924 C945 0.950 . S
H925 C948 0.950 . S
H926 C949 0.950 . S
H927 C951 0.950 1_554 S
H928 C952 0.950 . S
H929 C953 0.951 . S
H930 C955 0.951 . S
H931 C957 0.950 . S
H932 C958 0.950 . S
H933 C960 0.950 1_556 S
H934 C963 0.950 . S
H935 C964 0.950 . S
H936 C966 0.950 . S
H937 C967 0.950 1_556 S
C938 H920 0.951 . S
C938 C939 1.366 . S
C938 C940 1.388 . S
C939 C938 1.366 . S
C939 C943 1.385 1_554 S
C940 H921 0.951 . S
C940 C938 1.388 . S
C940 C941 1.366 . S
C941 C940 1.366 . S
C941 C942 1.414 1_554 S
C941 C944 1.499 . S
C942 H922 0.950 . S
C942 C941 1.414 1_556 S
C942 C943 1.374 . S
C943 H923 0.950 . S
C943 C939 1.385 1_556 S
C943 C942 1.374 . S
C944 C941 1.499 . S
C944 C945 1.373 . S
C944 C946 1.390 1_554 S
C945 H924 0.950 . S
C945 C944 1.373 . S
C945 C961 1.377 . S
C946 C944 1.390 1_556 S
C946 C947 1.524 . S
C946 C960 1.376 1_556 S
C947 C946 1.524 . S
C947 C948 1.397 . S
C947 C952 1.363 1_556 S
C948 H925 0.950 . S
C948 C947 1.397 . S
C948 C949 1.334 . S
C949 H926 0.950 . S
C949 C948 1.334 . S
C949 C950 1.287 . S
C950 C949 1.287 . S
C950 C951 1.524 . S
C950 H969 0.913 . S
C951 H927 0.950 1_556 S
C951 C950 1.524 . S
C951 C952 1.415 1_556 S
C952 H928 0.950 . S
C952 C947 1.363 1_554 S
C952 C951 1.415 1_554 S
C953 H929 0.951 . S
C953 C954 1.366 1_556 S
C953 C955 1.388 . S
C954 C953 1.366 1_554 S
C954 C958 1.385 . S
C955 H930 0.951 . S
C955 C953 1.388 . S
C955 C956 1.366 1_556 S
C956 C955 1.366 1_554 S
C956 C957 1.414 . S
C956 C959 1.499 . S
C957 H931 0.950 . S
C957 C956 1.414 . S
C957 C958 1.374 . S
C958 H932 0.950 . S
C958 C954 1.385 . S
C958 C957 1.374 . S
C959 C956 1.499 . S
C959 C960 1.373 . S
C959 C961 1.389 . S
C960 H933 0.950 1_554 S
C960 C946 1.376 1_554 S
C960 C959 1.373 . S
C961 C945 1.377 . S
C961 C959 1.389 . S
C961 C962 1.524 . S
C962 C961 1.524 . S
C962 C963 1.397 . S
C962 C967 1.363 . S
C963 H934 0.950 . S
C963 C962 1.397 . S
C963 C964 1.334 . S
C964 H935 0.950 . S
C964 C963 1.334 . S
C964 C965 1.287 . S
C965 C964 1.287 . S
C965 C966 1.524 . S
C965 H968 0.999 . S
C966 H936 0.950 . S
C966 C965 1.524 . S
C966 C967 1.415 . S
C967 H937 0.950 1_554 S
C967 C962 1.363 . S
C967 C966 1.415 . S
H968 C965 0.999 . S
H969 C950 0.913 . S
H970 C988 0.951 . S
H971 C990 0.951 . S
H972 C992 0.950 . S
H973 C993 0.950 . S
H974 C995 0.950 . S
H975 C998 0.950 . S
H976 C999 0.950 . S
H977 C1001 0.950 . S
H978 C1002 0.950 . S
H979 C1003 0.951 . S
H980 C1005 0.951 . S
H981 C1007 0.950 . S
H982 C1008 0.950 . S
H983 C1010 0.950 . S
H984 C1013 0.950 . S
H985 C1014 0.950 . S
H986 C1016 0.950 . S
H987 C1017 0.950 . S
C988 H970 0.951 . S
C988 C989 1.366 . S
C988 C990 1.388 . S
C989 C988 1.366 . S
C989 C993 1.385 . S
C990 H971 0.951 . S
C990 C988 1.388 . S
C990 C991 1.366 . S
C991 C990 1.366 . S
C991 C992 1.414 . S
C991 C994 1.499 . S
C992 H972 0.950 . S
C992 C991 1.414 . S
C992 C993 1.374 . S
C993 H973 0.950 . S
C993 C989 1.385 . S
C993 C992 1.374 . S
C994 C991 1.499 . S
C994 C995 1.373 . S
C994 C996 1.389 . S
C995 H974 0.950 . S
C995 C994 1.373 . S
C995 C1011 1.377 . S
C996 C994 1.389 . S
C996 C997 1.524 . S
C996 C1010 1.377 . S
C997 C996 1.524 . S
C997 C998 1.397 . S
C997 C1002 1.363 . S
C998 H975 0.950 . S
C998 C997 1.397 . S
C998 C999 1.334 . S
C999 H976 0.950 . S
C999 C998 1.334 . S
C999 C1000 1.287 . S
C1000 C999 1.287 . S
C1000 C1001 1.524 . S
C1000 H1019 0.913 . S
C1001 H977 0.950 . S
C1001 C1000 1.524 . S
C1001 C1002 1.415 . S
C1002 H978 0.950 . S
C1002 C997 1.363 . S
C1002 C1001 1.415 . S
C1003 H979 0.951 . S
C1003 C1004 1.366 . S
C1003 C1005 1.388 . S
C1004 C1003 1.366 . S
C1004 C1008 1.385 . S
C1005 H980 0.951 . S
C1005 C1003 1.388 . S
C1005 C1006 1.366 . S
C1006 C1005 1.366 . S
C1006 C1007 1.414 . S
C1006 C1009 1.499 . S
C1007 H981 0.950 . S
C1007 C1006 1.414 . S
C1007 C1008 1.374 . S
C1008 H982 0.950 . S
C1008 C1004 1.385 . S
C1008 C1007 1.374 . S
C1009 C1006 1.499 . S
C1009 C1010 1.373 . S
C1009 C1011 1.389 . S
C1010 H983 0.950 . S
C1010 C996 1.377 . S
C1010 C1009 1.373 . S
C1011 C995 1.377 . S
C1011 C1009 1.389 . S
C1011 C1012 1.524 . S
C1012 C1011 1.524 . S
C1012 C1013 1.397 . S
C1012 C1017 1.363 . S
C1013 H984 0.950 . S
C1013 C1012 1.397 . S
C1013 C1014 1.334 . S
C1014 H985 0.950 . S
C1014 C1013 1.334 . S
C1014 C1015 1.287 . S
C1015 C1014 1.287 . S
C1015 C1016 1.524 . S
C1015 H1018 0.999 . S
C1016 H986 0.950 . S
C1016 C1015 1.524 . S
C1016 C1017 1.415 . S
C1017 H987 0.950 . S
C1017 C1012 1.363 . S
C1017 C1016 1.415 . S
H1018 C1015 0.999 . S
H1019 C1000 0.913 . S
H1020 C1038 0.951 . S
H1021 C1040 0.951 . S
H1022 C1042 0.950 . S
H1023 C1043 0.950 . S
H1024 C1045 0.950 . S
H1025 C1048 0.950 . S
H1026 C1049 0.950 . S
H1027 C1051 0.950 . S
H1028 C1052 0.950 . S
H1029 C1053 0.951 . S
H1030 C1055 0.951 . S
H1031 C1057 0.950 . S
H1032 C1058 0.950 . S
H1033 C1060 0.950 . S
H1034 C1063 0.950 . S
H1035 C1064 0.950 . S
H1036 C1066 0.950 . S
H1037 C1067 0.950 . S
C1038 H1020 0.951 . S
C1038 C1039 1.366 . S
C1038 C1040 1.388 . S
C1039 C1038 1.366 . S
C1039 C1043 1.385 . S
C1040 H1021 0.951 . S
C1040 C1038 1.388 . S
C1040 C1041 1.366 . S
C1041 C1040 1.366 . S
C1041 C1042 1.414 . S
C1041 C1044 1.499 . S
C1042 H1022 0.950 . S
C1042 C1041 1.414 . S
C1042 C1043 1.374 . S
C1043 H1023 0.950 . S
C1043 C1039 1.385 . S
C1043 C1042 1.374 . S
C1044 C1041 1.499 . S
C1044 C1045 1.373 . S
C1044 C1046 1.389 . S
C1045 H1024 0.950 . S
C1045 C1044 1.373 . S
C1045 C1061 1.377 . S
C1046 C1044 1.389 . S
C1046 C1047 1.524 . S
C1046 C1060 1.377 . S
C1047 C1046 1.524 . S
C1047 C1048 1.397 . S
C1047 C1052 1.363 . S
C1048 H1025 0.950 . S
C1048 C1047 1.397 . S
C1048 C1049 1.334 . S
C1049 H1026 0.950 . S
C1049 C1048 1.334 . S
C1049 C1050 1.287 . S
C1050 C1049 1.287 . S
C1050 C1051 1.524 . S
C1050 H1069 0.913 . S
C1051 H1027 0.950 . S
C1051 C1050 1.524 . S
C1051 C1052 1.415 . S
C1052 H1028 0.950 . S
C1052 C1047 1.363 . S
C1052 C1051 1.415 . S
C1053 H1029 0.951 . S
C1053 C1054 1.366 . S
C1053 C1055 1.388 . S
C1054 C1053 1.366 . S
C1054 C1058 1.385 . S
C1055 H1030 0.951 . S
C1055 C1053 1.388 . S
C1055 C1056 1.366 . S
C1056 C1055 1.366 . S
C1056 C1057 1.414 . S
C1056 C1059 1.499 . S
C1057 H1031 0.950 . S
C1057 C1056 1.414 . S
C1057 C1058 1.374 . S
C1058 H1032 0.950 . S
C1058 C1054 1.385 . S
C1058 C1057 1.374 . S
C1059 C1056 1.499 . S
C1059 C1060 1.373 . S
C1059 C1061 1.389 . S
C1060 H1033 0.950 . S
C1060 C1046 1.377 . S
C1060 C1059 1.373 . S
C1061 C1045 1.377 . S
C1061 C1059 1.389 . S
C1061 C1062 1.524 . S
C1062 C1061 1.524 . S
C1062 C1063 1.397 . S
C1062 C1067 1.363 . S
C1063 H1034 0.950 . S
C1063 C1062 1.397 . S
C1063 C1064 1.334 . S
C1064 H1035 0.950 . S
C1064 C1063 1.334 . S
C1064 C1065 1.287 . S
C1065 C1064 1.287 . S
C1065 C1066 1.524 . S
C1065 H1068 0.999 . S
C1066 H1036 0.950 . S
C1066 C1065 1.524 . S
C1066 C1067 1.415 . S
C1067 H1037 0.950 . S
C1067 C1062 1.363 . S
C1067 C1066 1.415 . S
H1068 C1065 0.999 . S
H1069 C1050 0.913 . S
H1070 C1088 0.951 . S
H1071 C1090 0.951 . S
H1072 C1092 0.950 . S
H1073 C1093 0.950 . S
H1074 C1095 0.950 . S
H1075 C1098 0.950 . S
H1076 C1099 0.950 . S
H1077 C1101 0.950 . S
H1078 C1102 0.950 . S
H1079 C1103 0.951 . S
H1080 C1105 0.951 . S
H1081 C1107 0.950 . S
H1082 C1108 0.950 . S
H1083 C1110 0.950 . S
H1084 C1113 0.950 . S
H1085 C1114 0.950 . S
H1086 C1116 0.950 . S
H1087 C1117 0.950 . S
C1088 H1070 0.951 . S
C1088 C1089 1.366 . S
C1088 C1090 1.388 . S
C1089 C1088 1.366 . S
C1089 C1093 1.385 . S
C1090 H1071 0.951 . S
C1090 C1088 1.388 . S
C1090 C1091 1.366 . S
C1091 C1090 1.366 . S
C1091 C1092 1.414 . S
C1091 C1094 1.499 . S
C1092 H1072 0.950 . S
C1092 C1091 1.414 . S
C1092 C1093 1.374 . S
C1093 H1073 0.950 . S
C1093 C1089 1.385 . S
C1093 C1092 1.374 . S
C1094 C1091 1.499 . S
C1094 C1095 1.373 . S
C1094 C1096 1.389 . S
C1095 H1074 0.950 . S
C1095 C1094 1.373 . S
C1095 C1111 1.377 . S
C1096 C1094 1.389 . S
C1096 C1097 1.524 . S
C1096 C1110 1.377 . S
C1097 C1096 1.524 . S
C1097 C1098 1.397 . S
C1097 C1102 1.363 . S
C1098 H1075 0.950 . S
C1098 C1097 1.397 . S
C1098 C1099 1.334 . S
C1099 H1076 0.950 . S
C1099 C1098 1.334 . S
C1099 C1100 1.287 . S
C1100 C1099 1.287 . S
C1100 C1101 1.524 . S
C1100 H1119 0.913 . S
C1101 H1077 0.950 . S
C1101 C1100 1.524 . S
C1101 C1102 1.415 . S
C1102 H1078 0.950 . S
C1102 C1097 1.363 . S
C1102 C1101 1.415 . S
C1103 H1079 0.951 . S
C1103 C1104 1.366 . S
C1103 C1105 1.388 . S
C1104 C1103 1.366 . S
C1104 C1108 1.385 . S
C1105 H1080 0.951 . S
C1105 C1103 1.388 . S
C1105 C1106 1.366 . S
C1106 C1105 1.366 . S
C1106 C1107 1.414 . S
C1106 C1109 1.499 . S
C1107 H1081 0.950 . S
C1107 C1106 1.414 . S
C1107 C1108 1.374 . S
C1108 H1082 0.950 . S
C1108 C1104 1.385 . S
C1108 C1107 1.374 . S
C1109 C1106 1.499 . S
C1109 C1110 1.373 . S
C1109 C1111 1.389 . S
C1110 H1083 0.950 . S
C1110 C1096 1.377 . S
C1110 C1109 1.373 . S
C1111 C1095 1.377 . S
C1111 C1109 1.389 . S
C1111 C1112 1.524 . S
C1112 C1111 1.524 . S
C1112 C1113 1.397 . S
C1112 C1117 1.363 . S
C1113 H1084 0.950 . S
C1113 C1112 1.397 . S
C1113 C1114 1.334 . S
C1114 H1085 0.950 . S
C1114 C1113 1.334 . S
C1114 C1115 1.287 . S
C1115 C1114 1.287 . S
C1115 C1116 1.524 . S
C1115 H1118 0.999 . S
C1116 H1086 0.950 . S
C1116 C1115 1.524 . S
C1116 C1117 1.415 . S
C1117 H1087 0.950 . S
C1117 C1112 1.363 . S
C1117 C1116 1.415 . S
H1118 C1115 0.999 . S
H1119 C1100 0.913 . S
H1120 C1138 0.951 . S
H1121 C1140 0.951 . S
H1122 C1142 0.950 . S
H1123 C1143 0.950 . S
H1124 C1145 0.950 . S
H1125 C1148 0.950 . S
H1126 C1149 0.950 . S
H1127 C1151 0.950 . S
H1128 C1152 0.950 . S
H1129 C1153 0.951 . S
H1130 C1155 0.951 . S
H1131 C1157 0.950 . S
H1132 C1158 0.950 . S
H1133 C1160 0.950 . S
H1134 C1163 0.950 . S
H1135 C1164 0.950 . S
H1136 C1166 0.950 . S
H1137 C1167 0.950 . S
C1138 H1120 0.951 . S
C1138 C1139 1.366 . S
C1138 C1140 1.388 . S
C1139 C1138 1.366 . S
C1139 C1143 1.385 . S
C1140 H1121 0.951 . S
C1140 C1138 1.388 . S
C1140 C1141 1.366 . S
C1141 C1140 1.366 . S
C1141 C1142 1.414 . S
C1141 C1144 1.499 . S
C1142 H1122 0.950 . S
C1142 C1141 1.414 . S
C1142 C1143 1.374 . S
C1143 H1123 0.950 . S
C1143 C1139 1.385 . S
C1143 C1142 1.374 . S
C1144 C1141 1.499 . S
C1144 C1145 1.373 . S
C1144 C1146 1.389 . S
C1145 H1124 0.950 . S
C1145 C1144 1.373 . S
C1145 C1161 1.377 . S
C1146 C1144 1.389 . S
C1146 C1147 1.524 . S
C1146 C1160 1.377 . S
C1147 C1146 1.524 . S
C1147 C1148 1.397 . S
C1147 C1152 1.363 . S
C1148 H1125 0.950 . S
C1148 C1147 1.397 . S
C1148 C1149 1.334 . S
C1149 H1126 0.950 . S
C1149 C1148 1.334 . S
C1149 C1150 1.287 . S
C1150 C1149 1.287 . S
C1150 C1151 1.524 . S
C1150 H1169 0.913 . S
C1151 H1127 0.950 . S
C1151 C1150 1.524 . S
C1151 C1152 1.415 . S
C1152 H1128 0.950 . S
C1152 C1147 1.363 . S
C1152 C1151 1.415 . S
C1153 H1129 0.951 . S
C1153 C1154 1.366 . S
C1153 C1155 1.388 . S
C1154 C1153 1.366 . S
C1154 C1158 1.385 . S
C1155 H1130 0.951 . S
C1155 C1153 1.388 . S
C1155 C1156 1.366 . S
C1156 C1155 1.366 . S
C1156 C1157 1.414 . S
C1156 C1159 1.499 . S
C1157 H1131 0.950 . S
C1157 C1156 1.414 . S
C1157 C1158 1.374 . S
C1158 H1132 0.950 . S
C1158 C1154 1.385 . S
C1158 C1157 1.374 . S
C1159 C1156 1.499 . S
C1159 C1160 1.373 . S
C1159 C1161 1.389 . S
C1160 H1133 0.950 . S
C1160 C1146 1.377 . S
C1160 C1159 1.373 . S
C1161 C1145 1.377 . S
C1161 C1159 1.389 . S
C1161 C1162 1.524 . S
C1162 C1161 1.524 . S
C1162 C1163 1.397 . S
C1162 C1167 1.363 . S
C1163 H1134 0.950 . S
C1163 C1162 1.397 . S
C1163 C1164 1.334 . S
C1164 H1135 0.950 . S
C1164 C1163 1.334 . S
C1164 C1165 1.287 . S
C1165 C1164 1.287 . S
C1165 C1166 1.524 . S
C1165 H1168 0.999 . S
C1166 H1136 0.950 . S
C1166 C1165 1.524 . S
C1166 C1167 1.415 . S
C1167 H1137 0.950 . S
C1167 C1162 1.363 . S
C1167 C1166 1.415 . S
H1168 C1165 0.999 . S
H1169 C1150 0.913 . S
H1170 C1188 0.951 . S
H1171 C1190 0.951 . S
H1172 C1192 0.950 . S
H1173 C1193 0.950 . S
H1174 C1195 0.950 . S
H1175 C1198 0.950 . S
H1176 C1199 0.950 . S
H1177 C1201 0.950 . S
H1178 C1202 0.950 . S
H1179 C1203 0.951 . S
H1180 C1205 0.951 . S
H1181 C1207 0.950 . S
H1182 C1208 0.950 . S
H1183 C1210 0.950 . S
H1184 C1213 0.950 . S
H1185 C1214 0.950 . S
H1186 C1216 0.950 . S
H1187 C1217 0.950 . S
C1188 H1170 0.951 . S
C1188 C1189 1.366 . S
C1188 C1190 1.388 . S
C1189 C1188 1.366 . S
C1189 C1193 1.385 . S
C1190 H1171 0.951 . S
C1190 C1188 1.388 . S
C1190 C1191 1.366 . S
C1191 C1190 1.366 . S
C1191 C1192 1.414 . S
C1191 C1194 1.499 . S
C1192 H1172 0.950 . S
C1192 C1191 1.414 . S
C1192 C1193 1.374 . S
C1193 H1173 0.950 . S
C1193 C1189 1.385 . S
C1193 C1192 1.374 . S
C1194 C1191 1.499 . S
C1194 C1195 1.373 . S
C1194 C1196 1.389 . S
C1195 H1174 0.950 . S
C1195 C1194 1.373 . S
C1195 C1211 1.377 . S
C1196 C1194 1.389 . S
C1196 C1197 1.524 . S
C1196 C1210 1.377 . S
C1197 C1196 1.524 . S
C1197 C1198 1.397 . S
C1197 C1202 1.363 . S
C1198 H1175 0.950 . S
C1198 C1197 1.397 . S
C1198 C1199 1.334 . S
C1199 H1176 0.950 . S
C1199 C1198 1.334 . S
C1199 C1200 1.287 . S
C1200 C1199 1.287 . S
C1200 C1201 1.524 . S
C1200 H1219 0.913 . S
C1201 H1177 0.950 . S
C1201 C1200 1.524 . S
C1201 C1202 1.415 . S
C1202 H1178 0.950 . S
C1202 C1197 1.363 . S
C1202 C1201 1.415 . S
C1203 H1179 0.951 . S
C1203 C1204 1.366 . S
C1203 C1205 1.388 . S
C1204 C1203 1.366 . S
C1204 C1208 1.385 . S
C1205 H1180 0.951 . S
C1205 C1203 1.388 . S
C1205 C1206 1.366 . S
C1206 C1205 1.366 . S
C1206 C1207 1.414 . S
C1206 C1209 1.499 . S
C1207 H1181 0.950 . S
C1207 C1206 1.414 . S
C1207 C1208 1.374 . S
C1208 H1182 0.950 . S
C1208 C1204 1.385 . S
C1208 C1207 1.374 . S
C1209 C1206 1.499 . S
C1209 C1210 1.373 . S
C1209 C1211 1.389 . S
C1210 H1183 0.950 . S
C1210 C1196 1.377 . S
C1210 C1209 1.373 . S
C1211 C1195 1.377 . S
C1211 C1209 1.389 . S
C1211 C1212 1.524 . S
C1212 C1211 1.524 . S
C1212 C1213 1.397 . S
C1212 C1217 1.363 . S
C1213 H1184 0.950 . S
C1213 C1212 1.397 . S
C1213 C1214 1.334 . S
C1214 H1185 0.950 . S
C1214 C1213 1.334 . S
C1214 C1215 1.287 . S
C1215 C1214 1.287 . S
C1215 C1216 1.524 . S
C1215 H1218 0.999 . S
C1216 H1186 0.950 . S
C1216 C1215 1.524 . S
C1216 C1217 1.415 . S
C1217 H1187 0.950 . S
C1217 C1212 1.363 . S
C1217 C1216 1.415 . S
H1218 C1215 0.999 . S
H1219 C1200 0.913 . S
H1220 C1238 0.951 . S
H1221 C1240 0.951 . S
H1222 C1242 0.950 . S
H1223 C1243 0.950 . S
H1224 C1245 0.950 . S
H1225 C1248 0.950 . S
H1226 C1249 0.950 . S
H1227 C1251 0.950 . S
H1228 C1252 0.950 . S
H1229 C1253 0.951 . S
H1230 C1255 0.951 . S
H1231 C1257 0.950 . S
H1232 C1258 0.950 . S
H1233 C1260 0.950 . S
H1234 C1263 0.950 . S
H1235 C1264 0.950 . S
H1236 C1266 0.950 . S
H1237 C1267 0.950 . S
C1238 H1220 0.951 . S
C1238 C1239 1.366 . S
C1238 C1240 1.388 . S
C1239 C1238 1.366 . S
C1239 C1243 1.385 . S
C1240 H1221 0.951 . S
C1240 C1238 1.388 . S
C1240 C1241 1.366 . S
C1241 C1240 1.366 . S
C1241 C1242 1.414 . S
C1241 C1244 1.499 . S
C1242 H1222 0.950 . S
C1242 C1241 1.414 . S
C1242 C1243 1.374 . S
C1243 H1223 0.950 . S
C1243 C1239 1.385 . S
C1243 C1242 1.374 . S
C1244 C1241 1.499 . S
C1244 C1245 1.373 . S
C1244 C1246 1.389 . S
C1245 H1224 0.950 . S
C1245 C1244 1.373 . S
C1245 C1261 1.377 . S
C1246 C1244 1.389 . S
C1246 C1247 1.524 . S
C1246 C1260 1.377 . S
C1247 C1246 1.524 . S
C1247 C1248 1.397 . S
C1247 C1252 1.363 . S
C1248 H1225 0.950 . S
C1248 C1247 1.397 . S
C1248 C1249 1.334 . S
C1249 H1226 0.950 . S
C1249 C1248 1.334 . S
C1249 C1250 1.287 . S
C1250 C1249 1.287 . S
C1250 C1251 1.524 . S
C1250 H1269 0.913 . S
C1251 H1227 0.950 . S
C1251 C1250 1.524 . S
C1251 C1252 1.415 . S
C1252 H1228 0.950 . S
C1252 C1247 1.363 . S
C1252 C1251 1.415 . S
C1253 H1229 0.951 . S
C1253 C1254 1.366 . S
C1253 C1255 1.388 . S
C1254 C1253 1.366 . S
C1254 C1258 1.385 . S
C1255 H1230 0.951 . S
C1255 C1253 1.388 . S
C1255 C1256 1.366 . S
C1256 C1255 1.366 . S
C1256 C1257 1.414 . S
C1256 C1259 1.499 . S
C1257 H1231 0.950 . S
C1257 C1256 1.414 . S
C1257 C1258 1.374 . S
C1258 H1232 0.950 . S
C1258 C1254 1.385 . S
C1258 C1257 1.374 . S
C1259 C1256 1.499 . S
C1259 C1260 1.373 . S
C1259 C1261 1.389 . S
C1260 H1233 0.950 . S
C1260 C1246 1.377 . S
C1260 C1259 1.373 . S
C1261 C1245 1.377 . S
C1261 C1259 1.389 . S
C1261 C1262 1.524 . S
C1262 C1261 1.524 . S
C1262 C1263 1.397 . S
C1262 C1267 1.363 . S
C1263 H1234 0.950 . S
C1263 C1262 1.397 . S
C1263 C1264 1.334 . S
C1264 H1235 0.950 . S
C1264 C1263 1.334 . S
C1264 C1265 1.287 . S
C1265 C1264 1.287 . S
C1265 C1266 1.524 . S
C1265 H1268 0.999 . S
C1266 H1236 0.950 . S
C1266 C1265 1.524 . S
C1266 C1267 1.415 . S
C1267 H1237 0.950 . S
C1267 C1262 1.363 . S
C1267 C1266 1.415 . S
H1268 C1265 0.999 . S
H1269 C1250 0.913 . S
H1270 C1288 0.951 . S
H1271 C1290 0.951 . S
H1272 C1292 0.950 . S
H1273 C1293 0.950 . S
H1274 C1295 0.950 . S
H1275 C1298 0.950 . S
H1276 C1299 0.950 . S
H1277 C1301 0.950 . S
H1278 C1302 0.950 . S
H1279 C1303 0.951 . S
H1280 C1305 0.951 . S
H1281 C1307 0.950 . S
H1282 C1308 0.950 . S
H1283 C1310 0.950 . S
H1284 C1313 0.950 . S
H1285 C1314 0.950 . S
H1286 C1316 0.950 . S
H1287 C1317 0.950 . S
C1288 H1270 0.951 . S
C1288 C1289 1.366 . S
C1288 C1290 1.388 . S
C1289 C1288 1.366 . S
C1289 C1293 1.385 . S
C1290 H1271 0.951 . S
C1290 C1288 1.388 . S
C1290 C1291 1.366 . S
C1291 C1290 1.366 . S
C1291 C1292 1.414 . S
C1291 C1294 1.499 . S
C1292 H1272 0.950 . S
C1292 C1291 1.414 . S
C1292 C1293 1.374 . S
C1293 H1273 0.950 . S
C1293 C1289 1.385 . S
C1293 C1292 1.374 . S
C1294 C1291 1.499 . S
C1294 C1295 1.373 . S
C1294 C1296 1.389 . S
C1295 H1274 0.950 . S
C1295 C1294 1.373 . S
C1295 C1311 1.377 . S
C1296 C1294 1.389 . S
C1296 C1297 1.524 . S
C1296 C1310 1.377 . S
C1297 C1296 1.524 . S
C1297 C1298 1.397 . S
C1297 C1302 1.363 . S
C1298 H1275 0.950 . S
C1298 C1297 1.397 . S
C1298 C1299 1.334 . S
C1299 H1276 0.950 . S
C1299 C1298 1.334 . S
C1299 C1300 1.287 . S
C1300 C1299 1.287 . S
C1300 C1301 1.524 . S
C1300 H1319 0.913 . S
C1301 H1277 0.950 . S
C1301 C1300 1.524 . S
C1301 C1302 1.415 . S
C1302 H1278 0.950 . S
C1302 C1297 1.363 . S
C1302 C1301 1.415 . S
C1303 H1279 0.951 . S
C1303 C1304 1.366 . S
C1303 C1305 1.388 . S
C1304 C1303 1.366 . S
C1304 C1308 1.385 . S
C1305 H1280 0.951 . S
C1305 C1303 1.388 . S
C1305 C1306 1.366 . S
C1306 C1305 1.366 . S
C1306 C1307 1.414 . S
C1306 C1309 1.499 . S
C1307 H1281 0.950 . S
C1307 C1306 1.414 . S
C1307 C1308 1.374 . S
C1308 H1282 0.950 . S
C1308 C1304 1.385 . S
C1308 C1307 1.374 . S
C1309 C1306 1.499 . S
C1309 C1310 1.373 . S
C1309 C1311 1.389 . S
C1310 H1283 0.950 . S
C1310 C1296 1.377 . S
C1310 C1309 1.373 . S
C1311 C1295 1.377 . S
C1311 C1309 1.389 . S
C1311 C1312 1.524 . S
C1312 C1311 1.524 . S
C1312 C1313 1.397 . S
C1312 C1317 1.363 . S
C1313 H1284 0.950 . S
C1313 C1312 1.397 . S
C1313 C1314 1.334 . S
C1314 H1285 0.950 . S
C1314 C1313 1.334 . S
C1314 C1315 1.287 . S
C1315 C1314 1.287 . S
C1315 C1316 1.524 . S
C1315 H1318 0.999 . S
C1316 H1286 0.950 . S
C1316 C1315 1.524 . S
C1316 C1317 1.415 . S
C1317 H1287 0.950 . S
C1317 C1312 1.363 . S
C1317 C1316 1.415 . S
H1318 C1315 0.999 . S
H1319 C1300 0.913 . S
H1320 C1338 0.951 . S
H1321 C1340 0.951 . S
H1322 C1342 0.950 . S
H1323 C1343 0.950 . S
H1324 C1345 0.950 . S
H1325 C1348 0.950 . S
H1326 C1349 0.950 . S
H1327 C1351 0.950 . S
H1328 C1352 0.950 . S
H1329 C1353 0.951 . S
H1330 C1355 0.951 . S
H1331 C1357 0.950 . S
H1332 C1358 0.950 . S
H1333 C1360 0.950 . S
H1334 C1363 0.950 . S
H1335 C1364 0.950 . S
H1336 C1366 0.950 . S
H1337 C1367 0.950 . S
C1338 H1320 0.951 . S
C1338 C1339 1.366 . S
C1338 C1340 1.388 . S
C1339 C1338 1.366 . S
C1339 C1343 1.385 . S
C1340 H1321 0.951 . S
C1340 C1338 1.388 . S
C1340 C1341 1.366 . S
C1341 C1340 1.366 . S
C1341 C1342 1.414 . S
C1341 C1344 1.499 . S
C1342 H1322 0.950 . S
C1342 C1341 1.414 . S
C1342 C1343 1.374 . S
C1343 H1323 0.950 . S
C1343 C1339 1.385 . S
C1343 C1342 1.374 . S
C1344 C1341 1.499 . S
C1344 C1345 1.373 . S
C1344 C1346 1.389 . S
C1345 H1324 0.950 . S
C1345 C1344 1.373 . S
C1345 C1361 1.377 . S
C1346 C1344 1.389 . S
C1346 C1347 1.524 . S
C1346 C1360 1.377 . S
C1347 C1346 1.524 . S
C1347 C1348 1.397 . S
C1347 C1352 1.363 . S
C1348 H1325 0.950 . S
C1348 C1347 1.397 . S
C1348 C1349 1.334 . S
C1349 H1326 0.950 . S
C1349 C1348 1.334 . S
C1349 C1350 1.287 . S
C1350 C1349 1.287 . S
C1350 C1351 1.524 . S
C1350 H1369 0.913 . S
C1351 H1327 0.950 . S
C1351 C1350 1.524 . S
C1351 C1352 1.415 . S
C1352 H1328 0.950 . S
C1352 C1347 1.363 . S
C1352 C1351 1.415 . S
C1353 H1329 0.951 . S
C1353 C1354 1.366 . S
C1353 C1355 1.388 . S
C1354 C1353 1.366 . S
C1354 C1358 1.385 . S
C1355 H1330 0.951 . S
C1355 C1353 1.388 . S
C1355 C1356 1.366 . S
C1356 C1355 1.366 . S
C1356 C1357 1.414 . S
C1356 C1359 1.499 . S
C1357 H1331 0.950 . S
C1357 C1356 1.414 . S
C1357 C1358 1.374 . S
C1358 H1332 0.950 . S
C1358 C1354 1.385 . S
C1358 C1357 1.374 . S
C1359 C1356 1.499 . S
C1359 C1360 1.373 . S
C1359 C1361 1.389 . S
C1360 H1333 0.950 . S
C1360 C1346 1.377 . S
C1360 C1359 1.373 . S
C1361 C1345 1.377 . S
C1361 C1359 1.389 . S
C1361 C1362 1.524 . S
C1362 C1361 1.524 . S
C1362 C1363 1.397 . S
C1362 C1367 1.363 . S
C1363 H1334 0.950 . S
C1363 C1362 1.397 . S
C1363 C1364 1.334 . S
C1364 H1335 0.950 . S
C1364 C1363 1.334 . S
C1364 C1365 1.287 . S
C1365 C1364 1.287 . S
C1365 C1366 1.524 . S
C1365 H1368 0.999 . S
C1366 H1336 0.950 . S
C1366 C1365 1.524 . S
C1366 C1367 1.415 . S
C1367 H1337 0.950 . S
C1367 C1362 1.363 . S
C1367 C1366 1.415 . S
H1368 C1365 0.999 . S
H1369 C1350 0.913 . S
H1370 C1388 0.951 . S
H1371 C1390 0.951 . S
H1372 C1392 0.950 . S
H1373 C1393 0.950 . S
H1374 C1395 0.950 . S
H1375 C1398 0.950 . S
H1376 C1399 0.950 . S
H1377 C1401 0.950 . S
H1378 C1402 0.950 . S
H1379 C1403 0.951 . S
H1380 C1405 0.951 . S
H1381 C1407 0.950 . S
H1382 C1408 0.950 . S
H1383 C1410 0.950 . S
H1384 C1413 0.950 . S
H1385 C1414 0.950 . S
H1386 C1416 0.950 . S
H1387 C1417 0.950 . S
C1388 H1370 0.951 . S
C1388 C1389 1.366 . S
C1388 C1390 1.388 . S
C1389 C1388 1.366 . S
C1389 C1393 1.385 1_655 S
C1390 H1371 0.951 . S
C1390 C1388 1.388 . S
C1390 C1391 1.366 . S
C1391 C1390 1.366 . S
C1391 C1392 1.414 1_655 S
C1391 C1394 1.499 . S
C1392 H1372 0.950 . S
C1392 C1391 1.414 1_455 S
C1392 C1393 1.374 . S
C1393 H1373 0.950 . S
C1393 C1389 1.385 1_455 S
C1393 C1392 1.374 . S
C1394 C1391 1.499 . S
C1394 C1395 1.373 1_655 S
C1394 C1396 1.389 . S
C1395 H1374 0.950 . S
C1395 C1394 1.373 1_455 S
C1395 C1411 1.377 . S
C1396 C1394 1.389 . S
C1396 C1397 1.524 . S
C1396 C1410 1.377 . S
C1397 C1396 1.524 . S
C1397 C1398 1.397 . S
C1397 C1402 1.363 . S
C1398 H1375 0.950 . S
C1398 C1397 1.397 . S
C1398 C1399 1.334 . S
C1399 H1376 0.950 . S
C1399 C1398 1.334 . S
C1399 C1400 1.287 . S
C1400 C1399 1.287 . S
C1400 C1401 1.524 . S
C1400 H1419 0.913 . S
C1401 H1377 0.950 . S
C1401 C1400 1.524 . S
C1401 C1402 1.415 . S
C1402 H1378 0.950 . S
C1402 C1397 1.363 . S
C1402 C1401 1.415 . S
C1403 H1379 0.951 . S
C1403 C1404 1.366 1_455 S
C1403 C1405 1.388 . S
C1404 C1403 1.366 1_655 S
C1404 C1408 1.385 . S
C1405 H1380 0.951 . S
C1405 C1403 1.388 . S
C1405 C1406 1.366 1_455 S
C1406 C1405 1.366 1_655 S
C1406 C1407 1.414 . S
C1406 C1409 1.499 . S
C1407 H1381 0.950 . S
C1407 C1406 1.414 . S
C1407 C1408 1.374 . S
C1408 H1382 0.950 . S
C1408 C1404 1.385 . S
C1408 C1407 1.374 . S
C1409 C1406 1.499 . S
C1409 C1410 1.373 . S
C1409 C1411 1.389 1_655 S
C1410 H1383 0.950 . S
C1410 C1396 1.377 . S
C1410 C1409 1.373 . S
C1411 C1395 1.377 . S
C1411 C1409 1.389 1_455 S
C1411 C1412 1.524 . S
C1412 C1411 1.524 . S
C1412 C1413 1.397 . S
C1412 C1417 1.363 . S
C1413 H1384 0.950 . S
C1413 C1412 1.397 . S
C1413 C1414 1.334 . S
C1414 H1385 0.950 . S
C1414 C1413 1.334 . S
C1414 C1415 1.287 . S
C1415 C1414 1.287 . S
C1415 C1416 1.524 . S
C1415 H1418 0.999 . S
C1416 H1386 0.950 . S
C1416 C1415 1.524 . S
C1416 C1417 1.415 . S
C1417 H1387 0.950 . S
C1417 C1412 1.363 . S
C1417 C1416 1.415 . S
H1418 C1415 0.999 . S
H1419 C1400 0.913 . S
H1420 C1438 0.951 . S
H1421 C1440 0.951 . S
H1422 C1442 0.950 . S
H1423 C1443 0.950 . S
H1424 C1445 0.950 . S
H1425 C1448 0.950 . S
H1426 C1449 0.950 . S
H1427 C1451 0.950 . S
H1428 C1452 0.950 . S
H1429 C1453 0.951 . S
H1430 C1455 0.951 . S
H1431 C1457 0.950 . S
H1432 C1458 0.950 . S
H1433 C1460 0.950 . S
H1434 C1463 0.950 . S
H1435 C1464 0.950 . S
H1436 C1466 0.950 . S
H1437 C1467 0.950 . S
C1438 H1420 0.951 . S
C1438 C1439 1.366 . S
C1438 C1440 1.388 . S
C1439 C1438 1.366 . S
C1439 C1443 1.385 . S
C1440 H1421 0.951 . S
C1440 C1438 1.388 . S
C1440 C1441 1.366 . S
C1441 C1440 1.366 . S
C1441 C1442 1.414 . S
C1441 C1444 1.499 . S
C1442 H1422 0.950 . S
C1442 C1441 1.414 . S
C1442 C1443 1.374 . S
C1443 H1423 0.950 . S
C1443 C1439 1.385 . S
C1443 C1442 1.374 . S
C1444 C1441 1.499 . S
C1444 C1445 1.373 . S
C1444 C1446 1.389 . S
C1445 H1424 0.950 . S
C1445 C1444 1.373 . S
C1445 C1461 1.377 . S
C1446 C1444 1.389 . S
C1446 C1447 1.524 . S
C1446 C1460 1.377 . S
C1447 C1446 1.524 . S
C1447 C1448 1.397 . S
C1447 C1452 1.363 . S
C1448 H1425 0.950 . S
C1448 C1447 1.397 . S
C1448 C1449 1.334 . S
C1449 H1426 0.950 . S
C1449 C1448 1.334 . S
C1449 C1450 1.287 . S
C1450 C1449 1.287 . S
C1450 C1451 1.524 . S
C1450 H1469 0.913 . S
C1451 H1427 0.950 . S
C1451 C1450 1.524 . S
C1451 C1452 1.415 . S
C1452 H1428 0.950 . S
C1452 C1447 1.363 . S
C1452 C1451 1.415 . S
C1453 H1429 0.951 . S
C1453 C1454 1.366 . S
C1453 C1455 1.388 . S
C1454 C1453 1.366 . S
C1454 C1458 1.385 . S
C1455 H1430 0.951 . S
C1455 C1453 1.388 . S
C1455 C1456 1.366 . S
C1456 C1455 1.366 . S
C1456 C1457 1.414 . S
C1456 C1459 1.499 . S
C1457 H1431 0.950 . S
C1457 C1456 1.414 . S
C1457 C1458 1.374 . S
C1458 H1432 0.950 . S
C1458 C1454 1.385 . S
C1458 C1457 1.374 . S
C1459 C1456 1.499 . S
C1459 C1460 1.373 . S
C1459 C1461 1.389 . S
C1460 H1433 0.950 . S
C1460 C1446 1.377 . S
C1460 C1459 1.373 . S
C1461 C1445 1.377 . S
C1461 C1459 1.389 . S
C1461 C1462 1.524 . S
C1462 C1461 1.524 . S
C1462 C1463 1.397 . S
C1462 C1467 1.363 . S
C1463 H1434 0.950 . S
C1463 C1462 1.397 . S
C1463 C1464 1.334 . S
C1464 H1435 0.950 . S
C1464 C1463 1.334 . S
C1464 C1465 1.287 . S
C1465 C1464 1.287 . S
C1465 C1466 1.524 . S
C1465 H1468 0.999 . S
C1466 H1436 0.950 . S
C1466 C1465 1.524 . S
C1466 C1467 1.415 . S
C1467 H1437 0.950 . S
C1467 C1462 1.363 . S
C1467 C1466 1.415 . S
H1468 C1465 0.999 . S
H1469 C1450 0.913 . S
H1470 C1488 0.951 . S
H1471 C1490 0.951 . S
H1472 C1492 0.950 . S
H1473 C1493 0.950 . S
H1474 C1495 0.950 . S
H1475 C1498 0.950 . S
H1476 C1499 0.950 . S
H1477 C1501 0.950 . S
H1478 C1502 0.950 . S
H1479 C1503 0.951 . S
H1480 C1505 0.951 . S
H1481 C1507 0.950 . S
H1482 C1508 0.950 . S
H1483 C1510 0.950 . S
H1484 C1513 0.950 . S
H1485 C1514 0.950 . S
H1486 C1516 0.950 . S
H1487 C1517 0.950 . S
C1488 H1470 0.951 . S
C1488 C1489 1.366 . S
C1488 C1490 1.388 . S
C1489 C1488 1.366 . S
C1489 C1493 1.385 . S
C1490 H1471 0.951 . S
C1490 C1488 1.388 . S
C1490 C1491 1.366 . S
C1491 C1490 1.366 . S
C1491 C1492 1.414 . S
C1491 C1494 1.499 . S
C1492 H1472 0.950 . S
C1492 C1491 1.414 . S
C1492 C1493 1.374 . S
C1493 H1473 0.950 . S
C1493 C1489 1.385 . S
C1493 C1492 1.374 . S
C1494 C1491 1.499 . S
C1494 C1495 1.373 . S
C1494 C1496 1.389 . S
C1495 H1474 0.950 . S
C1495 C1494 1.373 . S
C1495 C1511 1.377 . S
C1496 C1494 1.389 . S
C1496 C1497 1.524 . S
C1496 C1510 1.377 . S
C1497 C1496 1.524 . S
C1497 C1498 1.397 . S
C1497 C1502 1.363 . S
C1498 H1475 0.950 . S
C1498 C1497 1.397 . S
C1498 C1499 1.334 . S
C1499 H1476 0.950 . S
C1499 C1498 1.334 . S
C1499 C1500 1.287 . S
C1500 C1499 1.287 . S
C1500 C1501 1.524 . S
C1500 H1519 0.913 . S
C1501 H1477 0.950 . S
C1501 C1500 1.524 . S
C1501 C1502 1.415 . S
C1502 H1478 0.950 . S
C1502 C1497 1.363 . S
C1502 C1501 1.415 . S
C1503 H1479 0.951 . S
C1503 C1504 1.366 . S
C1503 C1505 1.388 . S
C1504 C1503 1.366 . S
C1504 C1508 1.385 . S
C1505 H1480 0.951 . S
C1505 C1503 1.388 . S
C1505 C1506 1.366 . S
C1506 C1505 1.366 . S
C1506 C1507 1.414 . S
C1506 C1509 1.499 . S
C1507 H1481 0.950 . S
C1507 C1506 1.414 . S
C1507 C1508 1.374 . S
C1508 H1482 0.950 . S
C1508 C1504 1.385 . S
C1508 C1507 1.374 . S
C1509 C1506 1.499 . S
C1509 C1510 1.373 . S
C1509 C1511 1.389 . S
C1510 H1483 0.950 . S
C1510 C1496 1.377 . S
C1510 C1509 1.373 . S
C1511 C1495 1.377 . S
C1511 C1509 1.389 . S
C1511 C1512 1.524 . S
C1512 C1511 1.524 . S
C1512 C1513 1.397 . S
C1512 C1517 1.363 . S
C1513 H1484 0.950 . S
C1513 C1512 1.397 . S
C1513 C1514 1.334 . S
C1514 H1485 0.950 . S
C1514 C1513 1.334 . S
C1514 C1515 1.287 . S
C1515 C1514 1.287 . S
C1515 C1516 1.524 . S
C1515 H1518 0.999 . S
C1516 H1486 0.950 . S
C1516 C1515 1.524 . S
C1516 C1517 1.415 . S
C1517 H1487 0.950 . S
C1517 C1512 1.363 . S
C1517 C1516 1.415 . S
H1518 C1515 0.999 . S
H1519 C1500 0.913 . S
H1520 C1538 0.951 . S
H1521 C1540 0.951 . S
H1522 C1542 0.950 . S
H1523 C1543 0.950 . S
H1524 C1545 0.950 . S
H1525 C1548 0.950 . S
H1526 C1549 0.950 . S
H1527 C1551 0.950 . S
H1528 C1552 0.950 . S
H1529 C1553 0.951 . S
H1530 C1555 0.951 . S
H1531 C1557 0.950 . S
H1532 C1558 0.950 . S
H1533 C1560 0.950 . S
H1534 C1563 0.950 . S
H1535 C1564 0.950 . S
H1536 C1566 0.950 . S
H1537 C1567 0.950 . S
C1538 H1520 0.951 . S
C1538 C1539 1.366 . S
C1538 C1540 1.388 . S
C1539 C1538 1.366 . S
C1539 C1543 1.385 . S
C1540 H1521 0.951 . S
C1540 C1538 1.388 . S
C1540 C1541 1.366 . S
C1541 C1540 1.366 . S
C1541 C1542 1.414 . S
C1541 C1544 1.499 . S
C1542 H1522 0.950 . S
C1542 C1541 1.414 . S
C1542 C1543 1.374 . S
C1543 H1523 0.950 . S
C1543 C1539 1.385 . S
C1543 C1542 1.374 . S
C1544 C1541 1.499 . S
C1544 C1545 1.373 . S
C1544 C1546 1.389 . S
C1545 H1524 0.950 . S
C1545 C1544 1.373 . S
C1545 C1561 1.377 . S
C1546 C1544 1.389 . S
C1546 C1547 1.524 . S
C1546 C1560 1.377 . S
C1547 C1546 1.524 . S
C1547 C1548 1.397 . S
C1547 C1552 1.363 . S
C1548 H1525 0.950 . S
C1548 C1547 1.397 . S
C1548 C1549 1.334 . S
C1549 H1526 0.950 . S
C1549 C1548 1.334 . S
C1549 C1550 1.287 . S
C1550 C1549 1.287 . S
C1550 C1551 1.524 . S
C1550 H1569 0.913 . S
C1551 H1527 0.950 . S
C1551 C1550 1.524 . S
C1551 C1552 1.415 . S
C1552 H1528 0.950 . S
C1552 C1547 1.363 . S
C1552 C1551 1.415 . S
C1553 H1529 0.951 . S
C1553 C1554 1.366 . S
C1553 C1555 1.388 . S
C1554 C1553 1.366 . S
C1554 C1558 1.385 . S
C1555 H1530 0.951 . S
C1555 C1553 1.388 . S
C1555 C1556 1.366 . S
C1556 C1555 1.366 . S
C1556 C1557 1.414 . S
C1556 C1559 1.499 . S
C1557 H1531 0.950 . S
C1557 C1556 1.414 . S
C1557 C1558 1.374 . S
C1558 H1532 0.950 . S
C1558 C1554 1.385 . S
C1558 C1557 1.374 . S
C1559 C1556 1.499 . S
C1559 C1560 1.373 . S
C1559 C1561 1.389 . S
C1560 H1533 0.950 . S
C1560 C1546 1.377 . S
C1560 C1559 1.373 . S
C1561 C1545 1.377 . S
C1561 C1559 1.389 . S
C1561 C1562 1.524 . S
C1562 C1561 1.524 . S
C1562 C1563 1.397 . S
C1562 C1567 1.363 . S
C1563 H1534 0.950 . S
C1563 C1562 1.397 . S
C1563 C1564 1.334 . S
C1564 H1535 0.950 . S
C1564 C1563 1.334 . S
C1564 C1565 1.287 . S
C1565 C1564 1.287 . S
C1565 C1566 1.524 . S
C1565 H1568 0.999 . S
C1566 H1536 0.950 . S
C1566 C1565 1.524 . S
C1566 C1567 1.415 . S
C1567 H1537 0.950 . S
C1567 C1562 1.363 . S
C1567 C1566 1.415 . S
H1568 C1565 0.999 . S
H1569 C1550 0.913 . S
H1570 C1588 0.951 . S
H1571 C1590 0.951 . S
H1572 C1592 0.950 . S
H1573 C1593 0.950 . S
H1574 C1595 0.950 . S
H1575 C1598 0.950 . S
H1576 C1599 0.950 . S
H1577 C1601 0.950 . S
H1578 C1602 0.950 . S
H1579 C1603 0.951 . S
H1580 C1605 0.951 . S
H1581 C1607 0.950 . S
H1582 C1608 0.950 . S
H1583 C1610 0.950 . S
H1584 C1613 0.950 . S
H1585 C1614 0.950 . S
H1586 C1616 0.950 . S
H1587 C1617 0.950 . S
C1588 H1570 0.951 . S
C1588 C1589 1.366 . S
C1588 C1590 1.388 . S
C1589 C1588 1.366 . S
C1589 C1593 1.385 . S
C1590 H1571 0.951 . S
C1590 C1588 1.388 . S
C1590 C1591 1.366 . S
C1591 C1590 1.366 . S
C1591 C1592 1.414 . S
C1591 C1594 1.499 . S
C1592 H1572 0.950 . S
C1592 C1591 1.414 . S
C1592 C1593 1.374 . S
C1593 H1573 0.950 . S
C1593 C1589 1.385 . S
C1593 C1592 1.374 . S
C1594 C1591 1.499 . S
C1594 C1595 1.373 . S
C1594 C1596 1.389 . S
C1595 H1574 0.950 . S
C1595 C1594 1.373 . S
C1595 C1611 1.377 . S
C1596 C1594 1.389 . S
C1596 C1597 1.524 . S
C1596 C1610 1.377 . S
C1597 C1596 1.524 . S
C1597 C1598 1.397 . S
C1597 C1602 1.363 . S
C1598 H1575 0.950 . S
C1598 C1597 1.397 . S
C1598 C1599 1.334 . S
C1599 H1576 0.950 . S
C1599 C1598 1.334 . S
C1599 C1600 1.287 . S
C1600 C1599 1.287 . S
C1600 C1601 1.524 . S
C1600 H1619 0.913 . S
C1601 H1577 0.950 . S
C1601 C1600 1.524 . S
C1601 C1602 1.415 . S
C1602 H1578 0.950 . S
C1602 C1597 1.363 . S
C1602 C1601 1.415 . S
C1603 H1579 0.951 . S
C1603 C1604 1.366 . S
C1603 C1605 1.388 . S
C1604 C1603 1.366 . S
C1604 C1608 1.385 . S
C1605 H1580 0.951 . S
C1605 C1603 1.388 . S
C1605 C1606 1.366 . S
C1606 C1605 1.366 . S
C1606 C1607 1.414 . S
C1606 C1609 1.499 . S
C1607 H1581 0.950 . S
C1607 C1606 1.414 . S
C1607 C1608 1.374 . S
C1608 H1582 0.950 . S
C1608 C1604 1.385 . S
C1608 C1607 1.374 . S
C1609 C1606 1.499 . S
C1609 C1610 1.373 . S
C1609 C1611 1.389 . S
C1610 H1583 0.950 . S
C1610 C1596 1.377 . S
C1610 C1609 1.373 . S
C1611 C1595 1.377 . S
C1611 C1609 1.389 . S
C1611 C1612 1.524 . S
C1612 C1611 1.524 . S
C1612 C1613 1.397 . S
C1612 C1617 1.363 . S
C1613 H1584 0.950 . S
C1613 C1612 1.397 . S
C1613 C1614 1.334 . S
C1614 H1585 0.950 . S
C1614 C1613 1.334 . S
C1614 C1615 1.287 . S
C1615 C1614 1.287 . S
C1615 C1616 1.524 . S
C1615 H1618 0.999 . S
C1616 H1586 0.950 . S
C1616 C1615 1.524 . S
C1616 C1617 1.415 . S
C1617 H1587 0.950 . S
C1617 C1612 1.363 . S
C1617 C1616 1.415 . S
H1618 C1615 0.999 . S
H1619 C1600 0.913 . S
H1620 C1638 0.951 . S
H1621 C1640 0.951 . S
H1622 C1642 0.950 . S
H1623 C1643 0.950 . S
H1624 C1645 0.950 . S
H1625 C1648 0.950 . S
H1626 C1649 0.950 . S
H1627 C1651 0.950 . S
H1628 C1652 0.950 1_545 S
H1629 C1653 0.935 1_565 S
H1630 C1655 0.951 1_565 S
H1631 C1657 0.950 . S
H1632 C1658 0.950 . S
H1633 C1660 0.952 . S
H1634 C1663 0.950 . S
H1635 C1664 0.950 . S
H1636 C1666 0.950 . S
H1637 C1667 0.950 . S
C1638 H1620 0.951 . S
C1638 C1639 1.366 . S
C1638 C1640 1.388 . S
C1639 C1638 1.366 . S
C1639 C1643 1.385 1_545 S
C1640 H1621 0.951 . S
C1640 C1638 1.388 . S
C1640 C1641 1.366 . S
C1641 C1640 1.366 . S
C1641 C1642 1.414 1_545 S
C1641 C1644 1.499 . S
C1642 H1622 0.950 . S
C1642 C1641 1.414 1_565 S
C1642 C1643 1.374 . S
C1643 H1623 0.950 . S
C1643 C1639 1.385 1_565 S
C1643 C1642 1.374 . S
C1644 C1641 1.499 . S
C1644 C1645 1.373 . S
C1644 C1646 1.389 . S
C1645 H1624 0.950 . S
C1645 C1644 1.373 . S
C1645 C1661 1.377 . S
C1646 C1644 1.389 . S
C1646 C1647 1.524 1_545 S
C1646 C1660 1.377 . S
C1647 C1646 1.524 1_565 S
C1647 C1648 1.397 . S
C1647 C1652 1.363 . S
C1648 H1625 0.950 . S
C1648 C1647 1.397 . S
C1648 C1649 1.334 . S
C1649 H1626 0.950 . S
C1649 C1648 1.334 . S
C1649 C1650 1.287 . S
C1650 C1649 1.287 . S
C1650 C1651 1.524 . S
C1650 H1669 0.913 . S
C1651 H1627 0.950 . S
C1651 C1650 1.524 . S
C1651 C1652 1.415 . S
C1652 H1628 0.950 1_565 S
C1652 C1647 1.363 . S
C1652 C1651 1.415 . S
C1653 H1629 0.935 1_545 S
C1653 C1654 1.366 . S
C1653 C1655 1.388 . S
C1654 C1653 1.366 . S
C1654 C1658 1.385 . S
C1655 H1630 0.951 1_545 S
C1655 C1653 1.388 . S
C1655 C1656 1.366 . S
C1656 C1655 1.366 . S
C1656 C1657 1.414 . S
C1656 C1659 1.499 . S
C1657 H1631 0.950 . S
C1657 C1656 1.414 . S
C1657 C1658 1.374 . S
C1658 H1632 0.950 . S
C1658 C1654 1.385 . S
C1658 C1657 1.374 . S
C1659 C1656 1.499 . S
C1659 C1660 1.373 . S
C1659 C1661 1.389 . S
C1660 H1633 0.952 . S
C1660 C1646 1.377 . S
C1660 C1659 1.373 . S
C1661 C1645 1.377 . S
C1661 C1659 1.389 . S
C1661 C1662 1.524 . S
C1662 C1661 1.524 . S
C1662 C1663 1.397 . S
C1662 C1667 1.363 . S
C1663 H1634 0.950 . S
C1663 C1662 1.397 . S
C1663 C1664 1.334 . S
C1664 H1635 0.950 . S
C1664 C1663 1.334 . S
C1664 C1665 1.287 . S
C1665 C1664 1.287 . S
C1665 C1666 1.524 . S
C1665 H1668 0.999 . S
C1666 H1636 0.950 . S
C1666 C1665 1.524 . S
C1666 C1667 1.415 . S
C1667 H1637 0.950 . S
C1667 C1662 1.363 . S
C1667 C1666 1.415 . S
H1668 C1665 0.999 . S
H1669 C1650 0.913 . S
H1670 C1688 0.951 . S
H1671 C1690 0.951 . S
H1672 C1692 0.950 . S
H1673 C1693 0.950 . S
H1674 C1695 0.950 . S
H1675 C1698 0.950 . S
H1676 C1699 0.950 . S
H1677 C1701 0.950 . S
H1678 C1702 0.950 . S
H1679 C1703 0.951 . S
H1680 C1705 0.951 . S
H1681 C1707 0.950 . S
H1682 C1708 0.950 . S
H1683 C1710 0.950 . S
H1684 C1713 0.950 . S
H1685 C1714 0.950 . S
H1686 C1716 0.950 . S
H1687 C1717 0.950 . S
C1688 H1670 0.951 . S
C1688 C1689 1.366 . S
C1688 C1690 1.388 . S
C1689 C1688 1.366 . S
C1689 C1693 1.385 . S
C1690 H1671 0.951 . S
C1690 C1688 1.388 . S
C1690 C1691 1.366 . S
C1691 C1690 1.366 . S
C1691 C1692 1.414 . S
C1691 C1694 1.499 . S
C1692 H1672 0.950 . S
C1692 C1691 1.414 . S
C1692 C1693 1.374 . S
C1693 H1673 0.950 . S
C1693 C1689 1.385 . S
C1693 C1692 1.374 . S
C1694 C1691 1.499 . S
C1694 C1695 1.373 1_554 S
C1694 C1696 1.389 . S
C1695 H1674 0.950 . S
C1695 C1694 1.373 1_556 S
C1695 C1711 1.377 . S
C1696 C1694 1.389 . S
C1696 C1697 1.524 . S
C1696 C1710 1.377 . S
C1697 C1696 1.524 . S
C1697 C1698 1.397 . S
C1697 C1702 1.363 . S
C1698 H1675 0.950 . S
C1698 C1697 1.397 . S
C1698 C1699 1.334 . S
C1699 H1676 0.950 . S
C1699 C1698 1.334 . S
C1699 C1700 1.287 . S
C1700 C1699 1.287 . S
C1700 C1701 1.524 . S
C1700 H1719 0.913 . S
C1701 H1677 0.950 . S
C1701 C1700 1.524 . S
C1701 C1702 1.415 . S
C1702 H1678 0.950 . S
C1702 C1697 1.363 . S
C1702 C1701 1.415 . S
C1703 H1679 0.951 . S
C1703 C1704 1.372 . S
C1703 C1705 1.388 . S
C1704 C1703 1.372 . S
C1704 C1708 1.383 1_554 S
C1705 H1680 0.951 . S
C1705 C1703 1.388 . S
C1705 C1706 1.368 . S
C1706 C1705 1.368 . S
C1706 C1707 1.410 1_554 S
C1706 C1709 1.502 . S
C1707 H1681 0.950 . S
C1707 C1706 1.410 1_556 S
C1707 C1708 1.374 . S
C1708 H1682 0.950 . S
C1708 C1704 1.383 1_556 S
C1708 C1707 1.374 . S
C1709 C1706 1.502 . S
C1709 C1710 1.373 . S
C1709 C1711 1.389 1_554 S
C1710 H1683 0.950 . S
C1710 C1696 1.377 . S
C1710 C1709 1.373 . S
C1711 C1695 1.377 . S
C1711 C1709 1.389 1_556 S
C1711 C1712 1.524 . S
C1712 C1711 1.524 . S
C1712 C1713 1.397 . S
C1712 C1717 1.363 . S
C1713 H1684 0.950 . S
C1713 C1712 1.397 . S
C1713 C1714 1.334 . S
C1714 H1685 0.950 . S
C1714 C1713 1.334 . S
C1714 C1715 1.287 . S
C1715 C1714 1.287 . S
C1715 C1716 1.524 . S
C1715 H1718 0.999 . S
C1716 H1686 0.950 . S
C1716 C1715 1.524 . S
C1716 C1717 1.415 . S
C1717 H1687 0.950 . S
C1717 C1712 1.363 . S
C1717 C1716 1.415 . S
H1718 C1715 0.999 . S
H1719 C1700 0.913 . S
H1720 C1738 0.951 . S
H1721 C1740 0.951 . S
H1722 C1742 0.950 . S
H1723 C1743 0.950 . S
H1724 C1745 0.950 . S
H1725 C1748 0.950 . S
H1726 C1749 0.950 . S
H1727 C1751 0.950 . S
H1728 C1752 0.950 . S
H1729 C1753 0.951 . S
H1730 C1755 0.951 . S
H1731 C1757 0.950 . S
H1732 C1758 0.950 . S
H1733 C1760 0.950 . S
H1734 C1763 0.950 . S
H1735 C1764 0.950 . S
H1736 C1766 0.950 . S
H1737 C1767 0.950 . S
C1738 H1720 0.951 . S
C1738 C1739 1.366 . S
C1738 C1740 1.388 . S
C1739 C1738 1.366 . S
C1739 C1743 1.385 . S
C1740 H1721 0.951 . S
C1740 C1738 1.388 . S
C1740 C1741 1.366 . S
C1741 C1740 1.366 . S
C1741 C1742 1.414 . S
C1741 C1744 1.499 . S
C1742 H1722 0.950 . S
C1742 C1741 1.414 . S
C1742 C1743 1.374 . S
C1743 H1723 0.950 . S
C1743 C1739 1.385 . S
C1743 C1742 1.374 . S
C1744 C1741 1.499 . S
C1744 C1745 1.373 . S
C1744 C1746 1.389 . S
C1745 H1724 0.950 . S
C1745 C1744 1.373 . S
C1745 C1761 1.377 . S
C1746 C1744 1.389 . S
C1746 C1747 1.524 . S
C1746 C1760 1.377 . S
C1747 C1746 1.524 . S
C1747 C1748 1.397 . S
C1747 C1752 1.363 . S
C1748 H1725 0.950 . S
C1748 C1747 1.397 . S
C1748 C1749 1.334 . S
C1749 H1726 0.950 . S
C1749 C1748 1.334 . S
C1749 C1750 1.287 . S
C1750 C1749 1.287 . S
C1750 C1751 1.524 . S
C1750 H1769 0.913 . S
C1751 H1727 0.950 . S
C1751 C1750 1.524 . S
C1751 C1752 1.415 . S
C1752 H1728 0.950 . S
C1752 C1747 1.363 . S
C1752 C1751 1.415 . S
C1753 H1729 0.951 . S
C1753 C1754 1.366 . S
C1753 C1755 1.388 . S
C1754 C1753 1.366 . S
C1754 C1758 1.385 . S
C1755 H1730 0.951 . S
C1755 C1753 1.388 . S
C1755 C1756 1.366 . S
C1756 C1755 1.366 . S
C1756 C1757 1.414 . S
C1756 C1759 1.499 . S
C1757 H1731 0.950 . S
C1757 C1756 1.414 . S
C1757 C1758 1.374 . S
C1758 H1732 0.950 . S
C1758 C1754 1.385 . S
C1758 C1757 1.374 . S
C1759 C1756 1.499 . S
C1759 C1760 1.373 . S
C1759 C1761 1.389 . S
C1760 H1733 0.950 . S
C1760 C1746 1.377 . S
C1760 C1759 1.373 . S
C1761 C1745 1.377 . S
C1761 C1759 1.389 . S
C1761 C1762 1.524 . S
C1762 C1761 1.524 . S
C1762 C1763 1.397 . S
C1762 C1767 1.363 . S
C1763 H1734 0.950 . S
C1763 C1762 1.397 . S
C1763 C1764 1.334 . S
C1764 H1735 0.950 . S
C1764 C1763 1.334 . S
C1764 C1765 1.287 . S
C1765 C1764 1.287 . S
C1765 C1766 1.524 . S
C1765 H1768 0.999 . S
C1766 H1736 0.950 . S
C1766 C1765 1.524 . S
C1766 C1767 1.415 . S
C1767 H1737 0.950 . S
C1767 C1762 1.363 . S
C1767 C1766 1.415 . S
H1768 C1765 0.999 . S
H1769 C1750 0.913 . S
H1770 C1788 0.951 . S
H1771 C1790 0.951 . S
H1772 C1792 0.950 . S
H1773 C1793 0.950 . S
H1774 C1795 0.950 . S
H1775 C1798 0.950 . S
H1776 C1799 0.950 . S
H1777 C1801 0.950 . S
H1778 C1802 0.950 . S
H1779 C1803 0.951 . S
H1780 C1805 0.951 . S
H1781 C1807 0.950 . S
H1782 C1808 0.950 . S
H1783 C1810 0.950 . S
H1784 C1813 0.950 . S
H1785 C1814 0.950 . S
H1786 C1816 0.950 . S
H1787 C1817 0.950 . S
C1788 H1770 0.951 . S
C1788 C1789 1.366 . S
C1788 C1790 1.388 . S
C1789 C1788 1.366 . S
C1789 C1793 1.385 . S
C1790 H1771 0.951 . S
C1790 C1788 1.388 . S
C1790 C1791 1.366 . S
C1791 C1790 1.366 . S
C1791 C1792 1.414 . S
C1791 C1794 1.499 . S
C1792 H1772 0.950 . S
C1792 C1791 1.414 . S
C1792 C1793 1.374 . S
C1793 H1773 0.950 . S
C1793 C1789 1.385 . S
C1793 C1792 1.374 . S
C1794 C1791 1.499 . S
C1794 C1795 1.373 . S
C1794 C1796 1.389 . S
C1795 H1774 0.950 . S
C1795 C1794 1.373 . S
C1795 C1811 1.377 . S
C1796 C1794 1.389 . S
C1796 C1797 1.524 . S
C1796 C1810 1.377 . S
C1797 C1796 1.524 . S
C1797 C1798 1.397 . S
C1797 C1802 1.363 . S
C1798 H1775 0.950 . S
C1798 C1797 1.397 . S
C1798 C1799 1.334 . S
C1799 H1776 0.950 . S
C1799 C1798 1.334 . S
C1799 C1800 1.287 . S
C1800 C1799 1.287 . S
C1800 C1801 1.524 . S
C1800 H1819 0.913 . S
C1801 H1777 0.950 . S
C1801 C1800 1.524 . S
C1801 C1802 1.415 . S
C1802 H1778 0.950 . S
C1802 C1797 1.363 . S
C1802 C1801 1.415 . S
C1803 H1779 0.951 . S
C1803 C1804 1.366 . S
C1803 C1805 1.388 . S
C1804 C1803 1.366 . S
C1804 C1808 1.385 . S
C1805 H1780 0.951 . S
C1805 C1803 1.388 . S
C1805 C1806 1.366 . S
C1806 C1805 1.366 . S
C1806 C1807 1.414 . S
C1806 C1809 1.499 . S
C1807 H1781 0.950 . S
C1807 C1806 1.414 . S
C1807 C1808 1.374 . S
C1808 H1782 0.950 . S
C1808 C1804 1.385 . S
C1808 C1807 1.374 . S
C1809 C1806 1.499 . S
C1809 C1810 1.373 . S
C1809 C1811 1.389 . S
C1810 H1783 0.950 . S
C1810 C1796 1.377 . S
C1810 C1809 1.373 . S
C1811 C1795 1.377 . S
C1811 C1809 1.389 . S
C1811 C1812 1.524 . S
C1812 C1811 1.524 . S
C1812 C1813 1.397 . S
C1812 C1817 1.363 . S
C1813 H1784 0.950 . S
C1813 C1812 1.397 . S
C1813 C1814 1.334 . S
C1814 H1785 0.950 . S
C1814 C1813 1.334 . S
C1814 C1815 1.287 . S
C1815 C1814 1.287 . S
C1815 C1816 1.524 . S
C1815 H1818 0.999 . S
C1816 H1786 0.950 . S
C1816 C1815 1.524 . S
C1816 C1817 1.415 . S
C1817 H1787 0.950 . S
C1817 C1812 1.363 . S
C1817 C1816 1.415 . S
H1818 C1815 0.999 . S
H1819 C1800 0.913 . S
H1820 C1838 0.951 . S
H1821 C1840 0.951 . S
H1822 C1842 0.950 . S
H1823 C1843 0.950 . S
H1824 C1845 0.950 . S
H1825 C1848 0.950 . S
H1826 C1849 0.950 . S
H1827 C1851 0.950 . S
H1828 C1852 0.950 . S
H1829 C1853 0.951 . S
H1830 C1855 0.951 . S
H1831 C1857 0.950 . S
H1832 C1858 0.950 . S
H1833 C1860 0.950 . S
H1834 C1863 0.950 . S
H1835 C1864 0.950 . S
H1836 C1866 0.950 . S
H1837 C1867 0.950 . S
C1838 H1820 0.951 . S
C1838 C1839 1.366 . S
C1838 C1840 1.388 . S
C1839 C1838 1.366 . S
C1839 C1843 1.385 . S
C1840 H1821 0.951 . S
C1840 C1838 1.388 . S
C1840 C1841 1.366 . S
C1841 C1840 1.366 . S
C1841 C1842 1.414 . S
C1841 C1844 1.499 . S
C1842 H1822 0.950 . S
C1842 C1841 1.414 . S
C1842 C1843 1.374 . S
C1843 H1823 0.950 . S
C1843 C1839 1.385 . S
C1843 C1842 1.374 . S
C1844 C1841 1.499 . S
C1844 C1845 1.373 . S
C1844 C1846 1.389 . S
C1845 H1824 0.950 . S
C1845 C1844 1.373 . S
C1845 C1861 1.377 . S
C1846 C1844 1.389 . S
C1846 C1847 1.524 . S
C1846 C1860 1.377 . S
C1847 C1846 1.524 . S
C1847 C1848 1.397 . S
C1847 C1852 1.363 . S
C1848 H1825 0.950 . S
C1848 C1847 1.397 . S
C1848 C1849 1.334 . S
C1849 H1826 0.950 . S
C1849 C1848 1.334 . S
C1849 C1850 1.287 . S
C1850 C1849 1.287 . S
C1850 C1851 1.524 . S
C1850 H1869 0.913 . S
C1851 H1827 0.950 . S
C1851 C1850 1.524 . S
C1851 C1852 1.415 . S
C1852 H1828 0.950 . S
C1852 C1847 1.363 . S
C1852 C1851 1.415 . S
C1853 H1829 0.951 . S
C1853 C1854 1.366 . S
C1853 C1855 1.388 . S
C1854 C1853 1.366 . S
C1854 C1858 1.385 . S
C1855 H1830 0.951 . S
C1855 C1853 1.388 . S
C1855 C1856 1.366 . S
C1856 C1855 1.366 . S
C1856 C1857 1.414 . S
C1856 C1859 1.499 . S
C1857 H1831 0.950 . S
C1857 C1856 1.414 . S
C1857 C1858 1.374 . S
C1858 H1832 0.950 . S
C1858 C1854 1.385 . S
C1858 C1857 1.374 . S
C1859 C1856 1.499 . S
C1859 C1860 1.373 . S
C1859 C1861 1.389 . S
C1860 H1833 0.950 . S
C1860 C1846 1.377 . S
C1860 C1859 1.373 . S
C1861 C1845 1.377 . S
C1861 C1859 1.389 . S
C1861 C1862 1.524 . S
C1862 C1861 1.524 . S
C1862 C1863 1.397 . S
C1862 C1867 1.363 . S
C1863 H1834 0.950 . S
C1863 C1862 1.397 . S
C1863 C1864 1.334 . S
C1864 H1835 0.950 . S
C1864 C1863 1.334 . S
C1864 C1865 1.287 . S
C1865 C1864 1.287 . S
C1865 C1866 1.524 . S
C1865 H1868 0.999 . S
C1866 H1836 0.950 . S
C1866 C1865 1.524 . S
C1866 C1867 1.415 . S
C1867 H1837 0.950 . S
C1867 C1862 1.363 . S
C1867 C1866 1.415 . S
H1868 C1865 0.999 . S
H1869 C1850 0.913 . S
H1870 C1888 0.951 . S
H1871 C1890 0.951 . S
H1872 C1892 0.950 . S
H1873 C1893 0.950 . S
H1874 C1895 0.950 . S
H1875 C1898 0.950 . S
H1876 C1899 0.950 . S
H1877 C1901 0.950 . S
H1878 C1902 0.950 . S
H1879 C1903 0.951 . S
H1880 C1905 0.951 . S
H1881 C1907 0.950 . S
H1882 C1908 0.950 . S
H1883 C1910 0.950 . S
H1884 C1913 0.950 . S
H1885 C1914 0.950 . S
H1886 C1916 0.950 . S
H1887 C1917 0.950 . S
C1888 H1870 0.951 . S
C1888 C1889 1.366 . S
C1888 C1890 1.388 . S
C1889 C1888 1.366 . S
C1889 C1893 1.385 . S
C1890 H1871 0.951 . S
C1890 C1888 1.388 . S
C1890 C1891 1.366 . S
C1891 C1890 1.366 . S
C1891 C1892 1.414 . S
C1891 C1894 1.499 . S
C1892 H1872 0.950 . S
C1892 C1891 1.414 . S
C1892 C1893 1.374 . S
C1893 H1873 0.950 . S
C1893 C1889 1.385 . S
C1893 C1892 1.374 . S
C1894 C1891 1.499 . S
C1894 C1895 1.373 . S
C1894 C1896 1.389 . S
C1895 H1874 0.950 . S
C1895 C1894 1.373 . S
C1895 C1911 1.377 . S
C1896 C1894 1.389 . S
C1896 C1897 1.524 . S
C1896 C1910 1.377 . S
C1897 C1896 1.524 . S
C1897 C1898 1.397 . S
C1897 C1902 1.363 . S
C1898 H1875 0.950 . S
C1898 C1897 1.397 . S
C1898 C1899 1.334 . S
C1899 H1876 0.950 . S
C1899 C1898 1.334 . S
C1899 C1900 1.287 . S
C1900 C1899 1.287 . S
C1900 C1901 1.524 . S
C1900 H1919 0.913 . S
C1901 H1877 0.950 . S
C1901 C1900 1.524 . S
C1901 C1902 1.415 . S
C1902 H1878 0.950 . S
C1902 C1897 1.363 . S
C1902 C1901 1.415 . S
C1903 H1879 0.951 . S
C1903 C1904 1.366 . S
C1903 C1905 1.388 . S
C1904 C1903 1.366 . S
C1904 C1908 1.385 . S
C1905 H1880 0.951 . S
C1905 C1903 1.388 . S
C1905 C1906 1.366 . S
C1906 C1905 1.366 . S
C1906 C1907 1.414 . S
C1906 C1909 1.499 . S
C1907 H1881 0.950 . S
C1907 C1906 1.414 . S
C1907 C1908 1.374 . S
C1908 H1882 0.950 . S
C1908 C1904 1.385 . S
C1908 C1907 1.374 . S
C1909 C1906 1.499 . S
C1909 C1910 1.373 . S
C1909 C1911 1.389 . S
C1910 H1883 0.950 . S
C1910 C1896 1.377 . S
C1910 C1909 1.373 . S
C1911 C1895 1.377 . S
C1911 C1909 1.389 . S
C1911 C1912 1.524 . S
C1912 C1911 1.524 . S
C1912 C1913 1.397 . S
C1912 C1917 1.363 . S
C1913 H1884 0.950 . S
C1913 C1912 1.397 . S
C1913 C1914 1.334 . S
C1914 H1885 0.950 . S
C1914 C1913 1.334 . S
C1914 C1915 1.287 . S
C1915 C1914 1.287 . S
C1915 C1916 1.524 . S
C1915 H1918 0.999 . S
C1916 H1886 0.950 . S
C1916 C1915 1.524 . S
C1916 C1917 1.415 . S
C1917 H1887 0.950 . S
C1917 C1912 1.363 . S
C1917 C1916 1.415 . S
H1918 C1915 0.999 . S
H1919 C1900 0.913 . S
H1920 C1938 0.951 . S
H1921 C1940 0.951 . S
H1922 C1942 0.950 . S
H1923 C1943 0.950 . S
H1924 C1945 0.950 . S
H1925 C1948 0.950 . S
H1926 C1949 0.950 . S
H1927 C1951 0.950 . S
H1928 C1952 0.950 . S
H1929 C1953 0.951 . S
H1930 C1955 0.951 . S
H1931 C1957 0.950 . S
H1932 C1958 0.950 . S
H1933 C1960 0.950 . S
H1934 C1963 0.950 . S
H1935 C1964 0.950 . S
H1936 C1966 0.950 . S
H1937 C1967 0.950 . S
C1938 H1920 0.951 . S
C1938 C1939 1.366 . S
C1938 C1940 1.388 . S
C1939 C1938 1.366 . S
C1939 C1943 1.385 . S
C1940 H1921 0.951 . S
C1940 C1938 1.388 . S
C1940 C1941 1.366 . S
C1941 C1940 1.366 . S
C1941 C1942 1.414 . S
C1941 C1944 1.499 . S
C1942 H1922 0.950 . S
C1942 C1941 1.414 . S
C1942 C1943 1.374 . S
C1943 H1923 0.950 . S
C1943 C1939 1.385 . S
C1943 C1942 1.374 . S
C1944 C1941 1.499 . S
C1944 C1945 1.373 . S
C1944 C1946 1.389 . S
C1945 H1924 0.950 . S
C1945 C1944 1.373 . S
C1945 C1961 1.377 . S
C1946 C1944 1.389 . S
C1946 C1947 1.524 . S
C1946 C1960 1.377 . S
C1947 C1946 1.524 . S
C1947 C1948 1.397 . S
C1947 C1952 1.363 . S
C1948 H1925 0.950 . S
C1948 C1947 1.397 . S
C1948 C1949 1.334 . S
C1949 H1926 0.950 . S
C1949 C1948 1.334 . S
C1949 C1950 1.287 . S
C1950 C1949 1.287 . S
C1950 C1951 1.524 . S
C1950 H1969 0.913 . S
C1951 H1927 0.950 . S
C1951 C1950 1.524 . S
C1951 C1952 1.415 . S
C1952 H1928 0.950 . S
C1952 C1947 1.363 . S
C1952 C1951 1.415 . S
C1953 H1929 0.951 . S
C1953 C1954 1.366 . S
C1953 C1955 1.388 . S
C1954 C1953 1.366 . S
C1954 C1958 1.385 . S
C1955 H1930 0.951 . S
C1955 C1953 1.388 . S
C1955 C1956 1.366 . S
C1956 C1955 1.366 . S
C1956 C1957 1.414 . S
C1956 C1959 1.499 . S
C1957 H1931 0.950 . S
C1957 C1956 1.414 . S
C1957 C1958 1.374 . S
C1958 H1932 0.950 . S
C1958 C1954 1.385 . S
C1958 C1957 1.374 . S
C1959 C1956 1.499 . S
C1959 C1960 1.373 . S
C1959 C1961 1.389 . S
C1960 H1933 0.950 . S
C1960 C1946 1.377 . S
C1960 C1959 1.373 . S
C1961 C1945 1.377 . S
C1961 C1959 1.389 . S
C1961 C1962 1.524 . S
C1962 C1961 1.524 . S
C1962 C1963 1.397 . S
C1962 C1967 1.363 . S
C1963 H1934 0.950 . S
C1963 C1962 1.397 . S
C1963 C1964 1.334 . S
C1964 H1935 0.950 . S
C1964 C1963 1.334 . S
C1964 C1965 1.287 . S
C1965 C1964 1.287 . S
C1965 C1966 1.524 . S
C1965 H1968 0.999 . S
C1966 H1936 0.950 . S
C1966 C1965 1.524 . S
C1966 C1967 1.415 . S
C1967 H1937 0.950 . S
C1967 C1962 1.363 . S
C1967 C1966 1.415 . S
H1968 C1965 0.999 . S
H1969 C1950 0.913 . S
H1970 C1988 0.951 . S
H1971 C1990 0.951 . S
H1972 C1992 0.950 . S
H1973 C1993 0.950 . S
H1974 C1995 0.950 . S
H1975 C1998 0.950 . S
H1976 C1999 0.950 . S
H1977 C2001 0.950 . S
H1978 C2002 0.950 . S
H1979 C2003 0.951 . S
H1980 C2005 0.951 . S
H1981 C2007 0.950 . S
H1982 C2008 0.950 . S
H1983 C2010 0.950 . S
H1984 C2013 0.950 . S
H1985 C2014 0.950 . S
H1986 C2016 0.950 . S
H1987 C2017 0.950 . S
C1988 H1970 0.951 . S
C1988 C1989 1.366 . S
C1988 C1990 1.388 . S
C1989 C1988 1.366 . S
C1989 C1993 1.385 . S
C1990 H1971 0.951 . S
C1990 C1988 1.388 . S
C1990 C1991 1.366 . S
C1991 C1990 1.366 . S
C1991 C1992 1.414 . S
C1991 C1994 1.499 . S
C1992 H1972 0.950 . S
C1992 C1991 1.414 . S
C1992 C1993 1.374 . S
C1993 H1973 0.950 . S
C1993 C1989 1.385 . S
C1993 C1992 1.374 . S
C1994 C1991 1.499 . S
C1994 C1995 1.373 . S
C1994 C1996 1.389 . S
C1995 H1974 0.950 . S
C1995 C1994 1.373 . S
C1995 C2011 1.377 . S
C1996 C1994 1.389 . S
C1996 C1997 1.524 . S
C1996 C2010 1.377 . S
C1997 C1996 1.524 . S
C1997 C1998 1.397 . S
C1997 C2002 1.363 . S
C1998 H1975 0.950 . S
C1998 C1997 1.397 . S
C1998 C1999 1.334 . S
C1999 H1976 0.950 . S
C1999 C1998 1.334 . S
C1999 C2000 1.287 . S
C2000 C1999 1.287 . S
C2000 C2001 1.524 . S
C2000 H2019 0.913 . S
C2001 H1977 0.950 . S
C2001 C2000 1.524 . S
C2001 C2002 1.415 . S
C2002 H1978 0.950 . S
C2002 C1997 1.363 . S
C2002 C2001 1.415 . S
C2003 H1979 0.951 . S
C2003 C2004 1.366 . S
C2003 C2005 1.388 . S
C2004 C2003 1.366 . S
C2004 C2008 1.385 . S
C2005 H1980 0.951 . S
C2005 C2003 1.388 . S
C2005 C2006 1.366 . S
C2006 C2005 1.366 . S
C2006 C2007 1.414 . S
C2006 C2009 1.499 . S
C2007 H1981 0.950 . S
C2007 C2006 1.414 . S
C2007 C2008 1.374 . S
C2008 H1982 0.950 . S
C2008 C2004 1.385 . S
C2008 C2007 1.374 . S
C2009 C2006 1.499 . S
C2009 C2010 1.373 . S
C2009 C2011 1.389 . S
C2010 H1983 0.950 . S
C2010 C1996 1.377 . S
C2010 C2009 1.373 . S
C2011 C1995 1.377 . S
C2011 C2009 1.389 . S
C2011 C2012 1.524 . S
C2012 C2011 1.524 . S
C2012 C2013 1.397 . S
C2012 C2017 1.363 . S
C2013 H1984 0.950 . S
C2013 C2012 1.397 . S
C2013 C2014 1.334 . S
C2014 H1985 0.950 . S
C2014 C2013 1.334 . S
C2014 C2015 1.287 . S
C2015 C2014 1.287 . S
C2015 C2016 1.524 . S
C2015 H2018 0.999 . S
C2016 H1986 0.950 . S
C2016 C2015 1.524 . S
C2016 C2017 1.415 . S
C2017 H1987 0.950 . S
C2017 C2012 1.363 . S
C2017 C2016 1.415 . S
H2018 C2015 0.999 . S
H2019 C2000 0.913 . S
H2020 C2038 0.951 . S
H2021 C2040 0.951 . S
H2022 C2042 0.950 . S
H2023 C2043 0.950 . S
H2024 C2045 0.950 . S
H2025 C2048 0.950 . S
H2026 C2049 0.950 . S
H2027 C2051 0.950 . S
H2028 C2052 0.950 . S
H2029 C2053 0.951 . S
H2030 C2055 0.951 . S
H2031 C2057 0.950 . S
H2032 C2058 0.950 . S
H2033 C2060 0.950 . S
H2034 C2063 0.950 . S
H2035 C2064 0.950 . S
H2036 C2066 0.950 . S
H2037 C2067 0.950 . S
C2038 H2020 0.951 . S
C2038 C2039 1.366 . S
C2038 C2040 1.388 . S
C2039 C2038 1.366 . S
C2039 C2043 1.385 . S
C2040 H2021 0.951 . S
C2040 C2038 1.388 . S
C2040 C2041 1.366 . S
C2041 C2040 1.366 . S
C2041 C2042 1.414 . S
C2041 C2044 1.499 . S
C2042 H2022 0.950 . S
C2042 C2041 1.414 . S
C2042 C2043 1.374 . S
C2043 H2023 0.950 . S
C2043 C2039 1.385 . S
C2043 C2042 1.374 . S
C2044 C2041 1.499 . S
C2044 C2045 1.373 . S
C2044 C2046 1.389 . S
C2045 H2024 0.950 . S
C2045 C2044 1.373 . S
C2045 C2061 1.377 . S
C2046 C2044 1.389 . S
C2046 C2047 1.524 . S
C2046 C2060 1.377 . S
C2047 C2046 1.524 . S
C2047 C2048 1.397 . S
C2047 C2052 1.363 . S
C2048 H2025 0.950 . S
C2048 C2047 1.397 . S
C2048 C2049 1.334 . S
C2049 H2026 0.950 . S
C2049 C2048 1.334 . S
C2049 C2050 1.287 . S
C2050 C2049 1.287 . S
C2050 C2051 1.524 . S
C2050 H2069 0.913 . S
C2051 H2027 0.950 . S
C2051 C2050 1.524 . S
C2051 C2052 1.415 . S
C2052 H2028 0.950 . S
C2052 C2047 1.363 . S
C2052 C2051 1.415 . S
C2053 H2029 0.951 . S
C2053 C2054 1.366 . S
C2053 C2055 1.388 . S
C2054 C2053 1.366 . S
C2054 C2058 1.385 . S
C2055 H2030 0.951 . S
C2055 C2053 1.388 . S
C2055 C2056 1.366 . S
C2056 C2055 1.366 . S
C2056 C2057 1.414 . S
C2056 C2059 1.499 . S
C2057 H2031 0.950 . S
C2057 C2056 1.414 . S
C2057 C2058 1.374 . S
C2058 H2032 0.950 . S
C2058 C2054 1.385 . S
C2058 C2057 1.374 . S
C2059 C2056 1.499 . S
C2059 C2060 1.373 . S
C2059 C2061 1.389 . S
C2060 H2033 0.950 . S
C2060 C2046 1.377 . S
C2060 C2059 1.373 . S
C2061 C2045 1.377 . S
C2061 C2059 1.389 . S
C2061 C2062 1.524 . S
C2062 C2061 1.524 . S
C2062 C2063 1.397 . S
C2062 C2067 1.363 . S
C2063 H2034 0.950 . S
C2063 C2062 1.397 . S
C2063 C2064 1.334 . S
C2064 H2035 0.950 . S
C2064 C2063 1.334 . S
C2064 C2065 1.287 . S
C2065 C2064 1.287 . S
C2065 C2066 1.524 . S
C2065 H2068 0.999 . S
C2066 H2036 0.950 . S
C2066 C2065 1.524 . S
C2066 C2067 1.415 . S
C2067 H2037 0.950 . S
C2067 C2062 1.363 . S
C2067 C2066 1.415 . S
H2068 C2065 0.999 . S
H2069 C2050 0.913 . S
H2070 C2088 0.951 . S
H2071 C2090 0.951 . S
H2072 C2092 0.950 . S
H2073 C2093 0.950 . S
H2074 C2095 0.950 . S
H2075 C2098 0.950 . S
H2076 C2099 0.950 . S
H2077 C2101 0.950 . S
H2078 C2102 0.950 . S
H2079 C2103 0.951 . S
H2080 C2105 0.951 . S
H2081 C2107 0.950 . S
H2082 C2108 0.950 . S
H2083 C2110 0.950 . S
H2084 C2113 0.950 . S
H2085 C2114 0.950 . S
H2086 C2116 0.950 . S
H2087 C2117 0.950 . S
C2088 H2070 0.951 . S
C2088 C2089 1.366 . S
C2088 C2090 1.388 . S
C2089 C2088 1.366 . S
C2089 C2093 1.385 . S
C2090 H2071 0.951 . S
C2090 C2088 1.388 . S
C2090 C2091 1.366 . S
C2091 C2090 1.366 . S
C2091 C2092 1.414 . S
C2091 C2094 1.499 . S
C2092 H2072 0.950 . S
C2092 C2091 1.414 . S
C2092 C2093 1.374 . S
C2093 H2073 0.950 . S
C2093 C2089 1.385 . S
C2093 C2092 1.374 . S
C2094 C2091 1.499 . S
C2094 C2095 1.373 . S
C2094 C2096 1.389 . S
C2095 H2074 0.950 . S
C2095 C2094 1.373 . S
C2095 C2111 1.377 . S
C2096 C2094 1.389 . S
C2096 C2097 1.524 . S
C2096 C2110 1.377 . S
C2097 C2096 1.524 . S
C2097 C2098 1.397 . S
C2097 C2102 1.363 . S
C2098 H2075 0.950 . S
C2098 C2097 1.397 . S
C2098 C2099 1.334 . S
C2099 H2076 0.950 . S
C2099 C2098 1.334 . S
C2099 C2100 1.287 . S
C2100 C2099 1.287 . S
C2100 C2101 1.524 . S
C2100 H2119 0.913 . S
C2101 H2077 0.950 . S
C2101 C2100 1.524 . S
C2101 C2102 1.415 . S
C2102 H2078 0.950 . S
C2102 C2097 1.363 . S
C2102 C2101 1.415 . S
C2103 H2079 0.951 . S
C2103 C2104 1.366 . S
C2103 C2105 1.388 . S
C2104 C2103 1.366 . S
C2104 C2108 1.385 . S
C2105 H2080 0.951 . S
C2105 C2103 1.388 . S
C2105 C2106 1.366 . S
C2106 C2105 1.366 . S
C2106 C2107 1.414 . S
C2106 C2109 1.499 . S
C2107 H2081 0.950 . S
C2107 C2106 1.414 . S
C2107 C2108 1.374 . S
C2108 H2082 0.950 . S
C2108 C2104 1.385 . S
C2108 C2107 1.374 . S
C2109 C2106 1.499 . S
C2109 C2110 1.373 . S
C2109 C2111 1.389 . S
C2110 H2083 0.950 . S
C2110 C2096 1.377 . S
C2110 C2109 1.373 . S
C2111 C2095 1.377 . S
C2111 C2109 1.389 . S
C2111 C2112 1.524 . S
C2112 C2111 1.524 . S
C2112 C2113 1.397 . S
C2112 C2117 1.363 . S
C2113 H2084 0.950 . S
C2113 C2112 1.397 . S
C2113 C2114 1.334 . S
C2114 H2085 0.950 . S
C2114 C2113 1.334 . S
C2114 C2115 1.287 . S
C2115 C2114 1.287 . S
C2115 C2116 1.524 . S
C2115 H2118 0.999 . S
C2116 H2086 0.950 . S
C2116 C2115 1.524 . S
C2116 C2117 1.415 . S
C2117 H2087 0.950 . S
C2117 C2112 1.363 . S
C2117 C2116 1.415 . S
H2118 C2115 0.999 . S
H2119 C2100 0.913 . S
H2120 C2138 0.951 . S
H2121 C2140 0.951 . S
H2122 C2142 0.950 . S
H2123 C2143 0.950 . S
H2124 C2145 0.950 . S
H2125 C2148 0.950 . S
H2126 C2149 0.950 . S
H2127 C2151 0.950 . S
H2128 C2152 0.950 . S
H2129 C2153 0.951 . S
H2130 C2155 0.951 . S
H2131 C2157 0.950 . S
H2132 C2158 0.950 . S
H2133 C2160 0.950 . S
H2134 C2163 0.950 . S
H2135 C2164 0.950 . S
H2136 C2166 0.950 . S
H2137 C2167 0.950 . S
C2138 H2120 0.951 . S
C2138 C2139 1.366 . S
C2138 C2140 1.388 . S
C2139 C2138 1.366 . S
C2139 C2143 1.385 . S
C2140 H2121 0.951 . S
C2140 C2138 1.388 . S
C2140 C2141 1.366 . S
C2141 C2140 1.366 . S
C2141 C2142 1.414 . S
C2141 C2144 1.499 . S
C2142 H2122 0.950 . S
C2142 C2141 1.414 . S
C2142 C2143 1.374 . S
C2143 H2123 0.950 . S
C2143 C2139 1.385 . S
C2143 C2142 1.374 . S
C2144 C2141 1.499 . S
C2144 C2145 1.373 . S
C2144 C2146 1.389 . S
C2145 H2124 0.950 . S
C2145 C2144 1.373 . S
C2145 C2161 1.377 . S
C2146 C2144 1.389 . S
C2146 C2147 1.524 . S
C2146 C2160 1.377 . S
C2147 C2146 1.524 . S
C2147 C2148 1.397 . S
C2147 C2152 1.363 . S
C2148 H2125 0.950 . S
C2148 C2147 1.397 . S
C2148 C2149 1.334 . S
C2149 H2126 0.950 . S
C2149 C2148 1.334 . S
C2149 C2150 1.287 . S
C2150 C2149 1.287 . S
C2150 C2151 1.524 . S
C2150 H2169 0.913 . S
C2151 H2127 0.950 . S
C2151 C2150 1.524 . S
C2151 C2152 1.415 . S
C2152 H2128 0.950 . S
C2152 C2147 1.363 . S
C2152 C2151 1.415 . S
C2153 H2129 0.951 . S
C2153 C2154 1.366 . S
C2153 C2155 1.388 . S
C2154 C2153 1.366 . S
C2154 C2158 1.385 . S
C2155 H2130 0.951 . S
C2155 C2153 1.388 . S
C2155 C2156 1.366 . S
C2156 C2155 1.366 . S
C2156 C2157 1.414 . S
C2156 C2159 1.499 . S
C2157 H2131 0.950 . S
C2157 C2156 1.414 . S
C2157 C2158 1.374 . S
C2158 H2132 0.950 . S
C2158 C2154 1.385 . S
C2158 C2157 1.374 . S
C2159 C2156 1.499 . S
C2159 C2160 1.373 . S
C2159 C2161 1.389 . S
C2160 H2133 0.950 . S
C2160 C2146 1.377 . S
C2160 C2159 1.373 . S
C2161 C2145 1.377 . S
C2161 C2159 1.389 . S
C2161 C2162 1.524 . S
C2162 C2161 1.524 . S
C2162 C2163 1.397 . S
C2162 C2167 1.363 . S
C2163 H2134 0.950 . S
C2163 C2162 1.397 . S
C2163 C2164 1.334 . S
C2164 H2135 0.950 . S
C2164 C2163 1.334 . S
C2164 C2165 1.287 . S
C2165 C2164 1.287 . S
C2165 C2166 1.524 . S
C2165 H2168 0.999 . S
C2166 H2136 0.950 . S
C2166 C2165 1.524 . S
C2166 C2167 1.415 . S
C2167 H2137 0.950 . S
C2167 C2162 1.363 . S
C2167 C2166 1.415 . S
H2168 C2165 0.999 . S
H2169 C2150 0.913 . S
H2170 C2188 0.951 . S
H2171 C2190 0.951 . S
H2172 C2192 0.950 . S
H2173 C2193 0.950 . S
H2174 C2195 0.950 . S
H2175 C2198 0.950 . S
H2176 C2199 0.950 . S
H2177 C2201 0.950 . S
H2178 C2202 0.950 . S
H2179 C2203 0.951 . S
H2180 C2205 0.951 . S
H2181 C2207 0.950 . S
H2182 C2208 0.950 . S
H2183 C2210 0.950 . S
H2184 C2213 0.950 . S
H2185 C2214 0.950 . S
H2186 C2216 0.950 . S
H2187 C2217 0.950 . S
C2188 H2170 0.951 . S
C2188 C2189 1.366 1_556 S
C2188 C2190 1.388 . S
C2189 C2188 1.366 1_554 S
C2189 C2193 1.385 . S
C2190 H2171 0.951 . S
C2190 C2188 1.388 . S
C2190 C2191 1.355 1_556 S
C2191 C2190 1.355 1_554 S
C2191 C2192 1.423 . S
C2191 C2194 1.496 . S
C2192 H2172 0.950 . S
C2192 C2191 1.423 . S
C2192 C2193 1.374 . S
C2193 H2173 0.950 . S
C2193 C2189 1.385 . S
C2193 C2192 1.374 . S
C2194 C2191 1.496 . S
C2194 C2195 1.419 . S
C2194 C2196 1.351 1_554 S
C2195 H2174 0.950 . S
C2195 C2194 1.419 . S
C2195 C2211 1.377 . S
C2196 C2194 1.351 1_556 S
C2196 C2197 1.524 . S
C2196 C2210 1.377 . S
C2197 C2196 1.524 . S
C2197 C2198 1.397 . S
C2197 C2202 1.363 . S
C2198 H2175 0.950 . S
C2198 C2197 1.397 . S
C2198 C2199 1.334 . S
C2199 H2176 0.950 . S
C2199 C2198 1.334 . S
C2199 C2200 1.287 . S
C2200 C2199 1.287 . S
C2200 C2201 1.524 . S
C2200 H2219 0.913 . S
C2201 H2177 0.950 . S
C2201 C2200 1.524 . S
C2201 C2202 1.415 . S
C2202 H2178 0.950 . S
C2202 C2197 1.363 . S
C2202 C2201 1.415 . S
C2203 H2179 0.951 . S
C2203 C2204 1.366 . S
C2203 C2205 1.388 . S
C2204 C2203 1.366 . S
C2204 C2208 1.385 1_554 S
C2205 H2180 0.951 . S
C2205 C2203 1.388 . S
C2205 C2206 1.366 . S
C2206 C2205 1.366 . S
C2206 C2207 1.414 1_554 S
C2206 C2209 1.499 . S
C2207 H2181 0.950 . S
C2207 C2206 1.414 1_556 S
C2207 C2208 1.374 . S
C2208 H2182 0.950 . S
C2208 C2204 1.385 1_556 S
C2208 C2207 1.374 . S
C2209 C2206 1.499 . S
C2209 C2210 1.373 1_554 S
C2209 C2211 1.389 . S
C2210 H2183 0.950 . S
C2210 C2196 1.377 . S
C2210 C2209 1.373 1_556 S
C2211 C2195 1.377 . S
C2211 C2209 1.389 . S
C2211 C2212 1.524 . S
C2212 C2211 1.524 . S
C2212 C2213 1.397 . S
C2212 C2217 1.363 . S
C2213 H2184 0.950 . S
C2213 C2212 1.397 . S
C2213 C2214 1.334 . S
C2214 H2185 0.950 . S
C2214 C2213 1.334 . S
C2214 C2215 1.287 . S
C2215 C2214 1.287 . S
C2215 C2216 1.524 . S
C2215 H2218 0.999 . S
C2216 H2186 0.950 . S
C2216 C2215 1.524 . S
C2216 C2217 1.415 . S
C2217 H2187 0.950 . S
C2217 C2212 1.363 . S
C2217 C2216 1.415 . S
H2218 C2215 0.999 . S
H2219 C2200 0.913 . S
H2220 C2238 0.951 . S
H2221 C2240 0.951 . S
H2222 C2242 0.950 . S
H2223 C2243 0.950 . S
H2224 C2245 0.950 . S
H2225 C2248 0.950 . S
H2226 C2249 0.950 . S
H2227 C2251 0.950 . S
H2228 C2252 0.950 . S
H2229 C2253 0.951 . S
H2230 C2255 0.951 . S
H2231 C2257 0.950 . S
H2232 C2258 0.950 . S
H2233 C2260 0.950 . S
H2234 C2263 0.950 . S
H2235 C2264 0.950 . S
H2236 C2266 0.950 . S
H2237 C2267 0.950 . S
C2238 H2220 0.951 . S
C2238 C2239 1.366 . S
C2238 C2240 1.388 . S
C2239 C2238 1.366 . S
C2239 C2243 1.385 . S
C2240 H2221 0.951 . S
C2240 C2238 1.388 . S
C2240 C2241 1.366 . S
C2241 C2240 1.366 . S
C2241 C2242 1.414 . S
C2241 C2244 1.499 . S
C2242 H2222 0.950 . S
C2242 C2241 1.414 . S
C2242 C2243 1.374 . S
C2243 H2223 0.950 . S
C2243 C2239 1.385 . S
C2243 C2242 1.374 . S
C2244 C2241 1.499 . S
C2244 C2245 1.373 . S
C2244 C2246 1.389 . S
C2245 H2224 0.950 . S
C2245 C2244 1.373 . S
C2245 C2261 1.377 . S
C2246 C2244 1.389 . S
C2246 C2247 1.524 . S
C2246 C2260 1.377 . S
C2247 C2246 1.524 . S
C2247 C2248 1.397 . S
C2247 C2252 1.363 . S
C2248 H2225 0.950 . S
C2248 C2247 1.397 . S
C2248 C2249 1.334 . S
C2249 H2226 0.950 . S
C2249 C2248 1.334 . S
C2249 C2250 1.287 . S
C2250 C2249 1.287 . S
C2250 C2251 1.524 . S
C2250 H2269 0.913 . S
C2251 H2227 0.950 . S
C2251 C2250 1.524 . S
C2251 C2252 1.415 . S
C2252 H2228 0.950 . S
C2252 C2247 1.363 . S
C2252 C2251 1.415 . S
C2253 H2229 0.951 . S
C2253 C2254 1.366 . S
C2253 C2255 1.388 . S
C2254 C2253 1.366 . S
C2254 C2258 1.385 . S
C2255 H2230 0.951 . S
C2255 C2253 1.388 . S
C2255 C2256 1.366 . S
C2256 C2255 1.366 . S
C2256 C2257 1.414 . S
C2256 C2259 1.499 . S
C2257 H2231 0.950 . S
C2257 C2256 1.414 . S
C2257 C2258 1.374 . S
C2258 H2232 0.950 . S
C2258 C2254 1.385 . S
C2258 C2257 1.374 . S
C2259 C2256 1.499 . S
C2259 C2260 1.373 . S
C2259 C2261 1.389 . S
C2260 H2233 0.950 . S
C2260 C2246 1.377 . S
C2260 C2259 1.373 . S
C2261 C2245 1.377 . S
C2261 C2259 1.389 . S
C2261 C2262 1.524 . S
C2262 C2261 1.524 . S
C2262 C2263 1.397 . S
C2262 C2267 1.363 . S
C2263 H2234 0.950 . S
C2263 C2262 1.397 . S
C2263 C2264 1.334 . S
C2264 H2235 0.950 . S
C2264 C2263 1.334 . S
C2264 C2265 1.287 . S
C2265 C2264 1.287 . S
C2265 C2266 1.524 . S
C2265 H2268 0.999 . S
C2266 H2236 0.950 . S
C2266 C2265 1.524 . S
C2266 C2267 1.415 . S
C2267 H2237 0.950 . S
C2267 C2262 1.363 . S
C2267 C2266 1.415 . S
H2268 C2265 0.999 . S
H2269 C2250 0.913 . S
H2270 C2288 0.951 . S
H2271 C2290 0.951 . S
H2272 C2292 0.950 . S
H2273 C2293 0.950 . S
H2274 C2295 0.950 . S
H2275 C2298 0.950 . S
H2276 C2299 0.950 . S
H2277 C2301 0.950 . S
H2278 C2302 0.950 . S
H2279 C2303 0.951 . S
H2280 C2305 0.951 . S
H2281 C2307 0.950 . S
H2282 C2308 0.950 . S
H2283 C2310 0.950 . S
H2284 C2313 0.950 . S
H2285 C2314 0.950 . S
H2286 C2316 0.950 . S
H2287 C2317 0.950 . S
C2288 H2270 0.951 . S
C2288 C2289 1.366 . S
C2288 C2290 1.388 . S
C2289 C2288 1.366 . S
C2289 C2293 1.385 . S
C2290 H2271 0.951 . S
C2290 C2288 1.388 . S
C2290 C2291 1.366 . S
C2291 C2290 1.366 . S
C2291 C2292 1.414 . S
C2291 C2294 1.499 . S
C2292 H2272 0.950 . S
C2292 C2291 1.414 . S
C2292 C2293 1.374 . S
C2293 H2273 0.950 . S
C2293 C2289 1.385 . S
C2293 C2292 1.374 . S
C2294 C2291 1.499 . S
C2294 C2295 1.373 . S
C2294 C2296 1.389 . S
C2295 H2274 0.950 . S
C2295 C2294 1.373 . S
C2295 C2311 1.377 . S
C2296 C2294 1.389 . S
C2296 C2297 1.524 . S
C2296 C2310 1.377 . S
C2297 C2296 1.524 . S
C2297 C2298 1.397 . S
C2297 C2302 1.363 . S
C2298 H2275 0.950 . S
C2298 C2297 1.397 . S
C2298 C2299 1.334 . S
C2299 H2276 0.950 . S
C2299 C2298 1.334 . S
C2299 C2300 1.287 . S
C2300 C2299 1.287 . S
C2300 C2301 1.524 . S
C2300 H2319 0.913 . S
C2301 H2277 0.950 . S
C2301 C2300 1.524 . S
C2301 C2302 1.415 . S
C2302 H2278 0.950 . S
C2302 C2297 1.363 . S
C2302 C2301 1.415 . S
C2303 H2279 0.951 . S
C2303 C2304 1.366 . S
C2303 C2305 1.388 . S
C2304 C2303 1.366 . S
C2304 C2308 1.385 . S
C2305 H2280 0.951 . S
C2305 C2303 1.388 . S
C2305 C2306 1.366 . S
C2306 C2305 1.366 . S
C2306 C2307 1.414 . S
C2306 C2309 1.499 . S
C2307 H2281 0.950 . S
C2307 C2306 1.414 . S
C2307 C2308 1.374 . S
C2308 H2282 0.950 . S
C2308 C2304 1.385 . S
C2308 C2307 1.374 . S
C2309 C2306 1.499 . S
C2309 C2310 1.373 . S
C2309 C2311 1.389 . S
C2310 H2283 0.950 . S
C2310 C2296 1.377 . S
C2310 C2309 1.373 . S
C2311 C2295 1.377 . S
C2311 C2309 1.389 . S
C2311 C2312 1.524 . S
C2312 C2311 1.524 . S
C2312 C2313 1.397 . S
C2312 C2317 1.363 . S
C2313 H2284 0.950 . S
C2313 C2312 1.397 . S
C2313 C2314 1.334 . S
C2314 H2285 0.950 . S
C2314 C2313 1.334 . S
C2314 C2315 1.287 . S
C2315 C2314 1.287 . S
C2315 C2316 1.524 . S
C2315 H2318 0.999 . S
C2316 H2286 0.950 . S
C2316 C2315 1.524 . S
C2316 C2317 1.415 . S
C2317 H2287 0.950 . S
C2317 C2312 1.363 . S
C2317 C2316 1.415 . S
H2318 C2315 0.999 . S
H2319 C2300 0.913 . S
H2320 C2338 0.951 . S
H2321 C2340 0.951 . S
H2322 C2342 0.950 . S
H2323 C2343 0.950 . S
H2324 C2345 0.950 . S
H2325 C2348 0.950 . S
H2326 C2349 0.950 . S
H2327 C2351 0.950 . S
H2328 C2352 0.950 . S
H2329 C2353 0.951 . S
H2330 C2355 0.951 . S
H2331 C2357 0.950 . S
H2332 C2358 0.950 . S
H2333 C2360 0.950 . S
H2334 C2363 0.950 . S
H2335 C2364 0.950 . S
H2336 C2366 0.950 . S
H2337 C2367 0.950 . S
C2338 H2320 0.951 . S
C2338 C2339 1.366 . S
C2338 C2340 1.388 . S
C2339 C2338 1.366 . S
C2339 C2343 1.385 . S
C2340 H2321 0.951 . S
C2340 C2338 1.388 . S
C2340 C2341 1.366 . S
C2341 C2340 1.366 . S
C2341 C2342 1.414 . S
C2341 C2344 1.499 . S
C2342 H2322 0.950 . S
C2342 C2341 1.414 . S
C2342 C2343 1.374 . S
C2343 H2323 0.950 . S
C2343 C2339 1.385 . S
C2343 C2342 1.374 . S
C2344 C2341 1.499 . S
C2344 C2345 1.373 . S
C2344 C2346 1.389 . S
C2345 H2324 0.950 . S
C2345 C2344 1.373 . S
C2345 C2361 1.377 . S
C2346 C2344 1.389 . S
C2346 C2347 1.524 . S
C2346 C2360 1.377 . S
C2347 C2346 1.524 . S
C2347 C2348 1.397 . S
C2347 C2352 1.363 . S
C2348 H2325 0.950 . S
C2348 C2347 1.397 . S
C2348 C2349 1.334 . S
C2349 H2326 0.950 . S
C2349 C2348 1.334 . S
C2349 C2350 1.287 . S
C2350 C2349 1.287 . S
C2350 C2351 1.524 . S
C2350 H2369 0.913 . S
C2351 H2327 0.950 . S
C2351 C2350 1.524 . S
C2351 C2352 1.415 . S
C2352 H2328 0.950 . S
C2352 C2347 1.363 . S
C2352 C2351 1.415 . S
C2353 H2329 0.951 . S
C2353 C2354 1.366 . S
C2353 C2355 1.388 . S
C2354 C2353 1.366 . S
C2354 C2358 1.385 . S
C2355 H2330 0.951 . S
C2355 C2353 1.388 . S
C2355 C2356 1.366 . S
C2356 C2355 1.366 . S
C2356 C2357 1.414 . S
C2356 C2359 1.499 . S
C2357 H2331 0.950 . S
C2357 C2356 1.414 . S
C2357 C2358 1.374 . S
C2358 H2332 0.950 . S
C2358 C2354 1.385 . S
C2358 C2357 1.374 . S
C2359 C2356 1.499 . S
C2359 C2360 1.373 . S
C2359 C2361 1.389 . S
C2360 H2333 0.950 . S
C2360 C2346 1.377 . S
C2360 C2359 1.373 . S
C2361 C2345 1.377 . S
C2361 C2359 1.389 . S
C2361 C2362 1.524 . S
C2362 C2361 1.524 . S
C2362 C2363 1.397 . S
C2362 C2367 1.363 . S
C2363 H2334 0.950 . S
C2363 C2362 1.397 . S
C2363 C2364 1.334 . S
C2364 H2335 0.950 . S
C2364 C2363 1.334 . S
C2364 C2365 1.287 . S
C2365 C2364 1.287 . S
C2365 C2366 1.524 . S
C2365 H2368 0.999 . S
C2366 H2336 0.950 . S
C2366 C2365 1.524 . S
C2366 C2367 1.415 . S
C2367 H2337 0.950 . S
C2367 C2362 1.363 . S
C2367 C2366 1.415 . S
H2368 C2365 0.999 . S
H2369 C2350 0.913 . S
H2370 C2388 0.951 . S
H2371 C2390 0.951 . S
H2372 C2392 0.950 . S
H2373 C2393 0.950 . S
H2374 C2395 0.950 . S
H2375 C2398 0.950 . S
H2376 C2399 0.950 . S
H2377 C2401 0.950 . S
H2378 C2402 0.950 . S
H2379 C2403 0.951 . S
H2380 C2405 0.951 . S
H2381 C2407 0.950 . S
H2382 C2408 0.950 . S
H2383 C2410 0.950 . S
H2384 C2413 0.950 . S
H2385 C2414 0.950 . S
H2386 C2416 0.950 . S
H2387 C2417 0.950 . S
C2388 H2370 0.951 . S
C2388 C2389 1.366 . S
C2388 C2390 1.388 . S
C2389 C2388 1.366 . S
C2389 C2393 1.385 . S
C2390 H2371 0.951 . S
C2390 C2388 1.388 . S
C2390 C2391 1.366 . S
C2391 C2390 1.366 . S
C2391 C2392 1.414 . S
C2391 C2394 1.499 . S
C2392 H2372 0.950 . S
C2392 C2391 1.414 . S
C2392 C2393 1.374 . S
C2393 H2373 0.950 . S
C2393 C2389 1.385 . S
C2393 C2392 1.374 . S
C2394 C2391 1.499 . S
C2394 C2395 1.373 . S
C2394 C2396 1.389 . S
C2395 H2374 0.950 . S
C2395 C2394 1.373 . S
C2395 C2411 1.377 . S
C2396 C2394 1.389 . S
C2396 C2397 1.524 . S
C2396 C2410 1.377 . S
C2397 C2396 1.524 . S
C2397 C2398 1.397 . S
C2397 C2402 1.363 . S
C2398 H2375 0.950 . S
C2398 C2397 1.397 . S
C2398 C2399 1.334 . S
C2399 H2376 0.950 . S
C2399 C2398 1.334 . S
C2399 C2400 1.287 . S
C2400 C2399 1.287 . S
C2400 C2401 1.524 . S
C2400 H2419 0.913 . S
C2401 H2377 0.950 . S
C2401 C2400 1.524 . S
C2401 C2402 1.415 . S
C2402 H2378 0.950 . S
C2402 C2397 1.363 . S
C2402 C2401 1.415 . S
C2403 H2379 0.951 . S
C2403 C2404 1.366 . S
C2403 C2405 1.388 . S
C2404 C2403 1.366 . S
C2404 C2408 1.385 . S
C2405 H2380 0.951 . S
C2405 C2403 1.388 . S
C2405 C2406 1.366 . S
C2406 C2405 1.366 . S
C2406 C2407 1.414 . S
C2406 C2409 1.499 . S
C2407 H2381 0.950 . S
C2407 C2406 1.414 . S
C2407 C2408 1.374 . S
C2408 H2382 0.950 . S
C2408 C2404 1.385 . S
C2408 C2407 1.374 . S
C2409 C2406 1.499 . S
C2409 C2410 1.373 . S
C2409 C2411 1.389 . S
C2410 H2383 0.950 . S
C2410 C2396 1.377 . S
C2410 C2409 1.373 . S
C2411 C2395 1.377 . S
C2411 C2409 1.389 . S
C2411 C2412 1.524 . S
C2412 C2411 1.524 . S
C2412 C2413 1.397 . S
C2412 C2417 1.363 . S
C2413 H2384 0.950 . S
C2413 C2412 1.397 . S
C2413 C2414 1.334 . S
C2414 H2385 0.950 . S
C2414 C2413 1.334 . S
C2414 C2415 1.287 . S
C2415 C2414 1.287 . S
C2415 C2416 1.524 . S
C2415 H2418 0.999 . S
C2416 H2386 0.950 . S
C2416 C2415 1.524 . S
C2416 C2417 1.415 . S
C2417 H2387 0.950 . S
C2417 C2412 1.363 . S
C2417 C2416 1.415 . S
H2418 C2415 0.999 . S
H2419 C2400 0.913 . S
H2420 C2438 0.951 . S
H2421 C2440 0.951 . S
H2422 C2442 0.950 . S
H2423 C2443 0.950 . S
H2424 C2445 0.950 . S
H2425 C2448 0.950 . S
H2426 C2449 0.950 . S
H2427 C2451 0.950 . S
H2428 C2452 0.950 . S
H2429 C2453 0.951 . S
H2430 C2455 0.951 . S
H2431 C2457 0.950 . S
H2432 C2458 0.950 . S
H2433 C2460 0.950 . S
H2434 C2463 0.950 . S
H2435 C2464 0.950 . S
H2436 C2466 0.950 . S
H2437 C2467 0.950 . S
C2438 H2420 0.951 . S
C2438 C2439 1.366 1_556 S
C2438 C2440 1.388 . S
C2439 C2438 1.366 1_554 S
C2439 C2443 1.385 . S
C2440 H2421 0.951 . S
C2440 C2438 1.388 . S
C2440 C2441 1.366 1_556 S
C2441 C2440 1.366 1_554 S
C2441 C2442 1.414 . S
C2441 C2444 1.499 . S
C2442 H2422 0.950 . S
C2442 C2441 1.414 . S
C2442 C2443 1.374 . S
C2443 H2423 0.950 . S
C2443 C2439 1.385 . S
C2443 C2442 1.374 . S
C2444 C2441 1.499 . S
C2444 C2445 1.373 . S
C2444 C2446 1.389 1_554 S
C2445 H2424 0.950 . S
C2445 C2444 1.373 . S
C2445 C2461 1.377 . S
C2446 C2444 1.389 1_556 S
C2446 C2447 1.524 . S
C2446 C2460 1.377 . S
C2447 C2446 1.524 . S
C2447 C2448 1.397 . S
C2447 C2452 1.363 . S
C2448 H2425 0.950 . S
C2448 C2447 1.397 . S
C2448 C2449 1.334 . S
C2449 H2426 0.950 . S
C2449 C2448 1.334 . S
C2449 C2450 1.287 . S
C2450 C2449 1.287 . S
C2450 C2451 1.524 . S
C2450 H2469 0.913 . S
C2451 H2427 0.950 . S
C2451 C2450 1.524 . S
C2451 C2452 1.415 . S
C2452 H2428 0.950 . S
C2452 C2447 1.363 . S
C2452 C2451 1.415 . S
C2453 H2429 0.951 . S
C2453 C2454 1.366 . S
C2453 C2455 1.388 . S
C2454 C2453 1.366 . S
C2454 C2458 1.385 1_554 S
C2455 H2430 0.951 . S
C2455 C2453 1.388 . S
C2455 C2456 1.366 . S
C2456 C2455 1.366 . S
C2456 C2457 1.414 1_554 S
C2456 C2459 1.499 . S
C2457 H2431 0.950 . S
C2457 C2456 1.414 1_556 S
C2457 C2458 1.374 . S
C2458 H2432 0.950 . S
C2458 C2454 1.385 1_556 S
C2458 C2457 1.374 . S
C2459 C2456 1.499 . S
C2459 C2460 1.373 1_554 S
C2459 C2461 1.389 . S
C2460 H2433 0.950 . S
C2460 C2446 1.377 . S
C2460 C2459 1.373 1_556 S
C2461 C2445 1.377 . S
C2461 C2459 1.389 . S
C2461 C2462 1.524 . S
C2462 C2461 1.524 . S
C2462 C2463 1.397 . S
C2462 C2467 1.363 . S
C2463 H2434 0.950 . S
C2463 C2462 1.397 . S
C2463 C2464 1.334 . S
C2464 H2435 0.950 . S
C2464 C2463 1.334 . S
C2464 C2465 1.287 . S
C2465 C2464 1.287 . S
C2465 C2466 1.524 . S
C2465 H2468 0.999 . S
C2466 H2436 0.950 . S
C2466 C2465 1.524 . S
C2466 C2467 1.415 . S
C2467 H2437 0.950 . S
C2467 C2462 1.363 . S
C2467 C2466 1.415 . S
H2468 C2465 0.999 . S
H2469 C2450 0.913 . S
H2470 C2488 0.951 . S
H2471 C2490 0.951 . S
H2472 C2492 0.950 . S
H2473 C2493 0.950 . S
H2474 C2495 0.950 . S
H2475 C2498 0.950 . S
H2476 C2499 0.950 . S
H2477 C2501 0.950 . S
H2478 C2502 0.950 . S
H2479 C2503 0.951 . S
H2480 C2505 0.951 . S
H2481 C2507 0.950 . S
H2482 C2508 0.950 . S
H2483 C2510 0.950 . S
H2484 C2513 0.950 . S
H2485 C2514 0.950 . S
H2486 C2516 0.950 . S
H2487 C2517 0.950 . S
C2488 H2470 0.951 . S
C2488 C2489 1.366 . S
C2488 C2490 1.388 . S
C2489 C2488 1.366 . S
C2489 C2493 1.385 . S
C2490 H2471 0.951 . S
C2490 C2488 1.388 . S
C2490 C2491 1.366 . S
C2491 C2490 1.366 . S
C2491 C2492 1.414 . S
C2491 C2494 1.499 . S
C2492 H2472 0.950 . S
C2492 C2491 1.414 . S
C2492 C2493 1.374 . S
C2493 H2473 0.950 . S
C2493 C2489 1.385 . S
C2493 C2492 1.374 . S
C2494 C2491 1.499 . S
C2494 C2495 1.373 . S
C2494 C2496 1.389 . S
C2495 H2474 0.950 . S
C2495 C2494 1.373 . S
C2495 C2511 1.377 . S
C2496 C2494 1.389 . S
C2496 C2497 1.524 . S
C2496 C2510 1.377 . S
C2497 C2496 1.524 . S
C2497 C2498 1.397 . S
C2497 C2502 1.363 . S
C2498 H2475 0.950 . S
C2498 C2497 1.397 . S
C2498 C2499 1.334 . S
C2499 H2476 0.950 . S
C2499 C2498 1.334 . S
C2499 C2500 1.287 . S
C2500 C2499 1.287 . S
C2500 C2501 1.524 . S
C2500 H2519 0.913 . S
C2501 H2477 0.950 . S
C2501 C2500 1.524 . S
C2501 C2502 1.415 . S
C2502 H2478 0.950 . S
C2502 C2497 1.363 . S
C2502 C2501 1.415 . S
C2503 H2479 0.951 . S
C2503 C2504 1.366 . S
C2503 C2505 1.388 . S
C2504 C2503 1.366 . S
C2504 C2508 1.385 . S
C2505 H2480 0.951 . S
C2505 C2503 1.388 . S
C2505 C2506 1.366 . S
C2506 C2505 1.366 . S
C2506 C2507 1.414 . S
C2506 C2509 1.499 . S
C2507 H2481 0.950 . S
C2507 C2506 1.414 . S
C2507 C2508 1.374 . S
C2508 H2482 0.950 . S
C2508 C2504 1.385 . S
C2508 C2507 1.374 . S
C2509 C2506 1.499 . S
C2509 C2510 1.373 . S
C2509 C2511 1.389 . S
C2510 H2483 0.950 . S
C2510 C2496 1.377 . S
C2510 C2509 1.373 . S
C2511 C2495 1.377 . S
C2511 C2509 1.389 . S
C2511 C2512 1.524 . S
C2512 C2511 1.524 . S
C2512 C2513 1.397 . S
C2512 C2517 1.363 . S
C2513 H2484 0.950 . S
C2513 C2512 1.397 . S
C2513 C2514 1.334 . S
C2514 H2485 0.950 . S
C2514 C2513 1.334 . S
C2514 C2515 1.287 . S
C2515 C2514 1.287 . S
C2515 C2516 1.524 . S
C2515 H2518 0.999 . S
C2516 H2486 0.950 . S
C2516 C2515 1.524 . S
C2516 C2517 1.415 . S
C2517 H2487 0.950 . S
C2517 C2512 1.363 . S
C2517 C2516 1.415 . S
H2518 C2515 0.999 . S
H2519 C2500 0.913 . S
H2520 C2538 0.951 . S
H2521 C2540 0.951 . S
H2522 C2542 0.950 . S
H2523 C2543 0.950 . S
H2524 C2545 0.950 . S
H2525 C2548 0.950 . S
H2526 C2549 0.950 . S
H2527 C2551 0.950 . S
H2528 C2552 0.950 . S
H2529 C2553 0.951 . S
H2530 C2555 0.951 . S
H2531 C2557 0.950 . S
H2532 C2558 0.950 . S
H2533 C2560 0.950 . S
H2534 C2563 0.950 . S
H2535 C2564 0.950 . S
H2536 C2566 0.950 . S
H2537 C2567 0.950 . S
C2538 H2520 0.951 . S
C2538 C2539 1.366 . S
C2538 C2540 1.388 . S
C2539 C2538 1.366 . S
C2539 C2543 1.385 . S
C2540 H2521 0.951 . S
C2540 C2538 1.388 . S
C2540 C2541 1.366 . S
C2541 C2540 1.366 . S
C2541 C2542 1.414 . S
C2541 C2544 1.499 . S
C2542 H2522 0.950 . S
C2542 C2541 1.414 . S
C2542 C2543 1.374 . S
C2543 H2523 0.950 . S
C2543 C2539 1.385 . S
C2543 C2542 1.374 . S
C2544 C2541 1.499 . S
C2544 C2545 1.373 . S
C2544 C2546 1.389 . S
C2545 H2524 0.950 . S
C2545 C2544 1.373 . S
C2545 C2561 1.377 . S
C2546 C2544 1.389 . S
C2546 C2547 1.524 . S
C2546 C2560 1.377 . S
C2547 C2546 1.524 . S
C2547 C2548 1.397 . S
C2547 C2552 1.363 . S
C2548 H2525 0.950 . S
C2548 C2547 1.397 . S
C2548 C2549 1.334 . S
C2549 H2526 0.950 . S
C2549 C2548 1.334 . S
C2549 C2550 1.287 . S
C2550 C2549 1.287 . S
C2550 C2551 1.524 . S
C2550 H2569 0.913 . S
C2551 H2527 0.950 . S
C2551 C2550 1.524 . S
C2551 C2552 1.415 . S
C2552 H2528 0.950 . S
C2552 C2547 1.363 . S
C2552 C2551 1.415 . S
C2553 H2529 0.951 . S
C2553 C2554 1.366 . S
C2553 C2555 1.388 . S
C2554 C2553 1.366 . S
C2554 C2558 1.385 . S
C2555 H2530 0.951 . S
C2555 C2553 1.388 . S
C2555 C2556 1.366 . S
C2556 C2555 1.366 . S
C2556 C2557 1.414 . S
C2556 C2559 1.499 . S
C2557 H2531 0.950 . S
C2557 C2556 1.414 . S
C2557 C2558 1.374 . S
C2558 H2532 0.950 . S
C2558 C2554 1.385 . S
C2558 C2557 1.374 . S
C2559 C2556 1.499 . S
C2559 C2560 1.373 . S
C2559 C2561 1.389 . S
C2560 H2533 0.950 . S
C2560 C2546 1.377 . S
C2560 C2559 1.373 . S
C2561 C2545 1.377 . S
C2561 C2559 1.389 . S
C2561 C2562 1.524 . S
C2562 C2561 1.524 . S
C2562 C2563 1.397 . S
C2562 C2567 1.363 . S
C2563 H2534 0.950 . S
C2563 C2562 1.397 . S
C2563 C2564 1.334 . S
C2564 H2535 0.950 . S
C2564 C2563 1.334 . S
C2564 C2565 1.287 . S
C2565 C2564 1.287 . S
C2565 C2566 1.524 . S
C2565 H2568 0.999 . S
C2566 H2536 0.950 . S
C2566 C2565 1.524 . S
C2566 C2567 1.415 . S
C2567 H2537 0.950 . S
C2567 C2562 1.363 . S
C2567 C2566 1.415 . S
H2568 C2565 0.999 . S
H2569 C2550 0.913 . S
H2570 C2588 0.951 . S
H2571 C2590 0.951 . S
H2572 C2592 0.950 . S
H2573 C2593 0.950 . S
H2574 C2595 0.950 . S
H2575 C2598 0.950 . S
H2576 C2599 0.950 . S
H2577 C2601 0.950 . S
H2578 C2602 0.950 . S
H2579 C2603 0.951 . S
H2580 C2605 0.951 . S
H2581 C2607 0.950 . S
H2582 C2608 0.950 . S
H2583 C2610 0.950 . S
H2584 C2613 0.950 . S
H2585 C2614 0.950 . S
H2586 C2616 0.950 . S
H2587 C2617 0.950 . S
C2588 H2570 0.951 . S
C2588 C2589 1.366 . S
C2588 C2590 1.388 . S
C2589 C2588 1.366 . S
C2589 C2593 1.385 . S
C2590 H2571 0.951 . S
C2590 C2588 1.388 . S
C2590 C2591 1.366 . S
C2591 C2590 1.366 . S
C2591 C2592 1.414 . S
C2591 C2594 1.499 . S
C2592 H2572 0.950 . S
C2592 C2591 1.414 . S
C2592 C2593 1.374 . S
C2593 H2573 0.950 . S
C2593 C2589 1.385 . S
C2593 C2592 1.374 . S
C2594 C2591 1.499 . S
C2594 C2595 1.373 . S
C2594 C2596 1.389 . S
C2595 H2574 0.950 . S
C2595 C2594 1.373 . S
C2595 C2611 1.377 . S
C2596 C2594 1.389 . S
C2596 C2597 1.524 . S
C2596 C2610 1.377 . S
C2597 C2596 1.524 . S
C2597 C2598 1.397 . S
C2597 C2602 1.363 . S
C2598 H2575 0.950 . S
C2598 C2597 1.397 . S
C2598 C2599 1.334 . S
C2599 H2576 0.950 . S
C2599 C2598 1.334 . S
C2599 C2600 1.287 . S
C2600 C2599 1.287 . S
C2600 C2601 1.524 . S
C2600 H2619 0.913 . S
C2601 H2577 0.950 . S
C2601 C2600 1.524 . S
C2601 C2602 1.415 . S
C2602 H2578 0.950 . S
C2602 C2597 1.363 . S
C2602 C2601 1.415 . S
C2603 H2579 0.951 . S
C2603 C2604 1.366 . S
C2603 C2605 1.388 . S
C2604 C2603 1.366 . S
C2604 C2608 1.385 . S
C2605 H2580 0.951 . S
C2605 C2603 1.388 . S
C2605 C2606 1.366 . S
C2606 C2605 1.366 . S
C2606 C2607 1.414 . S
C2606 C2609 1.499 . S
C2607 H2581 0.950 . S
C2607 C2606 1.414 . S
C2607 C2608 1.374 . S
C2608 H2582 0.950 . S
C2608 C2604 1.385 . S
C2608 C2607 1.374 . S
C2609 C2606 1.499 . S
C2609 C2610 1.373 . S
C2609 C2611 1.389 . S
C2610 H2583 0.950 . S
C2610 C2596 1.377 . S
C2610 C2609 1.373 . S
C2611 C2595 1.377 . S
C2611 C2609 1.389 . S
C2611 C2612 1.524 . S
C2612 C2611 1.524 . S
C2612 C2613 1.397 . S
C2612 C2617 1.363 . S
C2613 H2584 0.950 . S
C2613 C2612 1.397 . S
C2613 C2614 1.334 . S
C2614 H2585 0.950 . S
C2614 C2613 1.334 . S
C2614 C2615 1.287 . S
C2615 C2614 1.287 . S
C2615 C2616 1.524 . S
C2615 H2618 0.999 . S
C2616 H2586 0.950 . S
C2616 C2615 1.524 . S
C2616 C2617 1.415 . S
C2617 H2587 0.950 . S
C2617 C2612 1.363 . S
C2617 C2616 1.415 . S
H2618 C2615 0.999 . S
H2619 C2600 0.913 . S
H2620 C2638 0.951 . S
H2621 C2640 0.951 . S
H2622 C2642 0.950 . S
H2623 C2643 0.950 . S
H2624 C2645 0.950 . S
H2625 C2648 0.950 . S
H2626 C2649 0.950 . S
H2627 C2651 0.950 . S
H2628 C2652 0.950 . S
H2629 C2653 0.951 . S
H2630 C2655 0.951 . S
H2631 C2657 0.950 . S
H2632 C2658 0.950 . S
H2633 C2660 0.950 . S
H2634 C2663 0.950 . S
H2635 C2664 0.950 . S
H2636 C2666 0.950 . S
H2637 C2667 0.950 . S
C2638 H2620 0.951 . S
C2638 C2639 1.366 . S
C2638 C2640 1.388 . S
C2639 C2638 1.366 . S
C2639 C2643 1.385 . S
C2640 H2621 0.951 . S
C2640 C2638 1.388 . S
C2640 C2641 1.366 . S
C2641 C2640 1.366 . S
C2641 C2642 1.414 . S
C2641 C2644 1.499 . S
C2642 H2622 0.950 . S
C2642 C2641 1.414 . S
C2642 C2643 1.374 . S
C2643 H2623 0.950 . S
C2643 C2639 1.385 . S
C2643 C2642 1.374 . S
C2644 C2641 1.499 . S
C2644 C2645 1.373 . S
C2644 C2646 1.389 . S
C2645 H2624 0.950 . S
C2645 C2644 1.373 . S
C2645 C2661 1.377 . S
C2646 C2644 1.389 . S
C2646 C2647 1.524 . S
C2646 C2660 1.377 . S
C2647 C2646 1.524 . S
C2647 C2648 1.397 . S
C2647 C2652 1.363 . S
C2648 H2625 0.950 . S
C2648 C2647 1.397 . S
C2648 C2649 1.334 . S
C2649 H2626 0.950 . S
C2649 C2648 1.334 . S
C2649 C2650 1.287 . S
C2650 C2649 1.287 . S
C2650 C2651 1.524 . S
C2650 H2669 0.913 . S
C2651 H2627 0.950 . S
C2651 C2650 1.524 . S
C2651 C2652 1.415 . S
C2652 H2628 0.950 . S
C2652 C2647 1.363 . S
C2652 C2651 1.415 . S
C2653 H2629 0.951 . S
C2653 C2654 1.366 . S
C2653 C2655 1.388 . S
C2654 C2653 1.366 . S
C2654 C2658 1.385 . S
C2655 H2630 0.951 . S
C2655 C2653 1.388 . S
C2655 C2656 1.366 . S
C2656 C2655 1.366 . S
C2656 C2657 1.414 . S
C2656 C2659 1.499 . S
C2657 H2631 0.950 . S
C2657 C2656 1.414 . S
C2657 C2658 1.374 . S
C2658 H2632 0.950 . S
C2658 C2654 1.385 . S
C2658 C2657 1.374 . S
C2659 C2656 1.499 . S
C2659 C2660 1.373 . S
C2659 C2661 1.389 . S
C2660 H2633 0.950 . S
C2660 C2646 1.377 . S
C2660 C2659 1.373 . S
C2661 C2645 1.377 . S
C2661 C2659 1.389 . S
C2661 C2662 1.524 . S
C2662 C2661 1.524 . S
C2662 C2663 1.397 . S
C2662 C2667 1.363 . S
C2663 H2634 0.950 . S
C2663 C2662 1.397 . S
C2663 C2664 1.334 . S
C2664 H2635 0.950 . S
C2664 C2663 1.334 . S
C2664 C2665 1.287 . S
C2665 C2664 1.287 . S
C2665 C2666 1.524 . S
C2665 H2668 0.999 . S
C2666 H2636 0.950 . S
C2666 C2665 1.524 . S
C2666 C2667 1.415 . S
C2667 H2637 0.950 . S
C2667 C2662 1.363 . S
C2667 C2666 1.415 . S
H2668 C2665 0.999 . S
H2669 C2650 0.913 . S
H2670 C2688 0.951 . S
H2671 C2690 0.951 . S
H2672 C2692 0.950 . S
H2673 C2693 0.950 . S
H2674 C2695 0.950 . S
H2675 C2698 0.950 . S
H2676 C2699 0.950 . S
H2677 C2701 0.950 . S
H2678 C2702 0.950 . S
H2679 C2703 0.951 . S
H2680 C2705 0.951 . S
H2681 C2707 0.950 . S
H2682 C2708 0.950 . S
H2683 C2710 0.950 . S
H2684 C2713 0.950 . S
H2685 C2714 0.950 . S
H2686 C2716 0.950 . S
H2687 C2717 0.950 . S
C2688 H2670 0.951 . S
C2688 C2689 1.366 . S
C2688 C2690 1.388 . S
C2689 C2688 1.366 . S
C2689 C2693 1.385 . S
C2690 H2671 0.951 . S
C2690 C2688 1.388 . S
C2690 C2691 1.366 . S
C2691 C2690 1.366 . S
C2691 C2692 1.414 . S
C2691 C2694 1.499 . S
C2692 H2672 0.950 . S
C2692 C2691 1.414 . S
C2692 C2693 1.374 . S
C2693 H2673 0.950 . S
C2693 C2689 1.385 . S
C2693 C2692 1.374 . S
C2694 C2691 1.499 . S
C2694 C2695 1.373 . S
C2694 C2696 1.389 . S
C2695 H2674 0.950 . S
C2695 C2694 1.373 . S
C2695 C2711 1.377 . S
C2696 C2694 1.389 . S
C2696 C2697 1.524 . S
C2696 C2710 1.377 . S
C2697 C2696 1.524 . S
C2697 C2698 1.397 . S
C2697 C2702 1.363 . S
C2698 H2675 0.950 . S
C2698 C2697 1.397 . S
C2698 C2699 1.334 . S
C2699 H2676 0.950 . S
C2699 C2698 1.334 . S
C2699 C2700 1.287 . S
C2700 C2699 1.287 . S
C2700 C2701 1.524 . S
C2700 H2719 0.913 . S
C2701 H2677 0.950 . S
C2701 C2700 1.524 . S
C2701 C2702 1.415 . S
C2702 H2678 0.950 . S
C2702 C2697 1.363 . S
C2702 C2701 1.415 . S
C2703 H2679 0.951 . S
C2703 C2704 1.366 . S
C2703 C2705 1.388 . S
C2704 C2703 1.366 . S
C2704 C2708 1.385 . S
C2705 H2680 0.951 . S
C2705 C2703 1.388 . S
C2705 C2706 1.366 . S
C2706 C2705 1.366 . S
C2706 C2707 1.414 . S
C2706 C2709 1.499 . S
C2707 H2681 0.950 . S
C2707 C2706 1.414 . S
C2707 C2708 1.374 . S
C2708 H2682 0.950 . S
C2708 C2704 1.385 . S
C2708 C2707 1.374 . S
C2709 C2706 1.499 . S
C2709 C2710 1.373 . S
C2709 C2711 1.389 . S
C2710 H2683 0.950 . S
C2710 C2696 1.377 . S
C2710 C2709 1.373 . S
C2711 C2695 1.377 . S
C2711 C2709 1.389 . S
C2711 C2712 1.524 . S
C2712 C2711 1.524 . S
C2712 C2713 1.397 . S
C2712 C2717 1.363 . S
C2713 H2684 0.950 . S
C2713 C2712 1.397 . S
C2713 C2714 1.334 . S
C2714 H2685 0.950 . S
C2714 C2713 1.334 . S
C2714 C2715 1.287 . S
C2715 C2714 1.287 . S
C2715 C2716 1.524 . S
C2715 H2718 0.999 . S
C2716 H2686 0.950 . S
C2716 C2715 1.524 . S
C2716 C2717 1.415 . S
C2717 H2687 0.950 . S
C2717 C2712 1.363 . S
C2717 C2716 1.415 . S
H2718 C2715 0.999 . S
H2719 C2700 0.913 . S
C339 C6 1.059 . S
C354 C39 1.049 1_455 S
C389 C49 0.775 . S
C404 C36 0.774 . S
C439 C76 0.755 . S
C454 C46 0.753 . S
C489 C9 0.851 . S
C504 C79 0.841 . S
C539 C1 0.852 . S
C554 C188 0.839 1_545 S
C589 C156 1.057 . S
C604 C28 1.048 . S
C639 C41 1.044 . S
C654 C206 1.023 . S
C689 C66 0.937 . S
C704 C276 0.942 . S
C739 C161 0.802 . S
C754 C26 0.798 . S
C789 C246 0.966 . S
C804 C56 0.966 . S
C839 C296 0.937 . S
C854 C68 0.931 . S
C889 C16 1.060 . S
C904 C228 1.049 . S
C939 C19 1.141 . S
C954 C179 1.145 1_554 S
C989 C249 1.326 . S
C1004 C81 1.336 . S
C1039 C108 1.196 . S
C1054 C299 1.182 . S
C1089 C221 1.240 . S
C1104 C129 1.239 . S
C1139 C48 1.168 . S
C1154 C148 1.153 . S
C1189 C181 1.282 . S
C1204 C89 1.276 . S
C1239 C121 1.326 . S
C1254 C209 1.336 . S
C1289 C101 0.776 . S
C1304 C226 0.774 . S
C1339 C186 0.754 . S
C1354 C116 0.755 . S
C1389 C239 1.049 . S
C1404 C146 1.055 . S
C1439 C109 1.044 . S
C1454 C96 1.022 . S
C1489 C196 0.938 . S
C1504 C166 0.941 . S
C1539 C269 0.802 . S
C1554 C236 0.800 . S
C1589 C136 0.966 . S
C1604 C106 0.965 . S
C1639 C199 0.931 . S
C1654 C286 0.937 . S
C1689 C268 1.147 . S
C1704 C8 1.141 . S
C1739 C59 1.196 . S
C1754 C288 1.182 . S
C1789 C241 1.239 . S
C1804 C29 1.240 . S
C1839 C159 1.154 . S
C1854 C119 1.167 . S
C1889 C69 1.282 . S
C1904 C201 1.276 . S
C1939 C256 0.927 . S
C1954 C266 0.926 . S
C1989 C149 1.244 . S
C2004 C259 1.196 . S
C2039 C128 1.197 . S
C2054 C141 1.244 . S
C2089 C86 0.798 . S
C2104 C261 0.801 . S
C2139 C248 1.192 . S
C2154 C301 1.236 . S
C2189 C308 1.185 . S
C2204 C168 1.198 . S
C2239 C21 1.186 . S
C2254 C189 1.176 . S
C2289 C176 0.926 . S
C2304 C126 0.927 . S
C2339 C169 0.801 . S
C2354 C216 0.800 . S
C2389 C309 1.236 . S
C2404 C139 1.191 . S
C2439 C279 1.184 1_554 S
C2454 C319 1.189 . S
C2489 C229 1.186 . S
C2504 C61 1.176 . S
C2539 C219 1.373 . S
C2554 C289 1.421 . S
C2589 C208 1.384 . S
C2604 C316 1.408 . S
C2639 C88 1.373 . S
C2654 C281 1.421 . S
C2689 C306 1.408 . S
C2704 C99 1.383 . S
