# Generated by pormake.
# Topology wji, (4)-cn, num edge types: 1
# Building blocks:
#     Node 0, Type 0, BuildingBlock: ICAMEG_clean_sbu_1, # of connection points: 4
#     Node 1, Type 0, BuildingBlock: ICAMEG_clean_sbu_1, # of connection points: 4
#     Node 2, Type 0, BuildingBlock: ICAMEG_clean_sbu_1, # of connection points: 4
#     Node 3, Type 0, BuildingBlock: ICAMEG_clean_sbu_1, # of connection points: 4
#     Node 4, Type 0, BuildingBlock: ICAMEG_clean_sbu_1, # of connection points: 4
#     Node 5, Type 0, BuildingBlock: ICAMEG_clean_sbu_1, # of connection points: 4
#     Node 6, Type 0, BuildingBlock: ICAMEG_clean_sbu_1, # of connection points: 4
#     Node 7, Type 0, BuildingBlock: ICAMEG_clean_sbu_1, # of connection points: 4
#     Node 8, Type 0, BuildingBlock: ICAMEG_clean_sbu_1, # of connection points: 4
#     Node 9, Type 0, BuildingBlock: ICAMEG_clean_sbu_1, # of connection points: 4
#     Node 10, Type 0, BuildingBlock: ICAMEG_clean_sbu_1, # of connection points: 4
#     Node 11, Type 0, BuildingBlock: ICAMEG_clean_sbu_1, # of connection points: 4
#     Edge 12, Type (0, 0), BuildingBlock: CIFDUS_clean_linker_0, # of connection points: 2
#     Edge 13, Type (0, 0), BuildingBlock: CIFDUS_clean_linker_0, # of connection points: 2
#     Edge 14, Type (0, 0), BuildingBlock: CIFDUS_clean_linker_0, # of connection points: 2
#     Edge 15, Type (0, 0), BuildingBlock: CIFDUS_clean_linker_0, # of connection points: 2
#     Edge 16, Type (0, 0), BuildingBlock: CIFDUS_clean_linker_0, # of connection points: 2
#     Edge 17, Type (0, 0), BuildingBlock: CIFDUS_clean_linker_0, # of connection points: 2
#     Edge 18, Type (0, 0), BuildingBlock: CIFDUS_clean_linker_0, # of connection points: 2
#     Edge 19, Type (0, 0), BuildingBlock: CIFDUS_clean_linker_0, # of connection points: 2
#     Edge 20, Type (0, 0), BuildingBlock: CIFDUS_clean_linker_0, # of connection points: 2
#     Edge 21, Type (0, 0), BuildingBlock: CIFDUS_clean_linker_0, # of connection points: 2
#     Edge 22, Type (0, 0), BuildingBlock: CIFDUS_clean_linker_0, # of connection points: 2
#     Edge 23, Type (0, 0), BuildingBlock: CIFDUS_clean_linker_0, # of connection points: 2
#     Edge 24, Type (0, 0), BuildingBlock: CIFDUS_clean_linker_0, # of connection points: 2
#     Edge 25, Type (0, 0), BuildingBlock: CIFDUS_clean_linker_0, # of connection points: 2
#     Edge 26, Type (0, 0), BuildingBlock: CIFDUS_clean_linker_0, # of connection points: 2
#     Edge 27, Type (0, 0), BuildingBlock: CIFDUS_clean_linker_0, # of connection points: 2
#     Edge 28, Type (0, 0), BuildingBlock: CIFDUS_clean_linker_0, # of connection points: 2
#     Edge 29, Type (0, 0), BuildingBlock: CIFDUS_clean_linker_0, # of connection points: 2
#     Edge 30, Type (0, 0), BuildingBlock: CIFDUS_clean_linker_0, # of connection points: 2
#     Edge 31, Type (0, 0), BuildingBlock: CIFDUS_clean_linker_0, # of connection points: 2
#     Edge 32, Type (0, 0), BuildingBlock: CIFDUS_clean_linker_0, # of connection points: 2
#     Edge 33, Type (0, 0), BuildingBlock: CIFDUS_clean_linker_0, # of connection points: 2
#     Edge 34, Type (0, 0), BuildingBlock: CIFDUS_clean_linker_0, # of connection points: 2
#     Edge 35, Type (0, 0), BuildingBlock: CIFDUS_clean_linker_0, # of connection points: 2
# Relax obj value: 0.323
# Max RMSD: 0.211
# Mean RMSD: 0.211
data_MOF--net-wji--node1-ICAMEG_clean_sbu_1--edge1-CIFDUS_clean_linker_0
_symmetry_space_group_name_H-M    P1
_symmetry_Int_Tables_number       1
_symmetry_cell_setting            triclinic
loop_
_symmetry_equiv_pos_as_xyz
'x, y, z'
_cell_length_a     53.702786
_cell_length_b     53.663798
_cell_length_c     20.681598
_cell_angle_alpha  90.031473
_cell_angle_beta   89.889312
_cell_angle_gamma 120.01911
loop_
_atom_site_label
_atom_site_type_symbol
_atom_site_fract_x
_atom_site_fract_y
_atom_site_fract_z
_atom_type_partial_charge
Co0 Co 0.4228 0.36119 0.47603 0.0
Co1 Co 0.44659 0.32702 0.37549 0.0
O2 O 0.42623 0.3277 0.45339 0.0
C3 C 0.36814 0.30891 0.52403 0.0
O4 O 0.3752 0.29094 0.49846 0.0
C5 C 0.46447 0.29994 0.48293 0.0
O6 O 0.46732 0.32045 0.52206 0.0
O7 O 0.48231 0.36281 0.40524 0.0
O8 O 0.46157 0.38795 0.43813 0.0
H9 H 0.51049 0.37039 0.18172 0.0
H10 H 0.41691 0.31916 0.57907 0.0
O11 O 0.38384 0.33598 0.51549 0.0
H12 H 0.49217 0.41393 0.6568 0.0
H13 H 0.39498 0.41939 0.6193 0.0
H14 H 0.43564 0.41518 0.40822 0.0
H15 H 0.46946 0.40924 0.55075 0.0
H16 H 0.40061 0.37787 0.59101 0.0
O17 O 0.45861 0.30093 0.42305 0.0
H18 H 0.48373 0.37054 0.27871 0.0
H19 H 0.45422 0.28181 0.3095 0.0
H20 H 0.43058 0.45725 0.43478 0.0
H21 H 0.43843 0.32298 0.68584 0.0
H22 H 0.41013 0.45954 0.54104 0.0
H23 H 0.47645 0.37066 0.72558 0.0
O24 O 0.40451 0.35877 0.39114 0.0
H25 H 0.36126 0.22744 0.40075 0.0
H26 H 0.41384 0.30911 0.25155 0.0
H27 H 0.36975 0.26606 0.21431 0.0
H28 H 0.34316 0.22477 0.28907 0.0
H29 H 0.40522 0.27105 0.4363 0.0
H30 H 0.48083 0.28075 0.21319 0.0
H31 H 0.50913 0.32525 0.14842 0.0
O32 O 0.43348 0.35173 0.32472 0.0
C33 C 0.48368 0.38655 0.42076 0.0
C34 C 0.49819 0.35085 0.20946 0.0
C35 C 0.48158 0.30055 0.22718 0.0
N36 N 0.46733 0.32619 0.29948 0.0
C37 C 0.48295 0.35079 0.26433 0.0
C38 C 0.46662 0.3013 0.28178 0.0
C39 C 0.49744 0.32552 0.19084 0.0
C40 C 0.43281 0.34006 0.59624 0.0
N41 N 0.44119 0.36399 0.55899 0.0
C42 C 0.44525 0.34206 0.65667 0.0
C43 C 0.46665 0.36878 0.67882 0.0
C44 C 0.4755 0.39305 0.64022 0.0
C45 C 0.46257 0.39022 0.58006 0.0
C46 C 0.40395 0.41867 0.57288 0.0
C47 C 0.4269 0.4161 0.45467 0.0
C48 C 0.40713 0.39516 0.55644 0.0
N49 N 0.41867 0.39417 0.49807 0.0
C50 C 0.42399 0.43993 0.46939 0.0
C51 C 0.41248 0.44119 0.52897 0.0
C52 C 0.41447 0.35933 0.33471 0.0
C53 C 0.37263 0.24531 0.36774 0.0
C54 C 0.40224 0.29142 0.28471 0.0
C55 C 0.37736 0.267 0.26317 0.0
C56 C 0.36247 0.24383 0.3051 0.0
N57 N 0.41202 0.29278 0.34634 0.0
C58 C 0.39759 0.27008 0.38758 0.0
Co59 Co 0.06912 0.42257 0.63654 0.0
Co60 Co 0.13281 0.44597 0.55699 0.0
O61 O 0.10711 0.42566 0.62983 0.0
C62 C 0.06262 0.36782 0.69512 0.0
O63 O 0.08826 0.37398 0.67525 0.0
C64 C 0.17261 0.45866 0.67537 0.0
O65 O 0.15132 0.4532 0.71473 0.0
O66 O 0.13167 0.48183 0.58083 0.0
O67 O 0.08398 0.46106 0.59423 0.0
H68 H 0.16422 0.51049 0.36211 0.0
H69 H 0.09699 0.41655 0.75631 0.0
O70 O 0.05234 0.38393 0.68024 0.0
H71 H 0.07747 0.49523 0.80206 0.0
H72 H 0.97522 0.39667 0.74544 0.0
H73 H 0.03356 0.43542 0.54768 0.0
H74 H 0.06469 0.47068 0.69662 0.0
H75 H 0.02337 0.40186 0.73804 0.0
O76 O 0.1687 0.45824 0.61392 0.0
H77 H 0.13232 0.48376 0.45335 0.0
H78 H 0.18814 0.45266 0.50733 0.0
H79 H 0.98559 0.43083 0.55334 0.0
H80 H 0.10937 0.43994 0.86281 0.0
H81 H 0.95604 0.41134 0.65281 0.0
H82 H 0.0998 0.47978 0.88631 0.0
O83 O 0.05826 0.40346 0.55046 0.0
H84 H 0.14263 0.35911 0.60182 0.0
H85 H 0.12502 0.41367 0.43409 0.0
H86 H 0.12507 0.36927 0.40418 0.0
H87 H 0.13403 0.34168 0.48831 0.0
H88 H 0.14196 0.40338 0.62975 0.0
H89 H 0.22077 0.47926 0.41709 0.0
H90 H 0.20882 0.50835 0.34354 0.0
O91 O 0.09828 0.4333 0.49572 0.0
C92 C 0.10866 0.48328 0.58541 0.0
C93 C 0.16964 0.49787 0.39378 0.0
C94 C 0.20141 0.48038 0.42469 0.0
N95 N 0.15832 0.46663 0.48555 0.0
C96 C 0.15164 0.48265 0.44546 0.0
C97 C 0.1829 0.46545 0.47588 0.0
C98 C 0.19468 0.49667 0.38342 0.0
C99 C 0.09215 0.43336 0.76625 0.0
N100 N 0.07968 0.44178 0.72021 0.0
C101 C 0.0995 0.44678 0.82664 0.0
C102 C 0.09419 0.46917 0.83975 0.0
C103 C 0.08169 0.47785 0.79249 0.0
C104 C 0.07459 0.46389 0.73271 0.0
C105 C 0.98788 0.40524 0.70189 0.0
C106 C 0.02093 0.42706 0.59125 0.0
C107 C 0.01516 0.40814 0.69728 0.0
N108 N 0.03137 0.41905 0.64251 0.0
C109 C 0.99373 0.42445 0.59412 0.0
C110 C 0.97715 0.41348 0.6499 0.0
C111 C 0.07137 0.41406 0.49724 0.0
C112 C 0.13871 0.37095 0.56469 0.0
C113 C 0.12863 0.40168 0.47118 0.0
C114 C 0.12879 0.3766 0.45384 0.0
C115 C 0.13385 0.36116 0.50103 0.0
N116 N 0.13339 0.41116 0.53378 0.0
C117 C 0.1384 0.39612 0.58022 0.0
Co118 Co 0.65668 0.06875 0.78151 0.0
Co119 Co 0.69927 0.13033 0.69621 0.0
O120 O 0.69343 0.10443 0.76868 0.0
C121 C 0.70238 0.05685 0.83486 0.0
O122 O 0.7234 0.08258 0.81962 0.0
C123 C 0.7271 0.1713 0.81163 0.0
O124 O 0.70526 0.15411 0.84843 0.0
O125 O 0.66541 0.13372 0.7258 0.0
O126 O 0.6348 0.08728 0.7478 0.0
H127 H 0.66713 0.1667 0.50882 0.0
H128 H 0.69801 0.09952 0.8905 0.0
O129 O 0.67662 0.04849 0.81746 0.0
H130 H 0.60403 0.08211 0.96842 0.0
H131 H 0.58653 0.97802 0.89887 0.0
H132 H 0.60356 0.03698 0.70325 0.0
H133 H 0.60898 0.06716 0.85906 0.0
H134 H 0.63214 0.02351 0.88447 0.0
O135 O 0.7269 0.16523 0.75146 0.0
H136 H 0.66082 0.13399 0.5991 0.0
H137 H 0.74999 0.18275 0.64185 0.0
H138 H 0.55748 0.99168 0.71608 0.0
H139 H 0.69385 0.11385 1.00065 0.0
H140 H 0.54872 0.96185 0.81449 0.0
H141 H 0.64658 0.10532 0.04061 0.0
O142 O 0.65928 0.05559 0.6926 0.0
H143 H 0.79179 0.12978 0.72737 0.0
H144 H 0.71812 0.11837 0.56956 0.0
H145 H 0.75889 0.11291 0.53355 0.0
H146 H 0.79616 0.11869 0.61269 0.0
H147 H 0.75047 0.13476 0.76143 0.0
H148 H 0.75724 0.21613 0.55242 0.0
H149 H 0.71564 0.20812 0.48501 0.0
O150 O 0.67322 0.09629 0.63703 0.0
C151 C 0.64007 0.11299 0.73803 0.0
C152 C 0.68544 0.17038 0.53775 0.0
C153 C 0.73601 0.19814 0.56228 0.0
N154 N 0.70502 0.15638 0.62546 0.0
C155 C 0.682 0.1519 0.58883 0.0
C156 C 0.73175 0.17923 0.61299 0.0
C157 C 0.71265 0.19363 0.52446 0.0
C158 C 0.6772 0.09482 0.90746 0.0
N159 N 0.65363 0.0815 0.86826 0.0
C160 C 0.67505 0.10344 0.96998 0.0
C161 C 0.64858 0.09878 0.99227 0.0
C162 C 0.62472 0.08577 0.9518 0.0
C163 C 0.6277 0.07739 0.88965 0.0
C164 C 0.59007 0.99081 0.85579 0.0
C165 C 0.59987 0.0242 0.74635 0.0
C166 C 0.61593 0.01657 0.84719 0.0
N167 N 0.62049 0.03304 0.79317 0.0
C168 C 0.57376 0.99853 0.75327 0.0
C169 C 0.56887 0.98178 0.80845 0.0
C170 C 0.6625 0.06879 0.63918 0.0
C171 C 0.77569 0.12719 0.69243 0.0
C172 C 0.73406 0.12064 0.60446 0.0
C173 C 0.7572 0.11767 0.5837 0.0
C174 C 0.77811 0.12094 0.6281 0.0
N175 N 0.73178 0.1267 0.6677 0.0
C176 C 0.75225 0.13002 0.71143 0.0
Co177 Co 0.60037 0.64809 0.96323 0.0
Co178 Co 0.58407 0.69394 0.88433 0.0
O179 O 0.60252 0.68529 0.95475 0.0
C180 C 0.65837 0.69297 0.01527 0.0
O181 O 0.65534 0.7139 0.99149 0.0
C182 C 0.55683 0.72435 0.95821 0.0
O183 O 0.53303 0.70991 0.9247 0.0
O184 O 0.54602 0.65967 0.90908 0.0
O185 O 0.56053 0.62768 0.92608 0.0
H186 H 0.5173 0.66943 0.69539 0.0
H187 H 0.61063 0.68731 0.075 0.0
O188 O 0.63992 0.66677 1.0032 0.0
H189 H 0.53074 0.59304 0.14299 0.0
H190 H 0.61715 0.57394 0.07307 0.0
H191 H 0.57957 0.5969 0.87842 0.0
H192 H 0.55228 0.59933 0.0348 0.0
H193 H 0.61848 0.62037 0.06387 0.0
O194 O 0.57776 0.71964 0.94858 0.0
H195 H 0.54168 0.65931 0.78405 0.0
H196 H 0.58634 0.74767 0.83629 0.0
H197 H 0.57759 0.55008 0.88595 0.0
H198 H 0.59018 0.68188 0.18397 0.0
H199 H 0.59646 0.53834 0.98385 0.0
H200 H 0.5499 0.63442 0.21883 0.0
O201 O 0.61722 0.65271 0.87506 0.0
H202 H 0.677 0.7857 0.92707 0.0
H203 H 0.61719 0.71521 0.761 0.0
H204 H 0.66408 0.75644 0.73029 0.0
H205 H 0.69433 0.79215 0.81355 0.0
H206 H 0.63024 0.74387 0.95605 0.0
H207 H 0.56251 0.75878 0.74821 0.0
H208 H 0.52769 0.71948 0.67705 0.0
O209 O 0.59207 0.66908 0.82054 0.0
C210 C 0.54062 0.6338 0.91765 0.0
C211 C 0.5324 0.68673 0.72611 0.0
C212 C 0.55778 0.73688 0.75574 0.0
N213 N 0.5653 0.70284 0.81538 0.0
C214 C 0.54623 0.68112 0.7764 0.0
C215 C 0.5712 0.73046 0.80553 0.0
C216 C 0.53825 0.71482 0.71584 0.0
C217 C 0.59356 0.66648 0.0899 0.0
N218 N 0.58338 0.6435 0.04886 0.0
C219 C 0.58183 0.66359 0.15165 0.0
C220 C 0.55919 0.63699 0.17111 0.0
C221 C 0.54845 0.61377 0.12861 0.0
C222 C 0.56076 0.61748 0.06727 0.0
C223 C 0.60884 0.57879 0.03019 0.0
C224 C 0.5877 0.59191 0.9213 0.0
C225 C 0.60963 0.60511 0.02455 0.0
N226 N 0.59894 0.6113 0.97076 0.0
C227 C 0.58658 0.56538 0.92523 0.0
C228 C 0.59721 0.55882 0.98013 0.0
C229 C 0.60828 0.65759 0.82193 0.0
C230 C 0.66404 0.77027 0.89036 0.0
C231 C 0.63037 0.73033 0.79785 0.0
C232 C 0.65684 0.7538 0.78 0.0
C233 C 0.67377 0.77385 0.82669 0.0
N234 N 0.621 0.72683 0.86052 0.0
C235 C 0.63744 0.74653 0.90643 0.0
Co236 Co 0.95602 0.59313 0.15758 0.0
Co237 Co 0.89841 0.57665 0.05808 0.0
O238 O 0.92146 0.59463 0.13534 0.0
C239 C 0.96706 0.65206 0.19928 0.0
O240 O 0.94297 0.64779 0.17358 0.0
C241 C 0.85678 0.5566 0.16983 0.0
O242 O 0.87433 0.54944 0.19726 0.0
O243 O 0.89541 0.53885 0.08057 0.0
O244 O 0.93862 0.55274 0.1242 0.0
H245 H 0.87025 0.51626 0.85689 0.0
H246 H 0.92338 0.60597 0.25696 0.0
O247 O 0.97499 0.63339 0.19338 0.0
H248 H 0.93278 0.52628 0.3477 0.0
H249 H 0.04069 0.61261 0.29725 0.0
H250 H 0.99072 0.57174 0.09106 0.0
H251 H 0.95224 0.5457 0.23986 0.0
H252 H 0.99633 0.61315 0.27003 0.0
O253 O 0.86194 0.56608 0.11151 0.0
H254 H 0.89981 0.53978 0.95329 0.0
H255 H 0.84624 0.5743 1.00169 0.0
H256 H 0.03497 0.57053 0.11667 0.0
H257 H 0.90439 0.58786 0.36559 0.0
H258 H 0.06027 0.59109 0.22042 0.0
H259 H 0.90896 0.54763 0.41186 0.0
O260 O 0.97267 0.60885 0.07103 0.0
H261 H 0.8912 0.66516 0.10065 0.0
H262 H 0.91442 0.61246 0.93845 0.0
H263 H 0.91835 0.65878 0.90901 0.0
H264 H 0.90661 0.68544 0.99033 0.0
H265 H 0.88802 0.61901 0.12844 0.0
H266 H 0.81596 0.551 0.90613 0.0
H267 H 0.82798 0.52183 0.83283 0.0
O268 O 0.93491 0.58816 1.00341 0.0
C269 C 0.91451 0.53333 0.10158 0.0
C270 C 0.86484 0.52899 0.88834 0.0
C271 C 0.83434 0.54846 0.91604 0.0
N272 N 0.87486 0.55854 0.98268 0.0
C273 C 0.88154 0.54241 0.94285 0.0
C274 C 0.85152 0.56154 0.97014 0.0
C275 C 0.84111 0.5321 0.87491 0.0
C276 C 0.92617 0.58904 0.277 0.0
N277 N 0.93971 0.57757 0.24232 0.0
C278 C 0.91502 0.57858 0.33846 0.0
C279 C 0.91747 0.55594 0.36427 0.0
C280 C 0.93079 0.54393 0.32827 0.0
C281 C 0.94172 0.55499 0.26702 0.0
C282 C 0.02987 0.60357 0.2519 0.0
C283 C 1.00152 0.58057 0.13644 0.0
C284 C 1.00477 0.6039 0.23607 0.0
N285 N 0.99081 0.5923 0.1791 0.0
C286 C 0.02661 0.5799 0.15061 0.0
C287 C 0.04082 0.59147 0.2088 0.0
C288 C 0.96226 0.60278 0.01393 0.0
C289 C 0.89641 0.65376 0.0648 0.0
C290 C 0.90964 0.62408 0.97446 0.0
C291 C 0.91173 0.65023 0.95733 0.0
C292 C 0.90509 0.66515 1.00293 0.0
N293 N 0.90125 0.6131 0.03537 0.0
C294 C 0.89456 0.62755 0.08019 0.0
Co295 Co 0.37184 0.95306 0.30125 0.0
Co296 Co 0.32666 0.89111 0.21878 0.0
O297 O 0.33442 0.91748 0.29157 0.0
C298 C 0.32669 0.96626 0.352 0.0
O299 O 0.30579 0.94182 0.32992 0.0
C300 C 0.29881 0.85142 0.33659 0.0
O301 O 0.31878 0.87061 0.37437 0.0
O302 O 0.36052 0.88734 0.24473 0.0
O303 O 0.39278 0.93368 0.2651 0.0
H304 H 0.35508 0.85377 0.02642 0.0
H305 H 0.33283 0.92626 0.41495 0.0
O306 O 0.35287 0.9739 0.34014 0.0
H307 H 0.42608 0.93783 0.48092 0.0
H308 H 0.44487 0.04393 0.41306 0.0
H309 H 0.42352 0.9838 0.21793 0.0
H310 H 0.41982 0.95236 0.372 0.0
H311 H 0.39874 0.99865 0.40275 0.0
O312 O 0.29995 0.85619 0.27547 0.0
H313 H 0.36317 0.8868 0.11727 0.0
H314 H 0.27474 0.83877 0.16804 0.0
H315 H 0.47006 0.02889 0.22654 0.0
H316 H 0.33831 0.91211 0.52466 0.0
H317 H 0.48099 0.05931 0.32469 0.0
H318 H 0.3852 0.91771 0.55838 0.0
O319 O 0.36796 0.96594 0.21325 0.0
H320 H 0.23455 0.89142 0.26042 0.0
H321 H 0.30585 0.9031 0.09511 0.0
H322 H 0.26451 0.90843 0.06402 0.0
H323 H 0.22841 0.90249 0.14695 0.0
H324 H 0.2765 0.88673 0.28958 0.0
H325 H 0.26573 0.80509 0.07814 0.0
H326 H 0.30606 0.81256 1.00642 0.0
O327 O 0.35179 0.92487 0.15778 0.0
C328 C 0.38616 0.90753 0.2559 0.0
C329 C 0.33732 0.85033 0.05723 0.0
C330 C 0.28718 0.82298 0.08632 0.0
N331 N 0.31944 0.86481 0.14765 0.0
C332 C 0.34177 0.86899 0.10864 0.0
C333 C 0.29243 0.84208 0.13727 0.0
C334 C 0.30981 0.8272 0.04608 0.0
C335 C 0.35346 0.92945 0.4294 0.0
N336 N 0.37608 0.94077 0.38717 0.0
C337 C 0.35637 0.92107 0.49156 0.0
C338 C 0.38264 0.92413 0.51039 0.0
C339 C 0.40558 0.93543 0.46698 0.0
C340 C 0.40186 0.94359 0.40524 0.0
C341 C 0.44039 0.03088 0.37009 0.0
C342 C 0.42818 0.99683 0.26093 0.0
C343 C 0.41425 1.00522 0.36384 0.0
N344 N 0.40848 0.98846 0.30989 0.0
C345 C 0.45454 0.02239 0.26547 0.0
C346 C 0.46065 0.03947 0.32051 0.0
C347 C 0.36312 0.95245 0.15978 0.0
C348 C 0.25016 0.89411 0.22386 0.0
C349 C 0.29051 0.90089 0.13171 0.0
C350 C 0.267 0.90373 0.11369 0.0
C351 C 0.24674 0.90035 0.16021 0.0
N352 N 0.29381 0.8949 0.19432 0.0
C353 C 0.27394 0.89141 0.24006 0.0
Co354 Co 0.65583 0.59192 0.38139 0.0
Co355 Co 0.69892 0.57249 0.4629 0.0
O356 O 0.69218 0.59204 0.39108 0.0
C357 C 0.70273 0.64895 0.3287 0.0
O358 O 0.72291 0.64447 0.3514 0.0
C359 C 0.72014 0.55584 0.34372 0.0
O360 O 0.69579 0.55001 0.31636 0.0
O361 O 0.66369 0.53545 0.43818 0.0
O362 O 0.63357 0.55205 0.41872 0.0
H363 H 0.66968 0.50694 0.6557 0.0
H364 H 0.69452 0.60135 0.26853 0.0
O365 O 0.67632 0.63156 0.34157 0.0
H366 H 0.59937 0.52263 0.2028 0.0
H367 H 0.58534 0.61299 0.26827 0.0
H368 H 0.60451 0.57339 0.46488 0.0
H369 H 0.6065 0.54426 0.31102 0.0
H370 H 0.63046 0.61189 0.27926 0.0
O371 O 0.72416 0.56337 0.40339 0.0
H372 H 0.66222 0.53281 0.56599 0.0
H373 H 0.74968 0.56912 0.50973 0.0
H374 H 0.55897 0.57386 0.4556 0.0
H375 H 0.68821 0.58101 0.15935 0.0
H376 H 0.54914 0.59376 0.3567 0.0
H377 H 0.64032 0.54121 0.12569 0.0
O378 O 0.66063 0.60906 0.46925 0.0
H379 H 0.7934 0.66248 0.42068 0.0
H380 H 0.72106 0.60509 0.5863 0.0
H381 H 0.76381 0.65081 0.61726 0.0
H382 H 0.80042 0.67984 0.53418 0.0
H383 H 0.75011 0.61683 0.39162 0.0
H384 H 0.75805 0.54349 0.59847 0.0
H385 H 0.71789 0.51222 0.67236 0.0
O386 O 0.675 0.58254 0.5247 0.0
C387 C 0.63837 0.53132 0.42861 0.0
C388 C 0.68736 0.52056 0.62394 0.0
C389 C 0.73695 0.54104 0.59176 0.0
N390 N 0.70552 0.55257 0.53301 0.0
C391 C 0.68328 0.5353 0.57319 0.0
C392 C 0.73207 0.55544 0.5415 0.0
C393 C 0.71441 0.52351 0.63322 0.0
C394 C 0.67347 0.58472 0.25396 0.0
N395 N 0.65078 0.57476 0.29587 0.0
C396 C 0.67009 0.57295 0.19217 0.0
C397 C 0.64326 0.55055 0.17342 0.0
C398 C 0.6203 0.54011 0.21666 0.0
C399 C 0.6245 0.55245 0.27804 0.0
C400 C 0.58936 0.60425 0.31158 0.0
C401 C 0.60035 0.58197 0.42158 0.0
C402 C 0.61493 0.60366 0.31822 0.0
N403 N 0.62008 0.59243 0.37257 0.0
C404 C 0.57454 0.58224 0.41666 0.0
C405 C 0.56905 0.59343 0.36119 0.0
C406 C 0.6646 0.59964 0.52267 0.0
C407 C 0.77758 0.65005 0.45731 0.0
C408 C 0.73665 0.61774 0.54963 0.0
C409 C 0.76094 0.64355 0.56757 0.0
C410 C 0.78149 0.6598 0.52097 0.0
N411 N 0.73287 0.60839 0.48699 0.0
C412 C 0.75303 0.62414 0.44116 0.0
Co413 Co 0.06961 0.65201 0.5449 0.0
Co414 Co 0.12564 0.69227 0.6481 0.0
O415 O 0.10383 0.68817 0.56919 0.0
C416 C 0.05916 0.69986 0.49971 0.0
O417 O 0.08327 0.71988 0.52512 0.0
C418 C 0.17051 0.72056 0.5412 0.0
O419 O 0.15435 0.6985 0.504 0.0
O420 O 0.13027 0.65881 0.62176 0.0
O421 O 0.08668 0.62901 0.58039 0.0
H422 H 0.15174 0.65645 0.84642 0.0
H423 H 0.10362 0.69769 0.44658 0.0
O424 O 0.05106 0.67328 0.507 0.0
H425 H 0.09519 0.60862 0.3581 0.0
H426 H 0.98689 0.58704 0.40009 0.0
H427 H 0.03412 0.59564 0.60988 0.0
H428 H 0.07449 0.60851 0.46441 0.0
H429 H 0.03085 0.63192 0.42973 0.0
O430 O 0.16297 0.72041 0.60028 0.0
H431 H 0.1238 0.65197 0.74814 0.0
H432 H 0.17552 0.74167 0.7129 0.0
H433 H 0.99022 0.55019 0.58187 0.0
H434 H 0.12394 0.69866 0.33952 0.0
H435 H 0.96629 0.5457 0.47631 0.0
H436 H 0.11983 0.65386 0.29434 0.0
O437 O 0.05165 0.65078 0.63 0.0
H438 H 0.12942 0.78693 0.61436 0.0
H439 H 0.10688 0.70857 0.76916 0.0
H440 H 0.10055 0.74918 0.80211 0.0
H441 H 0.11193 0.7888 0.72453 0.0
H442 H 0.13504 0.7457 0.58305 0.0
H443 H 0.20417 0.74711 0.81048 0.0
H444 H 0.19225 0.70431 0.87812 0.0
O445 O 0.0886 0.66534 0.69886 0.0
C446 C 0.11118 0.63405 0.60121 0.0
C447 C 0.15709 0.67528 0.81745 0.0
C448 C 0.18654 0.72615 0.79722 0.0
N449 N 0.14791 0.69655 0.72516 0.0
C450 C 0.1413 0.67288 0.76188 0.0
C451 C 0.1703 0.72293 0.74195 0.0
C452 C 0.17983 0.70213 0.83517 0.0
C453 C 0.10103 0.67797 0.42702 0.0
N454 N 0.08709 0.65294 0.46151 0.0
C455 C 0.11295 0.67872 0.36645 0.0
C456 C 0.11075 0.65362 0.34126 0.0
C457 C 0.09698 0.62826 0.37704 0.0
C458 C 0.08536 0.62836 0.43745 0.0
C459 C 0.9971 0.58871 0.44623 0.0
C460 C 0.02391 0.59377 0.56373 0.0
C461 C 0.02198 0.61412 0.46343 0.0
N462 N 0.03518 0.61635 0.52142 0.0
C463 C 0.99902 0.56802 0.54819 0.0
C464 C 0.98558 0.56552 0.48899 0.0
C465 C 0.06143 0.65361 0.68741 0.0
C466 C 0.12435 0.76978 0.64858 0.0
C467 C 0.11153 0.7255 0.73475 0.0
C468 C 0.10808 0.74856 0.75388 0.0
C469 C 0.11451 0.7708 0.71037 0.0
N470 N 0.12107 0.72457 0.67393 0.0
C471 C 0.12755 0.74638 0.63117 0.0
Co472 Co 0.42521 0.06433 0.71962 0.0
Co473 Co 0.44933 0.12784 0.79971 0.0
O474 O 0.42838 0.10231 0.72736 0.0
C475 C 0.37099 0.05856 0.66014 0.0
O476 O 0.37755 0.08444 0.67921 0.0
C477 C 0.46229 0.16794 0.68177 0.0
O478 O 0.4592 0.14734 0.64276 0.0
O479 O 0.48497 0.12692 0.77276 0.0
O480 O 0.46395 0.07917 0.76024 0.0
H481 H 0.51586 0.15923 0.99063 0.0
H482 H 0.41987 0.09389 0.60167 0.0
O483 O 0.38635 0.04768 0.67706 0.0
H484 H 0.49631 0.0718 0.55064 0.0
H485 H 0.39852 0.97051 0.60934 0.0
H486 H 0.43849 0.02851 0.80681 0.0
H487 H 0.47227 0.05899 0.65674 0.0
H488 H 0.40379 0.01869 0.61792 0.0
O489 O 0.46068 0.16373 0.74324 0.0
H490 H 0.48829 0.1274 0.90018 0.0
H491 H 0.45628 0.18302 0.85112 0.0
H492 H 0.43379 0.98048 0.79999 0.0
H493 H 0.44267 0.10627 0.49453 0.0
H494 H 0.41369 0.9511 0.70065 0.0
H495 H 0.48141 0.09542 0.46834 0.0
O496 O 0.40668 0.05332 0.80659 0.0
H497 H 0.36195 0.13734 0.76182 0.0
H498 H 0.41816 0.11956 0.92473 0.0
H499 H 0.37393 0.11927 0.95784 0.0
H500 H 0.34551 0.12829 0.87613 0.0
H501 H 0.40612 0.13707 0.73069 0.0
H502 H 0.4837 0.21558 0.94061 0.0
H503 H 0.51367 0.2037 0.01129 0.0
O504 O 0.43744 0.09315 0.86053 0.0
C505 C 0.48637 0.10389 0.7671 0.0
C506 C 0.50285 0.16462 0.96023 0.0
C507 C 0.48483 0.19628 0.9321 0.0
N508 N 0.47065 0.15329 0.87053 0.0
C509 C 0.48716 0.14666 0.90902 0.0
C510 C 0.46944 0.1778 0.88133 0.0
C511 C 0.50163 0.18958 0.97176 0.0
C512 C 0.43602 0.08832 0.59046 0.0
N513 N 0.44403 0.07503 0.63534 0.0
C514 C 0.44919 0.09574 0.52974 0.0
C515 C 0.47098 0.08974 0.51515 0.0
C516 C 0.47935 0.07651 0.5613 0.0
C517 C 0.46564 0.06936 0.62144 0.0
C518 C 0.40733 0.98309 0.65284 0.0
C519 C 0.42984 0.01594 0.76332 0.0
C520 C 0.41028 0.01038 0.65812 0.0
N521 N 0.42156 0.02651 0.71279 0.0
C522 C 0.42718 0.98872 0.75979 0.0
C523 C 0.41586 0.97223 0.70408 0.0
C524 C 0.41806 0.06625 0.85953 0.0
C525 C 0.37414 0.13337 0.79788 0.0
C526 C 0.4058 0.12321 0.8887 0.0
C527 C 0.38083 0.12317 0.90784 0.0
C528 C 0.36491 0.12827 0.862 0.0
N529 N 0.41471 0.12819 0.82566 0.0
C530 C 0.39923 0.13325 0.78054 0.0
Co531 Co 0.36684 0.42105 0.8708 0.0
Co532 Co 0.33354 0.44418 0.97514 0.0
O533 O 0.33372 0.42414 0.89685 0.0
C534 C 0.33924 0.35896 0.83784 0.0
O535 O 0.35573 0.3564 0.88105 0.0
C536 C 0.30619 0.46261 0.86961 0.0
O537 O 0.32669 0.46592 0.82987 0.0
O538 O 0.36948 0.48008 0.94554 0.0
O539 O 0.39428 0.4596 0.90816 0.0
H540 H 0.37756 0.50687 0.17005 0.0
H541 H 0.32313 0.41193 0.7713 0.0
O542 O 0.33954 0.38274 0.83226 0.0
H543 H 0.41448 0.49209 0.68926 0.0
H544 H 0.42351 0.39579 0.71585 0.0
H545 H 0.42118 0.43229 0.93341 0.0
H546 H 0.41269 0.4696 0.79429 0.0
H547 H 0.38243 0.40109 0.75012 0.0
O548 O 0.30735 0.45642 0.92918 0.0
H549 H 0.37733 0.48059 0.07187 0.0
H550 H 0.28873 0.4518 0.04307 0.0
H551 H 0.4628 0.42746 0.90101 0.0
H552 H 0.32409 0.4335 0.66548 0.0
H553 H 0.46414 0.4091 0.79152 0.0
H554 H 0.37002 0.47388 0.62375 0.0
O555 O 0.36598 0.40285 0.95535 0.0
H556 H 0.23535 0.35732 0.94688 0.0
H557 H 0.31506 0.41152 0.09934 0.0
H558 H 0.27218 0.36693 0.13567 0.0
H559 H 0.23188 0.33955 0.05926 0.0
H560 H 0.27876 0.40184 0.91233 0.0
H561 H 0.28804 0.47796 0.14056 0.0
H562 H 0.33267 0.50563 0.20494 0.0
O563 O 0.35809 0.43056 0.02411 0.0
C564 C 0.39307 0.48153 0.92801 0.0
C565 C 0.35796 0.49483 0.14248 0.0
C566 C 0.30773 0.47865 0.12586 0.0
N567 N 0.33302 0.46459 0.05202 0.0
C568 C 0.35769 0.47987 0.08695 0.0
C569 C 0.30828 0.46397 0.07058 0.0
C570 C 0.33277 0.49416 0.16199 0.0
C571 C 0.34326 0.4293 0.75328 0.0
N572 N 0.36784 0.43934 0.78894 0.0
C573 C 0.34364 0.44154 0.69344 0.0
C574 C 0.36939 0.46425 0.67014 0.0
C575 C 0.39433 0.47451 0.70692 0.0
C576 C 0.39314 0.46178 0.76659 0.0
C577 C 0.4232 0.40384 0.76369 0.0
C578 C 0.42163 0.42434 0.88568 0.0
C579 C 0.39997 0.40686 0.78344 0.0
N580 N 0.39938 0.41702 0.84382 0.0
C581 C 0.44524 0.42162 0.86759 0.0
C582 C 0.44598 0.4113 0.80616 0.0
C583 C 0.36611 0.41199 0.01249 0.0
C584 C 0.25273 0.36911 0.98068 0.0
C585 C 0.29769 0.39968 0.06569 0.0
C586 C 0.27342 0.37447 0.08661 0.0
C587 C 0.25081 0.35913 0.04372 0.0
N588 N 0.29937 0.40942 1.00386 0.0
C589 C 0.27734 0.3944 0.96146 0.0
Co590 Co 0.96039 0.36728 0.05842 0.0
Co591 Co 0.89688 0.32507 0.1373 0.0
O592 O 0.92296 0.33164 0.0645 0.0
C593 C 0.96877 0.32021 0.99967 0.0
O594 O 0.94348 0.30013 0.02 0.0
C595 C 0.85773 0.29873 0.01801 0.0
O596 O 0.87882 0.31617 0.97986 0.0
O597 O 0.89688 0.36161 0.1149 0.0
O598 O 0.94444 0.38982 0.10131 0.0
H599 H 0.86347 0.35527 0.33372 0.0
H600 H 0.93362 0.33341 0.93797 0.0
O601 O 0.97824 0.34653 0.01422 0.0
H602 H 0.94974 0.43058 0.8942 0.0
H603 H 0.05361 0.43784 0.95054 0.0
H604 H 0.99473 0.41584 0.14811 0.0
H605 H 0.96296 0.41917 0.99946 0.0
H606 H 1.00617 0.39384 0.9573 0.0
O607 O 0.86137 0.30105 0.07963 0.0
H608 H 0.89592 0.36204 0.24249 0.0
H609 H 0.84208 0.27508 0.18527 0.0
H610 H 0.04197 0.46024 0.14311 0.0
H611 H 0.92087 0.34411 0.83159 0.0
H612 H 0.07179 0.47151 0.04374 0.0
H613 H 0.92872 0.39299 0.80909 0.0
O614 O 0.9716 0.35929 0.1443 0.0
H615 H 0.8896 0.22974 0.08893 0.0
H616 H 0.90553 0.30053 0.25909 0.0
H617 H 0.90671 0.25655 0.28727 0.0
H618 H 0.89861 0.22069 0.20191 0.0
H619 H 0.88904 0.27421 0.06272 0.0
H620 H 0.80892 0.26746 0.27549 0.0
H621 H 0.81959 0.3077 0.35065 0.0
O622 O 0.93113 0.34737 0.19909 0.0
C623 C 0.91945 0.38646 0.1108 0.0
C624 C 0.8586 0.33756 0.30136 0.0
C625 C 0.82797 0.28829 0.26861 0.0
N626 N 0.87096 0.31898 0.2087 0.0
C627 C 0.87693 0.34125 0.24968 0.0
C628 C 0.84678 0.29277 0.21745 0.0
C629 C 0.83398 0.31087 0.3108 0.0
C630 C 0.93773 0.35486 0.92844 0.0
N631 N 0.94947 0.37566 0.97495 0.0
C632 C 0.93017 0.36074 0.86813 0.0
C633 C 0.9345 0.38813 0.85559 0.0
C634 C 0.94627 0.40922 0.90332 0.0
C635 C 0.95362 0.40255 0.963 0.0
C636 C 0.04083 0.43321 0.99406 0.0
C637 C 1.00748 0.42063 0.10459 0.0
C638 C 0.01396 0.40825 0.9983 0.0
N639 N 0.99759 0.40227 0.05303 0.0
C640 C 0.03427 0.44579 0.10209 0.0
C641 C 0.051 0.45208 0.04636 0.0
C642 C 0.95827 0.35606 0.19755 0.0
C643 C 0.89316 0.24519 0.12658 0.0
C644 C 0.9023 0.28524 0.22147 0.0
C645 C 0.90284 0.26026 0.23782 0.0
C646 C 0.89825 0.24014 0.18994 0.0
N647 N 0.89735 0.29009 0.15915 0.0
C648 C 0.89277 0.27041 0.11204 0.0
Co649 Co 0.59712 0.95477 0.19501 0.0
Co650 Co 0.57802 0.89301 0.2816 0.0
O651 O 0.59794 0.91934 0.21046 0.0
C652 C 0.65913 0.99782 0.17702 0.0
O653 O 0.65709 0.01319 0.22404 0.0
C654 C 0.55763 0.85378 0.1648 0.0
O655 O 0.54933 0.87112 0.14087 0.0
O656 O 0.54091 0.8914 0.25776 0.0
O657 O 0.55559 0.93625 0.22134 0.0
H658 H 0.51258 0.85634 0.47473 0.0
H659 H 0.61521 0.92799 0.09325 0.0
O660 O 0.63804 0.97282 0.16522 0.0
H661 H 0.53731 0.93836 0.99493 0.0
H662 H 0.61893 0.04392 0.0687 0.0
H663 H 0.57545 0.98773 0.26715 0.0
H664 H 0.55285 0.95436 0.10685 0.0
H665 H 0.61867 0.99854 0.08817 0.0
O666 O 0.56888 0.85889 0.22136 0.0
H667 H 0.5385 0.88992 0.38526 0.0
H668 H 0.57431 0.83854 0.3273 0.0
H669 H 0.57521 0.03308 0.2495 0.0
H670 H 0.60054 0.91197 0.98104 0.0
H671 H 0.59709 0.06154 0.14966 0.0
H672 H 0.56129 0.91706 0.93113 0.0
O673 O 0.60982 0.9678 0.28613 0.0
H674 H 0.66923 0.89152 0.23616 0.0
H675 H 0.61 0.90166 0.40513 0.0
H676 H 0.65594 0.90487 0.43501 0.0
H677 H 0.68586 0.89968 0.35023 0.0
H678 H 0.62327 0.88875 0.20829 0.0
H679 H 0.54862 0.80428 0.41577 0.0
H680 H 0.51759 0.81316 0.4904 0.0
O681 O 0.58811 0.92667 0.34331 0.0
C682 C 0.53589 0.91117 0.23879 0.0
C683 C 0.5261 0.85228 0.44264 0.0
C684 C 0.54629 0.82303 0.40948 0.0
N685 N 0.558 0.86627 0.35144 0.0
C686 C 0.54087 0.87124 0.39203 0.0
C687 C 0.56071 0.84245 0.35937 0.0
C688 C 0.5289 0.82804 0.45136 0.0
C689 C 0.59813 0.93033 0.07195 0.0
N690 N 0.58484 0.94202 0.1068 0.0
C691 C 0.5899 0.92118 0.00835 0.0
C692 C 0.56786 0.92401 0.98041 0.0
C693 C 0.55439 0.93594 0.01618 0.0
C694 C 0.5632 0.94485 0.07965 0.0
C695 C 0.60937 0.03178 0.11243 0.0
C696 C 0.585 1.0 0.22361 0.0
C697 C 0.60918 1.00605 0.12381 0.0
N698 N 0.59709 0.99048 0.17891 0.0
C699 C 0.58481 0.02566 0.21387 0.0
C700 C 0.59709 0.04162 0.15786 0.0
C701 C 0.60252 0.95437 0.34011 0.0
C702 C 0.65635 0.89374 0.27356 0.0
C703 C 0.62295 0.89952 0.3679 0.0
C704 C 0.64891 0.90128 0.38515 0.0
C705 C 0.66568 0.89835 0.33756 0.0
N706 N 0.61389 0.89489 0.30506 0.0
C707 C 0.63027 0.89211 0.2581 0.0
H708 H 0.36191 0.41587 0.14591 0.0
H709 H 0.39586 0.38299 1.00096 0.0
H710 H 0.4143 0.36478 0.08491 0.0
H711 H 0.42085 0.3573 0.20099 0.0
H712 H 0.38447 0.38798 0.34536 0.0
H713 H 0.36743 0.40743 0.26148 0.0
C714 C 0.37334 0.40476 0.1325 0.0
C715 C 0.3773 0.40108 0.06627 0.0
C716 C 0.38367 0.39365 0.18161 0.0
C717 C 0.39221 0.38635 0.05091 0.0
C718 C 0.4029 0.37581 0.09923 0.0
C719 C 0.40921 0.36822 0.21425 0.0
C720 C 0.40423 0.37096 0.28042 0.0
C721 C 0.39876 0.3792 0.16499 0.0
C722 C 0.38886 0.38525 0.29554 0.0
C723 C 0.37898 0.39654 0.24724 0.0
H724 H 1.01239 0.38266 0.48166 0.0
H725 H 0.09131 0.4249 0.37173 0.0
H726 H 0.06381 0.41025 0.27111 0.0
H727 H 0.01726 0.38565 0.2132 0.0
H728 H 0.93826 0.34571 0.32307 0.0
H729 H 0.96578 0.3592 0.42372 0.0
C730 C 0.02371 0.38864 0.43581 0.0
C731 C 0.05421 0.40479 0.43521 0.0
C732 C 1.00762 0.3805 0.3775 0.0
C733 C 0.06807 0.41243 0.37459 0.0
C734 C 0.05226 0.40403 0.31666 0.0
C735 C 1.00592 0.37973 0.25904 0.0
C736 C 0.9754 0.36428 0.25962 0.0
C737 C 0.022 0.38806 0.31735 0.0
C738 C 0.96152 0.35733 0.32023 0.0
C739 C 0.97734 0.36511 0.37817 0.0
H740 H 0.63051 0.01363 0.35544 0.0
H741 H 0.5948 0.93493 0.466 0.0
H742 H 0.60994 0.96274 0.56619 0.0
H743 H 0.63374 0.00955 0.62388 0.0
H744 H 0.66875 0.08823 0.5135 0.0
H745 H 0.65358 0.06043 0.41325 0.0
C746 C 0.62598 1.00242 0.40132 0.0
C747 C 0.61145 0.97186 0.40204 0.0
C748 C 0.63474 0.01869 0.45957 0.0
C749 C 0.60586 0.95819 0.46284 0.0
C750 C 0.61459 0.97419 0.52062 0.0
C751 C 0.63817 0.02076 0.57801 0.0
C752 C 0.65273 0.05131 0.5773 0.0
C753 C 0.62914 1.00448 0.5198 0.0
C754 C 0.65782 0.06498 0.51659 0.0
C755 C 0.64908 0.04898 0.4588 0.0
H756 H 0.63588 0.63009 0.53782 0.0
H757 H 0.67316 0.58879 0.64861 0.0
H758 H 0.65939 0.60294 0.74888 0.0
H759 H 0.63686 0.62716 0.8063 0.0
H760 H 0.59858 0.66758 0.69589 0.0
H761 H 0.61258 0.65367 0.59542 0.0
C762 C 0.64114 0.62418 0.58378 0.0
C763 C 0.6559 0.60838 0.58465 0.0
C764 C 0.6329 0.63228 0.64196 0.0
C765 C 0.66205 0.60092 0.64545 0.0
C766 C 0.65412 0.60905 0.70321 0.0
C767 C 0.63155 0.63307 0.7604 0.0
C768 C 0.61667 0.64875 0.75968 0.0
C769 C 0.63956 0.62478 0.70223 0.0
C770 C 0.60999 0.65574 0.69892 0.0
C771 C 0.61804 0.64773 0.64107 0.0
H772 H 0.07024 0.65616 0.82068 0.0
H773 H 1.00256 0.62475 0.6783 0.0
H774 H 0.96644 0.6064 0.76358 0.0
H775 H 0.95305 0.59907 0.88016 0.0
H776 H 0.02099 0.63059 0.02205 0.0
H777 H 0.05692 0.64854 0.93675 0.0
C778 C 0.04763 0.6453 0.80808 0.0
C779 C 0.03964 0.64217 0.74212 0.0
C780 C 0.02646 0.63458 0.858 0.0
C781 C 1.0099 0.62784 0.72795 0.0
C782 C 0.98894 0.61718 0.77706 0.0
C783 C 0.97568 0.60982 0.8926 0.0
C784 C 0.98376 0.61329 0.95857 0.0
C785 C 0.99683 0.62041 0.84253 0.0
C786 C 0.01353 0.62743 0.9725 0.0
C787 C 0.03441 0.63783 0.92336 0.0
H788 H 0.38657 1.00709 0.87544 0.0
H789 H 0.43097 0.0859 0.98494 0.0
H790 H 0.41797 0.05826 0.08554 0.0
H791 H 0.39401 0.01158 0.14375 0.0
H792 H 0.35154 0.93269 0.03403 0.0
H793 H 0.36384 0.96035 0.93352 0.0
C794 C 0.39339 0.01836 0.9212 0.0
C795 C 0.40967 0.04891 0.92162 0.0
C796 C 0.38618 1.00216 0.97954 0.0
C797 C 0.41838 0.06266 0.98215 0.0
C798 C 0.41094 0.04676 0.0401 0.0
C799 C 0.38733 1.00029 0.09798 0.0
C800 C 0.37145 0.96973 0.09756 0.0
C801 C 0.39483 0.01647 0.0396 0.0
C802 C 0.36349 0.95595 0.03693 0.0
C803 C 0.37058 0.97186 0.979 0.0
H804 H 0.5826 0.51594 0.40882 0.0
H805 H 0.63633 0.47914 0.44856 0.0
H806 H 0.59374 0.43069 0.44657 0.0
H807 H 0.54025 0.39861 0.43509 0.0
H808 H 0.48888 0.43808 0.39438 0.0
H809 H 0.5315 0.48528 0.39421 0.0
C810 C 0.58532 0.49747 0.41682 0.0
C811 C 0.61291 0.50148 0.42876 0.0
C812 C 0.56093 0.46987 0.41513 0.0
C813 C 0.61548 0.47692 0.4393 0.0
C814 C 0.59106 0.44913 0.43801 0.0
C815 C 0.53853 0.41754 0.42553 0.0
C816 C 0.51114 0.41457 0.4153 0.0
C817 C 0.56353 0.44527 0.42598 0.0
C818 C 0.50941 0.43949 0.4033 0.0
C819 C 0.53387 0.46666 0.4031 0.0
H820 H 0.14835 0.53837 0.6271 0.0
H821 H 0.06855 0.48994 0.52308 0.0
H822 H 0.06262 0.53186 0.51885 0.0
H823 H 0.0778 0.58085 0.54988 0.0
H824 H 0.15758 0.63152 0.65231 0.0
H825 H 0.16558 0.59028 0.65254 0.0
C826 C 0.13003 0.53727 0.60249 0.0
C827 C 0.10887 0.51089 0.57564 0.0
C828 C 0.12644 0.56174 0.60078 0.0
C829 C 0.08505 0.50979 0.54458 0.0
C830 C 0.08156 0.53379 0.54221 0.0
C831 C 0.09719 0.58325 0.57179 0.0
C832 C 0.11703 0.60952 0.60096 0.0
C833 C 0.10176 0.55966 0.57117 0.0
C834 C 0.14185 0.61168 0.62941 0.0
C835 C 0.14646 0.58804 0.62949 0.0
H836 H 0.54208 0.14779 0.73783 0.0
H837 H 0.49346 0.06 0.80608 0.0
H838 H 0.53594 0.05544 0.80137 0.0
H839 H 0.58555 0.0744 0.77304 0.0
H840 H 0.63749 0.16243 0.71008 0.0
H841 H 0.5951 0.16861 0.71648 0.0
C842 C 0.54098 0.12788 0.75256 0.0
C843 C 0.51426 0.10418 0.77155 0.0
C844 C 0.56598 0.1252 0.74983 0.0
C845 C 0.51337 0.07851 0.7903 0.0
C846 C 0.53775 0.07579 0.78766 0.0
C847 C 0.58806 0.09522 0.76146 0.0
C848 C 0.61499 0.11792 0.74141 0.0
C849 C 0.56397 0.09873 0.76654 0.0
C850 C 0.61714 0.14448 0.72577 0.0
C851 C 0.59285 0.14803 0.72956 0.0
H852 H 0.52311 0.57777 0.94105 0.0
H853 H 0.48942 0.63369 0.8955 0.0
H854 H 0.44026 0.59208 0.89801 0.0
H855 H 0.4067 0.53867 0.9111 0.0
H856 H 0.44339 0.48547 0.95921 0.0
H857 H 0.4912 0.52722 0.95914 0.0
C858 C 0.5052 0.58125 0.9321 0.0
C859 C 0.51029 0.60912 0.91821 0.0
C860 C 0.47723 0.55748 0.93446 0.0
C861 C 0.48637 0.6126 0.90631 0.0
C862 C 0.45818 0.58874 0.9079 0.0
C863 C 0.42516 0.53639 0.92236 0.0
C864 C 0.42126 0.50871 0.93453 0.0
C865 C 0.45327 0.56092 0.92186 0.0
C866 C 0.44556 0.50625 0.94873 0.0
C867 C 0.47306 0.53019 0.94876 0.0
H868 H 0.87995 0.40154 0.06691 0.0
H869 H 0.95742 0.43214 0.17951 0.0
H870 H 0.96231 0.47955 0.18699 0.0
H871 H 0.94709 0.51333 0.15607 0.0
H872 H 0.86968 0.48491 0.04462 0.0
H873 H 0.86246 0.43597 0.0417 0.0
C874 C 0.89749 0.41847 0.09413 0.0
C875 C 0.91833 0.41323 0.12252 0.0
C876 C 0.90051 0.44627 0.09761 0.0
C877 C 0.94118 0.43556 0.1569 0.0
C878 C 0.94408 0.46278 0.16109 0.0
C879 C 0.92838 0.49654 0.13158 0.0
C880 C 0.90901 0.50309 0.10063 0.0
C881 C 0.92427 0.46856 0.13057 0.0
C882 C 0.88503 0.48069 0.06896 0.0
C883 C 0.88088 0.45262 0.06731 0.0
H884 H 0.42089 0.90783 0.15997 0.0
H885 H 0.40465 0.8934 0.36416 0.0
H886 H 0.44879 0.89107 0.37785 0.0
H887 H 0.49468 0.89758 0.33241 0.0
H888 H 0.50933 0.91009 0.1273 0.0
H889 H 0.4635 0.90844 0.11292 0.0
C890 C 0.42678 0.90354 0.20709 0.0
C891 C 0.40968 0.90083 0.26101 0.0
C892 C 0.4522 0.90219 0.21447 0.0
C893 C 0.41759 0.89558 0.32202 0.0
C894 C 0.44286 0.89431 0.32984 0.0
C895 C 0.48749 0.89939 0.28457 0.0
C896 C 0.50574 0.9047 0.23109 0.0
C897 C 0.46075 0.89822 0.27661 0.0
C898 C 0.49617 0.90698 0.16939 0.0
C899 C 0.46979 0.90581 0.16107 0.0
H900 H 0.34743 0.31364 0.81087 0.0
H901 H 0.30689 0.35993 0.73741 0.0
H902 H 0.30585 0.34163 0.62943 0.0
H903 H 0.32838 0.32367 0.55341 0.0
H904 H 0.36874 0.27726 0.62555 0.0
H905 H 0.35719 0.28365 0.73637 0.0
C906 C 0.33735 0.31884 0.77183 0.0
C907 C 0.32844 0.33915 0.78175 0.0
C908 C 0.33714 0.30851 0.70923 0.0
C909 C 0.31479 0.34507 0.73084 0.0
C910 C 0.31424 0.33468 0.6688 0.0
C911 C 0.33324 0.31366 0.59329 0.0
C912 C 0.34971 0.30046 0.58179 0.0
C913 C 0.32714 0.31803 0.65683 0.0
C914 C 0.35599 0.28751 0.63341 0.0
C915 C 0.34978 0.29156 0.69693 0.0
H916 H 0.0249 0.33739 0.9792 0.0
H917 H 0.94131 0.29314 0.8899 0.0
H918 H 0.96356 0.3001 0.78337 0.0
H919 H 1.00682 0.32779 0.71566 0.0
H920 H 0.09045 0.36915 0.80499 0.0
H921 H 0.06831 0.35374 0.91157 0.0
C922 C 1.01164 0.32819 0.93659 0.0
C923 C 0.98162 0.31501 0.94201 0.0
C924 C 0.0246 0.33211 0.87553 0.0
C925 C 0.96451 0.30322 0.88676 0.0
C926 C 0.97722 0.30748 0.82575 0.0
C927 C 0.02014 0.33227 0.7583 0.0
C928 C 0.05011 0.34972 0.75285 0.0
C929 C 1.00725 0.32317 0.8194 0.0
C930 C 0.0673 0.35557 0.80814 0.0
C931 C 0.05464 0.34705 0.86919 0.0
H932 H 0.66424 0.97373 0.06589 0.0
H933 H 0.7014 0.05463 0.16813 0.0
H934 H 0.72517 0.08022 0.06887 0.0
H935 H 0.72622 0.08016 0.94989 0.0
H936 H 0.68226 0.99962 0.84725 0.0
H937 H 0.6708 0.97326 0.94946 0.0
C938 C 0.6781 0.99691 0.06709 0.0
C939 C 0.68044 0.01225 0.12428 0.0
C940 C 0.69032 0.01157 0.00915 0.0
C941 C 0.69892 0.04224 0.12483 0.0
C942 C 0.71237 0.05693 0.06784 0.0
C943 C 0.71523 0.05683 0.94995 0.0
C944 C 0.70524 0.04176 0.8913 0.0
C945 C 0.70694 0.04194 0.00912 0.0
C946 C 0.69042 0.01156 0.89187 0.0
C947 C 0.68357 0.99655 0.95034 0.0
H948 H 0.69654 0.67516 0.04102 0.0
H949 H 0.65724 0.72113 0.12241 0.0
H950 H 0.67115 0.71495 0.2309 0.0
H951 H 0.68605 0.68795 0.30273 0.0
H952 H 0.73054 0.64711 0.22131 0.0
H953 H 0.72379 0.66039 0.1126 0.0
C954 C 0.69215 0.68484 0.08234 0.0
C955 C 0.67557 0.69814 0.0742 0.0
C956 C 0.70085 0.68183 0.14451 0.0
C957 C 0.66995 0.7107 0.12775 0.0
C958 C 0.6777 0.70699 0.18987 0.0
C959 C 0.69535 0.68312 0.26132 0.0
C960 C 0.70832 0.66624 0.26962 0.0
C961 C 0.69195 0.69138 0.199 0.0
C962 C 0.72038 0.66007 0.21591 0.0
C963 C 0.7163 0.66742 0.15364 0.0
H964 H 1.00369 0.6852 0.4804 0.0
H965 H 0.08759 0.72805 0.39181 0.0
H966 H 0.06583 0.72117 0.28501 0.0
H967 H 0.02272 0.69272 0.21754 0.0
H968 H 0.93884 0.6535 0.30597 0.0
H969 H 0.96065 0.66984 0.41233 0.0
C970 C 0.01713 0.69428 0.4379 0.0
C971 C 0.04705 0.70673 0.44347 0.0
C972 C 1.00446 0.69048 0.3767 0.0
C973 C 0.06445 0.71838 0.38843 0.0
C974 C 0.05201 0.71417 0.32727 0.0
C975 C 1.0093 0.68906 0.25979 0.0
C976 C 0.97936 0.67169 0.25447 0.0
C977 C 0.02201 0.69878 0.32071 0.0
C978 C 0.962 0.66687 0.30918 0.0
C979 C 0.97446 0.67595 0.37011 0.0
H980 H 0.34603 0.02291 0.37359 0.0
H981 H 0.29733 0.93883 0.45986 0.0
H982 H 0.3032 0.9605 0.56663 0.0
H983 H 0.33056 1.0031 0.63638 0.0
H984 H 0.37512 0.0874 0.54967 0.0
H985 H 0.36192 0.06609 0.44203 0.0
C986 C 0.3357 0.00947 0.4155 0.0
C987 C 0.32159 0.97941 0.40927 0.0
C988 C 0.33872 0.02211 0.47666 0.0
C989 C 0.30826 0.96207 0.46363 0.0
C990 C 0.31184 0.97444 0.5248 0.0
C991 C 0.33624 0.01678 0.59395 0.0
C992 C 0.35404 0.04667 0.60068 0.0
C993 C 0.3282 1.00439 0.53218 0.0
C994 C 0.36136 0.0643 0.5456 0.0
C995 C 0.35408 0.05211 0.48395 0.0
H996 H 0.47081 0.28801 0.6099 0.0
H997 H 0.46011 0.25325 0.41725 0.0
H998 H 0.45941 0.2105 0.46065 0.0
H999 H 0.46048 0.18187 0.55375 0.0
H1000 H 0.47031 0.21628 0.74656 0.0
H1001 H 0.47275 0.25978 0.70278 0.0
C1002 C 0.46856 0.27124 0.5771 0.0
C1003 C 0.46567 0.27432 0.5098 0.0
C1004 C 0.46791 0.24633 0.60265 0.0
C1005 C 0.46252 0.25191 0.4689 0.0
C1006 C 0.46205 0.22727 0.49387 0.0
C1007 C 0.46337 0.19892 0.58641 0.0
C1008 C 0.46528 0.19542 0.65392 0.0
C1009 C 0.46455 0.22408 0.56073 0.0
C1010 C 0.46881 0.218 0.69472 0.0
C1011 C 0.47018 0.24303 0.66955 0.0
H1012 H 0.29435 0.47067 0.74375 0.0
H1013 H 0.25882 0.45588 0.93648 0.0
H1014 H 0.21553 0.45434 0.89453 0.0
H1015 H 0.18659 0.45563 0.80261 0.0
H1016 H 0.22183 0.4698 0.60968 0.0
H1017 H 0.2659 0.47319 0.65214 0.0
C1018 C 0.2773 0.46735 0.7769 0.0
C1019 C 0.28031 0.46353 0.84376 0.0
C1020 C 0.25207 0.46626 0.75219 0.0
C1021 C 0.25755 0.45904 0.88514 0.0
C1022 C 0.23258 0.45808 0.861 0.0
C1023 C 0.20394 0.45969 0.76964 0.0
C1024 C 0.20049 0.46249 0.7025 0.0
C1025 C 0.22944 0.46146 0.79454 0.0
C1026 C 0.22349 0.46757 0.66128 0.0
C1027 C 0.24885 0.46948 0.68568 0.0
H1028 H 0.84543 0.28325 0.88972 0.0
H1029 H 0.80825 0.25884 0.08037 0.0
H1030 H 0.76498 0.2183 0.03428 0.0
H1031 H 0.73761 0.18865 0.93971 0.0
H1032 H 0.77543 0.21281 0.74951 0.0
H1033 H 0.81797 0.25407 0.79538 0.0
C1034 C 0.82784 0.26924 0.92142 0.0
C1035 C 0.83046 0.27455 0.98896 0.0
C1036 C 0.80287 0.24559 0.89445 0.0
C1037 C 0.80719 0.25569 0.02851 0.0
C1038 C 0.7823 0.23232 1.00203 0.0
C1039 C 0.75505 0.20298 0.90805 0.0
C1040 C 0.75287 0.19728 0.84065 0.0
C1041 C 0.77987 0.22688 0.93504 0.0
C1042 C 0.77609 0.21632 0.8012 0.0
C1043 C 0.80061 0.24007 0.82756 0.0
H1044 H 0.58804 0.82422 0.16722 0.0
H1045 H 0.51774 0.82599 0.07109 0.0
H1046 H 0.5106 0.78618 1.00185 0.0
H1047 H 0.52466 0.75117 0.96544 0.0
H1048 H 0.59684 0.75077 0.05513 0.0
H1049 H 0.60278 0.78918 0.12882 0.0
C1050 C 0.57102 0.81573 0.13148 0.0
C1051 C 0.55334 0.82828 0.12518 0.0
C1052 C 0.56738 0.79292 0.08994 0.0
C1053 C 0.53172 0.81705 0.07756 0.0
C1054 C 0.52758 0.79413 0.03764 0.0
C1055 C 0.54162 0.75929 1.00131 0.0
C1056 C 0.56011 0.74764 1.00444 0.0
C1057 C 0.54533 0.78194 0.04294 0.0
C1058 C 0.58218 0.75904 0.05111 0.0
C1059 C 0.5856 0.78112 0.09354 0.0
H1060 H 0.76905 0.55466 0.38244 0.0
H1061 H 0.72424 0.55707 0.21189 0.0
H1062 H 0.7618 0.55813 0.14335 0.0
H1063 H 0.80814 0.55853 0.13033 0.0
H1064 H 0.85128 0.55325 0.30107 0.0
H1065 H 0.81426 0.55318 0.36935 0.0
C1066 C 0.76744 0.55536 0.3303 0.0
C1067 C 0.7435 0.55575 0.303 0.0
C1068 C 0.78912 0.55546 0.29039 0.0
C1069 C 0.74207 0.55655 0.23495 0.0
C1070 C 0.76373 0.55725 0.19534 0.0
C1071 C 0.80943 0.5573 0.18243 0.0
C1072 C 0.83283 0.5559 0.20983 0.0
C1073 C 0.78746 0.55671 0.22227 0.0
C1074 C 0.83373 0.55422 0.27783 0.0
C1075 C 0.81245 0.55423 0.31736 0.0
H1076 H 0.18722 0.73236 0.41344 0.0
H1077 H 0.21292 0.76779 0.60503 0.0
H1078 H 0.25463 0.8104 0.55972 0.0
H1079 H 0.28387 0.8384 0.46526 0.0
H1080 H 0.25709 0.80359 0.2735 0.0
H1081 H 0.21623 0.76042 0.31913 0.0
C1082 C 0.20199 0.74927 0.44556 0.0
C1083 C 0.19669 0.74642 0.51312 0.0
C1084 C 0.22596 0.77412 0.4189 0.0
C1085 C 0.21619 0.76902 0.55318 0.0
C1086 C 0.24017 0.79354 0.52713 0.0
C1087 C 0.26922 0.82135 0.43326 0.0
C1088 C 0.27399 0.82456 0.36552 0.0
C1089 C 0.24531 0.79645 0.46 0.0
C1090 C 0.25432 0.80206 0.3255 0.0
C1091 C 0.2308 0.77721 0.35172 0.0
loop_
_geom_bond_atom_site_label_1
_geom_bond_atom_site_label_2
_geom_bond_distance
_geom_bond_site_symmetry_2
_ccdc_geom_bond_type
Co0 O2 2.143 . S
Co0 O8 2.074 . S
Co0 O11 2.093 . S
Co0 O24 2.097 . S
Co0 N41 2.151 . S
Co0 N49 2.214 . S
Co1 O2 2.160 . S
Co1 O7 2.058 . S
Co1 O17 2.057 . S
Co1 O32 2.037 . S
Co1 N36 2.145 . S
Co1 N57 2.257 . S
O2 Co0 2.143 . S
O2 Co1 2.160 . S
C3 O4 1.278 . S
C3 O11 1.224 . S
O4 C3 1.278 . S
C5 O6 1.245 . S
C5 O17 1.232 . S
O6 C5 1.245 . S
O7 Co1 2.058 . S
O7 C33 1.269 . S
O8 Co0 2.074 . S
O8 C33 1.257 . S
H9 C34 0.930 . S
H10 C40 0.930 . S
O11 Co0 2.093 . S
O11 C3 1.224 . S
H12 C44 0.929 . S
H13 C46 0.930 . S
H14 C47 0.930 . S
H15 C45 0.929 . S
H16 C48 0.928 . S
O17 Co1 2.057 . S
O17 C5 1.232 . S
H18 C37 0.929 . S
H19 C38 0.929 . S
H20 C50 0.931 . S
H21 C42 0.929 . S
H22 C51 0.930 . S
H23 C43 0.931 . S
O24 Co0 2.097 . S
O24 C52 1.214 . S
H25 C53 0.929 . S
H26 C54 0.929 . S
H27 C55 0.930 . S
H28 C56 0.929 . S
H29 C58 0.930 . S
H30 C35 0.930 . S
H31 C39 0.930 . S
O32 Co1 2.037 . S
O32 C52 1.234 . S
C33 O7 1.269 . S
C33 O8 1.257 . S
C34 H9 0.930 . S
C34 C37 1.388 . S
C34 C39 1.418 . S
C35 H30 0.930 . S
C35 C38 1.404 . S
C35 C39 1.353 . S
N36 Co1 2.145 . S
N36 C37 1.397 . S
N36 C38 1.334 . S
C37 H18 0.929 . S
C37 C34 1.388 . S
C37 N36 1.397 . S
C38 H19 0.929 . S
C38 C35 1.404 . S
C38 N36 1.334 . S
C39 H31 0.930 . S
C39 C34 1.418 . S
C39 C35 1.353 . S
C40 H10 0.930 . S
C40 N41 1.330 . S
C40 C42 1.446 . S
N41 Co0 2.151 . S
N41 C40 1.330 . S
N41 C45 1.418 . S
C42 H21 0.929 . S
C42 C40 1.446 . S
C42 C43 1.332 . S
C43 H23 0.931 . S
C43 C42 1.332 . S
C43 C44 1.267 . S
C44 H12 0.929 . S
C44 C43 1.267 . S
C44 C45 1.251 . S
C45 H15 0.929 . S
C45 N41 1.418 . S
C45 C44 1.251 . S
C46 H13 0.930 . S
C46 C48 1.406 . S
C46 C51 1.261 . S
C47 H14 0.930 . S
C47 N49 1.325 . S
C47 C50 1.357 . S
C48 H16 0.928 . S
C48 C46 1.406 . S
C48 N49 1.261 . S
N49 Co0 2.214 . S
N49 C47 1.325 . S
N49 C48 1.261 . S
C50 H20 0.931 . S
C50 C47 1.357 . S
C50 C51 1.312 . S
C51 H22 0.930 . S
C51 C46 1.261 . S
C51 C50 1.312 . S
C52 O24 1.214 . S
C52 O32 1.234 . S
C53 H25 0.929 . S
C53 C56 1.391 . S
C53 C58 1.391 . S
C54 H26 0.929 . S
C54 C55 1.390 . S
C54 N57 1.391 . S
C55 H27 0.930 . S
C55 C54 1.390 . S
C55 C56 1.392 . S
C56 H28 0.929 . S
C56 C53 1.391 . S
C56 C55 1.392 . S
N57 Co1 2.257 . S
N57 C54 1.391 . S
N57 C58 1.388 . S
C58 H29 0.930 . S
C58 C53 1.391 . S
C58 N57 1.388 . S
Co59 O61 2.143 . S
Co59 O67 2.074 . S
Co59 O70 2.093 . S
Co59 O83 2.097 . S
Co59 N100 2.151 . S
Co59 N108 2.214 . S
Co60 O61 2.160 . S
Co60 O66 2.058 . S
Co60 O76 2.057 . S
Co60 O91 2.037 . S
Co60 N95 2.145 . S
Co60 N116 2.257 . S
O61 Co59 2.143 . S
O61 Co60 2.160 . S
C62 O63 1.278 . S
C62 O70 1.224 . S
O63 C62 1.278 . S
C64 O65 1.245 . S
C64 O76 1.232 . S
O65 C64 1.245 . S
O66 Co60 2.058 . S
O66 C92 1.269 . S
O67 Co59 2.074 . S
O67 C92 1.257 . S
H68 C93 0.930 . S
H69 C99 0.930 . S
O70 Co59 2.093 . S
O70 C62 1.224 . S
H71 C103 0.929 . S
H72 C105 0.930 . S
H73 C106 0.930 . S
H74 C104 0.929 . S
H75 C107 0.928 . S
O76 Co60 2.057 . S
O76 C64 1.232 . S
H77 C96 0.929 . S
H78 C97 0.929 . S
H79 C109 0.931 . S
H80 C101 0.929 . S
H81 C110 0.930 . S
H82 C102 0.931 . S
O83 Co59 2.097 . S
O83 C111 1.214 . S
H84 C112 0.929 . S
H85 C113 0.929 . S
H86 C114 0.930 . S
H87 C115 0.929 . S
H88 C117 0.930 . S
H89 C94 0.930 . S
H90 C98 0.930 . S
O91 Co60 2.037 . S
O91 C111 1.234 . S
C92 O66 1.269 . S
C92 O67 1.257 . S
C93 H68 0.930 . S
C93 C96 1.388 . S
C93 C98 1.418 . S
C94 H89 0.930 . S
C94 C97 1.404 . S
C94 C98 1.353 . S
N95 Co60 2.145 . S
N95 C96 1.397 . S
N95 C97 1.334 . S
C96 H77 0.929 . S
C96 C93 1.388 . S
C96 N95 1.397 . S
C97 H78 0.929 . S
C97 C94 1.404 . S
C97 N95 1.334 . S
C98 H90 0.930 . S
C98 C93 1.418 . S
C98 C94 1.353 . S
C99 H69 0.930 . S
C99 N100 1.330 . S
C99 C101 1.446 . S
N100 Co59 2.151 . S
N100 C99 1.330 . S
N100 C104 1.418 . S
C101 H80 0.929 . S
C101 C99 1.446 . S
C101 C102 1.332 . S
C102 H82 0.931 . S
C102 C101 1.332 . S
C102 C103 1.267 . S
C103 H71 0.929 . S
C103 C102 1.267 . S
C103 C104 1.251 . S
C104 H74 0.929 . S
C104 N100 1.418 . S
C104 C103 1.251 . S
C105 H72 0.930 . S
C105 C107 1.406 1_655 S
C105 C110 1.261 . S
C106 H73 0.930 . S
C106 N108 1.325 . S
C106 C109 1.357 . S
C107 H75 0.928 . S
C107 C105 1.406 1_455 S
C107 N108 1.261 . S
N108 Co59 2.214 . S
N108 C106 1.325 . S
N108 C107 1.261 . S
C109 H79 0.931 . S
C109 C106 1.357 . S
C109 C110 1.312 1_455 S
C110 H81 0.930 . S
C110 C105 1.261 . S
C110 C109 1.312 1_655 S
C111 O83 1.214 . S
C111 O91 1.234 . S
C112 H84 0.929 . S
C112 C115 1.391 . S
C112 C117 1.391 . S
C113 H85 0.929 . S
C113 C114 1.390 . S
C113 N116 1.391 . S
C114 H86 0.930 . S
C114 C113 1.390 . S
C114 C115 1.392 . S
C115 H87 0.929 . S
C115 C112 1.391 . S
C115 C114 1.392 . S
N116 Co60 2.257 . S
N116 C113 1.391 . S
N116 C117 1.388 . S
C117 H88 0.930 . S
C117 C112 1.391 . S
C117 N116 1.388 . S
Co118 O120 2.143 . S
Co118 O126 2.074 . S
Co118 O129 2.093 . S
Co118 O142 2.097 . S
Co118 N159 2.151 . S
Co118 N167 2.214 . S
Co119 O120 2.160 . S
Co119 O125 2.058 . S
Co119 O135 2.057 . S
Co119 O150 2.037 . S
Co119 N154 2.145 . S
Co119 N175 2.257 . S
O120 Co118 2.143 . S
O120 Co119 2.160 . S
C121 O122 1.278 . S
C121 O129 1.224 . S
O122 C121 1.278 . S
C123 O124 1.245 . S
C123 O135 1.232 . S
O124 C123 1.245 . S
O125 Co119 2.058 . S
O125 C151 1.269 . S
O126 Co118 2.074 . S
O126 C151 1.257 . S
H127 C152 0.930 . S
H128 C158 0.930 . S
O129 Co118 2.093 . S
O129 C121 1.224 . S
H130 C162 0.929 . S
H131 C164 0.930 . S
H132 C165 0.930 . S
H133 C163 0.929 . S
H134 C166 0.928 . S
O135 Co119 2.057 . S
O135 C123 1.232 . S
H136 C155 0.929 . S
H137 C156 0.929 . S
H138 C168 0.931 . S
H139 C160 0.929 1_554 S
H140 C169 0.930 . S
H141 C161 0.931 1_554 S
O142 Co118 2.097 . S
O142 C170 1.214 . S
H143 C171 0.929 . S
H144 C172 0.929 . S
H145 C173 0.930 . S
H146 C174 0.929 . S
H147 C176 0.930 . S
H148 C153 0.930 . S
H149 C157 0.930 . S
O150 Co119 2.037 . S
O150 C170 1.234 . S
C151 O125 1.269 . S
C151 O126 1.257 . S
C152 H127 0.930 . S
C152 C155 1.388 . S
C152 C157 1.418 . S
C153 H148 0.930 . S
C153 C156 1.404 . S
C153 C157 1.353 . S
N154 Co119 2.145 . S
N154 C155 1.397 . S
N154 C156 1.334 . S
C155 H136 0.929 . S
C155 C152 1.388 . S
C155 N154 1.397 . S
C156 H137 0.929 . S
C156 C153 1.404 . S
C156 N154 1.334 . S
C157 H149 0.930 . S
C157 C152 1.418 . S
C157 C153 1.353 . S
C158 H128 0.930 . S
C158 N159 1.330 . S
C158 C160 1.446 . S
N159 Co118 2.151 . S
N159 C158 1.330 . S
N159 C163 1.418 . S
C160 H139 0.929 1_556 S
C160 C158 1.446 . S
C160 C161 1.332 . S
C161 H141 0.931 1_556 S
C161 C160 1.332 . S
C161 C162 1.267 . S
C162 H130 0.929 . S
C162 C161 1.267 . S
C162 C163 1.251 . S
C163 H133 0.929 . S
C163 N159 1.418 . S
C163 C162 1.251 . S
C164 H131 0.930 . S
C164 C166 1.406 1_565 S
C164 C169 1.261 . S
C165 H132 0.930 . S
C165 N167 1.325 . S
C165 C168 1.357 . S
C166 H134 0.928 . S
C166 C164 1.406 1_545 S
C166 N167 1.261 . S
N167 Co118 2.214 . S
N167 C165 1.325 . S
N167 C166 1.261 . S
C168 H138 0.931 . S
C168 C165 1.357 . S
C168 C169 1.312 1_545 S
C169 H140 0.930 . S
C169 C164 1.261 . S
C169 C168 1.312 1_565 S
C170 O142 1.214 . S
C170 O150 1.234 . S
C171 H143 0.929 . S
C171 C174 1.391 . S
C171 C176 1.391 . S
C172 H144 0.929 . S
C172 C173 1.390 . S
C172 N175 1.391 . S
C173 H145 0.930 . S
C173 C172 1.390 . S
C173 C174 1.392 . S
C174 H146 0.929 . S
C174 C171 1.391 . S
C174 C173 1.392 . S
N175 Co119 2.257 . S
N175 C172 1.391 . S
N175 C176 1.388 . S
C176 H147 0.930 . S
C176 C171 1.391 . S
C176 N175 1.388 . S
Co177 O179 2.143 . S
Co177 O185 2.074 . S
Co177 O188 2.093 1_556 S
Co177 O201 2.097 . S
Co177 N218 2.151 1_556 S
Co177 N226 2.214 . S
Co178 O179 2.160 . S
Co178 O184 2.058 . S
Co178 O194 2.057 . S
Co178 O209 2.037 . S
Co178 N213 2.145 . S
Co178 N234 2.257 . S
O179 Co177 2.143 . S
O179 Co178 2.160 . S
C180 O181 1.278 . S
C180 O188 1.224 . S
O181 C180 1.278 . S
C182 O183 1.245 1_556 S
C182 O194 1.232 . S
O183 C182 1.245 1_554 S
O184 Co178 2.058 . S
O184 C210 1.269 . S
O185 Co177 2.074 . S
O185 C210 1.257 . S
H186 C211 0.930 . S
H187 C217 0.930 . S
O188 Co177 2.093 1_554 S
O188 C180 1.224 . S
H189 C221 0.929 . S
H190 C223 0.930 1_554 S
H191 C224 0.930 . S
H192 C222 0.929 . S
H193 C225 0.928 1_554 S
O194 Co178 2.057 . S
O194 C182 1.232 . S
H195 C214 0.929 . S
H196 C215 0.929 . S
H197 C227 0.931 . S
H198 C219 0.929 . S
H199 C228 0.930 . S
H200 C220 0.931 . S
O201 Co177 2.097 . S
O201 C229 1.214 . S
H202 C230 0.929 . S
H203 C231 0.929 . S
H204 C232 0.930 . S
H205 C233 0.929 . S
H206 C235 0.930 . S
H207 C212 0.930 . S
H208 C216 0.930 . S
O209 Co178 2.037 . S
O209 C229 1.234 . S
C210 O184 1.269 . S
C210 O185 1.257 . S
C211 H186 0.930 . S
C211 C214 1.388 . S
C211 C216 1.418 . S
C212 H207 0.930 . S
C212 C215 1.404 . S
C212 C216 1.353 . S
N213 Co178 2.145 . S
N213 C214 1.397 . S
N213 C215 1.334 . S
C214 H195 0.929 . S
C214 C211 1.388 . S
C214 N213 1.397 . S
C215 H196 0.929 . S
C215 C212 1.404 . S
C215 N213 1.334 . S
C216 H208 0.930 . S
C216 C211 1.418 . S
C216 C212 1.353 . S
C217 H187 0.930 . S
C217 N218 1.330 . S
C217 C219 1.446 . S
N218 Co177 2.151 1_554 S
N218 C217 1.330 . S
N218 C222 1.418 . S
C219 H198 0.929 . S
C219 C217 1.446 . S
C219 C220 1.332 . S
C220 H200 0.931 . S
C220 C219 1.332 . S
C220 C221 1.267 . S
C221 H189 0.929 . S
C221 C220 1.267 . S
C221 C222 1.251 . S
C222 H192 0.929 . S
C222 N218 1.418 . S
C222 C221 1.251 . S
C223 H190 0.930 1_556 S
C223 C225 1.406 . S
C223 C228 1.261 . S
C224 H191 0.930 . S
C224 N226 1.325 . S
C224 C227 1.357 . S
C225 H193 0.928 1_556 S
C225 C223 1.406 . S
C225 N226 1.261 . S
N226 Co177 2.214 . S
N226 C224 1.325 . S
N226 C225 1.261 . S
C227 H197 0.931 . S
C227 C224 1.357 . S
C227 C228 1.312 . S
C228 H199 0.930 . S
C228 C223 1.261 . S
C228 C227 1.312 . S
C229 O201 1.214 . S
C229 O209 1.234 . S
C230 H202 0.929 . S
C230 C233 1.391 . S
C230 C235 1.391 . S
C231 H203 0.929 . S
C231 C232 1.390 . S
C231 N234 1.391 . S
C232 H204 0.930 . S
C232 C231 1.390 . S
C232 C233 1.392 . S
C233 H205 0.929 . S
C233 C230 1.391 . S
C233 C232 1.392 . S
N234 Co178 2.257 . S
N234 C231 1.391 . S
N234 C235 1.388 . S
C235 H206 0.930 . S
C235 C230 1.391 . S
C235 N234 1.388 . S
Co236 O238 2.143 . S
Co236 O244 2.074 . S
Co236 O247 2.093 . S
Co236 O260 2.097 . S
Co236 N277 2.151 . S
Co236 N285 2.214 . S
Co237 O238 2.160 . S
Co237 O243 2.058 . S
Co237 O253 2.057 . S
Co237 O268 2.037 1_554 S
Co237 N272 2.145 1_554 S
Co237 N293 2.257 . S
O238 Co236 2.143 . S
O238 Co237 2.160 . S
C239 O240 1.278 . S
C239 O247 1.224 . S
O240 C239 1.278 . S
C241 O242 1.245 . S
C241 O253 1.232 . S
O242 C241 1.245 . S
O243 Co237 2.058 . S
O243 C269 1.269 . S
O244 Co236 2.074 . S
O244 C269 1.257 . S
H245 C270 0.930 . S
H246 C276 0.930 . S
O247 Co236 2.093 . S
O247 C239 1.224 . S
H248 C280 0.929 . S
H249 C282 0.930 . S
H250 C283 0.930 . S
H251 C281 0.929 . S
H252 C284 0.928 . S
O253 Co237 2.057 . S
O253 C241 1.232 . S
H254 C273 0.929 . S
H255 C274 0.929 . S
H256 C286 0.921 1_556 S
H257 C278 0.929 . S
H258 C287 0.930 . S
H259 C279 0.931 . S
O260 Co236 2.097 . S
O260 C288 1.214 1_554 S
H261 C289 0.929 . S
H262 C290 0.929 . S
H263 C291 0.930 . S
H264 C292 0.929 . S
H265 C294 0.930 . S
H266 C271 0.930 . S
H267 C275 0.930 . S
O268 Co237 2.037 1_556 S
O268 C288 1.234 . S
C269 O243 1.269 . S
C269 O244 1.257 . S
C270 H245 0.930 . S
C270 C273 1.388 . S
C270 C275 1.418 . S
C271 H266 0.930 . S
C271 C274 1.404 . S
C271 C275 1.353 . S
N272 Co237 2.145 1_556 S
N272 C273 1.397 . S
N272 C274 1.334 . S
C273 H254 0.929 . S
C273 C270 1.388 . S
C273 N272 1.397 . S
C274 H255 0.929 . S
C274 C271 1.404 . S
C274 N272 1.334 . S
C275 H267 0.930 . S
C275 C270 1.418 . S
C275 C271 1.353 . S
C276 H246 0.930 . S
C276 N277 1.330 . S
C276 C278 1.446 . S
N277 Co236 2.151 . S
N277 C276 1.330 . S
N277 C281 1.418 . S
C278 H257 0.929 . S
C278 C276 1.446 . S
C278 C279 1.332 . S
C279 H259 0.931 . S
C279 C278 1.332 . S
C279 C280 1.267 . S
C280 H248 0.929 . S
C280 C279 1.267 . S
C280 C281 1.251 . S
C281 H251 0.929 . S
C281 N277 1.418 . S
C281 C280 1.251 . S
C282 H249 0.930 . S
C282 C284 1.406 1_455 S
C282 C287 1.261 . S
C283 H250 0.930 . S
C283 N285 1.325 . S
C283 C286 1.357 . S
C284 H252 0.928 . S
C284 C282 1.406 1_655 S
C284 N285 1.261 . S
N285 Co236 2.214 . S
N285 C283 1.325 . S
N285 C284 1.261 . S
C286 H256 0.921 1_554 S
C286 C283 1.357 . S
C286 C287 1.312 1_655 S
C287 H258 0.930 . S
C287 C282 1.261 . S
C287 C286 1.312 1_455 S
C288 O260 1.214 1_556 S
C288 O268 1.234 . S
C289 H261 0.929 . S
C289 C292 1.391 . S
C289 C294 1.391 . S
C290 H262 0.929 . S
C290 C291 1.390 . S
C290 N293 1.391 1_556 S
C291 H263 0.930 . S
C291 C290 1.390 . S
C291 C292 1.392 1_556 S
C292 H264 0.929 . S
C292 C289 1.391 . S
C292 C291 1.392 1_554 S
N293 Co237 2.257 . S
N293 C290 1.391 1_554 S
N293 C294 1.388 . S
C294 H265 0.930 . S
C294 C289 1.391 . S
C294 N293 1.388 . S
Co295 O297 2.143 . S
Co295 O303 2.074 . S
Co295 O306 2.093 . S
Co295 O319 2.097 . S
Co295 N336 2.151 . S
Co295 N344 2.214 . S
Co296 O297 2.160 . S
Co296 O302 2.058 . S
Co296 O312 2.057 . S
Co296 O327 2.037 . S
Co296 N331 2.145 . S
Co296 N352 2.257 . S
O297 Co295 2.143 . S
O297 Co296 2.160 . S
C298 O299 1.278 . S
C298 O306 1.224 . S
O299 C298 1.278 . S
C300 O301 1.245 . S
C300 O312 1.232 . S
O301 C300 1.245 . S
O302 Co296 2.058 . S
O302 C328 1.269 . S
O303 Co295 2.074 . S
O303 C328 1.257 . S
H304 C329 0.930 1_556 S
H305 C335 0.930 . S
O306 Co295 2.093 . S
O306 C298 1.224 . S
H307 C339 0.929 . S
H308 C341 0.930 . S
H309 C342 0.930 . S
H310 C340 0.929 . S
H311 C343 0.928 . S
O312 Co296 2.057 . S
O312 C300 1.232 . S
H313 C332 0.929 . S
H314 C333 0.929 . S
H315 C345 0.931 . S
H316 C337 0.929 . S
H317 C346 0.930 . S
H318 C338 0.931 . S
O319 Co295 2.097 . S
O319 C347 1.214 . S
H320 C348 0.929 . S
H321 C349 0.929 . S
H322 C350 0.930 . S
H323 C351 0.929 . S
H324 C353 0.930 . S
H325 C330 0.930 . S
H326 C334 0.930 1_556 S
O327 Co296 2.037 . S
O327 C347 1.234 . S
C328 O302 1.269 . S
C328 O303 1.257 . S
C329 H304 0.930 1_554 S
C329 C332 1.388 . S
C329 C334 1.418 . S
C330 H325 0.930 . S
C330 C333 1.404 . S
C330 C334 1.353 . S
N331 Co296 2.145 . S
N331 C332 1.397 . S
N331 C333 1.334 . S
C332 H313 0.929 . S
C332 C329 1.388 . S
C332 N331 1.397 . S
C333 H314 0.929 . S
C333 C330 1.404 . S
C333 N331 1.334 . S
C334 H326 0.930 1_554 S
C334 C329 1.418 . S
C334 C330 1.353 . S
C335 H305 0.930 . S
C335 N336 1.330 . S
C335 C337 1.446 . S
N336 Co295 2.151 . S
N336 C335 1.330 . S
N336 C340 1.418 . S
C337 H316 0.929 . S
C337 C335 1.446 . S
C337 C338 1.332 . S
C338 H318 0.931 . S
C338 C337 1.332 . S
C338 C339 1.267 . S
C339 H307 0.929 . S
C339 C338 1.267 . S
C339 C340 1.251 . S
C340 H310 0.929 . S
C340 N336 1.418 . S
C340 C339 1.251 . S
C341 H308 0.930 . S
C341 C343 1.406 1_545 S
C341 C346 1.261 . S
C342 H309 0.930 . S
C342 N344 1.325 . S
C342 C345 1.357 . S
C343 H311 0.928 . S
C343 C341 1.406 1_565 S
C343 N344 1.261 . S
N344 Co295 2.214 . S
N344 C342 1.325 . S
N344 C343 1.261 . S
C345 H315 0.931 . S
C345 C342 1.357 . S
C345 C346 1.312 1_565 S
C346 H317 0.930 . S
C346 C341 1.261 . S
C346 C345 1.312 1_545 S
C347 O319 1.214 . S
C347 O327 1.234 . S
C348 H320 0.929 . S
C348 C351 1.391 . S
C348 C353 1.391 . S
C349 H321 0.929 . S
C349 C350 1.390 . S
C349 N352 1.391 . S
C350 H322 0.930 . S
C350 C349 1.390 . S
C350 C351 1.392 . S
C351 H323 0.929 . S
C351 C348 1.391 . S
C351 C350 1.392 . S
N352 Co296 2.257 . S
N352 C349 1.391 . S
N352 C353 1.388 . S
C353 H324 0.930 . S
C353 C348 1.391 . S
C353 N352 1.388 . S
Co354 O356 2.143 . S
Co354 O362 2.074 . S
Co354 O365 2.093 . S
Co354 O378 2.097 . S
Co354 N395 2.151 . S
Co354 N403 2.214 . S
Co355 O356 2.160 . S
Co355 O361 2.058 . S
Co355 O371 2.057 . S
Co355 O386 2.037 . S
Co355 N390 2.145 . S
Co355 N411 2.257 . S
O356 Co354 2.143 . S
O356 Co355 2.160 . S
C357 O358 1.278 . S
C357 O365 1.224 . S
O358 C357 1.278 . S
C359 O360 1.245 . S
C359 O371 1.232 . S
O360 C359 1.245 . S
O361 Co355 2.058 . S
O361 C387 1.269 . S
O362 Co354 2.074 . S
O362 C387 1.257 . S
H363 C388 0.930 . S
H364 C394 0.930 . S
O365 Co354 2.093 . S
O365 C357 1.224 . S
H366 C398 0.929 . S
H367 C400 0.930 . S
H368 C401 0.930 . S
H369 C399 0.929 . S
H370 C402 0.928 . S
O371 Co355 2.057 . S
O371 C359 1.232 . S
H372 C391 0.929 . S
H373 C392 0.929 . S
H374 C404 0.931 . S
H375 C396 0.929 . S
H376 C405 0.930 . S
H377 C397 0.931 . S
O378 Co354 2.097 . S
O378 C406 1.214 . S
H379 C407 0.929 . S
H380 C408 0.929 . S
H381 C409 0.930 . S
H382 C410 0.929 . S
H383 C412 0.930 . S
H384 C389 0.930 . S
H385 C393 0.930 . S
O386 Co355 2.037 . S
O386 C406 1.234 . S
C387 O361 1.269 . S
C387 O362 1.257 . S
C388 H363 0.930 . S
C388 C391 1.388 . S
C388 C393 1.418 . S
C389 H384 0.930 . S
C389 C392 1.404 . S
C389 C393 1.353 . S
N390 Co355 2.145 . S
N390 C391 1.397 . S
N390 C392 1.334 . S
C391 H372 0.929 . S
C391 C388 1.388 . S
C391 N390 1.397 . S
C392 H373 0.929 . S
C392 C389 1.404 . S
C392 N390 1.334 . S
C393 H385 0.930 . S
C393 C388 1.418 . S
C393 C389 1.353 . S
C394 H364 0.930 . S
C394 N395 1.330 . S
C394 C396 1.446 . S
N395 Co354 2.151 . S
N395 C394 1.330 . S
N395 C399 1.418 . S
C396 H375 0.929 . S
C396 C394 1.446 . S
C396 C397 1.332 . S
C397 H377 0.931 . S
C397 C396 1.332 . S
C397 C398 1.267 . S
C398 H366 0.929 . S
C398 C397 1.267 . S
C398 C399 1.251 . S
C399 H369 0.929 . S
C399 N395 1.418 . S
C399 C398 1.251 . S
C400 H367 0.930 . S
C400 C402 1.406 . S
C400 C405 1.261 . S
C401 H368 0.930 . S
C401 N403 1.325 . S
C401 C404 1.357 . S
C402 H370 0.928 . S
C402 C400 1.406 . S
C402 N403 1.261 . S
N403 Co354 2.214 . S
N403 C401 1.325 . S
N403 C402 1.261 . S
C404 H374 0.931 . S
C404 C401 1.357 . S
C404 C405 1.312 . S
C405 H376 0.930 . S
C405 C400 1.261 . S
C405 C404 1.312 . S
C406 O378 1.214 . S
C406 O386 1.234 . S
C407 H379 0.929 . S
C407 C410 1.391 . S
C407 C412 1.391 . S
C408 H380 0.929 . S
C408 C409 1.390 . S
C408 N411 1.391 . S
C409 H381 0.930 . S
C409 C408 1.390 . S
C409 C410 1.392 . S
C410 H382 0.929 . S
C410 C407 1.391 . S
C410 C409 1.392 . S
N411 Co355 2.257 . S
N411 C408 1.391 . S
N411 C412 1.388 . S
C412 H383 0.930 . S
C412 C407 1.391 . S
C412 N411 1.388 . S
Co413 O415 2.143 . S
Co413 O421 2.074 . S
Co413 O424 2.093 . S
Co413 O437 2.097 . S
Co413 N454 2.151 . S
Co413 N462 2.214 . S
Co414 O415 2.160 . S
Co414 O420 2.058 . S
Co414 O430 2.057 . S
Co414 O445 2.037 . S
Co414 N449 2.145 . S
Co414 N470 2.257 . S
O415 Co413 2.143 . S
O415 Co414 2.160 . S
C416 O417 1.278 . S
C416 O424 1.224 . S
O417 C416 1.278 . S
C418 O419 1.245 . S
C418 O430 1.232 . S
O419 C418 1.245 . S
O420 Co414 2.058 . S
O420 C446 1.269 . S
O421 Co413 2.074 . S
O421 C446 1.257 . S
H422 C447 0.930 . S
H423 C453 0.930 . S
O424 Co413 2.093 . S
O424 C416 1.224 . S
H425 C457 0.929 . S
H426 C459 0.930 . S
H427 C460 0.930 . S
H428 C458 0.929 . S
H429 C461 0.928 . S
O430 Co414 2.057 . S
O430 C418 1.232 . S
H431 C450 0.929 . S
H432 C451 0.929 . S
H433 C463 0.931 . S
H434 C455 0.929 . S
H435 C464 0.930 . S
H436 C456 0.931 . S
O437 Co413 2.097 . S
O437 C465 1.214 . S
H438 C466 0.929 . S
H439 C467 0.929 . S
H440 C468 0.930 . S
H441 C469 0.929 . S
H442 C471 0.930 . S
H443 C448 0.930 . S
H444 C452 0.930 . S
O445 Co414 2.037 . S
O445 C465 1.234 . S
C446 O420 1.269 . S
C446 O421 1.257 . S
C447 H422 0.930 . S
C447 C450 1.388 . S
C447 C452 1.418 . S
C448 H443 0.930 . S
C448 C451 1.404 . S
C448 C452 1.353 . S
N449 Co414 2.145 . S
N449 C450 1.397 . S
N449 C451 1.334 . S
C450 H431 0.929 . S
C450 C447 1.388 . S
C450 N449 1.397 . S
C451 H432 0.929 . S
C451 C448 1.404 . S
C451 N449 1.334 . S
C452 H444 0.930 . S
C452 C447 1.418 . S
C452 C448 1.353 . S
C453 H423 0.930 . S
C453 N454 1.330 . S
C453 C455 1.446 . S
N454 Co413 2.151 . S
N454 C453 1.330 . S
N454 C458 1.418 . S
C455 H434 0.929 . S
C455 C453 1.446 . S
C455 C456 1.332 . S
C456 H436 0.931 . S
C456 C455 1.332 . S
C456 C457 1.267 . S
C457 H425 0.929 . S
C457 C456 1.267 . S
C457 C458 1.251 . S
C458 H428 0.929 . S
C458 N454 1.418 . S
C458 C457 1.251 . S
C459 H426 0.930 . S
C459 C461 1.406 1_655 S
C459 C464 1.261 . S
C460 H427 0.930 . S
C460 N462 1.325 . S
C460 C463 1.357 . S
C461 H429 0.928 . S
C461 C459 1.406 1_455 S
C461 N462 1.261 . S
N462 Co413 2.214 . S
N462 C460 1.325 . S
N462 C461 1.261 . S
C463 H433 0.931 . S
C463 C460 1.357 . S
C463 C464 1.312 1_455 S
C464 H435 0.930 . S
C464 C459 1.261 . S
C464 C463 1.312 1_655 S
C465 O437 1.214 . S
C465 O445 1.234 . S
C466 H438 0.929 . S
C466 C469 1.391 . S
C466 C471 1.391 . S
C467 H439 0.929 . S
C467 C468 1.390 . S
C467 N470 1.391 . S
C468 H440 0.930 . S
C468 C467 1.390 . S
C468 C469 1.392 . S
C469 H441 0.929 . S
C469 C466 1.391 . S
C469 C468 1.392 . S
N470 Co414 2.257 . S
N470 C467 1.391 . S
N470 C471 1.388 . S
C471 H442 0.930 . S
C471 C466 1.391 . S
C471 N470 1.388 . S
Co472 O474 2.143 . S
Co472 O480 2.074 . S
Co472 O483 2.093 . S
Co472 O496 2.097 . S
Co472 N513 2.151 . S
Co472 N521 2.214 . S
Co473 O474 2.160 . S
Co473 O479 2.058 . S
Co473 O489 2.057 . S
Co473 O504 2.037 . S
Co473 N508 2.145 . S
Co473 N529 2.257 . S
O474 Co472 2.143 . S
O474 Co473 2.160 . S
C475 O476 1.278 . S
C475 O483 1.224 . S
O476 C475 1.278 . S
C477 O478 1.245 . S
C477 O489 1.232 . S
O478 C477 1.245 . S
O479 Co473 2.058 . S
O479 C505 1.269 . S
O480 Co472 2.074 . S
O480 C505 1.257 . S
H481 C506 0.930 1_554 S
H482 C512 0.930 . S
O483 Co472 2.093 . S
O483 C475 1.224 . S
H484 C516 0.929 . S
H485 C518 0.930 . S
H486 C519 0.930 . S
H487 C517 0.929 . S
H488 C520 0.928 . S
O489 Co473 2.057 . S
O489 C477 1.232 . S
H490 C509 0.929 . S
H491 C510 0.929 . S
H492 C522 0.931 . S
H493 C514 0.929 . S
H494 C523 0.930 . S
H495 C515 0.931 . S
O496 Co472 2.097 . S
O496 C524 1.214 . S
H497 C525 0.929 . S
H498 C526 0.929 . S
H499 C527 0.930 . S
H500 C528 0.929 . S
H501 C530 0.930 . S
H502 C507 0.930 . S
H503 C511 0.930 1_554 S
O504 Co473 2.037 . S
O504 C524 1.234 . S
C505 O479 1.269 . S
C505 O480 1.257 . S
C506 H481 0.930 1_556 S
C506 C509 1.388 . S
C506 C511 1.418 . S
C507 H502 0.930 . S
C507 C510 1.404 . S
C507 C511 1.353 . S
N508 Co473 2.145 . S
N508 C509 1.397 . S
N508 C510 1.334 . S
C509 H490 0.929 . S
C509 C506 1.388 . S
C509 N508 1.397 . S
C510 H491 0.929 . S
C510 C507 1.404 . S
C510 N508 1.334 . S
C511 H503 0.930 1_556 S
C511 C506 1.418 . S
C511 C507 1.353 . S
C512 H482 0.930 . S
C512 N513 1.330 . S
C512 C514 1.446 . S
N513 Co472 2.151 . S
N513 C512 1.330 . S
N513 C517 1.418 . S
C514 H493 0.929 . S
C514 C512 1.446 . S
C514 C515 1.332 . S
C515 H495 0.931 . S
C515 C514 1.332 . S
C515 C516 1.267 . S
C516 H484 0.929 . S
C516 C515 1.267 . S
C516 C517 1.251 . S
C517 H487 0.929 . S
C517 N513 1.418 . S
C517 C516 1.251 . S
C518 H485 0.930 . S
C518 C520 1.406 1_565 S
C518 C523 1.261 . S
C519 H486 0.930 . S
C519 N521 1.325 . S
C519 C522 1.357 . S
C520 H488 0.928 . S
C520 C518 1.406 1_545 S
C520 N521 1.261 . S
N521 Co472 2.214 . S
N521 C519 1.325 . S
N521 C520 1.261 . S
C522 H492 0.931 . S
C522 C519 1.357 . S
C522 C523 1.312 1_545 S
C523 H494 0.930 . S
C523 C518 1.261 . S
C523 C522 1.312 1_565 S
C524 O496 1.214 . S
C524 O504 1.234 . S
C525 H497 0.929 . S
C525 C528 1.391 . S
C525 C530 1.391 . S
C526 H498 0.929 . S
C526 C527 1.390 . S
C526 N529 1.391 . S
C527 H499 0.930 . S
C527 C526 1.390 . S
C527 C528 1.392 . S
C528 H500 0.929 . S
C528 C525 1.391 . S
C528 C527 1.392 . S
N529 Co473 2.257 . S
N529 C526 1.391 . S
N529 C530 1.388 . S
C530 H501 0.930 . S
C530 C525 1.391 . S
C530 N529 1.388 . S
Co531 O533 2.143 . S
Co531 O539 2.074 . S
Co531 O542 2.093 . S
Co531 O555 2.097 . S
Co531 N572 2.151 . S
Co531 N580 2.214 . S
Co532 O533 2.160 . S
Co532 O538 2.058 . S
Co532 O548 2.057 . S
Co532 O563 2.037 1_556 S
Co532 N567 2.145 1_556 S
Co532 N588 2.257 . S
O533 Co531 2.143 . S
O533 Co532 2.160 . S
C534 O535 1.278 . S
C534 O542 1.224 . S
O535 C534 1.278 . S
C536 O537 1.245 . S
C536 O548 1.232 . S
O537 C536 1.245 . S
O538 Co532 2.058 . S
O538 C564 1.269 . S
O539 Co531 2.074 . S
O539 C564 1.257 . S
H540 C565 0.930 . S
H541 C571 0.930 . S
O542 Co531 2.093 . S
O542 C534 1.224 . S
H543 C575 0.929 . S
H544 C577 0.930 . S
H545 C578 0.930 . S
H546 C576 0.929 . S
H547 C579 0.928 . S
O548 Co532 2.057 . S
O548 C536 1.232 . S
H549 C568 0.929 . S
H550 C569 0.929 . S
H551 C581 0.921 1_554 S
H552 C573 0.929 . S
H553 C582 0.930 . S
H554 C574 0.931 . S
O555 Co531 2.097 . S
O555 C583 1.214 1_556 S
H556 C584 0.929 . S
H557 C585 0.929 . S
H558 C586 0.930 . S
H559 C587 0.929 . S
H560 C589 0.930 . S
H561 C566 0.930 . S
H562 C570 0.930 . S
O563 Co532 2.037 1_554 S
O563 C583 1.234 . S
C564 O538 1.269 . S
C564 O539 1.257 . S
C565 H540 0.930 . S
C565 C568 1.388 . S
C565 C570 1.418 . S
C566 H561 0.930 . S
C566 C569 1.404 . S
C566 C570 1.353 . S
N567 Co532 2.145 1_554 S
N567 C568 1.397 . S
N567 C569 1.334 . S
C568 H549 0.929 . S
C568 C565 1.388 . S
C568 N567 1.397 . S
C569 H550 0.929 . S
C569 C566 1.404 . S
C569 N567 1.334 . S
C570 H562 0.930 . S
C570 C565 1.418 . S
C570 C566 1.353 . S
C571 H541 0.930 . S
C571 N572 1.330 . S
C571 C573 1.446 . S
N572 Co531 2.151 . S
N572 C571 1.330 . S
N572 C576 1.418 . S
C573 H552 0.929 . S
C573 C571 1.446 . S
C573 C574 1.332 . S
C574 H554 0.931 . S
C574 C573 1.332 . S
C574 C575 1.267 . S
C575 H543 0.929 . S
C575 C574 1.267 . S
C575 C576 1.251 . S
C576 H546 0.929 . S
C576 N572 1.418 . S
C576 C575 1.251 . S
C577 H544 0.930 . S
C577 C579 1.406 . S
C577 C582 1.261 . S
C578 H545 0.930 . S
C578 N580 1.325 . S
C578 C581 1.357 . S
C579 H547 0.928 . S
C579 C577 1.406 . S
C579 N580 1.261 . S
N580 Co531 2.214 . S
N580 C578 1.325 . S
N580 C579 1.261 . S
C581 H551 0.921 1_556 S
C581 C578 1.357 . S
C581 C582 1.312 . S
C582 H553 0.930 . S
C582 C577 1.261 . S
C582 C581 1.312 . S
C583 O555 1.214 1_554 S
C583 O563 1.234 . S
C584 H556 0.929 . S
C584 C587 1.391 . S
C584 C589 1.391 . S
C585 H557 0.929 . S
C585 C586 1.390 . S
C585 N588 1.391 1_554 S
C586 H558 0.930 . S
C586 C585 1.390 . S
C586 C587 1.392 1_554 S
C587 H559 0.929 . S
C587 C584 1.391 . S
C587 C586 1.392 1_556 S
N588 Co532 2.257 . S
N588 C585 1.391 1_556 S
N588 C589 1.388 . S
C589 H560 0.930 . S
C589 C584 1.391 . S
C589 N588 1.388 . S
Co590 O592 2.143 . S
Co590 O598 2.074 . S
Co590 O601 2.093 1_554 S
Co590 O614 2.097 . S
Co590 N631 2.151 1_554 S
Co590 N639 2.214 . S
Co591 O592 2.160 . S
Co591 O597 2.058 . S
Co591 O607 2.057 . S
Co591 O622 2.037 . S
Co591 N626 2.145 . S
Co591 N647 2.257 . S
O592 Co590 2.143 . S
O592 Co591 2.160 . S
C593 O594 1.278 . S
C593 O601 1.224 . S
O594 C593 1.278 . S
C595 O596 1.245 1_554 S
C595 O607 1.232 . S
O596 C595 1.245 1_556 S
O597 Co591 2.058 . S
O597 C623 1.269 . S
O598 Co590 2.074 . S
O598 C623 1.257 . S
H599 C624 0.930 . S
H600 C630 0.930 . S
O601 Co590 2.093 1_556 S
O601 C593 1.224 . S
H602 C634 0.929 . S
H603 C636 0.930 1_556 S
H604 C637 0.930 . S
H605 C635 0.929 . S
H606 C638 0.928 1_556 S
O607 Co591 2.057 . S
O607 C595 1.232 . S
H608 C627 0.929 . S
H609 C628 0.929 . S
H610 C640 0.931 . S
H611 C632 0.929 . S
H612 C641 0.930 . S
H613 C633 0.931 . S
O614 Co590 2.097 . S
O614 C642 1.214 . S
H615 C643 0.929 . S
H616 C644 0.929 . S
H617 C645 0.930 . S
H618 C646 0.929 . S
H619 C648 0.930 . S
H620 C625 0.930 . S
H621 C629 0.930 . S
O622 Co591 2.037 . S
O622 C642 1.234 . S
C623 O597 1.269 . S
C623 O598 1.257 . S
C624 H599 0.930 . S
C624 C627 1.388 . S
C624 C629 1.418 . S
C625 H620 0.930 . S
C625 C628 1.404 . S
C625 C629 1.353 . S
N626 Co591 2.145 . S
N626 C627 1.397 . S
N626 C628 1.334 . S
C627 H608 0.929 . S
C627 C624 1.388 . S
C627 N626 1.397 . S
C628 H609 0.929 . S
C628 C625 1.404 . S
C628 N626 1.334 . S
C629 H621 0.930 . S
C629 C624 1.418 . S
C629 C625 1.353 . S
C630 H600 0.930 . S
C630 N631 1.330 . S
C630 C632 1.446 . S
N631 Co590 2.151 1_556 S
N631 C630 1.330 . S
N631 C635 1.418 . S
C632 H611 0.929 . S
C632 C630 1.446 . S
C632 C633 1.332 . S
C633 H613 0.931 . S
C633 C632 1.332 . S
C633 C634 1.267 . S
C634 H602 0.929 . S
C634 C633 1.267 . S
C634 C635 1.251 . S
C635 H605 0.929 . S
C635 N631 1.418 . S
C635 C634 1.251 . S
C636 H603 0.930 1_554 S
C636 C638 1.406 1_455 S
C636 C641 1.261 . S
C637 H604 0.930 . S
C637 N639 1.325 . S
C637 C640 1.357 . S
C638 H606 0.928 1_554 S
C638 C636 1.406 1_655 S
C638 N639 1.261 . S
N639 Co590 2.214 . S
N639 C637 1.325 . S
N639 C638 1.261 . S
C640 H610 0.931 . S
C640 C637 1.357 . S
C640 C641 1.312 1_655 S
C641 H612 0.930 . S
C641 C636 1.261 . S
C641 C640 1.312 1_455 S
C642 O614 1.214 . S
C642 O622 1.234 . S
C643 H615 0.929 . S
C643 C646 1.391 . S
C643 C648 1.391 . S
C644 H616 0.929 . S
C644 C645 1.390 . S
C644 N647 1.391 . S
C645 H617 0.930 . S
C645 C644 1.390 . S
C645 C646 1.392 . S
C646 H618 0.929 . S
C646 C643 1.391 . S
C646 C645 1.392 . S
N647 Co591 2.257 . S
N647 C644 1.391 . S
N647 C648 1.388 . S
C648 H619 0.930 . S
C648 C643 1.391 . S
C648 N647 1.388 . S
Co649 O651 2.143 . S
Co649 O657 2.074 . S
Co649 O660 2.093 . S
Co649 O673 2.097 . S
Co649 N690 2.151 . S
Co649 N698 2.214 . S
Co650 O651 2.160 . S
Co650 O656 2.058 . S
Co650 O666 2.057 . S
Co650 O681 2.037 . S
Co650 N685 2.145 . S
Co650 N706 2.257 . S
O651 Co649 2.143 . S
O651 Co650 2.160 . S
C652 O653 1.278 . S
C652 O660 1.224 . S
O653 C652 1.278 . S
C654 O655 1.245 . S
C654 O666 1.232 . S
O655 C654 1.245 . S
O656 Co650 2.058 . S
O656 C682 1.269 . S
O657 Co649 2.074 . S
O657 C682 1.257 . S
H658 C683 0.930 . S
H659 C689 0.930 . S
O660 Co649 2.093 . S
O660 C652 1.224 . S
H661 C693 0.929 . S
H662 C695 0.930 . S
H663 C696 0.930 . S
H664 C694 0.929 . S
H665 C697 0.928 . S
O666 Co650 2.057 . S
O666 C654 1.232 . S
H667 C686 0.929 . S
H668 C687 0.929 . S
H669 C699 0.931 . S
H670 C691 0.929 1_556 S
H671 C700 0.930 . S
H672 C692 0.931 1_556 S
O673 Co649 2.097 . S
O673 C701 1.214 . S
H674 C702 0.929 . S
H675 C703 0.929 . S
H676 C704 0.930 . S
H677 C705 0.929 . S
H678 C707 0.930 . S
H679 C684 0.930 . S
H680 C688 0.930 . S
O681 Co650 2.037 . S
O681 C701 1.234 . S
C682 O656 1.269 . S
C682 O657 1.257 . S
C683 H658 0.930 . S
C683 C686 1.388 . S
C683 C688 1.418 . S
C684 H679 0.930 . S
C684 C687 1.404 . S
C684 C688 1.353 . S
N685 Co650 2.145 . S
N685 C686 1.397 . S
N685 C687 1.334 . S
C686 H667 0.929 . S
C686 C683 1.388 . S
C686 N685 1.397 . S
C687 H668 0.929 . S
C687 C684 1.404 . S
C687 N685 1.334 . S
C688 H680 0.930 . S
C688 C683 1.418 . S
C688 C684 1.353 . S
C689 H659 0.930 . S
C689 N690 1.330 . S
C689 C691 1.446 . S
N690 Co649 2.151 . S
N690 C689 1.330 . S
N690 C694 1.418 . S
C691 H670 0.929 1_554 S
C691 C689 1.446 . S
C691 C692 1.332 . S
C692 H672 0.931 1_554 S
C692 C691 1.332 . S
C692 C693 1.267 . S
C693 H661 0.929 . S
C693 C692 1.267 . S
C693 C694 1.251 . S
C694 H664 0.929 . S
C694 N690 1.418 . S
C694 C693 1.251 . S
C695 H662 0.930 . S
C695 C697 1.406 1_545 S
C695 C700 1.261 . S
C696 H663 0.930 . S
C696 N698 1.325 . S
C696 C699 1.357 . S
C697 H665 0.928 . S
C697 C695 1.406 1_565 S
C697 N698 1.261 . S
N698 Co649 2.214 . S
N698 C696 1.325 . S
N698 C697 1.261 . S
C699 H669 0.931 . S
C699 C696 1.357 . S
C699 C700 1.312 1_565 S
C700 H671 0.930 . S
C700 C695 1.261 . S
C700 C699 1.312 1_545 S
C701 O673 1.214 . S
C701 O681 1.234 . S
C702 H674 0.929 . S
C702 C705 1.391 . S
C702 C707 1.391 . S
C703 H675 0.929 . S
C703 C704 1.390 . S
C703 N706 1.391 . S
C704 H676 0.930 . S
C704 C703 1.390 . S
C704 C705 1.392 . S
C705 H677 0.929 . S
C705 C702 1.391 . S
C705 C704 1.392 . S
N706 Co650 2.257 . S
N706 C703 1.391 . S
N706 C707 1.388 . S
C707 H678 0.930 . S
C707 C702 1.391 . S
C707 N706 1.388 . S
H708 C714 0.930 . S
H709 C717 0.930 . S
H710 C718 0.930 . S
H711 C719 0.930 . S
H712 C722 0.930 . S
H713 C723 0.930 . S
C714 H708 0.930 . S
C714 C715 1.355 . S
C714 C716 1.415 . S
C715 C714 1.355 . S
C715 C717 1.419 . S
C716 C714 1.415 . S
C716 C721 1.425 . S
C716 C723 1.409 . S
C717 H709 0.930 . S
C717 C715 1.419 . S
C717 C718 1.362 . S
C718 H710 0.930 . S
C718 C717 1.362 . S
C718 C721 1.409 . S
C719 H711 0.930 . S
C719 C720 1.355 . S
C719 C721 1.415 . S
C720 C719 1.355 . S
C720 C722 1.419 . S
C721 C716 1.425 . S
C721 C718 1.409 . S
C721 C719 1.415 . S
C722 H712 0.930 . S
C722 C720 1.419 . S
C722 C723 1.362 . S
C723 H713 0.930 . S
C723 C716 1.409 . S
C723 C722 1.362 . S
H724 C730 0.930 . S
H725 C733 0.930 . S
H726 C734 0.930 . S
H727 C735 0.930 . S
H728 C738 0.930 . S
H729 C739 0.930 . S
C730 H724 0.930 . S
C730 C731 1.355 . S
C730 C732 1.431 . S
C731 C730 1.355 . S
C731 C733 1.419 . S
C732 C730 1.431 . S
C732 C737 1.403 1_455 S
C732 C739 1.404 1_455 S
C733 H725 0.930 . S
C733 C731 1.419 . S
C733 C734 1.362 . S
C734 H726 0.930 . S
C734 C733 1.362 . S
C734 C737 1.404 1_455 S
C735 H727 0.930 . S
C735 C736 1.355 . S
C735 C737 1.431 . S
C736 C735 1.355 . S
C736 C738 1.419 . S
C737 C732 1.403 1_655 S
C737 C734 1.404 1_655 S
C737 C735 1.431 . S
C738 H728 0.930 . S
C738 C736 1.419 . S
C738 C739 1.362 . S
C739 H729 0.930 . S
C739 C732 1.404 1_655 S
C739 C738 1.362 . S
H740 C746 0.930 . S
H741 C749 0.930 . S
H742 C750 0.930 . S
H743 C751 0.930 . S
H744 C754 0.930 . S
H745 C755 0.930 . S
C746 H740 0.930 . S
C746 C747 1.355 . S
C746 C748 1.415 1_565 S
C747 C746 1.355 . S
C747 C749 1.419 . S
C748 C746 1.415 1_545 S
C748 C753 1.425 1_545 S
C748 C755 1.409 . S
C749 H741 0.930 . S
C749 C747 1.419 . S
C749 C750 1.362 . S
C750 H742 0.930 . S
C750 C749 1.362 . S
C750 C753 1.409 . S
C751 H743 0.930 . S
C751 C752 1.355 . S
C751 C753 1.415 1_545 S
C752 C751 1.355 . S
C752 C754 1.419 . S
C753 C748 1.425 1_565 S
C753 C750 1.409 . S
C753 C751 1.415 1_565 S
C754 H744 0.930 . S
C754 C752 1.419 . S
C754 C755 1.362 . S
C755 H745 0.930 . S
C755 C748 1.409 . S
C755 C754 1.362 . S
H756 C762 0.930 . S
H757 C765 0.930 . S
H758 C766 0.930 . S
H759 C767 0.930 . S
H760 C770 0.930 . S
H761 C771 0.930 . S
C762 H756 0.930 . S
C762 C763 1.355 . S
C762 C764 1.415 . S
C763 C762 1.355 . S
C763 C765 1.419 . S
C764 C762 1.415 . S
C764 C769 1.425 . S
C764 C771 1.409 . S
C765 H757 0.930 . S
C765 C763 1.419 . S
C765 C766 1.362 . S
C766 H758 0.930 . S
C766 C765 1.362 . S
C766 C769 1.409 . S
C767 H759 0.930 . S
C767 C768 1.355 . S
C767 C769 1.415 . S
C768 C767 1.355 . S
C768 C770 1.419 . S
C769 C764 1.425 . S
C769 C766 1.409 . S
C769 C767 1.415 . S
C770 H760 0.930 . S
C770 C768 1.419 . S
C770 C771 1.362 . S
C771 H761 0.930 . S
C771 C764 1.409 . S
C771 C770 1.362 . S
H772 C778 0.930 . S
H773 C781 0.930 . S
H774 C782 0.930 . S
H775 C783 0.930 . S
H776 C786 0.930 . S
H777 C787 0.930 . S
C778 H772 0.930 . S
C778 C779 1.355 . S
C778 C780 1.415 . S
C779 C778 1.355 . S
C779 C781 1.419 . S
C780 C778 1.415 . S
C780 C785 1.425 1_455 S
C780 C787 1.409 . S
C781 H773 0.930 . S
C781 C779 1.419 . S
C781 C782 1.362 1_455 S
C782 H774 0.930 . S
C782 C781 1.362 1_655 S
C782 C785 1.409 . S
C783 H775 0.930 . S
C783 C784 1.355 . S
C783 C785 1.415 . S
C784 C783 1.355 . S
C784 C786 1.419 . S
C785 C780 1.425 1_655 S
C785 C782 1.409 . S
C785 C783 1.415 . S
C786 H776 0.930 . S
C786 C784 1.419 . S
C786 C787 1.362 1_655 S
C787 H777 0.930 . S
C787 C780 1.409 . S
C787 C786 1.362 1_455 S
H788 C794 0.930 . S
H789 C797 0.930 . S
H790 C798 0.930 . S
H791 C799 0.930 . S
H792 C802 0.930 . S
H793 C803 0.930 . S
C794 H788 0.930 . S
C794 C795 1.355 . S
C794 C796 1.415 . S
C795 C794 1.355 . S
C795 C797 1.419 . S
C796 C794 1.415 . S
C796 C801 1.425 1_546 S
C796 C803 1.409 1_546 S
C797 H789 0.930 . S
C797 C795 1.419 . S
C797 C798 1.362 . S
C798 H790 0.930 . S
C798 C797 1.362 . S
C798 C801 1.409 1_546 S
C799 H791 0.930 . S
C799 C800 1.355 . S
C799 C801 1.415 . S
C800 C799 1.355 . S
C800 C802 1.419 . S
C801 C796 1.425 1_564 S
C801 C798 1.409 1_564 S
C801 C799 1.415 . S
C802 H792 0.930 . S
C802 C800 1.419 . S
C802 C803 1.362 . S
C803 H793 0.930 . S
C803 C796 1.409 1_564 S
C803 C802 1.362 . S
H804 C810 0.930 . S
H805 C813 0.930 . S
H806 C814 0.930 . S
H807 C815 0.930 . S
H808 C818 0.930 . S
H809 C819 0.930 . S
C810 H804 0.930 . S
C810 C811 1.355 . S
C810 C812 1.415 . S
C811 C810 1.355 . S
C811 C813 1.419 . S
C812 C810 1.415 . S
C812 C817 1.425 . S
C812 C819 1.409 . S
C813 H805 0.930 . S
C813 C811 1.419 . S
C813 C814 1.362 . S
C814 H806 0.930 . S
C814 C813 1.362 . S
C814 C817 1.409 . S
C815 H807 0.930 . S
C815 C816 1.355 . S
C815 C817 1.415 . S
C816 C815 1.355 . S
C816 C818 1.419 . S
C817 C812 1.425 . S
C817 C814 1.409 . S
C817 C815 1.415 . S
C818 H808 0.930 . S
C818 C816 1.419 . S
C818 C819 1.362 . S
C819 H809 0.930 . S
C819 C812 1.409 . S
C819 C818 1.362 . S
H820 C826 0.930 . S
H821 C829 0.930 . S
H822 C830 0.930 . S
H823 C831 0.930 . S
H824 C834 0.930 . S
H825 C835 0.930 . S
C826 H820 0.930 . S
C826 C827 1.355 . S
C826 C828 1.415 . S
C827 C826 1.355 . S
C827 C829 1.419 . S
C828 C826 1.415 . S
C828 C833 1.425 . S
C828 C835 1.409 . S
C829 H821 0.930 . S
C829 C827 1.419 . S
C829 C830 1.362 . S
C830 H822 0.930 . S
C830 C829 1.362 . S
C830 C833 1.409 . S
C831 H823 0.930 . S
C831 C832 1.355 . S
C831 C833 1.415 . S
C832 C831 1.355 . S
C832 C834 1.419 . S
C833 C828 1.425 . S
C833 C830 1.409 . S
C833 C831 1.415 . S
C834 H824 0.930 . S
C834 C832 1.419 . S
C834 C835 1.362 . S
C835 H825 0.930 . S
C835 C828 1.409 . S
C835 C834 1.362 . S
H836 C842 0.930 . S
H837 C845 0.930 . S
H838 C846 0.930 . S
H839 C847 0.930 . S
H840 C850 0.930 . S
H841 C851 0.930 . S
C842 H836 0.930 . S
C842 C843 1.355 . S
C842 C844 1.415 . S
C843 C842 1.355 . S
C843 C845 1.419 . S
C844 C842 1.415 . S
C844 C849 1.425 . S
C844 C851 1.409 . S
C845 H837 0.930 . S
C845 C843 1.419 . S
C845 C846 1.362 . S
C846 H838 0.930 . S
C846 C845 1.362 . S
C846 C849 1.409 . S
C847 H839 0.930 . S
C847 C848 1.355 . S
C847 C849 1.415 . S
C848 C847 1.355 . S
C848 C850 1.419 . S
C849 C844 1.425 . S
C849 C846 1.409 . S
C849 C847 1.415 . S
C850 H840 0.930 . S
C850 C848 1.419 . S
C850 C851 1.362 . S
C851 H841 0.930 . S
C851 C844 1.409 . S
C851 C850 1.362 . S
H852 C858 0.930 . S
H853 C861 0.930 . S
H854 C862 0.930 . S
H855 C863 0.930 . S
H856 C866 0.930 . S
H857 C867 0.930 . S
C858 H852 0.930 . S
C858 C859 1.355 . S
C858 C860 1.415 . S
C859 C858 1.355 . S
C859 C861 1.419 . S
C860 C858 1.415 . S
C860 C865 1.425 . S
C860 C867 1.409 . S
C861 H853 0.930 . S
C861 C859 1.419 . S
C861 C862 1.362 . S
C862 H854 0.930 . S
C862 C861 1.362 . S
C862 C865 1.409 . S
C863 H855 0.930 . S
C863 C864 1.355 . S
C863 C865 1.415 . S
C864 C863 1.355 . S
C864 C866 1.419 . S
C865 C860 1.425 . S
C865 C862 1.409 . S
C865 C863 1.415 . S
C866 H856 0.930 . S
C866 C864 1.419 . S
C866 C867 1.362 . S
C867 H857 0.930 . S
C867 C860 1.409 . S
C867 C866 1.362 . S
H868 C874 0.930 . S
H869 C877 0.930 . S
H870 C878 0.930 . S
H871 C879 0.930 . S
H872 C882 0.930 . S
H873 C883 0.930 . S
C874 H868 0.930 . S
C874 C875 1.355 . S
C874 C876 1.415 . S
C875 C874 1.355 . S
C875 C877 1.419 . S
C876 C874 1.415 . S
C876 C881 1.425 . S
C876 C883 1.409 . S
C877 H869 0.930 . S
C877 C875 1.419 . S
C877 C878 1.362 . S
C878 H870 0.930 . S
C878 C877 1.362 . S
C878 C881 1.409 . S
C879 H871 0.930 . S
C879 C880 1.355 . S
C879 C881 1.415 . S
C880 C879 1.355 . S
C880 C882 1.419 . S
C881 C876 1.425 . S
C881 C878 1.409 . S
C881 C879 1.415 . S
C882 H872 0.930 . S
C882 C880 1.419 . S
C882 C883 1.362 . S
C883 H873 0.930 . S
C883 C876 1.409 . S
C883 C882 1.362 . S
H884 C890 0.930 . S
H885 C893 0.930 . S
H886 C894 0.930 . S
H887 C895 0.930 . S
H888 C898 0.930 . S
H889 C899 0.930 . S
C890 H884 0.930 . S
C890 C891 1.355 . S
C890 C892 1.415 . S
C891 C890 1.355 . S
C891 C893 1.419 . S
C892 C890 1.415 . S
C892 C897 1.425 . S
C892 C899 1.409 . S
C893 H885 0.930 . S
C893 C891 1.419 . S
C893 C894 1.362 . S
C894 H886 0.930 . S
C894 C893 1.362 . S
C894 C897 1.409 . S
C895 H887 0.930 . S
C895 C896 1.355 . S
C895 C897 1.415 . S
C896 C895 1.355 . S
C896 C898 1.419 . S
C897 C892 1.425 . S
C897 C894 1.409 . S
C897 C895 1.415 . S
C898 H888 0.930 . S
C898 C896 1.419 . S
C898 C899 1.362 . S
C899 H889 0.930 . S
C899 C892 1.409 . S
C899 C898 1.362 . S
H900 C906 0.930 . S
H901 C909 0.930 . S
H902 C910 0.930 . S
H903 C911 0.930 . S
H904 C914 0.930 . S
H905 C915 0.930 . S
C906 H900 0.930 . S
C906 C907 1.355 . S
C906 C908 1.415 . S
C907 C906 1.355 . S
C907 C909 1.419 . S
C908 C906 1.415 . S
C908 C913 1.425 . S
C908 C915 1.409 . S
C909 H901 0.930 . S
C909 C907 1.419 . S
C909 C910 1.362 . S
C910 H902 0.930 . S
C910 C909 1.362 . S
C910 C913 1.409 . S
C911 H903 0.930 . S
C911 C912 1.355 . S
C911 C913 1.415 . S
C912 C911 1.355 . S
C912 C914 1.419 . S
C913 C908 1.425 . S
C913 C910 1.409 . S
C913 C911 1.415 . S
C914 H904 0.930 . S
C914 C912 1.419 . S
C914 C915 1.362 . S
C915 H905 0.930 . S
C915 C908 1.409 . S
C915 C914 1.362 . S
H916 C922 0.930 . S
H917 C925 0.930 . S
H918 C926 0.930 . S
H919 C927 0.930 . S
H920 C930 0.930 . S
H921 C931 0.930 . S
C922 H916 0.930 . S
C922 C923 1.355 . S
C922 C924 1.415 1_655 S
C923 C922 1.355 . S
C923 C925 1.419 . S
C924 C922 1.415 1_455 S
C924 C929 1.425 1_455 S
C924 C931 1.409 . S
C925 H917 0.930 . S
C925 C923 1.419 . S
C925 C926 1.362 . S
C926 H918 0.930 . S
C926 C925 1.362 . S
C926 C929 1.409 . S
C927 H919 0.930 . S
C927 C928 1.355 . S
C927 C929 1.415 1_455 S
C928 C927 1.355 . S
C928 C930 1.419 . S
C929 C924 1.425 1_655 S
C929 C926 1.409 . S
C929 C927 1.415 1_655 S
C930 H920 0.930 . S
C930 C928 1.419 . S
C930 C931 1.362 . S
C931 H921 0.930 . S
C931 C924 1.409 . S
C931 C930 1.362 . S
H932 C938 0.930 . S
H933 C941 0.930 . S
H934 C942 0.930 . S
H935 C943 0.930 . S
H936 C946 0.930 . S
H937 C947 0.930 . S
C938 H932 0.930 . S
C938 C939 1.355 . S
C938 C940 1.415 1_554 S
C939 C938 1.355 . S
C939 C941 1.419 . S
C940 C938 1.415 1_556 S
C940 C945 1.425 1_566 S
C940 C947 1.409 . S
C941 H933 0.930 . S
C941 C939 1.419 . S
C941 C942 1.362 1_565 S
C942 H934 0.930 . S
C942 C941 1.362 1_545 S
C942 C945 1.409 . S
C943 H935 0.930 . S
C943 C944 1.355 . S
C943 C945 1.415 1_556 S
C944 C943 1.355 . S
C944 C946 1.419 . S
C945 C940 1.425 1_544 S
C945 C942 1.409 . S
C945 C943 1.415 1_554 S
C946 H936 0.930 . S
C946 C944 1.419 . S
C946 C947 1.362 1_545 S
C947 H937 0.930 . S
C947 C940 1.409 . S
C947 C946 1.362 1_565 S
H948 C954 0.930 . S
H949 C957 0.930 . S
H950 C958 0.930 . S
H951 C959 0.930 . S
H952 C962 0.930 . S
H953 C963 0.930 . S
C954 H948 0.930 . S
C954 C955 1.355 . S
C954 C956 1.415 . S
C955 C954 1.355 . S
C955 C957 1.419 . S
C956 C954 1.415 . S
C956 C961 1.425 . S
C956 C963 1.409 . S
C957 H949 0.930 . S
C957 C955 1.419 . S
C957 C958 1.362 . S
C958 H950 0.930 . S
C958 C957 1.362 . S
C958 C961 1.409 . S
C959 H951 0.930 . S
C959 C960 1.355 . S
C959 C961 1.415 . S
C960 C959 1.355 . S
C960 C962 1.419 . S
C961 C956 1.425 . S
C961 C958 1.409 . S
C961 C959 1.415 . S
C962 H952 0.930 . S
C962 C960 1.419 . S
C962 C963 1.362 . S
C963 H953 0.930 . S
C963 C956 1.409 . S
C963 C962 1.362 . S
H964 C970 0.930 . S
H965 C973 0.930 . S
H966 C974 0.930 . S
H967 C975 0.930 . S
H968 C978 0.930 . S
H969 C979 0.930 . S
C970 H964 0.930 . S
C970 C971 1.355 . S
C970 C972 1.415 1_455 S
C971 C970 1.355 . S
C971 C973 1.419 . S
C972 C970 1.415 1_655 S
C972 C977 1.425 1_655 S
C972 C979 1.409 . S
C973 H965 0.930 . S
C973 C971 1.419 . S
C973 C974 1.362 . S
C974 H966 0.930 . S
C974 C973 1.362 . S
C974 C977 1.409 . S
C975 H967 0.930 . S
C975 C976 1.355 . S
C975 C977 1.415 1_655 S
C976 C975 1.355 . S
C976 C978 1.419 . S
C977 C972 1.425 1_455 S
C977 C974 1.409 . S
C977 C975 1.415 1_455 S
C978 H968 0.930 . S
C978 C976 1.419 . S
C978 C979 1.362 . S
C979 H969 0.930 . S
C979 C972 1.409 . S
C979 C978 1.362 . S
H980 C986 0.930 1_545 S
H981 C989 0.930 . S
H982 C990 0.930 . S
H983 C991 0.930 1_565 S
H984 C994 0.930 . S
H985 C995 0.930 . S
C986 H980 0.930 1_565 S
C986 C987 1.355 . S
C986 C988 1.415 1_565 S
C987 C986 1.355 . S
C987 C989 1.419 . S
C988 C986 1.415 1_545 S
C988 C993 1.425 1_545 S
C988 C995 1.409 . S
C989 H981 0.930 . S
C989 C987 1.419 . S
C989 C990 1.362 . S
C990 H982 0.930 . S
C990 C989 1.362 . S
C990 C993 1.409 . S
C991 H983 0.930 1_545 S
C991 C992 1.355 . S
C991 C993 1.415 1_545 S
C992 C991 1.355 . S
C992 C994 1.419 . S
C993 C988 1.425 1_565 S
C993 C990 1.409 . S
C993 C991 1.415 1_565 S
C994 H984 0.930 . S
C994 C992 1.419 . S
C994 C995 1.362 . S
C995 H985 0.930 . S
C995 C988 1.409 . S
C995 C994 1.362 . S
H996 C1002 0.930 . S
H997 C1005 0.930 . S
H998 C1006 0.930 . S
H999 C1007 0.930 . S
H1000 C1010 0.930 . S
H1001 C1011 0.930 . S
C1002 H996 0.930 . S
C1002 C1003 1.355 . S
C1002 C1004 1.415 . S
C1003 C1002 1.355 . S
C1003 C1005 1.419 . S
C1004 C1002 1.415 . S
C1004 C1009 1.425 . S
C1004 C1011 1.409 . S
C1005 H997 0.930 . S
C1005 C1003 1.419 . S
C1005 C1006 1.362 . S
C1006 H998 0.930 . S
C1006 C1005 1.362 . S
C1006 C1009 1.409 . S
C1007 H999 0.930 . S
C1007 C1008 1.355 . S
C1007 C1009 1.415 . S
C1008 C1007 1.355 . S
C1008 C1010 1.419 . S
C1009 C1004 1.425 . S
C1009 C1006 1.409 . S
C1009 C1007 1.415 . S
C1010 H1000 0.930 . S
C1010 C1008 1.419 . S
C1010 C1011 1.362 . S
C1011 H1001 0.930 . S
C1011 C1004 1.409 . S
C1011 C1010 1.362 . S
H1012 C1018 0.930 . S
H1013 C1021 0.930 . S
H1014 C1022 0.930 . S
H1015 C1023 0.930 . S
H1016 C1026 0.930 . S
H1017 C1027 0.930 . S
C1018 H1012 0.930 . S
C1018 C1019 1.355 . S
C1018 C1020 1.415 . S
C1019 C1018 1.355 . S
C1019 C1021 1.419 . S
C1020 C1018 1.415 . S
C1020 C1025 1.425 . S
C1020 C1027 1.409 . S
C1021 H1013 0.930 . S
C1021 C1019 1.419 . S
C1021 C1022 1.362 . S
C1022 H1014 0.930 . S
C1022 C1021 1.362 . S
C1022 C1025 1.409 . S
C1023 H1015 0.930 . S
C1023 C1024 1.355 . S
C1023 C1025 1.415 . S
C1024 C1023 1.355 . S
C1024 C1026 1.419 . S
C1025 C1020 1.425 . S
C1025 C1022 1.409 . S
C1025 C1023 1.415 . S
C1026 H1016 0.930 . S
C1026 C1024 1.419 . S
C1026 C1027 1.362 . S
C1027 H1017 0.930 . S
C1027 C1020 1.409 . S
C1027 C1026 1.362 . S
H1028 C1034 0.930 . S
H1029 C1037 0.930 . S
H1030 C1038 0.940 . S
H1031 C1039 0.930 . S
H1032 C1042 0.930 . S
H1033 C1043 0.930 . S
C1034 H1028 0.930 . S
C1034 C1035 1.355 . S
C1034 C1036 1.415 . S
C1035 C1034 1.355 . S
C1035 C1037 1.419 1_556 S
C1036 C1034 1.415 . S
C1036 C1041 1.425 . S
C1036 C1043 1.409 . S
C1037 H1029 0.930 . S
C1037 C1035 1.419 1_554 S
C1037 C1038 1.370 . S
C1038 H1030 0.940 . S
C1038 C1037 1.370 . S
C1038 C1041 1.392 1_554 S
C1039 H1031 0.930 . S
C1039 C1040 1.355 . S
C1039 C1041 1.415 . S
C1040 C1039 1.355 . S
C1040 C1042 1.419 . S
C1041 C1036 1.425 . S
C1041 C1038 1.392 1_556 S
C1041 C1039 1.415 . S
C1042 H1032 0.930 . S
C1042 C1040 1.419 . S
C1042 C1043 1.362 . S
C1043 H1033 0.930 . S
C1043 C1036 1.409 . S
C1043 C1042 1.362 . S
H1044 C1050 0.930 . S
H1045 C1053 0.930 . S
H1046 C1054 0.930 . S
H1047 C1055 0.930 . S
H1048 C1058 0.930 . S
H1049 C1059 0.930 . S
C1050 H1044 0.930 . S
C1050 C1051 1.355 . S
C1050 C1052 1.415 . S
C1051 C1050 1.355 . S
C1051 C1053 1.419 . S
C1052 C1050 1.415 . S
C1052 C1057 1.425 . S
C1052 C1059 1.409 . S
C1053 H1045 0.930 . S
C1053 C1051 1.419 . S
C1053 C1054 1.362 . S
C1054 H1046 0.930 . S
C1054 C1053 1.362 . S
C1054 C1057 1.409 . S
C1055 H1047 0.930 . S
C1055 C1056 1.355 . S
C1055 C1057 1.415 . S
C1056 C1055 1.355 . S
C1056 C1058 1.419 . S
C1057 C1052 1.425 . S
C1057 C1054 1.409 . S
C1057 C1055 1.415 . S
C1058 H1048 0.930 . S
C1058 C1056 1.419 . S
C1058 C1059 1.362 . S
C1059 H1049 0.930 . S
C1059 C1052 1.409 . S
C1059 C1058 1.362 . S
H1060 C1066 0.930 . S
H1061 C1069 0.930 . S
H1062 C1070 0.930 . S
H1063 C1071 0.930 . S
H1064 C1074 0.930 . S
H1065 C1075 0.930 . S
C1066 H1060 0.930 . S
C1066 C1067 1.355 . S
C1066 C1068 1.415 . S
C1067 C1066 1.355 . S
C1067 C1069 1.419 . S
C1068 C1066 1.415 . S
C1068 C1073 1.425 . S
C1068 C1075 1.409 . S
C1069 H1061 0.930 . S
C1069 C1067 1.419 . S
C1069 C1070 1.362 . S
C1070 H1062 0.930 . S
C1070 C1069 1.362 . S
C1070 C1073 1.409 . S
C1071 H1063 0.930 . S
C1071 C1072 1.355 . S
C1071 C1073 1.415 . S
C1072 C1071 1.355 . S
C1072 C1074 1.419 . S
C1073 C1068 1.425 . S
C1073 C1070 1.409 . S
C1073 C1071 1.415 . S
C1074 H1064 0.930 . S
C1074 C1072 1.419 . S
C1074 C1075 1.362 . S
C1075 H1065 0.930 . S
C1075 C1068 1.409 . S
C1075 C1074 1.362 . S
H1076 C1082 0.930 . S
H1077 C1085 0.930 . S
H1078 C1086 0.930 . S
H1079 C1087 0.930 . S
H1080 C1090 0.930 . S
H1081 C1091 0.930 . S
C1082 H1076 0.930 . S
C1082 C1083 1.355 . S
C1082 C1084 1.415 . S
C1083 C1082 1.355 . S
C1083 C1085 1.419 . S
C1084 C1082 1.415 . S
C1084 C1089 1.425 . S
C1084 C1091 1.409 . S
C1085 H1077 0.930 . S
C1085 C1083 1.419 . S
C1085 C1086 1.362 . S
C1086 H1078 0.930 . S
C1086 C1085 1.362 . S
C1086 C1089 1.409 . S
C1087 H1079 0.930 . S
C1087 C1088 1.355 . S
C1087 C1089 1.415 . S
C1088 C1087 1.355 . S
C1088 C1090 1.419 . S
C1089 C1084 1.425 . S
C1089 C1086 1.409 . S
C1089 C1087 1.415 . S
C1090 H1080 0.930 . S
C1090 C1088 1.419 . S
C1090 C1091 1.362 . S
C1091 H1081 0.930 . S
C1091 C1084 1.409 . S
C1091 C1090 1.362 . S
C715 C583 1.962 . S
C720 C52 1.961 . S
C731 C111 1.978 . S
C736 C642 1.976 . S
C747 C701 1.981 . S
C752 C170 1.981 . S
C763 C406 1.975 . S
C768 C229 1.973 . S
C779 C465 1.960 . S
C784 C288 1.961 . S
C795 C524 1.967 . S
C800 C347 1.969 . S
C811 C387 1.731 . S
C816 C33 1.690 . S
C827 C92 1.682 . S
C832 C446 1.716 . S
C843 C505 1.695 . S
C848 C151 1.736 . S
C859 C210 1.741 . S
C864 C564 1.700 . S
C875 C623 1.688 . S
C880 C269 1.727 . S
C891 C328 1.716 . S
C896 C682 1.682 . S
C907 C534 1.101 . S
C912 C3 1.165 . S
C923 C593 1.110 . S
C928 C62 1.169 . S
C939 C652 1.162 . S
C944 C121 1.100 . S
C955 C180 1.149 . S
C960 C357 1.146 . S
C971 C416 1.114 . S
C976 C239 1.169 . S
C987 C298 1.125 . S
C992 C475 1.164 . S
C1003 C5 1.313 . S
C1008 C477 1.315 . S
C1019 C536 1.318 . S
C1024 C64 1.316 . S
C1035 C595 1.320 1_556 S
C1040 C123 1.319 . S
C1051 C654 1.290 . S
C1056 C182 1.288 1_554 S
C1067 C359 1.282 . S
C1072 C241 1.283 . S
C1083 C418 1.312 . S
C1088 C300 1.314 . S
