# Generated by pormake.
# Topology wkd, (5)-cn, num edge types: 1
# Building blocks:
#     Node 0, Type 0, BuildingBlock: XOMCOT_clean_sbu_0, # of connection points: 5
#     Node 1, Type 0, BuildingBlock: XOMCOT_clean_sbu_0, # of connection points: 5
#     Node 2, Type 0, BuildingBlock: XOMCOT_clean_sbu_0, # of connection points: 5
#     Node 3, Type 0, BuildingBlock: XOMCOT_clean_sbu_0, # of connection points: 5
#     Node 4, Type 0, BuildingBlock: XOMCOT_clean_sbu_0, # of connection points: 5
#     Node 5, Type 0, BuildingBlock: XOMCOT_clean_sbu_0, # of connection points: 5
#     Node 6, Type 0, BuildingBlock: XOMCOT_clean_sbu_0, # of connection points: 5
#     Node 7, Type 0, BuildingBlock: XOMCOT_clean_sbu_0, # of connection points: 5
#     Node 8, Type 0, BuildingBlock: XOMCOT_clean_sbu_0, # of connection points: 5
#     Node 9, Type 0, BuildingBlock: XOMCOT_clean_sbu_0, # of connection points: 5
#     Node 10, Type 0, BuildingBlock: XOMCOT_clean_sbu_0, # of connection points: 5
#     Node 11, Type 0, BuildingBlock: XOMCOT_clean_sbu_0, # of connection points: 5
#     Edge 12, Type (0, 0), None
#     Edge 13, Type (0, 0), None
#     Edge 14, Type (0, 0), None
#     Edge 15, Type (0, 0), None
#     Edge 16, Type (0, 0), None
#     Edge 17, Type (0, 0), None
#     Edge 18, Type (0, 0), None
#     Edge 19, Type (0, 0), None
#     Edge 20, Type (0, 0), None
#     Edge 21, Type (0, 0), None
#     Edge 22, Type (0, 0), None
#     Edge 23, Type (0, 0), None
#     Edge 24, Type (0, 0), None
#     Edge 25, Type (0, 0), None
#     Edge 26, Type (0, 0), None
#     Edge 27, Type (0, 0), None
#     Edge 28, Type (0, 0), None
#     Edge 29, Type (0, 0), None
#     Edge 30, Type (0, 0), None
#     Edge 31, Type (0, 0), None
#     Edge 32, Type (0, 0), None
#     Edge 33, Type (0, 0), None
#     Edge 34, Type (0, 0), None
#     Edge 35, Type (0, 0), None
#     Edge 36, Type (0, 0), None
#     Edge 37, Type (0, 0), None
#     Edge 38, Type (0, 0), None
#     Edge 39, Type (0, 0), None
#     Edge 40, Type (0, 0), None
#     Edge 41, Type (0, 0), None
# Relax obj value: 0.152
# Max RMSD: 0.196
# Mean RMSD: 0.191
data_MOF--net-wkd--node1-XOMCOT_clean_sbu_0--edge1-none
_symmetry_space_group_name_H-M    P1
_symmetry_Int_Tables_number       1
_symmetry_cell_setting            triclinic
loop_
_symmetry_equiv_pos_as_xyz
'x, y, z'
_cell_length_a     12.863584
_cell_length_b     12.862232
_cell_length_c     53.977363
_cell_angle_alpha  90.0
_cell_angle_beta   89.999998
_cell_angle_gamma 119.81197
loop_
_atom_site_label
_atom_site_type_symbol
_atom_site_fract_x
_atom_site_fract_y
_atom_site_fract_z
_atom_type_partial_charge
Co0 Co 0.87738 0.28211 0.07537 0.0
C1 C 0.89055 0.48609 0.0458 0.0
C2 C 0.71452 0.33225 0.04901 0.0
C3 C 0.70351 0.42187 0.03823 0.0
N4 N 0.83144 0.37004 0.05313 0.0
N5 N 0.81336 0.51836 0.03637 0.0
H6 H 0.98494 0.54706 0.04897 0.0
H7 H 0.6411 0.24695 0.05499 0.0
C8 C 0.7301 0.10196 0.03476 0.0
O9 O 0.75126 0.18451 1.01822 0.0
N10 N 0.91218 0.18549 0.09854 0.0
C11 C 0.92623 0.19651 0.12341 0.0
C12 C 0.93665 0.10154 0.13258 0.0
C13 C 0.9146 0.08365 0.093 0.0
N14 N 0.92912 1.03098 0.11342 0.0
C15 C 0.12067 0.34441 0.06815 0.0
C16 C 0.13296 0.39866 1.01857 0.0
C17 C 0.23879 0.44637 0.0323 0.0
C18 C 0.23263 0.41097 0.05688 0.0
C19 C 1.02304 0.33406 1.03051 0.0
N20 N 1.01687 0.31231 0.05538 0.0
H21 H 0.1195 0.33377 0.08799 0.0
H22 H 0.94673 0.31979 1.02017 0.0
H23 H 0.92651 0.2669 0.13439 0.0
H24 H 0.90292 0.04735 0.07448 0.0
O25 O 0.96196 0.42366 0.09506 0.0
O26 O 0.76855 0.29472 0.09951 0.0
O27 O 0.76723 0.12707 0.05724 0.0
C28 C 0.86133 0.39823 0.10535 0.0
H29 H 0.62043 0.41946 0.03355 0.0
H30 H 0.94739 0.08516 0.15181 0.0
H31 H 0.1348 0.42846 0.99972 0.0
H32 H 0.31271 0.44942 0.06822 0.0
Co33 Co 0.63546 0.86148 0.24229 0.0
C34 C 0.44528 0.87541 0.21258 0.0
C35 C 0.42384 0.69926 0.21575 0.0
C36 C 0.32358 0.68847 0.20488 0.0
N37 N 0.50231 0.81612 0.21996 0.0
N38 N 0.33646 0.79839 0.20304 0.0
H39 H 0.47815 0.96978 0.2158 0.0
H40 H 0.43593 0.62572 0.22174 0.0
C41 C 0.66981 0.71522 0.20156 0.0
O42 O 0.60794 0.73605 0.18505 0.0
N43 N 0.76625 0.89569 0.26553 0.0
C44 C 0.76882 0.90904 0.29042 0.0
C45 C 0.87401 0.9192 0.29961 0.0
C46 C 0.87057 0.89828 0.26 0.0
N47 N 0.93737 0.91221 0.28045 0.0
C48 C 0.81527 0.10492 0.23534 0.0
C49 C 0.77675 0.11791 0.18559 0.0
C50 C 0.83405 0.22362 0.19936 0.0
C51 C 0.86152 0.21703 0.22407 0.0
C52 C 0.73031 1.00783 0.19755 0.0
N53 N 0.74447 1.00137 0.22247 0.0
H54 H 0.82354 0.10343 0.25521 0.0
H55 H 0.66882 0.93181 0.18713 0.0
H56 H 0.69853 0.90898 0.30139 0.0
H57 H 0.89555 0.88714 0.24147 0.0
O58 O 0.57764 0.94556 0.26203 0.0
O59 O 0.51419 0.75202 0.26628 0.0
O60 O 0.68132 0.75189 0.22407 0.0
C61 C 0.50282 0.84464 0.27221 0.0
H62 H 0.24344 0.60546 0.20013 0.0
H63 H 0.9008 0.92941 0.31885 0.0
H64 H 0.7501 0.12012 0.16665 0.0
H65 H 0.90241 0.29703 0.23543 0.0
Co66 Co 0.81377 0.61653 0.40897 0.0
C67 C 0.6099 0.42672 0.37941 0.0
C68 C 0.76429 0.40448 0.3824 0.0
C69 C 0.67471 0.30417 0.37166 0.0
N70 N 0.7261 0.48343 0.38664 0.0
N71 N 0.57786 0.31755 0.36995 0.0
H72 H 0.54866 0.46006 0.38271 0.0
H73 H 0.84981 0.4162 0.38831 0.0
C74 C 0.99438 0.65029 0.3683 0.0
O75 O 0.91218 0.58856 0.35175 0.0
N76 N 0.91032 0.7474 0.43217 0.0
C77 C 0.89987 0.75039 0.45705 0.0
C78 C 0.99477 0.85552 0.46617 0.0
C79 C 1.01174 0.85144 0.42657 0.0
N80 N 0.06474 0.91846 0.44697 0.0
C81 C 0.75042 0.79717 0.40193 0.0
C82 C 0.69831 0.75763 0.35222 0.0
C83 C 0.6498 0.81519 0.36598 0.0
C84 C 0.68415 0.84324 0.39065 0.0
C85 C 0.76241 0.71146 0.36419 0.0
N86 N 0.78321 0.72599 0.3891 0.0
H87 H 0.7604 0.8058 0.42179 0.0
H88 H 0.77714 0.64976 0.3538 0.0
H89 H 0.82991 0.6804 0.46806 0.0
H90 H 1.04751 0.87605 0.40801 0.0
O91 O 0.67211 0.55955 0.42869 0.0
O92 O 0.80135 0.49474 0.43301 0.0
O93 O 0.96889 0.66152 0.3908 0.0
C94 C 0.6976 0.48399 0.43886 0.0
H95 H 0.67742 0.22368 0.36693 0.0
H96 H 1.0115 0.88254 0.4854 0.0
H97 H 0.66933 0.73065 0.3333 0.0
H98 H 0.64506 0.88442 0.40199 0.0
Co99 Co 0.23285 0.79447 0.57537 0.0
C100 C 0.21967 0.59048 0.5458 0.0
C101 C 0.3957 0.74432 0.54901 0.0
C102 C 0.40671 0.65471 0.53823 0.0
N103 N 0.27878 0.70654 0.55313 0.0
N104 N 0.29686 0.55821 0.53637 0.0
H105 H 0.12528 0.52951 0.54897 0.0
H106 H 0.46912 0.82962 0.55499 0.0
C107 C 0.38012 0.97462 0.53476 0.0
O108 O 0.35896 0.89206 0.51822 0.0
N109 N 0.19805 0.89108 0.59854 0.0
C110 C 0.18399 0.88007 0.62341 0.0
C111 C 0.17357 0.97503 0.63258 0.0
C112 C 0.19562 0.99292 0.593 0.0
N113 N 0.1811 0.04559 0.61342 0.0
C114 C 0.98955 0.73216 0.56815 0.0
C115 C 0.97726 0.67791 0.51857 0.0
C116 C 0.87144 0.6302 0.5323 0.0
C117 C 0.87759 0.66561 0.55688 0.0
C118 C 0.08719 0.74252 0.53051 0.0
N119 N 0.09336 0.76427 0.55538 0.0
H120 H 0.99073 0.74281 0.58799 0.0
H121 H 0.1635 0.75679 0.52017 0.0
H122 H 0.18372 0.80967 0.63439 0.0
H123 H 0.2073 1.02922 0.57448 0.0
O124 O 0.14826 0.65292 0.59506 0.0
O125 O 0.34167 0.78186 0.59951 0.0
O126 O 0.34299 0.9495 0.55724 0.0
C127 C 0.24889 0.67834 0.60535 0.0
H128 H 0.48979 0.65711 0.53355 0.0
H129 H 0.16283 0.99142 0.65181 0.0
H130 H 0.97543 0.64811 0.49972 0.0
H131 H 0.79751 0.62715 0.56822 0.0
Co132 Co 0.47477 0.21509 0.74229 0.0
C133 C 0.66494 0.20116 0.71258 0.0
C134 C 0.68639 0.37731 0.71575 0.0
C135 C 0.78664 0.38811 0.70488 0.0
N136 N 0.60791 0.26045 0.71996 0.0
N137 N 0.77377 0.27819 0.70304 0.0
H138 H 0.63207 0.1068 0.7158 0.0
H139 H 0.67429 0.45086 0.72174 0.0
C140 C 0.44041 0.36135 0.70156 0.0
O141 O 0.50229 0.34052 0.68505 0.0
N142 N 0.34398 0.18089 0.76553 0.0
C143 C 0.3414 0.16754 0.79042 0.0
C144 C 0.23621 0.15737 0.79961 0.0
C145 C 0.23965 0.17829 0.76 0.0
N146 N 0.17286 0.16436 0.78045 0.0
C147 C 0.29495 0.97165 0.73534 0.0
C148 C 0.33348 0.95867 0.68559 0.0
C149 C 0.27617 0.85296 0.69936 0.0
C150 C 0.24871 0.85954 0.72407 0.0
C151 C 0.37991 0.06874 0.69755 0.0
N152 N 0.36575 0.07521 0.72247 0.0
H153 H 0.28668 0.97314 0.75521 0.0
H154 H 0.44141 0.14477 0.68713 0.0
H155 H 0.4117 0.16759 0.80139 0.0
H156 H 0.21468 0.18944 0.74147 0.0
O157 O 0.53259 0.13101 0.76203 0.0
O158 O 0.59603 0.32455 0.76628 0.0
O159 O 0.42891 0.32469 0.72407 0.0
C160 C 0.60741 0.23193 0.77221 0.0
H161 H 0.86679 0.47111 0.70013 0.0
H162 H 0.20942 0.14716 0.81885 0.0
H163 H 0.36012 0.95646 0.66665 0.0
H164 H 0.20781 0.77955 0.73543 0.0
Co165 Co 0.29646 0.46005 0.90897 0.0
C166 C 0.50033 0.64985 0.87941 0.0
C167 C 0.34594 0.67209 0.8824 0.0
C168 C 0.43551 0.7724 0.87166 0.0
N169 N 0.38412 0.59314 0.88664 0.0
N170 N 0.53236 0.75902 0.86995 0.0
H171 H 0.56157 0.61652 0.88271 0.0
H172 H 0.26041 0.66038 0.88831 0.0
C173 C 0.11585 0.42628 0.8683 0.0
O174 O 0.19804 0.48802 0.85175 0.0
N175 N 0.1999 0.32917 0.93217 0.0
C176 C 0.21035 0.32618 0.95705 0.0
C177 C 0.11546 0.22105 0.96617 0.0
C178 C 0.09848 0.22513 0.92657 0.0
N179 N 1.04548 0.15811 0.94697 0.0
C180 C 0.35981 0.2794 0.90193 0.0
C181 C 0.41191 0.31894 0.85222 0.0
C182 C 0.46042 0.26138 0.86598 0.0
C183 C 0.42607 0.23333 0.89065 0.0
C184 C 0.34781 0.36512 0.86419 0.0
N185 N 0.32702 0.35058 0.8891 0.0
H186 H 0.34982 0.27078 0.92179 0.0
H187 H 0.33308 0.42681 0.8538 0.0
H188 H 0.28031 0.39617 0.96806 0.0
H189 H 0.06271 0.20052 0.90801 0.0
O190 O 0.43812 0.51703 0.92869 0.0
O191 O 0.30887 0.58183 0.93301 0.0
O192 O 0.14133 0.41505 0.8908 0.0
C193 C 0.41263 0.59258 0.93886 0.0
H194 H 0.43281 0.85289 0.86693 0.0
H195 H 0.09872 0.19403 0.9854 0.0
H196 H 0.44089 0.34593 0.8333 0.0
H197 H 0.46516 0.19215 0.90199 0.0
Co198 Co 0.81145 0.21615 0.81977 0.0
C199 C 0.60743 0.203 0.84931 0.0
C200 C 0.76133 0.37902 0.84613 0.0
C201 C 0.67167 0.39008 0.85687 0.0
N202 N 0.72352 0.26208 0.84201 0.0
N203 N 0.57513 0.28025 0.85869 0.0
H204 H 0.54646 0.10859 0.84614 0.0
H205 H 0.84667 0.45243 0.84017 0.0
C206 C 0.99156 0.36341 0.86038 0.0
O207 O 0.90899 0.3421 0.87693 0.0
N208 N 0.9081 0.18138 0.7966 0.0
C209 C 0.89709 0.16732 0.77173 0.0
C210 C 0.99205 0.15691 0.76256 0.0
C211 C 1.00993 0.17897 0.80215 0.0
N212 N 0.06262 0.16449 0.78172 0.0
C213 C 0.74926 0.97285 0.82698 0.0
C214 C 0.69472 0.96043 0.87656 0.0
C215 C 0.64716 0.85466 0.86281 0.0
C216 C 0.68268 0.86085 0.83823 0.0
C217 C 0.75935 0.0704 0.86463 0.0
N218 N 0.78125 0.07663 0.83976 0.0
H219 H 0.76 0.97407 0.80715 0.0
H220 H 0.77349 0.14668 0.87497 0.0
H221 H 0.82668 0.16701 0.76076 0.0
H222 H 1.0462 0.19061 0.82067 0.0
O223 O 0.66992 0.13154 0.80008 0.0
O224 O 0.79882 0.32497 0.79563 0.0
O225 O 0.96646 0.32632 0.8379 0.0
C226 C 0.69532 0.23217 0.7898 0.0
H227 H 0.6741 0.47319 0.86155 0.0
H228 H 1.00841 0.14612 0.74333 0.0
H229 H 0.66479 0.95852 0.8954 0.0
H230 H 0.6443 0.78079 0.82689 0.0
Co231 Co 0.6335 0.79708 0.98616 0.0
C232 C 0.44363 0.59316 1.0157 0.0
C233 C 0.4215 0.74764 1.01273 0.0
C234 C 0.3211 0.65803 1.02343 0.0
N235 N 0.50042 0.70941 1.00849 0.0
N236 N 0.33439 0.56112 1.02512 0.0
H237 H 0.47695 0.5319 1.01241 0.0
H238 H 0.4333 0.83323 1.00684 0.0
C239 C 0.66729 0.97766 1.02685 0.0
O240 O 0.60566 0.89543 0.0434 0.0
N241 N 0.76436 0.89366 0.96296 0.0
C242 C 0.76733 0.8832 0.93808 0.0
C243 C 0.87245 0.9781 0.92896 0.0
C244 C 0.86839 0.99509 0.96856 0.0
N245 N 0.93538 0.04811 0.94816 0.0
C246 C 0.81419 0.7338 0.99319 0.0
C247 C 0.77462 0.6815 0.04289 0.0
C248 C 0.83225 0.63313 1.02912 0.0
C249 C 0.86031 0.66754 1.00446 0.0
C250 C 0.72838 0.74558 0.03094 0.0
N251 N 0.74296 0.76649 1.00603 0.0
H252 H 0.82282 0.74383 0.97334 0.0
H253 H 0.66661 0.76018 0.04133 0.0
H254 H 0.69735 0.81322 0.92707 0.0
H255 H 0.89303 1.03084 0.98712 0.0
O256 O 0.57652 0.65542 0.96644 0.0
O257 O 0.51173 0.78469 0.96212 0.0
O258 O 0.6785 0.95221 1.00434 0.0
C259 C 0.50098 0.68093 0.95627 0.0
H260 H 0.24064 0.66078 1.02816 0.0
H261 H 0.89948 0.99481 0.90973 0.0
H262 H 0.74762 0.65243 0.06181 0.0
H263 H 0.90152 0.62851 0.99311 0.0
Co264 Co 0.87838 0.61874 0.15287 0.0
C265 C 0.89225 0.42844 0.18255 0.0
C266 C 0.71614 0.40709 0.17939 0.0
C267 C 0.70528 0.30672 0.19022 0.0
N268 N 0.83301 0.48555 0.17519 0.0
N269 N 0.81516 0.31951 0.19204 0.0
H270 H 0.98661 0.46132 0.17934 0.0
H271 H 0.64263 0.41926 0.17341 0.0
C272 C 0.73215 0.65305 0.1936 0.0
O273 O 0.75316 0.59131 0.21011 0.0
N274 N 0.91257 0.74954 0.12962 0.0
C275 C 0.92595 0.75211 0.10474 0.0
C276 C 0.93611 0.8573 0.09554 0.0
C277 C 0.91514 0.85387 0.13515 0.0
N278 N 0.92905 0.92064 0.1147 0.0
C279 C 0.12178 0.79865 0.15981 0.0
C280 C 0.13489 0.75989 0.20955 0.0
C281 C 0.24053 0.81731 0.19576 0.0
C282 C 0.23391 0.84489 0.17107 0.0
C283 C 1.0248 0.71346 0.1976 0.0
N284 N 1.01827 0.72775 0.17268 0.0
H285 H 0.12025 0.807 0.13995 0.0
H286 H 0.94882 0.65187 0.20802 0.0
H287 H 0.92595 0.68183 0.09377 0.0
H288 H 0.90402 0.87886 0.15368 0.0
O289 O 0.96246 0.56093 0.13312 0.0
O290 O 0.76894 0.49748 0.12887 0.0
O291 O 0.76878 0.66457 0.17109 0.0
C292 C 0.86156 0.48612 0.12294 0.0
H293 H 0.62227 0.22658 0.19497 0.0
H294 H 0.94639 0.88411 0.0763 0.0
H295 H 0.13718 0.73316 0.22848 0.0
H296 H 0.31387 0.88586 0.1597 0.0
Co297 Co 0.29877 0.86043 0.31977 0.0
C298 C 0.5028 0.87357 0.34931 0.0
C299 C 0.3489 0.69755 0.34613 0.0
C300 C 0.43856 0.68649 0.35687 0.0
N301 N 0.38671 0.81449 0.34201 0.0
N302 N 0.5351 0.79633 0.35869 0.0
H303 H 0.56376 0.96798 0.34614 0.0
H304 H 0.26355 0.62414 0.34017 0.0
C305 C 0.11867 0.71317 0.36038 0.0
O306 O 0.20123 0.73448 0.37693 0.0
N307 N 0.20213 0.89519 0.2966 0.0
C308 C 0.21314 0.90925 0.27173 0.0
C309 C 0.11817 0.91966 0.26256 0.0
C310 C 0.10029 0.8976 0.30215 0.0
N311 N 1.0476 0.91209 0.28172 0.0
C312 C 0.36096 0.10372 0.32698 0.0
C313 C 0.4155 0.11614 0.37656 0.0
C314 C 0.46306 0.22191 0.36281 0.0
C315 C 0.42754 0.21573 0.33823 0.0
C316 C 0.35088 1.00617 0.36463 0.0
N317 N 0.32897 0.99994 0.33976 0.0
H318 H 0.35022 0.1025 0.30715 0.0
H319 H 0.33673 0.92989 0.37497 0.0
H320 H 0.28354 0.90956 0.26076 0.0
H321 H 0.06402 0.88597 0.32067 0.0
O322 O 0.4403 0.94504 0.30008 0.0
O323 O 0.31141 0.7516 0.29563 0.0
O324 O 0.14377 0.75025 0.3379 0.0
C325 C 0.4149 0.8444 0.2898 0.0
H326 H 0.43613 0.60338 0.36155 0.0
H327 H 0.10181 0.93045 0.24333 0.0
H328 H 0.44543 0.11805 0.3954 0.0
H329 H 0.46592 0.29579 0.32689 0.0
Co330 Co 0.47672 0.27949 0.48616 0.0
C331 C 0.6666 0.48342 0.5157 0.0
C332 C 0.68872 0.32893 0.51273 0.0
C333 C 0.78912 0.41854 0.52343 0.0
N334 N 0.60981 0.36716 0.50849 0.0
N335 N 0.77584 0.51546 0.52512 0.0
H336 H 0.63327 0.54467 0.51241 0.0
H337 H 0.67692 0.24335 0.50684 0.0
C338 C 0.44293 0.09891 0.52685 0.0
O339 O 0.50456 0.18115 0.5434 0.0
N340 N 0.34587 0.18291 0.46296 0.0
C341 C 0.34289 0.19337 0.43808 0.0
C342 C 0.23777 0.09847 0.42896 0.0
C343 C 0.24184 0.08149 0.46856 0.0
N344 N 0.17485 1.02847 0.44816 0.0
C345 C 0.29603 0.34278 0.49319 0.0
C346 C 0.3356 0.39507 0.54289 0.0
C347 C 0.27797 0.44344 0.52912 0.0
C348 C 0.24992 0.40903 0.50446 0.0
C349 C 0.38184 0.331 0.53094 0.0
N350 N 0.36727 0.31008 0.50603 0.0
H351 H 0.2874 0.33274 0.47334 0.0
H352 H 0.44361 0.31639 0.54133 0.0
H353 H 0.41287 0.26335 0.42707 0.0
H354 H 0.21719 0.04573 0.48712 0.0
O355 O 0.5337 0.42115 0.46644 0.0
O356 O 0.5985 0.29188 0.46212 0.0
O357 O 0.43172 0.12437 0.50434 0.0
C358 C 0.60925 0.39565 0.45627 0.0
H359 H 0.86958 0.41579 0.52816 0.0
H360 H 0.21074 0.08176 0.40973 0.0
H361 H 0.3626 0.42414 0.56181 0.0
H362 H 0.2087 0.44807 0.49311 0.0
Co363 Co 0.23184 0.45784 0.65287 0.0
C364 C 0.21798 0.64814 0.68255 0.0
C365 C 0.39408 0.66949 0.67938 0.0
C366 C 0.40494 0.76985 0.69022 0.0
N367 N 0.27722 0.59102 0.67519 0.0
N368 N 0.29506 0.75706 0.69204 0.0
H369 H 0.12361 0.61526 0.67934 0.0
H370 H 0.46759 0.65731 0.67341 0.0
C371 C 0.37808 0.42353 0.6936 0.0
O372 O 0.35707 0.48527 0.71011 0.0
N373 N 0.19765 0.32704 0.62962 0.0
C374 C 0.18427 0.32446 0.60474 0.0
C375 C 0.17411 0.21927 0.59554 0.0
C376 C 0.19508 0.22271 0.63515 0.0
N377 N 0.18117 0.15593 0.6147 0.0
C378 C 0.98845 0.27793 0.65981 0.0
C379 C 0.97533 0.31668 0.70955 0.0
C380 C 0.8697 0.25926 0.69576 0.0
C381 C 0.87631 0.23169 0.67107 0.0
C382 C 0.08542 0.36311 0.6976 0.0
N383 N 0.09196 0.34882 0.67268 0.0
H384 H 0.98997 0.26958 0.63995 0.0
H385 H 0.1614 0.42471 0.70802 0.0
H386 H 0.18428 0.39475 0.59377 0.0
H387 H 0.20621 0.19771 0.65368 0.0
O388 O 0.14776 0.51564 0.63312 0.0
O389 O 0.34128 0.57909 0.62887 0.0
O390 O 0.34145 0.41201 0.67109 0.0
C391 C 0.24866 0.59045 0.62294 0.0
H392 H 0.48796 0.85 0.69497 0.0
H393 H 0.16383 0.19246 0.5763 0.0
H394 H 0.97305 0.34341 0.72848 0.0
H395 H 0.79635 0.19072 0.6597 0.0
loop_
_geom_bond_atom_site_label_1
_geom_bond_atom_site_label_2
_geom_bond_distance
_geom_bond_site_symmetry_2
_ccdc_geom_bond_type
Co0 N4 2.148 . S
Co0 N10 2.128 1_655 S
Co0 N20 2.194 1_655 S
Co0 O25 2.351 1_655 S
Co0 O26 2.155 . S
Co0 O27 2.096 . S
C1 N4 1.301 . S
C1 N5 1.329 1_554 S
C1 H6 0.930 . S
C2 C3 1.333 1_554 S
C2 N4 1.317 . S
C2 H7 0.925 1_554 S
C3 C2 1.333 1_556 S
C3 N5 1.350 . S
C3 H29 0.931 . S
N4 Co0 2.148 . S
N4 C1 1.301 . S
N4 C2 1.317 . S
N5 C1 1.329 1_556 S
N5 C3 1.350 . S
H6 C1 0.930 . S
H7 C2 0.925 1_556 S
C8 O9 1.224 . S
C8 O27 1.247 . S
O9 C8 1.224 . S
N10 Co0 2.128 1_455 S
N10 C11 1.355 . S
N10 C13 1.311 1_455 S
C11 N10 1.355 . S
C11 C12 1.363 . S
C11 H23 0.929 . S
C12 C11 1.363 . S
C12 N14 1.375 . S
C12 H30 0.931 . S
C13 N10 1.311 1_655 S
C13 N14 1.347 1_655 S
C13 H24 0.929 . S
N14 C12 1.375 . S
N14 C13 1.347 1_455 S
C15 C18 1.365 . S
C15 N20 1.328 . S
C15 H21 0.929 . S
C16 C17 1.362 1_556 S
C16 C19 1.378 1_556 S
C16 H31 0.929 . S
C17 C16 1.362 1_554 S
C17 C18 1.366 . S
C18 C15 1.365 . S
C18 C17 1.366 . S
C18 H32 0.930 . S
C19 C16 1.378 1_554 S
C19 N20 1.315 . S
C19 H22 0.930 . S
N20 Co0 2.194 1_455 S
N20 C15 1.328 . S
N20 C19 1.315 . S
H21 C15 0.929 . S
H22 C19 0.930 . S
H23 C11 0.929 . S
H24 C13 0.929 . S
O25 Co0 2.351 1_455 S
O25 C28 1.244 1_455 S
O26 Co0 2.155 . S
O26 C28 1.240 . S
O27 Co0 2.096 . S
O27 C8 1.247 . S
C28 O25 1.244 1_655 S
C28 O26 1.240 . S
H29 C3 0.931 . S
H30 C12 0.931 . S
H31 C16 0.929 . S
H32 C18 0.930 . S
Co33 N37 2.148 . S
Co33 N43 2.128 1_565 S
Co33 N53 2.194 1_565 S
Co33 O58 2.351 1_565 S
Co33 O59 2.155 . S
Co33 O60 2.096 . S
C34 N37 1.301 . S
C34 N38 1.328 . S
C34 H39 0.930 . S
C35 C36 1.333 . S
C35 N37 1.317 . S
C35 H40 0.930 . S
C36 C35 1.333 . S
C36 N38 1.350 . S
C36 H62 0.931 . S
N37 Co33 2.148 . S
N37 C34 1.301 . S
N37 C35 1.317 . S
N38 C34 1.328 . S
N38 C36 1.350 . S
H39 C34 0.930 . S
H40 C35 0.930 . S
C41 O42 1.224 . S
C41 O60 1.247 . S
O42 C41 1.224 . S
N43 Co33 2.128 1_545 S
N43 C44 1.355 . S
N43 C46 1.311 1_545 S
C44 N43 1.355 . S
C44 C45 1.363 . S
C44 H56 0.929 . S
C45 C44 1.363 . S
C45 N47 1.375 . S
C45 H63 0.931 1_655 S
C46 N43 1.311 1_565 S
C46 N47 1.347 1_565 S
C46 H57 0.929 . S
N47 C45 1.375 . S
N47 C46 1.347 1_545 S
C48 C51 1.365 . S
C48 N53 1.328 . S
C48 H54 0.929 . S
C49 C50 1.362 . S
C49 C52 1.378 . S
C49 H64 0.929 . S
C50 C49 1.362 . S
C50 C51 1.366 . S
C51 C48 1.365 . S
C51 C50 1.366 . S
C51 H65 0.930 . S
C52 C49 1.378 . S
C52 N53 1.315 . S
C52 H55 0.930 . S
N53 Co33 2.194 1_545 S
N53 C48 1.328 . S
N53 C52 1.315 . S
H54 C48 0.929 . S
H55 C52 0.930 . S
H56 C44 0.929 . S
H57 C46 0.929 . S
O58 Co33 2.351 1_545 S
O58 C61 1.244 1_545 S
O59 Co33 2.155 . S
O59 C61 1.240 . S
O60 Co33 2.096 . S
O60 C41 1.247 . S
C61 O58 1.244 1_565 S
C61 O59 1.240 . S
H62 C36 0.931 . S
H63 C45 0.931 1_455 S
H64 C49 0.929 . S
H65 C51 0.930 . S
Co66 N70 2.148 . S
Co66 N76 2.128 . S
Co66 N86 2.194 . S
Co66 O91 2.351 . S
Co66 O92 2.155 . S
Co66 O93 2.096 . S
C67 N70 1.301 . S
C67 N71 1.328 . S
C67 H72 0.930 . S
C68 C69 1.333 . S
C68 N70 1.317 . S
C68 H73 0.930 . S
C69 C68 1.333 . S
C69 N71 1.350 . S
C69 H95 0.931 . S
N70 Co66 2.148 . S
N70 C67 1.301 . S
N70 C68 1.317 . S
N71 C67 1.328 . S
N71 C69 1.350 . S
H72 C67 0.930 . S
H73 C68 0.930 . S
C74 O75 1.224 . S
C74 O93 1.247 . S
O75 C74 1.224 . S
N76 Co66 2.128 . S
N76 C77 1.355 . S
N76 C79 1.311 . S
C77 N76 1.355 . S
C77 C78 1.363 . S
C77 H89 0.929 . S
C78 C77 1.363 . S
C78 N80 1.375 . S
C78 H96 0.931 . S
C79 N76 1.311 . S
C79 N80 1.347 . S
C79 H90 0.929 1_655 S
N80 C78 1.375 . S
N80 C79 1.347 . S
C81 C84 1.365 . S
C81 N86 1.328 . S
C81 H87 0.929 . S
C82 C83 1.362 . S
C82 C85 1.378 . S
C82 H97 0.929 . S
C83 C82 1.362 . S
C83 C84 1.366 . S
C84 C81 1.365 . S
C84 C83 1.366 . S
C84 H98 0.930 . S
C85 C82 1.378 . S
C85 N86 1.315 . S
C85 H88 0.930 . S
N86 Co66 2.194 . S
N86 C81 1.328 . S
N86 C85 1.315 . S
H87 C81 0.929 . S
H88 C85 0.930 . S
H89 C77 0.929 . S
H90 C79 0.929 1_455 S
O91 Co66 2.351 . S
O91 C94 1.244 . S
O92 Co66 2.155 . S
O92 C94 1.240 . S
O93 Co66 2.096 . S
O93 C74 1.247 . S
C94 O91 1.244 . S
C94 O92 1.240 . S
H95 C69 0.931 . S
H96 C78 0.931 . S
H97 C82 0.929 . S
H98 C84 0.930 . S
Co99 N103 2.148 . S
Co99 N109 2.128 1_455 S
Co99 N119 2.194 1_455 S
Co99 O124 2.351 1_455 S
Co99 O125 2.155 . S
Co99 O126 2.096 . S
C100 N103 1.301 . S
C100 N104 1.328 . S
C100 H105 0.930 . S
C101 C102 1.333 . S
C101 N103 1.317 . S
C101 H106 0.930 . S
C102 C101 1.333 . S
C102 N104 1.350 . S
C102 H128 0.931 . S
N103 Co99 2.148 . S
N103 C100 1.301 . S
N103 C101 1.317 . S
N104 C100 1.328 . S
N104 C102 1.350 . S
H105 C100 0.930 . S
H106 C101 0.930 . S
C107 O108 1.224 . S
C107 O126 1.247 . S
O108 C107 1.224 . S
N109 Co99 2.128 1_655 S
N109 C110 1.355 . S
N109 C112 1.311 1_655 S
C110 N109 1.355 . S
C110 C111 1.363 . S
C110 H122 0.929 . S
C111 C110 1.363 . S
C111 N113 1.375 . S
C111 H129 0.931 . S
C112 N109 1.311 1_455 S
C112 N113 1.347 1_455 S
C112 H123 0.929 . S
N113 C111 1.375 . S
N113 C112 1.347 1_655 S
C114 C117 1.365 . S
C114 N119 1.328 . S
C114 H120 0.929 . S
C115 C116 1.362 . S
C115 C118 1.378 . S
C115 H130 0.929 . S
C116 C115 1.362 . S
C116 C117 1.366 . S
C117 C114 1.365 . S
C117 C116 1.366 . S
C117 H131 0.930 . S
C118 C115 1.378 . S
C118 N119 1.315 . S
C118 H121 0.930 . S
N119 Co99 2.194 1_655 S
N119 C114 1.328 . S
N119 C118 1.315 . S
H120 C114 0.929 . S
H121 C118 0.930 . S
H122 C110 0.929 . S
H123 C112 0.929 . S
O124 Co99 2.351 1_655 S
O124 C127 1.244 1_655 S
O125 Co99 2.155 . S
O125 C127 1.240 . S
O126 Co99 2.096 . S
O126 C107 1.247 . S
C127 O124 1.244 1_455 S
C127 O125 1.240 . S
H128 C102 0.931 . S
H129 C111 0.931 . S
H130 C115 0.929 . S
H131 C117 0.930 . S
Co132 N136 2.148 . S
Co132 N142 2.128 1_545 S
Co132 N152 2.194 1_545 S
Co132 O157 2.351 1_545 S
Co132 O158 2.155 . S
Co132 O159 2.096 . S
C133 N136 1.301 . S
C133 N137 1.328 . S
C133 H138 0.930 . S
C134 C135 1.333 . S
C134 N136 1.317 . S
C134 H139 0.930 . S
C135 C134 1.333 . S
C135 N137 1.350 . S
C135 H161 0.931 . S
N136 Co132 2.148 . S
N136 C133 1.301 . S
N136 C134 1.317 . S
N137 C133 1.328 . S
N137 C135 1.350 . S
H138 C133 0.930 . S
H139 C134 0.930 . S
C140 O141 1.224 . S
C140 O159 1.247 . S
O141 C140 1.224 . S
N142 Co132 2.128 1_565 S
N142 C143 1.355 . S
N142 C145 1.311 1_565 S
C143 N142 1.355 . S
C143 C144 1.363 . S
C143 H155 0.929 . S
C144 C143 1.363 . S
C144 N146 1.375 . S
C144 H162 0.931 1_455 S
C145 N142 1.311 1_545 S
C145 N146 1.347 1_545 S
C145 H156 0.929 . S
N146 C144 1.375 . S
N146 C145 1.347 1_565 S
C147 C150 1.365 . S
C147 N152 1.328 . S
C147 H153 0.929 . S
C148 C149 1.362 . S
C148 C151 1.378 . S
C148 H163 0.929 . S
C149 C148 1.362 . S
C149 C150 1.366 . S
C150 C147 1.365 . S
C150 C149 1.366 . S
C150 H164 0.930 . S
C151 C148 1.378 . S
C151 N152 1.315 . S
C151 H154 0.930 . S
N152 Co132 2.194 1_565 S
N152 C147 1.328 . S
N152 C151 1.315 . S
H153 C147 0.929 . S
H154 C151 0.930 . S
H155 C143 0.929 . S
H156 C145 0.929 . S
O157 Co132 2.351 1_565 S
O157 C160 1.244 1_565 S
O158 Co132 2.155 . S
O158 C160 1.240 . S
O159 Co132 2.096 . S
O159 C140 1.247 . S
C160 O157 1.244 1_545 S
C160 O158 1.240 . S
H161 C135 0.931 . S
H162 C144 0.931 1_655 S
H163 C148 0.929 . S
H164 C150 0.930 . S
Co165 N169 2.148 . S
Co165 N175 2.128 . S
Co165 N185 2.194 . S
Co165 O190 2.351 . S
Co165 O191 2.155 . S
Co165 O192 2.096 . S
C166 N169 1.301 . S
C166 N170 1.328 . S
C166 H171 0.930 . S
C167 C168 1.333 . S
C167 N169 1.317 . S
C167 H172 0.930 . S
C168 C167 1.333 . S
C168 N170 1.350 . S
C168 H194 0.931 . S
N169 Co165 2.148 . S
N169 C166 1.301 . S
N169 C167 1.317 . S
N170 C166 1.328 . S
N170 C168 1.350 . S
H171 C166 0.930 . S
H172 C167 0.930 . S
C173 O174 1.224 . S
C173 O192 1.247 . S
O174 C173 1.224 . S
N175 Co165 2.128 . S
N175 C176 1.355 . S
N175 C178 1.311 . S
C176 N175 1.355 . S
C176 C177 1.363 . S
C176 H188 0.929 . S
C177 C176 1.363 . S
C177 N179 1.375 . S
C177 H195 0.931 . S
C178 N175 1.311 . S
C178 N179 1.347 . S
C178 H189 0.929 1_455 S
N179 C177 1.375 . S
N179 C178 1.347 . S
C180 C183 1.365 . S
C180 N185 1.328 . S
C180 H186 0.929 . S
C181 C182 1.362 . S
C181 C184 1.378 . S
C181 H196 0.929 . S
C182 C181 1.362 . S
C182 C183 1.366 . S
C183 C180 1.365 . S
C183 C182 1.366 . S
C183 H197 0.930 . S
C184 C181 1.378 . S
C184 N185 1.315 . S
C184 H187 0.930 . S
N185 Co165 2.194 . S
N185 C180 1.328 . S
N185 C184 1.315 . S
H186 C180 0.929 . S
H187 C184 0.930 . S
H188 C176 0.929 . S
H189 C178 0.929 1_655 S
O190 Co165 2.351 . S
O190 C193 1.244 . S
O191 Co165 2.155 . S
O191 C193 1.240 . S
O192 Co165 2.096 . S
O192 C173 1.247 . S
C193 O190 1.244 . S
C193 O191 1.240 . S
H194 C168 0.931 . S
H195 C177 0.931 . S
H196 C181 0.929 . S
H197 C183 0.930 . S
Co198 N202 2.148 . S
Co198 N208 2.128 1_545 S
Co198 N218 2.194 1_545 S
Co198 O223 2.351 1_545 S
Co198 O224 2.155 . S
Co198 O225 2.096 . S
C199 N202 1.301 . S
C199 N203 1.328 . S
C199 H204 0.930 . S
C200 C201 1.333 . S
C200 N202 1.317 . S
C200 H205 0.930 . S
C201 C200 1.333 . S
C201 N203 1.350 . S
C201 H227 0.931 . S
N202 Co198 2.148 . S
N202 C199 1.301 . S
N202 C200 1.317 . S
N203 C199 1.328 . S
N203 C201 1.350 . S
H204 C199 0.930 . S
H205 C200 0.930 . S
C206 O207 1.224 . S
C206 O225 1.247 . S
O207 C206 1.224 . S
N208 Co198 2.128 1_565 S
N208 C209 1.355 . S
N208 C211 1.311 1_565 S
C209 N208 1.355 . S
C209 C210 1.363 . S
C209 H221 0.929 . S
C210 C209 1.363 . S
C210 N212 1.375 . S
C210 H228 0.931 . S
C211 N208 1.311 1_545 S
C211 N212 1.347 1_545 S
C211 H222 0.929 . S
N212 C210 1.375 . S
N212 C211 1.347 1_565 S
C213 C216 1.365 . S
C213 N218 1.328 . S
C213 H219 0.929 . S
C214 C215 1.362 . S
C214 C217 1.378 . S
C214 H229 0.929 . S
C215 C214 1.362 . S
C215 C216 1.366 . S
C216 C213 1.365 . S
C216 C215 1.366 . S
C216 H230 0.930 . S
C217 C214 1.378 . S
C217 N218 1.315 . S
C217 H220 0.930 . S
N218 Co198 2.194 1_565 S
N218 C213 1.328 . S
N218 C217 1.315 . S
H219 C213 0.929 . S
H220 C217 0.930 . S
H221 C209 0.929 . S
H222 C211 0.929 . S
O223 Co198 2.351 1_565 S
O223 C226 1.244 1_565 S
O224 Co198 2.155 . S
O224 C226 1.240 . S
O225 Co198 2.096 . S
O225 C206 1.247 . S
C226 O223 1.244 1_545 S
C226 O224 1.240 . S
H227 C201 0.931 . S
H228 C210 0.931 . S
H229 C214 0.929 . S
H230 C216 0.930 . S
Co231 N235 2.148 . S
Co231 N241 2.128 . S
Co231 N251 2.194 . S
Co231 O256 2.351 . S
Co231 O257 2.155 . S
Co231 O258 2.096 . S
C232 N235 1.301 . S
C232 N236 1.328 1_556 S
C232 H237 0.930 . S
C233 C234 1.333 . S
C233 N235 1.317 1_554 S
C233 H238 0.930 . S
C234 C233 1.333 . S
C234 N236 1.350 . S
C234 H260 0.931 . S
N235 Co231 2.148 . S
N235 C232 1.301 . S
N235 C233 1.317 1_556 S
N236 C232 1.328 1_554 S
N236 C234 1.350 . S
H237 C232 0.930 . S
H238 C233 0.930 . S
C239 O240 1.224 . S
C239 O258 1.247 . S
O240 C239 1.224 . S
N241 Co231 2.128 . S
N241 C242 1.355 . S
N241 C244 1.311 . S
C242 N241 1.355 . S
C242 C243 1.363 . S
C242 H254 0.929 . S
C243 C242 1.363 . S
C243 N245 1.375 . S
C243 H261 0.931 . S
C244 N241 1.311 . S
C244 N245 1.347 . S
C244 H255 0.929 1_565 S
N245 C243 1.375 . S
N245 C244 1.347 . S
C246 C249 1.365 . S
C246 N251 1.328 . S
C246 H252 0.929 . S
C247 C248 1.362 1_554 S
C247 C250 1.378 1_554 S
C247 H262 0.929 . S
C248 C247 1.362 1_556 S
C248 C249 1.366 . S
C249 C246 1.365 . S
C249 C248 1.366 . S
C249 H263 0.930 . S
C250 C247 1.378 1_556 S
C250 N251 1.315 . S
C250 H253 0.930 . S
N251 Co231 2.194 . S
N251 C246 1.328 . S
N251 C250 1.315 . S
H252 C246 0.929 . S
H253 C250 0.930 . S
H254 C242 0.929 . S
H255 C244 0.929 1_545 S
O256 Co231 2.351 . S
O256 C259 1.244 . S
O257 Co231 2.155 . S
O257 C259 1.240 . S
O258 Co231 2.096 . S
O258 C239 1.247 . S
C259 O256 1.244 . S
C259 O257 1.240 . S
H260 C234 0.931 . S
H261 C243 0.931 . S
H262 C247 0.929 . S
H263 C249 0.930 . S
Co264 N268 2.148 . S
Co264 N274 2.128 1_655 S
Co264 N284 2.194 1_655 S
Co264 O289 2.351 1_655 S
Co264 O290 2.155 . S
Co264 O291 2.096 . S
C265 N268 1.301 . S
C265 N269 1.328 . S
C265 H270 0.930 . S
C266 C267 1.333 . S
C266 N268 1.317 . S
C266 H271 0.930 . S
C267 C266 1.333 . S
C267 N269 1.350 . S
C267 H293 0.931 . S
N268 Co264 2.148 . S
N268 C265 1.301 . S
N268 C266 1.317 . S
N269 C265 1.328 . S
N269 C267 1.350 . S
H270 C265 0.930 . S
H271 C266 0.930 . S
C272 O273 1.224 . S
C272 O291 1.247 . S
O273 C272 1.224 . S
N274 Co264 2.128 1_455 S
N274 C275 1.355 . S
N274 C277 1.311 1_455 S
C275 N274 1.355 . S
C275 C276 1.363 . S
C275 H287 0.929 . S
C276 C275 1.363 . S
C276 N278 1.375 . S
C276 H294 0.931 1_565 S
C277 N274 1.311 1_655 S
C277 N278 1.347 1_655 S
C277 H288 0.929 . S
N278 C276 1.375 . S
N278 C277 1.347 1_455 S
C279 C282 1.365 . S
C279 N284 1.328 . S
C279 H285 0.929 . S
C280 C281 1.362 . S
C280 C283 1.378 . S
C280 H295 0.929 . S
C281 C280 1.362 . S
C281 C282 1.366 . S
C282 C279 1.365 . S
C282 C281 1.366 . S
C282 H296 0.930 . S
C283 C280 1.378 . S
C283 N284 1.315 . S
C283 H286 0.930 . S
N284 Co264 2.194 1_455 S
N284 C279 1.328 . S
N284 C283 1.315 . S
H285 C279 0.929 . S
H286 C283 0.930 . S
H287 C275 0.929 . S
H288 C277 0.929 . S
O289 Co264 2.351 1_455 S
O289 C292 1.244 1_455 S
O290 Co264 2.155 . S
O290 C292 1.240 . S
O291 Co264 2.096 . S
O291 C272 1.247 . S
C292 O289 1.244 1_655 S
C292 O290 1.240 . S
H293 C267 0.931 . S
H294 C276 0.931 1_545 S
H295 C280 0.929 . S
H296 C282 0.930 . S
Co297 N301 2.148 . S
Co297 N307 2.128 1_565 S
Co297 N317 2.194 1_565 S
Co297 O322 2.351 1_565 S
Co297 O323 2.155 . S
Co297 O324 2.096 . S
C298 N301 1.301 . S
C298 N302 1.328 . S
C298 H303 0.930 . S
C299 C300 1.333 . S
C299 N301 1.317 . S
C299 H304 0.930 . S
C300 C299 1.333 . S
C300 N302 1.350 . S
C300 H326 0.931 . S
N301 Co297 2.148 . S
N301 C298 1.301 . S
N301 C299 1.317 . S
N302 C298 1.328 . S
N302 C300 1.350 . S
H303 C298 0.930 . S
H304 C299 0.930 . S
C305 O306 1.224 . S
C305 O324 1.247 . S
O306 C305 1.224 . S
N307 Co297 2.128 1_545 S
N307 C308 1.355 . S
N307 C310 1.311 1_545 S
C308 N307 1.355 . S
C308 C309 1.363 . S
C308 H320 0.929 . S
C309 C308 1.363 . S
C309 N311 1.375 . S
C309 H327 0.931 . S
C310 N307 1.311 1_565 S
C310 N311 1.347 1_565 S
C310 H321 0.929 . S
N311 C309 1.375 . S
N311 C310 1.347 1_545 S
C312 C315 1.365 . S
C312 N317 1.328 . S
C312 H318 0.929 . S
C313 C314 1.362 . S
C313 C316 1.378 . S
C313 H328 0.929 . S
C314 C313 1.362 . S
C314 C315 1.366 . S
C315 C312 1.365 . S
C315 C314 1.366 . S
C315 H329 0.930 . S
C316 C313 1.378 . S
C316 N317 1.315 . S
C316 H319 0.930 . S
N317 Co297 2.194 1_545 S
N317 C312 1.328 . S
N317 C316 1.315 . S
H318 C312 0.929 . S
H319 C316 0.930 . S
H320 C308 0.929 . S
H321 C310 0.929 . S
O322 Co297 2.351 1_545 S
O322 C325 1.244 1_545 S
O323 Co297 2.155 . S
O323 C325 1.240 . S
O324 Co297 2.096 . S
O324 C305 1.247 . S
C325 O322 1.244 1_565 S
C325 O323 1.240 . S
H326 C300 0.931 . S
H327 C309 0.931 . S
H328 C313 0.929 . S
H329 C315 0.930 . S
Co330 N334 2.148 . S
Co330 N340 2.128 . S
Co330 N350 2.194 . S
Co330 O355 2.351 . S
Co330 O356 2.155 . S
Co330 O357 2.096 . S
C331 N334 1.301 . S
C331 N335 1.328 . S
C331 H336 0.930 . S
C332 C333 1.333 . S
C332 N334 1.317 . S
C332 H337 0.930 . S
C333 C332 1.333 . S
C333 N335 1.350 . S
C333 H359 0.931 . S
N334 Co330 2.148 . S
N334 C331 1.301 . S
N334 C332 1.317 . S
N335 C331 1.328 . S
N335 C333 1.350 . S
H336 C331 0.930 . S
H337 C332 0.930 . S
C338 O339 1.224 . S
C338 O357 1.247 . S
O339 C338 1.224 . S
N340 Co330 2.128 . S
N340 C341 1.355 . S
N340 C343 1.311 . S
C341 N340 1.355 . S
C341 C342 1.363 . S
C341 H353 0.929 . S
C342 C341 1.363 . S
C342 N344 1.375 . S
C342 H360 0.931 . S
C343 N340 1.311 . S
C343 N344 1.347 . S
C343 H354 0.929 1_545 S
N344 C342 1.375 . S
N344 C343 1.347 . S
C345 C348 1.365 . S
C345 N350 1.328 . S
C345 H351 0.929 . S
C346 C347 1.362 . S
C346 C349 1.378 . S
C346 H361 0.929 . S
C347 C346 1.362 . S
C347 C348 1.366 . S
C348 C345 1.365 . S
C348 C347 1.366 . S
C348 H362 0.930 . S
C349 C346 1.378 . S
C349 N350 1.315 . S
C349 H352 0.930 . S
N350 Co330 2.194 . S
N350 C345 1.328 . S
N350 C349 1.315 . S
H351 C345 0.929 . S
H352 C349 0.930 . S
H353 C341 0.929 . S
H354 C343 0.929 1_565 S
O355 Co330 2.351 . S
O355 C358 1.244 . S
O356 Co330 2.155 . S
O356 C358 1.240 . S
O357 Co330 2.096 . S
O357 C338 1.247 . S
C358 O355 1.244 . S
C358 O356 1.240 . S
H359 C333 0.931 . S
H360 C342 0.931 . S
H361 C346 0.929 . S
H362 C348 0.930 . S
Co363 N367 2.148 . S
Co363 N373 2.128 1_455 S
Co363 N383 2.194 1_455 S
Co363 O388 2.351 1_455 S
Co363 O389 2.155 . S
Co363 O390 2.096 . S
C364 N367 1.301 . S
C364 N368 1.328 . S
C364 H369 0.930 . S
C365 C366 1.333 . S
C365 N367 1.317 . S
C365 H370 0.930 . S
C366 C365 1.333 . S
C366 N368 1.350 . S
C366 H392 0.931 . S
N367 Co363 2.148 . S
N367 C364 1.301 . S
N367 C365 1.317 . S
N368 C364 1.328 . S
N368 C366 1.350 . S
H369 C364 0.930 . S
H370 C365 0.930 . S
C371 O372 1.224 . S
C371 O390 1.247 . S
O372 C371 1.224 . S
N373 Co363 2.128 1_655 S
N373 C374 1.355 . S
N373 C376 1.311 1_655 S
C374 N373 1.355 . S
C374 C375 1.363 . S
C374 H386 0.929 . S
C375 C374 1.363 . S
C375 N377 1.375 . S
C375 H393 0.931 1_545 S
C376 N373 1.311 1_455 S
C376 N377 1.347 1_455 S
C376 H387 0.929 . S
N377 C375 1.375 . S
N377 C376 1.347 1_655 S
C378 C381 1.365 . S
C378 N383 1.328 . S
C378 H384 0.929 . S
C379 C380 1.362 . S
C379 C382 1.378 . S
C379 H394 0.929 . S
C380 C379 1.362 . S
C380 C381 1.366 . S
C381 C378 1.365 . S
C381 C380 1.366 . S
C381 H395 0.930 . S
C382 C379 1.378 . S
C382 N383 1.315 . S
C382 H385 0.930 . S
N383 Co363 2.194 1_655 S
N383 C378 1.328 . S
N383 C382 1.315 . S
H384 C378 0.929 . S
H385 C382 0.930 . S
H386 C374 0.929 . S
H387 C376 0.929 . S
O388 Co363 2.351 1_655 S
O388 C391 1.244 1_655 S
O389 Co363 2.155 . S
O389 C391 1.240 . S
O390 Co363 2.096 . S
O390 C371 1.247 . S
C391 O388 1.244 1_455 S
C391 O389 1.240 . S
H392 C366 0.931 . S
H393 C375 0.931 1_565 S
H394 C379 0.929 . S
H395 C381 0.930 . S
C239 C8 2.625 1_566 S
C272 C41 2.370 . S
C74 C305 2.625 1_655 S
C338 C107 2.625 1_545 S
C140 C371 2.370 . S
C206 C173 2.625 1_655 S
N14 N278 1.667 1_545 S
N47 N311 1.667 1_655 S
N344 N80 1.419 1_445 S
N377 N113 1.667 1_545 S
N146 N212 1.667 1_455 S
N245 N179 1.420 1_665 S
N236 C17 0.823 . S
N269 C50 1.006 . S
N302 C83 1.110 . S
C116 N335 0.823 . S
N368 C149 1.006 . S
C182 N203 1.109 . S
C215 N170 0.823 . S
N5 C248 1.109 . S
N38 C281 1.006 . S
N71 C314 0.823 . S
N104 C347 1.110 . S
N137 C380 1.006 . S
C292 C28 2.205 . S
C61 C325 2.205 . S
C358 C94 2.620 . S
C127 C391 2.205 . S
C160 C226 2.205 . S
C259 C193 2.620 . S
