# Generated by pormake.
# Topology smm, (6)-cn, num edge types: 1
# Building blocks:
#     Node 0, Type 0, BuildingBlock: BETDEL_clean_sbu_0, # of connection points: 6
#     Node 1, Type 0, BuildingBlock: BETDEL_clean_sbu_0, # of connection points: 6
#     Node 2, Type 0, BuildingBlock: BETDEL_clean_sbu_0, # of connection points: 6
#     Node 3, Type 0, BuildingBlock: BETDEL_clean_sbu_0, # of connection points: 6
#     Node 4, Type 0, BuildingBlock: BETDEL_clean_sbu_0, # of connection points: 6
#     Node 5, Type 0, BuildingBlock: BETDEL_clean_sbu_0, # of connection points: 6
#     Node 6, Type 0, BuildingBlock: BETDEL_clean_sbu_0, # of connection points: 6
#     Node 7, Type 0, BuildingBlock: BETDEL_clean_sbu_0, # of connection points: 6
#     Node 8, Type 0, BuildingBlock: BETDEL_clean_sbu_0, # of connection points: 6
#     Edge 9, Type (0, 0), BuildingBlock: XIVTED_clean_linker_0, # of connection points: 2
#     Edge 10, Type (0, 0), BuildingBlock: XIVTED_clean_linker_0, # of connection points: 2
#     Edge 11, Type (0, 0), BuildingBlock: XIVTED_clean_linker_0, # of connection points: 2
#     Edge 12, Type (0, 0), BuildingBlock: XIVTED_clean_linker_0, # of connection points: 2
#     Edge 13, Type (0, 0), BuildingBlock: XIVTED_clean_linker_0, # of connection points: 2
#     Edge 14, Type (0, 0), BuildingBlock: XIVTED_clean_linker_0, # of connection points: 2
#     Edge 15, Type (0, 0), BuildingBlock: XIVTED_clean_linker_0, # of connection points: 2
#     Edge 16, Type (0, 0), BuildingBlock: XIVTED_clean_linker_0, # of connection points: 2
#     Edge 17, Type (0, 0), BuildingBlock: XIVTED_clean_linker_0, # of connection points: 2
#     Edge 18, Type (0, 0), BuildingBlock: XIVTED_clean_linker_0, # of connection points: 2
#     Edge 19, Type (0, 0), BuildingBlock: XIVTED_clean_linker_0, # of connection points: 2
#     Edge 20, Type (0, 0), BuildingBlock: XIVTED_clean_linker_0, # of connection points: 2
#     Edge 21, Type (0, 0), BuildingBlock: XIVTED_clean_linker_0, # of connection points: 2
#     Edge 22, Type (0, 0), BuildingBlock: XIVTED_clean_linker_0, # of connection points: 2
#     Edge 23, Type (0, 0), BuildingBlock: XIVTED_clean_linker_0, # of connection points: 2
#     Edge 24, Type (0, 0), BuildingBlock: XIVTED_clean_linker_0, # of connection points: 2
#     Edge 25, Type (0, 0), BuildingBlock: XIVTED_clean_linker_0, # of connection points: 2
#     Edge 26, Type (0, 0), BuildingBlock: XIVTED_clean_linker_0, # of connection points: 2
#     Edge 27, Type (0, 0), BuildingBlock: XIVTED_clean_linker_0, # of connection points: 2
#     Edge 28, Type (0, 0), BuildingBlock: XIVTED_clean_linker_0, # of connection points: 2
#     Edge 29, Type (0, 0), BuildingBlock: XIVTED_clean_linker_0, # of connection points: 2
#     Edge 30, Type (0, 0), BuildingBlock: XIVTED_clean_linker_0, # of connection points: 2
#     Edge 31, Type (0, 0), BuildingBlock: XIVTED_clean_linker_0, # of connection points: 2
#     Edge 32, Type (0, 0), BuildingBlock: XIVTED_clean_linker_0, # of connection points: 2
#     Edge 33, Type (0, 0), BuildingBlock: XIVTED_clean_linker_0, # of connection points: 2
#     Edge 34, Type (0, 0), BuildingBlock: XIVTED_clean_linker_0, # of connection points: 2
#     Edge 35, Type (0, 0), BuildingBlock: XIVTED_clean_linker_0, # of connection points: 2
# Relax obj value: 0.069
# Max RMSD: 0.140
# Mean RMSD: 0.140
data_MOF--net-smm--node1-BETDEL_clean_sbu_0--edge1-XIVTED_clean_linker_0
_symmetry_space_group_name_H-M    P1
_symmetry_Int_Tables_number       1
_symmetry_cell_setting            triclinic
loop_
_symmetry_equiv_pos_as_xyz
'x, y, z'
_cell_length_a     56.790987
_cell_length_b     56.788818
_cell_length_c     14.455404
_cell_angle_alpha  89.74214
_cell_angle_beta   89.896995
_cell_angle_gamma 119.9389
loop_
_atom_site_label
_atom_site_type_symbol
_atom_site_fract_x
_atom_site_fract_y
_atom_site_fract_z
_atom_type_partial_charge
Dy0 Dy 0.05297 0.22346 0.95984 0.0
C1 C 0.96955 0.11401 0.05024 0.0
C2 C 0.08603 0.27277 0.87772 0.0
Dy3 Dy 1.00507 0.16669 -0.00039 0.0
O4 O 0.09003 0.26527 0.95842 0.0
O5 O 0.06411 0.25321 0.84138 0.0
O6 O 0.06941 0.22667 0.10271 0.0
O7 O 0.02727 0.20358 0.08041 0.0
C8 C 0.04591 0.20971 0.13867 0.0
C9 C 1.01411 0.18124 0.8206 0.0
O10 O 0.98536 0.19093 0.03806 0.0
O11 O 1.0168 0.23023 0.9616 0.0
O12 O 0.96542 0.12751 -0.01401 0.0
O13 O 0.99278 0.12966 0.08943 0.0
O14 O 0.99018 0.16584 0.85543 0.0
O15 O 0.03191 0.18629 0.88077 0.0
O16 O 0.07462 0.1997 0.94574 0.0
O17 O 0.04109 0.16092 0.01924 0.0
C18 C 0.99287 0.21538 0.00343 0.0
C19 C 0.06621 0.17584 -0.01313 0.0
Dy20 Dy 0.83955 0.85092 0.97526 0.0
C21 C 0.95011 0.8795 0.05629 0.0
C22 C 0.78835 0.83222 0.90776 0.0
Dy23 Dy 0.89716 0.86179 0.00992 0.0
O24 O 0.79428 0.82378 -0.01707 0.0
O25 O 0.81044 0.85124 0.86931 0.0
O26 O 0.83709 0.86528 0.1168 0.0
O27 O 0.86066 0.84659 0.09448 0.0
C28 C 0.85447 0.85922 0.15211 0.0
C29 C 0.88183 0.85486 0.83216 0.0
O30 O 0.87332 0.81811 0.05091 0.0
O31 O 0.83706 0.81008 0.95797 0.0
O32 O 0.93598 0.86048 -0.00255 0.0
O33 O 0.93493 0.88818 0.09276 0.0
O34 O 0.89841 0.84774 0.86617 0.0
O35 O 0.87628 0.86728 0.89208 0.0
O36 O 0.86067 0.89639 0.97132 0.0
O37 O 0.90204 0.90328 0.02724 0.0
C38 C 0.85057 0.80101 0.0078 0.0
C39 C 0.88551 0.9125 0.00366 0.0
Dy40 Dy 0.21143 1.01053 0.96153 0.0
C41 C 0.18686 0.09508 0.04451 0.0
C42 C 0.2277 0.97781 0.87835 0.0
Dy43 Dy 0.20395 0.05925 -0.0018 0.0
O44 O 0.21569 0.97312 0.95843 0.0
O45 O 0.23048 1.00016 0.84331 0.0
O46 O 0.19695 0.99359 0.10344 0.0
O47 O 0.21711 0.03595 0.08186 0.0
C48 C 0.20385 0.0171 0.1395 0.0
C49 C 0.21017 0.05045 0.82 0.0
O50 O 0.24774 0.07853 0.03773 0.0
O51 O 0.25474 0.04549 0.96996 0.0
O52 O 0.17902 0.07185 0.08502 0.0
O53 O 0.20479 0.09909 -0.0184 0.0
O54 O 0.21915 0.07435 0.85476 0.0
O55 O 0.19667 0.03258 0.87982 0.0
O56 O 0.16623 0.98964 0.94631 0.0
O57 O 0.16172 0.02384 0.01682 0.0
C58 C 0.26419 0.06978 0.00851 0.0
C59 C 0.15112 0.99863 -0.01415 0.0
Dy60 Dy 0.7194 0.55723 0.29632 0.0
C61 C 0.63636 0.44776 0.38562 0.0
C62 C 0.75253 0.60675 0.21547 0.0
Dy63 Dy 0.67192 0.50055 0.3361 0.0
O64 O 0.75665 0.5989 0.29532 0.0
O65 O 0.73041 0.58744 0.17927 0.0
O66 O 0.73641 0.56023 0.43804 0.0
O67 O 0.69417 0.53726 0.41798 0.0
C68 C 0.71307 0.54335 0.47516 0.0
C69 C 0.68021 0.5153 0.15708 0.0
O70 O 0.65215 0.5245 0.37699 0.0
O71 O 0.68318 0.56395 0.30044 0.0
O72 O 0.65964 0.46329 0.42477 0.0
O73 O 0.63224 0.46142 0.32198 0.0
O74 O 0.65645 0.5 0.19314 0.0
O75 O 0.69829 0.52026 0.21612 0.0
O76 O 0.7411 0.53359 0.27966 0.0
O77 O 0.70797 0.49476 0.35386 0.0
C78 C 0.65939 0.54894 0.34296 0.0
C79 C 0.73295 0.50975 0.32054 0.0
Dy80 Dy 0.50642 0.18455 0.30977 0.0
C81 C 0.61745 0.21462 0.38891 0.0
C82 C 0.45486 0.1648 0.2441 0.0
Dy83 Dy 0.56427 0.19603 0.34358 0.0
O84 O 0.46126 0.15706 0.31984 0.0
O85 O 0.47668 0.18376 0.20404 0.0
O86 O 0.50406 0.19909 0.45104 0.0
O87 O 0.52785 0.18063 0.42872 0.0
C88 C 0.5216 0.19324 0.48624 0.0
C89 C 0.54864 0.1887 0.16618 0.0
O90 O 0.54097 0.15241 0.38531 0.0
O91 O 0.50437 0.14388 0.29329 0.0
O92 O 0.60353 0.19566 0.32965 0.0
O93 O 0.60193 0.22274 0.42644 0.0
O94 O 0.56538 0.18178 0.2001 0.0
O95 O 0.54304 0.20111 0.22598 0.0
O96 O 0.52711 0.23003 0.30528 0.0
O97 O 0.56869 0.23731 0.36046 0.0
C98 C 0.51818 0.13509 0.34289 0.0
C99 C 0.55196 0.24631 0.33722 0.0
Dy100 Dy 0.87874 0.34479 0.28958 0.0
C101 C 0.85411 0.42939 0.37123 0.0
C102 C 0.89486 0.31161 0.20914 0.0
Dy103 Dy 0.8712 0.39352 0.32543 0.0
O104 O 0.88234 0.30702 0.28818 0.0
O105 O 0.89827 0.33415 0.17357 0.0
O106 O 0.86391 0.32788 0.4313 0.0
O107 O 0.88421 0.37022 0.40969 0.0
C108 C 0.87082 0.3514 0.46723 0.0
C109 C 0.87786 0.3848 0.14759 0.0
O110 O 0.91497 0.41277 0.36562 0.0
O111 O 0.92204 0.37971 0.29832 0.0
O112 O 0.8717 0.43315 0.3073 0.0
O113 O 0.84661 0.40639 0.41293 0.0
O114 O 0.8868 0.40869 0.18239 0.0
O115 O 0.8642 0.3669 0.20714 0.0
O116 O 0.83366 0.32408 0.27191 0.0
O117 O 0.82886 0.35807 0.34259 0.0
C118 C 0.93145 0.40398 0.33694 0.0
C119 C 0.81839 0.33293 0.31101 0.0
Dy120 Dy 0.38601 0.89093 0.62638 0.0
C121 C 0.30368 0.78071 0.71466 0.0
C122 C 0.41862 0.94042 0.54473 0.0
Dy123 Dy 0.33891 0.83362 0.66555 0.0
O124 O 0.42287 0.93286 0.62495 0.0
O125 O 0.39665 0.92084 0.50869 0.0
O126 O 0.40266 0.89429 0.76902 0.0
O127 O 0.36058 0.87046 0.74689 0.0
C128 C 0.37931 0.87689 0.80496 0.0
C129 C 0.34767 0.8485 0.48675 0.0
O130 O 0.31857 0.85717 0.70545 0.0
O131 O 0.34933 0.89688 0.62943 0.0
O132 O 0.29939 0.79434 0.65129 0.0
O133 O 0.32694 0.79633 0.75376 0.0
O134 O 0.32385 0.83267 0.52153 0.0
O135 O 0.36555 0.85381 0.54682 0.0
O136 O 0.40827 0.86783 0.61073 0.0
O137 O 0.37547 0.82867 0.68464 0.0
C138 C 0.32553 0.88157 0.67155 0.0
C139 C 0.40047 0.84406 0.65173 0.0
Dy140 Dy 0.17319 0.51729 0.64293 0.0
C141 C 0.28385 0.547 0.7233 0.0
C142 C 0.12173 0.49775 0.57641 0.0
Dy143 Dy 0.23071 0.52852 0.67763 0.0
O144 O 0.12799 0.48984 0.65205 0.0
O145 O 0.14363 0.51675 0.5369 0.0
O146 O 0.17082 0.53232 0.78329 0.0
O147 O 0.19436 0.51351 0.76319 0.0
C148 C 0.18814 0.52638 0.81977 0.0
C149 C 0.21526 0.52068 0.49989 0.0
O150 O 0.2073 0.48508 0.72115 0.0
O151 O 0.17089 0.47645 0.62813 0.0
O152 O 0.2686 0.55576 0.75857 0.0
O153 O 0.26968 0.52747 0.66616 0.0
O154 O 0.2318 0.5137 0.53508 0.0
O155 O 0.20973 0.53342 0.55867 0.0
O156 O 0.19403 0.56277 0.63719 0.0
O157 O 0.23545 0.56995 0.69329 0.0
C158 C 0.18457 0.4677 0.67858 0.0
C159 C 0.21887 0.57904 0.66921 0.0
Dy160 Dy 0.54478 0.67822 0.62398 0.0
C161 C 0.52092 0.76319 0.70756 0.0
C162 C 0.56092 0.64529 0.5417 0.0
Dy163 Dy 0.53785 0.72728 0.66057 0.0
O164 O 0.54875 0.64066 0.62147 0.0
O165 O 0.56388 0.66769 0.50639 0.0
O166 O 0.53011 0.66137 0.7659 0.0
O167 O 0.55068 0.70373 0.74422 0.0
C168 C 0.53727 0.68495 0.80192 0.0
C169 C 0.54415 0.71845 0.48252 0.0
O170 O 0.58168 0.74631 0.69973 0.0
O171 O 0.58818 0.71292 0.63218 0.0
O172 O 0.53788 0.76666 0.64168 0.0
O173 O 0.514 0.74049 0.75051 0.0
O174 O 0.55343 0.74239 0.51744 0.0
O175 O 0.53043 0.7006 0.54216 0.0
O176 O 0.49966 0.65767 0.60789 0.0
O177 O 0.49541 0.69207 0.67795 0.0
C178 C 0.5979 0.73724 0.67074 0.0
C179 C 0.48465 0.66684 0.64695 0.0
H180 H 0.07602 0.29336 0.72082 0.0
H181 H 0.20362 0.4426 0.79384 0.0
H182 H 0.13333 0.31469 0.94388 0.0
H183 H 0.13826 0.42535 0.60468 0.0
H184 H 0.1815 0.39442 0.83402 0.0
H185 H 0.10184 0.34021 0.66256 0.0
C186 C 0.09419 0.30787 0.75698 0.0
C187 C 0.10252 0.30025 0.83748 0.0
C188 C 0.17207 0.40114 0.78327 0.0
C189 C 0.13211 0.35376 0.77144 0.0
C190 C 0.18475 0.42868 0.75994 0.0
C191 C 0.17272 0.43815 0.69611 0.0
C192 C 0.14718 0.38279 0.74237 0.0
C193 C 0.14824 0.41904 0.65456 0.0
C194 C 0.10886 0.33459 0.7239 0.0
C195 C 0.12616 0.31978 0.88176 0.0
N196 N 0.13622 0.3923 0.67872 0.0
N197 N 0.14008 0.34565 0.84833 0.0
H198 H 0.76856 0.8544 0.78207 0.0
H199 H 0.63184 0.71691 0.69628 0.0
H200 H 0.74576 0.78217 0.94427 0.0
H201 H 0.63022 0.79209 0.70124 0.0
H202 H 0.67881 0.74124 0.75016 0.0
H203 H 0.72219 0.8324 0.71754 0.0
C204 C 0.75381 0.83396 0.80389 0.0
C205 C 0.7608 0.82003 0.86868 0.0
C206 C 0.6682 0.7524 0.73864 0.0
C207 C 0.70858 0.79481 0.79401 0.0
C208 C 0.64148 0.73862 0.70732 0.0
C209 C 0.62708 0.75251 0.69452 0.0
C210 C 0.68087 0.78038 0.75533 0.0
C211 C 0.6406 0.78063 0.71077 0.0
C212 C 0.7275 0.82153 0.76741 0.0
C213 C 0.74108 0.79362 0.89488 0.0
N214 N 0.66688 0.79375 0.74006 0.0
N215 N 0.71595 0.78174 0.85668 0.0
H216 H 0.25924 0.98944 0.7234 0.0
H217 H 0.28041 0.86085 0.78322 0.0
H218 H 0.22207 0.92982 0.94141 0.0
H219 H 0.33073 0.92948 0.60653 0.0
H220 H 0.25411 0.88253 0.8259 0.0
H221 H 0.28085 0.96441 0.66418 0.0
C222 C 0.25544 0.97093 0.75825 0.0
C223 C 0.23897 0.9617 0.8376 0.0
C224 C 0.27081 0.89277 0.77739 0.0
C225 C 0.26359 0.93301 0.77042 0.0
C226 C 0.28581 0.88036 0.75261 0.0
C227 C 0.30798 0.89342 0.69151 0.0
C228 C 0.27787 0.91839 0.74047 0.0
C229 C 0.31394 0.91871 0.65429 0.0
C230 C 0.26784 0.95671 0.72464 0.0
C231 C 0.23471 0.93765 0.88018 0.0
N232 N 0.29904 0.9304 0.67957 0.0
N233 N 0.247 0.92416 0.84621 0.0
H234 H 0.413 0.11475 0.2854 0.0
H235 H 0.29581 0.12481 0.03544 0.0
H236 H 0.43385 0.18541 0.11684 0.0
H237 H 0.29877 0.05033 0.03722 0.0
H238 H 0.34343 0.14939 0.08734 0.0
H239 H 0.36721 0.09239 0.22009 0.0
C240 C 0.40784 0.12561 0.23499 0.0
C241 C 0.42713 0.1519 0.2062 0.0
C242 C 0.33359 0.12772 0.07531 0.0
C243 C 0.37481 0.12663 0.13251 0.0
C244 C 0.30652 0.1137 0.04608 0.0
C245 C 0.29338 0.08552 0.03188 0.0
C246 C 0.34717 0.11323 0.09305 0.0
C247 C 0.30814 0.07207 0.04669 0.0
C248 C 0.38183 0.1128 0.19749 0.0
C249 C 0.41948 0.16505 0.14041 0.0
N250 N 0.3341 0.08597 0.07785 0.0
N251 N 0.3937 0.15236 0.10623 0.0
H252 H 0.88752 0.26307 0.27306 0.0
H253 H 0.99914 0.2634 0.93535 0.0
H254 H 0.92769 0.32292 0.05764 0.0
H255 H 0.94776 0.19595 0.1148 0.0
H256 H 0.97295 0.28529 -0.02256 0.0
H257 H 0.909 0.23787 0.21478 0.0
C258 C 0.90071 0.27077 0.21299 0.0
C259 C 0.90593 0.29512 0.17019 0.0
C260 C 0.96726 0.26559 0.00701 0.0
C261 C 0.9308 0.26661 0.10361 0.0
C262 C 0.98224 0.25308 -0.01693 0.0
C263 C 0.97576 0.22783 0.0219 0.0
C264 C 0.94578 0.25292 0.07097 0.0
C265 C 0.95355 0.21542 0.08313 0.0
C266 C 0.91296 0.25639 0.1797 0.0
C267 C 0.92316 0.30422 0.09264 0.0
N268 N 0.93954 0.22819 0.10634 0.0
N269 N 0.93517 0.29008 0.06227 0.0
H270 H 0.80422 0.75924 0.93198 0.0
H271 H 0.80049 0.64782 0.28064 0.0
H272 H 0.86864 0.77515 0.12375 0.0
H273 H 0.74246 0.62831 0.06102 0.0
H274 H 0.82634 0.69434 0.22094 0.0
H275 H 0.78197 0.71106 0.97408 0.0
C276 C 0.81386 0.75261 -0.01779 0.0
C277 C 0.83831 0.77138 0.02469 0.0
C278 C 0.80808 0.67988 0.18524 0.0
C279 C 0.81274 0.7162 0.07391 0.0
C280 C 0.79331 0.65332 0.21938 0.0
C281 C 0.76928 0.63428 0.17583 0.0
C282 C 0.79861 0.68755 0.10741 0.0
C283 C 0.76089 0.64243 0.09666 0.0
C284 C 0.8011 0.72506 0.00627 0.0
C285 C 0.8498 0.76151 0.08926 0.0
N286 N 0.77541 0.66852 0.06539 0.0
N287 N 0.83681 0.73469 0.11241 0.0
H288 H 0.07968 0.44764 0.61597 0.0
H289 H 0.96314 0.45894 0.36584 0.0
H290 H 0.10102 0.51888 0.44998 0.0
H291 H 0.96585 0.38433 0.3655 0.0
H292 H 1.01067 0.48324 0.41892 0.0
H293 H 0.03399 0.42565 0.54995 0.0
C294 C 0.07465 0.4587 0.56599 0.0
C295 C 0.09405 0.48505 0.53811 0.0
C296 C 1.00079 0.46161 0.40618 0.0
C297 C 0.04184 0.4602 0.46363 0.0
C298 C 0.97377 0.44775 0.37625 0.0
C299 C 0.96059 0.4196 0.3611 0.0
C300 C 1.01426 0.447 0.42362 0.0
C301 C 0.97525 0.40604 0.37569 0.0
C302 C 0.04869 0.4461 0.52808 0.0
C303 C 0.08656 0.49847 0.47283 0.0
N304 N 1.00115 0.41979 0.40749 0.0
N305 N 0.06084 0.48598 0.43825 0.0
H306 H 0.59306 0.65697 0.38827 0.0
H307 H 0.61402 0.52843 0.45324 0.0
H308 H 0.55501 0.59728 0.60559 0.0
H309 H 0.66514 0.59708 0.27779 0.0
H310 H 0.58765 0.55017 0.49383 0.0
H311 H 0.61501 0.63204 0.33128 0.0
C312 C 0.58913 0.63846 0.4234 0.0
C313 C 0.57231 0.62919 0.50193 0.0
C314 C 0.60455 0.56042 0.44609 0.0
C315 C 0.59733 0.60062 0.43734 0.0
C316 C 0.6196 0.54798 0.42254 0.0
C317 C 0.642 0.56101 0.36234 0.0
C318 C 0.61178 0.58604 0.40885 0.0
C319 C 0.64818 0.58634 0.3249 0.0
C320 C 0.60173 0.6243 0.39108 0.0
C321 C 0.56791 0.60514 0.54495 0.0
N322 N 0.6332 0.59805 0.34895 0.0
N323 N 0.5804 0.59171 0.51225 0.0
H324 H 0.53724 0.10978 0.45717 0.0
H325 H 0.40839 0.96108 0.38843 0.0
H326 H 0.4716 0.0929 0.26978 0.0
H327 H 0.46621 0.98218 0.6097 0.0
H328 H 0.43446 1.0078 0.32925 0.0
H329 H 0.51479 0.06163 0.49806 0.0
C330 C 0.51825 0.09594 0.42376 0.0
C331 C 0.50623 0.10552 0.36028 0.0
C332 C 0.44152 1.00217 0.39042 0.0
C333 C 0.4803 0.0502 0.4074 0.0
C334 C 0.4267 0.97551 0.42404 0.0
C335 C 0.43512 0.96787 0.50428 0.0
C336 C 0.46501 0.02123 0.43714 0.0
C337 C 0.45897 0.9873 0.54782 0.0
C338 C 0.50538 0.06842 0.44751 0.0
C339 C 0.48158 0.08651 0.31937 0.0
N340 N 0.47304 1.0131 0.51386 0.0
N341 N 0.46937 0.0598 0.34397 0.0
H342 H 0.19966 0.14262 0.95611 0.0
H343 H 0.05715 0.13053 0.08295 0.0
H344 H 0.14151 0.08305 0.1457 0.0
H345 H 0.11886 0.19729 0.92268 0.0
H346 H 0.08841 0.11361 0.10782 0.0
H347 H 0.17168 0.16427 0.94732 0.0
C348 C 0.18123 0.1344 -0.00282 0.0
C349 C 0.17282 0.11099 0.05159 0.0
C350 C 0.09522 0.13201 0.0674 0.0
C351 C 0.14046 0.1353 0.04047 0.0
C352 C 0.07728 0.14167 0.0526 0.0
C353 C 0.08527 0.16537 2e-05 0.0
C354 C 0.12144 0.14596 0.02902 0.0
C355 C 0.11175 0.1789 0.96332 0.0
C356 C 0.1652 0.14669 -0.00823 0.0
C357 C 0.14874 0.1011 0.10302 0.0
N358 N 0.12885 0.16893 -0.02185 0.0
N359 N 0.13328 0.11313 0.09545 0.0
H360 H 0.86259 0.94267 0.94288 0.0
H361 H 0.98104 0.08145 0.15818 0.0
H362 H 0.93093 0.94939 0.09574 0.0
H363 H 0.92213 0.07875 0.96427 0.0
H364 H 0.95837 0.0318 0.15486 0.0
H365 H 0.8802 0.99143 0.96589 0.0
C366 C 0.88122 0.95432 -0.01865 0.0
C367 C 0.89539 0.94188 0.01666 0.0
C368 C 0.95021 0.04202 0.11372 0.0
C369 C 0.91546 0.99756 0.04406 0.0
C370 C 0.96303 0.07036 0.11619 0.0
C371 C 0.95349 0.08417 0.06114 0.0
C372 C 0.92766 0.0274 0.05578 0.0
C373 C 0.93016 0.06882 0.0076 0.0
C374 C 0.89125 0.98214 -0.00549 0.0
C375 C 0.9194 0.95804 0.06631 0.0
N376 N 0.91814 0.04125 0.00569 0.0
N377 N 0.92863 0.98494 0.0784 0.0
H378 H 0.98443 0.8654 0.97288 0.0
H379 H 0.1154 1.0089 0.07926 0.0
H380 H 0.98375 0.926 0.14983 0.0
H381 H 0.11942 0.94568 0.92732 0.0
H382 H 0.06734 0.97811 0.10777 0.0
H383 H 0.03397 0.89314 0.96083 0.0
C384 C 0.99479 0.88433 0.01056 0.0
C385 C 0.98002 0.8935 0.06223 0.0
C386 C 0.07867 0.97088 0.06831 0.0
C387 C 0.03656 0.92555 0.04734 0.0
C388 C 0.10619 0.98855 0.05139 0.0
C389 C 0.12158 0.97998 0.00015 0.0
C390 C 0.06616 0.94435 0.03343 0.0
C391 C 0.10839 0.95324 0.96676 0.0
C392 C 0.02304 0.90022 0.00325 0.0
C393 C 0.99438 0.91819 0.10931 0.0
N394 N 0.0814 0.9364 -0.01634 0.0
N395 N 0.02182 0.93348 0.09997 0.0
H396 H 0.72472 0.46504 0.41857 0.0
H397 H 0.86614 0.47634 0.28011 0.0
H398 H 0.78512 0.53091 0.25182 0.0
H399 H 0.80958 0.41799 0.47624 0.0
H400 H 0.83811 0.49796 0.27288 0.0
H401 H 0.75619 0.4483 0.44149 0.0
C402 C 0.7446 0.47601 0.38635 0.0
C403 C 0.75215 0.4994 0.33253 0.0
C404 C 0.832 0.48065 0.3184 0.0
C405 C 0.78858 0.4802 0.35925 0.0
C406 C 0.84806 0.46838 0.3229 0.0
C407 C 0.8401 0.44532 0.37873 0.0
C408 C 0.80768 0.46959 0.36946 0.0
C409 C 0.81646 0.43576 0.43239 0.0
C410 C 0.76267 0.46646 0.40005 0.0
C411 C 0.77835 0.51276 0.29349 0.0
N412 N 0.80095 0.44776 0.42569 0.0
N413 N 0.79557 0.50288 0.30723 0.0
H414 H 0.64752 0.41497 0.49349 0.0
H415 H 0.52904 0.27651 0.27622 0.0
H416 H 0.58896 0.41275 0.299 0.0
H417 H 0.59712 0.28308 0.43032 0.0
H418 H 0.54666 0.3253 0.29966 0.0
H419 H 0.62461 0.36531 0.48986 0.0
C420 C 0.62954 0.40398 0.45127 0.0
C421 C 0.62018 0.41793 0.39616 0.0
C422 C 0.55763 0.31596 0.32846 0.0
C423 C 0.59406 0.36115 0.39042 0.0
C424 C 0.5476 0.28813 0.31505 0.0
C425 C 0.56171 0.27566 0.35053 0.0
C426 C 0.58178 0.33132 0.37845 0.0
C427 C 0.58563 0.29176 0.40068 0.0
C428 C 0.61657 0.37564 0.44864 0.0
C429 C 0.59686 0.40272 0.34237 0.0
N430 N 0.59486 0.31864 0.41298 0.0
N431 N 0.5847 0.37514 0.34026 0.0
H432 H 0.6505 0.2609 0.48458 0.0
H433 H 0.78739 0.28009 0.25151 0.0
H434 H 0.65236 0.20187 0.30262 0.0
H435 H 0.78201 0.34264 0.40292 0.0
H436 H 0.7389 0.24925 0.28098 0.0
H437 H 0.69995 0.28874 0.47072 0.0
C438 C 0.6614 0.25358 0.44306 0.0
C439 C 0.64738 0.22913 0.39445 0.0
C440 C 0.74839 0.26974 0.30767 0.0
C441 C 0.70386 0.26103 0.37684 0.0
C442 C 0.77606 0.28739 0.2906 0.0
C443 C 0.78885 0.3141 0.32421 0.0
C444 C 0.73344 0.2788 0.35922 0.0
C445 C 0.7731 0.32233 0.37498 0.0
C446 C 0.6896 0.26957 0.4345 0.0
C447 C 0.66245 0.22065 0.34115 0.0
N448 N 0.74631 0.30478 0.3909 0.0
N449 N 0.68987 0.23667 0.33318 0.0
H450 H 0.47763 0.75237 0.81849 0.0
H451 H 0.4524 0.86587 0.58096 0.0
H452 H 0.53141 0.80919 0.61316 0.0
H453 H 0.39353 0.8001 0.75183 0.0
H454 H 0.48423 0.84909 0.60518 0.0
H455 H 0.44972 0.77407 0.81128 0.0
C456 C 0.48383 0.76974 0.77315 0.0
C457 C 0.50677 0.77896 0.71611 0.0
C458 C 0.46434 0.8384 0.6374 0.0
C459 C 0.47475 0.80364 0.70622 0.0
C460 C 0.44614 0.84794 0.62345 0.0
C461 C 0.42013 0.83429 0.66375 0.0
C462 C 0.45656 0.81519 0.69262 0.0
C463 C 0.41323 0.81121 0.71858 0.0
C464 C 0.46778 0.782 0.76845 0.0
C465 C 0.51382 0.80145 0.65819 0.0
N466 N 0.43129 0.80244 0.7313 0.0
N467 N 0.49775 0.81291 0.65419 0.0
H468 H 0.19612 0.60932 0.60724 0.0
H469 H 0.31502 0.74798 0.82217 0.0
H470 H 0.26417 0.61588 0.76155 0.0
H471 H 0.25624 0.74561 0.62842 0.0
H472 H 0.2921 0.69831 0.81897 0.0
H473 H 0.21394 0.65819 0.62962 0.0
C474 C 0.21472 0.62095 0.64588 0.0
C475 C 0.22876 0.60845 0.68176 0.0
C476 C 0.28402 0.70861 0.77779 0.0
C477 C 0.24906 0.66421 0.70845 0.0
C478 C 0.29701 0.73695 0.78018 0.0
C479 C 0.28757 0.75087 0.72519 0.0
C480 C 0.26143 0.69407 0.71996 0.0
C481 C 0.2642 0.73561 0.67169 0.0
C482 C 0.22487 0.64883 0.65869 0.0
C483 C 0.25273 0.62457 0.73163 0.0
N484 N 0.25203 0.70803 0.66983 0.0
N485 N 0.26207 0.6515 0.74335 0.0
H486 H 0.44872 0.67783 0.73563 0.0
H487 H 0.31833 0.53272 0.64229 0.0
H488 H 0.4531 0.61351 0.59248 0.0
H489 H 0.31735 0.59452 0.81179 0.0
H490 H 0.36779 0.56085 0.62797 0.0
H491 H 0.40069 0.64707 0.7651 0.0
C492 C 0.4396 0.65724 0.70988 0.0
C493 C 0.45508 0.64834 0.66095 0.0
C494 C 0.35681 0.56812 0.66925 0.0
C495 C 0.39973 0.61276 0.6954 0.0
C496 C 0.32861 0.55201 0.67788 0.0
C497 C 0.31378 0.56138 0.72815 0.0
C498 C 0.37021 0.59387 0.71058 0.0
C499 C 0.32804 0.58654 0.77248 0.0
C500 C 0.4121 0.63961 0.72734 0.0
C501 C 0.44199 0.62133 0.63011 0.0
N502 N 0.35542 0.60203 0.76189 0.0
N503 N 0.41504 0.60452 0.6476 0.0
H504 H 0.0634 0.20823 0.73291 0.0
H505 H 0.9973 0.18021 0.22761 0.0
H506 H 0.97708 0.16599 0.68239 0.0
H507 H 0.08364 0.22692 0.27597 0.0
H508 H 0.98965 0.1735 0.39443 0.0
H509 H 0.07154 0.21477 0.56577 0.0
C510 C 0.0462 0.20044 0.68651 0.0
C511 C 1.01955 0.18652 0.72101 0.0
C512 C 1.01029 0.18521 0.36868 0.0
C513 C 0.02861 0.19369 0.53053 0.0
C514 C 1.01464 0.18897 0.27351 0.0
C515 C 0.04111 0.20425 0.23843 0.0
C516 C 0.03259 0.19679 0.42902 0.0
C517 C 0.06289 0.21508 0.30056 0.0
C518 C 0.05082 0.20411 0.59128 0.0
C519 C 0.99794 0.1768 0.65837 0.0
N520 N 0.05816 0.2112 0.39304 0.0
N521 N 1.00294 0.1805 0.56609 0.0
H522 H 0.85471 0.87701 0.74536 0.0
H523 H 0.8851 0.84139 0.2397 0.0
H524 H 0.89779 0.83369 0.69379 0.0
H525 H 0.83671 0.8793 0.28947 0.0
H526 H 0.89172 0.84035 0.40623 0.0
H527 H 0.84873 0.87921 0.57849 0.0
C528 C 0.86273 0.86781 0.69879 0.0
C529 C 0.87672 0.85513 0.73284 0.0
C530 C 0.87968 0.84894 0.38084 0.0
C531 C 0.8703 0.8578 0.54273 0.0
C532 C 0.87597 0.8496 0.28587 0.0
C533 C 0.86019 0.86026 0.25137 0.0
C534 C 0.86752 0.85906 0.44147 0.0
C535 C 0.84892 0.87078 0.31371 0.0
C536 C 0.85942 0.86916 0.60371 0.0
C537 C 0.88689 0.84367 0.67001 0.0
N538 N 0.85273 0.86984 0.40602 0.0
N539 N 0.88353 0.84534 0.57783 0.0
H540 H 0.23366 0.088 0.6829 0.0
H541 H 0.18158 0.97865 0.27552 0.0
H542 H 0.18616 1.00152 0.73082 0.0
H543 H 0.22476 0.06539 0.23031 0.0
H544 H 0.18316 0.98631 0.4424 0.0
H545 H 0.23142 0.07985 0.51674 0.0
C546 C 0.22283 0.06726 0.65825 0.0
C547 C 0.21 0.04538 0.72028 0.0
C548 C 0.19223 1.00367 0.39601 0.0
C549 C 0.20725 0.03587 0.53032 0.0
C550 C 0.19129 0.9993 0.30087 0.0
C551 C 0.20319 0.02144 0.23946 0.0
C552 C 0.2052 0.03037 0.42972 0.0
C553 C 0.21544 0.04778 0.27553 0.0
C554 C 0.22149 0.06261 0.5634 0.0
C555 C 0.19629 0.01893 0.68497 0.0
N556 N 0.21622 0.05151 0.36842 0.0
N557 N 0.19524 0.01489 0.59209 0.0
H558 H 0.75157 0.56027 0.60975 0.0
H559 H 0.64243 0.50031 0.02156 0.0
H560 H 0.66486 0.51518 0.56784 0.0
H561 H 0.72903 0.54143 0.06578 0.0
H562 H 0.65045 0.50655 0.85503 0.0
H563 H 0.74398 0.55395 0.77691 0.0
C564 C 0.73094 0.54894 0.63589 0.0
C565 C 0.70878 0.53833 0.57531 0.0
C566 C 0.66773 0.51425 0.90097 0.0
C567 C 0.69994 0.53113 0.76593 0.0
C568 C 0.66316 0.51076 -0.00398 0.0
C569 C 0.68512 0.52031 0.05712 0.0
C570 C 0.69448 0.52746 0.86675 0.0
C571 C 0.71156 0.53374 0.02068 0.0
C572 C 0.72662 0.54538 0.73119 0.0
C573 C 0.68248 0.52376 0.6124 0.0
N574 N 0.71553 0.53689 0.92764 0.0
N575 N 0.67878 0.52067 0.70544 0.0
H576 H 0.55249 0.17573 0.57384 0.0
H577 H 0.52117 0.21047 0.07944 0.0
H578 H 0.5036 0.21311 0.62348 0.0
H579 H 0.56491 0.1678 0.02786 0.0
H580 H 0.51531 0.21276 0.91254 0.0
H581 H 0.55901 0.17462 0.74039 0.0
C582 C 0.54324 0.18381 0.61999 0.0
C583 C 0.52733 0.19434 0.58546 0.0
C584 C 0.52612 0.20284 0.93776 0.0
C585 C 0.53455 0.19305 0.77555 0.0
C586 C 0.52936 0.20144 0.03285 0.0
C587 C 0.54352 0.18893 0.06689 0.0
C588 C 0.53722 0.1917 0.8768 0.0
C589 C 0.55388 0.17765 0.00407 0.0
C590 C 0.54689 0.18311 0.71496 0.0
C591 C 0.51591 0.20471 0.64776 0.0
N592 N 0.55059 0.17937 0.91189 0.0
N593 N 0.51965 0.20371 0.74008 0.0
H594 H 0.84842 0.31298 0.60327 0.0
H595 H 0.90136 0.42238 0.01052 0.0
H596 H 0.89196 0.39972 0.5579 0.0
H597 H 0.85382 0.3359 0.05845 0.0
H598 H 0.89892 0.41423 0.84431 0.0
H599 H 0.85023 0.32069 0.77014 0.0
C600 C 0.85825 0.33365 0.62858 0.0
C601 C 0.87019 0.35577 0.56714 0.0
C602 C 0.88903 0.397 0.891 0.0
C603 C 0.87247 0.36474 0.75737 0.0
C604 C 0.89049 0.40164 -0.01414 0.0
C605 C 0.87769 0.37976 0.04789 0.0
C606 C 0.8747 0.37025 0.85794 0.0
C607 C 0.86392 0.35331 0.0126 0.0
C608 C 0.85932 0.33803 0.72372 0.0
C609 C 0.88259 0.38212 0.60316 0.0
N610 N 0.86274 0.34927 0.91971 0.0
N611 N 0.88351 0.38588 0.69605 0.0
H612 H 0.39692 0.87637 0.39926 0.0
H613 H 0.33087 0.84642 0.89379 0.0
H614 H 0.31061 0.83241 0.34843 0.0
H615 H 0.41707 0.89495 0.94229 0.0
H616 H 0.32326 0.83973 0.06059 0.0
H617 H 0.40505 0.88285 0.23213 0.0
C618 C 0.37971 0.8682 0.35279 0.0
C619 C 0.35307 0.85381 0.38719 0.0
C620 C 0.34386 0.85183 0.03488 0.0
C621 C 0.36213 0.86089 0.19675 0.0
C622 C 0.34819 0.85558 0.93972 0.0
C623 C 0.3746 0.87138 0.90469 0.0
C624 C 0.36613 0.86394 0.09525 0.0
C625 C 0.39637 0.88271 0.96685 0.0
C626 C 0.38434 0.87183 0.25757 0.0
C627 C 0.33146 0.84359 0.32447 0.0
N628 N 0.39165 0.87883 0.05933 0.0
N629 N 0.33647 0.84727 0.2322 0.0
H630 H 0.17064 0.54751 0.95448 0.0
H631 H 0.23117 0.4987 0.36413 0.0
H632 H 0.21735 0.50748 0.91119 0.0
H633 H 0.18859 0.54282 0.40958 0.0
H634 H 0.22541 0.50099 0.19769 0.0
H635 H 0.17684 0.54608 0.12143 0.0
C636 C 0.18232 0.53855 -0.01972 0.0
C637 C 0.19337 0.52743 0.91948 0.0
C638 C 0.21727 0.51015 0.24392 0.0
C639 C 0.2004 0.52558 0.10964 0.0
C640 C 0.22048 0.50877 0.33886 0.0
C641 C 0.21036 0.52063 0.4002 0.0
C642 C 0.2038 0.52347 0.2102 0.0
C643 C 0.19665 0.53339 0.36426 0.0
C644 C 0.1858 0.53768 0.07542 0.0
C645 C 0.2084 0.51615 0.95601 0.0
N646 N 0.1938 0.53453 0.27134 0.0
N647 N 0.21137 0.5154 0.0489 0.0
H648 H 0.56813 0.75597 0.34547 0.0
H649 H 0.5146 0.64657 0.93803 0.0
H650 H 0.51965 0.66956 0.39323 0.0
H651 H 0.55887 0.7333 0.89268 0.0
H652 H 0.51637 0.6543 0.10491 0.0
H653 H 0.5658 0.7478 0.17926 0.0
C654 C 0.55707 0.73524 0.32078 0.0
C655 C 0.54398 0.71339 0.38278 0.0
C656 C 0.52564 0.67164 0.05849 0.0
C657 C 0.54113 0.70387 0.19278 0.0
C658 C 0.52459 0.66724 0.96334 0.0
C659 C 0.53673 0.68935 0.90189 0.0
C660 C 0.53897 0.69835 0.09217 0.0
C661 C 0.54934 0.71571 0.93794 0.0
C662 C 0.55568 0.73059 0.22591 0.0
C663 C 0.52998 0.68695 0.34742 0.0
N664 N 0.55023 0.71948 0.03083 0.0
N665 N 0.52888 0.68291 0.25453 0.0
loop_
_geom_bond_atom_site_label_1
_geom_bond_atom_site_label_2
_geom_bond_distance
_geom_bond_site_symmetry_2
_ccdc_geom_bond_type
Dy0 O4 2.398 . S
Dy0 O5 2.491 1_554 S
Dy0 O6 2.403 . S
Dy0 O7 2.664 . S
Dy0 O11 2.326 . S
Dy0 O15 2.310 1_554 S
Dy0 O16 2.351 . S
C1 O12 1.185 1_554 S
C1 O13 1.355 . S
C2 O4 1.185 1_556 S
C2 O5 1.355 . S
Dy3 O7 2.310 1_655 S
Dy3 O10 2.351 . S
Dy3 O12 2.398 1_554 S
Dy3 O13 2.491 . S
Dy3 O14 2.403 1_554 S
Dy3 O15 2.664 1_654 S
Dy3 O17 2.326 1_654 S
O4 Dy0 2.398 . S
O4 C2 1.185 1_554 S
O5 Dy0 2.491 1_556 S
O5 C2 1.355 . S
O6 Dy0 2.403 . S
O6 C8 1.254 . S
O7 Dy0 2.664 . S
O7 Dy3 2.310 1_455 S
O7 C8 1.268 . S
C8 O6 1.254 . S
C8 O7 1.268 . S
C9 O14 1.254 1_455 S
C9 O15 1.268 . S
O10 Dy3 2.351 . S
O10 C18 1.249 . S
O11 Dy0 2.326 . S
O11 C18 1.267 1_455 S
O12 C1 1.185 1_556 S
O12 Dy3 2.398 1_556 S
O13 C1 1.355 . S
O13 Dy3 2.491 . S
O14 Dy3 2.403 1_556 S
O14 C9 1.254 1_655 S
O15 Dy0 2.310 1_556 S
O15 Dy3 2.664 1_456 S
O15 C9 1.268 . S
O16 Dy0 2.351 . S
O16 C19 1.249 1_554 S
O17 Dy3 2.326 1_456 S
O17 C19 1.267 . S
C18 O10 1.249 . S
C18 O11 1.267 1_655 S
C19 O16 1.249 1_556 S
C19 O17 1.267 . S
Dy20 O24 2.398 . S
Dy20 O25 2.491 1_554 S
Dy20 O26 2.403 . S
Dy20 O27 2.664 . S
Dy20 O31 2.326 . S
Dy20 O35 2.310 1_554 S
Dy20 O36 2.351 . S
C21 O32 1.185 1_554 S
C21 O33 1.355 . S
C22 O24 1.185 1_556 S
C22 O25 1.355 . S
Dy23 O27 2.310 . S
Dy23 O30 2.351 . S
Dy23 O32 2.398 1_554 S
Dy23 O33 2.491 . S
Dy23 O34 2.403 1_554 S
Dy23 O35 2.664 1_554 S
Dy23 O37 2.326 1_554 S
O24 Dy20 2.398 . S
O24 C22 1.185 1_554 S
O25 Dy20 2.491 1_556 S
O25 C22 1.355 . S
O26 Dy20 2.403 . S
O26 C28 1.254 . S
O27 Dy20 2.664 . S
O27 Dy23 2.310 . S
O27 C28 1.268 . S
C28 O26 1.254 . S
C28 O27 1.268 . S
C29 O34 1.254 . S
C29 O35 1.268 . S
O30 Dy23 2.351 . S
O30 C38 1.249 . S
O31 Dy20 2.326 . S
O31 C38 1.267 . S
O32 C21 1.185 1_556 S
O32 Dy23 2.398 1_556 S
O33 C21 1.355 . S
O33 Dy23 2.491 . S
O34 Dy23 2.403 1_556 S
O34 C29 1.254 . S
O35 Dy20 2.310 1_556 S
O35 Dy23 2.664 1_556 S
O35 C29 1.268 . S
O36 Dy20 2.351 . S
O36 C39 1.249 1_554 S
O37 Dy23 2.326 1_556 S
O37 C39 1.267 . S
C38 O30 1.249 . S
C38 O31 1.267 . S
C39 O36 1.249 1_556 S
C39 O37 1.267 . S
Dy40 O44 2.398 . S
Dy40 O45 2.491 1_554 S
Dy40 O46 2.403 . S
Dy40 O47 2.664 1_565 S
Dy40 O51 2.326 1_565 S
Dy40 O55 2.310 1_564 S
Dy40 O56 2.351 . S
C41 O52 1.185 1_554 S
C41 O53 1.355 . S
C42 O44 1.185 1_556 S
C42 O45 1.355 . S
Dy43 O47 2.310 . S
Dy43 O50 2.351 . S
Dy43 O52 2.398 1_554 S
Dy43 O53 2.491 . S
Dy43 O54 2.403 1_554 S
Dy43 O55 2.664 1_554 S
Dy43 O57 2.326 1_554 S
O44 Dy40 2.398 . S
O44 C42 1.185 1_554 S
O45 Dy40 2.491 1_556 S
O45 C42 1.355 . S
O46 Dy40 2.403 . S
O46 C48 1.254 1_565 S
O47 Dy40 2.664 1_545 S
O47 Dy43 2.310 . S
O47 C48 1.268 . S
C48 O46 1.254 1_545 S
C48 O47 1.268 . S
C49 O54 1.254 . S
C49 O55 1.268 . S
O50 Dy43 2.351 . S
O50 C58 1.249 . S
O51 Dy40 2.326 1_545 S
O51 C58 1.267 . S
O52 C41 1.185 1_556 S
O52 Dy43 2.398 1_556 S
O53 C41 1.355 . S
O53 Dy43 2.491 . S
O54 Dy43 2.403 1_556 S
O54 C49 1.254 . S
O55 Dy40 2.310 1_546 S
O55 Dy43 2.664 1_556 S
O55 C49 1.268 . S
O56 Dy40 2.351 . S
O56 C59 1.249 1_554 S
O57 Dy43 2.326 1_556 S
O57 C59 1.267 1_545 S
C58 O50 1.249 . S
C58 O51 1.267 . S
C59 O56 1.249 1_556 S
C59 O57 1.267 1_565 S
Dy60 O64 2.398 . S
Dy60 O65 2.491 . S
Dy60 O66 2.403 . S
Dy60 O67 2.664 . S
Dy60 O71 2.326 . S
Dy60 O75 2.310 . S
Dy60 O76 2.351 . S
C61 O72 1.185 . S
C61 O73 1.355 . S
C62 O64 1.185 . S
C62 O65 1.355 . S
Dy63 O67 2.310 . S
Dy63 O70 2.351 . S
Dy63 O72 2.398 . S
Dy63 O73 2.491 . S
Dy63 O74 2.403 . S
Dy63 O75 2.664 . S
Dy63 O77 2.326 . S
O64 Dy60 2.398 . S
O64 C62 1.185 . S
O65 Dy60 2.491 . S
O65 C62 1.355 . S
O66 Dy60 2.403 . S
O66 C68 1.254 . S
O67 Dy60 2.664 . S
O67 Dy63 2.310 . S
O67 C68 1.268 . S
C68 O66 1.254 . S
C68 O67 1.268 . S
C69 O74 1.254 . S
C69 O75 1.268 . S
O70 Dy63 2.351 . S
O70 C78 1.249 . S
O71 Dy60 2.326 . S
O71 C78 1.267 . S
O72 C61 1.185 . S
O72 Dy63 2.398 . S
O73 C61 1.355 . S
O73 Dy63 2.491 . S
O74 Dy63 2.403 . S
O74 C69 1.254 . S
O75 Dy60 2.310 . S
O75 Dy63 2.664 . S
O75 C69 1.268 . S
O76 Dy60 2.351 . S
O76 C79 1.249 . S
O77 Dy63 2.326 . S
O77 C79 1.267 . S
C78 O70 1.249 . S
C78 O71 1.267 . S
C79 O76 1.249 . S
C79 O77 1.267 . S
Dy80 O84 2.398 . S
Dy80 O85 2.491 . S
Dy80 O86 2.403 . S
Dy80 O87 2.664 . S
Dy80 O91 2.326 . S
Dy80 O95 2.310 . S
Dy80 O96 2.351 . S
C81 O92 1.185 . S
C81 O93 1.355 . S
C82 O84 1.185 . S
C82 O85 1.355 . S
Dy83 O87 2.310 . S
Dy83 O90 2.351 . S
Dy83 O92 2.398 . S
Dy83 O93 2.491 . S
Dy83 O94 2.403 . S
Dy83 O95 2.664 . S
Dy83 O97 2.326 . S
O84 Dy80 2.398 . S
O84 C82 1.185 . S
O85 Dy80 2.491 . S
O85 C82 1.355 . S
O86 Dy80 2.403 . S
O86 C88 1.254 . S
O87 Dy80 2.664 . S
O87 Dy83 2.310 . S
O87 C88 1.268 . S
C88 O86 1.254 . S
C88 O87 1.268 . S
C89 O94 1.254 . S
C89 O95 1.268 . S
O90 Dy83 2.351 . S
O90 C98 1.249 . S
O91 Dy80 2.326 . S
O91 C98 1.267 . S
O92 C81 1.185 . S
O92 Dy83 2.398 . S
O93 C81 1.355 . S
O93 Dy83 2.491 . S
O94 Dy83 2.403 . S
O94 C89 1.254 . S
O95 Dy80 2.310 . S
O95 Dy83 2.664 . S
O95 C89 1.268 . S
O96 Dy80 2.351 . S
O96 C99 1.249 . S
O97 Dy83 2.326 . S
O97 C99 1.267 . S
C98 O90 1.249 . S
C98 O91 1.267 . S
C99 O96 1.249 . S
C99 O97 1.267 . S
Dy100 O104 2.398 . S
Dy100 O105 2.491 . S
Dy100 O106 2.403 . S
Dy100 O107 2.664 . S
Dy100 O111 2.326 . S
Dy100 O115 2.310 . S
Dy100 O116 2.351 . S
C101 O112 1.185 . S
C101 O113 1.355 . S
C102 O104 1.185 . S
C102 O105 1.355 . S
Dy103 O107 2.310 . S
Dy103 O110 2.351 . S
Dy103 O112 2.398 . S
Dy103 O113 2.491 . S
Dy103 O114 2.403 . S
Dy103 O115 2.664 . S
Dy103 O117 2.326 . S
O104 Dy100 2.398 . S
O104 C102 1.185 . S
O105 Dy100 2.491 . S
O105 C102 1.355 . S
O106 Dy100 2.403 . S
O106 C108 1.254 . S
O107 Dy100 2.664 . S
O107 Dy103 2.310 . S
O107 C108 1.268 . S
C108 O106 1.254 . S
C108 O107 1.268 . S
C109 O114 1.254 . S
C109 O115 1.268 . S
O110 Dy103 2.351 . S
O110 C118 1.249 . S
O111 Dy100 2.326 . S
O111 C118 1.267 . S
O112 C101 1.185 . S
O112 Dy103 2.398 . S
O113 C101 1.355 . S
O113 Dy103 2.491 . S
O114 Dy103 2.403 . S
O114 C109 1.254 . S
O115 Dy100 2.310 . S
O115 Dy103 2.664 . S
O115 C109 1.268 . S
O116 Dy100 2.351 . S
O116 C119 1.249 . S
O117 Dy103 2.326 . S
O117 C119 1.267 . S
C118 O110 1.249 . S
C118 O111 1.267 . S
C119 O116 1.249 . S
C119 O117 1.267 . S
Dy120 O124 2.398 . S
Dy120 O125 2.491 . S
Dy120 O126 2.403 . S
Dy120 O127 2.664 . S
Dy120 O131 2.326 . S
Dy120 O135 2.310 . S
Dy120 O136 2.351 . S
C121 O132 1.185 . S
C121 O133 1.355 . S
C122 O124 1.185 . S
C122 O125 1.355 . S
Dy123 O127 2.310 . S
Dy123 O130 2.351 . S
Dy123 O132 2.398 . S
Dy123 O133 2.491 . S
Dy123 O134 2.403 . S
Dy123 O135 2.664 . S
Dy123 O137 2.326 . S
O124 Dy120 2.398 . S
O124 C122 1.185 . S
O125 Dy120 2.491 . S
O125 C122 1.355 . S
O126 Dy120 2.403 . S
O126 C128 1.254 . S
O127 Dy120 2.664 . S
O127 Dy123 2.310 . S
O127 C128 1.268 . S
C128 O126 1.254 . S
C128 O127 1.268 . S
C129 O134 1.254 . S
C129 O135 1.268 . S
O130 Dy123 2.351 . S
O130 C138 1.249 . S
O131 Dy120 2.326 . S
O131 C138 1.267 . S
O132 C121 1.185 . S
O132 Dy123 2.398 . S
O133 C121 1.355 . S
O133 Dy123 2.491 . S
O134 Dy123 2.403 . S
O134 C129 1.254 . S
O135 Dy120 2.310 . S
O135 Dy123 2.664 . S
O135 C129 1.268 . S
O136 Dy120 2.351 . S
O136 C139 1.249 . S
O137 Dy123 2.326 . S
O137 C139 1.267 . S
C138 O130 1.249 . S
C138 O131 1.267 . S
C139 O136 1.249 . S
C139 O137 1.267 . S
Dy140 O144 2.398 . S
Dy140 O145 2.491 . S
Dy140 O146 2.403 . S
Dy140 O147 2.664 . S
Dy140 O151 2.326 . S
Dy140 O155 2.310 . S
Dy140 O156 2.351 . S
C141 O152 1.185 . S
C141 O153 1.355 . S
C142 O144 1.185 . S
C142 O145 1.355 . S
Dy143 O147 2.310 . S
Dy143 O150 2.351 . S
Dy143 O152 2.398 . S
Dy143 O153 2.491 . S
Dy143 O154 2.403 . S
Dy143 O155 2.664 . S
Dy143 O157 2.326 . S
O144 Dy140 2.398 . S
O144 C142 1.185 . S
O145 Dy140 2.491 . S
O145 C142 1.355 . S
O146 Dy140 2.403 . S
O146 C148 1.254 . S
O147 Dy140 2.664 . S
O147 Dy143 2.310 . S
O147 C148 1.268 . S
C148 O146 1.254 . S
C148 O147 1.268 . S
C149 O154 1.254 . S
C149 O155 1.268 . S
O150 Dy143 2.351 . S
O150 C158 1.249 . S
O151 Dy140 2.326 . S
O151 C158 1.267 . S
O152 C141 1.185 . S
O152 Dy143 2.398 . S
O153 C141 1.355 . S
O153 Dy143 2.491 . S
O154 Dy143 2.403 . S
O154 C149 1.254 . S
O155 Dy140 2.310 . S
O155 Dy143 2.664 . S
O155 C149 1.268 . S
O156 Dy140 2.351 . S
O156 C159 1.249 . S
O157 Dy143 2.326 . S
O157 C159 1.267 . S
C158 O150 1.249 . S
C158 O151 1.267 . S
C159 O156 1.249 . S
C159 O157 1.267 . S
Dy160 O164 2.398 . S
Dy160 O165 2.491 . S
Dy160 O166 2.403 . S
Dy160 O167 2.664 . S
Dy160 O171 2.326 . S
Dy160 O175 2.310 . S
Dy160 O176 2.351 . S
C161 O172 1.185 . S
C161 O173 1.355 . S
C162 O164 1.185 . S
C162 O165 1.355 . S
Dy163 O167 2.310 . S
Dy163 O170 2.351 . S
Dy163 O172 2.398 . S
Dy163 O173 2.491 . S
Dy163 O174 2.403 . S
Dy163 O175 2.664 . S
Dy163 O177 2.326 . S
O164 Dy160 2.398 . S
O164 C162 1.185 . S
O165 Dy160 2.491 . S
O165 C162 1.355 . S
O166 Dy160 2.403 . S
O166 C168 1.254 . S
O167 Dy160 2.664 . S
O167 Dy163 2.310 . S
O167 C168 1.268 . S
C168 O166 1.254 . S
C168 O167 1.268 . S
C169 O174 1.254 . S
C169 O175 1.268 . S
O170 Dy163 2.351 . S
O170 C178 1.249 . S
O171 Dy160 2.326 . S
O171 C178 1.267 . S
O172 C161 1.185 . S
O172 Dy163 2.398 . S
O173 C161 1.355 . S
O173 Dy163 2.491 . S
O174 Dy163 2.403 . S
O174 C169 1.254 . S
O175 Dy160 2.310 . S
O175 Dy163 2.664 . S
O175 C169 1.268 . S
O176 Dy160 2.351 . S
O176 C179 1.249 . S
O177 Dy163 2.326 . S
O177 C179 1.267 . S
C178 O170 1.249 . S
C178 O171 1.267 . S
C179 O176 1.249 . S
C179 O177 1.267 . S
H180 C186 0.930 . S
H181 C190 0.930 . S
H182 C195 0.929 1_554 S
H183 C193 0.929 . S
H184 C188 0.929 . S
H185 C194 0.929 . S
C186 H180 0.930 . S
C186 C187 1.367 . S
C186 C194 1.378 . S
C187 C186 1.367 . S
C187 C195 1.433 . S
C188 H184 0.929 . S
C188 C190 1.378 . S
C188 C192 1.350 . S
C189 C192 1.463 . S
C189 C194 1.350 . S
C189 N197 1.427 . S
C190 H181 0.930 . S
C190 C188 1.378 . S
C190 C191 1.367 . S
C191 C190 1.367 . S
C191 C193 1.433 . S
C192 C188 1.350 . S
C192 C189 1.463 . S
C192 N196 1.427 . S
C193 H183 0.929 . S
C193 C191 1.433 . S
C193 N196 1.384 . S
C194 H185 0.929 . S
C194 C186 1.378 . S
C194 C189 1.350 . S
C195 H182 0.929 1_556 S
C195 C187 1.433 . S
C195 N197 1.384 . S
N196 C192 1.427 . S
N196 C193 1.384 . S
N197 C189 1.427 . S
N197 C195 1.384 . S
H198 C204 0.930 . S
H199 C208 0.930 . S
H200 C213 0.929 1_554 S
H201 C211 0.929 . S
H202 C206 0.929 . S
H203 C212 0.929 . S
C204 H198 0.930 . S
C204 C205 1.367 . S
C204 C212 1.378 . S
C205 C204 1.367 . S
C205 C213 1.433 . S
C206 H202 0.929 . S
C206 C208 1.378 . S
C206 C210 1.350 . S
C207 C210 1.463 . S
C207 C212 1.350 . S
C207 N215 1.427 . S
C208 H199 0.930 . S
C208 C206 1.378 . S
C208 C209 1.367 . S
C209 C208 1.367 . S
C209 C211 1.433 . S
C210 C206 1.350 . S
C210 C207 1.463 . S
C210 N214 1.427 . S
C211 H201 0.929 . S
C211 C209 1.433 . S
C211 N214 1.384 . S
C212 H203 0.929 . S
C212 C204 1.378 . S
C212 C207 1.350 . S
C213 H200 0.929 1_556 S
C213 C205 1.433 . S
C213 N215 1.384 . S
N214 C210 1.427 . S
N214 C211 1.384 . S
N215 C207 1.427 . S
N215 C213 1.384 . S
H216 C222 0.930 . S
H217 C226 0.930 . S
H218 C231 0.929 . S
H219 C229 0.929 . S
H220 C224 0.929 . S
H221 C230 0.929 . S
C222 H216 0.930 . S
C222 C223 1.367 . S
C222 C230 1.378 . S
C223 C222 1.367 . S
C223 C231 1.433 . S
C224 H220 0.929 . S
C224 C226 1.378 . S
C224 C228 1.350 . S
C225 C228 1.463 . S
C225 C230 1.350 . S
C225 N233 1.427 . S
C226 H217 0.930 . S
C226 C224 1.378 . S
C226 C227 1.367 . S
C227 C226 1.367 . S
C227 C229 1.433 . S
C228 C224 1.350 . S
C228 C225 1.463 . S
C228 N232 1.427 . S
C229 H219 0.929 . S
C229 C227 1.433 . S
C229 N232 1.384 . S
C230 H221 0.929 . S
C230 C222 1.378 . S
C230 C225 1.350 . S
C231 H218 0.929 . S
C231 C223 1.433 . S
C231 N233 1.384 . S
N232 C228 1.427 . S
N232 C229 1.384 . S
N233 C225 1.427 . S
N233 C231 1.384 . S
H234 C240 0.930 . S
H235 C244 0.930 1_556 S
H236 C249 0.929 . S
H237 C247 0.929 . S
H238 C242 0.929 . S
H239 C248 0.929 . S
C240 H234 0.930 . S
C240 C241 1.367 . S
C240 C248 1.378 . S
C241 C240 1.367 . S
C241 C249 1.433 . S
C242 H238 0.929 . S
C242 C244 1.378 . S
C242 C246 1.350 . S
C243 C246 1.463 . S
C243 C248 1.350 . S
C243 N251 1.427 . S
C244 H235 0.930 1_554 S
C244 C242 1.378 . S
C244 C245 1.367 . S
C245 C244 1.367 . S
C245 C247 1.433 . S
C246 C242 1.350 . S
C246 C243 1.463 . S
C246 N250 1.427 . S
C247 H237 0.929 . S
C247 C245 1.433 . S
C247 N250 1.384 . S
C248 H239 0.929 . S
C248 C240 1.378 . S
C248 C243 1.350 . S
C249 H236 0.929 . S
C249 C241 1.433 . S
C249 N251 1.384 . S
N250 C246 1.427 . S
N250 C247 1.384 . S
N251 C243 1.427 . S
N251 C249 1.384 . S
H252 C258 0.930 . S
H253 C262 0.930 1_455 S
H254 C267 0.929 . S
H255 C265 0.929 . S
H256 C260 0.929 . S
H257 C266 0.929 . S
C258 H252 0.930 . S
C258 C259 1.367 . S
C258 C266 1.378 . S
C259 C258 1.367 . S
C259 C267 1.433 . S
C260 H256 0.929 . S
C260 C262 1.378 . S
C260 C264 1.350 . S
C261 C264 1.463 . S
C261 C266 1.350 . S
C261 N269 1.427 . S
C262 H253 0.930 1_655 S
C262 C260 1.378 . S
C262 C263 1.367 . S
C263 C262 1.367 . S
C263 C265 1.433 . S
C264 C260 1.350 . S
C264 C261 1.463 . S
C264 N268 1.427 . S
C265 H255 0.929 . S
C265 C263 1.433 . S
C265 N268 1.384 . S
C266 H257 0.929 . S
C266 C258 1.378 . S
C266 C261 1.350 . S
C267 H254 0.929 . S
C267 C259 1.433 . S
C267 N269 1.384 . S
N268 C264 1.427 . S
N268 C265 1.384 . S
N269 C261 1.427 . S
N269 C267 1.384 . S
H270 C276 0.930 . S
H271 C280 0.930 . S
H272 C285 0.929 . S
H273 C283 0.929 . S
H274 C278 0.929 . S
H275 C284 0.929 . S
C276 H270 0.930 . S
C276 C277 1.367 . S
C276 C284 1.378 . S
C277 C276 1.367 . S
C277 C285 1.433 . S
C278 H274 0.929 . S
C278 C280 1.378 . S
C278 C282 1.350 . S
C279 C282 1.463 . S
C279 C284 1.350 . S
C279 N287 1.427 . S
C280 H271 0.930 . S
C280 C278 1.378 . S
C280 C281 1.367 . S
C281 C280 1.367 . S
C281 C283 1.433 . S
C282 C278 1.350 . S
C282 C279 1.463 . S
C282 N286 1.427 . S
C283 H273 0.929 . S
C283 C281 1.433 . S
C283 N286 1.384 . S
C284 H275 0.929 . S
C284 C276 1.378 . S
C284 C279 1.350 . S
C285 H272 0.929 . S
C285 C277 1.433 . S
C285 N287 1.384 . S
N286 C282 1.427 . S
N286 C283 1.384 . S
N287 C279 1.427 . S
N287 C285 1.384 . S
H288 C294 0.930 . S
H289 C298 0.930 . S
H290 C303 0.929 . S
H291 C301 0.929 . S
H292 C296 0.929 . S
H293 C302 0.929 . S
C294 H288 0.930 . S
C294 C295 1.367 . S
C294 C302 1.378 . S
C295 C294 1.367 . S
C295 C303 1.433 . S
C296 H292 0.929 . S
C296 C298 1.378 . S
C296 C300 1.350 . S
C297 C300 1.463 1_455 S
C297 C302 1.350 . S
C297 N305 1.427 . S
C298 H289 0.930 . S
C298 C296 1.378 . S
C298 C299 1.367 . S
C299 C298 1.367 . S
C299 C301 1.433 . S
C300 C296 1.350 . S
C300 C297 1.463 1_655 S
C300 N304 1.427 . S
C301 H291 0.929 . S
C301 C299 1.433 . S
C301 N304 1.384 . S
C302 H293 0.929 . S
C302 C294 1.378 . S
C302 C297 1.350 . S
C303 H290 0.929 . S
C303 C295 1.433 . S
C303 N305 1.384 . S
N304 C300 1.427 . S
N304 C301 1.384 . S
N305 C297 1.427 . S
N305 C303 1.384 . S
H306 C312 0.930 . S
H307 C316 0.930 . S
H308 C321 0.929 . S
H309 C319 0.929 . S
H310 C314 0.929 . S
H311 C320 0.929 . S
C312 H306 0.930 . S
C312 C313 1.367 . S
C312 C320 1.378 . S
C313 C312 1.367 . S
C313 C321 1.433 . S
C314 H310 0.929 . S
C314 C316 1.378 . S
C314 C318 1.350 . S
C315 C318 1.463 . S
C315 C320 1.350 . S
C315 N323 1.427 . S
C316 H307 0.930 . S
C316 C314 1.378 . S
C316 C317 1.367 . S
C317 C316 1.367 . S
C317 C319 1.433 . S
C318 C314 1.350 . S
C318 C315 1.463 . S
C318 N322 1.427 . S
C319 H309 0.929 . S
C319 C317 1.433 . S
C319 N322 1.384 . S
C320 H311 0.929 . S
C320 C312 1.378 . S
C320 C315 1.350 . S
C321 H308 0.929 . S
C321 C313 1.433 . S
C321 N323 1.384 . S
N322 C318 1.427 . S
N322 C319 1.384 . S
N323 C315 1.427 . S
N323 C321 1.384 . S
H324 C330 0.930 . S
H325 C334 0.930 . S
H326 C339 0.929 . S
H327 C337 0.929 . S
H328 C332 0.927 . S
H329 C338 0.929 . S
C330 H324 0.930 . S
C330 C331 1.367 . S
C330 C338 1.378 . S
C331 C330 1.367 . S
C331 C339 1.433 . S
C332 H328 0.927 . S
C332 C334 1.378 . S
C332 C336 1.350 1_565 S
C333 C336 1.463 . S
C333 C338 1.350 . S
C333 N341 1.427 . S
C334 H325 0.930 . S
C334 C332 1.378 . S
C334 C335 1.367 . S
C335 C334 1.367 . S
C335 C337 1.433 . S
C336 C332 1.350 1_545 S
C336 C333 1.463 . S
C336 N340 1.427 . S
C337 H327 0.929 . S
C337 C335 1.433 . S
C337 N340 1.384 1_565 S
C338 H329 0.929 . S
C338 C330 1.378 . S
C338 C333 1.350 . S
C339 H326 0.929 . S
C339 C331 1.433 . S
C339 N341 1.384 . S
N340 C336 1.427 . S
N340 C337 1.384 1_545 S
N341 C333 1.427 . S
N341 C339 1.384 . S
H342 C348 0.930 . S
H343 C352 0.930 . S
H344 C357 0.929 . S
H345 C355 0.929 . S
H346 C350 0.929 . S
H347 C356 0.929 . S
C348 H342 0.930 . S
C348 C349 1.367 . S
C348 C356 1.378 . S
C349 C348 1.367 . S
C349 C357 1.433 1_554 S
C350 H346 0.929 . S
C350 C352 1.378 . S
C350 C354 1.350 1_556 S
C351 C354 1.463 . S
C351 C356 1.350 . S
C351 N359 1.427 1_554 S
C352 H343 0.930 . S
C352 C350 1.378 . S
C352 C353 1.367 1_556 S
C353 C352 1.367 1_554 S
C353 C355 1.433 . S
C354 C350 1.350 1_554 S
C354 C351 1.463 . S
C354 N358 1.427 . S
C355 H345 0.929 . S
C355 C353 1.433 . S
C355 N358 1.384 . S
C356 H347 0.929 . S
C356 C348 1.378 . S
C356 C351 1.350 . S
C357 H344 0.929 . S
C357 C349 1.433 1_556 S
C357 N359 1.384 . S
N358 C354 1.427 . S
N358 C355 1.384 . S
N359 C351 1.427 1_556 S
N359 C357 1.384 . S
H360 C366 0.930 . S
H361 C370 0.930 . S
H362 C375 0.929 . S
H363 C373 0.929 . S
H364 C368 0.929 . S
H365 C374 0.929 . S
C366 H360 0.930 . S
C366 C367 1.367 1_556 S
C366 C374 1.378 . S
C367 C366 1.367 1_554 S
C367 C375 1.433 . S
C368 H364 0.929 . S
C368 C370 1.378 . S
C368 C372 1.350 . S
C369 C372 1.463 1_565 S
C369 C374 1.350 1_554 S
C369 N377 1.427 . S
C370 H361 0.930 . S
C370 C368 1.378 . S
C370 C371 1.367 . S
C371 C370 1.367 . S
C371 C373 1.433 1_554 S
C372 C368 1.350 . S
C372 C369 1.463 1_545 S
C372 N376 1.427 1_554 S
C373 H363 0.929 . S
C373 C371 1.433 1_556 S
C373 N376 1.384 . S
C374 H365 0.929 . S
C374 C366 1.378 . S
C374 C369 1.350 1_556 S
C375 H362 0.929 . S
C375 C367 1.433 . S
C375 N377 1.384 . S
N376 C372 1.427 1_556 S
N376 C373 1.384 . S
N377 C369 1.427 . S
N377 C375 1.384 . S
H378 C384 0.930 . S
H379 C388 0.930 . S
H380 C393 0.929 . S
H381 C391 0.929 . S
H382 C386 0.929 . S
H383 C392 0.929 . S
C384 H378 0.930 . S
C384 C385 1.367 1_556 S
C384 C392 1.378 1_655 S
C385 C384 1.367 1_554 S
C385 C393 1.433 . S
C386 H382 0.929 . S
C386 C388 1.378 . S
C386 C390 1.350 . S
C387 C390 1.463 . S
C387 C392 1.350 1_554 S
C387 N395 1.427 . S
C388 H379 0.930 . S
C388 C386 1.378 . S
C388 C389 1.367 . S
C389 C388 1.367 . S
C389 C391 1.433 1_554 S
C390 C386 1.350 . S
C390 C387 1.463 . S
C390 N394 1.427 1_554 S
C391 H381 0.929 . S
C391 C389 1.433 1_556 S
C391 N394 1.384 . S
C392 H383 0.929 . S
C392 C384 1.378 1_455 S
C392 C387 1.350 1_556 S
C393 H380 0.929 . S
C393 C385 1.433 . S
C393 N395 1.384 1_655 S
N394 C390 1.427 1_556 S
N394 C391 1.384 . S
N395 C387 1.427 . S
N395 C393 1.384 1_455 S
H396 C402 0.930 . S
H397 C406 0.930 . S
H398 C411 0.929 . S
H399 C409 0.929 . S
H400 C404 0.929 . S
H401 C410 0.929 . S
C402 H396 0.930 . S
C402 C403 1.367 . S
C402 C410 1.378 . S
C403 C402 1.367 . S
C403 C411 1.433 . S
C404 H400 0.929 . S
C404 C406 1.378 . S
C404 C408 1.350 . S
C405 C408 1.463 . S
C405 C410 1.350 . S
C405 N413 1.427 . S
C406 H397 0.930 . S
C406 C404 1.378 . S
C406 C407 1.367 . S
C407 C406 1.367 . S
C407 C409 1.433 . S
C408 C404 1.350 . S
C408 C405 1.463 . S
C408 N412 1.427 . S
C409 H399 0.929 . S
C409 C407 1.433 . S
C409 N412 1.384 . S
C410 H401 0.929 . S
C410 C402 1.378 . S
C410 C405 1.350 . S
C411 H398 0.929 . S
C411 C403 1.433 . S
C411 N413 1.384 . S
N412 C408 1.427 . S
N412 C409 1.384 . S
N413 C405 1.427 . S
N413 C411 1.384 . S
H414 C420 0.930 . S
H415 C424 0.930 . S
H416 C429 0.929 . S
H417 C427 0.929 . S
H418 C422 0.929 . S
H419 C428 0.929 . S
C420 H414 0.930 . S
C420 C421 1.367 . S
C420 C428 1.378 . S
C421 C420 1.367 . S
C421 C429 1.433 . S
C422 H418 0.929 . S
C422 C424 1.378 . S
C422 C426 1.350 . S
C423 C426 1.463 . S
C423 C428 1.350 . S
C423 N431 1.427 . S
C424 H415 0.930 . S
C424 C422 1.378 . S
C424 C425 1.367 . S
C425 C424 1.367 . S
C425 C427 1.433 . S
C426 C422 1.350 . S
C426 C423 1.463 . S
C426 N430 1.427 . S
C427 H417 0.929 . S
C427 C425 1.433 . S
C427 N430 1.384 . S
C428 H419 0.929 . S
C428 C420 1.378 . S
C428 C423 1.350 . S
C429 H416 0.929 . S
C429 C421 1.433 . S
C429 N431 1.384 . S
N430 C426 1.427 . S
N430 C427 1.384 . S
N431 C423 1.427 . S
N431 C429 1.384 . S
H432 C438 0.930 . S
H433 C442 0.930 . S
H434 C447 0.929 . S
H435 C445 0.929 . S
H436 C440 0.929 . S
H437 C446 0.929 . S
C438 H432 0.930 . S
C438 C439 1.367 . S
C438 C446 1.378 . S
C439 C438 1.367 . S
C439 C447 1.433 . S
C440 H436 0.929 . S
C440 C442 1.378 . S
C440 C444 1.350 . S
C441 C444 1.463 . S
C441 C446 1.350 . S
C441 N449 1.427 . S
C442 H433 0.930 . S
C442 C440 1.378 . S
C442 C443 1.367 . S
C443 C442 1.367 . S
C443 C445 1.433 . S
C444 C440 1.350 . S
C444 C441 1.463 . S
C444 N448 1.427 . S
C445 H435 0.929 . S
C445 C443 1.433 . S
C445 N448 1.384 . S
C446 H437 0.929 . S
C446 C438 1.378 . S
C446 C441 1.350 . S
C447 H434 0.929 . S
C447 C439 1.433 . S
C447 N449 1.384 . S
N448 C444 1.427 . S
N448 C445 1.384 . S
N449 C441 1.427 . S
N449 C447 1.384 . S
H450 C456 0.930 . S
H451 C460 0.930 . S
H452 C465 0.929 . S
H453 C463 0.929 . S
H454 C458 0.929 . S
H455 C464 0.929 . S
C456 H450 0.930 . S
C456 C457 1.367 . S
C456 C464 1.378 . S
C457 C456 1.367 . S
C457 C465 1.433 . S
C458 H454 0.929 . S
C458 C460 1.378 . S
C458 C462 1.350 . S
C459 C462 1.463 . S
C459 C464 1.350 . S
C459 N467 1.427 . S
C460 H451 0.930 . S
C460 C458 1.378 . S
C460 C461 1.367 . S
C461 C460 1.367 . S
C461 C463 1.433 . S
C462 C458 1.350 . S
C462 C459 1.463 . S
C462 N466 1.427 . S
C463 H453 0.929 . S
C463 C461 1.433 . S
C463 N466 1.384 . S
C464 H455 0.929 . S
C464 C456 1.378 . S
C464 C459 1.350 . S
C465 H452 0.929 . S
C465 C457 1.433 . S
C465 N467 1.384 . S
N466 C462 1.427 . S
N466 C463 1.384 . S
N467 C459 1.427 . S
N467 C465 1.384 . S
H468 C474 0.930 . S
H469 C478 0.930 . S
H470 C483 0.929 . S
H471 C481 0.929 . S
H472 C476 0.929 . S
H473 C482 0.929 . S
C474 H468 0.930 . S
C474 C475 1.367 . S
C474 C482 1.378 . S
C475 C474 1.367 . S
C475 C483 1.433 . S
C476 H472 0.929 . S
C476 C478 1.378 . S
C476 C480 1.350 . S
C477 C480 1.463 . S
C477 C482 1.350 . S
C477 N485 1.427 . S
C478 H469 0.930 . S
C478 C476 1.378 . S
C478 C479 1.367 . S
C479 C478 1.367 . S
C479 C481 1.433 . S
C480 C476 1.350 . S
C480 C477 1.463 . S
C480 N484 1.427 . S
C481 H471 0.929 . S
C481 C479 1.433 . S
C481 N484 1.384 . S
C482 H473 0.929 . S
C482 C474 1.378 . S
C482 C477 1.350 . S
C483 H470 0.929 . S
C483 C475 1.433 . S
C483 N485 1.384 . S
N484 C480 1.427 . S
N484 C481 1.384 . S
N485 C477 1.427 . S
N485 C483 1.384 . S
H486 C492 0.930 . S
H487 C496 0.930 . S
H488 C501 0.929 . S
H489 C499 0.929 . S
H490 C494 0.929 . S
H491 C500 0.929 . S
C492 H486 0.930 . S
C492 C493 1.367 . S
C492 C500 1.378 . S
C493 C492 1.367 . S
C493 C501 1.433 . S
C494 H490 0.929 . S
C494 C496 1.378 . S
C494 C498 1.350 . S
C495 C498 1.463 . S
C495 C500 1.350 . S
C495 N503 1.427 . S
C496 H487 0.930 . S
C496 C494 1.378 . S
C496 C497 1.367 . S
C497 C496 1.367 . S
C497 C499 1.433 . S
C498 C494 1.350 . S
C498 C495 1.463 . S
C498 N502 1.427 . S
C499 H489 0.929 . S
C499 C497 1.433 . S
C499 N502 1.384 . S
C500 H491 0.929 . S
C500 C492 1.378 . S
C500 C495 1.350 . S
C501 H488 0.929 . S
C501 C493 1.433 . S
C501 N503 1.384 . S
N502 C498 1.427 . S
N502 C499 1.384 . S
N503 C495 1.427 . S
N503 C501 1.384 . S
H504 C510 0.930 . S
H505 C514 0.930 . S
H506 C519 0.929 . S
H507 C517 0.929 . S
H508 C512 0.929 . S
H509 C518 0.929 . S
C510 H504 0.930 . S
C510 C511 1.367 . S
C510 C518 1.378 . S
C511 C510 1.367 . S
C511 C519 1.433 1_455 S
C512 H508 0.929 . S
C512 C514 1.378 . S
C512 C516 1.350 1_655 S
C513 C516 1.463 . S
C513 C518 1.350 . S
C513 N521 1.427 1_455 S
C514 H505 0.930 . S
C514 C512 1.378 . S
C514 C515 1.367 1_655 S
C515 C514 1.367 1_455 S
C515 C517 1.433 . S
C516 C512 1.350 1_455 S
C516 C513 1.463 . S
C516 N520 1.427 . S
C517 H507 0.929 . S
C517 C515 1.433 . S
C517 N520 1.384 . S
C518 H509 0.929 . S
C518 C510 1.378 . S
C518 C513 1.350 . S
C519 H506 0.929 . S
C519 C511 1.433 1_655 S
C519 N521 1.384 . S
N520 C516 1.427 . S
N520 C517 1.384 . S
N521 C513 1.427 1_655 S
N521 C519 1.384 . S
H522 C528 0.930 . S
H523 C532 0.930 . S
H524 C537 0.929 . S
H525 C535 0.929 . S
H526 C530 0.929 . S
H527 C536 0.929 . S
C528 H522 0.930 . S
C528 C529 1.367 . S
C528 C536 1.378 . S
C529 C528 1.367 . S
C529 C537 1.433 . S
C530 H526 0.929 . S
C530 C532 1.378 . S
C530 C534 1.350 . S
C531 C534 1.463 . S
C531 C536 1.350 . S
C531 N539 1.427 . S
C532 H523 0.930 . S
C532 C530 1.378 . S
C532 C533 1.367 . S
C533 C532 1.367 . S
C533 C535 1.433 . S
C534 C530 1.350 . S
C534 C531 1.463 . S
C534 N538 1.427 . S
C535 H525 0.929 . S
C535 C533 1.433 . S
C535 N538 1.384 . S
C536 H527 0.929 . S
C536 C528 1.378 . S
C536 C531 1.350 . S
C537 H524 0.929 . S
C537 C529 1.433 . S
C537 N539 1.384 . S
N538 C534 1.427 . S
N538 C535 1.384 . S
N539 C531 1.427 . S
N539 C537 1.384 . S
H540 C546 0.930 . S
H541 C550 0.930 . S
H542 C555 0.930 . S
H543 C553 0.929 . S
H544 C548 0.929 . S
H545 C554 0.929 . S
C546 H540 0.930 . S
C546 C547 1.367 . S
C546 C554 1.378 . S
C547 C546 1.367 . S
C547 C555 1.432 1_545 S
C548 H544 0.929 . S
C548 C550 1.378 . S
C548 C552 1.350 1_565 S
C549 C552 1.463 . S
C549 C554 1.350 . S
C549 N557 1.427 1_545 S
C550 H541 0.930 . S
C550 C548 1.378 . S
C550 C551 1.367 1_565 S
C551 C550 1.367 1_545 S
C551 C553 1.433 . S
C552 C548 1.350 1_545 S
C552 C549 1.463 . S
C552 N556 1.427 . S
C553 H543 0.929 . S
C553 C551 1.433 . S
C553 N556 1.384 . S
C554 H545 0.929 . S
C554 C546 1.378 . S
C554 C549 1.350 . S
C555 H542 0.930 . S
C555 C547 1.432 1_565 S
C555 N557 1.384 . S
N556 C552 1.427 . S
N556 C553 1.384 . S
N557 C549 1.427 1_565 S
N557 C555 1.384 . S
H558 C564 0.930 . S
H559 C568 0.930 . S
H560 C573 0.929 . S
H561 C571 0.929 . S
H562 C566 0.929 . S
H563 C572 0.929 . S
C564 H558 0.930 . S
C564 C565 1.367 . S
C564 C572 1.378 . S
C565 C564 1.367 . S
C565 C573 1.433 . S
C566 H562 0.929 . S
C566 C568 1.378 1_556 S
C566 C570 1.350 . S
C567 C570 1.463 . S
C567 C572 1.350 . S
C567 N575 1.427 . S
C568 H559 0.930 . S
C568 C566 1.378 1_554 S
C568 C569 1.367 . S
C569 C568 1.367 . S
C569 C571 1.433 . S
C570 C566 1.350 . S
C570 C567 1.463 . S
C570 N574 1.427 . S
C571 H561 0.929 . S
C571 C569 1.433 . S
C571 N574 1.384 1_554 S
C572 H563 0.929 . S
C572 C564 1.378 . S
C572 C567 1.350 . S
C573 H560 0.929 . S
C573 C565 1.433 . S
C573 N575 1.384 . S
N574 C570 1.427 . S
N574 C571 1.384 1_556 S
N575 C567 1.427 . S
N575 C573 1.384 . S
H576 C582 0.930 . S
H577 C586 0.930 . S
H578 C591 0.929 . S
H579 C589 0.929 . S
H580 C584 0.929 . S
H581 C590 0.929 . S
C582 H576 0.930 . S
C582 C583 1.367 . S
C582 C590 1.378 . S
C583 C582 1.367 . S
C583 C591 1.433 . S
C584 H580 0.929 . S
C584 C586 1.378 1_556 S
C584 C588 1.350 . S
C585 C588 1.463 . S
C585 C590 1.350 . S
C585 N593 1.427 . S
C586 H577 0.930 . S
C586 C584 1.378 1_554 S
C586 C587 1.367 . S
C587 C586 1.367 . S
C587 C589 1.433 . S
C588 C584 1.350 . S
C588 C585 1.463 . S
C588 N592 1.427 . S
C589 H579 0.929 . S
C589 C587 1.433 . S
C589 N592 1.384 1_554 S
C590 H581 0.929 . S
C590 C582 1.378 . S
C590 C585 1.350 . S
C591 H578 0.929 . S
C591 C583 1.433 . S
C591 N593 1.384 . S
N592 C588 1.427 . S
N592 C589 1.384 1_556 S
N593 C585 1.427 . S
N593 C591 1.384 . S
H594 C600 0.930 . S
H595 C604 0.930 . S
H596 C609 0.929 . S
H597 C607 0.929 . S
H598 C602 0.929 . S
H599 C608 0.929 . S
C600 H594 0.930 . S
C600 C601 1.367 . S
C600 C608 1.378 . S
C601 C600 1.367 . S
C601 C609 1.433 . S
C602 H598 0.929 . S
C602 C604 1.378 1_556 S
C602 C606 1.350 . S
C603 C606 1.463 . S
C603 C608 1.350 . S
C603 N611 1.427 . S
C604 H595 0.930 . S
C604 C602 1.378 1_554 S
C604 C605 1.367 . S
C605 C604 1.367 . S
C605 C607 1.433 . S
C606 C602 1.350 . S
C606 C603 1.463 . S
C606 N610 1.427 . S
C607 H597 0.929 . S
C607 C605 1.433 . S
C607 N610 1.384 1_554 S
C608 H599 0.929 . S
C608 C600 1.378 . S
C608 C603 1.350 . S
C609 H596 0.929 . S
C609 C601 1.433 . S
C609 N611 1.384 . S
N610 C606 1.427 . S
N610 C607 1.384 1_556 S
N611 C603 1.427 . S
N611 C609 1.384 . S
H612 C618 0.930 . S
H613 C622 0.930 . S
H614 C627 0.929 . S
H615 C625 0.929 . S
H616 C620 0.929 . S
H617 C626 0.929 . S
C618 H612 0.930 . S
C618 C619 1.367 . S
C618 C626 1.378 . S
C619 C618 1.367 . S
C619 C627 1.433 . S
C620 H616 0.929 . S
C620 C622 1.378 1_554 S
C620 C624 1.350 . S
C621 C624 1.463 . S
C621 C626 1.350 . S
C621 N629 1.427 . S
C622 H613 0.930 . S
C622 C620 1.378 1_556 S
C622 C623 1.367 . S
C623 C622 1.367 . S
C623 C625 1.433 . S
C624 C620 1.350 . S
C624 C621 1.463 . S
C624 N628 1.427 . S
C625 H615 0.929 . S
C625 C623 1.433 . S
C625 N628 1.384 1_556 S
C626 H617 0.929 . S
C626 C618 1.378 . S
C626 C621 1.350 . S
C627 H614 0.929 . S
C627 C619 1.433 . S
C627 N629 1.384 . S
N628 C624 1.427 . S
N628 C625 1.384 1_554 S
N629 C621 1.427 . S
N629 C627 1.384 . S
H630 C636 0.930 . S
H631 C640 0.930 . S
H632 C645 0.929 . S
H633 C643 0.929 . S
H634 C638 0.929 . S
H635 C644 0.929 . S
C636 H630 0.930 . S
C636 C637 1.367 . S
C636 C644 1.378 1_556 S
C637 C636 1.367 . S
C637 C645 1.433 . S
C638 H634 0.929 . S
C638 C640 1.378 . S
C638 C642 1.350 . S
C639 C642 1.463 . S
C639 C644 1.350 . S
C639 N647 1.427 . S
C640 H631 0.930 . S
C640 C638 1.378 . S
C640 C641 1.367 . S
C641 C640 1.367 . S
C641 C643 1.433 . S
C642 C638 1.350 . S
C642 C639 1.463 . S
C642 N646 1.427 . S
C643 H633 0.929 . S
C643 C641 1.433 . S
C643 N646 1.384 . S
C644 H635 0.929 . S
C644 C636 1.378 1_554 S
C644 C639 1.350 . S
C645 H632 0.929 . S
C645 C637 1.433 . S
C645 N647 1.384 1_556 S
N646 C642 1.427 . S
N646 C643 1.384 . S
N647 C639 1.427 . S
N647 C645 1.384 1_554 S
H648 C654 0.930 . S
H649 C658 0.930 . S
H650 C663 0.929 . S
H651 C661 0.929 . S
H652 C656 0.929 . S
H653 C662 0.929 . S
C654 H648 0.930 . S
C654 C655 1.367 . S
C654 C662 1.378 . S
C655 C654 1.367 . S
C655 C663 1.433 . S
C656 H652 0.929 . S
C656 C658 1.378 1_554 S
C656 C660 1.350 . S
C657 C660 1.463 . S
C657 C662 1.350 . S
C657 N665 1.427 . S
C658 H649 0.930 . S
C658 C656 1.378 1_556 S
C658 C659 1.367 . S
C659 C658 1.367 . S
C659 C661 1.433 . S
C660 C656 1.350 . S
C660 C657 1.463 . S
C660 N664 1.427 . S
C661 H651 0.929 . S
C661 C659 1.433 . S
C661 N664 1.384 1_556 S
C662 H653 0.929 . S
C662 C654 1.378 . S
C662 C657 1.350 . S
C663 H650 0.929 . S
C663 C655 1.433 . S
C663 N665 1.384 . S
N664 C660 1.427 . S
N664 C661 1.384 1_554 S
N665 C657 1.427 . S
N665 C663 1.384 . S
C187 C2 1.784 . S
C191 C158 1.728 . S
C205 C22 1.781 . S
C209 C178 1.730 . S
C223 C42 1.788 . S
C227 C138 1.733 . S
C241 C82 1.791 . S
C245 C58 1.740 . S
C259 C102 1.783 . S
C263 C18 1.737 . S
C277 C38 1.737 . S
C281 C62 1.783 . S
C295 C142 1.791 . S
C299 C118 1.739 . S
C313 C162 1.788 . S
C317 C78 1.733 . S
C331 C98 1.729 . S
C335 C122 1.782 . S
C349 C41 1.527 . S
C353 C19 1.547 1_554 S
C367 C39 1.547 1_554 S
C371 C1 1.532 . S
C385 C21 1.522 . S
C389 C59 1.550 1_554 S
C403 C79 1.550 . S
C407 C101 1.522 . S
C421 C61 1.529 . S
C425 C99 1.549 . S
C439 C81 1.530 . S
C443 C119 1.548 . S
C457 C161 1.531 . S
C461 C139 1.548 . S
C475 C159 1.546 . S
C479 C121 1.529 . S
C493 C179 1.548 . S
C497 C141 1.525 . S
C511 C9 1.013 . S
C515 C8 1.013 . S
C529 C29 1.006 . S
C533 C28 1.006 . S
C547 C49 1.007 . S
C551 C48 1.007 . S
C565 C68 1.001 . S
C569 C69 1.001 . S
C583 C88 1.015 . S
C587 C89 1.015 . S
C601 C108 1.000 . S
C605 C109 1.000 . S
C619 C129 1.015 . S
C623 C128 1.015 . S
C637 C148 1.007 . S
C641 C149 1.007 . S
C655 C169 1.006 . S
C659 C168 1.006 . S
