# Generated by pormake.
# Topology uoe, (4)-cn, num edge types: 1
# Building blocks:
#     Node 0, Type 0, BuildingBlock: GALJAG_clean_sbu_0, # of connection points: 4
#     Node 1, Type 0, BuildingBlock: GALJAG_clean_sbu_0, # of connection points: 4
#     Node 2, Type 0, BuildingBlock: GALJAG_clean_sbu_0, # of connection points: 4
#     Node 3, Type 0, BuildingBlock: GALJAG_clean_sbu_0, # of connection points: 4
#     Node 4, Type 0, BuildingBlock: GALJAG_clean_sbu_0, # of connection points: 4
#     Node 5, Type 0, BuildingBlock: GALJAG_clean_sbu_0, # of connection points: 4
#     Node 6, Type 0, BuildingBlock: GALJAG_clean_sbu_0, # of connection points: 4
#     Node 7, Type 0, BuildingBlock: GALJAG_clean_sbu_0, # of connection points: 4
#     Node 8, Type 0, BuildingBlock: GALJAG_clean_sbu_0, # of connection points: 4
#     Node 9, Type 0, BuildingBlock: GALJAG_clean_sbu_0, # of connection points: 4
#     Node 10, Type 0, BuildingBlock: GALJAG_clean_sbu_0, # of connection points: 4
#     Node 11, Type 0, BuildingBlock: GALJAG_clean_sbu_0, # of connection points: 4
#     Node 12, Type 0, BuildingBlock: GALJAG_clean_sbu_0, # of connection points: 4
#     Node 13, Type 0, BuildingBlock: GALJAG_clean_sbu_0, # of connection points: 4
#     Node 14, Type 0, BuildingBlock: GALJAG_clean_sbu_0, # of connection points: 4
#     Node 15, Type 0, BuildingBlock: GALJAG_clean_sbu_0, # of connection points: 4
#     Node 16, Type 0, BuildingBlock: GALJAG_clean_sbu_0, # of connection points: 4
#     Node 17, Type 0, BuildingBlock: GALJAG_clean_sbu_0, # of connection points: 4
#     Node 18, Type 0, BuildingBlock: GALJAG_clean_sbu_0, # of connection points: 4
#     Node 19, Type 0, BuildingBlock: GALJAG_clean_sbu_0, # of connection points: 4
#     Node 20, Type 0, BuildingBlock: GALJAG_clean_sbu_0, # of connection points: 4
#     Node 21, Type 0, BuildingBlock: GALJAG_clean_sbu_0, # of connection points: 4
#     Node 22, Type 0, BuildingBlock: GALJAG_clean_sbu_0, # of connection points: 4
#     Node 23, Type 0, BuildingBlock: GALJAG_clean_sbu_0, # of connection points: 4
#     Node 24, Type 0, BuildingBlock: GALJAG_clean_sbu_0, # of connection points: 4
#     Node 25, Type 0, BuildingBlock: GALJAG_clean_sbu_0, # of connection points: 4
#     Node 26, Type 0, BuildingBlock: GALJAG_clean_sbu_0, # of connection points: 4
#     Node 27, Type 0, BuildingBlock: GALJAG_clean_sbu_0, # of connection points: 4
#     Node 28, Type 0, BuildingBlock: GALJAG_clean_sbu_0, # of connection points: 4
#     Node 29, Type 0, BuildingBlock: GALJAG_clean_sbu_0, # of connection points: 4
#     Node 30, Type 0, BuildingBlock: GALJAG_clean_sbu_0, # of connection points: 4
#     Node 31, Type 0, BuildingBlock: GALJAG_clean_sbu_0, # of connection points: 4
#     Edge 32, Type (0, 0), BuildingBlock: AJUNOK_clean_linker_0, # of connection points: 2
#     Edge 33, Type (0, 0), BuildingBlock: AJUNOK_clean_linker_0, # of connection points: 2
#     Edge 34, Type (0, 0), BuildingBlock: AJUNOK_clean_linker_0, # of connection points: 2
#     Edge 35, Type (0, 0), BuildingBlock: AJUNOK_clean_linker_0, # of connection points: 2
#     Edge 36, Type (0, 0), BuildingBlock: AJUNOK_clean_linker_0, # of connection points: 2
#     Edge 37, Type (0, 0), BuildingBlock: AJUNOK_clean_linker_0, # of connection points: 2
#     Edge 38, Type (0, 0), BuildingBlock: AJUNOK_clean_linker_0, # of connection points: 2
#     Edge 39, Type (0, 0), BuildingBlock: AJUNOK_clean_linker_0, # of connection points: 2
#     Edge 40, Type (0, 0), BuildingBlock: AJUNOK_clean_linker_0, # of connection points: 2
#     Edge 41, Type (0, 0), BuildingBlock: AJUNOK_clean_linker_0, # of connection points: 2
#     Edge 42, Type (0, 0), BuildingBlock: AJUNOK_clean_linker_0, # of connection points: 2
#     Edge 43, Type (0, 0), BuildingBlock: AJUNOK_clean_linker_0, # of connection points: 2
#     Edge 44, Type (0, 0), BuildingBlock: AJUNOK_clean_linker_0, # of connection points: 2
#     Edge 45, Type (0, 0), BuildingBlock: AJUNOK_clean_linker_0, # of connection points: 2
#     Edge 46, Type (0, 0), BuildingBlock: AJUNOK_clean_linker_0, # of connection points: 2
#     Edge 47, Type (0, 0), BuildingBlock: AJUNOK_clean_linker_0, # of connection points: 2
#     Edge 48, Type (0, 0), BuildingBlock: AJUNOK_clean_linker_0, # of connection points: 2
#     Edge 49, Type (0, 0), BuildingBlock: AJUNOK_clean_linker_0, # of connection points: 2
#     Edge 50, Type (0, 0), BuildingBlock: AJUNOK_clean_linker_0, # of connection points: 2
#     Edge 51, Type (0, 0), BuildingBlock: AJUNOK_clean_linker_0, # of connection points: 2
#     Edge 52, Type (0, 0), BuildingBlock: AJUNOK_clean_linker_0, # of connection points: 2
#     Edge 53, Type (0, 0), BuildingBlock: AJUNOK_clean_linker_0, # of connection points: 2
#     Edge 54, Type (0, 0), BuildingBlock: AJUNOK_clean_linker_0, # of connection points: 2
#     Edge 55, Type (0, 0), BuildingBlock: AJUNOK_clean_linker_0, # of connection points: 2
#     Edge 56, Type (0, 0), BuildingBlock: AJUNOK_clean_linker_0, # of connection points: 2
#     Edge 57, Type (0, 0), BuildingBlock: AJUNOK_clean_linker_0, # of connection points: 2
#     Edge 58, Type (0, 0), BuildingBlock: AJUNOK_clean_linker_0, # of connection points: 2
#     Edge 59, Type (0, 0), BuildingBlock: AJUNOK_clean_linker_0, # of connection points: 2
#     Edge 60, Type (0, 0), BuildingBlock: AJUNOK_clean_linker_0, # of connection points: 2
#     Edge 61, Type (0, 0), BuildingBlock: AJUNOK_clean_linker_0, # of connection points: 2
#     Edge 62, Type (0, 0), BuildingBlock: AJUNOK_clean_linker_0, # of connection points: 2
#     Edge 63, Type (0, 0), BuildingBlock: AJUNOK_clean_linker_0, # of connection points: 2
#     Edge 64, Type (0, 0), BuildingBlock: AJUNOK_clean_linker_0, # of connection points: 2
#     Edge 65, Type (0, 0), BuildingBlock: AJUNOK_clean_linker_0, # of connection points: 2
#     Edge 66, Type (0, 0), BuildingBlock: AJUNOK_clean_linker_0, # of connection points: 2
#     Edge 67, Type (0, 0), BuildingBlock: AJUNOK_clean_linker_0, # of connection points: 2
#     Edge 68, Type (0, 0), BuildingBlock: AJUNOK_clean_linker_0, # of connection points: 2
#     Edge 69, Type (0, 0), BuildingBlock: AJUNOK_clean_linker_0, # of connection points: 2
#     Edge 70, Type (0, 0), BuildingBlock: AJUNOK_clean_linker_0, # of connection points: 2
#     Edge 71, Type (0, 0), BuildingBlock: AJUNOK_clean_linker_0, # of connection points: 2
#     Edge 72, Type (0, 0), BuildingBlock: AJUNOK_clean_linker_0, # of connection points: 2
#     Edge 73, Type (0, 0), BuildingBlock: AJUNOK_clean_linker_0, # of connection points: 2
#     Edge 74, Type (0, 0), BuildingBlock: AJUNOK_clean_linker_0, # of connection points: 2
#     Edge 75, Type (0, 0), BuildingBlock: AJUNOK_clean_linker_0, # of connection points: 2
#     Edge 76, Type (0, 0), BuildingBlock: AJUNOK_clean_linker_0, # of connection points: 2
#     Edge 77, Type (0, 0), BuildingBlock: AJUNOK_clean_linker_0, # of connection points: 2
#     Edge 78, Type (0, 0), BuildingBlock: AJUNOK_clean_linker_0, # of connection points: 2
#     Edge 79, Type (0, 0), BuildingBlock: AJUNOK_clean_linker_0, # of connection points: 2
#     Edge 80, Type (0, 0), BuildingBlock: AJUNOK_clean_linker_0, # of connection points: 2
#     Edge 81, Type (0, 0), BuildingBlock: AJUNOK_clean_linker_0, # of connection points: 2
#     Edge 82, Type (0, 0), BuildingBlock: AJUNOK_clean_linker_0, # of connection points: 2
#     Edge 83, Type (0, 0), BuildingBlock: AJUNOK_clean_linker_0, # of connection points: 2
#     Edge 84, Type (0, 0), BuildingBlock: AJUNOK_clean_linker_0, # of connection points: 2
#     Edge 85, Type (0, 0), BuildingBlock: AJUNOK_clean_linker_0, # of connection points: 2
#     Edge 86, Type (0, 0), BuildingBlock: AJUNOK_clean_linker_0, # of connection points: 2
#     Edge 87, Type (0, 0), BuildingBlock: AJUNOK_clean_linker_0, # of connection points: 2
#     Edge 88, Type (0, 0), BuildingBlock: AJUNOK_clean_linker_0, # of connection points: 2
#     Edge 89, Type (0, 0), BuildingBlock: AJUNOK_clean_linker_0, # of connection points: 2
#     Edge 90, Type (0, 0), BuildingBlock: AJUNOK_clean_linker_0, # of connection points: 2
#     Edge 91, Type (0, 0), BuildingBlock: AJUNOK_clean_linker_0, # of connection points: 2
#     Edge 92, Type (0, 0), BuildingBlock: AJUNOK_clean_linker_0, # of connection points: 2
#     Edge 93, Type (0, 0), BuildingBlock: AJUNOK_clean_linker_0, # of connection points: 2
#     Edge 94, Type (0, 0), BuildingBlock: AJUNOK_clean_linker_0, # of connection points: 2
#     Edge 95, Type (0, 0), BuildingBlock: AJUNOK_clean_linker_0, # of connection points: 2
# Relax obj value: 0.106
# Max RMSD: 0.167
# Mean RMSD: 0.167
data_MOF--net-uoe--node1-GALJAG_clean_sbu_0--edge1-AJUNOK_clean_linker_0
_symmetry_space_group_name_H-M    P1
_symmetry_Int_Tables_number       1
_symmetry_cell_setting            triclinic
loop_
_symmetry_equiv_pos_as_xyz
'x, y, z'
_cell_length_a     54.613817
_cell_length_b     54.628033
_cell_length_c     20.657925
_cell_angle_alpha  90.002047
_cell_angle_beta   90.017411
_cell_angle_gamma 89.98506
loop_
_atom_site_label
_atom_site_type_symbol
_atom_site_fract_x
_atom_site_fract_y
_atom_site_fract_z
_atom_type_partial_charge
In0 In 0.09637 0.46951 0.06388 0.0
O1 O 0.09749 0.42875 0.09154 0.0
O2 O 0.13097 0.44862 0.08251 0.0
C3 C 0.04985 0.48526 0.05671 0.0
C4 C 0.10473 0.48614 0.18257 0.0
C5 C 0.11158 0.48284 0.94564 0.0
O6 O 0.05522 0.46283 0.04875 0.0
O7 O 0.06789 0.49908 0.06693 0.0
O8 O 0.11658 0.49503 0.99596 0.0
O9 O 0.09999 0.46312 0.95557 0.0
C10 C 0.12045 0.42923 0.10083 0.0
O11 O 0.11473 0.49606 0.13375 0.0
O12 O 0.09021 0.46879 0.17057 0.0
In13 In 0.77949 0.84882 0.30881 0.0
O14 O 0.75229 0.8709 0.37056 0.0
O15 O 0.78073 0.85049 0.41669 0.0
C16 C 0.76678 0.86054 0.1866 0.0
C17 C 0.82192 0.87128 0.33592 0.0
C18 C 0.76638 0.80128 0.31165 0.0
O19 O 0.75338 0.86554 0.23476 0.0
O20 O 0.78688 0.85031 0.20044 0.0
O21 O 0.78805 0.80798 0.29907 0.0
O22 O 0.75164 0.81855 0.32228 0.0
C23 C 0.76303 0.86503 0.4227 0.0
O24 O 0.81935 0.84841 0.34292 0.0
O25 O 0.80406 0.88194 0.30902 0.0
In26 In 0.40196 0.52829 0.55106 0.0
O27 O 0.38582 0.50053 0.62151 0.0
O28 O 0.4073 0.5304 0.65786 0.0
C29 C 0.38573 0.51483 0.43385 0.0
C30 C 0.37604 0.56733 0.58786 0.0
C31 C 0.44942 0.51584 0.54278 0.0
O32 O 0.38291 0.50162 0.48354 0.0
O33 O 0.39612 0.53519 0.44381 0.0
O34 O 0.4424 0.53774 0.53429 0.0
O35 O 0.43248 0.50074 0.55378 0.0
C36 C 0.3943 0.51192 0.67009 0.0
O37 O 0.39889 0.56901 0.57762 0.0
O38 O 0.36651 0.54722 0.57113 0.0
In39 In 0.7245 0.14718 0.80011 0.0
O40 O 0.7526 0.12701 0.86361 0.0
O41 O 0.72367 0.14726 0.90818 0.0
C42 C 0.73743 0.1346 0.67861 0.0
C43 C 0.68337 0.12302 0.83047 0.0
C44 C 0.73543 0.19523 0.79788 0.0
O45 O 0.75122 0.1309 0.72685 0.0
O46 O 0.71684 0.14387 0.69213 0.0
O47 O 0.71403 0.18742 0.78655 0.0
O48 O 0.75094 0.1788 0.81013 0.0
C49 C 0.7418 0.13331 0.9153 0.0
O50 O 0.68449 0.14615 0.83327 0.0
O51 O 0.70194 0.11286 0.80574 0.0
In52 In 0.09653 0.53323 0.56517 0.0
O53 O 0.09994 0.57323 0.53241 0.0
O54 O 0.13227 0.55263 0.5518 0.0
C55 C 0.04897 0.52095 0.57087 0.0
C56 C 0.10567 0.51622 0.4473 0.0
C57 C 0.11108 0.5199 0.68397 0.0
O58 O 0.05601 0.54281 0.58023 0.0
O59 O 0.06593 0.50584 0.56015 0.0
O60 O 0.11467 0.50667 0.63461 0.0
O61 O 0.10083 0.54027 0.67289 0.0
C62 C 0.12305 0.57176 0.52751 0.0
O63 O 0.11374 0.50516 0.49691 0.0
O64 O 0.09234 0.53459 0.458 0.0
In65 In 0.71822 0.84786 0.80018 0.0
O66 O 0.67781 0.84506 0.77161 0.0
O67 O 0.692 0.87969 0.8004 0.0
C68 C 0.7346 0.80137 0.79542 0.0
C69 C 0.73262 0.86421 0.68433 0.0
C70 C 0.73216 0.85993 0.92122 0.0
O71 O 0.71261 0.80647 0.80958 0.0
O72 O 0.74796 0.81967 0.78437 0.0
O73 O 0.74421 0.86621 0.87167 0.0
O74 O 0.71256 0.84844 0.90942 0.0
C75 C 0.67426 0.86789 0.77646 0.0
O76 O 0.74291 0.87161 0.73575 0.0
O77 O 0.71612 0.84841 0.69217 0.0
In78 In 0.40053 0.46568 0.05511 0.0
O79 O 0.3987 0.42508 0.02601 0.0
O80 O 0.36575 0.44609 0.03101 0.0
C81 C 0.44689 0.48121 0.06812 0.0
C82 C 0.39476 0.48294 0.93616 0.0
C83 C 0.38397 0.47815 0.17255 0.0
O84 O 0.44147 0.45866 0.07297 0.0
O85 O 0.42896 0.49521 0.05802 0.0
O86 O 0.37951 0.49069 0.12245 0.0
O87 O 0.39566 0.45847 0.16257 0.0
C88 C 0.37597 0.42642 0.01357 0.0
O89 O 0.38389 0.49278 0.98381 0.0
O90 O 0.4089 0.46541 0.94961 0.0
In91 In 0.7846 0.15278 0.29418 0.0
O92 O 0.76206 0.12685 0.22945 0.0
O93 O 0.78573 0.15319 0.18603 0.0
C94 C 0.7718 0.13748 0.41356 0.0
C95 C 0.8307 0.13921 0.26688 0.0
C96 C 0.76543 0.19828 0.29673 0.0
O97 O 0.75973 0.13182 0.36349 0.0
O98 O 0.79094 0.14985 0.40288 0.0
O99 O 0.78741 0.19396 0.31231 0.0
O100 O 0.75333 0.17966 0.28038 0.0
C101 C 0.77107 0.1357 0.17802 0.0
O102 O 0.82342 0.16104 0.26046 0.0
O103 O 0.81547 0.12496 0.29344 0.0
In104 In 0.90173 0.53359 0.06227 0.0
O105 O 0.88229 0.5057 -0.00215 0.0
O106 O 0.90266 0.535 0.95476 0.0
C107 C 0.88833 0.52089 0.18244 0.0
C108 C 0.87641 0.57376 0.03002 0.0
C109 C 0.94921 0.52047 0.06297 0.0
O110 O 0.88398 0.50755 0.13374 0.0
O111 O 0.89889 0.54097 0.17013 0.0
O112 O 0.94259 0.54236 0.07367 0.0
O113 O 0.93191 0.5057 0.05293 0.0
C114 C 0.88888 0.51678 0.94684 0.0
O115 O 0.89964 0.57372 0.02998 0.0
O116 O 0.86679 0.55483 0.05424 0.0
In117 In 0.21501 0.14803 0.80598 0.0
O118 O 0.24236 0.1282 0.74065 0.0
O119 O 0.214 0.15016 0.69844 0.0
C120 C 0.22678 0.13464 0.92696 0.0
C121 C 0.17485 0.12307 0.7719 0.0
C122 C 0.23032 0.1948 0.80853 0.0
O123 O 0.23998 0.12935 0.87861 0.0
O124 O 0.20718 0.14599 0.91382 0.0
O125 O 0.20797 0.18932 0.81729 0.0
O126 O 0.24425 0.17678 0.79911 0.0
C127 C 0.23171 0.13574 0.68985 0.0
O128 O 0.17486 0.14631 0.77288 0.0
O129 O 0.19364 0.11332 0.79656 0.0
In130 In 0.5974 0.46752 0.5559 0.0
O131 O 0.61819 0.49373 0.48916 0.0
O132 O 0.59521 0.46597 0.44834 0.0
C133 C 0.60933 0.48129 0.67647 0.0
C134 C 0.62186 0.42695 0.52395 0.0
C135 C 0.55057 0.4825 0.5536 0.0
O136 O 0.61523 0.49362 0.62706 0.0
O137 O 0.59842 0.46133 0.66468 0.0
O138 O 0.55618 0.46041 0.56556 0.0
O139 O 0.56853 0.4965 0.54403 0.0
C140 C 0.61021 0.4831 0.43879 0.0
O141 O 0.59865 0.42717 0.52552 0.0
O142 O 0.63193 0.44549 0.54904 0.0
In143 In 0.28039 0.84333 0.30852 0.0
O144 O 0.25529 0.86063 0.23243 0.0
O145 O 0.27907 0.83098 0.20622 0.0
C146 C 0.26724 0.85814 0.42751 0.0
C147 C 0.31971 0.86955 0.27373 0.0
C148 C 0.26725 0.7964 0.32131 0.0
O149 O 0.25423 0.86248 0.37801 0.0
O150 O 0.28718 0.84713 0.41609 0.0
O151 O 0.28954 0.80298 0.3247 0.0
O152 O 0.25207 0.81364 0.314 0.0
C153 C 0.26313 0.8463 0.18873 0.0
O154 O 0.32119 0.84658 0.28186 0.0
O155 O 0.29929 0.87881 0.28867 0.0
In156 In 0.90114 0.472 0.56496 0.0
O157 O 0.89983 0.43125 0.5925 0.0
O158 O 0.86642 0.45094 0.57955 0.0
C159 C 0.94787 0.4873 0.56224 0.0
C160 C 0.89078 0.48805 0.68303 0.0
C161 C 0.88735 0.48541 0.44569 0.0
O162 O 0.94231 0.46501 0.55284 0.0
O163 O 0.92989 0.50131 0.57164 0.0
O164 O 0.88225 0.4979 0.49543 0.0
O165 O 0.89844 0.46548 0.45664 0.0
C166 C 0.87674 0.43162 0.59917 0.0
O167 O 0.88126 0.49801 0.63358 0.0
O168 O 0.90593 0.47116 0.67185 0.0
In169 In 0.27772 0.14802 0.30862 0.0
O170 O 0.31796 0.14587 0.34066 0.0
O171 O 0.29888 0.11305 0.31746 0.0
C172 C 0.26544 0.19564 0.30269 0.0
C173 C 0.26122 0.13692 0.42622 0.0
C174 C 0.26277 0.13435 0.19024 0.0
O175 O 0.28707 0.18842 0.29094 0.0
O176 O 0.25057 0.17887 0.31706 0.0
O177 O 0.25014 0.13062 0.24056 0.0
O178 O 0.28353 0.14396 0.20018 0.0
C179 C 0.31767 0.12267 0.34241 0.0
O180 O 0.25092 0.12838 0.37605 0.0
O181 O 0.27855 0.15164 0.4161 0.0
In182 In 0.59481 0.53014 0.06131 0.0
O183 O 0.59579 0.57064 0.09051 0.0
O184 O 0.62897 0.55286 0.06352 0.0
C185 C 0.5474 0.51664 0.06409 0.0
C186 C 0.60951 0.51385 0.17649 0.0
C187 C 0.60703 0.51691 0.94026 0.0
O188 O 0.5538 0.53855 0.05312 0.0
O189 O 0.56488 0.50196 0.07282 0.0
O190 O 0.61205 0.50386 0.98905 0.0
O191 O 0.59633 0.53689 0.95283 0.0
C192 C 0.61892 0.57178 0.08658 0.0
O193 O 0.61589 0.50307 0.12486 0.0
O194 O 0.59537 0.53185 0.16927 0.0
In195 In 0.2141 0.84523 0.80312 0.0
O196 O 0.173 0.84545 0.82863 0.0
O197 O 0.19399 0.87814 0.84015 0.0
C198 C 0.22898 0.79918 0.78145 0.0
C199 C 0.23346 0.84621 0.92124 0.0
C200 C 0.22832 0.8628 0.68782 0.0
O201 O 0.20636 0.80474 0.78125 0.0
O202 O 0.24333 0.81689 0.791 0.0
O203 O 0.24063 0.86583 0.73902 0.0
O204 O 0.20765 0.85276 0.6958 0.0
C205 C 0.17399 0.86719 0.84999 0.0
O206 O 0.23869 0.86263 0.8801 0.0
O207 O 0.21902 0.82976 0.90191 0.0
In208 In 0.59769 0.96673 0.54683 0.0
O209 O 0.5969 0.92619 0.57914 0.0
O210 O 0.62978 0.94701 0.58884 0.0
C211 C 0.55161 0.98244 0.52882 0.0
C212 C 0.60101 0.98898 0.66032 0.0
C213 C 0.61666 0.97635 0.4297 0.0
O214 O 0.55671 0.95974 0.53086 0.0
O215 O 0.56987 0.99651 0.53219 0.0
O216 O 0.6194 0.99045 0.47765 0.0
O217 O 0.60518 0.95675 0.4417 0.0
C218 C 0.61857 0.92739 0.6011 0.0
O219 O 0.61753 0.99185 0.61792 0.0
O220 O 0.58324 0.97555 0.64455 0.0
In221 In 0.27903 0.34285 0.80684 0.0
O222 O 0.31938 0.34372 0.83783 0.0
O223 O 0.30169 0.37702 0.81137 0.0
C224 C 0.26553 0.29546 0.80564 0.0
C225 C 0.26254 0.35655 0.92263 0.0
C226 C 0.26627 0.35567 0.68594 0.0
O227 O 0.28746 0.30199 0.79547 0.0
O228 O 0.25083 0.31282 0.81589 0.0
O229 O 0.25289 0.36024 0.73444 0.0
O230 O 0.28636 0.34523 0.69883 0.0
C231 C 0.32048 0.36688 0.83492 0.0
O232 O 0.25217 0.36391 0.87128 0.0
O233 O 0.28006 0.34186 0.91466 0.0
In234 In 0.89844 0.03669 0.04855 0.0
O235 O 0.90628 0.07658 0.07603 0.0
O236 O 0.86942 0.06377 0.07856 0.0
C237 C 0.94285 0.01757 0.02558 0.0
C238 C 0.89484 0.01912 0.16854 0.0
C239 C 0.87746 0.02501 0.93479 0.0
O240 O 0.93885 0.04041 0.02092 0.0
O241 O 0.92425 0.00483 0.03883 0.0
O242 O 0.87483 0.01203 0.98502 0.0
O243 O 0.88965 0.04445 0.94303 0.0
C244 C 0.8842 0.08093 0.09057 0.0
O245 O 0.87727 0.01658 0.12894 0.0
O246 O 0.91344 0.02986 0.14662 0.0
In247 In 0.21743 0.64912 0.29792 0.0
O248 O 0.24426 0.62706 0.36015 0.0
O249 O 0.21623 0.64845 0.40549 0.0
C250 C 0.23021 0.63799 0.17606 0.0
C251 C 0.17635 0.62522 0.32892 0.0
C252 C 0.23286 0.69579 0.30401 0.0
O253 O 0.24268 0.63139 0.22461 0.0
O254 O 0.21062 0.64934 0.18927 0.0
O255 O 0.21069 0.69053 0.2921 0.0
O256 O 0.2467 0.67758 0.31186 0.0
C257 C 0.23359 0.6335 0.41194 0.0
O258 O 0.17738 0.6484 0.33124 0.0
O259 O 0.1944 0.61526 0.30124 0.0
In260 In 0.60147 0.02608 0.05331 0.0
O261 O 0.61525 0.0021 0.97098 0.0
O262 O 0.58673 0.02837 0.95362 0.0
C263 C 0.61909 0.01167 0.16767 0.0
C264 C 0.62822 0.0634 0.0101 0.0
C265 C 0.55528 0.01134 0.07154 0.0
O266 O 0.62151 0.9989 0.11686 0.0
O267 O 0.609 0.03235 0.15963 0.0
O268 O 0.56121 0.03378 0.077 0.0
O269 O 0.5728 0.99696 0.05937 0.0
C270 C 0.60085 0.01226 0.93072 0.0
O271 O 0.60634 0.06686 0.02903 0.0
O272 O 0.63693 0.04247 0.02241 0.0
In273 In 0.21719 0.34386 0.3015 0.0
O274 O 0.17663 0.34508 0.27249 0.0
O275 O 0.19458 0.37802 0.30077 0.0
C276 C 0.23186 0.29683 0.30003 0.0
C277 C 0.23227 0.35816 0.18511 0.0
C278 C 0.23129 0.3561 0.42169 0.0
O279 O 0.20991 0.30268 0.3129 0.0
O280 O 0.2458 0.31462 0.28818 0.0
O281 O 0.24352 0.3619 0.37203 0.0
O282 O 0.21144 0.34494 0.41034 0.0
C283 C 0.17566 0.36822 0.27695 0.0
O284 O 0.24369 0.36463 0.23574 0.0
O285 O 0.21446 0.3439 0.19381 0.0
In286 In 0.89422 0.97537 0.55898 0.0
O287 O 0.89395 0.93418 0.53504 0.0
O288 O 0.86181 0.95551 0.51804 0.0
C289 C 0.94079 0.98899 0.58015 0.0
C290 C 0.89408 0.99414 0.44 0.0
C291 C 0.87498 0.98842 0.67389 0.0
O292 O 0.93443 0.96663 0.58087 0.0
O293 O 0.92347 0.00395 0.57172 0.0
O294 O 0.87285 0.00145 0.62359 0.0
O295 O 0.88549 0.96805 0.665 0.0
C296 C 0.87268 0.93531 0.51061 0.0
O297 O 0.8778 0.00032 0.48068 0.0
O298 O 0.90994 0.97929 0.46051 0.0
In299 In 0.27761 0.65139 0.7897 0.0
O300 O 0.31819 0.6503 0.76157 0.0
O301 O 0.30008 0.61712 0.78703 0.0
C302 C 0.26398 0.69866 0.78548 0.0
C303 C 0.26238 0.63631 0.67393 0.0
C304 C 0.26439 0.63974 0.91092 0.0
O305 O 0.28596 0.69236 0.79609 0.0
O306 O 0.24924 0.68114 0.7781 0.0
O307 O 0.25098 0.63512 0.86251 0.0
O308 O 0.28467 0.64977 0.89787 0.0
C309 C 0.31901 0.62712 0.76383 0.0
O310 O 0.2518 0.62909 0.72512 0.0
O311 O 0.2793 0.65166 0.68199 0.0
In312 In 0.4038 0.03 0.56203 0.0
O313 O 0.39965 0.06993 0.52871 0.0
O314 O 0.368 0.04983 0.55688 0.0
C315 C 0.45131 0.01733 0.55426 0.0
C316 C 0.38975 0.01236 0.44834 0.0
C317 C 0.3932 0.0177 0.68461 0.0
O318 O 0.44482 0.03925 0.56522 0.0
O319 O 0.43391 0.00232 0.549 0.0
O320 O 0.38756 0.00434 0.63687 0.0
O321 O 0.40368 0.03765 0.67024 0.0
C322 C 0.37645 0.06881 0.53003 0.0
O323 O 0.38436 0.00119 0.50022 0.0
O324 O 0.40288 0.03115 0.45457 0.0
In325 In 0.71794 0.65351 0.30286 0.0
O326 O 0.67739 0.65108 0.27369 0.0
O327 O 0.69899 0.61847 0.27805 0.0
C328 C 0.73261 0.70019 0.31484 0.0
C329 C 0.73566 0.64763 0.18433 0.0
C330 C 0.72989 0.63696 0.42086 0.0
O331 O 0.71016 0.69439 0.31985 0.0
O332 O 0.74692 0.68246 0.30542 0.0
O333 O 0.74312 0.63318 0.37162 0.0
O334 O 0.71004 0.64821 0.40986 0.0
C335 C 0.67911 0.6284 0.26102 0.0
O336 O 0.74574 0.63737 0.23259 0.0
O337 O 0.71757 0.66117 0.19686 0.0
In338 In 0.089 0.96432 0.04411 0.0
O339 O 0.1118 0.99054 0.98157 0.0
O340 O 0.09062 0.96251 0.93624 0.0
C341 C 0.09989 0.97794 0.16636 0.0
C342 C 0.11101 0.92137 0.02017 0.0
C343 C 0.04195 0.97882 0.03643 0.0
O344 O 0.10571 0.99072 0.11768 0.0
O345 O 0.08923 0.95801 0.15313 0.0
O346 O 0.04772 0.95706 0.05113 0.0
O347 O 0.05985 0.99288 0.02674 0.0
C348 C 0.10538 0.98002 0.92957 0.0
O349 O 0.08812 0.92404 0.01358 0.0
O350 O 0.12192 0.93949 0.04504 0.0
In351 In 0.77783 0.34509 0.79167 0.0
O352 O 0.75169 0.36504 0.72308 0.0
O353 O 0.78019 0.34271 0.68385 0.0
C354 C 0.76243 0.35784 0.91042 0.0
C355 C 0.8189 0.37035 0.76823 0.0
C356 C 0.76492 0.29762 0.79466 0.0
O357 O 0.75019 0.36251 0.85991 0.0
O358 O 0.78289 0.34762 0.90057 0.0
O359 O 0.78671 0.30438 0.80607 0.0
O360 O 0.75026 0.31477 0.78195 0.0
C361 C 0.76258 0.35706 0.67316 0.0
O362 O 0.81865 0.34717 0.7656 0.0
O363 O 0.79937 0.3799 0.78907 0.0
In364 In 0.40588 0.96713 0.06821 0.0
O365 O 0.40271 0.92654 0.09651 0.0
O366 O 0.37024 0.94719 0.07902 0.0
C367 C 0.45366 0.97898 0.06788 0.0
C368 C 0.3944 0.9832 0.18572 0.0
C369 C 0.39363 0.98215 0.94878 0.0
O370 O 0.44644 0.95736 0.05625 0.0
O371 O 0.43677 0.9942 0.07856 0.0
O372 O 0.38971 0.99494 -0.00126 0.0
O373 O 0.40279 0.96125 0.9595 0.0
C374 C 0.37957 0.9277 0.10074 0.0
O375 O 0.38568 0.99341 0.13561 0.0
O376 O 0.40958 0.96626 0.17549 0.0
In377 In 0.78175 0.65332 0.79838 0.0
O378 O 0.75422 0.63809 0.87086 0.0
O379 O 0.78394 0.66034 0.90457 0.0
C380 C 0.7672 0.63733 0.68192 0.0
C381 C 0.81998 0.62669 0.83745 0.0
C382 C 0.76924 0.70065 0.78758 0.0
O383 O 0.75478 0.6339 0.73279 0.0
O384 O 0.78762 0.64784 0.69051 0.0
O385 O 0.7912 0.69366 0.77908 0.0
O386 O 0.75425 0.68374 0.79989 0.0
C387 C 0.76558 0.6474 0.91845 0.0
O388 O 0.82216 0.64951 0.82739 0.0
O389 O 0.80013 0.61745 0.81772 0.0
In390 In 0.09099 0.02893 0.55272 0.0
O391 O 0.09486 0.06929 0.58197 0.0
O392 O 0.12685 0.04894 0.55808 0.0
C393 C 0.04295 0.01835 0.56062 0.0
C394 C 0.10476 0.01216 0.66846 0.0
C395 C 0.10096 0.01404 0.43103 0.0
O396 O 0.05045 0.03978 0.54797 0.0
O397 O 0.05965 0.00263 0.56754 0.0
O398 O 0.10611 0.0014 0.48046 0.0
O399 O 0.09164 0.03477 0.44317 0.0
C400 C 0.11804 0.06819 0.58277 0.0
O401 O 0.11095 0.00108 0.61705 0.0
O402 O 0.09092 0.03036 0.66075 0.0
In403 In 0.71404 0.34511 0.29484 0.0
O404 O 0.67419 0.34771 0.32953 0.0
O405 O 0.69322 0.38021 0.30306 0.0
C406 C 0.72729 0.29775 0.29354 0.0
C407 C 0.73176 0.35764 0.41001 0.0
C408 C 0.72628 0.35796 0.17364 0.0
O409 O 0.70533 0.30416 0.28288 0.0
O410 O 0.74189 0.31514 0.30408 0.0
O411 O 0.73966 0.36278 0.22199 0.0
O412 O 0.7063 0.34733 0.18684 0.0
C413 C 0.67451 0.37093 0.32929 0.0
O414 O 0.74244 0.36438 0.3585 0.0
O415 O 0.71344 0.34392 0.40265 0.0
C416 C 0.9804 0.48733 0.0507 0.0
C417 C 0.97507 0.51227 0.06124 0.0
C418 C 0.00458 0.47876 0.04857 0.0
C419 C 0.02442 0.4948 0.05679 0.0
H420 H 0.96576 0.47418 0.04423 0.0
H421 H 0.00769 0.4594 0.04083 0.0
S422 S 0.02046 0.56198 0.08448 0.0
N423 N 0.99169 0.55296 0.0791 0.0
N424 N 0.03713 0.53703 0.07503 0.0
C425 C 0.01938 0.51987 0.06685 0.0
C426 C 0.99472 0.52856 0.06911 0.0
C427 C 0.73359 0.76965 0.32391 0.0
C428 C 0.75847 0.77534 0.31375 0.0
C429 C 0.72537 0.74533 0.32514 0.0
C430 C 0.74172 0.72576 0.31648 0.0
H431 H 0.72023 0.7841 0.33045 0.0
H432 H 0.70603 0.7419 0.33236 0.0
S433 S 0.80892 0.73077 0.29007 0.0
N434 N 0.79946 0.75936 0.29616 0.0
N435 N 0.78419 0.71372 0.29867 0.0
C436 C 0.76674 0.73119 0.30717 0.0
C437 C 0.77507 0.75595 0.30572 0.0
C438 C 0.48114 0.48339 0.55688 0.0
C439 C 0.47539 0.50801 0.54315 0.0
C440 C 0.50544 0.4753 0.56021 0.0
C441 C 0.525 0.4915 0.54987 0.0
H442 H 0.46675 0.47016 0.56572 0.0
H443 H 0.50887 0.45622 0.57114 0.0
S444 S 0.5199 0.55778 0.51095 0.0
N445 N 0.49128 0.54846 0.51825 0.0
N446 N 0.53701 0.53338 0.52427 0.0
C447 C 0.51954 0.51616 0.53551 0.0
C448 C 0.49475 0.5244 0.53217 0.0
C449 C 0.76672 0.22835 0.80843 0.0
C450 C 0.74223 0.22148 0.79697 0.0
C451 C 0.77392 0.25298 0.80777 0.0
C452 C 0.7569 0.27171 0.79563 0.0
H453 H 0.78056 0.2146 0.8179 0.0
H454 H 0.79297 0.25732 0.81669 0.0
S455 S 0.6904 0.26352 0.76355 0.0
N456 N 0.7009 0.23545 0.77368 0.0
N457 N 0.71429 0.2817 0.77241 0.0
C458 C 0.73229 0.26511 0.78432 0.0
C459 C 0.725 0.24001 0.785 0.0
C460 C 0.0173 0.48837 0.55809 0.0
C461 C 0.02299 0.51314 0.57003 0.0
C462 C 0.99302 0.4802 0.55526 0.0
C463 C 0.97341 0.49646 0.56424 0.0
H464 H 0.03174 0.47506 0.55061 0.0
H465 H 0.98965 0.46097 0.54606 0.0
S466 S 0.97832 0.56323 0.59705 0.0
N467 N 0.00697 0.55386 0.59097 0.0
N468 N 0.96128 0.53864 0.58576 0.0
C469 C 0.9788 0.52132 0.5763 0.0
C470 C 0.00358 0.52963 0.5792 0.0
C471 C 0.73647 0.73205 0.7998 0.0
C472 C 0.7612 0.72655 0.78663 0.0
C473 C 0.72808 0.75623 0.80236 0.0
C474 C 0.74402 0.77597 0.79172 0.0
H475 H 0.72339 0.71756 0.8089 0.0
H476 H 0.70892 0.75943 0.81303 0.0
S477 S 0.81044 0.77159 0.75389 0.0
N478 N 0.80149 0.74288 0.76182 0.0
N479 N 0.78578 0.78844 0.76633 0.0
C480 C 0.76879 0.77079 0.77771 0.0
C481 C 0.77734 0.74607 0.77523 0.0
C482 C 0.51637 0.48317 0.07276 0.0
C483 C 0.52159 0.50834 0.06669 0.0
C484 C 0.4922 0.47454 0.07445 0.0
C485 C 0.4723 0.49074 0.07032 0.0
H486 H 0.53108 0.4699 0.07555 0.0
H487 H 0.48915 0.455 0.07815 0.0
S488 S 0.47603 0.55856 0.05732 0.0
N489 N 0.50483 0.54943 0.05884 0.0
N490 N 0.45944 0.53338 0.06231 0.0
C491 C 0.47726 0.51604 0.06554 0.0
C492 C 0.50188 0.52479 0.06361 0.0
C493 C 0.76041 0.26718 0.31176 0.0
C494 C 0.73593 0.27204 0.29448 0.0
C495 C 0.76965 0.24331 0.31281 0.0
C496 C 0.75483 0.22325 0.29647 0.0
H497 H 0.7727 0.28196 0.32463 0.0
H498 H 0.78864 0.24063 0.32622 0.0
S499 S 0.68932 0.22591 0.24813 0.0
N500 N 0.69693 0.25475 0.26109 0.0
N501 N 0.71426 0.20973 0.26281 0.0
C502 C 0.73023 0.22775 0.27937 0.0
C503 C 0.72079 0.25217 0.27845 0.0
C504 C 0.23225 0.26426 0.8158 0.0
C505 C 0.25724 0.26962 0.80615 0.0
C506 C 0.22368 0.24007 0.8168 0.0
C507 C 0.23975 0.22027 0.80822 0.0
H508 H 0.2191 0.27888 0.82259 0.0
H509 H 0.2043 0.23692 0.82417 0.0
S510 S 0.30701 0.22434 0.78202 0.0
N511 N 0.29798 0.25307 0.78837 0.0
N512 N 0.28203 0.20764 0.79025 0.0
C513 C 0.26484 0.22536 0.79875 0.0
C514 C 0.27354 0.25 0.7977 0.0
C515 C 0.23412 0.76517 0.31101 0.0
C516 C 0.25913 0.77053 0.32033 0.0
C517 C 0.22579 0.74101 0.30567 0.0
C518 C 0.24211 0.7212 0.3096 0.0
H519 H 0.22079 0.77977 0.30698 0.0
H520 H 0.2064 0.73787 0.29828 0.0
S521 S 0.30944 0.72523 0.3344 0.0
N522 N 0.30012 0.75398 0.33374 0.0
N523 N 0.28457 0.70853 0.324 0.0
C524 C 0.26717 0.72626 0.31951 0.0
C525 C 0.27565 0.75091 0.32484 0.0
C526 C 0.23314 0.22762 0.31562 0.0
C527 C 0.2576 0.22161 0.30067 0.0
C528 C 0.22494 0.25192 0.31499 0.0
C529 C 0.24085 0.27122 0.29939 0.0
H530 H 0.22012 0.21345 0.32821 0.0
H531 H 0.20599 0.25558 0.32711 0.0
S532 S 0.30664 0.26532 0.25556 0.0
N533 N 0.29761 0.23696 0.26914 0.0
N534 N 0.28231 0.28265 0.26782 0.0
C535 C 0.26537 0.26548 0.28392 0.0
C536 C 0.2737 0.24068 0.28461 0.0
C537 C 0.23045 0.72974 0.78008 0.0
C538 C 0.25571 0.72444 0.78181 0.0
C539 C 0.22189 0.75392 0.77799 0.0
C540 C 0.23826 0.77374 0.77726 0.0
H541 H 0.2171 0.71509 0.7814 0.0
H542 H 0.2023 0.75708 0.77831 0.0
S543 S 0.30624 0.76971 0.77604 0.0
N544 N 0.29699 0.74098 0.7793 0.0
N545 N 0.28105 0.7864 0.7748 0.0
C546 C 0.26361 0.76868 0.777 0.0
C547 C 0.27228 0.74405 0.7795 0.0
C548 C 0.4822 0.9844 0.53476 0.0
C549 C 0.47709 0.00932 0.54642 0.0
C550 C 0.50626 0.97594 0.52734 0.0
C551 C 0.52622 0.99207 0.5309 0.0
H552 H 0.46748 0.97115 0.53185 0.0
H553 H 0.50922 0.95655 0.51959 0.0
S554 S 0.52283 0.05922 0.55953 0.0
N555 N 0.49403 0.0501 0.56034 0.0
N556 N 0.53926 0.03437 0.54618 0.0
C557 C 0.52138 0.01715 0.54157 0.0
C558 C 0.49684 0.02572 0.54944 0.0
C559 C 0.98811 0.0217 0.01121 0.0
C560 C 0.96771 0.00673 0.02322 0.0
C561 C 0.01195 0.01235 0.01484 0.0
C562 C 0.01639 0.98766 0.03085 0.0
H563 H 0.98571 0.04093 7e-05 0.0
H564 H 0.02705 0.02475 0.00586 0.0
S565 S 0.96926 0.94048 0.06446 0.0
N566 N 0.95348 0.96566 0.04987 0.0
N567 N 0.99833 0.94822 0.05686 0.0
C568 C 0.99616 0.97233 0.04162 0.0
C569 C 0.97183 0.98182 0.03771 0.0
C570 C 0.51029 0.01893 0.08395 0.0
C571 C 0.52963 0.00242 0.07383 0.0
C572 C 0.48586 0.01108 0.08213 0.0
C573 C 0.47976 0.98642 0.06995 0.0
H574 H 0.51399 0.03813 0.09259 0.0
H575 H 0.47162 0.02458 0.0899 0.0
S576 S 0.52359 0.93568 0.04162 0.0
N577 N 0.54102 0.96002 0.05233 0.0
N578 N 0.49512 0.94547 0.04873 0.0
C579 C 0.49891 0.96965 0.06046 0.0
C580 C 0.52381 0.97761 0.0625 0.0
C581 C 0.0102 0.98689 0.57506 0.0
C582 C 0.01678 0.01169 0.56794 0.0
C583 C 0.98566 0.97974 0.58124 0.0
C584 C 0.9667 0.99713 0.58082 0.0
H585 H 0.0241 0.97273 0.57495 0.0
H586 H 0.98154 0.96041 0.58499 0.0
S587 S 0.97423 0.0646 0.56777 0.0
N588 N 0.0024 0.05375 0.56377 0.0
N589 N 0.95629 0.04048 0.57574 0.0
C590 C 0.97307 0.02208 0.57557 0.0
C591 C 0.99808 0.02933 0.56895 0.0
C592 C 0.11473 0.47648 0.82622 0.0
C593 C 0.11588 0.49241 0.8796 0.0
C594 C 0.11482 0.48552 0.76271 0.0
C595 C 0.1155 0.51084 0.75036 0.0
H596 H 0.11294 0.45693 0.83355 0.0
H597 H 0.11296 0.47261 0.72319 0.0
S598 S 0.12095 0.56015 0.87281 0.0
N599 N 0.11984 0.53466 0.91566 0.0
N600 N 0.11931 0.5516 0.79626 0.0
C601 C 0.11785 0.52689 0.80308 0.0
C602 C 0.11825 0.51768 0.86774 0.0
C603 C 0.72483 0.86291 0.04048 0.0
C604 C 0.74129 0.86351 0.98813 0.0
C605 C 0.73322 0.86336 0.10469 0.0
C606 C 0.75842 0.86382 0.11893 0.0
H607 H 0.70532 0.86155 0.0318 0.0
H608 H 0.71989 0.86217 0.14338 0.0
S609 S 0.80903 0.867 -0.00044 0.0
N610 N 0.78395 0.86611 0.95495 0.0
N611 N 0.7997 0.86622 0.07557 0.0
C612 C 0.77504 0.86523 0.06713 0.0
C613 C 0.76648 0.86529 0.00174 0.0
C614 C 0.3811 0.47149 0.29186 0.0
C615 C 0.37938 0.48747 0.23869 0.0
C616 C 0.38138 0.48045 0.35543 0.0
C617 C 0.38046 0.50574 0.36797 0.0
H618 H 0.38325 0.45199 0.28428 0.0
H619 H 0.38384 0.46754 0.39472 0.0
S620 S 0.37294 0.55509 0.24644 0.0
N621 N 0.3742 0.52968 0.20328 0.0
N622 N 0.37539 0.54647 0.32278 0.0
C623 C 0.37728 0.52181 0.31561 0.0
C624 C 0.37653 0.51268 0.25091 0.0
C625 C 0.77103 0.13254 0.5967 0.0
C626 C 0.74587 0.13132 0.61098 0.0
C627 C 0.77936 0.13349 0.53249 0.0
C628 C 0.7629 0.13268 0.48015 0.0
H629 H 0.78435 0.13407 0.63537 0.0
H630 H 0.79882 0.13558 0.52384 0.0
S631 S 0.69532 0.12691 0.49158 0.0
N632 N 0.70467 0.12767 0.56758 0.0
N633 N 0.72033 0.12878 0.44697 0.0
C634 C 0.7378 0.12995 0.49375 0.0
C635 C 0.72928 0.12947 0.55915 0.0
C636 C 0.88431 0.48707 0.26269 0.0
C637 C 0.88411 0.51232 0.24931 0.0
C638 C 0.88428 0.47843 0.32656 0.0
C639 C 0.88349 0.49471 0.37924 0.0
H640 H 0.8858 0.4739 0.22369 0.0
H641 H 0.88562 0.45889 0.33473 0.0
S642 S 0.87993 0.56249 0.36965 0.0
N643 N 0.88127 0.55344 0.29347 0.0
N644 N 0.88054 0.53724 0.41358 0.0
C645 C 0.88171 0.51995 0.36636 0.0
C646 C 0.88222 0.52875 0.30133 0.0
C647 C 0.26041 0.12925 0.00745 0.0
C648 C 0.23517 0.13069 0.99424 0.0
C649 C 0.26918 0.12943 0.07124 0.0
C650 C 0.25303 0.1305 0.12415 0.0
H651 H 0.27358 0.12925 0.96826 0.0
H652 H 0.2888 0.12941 0.07908 0.0
S653 S 0.18514 0.13188 0.11549 0.0
N654 N 0.19407 0.13152 0.03913 0.0
N655 N 0.21047 0.1312 0.15909 0.0
C656 C 0.22769 0.13044 0.11163 0.0
C657 C 0.21878 0.13073 0.04663 0.0
C658 C 0.6112 0.48307 0.85984 0.0
C659 C 0.61104 0.50832 0.87323 0.0
C660 C 0.61155 0.47441 0.79593 0.0
C661 C 0.61235 0.49068 0.7432 0.0
H662 H 0.60987 0.46989 0.89886 0.0
H663 H 0.6106 0.45485 0.78775 0.0
S664 S 0.61461 0.55851 0.75275 0.0
N665 N 0.61322 0.54946 0.82893 0.0
N666 N 0.61458 0.53324 0.70887 0.0
C667 C 0.61358 0.51595 0.75611 0.0
C668 C 0.61271 0.52476 0.82113 0.0
C669 C 0.22434 0.87034 0.56867 0.0
C670 C 0.23926 0.86583 0.62282 0.0
C671 C 0.2339 0.86927 0.50559 0.0
C672 C 0.25858 0.86306 0.49438 0.0
H673 H 0.205 0.87402 0.57502 0.0
H674 H 0.22154 0.87219 0.4653 0.0
S675 S 0.30531 0.84983 0.62022 0.0
N676 N 0.28007 0.85561 0.66137 0.0
N677 N 0.29789 0.8531 0.54326 0.0
C678 C 0.27384 0.85926 0.54836 0.0
C679 C 0.26421 0.86077 0.61247 0.0
C680 C 0.6257 0.018 0.28584 0.0
C681 C 0.62398 0.00184 0.23311 0.0
C682 C 0.62528 0.00933 0.34963 0.0
C683 C 0.62262 0.98421 0.36302 0.0
H684 H 0.62627 0.03759 0.27787 0.0
H685 H 0.62544 0.0226 0.38859 0.0
S686 S 0.62043 0.93406 0.24217 0.0
N687 N 0.62217 0.95929 0.1984 0.0
N688 N 0.6208 0.94307 0.31847 0.0
C689 C 0.62254 0.96772 0.31081 0.0
C690 C 0.62339 0.97652 0.24576 0.0
C691 C 0.22411 0.35904 0.54082 0.0
C692 C 0.24051 0.35974 0.48836 0.0
C693 C 0.23261 0.35922 0.60487 0.0
C694 C 0.25782 0.35954 0.61872 0.0
H695 H 0.20458 0.3577 0.53235 0.0
H696 H 0.21934 0.35785 0.64368 0.0
S697 S 0.30826 0.36332 0.499 0.0
N698 N 0.2831 0.36256 0.45466 0.0
N699 N 0.29904 0.36221 0.57507 0.0
C700 C 0.27437 0.36123 0.56686 0.0
C701 C 0.26571 0.36153 0.50164 0.0
C702 C 0.87079 0.99078 0.85678 0.0
C703 C 0.8709 0.01609 0.86939 0.0
C704 C 0.87042 0.98184 0.79311 0.0
C705 C 0.86968 0.99786 0.73978 0.0
H706 H 0.87276 0.97779 0.89608 0.0
H707 H 0.87197 0.96227 0.78562 0.0
S708 S 0.86548 0.06566 0.74766 0.0
N709 N 0.86736 0.05695 0.82404 0.0
N710 N 0.866 0.04023 0.70446 0.0
C711 C 0.86754 0.02314 0.75209 0.0
C712 C 0.86836 0.03224 0.81689 0.0
C713 C 0.23083 0.6371 0.99256 0.0
C714 C 0.25598 0.63598 0.97815 0.0
C715 C 0.22254 0.63692 0.05681 0.0
C716 C 0.23906 0.63503 0.10881 0.0
H717 H 0.21752 0.63927 0.9541 0.0
H718 H 0.20309 0.63882 0.06582 0.0
S719 S 0.30664 0.62923 0.09633 0.0
N720 N 0.29722 0.63146 0.0206 0.0
N721 N 0.28167 0.63041 0.14127 0.0
C722 C 0.26417 0.63256 0.09482 0.0
C723 C 0.27262 0.63325 0.02948 0.0
C724 C 0.38936 0.9755 0.82968 0.0
C725 C 0.39019 0.99176 0.88239 0.0
C726 C 0.38905 0.98415 0.76579 0.0
C727 C 0.39011 0.00937 0.75224 0.0
H728 H 0.3895 0.9559 0.83776 0.0
H729 H 0.3891 0.9709 0.72675 0.0
S730 S 0.39078 0.05963 0.87286 0.0
N731 N 0.39045 0.03438 0.91678 0.0
N732 N 0.39051 0.05055 0.79662 0.0
C733 C 0.39007 0.02586 0.80442 0.0
C734 C 0.38992 0.01707 0.86953 0.0
C735 C 0.76412 0.63184 0.49947 0.0
C736 C 0.73877 0.63221 0.48728 0.0
C737 C 0.77323 0.63223 0.56289 0.0
C738 C 0.75734 0.63248 0.61641 0.0
H739 H 0.77706 0.63276 0.4598 0.0
H740 H 0.79286 0.63326 0.56996 0.0
S741 S 0.68942 0.63017 0.61031 0.0
N742 N 0.69794 0.6306 0.53364 0.0
N743 N 0.71499 0.63066 0.65296 0.0
C744 C 0.73196 0.631 0.60486 0.0
C745 C 0.72269 0.63106 0.54023 0.0
C746 C 0.10299 0.0207 0.31105 0.0
C747 C 0.10357 0.00452 0.36405 0.0
C748 C 0.10305 0.01196 0.24709 0.0
C749 C 0.10311 0.98669 0.23376 0.0
H750 H 0.10206 0.04028 0.319 0.0
H751 H 0.10199 0.02509 0.20789 0.0
S752 S 0.10603 0.93666 0.35484 0.0
N753 N 0.10564 0.96197 0.39856 0.0
N754 N 0.10504 0.94563 0.27856 0.0
C755 C 0.10438 0.97034 0.28615 0.0
C756 C 0.10482 0.97922 0.35122 0.0
C757 C 0.76004 0.36247 0.09325 0.0
C758 C 0.73477 0.36167 0.10635 0.0
C759 C 0.76883 0.36218 0.02952 0.0
C760 C 0.75268 0.36163 0.97651 0.0
H761 H 0.7732 0.36209 0.1325 0.0
H762 H 0.78845 0.36174 0.02177 0.0
S763 S 0.68479 0.36196 0.98478 0.0
N764 N 0.69368 0.36196 0.0612 0.0
N765 N 0.71016 0.36206 0.94131 0.0
C766 C 0.72735 0.36229 0.98889 0.0
C767 C 0.71841 0.36212 0.05386 0.0
C768 C 0.10764 0.48354 0.36448 0.0
C769 C 0.1103 0.50824 0.38093 0.0
C770 C 0.10676 0.47645 0.29953 0.0
C771 C 0.10927 0.49378 0.24948 0.0
H772 H 0.10462 0.46989 0.4017 0.0
H773 H 0.10341 0.45736 0.28837 0.0
S774 S 0.11988 0.56031 0.26856 0.0
N775 N 0.11727 0.54983 0.34322 0.0
N776 N 0.11692 0.53623 0.22083 0.0
C777 C 0.11386 0.51824 0.26557 0.0
C778 C 0.11402 0.52556 0.33159 0.0
C779 C 0.72266 0.86989 0.56832 0.0
C780 C 0.73999 0.8715 0.61872 0.0
C781 C 0.72993 0.87052 0.5034 0.0
C782 C 0.75477 0.87235 0.48734 0.0
H783 H 0.70352 0.8666 0.57915 0.0
H784 H 0.71635 0.86737 0.46607 0.0
S785 S 0.8067 0.88138 0.6005 0.0
N786 N 0.78251 0.87856 0.64793 0.0
N787 N 0.7963 0.87924 0.52562 0.0
C788 C 0.77196 0.87628 0.53695 0.0
C789 C 0.76452 0.87603 0.60297 0.0
C790 C 0.39335 0.47973 0.75422 0.0
C791 C 0.39022 0.50429 0.73692 0.0
C792 C 0.39413 0.47295 0.81937 0.0
C793 C 0.3911 0.49045 0.8688 0.0
H794 H 0.39662 0.46595 0.71748 0.0
H795 H 0.3976 0.45393 0.83117 0.0
S796 S 0.3793 0.55669 0.84726 0.0
N797 N 0.38226 0.54591 0.77297 0.0
N798 N 0.3827 0.53292 0.8959 0.0
C799 C 0.38626 0.51479 0.85184 0.0
C800 C 0.3861 0.52179 0.78556 0.0
C801 C 0.78174 0.13048 0.0624 0.0
C802 C 0.76432 0.12799 0.11229 0.0
C803 C 0.77476 0.12959 0.99724 0.0
C804 C 0.75009 0.12666 0.98044 0.0
H805 H 0.80066 0.13463 0.07384 0.0
H806 H 0.78834 0.13333 0.96031 0.0
S807 S 0.69817 0.11534 0.09208 0.0
N808 N 0.72205 0.11911 0.14024 0.0
N809 N 0.70875 0.118 0.0175 0.0
C810 C 0.73289 0.12197 0.02954 0.0
C811 C 0.74008 0.12245 0.0958 0.0
C812 C 0.88838 0.47751 0.79924 0.0
C813 C 0.88496 0.49495 0.74982 0.0
C814 C 0.8871 0.48418 0.86439 0.0
C815 C 0.88287 0.50857 0.88161 0.0
H816 H 0.89307 0.45875 0.78749 0.0
H817 H 0.89137 0.47065 0.90106 0.0
S818 S 0.86903 0.56033 0.77154 0.0
N819 N 0.874 0.53686 0.72277 0.0
N820 N 0.87231 0.54963 0.84583 0.0
C821 C 0.87753 0.52578 0.83308 0.0
C822 C 0.87838 0.51889 0.76676 0.0
C823 C 0.26437 0.13202 0.60754 0.0
C824 C 0.23965 0.12971 0.62426 0.0
C825 C 0.27134 0.13285 0.54248 0.0
C826 C 0.25382 0.13098 0.49263 0.0
H827 H 0.27809 0.1351 0.64457 0.0
H828 H 0.29044 0.13612 0.53113 0.0
S829 S 0.18734 0.12011 0.51277 0.0
N830 N 0.19803 0.12238 0.58734 0.0
N831 N 0.21127 0.1234 0.46459 0.0
C832 C 0.22939 0.12626 0.50902 0.0
C833 C 0.22225 0.12581 0.57522 0.0
C834 C 0.61724 0.52284 0.29209 0.0
C835 C 0.61614 0.50554 0.24162 0.0
C836 C 0.61766 0.51542 0.35688 0.0
C837 C 0.61639 0.49053 0.37269 0.0
H838 H 0.61644 0.54226 0.28149 0.0
H839 H 0.61698 0.52922 0.3945 0.0
S840 S 0.61708 0.4381 0.25853 0.0
N841 N 0.61715 0.46257 0.21155 0.0
N842 N 0.61696 0.44852 0.33356 0.0
C843 C 0.61726 0.47306 0.32271 0.0
C844 C 0.61744 0.48061 0.25685 0.0
C845 C 0.24657 0.86847 0.02106 0.0
C846 C 0.24226 0.84631 0.98835 0.0
C847 C 0.25229 0.86861 0.08731 0.0
C848 C 0.25451 0.84655 0.1217 0.0
H849 H 0.24486 0.88577 0.99579 0.0
H850 H 0.25557 0.88594 0.11131 0.0
S851 S 0.24608 0.78376 0.05754 0.0
N852 N 0.24103 0.80186 0.99498 0.0
N853 N 0.25247 0.80214 0.11865 0.0
C854 C 0.25069 0.82435 0.0892 0.0
C855 C 0.24444 0.82421 0.02257 0.0
C856 C 0.62284 0.99297 0.7648 0.0
C857 C 0.60254 0.99857 0.72592 0.0
C858 C 0.62204 0.99692 0.83177 0.0
C859 C 0.60115 0.00713 0.86098 0.0
H860 H 0.63891 0.98444 0.74389 0.0
H861 H 0.63784 0.99202 0.8607 0.0
S862 S 0.54378 0.02592 0.77806 0.0
N863 N 0.56141 0.01513 0.71979 0.0
N864 N 0.56002 0.02344 0.84517 0.0
C865 C 0.58108 0.01353 0.82176 0.0
C866 C 0.58178 0.00908 0.75418 0.0
C867 C 0.26491 0.36356 0.1033 0.0
C868 C 0.24003 0.3645 0.11944 0.0
C869 C 0.27214 0.36273 0.03846 0.0
C870 C 0.25473 0.36327 0.98817 0.0
H871 H 0.27867 0.36143 0.14068 0.0
H872 H 0.29141 0.36033 0.02767 0.0
S873 S 0.18767 0.37055 0.00625 0.0
N874 N 0.19819 0.36936 0.08117 0.0
N875 N 0.21193 0.36832 0.9588 0.0
C876 C 0.23002 0.3668 0.00379 0.0
C877 C 0.22262 0.36724 0.06981 0.0
C878 C 0.8724 0.00796 0.33954 0.0
C879 C 0.89426 0.00189 0.37183 0.0
C880 C 0.8723 0.01245 0.27255 0.0
C881 C 0.89414 0.01146 0.23665 0.0
H882 H 0.85524 0.00861 0.36577 0.0
H883 H 0.85522 0.01731 0.24914 0.0
S884 S 0.9562 0.99703 0.29904 0.0
N885 N 0.93824 0.99556 0.36309 0.0
N886 N 0.93805 0.00412 0.23802 0.0
C887 C 0.91605 0.00564 0.26868 0.0
C888 C 0.91613 0.0009 0.33617 0.0
C889 C 0.27308 0.6302 0.55875 0.0
C890 C 0.25544 0.62867 0.60837 0.0
C891 C 0.26626 0.62889 0.49363 0.0
C892 C 0.24159 0.62635 0.47668 0.0
H893 H 0.29208 0.63395 0.57021 0.0
H894 H 0.27999 0.63212 0.45675 0.0
S895 S 0.18916 0.61674 0.58768 0.0
N896 N 0.21294 0.62062 0.63611 0.0
N897 N 0.2 0.61861 0.51321 0.0
C898 C 0.22417 0.62232 0.52558 0.0
C899 C 0.23115 0.62332 0.59186 0.0
C900 C 0.39157 0.97266 0.30201 0.0
C901 C 0.38762 0.98984 0.25218 0.0
C902 C 0.38949 0.97935 0.36702 0.0
C903 C 0.38371 0.00348 0.38372 0.0
H904 H 0.39745 0.95419 0.2908 0.0
H905 H 0.39445 0.96619 0.40403 0.0
S906 S 0.36714 0.05402 0.2724 0.0
N907 N 0.374 0.03088 0.22414 0.0
N908 N 0.37065 0.04366 0.34694 0.0
C909 C 0.37751 0.02019 0.33472 0.0
C910 C 0.37929 0.01329 0.26852 0.0
C911 C 0.72623 0.64504 0.0674 0.0
C912 C 0.74373 0.64417 0.1174 0.0
C913 C 0.73333 0.6445 0.00245 0.0
C914 C 0.75818 0.64399 0.98587 0.0
H915 H 0.7069 0.64656 0.07858 0.0
H916 H 0.71941 0.64582 0.96522 0.0
S917 S 0.81098 0.64002 0.09847 0.0
N918 N 0.78671 0.64087 0.14615 0.0
N919 N 0.8003 0.64132 0.02375 0.0
C920 C 0.77582 0.64236 0.0353 0.0
C921 C 0.76852 0.64206 0.10135 0.0
C922 C 0.11193 0.97133 0.81324 0.0
C923 C 0.11219 0.98836 0.86446 0.0
C924 C 0.11185 0.97908 0.74869 0.0
C925 C 0.1115 0.00409 0.73379 0.0
H926 H 0.1103 0.95191 0.82316 0.0
H927 H 0.11004 0.96552 0.71071 0.0
S928 S 0.11635 0.05576 0.84967 0.0
N929 N 0.11573 0.03107 0.8958 0.0
N930 N 0.11479 0.04578 0.77433 0.0
C931 C 0.11394 0.0212 0.78431 0.0
C932 C 0.11455 0.01328 0.84991 0.0
C933 C 0.77225 0.35966 0.5561 0.0
C934 C 0.75511 0.36274 0.60646 0.0
C935 C 0.76499 0.36034 0.49121 0.0
C936 C 0.74033 0.36372 0.4751 0.0
H937 H 0.79123 0.35556 0.56694 0.0
H938 H 0.77836 0.35635 0.45392 0.0
S939 S 0.68907 0.37659 0.58765 0.0
N940 N 0.71305 0.37252 0.63526 0.0
N941 N 0.69928 0.37326 0.51291 0.0
C942 C 0.72338 0.36876 0.52448 0.0
C943 C 0.73082 0.36845 0.59049 0.0
C944 C 0.13003 0.38755 0.14757 0.0
C945 C 0.1326 0.41314 0.14862 0.0
C946 C 0.14262 0.3728 0.19267 0.0
C947 C 0.15756 0.38329 0.24113 0.0
H948 H 0.11911 0.3789 0.11025 0.0
H949 H 0.14158 0.35309 0.18755 0.0
S950 S 0.16652 0.44971 0.27088 0.0
N951 N 0.14905 0.44839 0.20586 0.0
N952 N 0.17139 0.421 0.29193 0.0
C953 C 0.15851 0.40894 0.24542 0.0
C954 C 0.14641 0.42378 0.19876 0.0
C955 C 0.86132 0.89254 0.47588 0.0
C956 C 0.86363 0.9176 0.46223 0.0
C957 C 0.84972 0.87673 0.43151 0.0
C958 C 0.84039 0.88559 0.37218 0.0
H959 H 0.86719 0.88543 0.52232 0.0
H960 H 0.84651 0.85793 0.4458 0.0
S961 S 0.84657 0.94876 0.30909 0.0
N962 N 0.85892 0.94979 0.38198 0.0
N963 N 0.83755 0.92019 0.29887 0.0
C964 C 0.84466 0.91014 0.35609 0.0
C965 C 0.85614 0.92615 0.40115 0.0
C966 C 0.34414 0.57354 0.67098 0.0
C967 C 0.36275 0.58378 0.63256 0.0
C968 C 0.33168 0.5874 0.71701 0.0
C969 C 0.33674 0.61241 0.72582 0.0
H970 H 0.33922 0.55441 0.66616 0.0
H971 H 0.31722 0.57848 0.74405 0.0
S972 S 0.38492 0.6478 0.64036 0.0
N973 N 0.387 0.61999 0.60934 0.0
N974 N 0.36258 0.6467 0.69425 0.0
C975 C 0.35583 0.62286 0.68914 0.0
C976 C 0.36904 0.60841 0.64288 0.0
C977 C 0.652 0.11934 0.91913 0.0
C978 C 0.66537 0.10853 0.86806 0.0
C979 C 0.63944 0.10487 0.96485 0.0
C980 C 0.64036 0.0792 0.96156 0.0
H981 H 0.65222 0.13901 0.92572 0.0
H982 H 0.62984 0.11376 0.00426 0.0
S983 S 0.66955 0.04218 0.83183 0.0
N984 N 0.67602 0.07077 0.81278 0.0
N985 N 0.65329 0.04373 0.89897 0.0
C986 C 0.6525 0.06834 0.9087 0.0
C987 C 0.66475 0.08297 0.86184 0.0
C988 C 0.14197 0.6223 0.41013 0.0
C989 C 0.16052 0.61085 0.37349 0.0
C990 C 0.13 0.60988 0.46089 0.0
C991 C 0.13683 0.58593 0.47829 0.0
H992 H 0.13697 0.64112 0.4003 0.0
H993 H 0.11558 0.61916 0.4872 0.0
S994 S 0.18309 0.54713 0.39507 0.0
N995 N 0.18376 0.57338 0.35581 0.0
N996 N 0.16244 0.55078 0.4524 0.0
C997 C 0.15515 0.57425 0.44154 0.0
C998 C 0.16662 0.58648 0.38877 0.0
C999 C 0.64012 0.92087 0.70453 0.0
C1000 C 0.62851 0.91052 0.65033 0.0
C1001 C 0.65269 0.90642 0.74923 0.0
C1002 C 0.65456 0.88095 0.7411 0.0
H1003 H 0.64019 0.94053 0.71138 0.0
H1004 H 0.66237 0.91553 0.78819 0.0
S1005 S 0.62475 0.84455 0.61115 0.0
N1006 N 0.6172 0.87317 0.5944 0.0
N1007 N 0.64154 0.84564 0.67769 0.0
C1008 C 0.64144 0.87008 0.68966 0.0
C1009 C 0.62826 0.88497 0.6443 0.0
C1010 C 0.35316 0.3706 0.92036 0.0
C1011 C 0.33878 0.38147 0.87132 0.0
C1012 C 0.36587 0.38503 0.96595 0.0
C1013 C 0.36402 0.41067 0.96466 0.0
H1014 H 0.35361 0.35088 0.92561 0.0
H1015 H 0.37625 0.37609 0.00387 0.0
S1016 S 0.33216 0.44807 0.84027 0.0
N1017 N 0.32645 0.41948 0.81944 0.0
N1018 N 0.34916 0.44633 0.90609 0.0
C1019 C 0.35093 0.42166 0.91368 0.0
C1020 C 0.33864 0.40713 0.86669 0.0
C1021 C 0.85197 0.13569 0.16116 0.0
C1022 C 0.85076 0.1292 0.22718 0.0
C1023 C 0.8647 0.12105 0.11648 0.0
C1024 C 0.87724 0.10006 0.13704 0.0
H1025 H 0.84108 0.15076 0.14285 0.0
H1026 H 0.86337 0.12526 0.06534 0.0
S1027 S 0.88254 0.07718 0.30538 0.0
N1028 N 0.86486 0.10162 0.31129 0.0
N1029 N 0.88985 0.07488 0.22802 0.0
C1030 C 0.87801 0.0947 0.20355 0.0
C1031 C 0.86452 0.10914 0.24859 0.0
C1032 C 0.87325 0.6065 0.9445 0.0
C1033 C 0.86173 0.5904 0.98844 0.0
C1034 C 0.85985 0.61832 0.89524 0.0
C1035 C 0.8347 0.61381 0.88713 0.0
H1036 H 0.89285 0.60934 0.94672 0.0
H1037 H 0.86931 0.63053 0.86238 0.0
S1038 S 0.79532 0.57584 0.99421 0.0
N1039 N 0.82309 0.57299 0.02466 0.0
N1040 N 0.7984 0.59393 0.93087 0.0
C1041 C 0.82289 0.59845 0.93213 0.0
C1042 C 0.83627 0.58715 0.98317 0.0
C1043 C 0.1269 0.10719 0.64412 0.0
C1044 C 0.13269 0.08272 0.62945 0.0
C1045 C 0.13979 0.12007 0.69254 0.0
C1046 C 0.15826 0.1086 0.72949 0.0
H1047 H 0.1126 0.11652 0.61744 0.0
H1048 H 0.13556 0.13922 0.70022 0.0
S1049 S 0.17797 0.04365 0.71546 0.0
N1050 N 0.15705 0.04707 0.65869 0.0
N1051 N 0.18005 0.07056 0.7511 0.0
C1052 C 0.16324 0.08374 0.71716 0.0
C1053 C 0.15083 0.07101 0.66674 0.0
C1054 C 0.64036 0.37486 0.4109 0.0
C1055 C 0.65878 0.38584 0.37283 0.0
C1056 C 0.6285 0.38796 0.46068 0.0
C1057 C 0.63535 0.41212 0.4756 0.0
H1058 H 0.63539 0.3559 0.40307 0.0
H1059 H 0.6142 0.37903 0.48826 0.0
S1060 S 0.68092 0.44998 0.38706 0.0
N1061 N 0.6816 0.42319 0.35043 0.0
N1062 N 0.6606 0.44702 0.44547 0.0
C1063 C 0.65343 0.42337 0.43719 0.0
C1064 C 0.66476 0.41046 0.38536 0.0
C1065 C 0.36869 0.88692 0.15092 0.0
C1066 C 0.36561 0.91243 0.14695 0.0
C1067 C 0.35488 0.87293 0.19525 0.0
C1068 C 0.3381 0.88418 0.23786 0.0
H1069 H 0.38116 0.87769 0.11827 0.0
H1070 H 0.3566 0.85318 0.19422 0.0
S1071 S 0.32714 0.95092 0.25492 0.0
N1072 N 0.34675 0.94855 0.19458 0.0
N1073 N 0.32186 0.9226 0.27881 0.0
C1074 C 0.3364 0.90983 0.23734 0.0
C1075 C 0.34986 0.92387 0.19162 0.0
C1076 C 0.85348 0.37513 0.68858 0.0
C1077 C 0.83746 0.38554 0.73464 0.0
C1078 C 0.8668 0.38994 0.64517 0.0
C1079 C 0.86392 0.4155 0.64554 0.0
H1080 H 0.85485 0.35542 0.68393 0.0
H1081 H 0.87855 0.38135 0.60955 0.0
S1082 S 0.82744 0.4519 0.76289 0.0
N1083 N 0.82236 0.42317 0.7833 0.0
N1084 N 0.84615 0.45067 0.70033 0.0
C1085 C 0.84908 0.42608 0.69366 0.0
C1086 C 0.8362 0.41119 0.73864 0.0
C1087 C 0.36968 0.10538 0.45734 0.0
C1088 C 0.3608 0.08378 0.48634 0.0
C1089 C 0.35606 0.11774 0.40941 0.0
C1090 C 0.33351 0.10845 0.3872 0.0
H1091 H 0.38731 0.11271 0.47154 0.0
H1092 H 0.36324 0.13462 0.38952 0.0
S1093 S 0.30224 0.05235 0.44688 0.0
N1094 N 0.32772 0.05389 0.4894 0.0
N1095 N 0.30291 0.07632 0.39853 0.0
C1096 C 0.32462 0.08674 0.4155 0.0
C1097 C 0.33801 0.07466 0.46529 0.0
C1098 C 0.62298 0.60503 0.1702 0.0
C1099 C 0.63367 0.59032 0.12163 0.0
C1100 C 0.63757 0.61803 0.21482 0.0
C1101 C 0.66322 0.61614 0.21302 0.0
H1102 H 0.60327 0.60555 0.17591 0.0
H1103 H 0.62878 0.62867 0.25246 0.0
S1104 S 0.70017 0.58346 0.08923 0.0
N1105 N 0.6715 0.57762 0.0694 0.0
N1106 N 0.69868 0.6009 0.15428 0.0
C1107 C 0.67403 0.60272 0.1624 0.0
C1108 C 0.65932 0.59013 0.11636 0.0
C1109 C 0.13137 0.87927 0.88473 0.0
C1110 C 0.1565 0.87701 0.8979 0.0
C1111 C 0.11585 0.89182 0.92801 0.0
C1112 C 0.12504 0.90217 0.98577 0.0
H1113 H 0.12401 0.87261 0.83933 0.0
H1114 H 0.09699 0.89489 0.91394 0.0
S1115 S 0.18848 0.89669 0.04761 0.0
N1116 N 0.18908 0.88298 0.97643 0.0
N1117 N 0.16001 0.90609 0.05753 0.0
C1118 C 0.14964 0.89799 0.00166 0.0
C1119 C 0.16536 0.88555 0.95768 0.0
loop_
_geom_bond_atom_site_label_1
_geom_bond_atom_site_label_2
_geom_bond_distance
_geom_bond_site_symmetry_2
_ccdc_geom_bond_type
In0 O1 2.294 . S
In0 O2 2.326 . S
In0 O6 2.266 . S
In0 O7 2.326 . S
In0 O8 2.263 1_554 S
In0 O9 2.326 1_554 S
In0 O11 2.294 . S
In0 O12 2.326 . S
O1 In0 2.294 . S
O1 C10 1.240 . S
O2 In0 2.326 . S
O2 C10 1.252 . S
C3 O6 1.252 . S
C3 O7 1.260 . S
C4 O11 1.240 . S
C4 O12 1.252 . S
C5 O8 1.255 . S
C5 O9 1.260 . S
O6 In0 2.266 . S
O6 C3 1.252 . S
O7 In0 2.326 . S
O7 C3 1.260 . S
O8 In0 2.263 1_556 S
O8 C5 1.255 . S
O9 In0 2.326 1_556 S
O9 C5 1.260 . S
C10 O1 1.240 . S
C10 O2 1.252 . S
O11 In0 2.294 . S
O11 C4 1.240 . S
O12 In0 2.326 . S
O12 C4 1.252 . S
In13 O14 2.294 . S
In13 O15 2.326 . S
In13 O19 2.266 . S
In13 O20 2.326 . S
In13 O21 2.266 . S
In13 O22 2.326 . S
In13 O24 2.294 . S
In13 O25 2.326 . S
O14 In13 2.294 . S
O14 C23 1.240 . S
O15 In13 2.326 . S
O15 C23 1.252 . S
C16 O19 1.252 . S
C16 O20 1.260 . S
C17 O24 1.240 . S
C17 O25 1.252 . S
C18 O21 1.252 . S
C18 O22 1.260 . S
O19 In13 2.266 . S
O19 C16 1.252 . S
O20 In13 2.326 . S
O20 C16 1.260 . S
O21 In13 2.266 . S
O21 C18 1.252 . S
O22 In13 2.326 . S
O22 C18 1.260 . S
C23 O14 1.240 . S
C23 O15 1.252 . S
O24 In13 2.294 . S
O24 C17 1.240 . S
O25 In13 2.326 . S
O25 C17 1.252 . S
In26 O27 2.294 . S
In26 O28 2.326 . S
In26 O32 2.266 . S
In26 O33 2.326 . S
In26 O34 2.266 . S
In26 O35 2.326 . S
In26 O37 2.294 . S
In26 O38 2.326 . S
O27 In26 2.294 . S
O27 C36 1.240 . S
O28 In26 2.326 . S
O28 C36 1.252 . S
C29 O32 1.252 . S
C29 O33 1.260 . S
C30 O37 1.240 . S
C30 O38 1.252 . S
C31 O34 1.252 . S
C31 O35 1.260 . S
O32 In26 2.266 . S
O32 C29 1.252 . S
O33 In26 2.326 . S
O33 C29 1.260 . S
O34 In26 2.266 . S
O34 C31 1.252 . S
O35 In26 2.326 . S
O35 C31 1.260 . S
C36 O27 1.240 . S
C36 O28 1.252 . S
O37 In26 2.294 . S
O37 C30 1.240 . S
O38 In26 2.326 . S
O38 C30 1.252 . S
In39 O40 2.294 . S
In39 O41 2.326 . S
In39 O45 2.266 . S
In39 O46 2.326 . S
In39 O47 2.266 . S
In39 O48 2.326 . S
In39 O50 2.294 . S
In39 O51 2.326 . S
O40 In39 2.294 . S
O40 C49 1.240 . S
O41 In39 2.326 . S
O41 C49 1.252 . S
C42 O45 1.252 . S
C42 O46 1.260 . S
C43 O50 1.240 . S
C43 O51 1.252 . S
C44 O47 1.252 . S
C44 O48 1.260 . S
O45 In39 2.266 . S
O45 C42 1.252 . S
O46 In39 2.326 . S
O46 C42 1.260 . S
O47 In39 2.266 . S
O47 C44 1.252 . S
O48 In39 2.326 . S
O48 C44 1.260 . S
C49 O40 1.240 . S
C49 O41 1.252 . S
O50 In39 2.294 . S
O50 C43 1.240 . S
O51 In39 2.326 . S
O51 C43 1.252 . S
In52 O53 2.294 . S
In52 O54 2.326 . S
In52 O58 2.266 . S
In52 O59 2.326 . S
In52 O60 2.266 . S
In52 O61 2.326 . S
In52 O63 2.294 . S
In52 O64 2.326 . S
O53 In52 2.294 . S
O53 C62 1.240 . S
O54 In52 2.326 . S
O54 C62 1.252 . S
C55 O58 1.252 . S
C55 O59 1.260 . S
C56 O63 1.240 . S
C56 O64 1.252 . S
C57 O60 1.252 . S
C57 O61 1.260 . S
O58 In52 2.266 . S
O58 C55 1.252 . S
O59 In52 2.326 . S
O59 C55 1.260 . S
O60 In52 2.266 . S
O60 C57 1.252 . S
O61 In52 2.326 . S
O61 C57 1.260 . S
C62 O53 1.240 . S
C62 O54 1.252 . S
O63 In52 2.294 . S
O63 C56 1.240 . S
O64 In52 2.326 . S
O64 C56 1.252 . S
In65 O66 2.294 . S
In65 O67 2.326 . S
In65 O71 2.266 . S
In65 O72 2.326 . S
In65 O73 2.266 . S
In65 O74 2.326 . S
In65 O76 2.294 . S
In65 O77 2.326 . S
O66 In65 2.294 . S
O66 C75 1.240 . S
O67 In65 2.326 . S
O67 C75 1.252 . S
C68 O71 1.252 . S
C68 O72 1.260 . S
C69 O76 1.240 . S
C69 O77 1.252 . S
C70 O73 1.252 . S
C70 O74 1.260 . S
O71 In65 2.266 . S
O71 C68 1.252 . S
O72 In65 2.326 . S
O72 C68 1.260 . S
O73 In65 2.266 . S
O73 C70 1.252 . S
O74 In65 2.326 . S
O74 C70 1.260 . S
C75 O66 1.240 . S
C75 O67 1.252 . S
O76 In65 2.294 . S
O76 C69 1.240 . S
O77 In65 2.326 . S
O77 C69 1.252 . S
In78 O79 2.294 . S
In78 O80 2.326 . S
In78 O84 2.266 . S
In78 O85 2.326 . S
In78 O86 2.266 . S
In78 O87 2.326 . S
In78 O89 2.294 1_554 S
In78 O90 2.326 1_554 S
O79 In78 2.294 . S
O79 C88 1.240 . S
O80 In78 2.326 . S
O80 C88 1.252 . S
C81 O84 1.252 . S
C81 O85 1.260 . S
C82 O89 1.240 . S
C82 O90 1.252 . S
C83 O86 1.252 . S
C83 O87 1.260 . S
O84 In78 2.266 . S
O84 C81 1.252 . S
O85 In78 2.326 . S
O85 C81 1.260 . S
O86 In78 2.266 . S
O86 C83 1.252 . S
O87 In78 2.326 . S
O87 C83 1.260 . S
C88 O79 1.240 . S
C88 O80 1.252 . S
O89 In78 2.294 1_556 S
O89 C82 1.240 . S
O90 In78 2.326 1_556 S
O90 C82 1.252 . S
In91 O92 2.294 . S
In91 O93 2.326 . S
In91 O97 2.266 . S
In91 O98 2.326 . S
In91 O99 2.266 . S
In91 O100 2.326 . S
In91 O102 2.294 . S
In91 O103 2.326 . S
O92 In91 2.294 . S
O92 C101 1.240 . S
O93 In91 2.326 . S
O93 C101 1.252 . S
C94 O97 1.252 . S
C94 O98 1.260 . S
C95 O102 1.240 . S
C95 O103 1.252 . S
C96 O99 1.252 . S
C96 O100 1.260 . S
O97 In91 2.266 . S
O97 C94 1.252 . S
O98 In91 2.326 . S
O98 C94 1.260 . S
O99 In91 2.266 . S
O99 C96 1.252 . S
O100 In91 2.326 . S
O100 C96 1.260 . S
C101 O92 1.240 . S
C101 O93 1.252 . S
O102 In91 2.294 . S
O102 C95 1.240 . S
O103 In91 2.326 . S
O103 C95 1.252 . S
In104 O105 2.294 1_554 S
In104 O106 2.326 1_554 S
In104 O110 2.266 . S
In104 O111 2.326 . S
In104 O112 2.266 . S
In104 O113 2.326 . S
In104 O115 2.294 . S
In104 O116 2.326 . S
O105 In104 2.294 1_556 S
O105 C114 1.240 . S
O106 In104 2.326 1_556 S
O106 C114 1.252 . S
C107 O110 1.252 . S
C107 O111 1.260 . S
C108 O115 1.240 . S
C108 O116 1.252 . S
C109 O112 1.252 . S
C109 O113 1.260 . S
O110 In104 2.266 . S
O110 C107 1.252 . S
O111 In104 2.326 . S
O111 C107 1.260 . S
O112 In104 2.266 . S
O112 C109 1.252 . S
O113 In104 2.326 . S
O113 C109 1.260 . S
C114 O105 1.240 . S
C114 O106 1.252 . S
O115 In104 2.294 . S
O115 C108 1.240 . S
O116 In104 2.326 . S
O116 C108 1.252 . S
In117 O118 2.294 . S
In117 O119 2.326 . S
In117 O123 2.266 . S
In117 O124 2.326 . S
In117 O125 2.266 . S
In117 O126 2.326 . S
In117 O128 2.294 . S
In117 O129 2.326 . S
O118 In117 2.294 . S
O118 C127 1.240 . S
O119 In117 2.326 . S
O119 C127 1.252 . S
C120 O123 1.252 . S
C120 O124 1.260 . S
C121 O128 1.240 . S
C121 O129 1.252 . S
C122 O125 1.252 . S
C122 O126 1.260 . S
O123 In117 2.266 . S
O123 C120 1.252 . S
O124 In117 2.326 . S
O124 C120 1.260 . S
O125 In117 2.266 . S
O125 C122 1.252 . S
O126 In117 2.326 . S
O126 C122 1.260 . S
C127 O118 1.240 . S
C127 O119 1.252 . S
O128 In117 2.294 . S
O128 C121 1.240 . S
O129 In117 2.326 . S
O129 C121 1.252 . S
In130 O131 2.294 . S
In130 O132 2.326 . S
In130 O136 2.266 . S
In130 O137 2.326 . S
In130 O138 2.266 . S
In130 O139 2.326 . S
In130 O141 2.294 . S
In130 O142 2.326 . S
O131 In130 2.294 . S
O131 C140 1.240 . S
O132 In130 2.326 . S
O132 C140 1.252 . S
C133 O136 1.252 . S
C133 O137 1.260 . S
C134 O141 1.240 . S
C134 O142 1.252 . S
C135 O138 1.252 . S
C135 O139 1.260 . S
O136 In130 2.266 . S
O136 C133 1.252 . S
O137 In130 2.326 . S
O137 C133 1.260 . S
O138 In130 2.266 . S
O138 C135 1.252 . S
O139 In130 2.326 . S
O139 C135 1.260 . S
C140 O131 1.240 . S
C140 O132 1.252 . S
O141 In130 2.294 . S
O141 C134 1.240 . S
O142 In130 2.326 . S
O142 C134 1.252 . S
In143 O144 2.294 . S
In143 O145 2.326 . S
In143 O149 2.266 . S
In143 O150 2.326 . S
In143 O151 2.266 . S
In143 O152 2.326 . S
In143 O154 2.294 . S
In143 O155 2.326 . S
O144 In143 2.294 . S
O144 C153 1.240 . S
O145 In143 2.326 . S
O145 C153 1.252 . S
C146 O149 1.252 . S
C146 O150 1.260 . S
C147 O154 1.240 . S
C147 O155 1.252 . S
C148 O151 1.252 . S
C148 O152 1.260 . S
O149 In143 2.266 . S
O149 C146 1.252 . S
O150 In143 2.326 . S
O150 C146 1.260 . S
O151 In143 2.266 . S
O151 C148 1.252 . S
O152 In143 2.326 . S
O152 C148 1.260 . S
C153 O144 1.240 . S
C153 O145 1.252 . S
O154 In143 2.294 . S
O154 C147 1.240 . S
O155 In143 2.326 . S
O155 C147 1.252 . S
In156 O157 2.294 . S
In156 O158 2.326 . S
In156 O162 2.266 . S
In156 O163 2.326 . S
In156 O164 2.266 . S
In156 O165 2.326 . S
In156 O167 2.294 . S
In156 O168 2.326 . S
O157 In156 2.294 . S
O157 C166 1.240 . S
O158 In156 2.326 . S
O158 C166 1.252 . S
C159 O162 1.252 . S
C159 O163 1.260 . S
C160 O167 1.240 . S
C160 O168 1.252 . S
C161 O164 1.252 . S
C161 O165 1.260 . S
O162 In156 2.266 . S
O162 C159 1.252 . S
O163 In156 2.326 . S
O163 C159 1.260 . S
O164 In156 2.266 . S
O164 C161 1.252 . S
O165 In156 2.326 . S
O165 C161 1.260 . S
C166 O157 1.240 . S
C166 O158 1.252 . S
O167 In156 2.294 . S
O167 C160 1.240 . S
O168 In156 2.326 . S
O168 C160 1.252 . S
In169 O170 2.294 . S
In169 O171 2.326 . S
In169 O175 2.266 . S
In169 O176 2.326 . S
In169 O177 2.266 . S
In169 O178 2.326 . S
In169 O180 2.294 . S
In169 O181 2.326 . S
O170 In169 2.294 . S
O170 C179 1.240 . S
O171 In169 2.326 . S
O171 C179 1.252 . S
C172 O175 1.252 . S
C172 O176 1.260 . S
C173 O180 1.240 . S
C173 O181 1.252 . S
C174 O177 1.252 . S
C174 O178 1.260 . S
O175 In169 2.266 . S
O175 C172 1.252 . S
O176 In169 2.326 . S
O176 C172 1.260 . S
O177 In169 2.266 . S
O177 C174 1.252 . S
O178 In169 2.326 . S
O178 C174 1.260 . S
C179 O170 1.240 . S
C179 O171 1.252 . S
O180 In169 2.294 . S
O180 C173 1.240 . S
O181 In169 2.326 . S
O181 C173 1.252 . S
In182 O183 2.294 . S
In182 O184 2.326 . S
In182 O188 2.266 . S
In182 O189 2.326 . S
In182 O190 2.263 1_554 S
In182 O191 2.326 1_554 S
In182 O193 2.294 . S
In182 O194 2.326 . S
O183 In182 2.294 . S
O183 C192 1.240 . S
O184 In182 2.326 . S
O184 C192 1.252 . S
C185 O188 1.252 . S
C185 O189 1.260 . S
C186 O193 1.240 . S
C186 O194 1.252 . S
C187 O190 1.255 . S
C187 O191 1.260 . S
O188 In182 2.266 . S
O188 C185 1.252 . S
O189 In182 2.326 . S
O189 C185 1.260 . S
O190 In182 2.263 1_556 S
O190 C187 1.255 . S
O191 In182 2.326 1_556 S
O191 C187 1.260 . S
C192 O183 1.240 . S
C192 O184 1.252 . S
O193 In182 2.294 . S
O193 C186 1.240 . S
O194 In182 2.326 . S
O194 C186 1.252 . S
In195 O196 2.294 . S
In195 O197 2.326 . S
In195 O201 2.266 . S
In195 O202 2.326 . S
In195 O203 2.266 . S
In195 O204 2.326 . S
In195 O206 2.294 . S
In195 O207 2.326 . S
O196 In195 2.294 . S
O196 C205 1.240 . S
O197 In195 2.326 . S
O197 C205 1.252 . S
C198 O201 1.252 . S
C198 O202 1.260 . S
C199 O206 1.240 . S
C199 O207 1.252 . S
C200 O203 1.252 . S
C200 O204 1.260 . S
O201 In195 2.266 . S
O201 C198 1.252 . S
O202 In195 2.326 . S
O202 C198 1.260 . S
O203 In195 2.266 . S
O203 C200 1.252 . S
O204 In195 2.326 . S
O204 C200 1.260 . S
C205 O196 1.240 . S
C205 O197 1.252 . S
O206 In195 2.294 . S
O206 C199 1.240 . S
O207 In195 2.326 . S
O207 C199 1.252 . S
In208 O209 2.294 . S
In208 O210 2.326 . S
In208 O214 2.266 . S
In208 O215 2.326 1_565 S
In208 O216 2.266 1_565 S
In208 O217 2.326 . S
In208 O219 2.294 1_565 S
In208 O220 2.326 . S
O209 In208 2.294 . S
O209 C218 1.240 . S
O210 In208 2.326 . S
O210 C218 1.252 . S
C211 O214 1.252 . S
C211 O215 1.260 1_565 S
C212 O219 1.240 . S
C212 O220 1.252 1_545 S
C213 O216 1.252 1_565 S
C213 O217 1.260 . S
O214 In208 2.266 . S
O214 C211 1.252 . S
O215 In208 2.326 1_545 S
O215 C211 1.260 1_545 S
O216 In208 2.266 1_545 S
O216 C213 1.252 1_545 S
O217 In208 2.326 . S
O217 C213 1.260 . S
C218 O209 1.240 . S
C218 O210 1.252 . S
O219 In208 2.294 1_545 S
O219 C212 1.240 . S
O220 In208 2.326 . S
O220 C212 1.252 1_565 S
In221 O222 2.294 . S
In221 O223 2.326 . S
In221 O227 2.266 . S
In221 O228 2.326 . S
In221 O229 2.266 . S
In221 O230 2.326 . S
In221 O232 2.294 . S
In221 O233 2.326 . S
O222 In221 2.294 . S
O222 C231 1.240 . S
O223 In221 2.326 . S
O223 C231 1.252 . S
C224 O227 1.252 . S
C224 O228 1.260 . S
C225 O232 1.240 . S
C225 O233 1.252 . S
C226 O229 1.252 . S
C226 O230 1.260 . S
O227 In221 2.266 . S
O227 C224 1.252 . S
O228 In221 2.326 . S
O228 C224 1.260 . S
O229 In221 2.266 . S
O229 C226 1.252 . S
O230 In221 2.326 . S
O230 C226 1.260 . S
C231 O222 1.240 . S
C231 O223 1.252 . S
O232 In221 2.294 . S
O232 C225 1.240 . S
O233 In221 2.326 . S
O233 C225 1.252 . S
In234 O235 2.294 . S
In234 O236 2.326 . S
In234 O240 2.266 . S
In234 O241 2.326 1_545 S
In234 O242 2.262 1_544 S
In234 O243 2.326 1_554 S
In234 O245 2.294 1_545 S
In234 O246 2.326 . S
O235 In234 2.294 . S
O235 C244 1.240 . S
O236 In234 2.326 . S
O236 C244 1.252 . S
C237 O240 1.252 . S
C237 O241 1.260 1_545 S
C238 O245 1.240 . S
C238 O246 1.252 1_565 S
C239 O242 1.257 1_545 S
C239 O243 1.260 . S
O240 In234 2.266 . S
O240 C237 1.252 . S
O241 In234 2.326 1_565 S
O241 C237 1.260 1_565 S
O242 In234 2.262 1_566 S
O242 C239 1.257 1_565 S
O243 In234 2.326 1_556 S
O243 C239 1.260 . S
C244 O235 1.240 . S
C244 O236 1.252 . S
O245 In234 2.294 1_565 S
O245 C238 1.240 . S
O246 In234 2.326 . S
O246 C238 1.252 1_545 S
In247 O248 2.294 . S
In247 O249 2.326 . S
In247 O253 2.266 . S
In247 O254 2.326 . S
In247 O255 2.266 . S
In247 O256 2.326 . S
In247 O258 2.294 . S
In247 O259 2.326 . S
O248 In247 2.294 . S
O248 C257 1.240 . S
O249 In247 2.326 . S
O249 C257 1.252 . S
C250 O253 1.252 . S
C250 O254 1.260 . S
C251 O258 1.240 . S
C251 O259 1.252 . S
C252 O255 1.252 . S
C252 O256 1.260 . S
O253 In247 2.266 . S
O253 C250 1.252 . S
O254 In247 2.326 . S
O254 C250 1.260 . S
O255 In247 2.266 . S
O255 C252 1.252 . S
O256 In247 2.326 . S
O256 C252 1.260 . S
C257 O248 1.240 . S
C257 O249 1.252 . S
O258 In247 2.294 . S
O258 C251 1.240 . S
O259 In247 2.326 . S
O259 C251 1.252 . S
In260 O261 2.294 1_544 S
In260 O262 2.326 1_554 S
In260 O266 2.266 1_545 S
In260 O267 2.326 . S
In260 O268 2.266 . S
In260 O269 2.326 1_545 S
In260 O271 2.294 . S
In260 O272 2.326 . S
O261 In260 2.294 1_566 S
O261 C270 1.240 . S
O262 In260 2.326 1_556 S
O262 C270 1.252 1_545 S
C263 O266 1.252 1_545 S
C263 O267 1.260 . S
C264 O271 1.240 . S
C264 O272 1.252 . S
C265 O268 1.252 . S
C265 O269 1.260 1_545 S
O266 In260 2.266 1_565 S
O266 C263 1.252 1_565 S
O267 In260 2.326 . S
O267 C263 1.260 . S
O268 In260 2.266 . S
O268 C265 1.252 . S
O269 In260 2.326 1_565 S
O269 C265 1.260 1_565 S
C270 O261 1.240 . S
C270 O262 1.252 1_565 S
O271 In260 2.294 . S
O271 C264 1.240 . S
O272 In260 2.326 . S
O272 C264 1.252 . S
In273 O274 2.294 . S
In273 O275 2.326 . S
In273 O279 2.266 . S
In273 O280 2.326 . S
In273 O281 2.266 . S
In273 O282 2.326 . S
In273 O284 2.294 . S
In273 O285 2.326 . S
O274 In273 2.294 . S
O274 C283 1.240 . S
O275 In273 2.326 . S
O275 C283 1.252 . S
C276 O279 1.252 . S
C276 O280 1.260 . S
C277 O284 1.240 . S
C277 O285 1.252 . S
C278 O281 1.252 . S
C278 O282 1.260 . S
O279 In273 2.266 . S
O279 C276 1.252 . S
O280 In273 2.326 . S
O280 C276 1.260 . S
O281 In273 2.266 . S
O281 C278 1.252 . S
O282 In273 2.326 . S
O282 C278 1.260 . S
C283 O274 1.240 . S
C283 O275 1.252 . S
O284 In273 2.294 . S
O284 C277 1.240 . S
O285 In273 2.326 . S
O285 C277 1.252 . S
In286 O287 2.294 . S
In286 O288 2.326 . S
In286 O292 2.266 . S
In286 O293 2.326 1_565 S
In286 O294 2.266 1_565 S
In286 O295 2.326 . S
In286 O297 2.294 1_565 S
In286 O298 2.326 . S
O287 In286 2.294 . S
O287 C296 1.240 . S
O288 In286 2.326 . S
O288 C296 1.252 . S
C289 O292 1.252 . S
C289 O293 1.260 1_565 S
C290 O297 1.240 . S
C290 O298 1.252 1_545 S
C291 O294 1.252 1_565 S
C291 O295 1.260 . S
O292 In286 2.266 . S
O292 C289 1.252 . S
O293 In286 2.326 1_545 S
O293 C289 1.260 1_545 S
O294 In286 2.266 1_545 S
O294 C291 1.252 1_545 S
O295 In286 2.326 . S
O295 C291 1.260 . S
C296 O287 1.240 . S
C296 O288 1.252 . S
O297 In286 2.294 1_545 S
O297 C290 1.240 . S
O298 In286 2.326 . S
O298 C290 1.252 1_565 S
In299 O300 2.294 . S
In299 O301 2.326 . S
In299 O305 2.266 . S
In299 O306 2.326 . S
In299 O307 2.266 . S
In299 O308 2.326 . S
In299 O310 2.294 . S
In299 O311 2.326 . S
O300 In299 2.294 . S
O300 C309 1.240 . S
O301 In299 2.326 . S
O301 C309 1.252 . S
C302 O305 1.252 . S
C302 O306 1.260 . S
C303 O310 1.240 . S
C303 O311 1.252 . S
C304 O307 1.252 . S
C304 O308 1.260 . S
O305 In299 2.266 . S
O305 C302 1.252 . S
O306 In299 2.326 . S
O306 C302 1.260 . S
O307 In299 2.266 . S
O307 C304 1.252 . S
O308 In299 2.326 . S
O308 C304 1.260 . S
C309 O300 1.240 . S
C309 O301 1.252 . S
O310 In299 2.294 . S
O310 C303 1.240 . S
O311 In299 2.326 . S
O311 C303 1.252 . S
In312 O313 2.294 . S
In312 O314 2.326 . S
In312 O318 2.266 . S
In312 O319 2.326 1_545 S
In312 O320 2.266 1_545 S
In312 O321 2.326 . S
In312 O323 2.294 1_545 S
In312 O324 2.326 . S
O313 In312 2.294 . S
O313 C322 1.240 . S
O314 In312 2.326 . S
O314 C322 1.252 . S
C315 O318 1.252 . S
C315 O319 1.260 1_545 S
C316 O323 1.240 . S
C316 O324 1.252 1_565 S
C317 O320 1.252 1_545 S
C317 O321 1.260 . S
O318 In312 2.266 . S
O318 C315 1.252 . S
O319 In312 2.326 1_565 S
O319 C315 1.260 1_565 S
O320 In312 2.266 1_565 S
O320 C317 1.252 1_565 S
O321 In312 2.326 . S
O321 C317 1.260 . S
C322 O313 1.240 . S
C322 O314 1.252 . S
O323 In312 2.294 1_565 S
O323 C316 1.240 . S
O324 In312 2.326 . S
O324 C316 1.252 1_545 S
In325 O326 2.294 . S
In325 O327 2.326 . S
In325 O331 2.266 . S
In325 O332 2.326 . S
In325 O333 2.266 . S
In325 O334 2.326 . S
In325 O336 2.294 . S
In325 O337 2.326 . S
O326 In325 2.294 . S
O326 C335 1.240 . S
O327 In325 2.326 . S
O327 C335 1.252 . S
C328 O331 1.252 . S
C328 O332 1.260 . S
C329 O336 1.240 . S
C329 O337 1.252 . S
C330 O333 1.252 . S
C330 O334 1.260 . S
O331 In325 2.266 . S
O331 C328 1.252 . S
O332 In325 2.326 . S
O332 C328 1.260 . S
O333 In325 2.266 . S
O333 C330 1.252 . S
O334 In325 2.326 . S
O334 C330 1.260 . S
C335 O326 1.240 . S
C335 O327 1.252 . S
O336 In325 2.294 . S
O336 C329 1.240 . S
O337 In325 2.326 . S
O337 C329 1.252 . S
In338 O339 2.294 1_564 S
In338 O340 2.326 1_554 S
In338 O344 2.266 1_565 S
In338 O345 2.326 . S
In338 O346 2.266 . S
In338 O347 2.326 1_565 S
In338 O349 2.294 . S
In338 O350 2.326 . S
O339 In338 2.294 1_546 S
O339 C348 1.240 . S
O340 In338 2.326 1_556 S
O340 C348 1.252 1_565 S
C341 O344 1.252 1_565 S
C341 O345 1.260 . S
C342 O349 1.240 . S
C342 O350 1.252 . S
C343 O346 1.252 . S
C343 O347 1.260 1_565 S
O344 In338 2.266 1_545 S
O344 C341 1.252 1_545 S
O345 In338 2.326 . S
O345 C341 1.260 . S
O346 In338 2.266 . S
O346 C343 1.252 . S
O347 In338 2.326 1_545 S
O347 C343 1.260 1_545 S
C348 O339 1.240 . S
C348 O340 1.252 1_545 S
O349 In338 2.294 . S
O349 C342 1.240 . S
O350 In338 2.326 . S
O350 C342 1.252 . S
In351 O352 2.294 . S
In351 O353 2.326 . S
In351 O357 2.266 . S
In351 O358 2.326 . S
In351 O359 2.266 . S
In351 O360 2.326 . S
In351 O362 2.294 . S
In351 O363 2.326 . S
O352 In351 2.294 . S
O352 C361 1.240 . S
O353 In351 2.326 . S
O353 C361 1.252 . S
C354 O357 1.252 . S
C354 O358 1.260 . S
C355 O362 1.240 . S
C355 O363 1.252 . S
C356 O359 1.252 . S
C356 O360 1.260 . S
O357 In351 2.266 . S
O357 C354 1.252 . S
O358 In351 2.326 . S
O358 C354 1.260 . S
O359 In351 2.266 . S
O359 C356 1.252 . S
O360 In351 2.326 . S
O360 C356 1.260 . S
C361 O352 1.240 . S
C361 O353 1.252 . S
O362 In351 2.294 . S
O362 C355 1.240 . S
O363 In351 2.326 . S
O363 C355 1.252 . S
In364 O365 2.294 . S
In364 O366 2.326 . S
In364 O370 2.266 . S
In364 O371 2.326 1_565 S
In364 O372 2.262 1_564 S
In364 O373 2.326 1_554 S
In364 O375 2.294 1_565 S
In364 O376 2.326 . S
O365 In364 2.294 . S
O365 C374 1.240 . S
O366 In364 2.326 . S
O366 C374 1.252 . S
C367 O370 1.252 . S
C367 O371 1.260 1_565 S
C368 O375 1.240 . S
C368 O376 1.252 1_545 S
C369 O372 1.257 1_565 S
C369 O373 1.260 . S
O370 In364 2.266 . S
O370 C367 1.252 . S
O371 In364 2.326 1_545 S
O371 C367 1.260 1_545 S
O372 In364 2.262 1_546 S
O372 C369 1.257 1_545 S
O373 In364 2.326 1_556 S
O373 C369 1.260 . S
C374 O365 1.240 . S
C374 O366 1.252 . S
O375 In364 2.294 1_545 S
O375 C368 1.240 . S
O376 In364 2.326 . S
O376 C368 1.252 1_565 S
In377 O378 2.294 . S
In377 O379 2.326 . S
In377 O383 2.266 . S
In377 O384 2.326 . S
In377 O385 2.266 . S
In377 O386 2.326 . S
In377 O388 2.294 . S
In377 O389 2.326 . S
O378 In377 2.294 . S
O378 C387 1.240 . S
O379 In377 2.326 . S
O379 C387 1.252 . S
C380 O383 1.252 . S
C380 O384 1.260 . S
C381 O388 1.240 . S
C381 O389 1.252 . S
C382 O385 1.252 . S
C382 O386 1.260 . S
O383 In377 2.266 . S
O383 C380 1.252 . S
O384 In377 2.326 . S
O384 C380 1.260 . S
O385 In377 2.266 . S
O385 C382 1.252 . S
O386 In377 2.326 . S
O386 C382 1.260 . S
C387 O378 1.240 . S
C387 O379 1.252 . S
O388 In377 2.294 . S
O388 C381 1.240 . S
O389 In377 2.326 . S
O389 C381 1.252 . S
In390 O391 2.294 . S
In390 O392 2.326 . S
In390 O396 2.266 . S
In390 O397 2.326 1_545 S
In390 O398 2.266 1_545 S
In390 O399 2.326 . S
In390 O401 2.294 1_545 S
In390 O402 2.326 . S
O391 In390 2.294 . S
O391 C400 1.240 . S
O392 In390 2.326 . S
O392 C400 1.252 . S
C393 O396 1.252 . S
C393 O397 1.260 1_545 S
C394 O401 1.240 . S
C394 O402 1.252 1_565 S
C395 O398 1.252 1_545 S
C395 O399 1.260 . S
O396 In390 2.266 . S
O396 C393 1.252 . S
O397 In390 2.326 1_565 S
O397 C393 1.260 1_565 S
O398 In390 2.266 1_565 S
O398 C395 1.252 1_565 S
O399 In390 2.326 . S
O399 C395 1.260 . S
C400 O391 1.240 . S
C400 O392 1.252 . S
O401 In390 2.294 1_565 S
O401 C394 1.240 . S
O402 In390 2.326 . S
O402 C394 1.252 1_545 S
In403 O404 2.294 . S
In403 O405 2.326 . S
In403 O409 2.266 . S
In403 O410 2.326 . S
In403 O411 2.266 . S
In403 O412 2.326 . S
In403 O414 2.294 . S
In403 O415 2.326 . S
O404 In403 2.294 . S
O404 C413 1.240 . S
O405 In403 2.326 . S
O405 C413 1.252 . S
C406 O409 1.252 . S
C406 O410 1.260 . S
C407 O414 1.240 . S
C407 O415 1.252 . S
C408 O411 1.252 . S
C408 O412 1.260 . S
O409 In403 2.266 . S
O409 C406 1.252 . S
O410 In403 2.326 . S
O410 C406 1.260 . S
O411 In403 2.266 . S
O411 C408 1.252 . S
O412 In403 2.326 . S
O412 C408 1.260 . S
C413 O404 1.240 . S
C413 O405 1.252 . S
O414 In403 2.294 . S
O414 C407 1.240 . S
O415 In403 2.326 . S
O415 C407 1.252 . S
C416 C417 1.369 . S
C416 C418 1.419 1_655 S
C416 H420 0.930 . S
C417 C416 1.369 . S
C417 C426 1.429 . S
C418 C416 1.419 1_455 S
C418 C419 1.363 . S
C418 H421 0.929 . S
C419 C418 1.363 . S
C419 C425 1.428 . S
H420 C416 0.930 . S
H421 C418 0.929 . S
S422 N423 1.613 1_455 S
S422 N424 1.610 . S
N423 S422 1.613 1_655 S
N423 C426 1.350 . S
N424 S422 1.610 . S
N424 C425 1.351 . S
C425 C419 1.428 . S
C425 N424 1.351 . S
C425 C426 1.434 1_455 S
C426 C417 1.429 . S
C426 N423 1.350 . S
C426 C425 1.434 1_655 S
C427 C428 1.369 . S
C427 C429 1.419 . S
C427 H431 0.930 . S
C428 C427 1.369 . S
C428 C437 1.429 . S
C429 C427 1.419 . S
C429 C430 1.363 . S
C429 H432 0.929 . S
C430 C429 1.363 . S
C430 C436 1.428 . S
H431 C427 0.930 . S
H432 C429 0.929 . S
S433 N434 1.613 . S
S433 N435 1.610 . S
N434 S433 1.613 . S
N434 C437 1.350 . S
N435 S433 1.610 . S
N435 C436 1.351 . S
C436 C430 1.428 . S
C436 N435 1.351 . S
C436 C437 1.434 . S
C437 C428 1.429 . S
C437 N434 1.350 . S
C437 C436 1.434 . S
C438 C439 1.369 . S
C438 C440 1.419 . S
C438 H442 0.930 . S
C439 C438 1.369 . S
C439 C448 1.429 . S
C440 C438 1.419 . S
C440 C441 1.363 . S
C440 H443 0.929 . S
C441 C440 1.363 . S
C441 C447 1.428 . S
H442 C438 0.930 . S
H443 C440 0.929 . S
S444 N445 1.613 . S
S444 N446 1.610 . S
N445 S444 1.613 . S
N445 C448 1.350 . S
N446 S444 1.610 . S
N446 C447 1.351 . S
C447 C441 1.428 . S
C447 N446 1.351 . S
C447 C448 1.434 . S
C448 C439 1.429 . S
C448 N445 1.350 . S
C448 C447 1.434 . S
C449 C450 1.369 . S
C449 C451 1.419 . S
C449 H453 0.930 . S
C450 C449 1.369 . S
C450 C459 1.429 . S
C451 C449 1.419 . S
C451 C452 1.363 . S
C451 H454 0.929 . S
C452 C451 1.363 . S
C452 C458 1.428 . S
H453 C449 0.930 . S
H454 C451 0.929 . S
S455 N456 1.613 . S
S455 N457 1.610 . S
N456 S455 1.613 . S
N456 C459 1.350 . S
N457 S455 1.610 . S
N457 C458 1.351 . S
C458 C452 1.428 . S
C458 N457 1.351 . S
C458 C459 1.434 . S
C459 C450 1.429 . S
C459 N456 1.350 . S
C459 C458 1.434 . S
C460 C461 1.369 . S
C460 C462 1.419 1_455 S
C460 H464 0.930 . S
C461 C460 1.369 . S
C461 C470 1.429 . S
C462 C460 1.419 1_655 S
C462 C463 1.363 . S
C462 H465 0.929 . S
C463 C462 1.363 . S
C463 C469 1.428 . S
H464 C460 0.930 . S
H465 C462 0.929 . S
S466 N467 1.613 1_655 S
S466 N468 1.610 . S
N467 S466 1.613 1_455 S
N467 C470 1.350 . S
N468 S466 1.610 . S
N468 C469 1.351 . S
C469 C463 1.428 . S
C469 N468 1.351 . S
C469 C470 1.434 1_655 S
C470 C461 1.429 . S
C470 N467 1.350 . S
C470 C469 1.434 1_455 S
C471 C472 1.369 . S
C471 C473 1.419 . S
C471 H475 0.930 . S
C472 C471 1.369 . S
C472 C481 1.429 . S
C473 C471 1.419 . S
C473 C474 1.363 . S
C473 H476 0.929 . S
C474 C473 1.363 . S
C474 C480 1.428 . S
H475 C471 0.930 . S
H476 C473 0.929 . S
S477 N478 1.613 . S
S477 N479 1.610 . S
N478 S477 1.613 . S
N478 C481 1.350 . S
N479 S477 1.610 . S
N479 C480 1.351 . S
C480 C474 1.428 . S
C480 N479 1.351 . S
C480 C481 1.434 . S
C481 C472 1.429 . S
C481 N478 1.350 . S
C481 C480 1.434 . S
C482 C483 1.369 1_556 S
C482 C484 1.419 1_556 S
C482 H486 0.930 . S
C483 C482 1.369 1_554 S
C483 C492 1.429 . S
C484 C482 1.419 1_554 S
C484 C485 1.363 . S
C484 H487 0.929 1_554 S
C485 C484 1.363 . S
C485 C491 1.428 . S
H486 C482 0.930 . S
H487 C484 0.929 1_556 S
S488 N489 1.613 . S
S488 N490 1.610 . S
N489 S488 1.613 . S
N489 C492 1.350 . S
N490 S488 1.610 . S
N490 C491 1.351 . S
C491 C485 1.428 . S
C491 N490 1.351 . S
C491 C492 1.434 . S
C492 C483 1.429 . S
C492 N489 1.350 . S
C492 C491 1.434 . S
C493 C494 1.369 . S
C493 C495 1.419 . S
C493 H497 0.930 . S
C494 C493 1.369 . S
C494 C503 1.429 . S
C495 C493 1.419 . S
C495 C496 1.363 . S
C495 H498 0.929 . S
C496 C495 1.363 . S
C496 C502 1.428 . S
H497 C493 0.930 . S
H498 C495 0.929 . S
S499 N500 1.613 . S
S499 N501 1.610 . S
N500 S499 1.613 . S
N500 C503 1.350 . S
N501 S499 1.610 . S
N501 C502 1.351 . S
C502 C496 1.428 . S
C502 N501 1.351 . S
C502 C503 1.434 . S
C503 C494 1.429 . S
C503 N500 1.350 . S
C503 C502 1.434 . S
C504 C505 1.369 . S
C504 C506 1.419 . S
C504 H508 0.930 . S
C505 C504 1.369 . S
C505 C514 1.429 . S
C506 C504 1.419 . S
C506 C507 1.363 . S
C506 H509 0.929 . S
C507 C506 1.363 . S
C507 C513 1.428 . S
H508 C504 0.930 . S
H509 C506 0.929 . S
S510 N511 1.613 . S
S510 N512 1.610 . S
N511 S510 1.613 . S
N511 C514 1.350 . S
N512 S510 1.610 . S
N512 C513 1.351 . S
C513 C507 1.428 . S
C513 N512 1.351 . S
C513 C514 1.434 . S
C514 C505 1.429 . S
C514 N511 1.350 . S
C514 C513 1.434 . S
C515 C516 1.369 . S
C515 C517 1.419 . S
C515 H519 0.930 . S
C516 C515 1.369 . S
C516 C525 1.429 . S
C517 C515 1.419 . S
C517 C518 1.363 . S
C517 H520 0.929 . S
C518 C517 1.363 . S
C518 C524 1.428 . S
H519 C515 0.930 . S
H520 C517 0.929 . S
S521 N522 1.613 . S
S521 N523 1.610 . S
N522 S521 1.613 . S
N522 C525 1.350 . S
N523 S521 1.610 . S
N523 C524 1.351 . S
C524 C518 1.428 . S
C524 N523 1.351 . S
C524 C525 1.434 . S
C525 C516 1.429 . S
C525 N522 1.350 . S
C525 C524 1.434 . S
C526 C527 1.369 . S
C526 C528 1.419 . S
C526 H530 0.930 . S
C527 C526 1.369 . S
C527 C536 1.429 . S
C528 C526 1.419 . S
C528 C529 1.363 . S
C528 H531 0.929 . S
C529 C528 1.363 . S
C529 C535 1.428 . S
H530 C526 0.930 . S
H531 C528 0.929 . S
S532 N533 1.613 . S
S532 N534 1.610 . S
N533 S532 1.613 . S
N533 C536 1.350 . S
N534 S532 1.610 . S
N534 C535 1.351 . S
C535 C529 1.428 . S
C535 N534 1.351 . S
C535 C536 1.434 . S
C536 C527 1.429 . S
C536 N533 1.350 . S
C536 C535 1.434 . S
C537 C538 1.369 . S
C537 C539 1.419 . S
C537 H541 0.930 . S
C538 C537 1.369 . S
C538 C547 1.429 . S
C539 C537 1.419 . S
C539 C540 1.363 . S
C539 H542 0.929 . S
C540 C539 1.363 . S
C540 C546 1.428 . S
H541 C537 0.930 . S
H542 C539 0.929 . S
S543 N544 1.613 . S
S543 N545 1.610 . S
N544 S543 1.613 . S
N544 C547 1.350 . S
N545 S543 1.610 . S
N545 C546 1.351 . S
C546 C540 1.428 . S
C546 N545 1.351 . S
C546 C547 1.434 . S
C547 C538 1.429 . S
C547 N544 1.350 . S
C547 C546 1.434 . S
C548 C549 1.369 1_565 S
C548 C550 1.419 . S
C548 H552 0.930 . S
C549 C548 1.369 1_545 S
C549 C558 1.429 . S
C550 C548 1.419 . S
C550 C551 1.363 . S
C550 H553 0.929 . S
C551 C550 1.363 . S
C551 C557 1.428 1_565 S
H552 C548 0.930 . S
H553 C550 0.929 . S
S554 N555 1.613 . S
S554 N556 1.610 . S
N555 S554 1.613 . S
N555 C558 1.350 . S
N556 S554 1.610 . S
N556 C557 1.351 . S
C557 C551 1.428 1_545 S
C557 N556 1.351 . S
C557 C558 1.434 . S
C558 C549 1.429 . S
C558 N555 1.350 . S
C558 C557 1.434 . S
C559 C560 1.369 . S
C559 C561 1.419 1_655 S
C559 H563 0.930 1_554 S
C560 C559 1.369 . S
C560 C569 1.429 1_545 S
C561 C559 1.419 1_455 S
C561 C562 1.363 1_545 S
C561 H564 0.929 1_554 S
C562 C561 1.363 1_565 S
C562 C568 1.428 . S
H563 C559 0.930 1_556 S
H564 C561 0.929 1_556 S
S565 N566 1.613 . S
S565 N567 1.610 1_655 S
N566 S565 1.613 . S
N566 C569 1.350 . S
N567 S565 1.610 1_455 S
N567 C568 1.351 . S
C568 C562 1.428 . S
C568 N567 1.351 . S
C568 C569 1.434 1_455 S
C569 C560 1.429 1_565 S
C569 N566 1.350 . S
C569 C568 1.434 1_655 S
C570 C571 1.369 . S
C570 C572 1.419 . S
C570 H574 0.930 . S
C571 C570 1.369 . S
C571 C580 1.429 1_545 S
C572 C570 1.419 . S
C572 C573 1.363 1_545 S
C572 H575 0.929 . S
C573 C572 1.363 1_565 S
C573 C579 1.428 . S
H574 C570 0.930 . S
H575 C572 0.929 . S
S576 N577 1.613 . S
S576 N578 1.610 . S
N577 S576 1.613 . S
N577 C580 1.350 1_556 S
N578 S576 1.610 . S
N578 C579 1.351 1_556 S
C579 C573 1.428 . S
C579 N578 1.351 1_554 S
C579 C580 1.434 . S
C580 C571 1.429 1_565 S
C580 N577 1.350 1_554 S
C580 C579 1.434 . S
C581 C582 1.369 1_565 S
C581 C583 1.419 1_455 S
C581 H585 0.930 . S
C582 C581 1.369 1_545 S
C582 C591 1.429 . S
C583 C581 1.419 1_655 S
C583 C584 1.363 . S
C583 H586 0.929 . S
C584 C583 1.363 . S
C584 C590 1.428 1_565 S
H585 C581 0.930 . S
H586 C583 0.929 . S
S587 N588 1.613 1_655 S
S587 N589 1.610 . S
N588 S587 1.613 1_455 S
N588 C591 1.350 . S
N589 S587 1.610 . S
N589 C590 1.351 . S
C590 C584 1.428 1_545 S
C590 N589 1.351 . S
C590 C591 1.434 1_655 S
C591 C582 1.429 . S
C591 N588 1.350 . S
C591 C590 1.434 1_455 S
C592 C593 1.369 . S
C592 C594 1.419 . S
C592 H596 0.930 . S
C593 C592 1.369 . S
C593 C602 1.429 . S
C594 C592 1.419 . S
C594 C595 1.363 . S
C594 H597 0.929 . S
C595 C594 1.363 . S
C595 C601 1.428 . S
H596 C592 0.930 . S
H597 C594 0.929 . S
S598 N599 1.613 . S
S598 N600 1.610 . S
N599 S598 1.613 . S
N599 C602 1.350 . S
N600 S598 1.610 . S
N600 C601 1.351 . S
C601 C595 1.428 . S
C601 N600 1.351 . S
C601 C602 1.434 . S
C602 C593 1.429 . S
C602 N599 1.350 . S
C602 C601 1.434 . S
C603 C604 1.369 1_554 S
C603 C605 1.419 . S
C603 H607 0.923 1_554 S
C604 C603 1.369 1_556 S
C604 C613 1.429 1_556 S
C605 C603 1.419 . S
C605 C606 1.363 . S
C605 H608 0.929 . S
C606 C605 1.363 . S
C606 C612 1.428 . S
H607 C603 0.923 1_556 S
H608 C605 0.929 . S
S609 N610 1.613 1_554 S
S609 N611 1.610 . S
N610 S609 1.613 1_556 S
N610 C613 1.350 1_556 S
N611 S609 1.610 . S
N611 C612 1.351 . S
C612 C606 1.428 . S
C612 N611 1.351 . S
C612 C613 1.434 . S
C613 C604 1.429 1_554 S
C613 N610 1.350 1_554 S
C613 C612 1.434 . S
C614 C615 1.369 . S
C614 C616 1.419 . S
C614 H618 0.930 . S
C615 C614 1.369 . S
C615 C624 1.429 . S
C616 C614 1.419 . S
C616 C617 1.363 . S
C616 H619 0.929 . S
C617 C616 1.363 . S
C617 C623 1.428 . S
H618 C614 0.930 . S
H619 C616 0.929 . S
S620 N621 1.613 . S
S620 N622 1.610 . S
N621 S620 1.613 . S
N621 C624 1.350 . S
N622 S620 1.610 . S
N622 C623 1.351 . S
C623 C617 1.428 . S
C623 N622 1.351 . S
C623 C624 1.434 . S
C624 C615 1.429 . S
C624 N621 1.350 . S
C624 C623 1.434 . S
C625 C626 1.369 . S
C625 C627 1.419 . S
C625 H629 0.930 . S
C626 C625 1.369 . S
C626 C635 1.429 . S
C627 C625 1.419 . S
C627 C628 1.363 . S
C627 H630 0.929 . S
C628 C627 1.363 . S
C628 C634 1.428 . S
H629 C625 0.930 . S
H630 C627 0.929 . S
S631 N632 1.613 . S
S631 N633 1.610 . S
N632 S631 1.613 . S
N632 C635 1.350 . S
N633 S631 1.610 . S
N633 C634 1.351 . S
C634 C628 1.428 . S
C634 N633 1.351 . S
C634 C635 1.434 . S
C635 C626 1.429 . S
C635 N632 1.350 . S
C635 C634 1.434 . S
C636 C637 1.369 . S
C636 C638 1.419 . S
C636 H640 0.930 . S
C637 C636 1.369 . S
C637 C646 1.429 . S
C638 C636 1.419 . S
C638 C639 1.363 . S
C638 H641 0.929 . S
C639 C638 1.363 . S
C639 C645 1.428 . S
H640 C636 0.930 . S
H641 C638 0.929 . S
S642 N643 1.613 . S
S642 N644 1.610 . S
N643 S642 1.613 . S
N643 C646 1.350 . S
N644 S642 1.610 . S
N644 C645 1.351 . S
C645 C639 1.428 . S
C645 N644 1.351 . S
C645 C646 1.434 . S
C646 C637 1.429 . S
C646 N643 1.350 . S
C646 C645 1.434 . S
C647 C648 1.369 1_554 S
C647 C649 1.419 . S
C647 H651 0.930 . S
C648 C647 1.369 1_556 S
C648 C657 1.429 1_556 S
C649 C647 1.419 . S
C649 C650 1.363 . S
C649 H652 0.929 . S
C650 C649 1.363 . S
C650 C656 1.428 . S
H651 C647 0.930 . S
H652 C649 0.929 . S
S653 N654 1.613 1_554 S
S653 N655 1.610 . S
N654 S653 1.613 1_556 S
N654 C657 1.350 1_556 S
N655 S653 1.610 . S
N655 C656 1.351 . S
C656 C650 1.428 . S
C656 N655 1.351 . S
C656 C657 1.434 . S
C657 C648 1.429 1_554 S
C657 N654 1.350 1_554 S
C657 C656 1.434 . S
C658 C659 1.369 . S
C658 C660 1.419 . S
C658 H662 0.930 . S
C659 C658 1.369 . S
C659 C668 1.429 . S
C660 C658 1.419 . S
C660 C661 1.363 . S
C660 H663 0.929 . S
C661 C660 1.363 . S
C661 C667 1.428 . S
H662 C658 0.930 . S
H663 C660 0.929 . S
S664 N665 1.613 . S
S664 N666 1.610 . S
N665 S664 1.613 . S
N665 C668 1.350 . S
N666 S664 1.610 . S
N666 C667 1.351 . S
C667 C661 1.428 . S
C667 N666 1.351 . S
C667 C668 1.434 . S
C668 C659 1.429 . S
C668 N665 1.350 . S
C668 C667 1.434 . S
C669 C670 1.369 . S
C669 C671 1.419 . S
C669 H673 0.930 . S
C670 C669 1.369 . S
C670 C679 1.429 . S
C671 C669 1.419 . S
C671 C672 1.363 . S
C671 H674 0.929 . S
C672 C671 1.363 . S
C672 C678 1.428 . S
H673 C669 0.930 . S
H674 C671 0.929 . S
S675 N676 1.613 . S
S675 N677 1.610 . S
N676 S675 1.613 . S
N676 C679 1.350 . S
N677 S675 1.610 . S
N677 C678 1.351 . S
C678 C672 1.428 . S
C678 N677 1.351 . S
C678 C679 1.434 . S
C679 C670 1.429 . S
C679 N676 1.350 . S
C679 C678 1.434 . S
C680 C681 1.363 1_545 S
C680 C682 1.419 . S
C680 H684 0.930 . S
C681 C680 1.363 1_565 S
C681 C690 1.434 . S
C682 C680 1.419 . S
C682 C683 1.369 . S
C682 H685 0.929 . S
C683 C682 1.369 . S
C683 C689 1.422 1_545 S
H684 C680 0.930 . S
H685 C682 0.929 . S
S686 N687 1.613 . S
S686 N688 1.610 . S
N687 S686 1.613 . S
N687 C690 1.350 . S
N688 S686 1.610 . S
N688 C689 1.351 . S
C689 C683 1.422 1_565 S
C689 N688 1.351 . S
C689 C690 1.434 . S
C690 C681 1.434 . S
C690 N687 1.350 . S
C690 C689 1.434 . S
C691 C692 1.369 . S
C691 C693 1.419 . S
C691 H695 0.930 . S
C692 C691 1.369 . S
C692 C701 1.429 . S
C693 C691 1.419 . S
C693 C694 1.363 . S
C693 H696 0.929 . S
C694 C693 1.363 . S
C694 C700 1.428 . S
H695 C691 0.930 . S
H696 C693 0.929 . S
S697 N698 1.613 . S
S697 N699 1.610 . S
N698 S697 1.613 . S
N698 C701 1.350 . S
N699 S697 1.610 . S
N699 C700 1.351 . S
C700 C694 1.428 . S
C700 N699 1.351 . S
C700 C701 1.434 . S
C701 C692 1.429 . S
C701 N698 1.350 . S
C701 C700 1.434 . S
C702 C703 1.374 . S
C702 C704 1.419 . S
C702 H706 0.930 . S
C703 C702 1.374 . S
C703 C712 1.424 1_565 S
C704 C702 1.419 . S
C704 C705 1.358 1_565 S
C704 H707 0.929 . S
C705 C704 1.358 1_545 S
C705 C711 1.433 . S
H706 C702 0.930 . S
H707 C704 0.929 . S
S708 N709 1.613 . S
S708 N710 1.610 . S
N709 S708 1.613 . S
N709 C712 1.350 . S
N710 S708 1.610 . S
N710 C711 1.351 . S
C711 C705 1.433 . S
C711 N710 1.351 . S
C711 C712 1.434 . S
C712 C703 1.424 1_545 S
C712 N709 1.350 . S
C712 C711 1.434 . S
C713 C714 1.369 1_554 S
C713 C715 1.419 . S
C713 H717 0.930 . S
C714 C713 1.369 1_556 S
C714 C723 1.429 1_556 S
C715 C713 1.419 . S
C715 C716 1.363 . S
C715 H718 0.929 . S
C716 C715 1.363 . S
C716 C722 1.428 . S
H717 C713 0.930 . S
H718 C715 0.929 . S
S719 N720 1.613 1_554 S
S719 N721 1.610 . S
N720 S719 1.613 1_556 S
N720 C723 1.350 1_556 S
N721 S719 1.610 . S
N721 C722 1.351 . S
C722 C716 1.428 . S
C722 N721 1.351 . S
C722 C723 1.434 . S
C723 C714 1.429 1_554 S
C723 N720 1.350 1_554 S
C723 C722 1.434 . S
C724 C725 1.333 1_565 S
C724 C726 1.419 . S
C724 H728 0.930 . S
C725 C724 1.333 1_545 S
C725 C734 1.464 . S
C726 C724 1.419 . S
C726 C727 1.376 . S
C726 H729 0.929 . S
C727 C726 1.376 . S
C727 C733 1.415 1_565 S
H728 C724 0.930 . S
H729 C726 0.929 . S
S730 N731 1.613 . S
S730 N732 1.610 . S
N731 S730 1.613 . S
N731 C734 1.350 . S
N732 S730 1.610 . S
N732 C733 1.351 . S
C733 C727 1.415 1_545 S
C733 N732 1.351 . S
C733 C734 1.434 . S
C734 C725 1.464 . S
C734 N731 1.350 . S
C734 C733 1.434 . S
C735 C736 1.369 . S
C735 C737 1.419 . S
C735 H739 0.930 . S
C736 C735 1.369 . S
C736 C745 1.429 . S
C737 C735 1.419 . S
C737 C738 1.363 . S
C737 H740 0.929 . S
C738 C737 1.363 . S
C738 C744 1.428 . S
H739 C735 0.930 . S
H740 C737 0.929 . S
S741 N742 1.613 . S
S741 N743 1.610 . S
N742 S741 1.613 . S
N742 C745 1.350 . S
N743 S741 1.610 . S
N743 C744 1.351 . S
C744 C738 1.428 . S
C744 N743 1.351 . S
C744 C745 1.434 . S
C745 C736 1.429 . S
C745 N742 1.350 . S
C745 C744 1.434 . S
C746 C747 1.343 1_545 S
C746 C748 1.419 . S
C746 H750 0.930 . S
C747 C746 1.343 1_565 S
C747 C756 1.455 . S
C748 C746 1.419 . S
C748 C749 1.373 . S
C748 H751 0.929 . S
C749 C748 1.373 . S
C749 C755 1.418 1_545 S
H750 C746 0.930 . S
H751 C748 0.929 . S
S752 N753 1.613 . S
S752 N754 1.610 . S
N753 S752 1.613 . S
N753 C756 1.350 . S
N754 S752 1.610 . S
N754 C755 1.351 . S
C755 C749 1.418 1_565 S
C755 N754 1.351 . S
C755 C756 1.434 . S
C756 C747 1.455 . S
C756 N753 1.350 . S
C756 C755 1.434 . S
C757 C758 1.369 . S
C757 C759 1.419 . S
C757 H761 0.930 . S
C758 C757 1.369 . S
C758 C767 1.429 . S
C759 C757 1.419 . S
C759 C760 1.363 1_554 S
C759 H762 0.926 1_554 S
C760 C759 1.363 1_556 S
C760 C766 1.428 1_556 S
H761 C757 0.930 . S
H762 C759 0.926 1_556 S
S763 N764 1.613 . S
S763 N765 1.610 1_554 S
N764 S763 1.613 . S
N764 C767 1.350 . S
N765 S763 1.610 1_556 S
N765 C766 1.351 1_556 S
C766 C760 1.428 1_554 S
C766 N765 1.351 1_554 S
C766 C767 1.434 . S
C767 C758 1.429 . S
C767 N764 1.350 . S
C767 C766 1.434 . S
C768 C769 1.369 . S
C768 C770 1.419 . S
C768 H772 0.930 . S
C769 C768 1.369 . S
C769 C778 1.429 . S
C770 C768 1.419 . S
C770 C771 1.363 . S
C770 H773 0.929 . S
C771 C770 1.363 . S
C771 C777 1.428 . S
H772 C768 0.930 . S
H773 C770 0.929 . S
S774 N775 1.613 . S
S774 N776 1.610 . S
N775 S774 1.613 . S
N775 C778 1.350 . S
N776 S774 1.610 . S
N776 C777 1.351 . S
C777 C771 1.428 . S
C777 N776 1.351 . S
C777 C778 1.434 . S
C778 C769 1.429 . S
C778 N775 1.350 . S
C778 C777 1.434 . S
C779 C780 1.369 . S
C779 C781 1.419 . S
C779 H783 0.930 . S
C780 C779 1.369 . S
C780 C789 1.429 . S
C781 C779 1.419 . S
C781 C782 1.363 . S
C781 H784 0.929 . S
C782 C781 1.363 . S
C782 C788 1.428 . S
H783 C779 0.930 . S
H784 C781 0.929 . S
S785 N786 1.613 . S
S785 N787 1.610 . S
N786 S785 1.613 . S
N786 C789 1.350 . S
N787 S785 1.610 . S
N787 C788 1.351 . S
C788 C782 1.428 . S
C788 N787 1.351 . S
C788 C789 1.434 . S
C789 C780 1.429 . S
C789 N786 1.350 . S
C789 C788 1.434 . S
C790 C791 1.369 . S
C790 C792 1.419 . S
C790 H794 0.930 . S
C791 C790 1.369 . S
C791 C800 1.429 . S
C792 C790 1.419 . S
C792 C793 1.363 . S
C792 H795 0.929 . S
C793 C792 1.363 . S
C793 C799 1.428 . S
H794 C790 0.930 . S
H795 C792 0.929 . S
S796 N797 1.613 . S
S796 N798 1.610 . S
N797 S796 1.613 . S
N797 C800 1.350 . S
N798 S796 1.610 . S
N798 C799 1.351 . S
C799 C793 1.428 . S
C799 N798 1.351 . S
C799 C800 1.434 . S
C800 C791 1.429 . S
C800 N797 1.350 . S
C800 C799 1.434 . S
C801 C802 1.369 . S
C801 C803 1.419 . S
C801 H805 0.930 . S
C802 C801 1.369 . S
C802 C811 1.429 . S
C803 C801 1.419 . S
C803 C804 1.363 1_554 S
C803 H806 0.929 . S
C804 C803 1.363 1_556 S
C804 C810 1.428 1_556 S
H805 C801 0.930 . S
H806 C803 0.929 . S
S807 N808 1.613 . S
S807 N809 1.610 1_554 S
N808 S807 1.613 . S
N808 C811 1.350 . S
N809 S807 1.610 1_556 S
N809 C810 1.351 1_556 S
C810 C804 1.428 1_554 S
C810 N809 1.351 1_554 S
C810 C811 1.434 . S
C811 C802 1.429 . S
C811 N808 1.350 . S
C811 C810 1.434 . S
C812 C813 1.369 . S
C812 C814 1.419 . S
C812 H816 0.930 . S
C813 C812 1.369 . S
C813 C822 1.429 . S
C814 C812 1.419 . S
C814 C815 1.363 . S
C814 H817 0.929 . S
C815 C814 1.363 . S
C815 C821 1.428 . S
H816 C812 0.930 . S
H817 C814 0.929 . S
S818 N819 1.613 . S
S818 N820 1.610 . S
N819 S818 1.613 . S
N819 C822 1.350 . S
N820 S818 1.610 . S
N820 C821 1.351 . S
C821 C815 1.428 . S
C821 N820 1.351 . S
C821 C822 1.434 . S
C822 C813 1.429 . S
C822 N819 1.350 . S
C822 C821 1.434 . S
C823 C824 1.369 . S
C823 C825 1.419 . S
C823 H827 0.930 . S
C824 C823 1.369 . S
C824 C833 1.429 . S
C825 C823 1.419 . S
C825 C826 1.363 . S
C825 H828 0.929 . S
C826 C825 1.363 . S
C826 C832 1.428 . S
H827 C823 0.930 . S
H828 C825 0.929 . S
S829 N830 1.613 . S
S829 N831 1.610 . S
N830 S829 1.613 . S
N830 C833 1.350 . S
N831 S829 1.610 . S
N831 C832 1.351 . S
C832 C826 1.428 . S
C832 N831 1.351 . S
C832 C833 1.434 . S
C833 C824 1.429 . S
C833 N830 1.350 . S
C833 C832 1.434 . S
C834 C835 1.369 . S
C834 C836 1.419 . S
C834 H838 0.930 . S
C835 C834 1.369 . S
C835 C844 1.429 . S
C836 C834 1.419 . S
C836 C837 1.363 . S
C836 H839 0.929 . S
C837 C836 1.363 . S
C837 C843 1.428 . S
H838 C834 0.930 . S
H839 C836 0.929 . S
S840 N841 1.613 . S
S840 N842 1.610 . S
N841 S840 1.613 . S
N841 C844 1.350 . S
N842 S840 1.610 . S
N842 C843 1.351 . S
C843 C837 1.428 . S
C843 N842 1.351 . S
C843 C844 1.434 . S
C844 C835 1.429 . S
C844 N841 1.350 . S
C844 C843 1.434 . S
C845 C846 1.369 1_554 S
C845 C847 1.419 . S
C845 H849 0.930 . S
C846 C845 1.369 1_556 S
C846 C855 1.429 1_556 S
C847 C845 1.419 . S
C847 C848 1.363 . S
C847 H850 0.929 . S
C848 C847 1.363 . S
C848 C854 1.428 . S
H849 C845 0.930 . S
H850 C847 0.929 . S
S851 N852 1.613 1_554 S
S851 N853 1.610 . S
N852 S851 1.613 1_556 S
N852 C855 1.350 1_556 S
N853 S851 1.610 . S
N853 C854 1.351 . S
C854 C848 1.428 . S
C854 N853 1.351 . S
C854 C855 1.434 . S
C855 C846 1.429 1_554 S
C855 N852 1.350 1_554 S
C855 C854 1.434 . S
C856 C857 1.369 1_565 S
C856 C858 1.419 . S
C856 H860 0.930 . S
C857 C856 1.369 1_545 S
C857 C866 1.429 . S
C858 C856 1.419 . S
C858 C859 1.363 . S
C858 H861 0.929 . S
C859 C858 1.363 . S
C859 C865 1.428 1_565 S
H860 C856 0.930 . S
H861 C858 0.929 . S
S862 N863 1.613 . S
S862 N864 1.610 . S
N863 S862 1.613 . S
N863 C866 1.350 . S
N864 S862 1.610 . S
N864 C865 1.351 . S
C865 C859 1.428 1_545 S
C865 N864 1.351 . S
C865 C866 1.434 . S
C866 C857 1.429 . S
C866 N863 1.350 . S
C866 C865 1.434 . S
C867 C868 1.369 . S
C867 C869 1.419 . S
C867 H871 0.930 . S
C868 C867 1.369 . S
C868 C877 1.429 . S
C869 C867 1.419 . S
C869 C870 1.363 1_554 S
C869 H872 0.929 1_554 S
C870 C869 1.363 1_556 S
C870 C876 1.428 1_556 S
H871 C867 0.930 . S
H872 C869 0.929 1_556 S
S873 N874 1.613 . S
S873 N875 1.610 . S
N874 S873 1.613 . S
N874 C877 1.350 . S
N875 S873 1.610 . S
N875 C876 1.351 . S
C876 C870 1.428 1_554 S
C876 N875 1.351 . S
C876 C877 1.434 . S
C877 C868 1.429 . S
C877 N874 1.350 . S
C877 C876 1.434 . S
C878 C879 1.369 1_565 S
C878 C880 1.419 . S
C878 H882 0.930 . S
C879 C878 1.369 1_545 S
C879 C888 1.429 . S
C880 C878 1.419 . S
C880 C881 1.363 . S
C880 H883 0.929 . S
C881 C880 1.363 . S
C881 C887 1.428 1_565 S
H882 C878 0.930 . S
H883 C880 0.929 . S
S884 N885 1.613 . S
S884 N886 1.610 . S
N885 S884 1.613 . S
N885 C888 1.350 . S
N886 S884 1.610 . S
N886 C887 1.351 . S
C887 C881 1.428 1_545 S
C887 N886 1.351 . S
C887 C888 1.434 . S
C888 C879 1.429 . S
C888 N885 1.350 . S
C888 C887 1.434 . S
C889 C890 1.369 . S
C889 C891 1.419 . S
C889 H893 0.930 . S
C890 C889 1.369 . S
C890 C899 1.429 . S
C891 C889 1.419 . S
C891 C892 1.363 . S
C891 H894 0.929 . S
C892 C891 1.363 . S
C892 C898 1.428 . S
H893 C889 0.930 . S
H894 C891 0.929 . S
S895 N896 1.613 . S
S895 N897 1.610 . S
N896 S895 1.613 . S
N896 C899 1.350 . S
N897 S895 1.610 . S
N897 C898 1.351 . S
C898 C892 1.428 . S
C898 N897 1.351 . S
C898 C899 1.434 . S
C899 C890 1.429 . S
C899 N896 1.350 . S
C899 C898 1.434 . S
C900 C901 1.369 1_565 S
C900 C902 1.419 . S
C900 H904 0.930 . S
C901 C900 1.369 1_545 S
C901 C910 1.429 . S
C902 C900 1.419 . S
C902 C903 1.363 . S
C902 H905 0.929 . S
C903 C902 1.363 . S
C903 C909 1.428 1_565 S
H904 C900 0.930 . S
H905 C902 0.929 . S
S906 N907 1.613 . S
S906 N908 1.610 . S
N907 S906 1.613 . S
N907 C910 1.350 . S
N908 S906 1.610 . S
N908 C909 1.351 . S
C909 C903 1.428 1_545 S
C909 N908 1.351 . S
C909 C910 1.434 . S
C910 C901 1.429 . S
C910 N907 1.350 . S
C910 C909 1.434 . S
C911 C912 1.369 . S
C911 C913 1.419 . S
C911 H915 0.930 . S
C912 C911 1.369 . S
C912 C921 1.429 . S
C913 C911 1.419 . S
C913 C914 1.363 1_554 S
C913 H916 0.929 . S
C914 C913 1.363 1_556 S
C914 C920 1.428 1_556 S
H915 C911 0.930 . S
H916 C913 0.929 . S
S917 N918 1.613 . S
S917 N919 1.610 1_554 S
N918 S917 1.613 . S
N918 C921 1.350 . S
N919 S917 1.610 1_556 S
N919 C920 1.351 1_556 S
C920 C914 1.428 1_554 S
C920 N919 1.351 1_554 S
C920 C921 1.434 . S
C921 C912 1.429 . S
C921 N918 1.350 . S
C921 C920 1.434 . S
C922 C923 1.369 1_565 S
C922 C924 1.419 . S
C922 H926 0.930 . S
C923 C922 1.369 1_545 S
C923 C932 1.429 . S
C924 C922 1.419 . S
C924 C925 1.363 . S
C924 H927 0.929 . S
C925 C924 1.363 . S
C925 C931 1.428 1_565 S
H926 C922 0.930 . S
H927 C924 0.929 . S
S928 N929 1.613 . S
S928 N930 1.610 . S
N929 S928 1.613 . S
N929 C932 1.350 . S
N930 S928 1.610 . S
N930 C931 1.351 . S
C931 C925 1.428 1_545 S
C931 N930 1.351 . S
C931 C932 1.434 . S
C932 C923 1.429 . S
C932 N929 1.350 . S
C932 C931 1.434 . S
C933 C934 1.369 . S
C933 C935 1.419 . S
C933 H937 0.930 . S
C934 C933 1.369 . S
C934 C943 1.429 . S
C935 C933 1.419 . S
C935 C936 1.363 . S
C935 H938 0.929 . S
C936 C935 1.363 . S
C936 C942 1.428 . S
H937 C933 0.930 . S
H938 C935 0.929 . S
S939 N940 1.613 . S
S939 N941 1.610 . S
N940 S939 1.613 . S
N940 C943 1.350 . S
N941 S939 1.610 . S
N941 C942 1.351 . S
C942 C936 1.428 . S
C942 N941 1.351 . S
C942 C943 1.434 . S
C943 C934 1.429 . S
C943 N940 1.350 . S
C943 C942 1.434 . S
C944 C945 1.369 . S
C944 C946 1.419 . S
C944 H948 0.930 . S
C945 C944 1.369 . S
C945 C954 1.429 . S
C946 C944 1.419 . S
C946 C947 1.363 . S
C946 H949 0.929 . S
C947 C946 1.363 . S
C947 C953 1.428 . S
H948 C944 0.930 . S
H949 C946 0.929 . S
S950 N951 1.613 . S
S950 N952 1.610 . S
N951 S950 1.613 . S
N951 C954 1.350 . S
N952 S950 1.610 . S
N952 C953 1.351 . S
C953 C947 1.428 . S
C953 N952 1.351 . S
C953 C954 1.434 . S
C954 C945 1.429 . S
C954 N951 1.350 . S
C954 C953 1.434 . S
C955 C956 1.369 . S
C955 C957 1.419 . S
C955 H959 0.930 . S
C956 C955 1.369 . S
C956 C965 1.429 . S
C957 C955 1.419 . S
C957 C958 1.363 . S
C957 H960 0.929 . S
C958 C957 1.363 . S
C958 C964 1.428 . S
H959 C955 0.930 . S
H960 C957 0.929 . S
S961 N962 1.613 . S
S961 N963 1.610 . S
N962 S961 1.613 . S
N962 C965 1.350 . S
N963 S961 1.610 . S
N963 C964 1.351 . S
C964 C958 1.428 . S
C964 N963 1.351 . S
C964 C965 1.434 . S
C965 C956 1.429 . S
C965 N962 1.350 . S
C965 C964 1.434 . S
C966 C967 1.369 . S
C966 C968 1.419 . S
C966 H970 0.930 . S
C967 C966 1.369 . S
C967 C976 1.429 . S
C968 C966 1.419 . S
C968 C969 1.363 . S
C968 H971 0.929 . S
C969 C968 1.363 . S
C969 C975 1.428 . S
H970 C966 0.930 . S
H971 C968 0.929 . S
S972 N973 1.613 . S
S972 N974 1.610 . S
N973 S972 1.613 . S
N973 C976 1.350 . S
N974 S972 1.610 . S
N974 C975 1.351 . S
C975 C969 1.428 . S
C975 N974 1.351 . S
C975 C976 1.434 . S
C976 C967 1.429 . S
C976 N973 1.350 . S
C976 C975 1.434 . S
C977 C978 1.369 . S
C977 C979 1.419 . S
C977 H981 0.930 . S
C978 C977 1.369 . S
C978 C987 1.429 . S
C979 C977 1.419 . S
C979 C980 1.363 . S
C979 H982 0.929 . S
C980 C979 1.363 . S
C980 C986 1.428 . S
H981 C977 0.930 . S
H982 C979 0.929 . S
S983 N984 1.613 . S
S983 N985 1.610 . S
N984 S983 1.613 . S
N984 C987 1.350 . S
N985 S983 1.610 . S
N985 C986 1.351 . S
C986 C980 1.428 . S
C986 N985 1.351 . S
C986 C987 1.434 . S
C987 C978 1.429 . S
C987 N984 1.350 . S
C987 C986 1.434 . S
C988 C989 1.369 . S
C988 C990 1.419 . S
C988 H992 0.930 . S
C989 C988 1.369 . S
C989 C998 1.429 . S
C990 C988 1.419 . S
C990 C991 1.363 . S
C990 H993 0.929 . S
C991 C990 1.363 . S
C991 C997 1.428 . S
H992 C988 0.930 . S
H993 C990 0.929 . S
S994 N995 1.613 . S
S994 N996 1.610 . S
N995 S994 1.613 . S
N995 C998 1.350 . S
N996 S994 1.610 . S
N996 C997 1.351 . S
C997 C991 1.428 . S
C997 N996 1.351 . S
C997 C998 1.434 . S
C998 C989 1.429 . S
C998 N995 1.350 . S
C998 C997 1.434 . S
C999 C1000 1.369 . S
C999 C1001 1.419 . S
C999 H1003 0.930 . S
C1000 C999 1.369 . S
C1000 C1009 1.429 . S
C1001 C999 1.419 . S
C1001 C1002 1.363 . S
C1001 H1004 0.929 . S
C1002 C1001 1.363 . S
C1002 C1008 1.428 . S
H1003 C999 0.930 . S
H1004 C1001 0.929 . S
S1005 N1006 1.613 . S
S1005 N1007 1.610 . S
N1006 S1005 1.613 . S
N1006 C1009 1.350 . S
N1007 S1005 1.610 . S
N1007 C1008 1.351 . S
C1008 C1002 1.428 . S
C1008 N1007 1.351 . S
C1008 C1009 1.434 . S
C1009 C1000 1.429 . S
C1009 N1006 1.350 . S
C1009 C1008 1.434 . S
C1010 C1011 1.369 . S
C1010 C1012 1.419 . S
C1010 H1014 0.930 . S
C1011 C1010 1.369 . S
C1011 C1020 1.429 . S
C1012 C1010 1.419 . S
C1012 C1013 1.363 . S
C1012 H1015 0.929 1_556 S
C1013 C1012 1.363 . S
C1013 C1019 1.428 . S
H1014 C1010 0.930 . S
H1015 C1012 0.929 1_554 S
S1016 N1017 1.613 . S
S1016 N1018 1.610 . S
N1017 S1016 1.613 . S
N1017 C1020 1.350 . S
N1018 S1016 1.610 . S
N1018 C1019 1.351 . S
C1019 C1013 1.428 . S
C1019 N1018 1.351 . S
C1019 C1020 1.434 . S
C1020 C1011 1.429 . S
C1020 N1017 1.350 . S
C1020 C1019 1.434 . S
C1021 C1022 1.369 . S
C1021 C1023 1.419 . S
C1021 H1025 0.930 . S
C1022 C1021 1.369 . S
C1022 C1031 1.429 . S
C1023 C1021 1.419 . S
C1023 C1024 1.363 . S
C1023 H1026 0.929 . S
C1024 C1023 1.363 . S
C1024 C1030 1.428 . S
H1025 C1021 0.930 . S
H1026 C1023 0.929 . S
S1027 N1028 1.613 . S
S1027 N1029 1.610 . S
N1028 S1027 1.613 . S
N1028 C1031 1.350 . S
N1029 S1027 1.610 . S
N1029 C1030 1.351 . S
C1030 C1024 1.428 . S
C1030 N1029 1.351 . S
C1030 C1031 1.434 . S
C1031 C1022 1.429 . S
C1031 N1028 1.350 . S
C1031 C1030 1.434 . S
C1032 C1033 1.369 . S
C1032 C1034 1.419 . S
C1032 H1036 0.930 . S
C1033 C1032 1.369 . S
C1033 C1042 1.429 . S
C1034 C1032 1.419 . S
C1034 C1035 1.363 . S
C1034 H1037 0.929 . S
C1035 C1034 1.363 . S
C1035 C1041 1.428 . S
H1036 C1032 0.930 . S
H1037 C1034 0.929 . S
S1038 N1039 1.613 . S
S1038 N1040 1.610 . S
N1039 S1038 1.613 . S
N1039 C1042 1.350 . S
N1040 S1038 1.610 . S
N1040 C1041 1.351 . S
C1041 C1035 1.428 . S
C1041 N1040 1.351 . S
C1041 C1042 1.434 . S
C1042 C1033 1.429 . S
C1042 N1039 1.350 . S
C1042 C1041 1.434 . S
C1043 C1044 1.369 . S
C1043 C1045 1.419 . S
C1043 H1047 0.930 . S
C1044 C1043 1.369 . S
C1044 C1053 1.429 . S
C1045 C1043 1.419 . S
C1045 C1046 1.363 . S
C1045 H1048 0.929 . S
C1046 C1045 1.363 . S
C1046 C1052 1.428 . S
H1047 C1043 0.930 . S
H1048 C1045 0.929 . S
S1049 N1050 1.613 . S
S1049 N1051 1.610 . S
N1050 S1049 1.613 . S
N1050 C1053 1.350 . S
N1051 S1049 1.610 . S
N1051 C1052 1.351 . S
C1052 C1046 1.428 . S
C1052 N1051 1.351 . S
C1052 C1053 1.434 . S
C1053 C1044 1.429 . S
C1053 N1050 1.350 . S
C1053 C1052 1.434 . S
C1054 C1055 1.369 . S
C1054 C1056 1.419 . S
C1054 H1058 0.930 . S
C1055 C1054 1.369 . S
C1055 C1064 1.429 . S
C1056 C1054 1.419 . S
C1056 C1057 1.363 . S
C1056 H1059 0.929 . S
C1057 C1056 1.363 . S
C1057 C1063 1.428 . S
H1058 C1054 0.930 . S
H1059 C1056 0.929 . S
S1060 N1061 1.613 . S
S1060 N1062 1.610 . S
N1061 S1060 1.613 . S
N1061 C1064 1.350 . S
N1062 S1060 1.610 . S
N1062 C1063 1.351 . S
C1063 C1057 1.428 . S
C1063 N1062 1.351 . S
C1063 C1064 1.434 . S
C1064 C1055 1.429 . S
C1064 N1061 1.350 . S
C1064 C1063 1.434 . S
C1065 C1066 1.369 . S
C1065 C1067 1.419 . S
C1065 H1069 0.930 . S
C1066 C1065 1.369 . S
C1066 C1075 1.429 . S
C1067 C1065 1.419 . S
C1067 C1068 1.363 . S
C1067 H1070 0.929 . S
C1068 C1067 1.363 . S
C1068 C1074 1.428 . S
H1069 C1065 0.930 . S
H1070 C1067 0.929 . S
S1071 N1072 1.613 . S
S1071 N1073 1.610 . S
N1072 S1071 1.613 . S
N1072 C1075 1.350 . S
N1073 S1071 1.610 . S
N1073 C1074 1.351 . S
C1074 C1068 1.428 . S
C1074 N1073 1.351 . S
C1074 C1075 1.434 . S
C1075 C1066 1.429 . S
C1075 N1072 1.350 . S
C1075 C1074 1.434 . S
C1076 C1077 1.369 . S
C1076 C1078 1.419 . S
C1076 H1080 0.930 . S
C1077 C1076 1.369 . S
C1077 C1086 1.429 . S
C1078 C1076 1.419 . S
C1078 C1079 1.363 . S
C1078 H1081 0.929 . S
C1079 C1078 1.363 . S
C1079 C1085 1.428 . S
H1080 C1076 0.930 . S
H1081 C1078 0.929 . S
S1082 N1083 1.613 . S
S1082 N1084 1.610 . S
N1083 S1082 1.613 . S
N1083 C1086 1.350 . S
N1084 S1082 1.610 . S
N1084 C1085 1.351 . S
C1085 C1079 1.428 . S
C1085 N1084 1.351 . S
C1085 C1086 1.434 . S
C1086 C1077 1.429 . S
C1086 N1083 1.350 . S
C1086 C1085 1.434 . S
C1087 C1088 1.369 . S
C1087 C1089 1.419 . S
C1087 H1091 0.930 . S
C1088 C1087 1.369 . S
C1088 C1097 1.429 . S
C1089 C1087 1.419 . S
C1089 C1090 1.363 . S
C1089 H1092 0.929 . S
C1090 C1089 1.363 . S
C1090 C1096 1.428 . S
H1091 C1087 0.930 . S
H1092 C1089 0.929 . S
S1093 N1094 1.613 . S
S1093 N1095 1.610 . S
N1094 S1093 1.613 . S
N1094 C1097 1.350 . S
N1095 S1093 1.610 . S
N1095 C1096 1.351 . S
C1096 C1090 1.428 . S
C1096 N1095 1.351 . S
C1096 C1097 1.434 . S
C1097 C1088 1.429 . S
C1097 N1094 1.350 . S
C1097 C1096 1.434 . S
C1098 C1099 1.369 . S
C1098 C1100 1.419 . S
C1098 H1102 0.930 . S
C1099 C1098 1.369 . S
C1099 C1108 1.429 . S
C1100 C1098 1.419 . S
C1100 C1101 1.363 . S
C1100 H1103 0.929 . S
C1101 C1100 1.363 . S
C1101 C1107 1.428 . S
H1102 C1098 0.930 . S
H1103 C1100 0.929 . S
S1104 N1105 1.613 . S
S1104 N1106 1.610 . S
N1105 S1104 1.613 . S
N1105 C1108 1.350 . S
N1106 S1104 1.610 . S
N1106 C1107 1.351 . S
C1107 C1101 1.428 . S
C1107 N1106 1.351 . S
C1107 C1108 1.434 . S
C1108 C1099 1.429 . S
C1108 N1105 1.350 . S
C1108 C1107 1.434 . S
C1109 C1110 1.369 . S
C1109 C1111 1.419 . S
C1109 H1113 0.930 . S
C1110 C1109 1.369 . S
C1110 C1119 1.429 . S
C1111 C1109 1.419 . S
C1111 C1112 1.363 . S
C1111 H1114 0.929 . S
C1112 C1111 1.363 . S
C1112 C1118 1.428 . S
H1113 C1109 0.930 . S
H1114 C1111 0.929 . S
S1115 N1116 1.613 1_554 S
S1115 N1117 1.610 . S
N1116 S1115 1.613 1_556 S
N1116 C1119 1.350 . S
N1117 S1115 1.610 . S
N1117 C1118 1.351 1_554 S
C1118 C1112 1.428 . S
C1118 N1117 1.351 1_556 S
C1118 C1119 1.434 . S
C1119 C1110 1.429 . S
C1119 N1116 1.350 . S
C1119 C1118 1.434 . S
C417 C109 1.527 . S
C419 C3 1.523 . S
C428 C18 1.528 . S
C430 C328 1.522 . S
C439 C31 1.528 . S
C441 C135 1.522 . S
C450 C44 1.527 . S
C452 C356 1.522 . S
C461 C55 1.528 . S
C463 C159 1.522 . S
C472 C382 1.524 . S
C474 C68 1.525 . S
C483 C185 1.522 . S
C485 C81 1.527 . S
C494 C406 1.528 . S
C496 C96 1.522 . S
C505 C224 1.524 . S
C507 C122 1.525 . S
C516 C148 1.524 . S
C518 C252 1.525 . S
C527 C172 1.525 . S
C529 C276 1.524 . S
C538 C302 1.524 . S
C540 C198 1.525 . S
C549 C315 1.525 . S
C551 C211 1.524 . S
C560 C237 1.522 . S
C562 C343 1.527 . S
C571 C265 1.522 . S
C573 C367 1.527 . S
C582 C393 1.523 . S
C584 C289 1.526 . S
C593 C5 1.603 . S
C595 C57 1.599 . S
C604 C70 1.599 . S
C606 C16 1.599 . S
C615 C83 1.604 . S
C617 C29 1.600 . S
C626 C42 1.598 . S
C628 C94 1.601 . S
C637 C107 1.598 . S
C639 C161 1.602 . S
C648 C120 1.598 . S
C650 C174 1.600 . S
C659 C187 1.599 . S
C661 C133 1.600 . S
C670 C200 1.600 . S
C672 C146 1.599 . S
C681 C263 1.596 1_565 S
C683 C213 1.596 1_545 S
C692 C278 1.600 . S
C694 C226 1.599 . S
C703 C239 1.599 1_565 S
C705 C291 1.598 1_545 S
C714 C304 1.599 . S
C716 C250 1.603 . S
C725 C369 1.598 1_545 S
C727 C317 1.597 1_565 S
C736 C330 1.598 . S
C738 C380 1.601 . S
C747 C395 1.597 1_565 S
C749 C341 1.596 1_545 S
C758 C408 1.599 . S
C760 C354 1.599 . S
C769 C56 0.945 . S
C771 C4 0.959 . S
C780 C69 0.959 . S
C782 C23 0.950 . S
C791 C36 0.943 . S
C793 C82 0.960 . S
C802 C101 0.959 . S
C804 C49 0.950 . S
C813 C160 0.961 . S
C815 C114 0.948 . S
C824 C127 0.951 . S
C826 C173 0.957 . S
C835 C186 0.961 . S
C837 C140 0.945 . S
C846 C199 0.945 . S
C848 C153 0.955 . S
C857 C212 0.958 . S
C859 C270 0.947 . S
C868 C277 0.943 . S
C870 C225 0.960 . S
C879 C290 0.959 . S
C881 C238 0.946 . S
C890 C303 0.956 . S
C892 C257 0.952 . S
C901 C368 0.960 . S
C903 C316 0.950 . S
C912 C329 0.959 . S
C914 C387 0.946 . S
C923 C348 0.961 . S
C925 C394 0.945 . S
C934 C361 0.961 . S
C936 C407 0.948 . S
C945 C10 1.528 . S
C947 C283 1.534 . S
C956 C296 1.529 . S
C958 C17 1.533 . S
C967 C30 1.532 . S
C969 C309 1.532 . S
C978 C43 1.533 . S
C980 C264 1.530 1_556 S
C989 C251 1.534 . S
C991 C62 1.529 . S
C1000 C218 1.534 . S
C1002 C75 1.531 . S
C1011 C231 1.534 . S
C1013 C88 1.529 1_556 S
C1022 C95 1.536 . S
C1024 C244 1.529 . S
C1033 C108 1.529 1_556 S
C1035 C381 1.532 . S
C1044 C400 1.528 . S
C1046 C121 1.534 . S
C1055 C413 1.533 . S
C1057 C134 1.530 . S
C1066 C374 1.529 . S
C1068 C147 1.533 . S
C1077 C355 1.531 . S
C1079 C166 1.531 . S
C1088 C322 1.528 . S
C1090 C179 1.533 . S
C1099 C192 1.535 . S
C1101 C335 1.529 . S
C1110 C205 1.528 . S
C1112 C342 1.534 1_556 S
