# Generated by pormake.
# Topology atn, (4)-cn, num edge types: 1
# Building blocks:
#     Node 0, Type 0, BuildingBlock: NAHDIM_clean_sbu_0, # of connection points: 4
#     Node 1, Type 0, BuildingBlock: NAHDIM_clean_sbu_0, # of connection points: 4
#     Node 2, Type 0, BuildingBlock: NAHDIM_clean_sbu_0, # of connection points: 4
#     Node 3, Type 0, BuildingBlock: NAHDIM_clean_sbu_0, # of connection points: 4
#     Node 4, Type 0, BuildingBlock: NAHDIM_clean_sbu_0, # of connection points: 4
#     Node 5, Type 0, BuildingBlock: NAHDIM_clean_sbu_0, # of connection points: 4
#     Node 6, Type 0, BuildingBlock: NAHDIM_clean_sbu_0, # of connection points: 4
#     Node 7, Type 0, BuildingBlock: NAHDIM_clean_sbu_0, # of connection points: 4
#     Node 8, Type 0, BuildingBlock: NAHDIM_clean_sbu_0, # of connection points: 4
#     Node 9, Type 0, BuildingBlock: NAHDIM_clean_sbu_0, # of connection points: 4
#     Node 10, Type 0, BuildingBlock: NAHDIM_clean_sbu_0, # of connection points: 4
#     Node 11, Type 0, BuildingBlock: NAHDIM_clean_sbu_0, # of connection points: 4
#     Node 12, Type 0, BuildingBlock: NAHDIM_clean_sbu_0, # of connection points: 4
#     Node 13, Type 0, BuildingBlock: NAHDIM_clean_sbu_0, # of connection points: 4
#     Node 14, Type 0, BuildingBlock: NAHDIM_clean_sbu_0, # of connection points: 4
#     Node 15, Type 0, BuildingBlock: NAHDIM_clean_sbu_0, # of connection points: 4
#     Edge 16, Type (0, 0), BuildingBlock: XIVTED_clean_linker_0, # of connection points: 2
#     Edge 17, Type (0, 0), BuildingBlock: XIVTED_clean_linker_0, # of connection points: 2
#     Edge 18, Type (0, 0), BuildingBlock: XIVTED_clean_linker_0, # of connection points: 2
#     Edge 19, Type (0, 0), BuildingBlock: XIVTED_clean_linker_0, # of connection points: 2
#     Edge 20, Type (0, 0), BuildingBlock: XIVTED_clean_linker_0, # of connection points: 2
#     Edge 21, Type (0, 0), BuildingBlock: XIVTED_clean_linker_0, # of connection points: 2
#     Edge 22, Type (0, 0), BuildingBlock: XIVTED_clean_linker_0, # of connection points: 2
#     Edge 23, Type (0, 0), BuildingBlock: XIVTED_clean_linker_0, # of connection points: 2
#     Edge 24, Type (0, 0), BuildingBlock: XIVTED_clean_linker_0, # of connection points: 2
#     Edge 25, Type (0, 0), BuildingBlock: XIVTED_clean_linker_0, # of connection points: 2
#     Edge 26, Type (0, 0), BuildingBlock: XIVTED_clean_linker_0, # of connection points: 2
#     Edge 27, Type (0, 0), BuildingBlock: XIVTED_clean_linker_0, # of connection points: 2
#     Edge 28, Type (0, 0), BuildingBlock: XIVTED_clean_linker_0, # of connection points: 2
#     Edge 29, Type (0, 0), BuildingBlock: XIVTED_clean_linker_0, # of connection points: 2
#     Edge 30, Type (0, 0), BuildingBlock: XIVTED_clean_linker_0, # of connection points: 2
#     Edge 31, Type (0, 0), BuildingBlock: XIVTED_clean_linker_0, # of connection points: 2
#     Edge 32, Type (0, 0), BuildingBlock: XIVTED_clean_linker_0, # of connection points: 2
#     Edge 33, Type (0, 0), BuildingBlock: XIVTED_clean_linker_0, # of connection points: 2
#     Edge 34, Type (0, 0), BuildingBlock: XIVTED_clean_linker_0, # of connection points: 2
#     Edge 35, Type (0, 0), BuildingBlock: XIVTED_clean_linker_0, # of connection points: 2
#     Edge 36, Type (0, 0), BuildingBlock: XIVTED_clean_linker_0, # of connection points: 2
#     Edge 37, Type (0, 0), BuildingBlock: XIVTED_clean_linker_0, # of connection points: 2
#     Edge 38, Type (0, 0), BuildingBlock: XIVTED_clean_linker_0, # of connection points: 2
#     Edge 39, Type (0, 0), BuildingBlock: XIVTED_clean_linker_0, # of connection points: 2
#     Edge 40, Type (0, 0), BuildingBlock: XIVTED_clean_linker_0, # of connection points: 2
#     Edge 41, Type (0, 0), BuildingBlock: XIVTED_clean_linker_0, # of connection points: 2
#     Edge 42, Type (0, 0), BuildingBlock: XIVTED_clean_linker_0, # of connection points: 2
#     Edge 43, Type (0, 0), BuildingBlock: XIVTED_clean_linker_0, # of connection points: 2
#     Edge 44, Type (0, 0), BuildingBlock: XIVTED_clean_linker_0, # of connection points: 2
#     Edge 45, Type (0, 0), BuildingBlock: XIVTED_clean_linker_0, # of connection points: 2
#     Edge 46, Type (0, 0), BuildingBlock: XIVTED_clean_linker_0, # of connection points: 2
#     Edge 47, Type (0, 0), BuildingBlock: XIVTED_clean_linker_0, # of connection points: 2
# Relax obj value: 0.100
# Max RMSD: 0.110
# Mean RMSD: 0.110
data_MOF--net-atn--node1-NAHDIM_clean_sbu_0--edge1-XIVTED_clean_linker_0
_symmetry_space_group_name_H-M    P1
_symmetry_Int_Tables_number       1
_symmetry_cell_setting            triclinic
loop_
_symmetry_equiv_pos_as_xyz
'x, y, z'
_cell_length_a     64.121457
_cell_length_b     63.869047
_cell_length_c     24.969815
_cell_angle_alpha  89.996679
_cell_angle_beta   89.98883
_cell_angle_gamma 90.097104
loop_
_atom_site_label
_atom_site_type_symbol
_atom_site_fract_x
_atom_site_fract_y
_atom_site_fract_z
_atom_type_partial_charge
C0 C 0.19891 0.41186 0.97556 0.0
O1 O 0.18178 0.40105 0.96708 0.0
O2 O 0.20561 0.35868 0.04429 0.0
Zn3 Zn 0.21643 0.37092 0.97517 0.0
O4 O 0.19888 0.36122 0.91332 0.0
C5 C 0.25888 0.36045 0.0005 0.0
O6 O 0.25382 0.36832 0.04734 0.0
O7 O 0.21615 0.40224 0.97991 0.0
C8 C 0.19522 0.34176 0.90863 0.0
O9 O 0.20271 0.3288 0.94466 0.0
C10 C 0.18631 0.35549 0.05263 0.0
O11 O 0.17277 0.36033 0.01518 0.0
O12 O 0.24548 0.36047 0.96307 0.0
C13 C 0.57329 0.19682 0.97277 0.0
O14 O 0.58285 0.18282 0.9431 0.0
O15 O 0.62865 0.19794 0.0513 0.0
Zn16 Zn 0.61503 0.21234 0.98875 0.0
O17 O 0.62425 0.19878 0.91993 0.0
C18 C 0.62593 0.25353 0.02908 0.0
O19 O 0.62052 0.24562 0.07564 0.0
O20 O 0.58392 0.21095 0.99598 0.0
C21 C 0.64004 0.20607 0.89541 0.0
O22 O 0.65025 0.22196 0.91621 0.0
C23 C 0.62277 0.17991 0.06669 0.0
O24 O 0.6076 0.17043 0.04092 0.0
O25 O 0.62417 0.24237 0.98726 0.0
C26 C 0.76642 0.5716 0.01139 0.0
O27 O 0.76398 0.58167 0.05683 0.0
O28 O 0.77878 0.62446 0.03893 0.0
Zn29 Zn 0.76935 0.61328 0.96769 0.0
O30 O 0.78884 0.62304 0.9101 0.0
C31 C 0.72722 0.62668 0.98715 0.0
O32 O 0.7312 0.61994 0.03579 0.0
O33 O 0.76872 0.58193 0.96833 0.0
C34 C 0.79544 0.64181 0.91013 0.0
O35 O 0.78977 0.65444 0.94901 0.0
C36 C 0.79743 0.62219 0.05493 0.0
O37 O 0.81079 0.61216 0.02442 0.0
O38 O 0.74107 0.62484 0.95113 0.0
C39 C 0.41127 0.79353 0.01543 0.0
O40 O 0.40096 0.81129 0.01658 0.0
O41 O 0.36139 0.79349 0.08447 0.0
Zn42 Zn 0.37007 0.77834 0.01781 0.0
O43 O 0.36089 0.79476 0.95328 0.0
C44 C 0.34258 0.74496 0.98495 0.0
O45 O 0.33573 0.75941 0.952 0.0
O46 O 0.40115 0.77642 0.01628 0.0
C47 C 0.36772 0.78974 0.90727 0.0
O48 O 0.38089 0.77408 0.90307 0.0
C49 C 0.34219 0.79584 0.0953 0.0
O50 O 0.32814 0.78822 0.0623 0.0
O51 O 0.35726 0.7494 0.01723 0.0
C52 C 0.19107 0.56817 0.00404 0.0
O53 O 0.17305 0.57793 0.00293 0.0
O54 O 0.18665 0.61813 0.94114 0.0
Zn55 Zn 0.2056 0.61008 0.00182 0.0
O56 O 0.19435 0.62125 0.07183 0.0
C57 C 0.24923 0.62208 0.01704 0.0
O58 O 0.24791 0.61157 0.06215 0.0
O59 O 0.20777 0.57887 0.00456 0.0
C60 C 0.20085 0.63852 0.09096 0.0
O61 O 0.21491 0.64932 0.06445 0.0
C62 C 0.18441 0.63739 0.92993 0.0
O63 O 0.19382 0.65147 0.95975 0.0
O64 O 0.23355 0.62278 0.98602 0.0
C65 C 0.41771 0.19296 0.00865 0.0
O66 O 0.40665 0.17691 0.99186 0.0
O67 O 0.36581 0.19431 0.96487 0.0
Zn68 Zn 0.37722 0.21033 0.02771 0.0
O69 O 0.36637 0.19795 0.09664 0.0
C70 C 0.3654 0.25005 0.97918 0.0
O71 O 0.3694 0.2405 0.93372 0.0
O72 O 0.40839 0.20905 0.02646 0.0
C73 C 0.35134 0.20678 0.12095 0.0
O74 O 0.34294 0.22367 0.10018 0.0
C75 C 0.34656 0.19456 0.95288 0.0
O76 O 0.33359 0.2054 0.98266 0.0
O77 O 0.36824 0.24038 0.023 0.0
C78 C 0.77416 0.41489 0.00803 0.0
O79 O 0.77305 0.4048 0.96227 0.0
O80 O 0.79146 0.36334 0.98358 0.0
Zn81 Zn 0.7761 0.37321 0.04917 0.0
O82 O 0.78997 0.36206 0.1158 0.0
C83 C 0.73574 0.36087 0.00507 0.0
O84 O 0.74377 0.36647 0.95882 0.0
O85 O 0.77578 0.40454 0.05126 0.0
C86 C 0.78245 0.34602 0.139 0.0
O87 O 0.76603 0.33672 0.11834 0.0
C88 C 0.7924 0.34403 0.97162 0.0
O89 O 0.78343 0.33024 0.0032 0.0
O90 O 0.74654 0.36284 0.04738 0.0
C91 C 0.56697 0.79517 0.98202 0.0
O92 O 0.57762 0.81272 0.98524 0.0
O93 O 0.61701 0.79389 0.90568 0.0
Zn94 Zn 0.60778 0.77891 0.97233 0.0
O95 O 0.61843 0.79394 0.03729 0.0
C96 C 0.62335 0.73889 0.93306 0.0
O97 O 0.6195 0.74662 0.88532 0.0
O98 O 0.5767 0.77805 0.97562 0.0
C99 C 0.61608 0.785 0.08235 0.0
O100 O 0.60663 0.76674 0.08427 0.0
C101 C 0.63631 0.79611 0.89562 0.0
O102 O 0.65007 0.78853 0.9294 0.0
O103 O 0.61927 0.74975 0.97432 0.0
C104 C 0.71434 0.9136 0.5038 0.0
O105 O 0.71261 0.90498 0.55136 0.0
O106 O 0.70308 0.86074 0.53782 0.0
Zn107 Zn 0.71306 0.87071 0.46577 0.0
O108 O 0.69365 0.86079 0.40822 0.0
C109 C 0.75503 0.85729 0.48707 0.0
O110 O 0.75133 0.86558 0.53428 0.0
O111 O 0.71496 0.90199 0.46253 0.0
C112 C 0.6869 0.84208 0.40829 0.0
O113 O 0.69229 0.82947 0.44747 0.0
C114 C 0.68409 0.86194 0.55194 0.0
O115 O 0.67047 0.87028 0.51897 0.0
O116 O 0.74104 0.85811 0.45118 0.0
C117 C 0.07171 0.6967 0.4806 0.0
O118 O 0.08291 0.68014 0.4687 0.0
O119 O 0.12127 0.70358 0.57126 0.0
Zn120 Zn 0.11194 0.71463 0.49997 0.0
O121 O 0.12477 0.69796 0.44029 0.0
C122 C 0.1224 0.75648 0.53343 0.0
O123 O 0.11591 0.74961 0.58016 0.0
O124 O 0.08085 0.71343 0.49505 0.0
C125 C 0.14369 0.70129 0.4279 0.0
O126 O 0.15447 0.7151 0.45543 0.0
C127 C 0.12275 0.68419 0.58176 0.0
O128 O 0.11806 0.6704 0.54461 0.0
O129 O 0.12156 0.7444 0.49308 0.0
C130 C 0.27115 0.07516 0.48066 0.0
O131 O 0.26767 0.08605 0.43693 0.0
O132 O 0.28175 0.12741 0.59635 0.0
Zn133 Zn 0.27332 0.11602 0.5246 0.0
O134 O 0.29239 0.12729 0.46782 0.0
C135 C 0.2302 0.12849 0.54013 0.0
O136 O 0.23376 0.12388 0.59059 0.0
O137 O 0.27415 0.08476 0.52453 0.0
C138 C 0.29084 0.14668 0.45733 0.0
O139 O 0.27789 0.15815 0.48564 0.0
C140 C 0.30029 0.12489 0.61294 0.0
O141 O 0.31358 0.11454 0.58292 0.0
O142 O 0.24457 0.12581 0.50587 0.0
C143 C 0.91445 0.29046 0.53069 0.0
O144 O 0.90319 0.30713 0.52011 0.0
O145 O 0.863 0.28114 0.61698 0.0
Zn146 Zn 0.87418 0.27173 0.54562 0.0
O147 O 0.86197 0.28929 0.48686 0.0
C148 C 0.86017 0.22912 0.5666 0.0
O149 O 0.86211 0.23437 0.61723 0.0
O150 O 0.90535 0.2735 0.54344 0.0
C151 C 0.84277 0.28663 0.47636 0.0
O152 O 0.83188 0.27348 0.50569 0.0
C153 C 0.86027 0.30044 0.62703 0.0
O154 O 0.86521 0.31439 0.59049 0.0
O155 O 0.86509 0.24225 0.53057 0.0
C156 C 0.71575 0.06939 0.45633 0.0
O157 O 0.72312 0.07819 0.41267 0.0
O158 O 0.69988 0.1224 0.41786 0.0
Zn159 Zn 0.71027 0.1121 0.48908 0.0
O160 O 0.69285 0.12463 0.54738 0.0
C161 C 0.75257 0.12635 0.46552 0.0
O162 O 0.74709 0.12429 0.4151 0.0
O163 O 0.7091 0.08089 0.49409 0.0
C164 C 0.69489 0.14416 0.55548 0.0
O165 O 0.70737 0.155 0.52421 0.0
C166 C 0.68333 0.11489 0.39749 0.0
O167 O 0.67332 0.09995 0.42301 0.0
O168 O 0.73962 0.12168 0.5021 0.0
C169 C 0.91571 0.68996 0.46714 0.0
O170 O 0.90576 0.6722 0.45955 0.0
O171 O 0.86446 0.68986 0.40877 0.0
Zn172 Zn 0.87422 0.70505 0.47451 0.0
O173 O 0.86466 0.68989 0.54035 0.0
C174 C 0.85921 0.74511 0.43523 0.0
O175 O 0.86456 0.73778 0.38803 0.0
O176 O 0.90529 0.7066 0.47446 0.0
C177 C 0.86652 0.69919 0.58507 0.0
O178 O 0.87498 0.71794 0.58635 0.0
C179 C 0.84518 0.68876 0.39753 0.0
O180 O 0.83158 0.6976 0.42972 0.0
O181 O 0.86219 0.73397 0.47664 0.0
C182 C 0.26994 0.91825 0.47819 0.0
O183 O 0.26717 0.90803 0.43309 0.0
O184 O 0.28184 0.86509 0.45296 0.0
Zn185 Zn 0.27166 0.87672 0.52297 0.0
O186 O 0.2896 0.86644 0.58342 0.0
C187 C 0.22955 0.86589 0.49634 0.0
O188 O 0.23524 0.87313 0.4493 0.0
O189 O 0.27215 0.90807 0.52151 0.0
C190 C 0.29777 0.84833 0.58216 0.0
O191 O 0.29463 0.8363 0.54025 0.0
C192 C 0.30059 0.86681 0.43724 0.0
O193 O 0.31416 0.87669 0.46756 0.0
O194 O 0.2425 0.86636 0.53484 0.0
C195 C 0.06961 0.29443 0.48335 0.0
O196 O 0.07989 0.31214 0.4784 0.0
O197 O 0.12022 0.29038 0.41034 0.0
Zn198 Zn 0.11073 0.27752 0.47958 0.0
O199 O 0.12214 0.29367 0.54204 0.0
C200 C 0.12635 0.23618 0.44812 0.0
O201 O 0.12394 0.24267 0.39859 0.0
O202 O 0.07964 0.27731 0.48401 0.0
C203 C 0.12047 0.28497 0.5876 0.0
O204 O 0.11098 0.26677 0.59103 0.0
C205 C 0.13958 0.29275 0.40125 0.0
O206 O 0.15309 0.28676 0.43768 0.0
O207 O 0.12147 0.24818 0.48662 0.0
H208 H 0.15842 0.54063 -0.00203 0.0
H209 H 0.23141 0.4391 0.99075 0.0
H210 H 0.22565 0.54308 0.00624 0.0
H211 H 0.16447 0.43704 0.97248 0.0
H212 H 0.22954 0.47712 -0.00031 0.0
H213 H 0.16024 0.50252 0.99227 0.0
C214 C 0.17356 0.53316 -0.00125 0.0
C215 C 0.19191 0.54507 0.00245 0.0
C216 C 0.21526 0.46835 0.99372 0.0
C217 C 0.19411 0.50144 0.99581 0.0
C218 C 0.21632 0.44663 0.9886 0.0
C219 C 0.19807 0.43487 0.98076 0.0
C220 C 0.19581 0.47839 0.99109 0.0
C221 C 0.17894 0.44548 0.97836 0.0
C222 C 0.1746 0.51139 0.99541 0.0
C223 C 0.2111 0.53453 0.00332 0.0
N224 N 0.17832 0.46663 0.98352 0.0
N225 N 0.2117 0.51332 -5e-05 0.0
H226 H 0.44261 0.16264 0.96486 0.0
H227 H 0.54859 0.22423 0.02793 0.0
H228 H 0.44516 0.22262 0.04447 0.0
H229 H 0.54591 0.16769 0.93332 0.0
H230 H 0.5108 0.22282 0.03851 0.0
H231 H 0.48061 0.1631 0.95725 0.0
C232 C 0.45115 0.17587 0.9809 0.0
C233 C 0.44069 0.19264 0.00522 0.0
C234 C 0.51847 0.21071 0.01542 0.0
C235 C 0.48414 0.19327 0.99661 0.0
C236 C 0.54006 0.2115 0.00938 0.0
C237 C 0.55042 0.19608 0.97957 0.0
C238 C 0.50713 0.19435 0.99162 0.0
C239 C 0.53855 0.17995 0.95652 0.0
C240 C 0.47284 0.17614 0.97644 0.0
C241 C 0.45256 0.20937 0.02527 0.0
N242 N 0.51752 0.1795 0.96303 0.0
N243 N 0.47365 0.20926 0.02048 0.0
H244 H 0.77362 0.44048 0.09599 0.0
H245 H 0.7696 0.54604 0.9239 0.0
H246 H 0.77234 0.44189 0.92311 0.0
H247 H 0.76494 0.54452 0.0964 0.0
H248 H 0.77151 0.50791 0.92302 0.0
H249 H 0.77149 0.47864 0.09712 0.0
C250 C 0.77292 0.44881 0.05824 0.0
C251 C 0.77315 0.43798 0.00935 0.0
C252 C 0.77003 0.5159 0.96107 0.0
C253 C 0.77069 0.48166 0.0104 0.0
C254 C 0.76894 0.53769 0.96162 0.0
C255 C 0.76711 0.5485 0.01033 0.0
C256 C 0.76935 0.5048 0.00957 0.0
C257 C 0.76632 0.53684 0.05793 0.0
C258 C 0.77166 0.4706 0.05894 0.0
C259 C 0.77218 0.44959 0.96172 0.0
N260 N 0.7675 0.51561 0.05636 0.0
N261 N 0.77101 0.47081 0.96345 0.0
H262 H 0.54124 0.82897 0.99438 0.0
H263 H 0.43724 0.75968 0.00832 0.0
H264 H 0.54046 0.76156 0.98092 0.0
H265 H 0.4376 0.82726 0.01384 0.0
H266 H 0.47518 0.76004 0.00042 0.0
H267 H 0.50331 0.82866 0.00336 0.0
C268 C 0.5331 0.8141 0.99326 0.0
C269 C 0.54403 0.79526 0.98685 0.0
C270 C 0.46697 0.77479 0.00339 0.0
C271 C 0.50065 0.79479 -0.00278 0.0
C272 C 0.4453 0.7746 0.00798 0.0
C273 C 0.43424 0.79348 0.01171 0.0
C274 C 0.47766 0.794 0.00258 0.0
C275 C 0.44549 0.81233 0.01102 0.0
C276 C 0.51144 0.81393 -0.0016 0.0
C277 C 0.53267 0.77647 0.98572 0.0
N278 N 0.4666 0.81211 0.00652 0.0
N279 N 0.5116 0.77671 0.9909 0.0
H280 H 0.72608 0.03982 0.38147 0.0
H281 H 0.70946 0.94336 0.58175 0.0
H282 H 0.70522 0.04659 0.54499 0.0
H283 H 0.72082 0.93621 0.41226 0.0
H284 H 0.70996 0.98136 0.57029 0.0
H285 H 0.72617 0.00182 0.3931 0.0
C286 C 0.72151 0.03333 0.41979 0.0
C287 C 0.71562 0.0464 0.4623 0.0
C288 C 0.71234 0.97146 0.53562 0.0
C289 C 0.71577 0.00297 0.47596 0.0
C290 C 0.71211 0.94977 0.54216 0.0
C291 C 0.71506 0.93659 0.49789 0.0
C292 C 0.71565 0.98003 0.48449 0.0
C293 C 0.71841 0.94577 0.44751 0.0
C294 C 0.72155 0.01163 0.4264 0.0
C295 C 0.70983 0.03711 0.51107 0.0
N296 N 0.71863 0.96692 0.4422 0.0
N297 N 0.7101 0.01597 0.51659 0.0
H298 H 0.94294 0.65761 0.45045 0.0
H299 H 0.04416 0.72849 0.49925 0.0
H300 H 0.94088 0.7238 0.48533 0.0
H301 H 0.04693 0.66316 0.45529 0.0
H302 H 0.00622 0.72687 0.49501 0.0
H303 H 0.98102 0.65912 0.45268 0.0
C304 C 0.95048 0.67246 0.45853 0.0
C305 C 0.93871 0.6906 0.46777 0.0
C306 C 0.01511 0.71288 0.48621 0.0
C307 C 0.98224 0.69243 0.47044 0.0
C308 C 0.03679 0.71379 0.48866 0.0
C309 C 0.04874 0.69592 0.47765 0.0
C310 C 0.00526 0.69395 0.47277 0.0
C311 C 0.03833 0.67732 0.46409 0.0
C312 C 0.97222 0.67331 0.45977 0.0
C313 C 0.94932 0.70942 0.47799 0.0
N314 N 0.01716 0.6768 0.46211 0.0
N315 N 0.97047 0.70983 0.47913 0.0
H316 H 0.26556 0.04963 0.39371 0.0
H317 H 0.27585 0.94405 0.56426 0.0
H318 H 0.27717 0.04805 0.56401 0.0
H319 H 0.26528 0.9451 0.39347 0.0
H320 H 0.27652 0.98222 0.56458 0.0
H321 H 0.26558 0.01138 0.39244 0.0
C322 C 0.26813 0.04125 0.43083 0.0
C323 C 0.27134 0.05205 0.47906 0.0
C324 C 0.27407 0.97412 0.527 0.0
C325 C 0.27136 0.0083 0.47788 0.0
C326 C 0.27367 0.95231 0.52678 0.0
C327 C 0.27047 0.94136 0.47875 0.0
C328 C 0.27123 0.98511 0.47886 0.0
C329 C 0.26777 0.9529 0.43143 0.0
C330 C 0.26814 0.01941 0.43006 0.0
C331 C 0.27461 0.04038 0.52591 0.0
N332 N 0.26819 0.97416 0.43268 0.0
N333 N 0.27451 0.01914 0.52414 0.0
H334 H 0.04289 0.32787 0.47995 0.0
H335 H 0.94202 0.25827 0.54399 0.0
H336 H 0.04419 0.26081 0.50185 0.0
H337 H 0.93913 0.32414 0.50562 0.0
H338 H 0.97977 0.25939 0.53271 0.0
H339 H 0.00507 0.32725 0.49256 0.0
C340 C 0.03524 0.31302 0.48733 0.0
C341 C 0.04672 0.29436 0.48982 0.0
C342 C 0.97089 0.27361 0.52677 0.0
C343 C 0.00351 0.29356 0.50449 0.0
C344 C 0.94932 0.273 0.53333 0.0
C345 C 0.93738 0.29114 0.52563 0.0
C346 C 0.98065 0.29251 0.51254 0.0
C347 C 0.94772 0.30977 0.51186 0.0
C348 C 0.01365 0.31268 0.49452 0.0
C349 C 0.03598 0.27558 0.49951 0.0
N350 N 0.96878 0.30997 0.50572 0.0
N351 N 0.01499 0.27567 0.50658 0.0
H352 H 0.27468 0.34359 0.90828 0.0
H353 H 0.35798 0.27532 0.06538 0.0
H354 H 0.28829 0.35126 0.07647 0.0
H355 H 0.3485 0.27143 0.89449 0.0
H356 H 0.33595 0.30637 0.06794 0.0
H357 H 0.30482 0.32056 0.90002 0.0
C358 C 0.28416 0.34064 0.94337 0.0
C359 C 0.27875 0.34909 0.99337 0.0
C360 C 0.33889 0.29891 0.02974 0.0
C361 C 0.31321 0.32259 0.98424 0.0
C362 C 0.35148 0.28116 0.02824 0.0
C363 C 0.35483 0.27058 0.97974 0.0
C364 C 0.32938 0.30603 0.9825 0.0
C365 C 0.34619 0.27899 0.93284 0.0
C366 C 0.3014 0.32749 0.9386 0.0
C367 C 0.29174 0.34491 0.03727 0.0
N368 N 0.3336 0.29605 0.9355 0.0
N369 N 0.3082 0.33171 0.03184 0.0
H370 H 0.71071 0.34852 0.92173 0.0
H371 H 0.63806 0.27912 0.11163 0.0
H372 H 0.71445 0.34836 0.09439 0.0
H373 H 0.63906 0.27416 0.93917 0.0
H374 H 0.66099 0.30962 0.10561 0.0
H375 H 0.67961 0.32643 0.92722 0.0
C376 C 0.70485 0.34408 0.9608 0.0
C377 C 0.7154 0.35001 0.00763 0.0
C378 C 0.65598 0.30201 0.06905 0.0
C379 C 0.6799 0.32468 0.01419 0.0
C380 C 0.64284 0.28462 0.07246 0.0
C381 C 0.63693 0.27385 0.0259 0.0
C382 C 0.66327 0.30864 0.01875 0.0
C383 C 0.64347 0.2818 0.9762 0.0
C384 C 0.68711 0.33144 0.96391 0.0
C385 C 0.707 0.34391 0.05719 0.0
N386 N 0.65649 0.29856 0.97397 0.0
N387 N 0.68988 0.3314 0.05914 0.0
H388 H 0.71366 0.64168 0.89058 0.0
H389 H 0.62996 0.7168 0.02518 0.0
H390 H 0.6973 0.63948 0.05823 0.0
H391 H 0.64191 0.71512 0.85507 0.0
H392 H 0.65171 0.68584 0.03639 0.0
H393 H 0.68474 0.6657 0.87499 0.0
C394 C 0.70384 0.64605 0.92404 0.0
C395 C 0.7081 0.6388 0.97596 0.0
C396 C 0.64941 0.69208 0.9965 0.0
C397 C 0.67505 0.66644 0.95842 0.0
C398 C 0.63701 0.70979 0.99006 0.0
C399 C 0.63435 0.71873 0.93917 0.0
C400 C 0.65943 0.68333 0.95181 0.0
C401 C 0.64366 0.70884 0.89508 0.0
C402 C 0.68731 0.65977 0.91508 0.0
C403 C 0.69472 0.64483 0.01764 0.0
N404 N 0.65602 0.69182 0.90252 0.0
N405 N 0.67896 0.65851 0.00808 0.0
H406 H 0.25759 0.64381 0.92549 0.0
H407 H 0.34695 0.71367 0.05965 0.0
H408 H 0.28141 0.63259 0.08464 0.0
H409 H 0.31527 0.72887 0.91217 0.0
H410 H 0.32767 0.68051 0.06316 0.0
H411 H 0.28363 0.67117 0.91334 0.0
C412 C 0.26848 0.64692 0.9577 0.0
C413 C 0.26711 0.63611 0.00649 0.0
C414 C 0.32511 0.69105 0.02985 0.0
C415 C 0.29688 0.66765 0.993 0.0
C416 C 0.3361 0.70995 0.02778 0.0
C417 C 0.3325 0.72415 0.98588 0.0
C418 C 0.31055 0.68633 0.98957 0.0
C419 C 0.31835 0.71852 0.94557 0.0
C420 C 0.28333 0.66261 0.95077 0.0
C421 C 0.2818 0.64066 0.04653 0.0
N422 N 0.30782 0.70012 0.94858 0.0
N423 N 0.29594 0.6563 0.03917 0.0
H424 H 0.8427 0.76925 0.355 0.0
H425 H 0.78515 0.8463 0.55959 0.0
H426 H 0.84995 0.76659 0.52678 0.0
H427 H 0.76842 0.8401 0.39283 0.0
H428 H 0.81416 0.82218 0.54508 0.0
H429 H 0.82064 0.8002 0.36547 0.0
C430 C 0.83987 0.77531 0.39484 0.0
C431 C 0.84793 0.76516 0.44013 0.0
C432 C 0.80425 0.82627 0.51157 0.0
C433 C 0.82274 0.80049 0.45236 0.0
C434 C 0.78772 0.84008 0.51979 0.0
C435 C 0.77415 0.84497 0.47754 0.0
C436 C 0.80726 0.81735 0.46074 0.0
C437 C 0.77833 0.83654 0.42673 0.0
C438 C 0.82724 0.79294 0.4008 0.0
C439 C 0.84383 0.77376 0.49078 0.0
N440 N 0.79441 0.823 0.41984 0.0
N441 N 0.8314 0.79084 0.49555 0.0
H442 H 0.20138 0.85546 0.41837 0.0
H443 H 0.13466 0.78264 0.61451 0.0
H444 H 0.21207 0.85081 0.58869 0.0
H445 H 0.13486 0.77668 0.44226 0.0
H446 H 0.15694 0.8136 0.60655 0.0
H447 H 0.17097 0.83267 0.42799 0.0
C448 C 0.19718 0.84991 0.45791 0.0
C449 C 0.2095 0.85475 0.50267 0.0
C450 C 0.15188 0.80564 0.5705 0.0
C451 C 0.17476 0.82867 0.51387 0.0
C452 C 0.13911 0.78801 0.57498 0.0
C453 C 0.13317 0.77687 0.52901 0.0
C454 C 0.15865 0.8122 0.51971 0.0
C455 C 0.13932 0.78462 0.47882 0.0
C456 C 0.17984 0.83685 0.46333 0.0
C457 C 0.20319 0.84722 0.55297 0.0
N458 N 0.15188 0.8017 0.47553 0.0
N459 N 0.18637 0.83438 0.55714 0.0
H460 H 0.21749 0.13869 0.43891 0.0
H461 H 0.13032 0.2167 0.54495 0.0
H462 H 0.19893 0.14324 0.60472 0.0
H463 H 0.14662 0.21012 0.37804 0.0
H464 H 0.1518 0.18634 0.5658 0.0
H465 H 0.18826 0.16108 0.41422 0.0
C466 C 0.20711 0.14419 0.47011 0.0
C467 C 0.21086 0.13936 0.52411 0.0
C468 C 0.15051 0.19136 0.52451 0.0
C469 C 0.17744 0.16516 0.49607 0.0
C470 C 0.13825 0.20873 0.51255 0.0
C471 C 0.13694 0.21616 0.45975 0.0
C472 C 0.16173 0.18144 0.48348 0.0
C473 C 0.14734 0.20504 0.41936 0.0
C474 C 0.19041 0.15698 0.45594 0.0
C475 C 0.19676 0.14673 0.56267 0.0
N476 N 0.15954 0.1884 0.43218 0.0
N477 N 0.18083 0.1595 0.54797 0.0
H478 H 0.85397 0.21356 0.46576 0.0
H479 H 0.76915 0.13128 0.56558 0.0
H480 H 0.84164 0.20014 0.63228 0.0
H481 H 0.78138 0.14462 0.39897 0.0
H482 H 0.79948 0.15221 0.59025 0.0
H483 H 0.83156 0.18431 0.4404 0.0
C484 C 0.84677 0.20429 0.49707 0.0
C485 C 0.84941 0.20953 0.55126 0.0
C486 C 0.7957 0.15038 0.54824 0.0
C487 C 0.82357 0.1761 0.52239 0.0
C488 C 0.77836 0.13842 0.53408 0.0
C489 C 0.77251 0.13648 0.48012 0.0
C490 C 0.80722 0.16062 0.50822 0.0
C491 C 0.78518 0.14587 0.44108 0.0
C492 C 0.83395 0.18758 0.48251 0.0
C493 C 0.83988 0.19681 0.59002 0.0
N494 N 0.80179 0.15777 0.45596 0.0
N495 N 0.82715 0.18086 0.57479 0.0
H496 H 0.17974 0.30028 0.36904 0.0
H497 H 0.14628 0.34694 0.08399 0.0
H498 H 0.11582 0.30617 0.31685 0.0
H499 H 0.21013 0.34295 0.13789 0.0
H500 H 0.13488 0.33163 0.16869 0.0
H501 H 0.19123 0.31549 0.28422 0.0
C502 C 0.16811 0.30477 0.33977 0.0
C503 C 0.14678 0.30196 0.35012 0.0
C504 C 0.15138 0.3341 0.16202 0.0
C505 C 0.15983 0.31937 0.25287 0.0
C506 C 0.15791 0.34285 0.11362 0.0
C507 C 0.1792 0.34626 0.10381 0.0
C508 C 0.16624 0.32868 0.20095 0.0
C509 C 0.19356 0.34063 0.14372 0.0
C510 C 0.17469 0.31347 0.29133 0.0
C511 C 0.13243 0.30806 0.31065 0.0
N512 N 0.18681 0.33212 0.19052 0.0
N513 N 0.13922 0.31647 0.2638 0.0
H514 H 0.6495 0.10126 0.34024 0.0
H515 H 0.65591 0.19411 0.1257 0.0
H516 H 0.69814 0.1481 0.33933 0.0
H517 H 0.61195 0.14299 0.11516 0.0
H518 H 0.67134 0.17771 0.20465 0.0
H519 H 0.63529 0.1165 0.25828 0.0
C520 C 0.65724 0.11471 0.32275 0.0
C521 C 0.67501 0.12345 0.3468 0.0
C522 C 0.65836 0.17004 0.18497 0.0
C523 C 0.65877 0.14102 0.25304 0.0
C524 C 0.64952 0.17942 0.13991 0.0
C525 C 0.63258 0.16993 0.11381 0.0
C526 C 0.65015 0.15109 0.20432 0.0
C527 C 0.62498 0.15087 0.134 0.0
C528 C 0.64912 0.1234 0.2759 0.0
C529 C 0.6844 0.14085 0.32223 0.0
N530 N 0.63377 0.14213 0.17815 0.0
N531 N 0.67611 0.14912 0.27685 0.0
H532 H 0.86911 0.66778 0.32436 0.0
H533 H 0.77343 0.64277 0.12867 0.0
H534 H 0.80546 0.68541 0.35801 0.0
H535 H 0.83652 0.62221 0.09926 0.0
H536 H 0.78484 0.6583 0.21305 0.0
H537 H 0.85744 0.65085 0.242 0.0
C538 C 0.85266 0.66807 0.31449 0.0
C539 C 0.83824 0.67807 0.34812 0.0
C540 C 0.79619 0.65035 0.18822 0.0
C541 C 0.82477 0.65872 0.25373 0.0
C542 C 0.78969 0.64148 0.13998 0.0
C543 C 0.80406 0.6312 0.10674 0.0
C544 C 0.81723 0.64901 0.20337 0.0
C545 C 0.8249 0.62999 0.12356 0.0
C546 C 0.84601 0.65838 0.26744 0.0
C547 C 0.81713 0.6779 0.33329 0.0
N548 N 0.83087 0.63884 0.17064 0.0
N549 N 0.81104 0.66843 0.28713 0.0
H550 H 0.3399 0.86461 0.39431 0.0
H551 H 0.3026 0.80208 0.13309 0.0
H552 H 0.27594 0.84718 0.36331 0.0
H553 H 0.36719 0.81475 0.17001 0.0
H554 H 0.29243 0.82001 0.21539 0.0
H555 H 0.35012 0.8479 0.3102 0.0
C556 C 0.328 0.85733 0.36979 0.0
C557 C 0.30705 0.85725 0.38595 0.0
C558 C 0.30883 0.81888 0.20549 0.0
C559 C 0.31861 0.83811 0.2897 0.0
C560 C 0.31465 0.80866 0.15845 0.0
C561 C 0.33578 0.80687 0.14467 0.0
C562 C 0.32425 0.82744 0.23899 0.0
C563 C 0.35071 0.81571 0.17909 0.0
C564 C 0.33384 0.84776 0.32181 0.0
C565 C 0.29229 0.84757 0.35255 0.0
N566 N 0.34465 0.82561 0.22466 0.0
N567 N 0.29836 0.83838 0.30607 0.0
H568 H 0.13431 0.70876 0.66639 0.0
H569 H 0.16619 0.61233 0.8539 0.0
H570 H 0.12791 0.64407 0.61872 0.0
H571 H 0.17649 0.67718 0.8952 0.0
H572 H 0.14951 0.62353 0.77066 0.0
H573 H 0.14734 0.69731 0.75326 0.0
C574 C 0.13559 0.69213 0.67421 0.0
C575 C 0.1301 0.67734 0.63506 0.0
C576 C 0.15533 0.6353 0.79808 0.0
C577 C 0.14504 0.66412 0.73468 0.0
C578 C 0.16482 0.62893 0.84568 0.0
C579 C 0.17287 0.64385 0.88144 0.0
C580 C 0.15387 0.65674 0.7862 0.0
C581 C 0.17062 0.66512 0.86871 0.0
C582 C 0.14304 0.6856 0.7239 0.0
C583 C 0.13203 0.65601 0.64762 0.0
N584 N 0.16141 0.67092 0.82207 0.0
N585 N 0.13941 0.65004 0.69631 0.0
H586 H 0.3389 0.12302 0.65946 0.0
H587 H 0.30688 0.19333 0.91205 0.0
H588 H 0.27695 0.1476 0.68414 0.0
H589 H 0.36921 0.17032 0.88379 0.0
H590 H 0.29522 0.17552 0.8307 0.0
H591 H 0.34988 0.13907 0.74359 0.0
C592 C 0.32758 0.13175 0.68261 0.0
C593 C 0.30698 0.13402 0.6646 0.0
C594 C 0.31143 0.17433 0.84238 0.0
C595 C 0.31947 0.15248 0.76105 0.0
C596 C 0.3181 0.18448 0.88887 0.0
C597 C 0.33907 0.18337 0.90471 0.0
C598 C 0.32582 0.16297 0.81152 0.0
C599 C 0.3529 0.17167 0.87307 0.0
C600 C 0.33387 0.14093 0.73069 0.0
C601 C 0.293 0.14548 0.6964 0.0
N602 N 0.34604 0.16197 0.82798 0.0
N603 N 0.29951 0.15432 0.74301 0.0
H604 H 0.7985 0.304 0.93539 0.0
H605 H 0.85354 0.34037 0.66282 0.0
H606 H 0.81046 0.36861 0.89457 0.0
H607 H 0.84593 0.27563 0.70877 0.0
H608 H 0.83758 0.35099 0.74733 0.0
H609 H 0.81558 0.29326 0.85233 0.0
C610 C 0.80474 0.31594 0.90903 0.0
C611 C 0.80303 0.33725 0.92199 0.0
C612 C 0.83944 0.33446 0.73901 0.0
C613 C 0.82257 0.32505 0.82674 0.0
C614 C 0.84856 0.32838 0.69071 0.0
C615 C 0.85107 0.30708 0.67864 0.0
C616 C 0.83271 0.31913 0.77551 0.0
C617 C 0.84432 0.29224 0.71638 0.0
C618 C 0.81451 0.30979 0.86161 0.0
C619 C 0.81143 0.35201 0.88628 0.0
N620 N 0.8354 0.29855 0.76304 0.0
N621 N 0.82078 0.34563 0.84027 0.0
H622 H 0.61197 0.81453 0.81883 0.0
H623 H 0.70842 0.84446 0.63005 0.0
H624 H 0.6762 0.80189 0.85921 0.0
H625 H 0.64446 0.85965 0.59276 0.0
H626 H 0.69693 0.82921 0.71468 0.0
H627 H 0.62357 0.83145 0.73631 0.0
C628 C 0.62852 0.81533 0.81041 0.0
C629 C 0.64314 0.80673 0.84598 0.0
C630 C 0.6854 0.83593 0.68809 0.0
C631 C 0.65653 0.82608 0.75145 0.0
C632 C 0.69195 0.84464 0.63969 0.0
C633 C 0.67737 0.85331 0.60414 0.0
C634 C 0.66409 0.83579 0.70107 0.0
C635 C 0.65625 0.85313 0.61889 0.0
C636 C 0.63514 0.82502 0.76327 0.0
C637 C 0.66438 0.80829 0.83297 0.0
N638 N 0.65024 0.84445 0.66616 0.0
N639 N 0.67043 0.81772 0.78671 0.0
H640 H 0.85007 0.65991 0.59786 0.0
H641 H 0.81335 0.68051 0.89901 0.0
H642 H 0.86393 0.71667 0.68488 0.0
H643 H 0.80653 0.62104 0.8186 0.0
H644 H 0.83256 0.69384 0.82167 0.0
H645 H 0.83465 0.64515 0.67897 0.0
C646 C 0.84996 0.66924 0.63408 0.0
C647 C 0.8582 0.6896 0.63452 0.0
C648 C 0.82697 0.67783 0.82108 0.0
C649 C 0.84049 0.67283 0.72745 0.0
C650 C 0.81598 0.67021 0.86523 0.0
C651 C 0.80821 0.64967 0.86515 0.0
C652 C 0.8301 0.66485 0.7764 0.0
C653 C 0.81217 0.63701 0.82034 0.0
C654 C 0.84117 0.66079 0.68042 0.0
C655 C 0.85771 0.70093 0.68266 0.0
N656 N 0.82272 0.64485 0.77763 0.0
N657 N 0.84887 0.69244 0.72711 0.0
H658 H 0.32075 0.81236 0.58897 0.0
H659 H 0.34321 0.8247 0.90153 0.0
H660 H 0.30241 0.86662 0.6806 0.0
H661 H 0.37302 0.77803 0.80273 0.0
H662 H 0.32766 0.84002 0.82131 0.0
H663 H 0.33949 0.79912 0.66714 0.0
C664 C 0.32072 0.82152 0.62545 0.0
C665 C 0.30993 0.84058 0.62832 0.0
C666 C 0.33772 0.82651 0.81714 0.0
C667 C 0.33126 0.82548 0.71797 0.0
C668 C 0.34658 0.81774 0.86293 0.0
C669 C 0.35937 0.80001 0.85883 0.0
C670 C 0.34149 0.81737 0.76693 0.0
C671 C 0.36325 0.7917 0.80777 0.0
C672 C 0.33147 0.81398 0.67002 0.0
C673 C 0.3105 0.85184 0.67659 0.0
N674 N 0.35421 0.80035 0.76384 0.0
N675 N 0.32086 0.84404 0.71962 0.0
H676 H 0.13865 0.32371 0.59739 0.0
H677 H 0.18039 0.30207 0.89346 0.0
H678 H 0.1244 0.26767 0.68707 0.0
H679 H 0.18239 0.36312 0.81934 0.0
H680 H 0.16111 0.28878 0.8163 0.0
H681 H 0.15593 0.33815 0.67664 0.0
C682 C 0.13908 0.31448 0.63377 0.0
C683 C 0.13011 0.29443 0.63559 0.0
C684 C 0.16568 0.30511 0.81699 0.0
C685 C 0.14995 0.31079 0.72613 0.0
C686 C 0.17674 0.3127 0.86099 0.0
C687 C 0.18304 0.33372 0.86279 0.0
C688 C 0.16104 0.31859 0.7742 0.0
C689 C 0.17782 0.34679 0.81962 0.0
C690 C 0.14891 0.32275 0.67899 0.0
C691 C 0.1311 0.28319 0.68381 0.0
N692 N 0.16722 0.33898 0.77691 0.0
N693 N 0.14095 0.29147 0.72704 0.0
H694 H 0.62578 0.17042 0.84621 0.0
H695 H 0.70008 0.18427 0.59115 0.0
H696 H 0.66949 0.22136 0.82673 0.0
H697 H 0.66705 0.12692 0.62632 0.0
H698 H 0.68549 0.19986 0.67206 0.0
H699 H 0.63755 0.15584 0.76072 0.0
C700 C 0.63781 0.17855 0.82394 0.0
C701 C 0.64675 0.19707 0.84375 0.0
C702 C 0.68138 0.18388 0.66199 0.0
C703 C 0.66015 0.18058 0.74597 0.0
C704 C 0.68964 0.17499 0.61567 0.0
C705 C 0.68488 0.15421 0.60213 0.0
C706 C 0.66817 0.17196 0.69494 0.0
C707 C 0.67122 0.14296 0.63542 0.0
C708 C 0.64453 0.17022 0.77522 0.0
C709 C 0.66225 0.20698 0.81319 0.0
N710 N 0.66338 0.15197 0.68041 0.0
N711 N 0.66845 0.19861 0.76583 0.0
H712 H 0.80353 0.28071 0.43657 0.0
H713 H 0.81836 0.35895 0.18905 0.0
H714 H 0.86026 0.31557 0.40858 0.0
H715 H 0.76727 0.3152 0.204 0.0
H716 H 0.83282 0.34559 0.27312 0.0
H717 H 0.78867 0.29589 0.35556 0.0
C718 C 0.81283 0.29166 0.41358 0.0
C719 C 0.83321 0.29681 0.42927 0.0
C720 C 0.81845 0.33894 0.25791 0.0
C721 C 0.81628 0.31421 0.33624 0.0
C722 C 0.81019 0.34655 0.20998 0.0
C723 C 0.7916 0.33814 0.18941 0.0
C724 C 0.80797 0.32292 0.28559 0.0
C725 C 0.78167 0.32211 0.21821 0.0
C726 C 0.80436 0.30027 0.36716 0.0
C727 C 0.84451 0.3111 0.39784 0.0
N728 N 0.78996 0.31506 0.26483 0.0
N729 N 0.8359 0.31929 0.35272 0.0
H730 H 0.63417 0.82361 0.09402 0.0
H731 H 0.66837 0.80365 0.39738 0.0
H732 H 0.61763 0.76799 0.18281 0.0
H733 H 0.67682 0.86266 0.31573 0.0
H734 H 0.64944 0.79037 0.31953 0.0
H735 H 0.64968 0.83828 0.17511 0.0
C736 C 0.63373 0.81451 0.13061 0.0
C737 C 0.62467 0.7945 0.13158 0.0
C738 C 0.65533 0.80627 0.31878 0.0
C739 C 0.64247 0.81117 0.2245 0.0
C740 C 0.66616 0.81386 0.36321 0.0
C741 C 0.67429 0.83426 0.36296 0.0
C742 C 0.65274 0.81913 0.27363 0.0
C743 C 0.67087 0.84681 0.31765 0.0
C744 C 0.64256 0.82291 0.17694 0.0
C745 C 0.62448 0.78346 0.18018 0.0
N746 N 0.66048 0.83899 0.27468 0.0
N747 N 0.63337 0.79189 0.22463 0.0
H748 H 0.1818 0.70873 0.38253 0.0
H749 H 0.168 0.62351 0.15017 0.0
H750 H 0.12696 0.6699 0.36646 0.0
H751 H 0.21526 0.67174 0.14903 0.0
H752 H 0.15462 0.63765 0.23459 0.0
H753 H 0.19629 0.69248 0.3023 0.0
C754 C 0.17284 0.6967 0.36232 0.0
C755 C 0.15309 0.69074 0.38109 0.0
C756 C 0.16793 0.6451 0.21582 0.0
C757 C 0.1696 0.67208 0.28914 0.0
C758 C 0.1756 0.63702 0.16772 0.0
C759 C 0.19272 0.64652 0.14241 0.0
C760 C 0.17757 0.66268 0.23893 0.0
C761 C 0.20195 0.66398 0.16695 0.0
C762 C 0.18111 0.68748 0.31639 0.0
C763 C 0.14221 0.67505 0.35323 0.0
N764 N 0.19428 0.67148 0.21383 0.0
N765 N 0.15061 0.66627 0.30859 0.0
H766 H 0.31912 0.12776 0.39062 0.0
H767 H 0.32254 0.22436 0.18759 0.0
H768 H 0.28747 0.18642 0.41791 0.0
H769 H 0.3621 0.17009 0.17115 0.0
H770 H 0.30926 0.21027 0.27163 0.0
H771 H 0.33506 0.14266 0.31011 0.0
C772 C 0.31563 0.1438 0.37991 0.0
C773 C 0.30187 0.15583 0.41092 0.0
C774 C 0.32089 0.20146 0.2498 0.0
C775 C 0.3199 0.1729 0.31874 0.0
C776 C 0.32845 0.20946 0.20165 0.0
C777 C 0.34342 0.19836 0.17219 0.0
C778 C 0.32823 0.1821 0.2686 0.0
C779 C 0.35055 0.17917 0.19257 0.0
C780 C 0.32473 0.1523 0.33395 0.0
C781 C 0.29794 0.17654 0.39519 0.0
N782 N 0.34281 0.17159 0.23945 0.0
N783 N 0.3068 0.18436 0.35004 0.0
loop_
_geom_bond_atom_site_label_1
_geom_bond_atom_site_label_2
_geom_bond_distance
_geom_bond_site_symmetry_2
_ccdc_geom_bond_type
C0 O1 1.160 . S
C0 O7 1.185 1_554 S
O1 C0 1.160 . S
O2 Zn3 1.899 . S
O2 C10 1.284 . S
Zn3 O2 1.899 . S
Zn3 O4 2.032 1_554 S
Zn3 O7 2.086 1_554 S
Zn3 O12 1.977 1_554 S
O4 Zn3 2.032 1_556 S
O4 C8 1.278 . S
C5 O6 1.203 . S
C5 O12 1.267 1_554 S
O6 C5 1.203 . S
O7 C0 1.185 1_556 S
O7 Zn3 2.086 1_556 S
C8 O4 1.278 . S
C8 O9 1.211 . S
O9 C8 1.211 . S
C10 O2 1.284 . S
C10 O11 1.273 . S
O11 C10 1.273 . S
O12 Zn3 1.977 1_556 S
O12 C5 1.267 1_556 S
C13 O14 1.160 . S
C13 O20 1.185 1_554 S
O14 C13 1.160 . S
O15 Zn16 1.899 . S
O15 C23 1.284 . S
Zn16 O15 1.899 . S
Zn16 O17 2.032 1_554 S
Zn16 O20 2.086 1_554 S
Zn16 O25 1.977 1_554 S
O17 Zn16 2.032 1_556 S
O17 C21 1.278 . S
C18 O19 1.203 . S
C18 O25 1.267 1_554 S
O19 C18 1.203 . S
O20 C13 1.185 1_556 S
O20 Zn16 2.086 1_556 S
C21 O17 1.278 . S
C21 O22 1.211 . S
O22 C21 1.211 . S
C23 O15 1.284 . S
C23 O24 1.273 . S
O24 C23 1.273 . S
O25 Zn16 1.977 1_556 S
O25 C18 1.267 1_556 S
C26 O27 1.160 . S
C26 O33 1.185 1_554 S
O27 C26 1.160 . S
O28 Zn29 1.899 . S
O28 C36 1.284 . S
Zn29 O28 1.899 . S
Zn29 O30 2.032 1_554 S
Zn29 O33 2.086 1_554 S
Zn29 O38 1.977 1_554 S
O30 Zn29 2.032 1_556 S
O30 C34 1.278 . S
C31 O32 1.203 . S
C31 O38 1.267 1_554 S
O32 C31 1.203 . S
O33 C26 1.185 1_556 S
O33 Zn29 2.086 1_556 S
C34 O30 1.278 . S
C34 O35 1.211 . S
O35 C34 1.211 . S
C36 O28 1.284 . S
C36 O37 1.273 . S
O37 C36 1.273 . S
O38 Zn29 1.977 1_556 S
O38 C31 1.267 1_556 S
C39 O40 1.160 . S
C39 O46 1.185 1_554 S
O40 C39 1.160 . S
O41 Zn42 1.899 . S
O41 C49 1.284 . S
Zn42 O41 1.899 . S
Zn42 O43 2.032 1_554 S
Zn42 O46 2.086 1_554 S
Zn42 O51 1.977 1_554 S
O43 Zn42 2.032 1_556 S
O43 C47 1.278 . S
C44 O45 1.203 . S
C44 O51 1.267 1_554 S
O45 C44 1.203 . S
O46 C39 1.185 1_556 S
O46 Zn42 2.086 1_556 S
C47 O43 1.278 . S
C47 O48 1.211 . S
O48 C47 1.211 . S
C49 O41 1.284 . S
C49 O50 1.273 . S
O50 C49 1.273 . S
O51 Zn42 1.977 1_556 S
O51 C44 1.267 1_556 S
C52 O53 1.160 . S
C52 O59 1.185 1_556 S
O53 C52 1.160 . S
O54 Zn55 1.899 . S
O54 C62 1.284 . S
Zn55 O54 1.899 . S
Zn55 O56 2.032 1_556 S
Zn55 O59 2.086 1_556 S
Zn55 O64 1.977 1_556 S
O56 Zn55 2.032 1_554 S
O56 C60 1.278 . S
C57 O58 1.203 . S
C57 O64 1.267 1_556 S
O58 C57 1.203 . S
O59 C52 1.185 1_554 S
O59 Zn55 2.086 1_554 S
C60 O56 1.278 . S
C60 O61 1.211 . S
O61 C60 1.211 . S
C62 O54 1.284 . S
C62 O63 1.273 . S
O63 C62 1.273 . S
O64 Zn55 1.977 1_554 S
O64 C57 1.267 1_554 S
C65 O66 1.160 . S
C65 O72 1.185 1_556 S
O66 C65 1.160 . S
O67 Zn68 1.899 . S
O67 C75 1.284 . S
Zn68 O67 1.899 . S
Zn68 O69 2.032 1_556 S
Zn68 O72 2.086 1_556 S
Zn68 O77 1.977 1_556 S
O69 Zn68 2.032 1_554 S
O69 C73 1.278 . S
C70 O71 1.203 . S
C70 O77 1.267 1_556 S
O71 C70 1.203 . S
O72 C65 1.185 1_554 S
O72 Zn68 2.086 1_554 S
C73 O69 1.278 . S
C73 O74 1.211 . S
O74 C73 1.211 . S
C75 O67 1.284 . S
C75 O76 1.273 . S
O76 C75 1.273 . S
O77 Zn68 1.977 1_554 S
O77 C70 1.267 1_554 S
C78 O79 1.160 . S
C78 O85 1.185 1_556 S
O79 C78 1.160 . S
O80 Zn81 1.899 . S
O80 C88 1.284 . S
Zn81 O80 1.899 . S
Zn81 O82 2.032 1_556 S
Zn81 O85 2.086 1_556 S
Zn81 O90 1.977 1_556 S
O82 Zn81 2.032 1_554 S
O82 C86 1.278 . S
C83 O84 1.203 . S
C83 O90 1.267 1_556 S
O84 C83 1.203 . S
O85 C78 1.185 1_554 S
O85 Zn81 2.086 1_554 S
C86 O82 1.278 . S
C86 O87 1.211 . S
O87 C86 1.211 . S
C88 O80 1.284 . S
C88 O89 1.273 . S
O89 C88 1.273 . S
O90 Zn81 1.977 1_554 S
O90 C83 1.267 1_554 S
C91 O92 1.160 . S
C91 O98 1.185 1_556 S
O92 C91 1.160 . S
O93 Zn94 1.899 . S
O93 C101 1.284 . S
Zn94 O93 1.899 . S
Zn94 O95 2.032 1_556 S
Zn94 O98 2.086 1_556 S
Zn94 O103 1.977 1_556 S
O95 Zn94 2.032 1_554 S
O95 C99 1.278 . S
C96 O97 1.203 . S
C96 O103 1.267 1_556 S
O97 C96 1.203 . S
O98 C91 1.185 1_554 S
O98 Zn94 2.086 1_554 S
C99 O95 1.278 . S
C99 O100 1.211 . S
O100 C99 1.211 . S
C101 O93 1.284 . S
C101 O102 1.273 . S
O102 C101 1.273 . S
O103 Zn94 1.977 1_554 S
O103 C96 1.267 1_554 S
C104 O105 1.160 . S
C104 O111 1.185 . S
O105 C104 1.160 . S
O106 Zn107 1.899 . S
O106 C114 1.284 . S
Zn107 O106 1.899 . S
Zn107 O108 2.032 . S
Zn107 O111 2.086 . S
Zn107 O116 1.977 . S
O108 Zn107 2.032 . S
O108 C112 1.278 . S
C109 O110 1.203 . S
C109 O116 1.267 . S
O110 C109 1.203 . S
O111 C104 1.185 . S
O111 Zn107 2.086 . S
C112 O108 1.278 . S
C112 O113 1.211 . S
O113 C112 1.211 . S
C114 O106 1.284 . S
C114 O115 1.273 . S
O115 C114 1.273 . S
O116 Zn107 1.977 . S
O116 C109 1.267 . S
C117 O118 1.160 . S
C117 O124 1.185 . S
O118 C117 1.160 . S
O119 Zn120 1.899 . S
O119 C127 1.284 . S
Zn120 O119 1.899 . S
Zn120 O121 2.032 . S
Zn120 O124 2.086 . S
Zn120 O129 1.977 . S
O121 Zn120 2.032 . S
O121 C125 1.278 . S
C122 O123 1.203 . S
C122 O129 1.267 . S
O123 C122 1.203 . S
O124 C117 1.185 . S
O124 Zn120 2.086 . S
C125 O121 1.278 . S
C125 O126 1.211 . S
O126 C125 1.211 . S
C127 O119 1.284 . S
C127 O128 1.273 . S
O128 C127 1.273 . S
O129 Zn120 1.977 . S
O129 C122 1.267 . S
C130 O131 1.160 . S
C130 O137 1.185 . S
O131 C130 1.160 . S
O132 Zn133 1.899 . S
O132 C140 1.284 . S
Zn133 O132 1.899 . S
Zn133 O134 2.032 . S
Zn133 O137 2.086 . S
Zn133 O142 1.977 . S
O134 Zn133 2.032 . S
O134 C138 1.278 . S
C135 O136 1.203 . S
C135 O142 1.267 . S
O136 C135 1.203 . S
O137 C130 1.185 . S
O137 Zn133 2.086 . S
C138 O134 1.278 . S
C138 O139 1.211 . S
O139 C138 1.211 . S
C140 O132 1.284 . S
C140 O141 1.273 . S
O141 C140 1.273 . S
O142 Zn133 1.977 . S
O142 C135 1.267 . S
C143 O144 1.160 . S
C143 O150 1.185 . S
O144 C143 1.160 . S
O145 Zn146 1.899 . S
O145 C153 1.284 . S
Zn146 O145 1.899 . S
Zn146 O147 2.032 . S
Zn146 O150 2.086 . S
Zn146 O155 1.977 . S
O147 Zn146 2.032 . S
O147 C151 1.278 . S
C148 O149 1.203 . S
C148 O155 1.267 . S
O149 C148 1.203 . S
O150 C143 1.185 . S
O150 Zn146 2.086 . S
C151 O147 1.278 . S
C151 O152 1.211 . S
O152 C151 1.211 . S
C153 O145 1.284 . S
C153 O154 1.273 . S
O154 C153 1.273 . S
O155 Zn146 1.977 . S
O155 C148 1.267 . S
C156 O157 1.160 . S
C156 O163 1.185 . S
O157 C156 1.160 . S
O158 Zn159 1.899 . S
O158 C166 1.284 . S
Zn159 O158 1.899 . S
Zn159 O160 2.032 . S
Zn159 O163 2.086 . S
Zn159 O168 1.977 . S
O160 Zn159 2.032 . S
O160 C164 1.278 . S
C161 O162 1.203 . S
C161 O168 1.267 . S
O162 C161 1.203 . S
O163 C156 1.185 . S
O163 Zn159 2.086 . S
C164 O160 1.278 . S
C164 O165 1.211 . S
O165 C164 1.211 . S
C166 O158 1.284 . S
C166 O167 1.273 . S
O167 C166 1.273 . S
O168 Zn159 1.977 . S
O168 C161 1.267 . S
C169 O170 1.160 . S
C169 O176 1.185 . S
O170 C169 1.160 . S
O171 Zn172 1.899 . S
O171 C179 1.284 . S
Zn172 O171 1.899 . S
Zn172 O173 2.032 . S
Zn172 O176 2.086 . S
Zn172 O181 1.977 . S
O173 Zn172 2.032 . S
O173 C177 1.278 . S
C174 O175 1.203 . S
C174 O181 1.267 . S
O175 C174 1.203 . S
O176 C169 1.185 . S
O176 Zn172 2.086 . S
C177 O173 1.278 . S
C177 O178 1.211 . S
O178 C177 1.211 . S
C179 O171 1.284 . S
C179 O180 1.273 . S
O180 C179 1.273 . S
O181 Zn172 1.977 . S
O181 C174 1.267 . S
C182 O183 1.160 . S
C182 O189 1.185 . S
O183 C182 1.160 . S
O184 Zn185 1.899 . S
O184 C192 1.284 . S
Zn185 O184 1.899 . S
Zn185 O186 2.032 . S
Zn185 O189 2.086 . S
Zn185 O194 1.977 . S
O186 Zn185 2.032 . S
O186 C190 1.278 . S
C187 O188 1.203 . S
C187 O194 1.267 . S
O188 C187 1.203 . S
O189 C182 1.185 . S
O189 Zn185 2.086 . S
C190 O186 1.278 . S
C190 O191 1.211 . S
O191 C190 1.211 . S
C192 O184 1.284 . S
C192 O193 1.273 . S
O193 C192 1.273 . S
O194 Zn185 1.977 . S
O194 C187 1.267 . S
C195 O196 1.160 . S
C195 O202 1.185 . S
O196 C195 1.160 . S
O197 Zn198 1.899 . S
O197 C205 1.284 . S
Zn198 O197 1.899 . S
Zn198 O199 2.032 . S
Zn198 O202 2.086 . S
Zn198 O207 1.977 . S
O199 Zn198 2.032 . S
O199 C203 1.278 . S
C200 O201 1.203 . S
C200 O207 1.267 . S
O201 C200 1.203 . S
O202 C195 1.185 . S
O202 Zn198 2.086 . S
C203 O199 1.278 . S
C203 O204 1.211 . S
O204 C203 1.211 . S
C205 O197 1.284 . S
C205 O206 1.273 . S
O206 C205 1.273 . S
O207 Zn198 1.977 . S
O207 C200 1.267 . S
H208 C214 0.930 . S
H209 C218 0.930 . S
H210 C223 0.929 . S
H211 C221 0.929 . S
H212 C216 0.929 . S
H213 C222 0.929 . S
C214 H208 0.930 . S
C214 C215 1.367 . S
C214 C222 1.378 . S
C215 C214 1.367 . S
C215 C223 1.433 1_554 S
C216 H212 0.929 . S
C216 C218 1.378 . S
C216 C220 1.352 . S
C217 C220 1.462 1_554 S
C217 C222 1.350 . S
C217 N225 1.427 1_554 S
C218 H209 0.930 . S
C218 C216 1.378 . S
C218 C219 1.367 . S
C219 C218 1.367 . S
C219 C221 1.433 1_556 S
C220 C216 1.352 . S
C220 C217 1.462 1_556 S
C220 N224 1.425 1_556 S
C221 H211 0.929 . S
C221 C219 1.433 1_554 S
C221 N224 1.384 . S
C222 H213 0.929 . S
C222 C214 1.378 . S
C222 C217 1.350 . S
C223 H210 0.929 . S
C223 C215 1.433 1_556 S
C223 N225 1.384 . S
N224 C220 1.425 1_554 S
N224 C221 1.384 . S
N225 C217 1.427 1_556 S
N225 C223 1.384 . S
H226 C232 0.930 . S
H227 C236 0.930 . S
H228 C241 0.929 . S
H229 C239 0.929 . S
H230 C234 0.929 . S
H231 C240 0.929 . S
C232 H226 0.930 . S
C232 C233 1.367 1_556 S
C232 C240 1.378 . S
C233 C232 1.367 1_554 S
C233 C241 1.433 . S
C234 H230 0.929 . S
C234 C236 1.378 . S
C234 C238 1.350 . S
C235 C238 1.463 . S
C235 C240 1.350 1_554 S
C235 N243 1.427 . S
C236 H227 0.930 . S
C236 C234 1.378 . S
C236 C237 1.367 1_554 S
C237 C236 1.367 1_556 S
C237 C239 1.433 . S
C238 C234 1.350 . S
C238 C235 1.463 . S
C238 N242 1.427 1_554 S
C239 H229 0.929 . S
C239 C237 1.433 . S
C239 N242 1.384 . S
C240 H231 0.929 . S
C240 C232 1.378 . S
C240 C235 1.350 1_556 S
C241 H228 0.929 . S
C241 C233 1.433 . S
C241 N243 1.384 . S
N242 C238 1.427 1_556 S
N242 C239 1.384 . S
N243 C235 1.427 . S
N243 C241 1.384 . S
H244 C250 0.930 . S
H245 C254 0.930 . S
H246 C259 0.929 . S
H247 C257 0.929 . S
H248 C252 0.929 . S
H249 C258 0.929 . S
C250 H244 0.930 . S
C250 C251 1.367 . S
C250 C258 1.378 . S
C251 C250 1.367 . S
C251 C259 1.433 1_554 S
C252 H248 0.929 . S
C252 C254 1.378 . S
C252 C256 1.358 . S
C253 C256 1.462 1_554 S
C253 C258 1.350 . S
C253 N261 1.427 1_554 S
C254 H245 0.930 . S
C254 C252 1.378 . S
C254 C255 1.367 . S
C255 C254 1.367 . S
C255 C257 1.433 1_556 S
C256 C252 1.358 . S
C256 C253 1.462 1_556 S
C256 N260 1.419 1_556 S
C257 H247 0.929 . S
C257 C255 1.433 1_554 S
C257 N260 1.384 . S
C258 H249 0.929 . S
C258 C250 1.378 . S
C258 C253 1.350 . S
C259 H246 0.929 . S
C259 C251 1.433 1_556 S
C259 N261 1.384 . S
N260 C256 1.419 1_554 S
N260 C257 1.384 . S
N261 C253 1.427 1_556 S
N261 C259 1.384 . S
H262 C268 0.930 . S
H263 C272 0.930 . S
H264 C277 0.929 . S
H265 C275 0.929 . S
H266 C270 0.929 . S
H267 C276 0.929 . S
C268 H262 0.930 . S
C268 C269 1.367 1_556 S
C268 C276 1.378 . S
C269 C268 1.367 1_554 S
C269 C277 1.433 . S
C270 H266 0.929 . S
C270 C272 1.378 . S
C270 C274 1.350 . S
C271 C274 1.463 . S
C271 C276 1.350 1_554 S
C271 N279 1.427 . S
C272 H263 0.930 . S
C272 C270 1.378 . S
C272 C273 1.367 1_554 S
C273 C272 1.367 1_556 S
C273 C275 1.433 . S
C274 C270 1.350 . S
C274 C271 1.463 . S
C274 N278 1.427 1_554 S
C275 H265 0.929 . S
C275 C273 1.433 . S
C275 N278 1.384 . S
C276 H267 0.929 . S
C276 C268 1.378 . S
C276 C271 1.350 1_556 S
C277 H264 0.929 . S
C277 C269 1.433 . S
C277 N279 1.384 . S
N278 C274 1.427 1_556 S
N278 C275 1.384 . S
N279 C271 1.427 . S
N279 C277 1.384 . S
H280 C286 0.930 . S
H281 C290 0.930 . S
H282 C295 0.929 . S
H283 C293 0.929 . S
H284 C288 0.929 . S
H285 C294 0.929 . S
C286 H280 0.930 . S
C286 C287 1.367 . S
C286 C294 1.378 . S
C287 C286 1.367 . S
C287 C295 1.433 . S
C288 H284 0.929 . S
C288 C290 1.378 . S
C288 C292 1.350 . S
C289 C292 1.463 1_545 S
C289 C294 1.350 . S
C289 N297 1.427 . S
C290 H281 0.930 . S
C290 C288 1.378 . S
C290 C291 1.367 . S
C291 C290 1.367 . S
C291 C293 1.433 . S
C292 C288 1.350 . S
C292 C289 1.463 1_565 S
C292 N296 1.427 . S
C293 H283 0.929 . S
C293 C291 1.433 . S
C293 N296 1.384 . S
C294 H285 0.929 . S
C294 C286 1.378 . S
C294 C289 1.350 . S
C295 H282 0.929 . S
C295 C287 1.433 . S
C295 N297 1.384 . S
N296 C292 1.427 . S
N296 C293 1.384 . S
N297 C289 1.427 . S
N297 C295 1.384 . S
H298 C304 0.930 . S
H299 C308 0.930 . S
H300 C313 0.929 . S
H301 C311 0.929 . S
H302 C306 0.929 . S
H303 C312 0.929 . S
C304 H298 0.930 . S
C304 C305 1.367 . S
C304 C312 1.378 . S
C305 C304 1.367 . S
C305 C313 1.433 . S
C306 H302 0.929 . S
C306 C308 1.378 . S
C306 C310 1.350 . S
C307 C310 1.463 1_655 S
C307 C312 1.350 . S
C307 N315 1.427 . S
C308 H299 0.930 . S
C308 C306 1.378 . S
C308 C309 1.367 . S
C309 C308 1.367 . S
C309 C311 1.433 . S
C310 C306 1.350 . S
C310 C307 1.463 1_455 S
C310 N314 1.427 . S
C311 H301 0.929 . S
C311 C309 1.433 . S
C311 N314 1.384 . S
C312 H303 0.929 . S
C312 C304 1.378 . S
C312 C307 1.350 . S
C313 H300 0.929 . S
C313 C305 1.433 . S
C313 N315 1.384 . S
N314 C310 1.427 . S
N314 C311 1.384 . S
N315 C307 1.427 . S
N315 C313 1.384 . S
H316 C322 0.930 . S
H317 C326 0.930 . S
H318 C331 0.929 . S
H319 C329 0.929 . S
H320 C324 0.929 . S
H321 C330 0.929 . S
C322 H316 0.930 . S
C322 C323 1.367 . S
C322 C330 1.378 . S
C323 C322 1.367 . S
C323 C331 1.433 . S
C324 H320 0.929 . S
C324 C326 1.378 . S
C324 C328 1.350 . S
C325 C328 1.463 1_545 S
C325 C330 1.350 . S
C325 N333 1.427 . S
C326 H317 0.930 . S
C326 C324 1.378 . S
C326 C327 1.367 . S
C327 C326 1.367 . S
C327 C329 1.433 . S
C328 C324 1.350 . S
C328 C325 1.463 1_565 S
C328 N332 1.427 . S
C329 H319 0.929 . S
C329 C327 1.433 . S
C329 N332 1.384 . S
C330 H321 0.929 . S
C330 C322 1.378 . S
C330 C325 1.350 . S
C331 H318 0.929 . S
C331 C323 1.433 . S
C331 N333 1.384 . S
N332 C328 1.427 . S
N332 C329 1.384 . S
N333 C325 1.427 . S
N333 C331 1.384 . S
H334 C340 0.930 . S
H335 C344 0.930 . S
H336 C349 0.929 . S
H337 C347 0.929 . S
H338 C342 0.929 . S
H339 C348 0.929 . S
C340 H334 0.930 . S
C340 C341 1.367 . S
C340 C348 1.378 . S
C341 C340 1.367 . S
C341 C349 1.433 . S
C342 H338 0.929 . S
C342 C344 1.378 . S
C342 C346 1.350 . S
C343 C346 1.463 1_455 S
C343 C348 1.350 . S
C343 N351 1.427 . S
C344 H335 0.930 . S
C344 C342 1.378 . S
C344 C345 1.367 . S
C345 C344 1.367 . S
C345 C347 1.433 . S
C346 C342 1.350 . S
C346 C343 1.463 1_655 S
C346 N350 1.427 . S
C347 H337 0.929 . S
C347 C345 1.433 . S
C347 N350 1.384 . S
C348 H339 0.929 . S
C348 C340 1.378 . S
C348 C343 1.350 . S
C349 H336 0.929 . S
C349 C341 1.433 . S
C349 N351 1.384 . S
N350 C346 1.427 . S
N350 C347 1.384 . S
N351 C343 1.427 . S
N351 C349 1.384 . S
H352 C358 0.930 . S
H353 C362 0.930 . S
H354 C367 0.929 . S
H355 C365 0.929 . S
H356 C360 0.929 . S
H357 C366 0.929 . S
C358 H352 0.930 . S
C358 C359 1.367 1_556 S
C358 C366 1.378 . S
C359 C358 1.367 1_554 S
C359 C367 1.433 . S
C360 H356 0.929 . S
C360 C362 1.378 . S
C360 C364 1.350 . S
C361 C364 1.463 . S
C361 C366 1.331 1_554 S
C361 N369 1.447 . S
C362 H353 0.930 . S
C362 C360 1.378 . S
C362 C363 1.380 . S
C363 C362 1.380 . S
C363 C365 1.420 1_554 S
C364 C360 1.350 . S
C364 C361 1.463 . S
C364 N368 1.427 1_554 S
C365 H355 0.929 . S
C365 C363 1.420 1_556 S
C365 N368 1.384 . S
C366 H357 0.929 . S
C366 C358 1.378 . S
C366 C361 1.331 1_556 S
C367 H354 0.929 . S
C367 C359 1.433 . S
C367 N369 1.384 . S
N368 C364 1.427 1_556 S
N368 C365 1.384 . S
N369 C361 1.447 . S
N369 C367 1.384 . S
H370 C376 0.930 . S
H371 C380 0.930 . S
H372 C385 0.929 . S
H373 C383 0.929 . S
H374 C378 0.929 . S
H375 C384 0.929 . S
C376 H370 0.930 . S
C376 C377 1.367 . S
C376 C384 1.378 . S
C377 C376 1.367 . S
C377 C385 1.433 1_556 S
C378 H374 0.929 . S
C378 C380 1.378 . S
C378 C382 1.350 . S
C379 C382 1.462 . S
C379 C384 1.351 1_554 S
C379 N387 1.426 . S
C380 H371 0.930 . S
C380 C378 1.378 . S
C380 C381 1.367 . S
C381 C380 1.367 . S
C381 C383 1.433 1_554 S
C382 C378 1.350 . S
C382 C379 1.462 . S
C382 N386 1.427 1_554 S
C383 H373 0.929 . S
C383 C381 1.433 1_556 S
C383 N386 1.384 . S
C384 H375 0.929 . S
C384 C376 1.378 . S
C384 C379 1.351 1_556 S
C385 H372 0.929 . S
C385 C377 1.433 1_554 S
C385 N387 1.384 . S
N386 C382 1.427 1_556 S
N386 C383 1.384 . S
N387 C379 1.426 . S
N387 C385 1.384 . S
H388 C394 0.930 . S
H389 C398 0.930 . S
H390 C403 0.929 . S
H391 C401 0.929 . S
H392 C396 0.929 . S
H393 C402 0.929 . S
C394 H388 0.930 . S
C394 C395 1.367 1_556 S
C394 C402 1.378 . S
C395 C394 1.367 1_554 S
C395 C403 1.433 . S
C396 H392 0.929 . S
C396 C398 1.378 . S
C396 C400 1.350 . S
C397 C400 1.463 . S
C397 C402 1.350 1_554 S
C397 N405 1.427 . S
C398 H389 0.930 . S
C398 C396 1.378 . S
C398 C399 1.376 . S
C399 C398 1.376 . S
C399 C401 1.424 1_554 S
C400 C396 1.350 . S
C400 C397 1.463 . S
C400 N404 1.427 1_554 S
C401 H391 0.929 . S
C401 C399 1.424 1_556 S
C401 N404 1.384 . S
C402 H393 0.929 . S
C402 C394 1.378 . S
C402 C397 1.350 1_556 S
C403 H390 0.929 . S
C403 C395 1.433 . S
C403 N405 1.384 . S
N404 C400 1.427 1_556 S
N404 C401 1.384 . S
N405 C397 1.427 . S
N405 C403 1.384 . S
H406 C412 0.930 . S
H407 C416 0.930 . S
H408 C421 0.929 . S
H409 C419 0.929 . S
H410 C414 0.929 . S
H411 C420 0.929 . S
C412 H406 0.930 . S
C412 C413 1.367 . S
C412 C420 1.378 . S
C413 C412 1.367 . S
C413 C421 1.433 1_554 S
C414 H410 0.929 . S
C414 C416 1.378 . S
C414 C418 1.350 1_556 S
C415 C418 1.463 . S
C415 C420 1.350 . S
C415 N423 1.427 1_554 S
C416 H407 0.930 . S
C416 C414 1.378 . S
C416 C417 1.367 1_556 S
C417 C416 1.367 1_554 S
C417 C419 1.433 . S
C418 C414 1.350 1_554 S
C418 C415 1.463 . S
C418 N422 1.427 . S
C419 H409 0.929 . S
C419 C417 1.433 . S
C419 N422 1.384 . S
C420 H411 0.929 . S
C420 C412 1.378 . S
C420 C415 1.350 . S
C421 H408 0.929 . S
C421 C413 1.433 1_556 S
C421 N423 1.384 . S
N422 C418 1.427 . S
N422 C419 1.384 . S
N423 C415 1.427 1_556 S
N423 C421 1.384 . S
H424 C430 0.930 . S
H425 C434 0.930 . S
H426 C439 0.929 . S
H427 C437 0.929 . S
H428 C432 0.929 . S
H429 C438 0.929 . S
C430 H424 0.930 . S
C430 C431 1.367 . S
C430 C438 1.378 . S
C431 C430 1.367 . S
C431 C439 1.433 . S
C432 H428 0.929 . S
C432 C434 1.378 . S
C432 C436 1.350 . S
C433 C436 1.463 . S
C433 C438 1.350 . S
C433 N441 1.427 . S
C434 H425 0.930 . S
C434 C432 1.378 . S
C434 C435 1.367 . S
C435 C434 1.367 . S
C435 C437 1.433 . S
C436 C432 1.350 . S
C436 C433 1.463 . S
C436 N440 1.427 . S
C437 H427 0.929 . S
C437 C435 1.433 . S
C437 N440 1.384 . S
C438 H429 0.929 . S
C438 C430 1.378 . S
C438 C433 1.350 . S
C439 H426 0.929 . S
C439 C431 1.433 . S
C439 N441 1.384 . S
N440 C436 1.427 . S
N440 C437 1.384 . S
N441 C433 1.427 . S
N441 C439 1.384 . S
H442 C448 0.930 . S
H443 C452 0.930 . S
H444 C457 0.929 . S
H445 C455 0.929 . S
H446 C450 0.929 . S
H447 C456 0.929 . S
C448 H442 0.930 . S
C448 C449 1.367 . S
C448 C456 1.378 . S
C449 C448 1.367 . S
C449 C457 1.433 . S
C450 H446 0.929 . S
C450 C452 1.378 . S
C450 C454 1.350 . S
C451 C454 1.463 . S
C451 C456 1.350 . S
C451 N459 1.427 . S
C452 H443 0.930 . S
C452 C450 1.378 . S
C452 C453 1.367 . S
C453 C452 1.367 . S
C453 C455 1.433 . S
C454 C450 1.350 . S
C454 C451 1.463 . S
C454 N458 1.427 . S
C455 H445 0.929 . S
C455 C453 1.433 . S
C455 N458 1.384 . S
C456 H447 0.929 . S
C456 C448 1.378 . S
C456 C451 1.350 . S
C457 H444 0.929 . S
C457 C449 1.433 . S
C457 N459 1.384 . S
N458 C454 1.427 . S
N458 C455 1.384 . S
N459 C451 1.427 . S
N459 C457 1.384 . S
H460 C466 0.930 . S
H461 C470 0.930 . S
H462 C475 0.929 . S
H463 C473 0.929 . S
H464 C468 0.929 . S
H465 C474 0.929 . S
C466 H460 0.930 . S
C466 C467 1.367 . S
C466 C474 1.378 . S
C467 C466 1.367 . S
C467 C475 1.433 . S
C468 H464 0.929 . S
C468 C470 1.378 . S
C468 C472 1.350 . S
C469 C472 1.463 . S
C469 C474 1.350 . S
C469 N477 1.427 . S
C470 H461 0.930 . S
C470 C468 1.378 . S
C470 C471 1.367 . S
C471 C470 1.367 . S
C471 C473 1.433 . S
C472 C468 1.350 . S
C472 C469 1.463 . S
C472 N476 1.427 . S
C473 H463 0.929 . S
C473 C471 1.433 . S
C473 N476 1.384 . S
C474 H465 0.929 . S
C474 C466 1.378 . S
C474 C469 1.350 . S
C475 H462 0.929 . S
C475 C467 1.433 . S
C475 N477 1.384 . S
N476 C472 1.427 . S
N476 C473 1.384 . S
N477 C469 1.427 . S
N477 C475 1.384 . S
H478 C484 0.930 . S
H479 C488 0.930 . S
H480 C493 0.929 . S
H481 C491 0.929 . S
H482 C486 0.929 . S
H483 C492 0.929 . S
C484 H478 0.930 . S
C484 C485 1.367 . S
C484 C492 1.378 . S
C485 C484 1.367 . S
C485 C493 1.433 . S
C486 H482 0.929 . S
C486 C488 1.378 . S
C486 C490 1.350 . S
C487 C490 1.463 . S
C487 C492 1.350 . S
C487 N495 1.427 . S
C488 H479 0.930 . S
C488 C486 1.378 . S
C488 C489 1.367 . S
C489 C488 1.367 . S
C489 C491 1.433 . S
C490 C486 1.350 . S
C490 C487 1.463 . S
C490 N494 1.427 . S
C491 H481 0.929 . S
C491 C489 1.433 . S
C491 N494 1.384 . S
C492 H483 0.929 . S
C492 C484 1.378 . S
C492 C487 1.350 . S
C493 H480 0.929 . S
C493 C485 1.433 . S
C493 N495 1.384 . S
N494 C490 1.427 . S
N494 C491 1.384 . S
N495 C487 1.427 . S
N495 C493 1.384 . S
H496 C502 0.930 . S
H497 C506 0.930 . S
H498 C511 0.929 . S
H499 C509 0.929 . S
H500 C504 0.929 . S
H501 C510 0.929 . S
C502 H496 0.930 . S
C502 C503 1.367 . S
C502 C510 1.378 . S
C503 C502 1.367 . S
C503 C511 1.433 . S
C504 H500 0.929 . S
C504 C506 1.378 . S
C504 C508 1.350 . S
C505 C508 1.463 . S
C505 C510 1.350 . S
C505 N513 1.427 . S
C506 H497 0.930 . S
C506 C504 1.378 . S
C506 C507 1.367 . S
C507 C506 1.367 . S
C507 C509 1.433 . S
C508 C504 1.350 . S
C508 C505 1.463 . S
C508 N512 1.427 . S
C509 H499 0.929 . S
C509 C507 1.433 . S
C509 N512 1.384 . S
C510 H501 0.929 . S
C510 C502 1.378 . S
C510 C505 1.350 . S
C511 H498 0.929 . S
C511 C503 1.433 . S
C511 N513 1.384 . S
N512 C508 1.427 . S
N512 C509 1.384 . S
N513 C505 1.427 . S
N513 C511 1.384 . S
H514 C520 0.930 . S
H515 C524 0.930 . S
H516 C529 0.929 . S
H517 C527 0.929 . S
H518 C522 0.929 . S
H519 C528 0.929 . S
C520 H514 0.930 . S
C520 C521 1.367 . S
C520 C528 1.378 . S
C521 C520 1.367 . S
C521 C529 1.433 . S
C522 H518 0.929 . S
C522 C524 1.378 . S
C522 C526 1.350 . S
C523 C526 1.463 . S
C523 C528 1.350 . S
C523 N531 1.427 . S
C524 H515 0.930 . S
C524 C522 1.378 . S
C524 C525 1.367 . S
C525 C524 1.367 . S
C525 C527 1.433 . S
C526 C522 1.350 . S
C526 C523 1.463 . S
C526 N530 1.427 . S
C527 H517 0.929 . S
C527 C525 1.433 . S
C527 N530 1.384 . S
C528 H519 0.929 . S
C528 C520 1.378 . S
C528 C523 1.350 . S
C529 H516 0.929 . S
C529 C521 1.433 . S
C529 N531 1.384 . S
N530 C526 1.427 . S
N530 C527 1.384 . S
N531 C523 1.427 . S
N531 C529 1.384 . S
H532 C538 0.930 . S
H533 C542 0.930 . S
H534 C547 0.929 . S
H535 C545 0.929 . S
H536 C540 0.929 . S
H537 C546 0.929 . S
C538 H532 0.930 . S
C538 C539 1.367 . S
C538 C546 1.378 . S
C539 C538 1.367 . S
C539 C547 1.433 . S
C540 H536 0.929 . S
C540 C542 1.378 . S
C540 C544 1.350 . S
C541 C544 1.463 . S
C541 C546 1.350 . S
C541 N549 1.427 . S
C542 H533 0.930 . S
C542 C540 1.378 . S
C542 C543 1.367 . S
C543 C542 1.367 . S
C543 C545 1.433 . S
C544 C540 1.350 . S
C544 C541 1.463 . S
C544 N548 1.427 . S
C545 H535 0.929 . S
C545 C543 1.433 . S
C545 N548 1.384 . S
C546 H537 0.929 . S
C546 C538 1.378 . S
C546 C541 1.350 . S
C547 H534 0.929 . S
C547 C539 1.433 . S
C547 N549 1.384 . S
N548 C544 1.427 . S
N548 C545 1.384 . S
N549 C541 1.427 . S
N549 C547 1.384 . S
H550 C556 0.930 . S
H551 C560 0.930 . S
H552 C565 0.929 . S
H553 C563 0.929 . S
H554 C558 0.929 . S
H555 C564 0.929 . S
C556 H550 0.930 . S
C556 C557 1.367 . S
C556 C564 1.378 . S
C557 C556 1.367 . S
C557 C565 1.433 . S
C558 H554 0.929 . S
C558 C560 1.378 . S
C558 C562 1.350 . S
C559 C562 1.463 . S
C559 C564 1.350 . S
C559 N567 1.427 . S
C560 H551 0.930 . S
C560 C558 1.378 . S
C560 C561 1.367 . S
C561 C560 1.367 . S
C561 C563 1.433 . S
C562 C558 1.350 . S
C562 C559 1.463 . S
C562 N566 1.427 . S
C563 H553 0.929 . S
C563 C561 1.433 . S
C563 N566 1.384 . S
C564 H555 0.929 . S
C564 C556 1.378 . S
C564 C559 1.350 . S
C565 H552 0.929 . S
C565 C557 1.433 . S
C565 N567 1.384 . S
N566 C562 1.427 . S
N566 C563 1.384 . S
N567 C559 1.427 . S
N567 C565 1.384 . S
H568 C574 0.930 . S
H569 C578 0.930 . S
H570 C583 0.929 . S
H571 C581 0.929 . S
H572 C576 0.929 . S
H573 C582 0.929 . S
C574 H568 0.930 . S
C574 C575 1.367 . S
C574 C582 1.378 . S
C575 C574 1.367 . S
C575 C583 1.433 . S
C576 H572 0.929 . S
C576 C578 1.378 . S
C576 C580 1.350 . S
C577 C580 1.463 . S
C577 C582 1.350 . S
C577 N585 1.427 . S
C578 H569 0.930 . S
C578 C576 1.378 . S
C578 C579 1.367 . S
C579 C578 1.367 . S
C579 C581 1.433 . S
C580 C576 1.350 . S
C580 C577 1.463 . S
C580 N584 1.427 . S
C581 H571 0.929 . S
C581 C579 1.433 . S
C581 N584 1.384 . S
C582 H573 0.929 . S
C582 C574 1.378 . S
C582 C577 1.350 . S
C583 H570 0.929 . S
C583 C575 1.433 . S
C583 N585 1.384 . S
N584 C580 1.427 . S
N584 C581 1.384 . S
N585 C577 1.427 . S
N585 C583 1.384 . S
H586 C592 0.930 . S
H587 C596 0.930 . S
H588 C601 0.929 . S
H589 C599 0.929 . S
H590 C594 0.929 . S
H591 C600 0.929 . S
C592 H586 0.930 . S
C592 C593 1.367 . S
C592 C600 1.378 . S
C593 C592 1.367 . S
C593 C601 1.433 . S
C594 H590 0.929 . S
C594 C596 1.378 . S
C594 C598 1.350 . S
C595 C598 1.463 . S
C595 C600 1.350 . S
C595 N603 1.427 . S
C596 H587 0.930 . S
C596 C594 1.378 . S
C596 C597 1.367 . S
C597 C596 1.367 . S
C597 C599 1.433 . S
C598 C594 1.350 . S
C598 C595 1.463 . S
C598 N602 1.427 . S
C599 H589 0.929 . S
C599 C597 1.433 . S
C599 N602 1.384 . S
C600 H591 0.929 . S
C600 C592 1.378 . S
C600 C595 1.350 . S
C601 H588 0.929 . S
C601 C593 1.433 . S
C601 N603 1.384 . S
N602 C598 1.427 . S
N602 C599 1.384 . S
N603 C595 1.427 . S
N603 C601 1.384 . S
H604 C610 0.930 . S
H605 C614 0.930 . S
H606 C619 0.929 . S
H607 C617 0.929 . S
H608 C612 0.929 . S
H609 C618 0.929 . S
C610 H604 0.930 . S
C610 C611 1.367 . S
C610 C618 1.378 . S
C611 C610 1.367 . S
C611 C619 1.433 . S
C612 H608 0.929 . S
C612 C614 1.378 . S
C612 C616 1.350 . S
C613 C616 1.463 . S
C613 C618 1.350 . S
C613 N621 1.427 . S
C614 H605 0.930 . S
C614 C612 1.378 . S
C614 C615 1.367 . S
C615 C614 1.367 . S
C615 C617 1.433 . S
C616 C612 1.350 . S
C616 C613 1.463 . S
C616 N620 1.427 . S
C617 H607 0.929 . S
C617 C615 1.433 . S
C617 N620 1.384 . S
C618 H609 0.929 . S
C618 C610 1.378 . S
C618 C613 1.350 . S
C619 H606 0.929 . S
C619 C611 1.433 . S
C619 N621 1.384 . S
N620 C616 1.427 . S
N620 C617 1.384 . S
N621 C613 1.427 . S
N621 C619 1.384 . S
H622 C628 0.930 . S
H623 C632 0.930 . S
H624 C637 0.929 . S
H625 C635 0.929 . S
H626 C630 0.929 . S
H627 C636 0.929 . S
C628 H622 0.930 . S
C628 C629 1.367 . S
C628 C636 1.378 . S
C629 C628 1.367 . S
C629 C637 1.433 . S
C630 H626 0.929 . S
C630 C632 1.378 . S
C630 C634 1.350 . S
C631 C634 1.463 . S
C631 C636 1.350 . S
C631 N639 1.427 . S
C632 H623 0.930 . S
C632 C630 1.378 . S
C632 C633 1.367 . S
C633 C632 1.367 . S
C633 C635 1.433 . S
C634 C630 1.350 . S
C634 C631 1.463 . S
C634 N638 1.427 . S
C635 H625 0.929 . S
C635 C633 1.433 . S
C635 N638 1.384 . S
C636 H627 0.929 . S
C636 C628 1.378 . S
C636 C631 1.350 . S
C637 H624 0.929 . S
C637 C629 1.433 . S
C637 N639 1.384 . S
N638 C634 1.427 . S
N638 C635 1.384 . S
N639 C631 1.427 . S
N639 C637 1.384 . S
H640 C646 0.930 . S
H641 C650 0.930 . S
H642 C655 0.929 . S
H643 C653 0.929 . S
H644 C648 0.929 . S
H645 C654 0.929 . S
C646 H640 0.930 . S
C646 C647 1.367 . S
C646 C654 1.378 . S
C647 C646 1.367 . S
C647 C655 1.433 . S
C648 H644 0.929 . S
C648 C650 1.378 . S
C648 C652 1.350 . S
C649 C652 1.463 . S
C649 C654 1.350 . S
C649 N657 1.427 . S
C650 H641 0.930 . S
C650 C648 1.378 . S
C650 C651 1.367 . S
C651 C650 1.367 . S
C651 C653 1.433 . S
C652 C648 1.350 . S
C652 C649 1.463 . S
C652 N656 1.427 . S
C653 H643 0.929 . S
C653 C651 1.433 . S
C653 N656 1.384 . S
C654 H645 0.929 . S
C654 C646 1.378 . S
C654 C649 1.350 . S
C655 H642 0.929 . S
C655 C647 1.433 . S
C655 N657 1.384 . S
N656 C652 1.427 . S
N656 C653 1.384 . S
N657 C649 1.427 . S
N657 C655 1.384 . S
H658 C664 0.930 . S
H659 C668 0.930 . S
H660 C673 0.929 . S
H661 C671 0.929 . S
H662 C666 0.929 . S
H663 C672 0.929 . S
C664 H658 0.930 . S
C664 C665 1.367 . S
C664 C672 1.378 . S
C665 C664 1.367 . S
C665 C673 1.433 . S
C666 H662 0.929 . S
C666 C668 1.378 . S
C666 C670 1.350 . S
C667 C670 1.463 . S
C667 C672 1.350 . S
C667 N675 1.427 . S
C668 H659 0.930 . S
C668 C666 1.378 . S
C668 C669 1.367 . S
C669 C668 1.367 . S
C669 C671 1.433 . S
C670 C666 1.350 . S
C670 C667 1.463 . S
C670 N674 1.427 . S
C671 H661 0.929 . S
C671 C669 1.433 . S
C671 N674 1.384 . S
C672 H663 0.929 . S
C672 C664 1.378 . S
C672 C667 1.350 . S
C673 H660 0.929 . S
C673 C665 1.433 . S
C673 N675 1.384 . S
N674 C670 1.427 . S
N674 C671 1.384 . S
N675 C667 1.427 . S
N675 C673 1.384 . S
H676 C682 0.930 . S
H677 C686 0.930 . S
H678 C691 0.929 . S
H679 C689 0.929 . S
H680 C684 0.929 . S
H681 C690 0.929 . S
C682 H676 0.930 . S
C682 C683 1.367 . S
C682 C690 1.378 . S
C683 C682 1.367 . S
C683 C691 1.433 . S
C684 H680 0.929 . S
C684 C686 1.378 . S
C684 C688 1.350 . S
C685 C688 1.463 . S
C685 C690 1.350 . S
C685 N693 1.427 . S
C686 H677 0.930 . S
C686 C684 1.378 . S
C686 C687 1.367 . S
C687 C686 1.367 . S
C687 C689 1.433 . S
C688 C684 1.350 . S
C688 C685 1.463 . S
C688 N692 1.427 . S
C689 H679 0.929 . S
C689 C687 1.433 . S
C689 N692 1.384 . S
C690 H681 0.929 . S
C690 C682 1.378 . S
C690 C685 1.350 . S
C691 H678 0.929 . S
C691 C683 1.433 . S
C691 N693 1.384 . S
N692 C688 1.427 . S
N692 C689 1.384 . S
N693 C685 1.427 . S
N693 C691 1.384 . S
H694 C700 0.930 . S
H695 C704 0.930 . S
H696 C709 0.929 . S
H697 C707 0.929 . S
H698 C702 0.929 . S
H699 C708 0.929 . S
C700 H694 0.930 . S
C700 C701 1.367 . S
C700 C708 1.378 . S
C701 C700 1.367 . S
C701 C709 1.433 . S
C702 H698 0.929 . S
C702 C704 1.378 . S
C702 C706 1.350 . S
C703 C706 1.463 . S
C703 C708 1.350 . S
C703 N711 1.427 . S
C704 H695 0.930 . S
C704 C702 1.378 . S
C704 C705 1.367 . S
C705 C704 1.367 . S
C705 C707 1.433 . S
C706 C702 1.350 . S
C706 C703 1.463 . S
C706 N710 1.427 . S
C707 H697 0.929 . S
C707 C705 1.433 . S
C707 N710 1.384 . S
C708 H699 0.929 . S
C708 C700 1.378 . S
C708 C703 1.350 . S
C709 H696 0.929 . S
C709 C701 1.433 . S
C709 N711 1.384 . S
N710 C706 1.427 . S
N710 C707 1.384 . S
N711 C703 1.427 . S
N711 C709 1.384 . S
H712 C718 0.930 . S
H713 C722 0.930 . S
H714 C727 0.929 . S
H715 C725 0.929 . S
H716 C720 0.929 . S
H717 C726 0.929 . S
C718 H712 0.930 . S
C718 C719 1.367 . S
C718 C726 1.378 . S
C719 C718 1.367 . S
C719 C727 1.433 . S
C720 H716 0.929 . S
C720 C722 1.378 . S
C720 C724 1.350 . S
C721 C724 1.463 . S
C721 C726 1.350 . S
C721 N729 1.427 . S
C722 H713 0.930 . S
C722 C720 1.378 . S
C722 C723 1.367 . S
C723 C722 1.367 . S
C723 C725 1.433 . S
C724 C720 1.350 . S
C724 C721 1.463 . S
C724 N728 1.427 . S
C725 H715 0.929 . S
C725 C723 1.433 . S
C725 N728 1.384 . S
C726 H717 0.929 . S
C726 C718 1.378 . S
C726 C721 1.350 . S
C727 H714 0.929 . S
C727 C719 1.433 . S
C727 N729 1.384 . S
N728 C724 1.427 . S
N728 C725 1.384 . S
N729 C721 1.427 . S
N729 C727 1.384 . S
H730 C736 0.930 . S
H731 C740 0.930 . S
H732 C745 0.929 . S
H733 C743 0.929 . S
H734 C738 0.929 . S
H735 C744 0.929 . S
C736 H730 0.930 . S
C736 C737 1.367 . S
C736 C744 1.378 . S
C737 C736 1.367 . S
C737 C745 1.433 . S
C738 H734 0.929 . S
C738 C740 1.378 . S
C738 C742 1.350 . S
C739 C742 1.463 . S
C739 C744 1.350 . S
C739 N747 1.427 . S
C740 H731 0.930 . S
C740 C738 1.378 . S
C740 C741 1.367 . S
C741 C740 1.367 . S
C741 C743 1.433 . S
C742 C738 1.350 . S
C742 C739 1.463 . S
C742 N746 1.427 . S
C743 H733 0.929 . S
C743 C741 1.433 . S
C743 N746 1.384 . S
C744 H735 0.929 . S
C744 C736 1.378 . S
C744 C739 1.350 . S
C745 H732 0.929 . S
C745 C737 1.433 . S
C745 N747 1.384 . S
N746 C742 1.427 . S
N746 C743 1.384 . S
N747 C739 1.427 . S
N747 C745 1.384 . S
H748 C754 0.930 . S
H749 C758 0.930 . S
H750 C763 0.929 . S
H751 C761 0.929 . S
H752 C756 0.929 . S
H753 C762 0.929 . S
C754 H748 0.930 . S
C754 C755 1.367 . S
C754 C762 1.378 . S
C755 C754 1.367 . S
C755 C763 1.433 . S
C756 H752 0.929 . S
C756 C758 1.378 . S
C756 C760 1.350 . S
C757 C760 1.463 . S
C757 C762 1.350 . S
C757 N765 1.427 . S
C758 H749 0.930 . S
C758 C756 1.378 . S
C758 C759 1.367 . S
C759 C758 1.367 . S
C759 C761 1.433 . S
C760 C756 1.350 . S
C760 C757 1.463 . S
C760 N764 1.427 . S
C761 H751 0.929 . S
C761 C759 1.433 . S
C761 N764 1.384 . S
C762 H753 0.929 . S
C762 C754 1.378 . S
C762 C757 1.350 . S
C763 H750 0.929 . S
C763 C755 1.433 . S
C763 N765 1.384 . S
N764 C760 1.427 . S
N764 C761 1.384 . S
N765 C757 1.427 . S
N765 C763 1.384 . S
H766 C772 0.930 . S
H767 C776 0.930 . S
H768 C781 0.929 . S
H769 C779 0.929 . S
H770 C774 0.929 . S
H771 C780 0.929 . S
C772 H766 0.930 . S
C772 C773 1.367 . S
C772 C780 1.378 . S
C773 C772 1.367 . S
C773 C781 1.433 . S
C774 H770 0.929 . S
C774 C776 1.378 . S
C774 C778 1.350 . S
C775 C778 1.463 . S
C775 C780 1.350 . S
C775 N783 1.427 . S
C776 H767 0.930 . S
C776 C774 1.378 . S
C776 C777 1.367 . S
C777 C776 1.367 . S
C777 C779 1.433 . S
C778 C774 1.350 . S
C778 C775 1.463 . S
C778 N782 1.427 . S
C779 H769 0.929 . S
C779 C777 1.433 . S
C779 N782 1.384 . S
C780 H771 0.929 . S
C780 C772 1.378 . S
C780 C775 1.350 . S
C781 H768 0.929 . S
C781 C773 1.433 . S
C781 N783 1.384 . S
N782 C778 1.427 . S
N782 C779 1.384 . S
N783 C775 1.427 . S
N783 C781 1.384 . S
C215 C52 1.166 1_554 S
C219 C0 1.170 1_556 S
C233 C65 1.154 1_554 S
C237 C13 1.159 1_556 S
C251 C78 1.169 1_554 S
C255 C26 1.169 1_556 S
C269 C91 1.154 1_554 S
C273 C39 1.161 1_556 S
C287 C156 1.155 . S
C291 C104 1.155 . S
C305 C169 1.155 . S
C309 C117 1.162 . S
C323 C130 1.166 . S
C327 C182 1.170 . S
C341 C195 1.155 . S
C345 C143 1.162 . S
C359 C5 1.283 . S
C363 C70 1.279 1_554 S
C377 C83 1.274 . S
C381 C18 1.280 . S
C395 C31 1.285 . S
C399 C96 1.276 1_554 S
C413 C57 1.273 1_554 S
C417 C44 1.288 . S
C431 C174 1.272 . S
C435 C109 1.283 . S
C449 C187 1.275 . S
C453 C122 1.279 . S
C467 C135 1.279 . S
C471 C200 1.284 . S
C485 C148 1.287 . S
C489 C161 1.274 . S
C503 C205 1.412 . S
C507 C10 1.412 . S
C521 C166 1.416 . S
C525 C23 1.414 . S
C539 C179 1.418 . S
C543 C36 1.416 . S
C557 C192 1.415 . S
C561 C49 1.413 . S
C575 C127 1.415 . S
C579 C62 1.418 . S
C593 C140 1.415 . S
C597 C75 1.413 . S
C611 C88 1.412 . S
C615 C153 1.414 . S
C629 C101 1.419 . S
C633 C114 1.418 . S
C647 C177 1.453 . S
C651 C34 1.438 . S
C665 C190 1.442 . S
C669 C47 1.450 . S
C683 C203 1.452 . S
C687 C8 1.440 . S
C701 C21 1.453 . S
C705 C164 1.438 . S
C719 C151 1.438 . S
C723 C86 1.453 . S
C737 C99 1.452 . S
C741 C112 1.439 . S
C755 C125 1.438 . S
C759 C60 1.453 . S
C773 C138 1.453 . S
C777 C73 1.438 . S
