# Generated by pormake.
# Topology rho, (4)-cn, num edge types: 1
# Building blocks:
#     Node 0, Type 0, BuildingBlock: NAHDIM_clean_sbu_0, # of connection points: 4
#     Node 1, Type 0, BuildingBlock: NAHDIM_clean_sbu_0, # of connection points: 4
#     Node 2, Type 0, BuildingBlock: NAHDIM_clean_sbu_0, # of connection points: 4
#     Node 3, Type 0, BuildingBlock: NAHDIM_clean_sbu_0, # of connection points: 4
#     Node 4, Type 0, BuildingBlock: NAHDIM_clean_sbu_0, # of connection points: 4
#     Node 5, Type 0, BuildingBlock: NAHDIM_clean_sbu_0, # of connection points: 4
#     Node 6, Type 0, BuildingBlock: NAHDIM_clean_sbu_0, # of connection points: 4
#     Node 7, Type 0, BuildingBlock: NAHDIM_clean_sbu_0, # of connection points: 4
#     Node 8, Type 0, BuildingBlock: NAHDIM_clean_sbu_0, # of connection points: 4
#     Node 9, Type 0, BuildingBlock: NAHDIM_clean_sbu_0, # of connection points: 4
#     Node 10, Type 0, BuildingBlock: NAHDIM_clean_sbu_0, # of connection points: 4
#     Node 11, Type 0, BuildingBlock: NAHDIM_clean_sbu_0, # of connection points: 4
#     Node 12, Type 0, BuildingBlock: NAHDIM_clean_sbu_0, # of connection points: 4
#     Node 13, Type 0, BuildingBlock: NAHDIM_clean_sbu_0, # of connection points: 4
#     Node 14, Type 0, BuildingBlock: NAHDIM_clean_sbu_0, # of connection points: 4
#     Node 15, Type 0, BuildingBlock: NAHDIM_clean_sbu_0, # of connection points: 4
#     Node 16, Type 0, BuildingBlock: NAHDIM_clean_sbu_0, # of connection points: 4
#     Node 17, Type 0, BuildingBlock: NAHDIM_clean_sbu_0, # of connection points: 4
#     Node 18, Type 0, BuildingBlock: NAHDIM_clean_sbu_0, # of connection points: 4
#     Node 19, Type 0, BuildingBlock: NAHDIM_clean_sbu_0, # of connection points: 4
#     Node 20, Type 0, BuildingBlock: NAHDIM_clean_sbu_0, # of connection points: 4
#     Node 21, Type 0, BuildingBlock: NAHDIM_clean_sbu_0, # of connection points: 4
#     Node 22, Type 0, BuildingBlock: NAHDIM_clean_sbu_0, # of connection points: 4
#     Node 23, Type 0, BuildingBlock: NAHDIM_clean_sbu_0, # of connection points: 4
#     Node 24, Type 0, BuildingBlock: NAHDIM_clean_sbu_0, # of connection points: 4
#     Node 25, Type 0, BuildingBlock: NAHDIM_clean_sbu_0, # of connection points: 4
#     Node 26, Type 0, BuildingBlock: NAHDIM_clean_sbu_0, # of connection points: 4
#     Node 27, Type 0, BuildingBlock: NAHDIM_clean_sbu_0, # of connection points: 4
#     Node 28, Type 0, BuildingBlock: NAHDIM_clean_sbu_0, # of connection points: 4
#     Node 29, Type 0, BuildingBlock: NAHDIM_clean_sbu_0, # of connection points: 4
#     Node 30, Type 0, BuildingBlock: NAHDIM_clean_sbu_0, # of connection points: 4
#     Node 31, Type 0, BuildingBlock: NAHDIM_clean_sbu_0, # of connection points: 4
#     Node 32, Type 0, BuildingBlock: NAHDIM_clean_sbu_0, # of connection points: 4
#     Node 33, Type 0, BuildingBlock: NAHDIM_clean_sbu_0, # of connection points: 4
#     Node 34, Type 0, BuildingBlock: NAHDIM_clean_sbu_0, # of connection points: 4
#     Node 35, Type 0, BuildingBlock: NAHDIM_clean_sbu_0, # of connection points: 4
#     Node 36, Type 0, BuildingBlock: NAHDIM_clean_sbu_0, # of connection points: 4
#     Node 37, Type 0, BuildingBlock: NAHDIM_clean_sbu_0, # of connection points: 4
#     Node 38, Type 0, BuildingBlock: NAHDIM_clean_sbu_0, # of connection points: 4
#     Node 39, Type 0, BuildingBlock: NAHDIM_clean_sbu_0, # of connection points: 4
#     Node 40, Type 0, BuildingBlock: NAHDIM_clean_sbu_0, # of connection points: 4
#     Node 41, Type 0, BuildingBlock: NAHDIM_clean_sbu_0, # of connection points: 4
#     Node 42, Type 0, BuildingBlock: NAHDIM_clean_sbu_0, # of connection points: 4
#     Node 43, Type 0, BuildingBlock: NAHDIM_clean_sbu_0, # of connection points: 4
#     Node 44, Type 0, BuildingBlock: NAHDIM_clean_sbu_0, # of connection points: 4
#     Node 45, Type 0, BuildingBlock: NAHDIM_clean_sbu_0, # of connection points: 4
#     Node 46, Type 0, BuildingBlock: NAHDIM_clean_sbu_0, # of connection points: 4
#     Node 47, Type 0, BuildingBlock: NAHDIM_clean_sbu_0, # of connection points: 4
#     Edge 48, Type (0, 0), BuildingBlock: EZIPEK_clean_linker_0, # of connection points: 2
#     Edge 49, Type (0, 0), BuildingBlock: EZIPEK_clean_linker_0, # of connection points: 2
#     Edge 50, Type (0, 0), BuildingBlock: EZIPEK_clean_linker_0, # of connection points: 2
#     Edge 51, Type (0, 0), BuildingBlock: EZIPEK_clean_linker_0, # of connection points: 2
#     Edge 52, Type (0, 0), BuildingBlock: EZIPEK_clean_linker_0, # of connection points: 2
#     Edge 53, Type (0, 0), BuildingBlock: EZIPEK_clean_linker_0, # of connection points: 2
#     Edge 54, Type (0, 0), BuildingBlock: EZIPEK_clean_linker_0, # of connection points: 2
#     Edge 55, Type (0, 0), BuildingBlock: EZIPEK_clean_linker_0, # of connection points: 2
#     Edge 56, Type (0, 0), BuildingBlock: EZIPEK_clean_linker_0, # of connection points: 2
#     Edge 57, Type (0, 0), BuildingBlock: EZIPEK_clean_linker_0, # of connection points: 2
#     Edge 58, Type (0, 0), BuildingBlock: EZIPEK_clean_linker_0, # of connection points: 2
#     Edge 59, Type (0, 0), BuildingBlock: EZIPEK_clean_linker_0, # of connection points: 2
#     Edge 60, Type (0, 0), BuildingBlock: EZIPEK_clean_linker_0, # of connection points: 2
#     Edge 61, Type (0, 0), BuildingBlock: EZIPEK_clean_linker_0, # of connection points: 2
#     Edge 62, Type (0, 0), BuildingBlock: EZIPEK_clean_linker_0, # of connection points: 2
#     Edge 63, Type (0, 0), BuildingBlock: EZIPEK_clean_linker_0, # of connection points: 2
#     Edge 64, Type (0, 0), BuildingBlock: EZIPEK_clean_linker_0, # of connection points: 2
#     Edge 65, Type (0, 0), BuildingBlock: EZIPEK_clean_linker_0, # of connection points: 2
#     Edge 66, Type (0, 0), BuildingBlock: EZIPEK_clean_linker_0, # of connection points: 2
#     Edge 67, Type (0, 0), BuildingBlock: EZIPEK_clean_linker_0, # of connection points: 2
#     Edge 68, Type (0, 0), BuildingBlock: EZIPEK_clean_linker_0, # of connection points: 2
#     Edge 69, Type (0, 0), BuildingBlock: EZIPEK_clean_linker_0, # of connection points: 2
#     Edge 70, Type (0, 0), BuildingBlock: EZIPEK_clean_linker_0, # of connection points: 2
#     Edge 71, Type (0, 0), BuildingBlock: EZIPEK_clean_linker_0, # of connection points: 2
#     Edge 72, Type (0, 0), BuildingBlock: EZIPEK_clean_linker_0, # of connection points: 2
#     Edge 73, Type (0, 0), BuildingBlock: EZIPEK_clean_linker_0, # of connection points: 2
#     Edge 74, Type (0, 0), BuildingBlock: EZIPEK_clean_linker_0, # of connection points: 2
#     Edge 75, Type (0, 0), BuildingBlock: EZIPEK_clean_linker_0, # of connection points: 2
#     Edge 76, Type (0, 0), BuildingBlock: EZIPEK_clean_linker_0, # of connection points: 2
#     Edge 77, Type (0, 0), BuildingBlock: EZIPEK_clean_linker_0, # of connection points: 2
#     Edge 78, Type (0, 0), BuildingBlock: EZIPEK_clean_linker_0, # of connection points: 2
#     Edge 79, Type (0, 0), BuildingBlock: EZIPEK_clean_linker_0, # of connection points: 2
#     Edge 80, Type (0, 0), BuildingBlock: EZIPEK_clean_linker_0, # of connection points: 2
#     Edge 81, Type (0, 0), BuildingBlock: EZIPEK_clean_linker_0, # of connection points: 2
#     Edge 82, Type (0, 0), BuildingBlock: EZIPEK_clean_linker_0, # of connection points: 2
#     Edge 83, Type (0, 0), BuildingBlock: EZIPEK_clean_linker_0, # of connection points: 2
#     Edge 84, Type (0, 0), BuildingBlock: EZIPEK_clean_linker_0, # of connection points: 2
#     Edge 85, Type (0, 0), BuildingBlock: EZIPEK_clean_linker_0, # of connection points: 2
#     Edge 86, Type (0, 0), BuildingBlock: EZIPEK_clean_linker_0, # of connection points: 2
#     Edge 87, Type (0, 0), BuildingBlock: EZIPEK_clean_linker_0, # of connection points: 2
#     Edge 88, Type (0, 0), BuildingBlock: EZIPEK_clean_linker_0, # of connection points: 2
#     Edge 89, Type (0, 0), BuildingBlock: EZIPEK_clean_linker_0, # of connection points: 2
#     Edge 90, Type (0, 0), BuildingBlock: EZIPEK_clean_linker_0, # of connection points: 2
#     Edge 91, Type (0, 0), BuildingBlock: EZIPEK_clean_linker_0, # of connection points: 2
#     Edge 92, Type (0, 0), BuildingBlock: EZIPEK_clean_linker_0, # of connection points: 2
#     Edge 93, Type (0, 0), BuildingBlock: EZIPEK_clean_linker_0, # of connection points: 2
#     Edge 94, Type (0, 0), BuildingBlock: EZIPEK_clean_linker_0, # of connection points: 2
#     Edge 95, Type (0, 0), BuildingBlock: EZIPEK_clean_linker_0, # of connection points: 2
#     Edge 96, Type (0, 0), BuildingBlock: EZIPEK_clean_linker_0, # of connection points: 2
#     Edge 97, Type (0, 0), BuildingBlock: EZIPEK_clean_linker_0, # of connection points: 2
#     Edge 98, Type (0, 0), BuildingBlock: EZIPEK_clean_linker_0, # of connection points: 2
#     Edge 99, Type (0, 0), BuildingBlock: EZIPEK_clean_linker_0, # of connection points: 2
#     Edge 100, Type (0, 0), BuildingBlock: EZIPEK_clean_linker_0, # of connection points: 2
#     Edge 101, Type (0, 0), BuildingBlock: EZIPEK_clean_linker_0, # of connection points: 2
#     Edge 102, Type (0, 0), BuildingBlock: EZIPEK_clean_linker_0, # of connection points: 2
#     Edge 103, Type (0, 0), BuildingBlock: EZIPEK_clean_linker_0, # of connection points: 2
#     Edge 104, Type (0, 0), BuildingBlock: EZIPEK_clean_linker_0, # of connection points: 2
#     Edge 105, Type (0, 0), BuildingBlock: EZIPEK_clean_linker_0, # of connection points: 2
#     Edge 106, Type (0, 0), BuildingBlock: EZIPEK_clean_linker_0, # of connection points: 2
#     Edge 107, Type (0, 0), BuildingBlock: EZIPEK_clean_linker_0, # of connection points: 2
#     Edge 108, Type (0, 0), BuildingBlock: EZIPEK_clean_linker_0, # of connection points: 2
#     Edge 109, Type (0, 0), BuildingBlock: EZIPEK_clean_linker_0, # of connection points: 2
#     Edge 110, Type (0, 0), BuildingBlock: EZIPEK_clean_linker_0, # of connection points: 2
#     Edge 111, Type (0, 0), BuildingBlock: EZIPEK_clean_linker_0, # of connection points: 2
#     Edge 112, Type (0, 0), BuildingBlock: EZIPEK_clean_linker_0, # of connection points: 2
#     Edge 113, Type (0, 0), BuildingBlock: EZIPEK_clean_linker_0, # of connection points: 2
#     Edge 114, Type (0, 0), BuildingBlock: EZIPEK_clean_linker_0, # of connection points: 2
#     Edge 115, Type (0, 0), BuildingBlock: EZIPEK_clean_linker_0, # of connection points: 2
#     Edge 116, Type (0, 0), BuildingBlock: EZIPEK_clean_linker_0, # of connection points: 2
#     Edge 117, Type (0, 0), BuildingBlock: EZIPEK_clean_linker_0, # of connection points: 2
#     Edge 118, Type (0, 0), BuildingBlock: EZIPEK_clean_linker_0, # of connection points: 2
#     Edge 119, Type (0, 0), BuildingBlock: EZIPEK_clean_linker_0, # of connection points: 2
#     Edge 120, Type (0, 0), BuildingBlock: EZIPEK_clean_linker_0, # of connection points: 2
#     Edge 121, Type (0, 0), BuildingBlock: EZIPEK_clean_linker_0, # of connection points: 2
#     Edge 122, Type (0, 0), BuildingBlock: EZIPEK_clean_linker_0, # of connection points: 2
#     Edge 123, Type (0, 0), BuildingBlock: EZIPEK_clean_linker_0, # of connection points: 2
#     Edge 124, Type (0, 0), BuildingBlock: EZIPEK_clean_linker_0, # of connection points: 2
#     Edge 125, Type (0, 0), BuildingBlock: EZIPEK_clean_linker_0, # of connection points: 2
#     Edge 126, Type (0, 0), BuildingBlock: EZIPEK_clean_linker_0, # of connection points: 2
#     Edge 127, Type (0, 0), BuildingBlock: EZIPEK_clean_linker_0, # of connection points: 2
#     Edge 128, Type (0, 0), BuildingBlock: EZIPEK_clean_linker_0, # of connection points: 2
#     Edge 129, Type (0, 0), BuildingBlock: EZIPEK_clean_linker_0, # of connection points: 2
#     Edge 130, Type (0, 0), BuildingBlock: EZIPEK_clean_linker_0, # of connection points: 2
#     Edge 131, Type (0, 0), BuildingBlock: EZIPEK_clean_linker_0, # of connection points: 2
#     Edge 132, Type (0, 0), BuildingBlock: EZIPEK_clean_linker_0, # of connection points: 2
#     Edge 133, Type (0, 0), BuildingBlock: EZIPEK_clean_linker_0, # of connection points: 2
#     Edge 134, Type (0, 0), BuildingBlock: EZIPEK_clean_linker_0, # of connection points: 2
#     Edge 135, Type (0, 0), BuildingBlock: EZIPEK_clean_linker_0, # of connection points: 2
#     Edge 136, Type (0, 0), BuildingBlock: EZIPEK_clean_linker_0, # of connection points: 2
#     Edge 137, Type (0, 0), BuildingBlock: EZIPEK_clean_linker_0, # of connection points: 2
#     Edge 138, Type (0, 0), BuildingBlock: EZIPEK_clean_linker_0, # of connection points: 2
#     Edge 139, Type (0, 0), BuildingBlock: EZIPEK_clean_linker_0, # of connection points: 2
#     Edge 140, Type (0, 0), BuildingBlock: EZIPEK_clean_linker_0, # of connection points: 2
#     Edge 141, Type (0, 0), BuildingBlock: EZIPEK_clean_linker_0, # of connection points: 2
#     Edge 142, Type (0, 0), BuildingBlock: EZIPEK_clean_linker_0, # of connection points: 2
#     Edge 143, Type (0, 0), BuildingBlock: EZIPEK_clean_linker_0, # of connection points: 2
# Relax obj value: 0.179
# Max RMSD: 0.215
# Mean RMSD: 0.203
data_MOF--net-rho--node1-NAHDIM_clean_sbu_0--edge1-EZIPEK_clean_linker_0
_symmetry_space_group_name_H-M    P1
_symmetry_Int_Tables_number       1
_symmetry_cell_setting            triclinic
loop_
_symmetry_equiv_pos_as_xyz
'x, y, z'
_cell_length_a     51.910732
_cell_length_b     52.091272
_cell_length_c     52.022707
_cell_angle_alpha  90.349421
_cell_angle_beta   90.682611
_cell_angle_gamma 92.069765
loop_
_atom_site_label
_atom_site_type_symbol
_atom_site_fract_x
_atom_site_fract_y
_atom_site_fract_z
_atom_type_partial_charge
C0 C 0.15889 0.23383 0.40181 0.0
O1 O 0.16193 0.24978 0.42134 0.0
O2 O 0.11689 0.29159 0.37397 0.0
Zn3 Zn 0.11189 0.26001 0.39549 0.0
O4 O 0.11405 0.26889 0.43309 0.0
C5 C 0.05745 0.25712 0.38632 0.0
O6 O 0.06059 0.28222 0.38568 0.0
O7 O 0.13897 0.23472 0.3875 0.0
C8 C 0.10269 0.28744 0.44338 0.0
O9 O 0.08923 0.30291 0.42913 0.0
C10 C 0.13691 0.30624 0.37596 0.0
O11 O 0.15508 0.30121 0.39277 0.0
O12 O 0.0769 0.24327 0.38905 0.0
C13 C 0.73224 0.13756 0.36131 0.0
O14 O 0.75163 0.15396 0.35766 0.0
O15 O 0.79833 0.12665 0.37864 0.0
Zn16 Zn 0.76746 0.10907 0.39433 0.0
O17 O 0.76889 0.07074 0.39095 0.0
C18 C 0.755 0.13742 0.44044 0.0
O19 O 0.74311 0.15276 0.42466 0.0
O20 O 0.73484 0.11879 0.37648 0.0
C21 C 0.74954 0.05831 0.39991 0.0
O22 O 0.73098 0.0708 0.41077 0.0
C23 C 0.8057 0.12389 0.35563 0.0
O24 O 0.79317 0.10787 0.33995 0.0
O25 O 0.76651 0.11817 0.43175 0.0
C26 C 0.83959 0.77595 0.4029 0.0
O27 O 0.83182 0.7517 0.40298 0.0
O28 O 0.8824 0.72536 0.38361 0.0
Zn29 Zn 0.88836 0.75386 0.40945 0.0
O30 O 0.88534 0.7414 0.44551 0.0
C31 C 0.93724 0.76898 0.38606 0.0
O32 O 0.92578 0.7631 0.36406 0.0
O33 O 0.86347 0.78192 0.40469 0.0
C34 C 0.89738 0.72219 0.45354 0.0
O35 O 0.91003 0.7081 0.4373 0.0
C36 C 0.86873 0.70501 0.38719 0.0
O37 O 0.85622 0.70171 0.40877 0.0
O38 O 0.92476 0.76733 0.40684 0.0
C39 C 0.26906 0.89486 0.33966 0.0
O40 O 0.25534 0.9143 0.33245 0.0
O41 O 0.20039 0.87763 0.36767 0.0
Zn42 Zn 0.23316 0.89514 0.37991 0.0
O43 O 0.23248 0.93352 0.37646 0.0
C44 C 0.22001 0.89361 0.43228 0.0
O45 O 0.19924 0.9038 0.42273 0.0
O46 O 0.2632 0.8827 0.35996 0.0
C47 C 0.2129 0.94745 0.37666 0.0
O48 O 0.18973 0.93693 0.37931 0.0
C49 C 0.18833 0.88136 0.34674 0.0
O50 O 0.19717 0.8982 0.33006 0.0
O51 O 0.23787 0.88722 0.41731 0.0
C52 C 0.09248 0.72496 0.62722 0.0
O53 O 0.06801 0.72703 0.62118 0.0
O54 O 0.11677 0.80368 0.6129 0.0
Zn55 Zn 0.09686 0.77261 0.60007 0.0
O56 O 0.05891 0.77619 0.60513 0.0
C57 C 0.12646 0.76855 0.554 0.0
O58 O 0.14613 0.7694 0.57012 0.0
O59 O 0.10889 0.74172 0.61937 0.0
C60 C 0.04706 0.79707 0.60487 0.0
O61 O 0.05979 0.81902 0.60163 0.0
C62 C 0.11735 0.81174 0.63598 0.0
O63 O 0.10324 0.80014 0.65352 0.0
O64 O 0.10362 0.76918 0.56239 0.0
C65 C 0.23638 0.14323 0.6105 0.0
O66 O 0.24712 0.13445 0.63151 0.0
O67 O 0.29897 0.1177 0.61043 0.0
Zn68 Zn 0.27083 0.10964 0.58468 0.0
O69 O 0.28274 0.11115 0.54826 0.0
C70 C 0.27395 0.05668 0.59292 0.0
O71 O 0.29853 0.06359 0.59324 0.0
O72 O 0.24311 0.13498 0.58867 0.0
C73 C 0.30479 0.10554 0.5401 0.0
O74 O 0.32304 0.0991 0.55623 0.0
C75 C 0.31258 0.1384 0.61123 0.0
O76 O 0.3097 0.15602 0.59359 0.0
O77 O 0.25716 0.07367 0.59041 0.0
C78 C 0.87542 0.27217 0.61755 0.0
O79 O 0.85897 0.2687 0.59836 0.0
O80 O 0.87762 0.19517 0.61385 0.0
Zn81 Zn 0.89876 0.22478 0.6005 0.0
O82 O 0.9364 0.21816 0.60332 0.0
C83 C 0.88487 0.21085 0.54911 0.0
O84 O 0.88532 0.1877 0.55893 0.0
O85 O 0.89274 0.25606 0.62161 0.0
C86 C 0.95136 0.23336 0.59107 0.0
O87 O 0.94163 0.25115 0.57647 0.0
C88 C 0.88615 0.1775 0.62794 0.0
O89 O 0.91034 0.17821 0.63564 0.0
O90 O 0.88952 0.23034 0.56343 0.0
C91 C 0.7496 0.84516 0.59574 0.0
O92 O 0.72718 0.83647 0.58676 0.0
O93 O 0.69728 0.88927 0.62181 0.0
Zn94 Zn 0.72405 0.89239 0.59436 0.0
O95 O 0.70985 0.88422 0.55915 0.0
C96 C 0.7256 0.94737 0.60172 0.0
O97 O 0.70368 0.9427 0.61345 0.0
O98 O 0.75297 0.86884 0.60114 0.0
C99 C 0.69128 0.8963 0.5496 0.0
O100 O 0.67931 0.91289 0.56381 0.0
C101 C 0.67929 0.87214 0.62234 0.0
O102 O 0.67707 0.85476 0.60399 0.0
O103 O 0.73809 0.92885 0.59278 0.0
C104 C 0.36552 0.12091 0.27344 0.0
O105 O 0.36127 0.13399 0.25242 0.0
O106 O 0.4002 0.11853 0.21412 0.0
Zn107 Zn 0.40731 0.09732 0.2454 0.0
O108 O 0.40134 0.05991 0.23739 0.0
C109 C 0.46215 0.10945 0.24287 0.0
O110 O 0.45707 0.11424 0.21862 0.0
O111 O 0.38384 0.10544 0.27438 0.0
C112 C 0.41498 0.04809 0.22142 0.0
O113 O 0.43289 0.06071 0.20852 0.0
C114 C 0.38252 0.11212 0.19798 0.0
O115 O 0.36838 0.09102 0.20142 0.0
O116 O 0.44404 0.10262 0.25781 0.0
C117 C 0.85203 0.35671 0.30479 0.0
O118 O 0.834 0.3707 0.29469 0.0
O119 O 0.86034 0.36545 0.23611 0.0
Zn120 Zn 0.88447 0.37774 0.26456 0.0
O121 O 0.92177 0.37099 0.2577 0.0
C122 C 0.87703 0.43129 0.25329 0.0
O123 O 0.87416 0.42252 0.2297 0.0
O124 O 0.87462 0.35759 0.29568 0.0
C125 C 0.93624 0.38547 0.24405 0.0
O126 O 0.92658 0.40493 0.23182 0.0
C127 C 0.86503 0.36643 0.21224 0.0
O128 O 0.88795 0.37431 0.20453 0.0
O129 O 0.88093 0.41578 0.27158 0.0
C130 C 0.61698 0.85885 0.19841 0.0
O131 O 0.59902 0.85005 0.21393 0.0
O132 O 0.63583 0.88873 0.26561 0.0
Zn133 Zn 0.6171 0.90001 0.23392 0.0
O134 O 0.57869 0.89457 0.2372 0.0
C135 C 0.62008 0.95293 0.24653 0.0
O136 O 0.61175 0.94379 0.26849 0.0
O137 O 0.62846 0.8803 0.20312 0.0
C138 C 0.56602 0.89584 0.25788 0.0
O139 O 0.57794 0.90123 0.27974 0.0
C140 C 0.63055 0.86822 0.27786 0.0
O141 O 0.61203 0.85228 0.26967 0.0
O142 O 0.62477 0.93759 0.22828 0.0
C143 C 0.14517 0.6151 0.23271 0.0
O144 O 0.15382 0.61395 0.25648 0.0
O145 O 0.10405 0.63424 0.28466 0.0
Zn146 Zn 0.09848 0.606 0.25866 0.0
O147 O 0.10484 0.57135 0.27328 0.0
C148 C 0.04665 0.62305 0.24741 0.0
O149 O 0.05635 0.64646 0.25084 0.0
O150 O 0.12114 0.61229 0.2282 0.0
C151 C 0.09419 0.56439 0.29408 0.0
O152 O 0.08191 0.58114 0.30786 0.0
C153 C 0.11916 0.63396 0.304 0.0
O154 O 0.13329 0.61401 0.30842 0.0
O155 O 0.06114 0.60401 0.24881 0.0
C156 C 0.37993 0.83844 0.77187 0.0
O157 O 0.3861 0.83309 0.74807 0.0
O158 O 0.35538 0.8786 0.72107 0.0
Zn159 Zn 0.38041 0.88688 0.74977 0.0
O160 O 0.41747 0.8858 0.73898 0.0
C161 C 0.37998 0.93933 0.74409 0.0
O162 O 0.38986 0.9316 0.7224 0.0
O163 O 0.37532 0.86143 0.77805 0.0
C164 C 0.43317 0.89338 0.75657 0.0
O165 O 0.42429 0.90081 0.77883 0.0
C166 C 0.36043 0.87043 0.69872 0.0
O167 O 0.3843 0.86588 0.69252 0.0
O168 O 0.37386 0.92295 0.76113 0.0
C169 C 0.12783 0.37021 0.78966 0.0
O170 O 0.14319 0.36774 0.76999 0.0
O171 O 0.11069 0.36482 0.72421 0.0
Zn172 Zn 0.09248 0.38547 0.75056 0.0
O173 O 0.09977 0.42312 0.74496 0.0
C174 C 0.044 0.35927 0.7604 0.0
O175 O 0.05829 0.34433 0.77443 0.0
O176 O 0.10484 0.37693 0.78597 0.0
C177 C 0.08919 0.43521 0.7268 0.0
O178 O 0.07339 0.42294 0.71067 0.0
C179 C 0.0998 0.36021 0.70264 0.0
O180 O 0.07709 0.36943 0.69766 0.0
O181 O 0.05435 0.37795 0.74828 0.0
C182 C 0.64501 0.11813 0.71542 0.0
O183 O 0.65409 0.11336 0.73848 0.0
O184 O 0.60323 0.13763 0.76873 0.0
Zn185 Zn 0.59869 0.11009 0.74182 0.0
O186 O 0.60946 0.0758 0.75472 0.0
C187 C 0.544 0.1118 0.7464 0.0
O188 O 0.55017 0.11948 0.76983 0.0
O189 O 0.62083 0.11879 0.71172 0.0
C190 C 0.5982 0.06349 0.77261 0.0
O191 O 0.57791 0.07356 0.78291 0.0
C192 C 0.61973 0.13754 0.78694 0.0
O193 O 0.63509 0.11824 0.78958 0.0
O194 O 0.5616 0.10707 0.73049 0.0
C195 C 0.87156 0.63652 0.70834 0.0
O196 O 0.86867 0.64278 0.73259 0.0
O197 O 0.87392 0.59794 0.76276 0.0
Zn198 Zn 0.89281 0.59184 0.73019 0.0
O199 O 0.93046 0.60137 0.73522 0.0
C200 C 0.86964 0.54015 0.72554 0.0
O201 O 0.85008 0.54966 0.73769 0.0
O202 O 0.88034 0.61483 0.7025 0.0
C203 C 0.94737 0.58436 0.73496 0.0
O204 O 0.94024 0.55999 0.73319 0.0
C205 C 0.88288 0.59065 0.78418 0.0
O206 O 0.90486 0.57896 0.78516 0.0
O207 O 0.88889 0.55465 0.71983 0.0
C208 C 0.26885 0.33528 0.13596 0.0
O209 O 0.24403 0.32933 0.13574 0.0
O210 O 0.22231 0.38197 0.15086 0.0
Zn211 Zn 0.24996 0.38412 0.12437 0.0
O212 O 0.23544 0.37675 0.08896 0.0
C213 C 0.25121 0.43763 0.11704 0.0
O214 O 0.22714 0.43182 0.11075 0.0
O215 O 0.27654 0.35832 0.13206 0.0
C216 C 0.25053 0.38228 0.07063 0.0
O217 O 0.27424 0.39048 0.0759 0.0
C218 C 0.19846 0.38187 0.14514 0.0
O219 O 0.19102 0.38285 0.12097 0.0
O220 O 0.26584 0.41999 0.12436 0.0
C221 C 0.21085 0.62659 0.85358 0.0
O222 O 0.23296 0.63885 0.84956 0.0
O223 O 0.27076 0.61957 0.88511 0.0
Zn224 Zn 0.23719 0.60411 0.89712 0.0
O225 O 0.23914 0.56584 0.89706 0.0
C226 C 0.24887 0.60824 0.94914 0.0
O227 O 0.26947 0.59766 0.94004 0.0
O228 O 0.20811 0.61243 0.87322 0.0
C229 C 0.21878 0.55337 0.90343 0.0
O230 O 0.19794 0.56577 0.90892 0.0
C231 C 0.28353 0.60958 0.86719 0.0
O232 O 0.27497 0.58826 0.85593 0.0
O233 O 0.23101 0.6145 0.93376 0.0
C234 C 0.33864 0.27886 0.88887 0.0
O235 O 0.33226 0.25436 0.89122 0.0
O236 O 0.37999 0.23046 0.86582 0.0
Zn237 Zn 0.3875 0.25831 0.89158 0.0
O238 O 0.38475 0.24495 0.92796 0.0
C239 C 0.4411 0.25674 0.89256 0.0
O240 O 0.43425 0.23491 0.90347 0.0
O241 O 0.36224 0.2859 0.88754 0.0
C242 C 0.39779 0.25645 0.94567 0.0
O243 O 0.41234 0.2767 0.93993 0.0
C244 C 0.37453 0.20735 0.87174 0.0
O245 O 0.37214 0.20081 0.89595 0.0
O246 O 0.42366 0.27146 0.8849 0.0
C247 C 0.78093 0.38643 0.85844 0.0
O248 O 0.76902 0.40808 0.85593 0.0
O249 O 0.71524 0.37266 0.89128 0.0
Zn250 Zn 0.75042 0.38532 0.9025 0.0
O251 O 0.75237 0.4237 0.90263 0.0
C252 C 0.74533 0.35435 0.94807 0.0
O253 O 0.73016 0.33956 0.93347 0.0
O254 O 0.77668 0.37241 0.87794 0.0
C255 C 0.73877 0.43757 0.91683 0.0
O256 O 0.72166 0.42685 0.93218 0.0
C257 C 0.70385 0.37893 0.87064 0.0
O258 O 0.71475 0.39556 0.85493 0.0
O259 O 0.75682 0.37397 0.93862 0.0
C260 C 0.65347 0.71093 0.88382 0.0
O261 O 0.65747 0.73316 0.89552 0.0
O262 O 0.60754 0.759 0.85599 0.0
Zn263 Zn 0.60349 0.72998 0.88084 0.0
O264 O 0.60633 0.74206 0.91777 0.0
C265 C 0.54963 0.72643 0.8824 0.0
O266 O 0.55408 0.74985 0.89122 0.0
O267 O 0.63123 0.70498 0.8747 0.0
C268 C 0.60268 0.7246 0.93441 0.0
O269 O 0.59767 0.70087 0.92677 0.0
C270 C 0.61587 0.78139 0.86232 0.0
O271 O 0.62241 0.7865 0.88632 0.0
O272 O 0.5684 0.71299 0.87581 0.0
C273 C 0.73311 0.64771 0.10745 0.0
O274 O 0.75456 0.65992 0.10086 0.0
O275 O 0.79183 0.61319 0.13403 0.0
Zn276 Zn 0.76618 0.60578 0.10577 0.0
O277 O 0.78018 0.61652 0.07161 0.0
C278 C 0.77928 0.55412 0.10128 0.0
O279 O 0.80238 0.56524 0.10123 0.0
O280 O 0.73312 0.62373 0.11165 0.0
C281 C 0.76531 0.60928 0.05325 0.0
O282 O 0.74348 0.59695 0.0583 0.0
C283 C 0.80734 0.63258 0.13488 0.0
O284 O 0.80727 0.64966 0.11643 0.0
O285 O 0.7596 0.56767 0.1037 0.0
C286 C 0.38348 0.77708 0.13759 0.0
O287 O 0.39334 0.75805 0.15039 0.0
O288 O 0.36394 0.71191 0.11295 0.0
Zn289 Zn 0.38646 0.74025 0.09835 0.0
O290 O 0.42379 0.73417 0.1055 0.0
C291 C 0.3837 0.71988 0.04796 0.0
O292 O 0.38712 0.69862 0.06079 0.0
O293 O 0.37776 0.77407 0.11395 0.0
C294 C 0.43971 0.75037 0.0959 0.0
O295 O 0.43118 0.76994 0.08296 0.0
C296 C 0.37259 0.69432 0.1271 0.0
O297 O 0.39717 0.69439 0.13335 0.0
O298 O 0.38197 0.741 0.06002 0.0
C299 C 0.61298 0.24644 0.15068 0.0
O300 O 0.60454 0.26744 0.16123 0.0
O301 O 0.6264 0.30644 0.11597 0.0
Zn302 Zn 0.60484 0.27543 0.10602 0.0
O303 O 0.5674 0.28055 0.11268 0.0
C304 C 0.60539 0.28646 0.05281 0.0
O305 O 0.59835 0.30884 0.06151 0.0
O306 O 0.61565 0.24522 0.1265 0.0
C307 C 0.55248 0.26216 0.1051 0.0
O308 O 0.56207 0.24229 0.09346 0.0
C309 C 0.62063 0.32309 0.13264 0.0
O310 O 0.59869 0.32111 0.14489 0.0
O311 O 0.60963 0.26847 0.06847 0.0
C312 C 0.83576 0.77835 0.59708 0.0
O313 O 0.83419 0.75702 0.58349 0.0
O314 O 0.88468 0.73426 0.63245 0.0
Zn315 Zn 0.88664 0.7618 0.60559 0.0
O316 O 0.8861 0.74677 0.56986 0.0
C317 C 0.94019 0.77008 0.61432 0.0
O318 O 0.93812 0.74543 0.61926 0.0
O319 O 0.85662 0.78474 0.60884 0.0
C320 C 0.89812 0.72708 0.56308 0.0
O321 O 0.91114 0.71417 0.5801 0.0
C322 C 0.86962 0.71459 0.63024 0.0
O323 O 0.85449 0.71185 0.60994 0.0
O324 O 0.92008 0.78235 0.60922 0.0
C325 C 0.27402 0.86749 0.62783 0.0
O326 O 0.25472 0.85068 0.62995 0.0
O327 O 0.2091 0.87776 0.60894 0.0
Zn328 Zn 0.23997 0.89592 0.59417 0.0
O329 O 0.23696 0.934 0.59794 0.0
C330 C 0.22254 0.89175 0.54292 0.0
O331 O 0.20135 0.89906 0.55391 0.0
O332 O 0.27199 0.88666 0.6131 0.0
C333 C 0.25694 0.94722 0.59182 0.0
O334 O 0.27746 0.93559 0.58395 0.0
C335 C 0.19997 0.88341 0.6307 0.0
O336 O 0.2106 0.90214 0.64461 0.0
O337 O 0.24243 0.88799 0.55663 0.0
C338 C 0.16269 0.22353 0.60987 0.0
O339 O 0.16926 0.24718 0.61667 0.0
O340 O 0.11807 0.2735 0.6224 0.0
Zn341 Zn 0.11466 0.24585 0.59535 0.0
O342 O 0.11783 0.25999 0.55969 0.0
C343 C 0.06095 0.24621 0.60155 0.0
O344 O 0.06703 0.27034 0.60687 0.0
O345 O 0.14033 0.21835 0.60066 0.0
C346 C 0.10928 0.28159 0.55321 0.0
O347 O 0.10022 0.29701 0.57068 0.0
C348 C 0.1329 0.29343 0.62272 0.0
O349 O 0.14999 0.29707 0.60455 0.0
O350 O 0.07861 0.23065 0.59687 0.0
C351 C 0.72411 0.11495 0.64018 0.0
O352 O 0.74231 0.10034 0.64886 0.0
O353 O 0.78678 0.12003 0.60991 0.0
Zn354 Zn 0.75253 0.10697 0.59658 0.0
O355 O 0.74852 0.06894 0.60066 0.0
C356 C 0.75682 0.1373 0.55063 0.0
O357 O 0.76603 0.15521 0.56645 0.0
O358 O 0.72435 0.12206 0.61691 0.0
C359 C 0.75931 0.05285 0.58635 0.0
O360 O 0.7746 0.06084 0.5679 0.0
C361 C 0.80158 0.10814 0.62495 0.0
O362 O 0.79471 0.08533 0.63366 0.0
O363 O 0.74922 0.11563 0.55929 0.0
C364 C 0.85818 0.27565 0.37549 0.0
O365 O 0.8418 0.25903 0.38582 0.0
O366 O 0.88065 0.2095 0.37618 0.0
Zn367 Zn 0.89802 0.24097 0.39139 0.0
O368 O 0.93573 0.24294 0.38392 0.0
C369 C 0.87501 0.22838 0.44018 0.0
O370 O 0.85578 0.21901 0.42597 0.0
O371 O 0.88221 0.27206 0.37661 0.0
C372 C 0.95046 0.22482 0.3895 0.0
O373 O 0.94073 0.20324 0.3988 0.0
C374 C 0.88349 0.20047 0.35373 0.0
O375 O 0.90008 0.21136 0.33796 0.0
O376 O 0.8944 0.23929 0.42963 0.0
C377 C 0.76149 0.85149 0.40817 0.0
O378 O 0.74319 0.84758 0.42506 0.0
O379 O 0.70578 0.88769 0.37051 0.0
Zn380 Zn 0.73273 0.89582 0.39744 0.0
O381 O 0.7187 0.89417 0.43317 0.0
C382 C 0.72922 0.94907 0.39313 0.0
O383 O 0.70471 0.94204 0.3944 0.0
O384 O 0.76139 0.87124 0.39399 0.0
C385 C 0.69526 0.89217 0.43979 0.0
O386 O 0.67681 0.89071 0.42232 0.0
C387 C 0.69552 0.86543 0.36704 0.0
O388 O 0.70202 0.84634 0.38184 0.0
O389 O 0.7461 0.93204 0.3929 0.0
C390 C 0.10799 0.72786 0.35922 0.0
O391 O 0.097 0.74495 0.34468 0.0
O392 O 0.11772 0.79532 0.37854 0.0
Zn393 Zn 0.09936 0.76601 0.39616 0.0
O394 O 0.06131 0.7661 0.38968 0.0
C395 C 0.12839 0.76739 0.44376 0.0
O396 O 0.14837 0.76571 0.42868 0.0
O397 O 0.11209 0.73273 0.38286 0.0
C398 C 0.04755 0.78491 0.3954 0.0
O399 O 0.05835 0.8059 0.40546 0.0
C400 C 0.10913 0.80746 0.35935 0.0
O401 O 0.08646 0.8012 0.34923 0.0
O402 O 0.10584 0.76816 0.43416 0.0
C403 C 0.23329 0.1554 0.38896 0.0
O404 O 0.25784 0.16225 0.38796 0.0
O405 O 0.27779 0.1104 0.36103 0.0
Zn406 Zn 0.25409 0.10595 0.39099 0.0
O407 O 0.27267 0.11039 0.42491 0.0
C408 C 0.23716 0.05626 0.3701 0.0
O409 O 0.24486 0.06587 0.34809 0.0
O410 O 0.22653 0.13175 0.3897 0.0
C411 C 0.29221 0.09783 0.43136 0.0
O412 O 0.30258 0.0823 0.41475 0.0
C413 C 0.29923 0.1229 0.36176 0.0
O414 O 0.30699 0.1346 0.38304 0.0
O415 O 0.23852 0.07007 0.39033 0.0
C416 C 0.62003 0.85995 0.78439 0.0
O417 O 0.63727 0.8604 0.76611 0.0
O418 O 0.61908 0.89606 0.72631 0.0
Zn419 Zn 0.59672 0.90211 0.75679 0.0
O420 O 0.55955 0.89904 0.74594 0.0
C421 C 0.59987 0.95637 0.75603 0.0
O422 O 0.59277 0.95198 0.73205 0.0
O423 O 0.60214 0.87594 0.78423 0.0
C424 C 0.54308 0.89992 0.76371 0.0
O425 O 0.5509 0.9026 0.78771 0.0
C426 C 0.61233 0.87932 0.70947 0.0
O427 O 0.59075 0.86571 0.71212 0.0
O428 O 0.60354 0.93762 0.77095 0.0
C429 C 0.10743 0.64433 0.70008 0.0
O430 O 0.09832 0.65065 0.72261 0.0
O431 O 0.13685 0.60523 0.75396 0.0
Zn432 Zn 0.11011 0.59791 0.72647 0.0
O433 O 0.07441 0.60303 0.73997 0.0
C434 C 0.10453 0.54493 0.73323 0.0
O435 O 0.09854 0.55374 0.75599 0.0
O436 O 0.11536 0.6218 0.6966 0.0
C437 C 0.05649 0.59636 0.72425 0.0
O438 O 0.06253 0.588 0.7013 0.0
C439 C 0.1324 0.61837 0.77398 0.0
O440 O 0.1097 0.62822 0.77702 0.0
O441 O 0.11127 0.56066 0.71576 0.0
C442 C 0.38541 0.1424 0.78377 0.0
O443 O 0.40705 0.14771 0.77179 0.0
O444 O 0.36724 0.11216 0.71369 0.0
Zn445 Zn 0.38298 0.10175 0.74722 0.0
O446 O 0.42154 0.10544 0.74558 0.0
C447 C 0.37541 0.04823 0.73704 0.0
O448 O 0.37971 0.05565 0.71337 0.0
O449 O 0.37098 0.12353 0.77638 0.0
C450 C 0.43509 0.0979 0.72705 0.0
O451 O 0.42406 0.08716 0.70666 0.0
C452 C 0.36907 0.13502 0.70542 0.0
O453 O 0.38155 0.15295 0.71894 0.0
O454 O 0.37426 0.06485 0.75488 0.0
C455 C 0.84517 0.37313 0.77123 0.0
O456 O 0.83287 0.37744 0.74957 0.0
O457 O 0.87317 0.35837 0.70998 0.0
Zn458 Zn 0.88719 0.38094 0.7386 0.0
O459 O 0.8817 0.41844 0.73322 0.0
C460 C 0.93356 0.3554 0.75252 0.0
O461 O 0.91748 0.33694 0.75991 0.0
O462 O 0.86955 0.37211 0.77136 0.0
C463 C 0.87693 0.43041 0.71263 0.0
O464 O 0.87502 0.41796 0.69062 0.0
C465 C 0.88675 0.35543 0.69011 0.0
O466 O 0.90828 0.36915 0.68757 0.0
O467 O 0.92506 0.37581 0.74291 0.0
C468 C 0.62191 0.16309 0.22154 0.0
O469 O 0.61087 0.16788 0.24354 0.0
O470 O 0.64487 0.12309 0.27501 0.0
Zn471 Zn 0.6215 0.11559 0.24465 0.0
O472 O 0.58348 0.11822 0.25074 0.0
C473 C 0.6235 0.06265 0.25031 0.0
O474 O 0.61739 0.06999 0.27352 0.0
O475 O 0.62997 0.1408 0.21707 0.0
C476 C 0.56997 0.11243 0.27016 0.0
O477 O 0.58085 0.10418 0.29131 0.0
C478 C 0.64186 0.13615 0.29539 0.0
O479 O 0.61992 0.14714 0.29959 0.0
O480 O 0.62708 0.07938 0.23294 0.0
C481 C 0.88219 0.63626 0.30272 0.0
O482 O 0.89998 0.64595 0.28751 0.0
O483 O 0.86735 0.60492 0.2357 0.0
Zn484 Zn 0.88601 0.59479 0.2679 0.0
O485 O 0.92391 0.60379 0.26511 0.0
C486 C 0.87978 0.54163 0.25414 0.0
O487 O 0.88019 0.55112 0.23083 0.0
O488 O 0.8722 0.6141 0.29797 0.0
C489 C 0.93787 0.59637 0.24682 0.0
O490 O 0.92782 0.58168 0.22846 0.0
C491 C 0.87363 0.62478 0.22284 0.0
O492 O 0.8933 0.63968 0.23024 0.0
O493 O 0.8813 0.55668 0.27345 0.0
C494 C 0.35448 0.8832 0.27265 0.0
O495 O 0.34715 0.88693 0.24879 0.0
O496 O 0.39467 0.86412 0.22006 0.0
Zn497 Zn 0.40215 0.8894 0.24868 0.0
O498 O 0.39706 0.92608 0.23885 0.0
C499 C 0.45613 0.88474 0.24222 0.0
O500 O 0.44862 0.88161 0.21818 0.0
O501 O 0.37835 0.88229 0.27809 0.0
C502 C 0.40687 0.9372 0.21944 0.0
O503 O 0.41874 0.92376 0.20207 0.0
C504 C 0.38051 0.86741 0.20038 0.0
O505 O 0.36865 0.88903 0.19723 0.0
O506 O 0.43944 0.88753 0.2596 0.0
C507 C 0.12595 0.38392 0.22842 0.0
O508 O 0.12156 0.3636 0.24275 0.0
O509 O 0.10615 0.38636 0.29378 0.0
Zn510 Zn 0.09514 0.40991 0.26585 0.0
O511 O 0.10033 0.44638 0.27725 0.0
C512 C 0.04714 0.3841 0.24808 0.0
O513 O 0.06158 0.36546 0.2403 0.0
O514 O 0.11601 0.40506 0.23421 0.0
C515 C 0.08996 0.45468 0.29747 0.0
O516 O 0.07642 0.43889 0.31206 0.0
C517 C 0.12893 0.38697 0.30295 0.0
O518 O 0.1462 0.40382 0.29451 0.0
O519 O 0.0574 0.40397 0.2588 0.0
C520 C 0.73943 0.64384 0.88738 0.0
O521 O 0.76115 0.65377 0.89687 0.0
O522 O 0.79361 0.59718 0.86619 0.0
Zn523 Zn 0.76618 0.59738 0.89281 0.0
O524 O 0.78014 0.60918 0.92729 0.0
C525 C 0.7663 0.54496 0.90688 0.0
O526 O 0.78953 0.55205 0.91501 0.0
O527 O 0.73734 0.6199 0.88272 0.0
C528 C 0.76523 0.60397 0.94583 0.0
O529 O 0.7428 0.59232 0.94117 0.0
C530 C 0.81602 0.6073 0.86947 0.0
O531 O 0.8221 0.61946 0.891 0.0
O532 O 0.75208 0.56129 0.89634 0.0
C533 C 0.78894 0.35908 0.13157 0.0
O534 O 0.77548 0.33938 0.12201 0.0
O535 O 0.72182 0.37856 0.11403 0.0
Zn536 Zn 0.75561 0.39261 0.1017 0.0
O537 O 0.75565 0.43094 0.10321 0.0
C538 C 0.7515 0.35884 0.05798 0.0
O539 O 0.74168 0.34256 0.07471 0.0
O540 O 0.78379 0.38178 0.12506 0.0
C541 C 0.77061 0.44414 0.08893 0.0
O542 O 0.78543 0.43261 0.07252 0.0
C543 C 0.70875 0.38864 0.13163 0.0
O544 O 0.71722 0.40983 0.14319 0.0
O545 O 0.75973 0.38096 0.06531 0.0
C546 C 0.6477 0.71397 0.10158 0.0
O547 O 0.65545 0.73596 0.09155 0.0
O548 O 0.61139 0.76936 0.1199 0.0
Zn549 Zn 0.60213 0.73947 0.09698 0.0
O550 O 0.608 0.74752 0.05975 0.0
C551 C 0.55024 0.75018 0.09686 0.0
O552 O 0.56093 0.7725 0.09069 0.0
O553 O 0.62405 0.71018 0.10679 0.0
C554 C 0.60147 0.72942 0.0443 0.0
O555 O 0.59229 0.70753 0.05338 0.0
C556 C 0.62116 0.79076 0.1127 0.0
O557 O 0.62692 0.79448 0.08847 0.0
O558 O 0.56443 0.73128 0.10119 0.0
C559 C 0.21797 0.62189 0.14976 0.0
O560 O 0.23367 0.64185 0.14623 0.0
O561 O 0.2804 0.61662 0.11984 0.0
Zn562 Zn 0.24859 0.59496 0.11172 0.0
O563 O 0.25503 0.55741 0.11491 0.0
C564 C 0.25549 0.6053 0.05897 0.0
O565 O 0.27966 0.60513 0.06667 0.0
O566 O 0.22048 0.60153 0.13666 0.0
C567 C 0.27374 0.54535 0.10588 0.0
O568 O 0.29215 0.55764 0.09337 0.0
C569 C 0.29317 0.6175 0.1408 0.0
O570 O 0.28623 0.60289 0.16017 0.0
O571 O 0.23763 0.60203 0.07527 0.0
C572 C 0.34905 0.26214 0.13685 0.0
O573 O 0.35225 0.24306 0.15281 0.0
O574 O 0.38692 0.20746 0.12569 0.0
Zn575 Zn 0.38964 0.24025 0.10571 0.0
O576 O 0.38298 0.23538 0.06794 0.0
C577 C 0.44419 0.2423 0.11351 0.0
O578 O 0.43998 0.21751 0.11655 0.0
O579 O 0.36295 0.26443 0.11703 0.0
C580 C 0.39937 0.22662 0.05258 0.0
O581 O 0.42018 0.21615 0.06169 0.0
C582 C 0.37462 0.18713 0.11852 0.0
O583 O 0.36257 0.18617 0.09618 0.0
O584 O 0.42527 0.25669 0.10983 0.0
C585 C 0.25676 0.34876 0.90343 0.0
O586 O 0.23576 0.33793 0.91294 0.0
O587 O 0.19838 0.38317 0.88539 0.0
Zn588 Zn 0.22687 0.39166 0.91035 0.0
O589 O 0.21865 0.38242 0.94678 0.0
C590 C 0.21386 0.44304 0.91145 0.0
O591 O 0.19129 0.43172 0.91557 0.0
O592 O 0.25794 0.37284 0.89979 0.0
C593 C 0.23695 0.38875 0.96222 0.0
O594 O 0.25789 0.4003 0.95339 0.0
C595 C 0.18127 0.36519 0.88587 0.0
O596 O 0.18 0.34926 0.90532 0.0
O597 O 0.23354 0.42958 0.90862 0.0
C598 C 0.61695 0.22876 0.84926 0.0
O599 O 0.61339 0.24995 0.83636 0.0
O600 O 0.62559 0.2914 0.87815 0.0
Zn601 Zn 0.6042 0.26127 0.89038 0.0
O602 O 0.56679 0.26429 0.88101 0.0
C603 C 0.61088 0.27858 0.94249 0.0
O604 O 0.61296 0.30099 0.93113 0.0
O605 O 0.61521 0.22893 0.87357 0.0
C606 C 0.55111 0.27558 0.89538 0.0
O607 O 0.55985 0.28867 0.91548 0.0
C608 C 0.61674 0.31155 0.86829 0.0
O609 O 0.59186 0.31343 0.86431 0.0
O610 O 0.60793 0.2583 0.92891 0.0
C611 C 0.38794 0.75323 0.84085 0.0
O612 O 0.40246 0.73511 0.83206 0.0
O613 O 0.36966 0.69065 0.87591 0.0
Zn614 Zn 0.39081 0.72237 0.8848 0.0
O615 O 0.42877 0.71904 0.87938 0.0
C616 C 0.38754 0.71104 0.9376 0.0
O617 O 0.39212 0.68807 0.9286 0.0
O618 O 0.37945 0.7519 0.8636 0.0
C619 C 0.44173 0.69923 0.88327 0.0
O620 O 0.43028 0.67772 0.89071 0.0
C621 C 0.37167 0.67537 0.85702 0.0
O622 O 0.39009 0.67893 0.84018 0.0
O623 O 0.38559 0.72971 0.92219 0.0
C624 C 0.15069 0.34746 0.31777 0.0
C625 C 0.13551 0.36884 0.32346 0.0
C626 C 0.12491 0.35106 0.36562 0.0
C627 C 0.13923 0.3292 0.35956 0.0
N628 N 0.17034 0.3087 0.33312 0.0
N629 N 0.11343 0.39439 0.3543 0.0
C630 C 0.15374 0.32817 0.33669 0.0
C631 C 0.12424 0.37168 0.34793 0.0
N632 N 0.161 0.34499 0.29385 0.0
N633 N 0.11159 0.35176 0.38811 0.0
H634 H 0.11307 0.40995 0.34177 0.0
H635 H 0.10676 0.39873 0.37254 0.0
H636 H 0.11342 0.33792 0.40234 0.0
H637 H 0.09815 0.36545 0.3924 0.0
H638 H 0.16956 0.32846 0.2873 0.0
H639 H 0.15991 0.35916 0.27985 0.0
H640 H 0.18333 0.30802 0.31808 0.0
H641 H 0.17258 0.29404 0.34644 0.0
C642 C 0.70015 0.1153 0.33201 0.0
C643 C 0.7088 0.13814 0.34484 0.0
C644 C 0.67335 0.16095 0.32475 0.0
C645 C 0.66309 0.13721 0.31475 0.0
N646 N 0.6629 0.0909 0.31645 0.0
N647 N 0.70076 0.18184 0.35729 0.0
C648 C 0.67531 0.11409 0.32076 0.0
C649 C 0.69457 0.16079 0.34239 0.0
N650 N 0.71608 0.09518 0.3292 0.0
N651 N 0.66387 0.18365 0.31655 0.0
H652 H 0.71587 0.18227 0.3707 0.0
H653 H 0.68943 0.19793 0.35801 0.0
H654 H 0.64885 0.18472 0.30319 0.0
H655 H 0.67251 0.20146 0.32126 0.0
H656 H 0.71111 0.0791 0.31791 0.0
H657 H 0.73524 0.09582 0.3355 0.0
H658 H 0.67046 0.07356 0.32228 0.0
H659 H 0.64376 0.0894 0.3102 0.0
C660 C 0.85698 0.69099 0.34257 0.0
C661 C 0.86758 0.68499 0.36694 0.0
C662 C 0.88132 0.64359 0.3503 0.0
C663 C 0.87416 0.65134 0.32519 0.0
N664 N 0.85472 0.68172 0.29682 0.0
N665 N 0.8906 0.65631 0.39445 0.0
C666 C 0.86167 0.6748 0.32118 0.0
C667 C 0.87951 0.66125 0.3711 0.0
N668 N 0.84193 0.71189 0.34015 0.0
N669 N 0.89025 0.61952 0.35421 0.0
H670 H 0.8892 0.6684 0.41035 0.0
H671 H 0.90254 0.64103 0.39782 0.0
H672 H 0.89328 0.60651 0.33935 0.0
H673 H 0.89296 0.61162 0.37233 0.0
H674 H 0.83165 0.7162 0.32354 0.0
H675 H 0.83788 0.72386 0.35563 0.0
H676 H 0.84856 0.69988 0.29199 0.0
H677 H 0.85607 0.66945 0.28101 0.0
C678 C 0.31608 0.86376 0.29464 0.0
C679 C 0.33512 0.88389 0.29314 0.0
C680 C 0.31376 0.90759 0.32708 0.0
C681 C 0.29284 0.88938 0.32576 0.0
N682 N 0.27301 0.85053 0.30807 0.0
N683 N 0.35131 0.92615 0.30609 0.0
C684 C 0.29381 0.86735 0.30972 0.0
C685 C 0.33399 0.906 0.30911 0.0
N686 N 0.31958 0.84115 0.28189 0.0
N687 N 0.31439 0.92618 0.34577 0.0
H688 H 0.36657 0.92584 0.29325 0.0
H689 H 0.34951 0.94398 0.31492 0.0
H690 H 0.29984 0.92782 0.3593 0.0
H691 H 0.33034 0.93841 0.34942 0.0
H692 H 0.30765 0.82483 0.28396 0.0
H693 H 0.33586 0.838 0.27089 0.0
H694 H 0.27124 0.83573 0.29456 0.0
H695 H 0.25666 0.85228 0.31932 0.0
C696 C 0.09392 0.65846 0.65581 0.0
C697 C 0.10771 0.66348 0.67916 0.0
C698 C 0.11339 0.70883 0.66769 0.0
C699 C 0.10038 0.70364 0.64394 0.0
N700 N 0.08487 0.67249 0.61243 0.0
N701 N 0.13675 0.69141 0.70381 0.0
C702 C 0.09277 0.67809 0.63706 0.0
C703 C 0.11948 0.68805 0.68392 0.0
N704 N 0.08057 0.63562 0.65208 0.0
N705 N 0.11847 0.73359 0.67565 0.0
H706 H 0.142 0.67641 0.71577 0.0
H707 H 0.14782 0.70829 0.70671 0.0
H708 H 0.11373 0.74954 0.66485 0.0
H709 H 0.12528 0.73837 0.69403 0.0
H710 H 0.06769 0.63227 0.63682 0.0
H711 H 0.08062 0.62067 0.66526 0.0
H712 H 0.08147 0.6538 0.60566 0.0
H713 H 0.08436 0.68636 0.59805 0.0
C714 C 0.32124 0.15677 0.65497 0.0
C715 C 0.33013 0.14302 0.63341 0.0
C716 C 0.36846 0.131 0.6577 0.0
C717 C 0.35744 0.14102 0.68025 0.0
N718 N 0.32357 0.16336 0.7012 0.0
N719 N 0.36201 0.11739 0.61334 0.0
C720 C 0.33411 0.15434 0.67908 0.0
C721 C 0.35387 0.13045 0.63443 0.0
N722 N 0.30037 0.17186 0.65237 0.0
N723 N 0.39306 0.1225 0.65857 0.0
H724 H 0.35256 0.11803 0.59556 0.0
H725 H 0.37741 0.10513 0.61364 0.0
H726 H 0.40433 0.12329 0.67532 0.0
H727 H 0.40316 0.11693 0.64242 0.0
H728 H 0.29427 0.18424 0.66666 0.0
H729 H 0.2903 0.17363 0.63505 0.0
H730 H 0.30515 0.17051 0.70219 0.0
H731 H 0.33275 0.1624 0.71909 0.0
C732 C 0.87733 0.31971 0.62673 0.0
C733 C 0.87358 0.29412 0.63548 0.0
C734 C 0.87761 0.30875 0.68012 0.0
C735 C 0.88017 0.33455 0.67151 0.0
N736 N 0.87636 0.3651 0.63717 0.0
N737 N 0.86283 0.26522 0.67005 0.0
C738 C 0.87809 0.3402 0.64494 0.0
C739 C 0.87129 0.28899 0.66207 0.0
N740 N 0.88162 0.32441 0.60128 0.0
N741 N 0.88293 0.30277 0.70514 0.0
H742 H 0.85759 0.25039 0.65723 0.0
H743 H 0.85842 0.2611 0.68911 0.0
H744 H 0.88873 0.31636 0.71899 0.0
H745 H 0.88412 0.28395 0.71161 0.0
H746 H 0.88747 0.34236 0.59431 0.0
H747 H 0.88126 0.30998 0.5873 0.0
H748 H 0.87228 0.37023 0.61827 0.0
H749 H 0.87654 0.38052 0.65006 0.0
C750 C 0.66003 0.85286 0.6621 0.0
C751 C 0.66043 0.87256 0.64337 0.0
C752 C 0.629 0.89646 0.66782 0.0
C753 C 0.62797 0.87639 0.68616 0.0
N754 N 0.63914 0.83382 0.69926 0.0
N755 N 0.6421 0.9104 0.62538 0.0
C756 C 0.64233 0.85397 0.68273 0.0
C757 C 0.64402 0.89364 0.6454 0.0
N758 N 0.67753 0.83388 0.66092 0.0
N759 N 0.61574 0.91831 0.67194 0.0
H760 H 0.65256 0.90868 0.60851 0.0
H761 H 0.6286 0.92467 0.6244 0.0
H762 H 0.60296 0.92037 0.68707 0.0
H763 H 0.61832 0.93496 0.66118 0.0
H764 H 0.68033 0.82066 0.67552 0.0
H765 H 0.69071 0.83236 0.64606 0.0
H766 H 0.64675 0.81586 0.69617 0.0
H767 H 0.62739 0.83442 0.71536 0.0
C768 C 0.3431 0.14571 0.30773 0.0
C769 C 0.34758 0.12201 0.29525 0.0
C770 C 0.32265 0.09896 0.32799 0.0
C771 C 0.31606 0.12277 0.33904 0.0
N772 N 0.31568 0.16902 0.33634 0.0
N773 N 0.33618 0.07691 0.28975 0.0
C774 C 0.32507 0.14626 0.32806 0.0
C775 C 0.33576 0.09885 0.30428 0.0
N776 N 0.35677 0.16748 0.30092 0.0
N777 N 0.31744 0.07645 0.34063 0.0
H778 H 0.3447 0.0762 0.27171 0.0
H779 H 0.32564 0.06017 0.29429 0.0
H780 H 0.30872 0.07562 0.35857 0.0
H781 H 0.32423 0.05886 0.33459 0.0
H782 H 0.35628 0.18465 0.31123 0.0
H783 H 0.37038 0.16783 0.28633 0.0
H784 H 0.31954 0.18645 0.32719 0.0
H785 H 0.30206 0.1702 0.35083 0.0
C786 C 0.8373 0.29312 0.33595 0.0
C787 C 0.84916 0.29754 0.36038 0.0
C788 C 0.85669 0.34302 0.35042 0.0
C789 C 0.84615 0.3383 0.32553 0.0
N790 N 0.82021 0.31141 0.29676 0.0
N791 N 0.86355 0.32706 0.39368 0.0
C792 C 0.83412 0.31421 0.31914 0.0
C793 C 0.85662 0.32274 0.36855 0.0
N794 N 0.83091 0.2686 0.32803 0.0
N795 N 0.86757 0.36665 0.35629 0.0
H796 H 0.86333 0.31241 0.40729 0.0
H797 H 0.8673 0.34525 0.40155 0.0
H798 H 0.86656 0.38224 0.34385 0.0
H799 H 0.87835 0.37064 0.37293 0.0
H800 H 0.82537 0.26374 0.30928 0.0
H801 H 0.83258 0.25264 0.33983 0.0
H802 H 0.80891 0.29508 0.29214 0.0
H803 H 0.81814 0.32632 0.2837 0.0
C804 C 0.65156 0.85903 0.34745 0.0
C805 C 0.67863 0.86077 0.34438 0.0
C806 C 0.67321 0.85943 0.29759 0.0
C807 C 0.64635 0.8621 0.30067 0.0
N808 N 0.60946 0.86506 0.32819 0.0
N809 N 0.71587 0.86237 0.31709 0.0
C810 C 0.63527 0.86158 0.3255 0.0
C811 C 0.68966 0.86066 0.31958 0.0
N812 N 0.64151 0.85516 0.37134 0.0
N813 N 0.6828 0.8551 0.27363 0.0
H814 H 0.72857 0.86172 0.33275 0.0
H815 H 0.72508 0.86565 0.29969 0.0
H816 H 0.67108 0.85361 0.25721 0.0
H817 H 0.70184 0.85059 0.27025 0.0
H818 H 0.62202 0.85123 0.37462 0.0
H819 H 0.65299 0.85373 0.38782 0.0
H820 H 0.60072 0.86806 0.3458 0.0
H821 H 0.59682 0.86648 0.31261 0.0
C822 C 0.10668 0.65629 0.34422 0.0
C823 C 0.12081 0.6566 0.3211 0.0
C824 C 0.13203 0.70224 0.32745 0.0
C825 C 0.11448 0.70282 0.34809 0.0
N826 N 0.08327 0.68102 0.37518 0.0
N827 N 0.14673 0.67942 0.28994 0.0
C828 C 0.10161 0.67994 0.35657 0.0
C829 C 0.13361 0.67944 0.31258 0.0
N830 N 0.09786 0.63343 0.35415 0.0
N831 N 0.14761 0.72333 0.32257 0.0
H832 H 0.14951 0.66273 0.2793 0.0
H833 H 0.15373 0.69605 0.28103 0.0
H834 H 0.14733 0.74007 0.33366 0.0
H835 H 0.16245 0.72346 0.30928 0.0
H836 H 0.08966 0.6317 0.37226 0.0
H837 H 0.10085 0.61581 0.34527 0.0
H838 H 0.0711 0.6655 0.37997 0.0
H839 H 0.07869 0.69795 0.38457 0.0
C840 C 0.33258 0.84605 0.66607 0.0
C841 C 0.33958 0.86936 0.67908 0.0
C842 C 0.30154 0.88941 0.66141 0.0
C843 C 0.29606 0.86726 0.64607 0.0
N844 N 0.30844 0.82572 0.63077 0.0
N845 N 0.33459 0.91511 0.68324 0.0
C846 C 0.31214 0.84584 0.64753 0.0
C847 C 0.3252 0.89161 0.675 0.0
N848 N 0.34468 0.82398 0.67211 0.0
N849 N 0.28367 0.90787 0.66405 0.0
H850 H 0.35257 0.91772 0.69215 0.0
H851 H 0.32593 0.93223 0.67853 0.0
H852 H 0.26538 0.90645 0.65555 0.0
H853 H 0.28595 0.92314 0.67703 0.0
H854 H 0.33851 0.80593 0.66526 0.0
H855 H 0.35964 0.8234 0.68562 0.0
H856 H 0.32121 0.81084 0.62918 0.0
H857 H 0.29372 0.82497 0.61694 0.0
C858 C 0.11692 0.35476 0.65838 0.0
C859 C 0.11241 0.34443 0.68313 0.0
C860 C 0.12998 0.30373 0.66933 0.0
C861 C 0.1299 0.31248 0.64358 0.0
N862 N 0.1212 0.34601 0.61299 0.0
N863 N 0.11217 0.30807 0.7118 0.0
C864 C 0.12318 0.33805 0.6379 0.0
C865 C 0.11859 0.31873 0.68868 0.0
N866 N 0.11567 0.38064 0.65458 0.0
N867 N 0.14124 0.28117 0.67528 0.0
H868 H 0.10328 0.31812 0.72641 0.0
H869 H 0.11359 0.28857 0.71568 0.0
H870 H 0.15025 0.27002 0.66155 0.0
H871 H 0.14404 0.27496 0.69407 0.0
H872 H 0.12129 0.3896 0.63759 0.0
H873 H 0.11154 0.39349 0.66931 0.0
H874 H 0.1132 0.36331 0.60779 0.0
H875 H 0.12576 0.33467 0.59728 0.0
C876 C 0.67994 0.10188 0.65405 0.0
C877 C 0.70157 0.11916 0.65634 0.0
C878 C 0.68254 0.13957 0.69372 0.0
C879 C 0.66287 0.11995 0.69363 0.0
N880 N 0.6443 0.08045 0.67566 0.0
N881 N 0.72456 0.15394 0.6783 0.0
C882 C 0.66166 0.10078 0.67409 0.0
C883 C 0.70312 0.13802 0.67608 0.0
N884 N 0.67709 0.08627 0.63289 0.0
N885 N 0.68117 0.15991 0.71034 0.0
H886 H 0.73935 0.15412 0.66488 0.0
H887 H 0.72834 0.16602 0.69401 0.0
H888 H 0.6661 0.1617 0.72326 0.0
H889 H 0.69358 0.17603 0.70986 0.0
H890 H 0.66036 0.0753 0.62879 0.0
H891 H 0.69057 0.08588 0.61819 0.0
H892 H 0.6446 0.06435 0.66373 0.0
H893 H 0.63083 0.07845 0.69027 0.0
C894 C 0.84679 0.68755 0.66334 0.0
C895 C 0.86982 0.69446 0.65017 0.0
C896 C 0.89409 0.6656 0.67747 0.0
C897 C 0.87069 0.65661 0.68858 0.0
N898 N 0.82435 0.65645 0.69038 0.0
N899 N 0.91445 0.68646 0.64137 0.0
C900 C 0.84688 0.66687 0.68106 0.0
C901 C 0.89324 0.68252 0.65633 0.0
N902 N 0.82522 0.70148 0.65981 0.0
N903 N 0.91723 0.65878 0.68774 0.0
H904 H 0.91461 0.69837 0.62542 0.0
H905 H 0.93109 0.67599 0.64326 0.0
H906 H 0.9188 0.64679 0.70363 0.0
H907 H 0.93487 0.66701 0.68217 0.0
H908 H 0.80871 0.69906 0.67085 0.0
H909 H 0.82454 0.7171 0.64741 0.0
H910 H 0.80622 0.6612 0.6835 0.0
H911 H 0.8238 0.64154 0.70369 0.0
C912 C 0.30536 0.31481 0.15901 0.0
C913 C 0.2878 0.31491 0.13789 0.0
C914 C 0.30697 0.27657 0.12009 0.0
C915 C 0.32666 0.27861 0.13917 0.0
N916 N 0.34603 0.30025 0.17603 0.0
N917 N 0.27376 0.29809 0.09645 0.0
C918 C 0.32615 0.29774 0.15862 0.0
C919 C 0.28892 0.29624 0.11801 0.0
N920 N 0.30179 0.33064 0.17962 0.0
N921 N 0.30526 0.25549 0.10426 0.0
H922 H 0.26039 0.31235 0.09394 0.0
H923 H 0.27598 0.28685 0.08006 0.0
H924 H 0.31801 0.24049 0.10549 0.0
H925 H 0.2898 0.25163 0.09171 0.0
H926 H 0.31234 0.32971 0.19671 0.0
H927 H 0.28671 0.34332 0.18049 0.0
H928 H 0.34835 0.31563 0.18882 0.0
H929 H 0.36123 0.28769 0.17662 0.0
C930 C 0.33273 0.65408 0.83606 0.0
C931 C 0.35284 0.65356 0.85472 0.0
C932 C 0.3296 0.61976 0.8784 0.0
C933 C 0.30886 0.62127 0.86057 0.0
N934 N 0.29279 0.6344 0.81925 0.0
N935 N 0.37411 0.63171 0.88907 0.0
C936 C 0.31125 0.6365 0.83817 0.0
C937 C 0.35245 0.63491 0.87441 0.0
N938 N 0.33337 0.67246 0.8174 0.0
N939 N 0.32703 0.60443 0.89954 0.0
H940 H 0.39121 0.64234 0.88605 0.0
H941 H 0.376 0.61714 0.90248 0.0
H942 H 0.31119 0.59184 0.90213 0.0
H943 H 0.33999 0.60483 0.91496 0.0
H944 H 0.31792 0.67602 0.80517 0.0
H945 H 0.34911 0.68516 0.81489 0.0
H946 H 0.29447 0.64321 0.80142 0.0
H947 H 0.27659 0.62206 0.82056 0.0
C948 C 0.27725 0.31473 0.87738 0.0
C949 C 0.27899 0.33291 0.89782 0.0
C950 C 0.3197 0.31549 0.91241 0.0
C951 C 0.31871 0.29818 0.89123 0.0
N952 N 0.29927 0.28395 0.85108 0.0
N953 N 0.30391 0.35408 0.93181 0.0
C954 C 0.29822 0.29851 0.87298 0.0
C955 C 0.30097 0.33452 0.91426 0.0
N956 N 0.25545 0.31286 0.86235 0.0
N957 N 0.33748 0.31266 0.93171 0.0
H958 H 0.29017 0.36786 0.93456 0.0
H959 H 0.3209 0.3579 0.9422 0.0
H960 H 0.35109 0.29845 0.93156 0.0
H961 H 0.33724 0.32272 0.94906 0.0
H962 H 0.25159 0.29799 0.84926 0.0
H963 H 0.24047 0.32559 0.86386 0.0
H964 H 0.28628 0.2852 0.83578 0.0
H965 H 0.31448 0.272 0.8472 0.0
C966 C 0.65353 0.33111 0.84438 0.0
C967 C 0.63476 0.33349 0.86368 0.0
C968 C 0.65748 0.37209 0.88051 0.0
C969 C 0.67849 0.36669 0.86451 0.0
N970 N 0.69698 0.34198 0.83048 0.0
N971 N 0.61777 0.35631 0.89986 0.0
C972 C 0.67645 0.34681 0.84578 0.0
C973 C 0.63608 0.35437 0.88134 0.0
N974 N 0.64928 0.31374 0.82485 0.0
N975 N 0.65819 0.39418 0.89486 0.0
H976 H 0.60135 0.34421 0.90052 0.0
H977 H 0.61935 0.36908 0.91531 0.0
H978 H 0.67372 0.40748 0.89438 0.0
H979 H 0.64264 0.4005 0.90533 0.0
H980 H 0.66111 0.31235 0.80894 0.0
H981 H 0.63244 0.3022 0.82348 0.0
H982 H 0.69797 0.32585 0.81868 0.0
H983 H 0.71373 0.35364 0.83042 0.0
C984 C 0.69451 0.65429 0.89982 0.0
C985 C 0.71668 0.65996 0.88486 0.0
C986 C 0.6971 0.69893 0.86866 0.0
C987 C 0.67447 0.69255 0.88268 0.0
N988 N 0.64975 0.66206 0.90816 0.0
N989 N 0.73761 0.68477 0.85166 0.0
C990 C 0.67253 0.66947 0.89701 0.0
C991 C 0.7176 0.68153 0.86835 0.0
N992 N 0.69497 0.63539 0.91795 0.0
N993 N 0.69901 0.72169 0.85573 0.0
H994 H 0.75278 0.6722 0.85073 0.0
H995 H 0.73821 0.69855 0.83726 0.0
H996 H 0.68373 0.73404 0.85386 0.0
H997 H 0.71608 0.72902 0.84789 0.0
H998 H 0.68082 0.63266 0.93178 0.0
H999 H 0.71058 0.62373 0.92081 0.0
H1000 H 0.64624 0.64391 0.91593 0.0
H1001 H 0.63355 0.67322 0.90808 0.0
C1002 C 0.66672 0.67189 0.09079 0.0
C1003 C 0.66672 0.69415 0.1066 0.0
C1004 C 0.7071 0.68183 0.12725 0.0
C1005 C 0.70901 0.66187 0.10881 0.0
N1006 N 0.69194 0.63882 0.0716 0.0
N1007 N 0.68606 0.72059 0.1403 0.0
C1008 C 0.68898 0.65683 0.09045 0.0
C1009 C 0.68662 0.69912 0.12509 0.0
N1010 N 0.64561 0.66528 0.07589 0.0
N1011 N 0.72455 0.68378 0.14714 0.0
H1012 H 0.67032 0.73247 0.14068 0.0
H1013 H 0.70145 0.72721 0.15183 0.0
H1014 H 0.73959 0.67118 0.14935 0.0
H1015 H 0.72301 0.69638 0.1626 0.0
H1016 H 0.64336 0.64783 0.06611 0.0
H1017 H 0.62926 0.67625 0.07492 0.0
H1018 H 0.67969 0.63662 0.05568 0.0
H1019 H 0.7078 0.62721 0.07072 0.0
C1020 C 0.35654 0.64871 0.12203 0.0
C1021 C 0.35513 0.6728 0.1347 0.0
C1022 C 0.31517 0.65859 0.15575 0.0
C1023 C 0.31628 0.63477 0.14254 0.0
N1024 N 0.3406 0.6044 0.11879 0.0
N1025 N 0.33707 0.69902 0.1677 0.0
C1026 C 0.3379 0.62895 0.12753 0.0
C1027 C 0.33567 0.67719 0.15295 0.0
N1028 N 0.37481 0.64519 0.10373 0.0
N1029 N 0.29398 0.66382 0.16995 0.0
H1030 H 0.35192 0.71294 0.166 0.0
H1031 H 0.32487 0.70245 0.18298 0.0
H1032 H 0.27922 0.6502 0.17333 0.0
H1033 H 0.29039 0.68189 0.17747 0.0
H1034 H 0.37488 0.62925 0.09157 0.0
H1035 H 0.38913 0.65901 0.09949 0.0
H1036 H 0.35703 0.5982 0.1097 0.0
H1037 H 0.32728 0.58953 0.12285 0.0
C1038 C 0.66344 0.38007 0.11708 0.0
C1039 C 0.68267 0.37782 0.13644 0.0
C1040 C 0.657 0.34408 0.15768 0.0
C1041 C 0.63876 0.34503 0.13725 0.0
N1042 N 0.62038 0.36756 0.10169 0.0
N1043 N 0.69547 0.36314 0.17828 0.0
C1044 C 0.64057 0.3644 0.11836 0.0
C1045 C 0.67853 0.36175 0.15796 0.0
N1046 N 0.66765 0.39646 0.097 0.0
N1047 N 0.65444 0.32532 0.17584 0.0
H1048 H 0.71152 0.37578 0.1787 0.0
H1049 H 0.69265 0.35341 0.19548 0.0
H1050 H 0.63837 0.31274 0.17656 0.0
H1051 H 0.66851 0.3215 0.18956 0.0
H1052 H 0.65603 0.39685 0.08058 0.0
H1053 H 0.68353 0.40932 0.0964 0.0
H1054 H 0.61946 0.38252 0.08859 0.0
H1055 H 0.60339 0.35626 0.10247 0.0
C1056 C 0.59718 0.82336 0.80632 0.0
C1057 C 0.6197 0.83936 0.80383 0.0
C1058 C 0.64083 0.81551 0.8381 0.0
C1059 C 0.61721 0.80178 0.84265 0.0
N1060 N 0.57136 0.79661 0.83456 0.0
N1061 N 0.66164 0.85353 0.82 0.0
C1062 C 0.59492 0.8068 0.82773 0.0
C1063 C 0.64123 0.83623 0.82042 0.0
N1064 N 0.57838 0.82317 0.78768 0.0
N1065 N 0.66308 0.80812 0.84976 0.0
H1066 H 0.66257 0.86909 0.80748 0.0
H1067 H 0.67657 0.85376 0.83357 0.0
H1068 H 0.66374 0.79266 0.86236 0.0
H1069 H 0.68123 0.81573 0.84505 0.0
H1070 H 0.56278 0.81001 0.78733 0.0
H1071 H 0.57975 0.83427 0.77109 0.0
H1072 H 0.55416 0.80181 0.82582 0.0
H1073 H 0.56862 0.78509 0.85068 0.0
C1074 C 0.17906 0.64744 0.82422 0.0
C1075 C 0.19104 0.62501 0.83296 0.0
C1076 C 0.16249 0.59837 0.80525 0.0
C1077 C 0.15222 0.62087 0.7946 0.0
N1078 N 0.15387 0.66705 0.79058 0.0
N1079 N 0.19873 0.57989 0.82688 0.0
C1080 C 0.16132 0.64553 0.80318 0.0
C1081 C 0.18407 0.60066 0.82209 0.0
N1082 N 0.18403 0.67039 0.8365 0.0
N1083 N 0.15102 0.57481 0.8002 0.0
H1084 H 0.21537 0.58083 0.83834 0.0
H1085 H 0.19595 0.56236 0.81731 0.0
H1086 H 0.13454 0.5723 0.78871 0.0
H1087 H 0.1562 0.55813 0.80962 0.0
H1088 H 0.17381 0.68683 0.83277 0.0
H1089 H 0.19695 0.67248 0.85194 0.0
H1090 H 0.16196 0.6853 0.79427 0.0
H1091 H 0.14126 0.66641 0.77482 0.0
C1092 C 0.3594 0.17338 0.80868 0.0
C1093 C 0.37991 0.15618 0.80776 0.0
C1094 C 0.39547 0.17073 0.85013 0.0
C1095 C 0.37468 0.18762 0.85134 0.0
N1096 N 0.33405 0.20164 0.83478 0.0
N1097 N 0.41329 0.13355 0.8297 0.0
C1098 C 0.3557 0.18783 0.83152 0.0
C1099 C 0.39662 0.15329 0.8292 0.0
N1100 N 0.34427 0.17675 0.78735 0.0
N1101 N 0.41496 0.17238 0.86807 0.0
H1102 H 0.41451 0.12026 0.81471 0.0
H1103 H 0.42408 0.12886 0.8459 0.0
H1104 H 0.41498 0.18484 0.88381 0.0
H1105 H 0.43214 0.16283 0.86628 0.0
H1106 H 0.3309 0.19109 0.78577 0.0
H1107 H 0.34621 0.16616 0.77044 0.0
H1108 H 0.31834 0.20077 0.82215 0.0
H1109 H 0.33085 0.21234 0.85138 0.0
C1110 C 0.83597 0.39511 0.8128 0.0
C1111 C 0.83118 0.37409 0.79569 0.0
C1112 C 0.79488 0.35882 0.82185 0.0
C1113 C 0.80008 0.37959 0.83912 0.0
N1114 N 0.82917 0.41318 0.85509 0.0
N1115 N 0.81004 0.3331 0.7864 0.0
C1116 C 0.82187 0.39631 0.83589 0.0
C1117 C 0.81186 0.35499 0.80103 0.0
N1118 N 0.85274 0.41481 0.80628 0.0
N1119 N 0.77309 0.34359 0.82458 0.0
H1120 H 0.82225 0.3298 0.77102 0.0
H1121 H 0.79803 0.31734 0.79078 0.0
H1122 H 0.7606 0.3454 0.83998 0.0
H1123 H 0.76656 0.33018 0.81087 0.0
H1124 H 0.85465 0.43196 0.81663 0.0
H1125 H 0.8632 0.41514 0.7893 0.0
H1126 H 0.84636 0.42411 0.85497 0.0
H1127 H 0.81927 0.41432 0.87239 0.0
C1128 C 0.60151 0.2013 0.16367 0.0
C1129 C 0.6175 0.22382 0.16684 0.0
C1130 C 0.63785 0.20563 0.205 0.0
C1131 C 0.62234 0.18288 0.20141 0.0
N1132 N 0.59247 0.15699 0.17534 0.0
N1133 N 0.65409 0.24585 0.18697 0.0
C1134 C 0.60533 0.17998 0.17995 0.0
C1135 C 0.63664 0.22553 0.1865 0.0
N1136 N 0.5815 0.20091 0.1463 0.0
N1137 N 0.65342 0.20832 0.22632 0.0
H1138 H 0.65386 0.26062 0.17351 0.0
H1139 H 0.67008 0.24711 0.19924 0.0
H1140 H 0.65603 0.19353 0.23942 0.0
H1141 H 0.66277 0.22555 0.23178 0.0
H1142 H 0.56712 0.18647 0.1454 0.0
H1143 H 0.57792 0.21605 0.13395 0.0
H1144 H 0.58243 0.15272 0.15831 0.0
H1145 H 0.59317 0.14136 0.18769 0.0
C1146 C 0.86259 0.61313 0.17728 0.0
C1147 C 0.8597 0.62987 0.1986 0.0
C1148 C 0.82455 0.65118 0.17638 0.0
C1149 C 0.82717 0.63408 0.15536 0.0
N1150 N 0.85189 0.60317 0.13269 0.0
N1151 N 0.84202 0.66797 0.21688 0.0
C1152 C 0.84724 0.61639 0.15487 0.0
C1153 C 0.84209 0.65007 0.19755 0.0
N1154 N 0.8797 0.59383 0.17871 0.0
N1155 N 0.80452 0.66753 0.17662 0.0
H1156 H 0.85406 0.66724 0.23301 0.0
H1157 H 0.83148 0.68456 0.21616 0.0
H1158 H 0.79178 0.66928 0.16112 0.0
H1159 H 0.79958 0.67838 0.19256 0.0
H1160 H 0.88042 0.57891 0.16537 0.0
H1161 H 0.89264 0.59206 0.19401 0.0
H1162 H 0.86768 0.59171 0.13015 0.0
H1163 H 0.84109 0.60541 0.11586 0.0
C1164 C 0.39323 0.82436 0.14363 0.0
C1165 C 0.37917 0.80169 0.15088 0.0
C1166 C 0.36276 0.82363 0.18875 0.0
C1167 C 0.37702 0.84617 0.18164 0.0
N1168 N 0.40108 0.8702 0.14996 0.0
N1169 N 0.34584 0.78129 0.17623 0.0
C1170 C 0.39055 0.84729 0.15816 0.0
C1171 C 0.36246 0.80181 0.17223 0.0
N1172 N 0.41039 0.82358 0.12392 0.0
N1173 N 0.34997 0.82298 0.21158 0.0
H1174 H 0.34486 0.7652 0.16415 0.0
H1175 H 0.33146 0.78105 0.19001 0.0
H1176 H 0.34832 0.83916 0.22327 0.0
H1177 H 0.34198 0.80627 0.21952 0.0
H1178 H 0.42358 0.83847 0.11981 0.0
H1179 H 0.41281 0.80731 0.11262 0.0
H1180 H 0.40883 0.87289 0.13177 0.0
H1181 H 0.40021 0.88719 0.16056 0.0
C1182 C 0.18157 0.40222 0.18482 0.0
C1183 C 0.17931 0.38253 0.16591 0.0
C1184 C 0.14033 0.36512 0.18659 0.0
C1185 C 0.1444 0.38303 0.20703 0.0
N1186 N 0.17235 0.41482 0.22838 0.0
N1187 N 0.15923 0.34253 0.15104 0.0
C1188 C 0.16599 0.40055 0.20694 0.0
C1189 C 0.15939 0.36321 0.16734 0.0
N1190 N 0.19787 0.42307 0.18123 0.0
N1191 N 0.11788 0.35063 0.18502 0.0
H1192 H 0.17307 0.34021 0.13693 0.0
H1193 H 0.14677 0.32655 0.15303 0.0
H1194 H 0.10328 0.35175 0.19854 0.0
H1195 H 0.11271 0.33926 0.16911 0.0
H1196 H 0.19826 0.43919 0.1932 0.0
H1197 H 0.20907 0.42553 0.16485 0.0
H1198 H 0.18943 0.42586 0.23017 0.0
H1199 H 0.16203 0.41357 0.24542 0.0
C1200 C 0.8431 0.57823 0.8439 0.0
C1201 C 0.83561 0.60353 0.84962 0.0
C1202 C 0.8635 0.62053 0.81566 0.0
C1203 C 0.86816 0.595 0.80778 0.0
N1204 N 0.86007 0.54931 0.81221 0.0
N1205 N 0.83643 0.64873 0.83978 0.0
C1206 C 0.85753 0.57373 0.82142 0.0
C1207 C 0.84537 0.62475 0.83535 0.0
N1208 N 0.83691 0.5586 0.8603 0.0
N1209 N 0.87687 0.64066 0.80471 0.0
H1210 H 0.8233 0.65263 0.85419 0.0
H1211 H 0.84052 0.66442 0.82801 0.0
H1212 H 0.89046 0.63821 0.79036 0.0
H1213 H 0.87626 0.65951 0.81138 0.0
H1214 H 0.84404 0.54025 0.85855 0.0
H1215 H 0.82663 0.56128 0.87715 0.0
H1216 H 0.85019 0.53333 0.81967 0.0
H1217 H 0.87039 0.54514 0.79572 0.0
C1218 C 0.36307 0.79605 0.78791 0.0
C1219 C 0.37984 0.81794 0.79136 0.0
C1220 C 0.39811 0.79911 0.83028 0.0
C1221 C 0.38358 0.77607 0.82502 0.0
N1222 N 0.35341 0.75142 0.79834 0.0
N1223 N 0.41567 0.8393 0.81376 0.0
C1224 C 0.36634 0.7742 0.8037 0.0
C1225 C 0.39778 0.81939 0.81219 0.0
N1226 N 0.34352 0.79652 0.77008 0.0
N1227 N 0.41244 0.80154 0.85246 0.0
H1228 H 0.41629 0.85454 0.80091 0.0
H1229 H 0.43128 0.83977 0.82653 0.0
H1230 H 0.41432 0.78667 0.86561 0.0
H1231 H 0.42095 0.81887 0.85884 0.0
H1232 H 0.32908 0.78222 0.76828 0.0
H1233 H 0.34035 0.8124 0.75848 0.0
H1234 H 0.34299 0.74782 0.78141 0.0
H1235 H 0.35427 0.73544 0.81029 0.0
C1236 C 0.16353 0.34249 0.84646 0.0
C1237 C 0.16271 0.36319 0.86422 0.0
C1238 C 0.13761 0.38794 0.83376 0.0
C1239 C 0.13791 0.36708 0.81608 0.0
N1240 N 0.14529 0.32234 0.80789 0.0
N1241 N 0.14309 0.40199 0.87802 0.0
C1242 C 0.14901 0.34361 0.82318 0.0
C1243 C 0.14768 0.38469 0.85891 0.0
N1244 N 0.17924 0.3225 0.85111 0.0
N1245 N 0.12944 0.4114 0.82611 0.0
H1246 H 0.14995 0.39974 0.89679 0.0
H1247 H 0.13037 0.41688 0.87598 0.0
H1248 H 0.12272 0.41509 0.8076 0.0
H1249 H 0.13159 0.42792 0.83743 0.0
H1250 H 0.1831 0.30852 0.83743 0.0
H1251 H 0.18976 0.32072 0.86816 0.0
H1252 H 0.15082 0.30409 0.81326 0.0
H1253 H 0.13446 0.32246 0.79086 0.0
C1254 C 0.60026 0.16223 0.82238 0.0
C1255 C 0.62099 0.15919 0.80532 0.0
C1256 C 0.64129 0.19974 0.82061 0.0
C1257 C 0.61903 0.20421 0.83529 0.0
N1258 N 0.57571 0.19158 0.84771 0.0
N1259 N 0.66037 0.17543 0.78624 0.0
C1260 C 0.59813 0.18586 0.83573 0.0
C1261 C 0.64144 0.17794 0.80404 0.0
N1262 N 0.58284 0.14231 0.82609 0.0
N1263 N 0.66241 0.21608 0.82295 0.0
H1264 H 0.66142 0.15943 0.77419 0.0
H1265 H 0.67411 0.18986 0.78221 0.0
H1266 H 0.66282 0.23229 0.83485 0.0
H1267 H 0.68016 0.21253 0.8148 0.0
H1268 H 0.5688 0.14236 0.84021 0.0
H1269 H 0.58394 0.12466 0.81662 0.0
H1270 H 0.55883 0.18022 0.84616 0.0
H1271 H 0.57315 0.20882 0.85748 0.0
C1272 C 0.84853 0.34509 0.17155 0.0
C1273 C 0.84405 0.36114 0.19313 0.0
C1274 C 0.80022 0.36764 0.17723 0.0
C1275 C 0.80654 0.35592 0.15367 0.0
N1276 N 0.83693 0.33419 0.12739 0.0
N1277 N 0.81625 0.39094 0.2145 0.0
C1278 C 0.83067 0.34454 0.15058 0.0
C1279 C 0.81993 0.37304 0.19569 0.0
N1280 N 0.86942 0.32986 0.17143 0.0
N1281 N 0.77526 0.37354 0.18197 0.0
H1282 H 0.83019 0.39661 0.22807 0.0
H1283 H 0.80007 0.4022 0.2151 0.0
H1284 H 0.76026 0.36948 0.16887 0.0
H1285 H 0.76907 0.37982 0.19985 0.0
H1286 H 0.87241 0.31609 0.15728 0.0
H1287 H 0.8824 0.32912 0.18684 0.0
H1288 H 0.85537 0.32835 0.12307 0.0
H1289 H 0.82403 0.33296 0.11186 0.0
C1290 C 0.63906 0.82393 0.17522 0.0
C1291 C 0.62213 0.84465 0.17459 0.0
C1292 C 0.60765 0.83263 0.1311 0.0
C1293 C 0.62434 0.81166 0.13183 0.0
N1294 N 0.66026 0.79079 0.15119 0.0
N1295 N 0.59503 0.87266 0.15052 0.0
C1296 C 0.64149 0.80845 0.15287 0.0
C1297 C 0.60808 0.85036 0.15195 0.0
N1298 N 0.65213 0.81864 0.19743 0.0
N1299 N 0.59022 0.83464 0.11135 0.0
H1300 H 0.59448 0.88579 0.16571 0.0
H1301 H 0.58657 0.87923 0.13366 0.0
H1302 H 0.58949 0.82228 0.09551 0.0
H1303 H 0.57536 0.84752 0.11136 0.0
H1304 H 0.66246 0.80209 0.20015 0.0
H1305 H 0.6516 0.83031 0.21378 0.0
H1306 H 0.6748 0.78883 0.16491 0.0
H1307 H 0.66268 0.7796 0.13475 0.0
C1308 C 0.18235 0.59833 0.20864 0.0
C1309 C 0.16359 0.61722 0.21134 0.0
C1310 C 0.17971 0.639 0.17275 0.0
C1311 C 0.19986 0.62136 0.1715 0.0
N1312 N 0.22396 0.58809 0.19191 0.0
N1313 N 0.14692 0.65802 0.19885 0.0
C1314 C 0.20223 0.60212 0.19051 0.0
C1315 C 0.16292 0.63828 0.19418 0.0
N1316 N 0.18059 0.57618 0.2226 0.0
N1317 N 0.17599 0.65574 0.15303 0.0
H1318 H 0.13447 0.65823 0.21444 0.0
H1319 H 0.14755 0.67513 0.1886 0.0
H1320 H 0.1879 0.6568 0.13703 0.0
H1321 H 0.15995 0.66709 0.15151 0.0
H1322 H 0.19216 0.56059 0.21933 0.0
H1323 H 0.16588 0.57223 0.23563 0.0
H1324 H 0.22782 0.57572 0.20703 0.0
H1325 H 0.23942 0.59076 0.1795 0.0
C1326 C 0.35299 0.15896 0.15109 0.0
C1327 C 0.37465 0.16452 0.13548 0.0
C1328 C 0.39875 0.1311 0.15706 0.0
C1329 C 0.37854 0.12818 0.17504 0.0
N1330 N 0.33668 0.13952 0.1902 0.0
N1331 N 0.41808 0.15632 0.12279 0.0
C1332 C 0.3555 0.14182 0.1721 0.0
C1333 C 0.39747 0.15056 0.13812 0.0
N1334 N 0.33015 0.17026 0.14592 0.0
N1335 N 0.41875 0.1147 0.15772 0.0
H1336 H 0.41711 0.16907 0.10744 0.0
H1337 H 0.4364 0.14936 0.12583 0.0
H1338 H 0.41997 0.09995 0.1711 0.0
H1339 H 0.43293 0.11416 0.14379 0.0
H1340 H 0.31289 0.16513 0.15482 0.0
H1341 H 0.32792 0.18351 0.13118 0.0
H1342 H 0.32087 0.15122 0.191 0.0
H1343 H 0.33754 0.12684 0.20557 0.0
C1344 C 0.80074 0.80063 0.62014 0.0
C1345 C 0.81396 0.79578 0.597 0.0
C1346 C 0.7839 0.82199 0.5729 0.0
C1347 C 0.77172 0.8282 0.59629 0.0
N1348 N 0.77002 0.82649 0.64253 0.0
N1349 N 0.82141 0.80515 0.55228 0.0
C1350 C 0.78065 0.8185 0.62006 0.0
C1351 C 0.80638 0.80728 0.57357 0.0
N1352 N 0.80662 0.7873 0.64188 0.0
N1353 N 0.7739 0.83009 0.55001 0.0
H1354 H 0.83826 0.79484 0.55208 0.0
H1355 H 0.81853 0.81537 0.53541 0.0
H1356 H 0.75835 0.84216 0.54871 0.0
H1357 H 0.77991 0.82356 0.53218 0.0
H1358 H 0.79589 0.78785 0.65863 0.0
H1359 H 0.82115 0.77399 0.64262 0.0
H1360 H 0.77755 0.82245 0.66063 0.0
H1361 H 0.75453 0.8387 0.64311 0.0
C1362 C 0.87218 0.15404 0.35921 0.0
C1363 C 0.8679 0.17734 0.34618 0.0
C1364 C 0.82526 0.16119 0.33171 0.0
C1365 C 0.82852 0.13913 0.34709 0.0
N1366 N 0.85664 0.11062 0.36892 0.0
N1367 N 0.8442 0.20087 0.31466 0.0
C1368 C 0.85266 0.13424 0.35859 0.0
C1369 C 0.84576 0.18002 0.33035 0.0
N1370 N 0.89452 0.15148 0.373 0.0
N1371 N 0.80205 0.16481 0.31983 0.0
H1372 H 0.85881 0.21508 0.31369 0.0
H1373 H 0.82951 0.20328 0.30122 0.0
H1374 H 0.78719 0.1508 0.31951 0.0
H1375 H 0.79711 0.18177 0.31089 0.0
H1376 H 0.89785 0.13639 0.38547 0.0
H1377 H 0.90974 0.1651 0.37235 0.0
H1378 H 0.87429 0.10491 0.37615 0.0
H1379 H 0.84253 0.09582 0.36829 0.0
C1380 C 0.78456 0.81802 0.38352 0.0
C1381 C 0.78236 0.83314 0.40613 0.0
C1382 C 0.81711 0.81007 0.42687 0.0
C1383 C 0.82045 0.79613 0.4037 0.0
N1384 N 0.81052 0.78919 0.35879 0.0
N1385 N 0.79931 0.84721 0.44743 0.0
C1386 C 0.80508 0.80079 0.38165 0.0
C1387 C 0.79944 0.83022 0.42729 0.0
N1388 N 0.76642 0.81933 0.36434 0.0
N1389 N 0.83002 0.80335 0.44876 0.0
H1390 H 0.78672 0.86235 0.44834 0.0
H1391 H 0.81314 0.84778 0.4621 0.0
H1392 H 0.84318 0.78869 0.4493 0.0
H1393 H 0.82614 0.8108 0.46687 0.0
H1394 H 0.76529 0.80676 0.34869 0.0
H1395 H 0.75115 0.83177 0.36497 0.0
H1396 H 0.80184 0.79385 0.34137 0.0
H1397 H 0.82528 0.77627 0.35682 0.0
C1398 C 0.14733 0.82154 0.33416 0.0
C1399 C 0.12541 0.82822 0.3483 0.0
C1400 C 0.14112 0.87301 0.35031 0.0
C1401 C 0.16513 0.86513 0.3411 0.0
N1402 N 0.19125 0.83309 0.32202 0.0
N1403 N 0.09975 0.86009 0.3684 0.0
C1404 C 0.16812 0.83981 0.33183 0.0
C1405 C 0.1215 0.85407 0.35545 0.0
N1406 N 0.1481 0.7977 0.32315 0.0
N1407 N 0.13744 0.89854 0.35439 0.0
H1408 H 0.0847 0.84672 0.37162 0.0
H1409 H 0.09694 0.87794 0.37679 0.0
H1410 H 0.15164 0.91259 0.35037 0.0
H1411 H 0.11986 0.90599 0.35945 0.0
H1412 H 0.16268 0.79198 0.31106 0.0
H1413 H 0.13274 0.78429 0.32437 0.0
H1414 H 0.19589 0.8143 0.31767 0.0
H1415 H 0.20629 0.84653 0.31894 0.0
C1416 C 0.20984 0.1929 0.37172 0.0
C1417 C 0.21387 0.17516 0.39183 0.0
C1418 C 0.17975 0.19417 0.41693 0.0
C1419 C 0.17744 0.21342 0.39798 0.0
N1420 N 0.19227 0.23348 0.35894 0.0
N1421 N 0.20621 0.1616 0.43548 0.0
C1422 C 0.19298 0.21342 0.37573 0.0
C1423 C 0.19975 0.17646 0.41496 0.0
N1424 N 0.2215 0.18964 0.34856 0.0
N1425 N 0.16228 0.19227 0.43637 0.0
H1426 H 0.22102 0.14861 0.43503 0.0
H1427 H 0.19851 0.16382 0.45373 0.0
H1428 H 0.14717 0.20477 0.43839 0.0
H1429 H 0.16128 0.17691 0.44909 0.0
H1430 H 0.21722 0.20027 0.33227 0.0
H1431 H 0.23398 0.17482 0.34496 0.0
H1432 H 0.20516 0.23606 0.34391 0.0
H1433 H 0.18001 0.24874 0.36119 0.0
C1434 C 0.22407 0.18772 0.59927 0.0
C1435 C 0.21805 0.16423 0.61189 0.0
C1436 C 0.17721 0.1812 0.62628 0.0
C1437 C 0.18191 0.20334 0.61103 0.0
N1438 N 0.20766 0.22566 0.57925 0.0
N1439 N 0.1875 0.13698 0.63458 0.0
C1440 C 0.2048 0.20613 0.59655 0.0
C1441 C 0.19428 0.16053 0.62477 0.0
N1442 N 0.24848 0.19282 0.59062 0.0
N1443 N 0.1569 0.18028 0.64278 0.0
H1444 H 0.19943 0.12132 0.63375 0.0
H1445 H 0.16923 0.13236 0.64161 0.0
H1446 H 0.1441 0.19516 0.64455 0.0
H1447 H 0.15407 0.16585 0.65634 0.0
H1448 H 0.25466 0.21072 0.58373 0.0
H1449 H 0.26335 0.18004 0.59271 0.0
H1450 H 0.22268 0.2269 0.56617 0.0
H1451 H 0.19376 0.23931 0.57617 0.0
C1452 C 0.8253 0.14339 0.64867 0.0
C1453 C 0.82607 0.12103 0.63308 0.0
C1454 C 0.87022 0.13221 0.62042 0.0
C1455 C 0.86859 0.15567 0.63421 0.0
N1456 N 0.84856 0.18076 0.66677 0.0
N1457 N 0.8507 0.09022 0.61018 0.0
C1458 C 0.84739 0.16022 0.65025 0.0
C1459 C 0.8492 0.114 0.62121 0.0
N1460 N 0.80304 0.14887 0.66104 0.0
N1461 N 0.89099 0.12825 0.60516 0.0
H1462 H 0.83534 0.07676 0.61007 0.0
H1463 H 0.86766 0.08298 0.6031 0.0
H1464 H 0.907 0.14091 0.60464 0.0
H1465 H 0.892 0.1131 0.59213 0.0
H1466 H 0.79995 0.16621 0.67032 0.0
H1467 H 0.78715 0.13601 0.66141 0.0
H1468 H 0.8346 0.18441 0.68036 0.0
H1469 H 0.86479 0.19315 0.66824 0.0
C1470 C 0.15243 0.87515 0.62904 0.0
C1471 C 0.17677 0.86914 0.63951 0.0
C1472 C 0.15944 0.82787 0.65491 0.0
C1473 C 0.13559 0.8331 0.64278 0.0
N1474 N 0.1067 0.86384 0.62568 0.0
N1475 N 0.20196 0.84414 0.6685 0.0
C1476 C 0.13121 0.85759 0.63234 0.0
C1477 C 0.17969 0.84698 0.65471 0.0
N1478 N 0.14999 0.89708 0.61506 0.0
N1479 N 0.16324 0.80412 0.66501 0.0
H1480 H 0.21703 0.85795 0.66849 0.0
H1481 H 0.20463 0.82944 0.68162 0.0
H1482 H 0.1486 0.78994 0.66609 0.0
H1483 H 0.1811 0.79799 0.67128 0.0
H1484 H 0.13362 0.90117 0.60432 0.0
H1485 H 0.16495 0.91089 0.61343 0.0
H1486 H 0.10168 0.88202 0.61963 0.0
H1487 H 0.0909 0.8513 0.62868 0.0
C1488 C 0.08093 0.28663 0.48614 0.0
C1489 C 0.10371 0.29049 0.47163 0.0
C1490 C 0.12999 0.2916 0.51109 0.0
C1491 C 0.10723 0.28782 0.52561 0.0
N1492 N 0.06071 0.28681 0.52785 0.0
N1493 N 0.1489 0.30241 0.4699 0.0
C1494 C 0.08257 0.28723 0.51342 0.0
C1495 C 0.12797 0.29473 0.48403 0.0
N1496 N 0.05798 0.28063 0.47393 0.0
N1497 N 0.15354 0.29174 0.52318 0.0
H1498 H 0.14787 0.30526 0.45008 0.0
H1499 H 0.16665 0.30814 0.47794 0.0
H1500 H 0.15568 0.29125 0.54314 0.0
H1501 H 0.17094 0.29116 0.5135 0.0
H1502 H 0.04147 0.27413 0.4834 0.0
H1503 H 0.05573 0.28029 0.45401 0.0
H1504 H 0.04238 0.28945 0.52019 0.0
H1505 H 0.06082 0.28566 0.54783 0.0
C1506 C 0.77918 0.14592 0.50884 0.0
C1507 C 0.75595 0.14173 0.5226 0.0
C1508 C 0.73145 0.13724 0.48219 0.0
C1509 C 0.75459 0.14183 0.46847 0.0
N1510 N 0.79903 0.15679 0.46815 0.0
N1511 N 0.70951 0.13985 0.52296 0.0
C1512 C 0.77801 0.14822 0.48166 0.0
C1513 C 0.7319 0.13943 0.50942 0.0
N1514 N 0.80244 0.14614 0.52147 0.0
N1515 N 0.70935 0.12948 0.46935 0.0
H1516 H 0.70921 0.14178 0.54293 0.0
H1517 H 0.69136 0.14079 0.51434 0.0
H1518 H 0.70813 0.12791 0.44938 0.0
H1519 H 0.69271 0.12286 0.47854 0.0
H1520 H 0.82006 0.14617 0.51211 0.0
H1521 H 0.80427 0.14427 0.54134 0.0
H1522 H 0.81589 0.16427 0.47682 0.0
H1523 H 0.79871 0.15871 0.44819 0.0
C1524 C 0.87583 0.71201 0.49512 0.0
C1525 C 0.89886 0.71765 0.48151 0.0
C1526 C 0.92255 0.72545 0.52201 0.0
C1527 C 0.89933 0.72051 0.53553 0.0
N1528 N 0.85562 0.7036 0.53626 0.0
N1529 N 0.94515 0.72487 0.48154 0.0
C1530 C 0.87648 0.71203 0.52244 0.0
C1531 C 0.92261 0.72249 0.49484 0.0
N1532 N 0.85326 0.70721 0.48184 0.0
N1533 N 0.94407 0.73472 0.53496 0.0
H1534 H 0.94605 0.72478 0.46157 0.0
H1535 H 0.96331 0.72524 0.49026 0.0
H1536 H 0.94509 0.73664 0.55489 0.0
H1537 H 0.96054 0.74207 0.526 0.0
H1538 H 0.83521 0.70618 0.49034 0.0
H1539 H 0.85245 0.70516 0.46189 0.0
H1540 H 0.83904 0.69502 0.52811 0.0
H1541 H 0.85574 0.70322 0.55632 0.0
C1542 C 0.24116 0.90678 0.47401 0.0
C1543 C 0.22283 0.89085 0.46041 0.0
C1544 C 0.20752 0.8724 0.50099 0.0
C1545 C 0.2238 0.89036 0.51459 0.0
N1546 N 0.25368 0.927 0.5145 0.0
N1547 N 0.18772 0.85919 0.46031 0.0
C1548 C 0.24022 0.90799 0.50126 0.0
C1549 C 0.20576 0.87382 0.47374 0.0
N1550 N 0.25933 0.921 0.46094 0.0
N1551 N 0.19442 0.85348 0.51414 0.0
H1552 H 0.18706 0.8583 0.44027 0.0
H1553 H 0.17264 0.84885 0.4689 0.0
H1554 H 0.19545 0.85181 0.53409 0.0
H1555 H 0.18424 0.8382 0.50531 0.0
H1556 H 0.27508 0.93046 0.46984 0.0
H1557 H 0.25993 0.92193 0.44097 0.0
H1558 H 0.26329 0.94241 0.50571 0.0
H1559 H 0.25358 0.92873 0.53445 0.0
C1560 C 0.13397 0.74515 0.51278 0.0
C1561 C 0.13073 0.76866 0.52602 0.0
C1562 C 0.12881 0.79185 0.48526 0.0
C1563 C 0.13183 0.76831 0.47197 0.0
N1564 N 0.14204 0.72353 0.47233 0.0
N1565 N 0.13049 0.81488 0.52603 0.0
C1566 C 0.13608 0.74526 0.48554 0.0
C1567 C 0.12985 0.79221 0.51258 0.0
N1568 N 0.13394 0.72266 0.52622 0.0
N1569 N 0.12438 0.81371 0.47171 0.0
H1570 H 0.13111 0.81573 0.54607 0.0
H1571 H 0.13247 0.83286 0.51752 0.0
H1572 H 0.12497 0.81445 0.45168 0.0
H1573 H 0.11897 0.83085 0.48009 0.0
H1574 H 0.1332 0.70454 0.51766 0.0
H1575 H 0.13325 0.72201 0.54625 0.0
H1576 H 0.14795 0.70679 0.48109 0.0
H1577 H 0.14287 0.7227 0.45232 0.0
C1578 C 0.29662 0.0764 0.47415 0.0
C1579 C 0.30082 0.09843 0.45856 0.0
C1580 C 0.31228 0.12446 0.4967 0.0
C1581 C 0.30797 0.10247 0.51216 0.0
N1582 N 0.30211 0.05655 0.51582 0.0
N1583 N 0.31811 0.14163 0.4538 0.0
C1584 C 0.30237 0.07806 0.50087 0.0
C1585 C 0.31045 0.12193 0.4695 0.0
N1586 N 0.28531 0.05449 0.46386 0.0
N1587 N 0.31726 0.14784 0.50812 0.0
H1588 H 0.31719 0.14016 0.4338 0.0
H1589 H 0.32742 0.15849 0.46036 0.0
H1590 H 0.32 0.15002 0.52794 0.0
H1591 H 0.31751 0.16516 0.49823 0.0
H1592 H 0.27885 0.03894 0.47481 0.0
H1593 H 0.28041 0.05248 0.44447 0.0
H1594 H 0.30068 0.03794 0.5084 0.0
H1595 H 0.30558 0.05718 0.53561 0.0
C1596 C 0.86005 0.22782 0.51164 0.0
C1597 C 0.88131 0.21417 0.52113 0.0
C1598 C 0.8955 0.20638 0.47717 0.0
C1599 C 0.87617 0.22265 0.46791 0.0
N1600 N 0.84143 0.25097 0.47602 0.0
N1601 N 0.92151 0.19362 0.51343 0.0
C1602 C 0.85868 0.23385 0.48503 0.0
C1603 C 0.8996 0.20419 0.50404 0.0
N1604 N 0.84082 0.2343 0.52792 0.0
N1605 N 0.90934 0.19232 0.46027 0.0
H1606 H 0.92536 0.19156 0.533 0.0
H1607 H 0.93695 0.18892 0.50191 0.0
H1608 H 0.90651 0.19295 0.44041 0.0
H1609 H 0.9218 0.17813 0.46598 0.0
H1610 H 0.82354 0.24186 0.52173 0.0
H1611 H 0.84115 0.23006 0.5475 0.0
H1612 H 0.83014 0.26197 0.48792 0.0
H1613 H 0.83973 0.25562 0.45661 0.0
C1614 C 0.67933 0.87303 0.48115 0.0
C1615 C 0.68923 0.89454 0.46734 0.0
C1616 C 0.69859 0.91786 0.50748 0.0
C1617 C 0.68821 0.89661 0.52138 0.0
N1618 N 0.66435 0.85615 0.52202 0.0
N1619 N 0.70171 0.93952 0.46653 0.0
C1620 C 0.6771 0.87487 0.50835 0.0
C1621 C 0.69669 0.91767 0.4803 0.0
N1622 N 0.67332 0.85052 0.46843 0.0
N1623 N 0.71171 0.9375 0.52009 0.0
H1624 H 0.70014 0.94005 0.44654 0.0
H1625 H 0.70486 0.95757 0.47496 0.0
H1626 H 0.71411 0.93823 0.53999 0.0
H1627 H 0.7222 0.95199 0.51072 0.0
H1628 H 0.66885 0.83328 0.47766 0.0
H1629 H 0.67427 0.84868 0.44849 0.0
H1630 H 0.65374 0.84095 0.51354 0.0
H1631 H 0.66266 0.85698 0.54198 0.0
C1632 C 0.50156 0.08691 0.25727 0.0
C1633 C 0.48917 0.11027 0.25231 0.0
C1634 C 0.52864 0.13489 0.26458 0.0
C1635 C 0.54165 0.11156 0.26703 0.0
N1636 N 0.54183 0.06538 0.26318 0.0
N1637 N 0.49059 0.15649 0.24973 0.0
C1638 C 0.52841 0.08753 0.26304 0.0
C1639 C 0.50262 0.1343 0.2556 0.0
N1640 N 0.48771 0.06408 0.25618 0.0
N1641 N 0.54114 0.15753 0.27139 0.0
H1642 H 0.47117 0.15687 0.2444 0.0
H1643 H 0.50004 0.17441 0.24879 0.0
H1644 H 0.56018 0.15847 0.27811 0.0
H1645 H 0.53224 0.17508 0.2724 0.0
H1646 H 0.49471 0.04678 0.26271 0.0
H1647 H 0.46852 0.06255 0.25013 0.0
H1648 H 0.53408 0.04762 0.25713 0.0
H1649 H 0.56142 0.0649 0.26771 0.0
C1650 C 0.89963 0.50041 0.26707 0.0
C1651 C 0.87794 0.51347 0.25764 0.0
C1652 C 0.85393 0.47241 0.25182 0.0
C1653 C 0.87663 0.45931 0.25796 0.0
N1654 N 0.92169 0.46027 0.27007 0.0
N1655 N 0.83456 0.51253 0.24043 0.0
C1656 C 0.89956 0.47312 0.26567 0.0
C1657 C 0.85507 0.49963 0.24992 0.0
N1658 N 0.92046 0.5141 0.277 0.0
N1659 N 0.8311 0.45874 0.24862 0.0
H1660 H 0.83396 0.53253 0.24043 0.0
H1661 H 0.81863 0.50355 0.23141 0.0
H1662 H 0.8296 0.43883 0.25058 0.0
H1663 H 0.81332 0.46712 0.24644 0.0
H1664 H 0.93551 0.5058 0.28696 0.0
H1665 H 0.92206 0.5341 0.27684 0.0
H1666 H 0.9398 0.46927 0.27242 0.0
H1667 H 0.92241 0.44031 0.26985 0.0
C1668 C 0.52393 0.87276 0.26713 0.0
C1669 C 0.53756 0.89422 0.25652 0.0
C1670 C 0.49721 0.91107 0.23983 0.0
C1671 C 0.48391 0.88843 0.24831 0.0
N1672 N 0.48399 0.84696 0.26853 0.0
N1673 N 0.53803 0.93406 0.23314 0.0
C1674 C 0.49704 0.86918 0.26186 0.0
C1675 C 0.5244 0.9135 0.24304 0.0
N1676 N 0.53676 0.85577 0.28208 0.0
N1677 N 0.48365 0.9306 0.22944 0.0
H1678 H 0.55751 0.93788 0.23727 0.0
H1679 H 0.53046 0.94698 0.22015 0.0
H1680 H 0.46383 0.92927 0.22616 0.0
H1681 H 0.4915 0.94879 0.22556 0.0
H1682 H 0.52769 0.84128 0.2927 0.0
H1683 H 0.55663 0.85705 0.28522 0.0
H1684 H 0.49278 0.8309 0.27589 0.0
H1685 H 0.46426 0.84387 0.26523 0.0
C1686 C 0.06794 0.52328 0.29622 0.0
C1687 C 0.09203 0.53671 0.30001 0.0
C1688 C 0.11289 0.49615 0.30889 0.0
C1689 C 0.08968 0.48268 0.30176 0.0
N1690 N 0.04544 0.48262 0.287 0.0
N1691 N 0.13751 0.5367 0.30977 0.0
C1692 C 0.06712 0.496 0.29548 0.0
C1693 C 0.11452 0.52335 0.3065 0.0
N1694 N 0.04591 0.53655 0.29269 0.0
N1695 N 0.13315 0.48283 0.31826 0.0
H1696 H 0.13906 0.55673 0.30967 0.0
H1697 H 0.15521 0.52807 0.31149 0.0
H1698 H 0.13232 0.46289 0.32028 0.0
H1699 H 0.14993 0.49147 0.32595 0.0
H1700 H 0.02747 0.52805 0.29316 0.0
H1701 H 0.04571 0.55643 0.29089 0.0
H1702 H 0.0295 0.49118 0.27886 0.0
H1703 H 0.04384 0.46262 0.28643 0.0
C1704 C 0.47476 0.87137 0.76037 0.0
C1705 C 0.46128 0.89329 0.75284 0.0
C1706 C 0.50206 0.91763 0.7469 0.0
C1707 C 0.51527 0.89685 0.75776 0.0
N1708 N 0.5151 0.85394 0.7749 0.0
N1709 N 0.46098 0.93694 0.73805 0.0
C1710 C 0.50188 0.8736 0.76432 0.0
C1711 C 0.47465 0.91625 0.7455 0.0
N1712 N 0.46152 0.84844 0.76344 0.0
N1713 N 0.51575 0.93869 0.73815 0.0
H1714 H 0.44105 0.93586 0.73518 0.0
H1715 H 0.469 0.95531 0.73546 0.0
H1716 H 0.53576 0.94076 0.73984 0.0
H1717 H 0.50766 0.9535 0.72786 0.0
H1718 H 0.47024 0.8311 0.76685 0.0
H1719 H 0.44165 0.84631 0.7604 0.0
H1720 H 0.50633 0.83765 0.78293 0.0
H1721 H 0.53513 0.85439 0.77677 0.0
C1722 C 0.0716 0.47919 0.72992 0.0
C1723 C 0.09282 0.46342 0.72546 0.0
C1724 C 0.12201 0.50149 0.72417 0.0
C1725 C 0.10058 0.51721 0.72766 0.0
N1726 N 0.05454 0.52173 0.72741 0.0
N1727 N 0.13712 0.45928 0.7132 0.0
C1728 C 0.07522 0.50624 0.7285 0.0
C1729 C 0.11774 0.47451 0.721 0.0
N1730 N 0.04831 0.46844 0.73693 0.0
N1731 N 0.14645 0.51218 0.72502 0.0
H1732 H 0.13456 0.43947 0.71058 0.0
H1733 H 0.15501 0.46647 0.70717 0.0
H1734 H 0.15025 0.53191 0.72682 0.0
H1735 H 0.16296 0.50143 0.72564 0.0
H1736 H 0.03306 0.47915 0.74333 0.0
H1737 H 0.04481 0.44869 0.73857 0.0
H1738 H 0.03555 0.5148 0.72539 0.0
H1739 H 0.05656 0.54162 0.72586 0.0
C1740 C 0.4787 0.0794 0.73197 0.0
C1741 C 0.46339 0.10121 0.72887 0.0
C1742 C 0.50114 0.12997 0.73637 0.0
C1743 C 0.5166 0.10819 0.73887 0.0
N1744 N 0.52147 0.06237 0.73548 0.0
N1745 N 0.46012 0.1468 0.723 0.0
C1746 C 0.50582 0.08295 0.73535 0.0
C1747 C 0.47465 0.1264 0.7296 0.0
N1748 N 0.46713 0.05541 0.73314 0.0
N1749 N 0.51175 0.15404 0.74076 0.0
H1750 H 0.4407 0.14477 0.71765 0.0
H1751 H 0.46763 0.16541 0.72064 0.0
H1752 H 0.53141 0.15759 0.74411 0.0
H1753 H 0.50097 0.17042 0.74243 0.0
H1754 H 0.47669 0.03904 0.73855 0.0
H1755 H 0.44738 0.05197 0.73036 0.0
H1756 H 0.5153 0.04387 0.73005 0.0
H1757 H 0.54119 0.06393 0.73946 0.0
C1758 C 0.89194 0.49911 0.73295 0.0
C1759 C 0.87111 0.51207 0.72171 0.0
C1760 C 0.85313 0.47109 0.7048 0.0
C1761 C 0.87544 0.45873 0.71376 0.0
N1762 N 0.91899 0.46244 0.73062 0.0
N1763 N 0.834 0.51132 0.69333 0.0
C1764 C 0.89574 0.4732 0.7261 0.0
C1765 C 0.85227 0.49834 0.70657 0.0
N1766 N 0.90735 0.51106 0.75121 0.0
N1767 N 0.83229 0.45684 0.69578 0.0
H1768 H 0.83281 0.53126 0.69416 0.0
H1769 H 0.82148 0.50258 0.67986 0.0
H1770 H 0.83197 0.43685 0.6945 0.0
H1771 H 0.81453 0.46465 0.69164 0.0
H1772 H 0.92125 0.50157 0.76177 0.0
H1773 H 0.90436 0.52962 0.75789 0.0
H1774 H 0.93517 0.47297 0.73735 0.0
H1775 H 0.92294 0.44375 0.72497 0.0
C1776 C 0.26647 0.5018 0.08596 0.0
C1777 C 0.27312 0.51708 0.10787 0.0
C1778 C 0.26789 0.47958 0.13581 0.0
C1779 C 0.26132 0.46428 0.11389 0.0
N1780 N 0.25995 0.45904 0.06781 0.0
N1781 N 0.28582 0.52016 0.15245 0.0
C1782 C 0.26241 0.47487 0.08884 0.0
C1783 C 0.27568 0.50578 0.13245 0.0
N1784 N 0.26268 0.51319 0.06266 0.0
N1785 N 0.26534 0.46944 0.15988 0.0
H1786 H 0.29175 0.5394 0.15044 0.0
H1787 H 0.29051 0.51257 0.17029 0.0
H1788 H 0.25992 0.45027 0.1631 0.0
H1789 H 0.26688 0.48035 0.17669 0.0
H1790 H 0.25457 0.50362 0.04674 0.0
H1791 H 0.26617 0.53276 0.05956 0.0
H1792 H 0.26315 0.46513 0.04906 0.0
H1793 H 0.25692 0.43922 0.06926 0.0
C1794 C 0.20354 0.51028 0.88676 0.0
C1795 C 0.21845 0.52509 0.9049 0.0
C1796 C 0.22969 0.48602 0.9279 0.0
C1797 C 0.216 0.47119 0.90894 0.0
N1798 N 0.19339 0.46823 0.8682 0.0
N1799 N 0.24818 0.52754 0.94097 0.0
C1800 C 0.2038 0.48305 0.8878 0.0
C1801 C 0.2324 0.51308 0.92487 0.0
N1802 N 0.18902 0.52228 0.86863 0.0
N1803 N 0.23899 0.47436 0.94943 0.0
H1804 H 0.24958 0.54753 0.94038 0.0
H1805 H 0.26114 0.51975 0.95391 0.0
H1806 H 0.23742 0.45456 0.9523 0.0
H1807 H 0.2465 0.48431 0.96539 0.0
H1808 H 0.17533 0.51277 0.8569 0.0
H1809 H 0.18952 0.54214 0.8662 0.0
H1810 H 0.18667 0.47563 0.85095 0.0
H1811 H 0.19332 0.4482 0.86822 0.0
C1812 C 0.47964 0.28804 0.89599 0.0
C1813 C 0.46888 0.26337 0.88922 0.0
C1814 C 0.51208 0.24661 0.88663 0.0
C1815 C 0.52295 0.27165 0.89129 0.0
N1816 N 0.51673 0.31733 0.89287 0.0
N1817 N 0.47546 0.22215 0.86929 0.0
C1818 C 0.50662 0.29277 0.89355 0.0
C1819 C 0.48531 0.24363 0.88161 0.0
N1820 N 0.46471 0.30651 0.90621 0.0
N1821 N 0.52666 0.22537 0.88882 0.0
H1822 H 0.45603 0.21986 0.86407 0.0
H1823 H 0.48709 0.20819 0.86157 0.0
H1824 H 0.54587 0.22609 0.89483 0.0
H1825 H 0.51874 0.20671 0.88773 0.0
H1826 H 0.47242 0.32366 0.91395 0.0
H1827 H 0.44503 0.30395 0.9093 0.0
H1828 H 0.50533 0.33338 0.89211 0.0
H1829 H 0.53631 0.32154 0.89017 0.0
C1830 C 0.74937 0.50327 0.88793 0.0
C1831 C 0.75688 0.51808 0.90992 0.0
C1832 C 0.75114 0.48018 0.93723 0.0
C1833 C 0.74232 0.46578 0.9154 0.0
N1834 N 0.72675 0.46503 0.87155 0.0
N1835 N 0.75926 0.52239 0.95612 0.0
C1836 C 0.73945 0.47781 0.89122 0.0
C1837 C 0.75604 0.50707 0.9348 0.0
N1838 N 0.75301 0.51296 0.86381 0.0
N1839 N 0.75615 0.46807 0.95989 0.0
H1840 H 0.76256 0.54223 0.95511 0.0
H1841 H 0.75625 0.51585 0.97477 0.0
H1842 H 0.75295 0.4484 0.9625 0.0
H1843 H 0.7654 0.47716 0.97551 0.0
H1844 H 0.75053 0.50193 0.84713 0.0
H1845 H 0.76085 0.53132 0.86042 0.0
H1846 H 0.72188 0.4737 0.85426 0.0
H1847 H 0.71867 0.44652 0.87354 0.0
C1848 C 0.48424 0.70374 0.90618 0.0
C1849 C 0.4701 0.70185 0.8827 0.0
C1850 C 0.50885 0.71397 0.85852 0.0
C1851 C 0.52303 0.71545 0.88197 0.0
N1852 N 0.52618 0.70637 0.92723 0.0
N1853 N 0.46917 0.70016 0.83645 0.0
C1854 C 0.51131 0.70859 0.90554 0.0
C1855 C 0.48253 0.70536 0.8588 0.0
N1856 N 0.47164 0.70229 0.92911 0.0
N1857 N 0.52024 0.72185 0.8362 0.0
H1858 H 0.44985 0.69386 0.83615 0.0
H1859 H 0.47763 0.69998 0.81842 0.0
H1860 H 0.53964 0.72768 0.83524 0.0
H1861 H 0.51023 0.7241 0.81896 0.0
H1862 H 0.4804 0.70676 0.94676 0.0
H1863 H 0.45187 0.69838 0.93048 0.0
H1864 H 0.51925 0.69898 0.94447 0.0
H1865 H 0.54609 0.70975 0.92735 0.0
C1866 C 0.78309 0.51003 0.11906 0.0
C1867 C 0.77633 0.52601 0.09828 0.0
C1868 C 0.76393 0.48826 0.072 0.0
C1869 C 0.77259 0.47229 0.09207 0.0
N1870 N 0.79409 0.46746 0.13306 0.0
N1871 N 0.76373 0.53099 0.05386 0.0
C1872 C 0.78311 0.48302 0.11522 0.0
C1873 C 0.76763 0.51532 0.07443 0.0
N1874 N 0.78882 0.52066 0.14264 0.0
N1875 N 0.75141 0.47757 0.05104 0.0
H1876 H 0.76577 0.55093 0.05506 0.0
H1877 H 0.76036 0.52427 0.03519 0.0
H1878 H 0.74847 0.45779 0.04856 0.0
H1879 H 0.74216 0.48824 0.03707 0.0
H1880 H 0.79111 0.50992 0.15927 0.0
H1881 H 0.78925 0.54043 0.14609 0.0
H1882 H 0.8046 0.47436 0.14898 0.0
H1883 H 0.79462 0.44757 0.13091 0.0
C1884 C 0.50764 0.73124 0.08155 0.0
C1885 C 0.52193 0.74751 0.09892 0.0
C1886 C 0.48196 0.76408 0.11599 0.0
C1887 C 0.46771 0.74743 0.099 0.0
N1888 N 0.4662 0.71133 0.06972 0.0
N1889 N 0.52324 0.77521 0.13624 0.0
C1890 C 0.48033 0.72965 0.0832 0.0
C1891 C 0.50923 0.76272 0.11723 0.0
N1892 N 0.52001 0.71858 0.06246 0.0
N1893 N 0.46939 0.78144 0.13065 0.0
H1894 H 0.54324 0.77429 0.13791 0.0
H1895 H 0.51502 0.78462 0.15164 0.0
H1896 H 0.44934 0.78175 0.13157 0.0
H1897 H 0.47873 0.7963 0.14096 0.0
H1898 H 0.51044 0.70891 0.04738 0.0
H1899 H 0.53996 0.71943 0.06039 0.0
H1900 H 0.47438 0.69621 0.05993 0.0
H1901 H 0.44613 0.70988 0.07009 0.0
C1902 C 0.50817 0.26956 0.08881 0.0
C1903 C 0.52451 0.2626 0.10937 0.0
C1904 C 0.48703 0.24978 0.13502 0.0
C1905 C 0.47106 0.25276 0.11302 0.0
N1906 N 0.46614 0.26463 0.06841 0.0
N1907 N 0.53044 0.24646 0.15223 0.0
C1908 C 0.48143 0.26289 0.08986 0.0
C1909 C 0.51419 0.25312 0.1327 0.0
N1910 N 0.51833 0.28264 0.06835 0.0
N1911 N 0.47606 0.24421 0.1582 0.0
H1912 H 0.55033 0.25004 0.15167 0.0
H1913 H 0.52448 0.23639 0.16845 0.0
H1914 H 0.45616 0.24203 0.16048 0.0
H1915 H 0.48632 0.244 0.1755 0.0
H1916 H 0.50721 0.29051 0.05382 0.0
H1917 H 0.53792 0.28769 0.06712 0.0
H1918 H 0.4732 0.26868 0.05018 0.0
H1919 H 0.4464 0.26047 0.06837 0.0
C1920 C 0.62415 0.71881 0.00375 0.0
C1921 C 0.60466 0.73237 0.01631 0.0
C1922 C 0.58597 0.74438 0.9748 0.0
C1923 C 0.6051 0.73027 0.96224 0.0
N1924 N 0.64559 0.70915 0.96378 0.0
N1925 N 0.5702 0.76213 0.01469 0.0
C1926 C 0.62521 0.71903 0.97647 0.0
C1927 C 0.58669 0.74664 0.00208 0.0
N1928 N 0.64134 0.70536 0.018 0.0
N1929 N 0.5663 0.75433 0.96076 0.0
H1930 H 0.56953 0.76345 0.03468 0.0
H1931 H 0.55845 0.77508 0.0055 0.0
H1932 H 0.56557 0.75376 0.94076 0.0
H1933 H 0.54995 0.76192 0.96881 0.0
H1934 H 0.65395 0.69242 0.0102 0.0
H1935 H 0.64234 0.70641 0.03802 0.0
H1936 H 0.66206 0.70266 0.97287 0.0
H1937 H 0.64704 0.70942 0.9438 0.0
C1938 C 0.23206 0.59099 0.99056 0.0
C1939 C 0.24599 0.61056 0.97725 0.0
C1940 C 0.26002 0.63013 0.01822 0.0
C1941 C 0.24957 0.60836 0.03128 0.0
N1942 N 0.2279 0.56649 0.02974 0.0
N1943 N 0.27391 0.6485 0.9777 0.0
C1944 C 0.23579 0.58852 0.01751 0.0
C1945 C 0.26004 0.63019 0.9909 0.0
N1946 N 0.21545 0.5746 0.97739 0.0
N1947 N 0.26938 0.65094 0.03202 0.0
H1948 H 0.27327 0.64984 0.95769 0.0
H1949 H 0.28699 0.66153 0.98641 0.0
H1950 H 0.2691 0.65168 0.05206 0.0
H1951 H 0.27517 0.66831 0.02373 0.0
H1952 H 0.20281 0.56159 0.98631 0.0
H1953 H 0.21259 0.5756 0.95758 0.0
H1954 H 0.22074 0.55012 0.02009 0.0
H1955 H 0.23042 0.56358 0.04938 0.0
C1956 C 0.39604 0.25987 0.01828 0.0
C1957 C 0.39784 0.23363 0.02509 0.0
C1958 C 0.40066 0.22196 0.97951 0.0
C1959 C 0.39622 0.24788 0.97277 0.0
N1960 N 0.38302 0.28993 0.986 0.0
N1961 N 0.39723 0.18908 0.01226 0.0
C1962 C 0.39189 0.26635 0.99224 0.0
C1963 C 0.39876 0.21445 0.00571 0.0
N1964 N 0.39971 0.27885 0.03639 0.0
N1965 N 0.40801 0.20481 0.96127 0.0
H1966 H 0.39575 0.18293 0.03125 0.0
H1967 H 0.39506 0.17425 -0.00121 0.0
H1968 H 0.41023 0.20949 0.94197 0.0
H1969 H 0.4142 0.18653 0.96565 0.0
H1970 H 0.40138 0.29827 0.03174 0.0
H1971 H 0.4039 0.27534 0.05565 0.0
H1972 H 0.37695 0.30302 -0.00031 0.0
H1973 H 0.37907 0.29537 0.96718 0.0
C1974 C 0.77084 0.34694 0.01595 0.0
C1975 C 0.74889 0.35347 0.0302 0.0
C1976 C 0.72365 0.35795 0.99051 0.0
C1977 C 0.74558 0.3512 0.97623 0.0
N1978 N 0.78817 0.33455 0.97469 0.0
N1979 N 0.70336 0.361 0.03215 0.0
C1980 C 0.76864 0.34421 0.9888 0.0
C1981 C 0.72488 0.3574 0.0178 0.0
N1982 N 0.79391 0.34405 0.02839 0.0
N1983 N 0.70224 0.36643 0.97801 0.0
H1984 H 0.70366 0.36176 0.05219 0.0
H1985 H 0.68481 0.36157 0.02445 0.0
H1986 H 0.70044 0.36704 0.95805 0.0
H1987 H 0.68682 0.37456 0.98724 0.0
H1988 H 0.81135 0.34225 0.01901 0.0
H1989 H 0.79586 0.34474 0.04837 0.0
H1990 H 0.80461 0.32685 0.98274 0.0
H1991 H 0.78698 0.3323 0.95476 0.0
C1992 C 0.6316 0.28966 0.98493 0.0
C1993 C 0.61088 0.27746 0.97095 0.0
C1994 C 0.58891 0.26724 0.01135 0.0
C1995 C 0.60801 0.28225 0.02488 0.0
N1996 N 0.64688 0.30902 0.02507 0.0
N1997 N 0.56841 0.25664 0.97048 0.0
C1998 C 0.62919 0.29383 0.01181 0.0
C1999 C 0.5893 0.26644 0.98404 0.0
N2000 N 0.65396 0.29636 0.97259 0.0
N2001 N 0.57027 0.25385 0.02458 0.0
H2002 H 0.56777 0.25503 0.95056 0.0
H2003 H 0.55081 0.25167 0.97883 0.0
H2004 H 0.56833 0.25515 0.04444 0.0
H2005 H 0.5578 0.24004 0.01616 0.0
H2006 H 0.6707 0.30312 0.98198 0.0
H2007 H 0.65664 0.29285 0.95305 0.0
H2008 H 0.66103 0.32041 0.01623 0.0
H2009 H 0.64657 0.31143 0.04498 0.0
C2010 C 0.78937 0.59773 0.0138 0.0
C2011 C 0.77207 0.61404 0.02626 0.0
C2012 C 0.75676 0.62992 0.98492 0.0
C2013 C 0.77197 0.61162 0.97248 0.0
N2014 N 0.80776 0.58349 0.97363 0.0
N2015 N 0.74459 0.65014 0.02507 0.0
C2016 C 0.79016 0.59745 0.98649 0.0
C2017 C 0.75755 0.63175 0.01216 0.0
N2018 N 0.80379 0.58148 0.02809 0.0
N2019 N 0.74114 0.64493 0.97051 0.0
H2020 H 0.74544 0.65196 0.04506 0.0
H2021 H 0.73459 0.66468 0.01623 0.0
H2022 H 0.74192 0.64534 0.95048 0.0
H2023 H 0.72735 0.65674 0.97807 0.0
H2024 H 0.81437 0.56678 0.02035 0.0
H2025 H 0.80446 0.58209 0.04812 0.0
H2026 H 0.82284 0.57422 0.98253 0.0
H2027 H 0.80861 0.58288 0.95365 0.0
C2028 C 0.36458 0.7033 0.97902 0.0
C2029 C 0.38551 0.71505 0.96561 0.0
C2030 C 0.40518 0.73017 0.00627 0.0
C2031 C 0.38373 0.71934 0.01958 0.0
N2032 N 0.34125 0.69915 0.01906 0.0
N2033 N 0.42425 0.74217 0.96555 0.0
C2034 C 0.36293 0.70684 0.00607 0.0
C2035 C 0.40526 0.72943 0.97896 0.0
N2036 N 0.34641 0.68857 0.96587 0.0
N2037 N 0.42614 0.73985 0.0198 0.0
H2038 H 0.42619 0.74065 0.94569 0.0
H2039 H 0.43729 0.75552 0.97384 0.0
H2040 H 0.42679 0.7409 0.03979 0.0
H2041 H 0.44368 0.74511 0.0115 0.0
H2042 H 0.33262 0.67678 0.97474 0.0
H2043 H 0.34586 0.68703 0.94587 0.0
H2044 H 0.32429 0.6923 0.01014 0.0
H2045 H 0.33943 0.70147 0.03888 0.0
C2046 C 0.25495 0.36255 0.02709 0.0
C2047 C 0.24203 0.37964 0.04346 0.0
C2048 C 0.22162 0.39954 0.00619 0.0
C2049 C 0.23532 0.38313 0.98989 0.0
N2050 N 0.2598 0.34527 0.98397 0.0
N2051 N 0.20831 0.40983 0.04942 0.0
C2052 C 0.25032 0.36337 0.00013 0.0
C2053 C 0.22364 0.39652 0.03328 0.0
N2054 N 0.27201 0.34592 0.03738 0.0
N2055 N 0.20789 0.41894 0.99578 0.0
H2056 H 0.20951 0.40856 0.06933 0.0
H2057 H 0.19287 0.42046 0.04317 0.0
H2058 H 0.20528 0.42116 0.97602 0.0
H2059 H 0.20028 0.43371 0.00654 0.0
H2060 H 0.28447 0.33516 0.02652 0.0
H2061 H 0.27438 0.34348 0.05715 0.0
H2062 H 0.26921 0.32908 0.99015 0.0
H2063 H 0.25631 0.34533 0.96418 0.0
C2064 C 0.01837 0.58368 0.75165 0.0
C2065 C 0.02898 0.59808 0.73095 0.0
C2066 C 0.98572 0.60625 0.71448 0.0
C2067 C 0.97509 0.59177 0.73508 0.0
N2068 N 0.9805 0.5728 0.7768 0.0
N2069 N 0.02313 0.62953 0.69785 0.0
C2070 C 0.99121 0.58246 0.75483 0.0
C2071 C 0.01271 0.61151 0.71407 0.0
N2072 N 0.03394 0.56999 0.76739 0.0
N2073 N 0.97038 0.61356 0.69446 0.0
H2074 H 0.04285 0.63422 0.69762 0.0
H2075 H 0.0121 0.64166 0.68673 0.0
H2076 H 0.95055 0.60972 0.69362 0.0
H2077 H 0.97761 0.62159 0.67762 0.0
H2078 H 0.02698 0.55643 0.78045 0.0
H2079 H 0.05393 0.57092 0.76641 0.0
H2080 H 0.99127 0.56807 0.793 0.0
H2081 H 0.96065 0.57186 0.77976 0.0
C2082 C 0.39583 0.98264 0.75924 0.0
C2083 C 0.3759 0.96693 0.74793 0.0
C2084 C 0.35374 0.00474 0.73273 0.0
C2085 C 0.37423 0.02054 0.74305 0.0
N2086 N 0.41289 0.02556 0.76929 0.0
N2087 N 0.33335 0.96205 0.72948 0.0
C2088 C 0.39457 0.00981 0.75756 0.0
C2089 C 0.35399 0.97774 0.73644 0.0
N2090 N 0.41649 0.97141 0.77052 0.0
N2091 N 0.33437 0.01557 0.71895 0.0
H2092 H 0.33302 0.94225 0.7325 0.0
H2093 H 0.31584 0.96859 0.72274 0.0
H2094 H 0.33268 0.0354 0.71732 0.0
H2095 H 0.32051 0.00511 0.70827 0.0
H2096 H 0.4334 0.98125 0.77624 0.0
H2097 H 0.41704 0.95167 0.7735 0.0
H2098 H 0.4266 0.01927 0.78232 0.0
H2099 H 0.4139 0.04542 0.76704 0.0
C2100 C 0.00373 0.34575 0.7365 0.0
C2101 C 0.01574 0.35516 0.75947 0.0
C2102 C 0.97358 0.35911 0.77953 0.0
C2103 C 0.96162 0.3528 0.75558 0.0
N2104 N 0.96436 0.34027 0.71107 0.0
N2105 N 0.01285 0.37248 0.8024 0.0
C2106 C 0.97644 0.34602 0.734 0.0
C2107 C 0.00089 0.362 0.78102 0.0
N2108 N 0.01847 0.33594 0.71742 0.0
N2109 N 0.95878 0.3623 0.80081 0.0
H2110 H 0.03283 0.37461 0.80435 0.0
H2111 H 0.00307 0.38068 0.81755 0.0
H2112 H 0.93868 0.36098 0.80023 0.0
H2113 H 0.96631 0.36426 0.81938 0.0
H2114 H 0.01092 0.32658 0.70113 0.0
H2115 H 0.03851 0.3353 0.71882 0.0
H2116 H 0.97399 0.33823 0.69378 0.0
H2117 H 0.94435 0.33858 0.70907 0.0
C2118 C 0.62401 -0.00118 0.75697 0.0
C2119 C 0.60305 0.98304 0.76561 0.0
C2120 C 0.58673 0.01927 0.78999 0.0
C2121 C 0.60425 0.0359 0.77691 0.0
N2122 N 0.64723 0.04005 0.76036 0.0
N2123 N 0.56418 0.97777 0.79041 0.0
C2124 C 0.62536 0.02523 0.76409 0.0
C2125 C 0.58459 0.99298 0.78258 0.0
N2126 N 0.64211 0.98873 0.74134 0.0
N2127 N 0.57357 0.02816 0.81058 0.0
H2128 H 0.56197 0.95835 0.78559 0.0
H2129 H 0.54849 0.98485 0.80014 0.0
H2130 H 0.57754 0.04633 0.81851 0.0
H2131 H 0.56183 0.01647 0.82205 0.0
H2132 H 0.65603 -0.0002 0.7318 0.0
H2133 H 0.64247 0.96918 0.73691 0.0
H2134 H 0.66409 0.03318 0.75269 0.0
H2135 H 0.64951 0.05856 0.76807 0.0
C2136 C 0.97781 0.38615 0.26891 0.0
C2137 C 0.96448 0.38282 0.24508 0.0
C2138 C 0.00558 0.3795 0.22277 0.0
C2139 C 0.01871 0.38129 0.24684 0.0
N2140 N 0.01709 0.37966 0.29313 0.0
N2141 N 0.96491 0.37152 0.2001 0.0
C2142 C 0.00472 0.38255 0.27002 0.0
C2143 C 0.97815 0.37803 0.2222 0.0
N2144 N 0.96511 0.39416 0.29024 0.0
N2145 N 0.01924 0.38044 0.20047 0.0
H2146 H 0.94482 0.37024 0.19908 0.0
H2147 H 0.97375 0.36525 0.18346 0.0
H2148 H 0.03933 0.38144 0.20009 0.0
H2149 H 0.01069 0.38216 0.18238 0.0
H2150 H 0.97452 0.39967 0.3073 0.0
H2151 H 0.94548 0.39774 0.29028 0.0
H2152 H 0.00741 0.3778 0.31048 0.0
H2153 H 0.03676 0.37641 0.29469 0.0
C2154 C 0.64517 0.02149 0.2577 0.0
C2155 C 0.62562 0.035 0.24492 0.0
C2156 C 0.60673 0.9946 0.2277 0.0
C2157 C 0.624 0.98097 0.24346 0.0
N2158 N 0.65979 0.98068 0.27342 0.0
N2159 N 0.58665 0.03505 0.21922 0.0
C2160 C 0.6434 0.99422 0.25834 0.0
C2161 C 0.60632 0.02179 0.22991 0.0
N2162 N 0.66561 0.03486 0.2688 0.0
N2163 N 0.5905 0.98156 0.21088 0.0
H2164 H 0.5858 0.05501 0.22013 0.0
H2165 H 0.57021 0.02628 0.21094 0.0
H2166 H 0.58948 0.9616 0.20936 0.0
H2167 H 0.57945 0.99051 0.19698 0.0
H2168 H 0.68172 0.0263 0.27655 0.0
H2169 H 0.6675 0.05487 0.26834 0.0
H2170 H 0.67221 0.98908 0.28717 0.0
H2171 H 0.66025 0.96067 0.27297 0.0
C2172 C 0.00325 0.62364 0.22562 0.0
C2173 C 0.01849 0.61811 0.24753 0.0
C2174 C 0.98141 0.5966 0.26785 0.0
C2175 C 0.96564 0.60369 0.2468 0.0
N2176 N 0.96026 0.62773 0.20768 0.0
N2177 N 0.02112 0.60478 0.29179 0.0
C2178 C 0.97619 0.61825 0.22618 0.0
C2179 C 0.00727 0.6062 0.26934 0.0
N2180 N 0.01474 0.63331 0.20407 0.0
N2181 N 0.97208 0.57973 0.28582 0.0
H2182 H 0.04002 0.61207 0.2938 0.0
H2183 H 0.0131 0.59867 0.30907 0.0
H2184 H 0.95335 0.57181 0.28521 0.0
H2185 H 0.98363 0.57166 0.29991 0.0
H2186 H 0.00517 0.63501 0.18649 0.0
H2187 H 0.03442 0.63802 0.20327 0.0
H2188 H 0.96646 0.64071 0.19372 0.0
H2189 H 0.94034 0.62432 0.20749 0.0
C2190 C 0.40318 0.00691 0.19814 0.0
C2191 C 0.4133 0.01974 0.2204 0.0
C2192 C 0.42188 0.97847 0.24043 0.0
C2193 C 0.40935 0.96558 0.21934 0.0
N2194 N 0.38536 0.96717 0.17947 0.0
N2195 N 0.42967 0.01814 0.26405 0.0
C2196 C 0.39942 0.97969 0.19842 0.0
C2197 C 0.42178 0.00563 0.24196 0.0
N2198 N 0.39713 0.02076 0.1768 0.0
N2199 N 0.43513 0.96486 0.25838 0.0
H2200 H 0.43162 0.03805 0.2657 0.0
H2201 H 0.43265 0.0088 0.28143 0.0
H2202 H 0.43611 0.94493 0.2581 0.0
H2203 H 0.44731 0.97341 0.27226 0.0
H2204 H 0.39242 0.01245 0.15904 0.0
H2205 H 0.39842 0.04079 0.17635 0.0
H2206 H 0.37526 0.97652 0.16512 0.0
H2207 H 0.38208 0.9473 0.17917 0.0
C2208 C 0.72646 0.0171 0.58046 0.0
C2209 C 0.75163 0.02542 0.58847 0.0
C2210 C 0.75938 0.98291 0.60626 0.0
C2211 C 0.73469 0.97418 0.59707 0.0
N2212 N 0.69673 0.98135 0.57113 0.0
N2213 N 0.79362 0.01592 0.60532 0.0
C2214 C 0.71872 0.99085 0.58304 0.0
C2215 C 0.76865 0.00815 0.6001 0.0
N2216 N 0.70982 0.03439 0.57058 0.0
N2217 N 0.77335 0.96759 0.62202 0.0
H2218 H 0.80076 0.03454 0.60189 0.0
H2219 H 0.80777 0.0035 0.61121 0.0
H2220 H 0.767 0.94921 0.62741 0.0
H2221 H 0.79019 0.9738 0.63159 0.0
H2222 H 0.6902 0.03035 0.56774 0.0
H2223 H 0.71526 0.05339 0.56649 0.0
H2224 H 0.68599 0.99177 0.55808 0.0
H2225 H 0.69025 0.96226 0.57243 0.0
C2226 C 0.75917 0.01383 0.41398 0.0
C2227 C 0.74671 0.03019 0.39652 0.0
C2228 C 0.72707 0.99283 0.37399 0.0
C2229 C 0.73685 0.97669 0.39338 0.0
N2230 N 0.759 0.97205 0.43414 0.0
N2231 N 0.71675 0.03599 0.36141 0.0
C2232 C 0.7523 0.98716 0.41389 0.0
C2233 C 0.73009 0.01989 0.3769 0.0
N2234 N 0.77743 0.0238 0.43076 0.0
N2235 N 0.71559 0.98223 0.35244 0.0
H2236 H 0.71907 0.05592 0.3625 0.0
H2237 H 0.70213 0.02972 0.34875 0.0
H2238 H 0.71348 0.96243 0.34947 0.0
H2239 H 0.71035 0.99288 0.33645 0.0
H2240 H 0.78916 0.01249 0.44206 0.0
H2241 H 0.78235 0.04337 0.43188 0.0
H2242 H 0.76768 0.97925 0.45096 0.0
H2243 H 0.75386 0.95256 0.43525 0.0
C2244 C 0.97761 0.79492 0.37591 0.0
C2245 C 0.96553 0.7731 0.38747 0.0
C2246 C 0.0066 0.76152 0.40689 0.0
C2247 C 0.0192 0.7818 0.39334 0.0
N2248 N 0.0176 0.81579 0.36213 0.0
N2249 N 0.96935 0.73248 0.40908 0.0
C2250 C 0.00496 0.79804 0.37709 0.0
C2251 C 0.98026 0.75549 0.4016 0.0
N2252 N 0.96292 0.81303 0.36457 0.0
N2253 N 0.01951 0.74865 0.4256 0.0
H2254 H 0.95028 0.72687 0.40481 0.0
H2255 H 0.9799 0.71785 0.41714 0.0
H2256 H 0.0387 0.75295 0.43066 0.0
H2257 H 0.01048 0.73556 0.43793 0.0
H2258 H 0.97037 0.83071 0.35831 0.0
H2259 H 0.94287 0.81123 0.36318 0.0
H2260 H 0.00853 0.8262 0.34783 0.0
H2261 H 0.03757 0.81874 0.3626 0.0
C2262 C 0.20969 0.0176 0.35653 0.0
C2263 C 0.22995 0.02859 0.37204 0.0
C2264 C 0.2345 0.98756 0.39386 0.0
C2265 C 0.21689 0.9757 0.37605 0.0
N2266 N 0.1903 0.97867 0.33784 0.0
N2267 N 0.26579 0.02224 0.40112 0.0
C2268 C 0.20502 0.9905 0.35671 0.0
C2269 C 0.24348 0.01311 0.38959 0.0
N2270 N 0.19444 0.03305 0.34222 0.0
N2271 N 0.2421 0.97467 0.4153 0.0
H2272 H 0.274 0.04035 0.39734 0.0
H2273 H 0.27764 0.01077 0.41214 0.0
H2274 H 0.23499 0.95625 0.4197 0.0
H2275 H 0.25309 0.98333 0.43007 0.0
H2276 H 0.17778 0.02634 0.33262 0.0
H2277 H 0.1971 0.05298 0.34184 0.0
H2278 H 0.18353 0.98823 0.32173 0.0
H2279 H 0.18665 0.95886 0.33709 0.0
C2280 C 0.02075 0.23568 0.40956 0.0
C2281 C 0.03111 0.24537 0.38627 0.0
C2282 C 0.9899 0.23585 0.36414 0.0
C2283 C 0.97868 0.22947 0.3881 0.0
N2284 N 0.98236 0.22659 0.43434 0.0
N2285 N 0.02582 0.256 0.34154 0.0
C2286 C 0.99386 0.22988 0.41099 0.0
C2287 C 0.01576 0.24577 0.36355 0.0
N2288 N 0.0365 0.2323 0.43044 0.0
N2289 N 0.97597 0.23173 0.34192 0.0
H2290 H 0.04512 0.26205 0.34 0.0
H2291 H 0.01481 0.25976 0.32522 0.0
H2292 H 0.9571 0.22412 0.34173 0.0
H2293 H 0.98373 0.23363 0.32364 0.0
H2294 H 0.0306 0.22257 0.44691 0.0
H2295 H 0.05609 0.23744 0.43072 0.0
H2296 H 0.99191 0.22984 0.45184 0.0
H2297 H 0.96266 0.22278 0.43648 0.0
C2298 C 0.253 0.01696 0.57319 0.0
C2299 C 0.26627 0.02914 0.59425 0.0
C2300 C 0.27168 0.98747 0.6148 0.0
C2301 C 0.25772 0.97546 0.59416 0.0
N2302 N 0.23016 0.97875 0.55679 0.0
N2303 N 0.28319 0.02712 0.63751 0.0
C2304 C 0.24664 0.99025 0.57442 0.0
C2305 C 0.2741 0.0147 0.61582 0.0
N2306 N 0.24801 0.03047 0.55133 0.0
N2307 N 0.28303 0.97279 0.63314 0.0
H2308 H 0.28477 0.0471 0.63902 0.0
H2309 H 0.28693 0.01786 0.65476 0.0
H2310 H 0.28053 0.95285 0.63372 0.0
H2311 H 0.29604 0.98016 0.64693 0.0
H2312 H 0.24121 0.02191 0.5343 0.0
H2313 H 0.25273 0.04996 0.54933 0.0
H2314 H 0.21947 0.98894 0.5435 0.0
H2315 H 0.22537 0.95913 0.55693 0.0
C2316 C 0.99518 0.22738 0.57322 0.0
C2317 C 0.97956 0.23259 0.59466 0.0
C2318 C 0.01809 0.2395 0.62177 0.0
C2319 C 0.03351 0.23804 0.59958 0.0
N2320 N 0.03715 0.23244 0.55366 0.0
N2321 N 0.97571 0.24618 0.63892 0.0
C2322 C 0.02224 0.23213 0.57517 0.0
C2323 C 0.99085 0.23901 0.61896 0.0
N2324 N 0.98411 0.21753 0.55114 0.0
N2325 N 0.02958 0.24107 0.64554 0.0
H2326 H 0.95565 0.24633 0.63771 0.0
H2327 H 0.98306 0.25397 0.65609 0.0
H2328 H 0.04956 0.24134 0.64816 0.0
H2329 H 0.01943 0.23964 0.66264 0.0
H2330 H 0.99463 0.21087 0.5357 0.0
H2331 H 0.9643 0.21389 0.54914 0.0
H2332 H 0.02959 0.23156 0.53503 0.0
H2333 H 0.05711 0.23539 0.55423 0.0
C2334 C 0.0091 0.78781 0.63282 0.0
C2335 C 0.01891 0.79612 0.60881 0.0
C2336 C 0.97583 0.7916 0.58921 0.0
C2337 C 0.96613 0.78267 0.61311 0.0
N2338 N 0.97146 0.77828 0.65885 0.0
N2339 N 0.01133 0.8117 0.56593 0.0
C2340 C 0.98218 0.78269 0.63532 0.0
C2341 C 0.00209 0.80016 0.58766 0.0
N2342 N 0.02567 0.78424 0.65301 0.0
N2343 N 0.96053 0.79017 0.56762 0.0
H2344 H 0.03066 0.81722 0.56366 0.0
H2345 H -0.00043 0.81771 0.55094 0.0
H2346 H 0.94116 0.78423 0.5678 0.0
H2347 H 0.96737 0.79316 0.54911 0.0
H2348 H 0.02036 0.77511 0.66998 0.0
H2349 H 0.04523 0.78953 0.65238 0.0
H2350 H 0.9816 0.78024 0.67617 0.0
H2351 H 0.9517 0.77486 0.66123 0.0
loop_
_geom_bond_atom_site_label_1
_geom_bond_atom_site_label_2
_geom_bond_distance
_geom_bond_site_symmetry_2
_ccdc_geom_bond_type
C0 O1 1.160 . S
C0 O7 1.185 . S
O1 C0 1.160 . S
O2 Zn3 1.899 . S
O2 C10 1.284 . S
Zn3 O2 1.899 . S
Zn3 O4 2.032 . S
Zn3 O7 2.086 . S
Zn3 O12 1.977 . S
O4 Zn3 2.032 . S
O4 C8 1.278 . S
C5 O6 1.203 . S
C5 O12 1.267 . S
O6 C5 1.203 . S
O7 C0 1.185 . S
O7 Zn3 2.086 . S
C8 O4 1.278 . S
C8 O9 1.211 . S
O9 C8 1.211 . S
C10 O2 1.284 . S
C10 O11 1.273 . S
O11 C10 1.273 . S
O12 Zn3 1.977 . S
O12 C5 1.267 . S
C13 O14 1.160 . S
C13 O20 1.185 . S
O14 C13 1.160 . S
O15 Zn16 1.899 . S
O15 C23 1.284 . S
Zn16 O15 1.899 . S
Zn16 O17 2.032 . S
Zn16 O20 2.086 . S
Zn16 O25 1.977 . S
O17 Zn16 2.032 . S
O17 C21 1.278 . S
C18 O19 1.203 . S
C18 O25 1.267 . S
O19 C18 1.203 . S
O20 C13 1.185 . S
O20 Zn16 2.086 . S
C21 O17 1.278 . S
C21 O22 1.211 . S
O22 C21 1.211 . S
C23 O15 1.284 . S
C23 O24 1.273 . S
O24 C23 1.273 . S
O25 Zn16 1.977 . S
O25 C18 1.267 . S
C26 O27 1.160 . S
C26 O33 1.185 . S
O27 C26 1.160 . S
O28 Zn29 1.899 . S
O28 C36 1.284 . S
Zn29 O28 1.899 . S
Zn29 O30 2.032 . S
Zn29 O33 2.086 . S
Zn29 O38 1.977 . S
O30 Zn29 2.032 . S
O30 C34 1.278 . S
C31 O32 1.203 . S
C31 O38 1.267 . S
O32 C31 1.203 . S
O33 C26 1.185 . S
O33 Zn29 2.086 . S
C34 O30 1.278 . S
C34 O35 1.211 . S
O35 C34 1.211 . S
C36 O28 1.284 . S
C36 O37 1.273 . S
O37 C36 1.273 . S
O38 Zn29 1.977 . S
O38 C31 1.267 . S
C39 O40 1.160 . S
C39 O46 1.185 . S
O40 C39 1.160 . S
O41 Zn42 1.899 . S
O41 C49 1.284 . S
Zn42 O41 1.899 . S
Zn42 O43 2.032 . S
Zn42 O46 2.086 . S
Zn42 O51 1.977 . S
O43 Zn42 2.032 . S
O43 C47 1.278 . S
C44 O45 1.203 . S
C44 O51 1.267 . S
O45 C44 1.203 . S
O46 C39 1.185 . S
O46 Zn42 2.086 . S
C47 O43 1.278 . S
C47 O48 1.211 . S
O48 C47 1.211 . S
C49 O41 1.284 . S
C49 O50 1.273 . S
O50 C49 1.273 . S
O51 Zn42 1.977 . S
O51 C44 1.267 . S
C52 O53 1.160 . S
C52 O59 1.185 . S
O53 C52 1.160 . S
O54 Zn55 1.899 . S
O54 C62 1.284 . S
Zn55 O54 1.899 . S
Zn55 O56 2.032 . S
Zn55 O59 2.086 . S
Zn55 O64 1.977 . S
O56 Zn55 2.032 . S
O56 C60 1.278 . S
C57 O58 1.203 . S
C57 O64 1.267 . S
O58 C57 1.203 . S
O59 C52 1.185 . S
O59 Zn55 2.086 . S
C60 O56 1.278 . S
C60 O61 1.211 . S
O61 C60 1.211 . S
C62 O54 1.284 . S
C62 O63 1.273 . S
O63 C62 1.273 . S
O64 Zn55 1.977 . S
O64 C57 1.267 . S
C65 O66 1.160 . S
C65 O72 1.185 . S
O66 C65 1.160 . S
O67 Zn68 1.899 . S
O67 C75 1.284 . S
Zn68 O67 1.899 . S
Zn68 O69 2.032 . S
Zn68 O72 2.086 . S
Zn68 O77 1.977 . S
O69 Zn68 2.032 . S
O69 C73 1.278 . S
C70 O71 1.203 . S
C70 O77 1.267 . S
O71 C70 1.203 . S
O72 C65 1.185 . S
O72 Zn68 2.086 . S
C73 O69 1.278 . S
C73 O74 1.211 . S
O74 C73 1.211 . S
C75 O67 1.284 . S
C75 O76 1.273 . S
O76 C75 1.273 . S
O77 Zn68 1.977 . S
O77 C70 1.267 . S
C78 O79 1.160 . S
C78 O85 1.185 . S
O79 C78 1.160 . S
O80 Zn81 1.899 . S
O80 C88 1.284 . S
Zn81 O80 1.899 . S
Zn81 O82 2.032 . S
Zn81 O85 2.086 . S
Zn81 O90 1.977 . S
O82 Zn81 2.032 . S
O82 C86 1.278 . S
C83 O84 1.203 . S
C83 O90 1.267 . S
O84 C83 1.203 . S
O85 C78 1.185 . S
O85 Zn81 2.086 . S
C86 O82 1.278 . S
C86 O87 1.211 . S
O87 C86 1.211 . S
C88 O80 1.284 . S
C88 O89 1.273 . S
O89 C88 1.273 . S
O90 Zn81 1.977 . S
O90 C83 1.267 . S
C91 O92 1.160 . S
C91 O98 1.185 . S
O92 C91 1.160 . S
O93 Zn94 1.899 . S
O93 C101 1.284 . S
Zn94 O93 1.899 . S
Zn94 O95 2.032 . S
Zn94 O98 2.086 . S
Zn94 O103 1.977 . S
O95 Zn94 2.032 . S
O95 C99 1.278 . S
C96 O97 1.203 . S
C96 O103 1.267 . S
O97 C96 1.203 . S
O98 C91 1.185 . S
O98 Zn94 2.086 . S
C99 O95 1.278 . S
C99 O100 1.211 . S
O100 C99 1.211 . S
C101 O93 1.284 . S
C101 O102 1.273 . S
O102 C101 1.273 . S
O103 Zn94 1.977 . S
O103 C96 1.267 . S
C104 O105 1.160 . S
C104 O111 1.185 . S
O105 C104 1.160 . S
O106 Zn107 1.899 . S
O106 C114 1.284 . S
Zn107 O106 1.899 . S
Zn107 O108 2.032 . S
Zn107 O111 2.086 . S
Zn107 O116 1.977 . S
O108 Zn107 2.032 . S
O108 C112 1.278 . S
C109 O110 1.203 . S
C109 O116 1.267 . S
O110 C109 1.203 . S
O111 C104 1.185 . S
O111 Zn107 2.086 . S
C112 O108 1.278 . S
C112 O113 1.211 . S
O113 C112 1.211 . S
C114 O106 1.284 . S
C114 O115 1.273 . S
O115 C114 1.273 . S
O116 Zn107 1.977 . S
O116 C109 1.267 . S
C117 O118 1.160 . S
C117 O124 1.185 . S
O118 C117 1.160 . S
O119 Zn120 1.899 . S
O119 C127 1.284 . S
Zn120 O119 1.899 . S
Zn120 O121 2.032 . S
Zn120 O124 2.086 . S
Zn120 O129 1.977 . S
O121 Zn120 2.032 . S
O121 C125 1.278 . S
C122 O123 1.203 . S
C122 O129 1.267 . S
O123 C122 1.203 . S
O124 C117 1.185 . S
O124 Zn120 2.086 . S
C125 O121 1.278 . S
C125 O126 1.211 . S
O126 C125 1.211 . S
C127 O119 1.284 . S
C127 O128 1.273 . S
O128 C127 1.273 . S
O129 Zn120 1.977 . S
O129 C122 1.267 . S
C130 O131 1.160 . S
C130 O137 1.185 . S
O131 C130 1.160 . S
O132 Zn133 1.899 . S
O132 C140 1.284 . S
Zn133 O132 1.899 . S
Zn133 O134 2.032 . S
Zn133 O137 2.086 . S
Zn133 O142 1.977 . S
O134 Zn133 2.032 . S
O134 C138 1.278 . S
C135 O136 1.203 . S
C135 O142 1.267 . S
O136 C135 1.203 . S
O137 C130 1.185 . S
O137 Zn133 2.086 . S
C138 O134 1.278 . S
C138 O139 1.211 . S
O139 C138 1.211 . S
C140 O132 1.284 . S
C140 O141 1.273 . S
O141 C140 1.273 . S
O142 Zn133 1.977 . S
O142 C135 1.267 . S
C143 O144 1.160 . S
C143 O150 1.185 . S
O144 C143 1.160 . S
O145 Zn146 1.899 . S
O145 C153 1.284 . S
Zn146 O145 1.899 . S
Zn146 O147 2.032 . S
Zn146 O150 2.086 . S
Zn146 O155 1.977 . S
O147 Zn146 2.032 . S
O147 C151 1.278 . S
C148 O149 1.203 . S
C148 O155 1.267 . S
O149 C148 1.203 . S
O150 C143 1.185 . S
O150 Zn146 2.086 . S
C151 O147 1.278 . S
C151 O152 1.211 . S
O152 C151 1.211 . S
C153 O145 1.284 . S
C153 O154 1.273 . S
O154 C153 1.273 . S
O155 Zn146 1.977 . S
O155 C148 1.267 . S
C156 O157 1.160 . S
C156 O163 1.185 . S
O157 C156 1.160 . S
O158 Zn159 1.899 . S
O158 C166 1.284 . S
Zn159 O158 1.899 . S
Zn159 O160 2.032 . S
Zn159 O163 2.086 . S
Zn159 O168 1.977 . S
O160 Zn159 2.032 . S
O160 C164 1.278 . S
C161 O162 1.203 . S
C161 O168 1.267 . S
O162 C161 1.203 . S
O163 C156 1.185 . S
O163 Zn159 2.086 . S
C164 O160 1.278 . S
C164 O165 1.211 . S
O165 C164 1.211 . S
C166 O158 1.284 . S
C166 O167 1.273 . S
O167 C166 1.273 . S
O168 Zn159 1.977 . S
O168 C161 1.267 . S
C169 O170 1.160 . S
C169 O176 1.185 . S
O170 C169 1.160 . S
O171 Zn172 1.899 . S
O171 C179 1.284 . S
Zn172 O171 1.899 . S
Zn172 O173 2.032 . S
Zn172 O176 2.086 . S
Zn172 O181 1.977 . S
O173 Zn172 2.032 . S
O173 C177 1.278 . S
C174 O175 1.203 . S
C174 O181 1.267 . S
O175 C174 1.203 . S
O176 C169 1.185 . S
O176 Zn172 2.086 . S
C177 O173 1.278 . S
C177 O178 1.211 . S
O178 C177 1.211 . S
C179 O171 1.284 . S
C179 O180 1.273 . S
O180 C179 1.273 . S
O181 Zn172 1.977 . S
O181 C174 1.267 . S
C182 O183 1.160 . S
C182 O189 1.185 . S
O183 C182 1.160 . S
O184 Zn185 1.899 . S
O184 C192 1.284 . S
Zn185 O184 1.899 . S
Zn185 O186 2.032 . S
Zn185 O189 2.086 . S
Zn185 O194 1.977 . S
O186 Zn185 2.032 . S
O186 C190 1.278 . S
C187 O188 1.203 . S
C187 O194 1.267 . S
O188 C187 1.203 . S
O189 C182 1.185 . S
O189 Zn185 2.086 . S
C190 O186 1.278 . S
C190 O191 1.211 . S
O191 C190 1.211 . S
C192 O184 1.284 . S
C192 O193 1.273 . S
O193 C192 1.273 . S
O194 Zn185 1.977 . S
O194 C187 1.267 . S
C195 O196 1.160 . S
C195 O202 1.185 . S
O196 C195 1.160 . S
O197 Zn198 1.899 . S
O197 C205 1.284 . S
Zn198 O197 1.899 . S
Zn198 O199 2.032 . S
Zn198 O202 2.086 . S
Zn198 O207 1.977 . S
O199 Zn198 2.032 . S
O199 C203 1.278 . S
C200 O201 1.203 . S
C200 O207 1.267 . S
O201 C200 1.203 . S
O202 C195 1.185 . S
O202 Zn198 2.086 . S
C203 O199 1.278 . S
C203 O204 1.211 . S
O204 C203 1.211 . S
C205 O197 1.284 . S
C205 O206 1.273 . S
O206 C205 1.273 . S
O207 Zn198 1.977 . S
O207 C200 1.267 . S
C208 O209 1.160 . S
C208 O215 1.185 . S
O209 C208 1.160 . S
O210 Zn211 1.899 . S
O210 C218 1.284 . S
Zn211 O210 1.899 . S
Zn211 O212 2.032 . S
Zn211 O215 2.086 . S
Zn211 O220 1.977 . S
O212 Zn211 2.032 . S
O212 C216 1.278 . S
C213 O214 1.203 . S
C213 O220 1.267 . S
O214 C213 1.203 . S
O215 C208 1.185 . S
O215 Zn211 2.086 . S
C216 O212 1.278 . S
C216 O217 1.211 . S
O217 C216 1.211 . S
C218 O210 1.284 . S
C218 O219 1.273 . S
O219 C218 1.273 . S
O220 Zn211 1.977 . S
O220 C213 1.267 . S
C221 O222 1.160 . S
C221 O228 1.185 . S
O222 C221 1.160 . S
O223 Zn224 1.899 . S
O223 C231 1.284 . S
Zn224 O223 1.899 . S
Zn224 O225 2.032 . S
Zn224 O228 2.086 . S
Zn224 O233 1.977 . S
O225 Zn224 2.032 . S
O225 C229 1.278 . S
C226 O227 1.203 . S
C226 O233 1.267 . S
O227 C226 1.203 . S
O228 C221 1.185 . S
O228 Zn224 2.086 . S
C229 O225 1.278 . S
C229 O230 1.211 . S
O230 C229 1.211 . S
C231 O223 1.284 . S
C231 O232 1.273 . S
O232 C231 1.273 . S
O233 Zn224 1.977 . S
O233 C226 1.267 . S
C234 O235 1.160 . S
C234 O241 1.185 . S
O235 C234 1.160 . S
O236 Zn237 1.899 . S
O236 C244 1.284 . S
Zn237 O236 1.899 . S
Zn237 O238 2.032 . S
Zn237 O241 2.086 . S
Zn237 O246 1.977 . S
O238 Zn237 2.032 . S
O238 C242 1.278 . S
C239 O240 1.203 . S
C239 O246 1.267 . S
O240 C239 1.203 . S
O241 C234 1.185 . S
O241 Zn237 2.086 . S
C242 O238 1.278 . S
C242 O243 1.211 . S
O243 C242 1.211 . S
C244 O236 1.284 . S
C244 O245 1.273 . S
O245 C244 1.273 . S
O246 Zn237 1.977 . S
O246 C239 1.267 . S
C247 O248 1.160 . S
C247 O254 1.185 . S
O248 C247 1.160 . S
O249 Zn250 1.899 . S
O249 C257 1.284 . S
Zn250 O249 1.899 . S
Zn250 O251 2.032 . S
Zn250 O254 2.086 . S
Zn250 O259 1.977 . S
O251 Zn250 2.032 . S
O251 C255 1.278 . S
C252 O253 1.203 . S
C252 O259 1.267 . S
O253 C252 1.203 . S
O254 C247 1.185 . S
O254 Zn250 2.086 . S
C255 O251 1.278 . S
C255 O256 1.211 . S
O256 C255 1.211 . S
C257 O249 1.284 . S
C257 O258 1.273 . S
O258 C257 1.273 . S
O259 Zn250 1.977 . S
O259 C252 1.267 . S
C260 O261 1.160 . S
C260 O267 1.185 . S
O261 C260 1.160 . S
O262 Zn263 1.899 . S
O262 C270 1.284 . S
Zn263 O262 1.899 . S
Zn263 O264 2.032 . S
Zn263 O267 2.086 . S
Zn263 O272 1.977 . S
O264 Zn263 2.032 . S
O264 C268 1.278 . S
C265 O266 1.203 . S
C265 O272 1.267 . S
O266 C265 1.203 . S
O267 C260 1.185 . S
O267 Zn263 2.086 . S
C268 O264 1.278 . S
C268 O269 1.211 . S
O269 C268 1.211 . S
C270 O262 1.284 . S
C270 O271 1.273 . S
O271 C270 1.273 . S
O272 Zn263 1.977 . S
O272 C265 1.267 . S
C273 O274 1.160 . S
C273 O280 1.185 . S
O274 C273 1.160 . S
O275 Zn276 1.899 . S
O275 C283 1.284 . S
Zn276 O275 1.899 . S
Zn276 O277 2.032 . S
Zn276 O280 2.086 . S
Zn276 O285 1.977 . S
O277 Zn276 2.032 . S
O277 C281 1.278 . S
C278 O279 1.203 . S
C278 O285 1.267 . S
O279 C278 1.203 . S
O280 C273 1.185 . S
O280 Zn276 2.086 . S
C281 O277 1.278 . S
C281 O282 1.211 . S
O282 C281 1.211 . S
C283 O275 1.284 . S
C283 O284 1.273 . S
O284 C283 1.273 . S
O285 Zn276 1.977 . S
O285 C278 1.267 . S
C286 O287 1.160 . S
C286 O293 1.185 . S
O287 C286 1.160 . S
O288 Zn289 1.899 . S
O288 C296 1.284 . S
Zn289 O288 1.899 . S
Zn289 O290 2.032 . S
Zn289 O293 2.086 . S
Zn289 O298 1.977 . S
O290 Zn289 2.032 . S
O290 C294 1.278 . S
C291 O292 1.203 . S
C291 O298 1.267 . S
O292 C291 1.203 . S
O293 C286 1.185 . S
O293 Zn289 2.086 . S
C294 O290 1.278 . S
C294 O295 1.211 . S
O295 C294 1.211 . S
C296 O288 1.284 . S
C296 O297 1.273 . S
O297 C296 1.273 . S
O298 Zn289 1.977 . S
O298 C291 1.267 . S
C299 O300 1.160 . S
C299 O306 1.185 . S
O300 C299 1.160 . S
O301 Zn302 1.899 . S
O301 C309 1.284 . S
Zn302 O301 1.899 . S
Zn302 O303 2.032 . S
Zn302 O306 2.086 . S
Zn302 O311 1.977 . S
O303 Zn302 2.032 . S
O303 C307 1.278 . S
C304 O305 1.203 . S
C304 O311 1.267 . S
O305 C304 1.203 . S
O306 C299 1.185 . S
O306 Zn302 2.086 . S
C307 O303 1.278 . S
C307 O308 1.211 . S
O308 C307 1.211 . S
C309 O301 1.284 . S
C309 O310 1.273 . S
O310 C309 1.273 . S
O311 Zn302 1.977 . S
O311 C304 1.267 . S
C312 O313 1.160 . S
C312 O319 1.185 . S
O313 C312 1.160 . S
O314 Zn315 1.899 . S
O314 C322 1.284 . S
Zn315 O314 1.899 . S
Zn315 O316 2.032 . S
Zn315 O319 2.086 . S
Zn315 O324 1.977 . S
O316 Zn315 2.032 . S
O316 C320 1.278 . S
C317 O318 1.203 . S
C317 O324 1.267 . S
O318 C317 1.203 . S
O319 C312 1.185 . S
O319 Zn315 2.086 . S
C320 O316 1.278 . S
C320 O321 1.211 . S
O321 C320 1.211 . S
C322 O314 1.284 . S
C322 O323 1.273 . S
O323 C322 1.273 . S
O324 Zn315 1.977 . S
O324 C317 1.267 . S
C325 O326 1.160 . S
C325 O332 1.185 . S
O326 C325 1.160 . S
O327 Zn328 1.899 . S
O327 C335 1.284 . S
Zn328 O327 1.899 . S
Zn328 O329 2.032 . S
Zn328 O332 2.086 . S
Zn328 O337 1.977 . S
O329 Zn328 2.032 . S
O329 C333 1.278 . S
C330 O331 1.203 . S
C330 O337 1.267 . S
O331 C330 1.203 . S
O332 C325 1.185 . S
O332 Zn328 2.086 . S
C333 O329 1.278 . S
C333 O334 1.211 . S
O334 C333 1.211 . S
C335 O327 1.284 . S
C335 O336 1.273 . S
O336 C335 1.273 . S
O337 Zn328 1.977 . S
O337 C330 1.267 . S
C338 O339 1.160 . S
C338 O345 1.185 . S
O339 C338 1.160 . S
O340 Zn341 1.899 . S
O340 C348 1.284 . S
Zn341 O340 1.899 . S
Zn341 O342 2.032 . S
Zn341 O345 2.086 . S
Zn341 O350 1.977 . S
O342 Zn341 2.032 . S
O342 C346 1.278 . S
C343 O344 1.203 . S
C343 O350 1.267 . S
O344 C343 1.203 . S
O345 C338 1.185 . S
O345 Zn341 2.086 . S
C346 O342 1.278 . S
C346 O347 1.211 . S
O347 C346 1.211 . S
C348 O340 1.284 . S
C348 O349 1.273 . S
O349 C348 1.273 . S
O350 Zn341 1.977 . S
O350 C343 1.267 . S
C351 O352 1.160 . S
C351 O358 1.185 . S
O352 C351 1.160 . S
O353 Zn354 1.899 . S
O353 C361 1.284 . S
Zn354 O353 1.899 . S
Zn354 O355 2.032 . S
Zn354 O358 2.086 . S
Zn354 O363 1.977 . S
O355 Zn354 2.032 . S
O355 C359 1.278 . S
C356 O357 1.203 . S
C356 O363 1.267 . S
O357 C356 1.203 . S
O358 C351 1.185 . S
O358 Zn354 2.086 . S
C359 O355 1.278 . S
C359 O360 1.211 . S
O360 C359 1.211 . S
C361 O353 1.284 . S
C361 O362 1.273 . S
O362 C361 1.273 . S
O363 Zn354 1.977 . S
O363 C356 1.267 . S
C364 O365 1.160 . S
C364 O371 1.185 . S
O365 C364 1.160 . S
O366 Zn367 1.899 . S
O366 C374 1.284 . S
Zn367 O366 1.899 . S
Zn367 O368 2.032 . S
Zn367 O371 2.086 . S
Zn367 O376 1.977 . S
O368 Zn367 2.032 . S
O368 C372 1.278 . S
C369 O370 1.203 . S
C369 O376 1.267 . S
O370 C369 1.203 . S
O371 C364 1.185 . S
O371 Zn367 2.086 . S
C372 O368 1.278 . S
C372 O373 1.211 . S
O373 C372 1.211 . S
C374 O366 1.284 . S
C374 O375 1.273 . S
O375 C374 1.273 . S
O376 Zn367 1.977 . S
O376 C369 1.267 . S
C377 O378 1.160 . S
C377 O384 1.185 . S
O378 C377 1.160 . S
O379 Zn380 1.899 . S
O379 C387 1.284 . S
Zn380 O379 1.899 . S
Zn380 O381 2.032 . S
Zn380 O384 2.086 . S
Zn380 O389 1.977 . S
O381 Zn380 2.032 . S
O381 C385 1.278 . S
C382 O383 1.203 . S
C382 O389 1.267 . S
O383 C382 1.203 . S
O384 C377 1.185 . S
O384 Zn380 2.086 . S
C385 O381 1.278 . S
C385 O386 1.211 . S
O386 C385 1.211 . S
C387 O379 1.284 . S
C387 O388 1.273 . S
O388 C387 1.273 . S
O389 Zn380 1.977 . S
O389 C382 1.267 . S
C390 O391 1.160 . S
C390 O397 1.185 . S
O391 C390 1.160 . S
O392 Zn393 1.899 . S
O392 C400 1.284 . S
Zn393 O392 1.899 . S
Zn393 O394 2.032 . S
Zn393 O397 2.086 . S
Zn393 O402 1.977 . S
O394 Zn393 2.032 . S
O394 C398 1.278 . S
C395 O396 1.203 . S
C395 O402 1.267 . S
O396 C395 1.203 . S
O397 C390 1.185 . S
O397 Zn393 2.086 . S
C398 O394 1.278 . S
C398 O399 1.211 . S
O399 C398 1.211 . S
C400 O392 1.284 . S
C400 O401 1.273 . S
O401 C400 1.273 . S
O402 Zn393 1.977 . S
O402 C395 1.267 . S
C403 O404 1.160 . S
C403 O410 1.185 . S
O404 C403 1.160 . S
O405 Zn406 1.899 . S
O405 C413 1.284 . S
Zn406 O405 1.899 . S
Zn406 O407 2.032 . S
Zn406 O410 2.086 . S
Zn406 O415 1.977 . S
O407 Zn406 2.032 . S
O407 C411 1.278 . S
C408 O409 1.203 . S
C408 O415 1.267 . S
O409 C408 1.203 . S
O410 C403 1.185 . S
O410 Zn406 2.086 . S
C411 O407 1.278 . S
C411 O412 1.211 . S
O412 C411 1.211 . S
C413 O405 1.284 . S
C413 O414 1.273 . S
O414 C413 1.273 . S
O415 Zn406 1.977 . S
O415 C408 1.267 . S
C416 O417 1.160 . S
C416 O423 1.185 . S
O417 C416 1.160 . S
O418 Zn419 1.899 . S
O418 C426 1.284 . S
Zn419 O418 1.899 . S
Zn419 O420 2.032 . S
Zn419 O423 2.086 . S
Zn419 O428 1.977 . S
O420 Zn419 2.032 . S
O420 C424 1.278 . S
C421 O422 1.203 . S
C421 O428 1.267 . S
O422 C421 1.203 . S
O423 C416 1.185 . S
O423 Zn419 2.086 . S
C424 O420 1.278 . S
C424 O425 1.211 . S
O425 C424 1.211 . S
C426 O418 1.284 . S
C426 O427 1.273 . S
O427 C426 1.273 . S
O428 Zn419 1.977 . S
O428 C421 1.267 . S
C429 O430 1.160 . S
C429 O436 1.185 . S
O430 C429 1.160 . S
O431 Zn432 1.899 . S
O431 C439 1.284 . S
Zn432 O431 1.899 . S
Zn432 O433 2.032 . S
Zn432 O436 2.086 . S
Zn432 O441 1.977 . S
O433 Zn432 2.032 . S
O433 C437 1.278 . S
C434 O435 1.203 . S
C434 O441 1.267 . S
O435 C434 1.203 . S
O436 C429 1.185 . S
O436 Zn432 2.086 . S
C437 O433 1.278 . S
C437 O438 1.211 . S
O438 C437 1.211 . S
C439 O431 1.284 . S
C439 O440 1.273 . S
O440 C439 1.273 . S
O441 Zn432 1.977 . S
O441 C434 1.267 . S
C442 O443 1.160 . S
C442 O449 1.185 . S
O443 C442 1.160 . S
O444 Zn445 1.899 . S
O444 C452 1.284 . S
Zn445 O444 1.899 . S
Zn445 O446 2.032 . S
Zn445 O449 2.086 . S
Zn445 O454 1.977 . S
O446 Zn445 2.032 . S
O446 C450 1.278 . S
C447 O448 1.203 . S
C447 O454 1.267 . S
O448 C447 1.203 . S
O449 C442 1.185 . S
O449 Zn445 2.086 . S
C450 O446 1.278 . S
C450 O451 1.211 . S
O451 C450 1.211 . S
C452 O444 1.284 . S
C452 O453 1.273 . S
O453 C452 1.273 . S
O454 Zn445 1.977 . S
O454 C447 1.267 . S
C455 O456 1.160 . S
C455 O462 1.185 . S
O456 C455 1.160 . S
O457 Zn458 1.899 . S
O457 C465 1.284 . S
Zn458 O457 1.899 . S
Zn458 O459 2.032 . S
Zn458 O462 2.086 . S
Zn458 O467 1.977 . S
O459 Zn458 2.032 . S
O459 C463 1.278 . S
C460 O461 1.203 . S
C460 O467 1.267 . S
O461 C460 1.203 . S
O462 C455 1.185 . S
O462 Zn458 2.086 . S
C463 O459 1.278 . S
C463 O464 1.211 . S
O464 C463 1.211 . S
C465 O457 1.284 . S
C465 O466 1.273 . S
O466 C465 1.273 . S
O467 Zn458 1.977 . S
O467 C460 1.267 . S
C468 O469 1.160 . S
C468 O475 1.185 . S
O469 C468 1.160 . S
O470 Zn471 1.899 . S
O470 C478 1.284 . S
Zn471 O470 1.899 . S
Zn471 O472 2.032 . S
Zn471 O475 2.086 . S
Zn471 O480 1.977 . S
O472 Zn471 2.032 . S
O472 C476 1.278 . S
C473 O474 1.203 . S
C473 O480 1.267 . S
O474 C473 1.203 . S
O475 C468 1.185 . S
O475 Zn471 2.086 . S
C476 O472 1.278 . S
C476 O477 1.211 . S
O477 C476 1.211 . S
C478 O470 1.284 . S
C478 O479 1.273 . S
O479 C478 1.273 . S
O480 Zn471 1.977 . S
O480 C473 1.267 . S
C481 O482 1.160 . S
C481 O488 1.185 . S
O482 C481 1.160 . S
O483 Zn484 1.899 . S
O483 C491 1.284 . S
Zn484 O483 1.899 . S
Zn484 O485 2.032 . S
Zn484 O488 2.086 . S
Zn484 O493 1.977 . S
O485 Zn484 2.032 . S
O485 C489 1.278 . S
C486 O487 1.203 . S
C486 O493 1.267 . S
O487 C486 1.203 . S
O488 C481 1.185 . S
O488 Zn484 2.086 . S
C489 O485 1.278 . S
C489 O490 1.211 . S
O490 C489 1.211 . S
C491 O483 1.284 . S
C491 O492 1.273 . S
O492 C491 1.273 . S
O493 Zn484 1.977 . S
O493 C486 1.267 . S
C494 O495 1.160 . S
C494 O501 1.185 . S
O495 C494 1.160 . S
O496 Zn497 1.899 . S
O496 C504 1.284 . S
Zn497 O496 1.899 . S
Zn497 O498 2.032 . S
Zn497 O501 2.086 . S
Zn497 O506 1.977 . S
O498 Zn497 2.032 . S
O498 C502 1.278 . S
C499 O500 1.203 . S
C499 O506 1.267 . S
O500 C499 1.203 . S
O501 C494 1.185 . S
O501 Zn497 2.086 . S
C502 O498 1.278 . S
C502 O503 1.211 . S
O503 C502 1.211 . S
C504 O496 1.284 . S
C504 O505 1.273 . S
O505 C504 1.273 . S
O506 Zn497 1.977 . S
O506 C499 1.267 . S
C507 O508 1.160 . S
C507 O514 1.185 . S
O508 C507 1.160 . S
O509 Zn510 1.899 . S
O509 C517 1.284 . S
Zn510 O509 1.899 . S
Zn510 O511 2.032 . S
Zn510 O514 2.086 . S
Zn510 O519 1.977 . S
O511 Zn510 2.032 . S
O511 C515 1.278 . S
C512 O513 1.203 . S
C512 O519 1.267 . S
O513 C512 1.203 . S
O514 C507 1.185 . S
O514 Zn510 2.086 . S
C515 O511 1.278 . S
C515 O516 1.211 . S
O516 C515 1.211 . S
C517 O509 1.284 . S
C517 O518 1.273 . S
O518 C517 1.273 . S
O519 Zn510 1.977 . S
O519 C512 1.267 . S
C520 O521 1.160 . S
C520 O527 1.185 . S
O521 C520 1.160 . S
O522 Zn523 1.899 . S
O522 C530 1.284 . S
Zn523 O522 1.899 . S
Zn523 O524 2.032 . S
Zn523 O527 2.086 . S
Zn523 O532 1.977 . S
O524 Zn523 2.032 . S
O524 C528 1.278 . S
C525 O526 1.203 . S
C525 O532 1.267 . S
O526 C525 1.203 . S
O527 C520 1.185 . S
O527 Zn523 2.086 . S
C528 O524 1.278 . S
C528 O529 1.211 . S
O529 C528 1.211 . S
C530 O522 1.284 . S
C530 O531 1.273 . S
O531 C530 1.273 . S
O532 Zn523 1.977 . S
O532 C525 1.267 . S
C533 O534 1.160 . S
C533 O540 1.185 . S
O534 C533 1.160 . S
O535 Zn536 1.899 . S
O535 C543 1.284 . S
Zn536 O535 1.899 . S
Zn536 O537 2.032 . S
Zn536 O540 2.086 . S
Zn536 O545 1.977 . S
O537 Zn536 2.032 . S
O537 C541 1.278 . S
C538 O539 1.203 . S
C538 O545 1.267 . S
O539 C538 1.203 . S
O540 C533 1.185 . S
O540 Zn536 2.086 . S
C541 O537 1.278 . S
C541 O542 1.211 . S
O542 C541 1.211 . S
C543 O535 1.284 . S
C543 O544 1.273 . S
O544 C543 1.273 . S
O545 Zn536 1.977 . S
O545 C538 1.267 . S
C546 O547 1.160 . S
C546 O553 1.185 . S
O547 C546 1.160 . S
O548 Zn549 1.899 . S
O548 C556 1.284 . S
Zn549 O548 1.899 . S
Zn549 O550 2.032 . S
Zn549 O553 2.086 . S
Zn549 O558 1.977 . S
O550 Zn549 2.032 . S
O550 C554 1.278 . S
C551 O552 1.203 . S
C551 O558 1.267 . S
O552 C551 1.203 . S
O553 C546 1.185 . S
O553 Zn549 2.086 . S
C554 O550 1.278 . S
C554 O555 1.211 . S
O555 C554 1.211 . S
C556 O548 1.284 . S
C556 O557 1.273 . S
O557 C556 1.273 . S
O558 Zn549 1.977 . S
O558 C551 1.267 . S
C559 O560 1.160 . S
C559 O566 1.185 . S
O560 C559 1.160 . S
O561 Zn562 1.899 . S
O561 C569 1.284 . S
Zn562 O561 1.899 . S
Zn562 O563 2.032 . S
Zn562 O566 2.086 . S
Zn562 O571 1.977 . S
O563 Zn562 2.032 . S
O563 C567 1.278 . S
C564 O565 1.203 . S
C564 O571 1.267 . S
O565 C564 1.203 . S
O566 C559 1.185 . S
O566 Zn562 2.086 . S
C567 O563 1.278 . S
C567 O568 1.211 . S
O568 C567 1.211 . S
C569 O561 1.284 . S
C569 O570 1.273 . S
O570 C569 1.273 . S
O571 Zn562 1.977 . S
O571 C564 1.267 . S
C572 O573 1.160 . S
C572 O579 1.185 . S
O573 C572 1.160 . S
O574 Zn575 1.899 . S
O574 C582 1.284 . S
Zn575 O574 1.899 . S
Zn575 O576 2.032 . S
Zn575 O579 2.086 . S
Zn575 O584 1.977 . S
O576 Zn575 2.032 . S
O576 C580 1.278 . S
C577 O578 1.203 . S
C577 O584 1.267 . S
O578 C577 1.203 . S
O579 C572 1.185 . S
O579 Zn575 2.086 . S
C580 O576 1.278 . S
C580 O581 1.211 . S
O581 C580 1.211 . S
C582 O574 1.284 . S
C582 O583 1.273 . S
O583 C582 1.273 . S
O584 Zn575 1.977 . S
O584 C577 1.267 . S
C585 O586 1.160 . S
C585 O592 1.185 . S
O586 C585 1.160 . S
O587 Zn588 1.899 . S
O587 C595 1.284 . S
Zn588 O587 1.899 . S
Zn588 O589 2.032 . S
Zn588 O592 2.086 . S
Zn588 O597 1.977 . S
O589 Zn588 2.032 . S
O589 C593 1.278 . S
C590 O591 1.203 . S
C590 O597 1.267 . S
O591 C590 1.203 . S
O592 C585 1.185 . S
O592 Zn588 2.086 . S
C593 O589 1.278 . S
C593 O594 1.211 . S
O594 C593 1.211 . S
C595 O587 1.284 . S
C595 O596 1.273 . S
O596 C595 1.273 . S
O597 Zn588 1.977 . S
O597 C590 1.267 . S
C598 O599 1.160 . S
C598 O605 1.185 . S
O599 C598 1.160 . S
O600 Zn601 1.899 . S
O600 C608 1.284 . S
Zn601 O600 1.899 . S
Zn601 O602 2.032 . S
Zn601 O605 2.086 . S
Zn601 O610 1.977 . S
O602 Zn601 2.032 . S
O602 C606 1.278 . S
C603 O604 1.203 . S
C603 O610 1.267 . S
O604 C603 1.203 . S
O605 C598 1.185 . S
O605 Zn601 2.086 . S
C606 O602 1.278 . S
C606 O607 1.211 . S
O607 C606 1.211 . S
C608 O600 1.284 . S
C608 O609 1.273 . S
O609 C608 1.273 . S
O610 Zn601 1.977 . S
O610 C603 1.267 . S
C611 O612 1.160 . S
C611 O618 1.185 . S
O612 C611 1.160 . S
O613 Zn614 1.899 . S
O613 C621 1.284 . S
Zn614 O613 1.899 . S
Zn614 O615 2.032 . S
Zn614 O618 2.086 . S
Zn614 O623 1.977 . S
O615 Zn614 2.032 . S
O615 C619 1.278 . S
C616 O617 1.203 . S
C616 O623 1.267 . S
O617 C616 1.203 . S
O618 C611 1.185 . S
O618 Zn614 2.086 . S
C619 O615 1.278 . S
C619 O620 1.211 . S
O620 C619 1.211 . S
C621 O613 1.284 . S
C621 O622 1.273 . S
O622 C621 1.273 . S
O623 Zn614 1.977 . S
O623 C616 1.267 . S
C624 C625 1.363 . S
C624 C630 1.379 . S
C624 N632 1.356 . S
C625 C624 1.363 . S
C625 C631 1.363 . S
C626 C627 1.363 . S
C626 C631 1.379 . S
C626 N633 1.356 . S
C627 C626 1.363 . S
C627 C630 1.363 . S
N628 C630 1.356 . S
N628 H640 0.984 . S
N628 H641 0.985 . S
N629 C631 1.356 . S
N629 H634 0.984 . S
N629 H635 0.985 . S
C630 C624 1.379 . S
C630 C627 1.363 . S
C630 N628 1.356 . S
C631 C625 1.363 . S
C631 C626 1.379 . S
C631 N629 1.356 . S
N632 C624 1.356 . S
N632 H638 0.984 . S
N632 H639 0.984 . S
N633 C626 1.356 . S
N633 H636 0.984 . S
N633 H637 0.985 . S
H634 N629 0.984 . S
H635 N629 0.985 . S
H636 N633 0.984 . S
H637 N633 0.985 . S
H638 N632 0.984 . S
H639 N632 0.984 . S
H640 N628 0.984 . S
H641 N628 0.985 . S
C642 C643 1.363 . S
C642 C648 1.379 . S
C642 N650 1.356 . S
C643 C642 1.363 . S
C643 C649 1.363 . S
C644 C645 1.363 . S
C644 C649 1.379 . S
C644 N651 1.356 . S
C645 C644 1.363 . S
C645 C648 1.363 . S
N646 C648 1.356 . S
N646 H658 0.984 . S
N646 H659 0.985 . S
N647 C649 1.356 . S
N647 H652 0.984 . S
N647 H653 0.985 . S
C648 C642 1.379 . S
C648 C645 1.363 . S
C648 N646 1.356 . S
C649 C643 1.363 . S
C649 C644 1.379 . S
C649 N647 1.356 . S
N650 C642 1.356 . S
N650 H656 0.984 . S
N650 H657 0.984 . S
N651 C644 1.356 . S
N651 H654 0.984 . S
N651 H655 0.985 . S
H652 N647 0.984 . S
H653 N647 0.985 . S
H654 N651 0.984 . S
H655 N651 0.985 . S
H656 N650 0.984 . S
H657 N650 0.984 . S
H658 N646 0.984 . S
H659 N646 0.985 . S
C660 C661 1.363 . S
C660 C666 1.379 . S
C660 N668 1.356 . S
C661 C660 1.363 . S
C661 C667 1.363 . S
C662 C663 1.363 . S
C662 C667 1.379 . S
C662 N669 1.356 . S
C663 C662 1.363 . S
C663 C666 1.363 . S
N664 C666 1.356 . S
N664 H676 0.984 . S
N664 H677 0.985 . S
N665 C667 1.356 . S
N665 H670 0.984 . S
N665 H671 0.985 . S
C666 C660 1.379 . S
C666 C663 1.363 . S
C666 N664 1.356 . S
C667 C661 1.363 . S
C667 C662 1.379 . S
C667 N665 1.356 . S
N668 C660 1.356 . S
N668 H674 0.984 . S
N668 H675 0.984 . S
N669 C662 1.356 . S
N669 H672 0.984 . S
N669 H673 0.985 . S
H670 N665 0.984 . S
H671 N665 0.985 . S
H672 N669 0.984 . S
H673 N669 0.985 . S
H674 N668 0.984 . S
H675 N668 0.984 . S
H676 N664 0.984 . S
H677 N664 0.985 . S
C678 C679 1.363 . S
C678 C684 1.379 . S
C678 N686 1.356 . S
C679 C678 1.363 . S
C679 C685 1.363 . S
C680 C681 1.363 . S
C680 C685 1.379 . S
C680 N687 1.356 . S
C681 C680 1.363 . S
C681 C684 1.363 . S
N682 C684 1.356 . S
N682 H694 0.984 . S
N682 H695 0.985 . S
N683 C685 1.356 . S
N683 H688 0.984 . S
N683 H689 0.985 . S
C684 C678 1.379 . S
C684 C681 1.363 . S
C684 N682 1.356 . S
C685 C679 1.363 . S
C685 C680 1.379 . S
C685 N683 1.356 . S
N686 C678 1.356 . S
N686 H692 0.984 . S
N686 H693 0.984 . S
N687 C680 1.356 . S
N687 H690 0.984 . S
N687 H691 0.985 . S
H688 N683 0.984 . S
H689 N683 0.985 . S
H690 N687 0.984 . S
H691 N687 0.985 . S
H692 N686 0.984 . S
H693 N686 0.984 . S
H694 N682 0.984 . S
H695 N682 0.985 . S
C696 C697 1.363 . S
C696 C702 1.379 . S
C696 N704 1.356 . S
C697 C696 1.363 . S
C697 C703 1.363 . S
C698 C699 1.363 . S
C698 C703 1.379 . S
C698 N705 1.356 . S
C699 C698 1.363 . S
C699 C702 1.363 . S
N700 C702 1.356 . S
N700 H712 0.984 . S
N700 H713 0.985 . S
N701 C703 1.356 . S
N701 H706 0.984 . S
N701 H707 0.985 . S
C702 C696 1.379 . S
C702 C699 1.363 . S
C702 N700 1.356 . S
C703 C697 1.363 . S
C703 C698 1.379 . S
C703 N701 1.356 . S
N704 C696 1.356 . S
N704 H710 0.984 . S
N704 H711 0.984 . S
N705 C698 1.356 . S
N705 H708 0.984 . S
N705 H709 0.985 . S
H706 N701 0.984 . S
H707 N701 0.985 . S
H708 N705 0.984 . S
H709 N705 0.985 . S
H710 N704 0.984 . S
H711 N704 0.984 . S
H712 N700 0.984 . S
H713 N700 0.985 . S
C714 C715 1.363 . S
C714 C720 1.379 . S
C714 N722 1.356 . S
C715 C714 1.363 . S
C715 C721 1.363 . S
C716 C717 1.363 . S
C716 C721 1.379 . S
C716 N723 1.356 . S
C717 C716 1.363 . S
C717 C720 1.363 . S
N718 C720 1.356 . S
N718 H730 0.984 . S
N718 H731 0.985 . S
N719 C721 1.356 . S
N719 H724 0.984 . S
N719 H725 0.985 . S
C720 C714 1.379 . S
C720 C717 1.363 . S
C720 N718 1.356 . S
C721 C715 1.363 . S
C721 C716 1.379 . S
C721 N719 1.356 . S
N722 C714 1.356 . S
N722 H728 0.984 . S
N722 H729 0.984 . S
N723 C716 1.356 . S
N723 H726 0.984 . S
N723 H727 0.985 . S
H724 N719 0.984 . S
H725 N719 0.985 . S
H726 N723 0.984 . S
H727 N723 0.985 . S
H728 N722 0.984 . S
H729 N722 0.984 . S
H730 N718 0.984 . S
H731 N718 0.985 . S
C732 C733 1.363 . S
C732 C738 1.379 . S
C732 N740 1.356 . S
C733 C732 1.363 . S
C733 C739 1.363 . S
C734 C735 1.363 . S
C734 C739 1.379 . S
C734 N741 1.356 . S
C735 C734 1.363 . S
C735 C738 1.363 . S
N736 C738 1.356 . S
N736 H748 0.984 . S
N736 H749 0.985 . S
N737 C739 1.356 . S
N737 H742 0.984 . S
N737 H743 0.985 . S
C738 C732 1.379 . S
C738 C735 1.363 . S
C738 N736 1.356 . S
C739 C733 1.363 . S
C739 C734 1.379 . S
C739 N737 1.356 . S
N740 C732 1.356 . S
N740 H746 0.984 . S
N740 H747 0.984 . S
N741 C734 1.356 . S
N741 H744 0.984 . S
N741 H745 0.985 . S
H742 N737 0.984 . S
H743 N737 0.985 . S
H744 N741 0.984 . S
H745 N741 0.985 . S
H746 N740 0.984 . S
H747 N740 0.984 . S
H748 N736 0.984 . S
H749 N736 0.985 . S
C750 C751 1.363 . S
C750 C756 1.379 . S
C750 N758 1.356 . S
C751 C750 1.363 . S
C751 C757 1.363 . S
C752 C753 1.363 . S
C752 C757 1.379 . S
C752 N759 1.356 . S
C753 C752 1.363 . S
C753 C756 1.363 . S
N754 C756 1.356 . S
N754 H766 0.984 . S
N754 H767 0.985 . S
N755 C757 1.356 . S
N755 H760 0.984 . S
N755 H761 0.985 . S
C756 C750 1.379 . S
C756 C753 1.363 . S
C756 N754 1.356 . S
C757 C751 1.363 . S
C757 C752 1.379 . S
C757 N755 1.356 . S
N758 C750 1.356 . S
N758 H764 0.984 . S
N758 H765 0.984 . S
N759 C752 1.356 . S
N759 H762 0.984 . S
N759 H763 0.985 . S
H760 N755 0.984 . S
H761 N755 0.985 . S
H762 N759 0.984 . S
H763 N759 0.985 . S
H764 N758 0.984 . S
H765 N758 0.984 . S
H766 N754 0.984 . S
H767 N754 0.985 . S
C768 C769 1.363 . S
C768 C774 1.379 . S
C768 N776 1.356 . S
C769 C768 1.363 . S
C769 C775 1.363 . S
C770 C771 1.363 . S
C770 C775 1.379 . S
C770 N777 1.356 . S
C771 C770 1.363 . S
C771 C774 1.363 . S
N772 C774 1.356 . S
N772 H784 0.984 . S
N772 H785 0.985 . S
N773 C775 1.356 . S
N773 H778 0.984 . S
N773 H779 0.985 . S
C774 C768 1.379 . S
C774 C771 1.363 . S
C774 N772 1.356 . S
C775 C769 1.363 . S
C775 C770 1.379 . S
C775 N773 1.356 . S
N776 C768 1.356 . S
N776 H782 0.984 . S
N776 H783 0.984 . S
N777 C770 1.356 . S
N777 H780 0.984 . S
N777 H781 0.985 . S
H778 N773 0.984 . S
H779 N773 0.985 . S
H780 N777 0.984 . S
H781 N777 0.985 . S
H782 N776 0.984 . S
H783 N776 0.984 . S
H784 N772 0.984 . S
H785 N772 0.985 . S
C786 C787 1.363 . S
C786 C792 1.379 . S
C786 N794 1.356 . S
C787 C786 1.363 . S
C787 C793 1.363 . S
C788 C789 1.363 . S
C788 C793 1.379 . S
C788 N795 1.356 . S
C789 C788 1.363 . S
C789 C792 1.363 . S
N790 C792 1.356 . S
N790 H802 0.984 . S
N790 H803 0.985 . S
N791 C793 1.356 . S
N791 H796 0.984 . S
N791 H797 0.985 . S
C792 C786 1.379 . S
C792 C789 1.363 . S
C792 N790 1.356 . S
C793 C787 1.363 . S
C793 C788 1.379 . S
C793 N791 1.356 . S
N794 C786 1.356 . S
N794 H800 0.984 . S
N794 H801 0.984 . S
N795 C788 1.356 . S
N795 H798 0.984 . S
N795 H799 0.985 . S
H796 N791 0.984 . S
H797 N791 0.985 . S
H798 N795 0.984 . S
H799 N795 0.985 . S
H800 N794 0.984 . S
H801 N794 0.984 . S
H802 N790 0.984 . S
H803 N790 0.985 . S
C804 C805 1.363 . S
C804 C810 1.379 . S
C804 N812 1.356 . S
C805 C804 1.363 . S
C805 C811 1.363 . S
C806 C807 1.363 . S
C806 C811 1.379 . S
C806 N813 1.356 . S
C807 C806 1.363 . S
C807 C810 1.363 . S
N808 C810 1.356 . S
N808 H820 0.984 . S
N808 H821 0.985 . S
N809 C811 1.356 . S
N809 H814 0.984 . S
N809 H815 0.985 . S
C810 C804 1.379 . S
C810 C807 1.363 . S
C810 N808 1.356 . S
C811 C805 1.363 . S
C811 C806 1.379 . S
C811 N809 1.356 . S
N812 C804 1.356 . S
N812 H818 0.984 . S
N812 H819 0.984 . S
N813 C806 1.356 . S
N813 H816 0.984 . S
N813 H817 0.985 . S
H814 N809 0.984 . S
H815 N809 0.985 . S
H816 N813 0.984 . S
H817 N813 0.985 . S
H818 N812 0.984 . S
H819 N812 0.984 . S
H820 N808 0.984 . S
H821 N808 0.985 . S
C822 C823 1.363 . S
C822 C828 1.379 . S
C822 N830 1.356 . S
C823 C822 1.363 . S
C823 C829 1.363 . S
C824 C825 1.363 . S
C824 C829 1.379 . S
C824 N831 1.356 . S
C825 C824 1.363 . S
C825 C828 1.363 . S
N826 C828 1.356 . S
N826 H838 0.984 . S
N826 H839 0.985 . S
N827 C829 1.356 . S
N827 H832 0.984 . S
N827 H833 0.985 . S
C828 C822 1.379 . S
C828 C825 1.363 . S
C828 N826 1.356 . S
C829 C823 1.363 . S
C829 C824 1.379 . S
C829 N827 1.356 . S
N830 C822 1.356 . S
N830 H836 0.984 . S
N830 H837 0.984 . S
N831 C824 1.356 . S
N831 H834 0.984 . S
N831 H835 0.985 . S
H832 N827 0.984 . S
H833 N827 0.985 . S
H834 N831 0.984 . S
H835 N831 0.985 . S
H836 N830 0.984 . S
H837 N830 0.984 . S
H838 N826 0.984 . S
H839 N826 0.985 . S
C840 C841 1.363 . S
C840 C846 1.379 . S
C840 N848 1.356 . S
C841 C840 1.363 . S
C841 C847 1.363 . S
C842 C843 1.363 . S
C842 C847 1.379 . S
C842 N849 1.356 . S
C843 C842 1.363 . S
C843 C846 1.363 . S
N844 C846 1.356 . S
N844 H856 0.984 . S
N844 H857 0.985 . S
N845 C847 1.356 . S
N845 H850 0.984 . S
N845 H851 0.985 . S
C846 C840 1.379 . S
C846 C843 1.363 . S
C846 N844 1.356 . S
C847 C841 1.363 . S
C847 C842 1.379 . S
C847 N845 1.356 . S
N848 C840 1.356 . S
N848 H854 0.984 . S
N848 H855 0.984 . S
N849 C842 1.356 . S
N849 H852 0.984 . S
N849 H853 0.985 . S
H850 N845 0.984 . S
H851 N845 0.985 . S
H852 N849 0.984 . S
H853 N849 0.985 . S
H854 N848 0.984 . S
H855 N848 0.984 . S
H856 N844 0.984 . S
H857 N844 0.985 . S
C858 C859 1.363 . S
C858 C864 1.379 . S
C858 N866 1.356 . S
C859 C858 1.363 . S
C859 C865 1.363 . S
C860 C861 1.363 . S
C860 C865 1.379 . S
C860 N867 1.356 . S
C861 C860 1.363 . S
C861 C864 1.363 . S
N862 C864 1.356 . S
N862 H874 0.984 . S
N862 H875 0.985 . S
N863 C865 1.356 . S
N863 H868 0.984 . S
N863 H869 0.985 . S
C864 C858 1.379 . S
C864 C861 1.363 . S
C864 N862 1.356 . S
C865 C859 1.363 . S
C865 C860 1.379 . S
C865 N863 1.356 . S
N866 C858 1.356 . S
N866 H872 0.984 . S
N866 H873 0.984 . S
N867 C860 1.356 . S
N867 H870 0.984 . S
N867 H871 0.985 . S
H868 N863 0.984 . S
H869 N863 0.985 . S
H870 N867 0.984 . S
H871 N867 0.985 . S
H872 N866 0.984 . S
H873 N866 0.984 . S
H874 N862 0.984 . S
H875 N862 0.985 . S
C876 C877 1.363 . S
C876 C882 1.379 . S
C876 N884 1.356 . S
C877 C876 1.363 . S
C877 C883 1.363 . S
C878 C879 1.363 . S
C878 C883 1.379 . S
C878 N885 1.356 . S
C879 C878 1.363 . S
C879 C882 1.363 . S
N880 C882 1.356 . S
N880 H892 0.984 . S
N880 H893 0.985 . S
N881 C883 1.356 . S
N881 H886 0.984 . S
N881 H887 0.985 . S
C882 C876 1.379 . S
C882 C879 1.363 . S
C882 N880 1.356 . S
C883 C877 1.363 . S
C883 C878 1.379 . S
C883 N881 1.356 . S
N884 C876 1.356 . S
N884 H890 0.984 . S
N884 H891 0.984 . S
N885 C878 1.356 . S
N885 H888 0.984 . S
N885 H889 0.985 . S
H886 N881 0.984 . S
H887 N881 0.985 . S
H888 N885 0.984 . S
H889 N885 0.985 . S
H890 N884 0.984 . S
H891 N884 0.984 . S
H892 N880 0.984 . S
H893 N880 0.985 . S
C894 C895 1.363 . S
C894 C900 1.379 . S
C894 N902 1.356 . S
C895 C894 1.363 . S
C895 C901 1.363 . S
C896 C897 1.363 . S
C896 C901 1.379 . S
C896 N903 1.356 . S
C897 C896 1.363 . S
C897 C900 1.363 . S
N898 C900 1.356 . S
N898 H910 0.984 . S
N898 H911 0.985 . S
N899 C901 1.356 . S
N899 H904 0.984 . S
N899 H905 0.985 . S
C900 C894 1.379 . S
C900 C897 1.363 . S
C900 N898 1.356 . S
C901 C895 1.363 . S
C901 C896 1.379 . S
C901 N899 1.356 . S
N902 C894 1.356 . S
N902 H908 0.984 . S
N902 H909 0.984 . S
N903 C896 1.356 . S
N903 H906 0.984 . S
N903 H907 0.985 . S
H904 N899 0.984 . S
H905 N899 0.985 . S
H906 N903 0.984 . S
H907 N903 0.985 . S
H908 N902 0.984 . S
H909 N902 0.984 . S
H910 N898 0.984 . S
H911 N898 0.985 . S
C912 C913 1.363 . S
C912 C918 1.379 . S
C912 N920 1.356 . S
C913 C912 1.363 . S
C913 C919 1.363 . S
C914 C915 1.363 . S
C914 C919 1.379 . S
C914 N921 1.356 . S
C915 C914 1.363 . S
C915 C918 1.363 . S
N916 C918 1.356 . S
N916 H928 0.984 . S
N916 H929 0.985 . S
N917 C919 1.356 . S
N917 H922 0.984 . S
N917 H923 0.985 . S
C918 C912 1.379 . S
C918 C915 1.363 . S
C918 N916 1.356 . S
C919 C913 1.363 . S
C919 C914 1.379 . S
C919 N917 1.356 . S
N920 C912 1.356 . S
N920 H926 0.984 . S
N920 H927 0.984 . S
N921 C914 1.356 . S
N921 H924 0.984 . S
N921 H925 0.985 . S
H922 N917 0.984 . S
H923 N917 0.985 . S
H924 N921 0.984 . S
H925 N921 0.985 . S
H926 N920 0.984 . S
H927 N920 0.984 . S
H928 N916 0.984 . S
H929 N916 0.985 . S
C930 C931 1.363 . S
C930 C936 1.379 . S
C930 N938 1.356 . S
C931 C930 1.363 . S
C931 C937 1.363 . S
C932 C933 1.363 . S
C932 C937 1.379 . S
C932 N939 1.356 . S
C933 C932 1.363 . S
C933 C936 1.363 . S
N934 C936 1.356 . S
N934 H946 0.984 . S
N934 H947 0.985 . S
N935 C937 1.356 . S
N935 H940 0.984 . S
N935 H941 0.985 . S
C936 C930 1.379 . S
C936 C933 1.363 . S
C936 N934 1.356 . S
C937 C931 1.363 . S
C937 C932 1.379 . S
C937 N935 1.356 . S
N938 C930 1.356 . S
N938 H944 0.984 . S
N938 H945 0.984 . S
N939 C932 1.356 . S
N939 H942 0.984 . S
N939 H943 0.985 . S
H940 N935 0.984 . S
H941 N935 0.985 . S
H942 N939 0.984 . S
H943 N939 0.985 . S
H944 N938 0.984 . S
H945 N938 0.984 . S
H946 N934 0.984 . S
H947 N934 0.985 . S
C948 C949 1.363 . S
C948 C954 1.379 . S
C948 N956 1.356 . S
C949 C948 1.363 . S
C949 C955 1.363 . S
C950 C951 1.363 . S
C950 C955 1.379 . S
C950 N957 1.356 . S
C951 C950 1.363 . S
C951 C954 1.363 . S
N952 C954 1.356 . S
N952 H964 0.984 . S
N952 H965 0.985 . S
N953 C955 1.356 . S
N953 H958 0.984 . S
N953 H959 0.985 . S
C954 C948 1.379 . S
C954 C951 1.363 . S
C954 N952 1.356 . S
C955 C949 1.363 . S
C955 C950 1.379 . S
C955 N953 1.356 . S
N956 C948 1.356 . S
N956 H962 0.984 . S
N956 H963 0.984 . S
N957 C950 1.356 . S
N957 H960 0.984 . S
N957 H961 0.985 . S
H958 N953 0.984 . S
H959 N953 0.985 . S
H960 N957 0.984 . S
H961 N957 0.985 . S
H962 N956 0.984 . S
H963 N956 0.984 . S
H964 N952 0.984 . S
H965 N952 0.985 . S
C966 C967 1.363 . S
C966 C972 1.379 . S
C966 N974 1.356 . S
C967 C966 1.363 . S
C967 C973 1.363 . S
C968 C969 1.363 . S
C968 C973 1.379 . S
C968 N975 1.356 . S
C969 C968 1.363 . S
C969 C972 1.363 . S
N970 C972 1.356 . S
N970 H982 0.984 . S
N970 H983 0.985 . S
N971 C973 1.356 . S
N971 H976 0.984 . S
N971 H977 0.985 . S
C972 C966 1.379 . S
C972 C969 1.363 . S
C972 N970 1.356 . S
C973 C967 1.363 . S
C973 C968 1.379 . S
C973 N971 1.356 . S
N974 C966 1.356 . S
N974 H980 0.984 . S
N974 H981 0.984 . S
N975 C968 1.356 . S
N975 H978 0.984 . S
N975 H979 0.985 . S
H976 N971 0.984 . S
H977 N971 0.985 . S
H978 N975 0.984 . S
H979 N975 0.985 . S
H980 N974 0.984 . S
H981 N974 0.984 . S
H982 N970 0.984 . S
H983 N970 0.985 . S
C984 C985 1.363 . S
C984 C990 1.379 . S
C984 N992 1.356 . S
C985 C984 1.363 . S
C985 C991 1.363 . S
C986 C987 1.363 . S
C986 C991 1.379 . S
C986 N993 1.356 . S
C987 C986 1.363 . S
C987 C990 1.363 . S
N988 C990 1.356 . S
N988 H1000 0.984 . S
N988 H1001 0.985 . S
N989 C991 1.356 . S
N989 H994 0.984 . S
N989 H995 0.985 . S
C990 C984 1.379 . S
C990 C987 1.363 . S
C990 N988 1.356 . S
C991 C985 1.363 . S
C991 C986 1.379 . S
C991 N989 1.356 . S
N992 C984 1.356 . S
N992 H998 0.984 . S
N992 H999 0.984 . S
N993 C986 1.356 . S
N993 H996 0.984 . S
N993 H997 0.985 . S
H994 N989 0.984 . S
H995 N989 0.985 . S
H996 N993 0.984 . S
H997 N993 0.985 . S
H998 N992 0.984 . S
H999 N992 0.984 . S
H1000 N988 0.984 . S
H1001 N988 0.985 . S
C1002 C1003 1.363 . S
C1002 C1008 1.379 . S
C1002 N1010 1.356 . S
C1003 C1002 1.363 . S
C1003 C1009 1.363 . S
C1004 C1005 1.363 . S
C1004 C1009 1.379 . S
C1004 N1011 1.356 . S
C1005 C1004 1.363 . S
C1005 C1008 1.363 . S
N1006 C1008 1.356 . S
N1006 H1018 0.984 . S
N1006 H1019 0.985 . S
N1007 C1009 1.356 . S
N1007 H1012 0.984 . S
N1007 H1013 0.985 . S
C1008 C1002 1.379 . S
C1008 C1005 1.363 . S
C1008 N1006 1.356 . S
C1009 C1003 1.363 . S
C1009 C1004 1.379 . S
C1009 N1007 1.356 . S
N1010 C1002 1.356 . S
N1010 H1016 0.984 . S
N1010 H1017 0.984 . S
N1011 C1004 1.356 . S
N1011 H1014 0.984 . S
N1011 H1015 0.985 . S
H1012 N1007 0.984 . S
H1013 N1007 0.985 . S
H1014 N1011 0.984 . S
H1015 N1011 0.985 . S
H1016 N1010 0.984 . S
H1017 N1010 0.984 . S
H1018 N1006 0.984 . S
H1019 N1006 0.985 . S
C1020 C1021 1.363 . S
C1020 C1026 1.379 . S
C1020 N1028 1.356 . S
C1021 C1020 1.363 . S
C1021 C1027 1.363 . S
C1022 C1023 1.363 . S
C1022 C1027 1.379 . S
C1022 N1029 1.356 . S
C1023 C1022 1.363 . S
C1023 C1026 1.363 . S
N1024 C1026 1.356 . S
N1024 H1036 0.984 . S
N1024 H1037 0.985 . S
N1025 C1027 1.356 . S
N1025 H1030 0.984 . S
N1025 H1031 0.985 . S
C1026 C1020 1.379 . S
C1026 C1023 1.363 . S
C1026 N1024 1.356 . S
C1027 C1021 1.363 . S
C1027 C1022 1.379 . S
C1027 N1025 1.356 . S
N1028 C1020 1.356 . S
N1028 H1034 0.984 . S
N1028 H1035 0.984 . S
N1029 C1022 1.356 . S
N1029 H1032 0.984 . S
N1029 H1033 0.985 . S
H1030 N1025 0.984 . S
H1031 N1025 0.985 . S
H1032 N1029 0.984 . S
H1033 N1029 0.985 . S
H1034 N1028 0.984 . S
H1035 N1028 0.984 . S
H1036 N1024 0.984 . S
H1037 N1024 0.985 . S
C1038 C1039 1.363 . S
C1038 C1044 1.379 . S
C1038 N1046 1.356 . S
C1039 C1038 1.363 . S
C1039 C1045 1.363 . S
C1040 C1041 1.363 . S
C1040 C1045 1.379 . S
C1040 N1047 1.356 . S
C1041 C1040 1.363 . S
C1041 C1044 1.363 . S
N1042 C1044 1.356 . S
N1042 H1054 0.984 . S
N1042 H1055 0.985 . S
N1043 C1045 1.356 . S
N1043 H1048 0.984 . S
N1043 H1049 0.985 . S
C1044 C1038 1.379 . S
C1044 C1041 1.363 . S
C1044 N1042 1.356 . S
C1045 C1039 1.363 . S
C1045 C1040 1.379 . S
C1045 N1043 1.356 . S
N1046 C1038 1.356 . S
N1046 H1052 0.984 . S
N1046 H1053 0.984 . S
N1047 C1040 1.356 . S
N1047 H1050 0.984 . S
N1047 H1051 0.985 . S
H1048 N1043 0.984 . S
H1049 N1043 0.985 . S
H1050 N1047 0.984 . S
H1051 N1047 0.985 . S
H1052 N1046 0.984 . S
H1053 N1046 0.984 . S
H1054 N1042 0.984 . S
H1055 N1042 0.985 . S
C1056 C1057 1.363 . S
C1056 C1062 1.379 . S
C1056 N1064 1.356 . S
C1057 C1056 1.363 . S
C1057 C1063 1.363 . S
C1058 C1059 1.363 . S
C1058 C1063 1.379 . S
C1058 N1065 1.356 . S
C1059 C1058 1.363 . S
C1059 C1062 1.363 . S
N1060 C1062 1.356 . S
N1060 H1072 0.984 . S
N1060 H1073 0.985 . S
N1061 C1063 1.356 . S
N1061 H1066 0.984 . S
N1061 H1067 0.985 . S
C1062 C1056 1.379 . S
C1062 C1059 1.363 . S
C1062 N1060 1.356 . S
C1063 C1057 1.363 . S
C1063 C1058 1.379 . S
C1063 N1061 1.356 . S
N1064 C1056 1.356 . S
N1064 H1070 0.984 . S
N1064 H1071 0.984 . S
N1065 C1058 1.356 . S
N1065 H1068 0.984 . S
N1065 H1069 0.985 . S
H1066 N1061 0.984 . S
H1067 N1061 0.985 . S
H1068 N1065 0.984 . S
H1069 N1065 0.985 . S
H1070 N1064 0.984 . S
H1071 N1064 0.984 . S
H1072 N1060 0.984 . S
H1073 N1060 0.985 . S
C1074 C1075 1.363 . S
C1074 C1080 1.379 . S
C1074 N1082 1.356 . S
C1075 C1074 1.363 . S
C1075 C1081 1.363 . S
C1076 C1077 1.363 . S
C1076 C1081 1.379 . S
C1076 N1083 1.356 . S
C1077 C1076 1.363 . S
C1077 C1080 1.363 . S
N1078 C1080 1.356 . S
N1078 H1090 0.984 . S
N1078 H1091 0.985 . S
N1079 C1081 1.356 . S
N1079 H1084 0.984 . S
N1079 H1085 0.985 . S
C1080 C1074 1.379 . S
C1080 C1077 1.363 . S
C1080 N1078 1.356 . S
C1081 C1075 1.363 . S
C1081 C1076 1.379 . S
C1081 N1079 1.356 . S
N1082 C1074 1.356 . S
N1082 H1088 0.984 . S
N1082 H1089 0.984 . S
N1083 C1076 1.356 . S
N1083 H1086 0.984 . S
N1083 H1087 0.985 . S
H1084 N1079 0.984 . S
H1085 N1079 0.985 . S
H1086 N1083 0.984 . S
H1087 N1083 0.985 . S
H1088 N1082 0.984 . S
H1089 N1082 0.984 . S
H1090 N1078 0.984 . S
H1091 N1078 0.985 . S
C1092 C1093 1.363 . S
C1092 C1098 1.379 . S
C1092 N1100 1.356 . S
C1093 C1092 1.363 . S
C1093 C1099 1.363 . S
C1094 C1095 1.363 . S
C1094 C1099 1.379 . S
C1094 N1101 1.356 . S
C1095 C1094 1.363 . S
C1095 C1098 1.363 . S
N1096 C1098 1.356 . S
N1096 H1108 0.984 . S
N1096 H1109 0.985 . S
N1097 C1099 1.356 . S
N1097 H1102 0.984 . S
N1097 H1103 0.985 . S
C1098 C1092 1.379 . S
C1098 C1095 1.363 . S
C1098 N1096 1.356 . S
C1099 C1093 1.363 . S
C1099 C1094 1.379 . S
C1099 N1097 1.356 . S
N1100 C1092 1.356 . S
N1100 H1106 0.984 . S
N1100 H1107 0.984 . S
N1101 C1094 1.356 . S
N1101 H1104 0.984 . S
N1101 H1105 0.985 . S
H1102 N1097 0.984 . S
H1103 N1097 0.985 . S
H1104 N1101 0.984 . S
H1105 N1101 0.985 . S
H1106 N1100 0.984 . S
H1107 N1100 0.984 . S
H1108 N1096 0.984 . S
H1109 N1096 0.985 . S
C1110 C1111 1.363 . S
C1110 C1116 1.379 . S
C1110 N1118 1.356 . S
C1111 C1110 1.363 . S
C1111 C1117 1.363 . S
C1112 C1113 1.363 . S
C1112 C1117 1.379 . S
C1112 N1119 1.356 . S
C1113 C1112 1.363 . S
C1113 C1116 1.363 . S
N1114 C1116 1.356 . S
N1114 H1126 0.984 . S
N1114 H1127 0.985 . S
N1115 C1117 1.356 . S
N1115 H1120 0.984 . S
N1115 H1121 0.985 . S
C1116 C1110 1.379 . S
C1116 C1113 1.363 . S
C1116 N1114 1.356 . S
C1117 C1111 1.363 . S
C1117 C1112 1.379 . S
C1117 N1115 1.356 . S
N1118 C1110 1.356 . S
N1118 H1124 0.984 . S
N1118 H1125 0.984 . S
N1119 C1112 1.356 . S
N1119 H1122 0.984 . S
N1119 H1123 0.985 . S
H1120 N1115 0.984 . S
H1121 N1115 0.985 . S
H1122 N1119 0.984 . S
H1123 N1119 0.985 . S
H1124 N1118 0.984 . S
H1125 N1118 0.984 . S
H1126 N1114 0.984 . S
H1127 N1114 0.985 . S
C1128 C1129 1.363 . S
C1128 C1134 1.379 . S
C1128 N1136 1.356 . S
C1129 C1128 1.363 . S
C1129 C1135 1.363 . S
C1130 C1131 1.363 . S
C1130 C1135 1.379 . S
C1130 N1137 1.356 . S
C1131 C1130 1.363 . S
C1131 C1134 1.363 . S
N1132 C1134 1.356 . S
N1132 H1144 0.984 . S
N1132 H1145 0.985 . S
N1133 C1135 1.356 . S
N1133 H1138 0.984 . S
N1133 H1139 0.985 . S
C1134 C1128 1.379 . S
C1134 C1131 1.363 . S
C1134 N1132 1.356 . S
C1135 C1129 1.363 . S
C1135 C1130 1.379 . S
C1135 N1133 1.356 . S
N1136 C1128 1.356 . S
N1136 H1142 0.984 . S
N1136 H1143 0.984 . S
N1137 C1130 1.356 . S
N1137 H1140 0.984 . S
N1137 H1141 0.985 . S
H1138 N1133 0.984 . S
H1139 N1133 0.985 . S
H1140 N1137 0.984 . S
H1141 N1137 0.985 . S
H1142 N1136 0.984 . S
H1143 N1136 0.984 . S
H1144 N1132 0.984 . S
H1145 N1132 0.985 . S
C1146 C1147 1.363 . S
C1146 C1152 1.379 . S
C1146 N1154 1.356 . S
C1147 C1146 1.363 . S
C1147 C1153 1.363 . S
C1148 C1149 1.363 . S
C1148 C1153 1.379 . S
C1148 N1155 1.356 . S
C1149 C1148 1.363 . S
C1149 C1152 1.363 . S
N1150 C1152 1.356 . S
N1150 H1162 0.984 . S
N1150 H1163 0.985 . S
N1151 C1153 1.356 . S
N1151 H1156 0.984 . S
N1151 H1157 0.985 . S
C1152 C1146 1.379 . S
C1152 C1149 1.363 . S
C1152 N1150 1.356 . S
C1153 C1147 1.363 . S
C1153 C1148 1.379 . S
C1153 N1151 1.356 . S
N1154 C1146 1.356 . S
N1154 H1160 0.984 . S
N1154 H1161 0.984 . S
N1155 C1148 1.356 . S
N1155 H1158 0.984 . S
N1155 H1159 0.985 . S
H1156 N1151 0.984 . S
H1157 N1151 0.985 . S
H1158 N1155 0.984 . S
H1159 N1155 0.985 . S
H1160 N1154 0.984 . S
H1161 N1154 0.984 . S
H1162 N1150 0.984 . S
H1163 N1150 0.985 . S
C1164 C1165 1.363 . S
C1164 C1170 1.379 . S
C1164 N1172 1.356 . S
C1165 C1164 1.363 . S
C1165 C1171 1.363 . S
C1166 C1167 1.363 . S
C1166 C1171 1.379 . S
C1166 N1173 1.356 . S
C1167 C1166 1.363 . S
C1167 C1170 1.363 . S
N1168 C1170 1.356 . S
N1168 H1180 0.984 . S
N1168 H1181 0.985 . S
N1169 C1171 1.356 . S
N1169 H1174 0.984 . S
N1169 H1175 0.985 . S
C1170 C1164 1.379 . S
C1170 C1167 1.363 . S
C1170 N1168 1.356 . S
C1171 C1165 1.363 . S
C1171 C1166 1.379 . S
C1171 N1169 1.356 . S
N1172 C1164 1.356 . S
N1172 H1178 0.984 . S
N1172 H1179 0.984 . S
N1173 C1166 1.356 . S
N1173 H1176 0.984 . S
N1173 H1177 0.985 . S
H1174 N1169 0.984 . S
H1175 N1169 0.985 . S
H1176 N1173 0.984 . S
H1177 N1173 0.985 . S
H1178 N1172 0.984 . S
H1179 N1172 0.984 . S
H1180 N1168 0.984 . S
H1181 N1168 0.985 . S
C1182 C1183 1.363 . S
C1182 C1188 1.379 . S
C1182 N1190 1.356 . S
C1183 C1182 1.363 . S
C1183 C1189 1.363 . S
C1184 C1185 1.363 . S
C1184 C1189 1.379 . S
C1184 N1191 1.356 . S
C1185 C1184 1.363 . S
C1185 C1188 1.363 . S
N1186 C1188 1.356 . S
N1186 H1198 0.984 . S
N1186 H1199 0.985 . S
N1187 C1189 1.356 . S
N1187 H1192 0.984 . S
N1187 H1193 0.985 . S
C1188 C1182 1.379 . S
C1188 C1185 1.363 . S
C1188 N1186 1.356 . S
C1189 C1183 1.363 . S
C1189 C1184 1.379 . S
C1189 N1187 1.356 . S
N1190 C1182 1.356 . S
N1190 H1196 0.984 . S
N1190 H1197 0.984 . S
N1191 C1184 1.356 . S
N1191 H1194 0.984 . S
N1191 H1195 0.985 . S
H1192 N1187 0.984 . S
H1193 N1187 0.985 . S
H1194 N1191 0.984 . S
H1195 N1191 0.985 . S
H1196 N1190 0.984 . S
H1197 N1190 0.984 . S
H1198 N1186 0.984 . S
H1199 N1186 0.985 . S
C1200 C1201 1.363 . S
C1200 C1206 1.379 . S
C1200 N1208 1.356 . S
C1201 C1200 1.363 . S
C1201 C1207 1.363 . S
C1202 C1203 1.363 . S
C1202 C1207 1.379 . S
C1202 N1209 1.356 . S
C1203 C1202 1.363 . S
C1203 C1206 1.363 . S
N1204 C1206 1.356 . S
N1204 H1216 0.984 . S
N1204 H1217 0.985 . S
N1205 C1207 1.356 . S
N1205 H1210 0.984 . S
N1205 H1211 0.985 . S
C1206 C1200 1.379 . S
C1206 C1203 1.363 . S
C1206 N1204 1.356 . S
C1207 C1201 1.363 . S
C1207 C1202 1.379 . S
C1207 N1205 1.356 . S
N1208 C1200 1.356 . S
N1208 H1214 0.984 . S
N1208 H1215 0.984 . S
N1209 C1202 1.356 . S
N1209 H1212 0.984 . S
N1209 H1213 0.985 . S
H1210 N1205 0.984 . S
H1211 N1205 0.985 . S
H1212 N1209 0.984 . S
H1213 N1209 0.985 . S
H1214 N1208 0.984 . S
H1215 N1208 0.984 . S
H1216 N1204 0.984 . S
H1217 N1204 0.985 . S
C1218 C1219 1.363 . S
C1218 C1224 1.379 . S
C1218 N1226 1.356 . S
C1219 C1218 1.363 . S
C1219 C1225 1.363 . S
C1220 C1221 1.363 . S
C1220 C1225 1.379 . S
C1220 N1227 1.356 . S
C1221 C1220 1.363 . S
C1221 C1224 1.363 . S
N1222 C1224 1.356 . S
N1222 H1234 0.984 . S
N1222 H1235 0.985 . S
N1223 C1225 1.356 . S
N1223 H1228 0.984 . S
N1223 H1229 0.985 . S
C1224 C1218 1.379 . S
C1224 C1221 1.363 . S
C1224 N1222 1.356 . S
C1225 C1219 1.363 . S
C1225 C1220 1.379 . S
C1225 N1223 1.356 . S
N1226 C1218 1.356 . S
N1226 H1232 0.984 . S
N1226 H1233 0.984 . S
N1227 C1220 1.356 . S
N1227 H1230 0.984 . S
N1227 H1231 0.985 . S
H1228 N1223 0.984 . S
H1229 N1223 0.985 . S
H1230 N1227 0.984 . S
H1231 N1227 0.985 . S
H1232 N1226 0.984 . S
H1233 N1226 0.984 . S
H1234 N1222 0.984 . S
H1235 N1222 0.985 . S
C1236 C1237 1.363 . S
C1236 C1242 1.379 . S
C1236 N1244 1.356 . S
C1237 C1236 1.363 . S
C1237 C1243 1.363 . S
C1238 C1239 1.363 . S
C1238 C1243 1.379 . S
C1238 N1245 1.356 . S
C1239 C1238 1.363 . S
C1239 C1242 1.363 . S
N1240 C1242 1.356 . S
N1240 H1252 0.984 . S
N1240 H1253 0.985 . S
N1241 C1243 1.356 . S
N1241 H1246 0.984 . S
N1241 H1247 0.985 . S
C1242 C1236 1.379 . S
C1242 C1239 1.363 . S
C1242 N1240 1.356 . S
C1243 C1237 1.363 . S
C1243 C1238 1.379 . S
C1243 N1241 1.356 . S
N1244 C1236 1.356 . S
N1244 H1250 0.984 . S
N1244 H1251 0.984 . S
N1245 C1238 1.356 . S
N1245 H1248 0.984 . S
N1245 H1249 0.985 . S
H1246 N1241 0.984 . S
H1247 N1241 0.985 . S
H1248 N1245 0.984 . S
H1249 N1245 0.985 . S
H1250 N1244 0.984 . S
H1251 N1244 0.984 . S
H1252 N1240 0.984 . S
H1253 N1240 0.985 . S
C1254 C1255 1.363 . S
C1254 C1260 1.379 . S
C1254 N1262 1.356 . S
C1255 C1254 1.363 . S
C1255 C1261 1.363 . S
C1256 C1257 1.363 . S
C1256 C1261 1.379 . S
C1256 N1263 1.356 . S
C1257 C1256 1.363 . S
C1257 C1260 1.363 . S
N1258 C1260 1.356 . S
N1258 H1270 0.984 . S
N1258 H1271 0.985 . S
N1259 C1261 1.356 . S
N1259 H1264 0.984 . S
N1259 H1265 0.985 . S
C1260 C1254 1.379 . S
C1260 C1257 1.363 . S
C1260 N1258 1.356 . S
C1261 C1255 1.363 . S
C1261 C1256 1.379 . S
C1261 N1259 1.356 . S
N1262 C1254 1.356 . S
N1262 H1268 0.984 . S
N1262 H1269 0.984 . S
N1263 C1256 1.356 . S
N1263 H1266 0.984 . S
N1263 H1267 0.985 . S
H1264 N1259 0.984 . S
H1265 N1259 0.985 . S
H1266 N1263 0.984 . S
H1267 N1263 0.985 . S
H1268 N1262 0.984 . S
H1269 N1262 0.984 . S
H1270 N1258 0.984 . S
H1271 N1258 0.985 . S
C1272 C1273 1.363 . S
C1272 C1278 1.379 . S
C1272 N1280 1.356 . S
C1273 C1272 1.363 . S
C1273 C1279 1.363 . S
C1274 C1275 1.363 . S
C1274 C1279 1.379 . S
C1274 N1281 1.356 . S
C1275 C1274 1.363 . S
C1275 C1278 1.363 . S
N1276 C1278 1.356 . S
N1276 H1288 0.984 . S
N1276 H1289 0.985 . S
N1277 C1279 1.356 . S
N1277 H1282 0.984 . S
N1277 H1283 0.985 . S
C1278 C1272 1.379 . S
C1278 C1275 1.363 . S
C1278 N1276 1.356 . S
C1279 C1273 1.363 . S
C1279 C1274 1.379 . S
C1279 N1277 1.356 . S
N1280 C1272 1.356 . S
N1280 H1286 0.984 . S
N1280 H1287 0.984 . S
N1281 C1274 1.356 . S
N1281 H1284 0.984 . S
N1281 H1285 0.985 . S
H1282 N1277 0.984 . S
H1283 N1277 0.985 . S
H1284 N1281 0.984 . S
H1285 N1281 0.985 . S
H1286 N1280 0.984 . S
H1287 N1280 0.984 . S
H1288 N1276 0.984 . S
H1289 N1276 0.985 . S
C1290 C1291 1.363 . S
C1290 C1296 1.379 . S
C1290 N1298 1.356 . S
C1291 C1290 1.363 . S
C1291 C1297 1.363 . S
C1292 C1293 1.363 . S
C1292 C1297 1.379 . S
C1292 N1299 1.356 . S
C1293 C1292 1.363 . S
C1293 C1296 1.363 . S
N1294 C1296 1.356 . S
N1294 H1306 0.984 . S
N1294 H1307 0.985 . S
N1295 C1297 1.356 . S
N1295 H1300 0.984 . S
N1295 H1301 0.985 . S
C1296 C1290 1.379 . S
C1296 C1293 1.363 . S
C1296 N1294 1.356 . S
C1297 C1291 1.363 . S
C1297 C1292 1.379 . S
C1297 N1295 1.356 . S
N1298 C1290 1.356 . S
N1298 H1304 0.984 . S
N1298 H1305 0.984 . S
N1299 C1292 1.356 . S
N1299 H1302 0.984 . S
N1299 H1303 0.985 . S
H1300 N1295 0.984 . S
H1301 N1295 0.985 . S
H1302 N1299 0.984 . S
H1303 N1299 0.985 . S
H1304 N1298 0.984 . S
H1305 N1298 0.984 . S
H1306 N1294 0.984 . S
H1307 N1294 0.985 . S
C1308 C1309 1.363 . S
C1308 C1314 1.379 . S
C1308 N1316 1.356 . S
C1309 C1308 1.363 . S
C1309 C1315 1.363 . S
C1310 C1311 1.363 . S
C1310 C1315 1.379 . S
C1310 N1317 1.356 . S
C1311 C1310 1.363 . S
C1311 C1314 1.363 . S
N1312 C1314 1.356 . S
N1312 H1324 0.984 . S
N1312 H1325 0.985 . S
N1313 C1315 1.356 . S
N1313 H1318 0.984 . S
N1313 H1319 0.985 . S
C1314 C1308 1.379 . S
C1314 C1311 1.363 . S
C1314 N1312 1.356 . S
C1315 C1309 1.363 . S
C1315 C1310 1.379 . S
C1315 N1313 1.356 . S
N1316 C1308 1.356 . S
N1316 H1322 0.984 . S
N1316 H1323 0.984 . S
N1317 C1310 1.356 . S
N1317 H1320 0.984 . S
N1317 H1321 0.985 . S
H1318 N1313 0.984 . S
H1319 N1313 0.985 . S
H1320 N1317 0.984 . S
H1321 N1317 0.985 . S
H1322 N1316 0.984 . S
H1323 N1316 0.984 . S
H1324 N1312 0.984 . S
H1325 N1312 0.985 . S
C1326 C1327 1.363 . S
C1326 C1332 1.379 . S
C1326 N1334 1.356 . S
C1327 C1326 1.363 . S
C1327 C1333 1.363 . S
C1328 C1329 1.363 . S
C1328 C1333 1.379 . S
C1328 N1335 1.356 . S
C1329 C1328 1.363 . S
C1329 C1332 1.363 . S
N1330 C1332 1.356 . S
N1330 H1342 0.984 . S
N1330 H1343 0.985 . S
N1331 C1333 1.356 . S
N1331 H1336 0.984 . S
N1331 H1337 0.985 . S
C1332 C1326 1.379 . S
C1332 C1329 1.363 . S
C1332 N1330 1.356 . S
C1333 C1327 1.363 . S
C1333 C1328 1.379 . S
C1333 N1331 1.356 . S
N1334 C1326 1.356 . S
N1334 H1340 0.984 . S
N1334 H1341 0.984 . S
N1335 C1328 1.356 . S
N1335 H1338 0.984 . S
N1335 H1339 0.985 . S
H1336 N1331 0.984 . S
H1337 N1331 0.985 . S
H1338 N1335 0.984 . S
H1339 N1335 0.985 . S
H1340 N1334 0.984 . S
H1341 N1334 0.984 . S
H1342 N1330 0.984 . S
H1343 N1330 0.985 . S
C1344 C1345 1.363 . S
C1344 C1350 1.379 . S
C1344 N1352 1.356 . S
C1345 C1344 1.363 . S
C1345 C1351 1.363 . S
C1346 C1347 1.363 . S
C1346 C1351 1.379 . S
C1346 N1353 1.356 . S
C1347 C1346 1.363 . S
C1347 C1350 1.363 . S
N1348 C1350 1.356 . S
N1348 H1360 0.984 . S
N1348 H1361 0.985 . S
N1349 C1351 1.356 . S
N1349 H1354 0.984 . S
N1349 H1355 0.985 . S
C1350 C1344 1.379 . S
C1350 C1347 1.363 . S
C1350 N1348 1.356 . S
C1351 C1345 1.363 . S
C1351 C1346 1.379 . S
C1351 N1349 1.356 . S
N1352 C1344 1.356 . S
N1352 H1358 0.984 . S
N1352 H1359 0.984 . S
N1353 C1346 1.356 . S
N1353 H1356 0.984 . S
N1353 H1357 0.985 . S
H1354 N1349 0.984 . S
H1355 N1349 0.985 . S
H1356 N1353 0.984 . S
H1357 N1353 0.985 . S
H1358 N1352 0.984 . S
H1359 N1352 0.984 . S
H1360 N1348 0.984 . S
H1361 N1348 0.985 . S
C1362 C1363 1.363 . S
C1362 C1368 1.379 . S
C1362 N1370 1.356 . S
C1363 C1362 1.363 . S
C1363 C1369 1.363 . S
C1364 C1365 1.363 . S
C1364 C1369 1.379 . S
C1364 N1371 1.356 . S
C1365 C1364 1.363 . S
C1365 C1368 1.363 . S
N1366 C1368 1.356 . S
N1366 H1378 0.984 . S
N1366 H1379 0.985 . S
N1367 C1369 1.356 . S
N1367 H1372 0.984 . S
N1367 H1373 0.985 . S
C1368 C1362 1.379 . S
C1368 C1365 1.363 . S
C1368 N1366 1.356 . S
C1369 C1363 1.363 . S
C1369 C1364 1.379 . S
C1369 N1367 1.356 . S
N1370 C1362 1.356 . S
N1370 H1376 0.984 . S
N1370 H1377 0.984 . S
N1371 C1364 1.356 . S
N1371 H1374 0.984 . S
N1371 H1375 0.985 . S
H1372 N1367 0.984 . S
H1373 N1367 0.985 . S
H1374 N1371 0.984 . S
H1375 N1371 0.985 . S
H1376 N1370 0.984 . S
H1377 N1370 0.984 . S
H1378 N1366 0.984 . S
H1379 N1366 0.985 . S
C1380 C1381 1.363 . S
C1380 C1386 1.379 . S
C1380 N1388 1.356 . S
C1381 C1380 1.363 . S
C1381 C1387 1.363 . S
C1382 C1383 1.363 . S
C1382 C1387 1.379 . S
C1382 N1389 1.356 . S
C1383 C1382 1.363 . S
C1383 C1386 1.363 . S
N1384 C1386 1.356 . S
N1384 H1396 0.984 . S
N1384 H1397 0.985 . S
N1385 C1387 1.356 . S
N1385 H1390 0.984 . S
N1385 H1391 0.985 . S
C1386 C1380 1.379 . S
C1386 C1383 1.363 . S
C1386 N1384 1.356 . S
C1387 C1381 1.363 . S
C1387 C1382 1.379 . S
C1387 N1385 1.356 . S
N1388 C1380 1.356 . S
N1388 H1394 0.984 . S
N1388 H1395 0.984 . S
N1389 C1382 1.356 . S
N1389 H1392 0.984 . S
N1389 H1393 0.985 . S
H1390 N1385 0.984 . S
H1391 N1385 0.985 . S
H1392 N1389 0.984 . S
H1393 N1389 0.985 . S
H1394 N1388 0.984 . S
H1395 N1388 0.984 . S
H1396 N1384 0.984 . S
H1397 N1384 0.985 . S
C1398 C1399 1.363 . S
C1398 C1404 1.379 . S
C1398 N1406 1.356 . S
C1399 C1398 1.363 . S
C1399 C1405 1.363 . S
C1400 C1401 1.363 . S
C1400 C1405 1.379 . S
C1400 N1407 1.356 . S
C1401 C1400 1.363 . S
C1401 C1404 1.363 . S
N1402 C1404 1.356 . S
N1402 H1414 0.984 . S
N1402 H1415 0.985 . S
N1403 C1405 1.356 . S
N1403 H1408 0.984 . S
N1403 H1409 0.985 . S
C1404 C1398 1.379 . S
C1404 C1401 1.363 . S
C1404 N1402 1.356 . S
C1405 C1399 1.363 . S
C1405 C1400 1.379 . S
C1405 N1403 1.356 . S
N1406 C1398 1.356 . S
N1406 H1412 0.984 . S
N1406 H1413 0.984 . S
N1407 C1400 1.356 . S
N1407 H1410 0.984 . S
N1407 H1411 0.985 . S
H1408 N1403 0.984 . S
H1409 N1403 0.985 . S
H1410 N1407 0.984 . S
H1411 N1407 0.985 . S
H1412 N1406 0.984 . S
H1413 N1406 0.984 . S
H1414 N1402 0.984 . S
H1415 N1402 0.985 . S
C1416 C1417 1.363 . S
C1416 C1422 1.379 . S
C1416 N1424 1.356 . S
C1417 C1416 1.363 . S
C1417 C1423 1.363 . S
C1418 C1419 1.363 . S
C1418 C1423 1.379 . S
C1418 N1425 1.356 . S
C1419 C1418 1.363 . S
C1419 C1422 1.363 . S
N1420 C1422 1.356 . S
N1420 H1432 0.984 . S
N1420 H1433 0.985 . S
N1421 C1423 1.356 . S
N1421 H1426 0.984 . S
N1421 H1427 0.985 . S
C1422 C1416 1.379 . S
C1422 C1419 1.363 . S
C1422 N1420 1.356 . S
C1423 C1417 1.363 . S
C1423 C1418 1.379 . S
C1423 N1421 1.356 . S
N1424 C1416 1.356 . S
N1424 H1430 0.984 . S
N1424 H1431 0.984 . S
N1425 C1418 1.356 . S
N1425 H1428 0.984 . S
N1425 H1429 0.985 . S
H1426 N1421 0.984 . S
H1427 N1421 0.985 . S
H1428 N1425 0.984 . S
H1429 N1425 0.985 . S
H1430 N1424 0.984 . S
H1431 N1424 0.984 . S
H1432 N1420 0.984 . S
H1433 N1420 0.985 . S
C1434 C1435 1.363 . S
C1434 C1440 1.379 . S
C1434 N1442 1.356 . S
C1435 C1434 1.363 . S
C1435 C1441 1.363 . S
C1436 C1437 1.363 . S
C1436 C1441 1.379 . S
C1436 N1443 1.356 . S
C1437 C1436 1.363 . S
C1437 C1440 1.363 . S
N1438 C1440 1.356 . S
N1438 H1450 0.984 . S
N1438 H1451 0.985 . S
N1439 C1441 1.356 . S
N1439 H1444 0.984 . S
N1439 H1445 0.985 . S
C1440 C1434 1.379 . S
C1440 C1437 1.363 . S
C1440 N1438 1.356 . S
C1441 C1435 1.363 . S
C1441 C1436 1.379 . S
C1441 N1439 1.356 . S
N1442 C1434 1.356 . S
N1442 H1448 0.984 . S
N1442 H1449 0.984 . S
N1443 C1436 1.356 . S
N1443 H1446 0.984 . S
N1443 H1447 0.985 . S
H1444 N1439 0.984 . S
H1445 N1439 0.985 . S
H1446 N1443 0.984 . S
H1447 N1443 0.985 . S
H1448 N1442 0.984 . S
H1449 N1442 0.984 . S
H1450 N1438 0.984 . S
H1451 N1438 0.985 . S
C1452 C1453 1.363 . S
C1452 C1458 1.379 . S
C1452 N1460 1.356 . S
C1453 C1452 1.363 . S
C1453 C1459 1.363 . S
C1454 C1455 1.363 . S
C1454 C1459 1.379 . S
C1454 N1461 1.356 . S
C1455 C1454 1.363 . S
C1455 C1458 1.363 . S
N1456 C1458 1.356 . S
N1456 H1468 0.984 . S
N1456 H1469 0.985 . S
N1457 C1459 1.356 . S
N1457 H1462 0.984 . S
N1457 H1463 0.985 . S
C1458 C1452 1.379 . S
C1458 C1455 1.363 . S
C1458 N1456 1.356 . S
C1459 C1453 1.363 . S
C1459 C1454 1.379 . S
C1459 N1457 1.356 . S
N1460 C1452 1.356 . S
N1460 H1466 0.984 . S
N1460 H1467 0.984 . S
N1461 C1454 1.356 . S
N1461 H1464 0.984 . S
N1461 H1465 0.985 . S
H1462 N1457 0.984 . S
H1463 N1457 0.985 . S
H1464 N1461 0.984 . S
H1465 N1461 0.985 . S
H1466 N1460 0.984 . S
H1467 N1460 0.984 . S
H1468 N1456 0.984 . S
H1469 N1456 0.985 . S
C1470 C1471 1.363 . S
C1470 C1476 1.379 . S
C1470 N1478 1.356 . S
C1471 C1470 1.363 . S
C1471 C1477 1.363 . S
C1472 C1473 1.363 . S
C1472 C1477 1.379 . S
C1472 N1479 1.356 . S
C1473 C1472 1.363 . S
C1473 C1476 1.363 . S
N1474 C1476 1.356 . S
N1474 H1486 0.984 . S
N1474 H1487 0.985 . S
N1475 C1477 1.356 . S
N1475 H1480 0.984 . S
N1475 H1481 0.985 . S
C1476 C1470 1.379 . S
C1476 C1473 1.363 . S
C1476 N1474 1.356 . S
C1477 C1471 1.363 . S
C1477 C1472 1.379 . S
C1477 N1475 1.356 . S
N1478 C1470 1.356 . S
N1478 H1484 0.984 . S
N1478 H1485 0.984 . S
N1479 C1472 1.356 . S
N1479 H1482 0.984 . S
N1479 H1483 0.985 . S
H1480 N1475 0.984 . S
H1481 N1475 0.985 . S
H1482 N1479 0.984 . S
H1483 N1479 0.985 . S
H1484 N1478 0.984 . S
H1485 N1478 0.984 . S
H1486 N1474 0.984 . S
H1487 N1474 0.985 . S
C1488 C1489 1.363 . S
C1488 C1494 1.379 . S
C1488 N1496 1.356 . S
C1489 C1488 1.363 . S
C1489 C1495 1.363 . S
C1490 C1491 1.363 . S
C1490 C1495 1.379 . S
C1490 N1497 1.356 . S
C1491 C1490 1.363 . S
C1491 C1494 1.363 . S
N1492 C1494 1.356 . S
N1492 H1504 0.984 . S
N1492 H1505 0.985 . S
N1493 C1495 1.356 . S
N1493 H1498 0.984 . S
N1493 H1499 0.985 . S
C1494 C1488 1.379 . S
C1494 C1491 1.363 . S
C1494 N1492 1.356 . S
C1495 C1489 1.363 . S
C1495 C1490 1.379 . S
C1495 N1493 1.356 . S
N1496 C1488 1.356 . S
N1496 H1502 0.984 . S
N1496 H1503 0.984 . S
N1497 C1490 1.356 . S
N1497 H1500 0.984 . S
N1497 H1501 0.985 . S
H1498 N1493 0.984 . S
H1499 N1493 0.985 . S
H1500 N1497 0.984 . S
H1501 N1497 0.985 . S
H1502 N1496 0.984 . S
H1503 N1496 0.984 . S
H1504 N1492 0.984 . S
H1505 N1492 0.985 . S
C1506 C1507 1.363 . S
C1506 C1512 1.379 . S
C1506 N1514 1.356 . S
C1507 C1506 1.363 . S
C1507 C1513 1.363 . S
C1508 C1509 1.363 . S
C1508 C1513 1.379 . S
C1508 N1515 1.356 . S
C1509 C1508 1.363 . S
C1509 C1512 1.363 . S
N1510 C1512 1.356 . S
N1510 H1522 0.984 . S
N1510 H1523 0.985 . S
N1511 C1513 1.356 . S
N1511 H1516 0.984 . S
N1511 H1517 0.985 . S
C1512 C1506 1.379 . S
C1512 C1509 1.363 . S
C1512 N1510 1.356 . S
C1513 C1507 1.363 . S
C1513 C1508 1.379 . S
C1513 N1511 1.356 . S
N1514 C1506 1.356 . S
N1514 H1520 0.984 . S
N1514 H1521 0.984 . S
N1515 C1508 1.356 . S
N1515 H1518 0.984 . S
N1515 H1519 0.985 . S
H1516 N1511 0.984 . S
H1517 N1511 0.985 . S
H1518 N1515 0.984 . S
H1519 N1515 0.985 . S
H1520 N1514 0.984 . S
H1521 N1514 0.984 . S
H1522 N1510 0.984 . S
H1523 N1510 0.985 . S
C1524 C1525 1.363 . S
C1524 C1530 1.379 . S
C1524 N1532 1.356 . S
C1525 C1524 1.363 . S
C1525 C1531 1.363 . S
C1526 C1527 1.363 . S
C1526 C1531 1.379 . S
C1526 N1533 1.356 . S
C1527 C1526 1.363 . S
C1527 C1530 1.363 . S
N1528 C1530 1.356 . S
N1528 H1540 0.984 . S
N1528 H1541 0.985 . S
N1529 C1531 1.356 . S
N1529 H1534 0.984 . S
N1529 H1535 0.985 . S
C1530 C1524 1.379 . S
C1530 C1527 1.363 . S
C1530 N1528 1.356 . S
C1531 C1525 1.363 . S
C1531 C1526 1.379 . S
C1531 N1529 1.356 . S
N1532 C1524 1.356 . S
N1532 H1538 0.984 . S
N1532 H1539 0.984 . S
N1533 C1526 1.356 . S
N1533 H1536 0.984 . S
N1533 H1537 0.985 . S
H1534 N1529 0.984 . S
H1535 N1529 0.985 . S
H1536 N1533 0.984 . S
H1537 N1533 0.985 . S
H1538 N1532 0.984 . S
H1539 N1532 0.984 . S
H1540 N1528 0.984 . S
H1541 N1528 0.985 . S
C1542 C1543 1.363 . S
C1542 C1548 1.379 . S
C1542 N1550 1.356 . S
C1543 C1542 1.363 . S
C1543 C1549 1.363 . S
C1544 C1545 1.363 . S
C1544 C1549 1.379 . S
C1544 N1551 1.356 . S
C1545 C1544 1.363 . S
C1545 C1548 1.363 . S
N1546 C1548 1.356 . S
N1546 H1558 0.984 . S
N1546 H1559 0.985 . S
N1547 C1549 1.356 . S
N1547 H1552 0.984 . S
N1547 H1553 0.985 . S
C1548 C1542 1.379 . S
C1548 C1545 1.363 . S
C1548 N1546 1.356 . S
C1549 C1543 1.363 . S
C1549 C1544 1.379 . S
C1549 N1547 1.356 . S
N1550 C1542 1.356 . S
N1550 H1556 0.984 . S
N1550 H1557 0.984 . S
N1551 C1544 1.356 . S
N1551 H1554 0.984 . S
N1551 H1555 0.985 . S
H1552 N1547 0.984 . S
H1553 N1547 0.985 . S
H1554 N1551 0.984 . S
H1555 N1551 0.985 . S
H1556 N1550 0.984 . S
H1557 N1550 0.984 . S
H1558 N1546 0.984 . S
H1559 N1546 0.985 . S
C1560 C1561 1.363 . S
C1560 C1566 1.379 . S
C1560 N1568 1.356 . S
C1561 C1560 1.363 . S
C1561 C1567 1.363 . S
C1562 C1563 1.363 . S
C1562 C1567 1.379 . S
C1562 N1569 1.356 . S
C1563 C1562 1.363 . S
C1563 C1566 1.363 . S
N1564 C1566 1.356 . S
N1564 H1576 0.984 . S
N1564 H1577 0.985 . S
N1565 C1567 1.356 . S
N1565 H1570 0.984 . S
N1565 H1571 0.985 . S
C1566 C1560 1.379 . S
C1566 C1563 1.363 . S
C1566 N1564 1.356 . S
C1567 C1561 1.363 . S
C1567 C1562 1.379 . S
C1567 N1565 1.356 . S
N1568 C1560 1.356 . S
N1568 H1574 0.984 . S
N1568 H1575 0.984 . S
N1569 C1562 1.356 . S
N1569 H1572 0.984 . S
N1569 H1573 0.985 . S
H1570 N1565 0.984 . S
H1571 N1565 0.985 . S
H1572 N1569 0.984 . S
H1573 N1569 0.985 . S
H1574 N1568 0.984 . S
H1575 N1568 0.984 . S
H1576 N1564 0.984 . S
H1577 N1564 0.985 . S
C1578 C1579 1.363 . S
C1578 C1584 1.379 . S
C1578 N1586 1.356 . S
C1579 C1578 1.363 . S
C1579 C1585 1.363 . S
C1580 C1581 1.363 . S
C1580 C1585 1.379 . S
C1580 N1587 1.356 . S
C1581 C1580 1.363 . S
C1581 C1584 1.363 . S
N1582 C1584 1.356 . S
N1582 H1594 0.984 . S
N1582 H1595 0.985 . S
N1583 C1585 1.356 . S
N1583 H1588 0.984 . S
N1583 H1589 0.985 . S
C1584 C1578 1.379 . S
C1584 C1581 1.363 . S
C1584 N1582 1.356 . S
C1585 C1579 1.363 . S
C1585 C1580 1.379 . S
C1585 N1583 1.356 . S
N1586 C1578 1.356 . S
N1586 H1592 0.984 . S
N1586 H1593 0.984 . S
N1587 C1580 1.356 . S
N1587 H1590 0.984 . S
N1587 H1591 0.985 . S
H1588 N1583 0.984 . S
H1589 N1583 0.985 . S
H1590 N1587 0.984 . S
H1591 N1587 0.985 . S
H1592 N1586 0.984 . S
H1593 N1586 0.984 . S
H1594 N1582 0.984 . S
H1595 N1582 0.985 . S
C1596 C1597 1.363 . S
C1596 C1602 1.379 . S
C1596 N1604 1.356 . S
C1597 C1596 1.363 . S
C1597 C1603 1.363 . S
C1598 C1599 1.363 . S
C1598 C1603 1.379 . S
C1598 N1605 1.356 . S
C1599 C1598 1.363 . S
C1599 C1602 1.363 . S
N1600 C1602 1.356 . S
N1600 H1612 0.984 . S
N1600 H1613 0.985 . S
N1601 C1603 1.356 . S
N1601 H1606 0.984 . S
N1601 H1607 0.985 . S
C1602 C1596 1.379 . S
C1602 C1599 1.363 . S
C1602 N1600 1.356 . S
C1603 C1597 1.363 . S
C1603 C1598 1.379 . S
C1603 N1601 1.356 . S
N1604 C1596 1.356 . S
N1604 H1610 0.984 . S
N1604 H1611 0.984 . S
N1605 C1598 1.356 . S
N1605 H1608 0.984 . S
N1605 H1609 0.985 . S
H1606 N1601 0.984 . S
H1607 N1601 0.985 . S
H1608 N1605 0.984 . S
H1609 N1605 0.985 . S
H1610 N1604 0.984 . S
H1611 N1604 0.984 . S
H1612 N1600 0.984 . S
H1613 N1600 0.985 . S
C1614 C1615 1.363 . S
C1614 C1620 1.379 . S
C1614 N1622 1.356 . S
C1615 C1614 1.363 . S
C1615 C1621 1.363 . S
C1616 C1617 1.363 . S
C1616 C1621 1.379 . S
C1616 N1623 1.356 . S
C1617 C1616 1.363 . S
C1617 C1620 1.363 . S
N1618 C1620 1.356 . S
N1618 H1630 0.984 . S
N1618 H1631 0.985 . S
N1619 C1621 1.356 . S
N1619 H1624 0.984 . S
N1619 H1625 0.985 . S
C1620 C1614 1.379 . S
C1620 C1617 1.363 . S
C1620 N1618 1.356 . S
C1621 C1615 1.363 . S
C1621 C1616 1.379 . S
C1621 N1619 1.356 . S
N1622 C1614 1.356 . S
N1622 H1628 0.984 . S
N1622 H1629 0.984 . S
N1623 C1616 1.356 . S
N1623 H1626 0.984 . S
N1623 H1627 0.985 . S
H1624 N1619 0.984 . S
H1625 N1619 0.985 . S
H1626 N1623 0.984 . S
H1627 N1623 0.985 . S
H1628 N1622 0.984 . S
H1629 N1622 0.984 . S
H1630 N1618 0.984 . S
H1631 N1618 0.985 . S
C1632 C1633 1.363 . S
C1632 C1638 1.379 . S
C1632 N1640 1.356 . S
C1633 C1632 1.363 . S
C1633 C1639 1.363 . S
C1634 C1635 1.363 . S
C1634 C1639 1.379 . S
C1634 N1641 1.356 . S
C1635 C1634 1.363 . S
C1635 C1638 1.363 . S
N1636 C1638 1.356 . S
N1636 H1648 0.984 . S
N1636 H1649 0.985 . S
N1637 C1639 1.356 . S
N1637 H1642 0.984 . S
N1637 H1643 0.985 . S
C1638 C1632 1.379 . S
C1638 C1635 1.363 . S
C1638 N1636 1.356 . S
C1639 C1633 1.363 . S
C1639 C1634 1.379 . S
C1639 N1637 1.356 . S
N1640 C1632 1.356 . S
N1640 H1646 0.984 . S
N1640 H1647 0.984 . S
N1641 C1634 1.356 . S
N1641 H1644 0.984 . S
N1641 H1645 0.985 . S
H1642 N1637 0.984 . S
H1643 N1637 0.985 . S
H1644 N1641 0.984 . S
H1645 N1641 0.985 . S
H1646 N1640 0.984 . S
H1647 N1640 0.984 . S
H1648 N1636 0.984 . S
H1649 N1636 0.985 . S
C1650 C1651 1.363 . S
C1650 C1656 1.379 . S
C1650 N1658 1.356 . S
C1651 C1650 1.363 . S
C1651 C1657 1.363 . S
C1652 C1653 1.363 . S
C1652 C1657 1.379 . S
C1652 N1659 1.356 . S
C1653 C1652 1.363 . S
C1653 C1656 1.363 . S
N1654 C1656 1.356 . S
N1654 H1666 0.984 . S
N1654 H1667 0.985 . S
N1655 C1657 1.356 . S
N1655 H1660 0.984 . S
N1655 H1661 0.985 . S
C1656 C1650 1.379 . S
C1656 C1653 1.363 . S
C1656 N1654 1.356 . S
C1657 C1651 1.363 . S
C1657 C1652 1.379 . S
C1657 N1655 1.356 . S
N1658 C1650 1.356 . S
N1658 H1664 0.984 . S
N1658 H1665 0.984 . S
N1659 C1652 1.356 . S
N1659 H1662 0.984 . S
N1659 H1663 0.985 . S
H1660 N1655 0.984 . S
H1661 N1655 0.985 . S
H1662 N1659 0.984 . S
H1663 N1659 0.985 . S
H1664 N1658 0.984 . S
H1665 N1658 0.984 . S
H1666 N1654 0.984 . S
H1667 N1654 0.985 . S
C1668 C1669 1.363 . S
C1668 C1674 1.379 . S
C1668 N1676 1.356 . S
C1669 C1668 1.363 . S
C1669 C1675 1.363 . S
C1670 C1671 1.363 . S
C1670 C1675 1.379 . S
C1670 N1677 1.356 . S
C1671 C1670 1.363 . S
C1671 C1674 1.363 . S
N1672 C1674 1.356 . S
N1672 H1684 0.984 . S
N1672 H1685 0.985 . S
N1673 C1675 1.356 . S
N1673 H1678 0.984 . S
N1673 H1679 0.985 . S
C1674 C1668 1.379 . S
C1674 C1671 1.363 . S
C1674 N1672 1.356 . S
C1675 C1669 1.363 . S
C1675 C1670 1.379 . S
C1675 N1673 1.356 . S
N1676 C1668 1.356 . S
N1676 H1682 0.984 . S
N1676 H1683 0.984 . S
N1677 C1670 1.356 . S
N1677 H1680 0.984 . S
N1677 H1681 0.985 . S
H1678 N1673 0.984 . S
H1679 N1673 0.985 . S
H1680 N1677 0.984 . S
H1681 N1677 0.985 . S
H1682 N1676 0.984 . S
H1683 N1676 0.984 . S
H1684 N1672 0.984 . S
H1685 N1672 0.985 . S
C1686 C1687 1.363 . S
C1686 C1692 1.379 . S
C1686 N1694 1.356 . S
C1687 C1686 1.363 . S
C1687 C1693 1.363 . S
C1688 C1689 1.363 . S
C1688 C1693 1.379 . S
C1688 N1695 1.356 . S
C1689 C1688 1.363 . S
C1689 C1692 1.363 . S
N1690 C1692 1.356 . S
N1690 H1702 0.984 . S
N1690 H1703 0.985 . S
N1691 C1693 1.356 . S
N1691 H1696 0.984 . S
N1691 H1697 0.985 . S
C1692 C1686 1.379 . S
C1692 C1689 1.363 . S
C1692 N1690 1.356 . S
C1693 C1687 1.363 . S
C1693 C1688 1.379 . S
C1693 N1691 1.356 . S
N1694 C1686 1.356 . S
N1694 H1700 0.984 . S
N1694 H1701 0.984 . S
N1695 C1688 1.356 . S
N1695 H1698 0.984 . S
N1695 H1699 0.985 . S
H1696 N1691 0.984 . S
H1697 N1691 0.985 . S
H1698 N1695 0.984 . S
H1699 N1695 0.985 . S
H1700 N1694 0.984 . S
H1701 N1694 0.984 . S
H1702 N1690 0.984 . S
H1703 N1690 0.985 . S
C1704 C1705 1.363 . S
C1704 C1710 1.379 . S
C1704 N1712 1.356 . S
C1705 C1704 1.363 . S
C1705 C1711 1.363 . S
C1706 C1707 1.363 . S
C1706 C1711 1.379 . S
C1706 N1713 1.356 . S
C1707 C1706 1.363 . S
C1707 C1710 1.363 . S
N1708 C1710 1.356 . S
N1708 H1720 0.984 . S
N1708 H1721 0.985 . S
N1709 C1711 1.356 . S
N1709 H1714 0.984 . S
N1709 H1715 0.985 . S
C1710 C1704 1.379 . S
C1710 C1707 1.363 . S
C1710 N1708 1.356 . S
C1711 C1705 1.363 . S
C1711 C1706 1.379 . S
C1711 N1709 1.356 . S
N1712 C1704 1.356 . S
N1712 H1718 0.984 . S
N1712 H1719 0.984 . S
N1713 C1706 1.356 . S
N1713 H1716 0.984 . S
N1713 H1717 0.985 . S
H1714 N1709 0.984 . S
H1715 N1709 0.985 . S
H1716 N1713 0.984 . S
H1717 N1713 0.985 . S
H1718 N1712 0.984 . S
H1719 N1712 0.984 . S
H1720 N1708 0.984 . S
H1721 N1708 0.985 . S
C1722 C1723 1.363 . S
C1722 C1728 1.379 . S
C1722 N1730 1.356 . S
C1723 C1722 1.363 . S
C1723 C1729 1.363 . S
C1724 C1725 1.363 . S
C1724 C1729 1.379 . S
C1724 N1731 1.356 . S
C1725 C1724 1.363 . S
C1725 C1728 1.363 . S
N1726 C1728 1.356 . S
N1726 H1738 0.984 . S
N1726 H1739 0.985 . S
N1727 C1729 1.356 . S
N1727 H1732 0.984 . S
N1727 H1733 0.985 . S
C1728 C1722 1.379 . S
C1728 C1725 1.363 . S
C1728 N1726 1.356 . S
C1729 C1723 1.363 . S
C1729 C1724 1.379 . S
C1729 N1727 1.356 . S
N1730 C1722 1.356 . S
N1730 H1736 0.984 . S
N1730 H1737 0.984 . S
N1731 C1724 1.356 . S
N1731 H1734 0.984 . S
N1731 H1735 0.985 . S
H1732 N1727 0.984 . S
H1733 N1727 0.985 . S
H1734 N1731 0.984 . S
H1735 N1731 0.985 . S
H1736 N1730 0.984 . S
H1737 N1730 0.984 . S
H1738 N1726 0.984 . S
H1739 N1726 0.985 . S
C1740 C1741 1.363 . S
C1740 C1746 1.379 . S
C1740 N1748 1.356 . S
C1741 C1740 1.363 . S
C1741 C1747 1.363 . S
C1742 C1743 1.363 . S
C1742 C1747 1.379 . S
C1742 N1749 1.356 . S
C1743 C1742 1.363 . S
C1743 C1746 1.363 . S
N1744 C1746 1.356 . S
N1744 H1756 0.984 . S
N1744 H1757 0.985 . S
N1745 C1747 1.356 . S
N1745 H1750 0.984 . S
N1745 H1751 0.985 . S
C1746 C1740 1.379 . S
C1746 C1743 1.363 . S
C1746 N1744 1.356 . S
C1747 C1741 1.363 . S
C1747 C1742 1.379 . S
C1747 N1745 1.356 . S
N1748 C1740 1.356 . S
N1748 H1754 0.984 . S
N1748 H1755 0.984 . S
N1749 C1742 1.356 . S
N1749 H1752 0.984 . S
N1749 H1753 0.985 . S
H1750 N1745 0.984 . S
H1751 N1745 0.985 . S
H1752 N1749 0.984 . S
H1753 N1749 0.985 . S
H1754 N1748 0.984 . S
H1755 N1748 0.984 . S
H1756 N1744 0.984 . S
H1757 N1744 0.985 . S
C1758 C1759 1.363 . S
C1758 C1764 1.379 . S
C1758 N1766 1.356 . S
C1759 C1758 1.363 . S
C1759 C1765 1.363 . S
C1760 C1761 1.363 . S
C1760 C1765 1.379 . S
C1760 N1767 1.356 . S
C1761 C1760 1.363 . S
C1761 C1764 1.363 . S
N1762 C1764 1.356 . S
N1762 H1774 0.984 . S
N1762 H1775 0.985 . S
N1763 C1765 1.356 . S
N1763 H1768 0.984 . S
N1763 H1769 0.985 . S
C1764 C1758 1.379 . S
C1764 C1761 1.363 . S
C1764 N1762 1.356 . S
C1765 C1759 1.363 . S
C1765 C1760 1.379 . S
C1765 N1763 1.356 . S
N1766 C1758 1.356 . S
N1766 H1772 0.984 . S
N1766 H1773 0.984 . S
N1767 C1760 1.356 . S
N1767 H1770 0.984 . S
N1767 H1771 0.985 . S
H1768 N1763 0.984 . S
H1769 N1763 0.985 . S
H1770 N1767 0.984 . S
H1771 N1767 0.985 . S
H1772 N1766 0.984 . S
H1773 N1766 0.984 . S
H1774 N1762 0.984 . S
H1775 N1762 0.985 . S
C1776 C1777 1.363 . S
C1776 C1782 1.379 . S
C1776 N1784 1.356 . S
C1777 C1776 1.363 . S
C1777 C1783 1.363 . S
C1778 C1779 1.363 . S
C1778 C1783 1.379 . S
C1778 N1785 1.356 . S
C1779 C1778 1.363 . S
C1779 C1782 1.363 . S
N1780 C1782 1.356 . S
N1780 H1792 0.984 . S
N1780 H1793 0.985 . S
N1781 C1783 1.356 . S
N1781 H1786 0.984 . S
N1781 H1787 0.985 . S
C1782 C1776 1.379 . S
C1782 C1779 1.363 . S
C1782 N1780 1.356 . S
C1783 C1777 1.363 . S
C1783 C1778 1.379 . S
C1783 N1781 1.356 . S
N1784 C1776 1.356 . S
N1784 H1790 0.984 . S
N1784 H1791 0.984 . S
N1785 C1778 1.356 . S
N1785 H1788 0.984 . S
N1785 H1789 0.985 . S
H1786 N1781 0.984 . S
H1787 N1781 0.985 . S
H1788 N1785 0.984 . S
H1789 N1785 0.985 . S
H1790 N1784 0.984 . S
H1791 N1784 0.984 . S
H1792 N1780 0.984 . S
H1793 N1780 0.985 . S
C1794 C1795 1.363 . S
C1794 C1800 1.379 . S
C1794 N1802 1.356 . S
C1795 C1794 1.363 . S
C1795 C1801 1.363 . S
C1796 C1797 1.363 . S
C1796 C1801 1.379 . S
C1796 N1803 1.356 . S
C1797 C1796 1.363 . S
C1797 C1800 1.363 . S
N1798 C1800 1.356 . S
N1798 H1810 0.984 . S
N1798 H1811 0.985 . S
N1799 C1801 1.356 . S
N1799 H1804 0.984 . S
N1799 H1805 0.985 . S
C1800 C1794 1.379 . S
C1800 C1797 1.363 . S
C1800 N1798 1.356 . S
C1801 C1795 1.363 . S
C1801 C1796 1.379 . S
C1801 N1799 1.356 . S
N1802 C1794 1.356 . S
N1802 H1808 0.984 . S
N1802 H1809 0.984 . S
N1803 C1796 1.356 . S
N1803 H1806 0.984 . S
N1803 H1807 0.985 . S
H1804 N1799 0.984 . S
H1805 N1799 0.985 . S
H1806 N1803 0.984 . S
H1807 N1803 0.985 . S
H1808 N1802 0.984 . S
H1809 N1802 0.984 . S
H1810 N1798 0.984 . S
H1811 N1798 0.985 . S
C1812 C1813 1.363 . S
C1812 C1818 1.379 . S
C1812 N1820 1.356 . S
C1813 C1812 1.363 . S
C1813 C1819 1.363 . S
C1814 C1815 1.363 . S
C1814 C1819 1.379 . S
C1814 N1821 1.356 . S
C1815 C1814 1.363 . S
C1815 C1818 1.363 . S
N1816 C1818 1.356 . S
N1816 H1828 0.984 . S
N1816 H1829 0.985 . S
N1817 C1819 1.356 . S
N1817 H1822 0.984 . S
N1817 H1823 0.985 . S
C1818 C1812 1.379 . S
C1818 C1815 1.363 . S
C1818 N1816 1.356 . S
C1819 C1813 1.363 . S
C1819 C1814 1.379 . S
C1819 N1817 1.356 . S
N1820 C1812 1.356 . S
N1820 H1826 0.984 . S
N1820 H1827 0.984 . S
N1821 C1814 1.356 . S
N1821 H1824 0.984 . S
N1821 H1825 0.985 . S
H1822 N1817 0.984 . S
H1823 N1817 0.985 . S
H1824 N1821 0.984 . S
H1825 N1821 0.985 . S
H1826 N1820 0.984 . S
H1827 N1820 0.984 . S
H1828 N1816 0.984 . S
H1829 N1816 0.985 . S
C1830 C1831 1.363 . S
C1830 C1836 1.379 . S
C1830 N1838 1.356 . S
C1831 C1830 1.363 . S
C1831 C1837 1.363 . S
C1832 C1833 1.363 . S
C1832 C1837 1.379 . S
C1832 N1839 1.356 . S
C1833 C1832 1.363 . S
C1833 C1836 1.363 . S
N1834 C1836 1.356 . S
N1834 H1846 0.984 . S
N1834 H1847 0.985 . S
N1835 C1837 1.356 . S
N1835 H1840 0.984 . S
N1835 H1841 0.985 . S
C1836 C1830 1.379 . S
C1836 C1833 1.363 . S
C1836 N1834 1.356 . S
C1837 C1831 1.363 . S
C1837 C1832 1.379 . S
C1837 N1835 1.356 . S
N1838 C1830 1.356 . S
N1838 H1844 0.984 . S
N1838 H1845 0.984 . S
N1839 C1832 1.356 . S
N1839 H1842 0.984 . S
N1839 H1843 0.985 . S
H1840 N1835 0.984 . S
H1841 N1835 0.985 . S
H1842 N1839 0.984 . S
H1843 N1839 0.985 . S
H1844 N1838 0.984 . S
H1845 N1838 0.984 . S
H1846 N1834 0.984 . S
H1847 N1834 0.985 . S
C1848 C1849 1.363 . S
C1848 C1854 1.379 . S
C1848 N1856 1.356 . S
C1849 C1848 1.363 . S
C1849 C1855 1.363 . S
C1850 C1851 1.363 . S
C1850 C1855 1.379 . S
C1850 N1857 1.356 . S
C1851 C1850 1.363 . S
C1851 C1854 1.363 . S
N1852 C1854 1.356 . S
N1852 H1864 0.984 . S
N1852 H1865 0.985 . S
N1853 C1855 1.356 . S
N1853 H1858 0.984 . S
N1853 H1859 0.985 . S
C1854 C1848 1.379 . S
C1854 C1851 1.363 . S
C1854 N1852 1.356 . S
C1855 C1849 1.363 . S
C1855 C1850 1.379 . S
C1855 N1853 1.356 . S
N1856 C1848 1.356 . S
N1856 H1862 0.984 . S
N1856 H1863 0.984 . S
N1857 C1850 1.356 . S
N1857 H1860 0.984 . S
N1857 H1861 0.985 . S
H1858 N1853 0.984 . S
H1859 N1853 0.985 . S
H1860 N1857 0.984 . S
H1861 N1857 0.985 . S
H1862 N1856 0.984 . S
H1863 N1856 0.984 . S
H1864 N1852 0.984 . S
H1865 N1852 0.985 . S
C1866 C1867 1.363 . S
C1866 C1872 1.379 . S
C1866 N1874 1.356 . S
C1867 C1866 1.363 . S
C1867 C1873 1.363 . S
C1868 C1869 1.363 . S
C1868 C1873 1.379 . S
C1868 N1875 1.356 . S
C1869 C1868 1.363 . S
C1869 C1872 1.363 . S
N1870 C1872 1.356 . S
N1870 H1882 0.984 . S
N1870 H1883 0.985 . S
N1871 C1873 1.356 . S
N1871 H1876 0.984 . S
N1871 H1877 0.985 . S
C1872 C1866 1.379 . S
C1872 C1869 1.363 . S
C1872 N1870 1.356 . S
C1873 C1867 1.363 . S
C1873 C1868 1.379 . S
C1873 N1871 1.356 . S
N1874 C1866 1.356 . S
N1874 H1880 0.984 . S
N1874 H1881 0.984 . S
N1875 C1868 1.356 . S
N1875 H1878 0.984 . S
N1875 H1879 0.985 . S
H1876 N1871 0.984 . S
H1877 N1871 0.985 . S
H1878 N1875 0.984 . S
H1879 N1875 0.985 . S
H1880 N1874 0.984 . S
H1881 N1874 0.984 . S
H1882 N1870 0.984 . S
H1883 N1870 0.985 . S
C1884 C1885 1.363 . S
C1884 C1890 1.379 . S
C1884 N1892 1.356 . S
C1885 C1884 1.363 . S
C1885 C1891 1.363 . S
C1886 C1887 1.363 . S
C1886 C1891 1.379 . S
C1886 N1893 1.356 . S
C1887 C1886 1.363 . S
C1887 C1890 1.363 . S
N1888 C1890 1.356 . S
N1888 H1900 0.984 . S
N1888 H1901 0.985 . S
N1889 C1891 1.356 . S
N1889 H1894 0.984 . S
N1889 H1895 0.985 . S
C1890 C1884 1.379 . S
C1890 C1887 1.363 . S
C1890 N1888 1.356 . S
C1891 C1885 1.363 . S
C1891 C1886 1.379 . S
C1891 N1889 1.356 . S
N1892 C1884 1.356 . S
N1892 H1898 0.984 . S
N1892 H1899 0.984 . S
N1893 C1886 1.356 . S
N1893 H1896 0.984 . S
N1893 H1897 0.985 . S
H1894 N1889 0.984 . S
H1895 N1889 0.985 . S
H1896 N1893 0.984 . S
H1897 N1893 0.985 . S
H1898 N1892 0.984 . S
H1899 N1892 0.984 . S
H1900 N1888 0.984 . S
H1901 N1888 0.985 . S
C1902 C1903 1.363 . S
C1902 C1908 1.379 . S
C1902 N1910 1.356 . S
C1903 C1902 1.363 . S
C1903 C1909 1.363 . S
C1904 C1905 1.363 . S
C1904 C1909 1.379 . S
C1904 N1911 1.356 . S
C1905 C1904 1.363 . S
C1905 C1908 1.363 . S
N1906 C1908 1.356 . S
N1906 H1918 0.984 . S
N1906 H1919 0.985 . S
N1907 C1909 1.356 . S
N1907 H1912 0.984 . S
N1907 H1913 0.985 . S
C1908 C1902 1.379 . S
C1908 C1905 1.363 . S
C1908 N1906 1.356 . S
C1909 C1903 1.363 . S
C1909 C1904 1.379 . S
C1909 N1907 1.356 . S
N1910 C1902 1.356 . S
N1910 H1916 0.984 . S
N1910 H1917 0.984 . S
N1911 C1904 1.356 . S
N1911 H1914 0.984 . S
N1911 H1915 0.985 . S
H1912 N1907 0.984 . S
H1913 N1907 0.985 . S
H1914 N1911 0.984 . S
H1915 N1911 0.985 . S
H1916 N1910 0.984 . S
H1917 N1910 0.984 . S
H1918 N1906 0.984 . S
H1919 N1906 0.985 . S
C1920 C1921 1.363 . S
C1920 C1926 1.379 1_554 S
C1920 N1928 1.356 . S
C1921 C1920 1.363 . S
C1921 C1927 1.363 . S
C1922 C1923 1.363 . S
C1922 C1927 1.379 1_556 S
C1922 N1929 1.356 . S
C1923 C1922 1.363 . S
C1923 C1926 1.363 . S
N1924 C1926 1.356 . S
N1924 H1936 0.984 . S
N1924 H1937 0.985 . S
N1925 C1927 1.356 . S
N1925 H1930 0.984 . S
N1925 H1931 0.985 . S
C1926 C1920 1.379 1_556 S
C1926 C1923 1.363 . S
C1926 N1924 1.356 . S
C1927 C1921 1.363 . S
C1927 C1922 1.379 1_554 S
C1927 N1925 1.356 . S
N1928 C1920 1.356 . S
N1928 H1934 0.984 . S
N1928 H1935 0.984 . S
N1929 C1922 1.356 . S
N1929 H1932 0.984 . S
N1929 H1933 0.985 . S
H1930 N1925 0.984 . S
H1931 N1925 0.985 . S
H1932 N1929 0.984 . S
H1933 N1929 0.985 . S
H1934 N1928 0.984 . S
H1935 N1928 0.984 . S
H1936 N1924 0.984 . S
H1937 N1924 0.985 . S
C1938 C1939 1.363 . S
C1938 C1944 1.379 1_556 S
C1938 N1946 1.356 . S
C1939 C1938 1.363 . S
C1939 C1945 1.363 . S
C1940 C1941 1.363 . S
C1940 C1945 1.379 1_554 S
C1940 N1947 1.356 . S
C1941 C1940 1.363 . S
C1941 C1944 1.363 . S
N1942 C1944 1.356 . S
N1942 H1954 0.984 . S
N1942 H1955 0.985 . S
N1943 C1945 1.356 . S
N1943 H1948 0.984 . S
N1943 H1949 0.985 . S
C1944 C1938 1.379 1_554 S
C1944 C1941 1.363 . S
C1944 N1942 1.356 . S
C1945 C1939 1.363 . S
C1945 C1940 1.379 1_556 S
C1945 N1943 1.356 . S
N1946 C1938 1.356 . S
N1946 H1952 0.984 . S
N1946 H1953 0.984 . S
N1947 C1940 1.356 . S
N1947 H1950 0.984 . S
N1947 H1951 0.985 . S
H1948 N1943 0.984 . S
H1949 N1943 0.985 . S
H1950 N1947 0.984 . S
H1951 N1947 0.985 . S
H1952 N1946 0.984 . S
H1953 N1946 0.984 . S
H1954 N1942 0.984 . S
H1955 N1942 0.985 . S
C1956 C1957 1.363 . S
C1956 C1962 1.379 1_554 S
C1956 N1964 1.356 . S
C1957 C1956 1.363 . S
C1957 C1963 1.363 . S
C1958 C1959 1.363 . S
C1958 C1963 1.379 1_556 S
C1958 N1965 1.356 . S
C1959 C1958 1.363 . S
C1959 C1962 1.363 . S
N1960 C1962 1.356 . S
N1960 H1972 0.984 . S
N1960 H1973 0.985 . S
N1961 C1963 1.356 . S
N1961 H1966 0.984 . S
N1961 H1967 0.985 . S
C1962 C1956 1.379 1_556 S
C1962 C1959 1.363 . S
C1962 N1960 1.356 . S
C1963 C1957 1.363 . S
C1963 C1958 1.379 1_554 S
C1963 N1961 1.356 . S
N1964 C1956 1.356 . S
N1964 H1970 0.984 . S
N1964 H1971 0.984 . S
N1965 C1958 1.356 . S
N1965 H1968 0.984 . S
N1965 H1969 0.985 . S
H1966 N1961 0.984 . S
H1967 N1961 0.985 . S
H1968 N1965 0.984 . S
H1969 N1965 0.985 . S
H1970 N1964 0.984 . S
H1971 N1964 0.984 . S
H1972 N1960 0.984 . S
H1973 N1960 0.985 . S
C1974 C1975 1.363 . S
C1974 C1980 1.379 1_554 S
C1974 N1982 1.356 . S
C1975 C1974 1.363 . S
C1975 C1981 1.363 . S
C1976 C1977 1.363 . S
C1976 C1981 1.379 1_556 S
C1976 N1983 1.356 . S
C1977 C1976 1.363 . S
C1977 C1980 1.363 . S
N1978 C1980 1.356 . S
N1978 H1990 0.984 . S
N1978 H1991 0.985 . S
N1979 C1981 1.356 . S
N1979 H1984 0.984 . S
N1979 H1985 0.985 . S
C1980 C1974 1.379 1_556 S
C1980 C1977 1.363 . S
C1980 N1978 1.356 . S
C1981 C1975 1.363 . S
C1981 C1976 1.379 1_554 S
C1981 N1979 1.356 . S
N1982 C1974 1.356 . S
N1982 H1988 0.984 . S
N1982 H1989 0.984 . S
N1983 C1976 1.356 . S
N1983 H1986 0.984 . S
N1983 H1987 0.985 . S
H1984 N1979 0.984 . S
H1985 N1979 0.985 . S
H1986 N1983 0.984 . S
H1987 N1983 0.985 . S
H1988 N1982 0.984 . S
H1989 N1982 0.984 . S
H1990 N1978 0.984 . S
H1991 N1978 0.985 . S
C1992 C1993 1.363 . S
C1992 C1998 1.379 1_556 S
C1992 N2000 1.356 . S
C1993 C1992 1.363 . S
C1993 C1999 1.363 . S
C1994 C1995 1.363 . S
C1994 C1999 1.379 1_554 S
C1994 N2001 1.356 . S
C1995 C1994 1.363 . S
C1995 C1998 1.363 . S
N1996 C1998 1.356 . S
N1996 H2008 0.984 . S
N1996 H2009 0.985 . S
N1997 C1999 1.356 . S
N1997 H2002 0.984 . S
N1997 H2003 0.985 . S
C1998 C1992 1.379 1_554 S
C1998 C1995 1.363 . S
C1998 N1996 1.356 . S
C1999 C1993 1.363 . S
C1999 C1994 1.379 1_556 S
C1999 N1997 1.356 . S
N2000 C1992 1.356 . S
N2000 H2006 0.984 . S
N2000 H2007 0.984 . S
N2001 C1994 1.356 . S
N2001 H2004 0.984 . S
N2001 H2005 0.985 . S
H2002 N1997 0.984 . S
H2003 N1997 0.985 . S
H2004 N2001 0.984 . S
H2005 N2001 0.985 . S
H2006 N2000 0.984 . S
H2007 N2000 0.984 . S
H2008 N1996 0.984 . S
H2009 N1996 0.985 . S
C2010 C2011 1.363 . S
C2010 C2016 1.379 1_554 S
C2010 N2018 1.356 . S
C2011 C2010 1.363 . S
C2011 C2017 1.363 . S
C2012 C2013 1.363 . S
C2012 C2017 1.379 1_556 S
C2012 N2019 1.356 . S
C2013 C2012 1.363 . S
C2013 C2016 1.363 . S
N2014 C2016 1.356 . S
N2014 H2026 0.984 . S
N2014 H2027 0.985 . S
N2015 C2017 1.356 . S
N2015 H2020 0.984 . S
N2015 H2021 0.985 . S
C2016 C2010 1.379 1_556 S
C2016 C2013 1.363 . S
C2016 N2014 1.356 . S
C2017 C2011 1.363 . S
C2017 C2012 1.379 1_554 S
C2017 N2015 1.356 . S
N2018 C2010 1.356 . S
N2018 H2024 0.984 . S
N2018 H2025 0.984 . S
N2019 C2012 1.356 . S
N2019 H2022 0.984 . S
N2019 H2023 0.985 . S
H2020 N2015 0.984 . S
H2021 N2015 0.985 . S
H2022 N2019 0.984 . S
H2023 N2019 0.985 . S
H2024 N2018 0.984 . S
H2025 N2018 0.984 . S
H2026 N2014 0.984 . S
H2027 N2014 0.985 . S
C2028 C2029 1.363 . S
C2028 C2034 1.379 1_556 S
C2028 N2036 1.356 . S
C2029 C2028 1.363 . S
C2029 C2035 1.363 . S
C2030 C2031 1.363 . S
C2030 C2035 1.379 1_554 S
C2030 N2037 1.356 . S
C2031 C2030 1.363 . S
C2031 C2034 1.363 . S
N2032 C2034 1.356 . S
N2032 H2044 0.984 . S
N2032 H2045 0.985 . S
N2033 C2035 1.356 . S
N2033 H2038 0.984 . S
N2033 H2039 0.985 . S
C2034 C2028 1.379 1_554 S
C2034 C2031 1.363 . S
C2034 N2032 1.356 . S
C2035 C2029 1.363 . S
C2035 C2030 1.379 1_556 S
C2035 N2033 1.356 . S
N2036 C2028 1.356 . S
N2036 H2042 0.984 . S
N2036 H2043 0.984 . S
N2037 C2030 1.356 . S
N2037 H2040 0.984 . S
N2037 H2041 0.985 . S
H2038 N2033 0.984 . S
H2039 N2033 0.985 . S
H2040 N2037 0.984 . S
H2041 N2037 0.985 . S
H2042 N2036 0.984 . S
H2043 N2036 0.984 . S
H2044 N2032 0.984 . S
H2045 N2032 0.985 . S
C2046 C2047 1.363 . S
C2046 C2052 1.379 1_554 S
C2046 N2054 1.356 . S
C2047 C2046 1.363 . S
C2047 C2053 1.363 . S
C2048 C2049 1.363 . S
C2048 C2053 1.379 1_556 S
C2048 N2055 1.356 . S
C2049 C2048 1.363 . S
C2049 C2052 1.363 . S
N2050 C2052 1.356 . S
N2050 H2062 0.984 . S
N2050 H2063 0.985 . S
N2051 C2053 1.356 . S
N2051 H2056 0.984 . S
N2051 H2057 0.985 . S
C2052 C2046 1.379 1_556 S
C2052 C2049 1.363 . S
C2052 N2050 1.356 . S
C2053 C2047 1.363 . S
C2053 C2048 1.379 1_554 S
C2053 N2051 1.356 . S
N2054 C2046 1.356 . S
N2054 H2060 0.984 . S
N2054 H2061 0.984 . S
N2055 C2048 1.356 . S
N2055 H2058 0.984 . S
N2055 H2059 0.985 . S
H2056 N2051 0.984 . S
H2057 N2051 0.985 . S
H2058 N2055 0.984 . S
H2059 N2055 0.985 . S
H2060 N2054 0.984 . S
H2061 N2054 0.984 . S
H2062 N2050 0.984 . S
H2063 N2050 0.985 . S
C2064 C2065 1.363 . S
C2064 C2070 1.379 1_455 S
C2064 N2072 1.356 . S
C2065 C2064 1.363 . S
C2065 C2071 1.363 . S
C2066 C2067 1.363 . S
C2066 C2071 1.379 1_655 S
C2066 N2073 1.356 . S
C2067 C2066 1.363 . S
C2067 C2070 1.363 . S
N2068 C2070 1.356 . S
N2068 H2080 0.984 . S
N2068 H2081 0.985 . S
N2069 C2071 1.356 . S
N2069 H2074 0.984 . S
N2069 H2075 0.985 . S
C2070 C2064 1.379 1_655 S
C2070 C2067 1.363 . S
C2070 N2068 1.356 . S
C2071 C2065 1.363 . S
C2071 C2066 1.379 1_455 S
C2071 N2069 1.356 . S
N2072 C2064 1.356 . S
N2072 H2078 0.984 . S
N2072 H2079 0.984 . S
N2073 C2066 1.356 . S
N2073 H2076 0.984 . S
N2073 H2077 0.985 . S
H2074 N2069 0.984 . S
H2075 N2069 0.985 . S
H2076 N2073 0.984 . S
H2077 N2073 0.985 . S
H2078 N2072 0.984 . S
H2079 N2072 0.984 . S
H2080 N2068 0.984 . S
H2081 N2068 0.985 . S
C2082 C2083 1.363 . S
C2082 C2088 1.379 1_565 S
C2082 N2090 1.356 . S
C2083 C2082 1.363 . S
C2083 C2089 1.363 . S
C2084 C2085 1.363 . S
C2084 C2089 1.379 1_545 S
C2084 N2091 1.356 . S
C2085 C2084 1.363 . S
C2085 C2088 1.363 . S
N2086 C2088 1.356 . S
N2086 H2098 0.984 . S
N2086 H2099 0.985 . S
N2087 C2089 1.356 . S
N2087 H2092 0.984 . S
N2087 H2093 0.985 . S
C2088 C2082 1.379 1_545 S
C2088 C2085 1.363 . S
C2088 N2086 1.356 . S
C2089 C2083 1.363 . S
C2089 C2084 1.379 1_565 S
C2089 N2087 1.356 . S
N2090 C2082 1.356 . S
N2090 H2096 0.984 . S
N2090 H2097 0.984 . S
N2091 C2084 1.356 . S
N2091 H2094 0.984 . S
N2091 H2095 0.985 . S
H2092 N2087 0.984 . S
H2093 N2087 0.985 . S
H2094 N2091 0.984 . S
H2095 N2091 0.985 . S
H2096 N2090 0.984 . S
H2097 N2090 0.984 . S
H2098 N2086 0.984 . S
H2099 N2086 0.985 . S
C2100 C2101 1.363 . S
C2100 C2106 1.379 1_455 S
C2100 N2108 1.356 . S
C2101 C2100 1.363 . S
C2101 C2107 1.363 . S
C2102 C2103 1.363 . S
C2102 C2107 1.379 1_655 S
C2102 N2109 1.356 . S
C2103 C2102 1.363 . S
C2103 C2106 1.363 . S
N2104 C2106 1.356 . S
N2104 H2116 0.984 . S
N2104 H2117 0.985 . S
N2105 C2107 1.356 . S
N2105 H2110 0.984 . S
N2105 H2111 0.985 . S
C2106 C2100 1.379 1_655 S
C2106 C2103 1.363 . S
C2106 N2104 1.356 . S
C2107 C2101 1.363 . S
C2107 C2102 1.379 1_455 S
C2107 N2105 1.356 . S
N2108 C2100 1.356 . S
N2108 H2114 0.984 . S
N2108 H2115 0.984 . S
N2109 C2102 1.356 . S
N2109 H2112 0.984 . S
N2109 H2113 0.985 . S
H2110 N2105 0.984 . S
H2111 N2105 0.985 . S
H2112 N2109 0.984 . S
H2113 N2109 0.985 . S
H2114 N2108 0.984 . S
H2115 N2108 0.984 . S
H2116 N2104 0.984 . S
H2117 N2104 0.985 . S
C2118 C2119 1.363 . S
C2118 C2124 1.379 1_565 S
C2118 N2126 1.356 . S
C2119 C2118 1.363 . S
C2119 C2125 1.363 . S
C2120 C2121 1.363 . S
C2120 C2125 1.379 1_545 S
C2120 N2127 1.356 . S
C2121 C2120 1.363 . S
C2121 C2124 1.363 . S
N2122 C2124 1.356 . S
N2122 H2134 0.984 . S
N2122 H2135 0.985 . S
N2123 C2125 1.356 . S
N2123 H2128 0.984 . S
N2123 H2129 0.985 . S
C2124 C2118 1.379 1_545 S
C2124 C2121 1.363 . S
C2124 N2122 1.356 . S
C2125 C2119 1.363 . S
C2125 C2120 1.379 1_565 S
C2125 N2123 1.356 . S
N2126 C2118 1.356 . S
N2126 H2132 0.984 . S
N2126 H2133 0.984 . S
N2127 C2120 1.356 . S
N2127 H2130 0.984 . S
N2127 H2131 0.985 . S
H2128 N2123 0.984 . S
H2129 N2123 0.985 . S
H2130 N2127 0.984 . S
H2131 N2127 0.985 . S
H2132 N2126 0.984 . S
H2133 N2126 0.984 . S
H2134 N2122 0.984 . S
H2135 N2122 0.985 . S
C2136 C2137 1.363 . S
C2136 C2142 1.379 1_655 S
C2136 N2144 1.356 . S
C2137 C2136 1.363 . S
C2137 C2143 1.363 . S
C2138 C2139 1.363 . S
C2138 C2143 1.379 1_455 S
C2138 N2145 1.356 . S
C2139 C2138 1.363 . S
C2139 C2142 1.363 . S
N2140 C2142 1.356 . S
N2140 H2152 0.984 . S
N2140 H2153 0.985 . S
N2141 C2143 1.356 . S
N2141 H2146 0.984 . S
N2141 H2147 0.985 . S
C2142 C2136 1.379 1_455 S
C2142 C2139 1.363 . S
C2142 N2140 1.356 . S
C2143 C2137 1.363 . S
C2143 C2138 1.379 1_655 S
C2143 N2141 1.356 . S
N2144 C2136 1.356 . S
N2144 H2150 0.984 . S
N2144 H2151 0.984 . S
N2145 C2138 1.356 . S
N2145 H2148 0.984 . S
N2145 H2149 0.985 . S
H2146 N2141 0.984 . S
H2147 N2141 0.985 . S
H2148 N2145 0.984 . S
H2149 N2145 0.985 . S
H2150 N2144 0.984 . S
H2151 N2144 0.984 . S
H2152 N2140 0.984 . S
H2153 N2140 0.985 . S
C2154 C2155 1.363 . S
C2154 C2160 1.379 1_545 S
C2154 N2162 1.356 . S
C2155 C2154 1.363 . S
C2155 C2161 1.363 . S
C2156 C2157 1.363 . S
C2156 C2161 1.379 1_565 S
C2156 N2163 1.356 . S
C2157 C2156 1.363 . S
C2157 C2160 1.363 . S
N2158 C2160 1.356 . S
N2158 H2170 0.984 . S
N2158 H2171 0.985 . S
N2159 C2161 1.356 . S
N2159 H2164 0.984 . S
N2159 H2165 0.985 . S
C2160 C2154 1.379 1_565 S
C2160 C2157 1.363 . S
C2160 N2158 1.356 . S
C2161 C2155 1.363 . S
C2161 C2156 1.379 1_545 S
C2161 N2159 1.356 . S
N2162 C2154 1.356 . S
N2162 H2168 0.984 . S
N2162 H2169 0.984 . S
N2163 C2156 1.356 . S
N2163 H2166 0.984 . S
N2163 H2167 0.985 . S
H2164 N2159 0.984 . S
H2165 N2159 0.985 . S
H2166 N2163 0.984 . S
H2167 N2163 0.985 . S
H2168 N2162 0.984 . S
H2169 N2162 0.984 . S
H2170 N2158 0.984 . S
H2171 N2158 0.985 . S
C2172 C2173 1.363 . S
C2172 C2178 1.379 1_455 S
C2172 N2180 1.356 . S
C2173 C2172 1.363 . S
C2173 C2179 1.363 . S
C2174 C2175 1.363 . S
C2174 C2179 1.379 1_655 S
C2174 N2181 1.356 . S
C2175 C2174 1.363 . S
C2175 C2178 1.363 . S
N2176 C2178 1.356 . S
N2176 H2188 0.984 . S
N2176 H2189 0.985 . S
N2177 C2179 1.356 . S
N2177 H2182 0.984 . S
N2177 H2183 0.985 . S
C2178 C2172 1.379 1_655 S
C2178 C2175 1.363 . S
C2178 N2176 1.356 . S
C2179 C2173 1.363 . S
C2179 C2174 1.379 1_455 S
C2179 N2177 1.356 . S
N2180 C2172 1.356 . S
N2180 H2186 0.984 . S
N2180 H2187 0.984 . S
N2181 C2174 1.356 . S
N2181 H2184 0.984 . S
N2181 H2185 0.985 . S
H2182 N2177 0.984 . S
H2183 N2177 0.985 . S
H2184 N2181 0.984 . S
H2185 N2181 0.985 . S
H2186 N2180 0.984 . S
H2187 N2180 0.984 . S
H2188 N2176 0.984 . S
H2189 N2176 0.985 . S
C2190 C2191 1.363 . S
C2190 C2196 1.379 1_545 S
C2190 N2198 1.356 . S
C2191 C2190 1.363 . S
C2191 C2197 1.363 . S
C2192 C2193 1.363 . S
C2192 C2197 1.379 1_565 S
C2192 N2199 1.356 . S
C2193 C2192 1.363 . S
C2193 C2196 1.363 . S
N2194 C2196 1.356 . S
N2194 H2206 0.984 . S
N2194 H2207 0.985 . S
N2195 C2197 1.356 . S
N2195 H2200 0.984 . S
N2195 H2201 0.985 . S
C2196 C2190 1.379 1_565 S
C2196 C2193 1.363 . S
C2196 N2194 1.356 . S
C2197 C2191 1.363 . S
C2197 C2192 1.379 1_545 S
C2197 N2195 1.356 . S
N2198 C2190 1.356 . S
N2198 H2204 0.984 . S
N2198 H2205 0.984 . S
N2199 C2192 1.356 . S
N2199 H2202 0.984 . S
N2199 H2203 0.985 . S
H2200 N2195 0.984 . S
H2201 N2195 0.985 . S
H2202 N2199 0.984 . S
H2203 N2199 0.985 . S
H2204 N2198 0.984 . S
H2205 N2198 0.984 . S
H2206 N2194 0.984 . S
H2207 N2194 0.985 . S
C2208 C2209 1.363 . S
C2208 C2214 1.379 1_545 S
C2208 N2216 1.356 . S
C2209 C2208 1.363 . S
C2209 C2215 1.363 . S
C2210 C2211 1.363 . S
C2210 C2215 1.379 1_565 S
C2210 N2217 1.356 . S
C2211 C2210 1.363 . S
C2211 C2214 1.363 . S
N2212 C2214 1.356 . S
N2212 H2224 0.984 . S
N2212 H2225 0.985 . S
N2213 C2215 1.356 . S
N2213 H2218 0.984 . S
N2213 H2219 0.985 . S
C2214 C2208 1.379 1_565 S
C2214 C2211 1.363 . S
C2214 N2212 1.356 . S
C2215 C2209 1.363 . S
C2215 C2210 1.379 1_545 S
C2215 N2213 1.356 . S
N2216 C2208 1.356 . S
N2216 H2222 0.984 . S
N2216 H2223 0.984 . S
N2217 C2210 1.356 . S
N2217 H2220 0.984 . S
N2217 H2221 0.985 . S
H2218 N2213 0.984 . S
H2219 N2213 0.985 . S
H2220 N2217 0.984 . S
H2221 N2217 0.985 . S
H2222 N2216 0.984 . S
H2223 N2216 0.984 . S
H2224 N2212 0.984 . S
H2225 N2212 0.985 . S
C2226 C2227 1.363 . S
C2226 C2232 1.379 1_545 S
C2226 N2234 1.356 . S
C2227 C2226 1.363 . S
C2227 C2233 1.363 . S
C2228 C2229 1.363 . S
C2228 C2233 1.379 1_565 S
C2228 N2235 1.356 . S
C2229 C2228 1.363 . S
C2229 C2232 1.363 . S
N2230 C2232 1.356 . S
N2230 H2242 0.984 . S
N2230 H2243 0.985 . S
N2231 C2233 1.356 . S
N2231 H2236 0.984 . S
N2231 H2237 0.985 . S
C2232 C2226 1.379 1_565 S
C2232 C2229 1.363 . S
C2232 N2230 1.356 . S
C2233 C2227 1.363 . S
C2233 C2228 1.379 1_545 S
C2233 N2231 1.356 . S
N2234 C2226 1.356 . S
N2234 H2240 0.984 . S
N2234 H2241 0.984 . S
N2235 C2228 1.356 . S
N2235 H2238 0.984 . S
N2235 H2239 0.985 . S
H2236 N2231 0.984 . S
H2237 N2231 0.985 . S
H2238 N2235 0.984 . S
H2239 N2235 0.985 . S
H2240 N2234 0.984 . S
H2241 N2234 0.984 . S
H2242 N2230 0.984 . S
H2243 N2230 0.985 . S
C2244 C2245 1.363 . S
C2244 C2250 1.379 1_655 S
C2244 N2252 1.356 . S
C2245 C2244 1.363 . S
C2245 C2251 1.363 . S
C2246 C2247 1.363 . S
C2246 C2251 1.379 1_455 S
C2246 N2253 1.356 . S
C2247 C2246 1.363 . S
C2247 C2250 1.363 . S
N2248 C2250 1.356 . S
N2248 H2260 0.984 . S
N2248 H2261 0.985 . S
N2249 C2251 1.356 . S
N2249 H2254 0.984 . S
N2249 H2255 0.985 . S
C2250 C2244 1.379 1_455 S
C2250 C2247 1.363 . S
C2250 N2248 1.356 . S
C2251 C2245 1.363 . S
C2251 C2246 1.379 1_655 S
C2251 N2249 1.356 . S
N2252 C2244 1.356 . S
N2252 H2258 0.984 . S
N2252 H2259 0.984 . S
N2253 C2246 1.356 . S
N2253 H2256 0.984 . S
N2253 H2257 0.985 . S
H2254 N2249 0.984 . S
H2255 N2249 0.985 . S
H2256 N2253 0.984 . S
H2257 N2253 0.985 . S
H2258 N2252 0.984 . S
H2259 N2252 0.984 . S
H2260 N2248 0.984 . S
H2261 N2248 0.985 . S
C2262 C2263 1.363 . S
C2262 C2268 1.379 1_545 S
C2262 N2270 1.356 . S
C2263 C2262 1.363 . S
C2263 C2269 1.363 . S
C2264 C2265 1.363 . S
C2264 C2269 1.379 1_565 S
C2264 N2271 1.356 . S
C2265 C2264 1.363 . S
C2265 C2268 1.363 . S
N2266 C2268 1.356 . S
N2266 H2278 0.984 . S
N2266 H2279 0.985 . S
N2267 C2269 1.356 . S
N2267 H2272 0.984 . S
N2267 H2273 0.985 . S
C2268 C2262 1.379 1_565 S
C2268 C2265 1.363 . S
C2268 N2266 1.356 . S
C2269 C2263 1.363 . S
C2269 C2264 1.379 1_545 S
C2269 N2267 1.356 . S
N2270 C2262 1.356 . S
N2270 H2276 0.984 . S
N2270 H2277 0.984 . S
N2271 C2264 1.356 . S
N2271 H2274 0.984 . S
N2271 H2275 0.985 . S
H2272 N2267 0.984 . S
H2273 N2267 0.985 . S
H2274 N2271 0.984 . S
H2275 N2271 0.985 . S
H2276 N2270 0.984 . S
H2277 N2270 0.984 . S
H2278 N2266 0.984 . S
H2279 N2266 0.985 . S
C2280 C2281 1.363 . S
C2280 C2286 1.379 1_455 S
C2280 N2288 1.356 . S
C2281 C2280 1.363 . S
C2281 C2287 1.363 . S
C2282 C2283 1.363 . S
C2282 C2287 1.379 1_655 S
C2282 N2289 1.356 . S
C2283 C2282 1.363 . S
C2283 C2286 1.363 . S
N2284 C2286 1.356 . S
N2284 H2296 0.984 . S
N2284 H2297 0.985 . S
N2285 C2287 1.356 . S
N2285 H2290 0.984 . S
N2285 H2291 0.985 . S
C2286 C2280 1.379 1_655 S
C2286 C2283 1.363 . S
C2286 N2284 1.356 . S
C2287 C2281 1.363 . S
C2287 C2282 1.379 1_455 S
C2287 N2285 1.356 . S
N2288 C2280 1.356 . S
N2288 H2294 0.984 . S
N2288 H2295 0.984 . S
N2289 C2282 1.356 . S
N2289 H2292 0.984 . S
N2289 H2293 0.985 . S
H2290 N2285 0.984 . S
H2291 N2285 0.985 . S
H2292 N2289 0.984 . S
H2293 N2289 0.985 . S
H2294 N2288 0.984 . S
H2295 N2288 0.984 . S
H2296 N2284 0.984 . S
H2297 N2284 0.985 . S
C2298 C2299 1.363 . S
C2298 C2304 1.379 1_545 S
C2298 N2306 1.356 . S
C2299 C2298 1.363 . S
C2299 C2305 1.363 . S
C2300 C2301 1.363 . S
C2300 C2305 1.379 1_565 S
C2300 N2307 1.356 . S
C2301 C2300 1.363 . S
C2301 C2304 1.363 . S
N2302 C2304 1.356 . S
N2302 H2314 0.984 . S
N2302 H2315 0.985 . S
N2303 C2305 1.356 . S
N2303 H2308 0.984 . S
N2303 H2309 0.985 . S
C2304 C2298 1.379 1_565 S
C2304 C2301 1.363 . S
C2304 N2302 1.356 . S
C2305 C2299 1.363 . S
C2305 C2300 1.379 1_545 S
C2305 N2303 1.356 . S
N2306 C2298 1.356 . S
N2306 H2312 0.984 . S
N2306 H2313 0.984 . S
N2307 C2300 1.356 . S
N2307 H2310 0.984 . S
N2307 H2311 0.985 . S
H2308 N2303 0.984 . S
H2309 N2303 0.985 . S
H2310 N2307 0.984 . S
H2311 N2307 0.985 . S
H2312 N2306 0.984 . S
H2313 N2306 0.984 . S
H2314 N2302 0.984 . S
H2315 N2302 0.985 . S
C2316 C2317 1.363 . S
C2316 C2322 1.379 1_655 S
C2316 N2324 1.356 . S
C2317 C2316 1.363 . S
C2317 C2323 1.363 . S
C2318 C2319 1.363 . S
C2318 C2323 1.379 1_455 S
C2318 N2325 1.356 . S
C2319 C2318 1.363 . S
C2319 C2322 1.363 . S
N2320 C2322 1.356 . S
N2320 H2332 0.984 . S
N2320 H2333 0.985 . S
N2321 C2323 1.356 . S
N2321 H2326 0.984 . S
N2321 H2327 0.985 . S
C2322 C2316 1.379 1_455 S
C2322 C2319 1.363 . S
C2322 N2320 1.356 . S
C2323 C2317 1.363 . S
C2323 C2318 1.379 1_655 S
C2323 N2321 1.356 . S
N2324 C2316 1.356 . S
N2324 H2330 0.984 . S
N2324 H2331 0.984 . S
N2325 C2318 1.356 . S
N2325 H2328 0.984 . S
N2325 H2329 0.985 . S
H2326 N2321 0.984 . S
H2327 N2321 0.985 . S
H2328 N2325 0.984 . S
H2329 N2325 0.985 . S
H2330 N2324 0.984 . S
H2331 N2324 0.984 . S
H2332 N2320 0.984 . S
H2333 N2320 0.985 . S
C2334 C2335 1.363 . S
C2334 C2340 1.379 1_455 S
C2334 N2342 1.356 . S
C2335 C2334 1.363 . S
C2335 C2341 1.363 . S
C2336 C2337 1.363 . S
C2336 C2341 1.379 1_655 S
C2336 N2343 1.356 . S
C2337 C2336 1.363 . S
C2337 C2340 1.363 . S
N2338 C2340 1.356 . S
N2338 H2350 0.984 . S
N2338 H2351 0.985 . S
N2339 C2341 1.356 . S
N2339 H2344 0.984 . S
N2339 H2345 0.985 . S
C2340 C2334 1.379 1_655 S
C2340 C2337 1.363 . S
C2340 N2338 1.356 . S
C2341 C2335 1.363 . S
C2341 C2336 1.379 1_455 S
C2341 N2339 1.356 . S
N2342 C2334 1.356 . S
N2342 H2348 0.984 . S
N2342 H2349 0.984 . S
N2343 C2336 1.356 . S
N2343 H2346 0.984 . S
N2343 H2347 0.985 . S
H2344 N2339 0.984 . S
H2345 N2339 0.985 . S
H2346 N2343 0.984 . S
H2347 N2343 0.985 . S
H2348 N2342 0.984 . S
H2349 N2342 0.984 . S
H2350 N2338 0.984 . S
H2351 N2338 0.985 . S
C625 C517 1.445 . S
C627 C10 1.445 . S
C643 C13 1.153 . S
C645 C478 1.164 . S
C661 C36 1.315 . S
C663 C481 1.305 . S
C679 C494 1.225 . S
C681 C39 1.241 . S
C697 C429 1.222 . S
C699 C52 1.242 . S
C715 C75 1.350 . S
C717 C452 1.342 . S
C733 C78 1.172 . S
C735 C465 1.181 . S
C751 C101 1.433 . S
C753 C426 1.431 . S
C769 C104 1.388 . S
C771 C413 1.402 . S
C787 C364 1.146 . S
C789 C117 1.139 . S
C805 C387 1.351 . S
C807 C140 1.342 . S
C823 C153 1.272 . S
C825 C390 1.264 . S
C841 C166 1.206 . S
C843 C325 1.198 . S
C859 C179 1.348 . S
C861 C348 1.355 . S
C877 C351 1.170 . S
C879 C182 1.153 . S
C895 C322 1.399 . S
C897 C195 1.382 . S
C913 C208 1.336 . S
C915 C572 1.345 . S
C931 C621 1.231 . S
C933 C231 1.228 . S
C949 C585 1.262 . S
C951 C234 1.267 . S
C967 C608 1.198 . S
C969 C257 1.200 . S
C985 C520 1.357 . S
C987 C260 1.347 . S
C1003 C546 1.317 . S
C1005 C273 1.328 . S
C1021 C296 1.241 . S
C1023 C569 1.241 . S
C1039 C543 1.193 . S
C1041 C309 1.194 . S
C1057 C416 1.394 . S
C1059 C270 1.412 . S
C1075 C221 1.254 . S
C1077 C439 1.267 . S
C1093 C442 1.305 . S
C1095 C244 1.314 . S
C1111 C455 1.130 . S
C1113 C247 1.132 . S
C1129 C299 1.133 . S
C1131 C468 1.126 . S
C1147 C491 1.345 . S
C1149 C283 1.354 . S
C1165 C286 1.272 . S
C1167 C504 1.282 . S
C1183 C218 1.397 . S
C1185 C507 1.383 . S
C1201 C530 1.447 . S
C1203 C205 1.446 . S
C1219 C156 1.202 . S
C1221 C611 1.207 . S
C1237 C595 1.311 . S
C1239 C169 1.303 . S
C1255 C192 1.245 . S
C1257 C598 1.232 . S
C1273 C127 1.176 . S
C1275 C533 1.163 . S
C1291 C130 1.306 . S
C1293 C556 1.315 . S
C1309 C143 1.213 . S
C1311 C559 1.229 . S
C1327 C582 1.438 . S
C1329 C114 1.437 . S
C1345 C312 1.335 . S
C1347 C91 1.345 . S
C1363 C374 1.194 . S
C1365 C23 1.193 . S
C1381 C377 1.313 . S
C1383 C26 1.302 . S
C1399 C400 1.242 . S
C1401 C49 1.243 . S
C1417 C403 1.347 . S
C1419 C0 1.355 . S
C1435 C65 1.356 . S
C1437 C338 1.361 . S
C1453 C361 1.207 . S
C1455 C88 1.208 . S
C1471 C335 1.237 . S
C1473 C62 1.236 . S
C1489 C8 1.419 . S
C1491 C346 1.418 . S
C1507 C356 1.239 . S
C1509 C18 1.221 . S
C1525 C34 1.400 . S
C1527 C320 1.402 . S
C1543 C44 1.264 . S
C1545 C330 1.252 . S
C1561 C57 1.269 . S
C1563 C395 1.256 . S
C1579 C411 1.424 . S
C1581 C73 1.412 . S
C1597 C83 1.237 . S
C1599 C369 1.251 . S
C1615 C385 1.410 . S
C1617 C99 1.415 . S
C1633 C109 1.333 . S
C1635 C476 1.332 . S
C1651 C486 1.249 . S
C1653 C122 1.247 . S
C1669 C138 1.317 . S
C1671 C499 1.330 . S
C1687 C151 1.406 . S
C1689 C515 1.395 . S
C1705 C164 1.364 . S
C1707 C424 1.371 . S
C1723 C177 1.306 . S
C1725 C434 1.317 . S
C1741 C450 1.280 . S
C1743 C187 1.282 . S
C1759 C200 1.336 . S
C1761 C463 1.331 . S
C1777 C567 1.319 . S
C1779 C213 1.333 . S
C1795 C229 1.301 . S
C1797 C590 1.312 . S
C1813 C239 1.316 . S
C1815 C606 1.288 . S
C1831 C525 1.375 . S
C1833 C255 1.333 . S
C1849 C619 1.311 . S
C1851 C265 1.335 . S
C1867 C278 1.363 . S
C1869 C541 1.329 . S
C1885 C551 1.322 . S
C1887 C294 1.314 . S
C1903 C307 1.320 . S
C1905 C577 1.355 . S
C1921 C554 1.400 . S
C1923 C268 1.399 . S
C1939 C226 1.244 . S
C1941 C564 1.263 . S
C1957 C580 1.388 . S
C1959 C242 1.395 . S
C1975 C538 1.224 . S
C1977 C252 1.244 . S
C1993 C603 1.229 . S
C1995 C304 1.249 . S
C2011 C281 1.411 . S
C2013 C528 1.414 . S
C2029 C616 1.274 . S
C2031 C291 1.259 . S
C2047 C216 1.394 . S
C2049 C593 1.390 . S
C2065 C437 1.411 . S
C2067 C203 1.400 . S
C2083 C161 1.289 . S
C2085 C447 1.283 . S
C2101 C174 1.255 . S
C2103 C460 1.254 . S
C2119 C421 1.365 . S
C2121 C190 1.377 . S
C2137 C125 1.335 . S
C2139 C512 1.339 . S
C2155 C473 1.241 . S
C2157 C135 1.244 . S
C2173 C148 1.324 . S
C2175 C489 1.313 . S
C2191 C112 1.400 . S
C2193 C502 1.410 . S
C2209 C359 1.331 . S
C2211 C96 1.368 . S
C2227 C21 1.324 . S
C2229 C382 1.362 . S
C2245 C31 1.319 . S
C2247 C398 1.308 . S
C2263 C408 1.349 . S
C2265 C47 1.321 . S
C2281 C5 1.371 . S
C2283 C372 1.324 . S
C2299 C70 1.364 . S
C2301 C333 1.345 . S
C2317 C86 1.333 . S
C2319 C343 1.370 . S
C2335 C60 1.310 . S
C2337 C317 1.329 . S
