# Generated by pormake.
# Topology uop, (4)-cn, num edge types: 1
# Building blocks:
#     Node 0, Type 0, BuildingBlock: CEKHIL_clean_sbu_0, # of connection points: 4
#     Node 1, Type 0, BuildingBlock: CEKHIL_clean_sbu_0, # of connection points: 4
#     Node 2, Type 0, BuildingBlock: CEKHIL_clean_sbu_0, # of connection points: 4
#     Node 3, Type 0, BuildingBlock: CEKHIL_clean_sbu_0, # of connection points: 4
#     Node 4, Type 0, BuildingBlock: CEKHIL_clean_sbu_0, # of connection points: 4
#     Node 5, Type 0, BuildingBlock: CEKHIL_clean_sbu_0, # of connection points: 4
#     Node 6, Type 0, BuildingBlock: CEKHIL_clean_sbu_0, # of connection points: 4
#     Node 7, Type 0, BuildingBlock: CEKHIL_clean_sbu_0, # of connection points: 4
#     Node 8, Type 0, BuildingBlock: CEKHIL_clean_sbu_0, # of connection points: 4
#     Node 9, Type 0, BuildingBlock: CEKHIL_clean_sbu_0, # of connection points: 4
#     Node 10, Type 0, BuildingBlock: CEKHIL_clean_sbu_0, # of connection points: 4
#     Node 11, Type 0, BuildingBlock: CEKHIL_clean_sbu_0, # of connection points: 4
#     Edge 12, Type (0, 0), BuildingBlock: KIFKEQ_clean_linker_1, # of connection points: 2
#     Edge 13, Type (0, 0), BuildingBlock: KIFKEQ_clean_linker_1, # of connection points: 2
#     Edge 14, Type (0, 0), BuildingBlock: KIFKEQ_clean_linker_1, # of connection points: 2
#     Edge 15, Type (0, 0), BuildingBlock: KIFKEQ_clean_linker_1, # of connection points: 2
#     Edge 16, Type (0, 0), BuildingBlock: KIFKEQ_clean_linker_1, # of connection points: 2
#     Edge 17, Type (0, 0), BuildingBlock: KIFKEQ_clean_linker_1, # of connection points: 2
#     Edge 18, Type (0, 0), BuildingBlock: KIFKEQ_clean_linker_1, # of connection points: 2
#     Edge 19, Type (0, 0), BuildingBlock: KIFKEQ_clean_linker_1, # of connection points: 2
#     Edge 20, Type (0, 0), BuildingBlock: KIFKEQ_clean_linker_1, # of connection points: 2
#     Edge 21, Type (0, 0), BuildingBlock: KIFKEQ_clean_linker_1, # of connection points: 2
#     Edge 22, Type (0, 0), BuildingBlock: KIFKEQ_clean_linker_1, # of connection points: 2
#     Edge 23, Type (0, 0), BuildingBlock: KIFKEQ_clean_linker_1, # of connection points: 2
#     Edge 24, Type (0, 0), BuildingBlock: KIFKEQ_clean_linker_1, # of connection points: 2
#     Edge 25, Type (0, 0), BuildingBlock: KIFKEQ_clean_linker_1, # of connection points: 2
#     Edge 26, Type (0, 0), BuildingBlock: KIFKEQ_clean_linker_1, # of connection points: 2
#     Edge 27, Type (0, 0), BuildingBlock: KIFKEQ_clean_linker_1, # of connection points: 2
#     Edge 28, Type (0, 0), BuildingBlock: KIFKEQ_clean_linker_1, # of connection points: 2
#     Edge 29, Type (0, 0), BuildingBlock: KIFKEQ_clean_linker_1, # of connection points: 2
#     Edge 30, Type (0, 0), BuildingBlock: KIFKEQ_clean_linker_1, # of connection points: 2
#     Edge 31, Type (0, 0), BuildingBlock: KIFKEQ_clean_linker_1, # of connection points: 2
#     Edge 32, Type (0, 0), BuildingBlock: KIFKEQ_clean_linker_1, # of connection points: 2
#     Edge 33, Type (0, 0), BuildingBlock: KIFKEQ_clean_linker_1, # of connection points: 2
#     Edge 34, Type (0, 0), BuildingBlock: KIFKEQ_clean_linker_1, # of connection points: 2
#     Edge 35, Type (0, 0), BuildingBlock: KIFKEQ_clean_linker_1, # of connection points: 2
# Relax obj value: 0.152
# Max RMSD: 0.165
# Mean RMSD: 0.161
data_MOF--net-uop--node1-CEKHIL_clean_sbu_0--edge1-KIFKEQ_clean_linker_1
_symmetry_space_group_name_H-M    P1
_symmetry_Int_Tables_number       1
_symmetry_cell_setting            triclinic
loop_
_symmetry_equiv_pos_as_xyz
'x, y, z'
_cell_length_a     33.418094
_cell_length_b     32.547362
_cell_length_c     45.06216
_cell_angle_alpha  89.997732
_cell_angle_beta   89.992178
_cell_angle_gamma 120.83132
loop_
_atom_site_label
_atom_site_type_symbol
_atom_site_fract_x
_atom_site_fract_y
_atom_site_fract_z
_atom_type_partial_charge
Co0 Co 0.23738 0.38118 0.22019 0.0
O1 O 0.17397 0.34761 0.23348 0.0
O2 O 0.19701 0.3433 0.18803 0.0
C3 C 0.26759 0.36418 0.25944 0.0
O4 O 0.30016 0.40947 0.1993 0.0
Co5 Co 0.31018 0.46892 0.25687 0.0
O6 O 0.35467 0.46872 0.22791 0.0
C7 C 0.2417 0.47677 0.22065 0.0
C8 C 0.16299 0.33026 0.20685 0.0
C9 C 0.34252 0.44213 0.20496 0.0
O10 O 0.23069 0.4369 0.20806 0.0
O11 O 0.2693 0.49339 0.24289 0.0
O12 O 0.24805 0.33322 0.23813 0.0
O13 O 0.26349 0.40147 0.25784 0.0
Co14 Co 0.85151 0.24983 0.51848 0.0
O15 O 0.9087 0.25965 0.53497 0.0
O16 O 0.86654 0.28841 0.55374 0.0
C17 C 0.81868 0.17125 0.51089 0.0
O18 O 0.78998 0.24527 0.50904 0.0
Co19 Co 0.82435 0.21877 0.45356 0.0
O20 O 0.76262 0.2082 0.46537 0.0
C21 C 0.89366 0.31893 0.46601 0.0
C22 C 0.90274 0.28361 0.5558 0.0
C23 C 0.75774 0.22598 0.4893 0.0
O24 O 0.88667 0.30895 0.49377 0.0
O25 O 0.87365 0.28749 0.44561 0.0
O26 O 0.81784 0.18767 0.53698 0.0
O27 O 0.84316 0.20277 0.49075 0.0
Co28 Co 0.59564 0.83377 0.8786 0.0
O29 O 0.63284 0.80673 0.88887 0.0
O30 O 0.63043 0.83366 0.84415 0.0
C31 C 0.61417 0.88211 0.91792 0.0
O32 O 0.56223 0.86609 0.86111 0.0
Co33 Co 0.51328 0.81222 0.9207 0.0
O34 O 0.50873 0.8587 0.89465 0.0
C35 C 0.50519 0.73707 0.88114 0.0
C36 C 0.64721 0.81421 0.86162 0.0
C37 C 0.53078 0.87487 0.87028 0.0
O38 O 0.54251 0.76832 0.86777 0.0
O39 O 0.49005 0.74632 0.90478 0.0
O40 O 0.64184 0.89516 0.89513 0.0
O41 O 0.57976 0.83842 0.91765 0.0
Co42 Co 0.75664 0.60304 0.21837 0.0
O43 O 0.8195 0.64398 0.23127 0.0
O44 O 0.7942 0.64188 0.18549 0.0
C45 C 0.72203 0.61568 0.25699 0.0
O46 O 0.69348 0.5664 0.19786 0.0
Co47 Co 0.69238 0.51348 0.25667 0.0
O48 O 0.64465 0.50425 0.22702 0.0
C49 C 0.7666 0.5154 0.22129 0.0
C50 C 0.82885 0.65949 0.20418 0.0
C51 C 0.65326 0.5297 0.20373 0.0
O52 O 0.77185 0.55253 0.20766 0.0
O53 O 0.74003 0.49725 0.24389 0.0
O54 O 0.73802 0.64599 0.2351 0.0
O55 O 0.73221 0.58244 0.25627 0.0
Co56 Co 0.1303 0.73517 0.51582 0.0
O57 O 0.07703 0.72936 0.53576 0.0
O58 O 0.11534 0.69352 0.54969 0.0
C59 C 0.16856 0.81468 0.51091 0.0
O60 O 0.18818 0.73513 0.50209 0.0
Co61 Co 0.15254 0.77005 0.45131 0.0
O62 O 0.21436 0.7785 0.46031 0.0
C63 C 0.07918 0.67117 0.46247 0.0
C64 C 0.08198 0.70215 0.55463 0.0
C65 C 0.21972 0.75694 0.48215 0.0
O66 O 0.08886 0.67893 0.49019 0.0
O67 O 0.09965 0.70332 0.44252 0.0
O68 O 0.17009 0.79503 0.53562 0.0
O69 O 0.14018 0.78591 0.49079 0.0
Co70 Co 0.40213 0.16459 0.87716 0.0
O71 O 0.3592 0.18543 0.8855 0.0
O72 O 0.37181 0.1659 0.84076 0.0
C73 C 0.38093 0.11277 0.91485 0.0
O74 O 0.44226 0.13872 0.86129 0.0
Co75 Co 0.47939 0.18724 0.92374 0.0
O76 O 0.49089 0.14492 0.89804 0.0
C77 C 0.48834 0.26393 0.88528 0.0
C78 C 0.34947 0.18027 0.85744 0.0
C79 C 0.47341 0.13088 0.87224 0.0
O80 O 0.4533 0.23267 0.87011 0.0
O81 O 0.5018 0.25379 0.90932 0.0
O82 O 0.35696 0.10027 0.89038 0.0
O83 O 0.41306 0.15733 0.91687 0.0
Co84 Co 0.58957 0.7369 0.47264 0.0
O85 O 0.63361 0.72266 0.45537 0.0
O86 O 0.56297 0.69856 0.43762 0.0
C87 C 0.63885 0.81499 0.47975 0.0
O88 O 0.53543 0.74564 0.48324 0.0
Co89 Co 0.59816 0.76947 0.53772 0.0
O90 O 0.54721 0.78139 0.52761 0.0
C91 C 0.563 0.6683 0.52526 0.0
C92 C 0.6023 0.69976 0.43506 0.0
C93 C 0.52382 0.76496 0.50377 0.0
O94 O 0.56369 0.67783 0.49757 0.0
O95 O 0.57778 0.7004 0.54551 0.0
O96 O 0.6204 0.79895 0.45385 0.0
O97 O 0.63089 0.7831 0.49984 0.0
Co98 Co 0.84897 0.61075 0.78029 0.0
O99 O 0.82183 0.64728 0.76769 0.0
O100 O 0.84893 0.64953 0.8129 0.0
C101 C 0.89505 0.62561 0.74073 0.0
O102 O 0.88106 0.57886 0.8002 0.0
Co103 Co 0.82745 0.52154 0.74264 0.0
O104 O 0.87144 0.51835 0.77065 0.0
C105 C 0.75454 0.51855 0.78005 0.0
C106 C 0.82885 0.6642 0.79444 0.0
C107 C 0.88806 0.54448 0.79368 0.0
O108 O 0.78555 0.55732 0.79269 0.0
O109 O 0.76323 0.5008 0.75734 0.0
O110 O 0.90821 0.65661 0.76216 0.0
O111 O 0.85276 0.59 0.74237 0.0
Co112 Co 0.23261 0.83247 0.12199 0.0
O113 O 0.16823 0.80155 0.11103 0.0
O114 O 0.19584 0.82932 0.15599 0.0
C115 C 0.2608 0.88181 0.08299 0.0
O116 O 0.29736 0.86852 0.14057 0.0
Co117 Co 0.30063 0.81968 0.08115 0.0
O118 O 0.3485 0.86963 0.10735 0.0
C119 C 0.23491 0.74025 0.11906 0.0
C120 C 0.16018 0.8084 0.13819 0.0
C121 C 0.33908 0.88236 0.13185 0.0
O122 O 0.22485 0.76865 0.13251 0.0
O123 O 0.26107 0.75253 0.09607 0.0
O124 O 0.24388 0.89267 0.1056 0.0
O125 O 0.25506 0.83943 0.08324 0.0
Co126 Co 0.39239 0.25207 0.48446 0.0
O127 O 0.34414 0.25646 0.46439 0.0
O128 O 0.41817 0.29294 0.45023 0.0
C129 C 0.3521 0.17268 0.49017 0.0
O130 O 0.45113 0.25372 0.49801 0.0
Co131 Co 0.38214 0.21898 0.54915 0.0
O132 O 0.43608 0.21147 0.54007 0.0
C133 C 0.40481 0.31683 0.53722 0.0
C134 C 0.37596 0.28359 0.44532 0.0
C135 C 0.46215 0.23294 0.5179 0.0
O136 O 0.40642 0.30864 0.50953 0.0
O137 O 0.39446 0.28536 0.55744 0.0
O138 O 0.37299 0.19186 0.46531 0.0
O139 O 0.35249 0.20176 0.51008 0.0
Co140 Co 0.14967 0.38503 0.77593 0.0
O141 O 0.17552 0.34685 0.76409 0.0
O142 O 0.15153 0.34917 0.80961 0.0
C143 C 0.10155 0.36727 0.73716 0.0
O144 O 0.11905 0.41871 0.79541 0.0
Co145 Co 0.16885 0.47133 0.7361 0.0
O146 O 0.12671 0.47699 0.76455 0.0
C147 C 0.24373 0.4779 0.77317 0.0
C148 C 0.16991 0.33234 0.79138 0.0
C149 C 0.11166 0.45262 0.78836 0.0
O150 O 0.21376 0.43919 0.78637 0.0
O151 O 0.23376 0.49441 0.75039 0.0
O152 O 0.08939 0.33799 0.75951 0.0
O153 O 0.14391 0.40295 0.73756 0.0
Co154 Co 0.75991 0.15897 0.12529 0.0
O155 O 0.82317 0.18235 0.11406 0.0
O156 O 0.79531 0.16017 0.15963 0.0
C157 C 0.72652 0.10782 0.08759 0.0
O158 O 0.69557 0.13085 0.14407 0.0
Co159 Co 0.69921 0.18057 0.08317 0.0
O160 O 0.64898 0.13914 0.11136 0.0
C161 C 0.77129 0.25762 0.11924 0.0
C162 C 0.83072 0.17683 0.14157 0.0
C163 C 0.65568 0.12405 0.13588 0.0
O164 O 0.77572 0.22633 0.13394 0.0
O165 O 0.74589 0.24727 0.09601 0.0
O166 O 0.74126 0.09548 0.11067 0.0
O167 O 0.7376 0.15209 0.08658 0.0
H168 H 0.19032 0.70483 0.17217 0.0
H169 H 0.24406 0.6679 0.09583 0.0
H170 H 0.17689 0.63245 0.19727 0.0
H171 H 0.23128 0.59631 0.1211 0.0
H172 H 0.19395 0.46216 0.16849 0.0
H173 H 0.17696 0.518 0.14349 0.0
H174 H 0.23497 0.61517 0.21771 0.0
H175 H 0.25134 0.55947 0.24286 0.0
C176 C 0.19852 0.68095 0.16051 0.0
C177 C 0.2192 0.69271 0.13222 0.0
C178 C 0.19089 0.63957 0.17495 0.0
C179 C 0.20356 0.60906 0.1613 0.0
C180 C 0.22086 0.61891 0.13215 0.0
C181 C 0.22862 0.66029 0.11776 0.0
C182 C 0.20228 0.49503 0.17973 0.0
C183 C 0.22486 0.50677 0.20744 0.0
C184 C 0.19259 0.52699 0.16536 0.0
C185 C 0.20501 0.5711 0.17852 0.0
C186 C 0.22459 0.58129 0.20709 0.0
C187 C 0.23443 0.5495 0.22138 0.0
H188 H 0.68585 0.1993 0.45023 0.0
H189 H 0.73029 0.25244 0.53941 0.0
H190 H 0.61469 0.20126 0.45785 0.0
H191 H 0.6592 0.25473 0.54678 0.0
H192 H 0.50218 0.20061 0.55739 0.0
H193 H 0.57339 0.19822 0.55081 0.0
H194 H 0.59348 0.26371 0.46451 0.0
H195 H 0.52219 0.2658 0.47081 0.0
C196 C 0.68048 0.21133 0.47147 0.0
C197 C 0.71389 0.22585 0.49418 0.0
C198 C 0.63984 0.21272 0.47574 0.0
C199 C 0.63158 0.22837 0.50285 0.0
C200 C 0.66455 0.2422 0.52573 0.0
C201 C 0.70536 0.2411 0.52142 0.0
C202 C 0.52182 0.21466 0.53704 0.0
C203 C 0.50641 0.23336 0.51462 0.0
C204 C 0.5627 0.21345 0.53336 0.0
C205 C 0.58881 0.2306 0.50711 0.0
C206 C 0.57369 0.24968 0.48482 0.0
C207 C 0.53301 0.25117 0.48855 0.0
H208 H 0.51876 0.70657 0.82742 0.0
H209 H 0.42489 0.66056 0.90251 0.0
H210 H 0.46297 0.63507 0.80028 0.0
H211 H 0.36917 0.58984 0.87521 0.0
H212 H 0.2766 0.45968 0.82419 0.0
H213 H 0.34833 0.51432 0.85046 0.0
H214 H 0.38791 0.61672 0.77914 0.0
H215 H 0.31691 0.56217 0.75268 0.0
C216 C 0.48669 0.68087 0.83837 0.0
C217 C 0.47583 0.68986 0.86691 0.0
C218 C 0.45473 0.63998 0.82277 0.0
C219 C 0.41147 0.60723 0.83545 0.0
C220 C 0.40232 0.61424 0.86486 0.0
C221 C 0.43416 0.65511 0.88044 0.0
C222 C 0.30102 0.49345 0.81381 0.0
C223 C 0.2905 0.50699 0.7866 0.0
C224 C 0.34207 0.52472 0.82891 0.0
C225 C 0.37344 0.56999 0.81704 0.0
C226 C 0.36463 0.58194 0.7888 0.0
C227 C 0.32361 0.55078 0.77374 0.0
H228 H 0.81716 0.5353 0.16984 0.0
H229 H 0.76486 0.43657 0.24375 0.0
H230 H 0.83852 0.48322 0.14432 0.0
H231 H 0.78522 0.38449 0.21807 0.0
H232 H 0.82186 0.29279 0.17049 0.0
H233 H 0.8408 0.36684 0.19571 0.0
H234 H 0.78574 0.40638 0.12143 0.0
H235 H 0.76781 0.33332 0.096 0.0
C236 C 0.81102 0.50303 0.18092 0.0
C237 C 0.78812 0.48943 0.2085 0.0
C238 C 0.82326 0.47322 0.16626 0.0
C239 C 0.81291 0.42941 0.17895 0.0
C240 C 0.79399 0.41811 0.2077 0.0
C241 C 0.78178 0.44781 0.22233 0.0
C242 C 0.81485 0.31784 0.15921 0.0
C243 C 0.79204 0.30647 0.13158 0.0
C244 C 0.8257 0.36024 0.1737 0.0
C245 C 0.81396 0.39199 0.16083 0.0
C246 C 0.79545 0.38282 0.13196 0.0
C247 C 0.78466 0.34054 0.11747 0.0
H248 H 0.46837 0.7405 0.45455 0.0
H249 H 0.48072 0.79168 0.54462 0.0
H250 H 0.39483 0.73839 0.44924 0.0
H251 H 0.40732 0.78996 0.53904 0.0
H252 H 0.24918 0.72466 0.52848 0.0
H253 H 0.32336 0.72784 0.53335 0.0
H254 H 0.36533 0.79449 0.44712 0.0
H255 H 0.29109 0.79097 0.44197 0.0
C256 C 0.4556 0.75157 0.47317 0.0
C257 C 0.48044 0.76614 0.50005 0.0
C258 C 0.41356 0.75054 0.47004 0.0
C259 C 0.39532 0.76384 0.49376 0.0
C260 C 0.42032 0.77894 0.52052 0.0
C261 C 0.46252 0.78024 0.52361 0.0
C262 C 0.27409 0.73981 0.51047 0.0
C263 C 0.26412 0.75751 0.48481 0.0
C264 C 0.31671 0.74195 0.51339 0.0
C265 C 0.35013 0.76156 0.49066 0.0
C266 C 0.34005 0.77882 0.46489 0.0
C267 C 0.29756 0.77695 0.46202 0.0
H268 H 0.56815 0.33893 0.90844 0.0
H269 H 0.47577 0.29846 0.83281 0.0
H270 H 0.62564 0.41 0.88222 0.0
H271 H 0.53328 0.37035 0.8068 0.0
H272 H 0.6788 0.43644 0.75959 0.0
H273 H 0.60679 0.3847 0.78588 0.0
H274 H 0.65143 0.48671 0.85777 0.0
H275 H 0.72427 0.53853 0.83163 0.0
C276 C 0.55951 0.34579 0.88654 0.0
C277 C 0.51788 0.31223 0.87242 0.0
C278 C 0.59241 0.38688 0.87157 0.0
C279 C 0.58431 0.3953 0.84222 0.0
C280 C 0.54081 0.36423 0.8292 0.0
C281 C 0.50785 0.32309 0.84417 0.0
C282 C 0.67309 0.44835 0.78077 0.0
C283 C 0.70781 0.49114 0.79378 0.0
C284 C 0.63146 0.41885 0.79573 0.0
C285 C 0.62358 0.43146 0.82403 0.0
C286 C 0.65684 0.47582 0.83615 0.0
C287 C 0.69853 0.50546 0.82113 0.0
H288 H 0.62146 0.58876 0.19046 0.0
H289 H 0.59403 0.44569 0.17633 0.0
H290 H 0.54249 0.56375 0.17581 0.0
H291 H 0.51569 0.42075 0.15895 0.0
H292 H 0.37356 0.38073 0.20114 0.0
H293 H 0.45104 0.40122 0.18586 0.0
H294 H 0.4747 0.53566 0.15042 0.0
H295 H 0.39786 0.51587 0.16826 0.0
C296 C 0.59905 0.55246 0.18261 0.0
C297 C 0.61324 0.51892 0.18489 0.0
C298 C 0.55349 0.53786 0.17403 0.0
C299 C 0.52156 0.48949 0.16702 0.0
C300 C 0.53837 0.45772 0.16538 0.0
C301 C 0.58346 0.47204 0.17492 0.0
C302 C 0.39483 0.4138 0.18907 0.0
C303 C 0.38028 0.44691 0.186 0.0
C304 C 0.43953 0.42578 0.18012 0.0
C305 C 0.47032 0.47101 0.16754 0.0
C306 C 0.45293 0.50135 0.16102 0.0
C307 C 0.40864 0.48983 0.17078 0.0
H308 H 0.07886 0.62076 0.41342 0.0
H309 H 0.0024 0.60957 0.49328 0.0
H310 H 0.03268 0.53312 0.40779 0.0
H311 H 0.95664 0.52309 0.48751 0.0
H312 H 0.96088 0.38789 0.50035 0.0
H313 H 0.00185 0.47371 0.49248 0.0
H314 H 0.9377 0.45267 0.40639 0.0
H315 H 0.89574 0.3654 0.41424 0.0
C316 C 0.05114 0.5998 0.42907 0.0
C317 C 0.04456 0.62163 0.45404 0.0
C318 C 0.02489 0.54986 0.42587 0.0
C319 C 0.99189 0.52172 0.44754 0.0
C320 C 0.9824 0.54415 0.47077 0.0
C321 C 0.00854 0.59356 0.47404 0.0
C322 C 0.95576 0.40123 0.47953 0.0
C323 C 0.92441 0.36989 0.45813 0.0
C324 C 0.97924 0.45038 0.47507 0.0
C325 C 0.97206 0.46951 0.44912 0.0
C326 C 0.94347 0.43848 0.42663 0.0
C327 C 0.91966 0.38876 0.43113 0.0
H328 H 0.55606 0.13405 0.87545 0.0
H329 H 0.42128 0.05829 0.83304 0.0
H330 H 0.57125 0.0717 0.86059 0.0
H331 H 0.43673 0.99555 0.8177 0.0
H332 H 0.44841 0.87151 0.86519 0.0
H333 H 0.43727 0.93705 0.85152 0.0
H334 H 0.58177 0.02103 0.82511 0.0
H335 H 0.59293 0.95484 0.83921 0.0
C336 C 0.53026 0.10473 0.86207 0.0
C337 C 0.48709 0.10053 0.85593 0.0
C338 C 0.53917 0.0691 0.85326 0.0
C339 C 0.50492 0.02819 0.83831 0.0
C340 C 0.46358 0.02637 0.82953 0.0
C341 C 0.45481 0.0624 0.83817 0.0
C342 C 0.47743 0.90337 0.85553 0.0
C343 C 0.52171 0.90845 0.85373 0.0
C344 C 0.47097 0.94092 0.84743 0.0
C345 C 0.50881 0.98464 0.83761 0.0
C346 C 0.55207 0.98796 0.83295 0.0
C347 C 0.55842 0.95 0.84082 0.0
H348 H 0.52919 0.62478 0.57966 0.0
H349 H 0.54989 0.59621 0.48895 0.0
H350 H 0.48547 0.53808 0.58968 0.0
H351 H 0.50672 0.51114 0.49897 0.0
H352 H 0.37959 0.37246 0.50848 0.0
H353 H 0.41699 0.45907 0.51187 0.0
H354 H 0.49931 0.46002 0.58595 0.0
H355 H 0.46092 0.37226 0.58285 0.0
C356 C 0.52503 0.60023 0.56207 0.0
C357 C 0.54224 0.61731 0.53337 0.0
C358 C 0.50004 0.55083 0.56781 0.0
C359 C 0.49195 0.51824 0.54487 0.0
C360 C 0.51155 0.53559 0.51683 0.0
C361 C 0.53635 0.58439 0.51114 0.0
C362 C 0.40455 0.39095 0.52612 0.0
C363 C 0.41789 0.366 0.54517 0.0
C364 C 0.42599 0.44042 0.52802 0.0
C365 C 0.46158 0.46603 0.54877 0.0
C366 C 0.47191 0.44088 0.56978 0.0
C367 C 0.44997 0.39086 0.56803 0.0
H368 H 0.86864 0.46592 0.82582 0.0
H369 H 0.98066 0.6047 0.79902 0.0
H370 H 0.92482 0.443 0.84047 0.0
H371 H 0.0369 0.58135 0.81114 0.0
H372 H 0.1348 0.53372 0.8188 0.0
H373 H 0.08078 0.55786 0.83635 0.0
H374 H 0.96513 0.41814 0.81244 0.0
H375 H 0.01953 0.39371 0.7974 0.0
C376 C 0.90553 0.49199 0.82399 0.0
C377 C 0.9206 0.537 0.81141 0.0
C378 C 0.93781 0.4787 0.83188 0.0
C379 C 0.98567 0.5095 0.82611 0.0
C380 C 0.00067 0.55637 0.8162 0.0
C381 C 0.9684 0.57004 0.80915 0.0
C382 C 0.09776 0.50776 0.81868 0.0
C383 C 0.08104 0.46196 0.80686 0.0
C384 C 0.06666 0.52169 0.82829 0.0
C385 C 0.01821 0.49069 0.82505 0.0
C386 C 0.0019 0.44328 0.81565 0.0
C387 C 0.03308 0.42902 0.80688 0.0
H388 H 0.37386 0.97704 0.13043 0.0
H389 H 0.39495 0.86883 0.16947 0.0
H390 H 0.45187 0.03835 0.14477 0.0
H391 H 0.47265 0.93046 0.18602 0.0
H392 H 0.62259 0.03138 0.14943 0.0
H393 H 0.54216 0.97301 0.16133 0.0
H394 H 0.51387 0.08764 0.17403 0.0
H395 H 0.59383 0.14538 0.15955 0.0
C396 C 0.39467 0.96688 0.1435 0.0
C397 C 0.37879 0.91863 0.14897 0.0
C398 C 0.43959 0.00207 0.15192 0.0
C399 C 0.46948 0.98967 0.16627 0.0
C400 C 0.45136 0.94143 0.17433 0.0
C401 C 0.40665 0.90611 0.16528 0.0
C402 C 0.59945 0.04399 0.15585 0.0
C403 C 0.61395 0.09254 0.15339 0.0
C404 C 0.55309 0.01051 0.16277 0.0
C405 C 0.52061 0.0252 0.16787 0.0
C406 C 0.53718 0.07465 0.16913 0.0
C407 C 0.58317 0.10792 0.1613 0.0
H408 H 0.26161 0.28055 0.2748 0.0
H409 H 0.3244 0.42868 0.3011 0.0
H410 H 0.29209 0.26411 0.31964 0.0
H411 H 0.35561 0.41211 0.3458 0.0
H412 H 0.43454 0.35395 0.40673 0.0
H413 H 0.41301 0.37667 0.36002 0.0
H414 H 0.26851 0.27134 0.37602 0.0
H415 H 0.28947 0.24931 0.42265 0.0
C416 C 0.2825 0.30971 0.28993 0.0
C417 C 0.29025 0.35574 0.28473 0.0
C418 C 0.2998 0.30026 0.31553 0.0
C419 C 0.3258 0.33686 0.33604 0.0
C420 C 0.33568 0.38346 0.33016 0.0
C421 C 0.31766 0.39278 0.30475 0.0
C422 C 0.39819 0.33602 0.40031 0.0
C423 C 0.36365 0.2999 0.41823 0.0
C424 C 0.38598 0.34902 0.37372 0.0
C425 C 0.33927 0.32529 0.36453 0.0
C426 C 0.30482 0.28969 0.38262 0.0
C427 C 0.31683 0.27738 0.40934 0.0
H428 H 0.91262 0.35078 0.59634 0.0
H429 H 0.96214 0.25525 0.57404 0.0
H430 H 0.9604 0.37482 0.6416 0.0
H431 H 0.00853 0.27841 0.61941 0.0
H432 H 0.02306 0.2839 0.72283 0.0
H433 H 0.97476 0.26725 0.67858 0.0
H434 H 0.05982 0.41447 0.65111 0.0
H435 H 0.10915 0.43118 0.69508 0.0
C436 C 0.93384 0.3352 0.60103 0.0
C437 C 0.93376 0.30119 0.58177 0.0
C438 C 0.96104 0.34895 0.62678 0.0
C439 C 0.98753 0.32803 0.6338 0.0
C440 C 0.988 0.29467 0.61437 0.0
C441 C 0.96169 0.28169 0.58841 0.0
C442 C 0.03119 0.31283 0.70752 0.0
C443 C 0.07 0.35869 0.71214 0.0
C444 C 0.00367 0.30326 0.68229 0.0
C445 C 0.01397 0.33964 0.66167 0.0
C446 C 0.05139 0.38604 0.66689 0.0
C447 C 0.07957 0.39543 0.69187 0.0
H448 H 0.67643 0.97754 0.91942 0.0
H449 H 0.56876 0.86169 0.9711 0.0
H450 H 0.69416 0.03176 0.96107 0.0
H451 H 0.58644 0.91633 0.01294 0.0
H452 H 0.69969 0.12647 0.03461 0.0
H453 H 0.66266 0.07097 0.99328 0.0
H454 H 0.65646 0.95692 0.04596 0.0
H455 H 0.69301 0.0121 0.08725 0.0
C456 C 0.6562 0.96383 0.9396 0.0
C457 C 0.62168 0.91536 0.94225 0.0
C458 C 0.66604 0.99498 0.96333 0.0
C459 C 0.64169 0.97816 0.9902 0.0
C460 C 0.60591 0.93003 0.99249 0.0
C461 C 0.59581 0.89888 0.96861 0.0
C462 C 0.6898 0.08939 0.03745 0.0
C463 C 0.69982 0.07365 0.06388 0.0
C464 C 0.6687 0.05773 0.01384 0.0
C465 C 0.65703 0.00982 0.01642 0.0
C466 C 0.66473 0.99357 0.04346 0.0
C467 C 0.68605 0.02525 0.06698 0.0
H468 H 0.67166 0.67992 0.42989 0.0
H469 H 0.55571 0.67219 0.3823 0.0
H470 H 0.69311 0.65204 0.38584 0.0
H471 H 0.57762 0.64461 0.33801 0.0
H472 H 0.69731 0.56567 0.30875 0.0
H473 H 0.66078 0.57839 0.35191 0.0
H474 H 0.65077 0.6879 0.30427 0.0
H475 H 0.68758 0.67545 0.26106 0.0
C476 C 0.65048 0.67174 0.41011 0.0
C477 C 0.61219 0.6784 0.40941 0.0
C478 C 0.66258 0.65554 0.38499 0.0
C479 C 0.63698 0.64628 0.35862 0.0
C480 C 0.59795 0.65173 0.3581 0.0
C481 C 0.58538 0.66728 0.38342 0.0
C482 C 0.68682 0.59207 0.30737 0.0
C483 C 0.69577 0.62005 0.28175 0.0
C484 C 0.66601 0.59933 0.33205 0.0
C485 C 0.65327 0.63424 0.33137 0.0
C486 C 0.66004 0.66054 0.30523 0.0
C487 C 0.68137 0.65366 0.28064 0.0
H488 H 0.02866 0.73518 0.57714 0.0
H489 H 0.07101 0.63194 0.59325 0.0
H490 H 0.98593 0.71304 0.62384 0.0
H491 H 0.02683 0.60901 0.64005 0.0
H492 H 0.88294 0.56013 0.69838 0.0
H493 H 0.9301 0.57458 0.65356 0.0
H494 H 0.02196 0.72072 0.68097 0.0
H495 H 0.97576 0.70638 0.72592 0.0
C496 C 0.02836 0.70732 0.59047 0.0
C497 C 0.05322 0.68532 0.58164 0.0
C498 C 0.00414 0.69493 0.61721 0.0
C499 C 0.00362 0.65973 0.63537 0.0
C500 C 0.02701 0.63635 0.62624 0.0
C501 C 0.05215 0.64946 0.59962 0.0
C502 C 0.9136 0.5951 0.69499 0.0
C503 C 0.92552 0.63233 0.71537 0.0
C504 C 0.94057 0.60318 0.66954 0.0
C505 C 0.97922 0.64872 0.66402 0.0
C506 C 0.9921 0.68536 0.6849 0.0
C507 C 0.9657 0.67712 0.71052 0.0
H508 H 0.2872 0.9758 0.08164 0.0
H509 H 0.29136 0.86559 0.03063 0.0
H510 H 0.324 0.03184 0.04079 0.0
H511 H 0.32858 0.92202 0.98967 0.0
H512 H 0.41936 0.13155 0.97015 0.0
H513 H 0.39777 0.07538 0.01145 0.0
H514 H 0.29903 0.96074 0.95499 0.0
H515 H 0.32075 0.01663 0.91374 0.0
C516 C 0.29639 0.96371 0.06178 0.0
C517 C 0.28598 0.91628 0.05909 0.0
C518 C 0.31784 -0.00409 0.03852 0.0
C519 C 0.32904 0.98117 0.01211 0.0
C520 C 0.31993 0.9341 0.00976 0.0
C521 C 0.29874 0.90193 0.03315 0.0
C522 C 0.39346 0.09424 0.96652 0.0
C523 C 0.37126 0.07845 0.93892 0.0
C524 C 0.38108 0.0622 0.99012 0.0
C525 C 0.3466 0.01387 0.98639 0.0
C526 C 0.32602 -0.00227 0.95839 0.0
C527 C 0.33817 0.02979 0.93487 0.0
H528 H 0.85859 0.16404 0.19637 0.0
H529 H 0.91012 0.22206 0.10908 0.0
H530 H 0.93835 0.1922 0.21269 0.0
H531 H 0.98923 0.25169 0.12549 0.0
H532 H 0.12786 0.27987 0.15526 0.0
H533 H 0.04615 0.23355 0.14032 0.0
H534 H 0.0058 0.26658 0.22408 0.0
H535 H 0.0868 0.31076 0.23934 0.0
C536 C 0.88689 0.18267 0.1807 0.0
C537 C 0.87815 0.19108 0.15154 0.0
C538 C 0.93258 0.19899 0.19003 0.0
C539 C 0.97034 0.22439 0.17043 0.0
C540 C 0.96115 0.23157 0.14108 0.0
C541 C 0.91566 0.21493 0.13173 0.0
C542 C 0.10138 0.27664 0.17054 0.0
C543 C 0.11371 0.29925 0.19832 0.0
C544 C 0.05459 0.25031 0.16198 0.0
C545 C 0.01931 0.24665 0.18089 0.0
C546 C 0.03179 0.26796 0.20909 0.0
C547 C 0.0784 0.29374 0.21775 0.0
H548 H 0.80541 0.10342 0.55065 0.0
H549 H 0.77905 0.12298 0.45955 0.0
H550 H 0.76538 0.01745 0.54331 0.0
H551 H 0.73558 0.03644 0.45248 0.0
H552 H 0.69298 0.8826 0.43976 0.0
H553 H 0.73952 0.96855 0.44707 0.0
H554 H 0.6934 0.94981 0.53851 0.0
H555 H 0.64974 0.86332 0.53141 0.0
C556 C 0.7905 0.08903 0.52907 0.0
C557 C 0.79518 0.11952 0.50562 0.0
C558 C 0.76712 0.03966 0.5249 0.0
C559 C 0.74667 0.01952 0.49736 0.0
C560 C 0.75154 0.05042 0.47386 0.0
C561 C 0.77616 0.10002 0.47786 0.0
C562 C 0.69325 0.89704 0.46147 0.0
C563 C 0.66798 0.86663 0.48507 0.0
C564 C 0.71955 0.9464 0.46563 0.0
C565 C 0.72012 0.96661 0.49332 0.0
C566 C 0.69472 0.93578 0.517 0.0
C567 C 0.66941 0.88619 0.51299 0.0
H568 H 0.77765 0.69028 0.76127 0.0
H569 H 0.83979 0.70891 0.848 0.0
H570 H 0.74 0.7333 0.77723 0.0
H571 H 0.80351 0.75414 0.86378 0.0
H572 H 0.67649 0.763 0.8925 0.0
H573 H 0.7271 0.73474 0.876 0.0
H574 H 0.7453 0.8058 0.79171 0.0
H575 H 0.69259 0.83268 0.80804 0.0
C576 C 0.78404 0.70444 0.78365 0.0
C577 C 0.81124 0.69568 0.80353 0.0
C578 C 0.76269 0.72956 0.79273 0.0
C579 C 0.76834 0.74698 0.82188 0.0
C580 C 0.79762 0.74037 0.84133 0.0
C581 C 0.81866 0.71473 0.83229 0.0
C582 C 0.69144 0.7729 0.87047 0.0
C583 C 0.68024 0.79976 0.85145 0.0
C584 C 0.72098 0.75706 0.8611 0.0
C585 C 0.74053 0.76803 0.83253 0.0
C586 C 0.73036 0.79612 0.81374 0.0
C587 C 0.7003 0.81166 0.82307 0.0
H588 H 0.86159 0.69832 0.14915 0.0
H589 H 0.90633 0.6929 0.23828 0.0
H590 H 0.94288 0.74268 0.13306 0.0
H591 H 0.98677 0.73496 0.22213 0.0
H592 H 0.1325 0.83179 0.18949 0.0
H593 H 0.05283 0.80557 0.2049 0.0
H594 H 0.0007 0.72273 0.12422 0.0
H595 H 0.07993 0.75049 0.10846 0.0
C596 C 0.88876 0.707 0.16533 0.0
C597 C 0.87757 0.69175 0.19488 0.0
C598 C 0.93531 0.73207 0.15611 0.0
C599 C 0.97145 0.74188 0.17621 0.0
C600 C 0.9601 0.72861 0.20607 0.0
C601 C 0.91377 0.70408 0.2153 0.0
C602 C 0.10391 0.80816 0.17507 0.0
C603 C 0.11236 0.79296 0.14789 0.0
C604 C 0.05827 0.79307 0.18387 0.0
C605 C 0.02021 0.762 0.1658 0.0
C606 C 0.02901 0.7474 0.13845 0.0
C607 C 0.07452 0.7629 0.12954 0.0
H608 H 0.17281 0.86759 0.46244 0.0
H609 H 0.22653 0.87976 0.5513 0.0
H610 H 0.21729 0.95487 0.45783 0.0
H611 H 0.27109 0.96635 0.54655 0.0
H612 H 0.30194 0.12074 0.53846 0.0
H613 H 0.25673 0.03352 0.54307 0.0
H614 H 0.29988 0.01998 0.45502 0.0
H615 H 0.34438 0.10661 0.45026 0.0
C616 C 0.19421 0.88886 0.48087 0.0
C617 C 0.19615 0.86697 0.5072 0.0
C618 C 0.21974 0.93869 0.47824 0.0
C619 C 0.24743 0.96732 0.50193 0.0
C620 C 0.24949 0.94525 0.52813 0.0
C621 C 0.22419 0.89562 0.53072 0.0
C622 C 0.30181 0.09905 0.52019 0.0
C623 C 0.32654 0.12039 0.49402 0.0
C624 C 0.27608 0.04923 0.52282 0.0
C625 C 0.27462 0.02005 0.4993 0.0
C626 C 0.29976 0.04154 0.47329 0.0
C627 C 0.32552 0.09118 0.4707 0.0
H628 H 0.1922 0.31996 0.84761 0.0
H629 H 0.18689 0.27435 0.75701 0.0
H630 H 0.23056 0.27663 0.86235 0.0
H631 H 0.2231 0.22894 0.77181 0.0
H632 H 0.34632 0.21249 0.80193 0.0
H633 H 0.29683 0.24319 0.78567 0.0
H634 H 0.22529 0.20316 0.87019 0.0
H635 H 0.27645 0.17513 0.88673 0.0
C636 C 0.19823 0.29965 0.831 0.0
C637 C 0.18692 0.30077 0.80118 0.0
C638 C 0.22006 0.27456 0.83941 0.0
C639 C 0.23033 0.24939 0.81822 0.0
C640 C 0.2168 0.24874 0.78861 0.0
C641 C 0.19568 0.27445 0.78016 0.0
C642 C 0.31954 0.20976 0.81676 0.0
C643 C 0.31545 0.19201 0.84562 0.0
C644 C 0.29099 0.22716 0.80748 0.0
C645 C 0.25729 0.22629 0.82677 0.0
C646 C 0.25162 0.20574 0.85503 0.0
C647 C 0.28068 0.18928 0.86444 0.0
loop_
_geom_bond_atom_site_label_1
_geom_bond_atom_site_label_2
_geom_bond_distance
_geom_bond_site_symmetry_2
_ccdc_geom_bond_type
Co0 O1 2.216 . S
Co0 O2 2.091 . S
Co0 O4 2.004 . S
Co0 O10 2.021 . S
Co0 O12 2.137 . S
Co0 O13 2.244 . S
O1 Co0 2.216 . S
O1 C8 1.247 . S
O2 Co0 2.091 . S
O2 C8 1.261 . S
C3 O12 1.247 . S
C3 O13 1.272 . S
O4 Co0 2.004 . S
O4 C9 1.259 . S
Co5 O6 2.061 . S
Co5 O11 2.052 . S
Co5 O13 2.135 . S
O6 Co5 2.061 . S
O6 C9 1.235 . S
C7 O10 1.238 . S
C7 O11 1.241 . S
C8 O1 1.247 . S
C8 O2 1.261 . S
C9 O4 1.259 . S
C9 O6 1.235 . S
O10 Co0 2.021 . S
O10 C7 1.238 . S
O11 Co5 2.052 . S
O11 C7 1.241 . S
O12 Co0 2.137 . S
O12 C3 1.247 . S
O13 Co0 2.244 . S
O13 C3 1.272 . S
O13 Co5 2.135 . S
Co14 O15 2.216 . S
Co14 O16 2.091 . S
Co14 O18 2.004 . S
Co14 O24 2.021 . S
Co14 O26 2.137 . S
Co14 O27 2.244 . S
O15 Co14 2.216 . S
O15 C22 1.247 . S
O16 Co14 2.091 . S
O16 C22 1.261 . S
C17 O26 1.247 . S
C17 O27 1.272 . S
O18 Co14 2.004 . S
O18 C23 1.259 . S
Co19 O20 2.061 . S
Co19 O25 2.052 . S
Co19 O27 2.135 . S
O20 Co19 2.061 . S
O20 C23 1.235 . S
C21 O24 1.238 . S
C21 O25 1.241 . S
C22 O15 1.247 . S
C22 O16 1.261 . S
C23 O18 1.259 . S
C23 O20 1.235 . S
O24 Co14 2.021 . S
O24 C21 1.238 . S
O25 Co19 2.052 . S
O25 C21 1.241 . S
O26 Co14 2.137 . S
O26 C17 1.247 . S
O27 Co14 2.244 . S
O27 C17 1.272 . S
O27 Co19 2.135 . S
Co28 O29 2.216 . S
Co28 O30 2.091 . S
Co28 O32 2.004 . S
Co28 O38 2.021 . S
Co28 O40 2.137 . S
Co28 O41 2.244 . S
O29 Co28 2.216 . S
O29 C36 1.247 . S
O30 Co28 2.091 . S
O30 C36 1.261 . S
C31 O40 1.247 . S
C31 O41 1.272 . S
O32 Co28 2.004 . S
O32 C37 1.259 . S
Co33 O34 2.061 . S
Co33 O39 2.052 . S
Co33 O41 2.135 . S
O34 Co33 2.061 . S
O34 C37 1.235 . S
C35 O38 1.238 . S
C35 O39 1.241 . S
C36 O29 1.247 . S
C36 O30 1.261 . S
C37 O32 1.259 . S
C37 O34 1.235 . S
O38 Co28 2.021 . S
O38 C35 1.238 . S
O39 Co33 2.052 . S
O39 C35 1.241 . S
O40 Co28 2.137 . S
O40 C31 1.247 . S
O41 Co28 2.244 . S
O41 C31 1.272 . S
O41 Co33 2.135 . S
Co42 O43 2.216 . S
Co42 O44 2.091 . S
Co42 O46 2.004 . S
Co42 O52 2.021 . S
Co42 O54 2.137 . S
Co42 O55 2.244 . S
O43 Co42 2.216 . S
O43 C50 1.247 . S
O44 Co42 2.091 . S
O44 C50 1.261 . S
C45 O54 1.247 . S
C45 O55 1.272 . S
O46 Co42 2.004 . S
O46 C51 1.259 . S
Co47 O48 2.061 . S
Co47 O53 2.052 . S
Co47 O55 2.135 . S
O48 Co47 2.061 . S
O48 C51 1.235 . S
C49 O52 1.238 . S
C49 O53 1.241 . S
C50 O43 1.247 . S
C50 O44 1.261 . S
C51 O46 1.259 . S
C51 O48 1.235 . S
O52 Co42 2.021 . S
O52 C49 1.238 . S
O53 Co47 2.052 . S
O53 C49 1.241 . S
O54 Co42 2.137 . S
O54 C45 1.247 . S
O55 Co42 2.244 . S
O55 C45 1.272 . S
O55 Co47 2.135 . S
Co56 O57 2.216 . S
Co56 O58 2.091 . S
Co56 O60 2.004 . S
Co56 O66 2.021 . S
Co56 O68 2.137 . S
Co56 O69 2.244 . S
O57 Co56 2.216 . S
O57 C64 1.247 . S
O58 Co56 2.091 . S
O58 C64 1.261 . S
C59 O68 1.247 . S
C59 O69 1.272 . S
O60 Co56 2.004 . S
O60 C65 1.259 . S
Co61 O62 2.061 . S
Co61 O67 2.052 . S
Co61 O69 2.135 . S
O62 Co61 2.061 . S
O62 C65 1.235 . S
C63 O66 1.238 . S
C63 O67 1.241 . S
C64 O57 1.247 . S
C64 O58 1.261 . S
C65 O60 1.259 . S
C65 O62 1.235 . S
O66 Co56 2.021 . S
O66 C63 1.238 . S
O67 Co61 2.052 . S
O67 C63 1.241 . S
O68 Co56 2.137 . S
O68 C59 1.247 . S
O69 Co56 2.244 . S
O69 C59 1.272 . S
O69 Co61 2.135 . S
Co70 O71 2.216 . S
Co70 O72 2.091 . S
Co70 O74 2.004 . S
Co70 O80 2.021 . S
Co70 O82 2.137 . S
Co70 O83 2.244 . S
O71 Co70 2.216 . S
O71 C78 1.247 . S
O72 Co70 2.091 . S
O72 C78 1.261 . S
C73 O82 1.247 . S
C73 O83 1.272 . S
O74 Co70 2.004 . S
O74 C79 1.259 . S
Co75 O76 2.061 . S
Co75 O81 2.052 . S
Co75 O83 2.135 . S
O76 Co75 2.061 . S
O76 C79 1.235 . S
C77 O80 1.238 . S
C77 O81 1.241 . S
C78 O71 1.247 . S
C78 O72 1.261 . S
C79 O74 1.259 . S
C79 O76 1.235 . S
O80 Co70 2.021 . S
O80 C77 1.238 . S
O81 Co75 2.052 . S
O81 C77 1.241 . S
O82 Co70 2.137 . S
O82 C73 1.247 . S
O83 Co70 2.244 . S
O83 C73 1.272 . S
O83 Co75 2.135 . S
Co84 O85 2.216 . S
Co84 O86 2.091 . S
Co84 O88 2.004 . S
Co84 O94 2.021 . S
Co84 O96 2.137 . S
Co84 O97 2.244 . S
O85 Co84 2.216 . S
O85 C92 1.247 . S
O86 Co84 2.091 . S
O86 C92 1.261 . S
C87 O96 1.247 . S
C87 O97 1.272 . S
O88 Co84 2.004 . S
O88 C93 1.259 . S
Co89 O90 2.061 . S
Co89 O95 2.052 . S
Co89 O97 2.135 . S
O90 Co89 2.061 . S
O90 C93 1.235 . S
C91 O94 1.238 . S
C91 O95 1.241 . S
C92 O85 1.247 . S
C92 O86 1.261 . S
C93 O88 1.259 . S
C93 O90 1.235 . S
O94 Co84 2.021 . S
O94 C91 1.238 . S
O95 Co89 2.052 . S
O95 C91 1.241 . S
O96 Co84 2.137 . S
O96 C87 1.247 . S
O97 Co84 2.244 . S
O97 C87 1.272 . S
O97 Co89 2.135 . S
Co98 O99 2.216 . S
Co98 O100 2.091 . S
Co98 O102 2.004 . S
Co98 O108 2.021 . S
Co98 O110 2.137 . S
Co98 O111 2.244 . S
O99 Co98 2.216 . S
O99 C106 1.247 . S
O100 Co98 2.091 . S
O100 C106 1.261 . S
C101 O110 1.247 . S
C101 O111 1.272 . S
O102 Co98 2.004 . S
O102 C107 1.259 . S
Co103 O104 2.061 . S
Co103 O109 2.052 . S
Co103 O111 2.135 . S
O104 Co103 2.061 . S
O104 C107 1.235 . S
C105 O108 1.238 . S
C105 O109 1.241 . S
C106 O99 1.247 . S
C106 O100 1.261 . S
C107 O102 1.259 . S
C107 O104 1.235 . S
O108 Co98 2.021 . S
O108 C105 1.238 . S
O109 Co103 2.052 . S
O109 C105 1.241 . S
O110 Co98 2.137 . S
O110 C101 1.247 . S
O111 Co98 2.244 . S
O111 C101 1.272 . S
O111 Co103 2.135 . S
Co112 O113 2.216 . S
Co112 O114 2.091 . S
Co112 O116 2.004 . S
Co112 O122 2.021 . S
Co112 O124 2.137 . S
Co112 O125 2.244 . S
O113 Co112 2.216 . S
O113 C120 1.247 . S
O114 Co112 2.091 . S
O114 C120 1.261 . S
C115 O124 1.247 . S
C115 O125 1.272 . S
O116 Co112 2.004 . S
O116 C121 1.259 . S
Co117 O118 2.061 . S
Co117 O123 2.052 . S
Co117 O125 2.135 . S
O118 Co117 2.061 . S
O118 C121 1.235 . S
C119 O122 1.238 . S
C119 O123 1.241 . S
C120 O113 1.247 . S
C120 O114 1.261 . S
C121 O116 1.259 . S
C121 O118 1.235 . S
O122 Co112 2.021 . S
O122 C119 1.238 . S
O123 Co117 2.052 . S
O123 C119 1.241 . S
O124 Co112 2.137 . S
O124 C115 1.247 . S
O125 Co112 2.244 . S
O125 C115 1.272 . S
O125 Co117 2.135 . S
Co126 O127 2.216 . S
Co126 O128 2.091 . S
Co126 O130 2.004 . S
Co126 O136 2.021 . S
Co126 O138 2.137 . S
Co126 O139 2.244 . S
O127 Co126 2.216 . S
O127 C134 1.247 . S
O128 Co126 2.091 . S
O128 C134 1.261 . S
C129 O138 1.247 . S
C129 O139 1.272 . S
O130 Co126 2.004 . S
O130 C135 1.259 . S
Co131 O132 2.061 . S
Co131 O137 2.052 . S
Co131 O139 2.135 . S
O132 Co131 2.061 . S
O132 C135 1.235 . S
C133 O136 1.238 . S
C133 O137 1.241 . S
C134 O127 1.247 . S
C134 O128 1.261 . S
C135 O130 1.259 . S
C135 O132 1.235 . S
O136 Co126 2.021 . S
O136 C133 1.238 . S
O137 Co131 2.052 . S
O137 C133 1.241 . S
O138 Co126 2.137 . S
O138 C129 1.247 . S
O139 Co126 2.244 . S
O139 C129 1.272 . S
O139 Co131 2.135 . S
Co140 O141 2.216 . S
Co140 O142 2.091 . S
Co140 O144 2.004 . S
Co140 O150 2.021 . S
Co140 O152 2.137 . S
Co140 O153 2.244 . S
O141 Co140 2.216 . S
O141 C148 1.247 . S
O142 Co140 2.091 . S
O142 C148 1.261 . S
C143 O152 1.247 . S
C143 O153 1.272 . S
O144 Co140 2.004 . S
O144 C149 1.259 . S
Co145 O146 2.061 . S
Co145 O151 2.052 . S
Co145 O153 2.135 . S
O146 Co145 2.061 . S
O146 C149 1.235 . S
C147 O150 1.238 . S
C147 O151 1.241 . S
C148 O141 1.247 . S
C148 O142 1.261 . S
C149 O144 1.259 . S
C149 O146 1.235 . S
O150 Co140 2.021 . S
O150 C147 1.238 . S
O151 Co145 2.052 . S
O151 C147 1.241 . S
O152 Co140 2.137 . S
O152 C143 1.247 . S
O153 Co140 2.244 . S
O153 C143 1.272 . S
O153 Co145 2.135 . S
Co154 O155 2.216 . S
Co154 O156 2.091 . S
Co154 O158 2.004 . S
Co154 O164 2.021 . S
Co154 O166 2.137 . S
Co154 O167 2.244 . S
O155 Co154 2.216 . S
O155 C162 1.247 . S
O156 Co154 2.091 . S
O156 C162 1.261 . S
C157 O166 1.247 . S
C157 O167 1.272 . S
O158 Co154 2.004 . S
O158 C163 1.259 . S
Co159 O160 2.061 . S
Co159 O165 2.052 . S
Co159 O167 2.135 . S
O160 Co159 2.061 . S
O160 C163 1.235 . S
C161 O164 1.238 . S
C161 O165 1.241 . S
C162 O155 1.247 . S
C162 O156 1.261 . S
C163 O158 1.259 . S
C163 O160 1.235 . S
O164 Co154 2.021 . S
O164 C161 1.238 . S
O165 Co159 2.052 . S
O165 C161 1.241 . S
O166 Co154 2.137 . S
O166 C157 1.247 . S
O167 Co154 2.244 . S
O167 C157 1.272 . S
O167 Co159 2.135 . S
H168 C176 0.950 . S
H169 C181 0.950 . S
H170 C178 0.950 . S
H171 C180 0.950 . S
H172 C182 0.950 . S
H173 C184 0.950 . S
H174 C186 0.950 . S
H175 C187 0.950 . S
C176 H168 0.950 . S
C176 C177 1.386 . S
C176 C178 1.391 . S
C177 C176 1.386 . S
C177 C181 1.393 . S
C178 H170 0.950 . S
C178 C176 1.391 . S
C178 C179 1.400 . S
C179 C178 1.400 . S
C179 C180 1.398 . S
C179 C185 1.491 . S
C180 H171 0.950 . S
C180 C179 1.398 . S
C180 C181 1.391 . S
C181 H169 0.950 . S
C181 C177 1.393 . S
C181 C180 1.391 . S
C182 H172 0.950 . S
C182 C183 1.386 . S
C182 C184 1.391 . S
C183 C182 1.386 . S
C183 C187 1.393 . S
C184 H173 0.950 . S
C184 C182 1.391 . S
C184 C185 1.400 . S
C185 C179 1.491 . S
C185 C184 1.400 . S
C185 C186 1.398 . S
C186 H174 0.950 . S
C186 C185 1.398 . S
C186 C187 1.391 . S
C187 H175 0.950 . S
C187 C183 1.393 . S
C187 C186 1.391 . S
H188 C196 0.950 . S
H189 C201 0.950 . S
H190 C198 0.950 . S
H191 C200 0.950 . S
H192 C202 0.950 . S
H193 C204 0.950 . S
H194 C206 0.950 . S
H195 C207 0.950 . S
C196 H188 0.950 . S
C196 C197 1.386 . S
C196 C198 1.391 . S
C197 C196 1.386 . S
C197 C201 1.393 . S
C198 H190 0.950 . S
C198 C196 1.391 . S
C198 C199 1.400 . S
C199 C198 1.400 . S
C199 C200 1.398 . S
C199 C205 1.491 . S
C200 H191 0.950 . S
C200 C199 1.398 . S
C200 C201 1.391 . S
C201 H189 0.950 . S
C201 C197 1.393 . S
C201 C200 1.391 . S
C202 H192 0.950 . S
C202 C203 1.386 . S
C202 C204 1.391 . S
C203 C202 1.386 . S
C203 C207 1.393 . S
C204 H193 0.950 . S
C204 C202 1.391 . S
C204 C205 1.400 . S
C205 C199 1.491 . S
C205 C204 1.400 . S
C205 C206 1.398 . S
C206 H194 0.950 . S
C206 C205 1.398 . S
C206 C207 1.391 . S
C207 H195 0.950 . S
C207 C203 1.393 . S
C207 C206 1.391 . S
H208 C216 0.950 . S
H209 C221 0.950 . S
H210 C218 0.950 . S
H211 C220 0.950 . S
H212 C222 0.950 . S
H213 C224 0.950 . S
H214 C226 0.950 . S
H215 C227 0.950 . S
C216 H208 0.950 . S
C216 C217 1.386 . S
C216 C218 1.391 . S
C217 C216 1.386 . S
C217 C221 1.393 . S
C218 H210 0.950 . S
C218 C216 1.391 . S
C218 C219 1.400 . S
C219 C218 1.400 . S
C219 C220 1.398 . S
C219 C225 1.491 . S
C220 H211 0.950 . S
C220 C219 1.398 . S
C220 C221 1.391 . S
C221 H209 0.950 . S
C221 C217 1.393 . S
C221 C220 1.391 . S
C222 H212 0.950 . S
C222 C223 1.386 . S
C222 C224 1.391 . S
C223 C222 1.386 . S
C223 C227 1.393 . S
C224 H213 0.950 . S
C224 C222 1.391 . S
C224 C225 1.400 . S
C225 C219 1.491 . S
C225 C224 1.400 . S
C225 C226 1.398 . S
C226 H214 0.950 . S
C226 C225 1.398 . S
C226 C227 1.391 . S
C227 H215 0.950 . S
C227 C223 1.393 . S
C227 C226 1.391 . S
H228 C236 0.950 . S
H229 C241 0.950 . S
H230 C238 0.950 . S
H231 C240 0.950 . S
H232 C242 0.950 . S
H233 C244 0.950 . S
H234 C246 0.950 . S
H235 C247 0.950 . S
C236 H228 0.950 . S
C236 C237 1.386 . S
C236 C238 1.391 . S
C237 C236 1.386 . S
C237 C241 1.393 . S
C238 H230 0.950 . S
C238 C236 1.391 . S
C238 C239 1.400 . S
C239 C238 1.400 . S
C239 C240 1.398 . S
C239 C245 1.491 . S
C240 H231 0.950 . S
C240 C239 1.398 . S
C240 C241 1.391 . S
C241 H229 0.950 . S
C241 C237 1.393 . S
C241 C240 1.391 . S
C242 H232 0.950 . S
C242 C243 1.386 . S
C242 C244 1.391 . S
C243 C242 1.386 . S
C243 C247 1.393 . S
C244 H233 0.950 . S
C244 C242 1.391 . S
C244 C245 1.400 . S
C245 C239 1.491 . S
C245 C244 1.400 . S
C245 C246 1.398 . S
C246 H234 0.950 . S
C246 C245 1.398 . S
C246 C247 1.391 . S
C247 H235 0.950 . S
C247 C243 1.393 . S
C247 C246 1.391 . S
H248 C256 0.950 . S
H249 C261 0.950 . S
H250 C258 0.950 . S
H251 C260 0.950 . S
H252 C262 0.950 . S
H253 C264 0.950 . S
H254 C266 0.950 . S
H255 C267 0.950 . S
C256 H248 0.950 . S
C256 C257 1.386 . S
C256 C258 1.391 . S
C257 C256 1.386 . S
C257 C261 1.393 . S
C258 H250 0.950 . S
C258 C256 1.391 . S
C258 C259 1.400 . S
C259 C258 1.400 . S
C259 C260 1.398 . S
C259 C265 1.491 . S
C260 H251 0.950 . S
C260 C259 1.398 . S
C260 C261 1.391 . S
C261 H249 0.950 . S
C261 C257 1.393 . S
C261 C260 1.391 . S
C262 H252 0.950 . S
C262 C263 1.386 . S
C262 C264 1.391 . S
C263 C262 1.386 . S
C263 C267 1.393 . S
C264 H253 0.950 . S
C264 C262 1.391 . S
C264 C265 1.400 . S
C265 C259 1.491 . S
C265 C264 1.400 . S
C265 C266 1.398 . S
C266 H254 0.950 . S
C266 C265 1.398 . S
C266 C267 1.391 . S
C267 H255 0.950 . S
C267 C263 1.393 . S
C267 C266 1.391 . S
H268 C276 0.950 . S
H269 C281 0.950 . S
H270 C278 0.950 . S
H271 C280 0.950 . S
H272 C282 0.950 . S
H273 C284 0.950 . S
H274 C286 0.950 . S
H275 C287 0.950 . S
C276 H268 0.950 . S
C276 C277 1.386 . S
C276 C278 1.391 . S
C277 C276 1.386 . S
C277 C281 1.393 . S
C278 H270 0.950 . S
C278 C276 1.391 . S
C278 C279 1.400 . S
C279 C278 1.400 . S
C279 C280 1.398 . S
C279 C285 1.491 . S
C280 H271 0.950 . S
C280 C279 1.398 . S
C280 C281 1.391 . S
C281 H269 0.950 . S
C281 C277 1.393 . S
C281 C280 1.391 . S
C282 H272 0.950 . S
C282 C283 1.386 . S
C282 C284 1.391 . S
C283 C282 1.386 . S
C283 C287 1.393 . S
C284 H273 0.950 . S
C284 C282 1.391 . S
C284 C285 1.400 . S
C285 C279 1.491 . S
C285 C284 1.400 . S
C285 C286 1.398 . S
C286 H274 0.950 . S
C286 C285 1.398 . S
C286 C287 1.391 . S
C287 H275 0.950 . S
C287 C283 1.393 . S
C287 C286 1.391 . S
H288 C296 0.950 . S
H289 C301 0.950 . S
H290 C298 0.950 . S
H291 C300 0.950 . S
H292 C302 0.950 . S
H293 C304 0.950 . S
H294 C306 0.950 . S
H295 C307 0.950 . S
C296 H288 0.950 . S
C296 C297 1.386 . S
C296 C298 1.391 . S
C297 C296 1.386 . S
C297 C301 1.393 . S
C298 H290 0.950 . S
C298 C296 1.391 . S
C298 C299 1.400 . S
C299 C298 1.400 . S
C299 C300 1.398 . S
C299 C305 1.491 . S
C300 H291 0.950 . S
C300 C299 1.398 . S
C300 C301 1.391 . S
C301 H289 0.950 . S
C301 C297 1.393 . S
C301 C300 1.391 . S
C302 H292 0.950 . S
C302 C303 1.386 . S
C302 C304 1.391 . S
C303 C302 1.386 . S
C303 C307 1.393 . S
C304 H293 0.950 . S
C304 C302 1.391 . S
C304 C305 1.400 . S
C305 C299 1.491 . S
C305 C304 1.400 . S
C305 C306 1.398 . S
C306 H294 0.950 . S
C306 C305 1.398 . S
C306 C307 1.391 . S
C307 H295 0.950 . S
C307 C303 1.393 . S
C307 C306 1.391 . S
H308 C316 0.950 . S
H309 C321 0.950 . S
H310 C318 0.950 . S
H311 C320 0.950 . S
H312 C322 0.950 . S
H313 C324 0.950 . S
H314 C326 0.950 . S
H315 C327 0.950 . S
C316 H308 0.950 . S
C316 C317 1.386 . S
C316 C318 1.391 . S
C317 C316 1.386 . S
C317 C321 1.393 . S
C318 H310 0.950 . S
C318 C316 1.391 . S
C318 C319 1.400 . S
C319 C318 1.400 . S
C319 C320 1.398 . S
C319 C325 1.491 1_455 S
C320 H311 0.950 . S
C320 C319 1.398 . S
C320 C321 1.391 . S
C321 H309 0.950 . S
C321 C317 1.393 . S
C321 C320 1.391 . S
C322 H312 0.950 . S
C322 C323 1.386 . S
C322 C324 1.391 . S
C323 C322 1.386 . S
C323 C327 1.393 . S
C324 H313 0.950 . S
C324 C322 1.391 . S
C324 C325 1.400 . S
C325 C319 1.491 1_655 S
C325 C324 1.400 . S
C325 C326 1.398 . S
C326 H314 0.950 . S
C326 C325 1.398 . S
C326 C327 1.391 . S
C327 H315 0.950 . S
C327 C323 1.393 . S
C327 C326 1.391 . S
H328 C336 0.950 . S
H329 C341 0.950 1_565 S
H330 C338 0.950 . S
H331 C340 0.950 . S
H332 C342 0.950 . S
H333 C344 0.950 . S
H334 C346 0.950 . S
H335 C347 0.950 1_545 S
C336 H328 0.950 . S
C336 C337 1.386 . S
C336 C338 1.391 . S
C337 C336 1.386 . S
C337 C341 1.393 . S
C338 H330 0.950 . S
C338 C336 1.391 . S
C338 C339 1.400 . S
C339 C338 1.400 . S
C339 C340 1.398 1_545 S
C339 C345 1.491 1_545 S
C340 H331 0.950 . S
C340 C339 1.398 1_565 S
C340 C341 1.391 1_565 S
C341 H329 0.950 1_545 S
C341 C337 1.393 . S
C341 C340 1.391 1_545 S
C342 H332 0.950 . S
C342 C343 1.386 . S
C342 C344 1.391 . S
C343 C342 1.386 . S
C343 C347 1.393 . S
C344 H333 0.950 . S
C344 C342 1.391 . S
C344 C345 1.400 . S
C345 C339 1.491 1_565 S
C345 C344 1.400 . S
C345 C346 1.398 1_565 S
C346 H334 0.950 . S
C346 C345 1.398 1_545 S
C346 C347 1.391 1_545 S
C347 H335 0.950 1_565 S
C347 C343 1.393 . S
C347 C346 1.391 1_565 S
H348 C356 0.950 . S
H349 C361 0.950 . S
H350 C358 0.950 . S
H351 C360 0.950 . S
H352 C362 0.950 . S
H353 C364 0.950 . S
H354 C366 0.950 . S
H355 C367 0.950 . S
C356 H348 0.950 . S
C356 C357 1.386 . S
C356 C358 1.391 . S
C357 C356 1.386 . S
C357 C361 1.393 . S
C358 H350 0.950 . S
C358 C356 1.391 . S
C358 C359 1.400 . S
C359 C358 1.400 . S
C359 C360 1.398 . S
C359 C365 1.491 . S
C360 H351 0.950 . S
C360 C359 1.398 . S
C360 C361 1.391 . S
C361 H349 0.950 . S
C361 C357 1.393 . S
C361 C360 1.391 . S
C362 H352 0.950 . S
C362 C363 1.386 . S
C362 C364 1.391 . S
C363 C362 1.386 . S
C363 C367 1.393 . S
C364 H353 0.950 . S
C364 C362 1.391 . S
C364 C365 1.400 . S
C365 C359 1.491 . S
C365 C364 1.400 . S
C365 C366 1.398 . S
C366 H354 0.950 . S
C366 C365 1.398 . S
C366 C367 1.391 . S
C367 H355 0.950 . S
C367 C363 1.393 . S
C367 C366 1.391 . S
H368 C376 0.950 . S
H369 C381 0.950 1_455 S
H370 C378 0.950 . S
H371 C380 0.950 . S
H372 C382 0.950 . S
H373 C384 0.950 . S
H374 C386 0.950 . S
H375 C387 0.950 1_655 S
C376 H368 0.950 . S
C376 C377 1.386 . S
C376 C378 1.391 . S
C377 C376 1.386 . S
C377 C381 1.393 . S
C378 H370 0.950 . S
C378 C376 1.391 . S
C378 C379 1.400 . S
C379 C378 1.400 . S
C379 C380 1.398 1_655 S
C379 C385 1.491 1_655 S
C380 H371 0.950 . S
C380 C379 1.398 1_455 S
C380 C381 1.391 1_455 S
C381 H369 0.950 1_655 S
C381 C377 1.393 . S
C381 C380 1.391 1_655 S
C382 H372 0.950 . S
C382 C383 1.386 . S
C382 C384 1.391 . S
C383 C382 1.386 . S
C383 C387 1.393 . S
C384 H373 0.950 . S
C384 C382 1.391 . S
C384 C385 1.400 . S
C385 C379 1.491 1_455 S
C385 C384 1.400 . S
C385 C386 1.398 1_455 S
C386 H374 0.950 . S
C386 C385 1.398 1_655 S
C386 C387 1.391 1_655 S
C387 H375 0.950 1_455 S
C387 C383 1.393 . S
C387 C386 1.391 1_455 S
H388 C396 0.950 1_545 S
H389 C401 0.950 . S
H390 C398 0.950 . S
H391 C400 0.950 . S
H392 C402 0.950 1_565 S
H393 C404 0.950 . S
H394 C406 0.950 . S
H395 C407 0.950 . S
C396 H388 0.950 1_565 S
C396 C397 1.386 . S
C396 C398 1.391 1_565 S
C397 C396 1.386 . S
C397 C401 1.393 . S
C398 H390 0.950 . S
C398 C396 1.391 1_545 S
C398 C399 1.400 1_545 S
C399 C398 1.400 1_565 S
C399 C400 1.398 . S
C399 C405 1.491 1_565 S
C400 H391 0.950 . S
C400 C399 1.398 . S
C400 C401 1.391 . S
C401 H389 0.950 . S
C401 C397 1.393 . S
C401 C400 1.391 . S
C402 H392 0.950 1_545 S
C402 C403 1.386 . S
C402 C404 1.391 1_545 S
C403 C402 1.386 . S
C403 C407 1.393 . S
C404 H393 0.950 . S
C404 C402 1.391 1_565 S
C404 C405 1.400 1_565 S
C405 C399 1.491 1_545 S
C405 C404 1.400 1_545 S
C405 C406 1.398 . S
C406 H394 0.950 . S
C406 C405 1.398 . S
C406 C407 1.391 . S
C407 H395 0.950 . S
C407 C403 1.393 . S
C407 C406 1.391 . S
H408 C416 0.950 . S
H409 C421 0.950 . S
H410 C418 0.950 . S
H411 C420 0.950 . S
H412 C422 0.950 . S
H413 C424 0.950 . S
H414 C426 0.950 . S
H415 C427 0.950 . S
C416 H408 0.950 . S
C416 C417 1.386 . S
C416 C418 1.391 . S
C417 C416 1.386 . S
C417 C421 1.393 . S
C418 H410 0.950 . S
C418 C416 1.391 . S
C418 C419 1.400 . S
C419 C418 1.400 . S
C419 C420 1.398 . S
C419 C425 1.491 . S
C420 H411 0.950 . S
C420 C419 1.398 . S
C420 C421 1.391 . S
C421 H409 0.950 . S
C421 C417 1.393 . S
C421 C420 1.391 . S
C422 H412 0.950 . S
C422 C423 1.386 . S
C422 C424 1.391 . S
C423 C422 1.386 . S
C423 C427 1.393 . S
C424 H413 0.950 . S
C424 C422 1.391 . S
C424 C425 1.400 . S
C425 C419 1.491 . S
C425 C424 1.400 . S
C425 C426 1.398 . S
C426 H414 0.950 . S
C426 C425 1.398 . S
C426 C427 1.391 . S
C427 H415 0.950 . S
C427 C423 1.393 . S
C427 C426 1.391 . S
H428 C436 0.950 . S
H429 C441 0.950 . S
H430 C438 0.950 . S
H431 C440 0.950 . S
H432 C442 0.950 . S
H433 C444 0.950 . S
H434 C446 0.950 1_655 S
H435 C447 0.950 . S
C436 H428 0.950 . S
C436 C437 1.386 . S
C436 C438 1.391 . S
C437 C436 1.386 . S
C437 C441 1.393 . S
C438 H430 0.950 . S
C438 C436 1.391 . S
C438 C439 1.400 . S
C439 C438 1.400 . S
C439 C440 1.398 1_655 S
C439 C445 1.491 1_655 S
C440 H431 0.950 . S
C440 C439 1.398 1_455 S
C440 C441 1.391 1_455 S
C441 H429 0.950 . S
C441 C437 1.393 . S
C441 C440 1.391 1_655 S
C442 H432 0.950 . S
C442 C443 1.386 . S
C442 C444 1.391 . S
C443 C442 1.386 . S
C443 C447 1.393 . S
C444 H433 0.950 . S
C444 C442 1.391 . S
C444 C445 1.400 . S
C445 C439 1.491 1_455 S
C445 C444 1.400 . S
C445 C446 1.398 . S
C446 H434 0.950 1_455 S
C446 C445 1.398 . S
C446 C447 1.391 . S
C447 H435 0.950 . S
C447 C443 1.393 . S
C447 C446 1.391 . S
H448 C456 0.950 . S
H449 C461 0.950 . S
H450 C458 0.950 1_545 S
H451 C460 0.950 . S
H452 C462 0.950 . S
H453 C464 0.950 1_565 S
H454 C466 0.950 . S
H455 C467 0.950 . S
C456 H448 0.950 . S
C456 C457 1.386 . S
C456 C458 1.391 . S
C457 C456 1.386 . S
C457 C461 1.393 . S
C458 H450 0.950 1_565 S
C458 C456 1.391 . S
C458 C459 1.400 . S
C459 C458 1.400 . S
C459 C460 1.398 . S
C459 C465 1.491 1_566 S
C460 H451 0.950 . S
C460 C459 1.398 . S
C460 C461 1.391 . S
C461 H449 0.950 . S
C461 C457 1.393 . S
C461 C460 1.391 . S
C462 H452 0.950 . S
C462 C463 1.386 . S
C462 C464 1.391 . S
C463 C462 1.386 . S
C463 C467 1.393 . S
C464 H453 0.950 1_545 S
C464 C462 1.391 . S
C464 C465 1.400 . S
C465 C459 1.491 1_544 S
C465 C464 1.400 . S
C465 C466 1.398 . S
C466 H454 0.950 . S
C466 C465 1.398 . S
C466 C467 1.391 . S
C467 H455 0.950 . S
C467 C463 1.393 . S
C467 C466 1.391 . S
H468 C476 0.950 . S
H469 C481 0.950 . S
H470 C478 0.950 . S
H471 C480 0.950 . S
H472 C482 0.950 . S
H473 C484 0.950 . S
H474 C486 0.950 . S
H475 C487 0.950 . S
C476 H468 0.950 . S
C476 C477 1.386 . S
C476 C478 1.391 . S
C477 C476 1.386 . S
C477 C481 1.393 . S
C478 H470 0.950 . S
C478 C476 1.391 . S
C478 C479 1.400 . S
C479 C478 1.400 . S
C479 C480 1.398 . S
C479 C485 1.491 . S
C480 H471 0.950 . S
C480 C479 1.398 . S
C480 C481 1.391 . S
C481 H469 0.950 . S
C481 C477 1.393 . S
C481 C480 1.391 . S
C482 H472 0.950 . S
C482 C483 1.386 . S
C482 C484 1.391 . S
C483 C482 1.386 . S
C483 C487 1.393 . S
C484 H473 0.950 . S
C484 C482 1.391 . S
C484 C485 1.400 . S
C485 C479 1.491 . S
C485 C484 1.400 . S
C485 C486 1.398 . S
C486 H474 0.950 . S
C486 C485 1.398 . S
C486 C487 1.391 . S
C487 H475 0.950 . S
C487 C483 1.393 . S
C487 C486 1.391 . S
H488 C496 0.950 . S
H489 C501 0.950 . S
H490 C498 0.950 1_655 S
H491 C500 0.950 . S
H492 C502 0.950 . S
H493 C504 0.950 1_455 S
H494 C506 0.950 . S
H495 C507 0.950 . S
C496 H488 0.950 . S
C496 C497 1.386 . S
C496 C498 1.391 . S
C497 C496 1.386 . S
C497 C501 1.393 . S
C498 H490 0.950 1_455 S
C498 C496 1.391 . S
C498 C499 1.400 . S
C499 C498 1.400 . S
C499 C500 1.398 . S
C499 C505 1.491 1_455 S
C500 H491 0.950 . S
C500 C499 1.398 . S
C500 C501 1.391 . S
C501 H489 0.950 . S
C501 C497 1.393 . S
C501 C500 1.391 . S
C502 H492 0.950 . S
C502 C503 1.386 . S
C502 C504 1.391 . S
C503 C502 1.386 . S
C503 C507 1.393 . S
C504 H493 0.950 1_655 S
C504 C502 1.391 . S
C504 C505 1.400 . S
C505 C499 1.491 1_655 S
C505 C504 1.400 . S
C505 C506 1.398 . S
C506 H494 0.950 . S
C506 C505 1.398 . S
C506 C507 1.391 . S
C507 H495 0.950 . S
C507 C503 1.393 . S
C507 C506 1.391 . S
H508 C516 0.950 . S
H509 C521 0.950 . S
H510 C518 0.950 . S
H511 C520 0.950 . S
H512 C522 0.950 . S
H513 C524 0.950 . S
H514 C526 0.950 . S
H515 C527 0.950 . S
C516 H508 0.950 . S
C516 C517 1.386 . S
C516 C518 1.391 . S
C517 C516 1.386 . S
C517 C521 1.393 . S
C518 H510 0.950 . S
C518 C516 1.391 . S
C518 C519 1.400 . S
C519 C518 1.400 . S
C519 C520 1.398 . S
C519 C525 1.491 1_564 S
C520 H511 0.950 . S
C520 C519 1.398 . S
C520 C521 1.391 . S
C521 H509 0.950 . S
C521 C517 1.393 . S
C521 C520 1.391 . S
C522 H512 0.950 . S
C522 C523 1.386 . S
C522 C524 1.391 . S
C523 C522 1.386 . S
C523 C527 1.393 . S
C524 H513 0.950 . S
C524 C522 1.391 . S
C524 C525 1.400 . S
C525 C519 1.491 1_546 S
C525 C524 1.400 . S
C525 C526 1.398 . S
C526 H514 0.950 . S
C526 C525 1.398 . S
C526 C527 1.391 . S
C527 H515 0.950 . S
C527 C523 1.393 . S
C527 C526 1.391 . S
H528 C536 0.950 . S
H529 C541 0.950 . S
H530 C538 0.950 . S
H531 C540 0.950 . S
H532 C542 0.950 . S
H533 C544 0.950 . S
H534 C546 0.950 . S
H535 C547 0.950 . S
C536 H528 0.950 . S
C536 C537 1.386 . S
C536 C538 1.391 . S
C537 C536 1.386 . S
C537 C541 1.393 . S
C538 H530 0.950 . S
C538 C536 1.391 . S
C538 C539 1.400 . S
C539 C538 1.400 . S
C539 C540 1.398 . S
C539 C545 1.491 1_655 S
C540 H531 0.950 . S
C540 C539 1.398 . S
C540 C541 1.391 . S
C541 H529 0.950 . S
C541 C537 1.393 . S
C541 C540 1.391 . S
C542 H532 0.950 . S
C542 C543 1.386 . S
C542 C544 1.391 . S
C543 C542 1.386 . S
C543 C547 1.393 . S
C544 H533 0.950 . S
C544 C542 1.391 . S
C544 C545 1.400 . S
C545 C539 1.491 1_455 S
C545 C544 1.400 . S
C545 C546 1.398 . S
C546 H534 0.950 . S
C546 C545 1.398 . S
C546 C547 1.391 . S
C547 H535 0.950 . S
C547 C543 1.393 . S
C547 C546 1.391 . S
H548 C556 0.950 . S
H549 C561 0.950 . S
H550 C558 0.950 . S
H551 C560 0.950 . S
H552 C562 0.950 . S
H553 C564 0.950 . S
H554 C566 0.950 . S
H555 C567 0.950 . S
C556 H548 0.950 . S
C556 C557 1.386 . S
C556 C558 1.391 . S
C557 C556 1.386 . S
C557 C561 1.393 . S
C558 H550 0.950 . S
C558 C556 1.391 . S
C558 C559 1.400 . S
C559 C558 1.400 . S
C559 C560 1.398 . S
C559 C565 1.491 1_545 S
C560 H551 0.950 . S
C560 C559 1.398 . S
C560 C561 1.391 . S
C561 H549 0.950 . S
C561 C557 1.393 . S
C561 C560 1.391 . S
C562 H552 0.950 . S
C562 C563 1.386 . S
C562 C564 1.391 . S
C563 C562 1.386 . S
C563 C567 1.393 . S
C564 H553 0.950 . S
C564 C562 1.391 . S
C564 C565 1.400 . S
C565 C559 1.491 1_565 S
C565 C564 1.400 . S
C565 C566 1.398 . S
C566 H554 0.950 . S
C566 C565 1.398 . S
C566 C567 1.391 . S
C567 H555 0.950 . S
C567 C563 1.393 . S
C567 C566 1.391 . S
H568 C576 0.950 . S
H569 C581 0.950 . S
H570 C578 0.950 . S
H571 C580 0.950 . S
H572 C582 0.950 . S
H573 C584 0.950 . S
H574 C586 0.950 . S
H575 C587 0.950 . S
C576 H568 0.950 . S
C576 C577 1.386 . S
C576 C578 1.391 . S
C577 C576 1.386 . S
C577 C581 1.393 . S
C578 H570 0.950 . S
C578 C576 1.391 . S
C578 C579 1.400 . S
C579 C578 1.400 . S
C579 C580 1.398 . S
C579 C585 1.491 . S
C580 H571 0.950 . S
C580 C579 1.398 . S
C580 C581 1.391 . S
C581 H569 0.950 . S
C581 C577 1.393 . S
C581 C580 1.391 . S
C582 H572 0.950 . S
C582 C583 1.386 . S
C582 C584 1.391 . S
C583 C582 1.386 . S
C583 C587 1.393 . S
C584 H573 0.950 . S
C584 C582 1.391 . S
C584 C585 1.400 . S
C585 C579 1.491 . S
C585 C584 1.400 . S
C585 C586 1.398 . S
C586 H574 0.950 . S
C586 C585 1.398 . S
C586 C587 1.391 . S
C587 H575 0.950 . S
C587 C583 1.393 . S
C587 C586 1.391 . S
H588 C596 0.950 . S
H589 C601 0.950 . S
H590 C598 0.950 . S
H591 C600 0.950 . S
H592 C602 0.950 . S
H593 C604 0.950 . S
H594 C606 0.950 . S
H595 C607 0.950 . S
C596 H588 0.950 . S
C596 C597 1.386 . S
C596 C598 1.391 . S
C597 C596 1.386 . S
C597 C601 1.393 . S
C598 H590 0.950 . S
C598 C596 1.391 . S
C598 C599 1.400 . S
C599 C598 1.400 . S
C599 C600 1.398 . S
C599 C605 1.491 1_655 S
C600 H591 0.950 . S
C600 C599 1.398 . S
C600 C601 1.391 . S
C601 H589 0.950 . S
C601 C597 1.393 . S
C601 C600 1.391 . S
C602 H592 0.950 . S
C602 C603 1.386 . S
C602 C604 1.391 . S
C603 C602 1.386 . S
C603 C607 1.393 . S
C604 H593 0.950 . S
C604 C602 1.391 . S
C604 C605 1.400 . S
C605 C599 1.491 1_455 S
C605 C604 1.400 . S
C605 C606 1.398 . S
C606 H594 0.950 . S
C606 C605 1.398 . S
C606 C607 1.391 . S
C607 H595 0.950 . S
C607 C603 1.393 . S
C607 C606 1.391 . S
H608 C616 0.950 . S
H609 C621 0.950 . S
H610 C618 0.950 . S
H611 C620 0.950 . S
H612 C622 0.950 . S
H613 C624 0.950 . S
H614 C626 0.950 . S
H615 C627 0.950 . S
C616 H608 0.950 . S
C616 C617 1.386 . S
C616 C618 1.391 . S
C617 C616 1.386 . S
C617 C621 1.393 . S
C618 H610 0.950 . S
C618 C616 1.391 . S
C618 C619 1.400 . S
C619 C618 1.400 . S
C619 C620 1.398 . S
C619 C625 1.491 1_565 S
C620 H611 0.950 . S
C620 C619 1.398 . S
C620 C621 1.391 . S
C621 H609 0.950 . S
C621 C617 1.393 . S
C621 C620 1.391 . S
C622 H612 0.950 . S
C622 C623 1.386 . S
C622 C624 1.391 . S
C623 C622 1.386 . S
C623 C627 1.393 . S
C624 H613 0.950 . S
C624 C622 1.391 . S
C624 C625 1.400 . S
C625 C619 1.491 1_545 S
C625 C624 1.400 . S
C625 C626 1.398 . S
C626 H614 0.950 . S
C626 C625 1.398 . S
C626 C627 1.391 . S
C627 H615 0.950 . S
C627 C623 1.393 . S
C627 C626 1.391 . S
H628 C636 0.950 . S
H629 C641 0.950 . S
H630 C638 0.950 . S
H631 C640 0.950 . S
H632 C642 0.950 . S
H633 C644 0.950 . S
H634 C646 0.950 . S
H635 C647 0.950 . S
C636 H628 0.950 . S
C636 C637 1.386 . S
C636 C638 1.391 . S
C637 C636 1.386 . S
C637 C641 1.393 . S
C638 H630 0.950 . S
C638 C636 1.391 . S
C638 C639 1.400 . S
C639 C638 1.400 . S
C639 C640 1.398 . S
C639 C645 1.491 . S
C640 H631 0.950 . S
C640 C639 1.398 . S
C640 C641 1.391 . S
C641 H629 0.950 . S
C641 C637 1.393 . S
C641 C640 1.391 . S
C642 H632 0.950 . S
C642 C643 1.386 . S
C642 C644 1.391 . S
C643 C642 1.386 . S
C643 C647 1.393 . S
C644 H633 0.950 . S
C644 C642 1.391 . S
C644 C645 1.400 . S
C645 C639 1.491 . S
C645 C644 1.400 . S
C645 C646 1.398 . S
C646 H634 0.950 . S
C646 C645 1.398 . S
C646 C647 1.391 . S
C647 H635 0.950 . S
C647 C643 1.393 . S
C647 C646 1.391 . S
C177 C119 1.748 . S
C183 C7 1.753 . S
C197 C23 1.830 . S
C203 C135 1.830 . S
C217 C35 1.750 . S
C223 C147 1.744 . S
C237 C49 1.743 . S
C243 C161 1.732 . S
C257 C93 1.830 . S
C263 C65 1.830 . S
C277 C77 1.731 . S
C283 C105 1.746 . S
C297 C51 1.004 . S
C303 C9 0.970 . S
C317 C63 1.050 . S
C323 C21 1.050 . S
C337 C79 0.876 . S
C343 C37 0.906 . S
C357 C91 1.050 . S
C363 C133 1.050 . S
C377 C107 0.984 . S
C383 C149 1.022 . S
C397 C121 0.884 . S
C403 C163 0.848 . S
C417 C3 1.566 . S
C423 C134 1.565 . S
C437 C22 1.565 . S
C443 C143 1.568 . S
C457 C31 1.552 . S
C463 C157 1.555 . S
C477 C92 1.567 . S
C483 C45 1.565 . S
C497 C64 1.562 . S
C503 C101 1.568 . S
C517 C115 1.552 . S
C523 C73 1.553 . S
C537 C162 1.223 . S
C543 C8 1.212 . S
C557 C17 1.262 . S
C563 C87 1.277 . S
C577 C106 1.200 . S
C583 C36 1.210 . S
C597 C50 1.224 . S
C603 C120 1.220 . S
C617 C59 1.260 . S
C623 C129 1.258 . S
C637 C148 1.213 . S
C643 C78 1.207 . S
