# Generated by pormake.
# Topology rob, (6)-cn, num edge types: 1
# Building blocks:
#     Node 0, Type 0, BuildingBlock: UKALOJ_clean_sbu_0, # of connection points: 6
#     Node 1, Type 0, BuildingBlock: UKALOJ_clean_sbu_0, # of connection points: 6
#     Node 2, Type 0, BuildingBlock: UKALOJ_clean_sbu_0, # of connection points: 6
#     Node 3, Type 0, BuildingBlock: UKALOJ_clean_sbu_0, # of connection points: 6
#     Edge 4, Type (0, 0), BuildingBlock: MIFKUJ_clean_linker_0, # of connection points: 2
#     Edge 5, Type (0, 0), BuildingBlock: MIFKUJ_clean_linker_0, # of connection points: 2
#     Edge 6, Type (0, 0), BuildingBlock: MIFKUJ_clean_linker_0, # of connection points: 2
#     Edge 7, Type (0, 0), BuildingBlock: MIFKUJ_clean_linker_0, # of connection points: 2
#     Edge 8, Type (0, 0), BuildingBlock: MIFKUJ_clean_linker_0, # of connection points: 2
#     Edge 9, Type (0, 0), BuildingBlock: MIFKUJ_clean_linker_0, # of connection points: 2
#     Edge 10, Type (0, 0), BuildingBlock: MIFKUJ_clean_linker_0, # of connection points: 2
#     Edge 11, Type (0, 0), BuildingBlock: MIFKUJ_clean_linker_0, # of connection points: 2
#     Edge 12, Type (0, 0), BuildingBlock: MIFKUJ_clean_linker_0, # of connection points: 2
#     Edge 13, Type (0, 0), BuildingBlock: MIFKUJ_clean_linker_0, # of connection points: 2
#     Edge 14, Type (0, 0), BuildingBlock: MIFKUJ_clean_linker_0, # of connection points: 2
#     Edge 15, Type (0, 0), BuildingBlock: MIFKUJ_clean_linker_0, # of connection points: 2
# Relax obj value: 0.168
# Max RMSD: 0.196
# Mean RMSD: 0.196
data_MOF--net-rob--node1-UKALOJ_clean_sbu_0--edge1-MIFKUJ_clean_linker_0
_symmetry_space_group_name_H-M    P1
_symmetry_Int_Tables_number       1
_symmetry_cell_setting            triclinic
loop_
_symmetry_equiv_pos_as_xyz
'x, y, z'
_cell_length_a     18.69207
_cell_length_b     45.637119
_cell_length_c     31.16289
_cell_angle_alpha  99.381653
_cell_angle_beta   89.853626
_cell_angle_gamma 89.847025
loop_
_atom_site_label
_atom_site_type_symbol
_atom_site_fract_x
_atom_site_fract_y
_atom_site_fract_z
_atom_type_partial_charge
Zn0 Zn 0.27712 0.29076 -0.00022 0.0
O1 O 0.37399 0.27559 0.97008 0.0
C2 C 0.21462 0.28241 0.91218 0.0
Zn3 Zn 0.2315 0.24524 0.98188 0.0
C4 C 0.38289 0.24845 0.95376 0.0
O5 O 0.33223 0.23015 0.9556 0.0
C6 C 0.12635 0.28795 0.02817 0.0
O7 O 0.26027 0.2342 0.04224 0.0
O8 O 0.31153 0.27782 0.05885 0.0
N9 N 0.19013 0.20359 0.96183 0.0
C10 C 0.15582 0.18415 0.98294 0.0
C11 C 0.16664 0.16368 0.91671 0.0
N12 N 0.19662 0.19079 0.92069 0.0
N13 N 0.14091 0.15884 0.95536 0.0
C14 C 0.3494 0.35223 -0.00283 0.0
C15 C 0.34712 0.37176 0.06411 0.0
N16 N 0.31899 0.33235 0.01924 0.0
N17 N 0.31774 0.34457 0.0608 0.0
N18 N 0.36716 0.37725 0.02463 0.0
H19 H 0.37272 0.32239 0.93752 0.0
H20 H 0.41355 0.35852 0.9417 0.0
H21 H 0.31898 0.35408 0.93158 0.0
C22 C 0.36498 0.34639 0.9493 0.0
C23 C 0.13385 0.19058 0.02981 0.0
H24 H 0.12823 0.21474 0.04117 0.0
H25 H 0.17545 0.18189 0.04971 0.0
H26 H 0.08251 0.17945 0.03485 0.0
O27 O 0.13133 0.26141 0.00811 0.0
O28 O 0.18 0.3051 0.02976 0.0
C29 C 0.29529 0.25274 0.0689 0.0
O30 O 0.24149 0.30272 0.94019 0.0
O31 O 0.20474 0.25674 0.92175 0.0
Zn32 Zn 0.76897 0.7921 -0.0015 0.0
O33 O 0.87217 0.77919 0.9732 0.0
C34 C 0.71004 0.78184 0.9102 0.0
Zn35 Zn 0.73258 0.7451 0.98026 0.0
C36 C 0.88339 0.75263 0.95462 0.0
O37 O 0.83372 0.73355 0.95327 0.0
C38 C 0.618 0.78434 0.02419 0.0
O39 O 0.76629 0.73502 0.04112 0.0
O40 O 0.79781 0.78172 0.05901 0.0
N41 N 0.69861 0.70224 0.96076 0.0
C42 C 0.66939 0.6819 0.98247 0.0
C43 C 0.67791 0.66194 0.91588 0.0
N44 N 0.70381 0.68975 0.91943 0.0
N45 N 0.65625 0.65634 0.95501 0.0
C46 C 0.83301 0.85515 -0.00335 0.0
C47 C 0.82082 0.87561 0.06281 0.0
N48 N 0.80252 0.83498 0.01815 0.0
N49 N 0.79504 0.84778 0.05922 0.0
N50 N 0.84465 0.88091 0.02396 0.0
H51 H 0.86588 0.82513 0.93899 0.0
H52 H 0.90282 0.86203 0.94394 0.0
H53 H 0.81027 0.85553 0.92958 0.0
C54 C 0.85466 0.84902 0.94967 0.0
C55 C 0.65034 0.68768 0.02989 0.0
H56 H 0.63959 0.71153 0.04118 0.0
H57 H 0.69589 0.68095 0.04891 0.0
H58 H 0.60259 0.67467 0.03637 0.0
O59 O 0.63127 0.75761 0.00728 0.0
O60 O 0.66603 0.80397 0.02384 0.0
C61 C 0.79035 0.75603 0.06907 0.0
O62 O 0.73782 0.80195 0.93803 0.0
O63 O 0.70037 0.75605 0.91964 0.0
Zn64 Zn 0.22888 0.79133 0.5018 0.0
O65 O 0.2588 0.80185 0.44106 0.0
C66 C 0.11606 0.75088 0.45991 0.0
Zn67 Zn 0.26988 0.74497 0.482 0.0
C68 C 0.28651 0.7822 0.41225 0.0
O69 O 0.29677 0.75614 0.42054 0.0
C70 C 0.21465 0.75494 0.57244 0.0
O71 O 0.37184 0.75884 0.50579 0.0
O72 O 0.33072 0.80413 0.52604 0.0
N73 N 0.30678 0.70242 0.46164 0.0
C74 C 0.33822 0.68228 0.48282 0.0
C75 C 0.32766 0.6621 0.41651 0.0
N76 N 0.30047 0.6898 0.42043 0.0
N77 N 0.35137 0.65674 0.45527 0.0
C78 C 0.16011 0.85366 0.50034 0.0
C79 C 0.17082 0.87435 0.56641 0.0
N80 N 0.19199 0.83382 0.52187 0.0
N81 N 0.19844 0.84675 0.56292 0.0
N82 N 0.14677 0.87934 0.52751 0.0
H83 H 0.12893 0.82335 0.44283 0.0
H84 H 0.18278 0.85419 0.43335 0.0
H85 H 0.08991 0.85998 0.4477 0.0
C86 C 0.13878 0.84732 0.45343 0.0
C87 C 0.35944 0.68815 0.52976 0.0
H88 H 0.40807 0.67526 0.53519 0.0
H89 H 0.31529 0.6811 0.54957 0.0
H90 H 0.36968 0.71206 0.54077 0.0
O91 O 0.24278 0.73496 0.5442 0.0
O92 O 0.20104 0.78032 0.56263 0.0
C93 C 0.38201 0.7856 0.52365 0.0
O94 O 0.12738 0.7776 0.47745 0.0
O95 O 0.16661 0.73198 0.45796 0.0
Zn96 Zn 0.72171 0.28939 0.49935 0.0
O97 O 0.74947 0.30049 0.43762 0.0
C98 C 0.61148 0.24803 0.45666 0.0
Zn99 Zn 0.76532 0.24355 0.47851 0.0
C100 C 0.77988 0.28112 0.40945 0.0
O101 O 0.79369 0.25561 0.41863 0.0
C102 C 0.70752 0.25091 0.56774 0.0
O103 O 0.86591 0.25821 0.50407 0.0
O104 O 0.82346 0.30327 0.52416 0.0
N105 N 0.80476 0.20155 0.45769 0.0
C106 C 0.83752 0.18175 0.47891 0.0
C107 C 0.82756 0.16143 0.41261 0.0
N108 N 0.79879 0.18886 0.41649 0.0
N109 N 0.85188 0.15632 0.45139 0.0
C110 C 0.6494 0.35133 0.49922 0.0
C111 C 0.65779 0.37118 0.5658 0.0
N112 N 0.68192 0.33139 0.52031 0.0
N113 N 0.68687 0.3438 0.56168 0.0
N114 N 0.63419 0.37654 0.52701 0.0
H115 H 0.62077 0.32152 0.44065 0.0
H116 H 0.67296 0.35327 0.43275 0.0
H117 H 0.57966 0.35783 0.44654 0.0
C118 C 0.62914 0.34551 0.45211 0.0
C119 C 0.85865 0.1879 0.52588 0.0
H120 H 0.86726 0.2119 0.53696 0.0
H121 H 0.9082 0.1756 0.5314 0.0
H122 H 0.81515 0.18045 0.54577 0.0
O123 O 0.73584 0.23194 0.53829 0.0
O124 O 0.69542 0.2771 0.56041 0.0
C125 C 0.87517 0.28494 0.52232 0.0
O126 O 0.62069 0.27473 0.475 0.0
O127 O 0.66379 0.22992 0.45343 0.0
H128 H 0.6853 0.62739 0.02257 0.0
H129 H 0.63529 0.57995 0.03501 0.0
H130 H 0.51319 0.57428 0.91663 0.0
H131 H 0.56124 0.62232 0.9051 0.0
H132 H 0.43312 0.55847 0.98038 0.0
H133 H 0.66762 0.53425 0.92098 0.0
H134 H 0.79892 0.53834 0.91708 0.0
H135 H 0.81783 0.51412 0.04407 0.0
H136 H 0.6865 0.51028 0.04898 0.0
H137 H 0.33759 0.40679 0.95767 0.0
H138 H 0.38919 0.45382 0.94506 0.0
H139 H 0.51478 0.45801 0.06189 0.0
H140 H 0.46563 0.41015 0.07332 0.0
H141 H 0.59331 0.47468 -0.00076 0.0
H142 H 0.35949 0.49894 0.05903 0.0
H143 H 0.22821 0.49502 0.06351 0.0
H144 H 0.20795 0.51943 0.93671 0.0
H145 H 0.33923 0.52311 0.93123 0.0
C146 C 0.64653 0.61637 -0.00019 0.0
C147 C 0.62587 0.62883 0.96336 0.0
C148 C 0.61881 0.58903 0.00655 0.0
C149 C 0.57082 0.57341 0.97657 0.0
C150 C 0.54997 0.58592 0.94025 0.0
C151 C 0.57758 0.61326 0.93358 0.0
C152 C 0.54255 0.54397 0.98282 0.0
C153 C 0.46815 0.54003 0.98395 0.0
C154 C 0.58821 0.52009 0.98848 0.0
C155 C 0.66719 0.52227 0.98551 0.0
C156 C 0.69974 0.53002 0.94821 0.0
C157 C 0.77417 0.53225 0.9458 0.0
C158 C 0.81668 0.52657 0.98035 0.0
C159 C 0.78483 0.51856 0.01735 0.0
C160 C 0.71041 0.51633 0.01996 0.0
C161 C 0.37766 0.41729 0.97995 0.0
C162 C 0.39893 0.40444 0.01593 0.0
C163 C 0.40623 0.44447 0.97317 0.0
C164 C 0.45544 0.45966 0.00276 0.0
C165 C 0.47704 0.44673 0.03856 0.0
C166 C 0.44878 0.41949 0.04518 0.0
C167 C 0.48383 0.48915 -0.00324 0.0
C168 C 0.55825 0.49311 -0.00431 0.0
C169 C 0.43819 0.51308 -0.00875 0.0
C170 C 0.35922 0.51102 -0.00544 0.0
C171 C 0.32706 0.50326 0.03198 0.0
C172 C 0.25265 0.50112 0.03471 0.0
C173 C 0.20977 0.5069 0.00037 0.0
C174 C 0.24123 0.51492 0.96326 0.0
C175 C 0.31563 0.51706 0.96034 0.0
H176 H 0.15217 0.50523 0.00256 0.0
H177 H 0.87429 0.52831 0.97842 0.0
H178 H 0.45012 0.62307 0.40719 0.0
H179 H 0.498 0.57507 0.41959 0.0
H180 H 0.36472 0.57942 0.53377 0.0
H181 H 0.31759 0.6275 0.52149 0.0
H182 H 0.49401 0.56025 0.5499 0.0
H183 H 0.32183 0.53514 0.43598 0.0
H184 H 0.2656 0.5372 0.36502 0.0
H185 H 0.46015 0.50563 0.29956 0.0
H186 H 0.51787 0.50376 0.37018 0.0
H187 H 0.53331 0.40907 0.57496 0.0
H188 H 0.48301 0.45676 0.56291 0.0
H189 H 0.61701 0.45418 0.44936 0.0
H190 H 0.66671 0.40648 0.46135 0.0
H191 H 0.4858 0.47226 0.43324 0.0
H192 H 0.65798 0.49786 0.54771 0.0
H193 H 0.71336 0.49567 0.61887 0.0
H194 H 0.51734 0.52613 0.68352 0.0
H195 H 0.46048 0.52813 0.61268 0.0
C196 C 0.43152 0.61374 0.435 0.0
C197 C 0.38121 0.62915 0.4638 0.0
C198 C 0.45852 0.5863 0.44198 0.0
C199 C 0.43445 0.57342 0.4774 0.0
C200 C 0.38442 0.58894 0.50636 0.0
C201 C 0.35785 0.61649 0.49953 0.0
C202 C 0.46121 0.54377 0.48421 0.0
C203 C 0.49129 0.54093 0.52457 0.0
C204 C 0.45908 0.51862 0.45091 0.0
C205 C 0.42436 0.51958 0.40839 0.0
C206 C 0.35278 0.52884 0.40646 0.0
C207 C 0.32062 0.52994 0.3663 0.0
C208 C 0.35934 0.52162 0.32781 0.0
C209 C 0.43025 0.5121 0.3294 0.0
C210 C 0.4627 0.51099 0.36948 0.0
C211 C 0.55153 0.41871 0.54735 0.0
C212 C 0.60283 0.4039 0.51865 0.0
C213 C 0.52312 0.44596 0.54056 0.0
C214 C 0.54667 0.45924 0.50541 0.0
C215 C 0.59765 0.44432 0.47653 0.0
C216 C 0.62568 0.41698 0.4832 0.0
C217 C 0.51876 0.48877 0.49888 0.0
C218 C 0.48844 0.49158 0.45857 0.0
C219 C 0.52054 0.51388 0.53225 0.0
C220 C 0.5548 0.51287 0.57487 0.0
C221 C 0.62655 0.50389 0.57709 0.0
C222 C 0.65822 0.50271 0.61737 0.0
C223 C 0.61884 0.51068 0.65569 0.0
C224 C 0.54775 0.51993 0.65381 0.0
C225 C 0.5158 0.52111 0.61361 0.0
H226 H 0.64345 0.50975 0.68684 0.0
H227 H 0.33434 0.52248 0.29675 0.0
H228 H 0.16373 0.13004 0.02381 0.0
H229 H 0.11043 0.08314 0.03559 0.0
H230 H 0.9948 0.07794 0.91493 0.0
H231 H 0.04605 0.12562 0.90407 0.0
H232 H 0.91085 0.06186 0.97698 0.0
H233 H 0.14701 0.03735 0.9216 0.0
H234 H 0.27846 0.04129 0.91926 0.0
H235 H 0.29261 1.01769 0.04685 0.0
H236 H 0.1611 1.014 0.05019 0.0
H237 H 0.81857 0.90915 0.95531 0.0
H238 H 0.86928 0.95643 0.94272 0.0
H239 H 0.98604 0.96338 0.0632 0.0
H240 H 0.93727 0.91549 0.07495 0.0
H241 H 0.06911 0.97842 0.00015 0.0
H242 H 0.83252 1.00323 0.05553 0.0
H243 H 0.70106 0.99924 0.05757 0.0
H244 H 0.68776 0.02209 0.9295 0.0
H245 H 0.81929 0.02583 0.92646 0.0
C246 C 0.12544 0.11935 0.00046 0.0
C247 C 0.10765 0.13183 0.96353 0.0
C248 C 0.0959 0.09227 0.00681 0.0
C249 C 0.04903 0.07685 0.97595 0.0
C250 C 0.03072 0.08942 0.93923 0.0
C251 C 0.06013 0.11656 0.93295 0.0
C252 C 0.01995 0.04743 0.98161 0.0
C253 C 0.94549 0.04349 0.98147 0.0
C254 C 0.06505 0.0236 0.98831 0.0
C255 C 0.14416 0.02568 0.98631 0.0
C256 C 0.17811 0.03322 0.94929 0.0
C257 C 0.25264 0.03537 0.94776 0.0
C258 C 0.29385 0.02982 0.98293 0.0
C259 C 0.26062 0.02202 0.01966 0.0
C260 C 0.18609 0.01987 0.02137 0.0
C261 C 0.85632 0.92043 0.97854 0.0
C262 C 0.87533 0.90836 0.01563 0.0
C263 C 0.88443 0.94768 0.97169 0.0
C264 C 0.93115 0.96359 0.00218 0.0
C265 C 0.95026 0.9515 0.03918 0.0
C266 C 0.92225 0.92425 0.04597 0.0
C267 C 0.96001 0.99288 -0.0043 0.0
C268 C 0.03447 0.99678 -0.00436 0.0
C269 C 0.9149 1.01665 0.98877 0.0
C270 C 0.8358 1.01452 -0.0094 0.0
C271 C 0.8016 1.00718 0.02766 0.0
C272 C 0.72707 1.005 0.02903 0.0
C273 C 0.6861 1.01033 -0.00636 0.0
C274 C 0.71957 0.01793 0.95686 0.0
C275 C 0.79411 0.0201 0.95531 0.0
H276 H 0.6284 1.00863 -0.00524 0.0
H277 H 0.35154 0.03149 0.98168 0.0
H278 H 0.82272 0.12732 0.51864 0.0
H279 H 0.87477 0.08034 0.53174 0.0
H280 H 0.0019 0.07574 0.41504 0.0
H281 H 0.9496 0.12289 0.40202 0.0
H282 H 0.94239 0.02346 0.41921 0.0
H283 H 0.07502 0.09523 0.51724 0.0
H284 H 0.09253 0.13754 0.57643 0.0
H285 H 0.98516 0.09012 0.66582 0.0
H286 H 0.96583 0.04772 0.607 0.0
H287 H 0.17667 0.90782 0.45983 0.0
H288 H 0.12576 0.95492 0.44628 0.0
H289 H -0.00166 0.96047 0.56302 0.0
H290 H 0.04961 0.91328 0.57653 0.0
H291 H 0.0588 1.01235 0.55854 0.0
H292 H 0.92562 0.94069 0.46058 0.0
H293 H 0.90922 0.89811 0.40167 0.0
H294 H 0.01775 0.9452 0.31231 0.0
H295 H 0.03599 0.98787 0.37087 0.0
C296 C 0.86297 0.11663 0.4964 0.0
C297 C 0.8837 0.1291 0.45995 0.0
C298 C 0.89239 0.08969 0.50372 0.0
C299 C 0.94321 0.07471 0.47477 0.0
C300 C 0.96307 0.08693 0.43794 0.0
C301 C 0.93341 0.11383 0.43056 0.0
C302 C 0.97448 0.046 0.48237 0.0
C303 C 0.96875 0.02113 0.44946 0.0
C304 C 0.00735 0.04276 0.52224 0.0
C305 C 0.01844 0.06837 0.55758 0.0
C306 C 0.05454 0.09392 0.54941 0.0
C307 C 0.06489 0.11791 0.58292 0.0
C308 C 0.03999 0.1165 0.62484 0.0
C309 C 0.00444 0.09116 0.63332 0.0
C310 C 0.99378 0.06715 0.59992 0.0
C311 C 0.13666 0.91878 0.48201 0.0
C312 C 0.11558 0.90658 0.51863 0.0
C313 C 0.10787 0.94578 0.47442 0.0
C314 C 0.05727 0.96105 0.50325 0.0
C315 C 0.03702 0.94906 0.54021 0.0
C316 C 0.06609 0.92214 0.54788 0.0
C317 C 0.02658 0.9898 0.49543 0.0
C318 C 0.03244 1.01468 0.5283 0.0
C319 C 0.99379 0.99304 0.45554 0.0
C320 C 0.98273 0.9674 0.42025 0.0
C321 C 0.94652 0.94188 0.42846 0.0
C322 C 0.93682 0.91774 0.39511 0.0
C323 C 0.96245 0.91895 0.35329 0.0
C324 C 0.99793 0.94429 0.34473 0.0
C325 C 0.00796 0.96847 0.37799 0.0
H326 H 0.95467 0.90029 0.32748 0.0
H327 H 0.04841 0.13501 0.65081 0.0
H328 H 0.56772 0.19216 0.42133 0.0
H329 H 0.47826 0.18041 0.36416 0.0
H330 H 0.41609 0.27263 0.38088 0.0
H331 H 0.50342 0.28443 0.43885 0.0
H332 H 0.30624 0.23276 0.34188 0.0
H333 H 0.56475 0.2568 0.32119 0.0
H334 H 0.68969 0.2463 0.33881 0.0
H335 H 0.66031 0.15403 0.28742 0.0
H336 H 0.53467 0.16402 0.26966 0.0
H337 H 0.39347 0.28083 0.12558 0.0
H338 H 0.42482 0.2695 0.19719 0.0
H339 H 0.27359 0.19734 0.18087 0.0
H340 H 0.24212 0.20843 0.10901 0.0
H341 H 0.4789 0.21584 0.21876 0.0
H342 H 0.20112 0.20004 0.2888 0.0
H343 H 0.07509 0.21315 0.27749 0.0
H344 H 0.14213 0.29247 0.23149 0.0
H345 H 0.26838 0.28008 0.24319 0.0
C346 C 0.53284 0.20971 0.41415 0.0
C347 C 0.54422 0.23938 0.4334 0.0
C348 C 0.48133 0.20291 0.38171 0.0
C349 C 0.44213 0.22581 0.3676 0.0
C350 C 0.4461 0.25466 0.39119 0.0
C351 C 0.49676 0.26143 0.42406 0.0
C352 C 0.41514 0.22205 0.32253 0.0
C353 C 0.34329 0.22833 0.31473 0.0
C354 C 0.46393 0.21674 0.28729 0.0
C355 C 0.54074 0.21113 0.2941 0.0
C356 C 0.58526 0.23434 0.31331 0.0
C357 C 0.65602 0.22846 0.32354 0.0
C358 C 0.68298 0.19952 0.31445 0.0
C359 C 0.6393 0.17642 0.29462 0.0
C360 C 0.5684 0.18218 0.28428 0.0
C361 C 0.36703 0.2625 0.13714 0.0
C362 C 0.31548 0.24546 0.11165 0.0
C363 C 0.38515 0.25599 0.17792 0.0
C364 C 0.35133 0.23264 0.19414 0.0
C365 C 0.30002 0.21549 0.16882 0.0
C366 C 0.2824 0.22179 0.12776 0.0
C367 C 0.36987 0.22677 0.23791 0.0
C368 C 0.44073 0.21898 0.24543 0.0
C369 C 0.31992 0.23076 0.27264 0.0
C370 C 0.24421 0.23889 0.26632 0.0
C371 C 0.1889 0.22032 0.2764 0.0
C372 C 0.11744 0.22763 0.26994 0.0
C373 C 0.10062 0.25356 0.25361 0.0
C374 C 0.15523 0.27232 0.24395 0.0
C375 C 0.22676 0.26514 0.25045 0.0
H376 H 0.04528 0.25914 0.24854 0.0
H377 H 0.7378 0.19505 0.3225 0.0
H378 H 0.56527 0.83933 0.05817 0.0
H379 H 0.47524 0.85027 0.1157 0.0
H380 H 0.43632 0.75645 0.10891 0.0
H381 H 0.52327 0.7455 0.05031 0.0
H382 H 0.31802 0.78598 0.1336 0.0
H383 H 0.57218 0.79533 0.17852 0.0
H384 H 0.6921 0.81771 0.17909 0.0
H385 H 0.60151 0.90446 0.2183 0.0
H386 H 0.48079 0.88254 0.21825 0.0
H387 H 0.31677 0.74335 0.3383 0.0
H388 H 0.33868 0.75492 0.26563 0.0
H389 H 0.31656 0.84844 0.31505 0.0
H390 H 0.29388 0.83707 0.38803 0.0
H391 H 0.4408 0.83373 0.26788 0.0
H392 H 0.19197 0.82269 0.242 0.0
H393 H 0.07121 0.80112 0.24239 0.0
H394 H 0.14914 0.71888 0.17062 0.0
H395 H 0.27007 0.74027 0.16867 0.0
C396 C 0.53583 0.82111 0.06802 0.0
C397 C 0.55244 0.79152 0.05038 0.0
C398 C 0.48462 0.82739 0.10103 0.0
C399 C 0.45074 0.80414 0.11758 0.0
C400 C 0.46211 0.77478 0.09694 0.0
C401 C 0.51221 0.76853 0.06346 0.0
C402 C 0.41218 0.80949 0.15982 0.0
C403 C 0.34462 0.79657 0.16294 0.0
C404 C 0.4455 0.82425 0.1981 0.0
C405 C 0.51769 0.83739 0.19784 0.0
C406 C 0.57791 0.81919 0.18703 0.0
C407 C 0.64598 0.83178 0.18729 0.0
C408 C 0.6545 0.86248 0.19838 0.0
C409 C 0.59486 0.88069 0.20955 0.0
C410 C 0.52662 0.86821 0.20952 0.0
C411 C 0.31664 0.76639 0.33378 0.0
C412 C 0.30383 0.78931 0.3689 0.0
C413 C 0.32798 0.77293 0.29212 0.0
C414 C 0.32766 0.80249 0.28491 0.0
C415 C 0.31586 0.82547 0.31994 0.0
C416 C 0.30354 0.81894 0.36159 0.0
C417 C 0.34839 0.80907 0.24173 0.0
C418 C 0.41279 0.82413 0.23848 0.0
C419 C 0.31204 0.7964 0.20354 0.0
C420 C 0.24009 0.78304 0.20539 0.0
C421 C 0.18342 0.79996 0.22646 0.0
C422 C 0.11486 0.78783 0.22675 0.0
C423 C 0.1026 0.75857 0.20687 0.0
C424 C 0.15873 0.74152 0.18611 0.0
C425 C 0.22717 0.75372 0.18505 0.0
H426 H 0.04957 0.74916 0.20745 0.0
H427 H 0.70733 0.87215 0.19849 0.0
H428 H 0.69186 0.8361 0.8857 0.0
H429 H 0.66104 0.84641 0.81324 0.0
H430 H 0.65769 0.75242 0.76423 0.0
H431 H 0.6874 0.74186 0.83658 0.0
H432 H 0.73216 0.78912 0.70951 0.0
H433 H 0.50637 0.78149 0.78597 0.0
H434 H 0.41997 0.79497 0.84596 0.0
H435 H 0.42242 0.88569 0.82516 0.0
H436 H 0.5094 0.87274 0.76524 0.0
H437 H 0.48975 0.74887 0.54096 0.0
H438 H 0.5774 0.75993 0.5987 0.0
H439 H 0.51281 0.85205 0.61954 0.0
H440 H 0.42348 0.84098 0.56226 0.0
H441 H 0.48954 0.82872 0.68888 0.0
H442 H 0.68991 0.8319 0.59781 0.0
H443 H 0.77159 0.81709 0.53582 0.0
H444 H 0.81726 0.73514 0.5812 0.0
H445 H 0.73502 0.74919 0.64313 0.0
C446 C 0.68474 0.81765 0.85944 0.0
C447 C 0.69146 0.78816 0.86676 0.0
C448 C 0.66741 0.82359 0.81817 0.0
C449 C 0.65757 0.80015 0.78362 0.0
C450 C 0.66569 0.77075 0.79059 0.0
C451 C 0.68192 0.76477 0.83195 0.0
C452 C 0.6342 0.806 0.74072 0.0
C453 C 0.67924 0.7978 0.70465 0.0
C454 C 0.56624 0.81833 0.73511 0.0
C455 C 0.51526 0.82626 0.7717 0.0
C456 C 0.4892 0.80438 0.79459 0.0
C457 C 0.43998 0.81191 0.82848 0.0
C458 C 0.41613 0.84122 0.83958 0.0
C459 C 0.44129 0.86304 0.81671 0.0
C460 C 0.49049 0.85562 0.78277 0.0
C461 C 0.49591 0.77171 0.55666 0.0
C462 C 0.4485 0.79391 0.5479 0.0
C463 C 0.54662 0.77808 0.58956 0.0
C464 C 0.5513 0.80681 0.61371 0.0
C465 C 0.50974 0.82971 0.60145 0.0
C466 C 0.45862 0.82331 0.56876 0.0
C467 C 0.58661 0.81105 0.6567 0.0
C468 C 0.54362 0.82103 0.69324 0.0
C469 C 0.65644 0.80034 0.6625 0.0
C470 C 0.70592 0.7916 0.62515 0.0
C471 C 0.7169 0.81061 0.59444 0.0
C472 C 0.76342 0.80236 0.55931 0.0
C473 C 0.79956 0.77519 0.55455 0.0
C474 C 0.78927 0.7562 0.58494 0.0
C475 C 0.74279 0.76433 0.62013 0.0
H476 H 0.83557 0.76885 0.52734 0.0
H477 H 0.37779 0.84697 0.86569 0.0
H478 H 0.67833 0.28822 0.64342 0.0
H479 H 0.65888 0.2748 0.7153 0.0
H480 H 0.68335 0.18209 0.66143 0.0
H481 H 0.7036 0.1953 0.58932 0.0
H482 H 0.55723 0.19635 0.70911 0.0
H483 H 0.80813 0.20552 0.7361 0.0
H484 H 0.92906 0.22717 0.73733 0.0
H485 H 0.84993 0.30871 0.81054 0.0
H486 H 0.72893 0.2872 0.811 0.0
H487 H 0.42542 0.1921 0.91819 0.0
H488 H 0.51466 0.17897 0.86059 0.0
H489 H 0.56987 0.27156 0.86927 0.0
H490 H 0.48434 0.28451 0.92797 0.0
H491 H 0.68205 0.24035 0.8446 0.0
H492 H 0.42795 0.23546 0.79684 0.0
H493 H 0.30575 0.21495 0.79439 0.0
H494 H 0.38965 0.12682 0.75718 0.0
H495 H 0.51245 0.14688 0.75885 0.0
C496 C 0.67956 0.26498 0.64683 0.0
C497 C 0.69213 0.24281 0.61071 0.0
C498 C 0.66968 0.25738 0.688 0.0
C499 C 0.67125 0.2275 0.69368 0.0
C500 C 0.68318 0.20528 0.6577 0.0
C501 C 0.69409 0.21288 0.61656 0.0
C502 C 0.65076 0.21976 0.73617 0.0
C503 C 0.58563 0.20508 0.73878 0.0
C504 C 0.68761 0.23136 0.77465 0.0
C505 C 0.75952 0.24479 0.77342 0.0
C506 C 0.81649 0.22811 0.75231 0.0
C507 C 0.88511 0.24029 0.75294 0.0
C508 C 0.89707 0.26937 0.77369 0.0
C509 C 0.84058 0.2862 0.79439 0.0
C510 C 0.77211 0.27394 0.79458 0.0
C511 C 0.45823 0.2095 0.90866 0.0
C512 C 0.4468 0.23941 0.92692 0.0
C513 C 0.5089 0.202 0.87558 0.0
C514 C 0.54729 0.22438 0.8596 0.0
C515 C 0.54066 0.25386 0.88076 0.0
C516 C 0.49127 0.26129 0.91431 0.0
C517 C 0.5864 0.2184 0.8176 0.0
C518 C 0.65501 0.23049 0.815 0.0
C519 C 0.55247 0.20462 0.77893 0.0
C520 C 0.47909 0.19257 0.77854 0.0
C521 C 0.42022 0.2117 0.78838 0.0
C522 C 0.35092 0.20018 0.78709 0.0
C523 C 0.33991 0.16961 0.77605 0.0
C524 C 0.39824 0.15049 0.76591 0.0
C525 C 0.46766 0.16191 0.76689 0.0
H526 H 0.28617 0.16076 0.77513 0.0
H527 H 0.95012 0.27883 0.77384 0.0
H528 H 0.81516 0.70387 0.10009 0.0
H529 H 0.84136 0.69844 0.17553 0.0
H530 H 0.81454 0.79309 0.21489 0.0
H531 H 0.79551 0.79874 0.13974 0.0
H532 H 0.92741 0.77915 0.24551 0.0
H533 H 0.69433 0.73686 0.24304 0.0
H534 H 0.59618 0.70302 0.21559 0.0
H535 H 0.72397 0.62802 0.23519 0.0
H536 H 0.82337 0.6614 0.26219 0.0
H537 H 0.99597 0.7851 0.46028 0.0
H538 H 0.90474 0.77987 0.40379 0.0
H539 H 0.99374 0.69512 0.34704 0.0
H540 H 0.08504 0.69996 0.40364 0.0
H541 H 0.83727 0.7036 0.32995 0.0
H542 H 0.07316 0.74788 0.31703 0.0
H543 H 0.17132 0.78229 0.33932 0.0
H544 H 0.02746 0.85644 0.34826 0.0
H545 H 0.92727 0.82212 0.32584 0.0
C546 C 0.81507 0.72341 0.12503 0.0
C547 C 0.804 0.75176 0.11414 0.0
C548 C 0.82889 0.72027 0.1682 0.0
C549 C 0.82919 0.74532 0.20117 0.0
C550 C 0.81507 0.7734 0.19019 0.0
C551 C 0.80412 0.77663 0.14715 0.0
C552 C 0.85253 0.74329 0.24609 0.0
C553 C 0.90564 0.76311 0.26417 0.0
C554 C 0.8263 0.72181 0.27031 0.0
C555 C 0.76656 0.70164 0.25431 0.0
C556 C 0.70173 0.71314 0.24121 0.0
C557 C 0.64583 0.69404 0.22577 0.0
C558 C 0.65389 0.66338 0.22355 0.0
C559 C 0.71783 0.65177 0.23689 0.0
C560 C 0.77395 0.67078 0.25232 0.0
C561 C 0.99448 0.76477 0.43688 0.0
C562 C 0.04899 0.74335 0.43561 0.0
C563 C 0.94187 0.76172 0.4048 0.0
C564 C 0.94345 0.73736 0.37092 0.0
C565 C 0.99169 0.71406 0.37297 0.0
C566 C 0.04427 0.71701 0.4052 0.0
C567 C 0.90979 0.74001 0.32887 0.0
C568 C 0.85633 0.72012 0.3113 0.0
C569 C 0.93407 0.76185 0.30503 0.0
C570 C 0.99285 0.78247 0.32044 0.0
C571 C 0.06219 0.77148 0.32447 0.0
C572 C 0.11831 0.79103 0.33696 0.0
C573 C 0.10602 0.82163 0.34529 0.0
C574 C 0.03699 0.83274 0.34165 0.0
C575 C 0.98046 0.81326 0.32903 0.0
H576 H 0.14993 0.83674 0.35435 0.0
H577 H 0.61055 0.64863 0.21158 0.0
H578 H 0.71987 0.32324 0.36707 0.0
H579 H 0.74173 0.33023 0.29178 0.0
H580 H 0.89938 0.25998 0.27801 0.0
H581 H 0.87612 0.25236 0.35218 0.0
H582 H 0.84865 0.34669 0.25067 0.0
H583 H 0.90978 0.22119 0.18982 0.0
H584 H 0.85602 0.17225 0.19321 0.0
H585 H 0.65009 0.21334 0.21922 0.0
H586 H 0.70301 0.26253 0.21742 0.0
H587 H 0.12393 0.32713 0.10309 0.0
H588 H 0.0296 0.33389 0.1571 0.0
H589 H 0.89036 0.27764 0.0689 0.0
H590 H 0.98817 0.26872 0.01589 0.0
H591 H 0.88315 0.25875 0.13602 0.0
H592 H 0.85228 0.35611 0.11375 0.0
H593 H 0.8809 0.40651 0.10029 0.0
H594 H 0.98383 0.42588 0.22465 0.0
H595 H 0.95689 0.37547 0.23866 0.0
C596 C 0.75944 0.30947 0.34796 0.0
C597 C 0.79643 0.28732 0.3655 0.0
C598 C 0.77149 0.31332 0.30488 0.0
C599 C 0.82086 0.29514 0.27881 0.0
C600 C 0.85914 0.2736 0.29686 0.0
C601 C 0.84651 0.26951 0.33952 0.0
C602 C 0.83637 0.29932 0.2335 0.0
C603 C 0.85541 0.32761 0.22525 0.0
C604 C 0.84107 0.2748 0.1995 0.0
C605 C 0.81036 0.24549 0.20358 0.0
C606 C 0.85313 0.21975 0.19659 0.0
C607 C 0.82287 0.192 0.19845 0.0
C608 C 0.74973 0.18969 0.20661 0.0
C609 C 0.70684 0.21517 0.21335 0.0
C610 C 0.73705 0.24302 0.21235 0.0
C611 C 0.07258 0.31684 0.09469 0.0
C612 C 0.06337 0.29723 0.05548 0.0
C613 C 0.018 0.321 0.12558 0.0
C614 C 0.95193 0.30659 0.11726 0.0
C615 C 0.94082 0.2889 0.0764 0.0
C616 C 0.99651 0.28388 0.04601 0.0
C617 C 0.90059 0.30596 0.15369 0.0
C618 C 0.87466 0.27824 0.1605 0.0
C619 C 0.88599 0.33138 0.18524 0.0
C620 C 0.90252 0.36189 0.17723 0.0
C621 C 0.88137 0.37103 0.13816 0.0
C622 C 0.89728 0.39964 0.13044 0.0
C623 C 0.93415 0.41938 0.16159 0.0
C624 C 0.95515 0.41057 0.20057 0.0
C625 C 0.93939 0.38199 0.20847 0.0
H626 H 0.94644 0.44151 0.15554 0.0
H627 H 0.72625 0.16816 0.20761 0.0
H628 H 0.99715 0.252 0.52354 0.0
H629 H 0.08738 0.25857 0.58068 0.0
H630 H 0.99145 0.34217 0.6365 0.0
H631 H 0.90153 0.3361 0.57908 0.0
H632 H 0.14513 0.33741 0.65458 0.0
H633 H 0.9189 0.28662 0.66624 0.0
H634 H 0.82628 0.24993 0.6412 0.0
H635 H 0.98057 0.1795 0.63291 0.0
H636 H 0.07513 0.21606 0.65787 0.0
H637 H 0.17922 0.33457 0.88383 0.0
H638 H 0.14725 0.34048 0.80929 0.0
H639 H 0.19209 0.24744 0.76569 0.0
H640 H 0.21758 0.24117 0.84004 0.0
H641 H 0.07321 0.25822 0.73763 0.0
H642 H 0.29799 0.30852 0.739 0.0
H643 H 0.38923 0.34565 0.76693 0.0
H644 H 0.2436 0.41609 0.75155 0.0
H645 H 0.15108 0.37938 0.72407 0.0
C646 C 0.99687 0.27237 0.54691 0.0
C647 C 0.94105 0.29314 0.54753 0.0
C648 C 0.0488 0.27617 0.57941 0.0
C649 C 0.04507 0.30057 0.61319 0.0
C650 C 0.99513 0.32319 0.6107 0.0
C651 C 0.94338 0.31953 0.57799 0.0
C652 C 0.07973 0.29876 0.65527 0.0
C653 C 0.12991 0.32015 0.67294 0.0
C654 C 0.06001 0.2761 0.67888 0.0
C655 C 0.00401 0.25405 0.66341 0.0
C656 C 0.93328 0.26334 0.65858 0.0
C657 C 0.88037 0.24253 0.64449 0.0
C658 C 0.89723 0.21232 0.63544 0.0
C659 C 0.96752 0.20289 0.6401 0.0
C660 C 0.02085 0.22364 0.65424 0.0
C661 C 0.1823 0.31553 0.85811 0.0
C662 C 0.19995 0.28734 0.86755 0.0
C663 C 0.16497 0.31895 0.81547 0.0
C664 C 0.16772 0.29443 0.78162 0.0
C665 C 0.18896 0.26667 0.79111 0.0
C666 C 0.20362 0.26309 0.83363 0.0
C667 C 0.14104 0.29642 0.73733 0.0
C668 C 0.09079 0.27518 0.7193 0.0
C669 C 0.16169 0.31905 0.71361 0.0
C670 C 0.21738 0.34118 0.7298 0.0
C671 C 0.28523 0.33193 0.74184 0.0
C672 C 0.33722 0.3529 0.75756 0.0
C673 C 0.32217 0.38321 0.7611 0.0
C674 C 0.25516 0.39261 0.74881 0.0
C675 C 0.20296 0.37172 0.73311 0.0
H676 H 0.36247 0.39941 0.7733 0.0
H677 H 0.85581 0.19623 0.62502 0.0
H678 H 0.12187 0.78427 0.63157 0.0
H679 H 0.10701 0.77859 0.70738 0.0
H680 H 0.26775 0.70951 0.69173 0.0
H681 H 0.28107 0.71453 0.61504 0.0
H682 H 0.17056 0.69384 0.73927 0.0
H683 H 0.3053 0.77789 0.75116 0.0
H684 H 0.35251 0.82575 0.7372 0.0
H685 H 0.15959 0.86958 0.78824 0.0
H686 H 0.11001 0.82182 0.80123 0.0
H687 H 0.01659 0.77763 0.96737 0.0
H688 H 0.11808 0.77009 0.91675 0.0
H689 H 0.99343 0.70621 0.83025 0.0
H690 H 0.89632 0.71165 0.88214 0.0
H691 H 0.13368 0.78481 0.84806 0.0
H692 H 0.07127 0.66291 0.75532 0.0
H693 H 0.05278 0.61339 0.77512 0.0
H694 H 0.15252 0.64191 0.89875 0.0
H695 H 0.17279 0.6915 0.87952 0.0
C696 C 0.1538 0.76776 0.64419 0.0
C697 C 0.2024 0.74976 0.61736 0.0
C698 C 0.14591 0.76473 0.68769 0.0
C699 C 0.18765 0.74415 0.70567 0.0
C700 C 0.2353 0.72567 0.67871 0.0
C701 C 0.24251 0.72843 0.63483 0.0
C702 C 0.17822 0.74152 0.75221 0.0
C703 C 0.16318 0.71362 0.76335 0.0
C704 C 0.17475 0.76703 0.78472 0.0
C705 C 0.20377 0.79611 0.77712 0.0
C706 C 0.27255 0.79766 0.75909 0.0
C707 C 0.29976 0.8248 0.7513 0.0
C708 C 0.25916 0.85071 0.76193 0.0
C709 C 0.19106 0.84949 0.78014 0.0
C710 C 0.16332 0.82235 0.7877 0.0
C711 C 0.01242 0.7612 0.93819 0.0
C712 C 0.94888 0.74513 0.9287 0.0
C713 C 0.07022 0.75698 0.90911 0.0
C714 C 0.06452 0.7373 0.86945 0.0
C715 C 0.00145 0.72062 0.86104 0.0
C716 C 0.94506 0.72402 0.89068 0.0
C717 C 0.1181 0.73732 0.83388 0.0
C718 C 0.14265 0.76477 0.82478 0.0
C719 C 0.13522 0.7111 0.80447 0.0
C720 C 0.1236 0.68105 0.81591 0.0
C721 C 0.08999 0.6586 0.78656 0.0
C722 C 0.07896 0.63051 0.79775 0.0
C723 C 0.10143 0.62451 0.83817 0.0
C724 C 0.13502 0.6466 0.86748 0.0
C725 C 0.1462 0.67473 0.85647 0.0
H726 H 0.0928 0.60275 0.84676 0.0
H727 H 0.28049 0.87173 0.75606 0.0
loop_
_geom_bond_atom_site_label_1
_geom_bond_atom_site_label_2
_geom_bond_distance
_geom_bond_site_symmetry_2
_ccdc_geom_bond_type
Zn0 O1 2.055 1_554 S
Zn0 O8 2.046 . S
Zn0 N16 2.036 . S
Zn0 O28 2.053 . S
Zn0 O30 2.066 1_554 S
O1 Zn0 2.055 1_556 S
O1 C4 1.259 . S
C2 O30 1.256 . S
C2 O31 1.244 . S
Zn3 O5 2.046 . S
Zn3 O7 2.055 1_556 S
Zn3 N9 2.036 . S
Zn3 O27 2.066 1_556 S
Zn3 O31 2.053 . S
C4 O1 1.259 . S
C4 O5 1.254 . S
O5 Zn3 2.046 . S
O5 C4 1.254 . S
C6 O27 1.256 . S
C6 O28 1.244 . S
O7 Zn3 2.055 1_554 S
O7 C29 1.259 . S
O8 Zn0 2.046 . S
O8 C29 1.254 . S
N9 Zn3 2.036 . S
N9 C10 1.298 1_556 S
N9 N12 1.398 . S
C10 N9 1.298 1_554 S
C10 N13 1.367 1_554 S
C10 C23 1.481 . S
C11 N12 1.299 . S
C11 N13 1.379 . S
N12 N9 1.398 . S
N12 C11 1.299 . S
N13 C10 1.367 1_556 S
N13 C11 1.379 . S
C14 N16 1.298 1_556 S
C14 N18 1.367 1_556 S
C14 C22 1.481 . S
C15 N17 1.299 . S
C15 N18 1.379 . S
N16 Zn0 2.036 . S
N16 C14 1.298 1_554 S
N16 N17 1.398 . S
N17 C15 1.299 . S
N17 N16 1.398 . S
N18 C14 1.367 1_554 S
N18 C15 1.379 . S
H19 C22 0.980 . S
H20 C22 0.981 . S
H21 C22 0.981 . S
C22 C14 1.481 . S
C22 H19 0.980 . S
C22 H20 0.981 . S
C22 H21 0.981 . S
C23 C10 1.481 . S
C23 H24 0.980 . S
C23 H25 0.981 . S
C23 H26 0.981 . S
H24 C23 0.980 . S
H25 C23 0.981 . S
H26 C23 0.981 . S
O27 Zn3 2.066 1_554 S
O27 C6 1.256 . S
O28 Zn0 2.053 . S
O28 C6 1.244 . S
C29 O7 1.259 . S
C29 O8 1.254 . S
O30 Zn0 2.066 1_556 S
O30 C2 1.256 . S
O31 C2 1.244 . S
O31 Zn3 2.053 . S
Zn32 O33 2.055 1_554 S
Zn32 O40 2.046 . S
Zn32 N48 2.036 . S
Zn32 O60 2.053 . S
Zn32 O62 2.066 1_554 S
O33 Zn32 2.055 1_556 S
O33 C36 1.259 . S
C34 O62 1.256 . S
C34 O63 1.244 . S
Zn35 O37 2.046 . S
Zn35 O39 2.055 1_556 S
Zn35 N41 2.036 . S
Zn35 O59 2.066 1_556 S
Zn35 O63 2.053 . S
C36 O33 1.259 . S
C36 O37 1.254 . S
O37 Zn35 2.046 . S
O37 C36 1.254 . S
C38 O59 1.256 . S
C38 O60 1.244 . S
O39 Zn35 2.055 1_554 S
O39 C61 1.259 . S
O40 Zn32 2.046 . S
O40 C61 1.254 . S
N41 Zn35 2.036 . S
N41 C42 1.298 1_556 S
N41 N44 1.398 . S
C42 N41 1.298 1_554 S
C42 N45 1.367 1_554 S
C42 C55 1.481 . S
C43 N44 1.299 . S
C43 N45 1.379 . S
N44 N41 1.398 . S
N44 C43 1.299 . S
N45 C42 1.367 1_556 S
N45 C43 1.379 . S
C46 N48 1.298 1_556 S
C46 N50 1.367 1_556 S
C46 C54 1.481 . S
C47 N49 1.299 . S
C47 N50 1.379 . S
N48 Zn32 2.036 . S
N48 C46 1.298 1_554 S
N48 N49 1.398 . S
N49 C47 1.299 . S
N49 N48 1.398 . S
N50 C46 1.367 1_554 S
N50 C47 1.379 . S
H51 C54 0.980 . S
H52 C54 0.981 . S
H53 C54 0.981 . S
C54 C46 1.481 . S
C54 H51 0.980 . S
C54 H52 0.981 . S
C54 H53 0.981 . S
C55 C42 1.481 . S
C55 H56 0.980 . S
C55 H57 0.981 . S
C55 H58 0.981 . S
H56 C55 0.980 . S
H57 C55 0.981 . S
H58 C55 0.981 . S
O59 Zn35 2.066 1_554 S
O59 C38 1.256 . S
O60 Zn32 2.053 . S
O60 C38 1.244 . S
C61 O39 1.259 . S
C61 O40 1.254 . S
O62 Zn32 2.066 1_556 S
O62 C34 1.256 . S
O63 C34 1.244 . S
O63 Zn35 2.053 . S
Zn64 O65 2.055 . S
Zn64 O72 2.046 . S
Zn64 N80 2.036 . S
Zn64 O92 2.053 . S
Zn64 O94 2.066 . S
O65 Zn64 2.055 . S
O65 C68 1.259 . S
C66 O94 1.256 . S
C66 O95 1.244 . S
Zn67 O69 2.046 . S
Zn67 O71 2.055 . S
Zn67 N73 2.036 . S
Zn67 O91 2.066 . S
Zn67 O95 2.053 . S
C68 O65 1.259 . S
C68 O69 1.254 . S
O69 Zn67 2.046 . S
O69 C68 1.254 . S
C70 O91 1.256 . S
C70 O92 1.244 . S
O71 Zn67 2.055 . S
O71 C93 1.259 . S
O72 Zn64 2.046 . S
O72 C93 1.254 . S
N73 Zn67 2.036 . S
N73 C74 1.298 . S
N73 N76 1.398 . S
C74 N73 1.298 . S
C74 N77 1.367 . S
C74 C87 1.481 . S
C75 N76 1.299 . S
C75 N77 1.379 . S
N76 N73 1.398 . S
N76 C75 1.299 . S
N77 C74 1.367 . S
N77 C75 1.379 . S
C78 N80 1.298 . S
C78 N82 1.367 . S
C78 C86 1.481 . S
C79 N81 1.299 . S
C79 N82 1.379 . S
N80 Zn64 2.036 . S
N80 C78 1.298 . S
N80 N81 1.398 . S
N81 C79 1.299 . S
N81 N80 1.398 . S
N82 C78 1.367 . S
N82 C79 1.379 . S
H83 C86 0.980 . S
H84 C86 0.981 . S
H85 C86 0.981 . S
C86 C78 1.481 . S
C86 H83 0.980 . S
C86 H84 0.981 . S
C86 H85 0.981 . S
C87 C74 1.481 . S
C87 H88 0.980 . S
C87 H89 0.981 . S
C87 H90 0.981 . S
H88 C87 0.980 . S
H89 C87 0.981 . S
H90 C87 0.981 . S
O91 Zn67 2.066 . S
O91 C70 1.256 . S
O92 Zn64 2.053 . S
O92 C70 1.244 . S
C93 O71 1.259 . S
C93 O72 1.254 . S
O94 Zn64 2.066 . S
O94 C66 1.256 . S
O95 C66 1.244 . S
O95 Zn67 2.053 . S
Zn96 O97 2.055 . S
Zn96 O104 2.046 . S
Zn96 N112 2.036 . S
Zn96 O124 2.053 . S
Zn96 O126 2.066 . S
O97 Zn96 2.055 . S
O97 C100 1.259 . S
C98 O126 1.256 . S
C98 O127 1.244 . S
Zn99 O101 2.046 . S
Zn99 O103 2.055 . S
Zn99 N105 2.036 . S
Zn99 O123 2.066 . S
Zn99 O127 2.053 . S
C100 O97 1.259 . S
C100 O101 1.254 . S
O101 Zn99 2.046 . S
O101 C100 1.254 . S
C102 O123 1.256 . S
C102 O124 1.244 . S
O103 Zn99 2.055 . S
O103 C125 1.259 . S
O104 Zn96 2.046 . S
O104 C125 1.254 . S
N105 Zn99 2.036 . S
N105 C106 1.298 . S
N105 N108 1.398 . S
C106 N105 1.298 . S
C106 N109 1.367 . S
C106 C119 1.481 . S
C107 N108 1.299 . S
C107 N109 1.379 . S
N108 N105 1.398 . S
N108 C107 1.299 . S
N109 C106 1.367 . S
N109 C107 1.379 . S
C110 N112 1.298 . S
C110 N114 1.367 . S
C110 C118 1.481 . S
C111 N113 1.299 . S
C111 N114 1.379 . S
N112 Zn96 2.036 . S
N112 C110 1.298 . S
N112 N113 1.398 . S
N113 C111 1.299 . S
N113 N112 1.398 . S
N114 C110 1.367 . S
N114 C111 1.379 . S
H115 C118 0.980 . S
H116 C118 0.981 . S
H117 C118 0.981 . S
C118 C110 1.481 . S
C118 H115 0.980 . S
C118 H116 0.981 . S
C118 H117 0.981 . S
C119 C106 1.481 . S
C119 H120 0.980 . S
C119 H121 0.981 . S
C119 H122 0.981 . S
H120 C119 0.980 . S
H121 C119 0.981 . S
H122 C119 0.981 . S
O123 Zn99 2.066 . S
O123 C102 1.256 . S
O124 Zn96 2.053 . S
O124 C102 1.244 . S
C125 O103 1.259 . S
C125 O104 1.254 . S
O126 Zn96 2.066 . S
O126 C98 1.256 . S
O127 C98 1.244 . S
O127 Zn99 2.053 . S
H128 C146 0.951 . S
H129 C148 0.951 . S
H130 C150 0.950 . S
H131 C151 0.950 . S
H132 C153 0.950 . S
H133 C156 0.950 . S
H134 C157 0.950 . S
H135 C159 0.950 . S
H136 C160 0.950 . S
H137 C161 0.951 . S
H138 C163 0.951 . S
H139 C165 0.950 . S
H140 C166 0.950 . S
H141 C168 0.950 . S
H142 C171 0.950 . S
H143 C172 0.950 . S
H144 C174 0.950 . S
H145 C175 0.950 . S
C146 H128 0.951 . S
C146 C147 1.366 1_554 S
C146 C148 1.388 . S
C147 C146 1.366 1_556 S
C147 C151 1.384 . S
C148 H129 0.951 . S
C148 C146 1.388 . S
C148 C149 1.347 1_554 S
C149 C148 1.347 1_556 S
C149 C150 1.436 . S
C149 C152 1.496 . S
C150 H130 0.950 . S
C150 C149 1.436 . S
C150 C151 1.374 . S
C151 H131 0.950 . S
C151 C147 1.384 . S
C151 C150 1.374 . S
C152 C149 1.496 . S
C152 C153 1.373 . S
C152 C154 1.389 1_556 S
C153 H132 0.950 . S
C153 C152 1.373 . S
C153 C169 1.377 . S
C154 C152 1.389 1_554 S
C154 C155 1.524 . S
C154 C168 1.377 . S
C155 C154 1.524 . S
C155 C156 1.397 1_554 S
C155 C160 1.363 . S
C156 H133 0.950 . S
C156 C155 1.397 1_556 S
C156 C157 1.334 . S
C157 H134 0.950 . S
C157 C156 1.334 . S
C157 C158 1.287 1_556 S
C158 C157 1.287 1_554 S
C158 C159 1.524 . S
C158 H177 0.913 . S
C159 H135 0.950 . S
C159 C158 1.524 . S
C159 C160 1.415 . S
C160 H136 0.950 . S
C160 C155 1.363 . S
C160 C159 1.415 . S
C161 H137 0.951 . S
C161 C162 1.343 1_556 S
C161 C163 1.388 . S
C162 C161 1.343 1_554 S
C162 C166 1.404 . S
C163 H138 0.951 . S
C163 C161 1.388 . S
C163 C164 1.366 1_556 S
C164 C163 1.366 1_554 S
C164 C165 1.414 . S
C164 C167 1.499 . S
C165 H139 0.950 . S
C165 C164 1.414 . S
C165 C166 1.374 . S
C166 H140 0.950 . S
C166 C162 1.404 . S
C166 C165 1.374 . S
C167 C164 1.499 . S
C167 C168 1.373 . S
C167 C169 1.389 1_554 S
C168 H141 0.950 . S
C168 C154 1.377 . S
C168 C167 1.373 . S
C169 C153 1.377 . S
C169 C167 1.389 1_556 S
C169 C170 1.524 . S
C170 C169 1.524 . S
C170 C171 1.397 1_556 S
C170 C175 1.363 . S
C171 H142 0.950 . S
C171 C170 1.397 1_554 S
C171 C172 1.334 . S
C172 H143 0.950 . S
C172 C171 1.334 . S
C172 C173 1.287 1_554 S
C173 C172 1.287 1_556 S
C173 C174 1.524 . S
C173 H176 0.999 . S
C174 H144 0.950 . S
C174 C173 1.524 . S
C174 C175 1.415 . S
C175 H145 0.950 . S
C175 C170 1.363 . S
C175 C174 1.415 . S
H176 C173 0.999 . S
H177 C158 0.913 . S
H178 C196 0.951 . S
H179 C198 0.951 . S
H180 C200 0.950 . S
H181 C201 0.950 . S
H182 C203 0.950 . S
H183 C206 0.950 . S
H184 C207 0.950 . S
H185 C209 0.950 . S
H186 C210 0.950 . S
H187 C211 0.951 . S
H188 C213 0.951 . S
H189 C215 0.950 . S
H190 C216 0.950 . S
H191 C218 0.950 . S
H192 C221 0.950 . S
H193 C222 0.950 . S
H194 C224 0.950 . S
H195 C225 0.950 . S
C196 H178 0.951 . S
C196 C197 1.366 . S
C196 C198 1.388 . S
C197 C196 1.366 . S
C197 C201 1.385 . S
C198 H179 0.951 . S
C198 C196 1.388 . S
C198 C199 1.366 . S
C199 C198 1.366 . S
C199 C200 1.414 . S
C199 C202 1.499 . S
C200 H180 0.950 . S
C200 C199 1.414 . S
C200 C201 1.374 . S
C201 H181 0.950 . S
C201 C197 1.385 . S
C201 C200 1.374 . S
C202 C199 1.499 . S
C202 C203 1.373 . S
C202 C204 1.389 . S
C203 H182 0.950 . S
C203 C202 1.373 . S
C203 C219 1.377 . S
C204 C202 1.389 . S
C204 C205 1.524 . S
C204 C218 1.377 . S
C205 C204 1.524 . S
C205 C206 1.397 . S
C205 C210 1.363 . S
C206 H183 0.950 . S
C206 C205 1.397 . S
C206 C207 1.334 . S
C207 H184 0.950 . S
C207 C206 1.334 . S
C207 C208 1.287 . S
C208 C207 1.287 . S
C208 C209 1.524 . S
C208 H227 0.913 . S
C209 H185 0.950 . S
C209 C208 1.524 . S
C209 C210 1.415 . S
C210 H186 0.950 . S
C210 C205 1.363 . S
C210 C209 1.415 . S
C211 H187 0.951 . S
C211 C212 1.366 . S
C211 C213 1.388 . S
C212 C211 1.366 . S
C212 C216 1.385 . S
C213 H188 0.951 . S
C213 C211 1.388 . S
C213 C214 1.366 . S
C214 C213 1.366 . S
C214 C215 1.414 . S
C214 C217 1.499 . S
C215 H189 0.950 . S
C215 C214 1.414 . S
C215 C216 1.374 . S
C216 H190 0.950 . S
C216 C212 1.385 . S
C216 C215 1.374 . S
C217 C214 1.499 . S
C217 C218 1.373 . S
C217 C219 1.389 . S
C218 H191 0.950 . S
C218 C204 1.377 . S
C218 C217 1.373 . S
C219 C203 1.377 . S
C219 C217 1.389 . S
C219 C220 1.524 . S
C220 C219 1.524 . S
C220 C221 1.397 . S
C220 C225 1.363 . S
C221 H192 0.950 . S
C221 C220 1.397 . S
C221 C222 1.334 . S
C222 H193 0.950 . S
C222 C221 1.334 . S
C222 C223 1.287 . S
C223 C222 1.287 . S
C223 C224 1.524 . S
C223 H226 0.999 . S
C224 H194 0.950 . S
C224 C223 1.524 . S
C224 C225 1.415 . S
C225 H195 0.950 . S
C225 C220 1.363 . S
C225 C224 1.415 . S
H226 C223 0.999 . S
H227 C208 0.913 . S
H228 C246 0.951 . S
H229 C248 0.951 . S
H230 C250 0.950 . S
H231 C251 0.950 . S
H232 C253 0.950 . S
H233 C256 0.950 . S
H234 C257 0.950 . S
H235 C259 0.950 . S
H236 C260 0.950 . S
H237 C261 0.951 . S
H238 C263 0.951 . S
H239 C265 0.950 . S
H240 C266 0.950 . S
H241 C268 0.950 . S
H242 C271 0.950 . S
H243 C272 0.950 1_565 S
H244 C274 0.950 . S
H245 C275 0.950 . S
C246 H228 0.951 . S
C246 C247 1.366 1_554 S
C246 C248 1.388 . S
C247 C246 1.366 1_556 S
C247 C251 1.384 . S
C248 H229 0.951 . S
C248 C246 1.388 . S
C248 C249 1.366 1_554 S
C249 C248 1.366 1_556 S
C249 C250 1.414 . S
C249 C252 1.499 . S
C250 H230 0.950 . S
C250 C249 1.414 . S
C250 C251 1.374 . S
C251 H231 0.950 . S
C251 C247 1.384 . S
C251 C250 1.374 . S
C252 C249 1.499 . S
C252 C253 1.373 1_455 S
C252 C254 1.387 1_556 S
C253 H232 0.950 . S
C253 C252 1.373 1_655 S
C253 C269 1.375 1_556 S
C254 C252 1.387 1_554 S
C254 C255 1.524 1_544 S
C254 C268 1.379 1_545 S
C255 C254 1.524 1_566 S
C255 C256 1.397 1_565 S
C255 C260 1.363 1_556 S
C256 H233 0.950 . S
C256 C255 1.397 1_545 S
C256 C257 1.334 . S
C257 H234 0.950 . S
C257 C256 1.334 . S
C257 C258 1.287 1_545 S
C258 C257 1.287 1_565 S
C258 C259 1.524 1_556 S
C258 H277 0.913 . S
C259 H235 0.950 . S
C259 C258 1.524 1_554 S
C259 C260 1.415 . S
C260 H236 0.950 . S
C260 C255 1.363 1_554 S
C260 C259 1.415 . S
C261 H237 0.951 . S
C261 C262 1.346 1_556 S
C261 C263 1.388 . S
C262 C261 1.346 1_554 S
C262 C266 1.402 . S
C263 H238 0.951 . S
C263 C261 1.388 . S
C263 C264 1.366 1_556 S
C264 C263 1.366 1_554 S
C264 C265 1.414 . S
C264 C267 1.499 . S
C265 H239 0.950 . S
C265 C264 1.414 . S
C265 C266 1.374 . S
C266 H240 0.950 . S
C266 C262 1.402 . S
C266 C265 1.374 . S
C267 C264 1.499 . S
C267 C268 1.373 1_655 S
C267 C269 1.391 1_565 S
C268 H241 0.950 . S
C268 C254 1.379 1_565 S
C268 C267 1.373 1_455 S
C269 C253 1.375 1_554 S
C269 C267 1.391 1_545 S
C269 C270 1.525 . S
C270 C269 1.525 . S
C270 C271 1.397 1_545 S
C270 C275 1.363 1_554 S
C271 H242 0.950 . S
C271 C270 1.397 1_565 S
C271 C272 1.334 1_565 S
C272 H243 0.950 1_545 S
C272 C271 1.334 1_545 S
C272 C273 1.287 . S
C273 C272 1.287 . S
C273 C274 1.524 1_554 S
C273 H276 0.999 . S
C274 H244 0.950 . S
C274 C273 1.524 1_556 S
C274 C275 1.415 . S
C275 H245 0.950 . S
C275 C270 1.363 1_556 S
C275 C274 1.415 . S
H276 C273 0.999 . S
H277 C258 0.913 . S
H278 C296 0.951 . S
H279 C298 0.951 . S
H280 C300 0.950 . S
H281 C301 0.950 . S
H282 C303 0.950 . S
H283 C306 0.950 . S
H284 C307 0.950 . S
H285 C309 0.950 . S
H286 C310 0.950 . S
H287 C311 0.951 . S
H288 C313 0.951 . S
H289 C315 0.950 . S
H290 C316 0.950 . S
H291 C318 0.950 . S
H292 C321 0.950 . S
H293 C322 0.950 . S
H294 C324 0.950 . S
H295 C325 0.950 . S
C296 H278 0.951 . S
C296 C297 1.366 . S
C296 C298 1.388 . S
C297 C296 1.366 . S
C297 C301 1.385 . S
C298 H279 0.951 . S
C298 C296 1.388 . S
C298 C299 1.366 . S
C299 C298 1.366 . S
C299 C300 1.414 . S
C299 C302 1.499 . S
C300 H280 0.950 . S
C300 C299 1.414 . S
C300 C301 1.374 . S
C301 H281 0.950 . S
C301 C297 1.385 . S
C301 C300 1.374 . S
C302 C299 1.499 . S
C302 C303 1.373 . S
C302 C304 1.389 . S
C303 H282 0.950 . S
C303 C302 1.373 . S
C303 C319 1.377 1_545 S
C304 C302 1.389 . S
C304 C305 1.524 . S
C304 C318 1.377 1_645 S
C305 C304 1.524 . S
C305 C306 1.397 1_655 S
C305 C310 1.363 . S
C306 H283 0.950 . S
C306 C305 1.397 1_455 S
C306 C307 1.334 . S
C307 H284 0.950 . S
C307 C306 1.334 . S
C307 C308 1.287 . S
C308 C307 1.287 . S
C308 C309 1.524 1_455 S
C308 H327 0.913 . S
C309 H285 0.950 . S
C309 C308 1.524 1_655 S
C309 C310 1.415 . S
C310 H286 0.950 . S
C310 C305 1.363 . S
C310 C309 1.415 . S
C311 H287 0.951 . S
C311 C312 1.366 . S
C311 C313 1.388 . S
C312 C311 1.366 . S
C312 C316 1.385 . S
C313 H288 0.951 . S
C313 C311 1.388 . S
C313 C314 1.366 . S
C314 C313 1.366 . S
C314 C315 1.414 . S
C314 C317 1.499 . S
C315 H289 0.950 . S
C315 C314 1.414 . S
C315 C316 1.374 . S
C316 H290 0.950 . S
C316 C312 1.385 . S
C316 C315 1.374 . S
C317 C314 1.499 . S
C317 C318 1.373 . S
C317 C319 1.389 1_455 S
C318 H291 0.950 . S
C318 C304 1.377 1_465 S
C318 C317 1.373 . S
C319 C303 1.377 1_565 S
C319 C317 1.389 1_655 S
C319 C320 1.524 . S
C320 C319 1.524 . S
C320 C321 1.397 . S
C320 C325 1.363 . S
C321 H292 0.950 . S
C321 C320 1.397 . S
C321 C322 1.334 . S
C322 H293 0.950 . S
C322 C321 1.334 . S
C322 C323 1.287 . S
C323 C322 1.287 . S
C323 C324 1.524 . S
C323 H326 0.999 . S
C324 H294 0.950 . S
C324 C323 1.524 . S
C324 C325 1.415 . S
C325 H295 0.950 . S
C325 C320 1.363 . S
C325 C324 1.415 . S
H326 C323 0.999 . S
H327 C308 0.913 . S
H328 C346 0.951 . S
H329 C348 0.951 . S
H330 C350 0.950 . S
H331 C351 0.950 . S
H332 C353 0.950 . S
H333 C356 0.950 . S
H334 C357 0.950 . S
H335 C359 0.950 . S
H336 C360 0.950 . S
H337 C361 0.951 . S
H338 C363 0.951 . S
H339 C365 0.950 . S
H340 C366 0.950 . S
H341 C368 0.950 . S
H342 C371 0.950 . S
H343 C372 0.950 . S
H344 C374 0.950 . S
H345 C375 0.950 . S
C346 H328 0.951 . S
C346 C347 1.366 . S
C346 C348 1.388 . S
C347 C346 1.366 . S
C347 C351 1.385 . S
C348 H329 0.951 . S
C348 C346 1.388 . S
C348 C349 1.366 . S
C349 C348 1.366 . S
C349 C350 1.414 . S
C349 C352 1.499 . S
C350 H330 0.950 . S
C350 C349 1.414 . S
C350 C351 1.374 . S
C351 H331 0.950 . S
C351 C347 1.385 . S
C351 C350 1.374 . S
C352 C349 1.499 . S
C352 C353 1.373 . S
C352 C354 1.389 . S
C353 H332 0.950 . S
C353 C352 1.373 . S
C353 C369 1.377 . S
C354 C352 1.389 . S
C354 C355 1.524 . S
C354 C368 1.377 . S
C355 C354 1.524 . S
C355 C356 1.397 . S
C355 C360 1.363 . S
C356 H333 0.950 . S
C356 C355 1.397 . S
C356 C357 1.334 . S
C357 H334 0.950 . S
C357 C356 1.334 . S
C357 C358 1.287 . S
C358 C357 1.287 . S
C358 C359 1.524 . S
C358 H377 0.913 . S
C359 H335 0.950 . S
C359 C358 1.524 . S
C359 C360 1.415 . S
C360 H336 0.950 . S
C360 C355 1.363 . S
C360 C359 1.415 . S
C361 H337 0.951 . S
C361 C362 1.366 . S
C361 C363 1.388 . S
C362 C361 1.366 . S
C362 C366 1.385 . S
C363 H338 0.951 . S
C363 C361 1.388 . S
C363 C364 1.366 . S
C364 C363 1.366 . S
C364 C365 1.414 . S
C364 C367 1.499 . S
C365 H339 0.950 . S
C365 C364 1.414 . S
C365 C366 1.374 . S
C366 H340 0.950 . S
C366 C362 1.385 . S
C366 C365 1.374 . S
C367 C364 1.499 . S
C367 C368 1.373 . S
C367 C369 1.389 . S
C368 H341 0.950 . S
C368 C354 1.377 . S
C368 C367 1.373 . S
C369 C353 1.377 . S
C369 C367 1.389 . S
C369 C370 1.524 . S
C370 C369 1.524 . S
C370 C371 1.397 . S
C370 C375 1.363 . S
C371 H342 0.950 . S
C371 C370 1.397 . S
C371 C372 1.334 . S
C372 H343 0.950 . S
C372 C371 1.334 . S
C372 C373 1.287 . S
C373 C372 1.287 . S
C373 C374 1.524 . S
C373 H376 0.999 . S
C374 H344 0.950 . S
C374 C373 1.524 . S
C374 C375 1.415 . S
C375 H345 0.950 . S
C375 C370 1.363 . S
C375 C374 1.415 . S
H376 C373 0.999 . S
H377 C358 0.913 . S
H378 C396 0.951 . S
H379 C398 0.951 . S
H380 C400 0.950 . S
H381 C401 0.950 . S
H382 C403 0.950 . S
H383 C406 0.950 . S
H384 C407 0.950 . S
H385 C409 0.950 . S
H386 C410 0.950 . S
H387 C411 0.951 . S
H388 C413 0.951 . S
H389 C415 0.950 . S
H390 C416 0.950 . S
H391 C418 0.950 . S
H392 C421 0.950 . S
H393 C422 0.950 . S
H394 C424 0.950 . S
H395 C425 0.950 . S
C396 H378 0.951 . S
C396 C397 1.366 . S
C396 C398 1.388 . S
C397 C396 1.366 . S
C397 C401 1.385 . S
C398 H379 0.951 . S
C398 C396 1.388 . S
C398 C399 1.366 . S
C399 C398 1.366 . S
C399 C400 1.414 . S
C399 C402 1.499 . S
C400 H380 0.950 . S
C400 C399 1.414 . S
C400 C401 1.374 . S
C401 H381 0.950 . S
C401 C397 1.385 . S
C401 C400 1.374 . S
C402 C399 1.499 . S
C402 C403 1.373 . S
C402 C404 1.389 . S
C403 H382 0.950 . S
C403 C402 1.373 . S
C403 C419 1.377 . S
C404 C402 1.389 . S
C404 C405 1.524 . S
C404 C418 1.377 . S
C405 C404 1.524 . S
C405 C406 1.397 . S
C405 C410 1.363 . S
C406 H383 0.950 . S
C406 C405 1.397 . S
C406 C407 1.334 . S
C407 H384 0.950 . S
C407 C406 1.334 . S
C407 C408 1.287 . S
C408 C407 1.287 . S
C408 C409 1.524 . S
C408 H427 0.913 . S
C409 H385 0.950 . S
C409 C408 1.524 . S
C409 C410 1.415 . S
C410 H386 0.950 . S
C410 C405 1.363 . S
C410 C409 1.415 . S
C411 H387 0.951 . S
C411 C412 1.366 . S
C411 C413 1.388 . S
C412 C411 1.366 . S
C412 C416 1.385 . S
C413 H388 0.951 . S
C413 C411 1.388 . S
C413 C414 1.366 . S
C414 C413 1.366 . S
C414 C415 1.414 . S
C414 C417 1.499 . S
C415 H389 0.950 . S
C415 C414 1.414 . S
C415 C416 1.374 . S
C416 H390 0.950 . S
C416 C412 1.385 . S
C416 C415 1.374 . S
C417 C414 1.499 . S
C417 C418 1.373 . S
C417 C419 1.389 . S
C418 H391 0.950 . S
C418 C404 1.377 . S
C418 C417 1.373 . S
C419 C403 1.377 . S
C419 C417 1.389 . S
C419 C420 1.524 . S
C420 C419 1.524 . S
C420 C421 1.397 . S
C420 C425 1.363 . S
C421 H392 0.950 . S
C421 C420 1.397 . S
C421 C422 1.334 . S
C422 H393 0.950 . S
C422 C421 1.334 . S
C422 C423 1.287 . S
C423 C422 1.287 . S
C423 C424 1.524 . S
C423 H426 0.999 . S
C424 H394 0.950 . S
C424 C423 1.524 . S
C424 C425 1.415 . S
C425 H395 0.950 . S
C425 C420 1.363 . S
C425 C424 1.415 . S
H426 C423 0.999 . S
H427 C408 0.913 . S
H428 C446 0.951 . S
H429 C448 0.951 . S
H430 C450 0.950 . S
H431 C451 0.950 . S
H432 C453 0.950 . S
H433 C456 0.950 . S
H434 C457 0.950 . S
H435 C459 0.950 . S
H436 C460 0.950 . S
H437 C461 0.951 . S
H438 C463 0.951 . S
H439 C465 0.950 . S
H440 C466 0.950 . S
H441 C468 0.950 . S
H442 C471 0.950 . S
H443 C472 0.950 . S
H444 C474 0.950 . S
H445 C475 0.950 . S
C446 H428 0.951 . S
C446 C447 1.366 . S
C446 C448 1.388 . S
C447 C446 1.366 . S
C447 C451 1.385 . S
C448 H429 0.951 . S
C448 C446 1.388 . S
C448 C449 1.366 . S
C449 C448 1.366 . S
C449 C450 1.414 . S
C449 C452 1.499 . S
C450 H430 0.950 . S
C450 C449 1.414 . S
C450 C451 1.374 . S
C451 H431 0.950 . S
C451 C447 1.385 . S
C451 C450 1.374 . S
C452 C449 1.499 . S
C452 C453 1.373 . S
C452 C454 1.389 . S
C453 H432 0.950 . S
C453 C452 1.373 . S
C453 C469 1.377 . S
C454 C452 1.389 . S
C454 C455 1.524 . S
C454 C468 1.377 . S
C455 C454 1.524 . S
C455 C456 1.397 . S
C455 C460 1.363 . S
C456 H433 0.950 . S
C456 C455 1.397 . S
C456 C457 1.334 . S
C457 H434 0.950 . S
C457 C456 1.334 . S
C457 C458 1.287 . S
C458 C457 1.287 . S
C458 C459 1.524 . S
C458 H477 0.913 . S
C459 H435 0.950 . S
C459 C458 1.524 . S
C459 C460 1.415 . S
C460 H436 0.950 . S
C460 C455 1.363 . S
C460 C459 1.415 . S
C461 H437 0.951 . S
C461 C462 1.366 . S
C461 C463 1.388 . S
C462 C461 1.366 . S
C462 C466 1.385 . S
C463 H438 0.951 . S
C463 C461 1.388 . S
C463 C464 1.366 . S
C464 C463 1.366 . S
C464 C465 1.414 . S
C464 C467 1.499 . S
C465 H439 0.950 . S
C465 C464 1.414 . S
C465 C466 1.374 . S
C466 H440 0.950 . S
C466 C462 1.385 . S
C466 C465 1.374 . S
C467 C464 1.499 . S
C467 C468 1.373 . S
C467 C469 1.389 . S
C468 H441 0.950 . S
C468 C454 1.377 . S
C468 C467 1.373 . S
C469 C453 1.377 . S
C469 C467 1.389 . S
C469 C470 1.524 . S
C470 C469 1.524 . S
C470 C471 1.397 . S
C470 C475 1.363 . S
C471 H442 0.950 . S
C471 C470 1.397 . S
C471 C472 1.334 . S
C472 H443 0.950 . S
C472 C471 1.334 . S
C472 C473 1.287 . S
C473 C472 1.287 . S
C473 C474 1.524 . S
C473 H476 0.999 . S
C474 H444 0.950 . S
C474 C473 1.524 . S
C474 C475 1.415 . S
C475 H445 0.950 . S
C475 C470 1.363 . S
C475 C474 1.415 . S
H476 C473 0.999 . S
H477 C458 0.913 . S
H478 C496 0.951 . S
H479 C498 0.951 . S
H480 C500 0.950 . S
H481 C501 0.950 . S
H482 C503 0.950 . S
H483 C506 0.950 . S
H484 C507 0.950 . S
H485 C509 0.950 . S
H486 C510 0.950 . S
H487 C511 0.951 . S
H488 C513 0.951 . S
H489 C515 0.950 . S
H490 C516 0.950 . S
H491 C518 0.950 . S
H492 C521 0.950 . S
H493 C522 0.950 . S
H494 C524 0.950 . S
H495 C525 0.950 . S
C496 H478 0.951 . S
C496 C497 1.366 . S
C496 C498 1.388 . S
C497 C496 1.366 . S
C497 C501 1.385 . S
C498 H479 0.951 . S
C498 C496 1.388 . S
C498 C499 1.366 . S
C499 C498 1.366 . S
C499 C500 1.414 . S
C499 C502 1.499 . S
C500 H480 0.950 . S
C500 C499 1.414 . S
C500 C501 1.374 . S
C501 H481 0.950 . S
C501 C497 1.385 . S
C501 C500 1.374 . S
C502 C499 1.499 . S
C502 C503 1.373 . S
C502 C504 1.389 . S
C503 H482 0.950 . S
C503 C502 1.373 . S
C503 C519 1.377 . S
C504 C502 1.389 . S
C504 C505 1.524 . S
C504 C518 1.377 . S
C505 C504 1.524 . S
C505 C506 1.397 . S
C505 C510 1.363 . S
C506 H483 0.950 . S
C506 C505 1.397 . S
C506 C507 1.334 . S
C507 H484 0.950 . S
C507 C506 1.334 . S
C507 C508 1.287 . S
C508 C507 1.287 . S
C508 C509 1.524 . S
C508 H527 0.913 . S
C509 H485 0.950 . S
C509 C508 1.524 . S
C509 C510 1.415 . S
C510 H486 0.950 . S
C510 C505 1.363 . S
C510 C509 1.415 . S
C511 H487 0.951 . S
C511 C512 1.366 . S
C511 C513 1.388 . S
C512 C511 1.366 . S
C512 C516 1.385 . S
C513 H488 0.951 . S
C513 C511 1.388 . S
C513 C514 1.366 . S
C514 C513 1.366 . S
C514 C515 1.414 . S
C514 C517 1.499 . S
C515 H489 0.950 . S
C515 C514 1.414 . S
C515 C516 1.374 . S
C516 H490 0.950 . S
C516 C512 1.385 . S
C516 C515 1.374 . S
C517 C514 1.499 . S
C517 C518 1.373 . S
C517 C519 1.389 . S
C518 H491 0.950 . S
C518 C504 1.377 . S
C518 C517 1.373 . S
C519 C503 1.377 . S
C519 C517 1.389 . S
C519 C520 1.524 . S
C520 C519 1.524 . S
C520 C521 1.397 . S
C520 C525 1.363 . S
C521 H492 0.950 . S
C521 C520 1.397 . S
C521 C522 1.334 . S
C522 H493 0.950 . S
C522 C521 1.334 . S
C522 C523 1.287 . S
C523 C522 1.287 . S
C523 C524 1.524 . S
C523 H526 0.999 . S
C524 H494 0.950 . S
C524 C523 1.524 . S
C524 C525 1.415 . S
C525 H495 0.950 . S
C525 C520 1.363 . S
C525 C524 1.415 . S
H526 C523 0.999 . S
H527 C508 0.913 . S
H528 C546 0.951 . S
H529 C548 0.951 . S
H530 C550 0.950 . S
H531 C551 0.950 . S
H532 C553 0.950 . S
H533 C556 0.950 . S
H534 C557 0.950 . S
H535 C559 0.950 . S
H536 C560 0.950 1_455 S
H537 C561 0.951 . S
H538 C563 0.951 . S
H539 C565 0.950 . S
H540 C566 0.950 . S
H541 C568 0.950 . S
H542 C571 0.950 . S
H543 C572 0.950 . S
H544 C574 0.950 . S
H545 C575 0.950 . S
C546 H528 0.951 . S
C546 C547 1.366 . S
C546 C548 1.388 . S
C547 C546 1.366 . S
C547 C551 1.385 . S
C548 H529 0.951 . S
C548 C546 1.388 . S
C548 C549 1.366 . S
C549 C548 1.366 . S
C549 C550 1.414 . S
C549 C552 1.499 . S
C550 H530 0.950 . S
C550 C549 1.414 . S
C550 C551 1.374 . S
C551 H531 0.950 . S
C551 C547 1.385 . S
C551 C550 1.374 . S
C552 C549 1.499 . S
C552 C553 1.373 1_655 S
C552 C554 1.389 . S
C553 H532 0.950 . S
C553 C552 1.373 1_455 S
C553 C569 1.377 . S
C554 C552 1.389 . S
C554 C555 1.524 . S
C554 C568 1.377 1_655 S
C555 C554 1.524 . S
C555 C556 1.397 . S
C555 C560 1.363 . S
C556 H533 0.950 . S
C556 C555 1.397 . S
C556 C557 1.334 . S
C557 H534 0.950 . S
C557 C556 1.334 . S
C557 C558 1.287 . S
C558 C557 1.287 . S
C558 C559 1.524 . S
C558 H577 0.913 . S
C559 H535 0.950 . S
C559 C558 1.524 . S
C559 C560 1.415 . S
C560 H536 0.950 1_655 S
C560 C555 1.363 . S
C560 C559 1.415 . S
C561 H537 0.951 . S
C561 C562 1.366 . S
C561 C563 1.388 . S
C562 C561 1.366 . S
C562 C566 1.385 . S
C563 H538 0.951 . S
C563 C561 1.388 . S
C563 C564 1.366 . S
C564 C563 1.366 . S
C564 C565 1.414 . S
C564 C567 1.499 . S
C565 H539 0.950 . S
C565 C564 1.414 . S
C565 C566 1.374 . S
C566 H540 0.950 . S
C566 C562 1.385 . S
C566 C565 1.374 . S
C567 C564 1.499 . S
C567 C568 1.373 . S
C567 C569 1.389 . S
C568 H541 0.950 . S
C568 C554 1.377 1_455 S
C568 C567 1.373 . S
C569 C553 1.377 . S
C569 C567 1.389 . S
C569 C570 1.524 . S
C570 C569 1.524 . S
C570 C571 1.397 . S
C570 C575 1.363 . S
C571 H542 0.950 . S
C571 C570 1.397 . S
C571 C572 1.334 . S
C572 H543 0.950 . S
C572 C571 1.334 . S
C572 C573 1.287 . S
C573 C572 1.287 . S
C573 C574 1.524 . S
C573 H576 0.999 . S
C574 H544 0.950 . S
C574 C573 1.524 . S
C574 C575 1.415 . S
C575 H545 0.950 . S
C575 C570 1.363 . S
C575 C574 1.415 . S
H576 C573 0.999 . S
H577 C558 0.913 . S
H578 C596 0.951 . S
H579 C598 0.951 . S
H580 C600 0.950 1_455 S
H581 C601 0.950 . S
H582 C603 0.950 . S
H583 C606 0.950 . S
H584 C607 0.950 . S
H585 C609 0.950 . S
H586 C610 0.950 . S
H587 C611 0.951 . S
H588 C613 0.951 . S
H589 C615 0.950 1_655 S
H590 C616 0.950 . S
H591 C618 0.950 . S
H592 C621 0.950 . S
H593 C622 0.950 . S
H594 C624 0.950 . S
H595 C625 0.950 . S
C596 H578 0.951 . S
C596 C597 1.366 . S
C596 C598 1.388 . S
C597 C596 1.366 . S
C597 C601 1.385 . S
C598 H579 0.951 . S
C598 C596 1.388 . S
C598 C599 1.366 . S
C599 C598 1.366 . S
C599 C600 1.414 . S
C599 C602 1.499 . S
C600 H580 0.950 1_655 S
C600 C599 1.414 . S
C600 C601 1.374 . S
C601 H581 0.950 . S
C601 C597 1.385 . S
C601 C600 1.374 . S
C602 C599 1.499 . S
C602 C603 1.373 1_655 S
C602 C604 1.389 . S
C603 H582 0.950 . S
C603 C602 1.373 1_455 S
C603 C619 1.377 . S
C604 C602 1.389 . S
C604 C605 1.524 . S
C604 C618 1.377 . S
C605 C604 1.524 . S
C605 C606 1.397 . S
C605 C610 1.363 . S
C606 H583 0.950 . S
C606 C605 1.397 . S
C606 C607 1.334 . S
C607 H584 0.950 . S
C607 C606 1.334 . S
C607 C608 1.287 . S
C608 C607 1.287 . S
C608 C609 1.524 . S
C608 H627 0.913 . S
C609 H585 0.950 . S
C609 C608 1.524 . S
C609 C610 1.415 . S
C610 H586 0.950 . S
C610 C605 1.363 . S
C610 C609 1.415 . S
C611 H587 0.951 . S
C611 C612 1.366 . S
C611 C613 1.388 . S
C612 C611 1.366 . S
C612 C616 1.385 . S
C613 H588 0.951 . S
C613 C611 1.388 . S
C613 C614 1.366 . S
C614 C613 1.366 . S
C614 C615 1.414 . S
C614 C617 1.499 . S
C615 H589 0.950 1_455 S
C615 C614 1.414 . S
C615 C616 1.374 . S
C616 H590 0.950 . S
C616 C612 1.385 . S
C616 C615 1.374 . S
C617 C614 1.499 . S
C617 C618 1.373 1_455 S
C617 C619 1.389 . S
C618 H591 0.950 . S
C618 C604 1.377 . S
C618 C617 1.373 1_655 S
C619 C603 1.377 . S
C619 C617 1.389 . S
C619 C620 1.524 . S
C620 C619 1.524 . S
C620 C621 1.397 . S
C620 C625 1.363 . S
C621 H592 0.950 . S
C621 C620 1.397 . S
C621 C622 1.334 . S
C622 H593 0.950 . S
C622 C621 1.334 . S
C622 C623 1.287 . S
C623 C622 1.287 . S
C623 C624 1.524 . S
C623 H626 0.999 . S
C624 H594 0.950 . S
C624 C623 1.524 . S
C624 C625 1.415 . S
C625 H595 0.950 . S
C625 C620 1.363 . S
C625 C624 1.415 . S
H626 C623 0.999 . S
H627 C608 0.913 . S
H628 C646 0.951 . S
H629 C648 0.951 1_455 S
H630 C650 0.950 . S
H631 C651 0.950 . S
H632 C653 0.950 . S
H633 C656 0.950 . S
H634 C657 0.950 . S
H635 C659 0.950 . S
H636 C660 0.950 . S
H637 C661 0.951 . S
H638 C663 0.937 1_655 S
H639 C665 0.950 . S
H640 C666 0.950 . S
H641 C668 0.950 . S
H642 C671 0.950 . S
H643 C672 0.950 . S
H644 C674 0.950 . S
H645 C675 0.950 . S
C646 H628 0.951 . S
C646 C647 1.366 . S
C646 C648 1.388 . S
C647 C646 1.366 . S
C647 C651 1.385 . S
C648 H629 0.951 1_655 S
C648 C646 1.388 . S
C648 C649 1.366 . S
C649 C648 1.366 . S
C649 C650 1.414 . S
C649 C652 1.499 . S
C650 H630 0.950 . S
C650 C649 1.414 . S
C650 C651 1.374 . S
C651 H631 0.950 . S
C651 C647 1.385 . S
C651 C650 1.374 . S
C652 C649 1.499 . S
C652 C653 1.373 . S
C652 C654 1.389 1_655 S
C653 H632 0.950 . S
C653 C652 1.373 . S
C653 C669 1.377 1_655 S
C654 C652 1.389 1_455 S
C654 C655 1.524 . S
C654 C668 1.377 . S
C655 C654 1.524 . S
C655 C656 1.397 1_455 S
C655 C660 1.363 . S
C656 H633 0.950 . S
C656 C655 1.397 1_655 S
C656 C657 1.334 . S
C657 H634 0.950 . S
C657 C656 1.334 . S
C657 C658 1.288 1_655 S
C658 C657 1.288 1_455 S
C658 C659 1.522 . S
C658 H677 0.913 1_455 S
C659 H635 0.950 . S
C659 C658 1.522 . S
C659 C660 1.415 . S
C660 H636 0.950 . S
C660 C655 1.363 . S
C660 C659 1.415 . S
C661 H637 0.951 . S
C661 C662 1.366 . S
C661 C663 1.388 . S
C662 C661 1.366 . S
C662 C666 1.385 . S
C663 H638 0.937 1_455 S
C663 C661 1.388 . S
C663 C664 1.366 . S
C664 C663 1.366 . S
C664 C665 1.414 . S
C664 C667 1.499 . S
C665 H639 0.950 . S
C665 C664 1.414 . S
C665 C666 1.374 . S
C666 H640 0.950 . S
C666 C662 1.385 . S
C666 C665 1.374 . S
C667 C664 1.499 . S
C667 C668 1.373 . S
C667 C669 1.389 . S
C668 H641 0.950 . S
C668 C654 1.377 . S
C668 C667 1.373 . S
C669 C653 1.377 1_455 S
C669 C667 1.389 . S
C669 C670 1.524 . S
C670 C669 1.524 . S
C670 C671 1.397 . S
C670 C675 1.363 1_455 S
C671 H642 0.950 . S
C671 C670 1.397 . S
C671 C672 1.334 . S
C672 H643 0.950 . S
C672 C671 1.334 . S
C672 C673 1.287 . S
C673 C672 1.287 . S
C673 C674 1.524 1_455 S
C673 H676 0.999 . S
C674 H644 0.950 . S
C674 C673 1.524 1_655 S
C674 C675 1.415 . S
C675 H645 0.950 . S
C675 C670 1.363 1_655 S
C675 C674 1.415 . S
H676 C673 0.999 . S
H677 C658 0.913 1_655 S
H678 C696 0.951 . S
H679 C698 0.951 1_655 S
H680 C700 0.950 . S
H681 C701 0.950 . S
H682 C703 0.950 . S
H683 C706 0.950 . S
H684 C707 0.950 . S
H685 C709 0.950 . S
H686 C710 0.950 . S
H687 C711 0.951 . S
H688 C713 0.951 1_455 S
H689 C715 0.950 . S
H690 C716 0.950 . S
H691 C718 0.950 . S
H692 C721 0.950 . S
H693 C722 0.950 1_655 S
H694 C724 0.950 . S
H695 C725 0.950 . S
C696 H678 0.951 . S
C696 C697 1.366 . S
C696 C698 1.388 . S
C697 C696 1.366 . S
C697 C701 1.385 . S
C698 H679 0.951 1_455 S
C698 C696 1.388 . S
C698 C699 1.366 . S
C699 C698 1.366 . S
C699 C700 1.414 . S
C699 C702 1.499 . S
C700 H680 0.950 . S
C700 C699 1.414 . S
C700 C701 1.374 . S
C701 H681 0.950 . S
C701 C697 1.385 . S
C701 C700 1.374 . S
C702 C699 1.499 . S
C702 C703 1.373 . S
C702 C704 1.389 1_455 S
C703 H682 0.950 . S
C703 C702 1.373 . S
C703 C719 1.377 . S
C704 C702 1.389 1_655 S
C704 C705 1.524 . S
C704 C718 1.377 . S
C705 C704 1.524 . S
C705 C706 1.397 1_655 S
C705 C710 1.363 . S
C706 H683 0.950 . S
C706 C705 1.397 1_455 S
C706 C707 1.334 . S
C707 H684 0.950 . S
C707 C706 1.334 . S
C707 C708 1.287 1_455 S
C708 C707 1.287 1_655 S
C708 C709 1.524 . S
C708 H727 0.913 . S
C709 H685 0.950 . S
C709 C708 1.524 . S
C709 C710 1.415 . S
C710 H686 0.950 . S
C710 C705 1.363 . S
C710 C709 1.415 . S
C711 H687 0.951 . S
C711 C712 1.366 . S
C711 C713 1.388 . S
C712 C711 1.366 . S
C712 C716 1.385 . S
C713 H688 0.951 1_655 S
C713 C711 1.388 . S
C713 C714 1.366 . S
C714 C713 1.366 . S
C714 C715 1.414 . S
C714 C717 1.499 . S
C715 H689 0.950 . S
C715 C714 1.414 . S
C715 C716 1.374 . S
C716 H690 0.950 . S
C716 C712 1.385 . S
C716 C715 1.374 . S
C717 C714 1.499 . S
C717 C718 1.373 . S
C717 C719 1.389 1_655 S
C718 H691 0.950 . S
C718 C704 1.377 . S
C718 C717 1.373 . S
C719 C703 1.377 . S
C719 C717 1.389 1_455 S
C719 C720 1.524 . S
C720 C719 1.524 . S
C720 C721 1.397 1_455 S
C720 C725 1.363 . S
C721 H692 0.950 . S
C721 C720 1.397 1_655 S
C721 C722 1.334 1_655 S
C722 H693 0.950 1_455 S
C722 C721 1.334 1_455 S
C722 C723 1.287 . S
C723 C722 1.287 . S
C723 C724 1.524 . S
C723 H726 0.999 . S
C724 H694 0.950 . S
C724 C723 1.524 . S
C724 C725 1.415 . S
C725 H695 0.950 . S
C725 C720 1.363 . S
C725 C724 1.415 . S
H726 C723 0.999 . S
H727 C708 0.913 . S
C147 N45 1.590 . S
C162 N18 1.575 . S
C197 N77 1.566 . S
C212 N114 1.591 . S
C247 N13 1.590 . S
C262 N50 1.575 . S
C297 N109 1.566 . S
C312 N82 1.590 . S
C347 C98 0.800 . S
C362 C29 0.799 . S
C397 C38 0.800 . S
C412 C68 0.799 . S
C447 C34 0.825 . S
C462 C93 0.827 . S
C497 C102 0.825 . S
C512 C4 0.828 . S
C547 C61 0.801 . S
C562 C66 0.798 . S
C597 C100 0.801 . S
C612 C6 0.797 . S
C647 C125 0.825 . S
C662 C2 0.827 . S
C697 C70 0.825 . S
C712 C36 0.827 . S
