# Generated by pormake.
# Topology noy, (5)-cn, num edge types: 1
# Building blocks:
#     Node 0, Type 0, BuildingBlock: XOMCOT_clean_sbu_1, # of connection points: 5
#     Node 1, Type 0, BuildingBlock: XOMCOT_clean_sbu_1, # of connection points: 5
#     Node 2, Type 0, BuildingBlock: XOMCOT_clean_sbu_1, # of connection points: 5
#     Node 3, Type 0, BuildingBlock: XOMCOT_clean_sbu_1, # of connection points: 5
#     Node 4, Type 0, BuildingBlock: XOMCOT_clean_sbu_1, # of connection points: 5
#     Node 5, Type 0, BuildingBlock: XOMCOT_clean_sbu_1, # of connection points: 5
#     Node 6, Type 0, BuildingBlock: XOMCOT_clean_sbu_1, # of connection points: 5
#     Node 7, Type 0, BuildingBlock: XOMCOT_clean_sbu_1, # of connection points: 5
#     Edge 8, Type (0, 0), BuildingBlock: TEMPAE_clean_linker_10, # of connection points: 2
#     Edge 9, Type (0, 0), BuildingBlock: TEMPAE_clean_linker_10, # of connection points: 2
#     Edge 10, Type (0, 0), BuildingBlock: TEMPAE_clean_linker_10, # of connection points: 2
#     Edge 11, Type (0, 0), BuildingBlock: TEMPAE_clean_linker_10, # of connection points: 2
#     Edge 12, Type (0, 0), BuildingBlock: TEMPAE_clean_linker_10, # of connection points: 2
#     Edge 13, Type (0, 0), BuildingBlock: TEMPAE_clean_linker_10, # of connection points: 2
#     Edge 14, Type (0, 0), BuildingBlock: TEMPAE_clean_linker_10, # of connection points: 2
#     Edge 15, Type (0, 0), BuildingBlock: TEMPAE_clean_linker_10, # of connection points: 2
#     Edge 16, Type (0, 0), BuildingBlock: TEMPAE_clean_linker_10, # of connection points: 2
#     Edge 17, Type (0, 0), BuildingBlock: TEMPAE_clean_linker_10, # of connection points: 2
#     Edge 18, Type (0, 0), BuildingBlock: TEMPAE_clean_linker_10, # of connection points: 2
#     Edge 19, Type (0, 0), BuildingBlock: TEMPAE_clean_linker_10, # of connection points: 2
#     Edge 20, Type (0, 0), BuildingBlock: TEMPAE_clean_linker_10, # of connection points: 2
#     Edge 21, Type (0, 0), BuildingBlock: TEMPAE_clean_linker_10, # of connection points: 2
#     Edge 22, Type (0, 0), BuildingBlock: TEMPAE_clean_linker_10, # of connection points: 2
#     Edge 23, Type (0, 0), BuildingBlock: TEMPAE_clean_linker_10, # of connection points: 2
#     Edge 24, Type (0, 0), BuildingBlock: TEMPAE_clean_linker_10, # of connection points: 2
#     Edge 25, Type (0, 0), BuildingBlock: TEMPAE_clean_linker_10, # of connection points: 2
#     Edge 26, Type (0, 0), BuildingBlock: TEMPAE_clean_linker_10, # of connection points: 2
#     Edge 27, Type (0, 0), BuildingBlock: TEMPAE_clean_linker_10, # of connection points: 2
# Relax obj value: 0.152
# Max RMSD: 0.180
# Mean RMSD: 0.180
data_MOF--net-noy--node1-XOMCOT_clean_sbu_1--edge1-TEMPAE_clean_linker_10
_symmetry_space_group_name_H-M    P1
_symmetry_Int_Tables_number       1
_symmetry_cell_setting            triclinic
loop_
_symmetry_equiv_pos_as_xyz
'x, y, z'
_cell_length_a     50.228555
_cell_length_b     46.577876
_cell_length_c     20.520531
_cell_angle_alpha  90.079025
_cell_angle_beta   89.918745
_cell_angle_gamma 90.079289
loop_
_atom_site_label
_atom_site_type_symbol
_atom_site_fract_x
_atom_site_fract_y
_atom_site_fract_z
_atom_type_partial_charge
C0 C 0.33223 0.3859 0.19324 0.0
C1 C 0.33179 0.40385 0.14019 0.0
N2 N 0.317 0.42716 0.15498 0.0
N3 N 0.31786 0.39764 0.24177 0.0
C4 C 0.30868 0.42268 0.21706 0.0
H5 H 0.34331 0.36609 0.19727 0.0
Co6 Co 0.31622 0.38207 0.32551 0.0
C7 C 0.28161 0.4225 0.39774 0.0
O8 O 0.26614 0.401 0.4148 0.0
N9 N 0.31505 0.36616 0.41062 0.0
C10 C 0.32143 0.36134 0.51748 0.0
C11 C 0.32479 0.37906 0.4646 0.0
C12 C 0.30576 0.34053 0.43237 0.0
N13 N 0.30945 0.33706 0.49724 0.0
O14 O 0.28189 0.36592 0.30447 0.0
H15 H 0.33371 0.4002 0.46557 0.0
H16 H 0.29667 0.32449 0.40151 0.0
O17 O 0.30138 0.4178 0.36004 0.0
C18 C 0.28692 0.34145 0.27888 0.0
O19 O 0.31178 0.33262 0.27814 0.0
N20 N 0.35078 0.3951 0.34001 0.0
C21 C 0.40478 0.40681 0.32565 0.0
C22 C 0.38623 0.4293 0.3282 0.0
C23 C 0.3591 0.42295 0.3349 0.0
C24 C 0.36869 0.37323 0.34166 0.0
C25 C 0.3958 0.37861 0.33494 0.0
H26 H 0.34481 0.44016 0.33106 0.0
H27 H 0.36168 0.35128 0.34395 0.0
H28 H 0.29671 0.43763 0.24474 0.0
H29 H 0.34271 0.40044 0.0954 0.0
H30 H 0.32683 0.36627 0.5673 0.0
H31 H 0.39243 0.45133 0.32059 0.0
H32 H 0.40953 0.36069 0.33389 0.0
C33 C 0.669 0.64823 0.69397 0.0
C34 C 0.66978 0.63035 0.64076 0.0
N35 N 0.68572 0.60784 0.65449 0.0
N36 N 0.68429 0.63724 0.74155 0.0
C37 C 0.69434 0.6127 0.71613 0.0
H38 H 0.65717 0.66751 0.69875 0.0
Co39 Co 0.68627 0.65325 0.8248 0.0
C40 C 0.72175 0.61352 0.89646 0.0
O41 O 0.73699 0.6352 0.91361 0.0
N42 N 0.68774 0.66975 0.90925 0.0
C43 C 0.68233 0.67553 1.01622 0.0
C44 C 0.67908 0.65706 0.96451 0.0
C45 C 0.69619 0.69603 0.92894 0.0
N46 N 0.6931 0.70011 0.99384 0.0
O47 O 0.7203 0.66972 0.8021 0.0
H48 H 0.67093 0.63558 0.96714 0.0
H49 H 0.70417 0.71214 0.89653 0.0
O50 O 0.70186 0.61798 0.8592 0.0
C51 C 0.715 0.69383 0.77545 0.0
O52 O 0.69002 0.7022 0.77386 0.0
N53 N 0.652 0.63964 0.84145 0.0
C54 C 0.59801 0.62591 0.83554 0.0
C55 C 0.6174 0.60418 0.83567 0.0
C56 C 0.6444 0.61151 0.83826 0.0
C57 C 0.6335 0.66091 0.84422 0.0
C58 C 0.60642 0.65455 0.84162 0.0
H59 H 0.65907 0.59472 0.83351 0.0
H60 H 0.6399 0.6831 0.84449 0.0
H61 H 0.70726 0.59841 0.74289 0.0
H62 H 0.65838 0.6332 0.59657 0.0
H63 H 0.67766 0.67094 0.06665 0.0
H64 H 0.61182 0.5818 0.83123 0.0
H65 H 0.59233 0.67211 0.84027 0.0
C66 C 0.33391 0.64792 0.84627 0.0
C67 C 0.33427 0.62961 0.89874 0.0
N68 N 0.31995 0.60607 0.88345 0.0
N69 N 0.31953 0.63603 0.79785 0.0
C70 C 0.31105 0.61057 0.82213 0.0
H71 H 0.34445 0.66811 0.84252 0.0
Co72 Co 0.31763 0.65181 0.71438 0.0
C73 C 0.28229 0.61195 0.64231 0.0
O74 O 0.26713 0.63365 0.62536 0.0
N75 N 0.31625 0.66794 0.62954 0.0
C76 C 0.32211 0.67285 0.52249 0.0
C77 C 0.32558 0.65504 0.5751 0.0
C78 C 0.3071 0.69368 0.60833 0.0
N79 N 0.31048 0.69721 0.54334 0.0
O80 O 0.28357 0.66825 0.73684 0.0
H81 H 0.33425 0.63381 0.5736 0.0
H82 H 0.29832 0.70974 0.63964 0.0
O83 O 0.3021 0.61636 0.67998 0.0
C84 C 0.28865 0.69271 0.76243 0.0
O85 O 0.31349 0.70165 0.76259 0.0
N86 N 0.35195 0.63834 0.6983 0.0
C87 C 0.40598 0.62511 0.70508 0.0
C88 C 0.38672 0.60319 0.7042 0.0
C89 C 0.35968 0.61028 0.70113 0.0
C90 C 0.37034 0.65979 0.69635 0.0
C91 C 0.39744 0.65368 0.69938 0.0
H92 H 0.34509 0.59335 0.70513 0.0
H93 H 0.36381 0.68191 0.69632 0.0
H94 H 0.29989 0.5949 0.79436 0.0
H95 H 0.34481 0.63301 0.94408 0.0
H96 H 0.32716 0.66791 0.47242 0.0
H97 H 0.39242 0.58086 0.70833 0.0
H98 H 0.41143 0.67136 0.70131 0.0
C99 C 0.67239 0.38735 0.34443 0.0
C100 C 0.67214 0.40569 0.39693 0.0
N101 N 0.68588 0.42951 0.38087 0.0
N102 N 0.68615 0.3995 0.29521 0.0
C103 C 0.69435 0.42516 0.31905 0.0
H104 H 0.66216 0.36696 0.34125 0.0
Co105 Co 0.68757 0.3835 0.21178 0.0
C106 C 0.72185 0.42375 0.13819 0.0
O107 O 0.73732 0.40226 0.12131 0.0
N108 N 0.68841 0.36701 0.12719 0.0
C109 C 0.68164 0.36105 0.02075 0.0
C110 C 0.67884 0.3795 0.07267 0.0
C111 C 0.69698 0.34089 0.10679 0.0
N112 N 0.69306 0.33671 0.04223 0.0
O113 O 0.7221 0.36786 0.2321 0.0
H114 H 0.67031 0.40079 0.07074 0.0
H115 H 0.7056 0.32493 0.13846 0.0
O116 O 0.70213 0.41913 0.17614 0.0
C117 C 0.71735 0.34349 0.2583 0.0
O118 O 0.69253 0.33454 0.26067 0.0
N119 N 0.65289 0.39611 0.19784 0.0
C120 C 0.59894 0.40753 0.21355 0.0
C121 C 0.61733 0.43014 0.20874 0.0
C122 C 0.64446 0.42394 0.20142 0.0
C123 C 0.6351 0.37406 0.19835 0.0
C124 C 0.60801 0.37928 0.20589 0.0
H125 H 0.65866 0.44132 0.20351 0.0
H126 H 0.64222 0.35215 0.19721 0.0
H127 H 0.70496 0.44105 0.29065 0.0
H128 H 0.66203 0.40211 0.44284 0.0
H129 H 0.67617 0.36547 0.97076 0.0
H130 H 0.61104 0.45221 0.21502 0.0
H131 H 0.59438 0.36128 0.20876 0.0
C132 C 0.82686 0.88508 0.18823 0.0
C133 C 0.82666 0.90283 0.13482 0.0
N134 N 0.81551 0.92806 0.15207 0.0
N135 N 0.81573 0.89876 0.23925 0.0
C136 C 0.80889 0.92489 0.21571 0.0
H137 H 0.83522 0.86372 0.19013 0.0
Co138 Co 0.81386 0.88313 0.3232 0.0
C139 C 0.77901 0.92354 0.39428 0.0
O140 O 0.76329 0.90209 0.41026 0.0
N141 N 0.81227 0.86705 0.40828 0.0
C142 C 0.8174 0.86196 0.5155 0.0
C143 C 0.821 0.88 0.46321 0.0
C144 C 0.80348 0.84103 0.42884 0.0
N145 N 0.80636 0.83737 0.49389 0.0
O146 O 0.77945 0.86734 0.30166 0.0
H147 H 0.8294 0.90138 0.4652 0.0
H148 H 0.79534 0.8248 0.39698 0.0
O149 O 0.79908 0.91885 0.35759 0.0
C150 C 0.78409 0.84267 0.2768 0.0
O151 O 0.80878 0.83332 0.27651 0.0
N152 N 0.84848 0.89601 0.33872 0.0
C153 C 0.90289 0.90759 0.33086 0.0
C154 C 0.88417 0.92995 0.32718 0.0
C155 C 0.85694 0.9237 0.33135 0.0
C156 C 0.86633 0.87429 0.34559 0.0
C157 C 0.89358 0.87966 0.34301 0.0
H158 H 0.84275 0.94079 0.32415 0.0
H159 H 0.85932 0.85241 0.34993 0.0
H160 H 0.80026 0.9417 0.24531 0.0
H161 H 0.83441 0.89751 0.08711 0.0
H162 H 0.82203 0.86688 0.56578 0.0
H163 H 0.89035 0.9518 0.31732 0.0
H164 H 0.90719 0.86178 0.34788 0.0
C165 C 0.18904 0.1532 0.68325 0.0
C166 C 0.19038 0.13427 0.63214 0.0
N167 N 0.19232 0.10753 0.65638 0.0
N168 N 0.19014 0.13867 0.73992 0.0
C169 C 0.19231 0.11071 0.72207 0.0
H170 H 0.18629 0.17614 0.67935 0.0
Co171 Co 0.1844 0.15793 0.81854 0.0
C172 C 0.18971 0.11559 0.92557 0.0
O173 O 0.17073 0.12984 0.95527 0.0
N174 N 0.17826 0.17952 0.89764 0.0
C175 C 0.15912 0.20522 0.97692 0.0
C176 C 0.15473 0.18741 0.92466 0.0
C177 C 0.19663 0.19304 0.93551 0.0
N178 N 0.18549 0.20902 0.98356 0.0
O179 O 0.2193 0.17489 0.80988 0.0
H180 H 0.13526 0.181 0.90819 0.0
H181 H 0.21787 0.19159 0.92751 0.0
O182 O 0.19809 0.12435 0.86975 0.0
C183 C 0.21618 0.2005 0.7888 0.0
O184 O 0.19186 0.21079 0.7853 0.0
N185 N 0.14945 0.14371 0.81774 0.0
C186 C 0.09694 0.12932 0.78699 0.0
C187 C 0.11424 0.10875 0.81344 0.0
C188 C 0.14067 0.11622 0.82727 0.0
C189 C 0.13312 0.16355 0.7901 0.0
C190 C 0.10674 0.15707 0.77573 0.0
H191 H 0.15409 0.09947 0.84224 0.0
H192 H 0.14079 0.18471 0.77911 0.0
H193 H 0.19237 0.09301 0.75619 0.0
H194 H 0.18937 0.13969 0.58091 0.0
H195 H 0.14391 0.21542 1.00628 0.0
H196 H 0.10773 0.08682 0.82087 0.0
H197 H 0.09418 0.17372 0.75562 0.0
C198 C 0.82231 0.15184 0.84739 0.0
C199 C 0.82222 0.13387 0.90041 0.0
N200 N 0.81292 0.10798 0.88162 0.0
N201 N 0.81291 0.13764 0.79505 0.0
C202 C 0.80725 0.11095 0.81743 0.0
H203 H 0.82944 0.17374 0.84679 0.0
Co204 Co 0.81159 0.15347 0.71121 0.0
C205 C 0.77746 0.11306 0.63796 0.0
O206 O 0.76199 0.1345 0.62091 0.0
N207 N 0.81065 0.16973 0.6262 0.0
C208 C 0.81724 0.17519 0.51947 0.0
C209 C 0.82017 0.15702 0.57173 0.0
C210 C 0.80198 0.19572 0.60534 0.0
N211 N 0.80578 0.1996 0.54064 0.0
O212 O 0.77701 0.16907 0.7317 0.0
H213 H 0.82875 0.13574 0.57005 0.0
H214 H 0.79332 0.21181 0.63671 0.0
O215 O 0.79709 0.11778 0.67595 0.0
C216 C 0.78145 0.19386 0.75621 0.0
O217 O 0.80608 0.20346 0.75662 0.0
N218 N 0.84629 0.14088 0.69682 0.0
C219 C 0.90066 0.12968 0.7042 0.0
C220 C 0.88212 0.10707 0.70489 0.0
C221 C 0.85486 0.11314 0.7012 0.0
C222 C 0.86401 0.16292 0.69305 0.0
C223 C 0.89126 0.15779 0.69565 0.0
H224 H 0.84076 0.09576 0.70596 0.0
H225 H 0.85686 0.18479 0.69096 0.0
H226 H 0.80019 0.0937 0.78668 0.0
H227 H 0.82879 0.13953 0.94895 0.0
H228 H 0.82265 0.17053 0.46949 0.0
H229 H 0.88846 0.08508 0.71192 0.0
H230 H 0.90481 0.17587 0.69342 0.0
C231 C 0.19119 0.88321 0.35616 0.0
C232 C 0.19216 0.90265 0.40631 0.0
N233 N 0.19314 0.92921 0.38073 0.0
N234 N 0.19159 0.89724 0.29877 0.0
C235 C 0.1929 0.92543 0.31522 0.0
H236 H 0.18916 0.86023 0.36131 0.0
Co237 Co 0.18611 0.87725 0.22099 0.0
C238 C 0.19704 0.91714 0.10961 0.0
O239 O 0.18119 0.90134 0.07361 0.0
N240 N 0.18007 0.85494 0.14328 0.0
C241 C 0.16066 0.82897 0.06499 0.0
C242 C 0.15647 0.84728 0.11649 0.0
C243 C 0.1983 0.84069 0.10635 0.0
N244 N 0.18699 0.82461 0.05874 0.0
O245 O 0.22057 0.8596 0.23201 0.0
H246 H 0.1371 0.85409 0.13299 0.0
H247 H 0.21954 0.84188 0.11445 0.0
O248 O 0.20109 0.91011 0.1694 0.0
C249 C 0.21695 0.83416 0.25374 0.0
O250 O 0.19247 0.82426 0.25712 0.0
N251 N 0.15161 0.89224 0.21884 0.0
C252 C 0.09914 0.90807 0.24582 0.0
C253 C 0.11635 0.92695 0.21281 0.0
C254 C 0.14277 0.91877 0.20049 0.0
C255 C 0.13523 0.87393 0.25148 0.0
C256 C 0.10892 0.88113 0.26443 0.0
H257 H 0.15607 0.93426 0.179 0.0
H258 H 0.14285 0.85346 0.26782 0.0
H259 H 0.19218 0.94279 0.28028 0.0
H260 H 0.19158 0.89768 0.45782 0.0
H261 H 0.14534 0.81884 0.03584 0.0
H262 H 0.10976 0.94818 0.19877 0.0
H263 H 0.09638 0.86565 0.28915 0.0
C264 C 0.44457 0.39516 0.25821 0.0
C265 C 0.43292 0.41203 0.30715 0.0
C266 C 0.47149 0.39821 0.24188 0.0
C267 C 0.48727 0.41858 0.27551 0.0
C268 C 0.4754 0.43651 0.32324 0.0
C269 C 0.44824 0.43311 0.33833 0.0
C270 C 0.48325 0.37881 0.1903 0.0
C271 C 0.49163 0.4584 0.36022 0.0
C272 C 0.55969 0.39681 0.28359 0.0
C273 C 0.57089 0.41275 0.23253 0.0
C274 C 0.53278 0.39968 0.30021 0.0
C275 C 0.51656 0.41888 0.26463 0.0
C276 C 0.52799 0.43599 0.21478 0.0
C277 C 0.55515 0.43282 0.19949 0.0
C278 C 0.52149 0.38123 0.3541 0.0
C279 C 0.51129 0.45661 0.17568 0.0
H280 H 0.43259 0.37928 0.23297 0.0
H281 H 0.43922 0.44623 0.37601 0.0
H282 H 0.49408 0.39169 0.1533 0.0
H283 H 0.49787 0.36405 0.21296 0.0
H284 H 0.46785 0.36573 0.1652 0.0
H285 H 0.47898 0.47264 0.3907 0.0
H286 H 0.50598 0.44721 0.39242 0.0
H287 H 0.50338 0.47182 0.32601 0.0
H288 H 0.572 0.38173 0.31015 0.0
H289 H 0.56384 0.44523 0.16017 0.0
H290 H 0.50726 0.36546 0.33327 0.0
H291 H 0.51035 0.39464 0.38951 0.0
H292 H 0.53722 0.36928 0.38068 0.0
H293 H 0.49719 0.44436 0.14469 0.0
H294 H 0.52364 0.47055 0.14373 0.0
H295 H 0.49926 0.47041 0.2085 0.0
C296 C 0.56235 0.59931 0.77448 0.0
C297 C 0.56947 0.61939 0.82256 0.0
C298 C 0.53572 0.59596 0.75503 0.0
C299 C 0.51579 0.61333 0.78377 0.0
C300 C 0.52267 0.6326 0.83449 0.0
C301 C 0.54937 0.63524 0.85354 0.0
C302 C 0.52912 0.57488 0.70148 0.0
C303 C 0.50201 0.65151 0.86646 0.0
C304 C 0.45459 0.63492 0.68772 0.0
C305 C 0.43453 0.61884 0.71831 0.0
C306 C 0.48127 0.63252 0.70698 0.0
C307 C 0.48818 0.61326 0.75752 0.0
C308 C 0.46831 0.59568 0.78591 0.0
C309 C 0.44169 0.59879 0.76624 0.0
C310 C 0.50187 0.65165 0.67538 0.0
C311 C 0.47495 0.5746 0.83925 0.0
H312 H 0.57771 0.58715 0.7497 0.0
H313 H 0.55462 0.6504 0.89154 0.0
H314 H 0.51169 0.56155 0.71534 0.0
H315 H 0.52372 0.58675 0.65658 0.0
H316 H 0.54612 0.56048 0.69011 0.0
H317 H 0.51032 0.66409 0.90775 0.0
H318 H 0.49384 0.66671 0.83002 0.0
H319 H 0.48518 0.63835 0.88472 0.0
H320 H 0.44931 0.65007 0.64984 0.0
H321 H 0.42634 0.58646 0.79071 0.0
H322 H 0.51874 0.63864 0.65687 0.0
H323 H 0.50999 0.66681 0.71211 0.0
H324 H 0.49353 0.66428 0.63433 0.0
H325 H 0.49242 0.56139 0.82527 0.0
H326 H 0.45799 0.56008 0.85046 0.0
H327 H 0.48031 0.58646 0.88428 0.0
C328 C 0.06008 0.9076 0.32169 0.0
C329 C 0.07116 0.91594 0.26176 0.0
C330 C 0.03279 0.91053 0.33409 0.0
C331 C 0.01613 0.92265 0.2859 0.0
C332 C 0.02749 0.9333 0.22747 0.0
C333 C 0.05489 0.92966 0.21586 0.0
C334 C 0.02154 0.89875 0.39694 0.0
C335 C 0.01047 0.94694 0.17551 0.0
C336 C 0.94623 0.89218 0.2817 0.0
C337 C 0.93169 0.91264 0.31725 0.0
C338 C 0.97352 0.89558 0.27013 0.0
C339 C 0.9867 0.92044 0.29327 0.0
C340 C 0.97205 0.94184 0.32676 0.0
C341 C 0.94472 0.9376 0.3388 0.0
C342 C 0.98839 0.87211 0.23453 0.0
C343 C 0.98534 0.96887 0.35107 0.0
H344 H 0.07266 0.89777 0.35826 0.0
H345 H 0.06327 0.93626 0.16954 0.0
H346 H 0.00847 0.91482 0.42076 0.0
H347 H 0.00917 0.87956 0.38623 0.0
H348 H 0.0374 0.89246 0.43179 0.0
H349 H 0.02267 0.95841 0.13856 0.0
H350 H 0.99872 0.93009 0.15032 0.0
H351 H 0.99617 0.9623 0.1975 0.0
H352 H 0.93626 0.87328 0.2628 0.0
H353 H 0.93372 0.95356 0.36623 0.0
H354 H 0.00404 0.86309 0.26664 0.0
H355 H 0.99848 0.88101 0.19089 0.0
H356 H 0.97509 0.85434 0.21877 0.0
H357 H 0.99936 0.96352 0.39093 0.0
H358 H 0.97071 0.98476 0.36974 0.0
H359 H 0.99714 0.97895 0.31146 0.0
C360 C 0.05758 0.13338 0.71298 0.0
C361 C 0.06892 0.12221 0.77001 0.0
C362 C 0.03032 0.13045 0.7003 0.0
C363 C 0.01398 0.1156 0.74528 0.0
C364 C 0.02561 0.10242 0.8005 0.0
C365 C 0.05298 0.10599 0.81241 0.0
C366 C 0.01875 0.1449 0.64089 0.0
C367 C 0.00891 0.08601 0.84903 0.0
C368 C 0.94354 0.14383 0.75694 0.0
C369 C 0.92943 0.12463 0.71705 0.0
C370 C 0.97088 0.14062 0.76766 0.0
C371 C 0.98454 0.11731 0.73874 0.0
C372 C 0.9703 0.09709 0.70066 0.0
C373 C 0.94288 0.10105 0.68999 0.0
C374 C 0.98528 0.16274 0.80853 0.0
C375 C 0.98416 0.07173 0.66987 0.0
H376 H 0.06993 0.14525 0.679 0.0
H377 H 0.06158 0.09724 0.85652 0.0
H378 H 0.00598 0.12972 0.61335 0.0
H379 H 0.006 0.16312 0.65642 0.0
H380 H 0.03442 0.15326 0.60767 0.0
H381 H 0.02135 0.0733 0.88316 0.0
H382 H 0.99676 0.10129 0.87795 0.0
H383 H 0.99497 0.07129 0.8236 0.0
H384 H 0.93318 0.1616 0.77977 0.0
H385 H 0.93214 0.08609 0.65922 0.0
H386 H 0.00053 0.17381 0.77846 0.0
H387 H 0.99581 0.15214 0.8494 0.0
H388 H 0.97158 0.17916 0.82899 0.0
H389 H 0.99806 0.07934 0.63155 0.0
H390 H 0.96987 0.05642 0.64745 0.0
H391 H 0.99618 0.06016 0.70676 0.0
C392 C 0.29368 0.56453 0.92254 0.0
C393 C 0.31746 0.58032 0.922 0.0
C394 C 0.29108 0.53962 0.96089 0.0
C395 C 0.313 0.52995 0.99836 0.0
C396 C 0.33713 0.54571 0.99729 0.0
C397 C 0.33897 0.57078 0.95966 0.0
C398 C 0.26487 0.52374 0.9616 0.0
C399 C 0.3612 0.53588 0.03521 0.0
C400 C 0.30582 0.4789 0.1424 0.0
C401 C 0.31344 0.4525 0.11482 0.0
C402 C 0.3044 0.50403 0.10449 0.0
C403 C 0.31118 0.50297 0.0375 0.0
C404 C 0.31807 0.47634 1.00888 0.0
C405 C 0.31881 0.45149 0.04756 0.0
C406 C 0.2965 0.53191 0.13671 0.0
C407 C 0.3257 0.47425 0.9378 0.0
H408 H 0.27699 0.57201 0.89383 0.0
H409 H 0.35751 0.58267 0.95855 0.0
H410 H 0.26768 0.50156 0.94311 0.0
H411 H 0.25737 0.52202 1.01234 0.0
H412 H 0.24952 0.53452 0.9314 0.0
H413 H 0.37852 0.55047 0.02888 0.0
H414 H 0.35632 0.53463 0.08787 0.0
H415 H 0.36705 0.51401 0.0192 0.0
H416 H 0.30169 0.48029 0.19404 0.0
H417 H 0.32405 0.4313 0.02488 0.0
H418 H 0.28071 0.5427 0.10804 0.0
H419 H 0.31388 0.54661 0.13823 0.0
H420 H 0.28919 0.52867 0.18729 0.0
H421 H 0.30975 0.48334 0.90678 0.0
H422 H 0.32947 0.45177 0.92222 0.0
H423 H 0.34398 0.48706 0.92877 0.0
C424 C 0.66663 0.46442 0.45787 0.0
C425 C 0.68811 0.45533 0.41936 0.0
C426 C 0.66823 0.48947 0.49572 0.0
C427 C 0.6921 0.50569 0.49611 0.0
C428 C 0.71399 0.4965 0.45772 0.0
C429 C 0.71162 0.47158 0.41917 0.0
C430 C 0.64418 0.49878 0.53463 0.0
C431 C 0.73993 0.51289 0.45771 0.0
C432 C 0.68462 0.58383 0.54661 0.0
C433 C 0.6901 0.5828 0.61376 0.0
C434 C 0.68598 0.55912 0.50744 0.0
C435 C 0.69361 0.53265 0.53547 0.0
C436 C 0.70058 0.53166 0.6023 0.0
C437 C 0.69855 0.55663 0.64071 0.0
C438 C 0.67812 0.56114 0.43657 0.0
C439 C 0.70925 0.50395 0.63387 0.0
H440 H 0.64829 0.45216 0.45731 0.0
H441 H 0.72829 0.46445 0.38977 0.0
H442 H 0.64929 0.50005 0.58713 0.0
H443 H 0.63788 0.52055 0.51914 0.0
H444 H 0.62707 0.48387 0.52872 0.0
H445 H 0.7553 0.50248 0.42676 0.0
H446 H 0.73665 0.53505 0.4397 0.0
H447 H 0.74766 0.51467 0.50819 0.0
H448 H 0.67877 0.60391 0.52448 0.0
H449 H 0.70279 0.55527 0.69228 0.0
H450 H 0.65999 0.54805 0.42789 0.0
H451 H 0.6941 0.55233 0.40505 0.0
H452 H 0.674 0.58358 0.42133 0.0
H453 H 0.69218 0.48885 0.63604 0.0
H454 H 0.71681 0.50734 0.68416 0.0
H455 H 0.72508 0.49354 0.60442 0.0
C456 C 0.7092 0.56151 0.90929 0.0
C457 C 0.72501 0.58495 0.92826 0.0
C458 C 0.71009 0.53526 0.94314 0.0
C459 C 0.72726 0.53218 0.99744 0.0
C460 C 0.74389 0.55545 1.01562 0.0
C461 C 0.74259 0.58148 0.98086 0.0
C462 C 0.69213 0.51101 0.92169 0.0
C463 C 0.76255 0.55313 0.07296 0.0
C464 C 0.70838 0.47537 0.12337 0.0
C465 C 0.72485 0.45227 0.10589 0.0
C466 C 0.7093 0.50158 0.0893 0.0
C467 C 0.72716 0.50494 0.0363 0.0
C468 C 0.74436 0.48199 0.01952 0.0
C469 C 0.74302 0.45601 0.05445 0.0
C470 C 0.69069 0.52547 0.10918 0.0
C471 C 0.76374 0.48463 0.96355 0.0
H472 H 0.69573 0.56376 0.86844 0.0
H473 H 0.7549 0.59938 0.99615 0.0
H474 H 0.70405 0.49141 0.91212 0.0
H475 H 0.67783 0.50578 0.9612 0.0
H476 H 0.68072 0.51639 0.87701 0.0
H477 H 0.77511 0.5726 0.07894 0.0
H478 H 0.7509 0.54986 0.11833 0.0
H479 H 0.77574 0.53422 0.06705 0.0
H480 H 0.6944 0.47289 0.16321 0.0
H481 H 0.75584 0.43837 0.04031 0.0
H482 H 0.67698 0.53049 0.06842 0.0
H483 H 0.7022 0.54527 0.11989 0.0
H484 H 0.67863 0.51985 0.15277 0.0
H485 H 0.75267 0.48777 0.91736 0.0
H486 H 0.77658 0.46535 0.95843 0.0
H487 H 0.77666 0.50373 0.97048 0.0
C488 C 0.29512 0.47419 0.41233 0.0
C489 C 0.27866 0.45107 0.42999 0.0
C490 C 0.29435 0.50041 0.44657 0.0
C491 C 0.27666 0.50376 0.49995 0.0
C492 C 0.25946 0.4808 0.51685 0.0
C493 C 0.26064 0.45482 0.48173 0.0
C494 C 0.31294 0.52432 0.42649 0.0
C495 C 0.24025 0.48341 0.5732 0.0
C496 C 0.29503 0.56007 0.62777 0.0
C497 C 0.27909 0.58348 0.60971 0.0
C498 C 0.2941 0.53394 0.59325 0.0
C499 C 0.27678 0.53095 0.53917 0.0
C500 C 0.2601 0.55422 0.52179 0.0
C501 C 0.26142 0.58012 0.55721 0.0
C502 C 0.31214 0.50969 0.61384 0.0
C503 C 0.2413 0.55201 0.46466 0.0
H504 H 0.30899 0.4717 0.37226 0.0
H505 H 0.24783 0.43717 0.49602 0.0
H506 H 0.30146 0.54416 0.4165 0.0
H507 H 0.32689 0.52921 0.46689 0.0
H508 H 0.32474 0.51877 0.38242 0.0
H509 H 0.22736 0.46415 0.57834 0.0
H510 H 0.25148 0.48649 0.61921 0.0
H511 H 0.22739 0.50254 0.56673 0.0
H512 H 0.30861 0.56225 0.66844 0.0
H513 H 0.24903 0.59801 0.54257 0.0
H514 H 0.32621 0.5045 0.5738 0.0
H515 H 0.30023 0.49008 0.6236 0.0
H516 H 0.32381 0.51504 0.65819 0.0
H517 H 0.25283 0.54875 0.41909 0.0
H518 H 0.22882 0.57153 0.45906 0.0
H519 H 0.22802 0.53314 0.47053 0.0
C520 C 0.79438 0.05945 0.90366 0.0
C521 C 0.81137 0.08219 0.92097 0.0
C522 C 0.79328 0.03409 0.94092 0.0
C523 C 0.80947 0.03137 0.99706 0.0
C524 C 0.82636 0.05435 1.0153 0.0
C525 C 0.82718 0.07931 0.97706 0.0
C526 C 0.77506 1.01005 0.91969 0.0
C527 C 0.84401 0.05237 0.07466 0.0
C528 C 0.79449 0.97501 0.127 0.0
C529 C 0.81318 0.95356 0.11209 0.0
C530 C 0.79265 1.00018 0.08932 0.0
C531 C 0.80984 1.00405 0.03521 0.0
C532 C 0.82844 0.98234 0.01931 0.0
C533 C 0.82994 0.95752 0.05791 0.0
C534 C 0.77259 0.02285 0.10802 0.0
C535 C 0.84721 0.98557 0.96219 0.0
H536 H 0.78183 0.06145 0.86107 0.0
H537 H 0.84074 0.09635 0.99062 0.0
H538 H 0.78698 0.99066 0.9081 0.0
H539 H 0.76131 1.00424 0.95994 0.0
H540 H 0.7631 1.01584 0.87616 0.0
H541 H 0.85507 0.07263 0.08405 0.0
H542 H 0.83192 0.04716 0.11837 0.0
H543 H 0.85864 0.03477 0.06812 0.0
H544 H 0.78121 0.97214 0.16806 0.0
H545 H 0.84478 0.9415 0.04625 0.0
H546 H 0.7595 0.02773 0.06599 0.0
H547 H 0.78306 0.04303 0.12118 0.0
H548 H 0.75998 1.01617 0.14988 0.0
H549 H 0.83581 0.98998 0.91703 0.0
H550 H 0.85958 0.96612 0.95424 0.0
H551 H 0.86065 1.00414 0.97048 0.0
C552 C 0.17541 0.07942 0.56345 0.0
C553 C 0.19184 0.08141 0.61852 0.0
C554 C 0.17547 0.0549 0.52359 0.0
C555 C 0.19279 0.03186 0.53831 0.0
C556 C 0.20942 0.03369 0.59406 0.0
C557 C 0.20852 0.05833 0.63396 0.0
C558 C 0.15686 0.0536 0.46592 0.0
C559 C 0.22839 1.00975 0.61104 0.0
C560 C 0.1759 0.95757 0.47289 0.0
C561 C 0.19219 0.95562 0.41746 0.0
C562 C 0.17578 0.98226 0.51217 0.0
C563 C 0.19276 1.00553 0.49648 0.0
C564 C 0.20914 1.00381 0.44017 0.0
C565 C 0.20843 0.97897 0.40086 0.0
C566 C 0.15741 0.98343 0.57046 0.0
C567 C 0.22775 0.028 0.42214 0.0
H568 H 0.16224 0.09709 0.55191 0.0
H569 H 0.22137 0.05997 0.67618 0.0
H570 H 0.16842 0.05092 0.42024 0.0
H571 H 0.14351 0.03471 0.47038 0.0
H572 H 0.14442 0.07321 0.46157 0.0
H573 H 0.24053 1.01479 0.65481 0.0
H574 H 0.21713 0.98966 0.62025 0.0
H575 H 0.24197 1.00558 0.5694 0.0
H576 H 0.16308 0.93966 0.4853 0.0
H577 H 0.22116 0.97737 0.35833 0.0
H578 H 0.14403 1.00228 0.56659 0.0
H579 H 0.16919 0.9861 0.61575 0.0
H580 H 0.14502 0.96376 0.57512 0.0
H581 H 0.21628 0.048 0.41405 0.0
H582 H 0.23945 0.02319 0.37746 0.0
H583 H 0.24175 0.03219 0.46287 0.0
C584 C 0.17648 0.07143 0.98539 0.0
C585 C 0.19629 0.08657 0.95137 0.0
C586 C 0.18124 0.04417 1.01175 0.0
C587 C 0.20676 0.0316 1.00554 0.0
C588 C 0.22711 0.04689 0.97206 0.0
C589 C 0.22153 0.07406 0.94443 0.0
C590 C 0.1586 0.02854 0.045 0.0
C591 C 0.25473 0.03455 0.96565 0.0
C592 C 0.21353 0.96831 0.12247 0.0
C593 C 0.20558 0.94541 0.08243 0.0
C594 C 0.2164 0.99633 0.09695 0.0
C595 C 0.21091 1.0016 0.0301 0.0
C596 C 0.20485 0.97812 0.98884 0.0
C597 C 0.20249 0.95046 1.01532 0.0
C598 C 0.22353 0.02058 0.14247 0.0
C599 C 0.19843 0.98248 0.91763 0.0
H600 H 0.1568 0.08071 0.99039 0.0
H601 H 0.23697 0.08572 0.91863 0.0
H602 H 0.15453 1.008 0.01939 0.0
H603 H 0.16411 0.02324 0.09589 0.0
H604 H 0.13996 0.04135 0.04592 0.0
H605 H 0.26877 0.04977 0.942 0.0
H606 H 0.26255 0.02883 1.01449 0.0
H607 H 0.25409 1.01451 0.93646 0.0
H608 H 0.21613 0.96471 0.17425 0.0
H609 H 0.19675 0.93291 0.98352 0.0
H610 H 0.20541 0.03323 0.15383 0.0
H611 H 0.23809 0.0353 0.11919 0.0
H612 H 0.23201 1.01257 0.18901 0.0
H613 H 0.17892 0.99349 0.91326 0.0
H614 H 0.19731 0.96184 0.89053 0.0
H615 H 0.21355 0.99634 0.89397 0.0
C616 C 0.79077 0.06135 0.62416 0.0
C617 C 0.7747 0.08456 0.60543 0.0
C618 C 0.79015 0.03513 0.58997 0.0
C619 C 0.7731 0.03191 0.53544 0.0
C620 C 0.75635 0.055 0.51729 0.0
C621 C 0.7573 0.08096 0.55251 0.0
C622 C 0.8082 1.01105 0.61142 0.0
C623 C 0.73789 0.05255 0.45954 0.0
C624 C 0.79247 0.97516 0.40965 0.0
C625 C 0.77589 0.95204 0.42661 0.0
C626 C 0.79141 1.00137 0.44379 0.0
C627 C 0.77337 1.00468 0.49647 0.0
C628 C 0.75612 0.98168 0.5128 0.0
C629 C 0.75754 0.95573 0.47767 0.0
C630 C 0.81003 0.02535 0.42432 0.0
C631 C 0.73661 0.98423 0.56853 0.0
H632 H 0.80418 0.06376 0.66511 0.0
H633 H 0.74483 0.0987 0.53736 0.0
H634 H 0.79636 0.99135 0.62074 0.0
H635 H 0.82259 1.00594 0.57201 0.0
H636 H 0.81952 1.01653 0.65623 0.0
H637 H 0.72536 0.07198 0.45324 0.0
H638 H 0.74969 0.04921 0.41442 0.0
H639 H 0.72465 0.03363 0.46523 0.0
H640 H 0.80663 0.97268 0.37018 0.0
H641 H 0.74466 0.93806 0.49144 0.0
H642 H 0.82369 0.03038 0.46524 0.0
H643 H 0.79853 0.04512 0.41374 0.0
H644 H 0.82215 0.01981 0.38077 0.0
H645 H 0.74758 0.98751 0.61486 0.0
H646 H 0.72384 0.96486 0.57349 0.0
H647 H 0.72363 1.00322 0.56145 0.0
C648 C 0.24645 0.3346 0.20824 0.0
C649 C 0.26664 0.32302 0.24718 0.0
C650 C 0.23119 0.31676 0.16691 0.0
C651 C 0.23615 0.28675 0.16517 0.0
C652 C 0.25545 0.27494 0.2075 0.0
C653 C 0.27047 0.29319 0.24757 0.0
C654 C 0.21078 0.3302 0.12263 0.0
C655 C 0.26122 0.24311 0.20822 0.0
C656 C 0.18676 0.23402 0.09008 0.0
C657 C 0.19843 0.22822 0.02919 0.0
C658 C 0.19842 0.25348 0.13411 0.0
C659 C 0.22237 0.26767 0.11704 0.0
C660 C 0.23418 0.26207 0.05547 0.0
C661 C 0.22214 0.24238 1.01247 0.0
C662 C 0.18531 0.2585 0.1994 0.0
C663 C 0.25968 0.27674 0.03516 0.0
H664 H 0.24369 0.35767 0.20713 0.0
H665 H 0.28604 0.28413 0.27779 0.0
H666 H 0.21748 0.32827 0.07127 0.0
H667 H 0.19148 0.31872 0.12672 0.0
H668 H 0.20756 0.35328 0.13388 0.0
H669 H 0.27536 0.2371 0.24746 0.0
H670 H 0.24253 0.23074 0.21499 0.0
H671 H 0.26988 0.23656 0.16071 0.0
H672 H 0.16859 0.223 0.10372 0.0
H673 H 0.23105 0.23845 0.96521 0.0
H674 H 0.18172 0.28177 0.20688 0.0
H675 H 0.19874 0.25127 0.23898 0.0
H676 H 0.16607 0.2469 0.20405 0.0
H677 H 0.2574 0.30038 0.03877 0.0
H678 H 0.26562 0.27118 0.98453 0.0
H679 H 0.27602 0.27049 0.06858 0.0
C680 C 0.75604 0.70152 0.70688 0.0
C681 C 0.73524 0.71264 0.74482 0.0
C682 C 0.77136 0.71971 0.66645 0.0
C683 C 0.76572 0.74957 0.66449 0.0
C684 C 0.74586 0.76093 0.70611 0.0
C685 C 0.73089 0.74236 0.74542 0.0
C686 C 0.79247 0.70676 0.62319 0.0
C687 C 0.7393 0.79259 0.70652 0.0
C688 C 0.81094 0.807 0.59234 0.0
C689 C 0.79816 0.81306 0.53307 0.0
C690 C 0.80167 0.78515 0.63389 0.0
C691 C 0.77891 0.76897 0.61611 0.0
C692 C 0.76671 0.77404 0.55492 0.0
C693 C 0.77649 0.79594 0.51419 0.0
C694 C 0.81547 0.7803 0.69821 0.0
C695 C 0.74237 0.75739 0.53395 0.0
H696 H 0.75927 0.67851 0.70576 0.0
H697 H 0.7149 0.75105 0.77503 0.0
H698 H 0.78553 0.70704 0.57188 0.0
H699 H 0.81108 0.71958 0.62548 0.0
H700 H 0.79701 0.68422 0.63683 0.0
H701 H 0.72458 0.79824 0.74489 0.0
H702 H 0.75758 0.80549 0.71448 0.0
H703 H 0.73101 0.79886 0.65851 0.0
H704 H 0.82804 0.81967 0.6068 0.0
H705 H 0.76636 0.80047 0.46882 0.0
H706 H 0.8191 0.75706 0.70602 0.0
H707 H 0.8025 0.78786 0.73852 0.0
H708 H 0.83477 0.79191 0.70119 0.0
H709 H 0.74577 0.73401 0.53959 0.0
H710 H 0.73686 0.7618 0.48251 0.0
H711 H 0.72528 0.76324 0.56561 0.0
C712 C 0.18815 0.79936 0.95247 0.0
C713 C 0.19977 0.80518 1.01333 0.0
C714 C 0.19984 0.77995 0.90836 0.0
C715 C 0.22378 0.76583 0.92534 0.0
C716 C 0.2355 0.77138 0.98696 0.0
C717 C 0.22343 0.79103 0.03002 0.0
C718 C 0.18682 0.77497 0.84304 0.0
C719 C 0.26098 0.75676 1.0072 0.0
C720 C 0.24815 0.69923 0.8334 0.0
C721 C 0.26839 0.711 0.79468 0.0
C722 C 0.23279 0.71689 0.87492 0.0
C723 C 0.23769 0.74692 0.87704 0.0
C724 C 0.25705 0.75893 0.83494 0.0
C725 C 0.27219 0.74084 0.79472 0.0
C726 C 0.21232 0.70324 0.91895 0.0
C727 C 0.26274 0.79078 0.83457 0.0
H728 H 0.17003 0.81038 0.93882 0.0
H729 H 0.23232 0.79497 0.07726 0.0
H730 H 0.20024 0.78246 0.80355 0.0
H731 H 0.18338 0.75169 0.83519 0.0
H732 H 0.16751 0.78639 0.83859 0.0
H733 H 0.2668 0.7622 0.05796 0.0
H734 H 0.25876 0.73312 1.00318 0.0
H735 H 0.27738 0.76322 0.97401 0.0
H736 H 0.24539 0.67615 0.83415 0.0
H737 H 0.28779 0.75005 0.76466 0.0
H738 H 0.19301 0.71463 0.91489 0.0
H739 H 0.21892 0.7051 0.97037 0.0
H740 H 0.20917 0.68017 0.90744 0.0
H741 H 0.24404 0.80306 0.82782 0.0
H742 H 0.27695 0.79696 0.79548 0.0
H743 H 0.27129 0.7973 0.88219 0.0
C744 C 0.7346 0.29519 0.28409 0.0
C745 C 0.73799 0.32502 0.28779 0.0
C746 C 0.74931 0.27653 0.32357 0.0
C747 C 0.7679 0.28794 0.36849 0.0
C748 C 0.77276 0.31798 0.36938 0.0
C749 C 0.75772 0.33626 0.32878 0.0
C750 C 0.74359 0.24471 0.32013 0.0
C751 C 0.79258 0.33098 0.41605 0.0
C752 C 0.77574 0.24045 0.51788 0.0
C753 C 0.79813 0.224 0.50135 0.0
C754 C 0.76658 0.26245 0.47675 0.0
C755 C 0.78021 0.26837 0.41769 0.0
C756 C 0.80366 0.2529 0.40251 0.0
C757 C 0.81224 0.23084 0.44428 0.0
C758 C 0.74141 0.27828 0.49484 0.0
C759 C 0.81903 0.25874 0.34067 0.0
H760 H 0.71939 0.28644 0.25221 0.0
H761 H 0.76015 0.35934 0.33233 0.0
H762 H 0.76237 0.23246 0.31427 0.0
H763 H 0.73418 0.23758 0.36633 0.0
H764 H 0.73009 0.23912 0.27919 0.0
H765 H 0.7971 0.35371 0.4039 0.0
H766 H 0.78437 0.3302 0.46624 0.0
H767 H 0.8114 0.31855 0.41596 0.0
H768 H 0.76461 0.23527 0.56156 0.0
H769 H 0.82988 0.21865 0.43177 0.0
H770 H 0.72533 0.27247 0.46017 0.0
H771 H 0.74454 0.3018 0.49123 0.0
H772 H 0.73458 0.2731 0.54499 0.0
H773 H 0.80733 0.25121 0.29812 0.0
H774 H 0.83862 0.24769 0.34014 0.0
H775 H 0.82233 0.28214 0.33449 0.0
C776 C 0.68754 0.73138 0.09057 0.0
C777 C 0.70098 0.72471 0.03241 0.0
C778 C 0.6966 0.75337 0.13208 0.0
C779 C 0.71985 0.76896 0.11549 0.0
C780 C 0.7327 0.76333 0.05522 0.0
C781 C 0.72306 0.74137 1.01438 0.0
C782 C 0.68205 0.7589 0.19525 0.0
C783 C 0.7576 0.77932 0.03558 0.0
C784 C 0.74346 0.83604 0.20659 0.0
C785 C 0.7635 0.82442 0.24596 0.0
C786 C 0.72807 0.81816 0.16564 0.0
C787 C 0.7329 0.78813 0.16451 0.0
C788 C 0.75192 0.77631 0.20761 0.0
C789 C 0.76694 0.79457 0.24754 0.0
C790 C 0.70781 0.83158 0.12094 0.0
C791 C 0.75762 0.74447 0.20887 0.0
H792 H 0.67012 0.71903 0.10423 0.0
H793 H 0.73365 0.73634 0.9698 0.0
H794 H 0.69421 0.751 0.23659 0.0
H795 H 0.67901 0.78227 0.20263 0.0
H796 H 0.6624 0.74796 0.19679 0.0
H797 H 0.76362 0.77456 0.98458 0.0
H798 H 0.75461 0.8028 0.04066 0.0
H799 H 0.77419 0.77321 0.06842 0.0
H800 H 0.74095 0.85914 0.20473 0.0
H801 H 0.78233 0.7855 0.27827 0.0
H802 H 0.68892 0.8192 0.12178 0.0
H803 H 0.71542 0.83114 0.07018 0.0
H804 H 0.70355 0.85423 0.13441 0.0
H805 H 0.73892 0.73217 0.21593 0.0
H806 H 0.77176 0.73853 0.24818 0.0
H807 H 0.76626 0.73774 0.16145 0.0
C808 C 0.23595 0.2477 0.76231 0.0
C809 C 0.23785 0.21771 0.75945 0.0
C810 C 0.25124 0.26526 0.72131 0.0
C811 C 0.26892 0.25256 0.67592 0.0
C812 C 0.27241 0.22231 0.67615 0.0
C813 C 0.25678 0.20517 0.71808 0.0
C814 C 0.24698 0.29736 0.72349 0.0
C815 C 0.29127 0.20793 0.62915 0.0
C816 C 0.27787 0.29787 0.52327 0.0
C817 C 0.30109 0.31333 0.53784 0.0
C818 C 0.26795 0.2769 0.56625 0.0
C819 C 0.28169 0.271 0.62507 0.0
C820 C 0.30596 0.28537 0.63818 0.0
C821 C 0.31526 0.30644 0.59467 0.0
C822 C 0.24194 0.26221 0.55035 0.0
C823 C 0.32148 0.27943 0.69961 0.0
H824 H 0.22132 0.25744 0.79435 0.0
H825 H 0.25802 0.18197 0.71505 0.0
H826 H 0.26632 0.30872 0.72761 0.0
H827 H 0.23746 0.3045 0.67752 0.0
H828 H 0.23411 0.30397 0.76494 0.0
H829 H 0.29497 0.18516 0.64241 0.0
H830 H 0.28265 0.20849 0.57942 0.0
H831 H 0.31058 0.2195 0.62739 0.0
H832 H 0.26673 0.30313 0.47974 0.0
H833 H 0.3335 0.31788 0.60563 0.0
H834 H 0.22645 0.26913 0.58563 0.0
H835 H 0.24403 0.2386 0.55494 0.0
H836 H 0.23493 0.26727 0.50035 0.0
H837 H 0.31045 0.288 0.74226 0.0
H838 H 0.34155 0.28949 0.69858 0.0
H839 H 0.32377 0.25597 0.70696 0.0
C840 C 0.74152 0.20033 0.82882 0.0
C841 C 0.76074 0.21195 0.78687 0.0
C842 C 0.72648 0.21832 0.87029 0.0
C843 C 0.73084 0.24845 0.86935 0.0
C844 C 0.74891 0.26021 0.82356 0.0
C845 C 0.7636 0.24184 0.78315 0.0
C846 C 0.70721 0.20495 0.91784 0.0
C847 C 0.75409 0.29214 0.82007 0.0
C848 C 0.68621 0.30494 0.94686 0.0
C849 C 0.70062 0.31215 1.0032 0.0
C850 C 0.69478 0.28287 0.90494 0.0
C851 C 0.71853 0.2678 0.91916 0.0
C852 C 0.73243 0.27404 0.97761 0.0
C853 C 0.72326 0.29602 0.01898 0.0
C854 C 0.67909 0.27663 0.84385 0.0
C855 C 0.75792 0.25865 0.99465 0.0
H856 H 0.7395 0.17721 0.83237 0.0
H857 H 0.7784 0.25087 0.75052 0.0
H858 H 0.71579 0.20581 0.96759 0.0
H859 H 0.68821 0.21707 0.91891 0.0
H860 H 0.70292 0.18216 0.90564 0.0
H861 H 0.76729 0.29797 0.77866 0.0
H862 H 0.73509 0.30402 0.81496 0.0
H863 H 0.76362 0.29946 0.86595 0.0
H864 H 0.66839 0.31689 0.935 0.0
H865 H 0.73458 0.30149 0.06214 0.0
H866 H 0.67618 0.25316 0.83776 0.0
H867 H 0.69034 0.2844 0.80076 0.0
H868 H 0.6593 0.28725 0.84433 0.0
H869 H 0.75511 0.23507 0.99107 0.0
H870 H 0.76494 0.26397 0.04454 0.0
H871 H 0.77372 0.26471 0.95937 0.0
C872 C 0.23584 0.78674 0.28165 0.0
C873 C 0.23831 0.81671 0.28341 0.0
C874 C 0.25113 0.76916 0.32236 0.0
C875 C 0.26939 0.78182 0.36639 0.0
C876 C 0.27335 0.812 0.36519 0.0
C877 C 0.25772 0.82917 0.32352 0.0
C878 C 0.24638 0.73712 0.32121 0.0
C879 C 0.29279 0.82632 0.41082 0.0
C880 C 0.2792 0.73678 0.519 0.0
C881 C 0.30208 0.72101 0.50315 0.0
C882 C 0.26916 0.7578 0.47646 0.0
C883 C 0.28242 0.7634 0.41672 0.0
C884 C 0.30637 0.74873 0.40226 0.0
C885 C 0.31582 0.72766 0.44542 0.0
C886 C 0.24351 0.77285 0.49383 0.0
C887 C 0.32137 0.75431 0.33974 0.0
H888 H 0.22086 0.77706 0.25054 0.0
H889 H 0.25942 0.85236 0.32568 0.0
H890 H 0.26551 0.72548 0.31602 0.0
H891 H 0.23725 0.73031 0.36798 0.0
H892 H 0.233 0.73051 0.28081 0.0
H893 H 0.29661 0.84902 0.39706 0.0
H894 H 0.28464 0.82594 0.46109 0.0
H895 H 0.31199 0.81457 0.41149 0.0
H896 H 0.26838 0.73173 0.56323 0.0
H897 H 0.33382 0.71599 0.43343 0.0
H898 H 0.22757 0.76593 0.45984 0.0
H899 H 0.24582 0.79641 0.48851 0.0
H900 H 0.23698 0.76809 0.54444 0.0
H901 H 0.30981 0.74575 0.29796 0.0
H902 H 0.34131 0.74402 0.33961 0.0
H903 H 0.32387 0.77772 0.33186 0.0
loop_
_geom_bond_atom_site_label_1
_geom_bond_atom_site_label_2
_geom_bond_distance
_geom_bond_site_symmetry_2
_ccdc_geom_bond_type
C0 C1 1.351 . S
C0 N3 1.368 . S
C0 H5 0.931 . S
C1 C0 1.351 . S
C1 N2 1.373 . S
C1 H29 0.930 . S
N2 C1 1.373 . S
N2 C4 1.340 . S
N3 C0 1.368 . S
N3 C4 1.321 . S
N3 Co6 2.135 . S
C4 N2 1.340 . S
C4 N3 1.321 . S
C4 H28 0.930 . S
H5 C0 0.931 . S
Co6 N3 2.135 . S
Co6 N9 2.121 . S
Co6 O14 2.055 . S
Co6 O17 2.039 . S
Co6 N20 2.140 . S
C7 O8 1.227 . S
C7 O17 1.265 . S
O8 C7 1.227 . S
N9 Co6 2.121 . S
N9 C11 1.375 . S
N9 C12 1.313 . S
C10 C11 1.338 . S
C10 N13 1.377 . S
C10 H30 0.930 . S
C11 N9 1.375 . S
C11 C10 1.338 . S
C11 H15 0.931 . S
C12 N9 1.313 . S
C12 N13 1.344 . S
C12 H16 0.930 . S
N13 C10 1.377 . S
N13 C12 1.344 . S
O14 Co6 2.055 . S
O14 C18 1.253 . S
H15 C11 0.931 . S
H16 C12 0.930 . S
O17 Co6 2.039 . S
O17 C7 1.265 . S
C18 O14 1.253 . S
C18 O19 1.227 . S
O19 C18 1.227 . S
N20 Co6 2.140 . S
N20 C23 1.346 . S
N20 C24 1.345 . S
C21 C22 1.387 . S
C21 C25 1.391 . S
C22 C21 1.387 . S
C22 C23 1.369 . S
C22 H31 0.929 . S
C23 N20 1.346 . S
C23 C22 1.369 . S
C23 H26 0.928 . S
C24 N20 1.345 . S
C24 C25 1.371 . S
C24 H27 0.931 . S
C25 C21 1.391 . S
C25 C24 1.371 . S
C25 H32 0.930 . S
H26 C23 0.928 . S
H27 C24 0.931 . S
H28 C4 0.930 . S
H29 C1 0.930 . S
H30 C10 0.930 . S
H31 C22 0.929 . S
H32 C25 0.930 . S
C33 C34 1.351 . S
C33 N36 1.368 . S
C33 H38 0.931 . S
C34 C33 1.351 . S
C34 N35 1.373 . S
C34 H62 0.930 . S
N35 C34 1.373 . S
N35 C37 1.340 . S
N36 C33 1.368 . S
N36 C37 1.321 . S
N36 Co39 2.135 . S
C37 N35 1.340 . S
C37 N36 1.321 . S
C37 H61 0.930 . S
H38 C33 0.931 . S
Co39 N36 2.135 . S
Co39 N42 2.121 . S
Co39 O47 2.055 . S
Co39 O50 2.039 . S
Co39 N53 2.140 . S
C40 O41 1.227 . S
C40 O50 1.265 . S
O41 C40 1.227 . S
N42 Co39 2.121 . S
N42 C44 1.375 . S
N42 C45 1.313 . S
C43 C44 1.338 . S
C43 N46 1.377 . S
C43 H63 0.930 1_556 S
C44 N42 1.375 . S
C44 C43 1.338 . S
C44 H48 0.931 . S
C45 N42 1.313 . S
C45 N46 1.344 . S
C45 H49 0.930 . S
N46 C43 1.377 . S
N46 C45 1.344 . S
O47 Co39 2.055 . S
O47 C51 1.253 . S
H48 C44 0.931 . S
H49 C45 0.930 . S
O50 Co39 2.039 . S
O50 C40 1.265 . S
C51 O47 1.253 . S
C51 O52 1.227 . S
O52 C51 1.227 . S
N53 Co39 2.140 . S
N53 C56 1.346 . S
N53 C57 1.345 . S
C54 C55 1.387 . S
C54 C58 1.391 . S
C55 C54 1.387 . S
C55 C56 1.369 . S
C55 H64 0.929 . S
C56 N53 1.346 . S
C56 C55 1.369 . S
C56 H59 0.928 . S
C57 N53 1.345 . S
C57 C58 1.371 . S
C57 H60 0.931 . S
C58 C54 1.391 . S
C58 C57 1.371 . S
C58 H65 0.930 . S
H59 C56 0.928 . S
H60 C57 0.931 . S
H61 C37 0.930 . S
H62 C34 0.930 . S
H63 C43 0.930 1_554 S
H64 C55 0.929 . S
H65 C58 0.930 . S
C66 C67 1.351 . S
C66 N69 1.368 . S
C66 H71 0.931 . S
C67 C66 1.351 . S
C67 N68 1.373 . S
C67 H95 0.930 . S
N68 C67 1.373 . S
N68 C70 1.340 . S
N69 C66 1.368 . S
N69 C70 1.321 . S
N69 Co72 2.135 . S
C70 N68 1.340 . S
C70 N69 1.321 . S
C70 H94 0.930 . S
H71 C66 0.931 . S
Co72 N69 2.135 . S
Co72 N75 2.121 . S
Co72 O80 2.055 . S
Co72 O83 2.039 . S
Co72 N86 2.140 . S
C73 O74 1.227 . S
C73 O83 1.265 . S
O74 C73 1.227 . S
N75 Co72 2.121 . S
N75 C77 1.375 . S
N75 C78 1.313 . S
C76 C77 1.338 . S
C76 N79 1.377 . S
C76 H96 0.930 . S
C77 N75 1.375 . S
C77 C76 1.338 . S
C77 H81 0.931 . S
C78 N75 1.313 . S
C78 N79 1.344 . S
C78 H82 0.930 . S
N79 C76 1.377 . S
N79 C78 1.344 . S
O80 Co72 2.055 . S
O80 C84 1.253 . S
H81 C77 0.931 . S
H82 C78 0.930 . S
O83 Co72 2.039 . S
O83 C73 1.265 . S
C84 O80 1.253 . S
C84 O85 1.227 . S
O85 C84 1.227 . S
N86 Co72 2.140 . S
N86 C89 1.346 . S
N86 C90 1.345 . S
C87 C88 1.387 . S
C87 C91 1.391 . S
C88 C87 1.387 . S
C88 C89 1.369 . S
C88 H97 0.929 . S
C89 N86 1.346 . S
C89 C88 1.369 . S
C89 H92 0.928 . S
C90 N86 1.345 . S
C90 C91 1.371 . S
C90 H93 0.931 . S
C91 C87 1.391 . S
C91 C90 1.371 . S
C91 H98 0.930 . S
H92 C89 0.928 . S
H93 C90 0.931 . S
H94 C70 0.930 . S
H95 C67 0.930 . S
H96 C76 0.930 . S
H97 C88 0.929 . S
H98 C91 0.930 . S
C99 C100 1.351 . S
C99 N102 1.368 . S
C99 H104 0.931 . S
C100 C99 1.351 . S
C100 N101 1.373 . S
C100 H128 0.930 . S
N101 C100 1.373 . S
N101 C103 1.340 . S
N102 C99 1.368 . S
N102 C103 1.321 . S
N102 Co105 2.135 . S
C103 N101 1.340 . S
C103 N102 1.321 . S
C103 H127 0.930 . S
H104 C99 0.931 . S
Co105 N102 2.135 . S
Co105 N108 2.121 . S
Co105 O113 2.055 . S
Co105 O116 2.039 . S
Co105 N119 2.140 . S
C106 O107 1.227 . S
C106 O116 1.265 . S
O107 C106 1.227 . S
N108 Co105 2.121 . S
N108 C110 1.375 . S
N108 C111 1.313 . S
C109 C110 1.338 . S
C109 N112 1.377 . S
C109 H129 0.930 1_554 S
C110 N108 1.375 . S
C110 C109 1.338 . S
C110 H114 0.931 . S
C111 N108 1.313 . S
C111 N112 1.344 . S
C111 H115 0.930 . S
N112 C109 1.377 . S
N112 C111 1.344 . S
O113 Co105 2.055 . S
O113 C117 1.253 . S
H114 C110 0.931 . S
H115 C111 0.930 . S
O116 Co105 2.039 . S
O116 C106 1.265 . S
C117 O113 1.253 . S
C117 O118 1.227 . S
O118 C117 1.227 . S
N119 Co105 2.140 . S
N119 C122 1.346 . S
N119 C123 1.345 . S
C120 C121 1.387 . S
C120 C124 1.391 . S
C121 C120 1.387 . S
C121 C122 1.369 . S
C121 H130 0.929 . S
C122 N119 1.346 . S
C122 C121 1.369 . S
C122 H125 0.928 . S
C123 N119 1.345 . S
C123 C124 1.371 . S
C123 H126 0.931 . S
C124 C120 1.391 . S
C124 C123 1.371 . S
C124 H131 0.930 . S
H125 C122 0.928 . S
H126 C123 0.931 . S
H127 C103 0.930 . S
H128 C100 0.930 . S
H129 C109 0.930 1_556 S
H130 C121 0.929 . S
H131 C124 0.930 . S
C132 C133 1.351 . S
C132 N135 1.368 . S
C132 H137 0.931 . S
C133 C132 1.351 . S
C133 N134 1.373 . S
C133 H161 0.930 . S
N134 C133 1.373 . S
N134 C136 1.340 . S
N135 C132 1.368 . S
N135 C136 1.321 . S
N135 Co138 2.135 . S
C136 N134 1.340 . S
C136 N135 1.321 . S
C136 H160 0.930 . S
H137 C132 0.931 . S
Co138 N135 2.135 . S
Co138 N141 2.121 . S
Co138 O146 2.055 . S
Co138 O149 2.039 . S
Co138 N152 2.140 . S
C139 O140 1.227 . S
C139 O149 1.265 . S
O140 C139 1.227 . S
N141 Co138 2.121 . S
N141 C143 1.375 . S
N141 C144 1.313 . S
C142 C143 1.338 . S
C142 N145 1.377 . S
C142 H162 0.930 . S
C143 N141 1.375 . S
C143 C142 1.338 . S
C143 H147 0.931 . S
C144 N141 1.313 . S
C144 N145 1.344 . S
C144 H148 0.930 . S
N145 C142 1.377 . S
N145 C144 1.344 . S
O146 Co138 2.055 . S
O146 C150 1.253 . S
H147 C143 0.931 . S
H148 C144 0.930 . S
O149 Co138 2.039 . S
O149 C139 1.265 . S
C150 O146 1.253 . S
C150 O151 1.227 . S
O151 C150 1.227 . S
N152 Co138 2.140 . S
N152 C155 1.346 . S
N152 C156 1.345 . S
C153 C154 1.387 . S
C153 C157 1.391 . S
C154 C153 1.387 . S
C154 C155 1.369 . S
C154 H163 0.929 . S
C155 N152 1.346 . S
C155 C154 1.369 . S
C155 H158 0.928 . S
C156 N152 1.345 . S
C156 C157 1.371 . S
C156 H159 0.931 . S
C157 C153 1.391 . S
C157 C156 1.371 . S
C157 H164 0.930 . S
H158 C155 0.928 . S
H159 C156 0.931 . S
H160 C136 0.930 . S
H161 C133 0.930 . S
H162 C142 0.930 . S
H163 C154 0.929 . S
H164 C157 0.930 . S
C165 C166 1.351 . S
C165 N168 1.368 . S
C165 H170 0.931 . S
C166 C165 1.351 . S
C166 N167 1.373 . S
C166 H194 0.930 . S
N167 C166 1.373 . S
N167 C169 1.340 . S
N168 C165 1.368 . S
N168 C169 1.321 . S
N168 Co171 2.135 . S
C169 N167 1.340 . S
C169 N168 1.321 . S
C169 H193 0.930 . S
H170 C165 0.931 . S
Co171 N168 2.135 . S
Co171 N174 2.121 . S
Co171 O179 2.055 . S
Co171 O182 2.039 . S
Co171 N185 2.140 . S
C172 O173 1.227 . S
C172 O182 1.265 . S
O173 C172 1.227 . S
N174 Co171 2.121 . S
N174 C176 1.375 . S
N174 C177 1.313 . S
C175 C176 1.338 . S
C175 N178 1.377 . S
C175 H195 0.930 1_556 S
C176 N174 1.375 . S
C176 C175 1.338 . S
C176 H180 0.931 . S
C177 N174 1.313 . S
C177 N178 1.344 . S
C177 H181 0.930 . S
N178 C175 1.377 . S
N178 C177 1.344 . S
O179 Co171 2.055 . S
O179 C183 1.253 . S
H180 C176 0.931 . S
H181 C177 0.930 . S
O182 Co171 2.039 . S
O182 C172 1.265 . S
C183 O179 1.253 . S
C183 O184 1.227 . S
O184 C183 1.227 . S
N185 Co171 2.140 . S
N185 C188 1.346 . S
N185 C189 1.345 . S
C186 C187 1.387 . S
C186 C190 1.391 . S
C187 C186 1.387 . S
C187 C188 1.369 . S
C187 H196 0.929 . S
C188 N185 1.346 . S
C188 C187 1.369 . S
C188 H191 0.928 . S
C189 N185 1.345 . S
C189 C190 1.371 . S
C189 H192 0.931 . S
C190 C186 1.391 . S
C190 C189 1.371 . S
C190 H197 0.930 . S
H191 C188 0.928 . S
H192 C189 0.931 . S
H193 C169 0.930 . S
H194 C166 0.930 . S
H195 C175 0.930 1_554 S
H196 C187 0.929 . S
H197 C190 0.930 . S
C198 C199 1.351 . S
C198 N201 1.368 . S
C198 H203 0.931 . S
C199 C198 1.351 . S
C199 N200 1.373 . S
C199 H227 0.930 . S
N200 C199 1.373 . S
N200 C202 1.340 . S
N201 C198 1.368 . S
N201 C202 1.321 . S
N201 Co204 2.135 . S
C202 N200 1.340 . S
C202 N201 1.321 . S
C202 H226 0.930 . S
H203 C198 0.931 . S
Co204 N201 2.135 . S
Co204 N207 2.121 . S
Co204 O212 2.055 . S
Co204 O215 2.039 . S
Co204 N218 2.140 . S
C205 O206 1.227 . S
C205 O215 1.265 . S
O206 C205 1.227 . S
N207 Co204 2.121 . S
N207 C209 1.375 . S
N207 C210 1.313 . S
C208 C209 1.338 . S
C208 N211 1.377 . S
C208 H228 0.930 . S
C209 N207 1.375 . S
C209 C208 1.338 . S
C209 H213 0.931 . S
C210 N207 1.313 . S
C210 N211 1.344 . S
C210 H214 0.930 . S
N211 C208 1.377 . S
N211 C210 1.344 . S
O212 Co204 2.055 . S
O212 C216 1.253 . S
H213 C209 0.931 . S
H214 C210 0.930 . S
O215 Co204 2.039 . S
O215 C205 1.265 . S
C216 O212 1.253 . S
C216 O217 1.227 . S
O217 C216 1.227 . S
N218 Co204 2.140 . S
N218 C221 1.346 . S
N218 C222 1.345 . S
C219 C220 1.387 . S
C219 C223 1.391 . S
C220 C219 1.387 . S
C220 C221 1.369 . S
C220 H229 0.929 . S
C221 N218 1.346 . S
C221 C220 1.369 . S
C221 H224 0.928 . S
C222 N218 1.345 . S
C222 C223 1.371 . S
C222 H225 0.931 . S
C223 C219 1.391 . S
C223 C222 1.371 . S
C223 H230 0.930 . S
H224 C221 0.928 . S
H225 C222 0.931 . S
H226 C202 0.930 . S
H227 C199 0.930 . S
H228 C208 0.930 . S
H229 C220 0.929 . S
H230 C223 0.930 . S
C231 C232 1.351 . S
C231 N234 1.368 . S
C231 H236 0.931 . S
C232 C231 1.351 . S
C232 N233 1.373 . S
C232 H260 0.930 . S
N233 C232 1.373 . S
N233 C235 1.340 . S
N234 C231 1.368 . S
N234 C235 1.321 . S
N234 Co237 2.135 . S
C235 N233 1.340 . S
C235 N234 1.321 . S
C235 H259 0.930 . S
H236 C231 0.931 . S
Co237 N234 2.135 . S
Co237 N240 2.121 . S
Co237 O245 2.055 . S
Co237 O248 2.039 . S
Co237 N251 2.140 . S
C238 O239 1.227 . S
C238 O248 1.265 . S
O239 C238 1.227 . S
N240 Co237 2.121 . S
N240 C242 1.375 . S
N240 C243 1.313 . S
C241 C242 1.338 . S
C241 N244 1.377 . S
C241 H261 0.930 1_554 S
C242 N240 1.375 . S
C242 C241 1.338 . S
C242 H246 0.931 . S
C243 N240 1.313 . S
C243 N244 1.344 . S
C243 H247 0.930 . S
N244 C241 1.377 . S
N244 C243 1.344 . S
O245 Co237 2.055 . S
O245 C249 1.253 . S
H246 C242 0.931 . S
H247 C243 0.930 . S
O248 Co237 2.039 . S
O248 C238 1.265 . S
C249 O245 1.253 . S
C249 O250 1.227 . S
O250 C249 1.227 . S
N251 Co237 2.140 . S
N251 C254 1.346 . S
N251 C255 1.345 . S
C252 C253 1.387 . S
C252 C256 1.391 . S
C253 C252 1.387 . S
C253 C254 1.369 . S
C253 H262 0.929 . S
C254 N251 1.346 . S
C254 C253 1.369 . S
C254 H257 0.928 . S
C255 N251 1.345 . S
C255 C256 1.371 . S
C255 H258 0.931 . S
C256 C252 1.391 . S
C256 C255 1.371 . S
C256 H263 0.930 . S
H257 C254 0.928 . S
H258 C255 0.931 . S
H259 C235 0.930 . S
H260 C232 0.930 . S
H261 C241 0.930 1_556 S
H262 C253 0.929 . S
H263 C256 0.930 . S
C264 C265 1.391 . S
C264 C266 1.394 . S
C264 H280 0.931 . S
C265 C264 1.391 . S
C265 C269 1.376 . S
C266 C264 1.394 . S
C266 C267 1.369 . S
C266 C270 1.531 . S
C267 C266 1.369 . S
C267 C268 1.410 . S
C267 C275 1.503 . S
C268 C267 1.410 . S
C268 C269 1.392 . S
C268 C271 1.511 . S
C269 C265 1.376 . S
C269 C268 1.392 . S
C269 H281 0.929 . S
C270 C266 1.531 . S
C270 H282 0.960 . S
C270 H283 0.962 . S
C270 H284 0.960 . S
C271 C268 1.511 . S
C271 H285 0.961 . S
C271 H286 0.961 . S
C271 H287 0.961 . S
C272 C273 1.370 . S
C272 C274 1.363 . S
C272 H288 0.931 . S
C273 C272 1.370 . S
C273 C277 1.408 . S
C274 C272 1.363 . S
C274 C275 1.370 . S
C274 C278 1.524 . S
C275 C267 1.503 . S
C275 C274 1.370 . S
C275 C276 1.403 . S
C276 C275 1.403 . S
C276 C277 1.404 . S
C276 C279 1.539 . S
C277 C273 1.408 . S
C277 C276 1.404 . S
C277 H289 0.930 . S
C278 C274 1.524 . S
C278 H290 0.956 . S
C278 H291 0.961 . S
C278 H292 0.961 . S
C279 C276 1.539 . S
C279 H293 0.958 . S
C279 H294 0.961 . S
C279 H295 0.960 . S
H280 C264 0.931 . S
H281 C269 0.929 . S
H282 C270 0.960 . S
H283 C270 0.962 . S
H284 C270 0.960 . S
H285 C271 0.961 . S
H286 C271 0.961 . S
H287 C271 0.961 . S
H288 C272 0.931 . S
H289 C277 0.930 . S
H290 C278 0.956 . S
H291 C278 0.961 . S
H292 C278 0.961 . S
H293 C279 0.958 . S
H294 C279 0.961 . S
H295 C279 0.960 . S
C296 C297 1.391 . S
C296 C298 1.394 . S
C296 H312 0.931 . S
C297 C296 1.391 . S
C297 C301 1.376 . S
C298 C296 1.394 . S
C298 C299 1.369 . S
C298 C302 1.531 . S
C299 C298 1.369 . S
C299 C300 1.410 . S
C299 C307 1.503 . S
C300 C299 1.410 . S
C300 C301 1.392 . S
C300 C303 1.511 . S
C301 C297 1.376 . S
C301 C300 1.392 . S
C301 H313 0.929 . S
C302 C298 1.531 . S
C302 H314 0.960 . S
C302 H315 0.962 . S
C302 H316 0.960 . S
C303 C300 1.511 . S
C303 H317 0.961 . S
C303 H318 0.961 . S
C303 H319 0.961 . S
C304 C305 1.370 . S
C304 C306 1.363 . S
C304 H320 0.931 . S
C305 C304 1.370 . S
C305 C309 1.408 . S
C306 C304 1.363 . S
C306 C307 1.370 . S
C306 C310 1.524 . S
C307 C299 1.503 . S
C307 C306 1.370 . S
C307 C308 1.403 . S
C308 C307 1.403 . S
C308 C309 1.404 . S
C308 C311 1.539 . S
C309 C305 1.408 . S
C309 C308 1.404 . S
C309 H321 0.930 . S
C310 C306 1.524 . S
C310 H322 0.956 . S
C310 H323 0.961 . S
C310 H324 0.961 . S
C311 C308 1.539 . S
C311 H325 0.958 . S
C311 H326 0.961 . S
C311 H327 0.960 . S
H312 C296 0.931 . S
H313 C301 0.929 . S
H314 C302 0.960 . S
H315 C302 0.962 . S
H316 C302 0.960 . S
H317 C303 0.961 . S
H318 C303 0.961 . S
H319 C303 0.961 . S
H320 C304 0.931 . S
H321 C309 0.930 . S
H322 C310 0.956 . S
H323 C310 0.961 . S
H324 C310 0.961 . S
H325 C311 0.958 . S
H326 C311 0.961 . S
H327 C311 0.960 . S
C328 C329 1.391 . S
C328 C330 1.394 . S
C328 H344 0.931 . S
C329 C328 1.391 . S
C329 C333 1.376 . S
C330 C328 1.394 . S
C330 C331 1.369 . S
C330 C334 1.531 . S
C331 C330 1.369 . S
C331 C332 1.410 . S
C331 C339 1.503 1_455 S
C332 C331 1.410 . S
C332 C333 1.392 . S
C332 C335 1.511 . S
C333 C329 1.376 . S
C333 C332 1.392 . S
C333 H345 0.929 . S
C334 C330 1.531 . S
C334 H346 0.960 . S
C334 H347 0.962 . S
C334 H348 0.960 . S
C335 C332 1.511 . S
C335 H349 0.961 . S
C335 H350 0.961 1_455 S
C335 H351 0.961 . S
C336 C337 1.370 . S
C336 C338 1.363 . S
C336 H352 0.931 . S
C337 C336 1.370 . S
C337 C341 1.408 . S
C338 C336 1.363 . S
C338 C339 1.370 . S
C338 C342 1.524 . S
C339 C331 1.503 1_655 S
C339 C338 1.370 . S
C339 C340 1.403 . S
C340 C339 1.403 . S
C340 C341 1.404 . S
C340 C343 1.539 . S
C341 C337 1.408 . S
C341 C340 1.404 . S
C341 H353 0.930 . S
C342 C338 1.524 . S
C342 H354 0.944 1_655 S
C342 H355 0.961 . S
C342 H356 0.961 . S
C343 C340 1.539 . S
C343 H357 0.958 . S
C343 H358 0.961 . S
C343 H359 0.984 . S
H344 C328 0.931 . S
H345 C333 0.929 . S
H346 C334 0.960 . S
H347 C334 0.962 . S
H348 C334 0.960 . S
H349 C335 0.961 . S
H350 C335 0.961 1_655 S
H351 C335 0.961 . S
H352 C336 0.931 . S
H353 C341 0.930 . S
H354 C342 0.944 1_455 S
H355 C342 0.961 . S
H356 C342 0.961 . S
H357 C343 0.958 . S
H358 C343 0.961 . S
H359 C343 0.984 . S
C360 C361 1.391 . S
C360 C362 1.394 . S
C360 H376 0.931 . S
C361 C360 1.391 . S
C361 C365 1.376 . S
C362 C360 1.394 . S
C362 C363 1.369 . S
C362 C366 1.531 . S
C363 C362 1.369 . S
C363 C364 1.410 . S
C363 C371 1.503 1_455 S
C364 C363 1.410 . S
C364 C365 1.392 . S
C364 C367 1.511 . S
C365 C361 1.376 . S
C365 C364 1.392 . S
C365 H377 0.929 . S
C366 C362 1.531 . S
C366 H378 0.960 . S
C366 H379 0.962 . S
C366 H380 0.960 . S
C367 C364 1.511 . S
C367 H381 0.961 . S
C367 H382 0.961 1_455 S
C367 H383 0.961 . S
C368 C369 1.370 . S
C368 C370 1.363 . S
C368 H384 0.931 . S
C369 C368 1.370 . S
C369 C373 1.408 . S
C370 C368 1.363 . S
C370 C371 1.370 . S
C370 C374 1.524 . S
C371 C363 1.503 1_655 S
C371 C370 1.370 . S
C371 C372 1.403 . S
C372 C371 1.403 . S
C372 C373 1.404 . S
C372 C375 1.539 . S
C373 C369 1.408 . S
C373 C372 1.404 . S
C373 H385 0.930 . S
C374 C370 1.524 . S
C374 H386 0.956 . S
C374 H387 0.961 . S
C374 H388 0.961 . S
C375 C372 1.539 . S
C375 H389 0.958 . S
C375 H390 0.961 . S
C375 H391 0.960 1_655 S
H376 C360 0.931 . S
H377 C365 0.929 . S
H378 C366 0.960 . S
H379 C366 0.962 . S
H380 C366 0.960 . S
H381 C367 0.961 . S
H382 C367 0.961 1_655 S
H383 C367 0.961 . S
H384 C368 0.931 . S
H385 C373 0.930 . S
H386 C374 0.956 . S
H387 C374 0.961 . S
H388 C374 0.961 . S
H389 C375 0.958 . S
H390 C375 0.961 . S
H391 C375 0.960 1_455 S
C392 C393 1.391 . S
C392 C394 1.394 . S
C392 H408 0.931 . S
C393 C392 1.391 . S
C393 C397 1.376 . S
C394 C392 1.394 . S
C394 C395 1.369 . S
C394 C398 1.531 . S
C395 C394 1.369 . S
C395 C396 1.410 . S
C395 C403 1.503 1_556 S
C396 C395 1.410 . S
C396 C397 1.392 . S
C396 C399 1.511 . S
C397 C393 1.376 . S
C397 C396 1.392 . S
C397 H409 0.929 . S
C398 C394 1.531 . S
C398 H410 0.960 . S
C398 H411 0.962 . S
C398 H412 0.960 . S
C399 C396 1.511 . S
C399 H413 0.961 . S
C399 H414 0.961 1_556 S
C399 H415 0.961 . S
C400 C401 1.370 . S
C400 C402 1.363 . S
C400 H416 0.931 . S
C401 C400 1.370 . S
C401 C405 1.408 . S
C402 C400 1.363 . S
C402 C403 1.370 . S
C402 C406 1.524 . S
C403 C395 1.503 1_554 S
C403 C402 1.370 . S
C403 C404 1.403 . S
C404 C403 1.403 . S
C404 C405 1.404 . S
C404 C407 1.539 1_554 S
C405 C401 1.408 . S
C405 C404 1.404 . S
C405 H417 0.930 . S
C406 C402 1.524 . S
C406 H418 0.956 . S
C406 H419 0.961 . S
C406 H420 0.961 . S
C407 C404 1.539 1_556 S
C407 H421 0.958 . S
C407 H422 0.961 . S
C407 H423 0.960 . S
H408 C392 0.931 . S
H409 C397 0.929 . S
H410 C398 0.960 . S
H411 C398 0.962 . S
H412 C398 0.960 . S
H413 C399 0.961 . S
H414 C399 0.961 1_554 S
H415 C399 0.961 . S
H416 C400 0.931 . S
H417 C405 0.930 . S
H418 C406 0.956 . S
H419 C406 0.961 . S
H420 C406 0.961 . S
H421 C407 0.958 . S
H422 C407 0.961 . S
H423 C407 0.960 . S
C424 C425 1.391 . S
C424 C426 1.394 . S
C424 H440 0.931 . S
C425 C424 1.391 . S
C425 C429 1.376 . S
C426 C424 1.394 . S
C426 C427 1.369 . S
C426 C430 1.531 . S
C427 C426 1.369 . S
C427 C428 1.410 . S
C427 C435 1.503 . S
C428 C427 1.410 . S
C428 C429 1.392 . S
C428 C431 1.511 . S
C429 C425 1.376 . S
C429 C428 1.392 . S
C429 H441 0.929 . S
C430 C426 1.531 . S
C430 H442 0.960 . S
C430 H443 0.962 . S
C430 H444 0.960 . S
C431 C428 1.511 . S
C431 H445 0.961 . S
C431 H446 0.961 . S
C431 H447 0.961 . S
C432 C433 1.370 . S
C432 C434 1.363 . S
C432 H448 0.931 . S
C433 C432 1.370 . S
C433 C437 1.408 . S
C434 C432 1.363 . S
C434 C435 1.370 . S
C434 C438 1.524 . S
C435 C427 1.503 . S
C435 C434 1.370 . S
C435 C436 1.403 . S
C436 C435 1.403 . S
C436 C437 1.404 . S
C436 C439 1.539 . S
C437 C433 1.408 . S
C437 C436 1.404 . S
C437 H449 0.930 . S
C438 C434 1.524 . S
C438 H450 0.956 . S
C438 H451 0.961 . S
C438 H452 0.961 . S
C439 C436 1.539 . S
C439 H453 0.958 . S
C439 H454 0.961 . S
C439 H455 0.960 . S
H440 C424 0.931 . S
H441 C429 0.929 . S
H442 C430 0.960 . S
H443 C430 0.962 . S
H444 C430 0.960 . S
H445 C431 0.961 . S
H446 C431 0.961 . S
H447 C431 0.961 . S
H448 C432 0.931 . S
H449 C437 0.930 . S
H450 C438 0.956 . S
H451 C438 0.961 . S
H452 C438 0.961 . S
H453 C439 0.958 . S
H454 C439 0.961 . S
H455 C439 0.960 . S
C456 C457 1.391 . S
C456 C458 1.394 . S
C456 H472 0.931 . S
C457 C456 1.391 . S
C457 C461 1.376 . S
C458 C456 1.394 . S
C458 C459 1.369 . S
C458 C462 1.531 . S
C459 C458 1.369 . S
C459 C460 1.410 . S
C459 C467 1.503 1_556 S
C460 C459 1.410 . S
C460 C461 1.392 . S
C460 C463 1.511 1_556 S
C461 C457 1.376 . S
C461 C460 1.392 . S
C461 H473 0.929 . S
C462 C458 1.531 . S
C462 H474 0.960 . S
C462 H475 0.962 . S
C462 H476 0.960 . S
C463 C460 1.511 1_554 S
C463 H477 0.961 . S
C463 H478 0.961 . S
C463 H479 0.961 . S
C464 C465 1.370 . S
C464 C466 1.363 . S
C464 H480 0.931 . S
C465 C464 1.370 . S
C465 C469 1.408 . S
C466 C464 1.363 . S
C466 C467 1.370 . S
C466 C470 1.524 . S
C467 C459 1.503 1_554 S
C467 C466 1.370 . S
C467 C468 1.403 1_554 S
C468 C467 1.403 1_556 S
C468 C469 1.404 1_556 S
C468 C471 1.539 . S
C469 C465 1.408 . S
C469 C468 1.404 1_554 S
C469 H481 0.930 . S
C470 C466 1.524 . S
C470 H482 0.956 . S
C470 H483 0.961 . S
C470 H484 0.961 . S
C471 C468 1.539 . S
C471 H485 0.958 . S
C471 H486 0.961 . S
C471 H487 0.960 . S
H472 C456 0.931 . S
H473 C461 0.929 . S
H474 C462 0.960 . S
H475 C462 0.962 . S
H476 C462 0.960 . S
H477 C463 0.961 . S
H478 C463 0.961 . S
H479 C463 0.961 . S
H480 C464 0.931 . S
H481 C469 0.930 . S
H482 C470 0.956 . S
H483 C470 0.961 . S
H484 C470 0.961 . S
H485 C471 0.958 . S
H486 C471 0.961 . S
H487 C471 0.960 . S
C488 C489 1.391 . S
C488 C490 1.394 . S
C488 H504 0.931 . S
C489 C488 1.391 . S
C489 C493 1.376 . S
C490 C488 1.394 . S
C490 C491 1.369 . S
C490 C494 1.531 . S
C491 C490 1.369 . S
C491 C492 1.410 . S
C491 C499 1.503 . S
C492 C491 1.410 . S
C492 C493 1.392 . S
C492 C495 1.511 . S
C493 C489 1.376 . S
C493 C492 1.392 . S
C493 H505 0.929 . S
C494 C490 1.531 . S
C494 H506 0.960 . S
C494 H507 0.962 . S
C494 H508 0.960 . S
C495 C492 1.511 . S
C495 H509 0.961 . S
C495 H510 0.961 . S
C495 H511 0.961 . S
C496 C497 1.370 . S
C496 C498 1.363 . S
C496 H512 0.931 . S
C497 C496 1.370 . S
C497 C501 1.408 . S
C498 C496 1.363 . S
C498 C499 1.370 . S
C498 C502 1.524 . S
C499 C491 1.503 . S
C499 C498 1.370 . S
C499 C500 1.403 . S
C500 C499 1.403 . S
C500 C501 1.404 . S
C500 C503 1.539 . S
C501 C497 1.408 . S
C501 C500 1.404 . S
C501 H513 0.930 . S
C502 C498 1.524 . S
C502 H514 0.956 . S
C502 H515 0.961 . S
C502 H516 0.961 . S
C503 C500 1.539 . S
C503 H517 0.958 . S
C503 H518 0.961 . S
C503 H519 0.960 . S
H504 C488 0.931 . S
H505 C493 0.929 . S
H506 C494 0.960 . S
H507 C494 0.962 . S
H508 C494 0.960 . S
H509 C495 0.961 . S
H510 C495 0.961 . S
H511 C495 0.961 . S
H512 C496 0.931 . S
H513 C501 0.930 . S
H514 C502 0.956 . S
H515 C502 0.961 . S
H516 C502 0.961 . S
H517 C503 0.958 . S
H518 C503 0.961 . S
H519 C503 0.960 . S
C520 C521 1.391 . S
C520 C522 1.394 . S
C520 H536 0.931 . S
C521 C520 1.391 . S
C521 C525 1.376 . S
C522 C520 1.394 . S
C522 C523 1.369 . S
C522 C526 1.531 1_545 S
C523 C522 1.369 . S
C523 C524 1.410 . S
C523 C531 1.503 1_546 S
C524 C523 1.410 . S
C524 C525 1.392 . S
C524 C527 1.511 1_556 S
C525 C521 1.376 . S
C525 C524 1.392 . S
C525 H537 0.929 . S
C526 C522 1.531 1_565 S
C526 H538 0.960 . S
C526 H539 0.962 . S
C526 H540 0.960 . S
C527 C524 1.511 1_554 S
C527 H541 0.961 . S
C527 H542 0.961 . S
C527 H543 0.961 . S
C528 C529 1.370 . S
C528 C530 1.363 . S
C528 H544 0.931 . S
C529 C528 1.370 . S
C529 C533 1.408 . S
C530 C528 1.363 . S
C530 C531 1.370 . S
C530 C534 1.524 1_565 S
C531 C523 1.503 1_564 S
C531 C530 1.370 . S
C531 C532 1.403 . S
C532 C531 1.403 . S
C532 C533 1.404 . S
C532 C535 1.539 1_554 S
C533 C529 1.408 . S
C533 C532 1.404 . S
C533 H545 0.930 . S
C534 C530 1.524 1_545 S
C534 H546 0.956 . S
C534 H547 0.961 . S
C534 H548 0.961 . S
C535 C532 1.539 1_556 S
C535 H549 0.958 . S
C535 H550 0.961 . S
C535 H551 0.960 . S
H536 C520 0.931 . S
H537 C525 0.929 . S
H538 C526 0.960 . S
H539 C526 0.962 . S
H540 C526 0.960 . S
H541 C527 0.961 . S
H542 C527 0.961 . S
H543 C527 0.961 . S
H544 C528 0.931 . S
H545 C533 0.930 . S
H546 C534 0.956 . S
H547 C534 0.961 . S
H548 C534 0.961 . S
H549 C535 0.958 . S
H550 C535 0.961 . S
H551 C535 0.960 . S
C552 C553 1.391 . S
C552 C554 1.394 . S
C552 H568 0.931 . S
C553 C552 1.391 . S
C553 C557 1.376 . S
C554 C552 1.394 . S
C554 C555 1.369 . S
C554 C558 1.531 . S
C555 C554 1.369 . S
C555 C556 1.410 . S
C555 C563 1.503 1_545 S
C556 C555 1.410 . S
C556 C557 1.392 . S
C556 C559 1.511 1_545 S
C557 C553 1.376 . S
C557 C556 1.392 . S
C557 H569 0.929 . S
C558 C554 1.531 . S
C558 H570 0.960 . S
C558 H571 0.962 . S
C558 H572 0.960 . S
C559 C556 1.511 1_565 S
C559 H573 0.961 . S
C559 H574 0.961 . S
C559 H575 0.961 . S
C560 C561 1.370 . S
C560 C562 1.363 . S
C560 H576 0.931 . S
C561 C560 1.370 . S
C561 C565 1.408 . S
C562 C560 1.363 . S
C562 C563 1.370 . S
C562 C566 1.524 . S
C563 C555 1.503 1_565 S
C563 C562 1.370 . S
C563 C564 1.403 . S
C564 C563 1.403 . S
C564 C565 1.404 . S
C564 C567 1.539 1_565 S
C565 C561 1.408 . S
C565 C564 1.404 . S
C565 H577 0.930 . S
C566 C562 1.524 . S
C566 H578 0.956 . S
C566 H579 0.961 . S
C566 H580 0.961 . S
C567 C564 1.539 1_545 S
C567 H581 0.958 . S
C567 H582 0.961 . S
C567 H583 0.960 . S
H568 C552 0.931 . S
H569 C557 0.929 . S
H570 C558 0.960 . S
H571 C558 0.962 . S
H572 C558 0.960 . S
H573 C559 0.961 . S
H574 C559 0.961 . S
H575 C559 0.961 . S
H576 C560 0.931 . S
H577 C565 0.930 . S
H578 C566 0.956 . S
H579 C566 0.961 . S
H580 C566 0.961 . S
H581 C567 0.958 . S
H582 C567 0.961 . S
H583 C567 0.960 . S
C584 C585 1.391 . S
C584 C586 1.394 . S
C584 H600 0.931 . S
C585 C584 1.391 . S
C585 C589 1.376 . S
C586 C584 1.394 . S
C586 C587 1.369 . S
C586 C590 1.531 1_556 S
C587 C586 1.369 . S
C587 C588 1.410 . S
C587 C595 1.503 1_546 S
C588 C587 1.410 . S
C588 C589 1.392 . S
C588 C591 1.511 1_545 S
C589 C585 1.376 . S
C589 C588 1.392 . S
C589 H601 0.929 . S
C590 C586 1.531 1_554 S
C590 H602 0.960 . S
C590 H603 0.962 . S
C590 H604 0.960 1_554 S
C591 C588 1.511 1_565 S
C591 H605 0.961 1_565 S
C591 H606 0.961 . S
C591 H607 0.961 . S
C592 C593 1.370 . S
C592 C594 1.363 . S
C592 H608 0.931 . S
C593 C592 1.370 . S
C593 C597 1.408 . S
C594 C592 1.363 . S
C594 C595 1.370 . S
C594 C598 1.524 1_565 S
C595 C587 1.503 1_564 S
C595 C594 1.370 . S
C595 C596 1.403 1_554 S
C596 C595 1.403 1_556 S
C596 C597 1.404 1_556 S
C596 C599 1.539 . S
C597 C593 1.408 . S
C597 C596 1.404 1_554 S
C597 H609 0.930 . S
C598 C594 1.524 1_545 S
C598 H610 0.956 . S
C598 H611 0.961 . S
C598 H612 0.961 . S
C599 C596 1.539 . S
C599 H613 0.958 . S
C599 H614 0.961 . S
C599 H615 0.960 . S
H600 C584 0.931 . S
H601 C589 0.929 . S
H602 C590 0.960 . S
H603 C590 0.962 . S
H604 C590 0.960 1_556 S
H605 C591 0.961 1_545 S
H606 C591 0.961 . S
H607 C591 0.961 . S
H608 C592 0.931 . S
H609 C597 0.930 . S
H610 C598 0.956 . S
H611 C598 0.961 . S
H612 C598 0.961 . S
H613 C599 0.958 . S
H614 C599 0.961 . S
H615 C599 0.960 . S
C616 C617 1.391 . S
C616 C618 1.394 . S
C616 H632 0.931 . S
C617 C616 1.391 . S
C617 C621 1.376 . S
C618 C616 1.394 . S
C618 C619 1.369 . S
C618 C622 1.531 1_545 S
C619 C618 1.369 . S
C619 C620 1.410 . S
C619 C627 1.503 1_545 S
C620 C619 1.410 . S
C620 C621 1.392 . S
C620 C623 1.511 . S
C621 C617 1.376 . S
C621 C620 1.392 . S
C621 H633 0.929 . S
C622 C618 1.531 1_565 S
C622 H634 0.960 . S
C622 H635 0.964 . S
C622 H636 0.960 . S
C623 C620 1.511 . S
C623 H637 0.961 . S
C623 H638 0.961 . S
C623 H639 0.961 . S
C624 C625 1.370 . S
C624 C626 1.363 . S
C624 H640 0.931 . S
C625 C624 1.370 . S
C625 C629 1.408 . S
C626 C624 1.363 . S
C626 C627 1.370 . S
C626 C630 1.524 1_565 S
C627 C619 1.503 1_565 S
C627 C626 1.370 . S
C627 C628 1.403 . S
C628 C627 1.403 . S
C628 C629 1.404 . S
C628 C631 1.539 . S
C629 C625 1.408 . S
C629 C628 1.404 . S
C629 H641 0.930 . S
C630 C626 1.524 1_545 S
C630 H642 0.956 . S
C630 H643 0.961 . S
C630 H644 0.961 . S
C631 C628 1.539 . S
C631 H645 0.958 . S
C631 H646 0.961 . S
C631 H647 0.960 . S
H632 C616 0.931 . S
H633 C621 0.929 . S
H634 C622 0.960 . S
H635 C622 0.964 . S
H636 C622 0.960 . S
H637 C623 0.961 . S
H638 C623 0.961 . S
H639 C623 0.961 . S
H640 C624 0.931 . S
H641 C629 0.930 . S
H642 C630 0.956 . S
H643 C630 0.961 . S
H644 C630 0.961 . S
H645 C631 0.958 . S
H646 C631 0.961 . S
H647 C631 0.960 . S
C648 C649 1.391 . S
C648 C650 1.394 . S
C648 H664 0.931 . S
C649 C648 1.391 . S
C649 C653 1.376 . S
C650 C648 1.394 . S
C650 C651 1.369 . S
C650 C654 1.531 . S
C651 C650 1.369 . S
C651 C652 1.410 . S
C651 C659 1.503 . S
C652 C651 1.410 . S
C652 C653 1.392 . S
C652 C655 1.511 . S
C653 C649 1.376 . S
C653 C652 1.392 . S
C653 H665 0.929 . S
C654 C650 1.531 . S
C654 H666 0.960 . S
C654 H667 0.962 . S
C654 H668 0.960 . S
C655 C652 1.511 . S
C655 H669 0.961 . S
C655 H670 0.961 . S
C655 H671 0.961 . S
C656 C657 1.370 1_554 S
C656 C658 1.363 . S
C656 H672 0.931 . S
C657 C656 1.370 1_556 S
C657 C661 1.408 . S
C658 C656 1.363 . S
C658 C659 1.370 . S
C658 C662 1.524 . S
C659 C651 1.503 . S
C659 C658 1.370 . S
C659 C660 1.403 1_554 S
C660 C659 1.403 1_556 S
C660 C661 1.404 . S
C660 C663 1.539 . S
C661 C657 1.408 . S
C661 C660 1.404 . S
C661 H673 0.930 . S
C662 C658 1.524 . S
C662 H674 0.956 . S
C662 H675 0.961 . S
C662 H676 0.961 . S
C663 C660 1.539 . S
C663 H677 0.958 . S
C663 H678 0.961 . S
C663 H679 0.960 . S
H664 C648 0.931 . S
H665 C653 0.929 . S
H666 C654 0.960 . S
H667 C654 0.962 . S
H668 C654 0.960 . S
H669 C655 0.961 . S
H670 C655 0.961 . S
H671 C655 0.961 . S
H672 C656 0.931 . S
H673 C661 0.930 . S
H674 C662 0.956 . S
H675 C662 0.961 . S
H676 C662 0.961 . S
H677 C663 0.958 . S
H678 C663 0.961 . S
H679 C663 0.960 . S
C680 C681 1.391 . S
C680 C682 1.394 . S
C680 H696 0.931 . S
C681 C680 1.391 . S
C681 C685 1.376 . S
C682 C680 1.394 . S
C682 C683 1.369 . S
C682 C686 1.531 . S
C683 C682 1.369 . S
C683 C684 1.410 . S
C683 C691 1.503 . S
C684 C683 1.410 . S
C684 C685 1.392 . S
C684 C687 1.511 . S
C685 C681 1.376 . S
C685 C684 1.392 . S
C685 H697 0.929 . S
C686 C682 1.531 . S
C686 H698 0.960 . S
C686 H699 0.962 . S
C686 H700 0.960 . S
C687 C684 1.511 . S
C687 H701 0.961 . S
C687 H702 0.961 . S
C687 H703 0.961 . S
C688 C689 1.370 . S
C688 C690 1.363 . S
C688 H704 0.931 . S
C689 C688 1.370 . S
C689 C693 1.408 . S
C690 C688 1.363 . S
C690 C691 1.370 . S
C690 C694 1.524 . S
C691 C683 1.503 . S
C691 C690 1.370 . S
C691 C692 1.403 . S
C692 C691 1.403 . S
C692 C693 1.404 . S
C692 C695 1.539 . S
C693 C689 1.408 . S
C693 C692 1.404 . S
C693 H705 0.930 . S
C694 C690 1.524 . S
C694 H706 0.956 . S
C694 H707 0.961 . S
C694 H708 0.961 . S
C695 C692 1.539 . S
C695 H709 0.958 . S
C695 H710 0.961 . S
C695 H711 0.960 . S
H696 C680 0.931 . S
H697 C685 0.929 . S
H698 C686 0.960 . S
H699 C686 0.962 . S
H700 C686 0.960 . S
H701 C687 0.961 . S
H702 C687 0.961 . S
H703 C687 0.961 . S
H704 C688 0.931 . S
H705 C693 0.930 . S
H706 C694 0.956 . S
H707 C694 0.961 . S
H708 C694 0.961 . S
H709 C695 0.958 . S
H710 C695 0.961 . S
H711 C695 0.960 . S
C712 C713 1.391 1_556 S
C712 C714 1.394 . S
C712 H728 0.931 . S
C713 C712 1.391 1_554 S
C713 C717 1.376 . S
C714 C712 1.394 . S
C714 C715 1.369 . S
C714 C718 1.531 . S
C715 C714 1.369 . S
C715 C716 1.410 1_556 S
C715 C723 1.503 . S
C716 C715 1.410 1_554 S
C716 C717 1.392 . S
C716 C719 1.511 . S
C717 C713 1.376 . S
C717 C716 1.392 . S
C717 H729 0.929 . S
C718 C714 1.531 . S
C718 H730 0.960 . S
C718 H731 0.962 . S
C718 H732 0.960 . S
C719 C716 1.511 . S
C719 H733 0.961 . S
C719 H734 0.961 . S
C719 H735 0.961 . S
C720 C721 1.370 . S
C720 C722 1.363 . S
C720 H736 0.931 . S
C721 C720 1.370 . S
C721 C725 1.408 . S
C722 C720 1.363 . S
C722 C723 1.370 . S
C722 C726 1.524 . S
C723 C715 1.503 . S
C723 C722 1.370 . S
C723 C724 1.403 . S
C724 C723 1.403 . S
C724 C725 1.404 . S
C724 C727 1.539 . S
C725 C721 1.408 . S
C725 C724 1.404 . S
C725 H737 0.930 . S
C726 C722 1.524 . S
C726 H738 0.956 . S
C726 H739 0.961 . S
C726 H740 0.961 . S
C727 C724 1.539 . S
C727 H741 0.958 . S
C727 H742 0.961 . S
C727 H743 0.960 . S
H728 C712 0.931 . S
H729 C717 0.929 . S
H730 C718 0.960 . S
H731 C718 0.962 . S
H732 C718 0.960 . S
H733 C719 0.961 . S
H734 C719 0.961 . S
H735 C719 0.961 . S
H736 C720 0.931 . S
H737 C725 0.930 . S
H738 C726 0.956 . S
H739 C726 0.961 . S
H740 C726 0.961 . S
H741 C727 0.958 . S
H742 C727 0.961 . S
H743 C727 0.960 . S
C744 C745 1.391 . S
C744 C746 1.394 . S
C744 H760 0.931 . S
C745 C744 1.391 . S
C745 C749 1.376 . S
C746 C744 1.394 . S
C746 C747 1.369 . S
C746 C750 1.531 . S
C747 C746 1.369 . S
C747 C748 1.410 . S
C747 C755 1.503 . S
C748 C747 1.410 . S
C748 C749 1.392 . S
C748 C751 1.511 . S
C749 C745 1.376 . S
C749 C748 1.392 . S
C749 H761 0.929 . S
C750 C746 1.531 . S
C750 H762 0.960 . S
C750 H763 0.962 . S
C750 H764 0.960 . S
C751 C748 1.511 . S
C751 H765 0.961 . S
C751 H766 0.961 . S
C751 H767 0.961 . S
C752 C753 1.370 . S
C752 C754 1.363 . S
C752 H768 0.931 . S
C753 C752 1.370 . S
C753 C757 1.408 . S
C754 C752 1.363 . S
C754 C755 1.370 . S
C754 C758 1.524 . S
C755 C747 1.503 . S
C755 C754 1.370 . S
C755 C756 1.403 . S
C756 C755 1.403 . S
C756 C757 1.404 . S
C756 C759 1.539 . S
C757 C753 1.408 . S
C757 C756 1.404 . S
C757 H769 0.930 . S
C758 C754 1.524 . S
C758 H770 0.956 . S
C758 H771 0.961 . S
C758 H772 0.961 . S
C759 C756 1.539 . S
C759 H773 0.958 . S
C759 H774 0.961 . S
C759 H775 0.960 . S
H760 C744 0.931 . S
H761 C749 0.929 . S
H762 C750 0.960 . S
H763 C750 0.962 . S
H764 C750 0.960 . S
H765 C751 0.961 . S
H766 C751 0.961 . S
H767 C751 0.961 . S
H768 C752 0.931 . S
H769 C757 0.930 . S
H770 C758 0.956 . S
H771 C758 0.961 . S
H772 C758 0.961 . S
H773 C759 0.958 . S
H774 C759 0.961 . S
H775 C759 0.960 . S
C776 C777 1.391 1_554 S
C776 C778 1.394 . S
C776 H792 0.931 . S
C777 C776 1.391 1_556 S
C777 C781 1.376 . S
C778 C776 1.394 . S
C778 C779 1.369 . S
C778 C782 1.531 . S
C779 C778 1.369 . S
C779 C780 1.410 1_554 S
C779 C787 1.503 . S
C780 C779 1.410 1_556 S
C780 C781 1.392 . S
C780 C783 1.511 . S
C781 C777 1.376 . S
C781 C780 1.392 . S
C781 H793 0.929 . S
C782 C778 1.531 . S
C782 H794 0.960 . S
C782 H795 0.962 . S
C782 H796 0.960 . S
C783 C780 1.511 . S
C783 H797 0.961 . S
C783 H798 0.961 1_556 S
C783 H799 0.961 1_556 S
C784 C785 1.370 . S
C784 C786 1.363 . S
C784 H800 0.931 . S
C785 C784 1.370 . S
C785 C789 1.408 . S
C786 C784 1.363 . S
C786 C787 1.370 . S
C786 C790 1.524 . S
C787 C779 1.503 . S
C787 C786 1.370 . S
C787 C788 1.403 . S
C788 C787 1.403 . S
C788 C789 1.404 . S
C788 C791 1.539 . S
C789 C785 1.408 . S
C789 C788 1.404 . S
C789 H801 0.930 . S
C790 C786 1.524 . S
C790 H802 0.956 . S
C790 H803 0.961 1_554 S
C790 H804 0.961 . S
C791 C788 1.539 . S
C791 H805 0.958 . S
C791 H806 0.961 . S
C791 H807 0.960 . S
H792 C776 0.931 . S
H793 C781 0.929 . S
H794 C782 0.960 . S
H795 C782 0.962 . S
H796 C782 0.960 . S
H797 C783 0.961 . S
H798 C783 0.961 1_554 S
H799 C783 0.961 1_554 S
H800 C784 0.931 . S
H801 C789 0.930 . S
H802 C790 0.956 . S
H803 C790 0.961 1_556 S
H804 C790 0.961 . S
H805 C791 0.958 . S
H806 C791 0.961 . S
H807 C791 0.960 . S
C808 C809 1.391 . S
C808 C810 1.394 . S
C808 H824 0.931 . S
C809 C808 1.391 . S
C809 C813 1.376 . S
C810 C808 1.394 . S
C810 C811 1.369 . S
C810 C814 1.531 . S
C811 C810 1.369 . S
C811 C812 1.410 . S
C811 C819 1.503 . S
C812 C811 1.410 . S
C812 C813 1.392 . S
C812 C815 1.511 . S
C813 C809 1.376 . S
C813 C812 1.392 . S
C813 H825 0.929 . S
C814 C810 1.531 . S
C814 H826 0.960 . S
C814 H827 0.962 . S
C814 H828 0.960 . S
C815 C812 1.511 . S
C815 H829 0.961 . S
C815 H830 0.961 . S
C815 H831 0.961 . S
C816 C817 1.370 . S
C816 C818 1.363 . S
C816 H832 0.931 . S
C817 C816 1.370 . S
C817 C821 1.408 . S
C818 C816 1.363 . S
C818 C819 1.370 . S
C818 C822 1.524 . S
C819 C811 1.503 . S
C819 C818 1.370 . S
C819 C820 1.403 . S
C820 C819 1.403 . S
C820 C821 1.404 . S
C820 C823 1.539 . S
C821 C817 1.408 . S
C821 C820 1.404 . S
C821 H833 0.930 . S
C822 C818 1.524 . S
C822 H834 0.956 . S
C822 H835 0.961 . S
C822 H836 0.961 . S
C823 C820 1.539 . S
C823 H837 0.958 . S
C823 H838 0.961 . S
C823 H839 0.960 . S
H824 C808 0.931 . S
H825 C813 0.929 . S
H826 C814 0.960 . S
H827 C814 0.962 . S
H828 C814 0.960 . S
H829 C815 0.961 . S
H830 C815 0.961 . S
H831 C815 0.961 . S
H832 C816 0.931 . S
H833 C821 0.930 . S
H834 C822 0.956 . S
H835 C822 0.961 . S
H836 C822 0.961 . S
H837 C823 0.958 . S
H838 C823 0.961 . S
H839 C823 0.960 . S
C840 C841 1.391 . S
C840 C842 1.394 . S
C840 H856 0.931 . S
C841 C840 1.391 . S
C841 C845 1.376 . S
C842 C840 1.394 . S
C842 C843 1.369 . S
C842 C846 1.531 . S
C843 C842 1.369 . S
C843 C844 1.410 . S
C843 C851 1.503 . S
C844 C843 1.410 . S
C844 C845 1.392 . S
C844 C847 1.511 . S
C845 C841 1.376 . S
C845 C844 1.392 . S
C845 H857 0.929 . S
C846 C842 1.531 . S
C846 H858 0.960 . S
C846 H859 0.962 . S
C846 H860 0.960 . S
C847 C844 1.511 . S
C847 H861 0.961 . S
C847 H862 0.961 . S
C847 H863 0.961 . S
C848 C849 1.370 1_556 S
C848 C850 1.363 . S
C848 H864 0.931 . S
C849 C848 1.370 1_554 S
C849 C853 1.408 . S
C850 C848 1.363 . S
C850 C851 1.370 . S
C850 C854 1.524 . S
C851 C843 1.503 . S
C851 C850 1.370 . S
C851 C852 1.403 1_556 S
C852 C851 1.403 1_554 S
C852 C853 1.404 . S
C852 C855 1.539 . S
C853 C849 1.408 . S
C853 C852 1.404 . S
C853 H865 0.930 . S
C854 C850 1.524 . S
C854 H866 0.956 . S
C854 H867 0.961 . S
C854 H868 0.961 . S
C855 C852 1.539 . S
C855 H869 0.958 . S
C855 H870 0.961 . S
C855 H871 0.960 . S
H856 C840 0.931 . S
H857 C845 0.929 . S
H858 C846 0.960 . S
H859 C846 0.962 . S
H860 C846 0.960 . S
H861 C847 0.961 . S
H862 C847 0.961 . S
H863 C847 0.961 . S
H864 C848 0.931 . S
H865 C853 0.930 . S
H866 C854 0.956 . S
H867 C854 0.961 . S
H868 C854 0.961 . S
H869 C855 0.958 . S
H870 C855 0.961 . S
H871 C855 0.960 . S
C872 C873 1.391 . S
C872 C874 1.394 . S
C872 H888 0.931 . S
C873 C872 1.391 . S
C873 C877 1.376 . S
C874 C872 1.394 . S
C874 C875 1.369 . S
C874 C878 1.531 . S
C875 C874 1.369 . S
C875 C876 1.410 . S
C875 C883 1.503 . S
C876 C875 1.410 . S
C876 C877 1.392 . S
C876 C879 1.511 . S
C877 C873 1.376 . S
C877 C876 1.392 . S
C877 H889 0.929 . S
C878 C874 1.531 . S
C878 H890 0.960 . S
C878 H891 0.962 . S
C878 H892 0.960 . S
C879 C876 1.511 . S
C879 H893 0.961 . S
C879 H894 0.961 . S
C879 H895 0.961 . S
C880 C881 1.370 . S
C880 C882 1.363 . S
C880 H896 0.931 . S
C881 C880 1.370 . S
C881 C885 1.408 . S
C882 C880 1.363 . S
C882 C883 1.370 . S
C882 C886 1.524 . S
C883 C875 1.503 . S
C883 C882 1.370 . S
C883 C884 1.403 . S
C884 C883 1.403 . S
C884 C885 1.404 . S
C884 C887 1.539 . S
C885 C881 1.408 . S
C885 C884 1.404 . S
C885 H897 0.930 . S
C886 C882 1.524 . S
C886 H898 0.956 . S
C886 H899 0.961 . S
C886 H900 0.961 . S
C887 C884 1.539 . S
C887 H901 0.958 . S
C887 H902 0.961 . S
C887 H903 0.960 . S
H888 C872 0.931 . S
H889 C877 0.929 . S
H890 C878 0.960 . S
H891 C878 0.962 . S
H892 C878 0.960 . S
H893 C879 0.961 . S
H894 C879 0.961 . S
H895 C879 0.961 . S
H896 C880 0.931 . S
H897 C885 0.930 . S
H898 C886 0.956 . S
H899 C886 0.961 . S
H900 C886 0.961 . S
H901 C887 0.958 . S
H902 C887 0.961 . S
H903 C887 0.960 . S
C265 C21 1.486 . S
C273 C120 1.493 . S
C297 C54 1.494 . S
C305 C87 1.493 . S
C329 C252 1.483 . S
C337 C153 1.494 . S
C361 C186 1.482 . S
C369 C219 1.496 . S
C393 N68 1.142 . S
C401 N2 1.096 . S
C425 N101 1.066 . S
C433 N35 1.118 . S
C457 C40 1.559 . S
C465 C106 1.566 . S
C489 C7 1.571 . S
C497 C73 1.566 . S
C521 N200 1.143 . S
C529 N134 1.103 . S
C553 N167 1.066 . S
C561 N233 1.106 . S
C585 C172 1.532 . S
C593 C238 1.557 . S
C617 C205 1.553 . S
C625 C139 1.565 . S
C649 C18 1.382 . S
C657 N178 1.380 . S
C681 C51 1.379 . S
C689 N145 1.378 . S
C713 N244 1.362 . S
C721 C84 1.385 . S
C745 C117 1.403 . S
C753 N211 1.382 . S
C777 N46 1.341 . S
C785 C150 1.388 . S
C809 C183 1.399 . S
C817 N13 1.365 . S
C841 C216 1.379 . S
C849 N112 1.378 . S
C873 C249 1.394 . S
C881 N79 1.363 . S
