# Generated by pormake.
# Topology sow, (4)-cn, num edge types: 1
# Building blocks:
#     Node 0, Type 0, BuildingBlock: QUQFOY_clean_sbu_1, # of connection points: 4
#     Node 1, Type 0, BuildingBlock: QUQFOY_clean_sbu_1, # of connection points: 4
#     Node 2, Type 0, BuildingBlock: QUQFOY_clean_sbu_1, # of connection points: 4
#     Node 3, Type 0, BuildingBlock: QUQFOY_clean_sbu_1, # of connection points: 4
#     Node 4, Type 0, BuildingBlock: QUQFOY_clean_sbu_1, # of connection points: 4
#     Node 5, Type 0, BuildingBlock: QUQFOY_clean_sbu_1, # of connection points: 4
#     Node 6, Type 0, BuildingBlock: QUQFOY_clean_sbu_1, # of connection points: 4
#     Node 7, Type 0, BuildingBlock: QUQFOY_clean_sbu_1, # of connection points: 4
#     Edge 8, Type (0, 0), BuildingBlock: FUNLAD_clean_linker_0, # of connection points: 2
#     Edge 9, Type (0, 0), BuildingBlock: FUNLAD_clean_linker_0, # of connection points: 2
#     Edge 10, Type (0, 0), BuildingBlock: FUNLAD_clean_linker_0, # of connection points: 2
#     Edge 11, Type (0, 0), BuildingBlock: FUNLAD_clean_linker_0, # of connection points: 2
#     Edge 12, Type (0, 0), BuildingBlock: FUNLAD_clean_linker_0, # of connection points: 2
#     Edge 13, Type (0, 0), BuildingBlock: FUNLAD_clean_linker_0, # of connection points: 2
#     Edge 14, Type (0, 0), BuildingBlock: FUNLAD_clean_linker_0, # of connection points: 2
#     Edge 15, Type (0, 0), BuildingBlock: FUNLAD_clean_linker_0, # of connection points: 2
#     Edge 16, Type (0, 0), BuildingBlock: FUNLAD_clean_linker_0, # of connection points: 2
#     Edge 17, Type (0, 0), BuildingBlock: FUNLAD_clean_linker_0, # of connection points: 2
#     Edge 18, Type (0, 0), BuildingBlock: FUNLAD_clean_linker_0, # of connection points: 2
#     Edge 19, Type (0, 0), BuildingBlock: FUNLAD_clean_linker_0, # of connection points: 2
#     Edge 20, Type (0, 0), BuildingBlock: FUNLAD_clean_linker_0, # of connection points: 2
#     Edge 21, Type (0, 0), BuildingBlock: FUNLAD_clean_linker_0, # of connection points: 2
#     Edge 22, Type (0, 0), BuildingBlock: FUNLAD_clean_linker_0, # of connection points: 2
#     Edge 23, Type (0, 0), BuildingBlock: FUNLAD_clean_linker_0, # of connection points: 2
# Relax obj value: 0.076
# Max RMSD: 0.125
# Mean RMSD: 0.125
data_MOF--net-sow--node1-QUQFOY_clean_sbu_1--edge1-FUNLAD_clean_linker_0
_symmetry_space_group_name_H-M    P1
_symmetry_Int_Tables_number       1
_symmetry_cell_setting            triclinic
loop_
_symmetry_equiv_pos_as_xyz
'x, y, z'
_cell_length_a     40.831502
_cell_length_b     42.293052
_cell_length_c     27.646346
_cell_angle_alpha  89.987262
_cell_angle_beta   89.901211
_cell_angle_gamma 89.969148
loop_
_atom_site_label
_atom_site_type_symbol
_atom_site_fract_x
_atom_site_fract_y
_atom_site_fract_z
_atom_type_partial_charge
O0 O 0.18153 0.22319 0.07452 0.0
Cd1 Cd 0.14407 0.23572 0.02895 0.0
Cd2 Cd 0.11671 0.17771 0.07039 0.0
O3 O 0.16174 0.17896 0.1057 0.0
O4 O 0.16339 0.27074 0.98976 0.0
O5 O 0.14646 0.22589 0.95751 0.0
C6 C 0.15978 0.25336 0.95191 0.0
C7 C 0.09255 0.12824 0.05318 0.0
C8 C 0.1842 0.19981 0.10313 0.0
C9 C 0.08175 0.24117 0.08549 0.0
O10 O 0.08281 0.21134 0.09093 0.0
O11 O 0.10383 0.25575 0.062 0.0
O12 O 0.09604 0.13832 0.09675 0.0
O13 O 0.10395 0.14574 0.01879 0.0
O14 O 0.32678 0.30791 0.5744 0.0
Cd15 Cd 0.36406 0.29476 0.5287 0.0
Cd16 Cd 0.39215 0.35167 0.56853 0.0
O17 O 0.3476 0.35168 0.60541 0.0
O18 O 0.34422 0.26021 0.48932 0.0
O19 O 0.36217 0.30481 0.45732 0.0
C20 C 0.34837 0.27758 0.45155 0.0
C21 C 0.41645 0.39987 0.54493 0.0
C22 C 0.3247 0.33126 0.60315 0.0
C23 C 0.42622 0.28816 0.58479 0.0
O24 O 0.42581 0.31804 0.58972 0.0
O25 O 0.40379 0.27391 0.5617 0.0
O26 O 0.41413 0.39173 0.58966 0.0
O27 O 0.4037 0.38118 0.51318 0.0
O28 O 0.67932 0.30894 0.92722 0.0
Cd29 Cd 0.64196 0.29526 0.97239 0.0
Cd30 Cd 0.6134 0.3521 0.93285 0.0
O31 O 0.65806 0.35257 0.89628 0.0
O32 O 0.66194 0.26072 0.01171 0.0
O33 O 0.64333 0.30503 0.04386 0.0
C34 C 0.65738 0.2779 0.04958 0.0
C35 C 0.58867 0.40013 0.95643 0.0
C36 C 0.6812 0.33239 0.89861 0.0
C37 C 0.58007 0.28837 0.91571 0.0
O38 O 0.58012 0.31828 0.91119 0.0
O39 O 0.60262 0.27422 0.93874 0.0
O40 O 0.59116 0.39205 0.91169 0.0
O41 O 0.60145 0.38146 0.98821 0.0
O42 O 0.8231 0.22486 0.42717 0.0
Cd43 Cd 0.86068 0.23807 0.47205 0.0
Cd44 Cd 0.88803 0.18039 0.43344 0.0
O45 O 0.84337 0.18052 0.39709 0.0
O46 O 0.84133 0.27303 0.5113 0.0
O47 O 0.85903 0.22842 0.54354 0.0
C48 C 0.84546 0.25578 0.5492 0.0
C49 C 0.91179 0.13204 0.45756 0.0
C50 C 0.82069 0.2012 0.39908 0.0
C51 C 0.92277 0.24333 0.41517 0.0
O52 O 0.92202 0.21341 0.41113 0.0
O53 O 0.90053 0.25813 0.43803 0.0
O54 O 0.90947 0.13992 0.41273 0.0
O55 O 0.89937 0.15111 0.48915 0.0
O56 O 0.82379 0.80578 0.92743 0.0
Cd57 Cd 0.8607 0.78985 0.97157 0.0
Cd58 Cd 0.89068 0.84891 0.93269 0.0
O59 O 0.84569 0.84943 0.89736 0.0
O60 O 0.83968 0.75269 0.00354 0.0
O61 O 0.8573 0.79407 0.04442 0.0
C62 C 0.84307 0.7668 0.04445 0.0
C63 C 0.91626 0.89773 0.95015 0.0
C64 C 0.82221 0.82965 0.89964 0.0
C65 C 0.92328 0.78458 0.91458 0.0
O66 O 0.92349 0.81455 0.91122 0.0
O67 O 0.90044 0.77014 0.93667 0.0
O68 O 0.91246 0.88782 0.90655 0.0
O69 O 0.90451 0.8804 0.98448 0.0
O70 O 0.68031 0.72782 0.43367 0.0
Cd71 Cd 0.64122 0.7392 0.47708 0.0
Cd72 Cd 0.61714 0.68142 0.43629 0.0
O73 O 0.66283 0.68274 0.40254 0.0
O74 O 0.65798 0.77437 0.51828 0.0
O75 O 0.64212 0.7284 0.54818 0.0
C76 C 0.65414 0.75627 0.55532 0.0
C77 C 0.59395 0.633 0.46092 0.0
C78 C 0.68452 0.7043 0.40576 0.0
C79 C 0.58071 0.74319 0.41678 0.0
O80 O 0.58284 0.7134 0.41172 0.0
O81 O 0.60149 0.75837 0.44177 0.0
O82 O 0.59734 0.64017 0.41594 0.0
O83 O 0.60515 0.65278 0.49241 0.0
O84 O 0.32599 0.72965 0.06666 0.0
Cd85 Cd 0.36466 0.7407 0.02227 0.0
Cd86 Cd 0.38873 0.68263 0.06321 0.0
O87 O 0.3433 0.68444 0.09767 0.0
O88 O 0.34757 0.776 0.98155 0.0
O89 O 0.36272 0.72994 0.95121 0.0
C90 C 0.35075 0.75788 0.94441 0.0
C91 C 0.41151 0.63387 0.03915 0.0
C92 C 0.32179 0.7062 0.09473 0.0
C93 C 0.42583 0.74425 0.08118 0.0
O94 O 0.42342 0.71451 0.08666 0.0
O95 O 0.40498 0.75956 0.05645 0.0
O96 O 0.40845 0.64141 0.08404 0.0
O97 O 0.4002 0.65347 0.00746 0.0
O98 O 0.17949 0.80759 0.57315 0.0
Cd99 Cd 0.14317 0.79153 0.52809 0.0
Cd100 Cd 0.1127 0.84983 0.56557 0.0
O101 O 0.15685 0.85093 0.6031 0.0
O102 O 0.16483 0.7546 0.4964 0.0
O103 O 0.14728 0.79596 0.45535 0.0
C104 C 0.16174 0.76879 0.4555 0.0
C105 C 0.08784 0.89778 0.54186 0.0
C106 C 0.18053 0.83133 0.60126 0.0
C107 C 0.08 0.78577 0.58344 0.0
O108 O 0.07953 0.81574 0.58667 0.0
O109 O 0.10321 0.77148 0.56196 0.0
O110 O 0.08982 0.88951 0.58655 0.0
O111 O 0.1011 0.87931 0.51019 0.0
C112 C 0.27176 0.30976 0.63514 0.0
C113 C 0.29722 0.33207 0.63839 0.0
C114 C 0.24896 0.30645 0.67256 0.0
C115 C 0.25122 0.32525 0.71438 0.0
C116 C 0.27513 0.34913 0.71601 0.0
C117 C 0.29798 0.35247 0.67852 0.0
C118 C 0.23011 0.31984 0.75762 0.0
C119 C 0.21766 0.29119 0.76912 0.0
C120 C 0.20036 0.28358 0.81531 0.0
C121 C 0.1845 0.25417 0.81951 0.0
C122 C 0.17046 0.24462 0.86337 0.0
C123 C 0.17206 0.26426 0.90423 0.0
H124 H 0.21356 0.32611 0.85531 0.0
C125 C 0.18715 0.294 0.89985 0.0
C126 C 0.2012 0.30355 0.85607 0.0
H127 H 0.18889 0.30971 0.93068 0.0
H128 H 0.27005 0.29399 0.60437 0.0
H129 H 0.23003 0.28874 0.66882 0.0
H130 H 0.27713 0.36431 0.74744 0.0
H131 H 0.31712 0.37002 0.68214 0.0
H132 H 0.22697 0.33964 0.78206 0.0
H133 H 0.22155 0.27155 0.74451 0.0
H134 H 0.18351 0.23818 0.78893 0.0
H135 H 0.15903 0.22156 0.86549 0.0
C136 C 0.23669 0.22239 0.13479 0.0
C137 C 0.21188 0.19938 0.13788 0.0
C138 C 0.25962 0.22584 0.17187 0.0
C139 C 0.25817 0.20645 0.21317 0.0
C140 C 0.23496 0.18194 0.21457 0.0
C141 C 0.21196 0.17848 0.17744 0.0
C142 C 0.27937 0.21186 0.25619 0.0
C143 C 0.29117 0.24065 0.26827 0.0
C144 C 0.30834 0.24804 0.31453 0.0
C145 C 0.32448 0.27727 0.31894 0.0
C146 C 0.33835 0.28661 0.36295 0.0
C147 C 0.33624 0.26693 0.40374 0.0
H148 H 0.29423 0.20566 0.35429 0.0
C149 C 0.32081 0.23737 0.39916 0.0
C150 C 0.30694 0.22804 0.35523 0.0
H151 H 0.31865 0.22165 0.42993 0.0
H152 H 0.23776 0.23857 0.10445 0.0
H153 H 0.27803 0.24408 0.1683 0.0
H154 H 0.23359 0.16633 0.24559 0.0
H155 H 0.19335 0.16038 0.18091 0.0
H156 H 0.28315 0.19187 0.28008 0.0
H157 H 0.28684 0.26049 0.2442 0.0
H158 H 0.32584 0.29329 0.2884 0.0
H159 H 0.35003 0.30954 0.36525 0.0
C160 C 0.76782 0.22284 0.36724 0.0
C161 C 0.7931 0.20028 0.36422 0.0
C162 C 0.74498 0.226 0.32998 0.0
C163 C 0.747 0.20679 0.28855 0.0
C164 C 0.77067 0.18267 0.28723 0.0
C165 C 0.79357 0.17948 0.32456 0.0
C166 C 0.72597 0.21208 0.2453 0.0
C167 C 0.7138 0.24076 0.23333 0.0
C168 C 0.69683 0.24814 0.1869 0.0
C169 C 0.68038 0.27724 0.18252 0.0
C170 C 0.6667 0.28663 0.13839 0.0
C171 C 0.66931 0.26715 0.09745 0.0
H172 H 0.71167 0.20606 0.14697 0.0
C173 C 0.68504 0.23772 0.102 0.0
C174 C 0.69871 0.22833 0.14604 0.0
H175 H 0.68758 0.22214 0.07111 0.0
H176 H 0.76633 0.23891 0.39767 0.0
H177 H 0.72621 0.24392 0.3335 0.0
H178 H 0.77248 0.16719 0.25611 0.0
H179 H 0.81256 0.16172 0.32114 0.0
H180 H 0.72267 0.19215 0.22117 0.0
H181 H 0.71767 0.26055 0.25764 0.0
H182 H 0.67863 0.29311 0.21318 0.0
H183 H 0.65476 0.30946 0.13614 0.0
C184 C 0.73446 0.31148 0.86677 0.0
C185 C 0.70876 0.33356 0.86354 0.0
C186 C 0.75731 0.30842 0.82937 0.0
C187 C 0.75487 0.32727 0.7876 0.0
C188 C 0.73075 0.35097 0.78603 0.0
C189 C 0.70784 0.35404 0.8235 0.0
C190 C 0.77596 0.32203 0.74429 0.0
C191 C 0.78856 0.29344 0.73269 0.0
C192 C 0.80568 0.28594 0.68631 0.0
C193 C 0.82184 0.25668 0.68202 0.0
C194 C 0.83564 0.24717 0.63798 0.0
C195 C 0.83349 0.2667 0.59703 0.0
H196 H 0.79166 0.32826 0.64632 0.0
C197 C 0.8181 0.29631 0.60151 0.0
C198 C 0.80429 0.30582 0.64547 0.0
H199 H 0.81593 0.31193 0.57062 0.0
H200 H 0.7363 0.29566 0.89748 0.0
H201 H 0.77641 0.29086 0.83306 0.0
H202 H 0.72861 0.36617 0.75465 0.0
H203 H 0.68851 0.37143 0.8199 0.0
H204 H 0.77891 0.34186 0.71985 0.0
H205 H 0.7849 0.27377 0.75731 0.0
H206 H 0.82324 0.24077 0.71266 0.0
H207 H 0.84731 0.22421 0.63578 0.0
C208 C 0.83166 0.76821 0.13392 0.0
C209 C 0.82949 0.75256 0.08921 0.0
C210 C 0.81632 0.75569 0.17509 0.0
C211 C 0.79854 0.72718 0.17231 0.0
C212 C 0.79708 0.71131 0.12781 0.0
C213 C 0.81248 0.72371 0.08686 0.0
C214 C 0.77868 0.71475 0.21335 0.0
C215 C 0.78436 0.72167 0.26019 0.0
C216 C 0.76134 0.71322 0.30008 0.0
C217 C 0.76147 0.73182 0.34208 0.0
C218 C 0.73763 0.72763 0.37779 0.0
C219 C 0.71316 0.70448 0.37259 0.0
H220 H 0.73821 0.67266 0.26574 0.0
C221 C 0.7145 0.68418 0.33238 0.0
C222 C 0.73837 0.68844 0.2965 0.0
H223 H 0.69626 0.66588 0.32747 0.0
H224 H 0.84444 0.79056 0.13687 0.0
H225 H 0.81737 0.76916 0.20829 0.0
H226 H 0.78342 0.68946 0.12445 0.0
H227 H 0.81028 0.71099 0.05302 0.0
H228 H 0.75778 0.70022 0.20381 0.0
H229 H 0.80535 0.73615 0.26956 0.0
H230 H 0.77914 0.75073 0.3463 0.0
H231 H 0.73762 0.74348 0.40857 0.0
C232 C 0.67409 0.79847 0.61145 0.0
C233 C 0.66498 0.76682 0.60381 0.0
C234 C 0.68735 0.80808 0.65566 0.0
C235 C 0.6923 0.78606 0.69321 0.0
C236 C 0.68178 0.75472 0.68612 0.0
C237 C 0.66824 0.74519 0.642 0.0
C238 C 0.70937 0.79409 0.73938 0.0
C239 C 0.72642 0.82103 0.74709 0.0
C240 C 0.74776 0.82623 0.79012 0.0
C241 C 0.77364 0.84803 0.78653 0.0
C242 C 0.79679 0.85077 0.82356 0.0
C243 C 0.79452 0.83175 0.8651 0.0
H244 H 0.72365 0.79317 0.8389 0.0
C245 C 0.76725 0.81171 0.87033 0.0
C246 C 0.74401 0.80912 0.83346 0.0
H247 H 0.76441 0.79713 0.90228 0.0
H248 H 0.67145 0.81584 0.58292 0.0
H249 H 0.69392 0.83267 0.65953 0.0
H250 H 0.6849 0.73722 0.71438 0.0
H251 H 0.66135 0.72065 0.63735 0.0
H252 H 0.71005 0.77559 0.76653 0.0
H253 H 0.72764 0.83887 0.71903 0.0
H254 H 0.77689 0.86194 0.75396 0.0
H255 H 0.81739 0.86656 0.8184 0.0
C256 C 0.33564 0.74689 0.85809 0.0
C257 C 0.33922 0.76846 0.89628 0.0
C258 C 0.32156 0.75644 0.81434 0.0
C259 C 0.31079 0.78775 0.80763 0.0
C260 C 0.31599 0.80971 0.84514 0.0
C261 C 0.32981 0.80008 0.88899 0.0
C262 C 0.2934 0.79587 0.76178 0.0
C263 C 0.27553 0.82243 0.75495 0.0
C264 C 0.25422 0.82776 0.71191 0.0
C265 C 0.22772 0.84885 0.71594 0.0
C266 C 0.20476 0.85168 0.67865 0.0
C267 C 0.20784 0.83345 0.63641 0.0
H268 H 0.27954 0.79614 0.66223 0.0
C269 C 0.23566 0.81414 0.63087 0.0
C270 C 0.25871 0.81148 0.66798 0.0
H271 H 0.23912 0.80019 0.5984 0.0
H272 H 0.34273 0.72237 0.86247 0.0
H273 H 0.31826 0.73899 0.78607 0.0
H274 H 0.30927 0.83429 0.84143 0.0
H275 H 0.33269 0.81742 0.9175 0.0
H276 H 0.29325 0.77772 0.73408 0.0
H277 H 0.27369 0.83977 0.78368 0.0
H278 H 0.22388 0.86213 0.74899 0.0
H279 H 0.1837 0.86687 0.68407 0.0
C280 C 0.29209 0.68652 0.16864 0.0
C281 C 0.29332 0.70664 0.1282 0.0
C282 C 0.26829 0.69093 0.20458 0.0
C283 C 0.24525 0.71567 0.20081 0.0
C284 C 0.24506 0.73413 0.15866 0.0
C285 C 0.26885 0.72981 0.1229 0.0
C286 C 0.22214 0.72415 0.24057 0.0
C287 C 0.22776 0.71734 0.28748 0.0
C288 C 0.20762 0.72967 0.32831 0.0
C289 C 0.20896 0.7138 0.37283 0.0
C290 C 0.19316 0.72604 0.41355 0.0
C291 C 0.17586 0.75475 0.41097 0.0
H292 H 0.18865 0.77153 0.29208 0.0
C293 C 0.17387 0.77042 0.36624 0.0
C294 C 0.18961 0.75806 0.3253 0.0
H295 H 0.16089 0.79267 0.36312 0.0
H296 H 0.31035 0.66823 0.17364 0.0
H297 H 0.26851 0.67526 0.23549 0.0
H298 H 0.22735 0.75301 0.15431 0.0
H299 H 0.26877 0.74552 0.09196 0.0
H300 H 0.20108 0.73851 0.23102 0.0
H301 H 0.24872 0.70293 0.29721 0.0
H302 H 0.2228 0.69205 0.37637 0.0
H303 H 0.19525 0.71332 0.44742 0.0
C304 C 0.06609 0.28586 0.13947 0.0
C305 C 0.05691 0.259 0.11285 0.0
C306 C 0.04522 0.29799 0.17513 0.0
C307 C 0.01462 0.28384 0.18363 0.0
C308 C 0.00424 0.25903 0.15369 0.0
C309 C 0.02545 0.24632 0.11913 0.0
C310 C 0.99495 0.29131 0.22711 0.0
C311 C 0.00887 0.29174 0.27121 0.0
C312 C 0.98929 0.28482 0.31499 0.0
C313 C 0.95853 0.29881 0.32294 0.0
C314 C 0.93784 0.28714 0.35916 0.0
C315 C 0.94736 0.26087 0.38692 0.0
H316 H 0.02364 0.24959 0.34047 0.0
C317 C 0.97896 0.24838 0.3811 0.0
C318 C 0.99998 0.26066 0.34595 0.0
H319 H 0.98679 0.22812 0.40213 0.0
H320 H 0.09035 0.29591 0.13545 0.0
H321 H 0.05357 0.31737 0.19753 0.0
H322 H 0.98071 0.24782 0.15961 0.0
H323 H 0.01787 0.22561 0.09898 0.0
H324 H 0.96848 0.28921 0.22419 0.0
H325 H 0.03537 0.28994 0.27418 0.0
H326 H 0.94994 0.3177 0.29973 0.0
H327 H 0.91347 0.29702 0.36281 0.0
C328 C 0.44083 0.24323 0.6389 0.0
C329 C 0.4506 0.26998 0.61241 0.0
C330 C 0.46119 0.23089 0.67492 0.0
C331 C 0.49186 0.24471 0.68394 0.0
C332 C 0.50287 0.26933 0.65407 0.0
C333 C 0.48218 0.28225 0.61912 0.0
C334 C 0.51085 0.23727 0.72799 0.0
C335 C 0.49627 0.23715 0.77173 0.0
C336 C 0.51516 0.24468 0.81583 0.0
C337 C 0.546 0.23116 0.82479 0.0
C338 C 0.56615 0.24358 0.86099 0.0
C339 C 0.55599 0.2701 0.88772 0.0
H340 H 0.48006 0.27977 0.83961 0.0
C341 C 0.52427 0.28206 0.88102 0.0
C342 C 0.5038 0.26906 0.84588 0.0
H343 H 0.51593 0.30248 0.90126 0.0
H344 H 0.41648 0.23348 0.63453 0.0
H345 H 0.45235 0.21164 0.69726 0.0
H346 H 0.52647 0.28029 0.66038 0.0
H347 H 0.49022 0.30286 0.59905 0.0
H348 H 0.53736 0.23935 0.72577 0.0
H349 H 0.46974 0.23894 0.77393 0.0
H350 H 0.55511 0.21211 0.80231 0.0
H351 H 0.59061 0.23407 0.86535 0.0
C352 C 0.06535 0.74125 0.63846 0.0
C353 C 0.05557 0.76767 0.61124 0.0
C354 C 0.04475 0.72901 0.67435 0.0
C355 C 0.01383 0.74261 0.68258 0.0
C356 C 0.00288 0.76689 0.65204 0.0
C357 C 0.02378 0.77969 0.61717 0.0
C358 C 0.99437 0.73522 0.72631 0.0
C359 C 0.00844 0.73495 0.77033 0.0
C360 C 0.98904 0.74206 0.81422 0.0
C361 C 1.00015 0.766 0.84523 0.0
C362 C 0.97937 0.77857 0.88046 0.0
C363 C 0.94755 0.76663 0.88628 0.0
H364 H 0.94914 0.70981 0.79906 0.0
C365 C 0.93759 0.74054 0.85851 0.0
C366 C 0.95807 0.72855 0.82225 0.0
H367 H 0.91307 0.73105 0.86218 0.0
H368 H 0.08983 0.73165 0.63469 0.0
H369 H 0.05355 0.70999 0.69716 0.0
H370 H 0.97908 0.77765 0.65769 0.0
H371 H 0.01569 0.80002 0.59651 0.0
H372 H 0.96788 0.73726 0.72357 0.0
H373 H 0.03494 0.73675 0.77308 0.0
H374 H 0.02398 0.77669 0.83972 0.0
H375 H 0.98757 0.79866 0.90151 0.0
C376 C 0.48154 0.74762 0.11706 0.0
C377 C 0.45059 0.7612 0.10977 0.0
C378 C 0.50241 0.75956 0.15256 0.0
C379 C 0.49214 0.78448 0.18243 0.0
C380 C 0.46209 0.79946 0.17306 0.0
C381 C 0.44161 0.78812 0.13645 0.0
C382 C 0.51117 0.79128 0.22664 0.0
C383 C 0.49653 0.79127 0.27031 0.0
C384 C 0.51543 0.78408 0.3145 0.0
C385 C 0.50474 0.75928 0.34429 0.0
C386 C 0.5253 0.74709 0.38 0.0
C387 C 0.55638 0.7603 0.38759 0.0
H388 H 0.55424 0.81798 0.3017 0.0
C389 C 0.56583 0.78705 0.36088 0.0
C390 C 0.54565 0.79864 0.32406 0.0
H391 H 0.58982 0.79747 0.36589 0.0
H392 H 0.48892 0.72682 0.0969 0.0
H393 H 0.52551 0.7477 0.1592 0.0
H394 H 0.45384 0.81891 0.19547 0.0
H395 H 0.41772 0.79883 0.13167 0.0
H396 H 0.53767 0.78911 0.22445 0.0
H397 H 0.46999 0.78943 0.27245 0.0
H398 H 0.4815 0.74775 0.3375 0.0
H399 H 0.51756 0.72642 0.40017 0.0
C400 C 0.0655 0.0897 0.99633 0.0
C401 C 0.0745 0.0984 0.04355 0.0
C402 C 0.04632 0.06269 0.9882 0.0
C403 C 0.0357 0.04379 0.02724 0.0
C404 C 0.04566 0.05204 0.07415 0.0
C405 C 0.06461 0.07904 0.08227 0.0
C406 C 0.01483 0.01508 0.02092 0.0
C407 C 0.99511 1.01016 0.98251 0.0
C408 C 0.97416 0.98151 0.97617 0.0
C409 C 0.96408 0.97339 0.92927 0.0
C410 C 0.94488 0.94656 0.92113 0.0
C411 C 0.93485 0.92725 0.95982 0.0
H412 H 0.96975 0.9685 0.05208 0.0
C413 C 0.94404 0.93578 0.00703 0.0
C414 C 0.96349 0.96261 0.01518 0.0
H415 H 0.9366 0.9215 0.03766 0.0
H416 H 0.07285 0.104 0.96568 0.0
H417 H 0.04018 0.0567 0.95129 0.0
H418 H 0.03825 0.03782 0.10489 0.0
H419 H 0.07119 0.08491 0.11912 0.0
H420 H 0.01543 0.99773 0.04983 0.0
H421 H 0.9945 0.02753 0.95362 0.0
H422 H 0.97154 0.9876 0.89855 0.0
H423 H 0.93815 0.94082 0.88428 0.0
C424 C 0.56289 0.58371 0.43997 0.0
C425 C 0.576 0.60392 0.47541 0.0
C426 C 0.54391 0.5575 0.45303 0.0
C427 C 0.53738 0.55088 0.50203 0.0
C428 C 0.55136 0.57054 0.53745 0.0
C429 C 0.57031 0.59683 0.52436 0.0
C430 C 0.51685 0.52347 0.51772 0.0
C431 C 0.49427 0.50924 0.48934 0.0
C432 C 0.47365 0.48182 0.50486 0.0
C433 C 0.45876 0.46294 0.46925 0.0
C434 C 0.43964 0.4367 0.48204 0.0
C435 C 0.43473 0.42885 0.53089 0.0
H436 H 0.47784 0.48879 0.58262 0.0
C437 C 0.44883 0.44823 0.56658 0.0
C438 C 0.46795 0.47441 0.55383 0.0
H439 H 0.44535 0.44304 0.60462 0.0
H440 H 0.56699 0.58829 0.40189 0.0
H441 H 0.53474 0.54245 0.42449 0.0
H442 H 0.54714 0.56588 0.5755 0.0
H443 H 0.58007 0.61184 0.55261 0.0
H444 H 0.5204 0.51524 0.55449 0.0
H445 H 0.49073 0.5176 0.45263 0.0
H446 H 0.46235 0.46819 0.43125 0.0
H447 H 0.42912 0.42234 0.4536 0.0
C448 C 0.44248 0.58457 0.06058 0.0
C449 C 0.42926 0.6046 0.02496 0.0
C450 C 0.46132 0.55821 0.04775 0.0
C451 C 0.4676 0.55125 0.9988 0.0
C452 C 0.45351 0.57073 0.9632 0.0
C453 C 0.4347 0.59717 0.97606 0.0
C454 C 0.48804 0.5237 0.98331 0.0
C455 C 0.51065 0.5095 0.01172 0.0
C456 C 0.53124 0.48203 0.99629 0.0
C457 C 0.54612 0.46315 0.03196 0.0
C458 C 0.56528 0.43692 0.01925 0.0
C459 C 0.57024 0.42905 0.97041 0.0
H460 H 0.52708 0.48896 0.91852 0.0
C461 C 0.55612 0.4484 0.93467 0.0
C462 C 0.53697 0.47458 0.94735 0.0
H463 H 0.55964 0.44321 0.89665 0.0
H464 H 0.43858 0.58942 0.09863 0.0
H465 H 0.47058 0.54332 0.07644 0.0
H466 H 0.45754 0.56581 0.92519 0.0
H467 H 0.42485 0.61203 0.94768 0.0
H468 H 0.4844 0.51533 0.94664 0.0
H469 H 0.51428 0.51797 0.04835 0.0
H470 H 0.54252 0.46844 0.06995 0.0
H471 H 0.57581 0.42258 0.04771 0.0
C472 C 0.05493 0.94588 0.56341 0.0
C473 C 0.06955 0.92674 0.52778 0.0
C474 C 0.03604 0.9722 0.55058 0.0
C475 C 0.0311 0.98 0.50161 0.0
C476 C 0.04645 0.96131 0.46608 0.0
C477 C 0.06534 0.93494 0.47893 0.0
C478 C 0.01088 1.00767 0.48602 0.0
C479 C 0.98789 0.02177 0.51399 0.0
C480 C 0.96775 0.04946 0.49832 0.0
C481 C 0.95294 0.0686 0.53378 0.0
C482 C 0.93425 0.09507 0.52077 0.0
C483 C 0.92968 0.1029 0.47185 0.0
H484 H 0.97224 0.04226 0.42064 0.0
C485 C 0.94369 0.08326 0.43632 0.0
C486 C 0.9624 0.05685 0.4493 0.0
H487 H 0.94046 0.08841 0.39824 0.0
H488 H 0.05787 0.94044 0.60144 0.0
H489 H 0.02577 0.98641 0.57935 0.0
H490 H 0.04345 0.96686 0.42808 0.0
H491 H 0.07629 0.92077 0.45056 0.0
H492 H 0.01512 0.01635 0.44963 0.0
H493 H 0.98366 1.01316 0.55041 0.0
H494 H 0.95626 0.06335 0.57182 0.0
H495 H 0.92377 0.10962 0.54908 0.0
loop_
_geom_bond_atom_site_label_1
_geom_bond_atom_site_label_2
_geom_bond_distance
_geom_bond_site_symmetry_2
_ccdc_geom_bond_type
O0 Cd1 2.223 . S
O0 C8 1.315 . S
Cd1 O0 2.223 . S
Cd1 O4 2.297 1_554 S
Cd1 O5 2.439 1_554 S
Cd1 O11 2.240 . S
Cd2 O3 2.240 . S
Cd2 O10 2.223 . S
Cd2 O12 2.297 . S
Cd2 O13 2.439 . S
O3 Cd2 2.240 . S
O3 C8 1.279 . S
O4 Cd1 2.297 1_556 S
O4 C6 1.247 . S
O5 Cd1 2.439 1_556 S
O5 C6 1.208 . S
C6 O4 1.247 . S
C6 O5 1.208 . S
C7 O12 1.247 . S
C7 O13 1.208 . S
C8 O0 1.315 . S
C8 O3 1.279 . S
C9 O10 1.315 . S
C9 O11 1.279 . S
O10 Cd2 2.223 . S
O10 C9 1.315 . S
O11 Cd1 2.240 . S
O11 C9 1.279 . S
O12 Cd2 2.297 . S
O12 C7 1.247 . S
O13 Cd2 2.439 . S
O13 C7 1.208 . S
O14 Cd15 2.223 . S
O14 C22 1.315 . S
Cd15 O14 2.223 . S
Cd15 O18 2.297 . S
Cd15 O19 2.439 . S
Cd15 O25 2.240 . S
Cd16 O17 2.240 . S
Cd16 O24 2.223 . S
Cd16 O26 2.297 . S
Cd16 O27 2.439 . S
O17 Cd16 2.240 . S
O17 C22 1.279 . S
O18 Cd15 2.297 . S
O18 C20 1.247 . S
O19 Cd15 2.439 . S
O19 C20 1.208 . S
C20 O18 1.247 . S
C20 O19 1.208 . S
C21 O26 1.247 . S
C21 O27 1.208 . S
C22 O14 1.315 . S
C22 O17 1.279 . S
C23 O24 1.315 . S
C23 O25 1.279 . S
O24 Cd16 2.223 . S
O24 C23 1.315 . S
O25 Cd15 2.240 . S
O25 C23 1.279 . S
O26 Cd16 2.297 . S
O26 C21 1.247 . S
O27 Cd16 2.439 . S
O27 C21 1.208 . S
O28 Cd29 2.223 . S
O28 C36 1.315 . S
Cd29 O28 2.223 . S
Cd29 O32 2.297 1_556 S
Cd29 O33 2.439 1_556 S
Cd29 O39 2.240 . S
Cd30 O31 2.240 . S
Cd30 O38 2.223 . S
Cd30 O40 2.297 . S
Cd30 O41 2.439 . S
O31 Cd30 2.240 . S
O31 C36 1.279 . S
O32 Cd29 2.297 1_554 S
O32 C34 1.247 . S
O33 Cd29 2.439 1_554 S
O33 C34 1.208 . S
C34 O32 1.247 . S
C34 O33 1.208 . S
C35 O40 1.247 . S
C35 O41 1.208 . S
C36 O28 1.315 . S
C36 O31 1.279 . S
C37 O38 1.315 . S
C37 O39 1.279 . S
O38 Cd30 2.223 . S
O38 C37 1.315 . S
O39 Cd29 2.240 . S
O39 C37 1.279 . S
O40 Cd30 2.297 . S
O40 C35 1.247 . S
O41 Cd30 2.439 . S
O41 C35 1.208 . S
O42 Cd43 2.223 . S
O42 C50 1.315 . S
Cd43 O42 2.223 . S
Cd43 O46 2.297 . S
Cd43 O47 2.439 . S
Cd43 O53 2.240 . S
Cd44 O45 2.240 . S
Cd44 O52 2.223 . S
Cd44 O54 2.297 . S
Cd44 O55 2.439 . S
O45 Cd44 2.240 . S
O45 C50 1.279 . S
O46 Cd43 2.297 . S
O46 C48 1.247 . S
O47 Cd43 2.439 . S
O47 C48 1.208 . S
C48 O46 1.247 . S
C48 O47 1.208 . S
C49 O54 1.247 . S
C49 O55 1.208 . S
C50 O42 1.315 . S
C50 O45 1.279 . S
C51 O52 1.315 . S
C51 O53 1.279 . S
O52 Cd44 2.223 . S
O52 C51 1.315 . S
O53 Cd43 2.240 . S
O53 C51 1.279 . S
O54 Cd44 2.297 . S
O54 C49 1.247 . S
O55 Cd44 2.439 . S
O55 C49 1.208 . S
O56 Cd57 2.223 . S
O56 C64 1.315 . S
Cd57 O56 2.223 . S
Cd57 O60 2.297 1_556 S
Cd57 O61 2.439 1_556 S
Cd57 O67 2.240 . S
Cd58 O59 2.240 . S
Cd58 O66 2.223 . S
Cd58 O68 2.297 . S
Cd58 O69 2.439 . S
O59 Cd58 2.240 . S
O59 C64 1.279 . S
O60 Cd57 2.297 1_554 S
O60 C62 1.247 . S
O61 Cd57 2.439 1_554 S
O61 C62 1.208 . S
C62 O60 1.247 . S
C62 O61 1.208 . S
C63 O68 1.247 . S
C63 O69 1.208 . S
C64 O56 1.315 . S
C64 O59 1.279 . S
C65 O66 1.315 . S
C65 O67 1.279 . S
O66 Cd58 2.223 . S
O66 C65 1.315 . S
O67 Cd57 2.240 . S
O67 C65 1.279 . S
O68 Cd58 2.297 . S
O68 C63 1.247 . S
O69 Cd58 2.439 . S
O69 C63 1.208 . S
O70 Cd71 2.223 . S
O70 C78 1.315 . S
Cd71 O70 2.223 . S
Cd71 O74 2.297 . S
Cd71 O75 2.439 . S
Cd71 O81 2.240 . S
Cd72 O73 2.240 . S
Cd72 O80 2.223 . S
Cd72 O82 2.297 . S
Cd72 O83 2.439 . S
O73 Cd72 2.240 . S
O73 C78 1.279 . S
O74 Cd71 2.297 . S
O74 C76 1.247 . S
O75 Cd71 2.439 . S
O75 C76 1.208 . S
C76 O74 1.247 . S
C76 O75 1.208 . S
C77 O82 1.247 . S
C77 O83 1.208 . S
C78 O70 1.315 . S
C78 O73 1.279 . S
C79 O80 1.315 . S
C79 O81 1.279 . S
O80 Cd72 2.223 . S
O80 C79 1.315 . S
O81 Cd71 2.240 . S
O81 C79 1.279 . S
O82 Cd72 2.297 . S
O82 C77 1.247 . S
O83 Cd72 2.439 . S
O83 C77 1.208 . S
O84 Cd85 2.223 . S
O84 C92 1.315 . S
Cd85 O84 2.223 . S
Cd85 O88 2.297 1_554 S
Cd85 O89 2.439 1_554 S
Cd85 O95 2.240 . S
Cd86 O87 2.240 . S
Cd86 O94 2.223 . S
Cd86 O96 2.297 . S
Cd86 O97 2.439 . S
O87 Cd86 2.240 . S
O87 C92 1.279 . S
O88 Cd85 2.297 1_556 S
O88 C90 1.247 . S
O89 Cd85 2.439 1_556 S
O89 C90 1.208 . S
C90 O88 1.247 . S
C90 O89 1.208 . S
C91 O96 1.247 . S
C91 O97 1.208 . S
C92 O84 1.315 . S
C92 O87 1.279 . S
C93 O94 1.315 . S
C93 O95 1.279 . S
O94 Cd86 2.223 . S
O94 C93 1.315 . S
O95 Cd85 2.240 . S
O95 C93 1.279 . S
O96 Cd86 2.297 . S
O96 C91 1.247 . S
O97 Cd86 2.439 . S
O97 C91 1.208 . S
O98 Cd99 2.223 . S
O98 C106 1.315 . S
Cd99 O98 2.223 . S
Cd99 O102 2.297 . S
Cd99 O103 2.439 . S
Cd99 O109 2.240 . S
Cd100 O101 2.240 . S
Cd100 O108 2.223 . S
Cd100 O110 2.297 . S
Cd100 O111 2.439 . S
O101 Cd100 2.240 . S
O101 C106 1.279 . S
O102 Cd99 2.297 . S
O102 C104 1.247 . S
O103 Cd99 2.439 . S
O103 C104 1.208 . S
C104 O102 1.247 . S
C104 O103 1.208 . S
C105 O110 1.247 . S
C105 O111 1.208 . S
C106 O98 1.315 . S
C106 O101 1.279 . S
C107 O108 1.315 . S
C107 O109 1.279 . S
O108 Cd100 2.223 . S
O108 C107 1.315 . S
O109 Cd99 2.240 . S
O109 C107 1.279 . S
O110 Cd100 2.297 . S
O110 C105 1.247 . S
O111 Cd100 2.439 . S
O111 C105 1.208 . S
C112 C113 1.386 . S
C112 C114 1.383 . S
C112 H128 0.951 . S
C113 C112 1.386 . S
C113 C117 1.383 . S
C114 C112 1.383 . S
C114 C115 1.402 . S
C114 H129 0.951 . S
C115 C114 1.402 . S
C115 C116 1.375 . S
C115 C118 1.481 . S
C116 C115 1.375 . S
C116 C117 1.367 . S
C116 H130 0.951 . S
C117 C113 1.383 . S
C117 C116 1.367 . S
C117 H131 0.950 . S
C118 C115 1.481 . S
C118 C119 1.297 . S
C118 H132 0.950 . S
C119 C118 1.297 . S
C119 C120 1.479 . S
C119 H133 0.950 . S
C120 C119 1.479 . S
C120 C121 1.375 . S
C120 C126 1.404 . S
C121 C120 1.375 . S
C121 C122 1.369 . S
C121 H134 0.950 . S
C122 C121 1.369 . S
C122 C123 1.392 . S
C122 H135 0.951 . S
C123 C122 1.392 . S
C123 C125 1.384 . S
H124 C126 0.949 . S
C125 C123 1.384 . S
C125 C126 1.385 . S
C125 H127 0.950 . S
C126 C120 1.404 . S
C126 H124 0.949 . S
C126 C125 1.385 . S
H127 C125 0.950 . S
H128 C112 0.951 . S
H129 C114 0.951 . S
H130 C116 0.951 . S
H131 C117 0.950 . S
H132 C118 0.950 . S
H133 C119 0.950 . S
H134 C121 0.950 . S
H135 C122 0.951 . S
C136 C137 1.386 . S
C136 C138 1.383 . S
C136 H152 0.951 . S
C137 C136 1.386 . S
C137 C141 1.383 . S
C138 C136 1.383 . S
C138 C139 1.402 . S
C138 H153 0.951 . S
C139 C138 1.402 . S
C139 C140 1.375 . S
C139 C142 1.481 . S
C140 C139 1.375 . S
C140 C141 1.367 . S
C140 H154 0.951 . S
C141 C137 1.383 . S
C141 C140 1.367 . S
C141 H155 0.950 . S
C142 C139 1.481 . S
C142 C143 1.297 . S
C142 H156 0.950 . S
C143 C142 1.297 . S
C143 C144 1.479 . S
C143 H157 0.950 . S
C144 C143 1.479 . S
C144 C145 1.375 . S
C144 C150 1.404 . S
C145 C144 1.375 . S
C145 C146 1.369 . S
C145 H158 0.950 . S
C146 C145 1.369 . S
C146 C147 1.392 . S
C146 H159 0.951 . S
C147 C146 1.392 . S
C147 C149 1.384 . S
H148 C150 0.949 . S
C149 C147 1.384 . S
C149 C150 1.385 . S
C149 H151 0.950 . S
C150 C144 1.404 . S
C150 H148 0.949 . S
C150 C149 1.385 . S
H151 C149 0.950 . S
H152 C136 0.951 . S
H153 C138 0.951 . S
H154 C140 0.951 . S
H155 C141 0.950 . S
H156 C142 0.950 . S
H157 C143 0.950 . S
H158 C145 0.950 . S
H159 C146 0.951 . S
C160 C161 1.386 . S
C160 C162 1.383 . S
C160 H176 0.951 . S
C161 C160 1.386 . S
C161 C165 1.383 . S
C162 C160 1.383 . S
C162 C163 1.402 . S
C162 H177 0.951 . S
C163 C162 1.402 . S
C163 C164 1.375 . S
C163 C166 1.481 . S
C164 C163 1.375 . S
C164 C165 1.367 . S
C164 H178 0.951 . S
C165 C161 1.383 . S
C165 C164 1.367 . S
C165 H179 0.950 . S
C166 C163 1.481 . S
C166 C167 1.297 . S
C166 H180 0.950 . S
C167 C166 1.297 . S
C167 C168 1.479 . S
C167 H181 0.950 . S
C168 C167 1.479 . S
C168 C169 1.375 . S
C168 C174 1.404 . S
C169 C168 1.375 . S
C169 C170 1.369 . S
C169 H182 0.950 . S
C170 C169 1.369 . S
C170 C171 1.392 . S
C170 H183 0.951 . S
C171 C170 1.392 . S
C171 C173 1.384 . S
H172 C174 0.949 . S
C173 C171 1.384 . S
C173 C174 1.385 . S
C173 H175 0.950 . S
C174 C168 1.404 . S
C174 H172 0.949 . S
C174 C173 1.385 . S
H175 C173 0.950 . S
H176 C160 0.951 . S
H177 C162 0.951 . S
H178 C164 0.951 . S
H179 C165 0.950 . S
H180 C166 0.950 . S
H181 C167 0.950 . S
H182 C169 0.950 . S
H183 C170 0.951 . S
C184 C185 1.386 . S
C184 C186 1.383 . S
C184 H200 0.951 . S
C185 C184 1.386 . S
C185 C189 1.383 . S
C186 C184 1.383 . S
C186 C187 1.402 . S
C186 H201 0.951 . S
C187 C186 1.402 . S
C187 C188 1.375 . S
C187 C190 1.481 . S
C188 C187 1.375 . S
C188 C189 1.367 . S
C188 H202 0.951 . S
C189 C185 1.383 . S
C189 C188 1.367 . S
C189 H203 0.950 . S
C190 C187 1.481 . S
C190 C191 1.297 . S
C190 H204 0.950 . S
C191 C190 1.297 . S
C191 C192 1.479 . S
C191 H205 0.950 . S
C192 C191 1.479 . S
C192 C193 1.375 . S
C192 C198 1.404 . S
C193 C192 1.375 . S
C193 C194 1.369 . S
C193 H206 0.950 . S
C194 C193 1.369 . S
C194 C195 1.392 . S
C194 H207 0.951 . S
C195 C194 1.392 . S
C195 C197 1.384 . S
H196 C198 0.949 . S
C197 C195 1.384 . S
C197 C198 1.385 . S
C197 H199 0.950 . S
C198 C192 1.404 . S
C198 H196 0.949 . S
C198 C197 1.385 . S
H199 C197 0.950 . S
H200 C184 0.951 . S
H201 C186 0.951 . S
H202 C188 0.951 . S
H203 C189 0.950 . S
H204 C190 0.950 . S
H205 C191 0.950 . S
H206 C193 0.950 . S
H207 C194 0.951 . S
C208 C209 1.386 . S
C208 C210 1.383 . S
C208 H224 0.951 . S
C209 C208 1.386 . S
C209 C213 1.383 . S
C210 C208 1.383 . S
C210 C211 1.402 . S
C210 H225 0.951 . S
C211 C210 1.402 . S
C211 C212 1.375 . S
C211 C214 1.481 . S
C212 C211 1.375 . S
C212 C213 1.367 . S
C212 H226 0.951 . S
C213 C209 1.383 . S
C213 C212 1.367 . S
C213 H227 0.950 . S
C214 C211 1.481 . S
C214 C215 1.297 . S
C214 H228 0.950 . S
C215 C214 1.297 . S
C215 C216 1.479 . S
C215 H229 0.950 . S
C216 C215 1.479 . S
C216 C217 1.375 . S
C216 C222 1.404 . S
C217 C216 1.375 . S
C217 C218 1.369 . S
C217 H230 0.950 . S
C218 C217 1.369 . S
C218 C219 1.392 . S
C218 H231 0.951 . S
C219 C218 1.392 . S
C219 C221 1.384 . S
H220 C222 0.949 . S
C221 C219 1.384 . S
C221 C222 1.385 . S
C221 H223 0.950 . S
C222 C216 1.404 . S
C222 H220 0.949 . S
C222 C221 1.385 . S
H223 C221 0.950 . S
H224 C208 0.951 . S
H225 C210 0.951 . S
H226 C212 0.951 . S
H227 C213 0.950 . S
H228 C214 0.950 . S
H229 C215 0.950 . S
H230 C217 0.950 . S
H231 C218 0.951 . S
C232 C233 1.386 . S
C232 C234 1.383 . S
C232 H248 0.951 . S
C233 C232 1.386 . S
C233 C237 1.383 . S
C234 C232 1.383 . S
C234 C235 1.402 . S
C234 H249 0.951 . S
C235 C234 1.402 . S
C235 C236 1.375 . S
C235 C238 1.481 . S
C236 C235 1.375 . S
C236 C237 1.367 . S
C236 H250 0.951 . S
C237 C233 1.383 . S
C237 C236 1.367 . S
C237 H251 0.950 . S
C238 C235 1.481 . S
C238 C239 1.297 . S
C238 H252 0.950 . S
C239 C238 1.297 . S
C239 C240 1.479 . S
C239 H253 0.950 . S
C240 C239 1.479 . S
C240 C241 1.375 . S
C240 C246 1.404 . S
C241 C240 1.375 . S
C241 C242 1.369 . S
C241 H254 0.950 . S
C242 C241 1.369 . S
C242 C243 1.392 . S
C242 H255 0.951 . S
C243 C242 1.392 . S
C243 C245 1.384 . S
H244 C246 0.949 . S
C245 C243 1.384 . S
C245 C246 1.385 . S
C245 H247 0.950 . S
C246 C240 1.404 . S
C246 H244 0.949 . S
C246 C245 1.385 . S
H247 C245 0.950 . S
H248 C232 0.951 . S
H249 C234 0.951 . S
H250 C236 0.951 . S
H251 C237 0.950 . S
H252 C238 0.950 . S
H253 C239 0.950 . S
H254 C241 0.950 . S
H255 C242 0.951 . S
C256 C257 1.386 . S
C256 C258 1.383 . S
C256 H272 0.951 . S
C257 C256 1.386 . S
C257 C261 1.383 . S
C258 C256 1.383 . S
C258 C259 1.402 . S
C258 H273 0.951 . S
C259 C258 1.402 . S
C259 C260 1.375 . S
C259 C262 1.481 . S
C260 C259 1.375 . S
C260 C261 1.367 . S
C260 H274 0.951 . S
C261 C257 1.383 . S
C261 C260 1.367 . S
C261 H275 0.950 . S
C262 C259 1.481 . S
C262 C263 1.297 . S
C262 H276 0.950 . S
C263 C262 1.297 . S
C263 C264 1.479 . S
C263 H277 0.950 . S
C264 C263 1.479 . S
C264 C265 1.375 . S
C264 C270 1.404 . S
C265 C264 1.375 . S
C265 C266 1.369 . S
C265 H278 0.950 . S
C266 C265 1.369 . S
C266 C267 1.392 . S
C266 H279 0.951 . S
C267 C266 1.392 . S
C267 C269 1.384 . S
H268 C270 0.949 . S
C269 C267 1.384 . S
C269 C270 1.385 . S
C269 H271 0.950 . S
C270 C264 1.404 . S
C270 H268 0.949 . S
C270 C269 1.385 . S
H271 C269 0.950 . S
H272 C256 0.951 . S
H273 C258 0.951 . S
H274 C260 0.951 . S
H275 C261 0.950 . S
H276 C262 0.950 . S
H277 C263 0.950 . S
H278 C265 0.950 . S
H279 C266 0.951 . S
C280 C281 1.386 . S
C280 C282 1.383 . S
C280 H296 0.951 . S
C281 C280 1.386 . S
C281 C285 1.383 . S
C282 C280 1.383 . S
C282 C283 1.402 . S
C282 H297 0.951 . S
C283 C282 1.402 . S
C283 C284 1.375 . S
C283 C286 1.481 . S
C284 C283 1.375 . S
C284 C285 1.367 . S
C284 H298 0.951 . S
C285 C281 1.383 . S
C285 C284 1.367 . S
C285 H299 0.950 . S
C286 C283 1.481 . S
C286 C287 1.297 . S
C286 H300 0.950 . S
C287 C286 1.297 . S
C287 C288 1.479 . S
C287 H301 0.950 . S
C288 C287 1.479 . S
C288 C289 1.375 . S
C288 C294 1.404 . S
C289 C288 1.375 . S
C289 C290 1.369 . S
C289 H302 0.950 . S
C290 C289 1.369 . S
C290 C291 1.392 . S
C290 H303 0.951 . S
C291 C290 1.392 . S
C291 C293 1.384 . S
H292 C294 0.949 . S
C293 C291 1.384 . S
C293 C294 1.385 . S
C293 H295 0.950 . S
C294 C288 1.404 . S
C294 H292 0.949 . S
C294 C293 1.385 . S
H295 C293 0.950 . S
H296 C280 0.951 . S
H297 C282 0.951 . S
H298 C284 0.951 . S
H299 C285 0.950 . S
H300 C286 0.950 . S
H301 C287 0.950 . S
H302 C289 0.950 . S
H303 C290 0.951 . S
C304 C305 1.386 . S
C304 C306 1.383 . S
C304 H320 0.951 . S
C305 C304 1.386 . S
C305 C309 1.383 . S
C306 C304 1.383 . S
C306 C307 1.402 . S
C306 H321 0.951 . S
C307 C306 1.402 . S
C307 C308 1.375 . S
C307 C310 1.481 . S
C308 C307 1.375 . S
C308 C309 1.367 . S
C308 H322 0.951 . S
C309 C305 1.383 . S
C309 C308 1.367 . S
C309 H323 0.950 . S
C310 C307 1.481 . S
C310 C311 1.297 1_455 S
C310 H324 0.950 . S
C311 C310 1.297 1_655 S
C311 C312 1.479 . S
C311 H325 0.950 . S
C312 C311 1.479 . S
C312 C313 1.375 . S
C312 C318 1.404 . S
C313 C312 1.375 . S
C313 C314 1.369 . S
C313 H326 0.950 . S
C314 C313 1.369 . S
C314 C315 1.392 . S
C314 H327 0.951 . S
C315 C314 1.392 . S
C315 C317 1.384 . S
H316 C318 0.949 . S
C317 C315 1.384 . S
C317 C318 1.385 . S
C317 H319 0.950 . S
C318 C312 1.404 . S
C318 H316 0.949 . S
C318 C317 1.385 . S
H319 C317 0.950 . S
H320 C304 0.951 . S
H321 C306 0.951 . S
H322 C308 0.951 . S
H323 C309 0.950 . S
H324 C310 0.950 . S
H325 C311 0.950 . S
H326 C313 0.950 . S
H327 C314 0.951 . S
C328 C329 1.386 . S
C328 C330 1.383 . S
C328 H344 0.951 . S
C329 C328 1.386 . S
C329 C333 1.383 . S
C330 C328 1.383 . S
C330 C331 1.402 . S
C330 H345 0.951 . S
C331 C330 1.402 . S
C331 C332 1.375 . S
C331 C334 1.481 . S
C332 C331 1.375 . S
C332 C333 1.367 . S
C332 H346 0.951 . S
C333 C329 1.383 . S
C333 C332 1.367 . S
C333 H347 0.950 . S
C334 C331 1.481 . S
C334 C335 1.297 . S
C334 H348 0.950 . S
C335 C334 1.297 . S
C335 C336 1.479 . S
C335 H349 0.950 . S
C336 C335 1.479 . S
C336 C337 1.375 . S
C336 C342 1.404 . S
C337 C336 1.375 . S
C337 C338 1.369 . S
C337 H350 0.950 . S
C338 C337 1.369 . S
C338 C339 1.392 . S
C338 H351 0.951 . S
C339 C338 1.392 . S
C339 C341 1.384 . S
H340 C342 0.949 . S
C341 C339 1.384 . S
C341 C342 1.385 . S
C341 H343 0.950 . S
C342 C336 1.404 . S
C342 H340 0.949 . S
C342 C341 1.385 . S
H343 C341 0.950 . S
H344 C328 0.951 . S
H345 C330 0.951 . S
H346 C332 0.951 . S
H347 C333 0.950 . S
H348 C334 0.950 . S
H349 C335 0.950 . S
H350 C337 0.950 . S
H351 C338 0.951 . S
C352 C353 1.386 . S
C352 C354 1.383 . S
C352 H368 0.951 . S
C353 C352 1.386 . S
C353 C357 1.383 . S
C354 C352 1.383 . S
C354 C355 1.402 . S
C354 H369 0.951 . S
C355 C354 1.402 . S
C355 C356 1.375 . S
C355 C358 1.481 1_455 S
C356 C355 1.375 . S
C356 C357 1.367 . S
C356 H370 0.951 1_455 S
C357 C353 1.383 . S
C357 C356 1.367 . S
C357 H371 0.950 . S
C358 C355 1.481 1_655 S
C358 C359 1.297 1_655 S
C358 H372 0.950 . S
C359 C358 1.297 1_455 S
C359 C360 1.480 1_455 S
C359 H373 0.950 . S
C360 C359 1.480 1_655 S
C360 C361 1.375 . S
C360 C366 1.404 . S
C361 C360 1.375 . S
C361 C362 1.369 . S
C361 H374 0.950 1_655 S
C362 C361 1.369 . S
C362 C363 1.392 . S
C362 H375 0.951 . S
C363 C362 1.392 . S
C363 C365 1.384 . S
H364 C366 0.949 . S
C365 C363 1.384 . S
C365 C366 1.385 . S
C365 H367 0.950 . S
C366 C360 1.404 . S
C366 H364 0.949 . S
C366 C365 1.385 . S
H367 C365 0.950 . S
H368 C352 0.951 . S
H369 C354 0.951 . S
H370 C356 0.951 1_655 S
H371 C357 0.950 . S
H372 C358 0.950 . S
H373 C359 0.950 . S
H374 C361 0.950 1_455 S
H375 C362 0.951 . S
C376 C377 1.386 . S
C376 C378 1.383 . S
C376 H392 0.951 . S
C377 C376 1.386 . S
C377 C381 1.383 . S
C378 C376 1.383 . S
C378 C379 1.402 . S
C378 H393 0.951 . S
C379 C378 1.402 . S
C379 C380 1.375 . S
C379 C382 1.481 . S
C380 C379 1.375 . S
C380 C381 1.367 . S
C380 H394 0.951 . S
C381 C377 1.383 . S
C381 C380 1.367 . S
C381 H395 0.950 . S
C382 C379 1.481 . S
C382 C383 1.297 . S
C382 H396 0.950 . S
C383 C382 1.297 . S
C383 C384 1.479 . S
C383 H397 0.950 . S
C384 C383 1.479 . S
C384 C385 1.375 . S
C384 C390 1.404 . S
C385 C384 1.375 . S
C385 C386 1.369 . S
C385 H398 0.950 . S
C386 C385 1.369 . S
C386 C387 1.392 . S
C386 H399 0.951 . S
C387 C386 1.392 . S
C387 C389 1.384 . S
H388 C390 0.949 . S
C389 C387 1.384 . S
C389 C390 1.385 . S
C389 H391 0.950 . S
C390 C384 1.404 . S
C390 H388 0.949 . S
C390 C389 1.385 . S
H391 C389 0.950 . S
H392 C376 0.951 . S
H393 C378 0.951 . S
H394 C380 0.951 . S
H395 C381 0.950 . S
H396 C382 0.950 . S
H397 C383 0.950 . S
H398 C385 0.950 . S
H399 C386 0.951 . S
C400 C401 1.386 1_556 S
C400 C402 1.383 . S
C400 H416 0.951 . S
C401 C400 1.386 1_554 S
C401 C405 1.383 . S
C402 C400 1.383 . S
C402 C403 1.402 1_556 S
C402 H417 0.951 . S
C403 C402 1.402 1_554 S
C403 C404 1.375 . S
C403 C406 1.481 . S
C404 C403 1.375 . S
C404 C405 1.367 . S
C404 H418 0.948 1_455 S
C405 C401 1.383 . S
C405 C404 1.367 . S
C405 H419 0.950 . S
C406 C403 1.481 . S
C406 C407 1.297 1_545 S
C406 H420 0.950 1_455 S
C407 C406 1.297 1_565 S
C407 C408 1.479 1_455 S
C407 H421 0.950 1_554 S
C408 C407 1.479 1_655 S
C408 C409 1.375 1_554 S
C408 C414 1.404 . S
C409 C408 1.375 1_556 S
C409 C410 1.369 . S
C409 H422 0.950 1_655 S
C410 C409 1.369 . S
C410 C411 1.392 . S
C410 H423 0.951 . S
C411 C410 1.392 . S
C411 C413 1.384 1_556 S
H412 C414 0.949 . S
C413 C411 1.384 1_554 S
C413 C414 1.385 . S
C413 H415 0.950 . S
C414 C408 1.404 . S
C414 H412 0.949 . S
C414 C413 1.385 . S
H415 C413 0.950 . S
H416 C400 0.951 . S
H417 C402 0.951 . S
H418 C404 0.948 1_655 S
H419 C405 0.950 . S
H420 C406 0.950 1_655 S
H421 C407 0.950 1_556 S
H422 C409 0.950 1_455 S
H423 C410 0.951 . S
C424 C425 1.386 . S
C424 C426 1.383 . S
C424 H440 0.951 . S
C425 C424 1.386 . S
C425 C429 1.383 . S
C426 C424 1.383 . S
C426 C427 1.402 . S
C426 H441 0.951 . S
C427 C426 1.402 . S
C427 C428 1.375 . S
C427 C430 1.481 . S
C428 C427 1.375 . S
C428 C429 1.367 . S
C428 H442 0.951 . S
C429 C425 1.383 . S
C429 C428 1.367 . S
C429 H443 0.950 . S
C430 C427 1.481 . S
C430 C431 1.297 . S
C430 H444 0.950 . S
C431 C430 1.297 . S
C431 C432 1.479 . S
C431 H445 0.950 . S
C432 C431 1.479 . S
C432 C433 1.375 . S
C432 C438 1.404 . S
C433 C432 1.375 . S
C433 C434 1.369 . S
C433 H446 0.950 . S
C434 C433 1.369 . S
C434 C435 1.392 . S
C434 H447 0.951 . S
C435 C434 1.392 . S
C435 C437 1.384 . S
H436 C438 0.949 . S
C437 C435 1.384 . S
C437 C438 1.385 . S
C437 H439 0.950 . S
C438 C432 1.404 . S
C438 H436 0.949 . S
C438 C437 1.385 . S
H439 C437 0.950 . S
H440 C424 0.951 . S
H441 C426 0.951 . S
H442 C428 0.951 . S
H443 C429 0.950 . S
H444 C430 0.950 . S
H445 C431 0.950 . S
H446 C433 0.950 . S
H447 C434 0.951 . S
C448 C449 1.386 . S
C448 C450 1.383 . S
C448 H464 0.951 . S
C449 C448 1.386 . S
C449 C453 1.383 1_554 S
C450 C448 1.383 . S
C450 C451 1.402 . S
C450 H465 0.951 . S
C451 C450 1.402 . S
C451 C452 1.375 1_554 S
C451 C454 1.481 . S
C452 C451 1.375 1_556 S
C452 C453 1.367 . S
C452 H466 0.951 . S
C453 C449 1.383 1_556 S
C453 C452 1.367 . S
C453 H467 0.950 . S
C454 C451 1.481 . S
C454 C455 1.297 . S
C454 H468 0.950 1_554 S
C455 C454 1.297 . S
C455 C456 1.479 . S
C455 H469 0.950 . S
C456 C455 1.479 . S
C456 C457 1.375 . S
C456 C462 1.404 1_554 S
C457 C456 1.375 . S
C457 C458 1.369 . S
C457 H470 0.950 . S
C458 C457 1.369 . S
C458 C459 1.392 1_554 S
C458 H471 0.951 . S
C459 C458 1.392 1_556 S
C459 C461 1.384 . S
H460 C462 0.949 . S
C461 C459 1.384 . S
C461 C462 1.385 . S
C461 H463 0.950 . S
C462 C456 1.404 1_556 S
C462 H460 0.949 . S
C462 C461 1.385 . S
H463 C461 0.950 . S
H464 C448 0.951 . S
H465 C450 0.951 . S
H466 C452 0.951 . S
H467 C453 0.950 . S
H468 C454 0.950 1_556 S
H469 C455 0.950 . S
H470 C457 0.950 . S
H471 C458 0.951 . S
C472 C473 1.386 . S
C472 C474 1.383 . S
C472 H488 0.951 . S
C473 C472 1.386 . S
C473 C477 1.383 . S
C474 C472 1.383 . S
C474 C475 1.402 . S
C474 H489 0.951 . S
C475 C474 1.402 . S
C475 C476 1.375 . S
C475 C478 1.481 1_455 S
C476 C475 1.375 . S
C476 C477 1.367 . S
C476 H490 0.951 1_455 S
C477 C473 1.383 . S
C477 C476 1.367 . S
C477 H491 0.950 . S
C478 C475 1.481 1_655 S
C478 C479 1.297 1_565 S
C478 H492 0.950 . S
C479 C478 1.297 1_545 S
C479 C480 1.479 . S
C479 H493 0.950 1_655 S
C480 C479 1.479 . S
C480 C481 1.375 . S
C480 C486 1.404 . S
C481 C480 1.375 . S
C481 C482 1.369 . S
C481 H494 0.950 1_655 S
C482 C481 1.369 . S
C482 C483 1.392 . S
C482 H495 0.951 . S
C483 C482 1.392 . S
C483 C485 1.384 . S
H484 C486 0.949 . S
C485 C483 1.384 . S
C485 C486 1.385 . S
C485 H487 0.950 . S
C486 C480 1.404 . S
C486 H484 0.949 . S
C486 C485 1.385 . S
H487 C485 0.950 . S
H488 C472 0.951 . S
H489 C474 0.951 . S
H490 C476 0.951 1_655 S
H491 C477 0.950 . S
H492 C478 0.950 . S
H493 C479 0.950 1_455 S
H494 C481 0.950 1_455 S
H495 C482 0.951 . S
C113 C22 1.652 . S
C123 C6 1.645 . S
C137 C8 1.645 . S
C147 C20 1.653 . S
C161 C50 1.648 . S
C171 C34 1.649 . S
C185 C36 1.656 . S
C195 C48 1.635 . S
C209 C62 1.642 . S
C219 C78 1.636 . S
C233 C76 1.654 . S
C243 C64 1.653 . S
C257 C90 1.646 . S
C267 C106 1.658 . S
C281 C92 1.645 . S
C291 C104 1.627 . S
C305 C9 0.423 . S
C315 C51 0.403 . S
C329 C23 0.439 . S
C339 C37 0.434 . S
C353 C107 0.470 . S
C363 C65 0.349 . S
C377 C93 0.592 . S
C387 C79 0.513 . S
C401 C7 1.474 . S
C411 C63 1.526 . S
C425 C77 1.489 . S
C435 C21 1.541 . S
C449 C91 1.498 . S
C459 C35 1.536 . S
C473 C105 1.516 . S
C483 C49 1.446 . S
