# Generated by pormake.
# Topology wmc, (6)-cn, num edge types: 1
# Building blocks:
#     Node 0, Type 0, BuildingBlock: FUNLAD_clean_sbu_0, # of connection points: 6
#     Node 1, Type 0, BuildingBlock: FUNLAD_clean_sbu_0, # of connection points: 6
#     Node 2, Type 0, BuildingBlock: FUNLAD_clean_sbu_0, # of connection points: 6
#     Node 3, Type 0, BuildingBlock: FUNLAD_clean_sbu_0, # of connection points: 6
#     Node 4, Type 0, BuildingBlock: FUNLAD_clean_sbu_0, # of connection points: 6
#     Node 5, Type 0, BuildingBlock: FUNLAD_clean_sbu_0, # of connection points: 6
#     Node 6, Type 0, BuildingBlock: FUNLAD_clean_sbu_0, # of connection points: 6
#     Node 7, Type 0, BuildingBlock: FUNLAD_clean_sbu_0, # of connection points: 6
#     Node 8, Type 0, BuildingBlock: FUNLAD_clean_sbu_0, # of connection points: 6
#     Node 9, Type 0, BuildingBlock: FUNLAD_clean_sbu_0, # of connection points: 6
#     Node 10, Type 0, BuildingBlock: FUNLAD_clean_sbu_0, # of connection points: 6
#     Node 11, Type 0, BuildingBlock: FUNLAD_clean_sbu_0, # of connection points: 6
#     Node 12, Type 0, BuildingBlock: FUNLAD_clean_sbu_0, # of connection points: 6
#     Node 13, Type 0, BuildingBlock: FUNLAD_clean_sbu_0, # of connection points: 6
#     Node 14, Type 0, BuildingBlock: FUNLAD_clean_sbu_0, # of connection points: 6
#     Node 15, Type 0, BuildingBlock: FUNLAD_clean_sbu_0, # of connection points: 6
#     Node 16, Type 0, BuildingBlock: FUNLAD_clean_sbu_0, # of connection points: 6
#     Node 17, Type 0, BuildingBlock: FUNLAD_clean_sbu_0, # of connection points: 6
#     Edge 18, Type (0, 0), None
#     Edge 19, Type (0, 0), None
#     Edge 20, Type (0, 0), None
#     Edge 21, Type (0, 0), None
#     Edge 22, Type (0, 0), None
#     Edge 23, Type (0, 0), None
#     Edge 24, Type (0, 0), None
#     Edge 25, Type (0, 0), None
#     Edge 26, Type (0, 0), None
#     Edge 27, Type (0, 0), None
#     Edge 28, Type (0, 0), None
#     Edge 29, Type (0, 0), None
#     Edge 30, Type (0, 0), None
#     Edge 31, Type (0, 0), None
#     Edge 32, Type (0, 0), None
#     Edge 33, Type (0, 0), None
#     Edge 34, Type (0, 0), None
#     Edge 35, Type (0, 0), None
#     Edge 36, Type (0, 0), None
#     Edge 37, Type (0, 0), None
#     Edge 38, Type (0, 0), None
#     Edge 39, Type (0, 0), None
#     Edge 40, Type (0, 0), None
#     Edge 41, Type (0, 0), None
#     Edge 42, Type (0, 0), None
#     Edge 43, Type (0, 0), None
#     Edge 44, Type (0, 0), None
#     Edge 45, Type (0, 0), None
#     Edge 46, Type (0, 0), None
#     Edge 47, Type (0, 0), None
#     Edge 48, Type (0, 0), None
#     Edge 49, Type (0, 0), None
#     Edge 50, Type (0, 0), None
#     Edge 51, Type (0, 0), None
#     Edge 52, Type (0, 0), None
#     Edge 53, Type (0, 0), None
#     Edge 54, Type (0, 0), None
#     Edge 55, Type (0, 0), None
#     Edge 56, Type (0, 0), None
#     Edge 57, Type (0, 0), None
#     Edge 58, Type (0, 0), None
#     Edge 59, Type (0, 0), None
#     Edge 60, Type (0, 0), None
#     Edge 61, Type (0, 0), None
#     Edge 62, Type (0, 0), None
#     Edge 63, Type (0, 0), None
#     Edge 64, Type (0, 0), None
#     Edge 65, Type (0, 0), None
#     Edge 66, Type (0, 0), None
#     Edge 67, Type (0, 0), None
#     Edge 68, Type (0, 0), None
#     Edge 69, Type (0, 0), None
#     Edge 70, Type (0, 0), None
#     Edge 71, Type (0, 0), None
# Relax obj value: 0.640
# Max RMSD: 0.270
# Mean RMSD: 0.270
data_MOF--net-wmc--node1-FUNLAD_clean_sbu_0--edge1-none
_symmetry_space_group_name_H-M    P1
_symmetry_Int_Tables_number       1
_symmetry_cell_setting            triclinic
loop_
_symmetry_equiv_pos_as_xyz
'x, y, z'
_cell_length_a     28.210484
_cell_length_b     28.226956
_cell_length_c     13.779146
_cell_angle_alpha  90.030089
_cell_angle_beta   89.962392
_cell_angle_gamma 120.04915
loop_
_atom_site_label
_atom_site_type_symbol
_atom_site_fract_x
_atom_site_fract_y
_atom_site_fract_z
_atom_type_partial_charge
C0 C 0.60194 0.14023 0.16427 0.0
N1 N 0.73228 0.23595 -0.02822 0.0
C2 C 0.74737 0.27019 0.04915 0.0
C3 C 0.7999 0.31478 0.05415 0.0
C4 C 0.83669 0.32485 -0.02222 0.0
C5 C 0.82204 0.28681 0.90271 0.0
C6 C 0.76896 0.24186 0.90143 0.0
Zn7 Zn 0.65315 0.17602 -0.0385 0.0
C8 C 0.66193 0.08246 -0.00267 0.0
N9 N 0.48311 0.04698 -0.05221 0.0
C10 C 0.45022 1.00025 -0.00175 0.0
C11 C 0.46079 0.0612 0.87287 0.0
C12 C 0.40592 1.02801 0.84351 0.0
C13 C 0.37152 0.97849 0.89049 0.0
C14 C 0.3948 0.9656 -0.02968 0.0
Zn15 Zn 0.56847 0.10849 -0.02744 0.0
O16 O 0.64653 0.16595 0.11664 0.0
C17 C 0.57944 0.21832 -0.03443 0.0
O18 O 0.5566 0.11283 0.12022 0.0
H19 H 0.48622 0.09798 0.83243 0.0
H20 H 0.71786 0.26477 0.10439 0.0
H21 H 0.46696 0.98877 0.05848 0.0
O22 O 0.62866 0.2308 -0.02358 0.0
O23 O 0.54297 0.1689 -0.0511 0.0
H24 H 0.75634 0.21331 0.84158 0.0
O25 O 0.58198 0.10407 0.81909 0.0
O26 O 0.6557 0.18532 0.81183 0.0
O27 O 0.61027 0.05932 0.01738 0.0
O28 O 0.68245 0.12458 -0.05428 0.0
C29 C 0.61901 0.14303 0.76957 0.0
H30 H 0.81017 0.34392 0.11288 0.0
H31 H 0.84936 0.29411 0.8421 0.0
H32 H 0.39176 1.03875 0.77872 0.0
H33 H 0.37167 0.92692 0.007 0.0
C34 C 0.95893 0.48154 0.16442 0.0
N35 N 0.86338 0.51613 -0.02825 0.0
C36 C 0.82908 0.49713 0.0491 0.0
C37 C 0.78455 0.50516 0.05389 0.0
C38 C 0.77463 0.53181 -0.02264 0.0
C39 C 0.81273 0.55505 0.90231 0.0
C40 C 0.85761 0.54685 0.90124 0.0
Zn41 Zn 0.92327 0.49693 -0.03831 0.0
C42 C 1.01688 0.5994 -0.00235 0.0
N43 N 1.05232 0.4561 -0.0521 0.0
C44 C 0.09894 0.46972 -0.00142 0.0
C45 C 1.03809 0.41966 0.87275 0.0
C46 C 0.07112 0.39784 0.84342 0.0
C47 C 0.12053 0.41273 0.89061 0.0
C48 C 0.13345 0.44884 -0.02937 0.0
Zn49 Zn 0.99087 0.47997 -0.0273 0.0
O50 O 0.93326 0.50043 0.11689 0.0
C51 C 0.88097 0.38097 -0.03437 0.0
O52 O 0.98637 0.46369 0.12029 0.0
H53 H 1.00139 0.40846 0.83213 0.0
H54 H 0.83439 0.47311 0.10449 0.0
H55 H 0.11042 0.49785 0.05901 0.0
O56 O 0.86844 0.41764 -0.02337 0.0
O57 O 0.93041 0.39404 -0.05116 0.0
H58 H 0.88622 0.56269 0.84143 0.0
O59 O 0.99542 0.49796 0.81928 0.0
O60 O 0.91404 0.49005 0.81202 0.0
O61 O 1.04004 0.57097 0.01778 0.0
O62 O 0.9748 0.57769 -0.05411 0.0
C63 C 0.95639 0.49582 0.76977 0.0
H64 H 0.75535 0.48639 0.1126 0.0
H65 H 0.80554 0.575 0.84156 0.0
H66 H 0.06039 0.37302 0.77847 0.0
H67 H 0.17208 0.46423 0.00747 0.0
C68 C 0.61793 0.49726 0.16403 0.0
N69 N 0.58328 0.367 -0.02853 0.0
C70 C 0.60257 0.35201 0.04872 0.0
C71 C 0.59461 0.29952 0.0538 0.0
C72 C 0.56771 0.26265 -0.02234 0.0
C73 C 0.54423 0.27721 0.90269 0.0
C74 C 0.55239 0.33025 0.90132 0.0
Zn75 Zn 0.60242 0.44607 -0.0388 0.0
C76 C 0.49998 0.43716 -0.00248 0.0
N77 N 0.64333 0.61604 -0.05238 0.0
C78 C 0.62958 0.64894 -0.00174 0.0
C79 C 0.67981 0.63835 0.8725 0.0
C80 C 0.70152 0.69319 0.84314 0.0
C81 C 0.68652 0.72761 0.89035 0.0
C82 C 0.65038 0.70433 -0.02966 0.0
Zn83 Zn 0.61951 0.53072 -0.02762 0.0
O84 O 0.5991 0.45271 0.11637 0.0
C85 C 0.71851 0.51995 -0.03501 0.0
O86 O 0.63576 0.54256 0.12003 0.0
H87 H 0.69112 0.61294 0.83192 0.0
H88 H 0.62676 0.38156 0.1038 0.0
H89 H 0.60141 0.63222 0.05866 0.0
O90 O 0.68178 0.47071 -0.02429 0.0
O91 O 0.7055 0.55635 -0.05147 0.0
H92 H 0.53636 0.34279 0.84157 0.0
O93 O 0.6015 0.51715 0.81892 0.0
O94 O 0.60901 0.44349 0.81153 0.0
O95 O 0.52848 0.48881 0.01746 0.0
O96 O 0.52161 0.41669 -0.05416 0.0
C97 C 0.60335 0.48011 0.76936 0.0
H98 H 0.61357 0.28933 0.11244 0.0
H99 H 0.52409 0.24983 0.84223 0.0
H100 H 0.72637 0.70734 0.77821 0.0
H101 H 0.6349 0.72746 0.00721 0.0
C102 C 0.95629 0.48028 0.26975 0.0
N103 N 1.05233 0.61601 0.44793 0.0
C104 C 1.03807 0.63824 0.37294 0.0
C105 C 0.07116 0.6931 0.3436 0.0
C106 C 0.12066 0.72759 0.39063 0.0
C107 C 0.13361 0.70439 0.4705 0.0
C108 C 0.09903 0.64898 0.49845 0.0
Zn109 Zn 0.99085 0.53068 0.47273 0.0
C110 C 0.88096 0.51972 0.4658 0.0
N111 N 0.86335 0.36697 0.47182 0.0
C112 C 0.85749 0.33041 0.40132 0.0
C113 C 0.8291 0.35174 0.54923 0.0
C114 C 0.78454 0.29919 0.55411 0.0
C115 C 0.77453 0.26253 0.47759 0.0
C116 C 0.81258 0.27732 0.40248 0.0
Zn117 Zn 0.92326 0.44608 0.46168 0.0
O118 O 0.99533 0.51721 0.31928 0.0
C119 C 1.01684 0.43724 0.49748 0.0
O120 O 0.91396 0.44364 0.312 0.0
H121 H 0.83447 0.38114 0.6046 0.0
H122 H 1.00132 0.61277 0.33243 0.0
H123 H 0.88606 0.34313 0.34145 0.0
O124 O 1.04001 0.48886 0.51763 0.0
O125 O 0.97475 0.41682 0.44576 0.0
H126 H 0.11054 0.63232 0.55875 0.0
O127 O 0.93332 0.45264 0.61685 0.0
O128 O 0.98645 0.54252 0.62036 0.0
O129 O 0.86845 0.47052 0.47674 0.0
O130 O 0.9304 0.55614 0.44904 0.0
C131 C 0.95903 0.49722 0.66444 0.0
H132 H 0.0604 0.70721 0.27878 0.0
H133 H 0.17228 0.72759 0.50721 0.0
H134 H 0.75538 0.28881 0.61288 0.0
H135 H 0.80532 0.25012 0.34174 0.0
C136 C 0.61912 0.49579 0.26936 0.0
N137 N 0.4831 0.45581 0.44759 0.0
C138 C 0.46077 0.4193 0.37256 0.0
C139 C 0.40591 0.39763 0.34316 0.0
C140 C 0.37151 0.4127 0.39028 0.0
C141 C 0.3948 0.44884 0.47023 0.0
C142 C 0.45021 0.46961 0.49817 0.0
Zn143 Zn 0.56844 0.47963 0.47237 0.0
C144 C 0.57932 0.38072 0.46508 0.0
N145 N 0.73226 0.51596 0.47159 0.0
C146 C 0.76904 0.54683 0.40143 0.0
C147 C 0.74723 0.4967 0.54889 0.0
C148 C 0.79974 0.50465 0.55403 0.0
C149 C 0.83664 0.53149 0.47787 0.0
C150 C 0.82211 0.55496 0.40285 0.0
Zn151 Zn 0.65315 0.49679 0.46122 0.0
O152 O 0.58203 0.4976 0.31891 0.0
C153 C 0.66198 0.59915 0.4974 0.0
O154 O 0.65578 0.49019 0.31155 0.0
H155 H 0.71765 0.47253 0.60397 0.0
H156 H 0.48618 0.40795 0.33206 0.0
H157 H 0.75651 0.56283 0.34163 0.0
O158 O 0.6103 0.57062 0.51734 0.0
O159 O 0.68251 0.57755 0.44579 0.0
H160 H 0.46694 0.49778 0.55851 0.0
O161 O 0.64647 0.50014 0.61637 0.0
O162 O 0.55656 0.46341 0.62003 0.0
O163 O 0.62856 0.41748 0.47581 0.0
O164 O 0.54286 0.39367 0.4486 0.0
C165 C 0.60189 0.4813 0.66404 0.0
H166 H 0.39175 0.37277 0.27828 0.0
H167 H 0.37167 0.46435 0.50703 0.0
H168 H 0.80992 0.48571 0.61271 0.0
H169 H 0.84951 0.57507 0.34238 0.0
C170 C 0.60336 0.14287 0.26959 0.0
N171 N 0.6432 0.04697 0.44777 0.0
C172 C 0.67967 0.06116 0.37263 0.0
C173 C 0.70147 1.02811 0.34331 0.0
C174 C 0.68655 0.97873 0.39056 0.0
C175 C 0.65042 0.96585 0.47058 0.0
C176 C 0.62955 1.00038 0.49849 0.0
Zn177 Zn 0.61936 0.10844 0.47254 0.0
C178 C 0.71839 0.21827 0.46532 0.0
N179 N 0.58317 0.23592 0.4716 0.0
C180 C 0.55236 0.24168 0.40124 0.0
C181 C 0.6023 0.27024 0.54887 0.0
C182 C 0.59431 0.31476 0.55374 0.0
C183 C 0.56752 0.32464 0.47737 0.0
C184 C 0.54417 0.28654 0.40239 0.0
Zn185 Zn 0.60235 0.17601 0.46149 0.0
O186 O 0.60135 0.10391 0.3191 0.0
C187 C 0.49986 0.08243 0.49761 0.0
O188 O 0.6091 0.18519 0.31183 0.0
H189 H 0.6264 0.26494 0.60414 0.0
H190 H 0.69091 0.09785 0.332 0.0
H191 H 0.53643 0.21307 0.34147 0.0
O192 O 0.52832 0.05929 0.51764 0.0
O193 O 0.52155 0.12451 0.4459 0.0
H194 H 0.60141 0.98893 0.55893 0.0
O195 O 0.59893 0.16608 0.61667 0.0
O196 O 0.63562 0.11294 0.62015 0.0
O197 O 0.68169 0.23079 0.47621 0.0
O198 O 0.70533 0.16885 0.44867 0.0
C199 C 0.61779 0.14039 0.66425 0.0
H200 H 0.7263 1.03881 0.27837 0.0
H201 H 0.635 0.92726 0.50748 0.0
H202 H 0.61316 0.34396 0.6124 0.0
H203 H 0.52413 0.29371 0.34175 0.0
C204 C 0.2686 0.47356 0.49757 0.0
N205 N 0.39894 0.56929 0.30508 0.0
C206 C 0.41403 0.60352 0.38245 0.0
C207 C 0.46656 0.64812 0.38746 0.0
C208 C 0.50335 0.65818 0.3111 0.0
C209 C 0.48871 0.62015 0.23603 0.0
C210 C 0.43563 0.5752 0.23474 0.0
Zn211 Zn 0.31982 0.50936 0.2948 0.0
C212 C 0.32859 0.41581 0.33064 0.0
N213 N 0.14978 0.38031 0.28109 0.0
C214 C 0.11688 0.33358 0.33155 0.0
C215 C 0.12746 0.39452 0.20617 0.0
C216 C 0.07259 0.36134 0.1768 0.0
C217 C 1.03818 0.31182 0.22379 0.0
C218 C 0.06147 0.29893 0.30362 0.0
Zn219 Zn 0.23513 0.44182 0.30586 0.0
O220 O 0.3132 0.49929 0.44994 0.0
C221 C 0.2461 0.55165 0.29887 0.0
O222 O 0.22327 0.44616 0.45352 0.0
H223 H 0.15289 0.43131 0.16572 0.0
H224 H 0.38452 0.59811 0.43769 0.0
H225 H 0.13362 0.3221 0.39178 0.0
O226 O 0.29533 0.56413 0.30972 0.0
O227 O 0.20963 0.50223 0.28221 0.0
H228 H 0.42301 0.54665 0.17488 0.0
O229 O 0.24865 0.4374 0.15239 0.0
O230 O 0.32236 0.51866 0.14513 0.0
O231 O 0.27693 0.39264 0.35069 0.0
O232 O 0.34912 0.45793 0.27902 0.0
C233 C 0.28568 0.47637 0.10288 0.0
H234 H 0.47683 0.67725 0.4462 0.0
H235 H 0.51603 0.62745 0.17541 0.0
H236 H 1.05843 0.37207 0.11201 0.0
H237 H 1.03833 0.26025 0.3403 0.0
C238 C 0.6256 0.81488 0.49775 0.0
N239 N 0.53004 0.84947 0.30507 0.0
C240 C 0.49574 0.83046 0.38242 0.0
C241 C 0.45122 0.83849 0.38722 0.0
C242 C 0.44129 0.86515 0.31069 0.0
C243 C 0.4794 0.88838 0.23564 0.0
C244 C 0.52427 0.88018 0.23456 0.0
Zn245 Zn 0.58994 0.83026 0.29501 0.0
C246 C 0.68354 0.93272 0.33098 0.0
N247 N 0.71899 0.78943 0.28123 0.0
C248 C 0.7656 0.80305 0.33191 0.0
C249 C 0.70476 0.75299 0.20608 0.0
C250 C 0.73779 0.73117 0.17675 0.0
C251 C 0.7872 0.74606 0.22394 0.0
C252 C 0.80012 0.78217 0.30396 0.0
Zn253 Zn 0.65754 0.8133 0.30602 0.0
O254 O 0.59993 0.83376 0.45021 0.0
C255 C 0.54764 0.71431 0.29896 0.0
O256 O 0.65304 0.79703 0.45362 0.0
H257 H 0.66806 0.74179 0.16546 0.0
H258 H 0.50106 0.80644 0.43781 0.0
H259 H 0.77709 0.83118 0.39234 0.0
O260 O 0.53511 0.75097 0.30995 0.0
O261 O 0.59708 0.72738 0.28217 0.0
H262 H 0.55288 0.89602 0.17475 0.0
O263 O 0.66209 0.83129 0.1526 0.0
O264 O 0.5807 0.82339 0.14534 0.0
O265 O 0.70672 0.90431 0.35111 0.0
O266 O 0.64147 0.91103 0.27921 0.0
C267 C 0.62306 0.82916 0.10309 0.0
H268 H 0.42202 0.81972 0.44593 0.0
H269 H 0.4722 0.90833 0.17489 0.0
H270 H 0.72706 0.70635 0.11181 0.0
H271 H 0.83874 0.79756 0.3408 0.0
C272 C 0.28459 0.83059 0.49737 0.0
N273 N 0.24995 0.70033 0.3048 0.0
C274 C 0.26922 0.68534 0.38205 0.0
C275 C 0.26126 0.63284 0.38712 0.0
C276 C 0.23437 0.59598 0.31097 0.0
C277 C 0.2109 0.61054 0.23599 0.0
C278 C 0.21906 0.66359 0.23463 0.0
Zn279 Zn 0.26908 0.7794 0.29453 0.0
C280 C 0.16666 0.7705 0.33085 0.0
N281 N 0.31 0.94938 0.28096 0.0
C282 C 0.29623 0.98227 0.33159 0.0
C283 C 0.34648 0.97169 0.20585 0.0
C284 C 0.3682 1.02653 0.17649 0.0
C285 C 0.35318 0.06094 0.22369 0.0
C286 C 0.31703 1.03766 0.30366 0.0
Zn287 Zn 0.28618 0.86406 0.30572 0.0
O288 O 0.26576 0.78604 0.4497 0.0
C289 C 0.38518 0.85328 0.29833 0.0
O290 O 0.30242 0.87589 0.45336 0.0
H291 H 0.3578 0.94628 0.16528 0.0
H292 H 0.2934 0.71488 0.43714 0.0
H293 H 0.26806 0.96555 0.39197 0.0
O294 O 0.34844 0.80404 0.30904 0.0
O295 O 0.37217 0.88968 0.28187 0.0
H296 H 0.20304 0.67613 0.17487 0.0
O297 O 0.26817 0.85049 0.15226 0.0
O298 O 0.27568 0.77683 0.14486 0.0
O299 O 0.19515 0.82215 0.35079 0.0
O300 O 0.18828 0.75002 0.27916 0.0
C301 C 0.27002 0.81345 0.10269 0.0
H302 H 0.28021 0.62265 0.44577 0.0
H303 H 0.19076 0.58317 0.17552 0.0
H304 H 0.39306 0.04068 0.11157 0.0
H305 H 0.30154 0.06078 0.34052 0.0
C306 C 0.62296 0.81362 0.60308 0.0
N307 N 0.719 0.94934 0.78125 0.0
C308 C 0.70474 0.97158 0.70627 0.0
C309 C 0.73783 1.02644 0.67693 0.0
C310 C 0.78733 0.06092 0.72395 0.0
C311 C 0.80028 1.03772 0.80381 0.0
C312 C 0.76571 0.98232 0.83177 0.0
Zn313 Zn 0.65752 0.86402 0.80605 0.0
C314 C 0.54762 0.85305 0.79913 0.0
N315 N 0.53001 0.7003 0.80513 0.0
C316 C 0.52416 0.66375 0.73462 0.0
C317 C 0.49577 0.68507 0.88255 0.0
C318 C 0.45121 0.63251 0.88742 0.0
C319 C 0.4412 0.59586 0.8109 0.0
C320 C 0.47925 0.61066 0.73577 0.0
Zn321 Zn 0.58993 0.77941 0.795 0.0
O322 O 0.662 0.85055 0.65261 0.0
C323 C 0.6835 0.77059 0.8308 0.0
O324 O 0.58062 0.77698 0.64532 0.0
H325 H 0.50114 0.71446 0.93793 0.0
H326 H 0.66798 0.94611 0.66577 0.0
H327 H 0.55273 0.67648 0.67474 0.0
O328 O 0.70669 0.82221 0.85095 0.0
O329 O 0.64141 0.75015 0.77907 0.0
H330 H 0.77722 0.96565 0.89206 0.0
O331 O 0.59999 0.78597 -0.04983 0.0
O332 O 0.65311 0.87585 -0.04632 0.0
O333 O 0.53511 0.80386 0.81006 0.0
O334 O 0.59707 0.88947 0.78236 0.0
C335 C 0.6257 0.83055 -0.00224 0.0
H336 H 0.72706 0.04055 0.61211 0.0
H337 H 0.83896 0.06092 0.84051 0.0
H338 H 0.42205 0.62212 -0.0538 0.0
H339 H 0.47199 0.58346 0.67502 0.0
C340 C 0.28578 0.82912 0.60269 0.0
N341 N 0.14976 0.78914 0.78093 0.0
C342 C 0.12743 0.75263 0.7059 0.0
C343 C 0.07257 0.73096 0.67651 0.0
C344 C 1.03817 0.74603 0.72362 0.0
C345 C 0.06147 0.78218 0.80356 0.0
C346 C 0.11687 0.80294 0.8315 0.0
Zn347 Zn 0.23511 0.81296 0.80571 0.0
C348 C 0.24599 0.71406 0.79842 0.0
N349 N 0.39893 0.8493 0.80492 0.0
C350 C 0.43571 0.88016 0.73476 0.0
C351 C 0.4139 0.83004 0.88223 0.0
C352 C 0.46641 0.83799 0.88736 0.0
C353 C 0.50331 0.86483 0.8112 0.0
C354 C 0.48878 0.8883 0.73618 0.0
Zn355 Zn 0.31982 0.83013 0.79455 0.0
O356 O 0.24869 0.83093 0.65225 0.0
C357 C 0.32863 0.93247 0.83073 0.0
O358 O 0.32245 0.82352 0.64488 0.0
H359 H 0.38432 0.80588 0.93731 0.0
H360 H 0.15284 0.74127 0.66541 0.0
H361 H 0.42318 0.89616 0.67496 0.0
O362 O 0.27695 0.90395 0.85067 0.0
O363 O 0.34918 0.91089 0.77912 0.0
H364 H 0.13361 0.83112 0.89184 0.0
O365 O 0.31314 0.83348 -0.05029 0.0
O366 O 0.22323 0.79675 -0.04663 0.0
O367 O 0.29523 0.75082 0.80915 0.0
O368 O 0.20953 0.72701 0.78194 0.0
C369 C 0.26856 0.81464 -0.00263 0.0
H370 H 1.05841 0.70609 0.61164 0.0
H371 H 1.03834 0.79769 0.84037 0.0
H372 H 0.47659 0.81905 -0.05396 0.0
H373 H 0.51618 0.9084 0.6757 0.0
C374 C 0.27003 0.4762 0.60289 0.0
N375 N 0.30987 0.3803 0.78107 0.0
C376 C 0.34633 0.39449 0.70592 0.0
C377 C 0.36813 0.36144 0.67661 0.0
C378 C 0.35321 0.31206 0.72387 0.0
C379 C 0.31709 0.29918 0.80389 0.0
C380 C 0.29622 0.33371 0.8318 0.0
Zn381 Zn 0.28602 0.44177 0.80584 0.0
C382 C 0.38506 0.5516 0.79862 0.0
N383 N 0.24985 0.56926 0.80491 0.0
C384 C 0.21904 0.57502 0.73455 0.0
C385 C 0.26899 0.60358 0.88218 0.0
C386 C 0.26099 0.6481 0.88706 0.0
C387 C 0.2342 0.65798 0.8107 0.0
C388 C 0.21085 0.61989 0.73571 0.0
Zn389 Zn 0.26902 0.50935 0.79478 0.0
O390 O 0.26802 0.43725 0.6524 0.0
C391 C 0.16655 0.41578 0.83092 0.0
O392 O 0.27577 0.51852 0.64513 0.0
H393 H 0.29309 0.59828 0.93744 0.0
H394 H 0.35757 0.43117 0.66529 0.0
H395 H 0.20311 0.54641 0.67478 0.0
O396 O 0.19499 0.39261 0.85094 0.0
O397 O 0.18822 0.45786 0.7792 0.0
H398 H 0.26808 0.32226 0.89224 0.0
O399 O 0.2656 0.49941 -0.05003 0.0
O400 O 0.30229 0.44627 -0.04655 0.0
O401 O 0.34837 0.56413 0.8095 0.0
O402 O 0.372 0.50218 0.78197 0.0
C403 C 0.28446 0.47373 -0.00245 0.0
H404 H 0.39296 0.37214 0.61166 0.0
H405 H 0.30167 0.26059 0.84079 0.0
H406 H 0.27985 0.6773 -0.05429 0.0
H407 H 0.1908 0.62706 0.67508 0.0
C408 C 0.93527 0.80689 0.8309 0.0
N409 N 0.06561 0.90262 0.63841 0.0
C410 C 0.0807 0.93686 0.71578 0.0
C411 C 0.13323 0.98145 0.72078 0.0
C412 C 0.17002 0.99152 0.64442 0.0
C413 C 0.15538 0.95348 0.56935 0.0
C414 C 0.1023 0.90853 0.56807 0.0
Zn415 Zn 0.98649 0.84269 0.62813 0.0
C416 C 0.99526 0.74914 0.66398 0.0
N417 N 0.81644 0.71364 0.61442 0.0
C418 C 0.78355 0.66691 0.66489 0.0
C419 C 0.79413 0.72786 0.5395 0.0
C420 C 0.73926 0.69468 0.51013 0.0
C421 C 0.70487 0.64517 0.55715 0.0
C422 C 0.72813 0.63226 0.63697 0.0
Zn423 Zn 0.90179 0.77515 0.63919 0.0
O424 O 0.97986 0.83262 0.78327 0.0
C425 C 0.91277 0.88499 0.6322 0.0
O426 O 0.88993 0.7795 0.78685 0.0
H427 H 0.81955 0.76465 0.49906 0.0
H428 H 1.0512 0.93144 0.77102 0.0
H429 H 0.80029 0.65544 0.72512 0.0
O430 O 0.96199 0.89746 0.64305 0.0
O431 O 0.8763 0.83557 0.61554 0.0
H432 H 0.08968 0.87998 0.50821 0.0
O433 O 0.91531 0.77073 0.48573 0.0
O434 O 0.98903 0.85199 0.47846 0.0
O435 O 0.94359 0.72597 0.68402 0.0
O436 O 1.01579 0.79126 0.61236 0.0
C437 C 0.95234 0.8097 0.43621 0.0
H438 H 0.1435 1.01058 0.77952 0.0
H439 H 0.18269 0.96078 0.50873 0.0
H440 H 0.72508 0.70541 0.44534 0.0
H441 H 0.70499 0.59358 0.67365 0.0
C442 C 0.29227 0.14821 0.83106 0.0
N443 N 0.19671 0.1828 0.63838 0.0
C444 C 0.16241 0.1638 0.71573 0.0
C445 C 0.11789 0.17182 0.72053 0.0
C446 C 0.10796 0.19848 0.644 0.0
C447 C 0.14607 0.22171 0.56895 0.0
C448 C 0.19094 0.21352 0.56788 0.0
Zn449 Zn 0.25661 0.16359 0.62832 0.0
C450 C 0.3502 0.26605 0.66429 0.0
N451 N 0.38566 0.12277 0.61454 0.0
C452 C 0.43227 0.13638 0.66524 0.0
C453 C 0.37142 0.08633 0.53938 0.0
C454 C 0.40445 0.0645 0.51004 0.0
C455 C 0.45384 0.0794 0.55728 0.0
C456 C 0.46678 0.11549 0.63731 0.0
Zn457 Zn 0.3242 0.14664 0.63933 0.0
O458 O 0.2666 0.1671 0.78352 0.0
C459 C 0.21431 0.04764 0.63227 0.0
O460 O 0.3197 0.13036 0.78693 0.0
H461 H 0.33473 0.07514 0.49875 0.0
H462 H 0.16773 0.13977 0.77112 0.0
H463 H 0.44374 0.1645 0.72568 0.0
O464 O 0.20178 0.0843 0.64326 0.0
O465 O 0.26375 0.06071 0.61548 0.0
H466 H 0.21955 0.22935 0.50806 0.0
O467 O 0.32876 0.16463 0.48591 0.0
O468 O 0.24737 0.15672 0.47866 0.0
O469 O 0.37339 0.23764 0.68442 0.0
O470 O 0.30813 0.24436 0.61251 0.0
C471 C 0.28973 0.16249 0.4364 0.0
H472 H 0.08869 0.15306 0.77924 0.0
H473 H 0.13887 0.24167 0.5082 0.0
H474 H 0.39373 0.03969 0.44509 0.0
H475 H 0.5054 0.13087 0.67416 0.0
C476 C 0.95126 0.16392 0.83067 0.0
N477 N 0.91662 1.03367 0.63811 0.0
C478 C 0.9359 1.01867 0.71536 0.0
C479 C 0.92793 0.96618 0.72044 0.0
C480 C 0.90104 0.92931 0.64429 0.0
C481 C 0.87756 0.94387 0.56932 0.0
C482 C 0.88572 0.99692 0.56795 0.0
Zn483 Zn 0.93575 0.11274 0.62783 0.0
C484 C 0.83333 0.10384 0.66416 0.0
N485 N 0.97667 0.28272 0.61427 0.0
C486 C 0.96291 0.31561 0.66492 0.0
C487 C 1.01315 0.30502 0.53915 0.0
C488 C 1.03487 0.35986 0.50979 0.0
C489 C 1.01985 0.39425 0.55703 0.0
C490 C 0.98371 0.371 0.63702 0.0
Zn491 Zn 0.95284 0.19739 0.63903 0.0
O492 O 0.93243 0.11938 0.78301 0.0
C493 C 1.05185 0.18662 0.63163 0.0
O494 O 0.96909 0.20923 0.78668 0.0
H495 H 1.02446 0.27961 0.49858 0.0
H496 H 0.96008 0.04822 0.77044 0.0
H497 H 0.93474 0.29889 0.72532 0.0
O498 O 1.01511 0.13738 0.64235 0.0
O499 O 1.03884 0.22302 0.61518 0.0
H500 H 0.8697 1.00946 0.50819 0.0
O501 O 0.93484 0.18382 0.48557 0.0
O502 O 0.94235 0.11016 0.47817 0.0
O503 O 0.86181 0.15549 0.6841 0.0
O504 O 0.85495 0.08335 0.61247 0.0
C505 C 0.93669 0.14678 0.436 0.0
H506 H 0.94688 0.95599 0.77908 0.0
H507 H 0.85743 0.9165 0.50885 0.0
H508 H 0.05973 0.37402 0.44487 0.0
H509 H 0.96823 0.39413 0.67388 0.0
C510 C 0.28963 0.14695 0.93639 0.0
N511 N 0.38567 0.28268 0.11456 0.0
C512 C 0.3714 0.30491 0.03958 0.0
C513 C 0.40449 0.35977 0.01024 0.0
C514 C 0.45398 0.39423 0.05729 0.0
C515 C 0.46695 0.37106 0.13716 0.0
C516 C 0.43237 0.31565 0.1651 0.0
Zn517 Zn 0.32419 0.19735 0.13937 0.0
C518 C 0.21429 0.18639 0.13244 0.0
N519 N 0.19668 1.03364 0.13844 0.0
C520 C 0.19082 0.99708 0.06794 0.0
C521 C 0.16243 1.01841 0.21586 0.0
C522 C 0.11788 0.96585 0.22074 0.0
C523 C 0.10786 0.9292 0.14422 0.0
C524 C 0.14591 0.94399 0.0691 0.0
Zn525 Zn 0.25659 0.11275 0.12831 0.0
O526 O 0.32866 0.18388 -0.01408 0.0
C527 C 0.35016 0.10392 0.16412 0.0
O528 O 0.24729 0.11031 -0.02137 0.0
H529 H 0.16781 0.0478 0.27124 0.0
H530 H 0.33465 0.27944 -0.00093 0.0
H531 H 0.21939 1.0098 0.00806 0.0
O532 O 0.37336 0.15554 0.18427 0.0
O533 O 0.30808 0.08349 0.11239 0.0
H534 H 0.44388 0.29898 0.22539 0.0
O535 O 0.26665 0.11931 0.28348 0.0
O536 O 0.31978 0.20919 0.287 0.0
O537 O 0.20178 0.13719 0.14336 0.0
O538 O 0.26374 0.22281 0.11568 0.0
C539 C 0.29237 0.16388 0.33107 0.0
H540 H 0.39373 0.37389 -0.05459 0.0
H541 H 0.50563 0.39427 0.17386 0.0
H542 H 0.08872 0.95547 0.27952 0.0
H543 H 0.13865 0.91679 0.00835 0.0
C544 C 0.95244 0.16245 0.936 0.0
N545 N 0.81643 0.12247 0.11424 0.0
C546 C 0.7941 0.08596 0.0392 0.0
C547 C 0.73924 0.06428 0.00981 0.0
C548 C 0.70486 0.07937 0.05696 0.0
C549 C 0.72812 0.1155 0.13692 0.0
C550 C 0.78353 0.13627 0.16484 0.0
Zn551 Zn 0.90177 0.14629 0.13902 0.0
C552 C 0.91265 0.04739 0.13173 0.0
N553 N 0.06559 0.18263 0.13822 0.0
C554 C 0.10237 0.21349 0.06806 0.0
C555 C 0.08056 0.16338 0.21553 0.0
C556 C 0.13308 0.17132 0.22066 0.0
C557 C 0.16997 0.19817 0.1445 0.0
C558 C 0.15544 0.22163 0.06948 0.0
Zn559 Zn 0.98648 0.16346 0.12786 0.0
O560 O 0.91536 0.16427 -0.01445 0.0
C561 C 0.99529 0.2658 0.16403 0.0
O562 O 0.98911 0.15685 -0.02181 0.0
H563 H 1.05099 0.13921 0.27062 0.0
H564 H 0.81952 0.07462 -0.0013 0.0
H565 H 0.08984 0.22949 0.00826 0.0
O566 O 0.94361 0.23728 0.18398 0.0
O567 O 1.01584 0.24422 0.11242 0.0
H568 H 0.80027 0.16444 0.22518 0.0
O569 O 0.9798 0.16681 0.28301 0.0
O570 O 0.88989 0.13008 0.28667 0.0
O571 O 0.96189 0.08415 0.14246 0.0
O572 O 0.87619 0.06034 0.11525 0.0
C573 C 0.93522 0.14797 0.33068 0.0
H574 H 0.72507 1.03942 0.94492 0.0
H575 H 0.70499 0.131 0.17373 0.0
H576 H 0.14326 0.15239 0.27935 0.0
H577 H 0.18284 0.24173 0.009 0.0
C578 C 0.93669 0.80953 0.93622 0.0
N579 N 0.97654 0.71363 0.11441 0.0
C580 C 1.013 0.72783 0.03925 0.0
C581 C 1.0348 0.69478 0.00993 0.0
C582 C 1.01987 0.64542 0.05722 0.0
C583 C 0.98375 0.63251 0.13724 0.0
C584 C 0.96288 0.66704 0.16514 0.0
Zn585 Zn 0.95269 0.7751 0.13917 0.0
C586 C 1.05172 0.88494 0.13195 0.0
N587 N 0.91651 0.90259 0.13824 0.0
C588 C 0.8857 0.90835 0.06788 0.0
C589 C 0.93565 0.93691 0.21551 0.0
C590 C 0.92765 0.98143 0.22038 0.0
C591 C 0.90086 0.99131 0.14402 0.0
C592 C 0.87751 0.95321 0.06904 0.0
Zn593 Zn 0.93568 0.84268 0.12812 0.0
O594 O 0.93468 0.77058 -0.01427 0.0
C595 C 0.83321 0.74911 0.16426 0.0
O596 O 0.94243 0.85185 -0.02154 0.0
H597 H 0.95975 0.93161 0.27077 0.0
H598 H 1.02424 0.76451 -0.00138 0.0
H599 H 0.86977 0.87974 0.00811 0.0
O600 O 0.86165 0.72594 0.18428 0.0
O601 O 0.85488 0.79118 0.11254 0.0
H602 H 0.93475 0.6556 0.22559 0.0
O603 O 0.93227 0.83274 0.28331 0.0
O604 O 0.96895 0.7796 0.28678 0.0
O605 O 1.01503 0.89746 0.14284 0.0
O606 O 1.03867 0.83551 0.1153 0.0
C607 C 0.95113 0.80706 0.33088 0.0
H608 H 0.05964 0.70547 0.94498 0.0
H609 H 0.96835 0.59392 0.17414 0.0
H610 H 0.94651 1.01063 0.27904 0.0
H611 H 0.85746 0.96038 0.0084 0.0
loop_
_geom_bond_atom_site_label_1
_geom_bond_atom_site_label_2
_geom_bond_distance
_geom_bond_site_symmetry_2
_ccdc_geom_bond_type
C0 O16 1.251 . S
C0 O18 1.254 . S
N1 C2 1.333 . S
N1 C6 1.307 1_554 S
N1 Zn7 2.020 . S
C2 N1 1.333 . S
C2 C3 1.379 . S
C2 H20 0.952 . S
C3 C2 1.379 . S
C3 C4 1.390 . S
C3 H30 0.949 . S
C4 C3 1.390 . S
C4 C5 1.357 1_554 S
C5 C4 1.357 1_556 S
C5 C6 1.370 . S
C5 H31 0.950 . S
C6 N1 1.307 1_556 S
C6 C5 1.370 . S
C6 H24 0.948 . S
Zn7 N1 2.020 . S
Zn7 O16 2.039 . S
Zn7 O22 2.034 . S
Zn7 O26 2.025 1_554 S
Zn7 O28 2.024 . S
C8 O27 1.246 . S
C8 O28 1.249 . S
N9 C10 1.307 . S
N9 C11 1.333 1_544 S
N9 Zn15 2.020 . S
C10 N9 1.307 . S
C10 C14 1.370 1_545 S
C10 H21 0.948 . S
C11 N9 1.333 1_566 S
C11 C12 1.379 . S
C11 H19 0.952 1_565 S
C12 C11 1.379 . S
C12 C13 1.390 . S
C12 H32 0.949 . S
C13 C12 1.390 . S
C13 C14 1.357 1_556 S
C14 C10 1.370 1_565 S
C14 C13 1.357 1_554 S
C14 H33 0.950 . S
Zn15 N9 2.020 . S
Zn15 O18 2.025 . S
Zn15 O23 2.024 . S
Zn15 O25 2.039 1_554 S
Zn15 O27 2.034 . S
O16 C0 1.251 . S
O16 Zn7 2.039 . S
C17 O22 1.246 1_556 S
C17 O23 1.249 1_556 S
O18 C0 1.254 . S
O18 Zn15 2.025 . S
H19 C11 0.952 1_545 S
H20 C2 0.952 . S
H21 C10 0.948 . S
O22 Zn7 2.034 . S
O22 C17 1.246 1_554 S
O23 Zn15 2.024 . S
O23 C17 1.249 1_554 S
H24 C6 0.948 . S
O25 Zn15 2.039 1_556 S
O25 C29 1.251 . S
O26 Zn7 2.025 1_556 S
O26 C29 1.254 . S
O27 C8 1.246 . S
O27 Zn15 2.034 . S
O28 Zn7 2.024 . S
O28 C8 1.249 . S
C29 O25 1.251 . S
C29 O26 1.254 . S
H30 C3 0.949 . S
H31 C5 0.950 . S
H32 C12 0.949 . S
H33 C14 0.950 . S
C34 O50 1.251 . S
C34 O52 1.254 . S
N35 C36 1.333 . S
N35 C40 1.307 1_554 S
N35 Zn41 2.020 . S
C36 N35 1.333 . S
C36 C37 1.379 . S
C36 H54 0.952 . S
C37 C36 1.379 . S
C37 C38 1.390 . S
C37 H64 0.949 . S
C38 C37 1.390 . S
C38 C39 1.357 1_554 S
C39 C38 1.357 1_556 S
C39 C40 1.370 . S
C39 H65 0.950 . S
C40 N35 1.307 1_556 S
C40 C39 1.370 . S
C40 H58 0.948 . S
Zn41 N35 2.020 . S
Zn41 O50 2.039 . S
Zn41 O56 2.034 . S
Zn41 O60 2.025 1_554 S
Zn41 O62 2.024 . S
C42 O61 1.246 . S
C42 O62 1.249 . S
N43 C44 1.307 . S
N43 C45 1.333 1_654 S
N43 Zn49 2.020 . S
C44 N43 1.307 . S
C44 C48 1.370 1_655 S
C44 H55 0.948 . S
C45 N43 1.333 1_456 S
C45 C46 1.379 . S
C45 H53 0.952 1_455 S
C46 C45 1.379 . S
C46 C47 1.390 . S
C46 H66 0.949 . S
C47 C46 1.390 . S
C47 C48 1.357 1_556 S
C48 C44 1.370 1_455 S
C48 C47 1.357 1_554 S
C48 H67 0.950 . S
Zn49 N43 2.020 . S
Zn49 O52 2.025 . S
Zn49 O57 2.024 . S
Zn49 O59 2.039 1_554 S
Zn49 O61 2.034 . S
O50 C34 1.251 . S
O50 Zn41 2.039 . S
C51 O56 1.246 1_556 S
C51 O57 1.249 1_556 S
O52 C34 1.254 . S
O52 Zn49 2.025 . S
H53 C45 0.952 1_655 S
H54 C36 0.952 . S
H55 C44 0.948 . S
O56 Zn41 2.034 . S
O56 C51 1.246 1_554 S
O57 Zn49 2.024 . S
O57 C51 1.249 1_554 S
H58 C40 0.948 . S
O59 Zn49 2.039 1_556 S
O59 C63 1.251 . S
O60 Zn41 2.025 1_556 S
O60 C63 1.254 . S
O61 C42 1.246 . S
O61 Zn49 2.034 . S
O62 Zn41 2.024 . S
O62 C42 1.249 . S
C63 O59 1.251 . S
C63 O60 1.254 . S
H64 C37 0.949 . S
H65 C39 0.950 . S
H66 C46 0.949 . S
H67 C48 0.950 . S
C68 O84 1.251 . S
C68 O86 1.254 . S
N69 C70 1.333 . S
N69 C74 1.307 1_554 S
N69 Zn75 2.020 . S
C70 N69 1.333 . S
C70 C71 1.379 . S
C70 H88 0.952 . S
C71 C70 1.379 . S
C71 C72 1.390 . S
C71 H98 0.949 . S
C72 C71 1.390 . S
C72 C73 1.357 1_554 S
C73 C72 1.357 1_556 S
C73 C74 1.370 . S
C73 H99 0.950 . S
C74 N69 1.307 1_556 S
C74 C73 1.370 . S
C74 H92 0.948 . S
Zn75 N69 2.020 . S
Zn75 O84 2.039 . S
Zn75 O90 2.034 . S
Zn75 O94 2.025 1_554 S
Zn75 O96 2.024 . S
C76 O95 1.246 . S
C76 O96 1.249 . S
N77 C78 1.307 . S
N77 C79 1.333 1_554 S
N77 Zn83 2.020 . S
C78 N77 1.307 . S
C78 C82 1.370 . S
C78 H89 0.948 . S
C79 N77 1.333 1_556 S
C79 C80 1.379 . S
C79 H87 0.952 . S
C80 C79 1.379 . S
C80 C81 1.390 . S
C80 H100 0.949 . S
C81 C80 1.390 . S
C81 C82 1.357 1_556 S
C82 C78 1.370 . S
C82 C81 1.357 1_554 S
C82 H101 0.950 . S
Zn83 N77 2.020 . S
Zn83 O86 2.025 . S
Zn83 O91 2.024 . S
Zn83 O93 2.039 1_554 S
Zn83 O95 2.034 . S
O84 C68 1.251 . S
O84 Zn75 2.039 . S
C85 O90 1.246 1_556 S
C85 O91 1.249 1_556 S
O86 C68 1.254 . S
O86 Zn83 2.025 . S
H87 C79 0.952 . S
H88 C70 0.952 . S
H89 C78 0.948 . S
O90 Zn75 2.034 . S
O90 C85 1.246 1_554 S
O91 Zn83 2.024 . S
O91 C85 1.249 1_554 S
H92 C74 0.948 . S
O93 Zn83 2.039 1_556 S
O93 C97 1.251 . S
O94 Zn75 2.025 1_556 S
O94 C97 1.254 . S
O95 C76 1.246 . S
O95 Zn83 2.034 . S
O96 Zn75 2.024 . S
O96 C76 1.249 . S
C97 O93 1.251 . S
C97 O94 1.254 . S
H98 C71 0.949 . S
H99 C73 0.950 . S
H100 C80 0.949 . S
H101 C82 0.950 . S
C102 O118 1.251 . S
C102 O120 1.254 . S
N103 C104 1.333 1_655 S
N103 C108 1.307 . S
N103 Zn109 2.020 . S
C104 N103 1.333 1_455 S
C104 C105 1.379 . S
C104 H122 0.952 1_455 S
C105 C104 1.379 . S
C105 C106 1.390 . S
C105 H132 0.949 . S
C106 C105 1.390 . S
C106 C107 1.357 . S
C107 C106 1.357 . S
C107 C108 1.370 1_455 S
C107 H133 0.950 . S
C108 N103 1.307 . S
C108 C107 1.370 1_655 S
C108 H126 0.948 . S
Zn109 N103 2.020 . S
Zn109 O118 2.039 . S
Zn109 O124 2.034 . S
Zn109 O128 2.025 . S
Zn109 O130 2.024 . S
C110 O129 1.246 . S
C110 O130 1.249 . S
N111 C112 1.307 . S
N111 C113 1.333 . S
N111 Zn117 2.020 . S
C112 N111 1.307 . S
C112 C116 1.370 . S
C112 H123 0.948 . S
C113 N111 1.333 . S
C113 C114 1.379 . S
C113 H121 0.952 . S
C114 C113 1.379 . S
C114 C115 1.390 . S
C114 H134 0.949 . S
C115 C114 1.390 . S
C115 C116 1.357 . S
C116 C112 1.370 . S
C116 C115 1.357 . S
C116 H135 0.950 . S
Zn117 N111 2.020 . S
Zn117 O120 2.025 . S
Zn117 O125 2.024 . S
Zn117 O127 2.039 . S
Zn117 O129 2.034 . S
O118 C102 1.251 . S
O118 Zn109 2.039 . S
C119 O124 1.246 . S
C119 O125 1.249 . S
O120 C102 1.254 . S
O120 Zn117 2.025 . S
H121 C113 0.952 . S
H122 C104 0.952 1_655 S
H123 C112 0.948 . S
O124 Zn109 2.034 . S
O124 C119 1.246 . S
O125 Zn117 2.024 . S
O125 C119 1.249 . S
H126 C108 0.948 . S
O127 Zn117 2.039 . S
O127 C131 1.251 . S
O128 Zn109 2.025 . S
O128 C131 1.254 . S
O129 C110 1.246 . S
O129 Zn117 2.034 . S
O130 Zn109 2.024 . S
O130 C110 1.249 . S
C131 O127 1.251 . S
C131 O128 1.254 . S
H132 C105 0.949 . S
H133 C107 0.950 . S
H134 C114 0.949 . S
H135 C116 0.950 . S
C136 O152 1.251 . S
C136 O154 1.254 . S
N137 C138 1.333 . S
N137 C142 1.307 . S
N137 Zn143 2.020 . S
C138 N137 1.333 . S
C138 C139 1.379 . S
C138 H156 0.952 . S
C139 C138 1.379 . S
C139 C140 1.390 . S
C139 H166 0.949 . S
C140 C139 1.390 . S
C140 C141 1.357 . S
C141 C140 1.357 . S
C141 C142 1.370 . S
C141 H167 0.950 . S
C142 N137 1.307 . S
C142 C141 1.370 . S
C142 H160 0.948 . S
Zn143 N137 2.020 . S
Zn143 O152 2.039 . S
Zn143 O158 2.034 . S
Zn143 O162 2.025 . S
Zn143 O164 2.024 . S
C144 O163 1.246 . S
C144 O164 1.249 . S
N145 C146 1.307 . S
N145 C147 1.333 . S
N145 Zn151 2.020 . S
C146 N145 1.307 . S
C146 C150 1.370 . S
C146 H157 0.948 . S
C147 N145 1.333 . S
C147 C148 1.379 . S
C147 H155 0.952 . S
C148 C147 1.379 . S
C148 C149 1.390 . S
C148 H168 0.949 . S
C149 C148 1.390 . S
C149 C150 1.357 . S
C150 C146 1.370 . S
C150 C149 1.357 . S
C150 H169 0.950 . S
Zn151 N145 2.020 . S
Zn151 O154 2.025 . S
Zn151 O159 2.024 . S
Zn151 O161 2.039 . S
Zn151 O163 2.034 . S
O152 C136 1.251 . S
O152 Zn143 2.039 . S
C153 O158 1.246 . S
C153 O159 1.249 . S
O154 C136 1.254 . S
O154 Zn151 2.025 . S
H155 C147 0.952 . S
H156 C138 0.952 . S
H157 C146 0.948 . S
O158 Zn143 2.034 . S
O158 C153 1.246 . S
O159 Zn151 2.024 . S
O159 C153 1.249 . S
H160 C142 0.948 . S
O161 Zn151 2.039 . S
O161 C165 1.251 . S
O162 Zn143 2.025 . S
O162 C165 1.254 . S
O163 C144 1.246 . S
O163 Zn151 2.034 . S
O164 Zn143 2.024 . S
O164 C144 1.249 . S
C165 O161 1.251 . S
C165 O162 1.254 . S
H166 C139 0.949 . S
H167 C141 0.950 . S
H168 C148 0.949 . S
H169 C150 0.950 . S
C170 O186 1.251 . S
C170 O188 1.254 . S
N171 C172 1.333 1_545 S
N171 C176 1.307 . S
N171 Zn177 2.020 . S
C172 N171 1.333 1_565 S
C172 C173 1.379 . S
C172 H190 0.952 1_565 S
C173 C172 1.379 . S
C173 C174 1.390 . S
C173 H200 0.949 . S
C174 C173 1.390 . S
C174 C175 1.357 . S
C175 C174 1.357 . S
C175 C176 1.370 1_565 S
C175 H201 0.950 . S
C176 N171 1.307 . S
C176 C175 1.370 1_545 S
C176 H194 0.948 . S
Zn177 N171 2.020 . S
Zn177 O186 2.039 . S
Zn177 O192 2.034 . S
Zn177 O196 2.025 . S
Zn177 O198 2.024 . S
C178 O197 1.246 . S
C178 O198 1.249 . S
N179 C180 1.307 . S
N179 C181 1.333 . S
N179 Zn185 2.020 . S
C180 N179 1.307 . S
C180 C184 1.370 . S
C180 H191 0.948 . S
C181 N179 1.333 . S
C181 C182 1.379 . S
C181 H189 0.952 . S
C182 C181 1.379 . S
C182 C183 1.390 . S
C182 H202 0.949 . S
C183 C182 1.390 . S
C183 C184 1.357 . S
C184 C180 1.370 . S
C184 C183 1.357 . S
C184 H203 0.950 . S
Zn185 N179 2.020 . S
Zn185 O188 2.025 . S
Zn185 O193 2.024 . S
Zn185 O195 2.039 . S
Zn185 O197 2.034 . S
O186 C170 1.251 . S
O186 Zn177 2.039 . S
C187 O192 1.246 . S
C187 O193 1.249 . S
O188 C170 1.254 . S
O188 Zn185 2.025 . S
H189 C181 0.952 . S
H190 C172 0.952 1_545 S
H191 C180 0.948 . S
O192 Zn177 2.034 . S
O192 C187 1.246 . S
O193 Zn185 2.024 . S
O193 C187 1.249 . S
H194 C176 0.948 . S
O195 Zn185 2.039 . S
O195 C199 1.251 . S
O196 Zn177 2.025 . S
O196 C199 1.254 . S
O197 C178 1.246 . S
O197 Zn185 2.034 . S
O198 Zn177 2.024 . S
O198 C178 1.249 . S
C199 O195 1.251 . S
C199 O196 1.254 . S
H200 C173 0.949 . S
H201 C175 0.950 . S
H202 C182 0.949 . S
H203 C184 0.950 . S
C204 O220 1.251 . S
C204 O222 1.254 . S
N205 C206 1.333 . S
N205 C210 1.307 . S
N205 Zn211 2.020 . S
C206 N205 1.333 . S
C206 C207 1.379 . S
C206 H224 0.952 . S
C207 C206 1.379 . S
C207 C208 1.390 . S
C207 H234 0.949 . S
C208 C207 1.390 . S
C208 C209 1.357 . S
C209 C208 1.357 . S
C209 C210 1.370 . S
C209 H235 0.950 . S
C210 N205 1.307 . S
C210 C209 1.370 . S
C210 H228 0.948 . S
Zn211 N205 2.020 . S
Zn211 O220 2.039 . S
Zn211 O226 2.034 . S
Zn211 O230 2.025 . S
Zn211 O232 2.024 . S
C212 O231 1.246 . S
C212 O232 1.249 . S
N213 C214 1.307 . S
N213 C215 1.333 . S
N213 Zn219 2.020 . S
C214 N213 1.307 . S
C214 C218 1.370 . S
C214 H225 0.948 . S
C215 N213 1.333 . S
C215 C216 1.379 . S
C215 H223 0.952 . S
C216 C215 1.379 . S
C216 C217 1.390 . S
C216 H236 0.949 . S
C217 C216 1.390 . S
C217 C218 1.357 . S
C218 C214 1.370 . S
C218 C217 1.357 . S
C218 H237 0.950 . S
Zn219 N213 2.020 . S
Zn219 O222 2.025 . S
Zn219 O227 2.024 . S
Zn219 O229 2.039 . S
Zn219 O231 2.034 . S
O220 C204 1.251 . S
O220 Zn211 2.039 . S
C221 O226 1.246 . S
C221 O227 1.249 . S
O222 C204 1.254 . S
O222 Zn219 2.025 . S
H223 C215 0.952 . S
H224 C206 0.952 . S
H225 C214 0.948 . S
O226 Zn211 2.034 . S
O226 C221 1.246 . S
O227 Zn219 2.024 . S
O227 C221 1.249 . S
H228 C210 0.948 . S
O229 Zn219 2.039 . S
O229 C233 1.251 . S
O230 Zn211 2.025 . S
O230 C233 1.254 . S
O231 C212 1.246 . S
O231 Zn219 2.034 . S
O232 Zn211 2.024 . S
O232 C212 1.249 . S
C233 O229 1.251 . S
C233 O230 1.254 . S
H234 C207 0.949 . S
H235 C209 0.950 . S
H236 C216 0.949 . S
H237 C218 0.950 . S
C238 O254 1.251 . S
C238 O256 1.254 . S
N239 C240 1.333 . S
N239 C244 1.307 . S
N239 Zn245 2.020 . S
C240 N239 1.333 . S
C240 C241 1.379 . S
C240 H258 0.952 . S
C241 C240 1.379 . S
C241 C242 1.390 . S
C241 H268 0.949 . S
C242 C241 1.390 . S
C242 C243 1.357 . S
C243 C242 1.357 . S
C243 C244 1.370 . S
C243 H269 0.950 . S
C244 N239 1.307 . S
C244 C243 1.370 . S
C244 H262 0.948 . S
Zn245 N239 2.020 . S
Zn245 O254 2.039 . S
Zn245 O260 2.034 . S
Zn245 O264 2.025 . S
Zn245 O266 2.024 . S
C246 O265 1.246 . S
C246 O266 1.249 . S
N247 C248 1.307 . S
N247 C249 1.333 . S
N247 Zn253 2.020 . S
C248 N247 1.307 . S
C248 C252 1.370 . S
C248 H259 0.948 . S
C249 N247 1.333 . S
C249 C250 1.379 . S
C249 H257 0.952 . S
C250 C249 1.379 . S
C250 C251 1.390 . S
C250 H270 0.949 . S
C251 C250 1.390 . S
C251 C252 1.357 . S
C252 C248 1.370 . S
C252 C251 1.357 . S
C252 H271 0.950 . S
Zn253 N247 2.020 . S
Zn253 O256 2.025 . S
Zn253 O261 2.024 . S
Zn253 O263 2.039 . S
Zn253 O265 2.034 . S
O254 C238 1.251 . S
O254 Zn245 2.039 . S
C255 O260 1.246 . S
C255 O261 1.249 . S
O256 C238 1.254 . S
O256 Zn253 2.025 . S
H257 C249 0.952 . S
H258 C240 0.952 . S
H259 C248 0.948 . S
O260 Zn245 2.034 . S
O260 C255 1.246 . S
O261 Zn253 2.024 . S
O261 C255 1.249 . S
H262 C244 0.948 . S
O263 Zn253 2.039 . S
O263 C267 1.251 . S
O264 Zn245 2.025 . S
O264 C267 1.254 . S
O265 C246 1.246 . S
O265 Zn253 2.034 . S
O266 Zn245 2.024 . S
O266 C246 1.249 . S
C267 O263 1.251 . S
C267 O264 1.254 . S
H268 C241 0.949 . S
H269 C243 0.950 . S
H270 C250 0.949 . S
H271 C252 0.950 . S
C272 O288 1.251 . S
C272 O290 1.254 . S
N273 C274 1.333 . S
N273 C278 1.307 . S
N273 Zn279 2.020 . S
C274 N273 1.333 . S
C274 C275 1.379 . S
C274 H292 0.952 . S
C275 C274 1.379 . S
C275 C276 1.390 . S
C275 H302 0.949 . S
C276 C275 1.390 . S
C276 C277 1.357 . S
C277 C276 1.357 . S
C277 C278 1.370 . S
C277 H303 0.950 . S
C278 N273 1.307 . S
C278 C277 1.370 . S
C278 H296 0.948 . S
Zn279 N273 2.020 . S
Zn279 O288 2.039 . S
Zn279 O294 2.034 . S
Zn279 O298 2.025 . S
Zn279 O300 2.024 . S
C280 O299 1.246 . S
C280 O300 1.249 . S
N281 C282 1.307 . S
N281 C283 1.333 . S
N281 Zn287 2.020 . S
C282 N281 1.307 . S
C282 C286 1.370 . S
C282 H293 0.948 . S
C283 N281 1.333 . S
C283 C284 1.379 . S
C283 H291 0.952 . S
C284 C283 1.379 . S
C284 C285 1.390 . S
C284 H304 0.949 . S
C285 C284 1.390 . S
C285 C286 1.357 . S
C286 C282 1.370 . S
C286 C285 1.357 . S
C286 H305 0.950 . S
Zn287 N281 2.020 . S
Zn287 O290 2.025 . S
Zn287 O295 2.024 . S
Zn287 O297 2.039 . S
Zn287 O299 2.034 . S
O288 C272 1.251 . S
O288 Zn279 2.039 . S
C289 O294 1.246 . S
C289 O295 1.249 . S
O290 C272 1.254 . S
O290 Zn287 2.025 . S
H291 C283 0.952 . S
H292 C274 0.952 . S
H293 C282 0.948 . S
O294 Zn279 2.034 . S
O294 C289 1.246 . S
O295 Zn287 2.024 . S
O295 C289 1.249 . S
H296 C278 0.948 . S
O297 Zn287 2.039 . S
O297 C301 1.251 . S
O298 Zn279 2.025 . S
O298 C301 1.254 . S
O299 C280 1.246 . S
O299 Zn287 2.034 . S
O300 Zn279 2.024 . S
O300 C280 1.249 . S
C301 O297 1.251 . S
C301 O298 1.254 . S
H302 C275 0.949 . S
H303 C277 0.950 . S
H304 C284 0.949 . S
H305 C286 0.950 . S
C306 O322 1.251 . S
C306 O324 1.254 . S
N307 C308 1.333 . S
N307 C312 1.307 . S
N307 Zn313 2.020 . S
C308 N307 1.333 . S
C308 C309 1.379 . S
C308 H326 0.952 . S
C309 C308 1.379 . S
C309 C310 1.390 . S
C309 H336 0.949 . S
C310 C309 1.390 . S
C310 C311 1.357 . S
C311 C310 1.357 . S
C311 C312 1.370 . S
C311 H337 0.950 . S
C312 N307 1.307 . S
C312 C311 1.370 . S
C312 H330 0.948 . S
Zn313 N307 2.020 . S
Zn313 O322 2.039 . S
Zn313 O328 2.034 . S
Zn313 O332 2.025 1_556 S
Zn313 O334 2.024 . S
C314 O333 1.246 . S
C314 O334 1.249 . S
N315 C316 1.307 . S
N315 C317 1.333 . S
N315 Zn321 2.020 . S
C316 N315 1.307 . S
C316 C320 1.370 . S
C316 H327 0.948 . S
C317 N315 1.333 . S
C317 C318 1.379 . S
C317 H325 0.952 . S
C318 C317 1.379 . S
C318 C319 1.390 . S
C318 H338 0.949 1_556 S
C319 C318 1.390 . S
C319 C320 1.357 . S
C320 C316 1.370 . S
C320 C319 1.357 . S
C320 H339 0.950 . S
Zn321 N315 2.020 . S
Zn321 O324 2.025 . S
Zn321 O329 2.024 . S
Zn321 O331 2.039 1_556 S
Zn321 O333 2.034 . S
O322 C306 1.251 . S
O322 Zn313 2.039 . S
C323 O328 1.246 . S
C323 O329 1.249 . S
O324 C306 1.254 . S
O324 Zn321 2.025 . S
H325 C317 0.952 . S
H326 C308 0.952 . S
H327 C316 0.948 . S
O328 Zn313 2.034 . S
O328 C323 1.246 . S
O329 Zn321 2.024 . S
O329 C323 1.249 . S
H330 C312 0.948 . S
O331 Zn321 2.039 1_554 S
O331 C335 1.251 . S
O332 Zn313 2.025 1_554 S
O332 C335 1.254 . S
O333 C314 1.246 . S
O333 Zn321 2.034 . S
O334 Zn313 2.024 . S
O334 C314 1.249 . S
C335 O331 1.251 . S
C335 O332 1.254 . S
H336 C309 0.949 . S
H337 C311 0.950 . S
H338 C318 0.949 1_554 S
H339 C320 0.950 . S
C340 O356 1.251 . S
C340 O358 1.254 . S
N341 C342 1.333 . S
N341 C346 1.307 . S
N341 Zn347 2.020 . S
C342 N341 1.333 . S
C342 C343 1.379 . S
C342 H360 0.952 . S
C343 C342 1.379 . S
C343 C344 1.390 . S
C343 H370 0.949 . S
C344 C343 1.390 . S
C344 C345 1.357 . S
C345 C344 1.357 . S
C345 C346 1.370 . S
C345 H371 0.950 . S
C346 N341 1.307 . S
C346 C345 1.370 . S
C346 H364 0.948 . S
Zn347 N341 2.020 . S
Zn347 O356 2.039 . S
Zn347 O362 2.034 . S
Zn347 O366 2.025 1_556 S
Zn347 O368 2.024 . S
C348 O367 1.246 . S
C348 O368 1.249 . S
N349 C350 1.307 . S
N349 C351 1.333 . S
N349 Zn355 2.020 . S
C350 N349 1.307 . S
C350 C354 1.370 . S
C350 H361 0.948 . S
C351 N349 1.333 . S
C351 C352 1.379 . S
C351 H359 0.952 . S
C352 C351 1.379 . S
C352 C353 1.390 . S
C352 H372 0.949 1_556 S
C353 C352 1.390 . S
C353 C354 1.357 . S
C354 C350 1.370 . S
C354 C353 1.357 . S
C354 H373 0.950 . S
Zn355 N349 2.020 . S
Zn355 O358 2.025 . S
Zn355 O363 2.024 . S
Zn355 O365 2.039 1_556 S
Zn355 O367 2.034 . S
O356 C340 1.251 . S
O356 Zn347 2.039 . S
C357 O362 1.246 . S
C357 O363 1.249 . S
O358 C340 1.254 . S
O358 Zn355 2.025 . S
H359 C351 0.952 . S
H360 C342 0.952 . S
H361 C350 0.948 . S
O362 Zn347 2.034 . S
O362 C357 1.246 . S
O363 Zn355 2.024 . S
O363 C357 1.249 . S
H364 C346 0.948 . S
O365 Zn355 2.039 1_554 S
O365 C369 1.251 . S
O366 Zn347 2.025 1_554 S
O366 C369 1.254 . S
O367 C348 1.246 . S
O367 Zn355 2.034 . S
O368 Zn347 2.024 . S
O368 C348 1.249 . S
C369 O365 1.251 . S
C369 O366 1.254 . S
H370 C343 0.949 . S
H371 C345 0.950 . S
H372 C352 0.949 1_554 S
H373 C354 0.950 . S
C374 O390 1.251 . S
C374 O392 1.254 . S
N375 C376 1.333 . S
N375 C380 1.307 . S
N375 Zn381 2.020 . S
C376 N375 1.333 . S
C376 C377 1.379 . S
C376 H394 0.952 . S
C377 C376 1.379 . S
C377 C378 1.390 . S
C377 H404 0.949 . S
C378 C377 1.390 . S
C378 C379 1.357 . S
C379 C378 1.357 . S
C379 C380 1.370 . S
C379 H405 0.950 . S
C380 N375 1.307 . S
C380 C379 1.370 . S
C380 H398 0.948 . S
Zn381 N375 2.020 . S
Zn381 O390 2.039 . S
Zn381 O396 2.034 . S
Zn381 O400 2.025 1_556 S
Zn381 O402 2.024 . S
C382 O401 1.246 . S
C382 O402 1.249 . S
N383 C384 1.307 . S
N383 C385 1.333 . S
N383 Zn389 2.020 . S
C384 N383 1.307 . S
C384 C388 1.370 . S
C384 H395 0.948 . S
C385 N383 1.333 . S
C385 C386 1.379 . S
C385 H393 0.952 . S
C386 C385 1.379 . S
C386 C387 1.390 . S
C386 H406 0.949 1_556 S
C387 C386 1.390 . S
C387 C388 1.357 . S
C388 C384 1.370 . S
C388 C387 1.357 . S
C388 H407 0.950 . S
Zn389 N383 2.020 . S
Zn389 O392 2.025 . S
Zn389 O397 2.024 . S
Zn389 O399 2.039 1_556 S
Zn389 O401 2.034 . S
O390 C374 1.251 . S
O390 Zn381 2.039 . S
C391 O396 1.246 . S
C391 O397 1.249 . S
O392 C374 1.254 . S
O392 Zn389 2.025 . S
H393 C385 0.952 . S
H394 C376 0.952 . S
H395 C384 0.948 . S
O396 Zn381 2.034 . S
O396 C391 1.246 . S
O397 Zn389 2.024 . S
O397 C391 1.249 . S
H398 C380 0.948 . S
O399 Zn389 2.039 1_554 S
O399 C403 1.251 . S
O400 Zn381 2.025 1_554 S
O400 C403 1.254 . S
O401 C382 1.246 . S
O401 Zn389 2.034 . S
O402 Zn381 2.024 . S
O402 C382 1.249 . S
C403 O399 1.251 . S
C403 O400 1.254 . S
H404 C377 0.949 . S
H405 C379 0.950 . S
H406 C386 0.949 1_554 S
H407 C388 0.950 . S
C408 O424 1.251 . S
C408 O426 1.254 . S
N409 C410 1.333 . S
N409 C414 1.307 . S
N409 Zn415 2.020 1_455 S
C410 N409 1.333 . S
C410 C411 1.379 1_565 S
C410 H428 0.952 . S
C411 C410 1.379 1_545 S
C411 C412 1.390 . S
C411 H438 0.949 . S
C412 C411 1.390 . S
C412 C413 1.357 1_545 S
C413 C412 1.357 1_565 S
C413 C414 1.370 . S
C413 H439 0.950 1_565 S
C414 N409 1.307 . S
C414 C413 1.370 . S
C414 H432 0.948 . S
Zn415 N409 2.020 1_655 S
Zn415 O424 2.039 . S
Zn415 O430 2.034 . S
Zn415 O434 2.025 . S
Zn415 O436 2.024 1_655 S
C416 O435 1.246 . S
C416 O436 1.249 1_655 S
N417 C418 1.307 . S
N417 C419 1.333 . S
N417 Zn423 2.020 . S
C418 N417 1.307 . S
C418 C422 1.370 . S
C418 H429 0.948 . S
C419 N417 1.333 . S
C419 C420 1.379 . S
C419 H427 0.952 . S
C420 C419 1.379 . S
C420 C421 1.390 . S
C420 H440 0.949 . S
C421 C420 1.390 . S
C421 C422 1.357 . S
C422 C418 1.370 . S
C422 C421 1.357 . S
C422 H441 0.950 . S
Zn423 N417 2.020 . S
Zn423 O426 2.025 . S
Zn423 O431 2.024 . S
Zn423 O433 2.039 . S
Zn423 O435 2.034 . S
O424 C408 1.251 . S
O424 Zn415 2.039 . S
C425 O430 1.246 . S
C425 O431 1.249 . S
O426 C408 1.254 . S
O426 Zn423 2.025 . S
H427 C419 0.952 . S
H428 C410 0.952 . S
H429 C418 0.948 . S
O430 Zn415 2.034 . S
O430 C425 1.246 . S
O431 Zn423 2.024 . S
O431 C425 1.249 . S
H432 C414 0.948 . S
O433 Zn423 2.039 . S
O433 C437 1.251 . S
O434 Zn415 2.025 . S
O434 C437 1.254 . S
O435 C416 1.246 . S
O435 Zn423 2.034 . S
O436 Zn415 2.024 1_455 S
O436 C416 1.249 1_455 S
C437 O433 1.251 . S
C437 O434 1.254 . S
H438 C411 0.949 . S
H439 C413 0.950 1_545 S
H440 C420 0.949 . S
H441 C422 0.950 . S
C442 O458 1.251 . S
C442 O460 1.254 . S
N443 C444 1.333 . S
N443 C448 1.307 . S
N443 Zn449 2.020 . S
C444 N443 1.333 . S
C444 C445 1.379 1_455 S
C444 H462 0.952 . S
C445 C444 1.379 1_655 S
C445 C446 1.390 . S
C445 H472 0.949 . S
C446 C445 1.390 . S
C446 C447 1.357 1_655 S
C447 C446 1.357 1_455 S
C447 C448 1.370 . S
C447 H473 0.950 1_455 S
C448 N443 1.307 . S
C448 C447 1.370 . S
C448 H466 0.948 . S
Zn449 N443 2.020 . S
Zn449 O458 2.039 . S
Zn449 O464 2.034 . S
Zn449 O468 2.025 . S
Zn449 O470 2.024 . S
C450 O469 1.246 . S
C450 O470 1.249 . S
N451 C452 1.307 . S
N451 C453 1.333 . S
N451 Zn457 2.020 . S
C452 N451 1.307 . S
C452 C456 1.370 . S
C452 H463 0.948 . S
C453 N451 1.333 . S
C453 C454 1.379 . S
C453 H461 0.952 . S
C454 C453 1.379 . S
C454 C455 1.390 . S
C454 H474 0.949 . S
C455 C454 1.390 . S
C455 C456 1.357 . S
C456 C452 1.370 . S
C456 C455 1.357 . S
C456 H475 0.950 . S
Zn457 N451 2.020 . S
Zn457 O460 2.025 . S
Zn457 O465 2.024 . S
Zn457 O467 2.039 . S
Zn457 O469 2.034 . S
O458 C442 1.251 . S
O458 Zn449 2.039 . S
C459 O464 1.246 . S
C459 O465 1.249 . S
O460 C442 1.254 . S
O460 Zn457 2.025 . S
H461 C453 0.952 . S
H462 C444 0.952 . S
H463 C452 0.948 . S
O464 Zn449 2.034 . S
O464 C459 1.246 . S
O465 Zn457 2.024 . S
O465 C459 1.249 . S
H466 C448 0.948 . S
O467 Zn457 2.039 . S
O467 C471 1.251 . S
O468 Zn449 2.025 . S
O468 C471 1.254 . S
O469 C450 1.246 . S
O469 Zn457 2.034 . S
O470 Zn449 2.024 . S
O470 C450 1.249 . S
C471 O467 1.251 . S
C471 O468 1.254 . S
H472 C445 0.949 . S
H473 C447 0.950 1_655 S
H474 C454 0.949 . S
H475 C456 0.950 . S
C476 O492 1.251 . S
C476 O494 1.254 . S
N477 C478 1.333 . S
N477 C482 1.307 . S
N477 Zn483 2.020 1_565 S
C478 N477 1.333 . S
C478 C479 1.379 . S
C478 H496 0.952 . S
C479 C478 1.379 . S
C479 C480 1.390 . S
C479 H506 0.949 . S
C480 C479 1.390 . S
C480 C481 1.357 . S
C481 C480 1.357 . S
C481 C482 1.370 . S
C481 H507 0.950 . S
C482 N477 1.307 . S
C482 C481 1.370 . S
C482 H500 0.948 . S
Zn483 N477 2.020 1_545 S
Zn483 O492 2.039 . S
Zn483 O498 2.034 . S
Zn483 O502 2.025 . S
Zn483 O504 2.024 1_545 S
C484 O503 1.246 . S
C484 O504 1.249 1_545 S
N485 C486 1.307 . S
N485 C487 1.333 . S
N485 Zn491 2.020 . S
C486 N485 1.307 . S
C486 C490 1.370 . S
C486 H497 0.948 . S
C487 N485 1.333 . S
C487 C488 1.379 . S
C487 H495 0.952 . S
C488 C487 1.379 . S
C488 C489 1.390 . S
C488 H508 0.949 . S
C489 C488 1.390 . S
C489 C490 1.357 . S
C490 C486 1.370 . S
C490 C489 1.357 . S
C490 H509 0.950 . S
Zn491 N485 2.020 . S
Zn491 O494 2.025 . S
Zn491 O499 2.024 . S
Zn491 O501 2.039 . S
Zn491 O503 2.034 . S
O492 C476 1.251 . S
O492 Zn483 2.039 . S
C493 O498 1.246 . S
C493 O499 1.249 . S
O494 C476 1.254 . S
O494 Zn491 2.025 . S
H495 C487 0.952 . S
H496 C478 0.952 . S
H497 C486 0.948 . S
O498 Zn483 2.034 . S
O498 C493 1.246 . S
O499 Zn491 2.024 . S
O499 C493 1.249 . S
H500 C482 0.948 . S
O501 Zn491 2.039 . S
O501 C505 1.251 . S
O502 Zn483 2.025 . S
O502 C505 1.254 . S
O503 C484 1.246 . S
O503 Zn491 2.034 . S
O504 Zn483 2.024 1_565 S
O504 C484 1.249 1_565 S
C505 O501 1.251 . S
C505 O502 1.254 . S
H506 C479 0.949 . S
H507 C481 0.950 . S
H508 C488 0.949 . S
H509 C490 0.950 . S
C510 O526 1.251 1_556 S
C510 O528 1.254 1_556 S
N511 C512 1.333 . S
N511 C516 1.307 . S
N511 Zn517 2.020 . S
C512 N511 1.333 . S
C512 C513 1.379 . S
C512 H530 0.952 . S
C513 C512 1.379 . S
C513 C514 1.390 . S
C513 H540 0.949 . S
C514 C513 1.390 . S
C514 C515 1.357 . S
C515 C514 1.357 . S
C515 C516 1.370 . S
C515 H541 0.950 . S
C516 N511 1.307 . S
C516 C515 1.370 . S
C516 H534 0.948 . S
Zn517 N511 2.020 . S
Zn517 O526 2.039 . S
Zn517 O532 2.034 . S
Zn517 O536 2.025 . S
Zn517 O538 2.024 . S
C518 O537 1.246 . S
C518 O538 1.249 . S
N519 C520 1.307 . S
N519 C521 1.333 . S
N519 Zn525 2.020 1_565 S
C520 N519 1.307 . S
C520 C524 1.370 . S
C520 H531 0.948 . S
C521 N519 1.333 . S
C521 C522 1.379 1_455 S
C521 H529 0.952 . S
C522 C521 1.379 1_655 S
C522 C523 1.390 . S
C522 H542 0.949 . S
C523 C522 1.390 . S
C523 C524 1.357 1_655 S
C524 C520 1.370 . S
C524 C523 1.357 1_455 S
C524 H543 0.950 1_455 S
Zn525 N519 2.020 1_545 S
Zn525 O528 2.025 . S
Zn525 O533 2.024 1_545 S
Zn525 O535 2.039 . S
Zn525 O537 2.034 . S
O526 C510 1.251 1_554 S
O526 Zn517 2.039 . S
C527 O532 1.246 . S
C527 O533 1.249 1_545 S
O528 C510 1.254 1_554 S
O528 Zn525 2.025 . S
H529 C521 0.952 . S
H530 C512 0.952 . S
H531 C520 0.948 . S
O532 Zn517 2.034 . S
O532 C527 1.246 . S
O533 Zn525 2.024 1_565 S
O533 C527 1.249 1_565 S
H534 C516 0.948 . S
O535 Zn525 2.039 . S
O535 C539 1.251 . S
O536 Zn517 2.025 . S
O536 C539 1.254 . S
O537 C518 1.246 . S
O537 Zn525 2.034 . S
O538 Zn517 2.024 . S
O538 C518 1.249 . S
C539 O535 1.251 . S
C539 O536 1.254 . S
H540 C513 0.949 . S
H541 C515 0.950 . S
H542 C522 0.949 . S
H543 C524 0.950 1_655 S
C544 O560 1.251 1_556 S
C544 O562 1.254 1_556 S
N545 C546 1.333 . S
N545 C550 1.307 . S
N545 Zn551 2.020 . S
C546 N545 1.333 . S
C546 C547 1.379 . S
C546 H564 0.952 . S
C547 C546 1.379 . S
C547 C548 1.390 . S
C547 H574 0.949 . S
C548 C547 1.390 . S
C548 C549 1.357 . S
C549 C548 1.357 . S
C549 C550 1.370 . S
C549 H575 0.950 . S
C550 N545 1.307 . S
C550 C549 1.370 . S
C550 H568 0.948 . S
Zn551 N545 2.020 . S
Zn551 O560 2.039 . S
Zn551 O566 2.034 . S
Zn551 O570 2.025 . S
Zn551 O572 2.024 . S
C552 O571 1.246 . S
C552 O572 1.249 . S
N553 C554 1.307 . S
N553 C555 1.333 . S
N553 Zn559 2.020 1_455 S
C554 N553 1.307 . S
C554 C558 1.370 . S
C554 H565 0.948 . S
C555 N553 1.333 . S
C555 C556 1.379 . S
C555 H563 0.952 . S
C556 C555 1.379 . S
C556 C557 1.390 . S
C556 H576 0.949 . S
C557 C556 1.390 . S
C557 C558 1.357 . S
C558 C554 1.370 . S
C558 C557 1.357 . S
C558 H577 0.950 . S
Zn559 N553 2.020 1_655 S
Zn559 O562 2.025 . S
Zn559 O567 2.024 1_655 S
Zn559 O569 2.039 . S
Zn559 O571 2.034 . S
O560 C544 1.251 1_554 S
O560 Zn551 2.039 . S
C561 O566 1.246 . S
C561 O567 1.249 1_655 S
O562 C544 1.254 1_554 S
O562 Zn559 2.025 . S
H563 C555 0.952 . S
H564 C546 0.952 . S
H565 C554 0.948 . S
O566 Zn551 2.034 . S
O566 C561 1.246 . S
O567 Zn559 2.024 1_455 S
O567 C561 1.249 1_455 S
H568 C550 0.948 . S
O569 Zn559 2.039 . S
O569 C573 1.251 . S
O570 Zn551 2.025 . S
O570 C573 1.254 . S
O571 C552 1.246 . S
O571 Zn559 2.034 . S
O572 Zn551 2.024 . S
O572 C552 1.249 . S
C573 O569 1.251 . S
C573 O570 1.254 . S
H574 C547 0.949 . S
H575 C549 0.950 . S
H576 C556 0.949 . S
H577 C558 0.950 . S
C578 O594 1.251 1_556 S
C578 O596 1.254 1_556 S
N579 C580 1.333 . S
N579 C584 1.307 . S
N579 Zn585 2.020 . S
C580 N579 1.333 . S
C580 C581 1.379 . S
C580 H598 0.952 . S
C581 C580 1.379 . S
C581 C582 1.390 . S
C581 H608 0.949 . S
C582 C581 1.390 . S
C582 C583 1.357 . S
C583 C582 1.357 . S
C583 C584 1.370 . S
C583 H609 0.950 . S
C584 N579 1.307 . S
C584 C583 1.370 . S
C584 H602 0.948 . S
Zn585 N579 2.020 . S
Zn585 O594 2.039 . S
Zn585 O600 2.034 . S
Zn585 O604 2.025 . S
Zn585 O606 2.024 . S
C586 O605 1.246 . S
C586 O606 1.249 . S
N587 C588 1.307 . S
N587 C589 1.333 . S
N587 Zn593 2.020 . S
C588 N587 1.307 . S
C588 C592 1.370 . S
C588 H599 0.948 . S
C589 N587 1.333 . S
C589 C590 1.379 1_565 S
C589 H597 0.952 . S
C590 C589 1.379 1_545 S
C590 C591 1.390 . S
C590 H610 0.949 . S
C591 C590 1.390 . S
C591 C592 1.357 1_545 S
C592 C588 1.370 . S
C592 C591 1.357 1_565 S
C592 H611 0.950 1_565 S
Zn593 N587 2.020 . S
Zn593 O596 2.025 . S
Zn593 O601 2.024 . S
Zn593 O603 2.039 . S
Zn593 O605 2.034 . S
O594 C578 1.251 1_554 S
O594 Zn585 2.039 . S
C595 O600 1.246 . S
C595 O601 1.249 . S
O596 C578 1.254 1_554 S
O596 Zn593 2.025 . S
H597 C589 0.952 . S
H598 C580 0.952 . S
H599 C588 0.948 . S
O600 Zn585 2.034 . S
O600 C595 1.246 . S
O601 Zn593 2.024 . S
O601 C595 1.249 . S
H602 C584 0.948 . S
O603 Zn593 2.039 . S
O603 C607 1.251 . S
O604 Zn585 2.025 . S
O604 C607 1.254 . S
O605 C586 1.246 . S
O605 Zn593 2.034 . S
O606 Zn585 2.024 . S
O606 C586 1.249 . S
C607 O603 1.251 . S
C607 O604 1.254 . S
H608 C581 0.949 . S
H609 C583 0.950 . S
H610 C590 0.949 . S
H611 C592 0.950 1_545 S
C17 C72 0.895 1_556 S
C4 C51 0.895 1_554 S
C85 C38 0.895 1_556 S
C149 C110 0.895 . S
C183 C144 0.895 . S
C178 C115 0.895 . S
C276 C221 0.895 . S
C255 C208 0.895 . S
C242 C289 0.895 . S
C314 C353 0.895 . S
C387 C348 0.895 . S
C382 C319 0.895 . S
C480 C425 0.895 . S
C459 C412 0.895 . S
C493 C446 0.895 . S
C518 C557 0.895 . S
C591 C552 0.895 . S
C523 C586 0.895 . S
C170 C0 1.928 . S
C102 C34 1.929 . S
C136 C68 1.928 . S
C63 C131 1.929 . S
C165 C97 1.928 . S
C29 C199 1.929 . S
C204 C374 1.929 . S
C238 C306 1.929 . S
C340 C272 1.929 . S
C335 C267 1.929 . S
C369 C301 1.929 . S
C403 C233 1.929 . S
C408 C578 1.929 . S
C442 C510 1.929 . S
C476 C544 1.929 . S
C539 C471 1.929 . S
C573 C505 1.929 . S
C607 C437 1.929 . S
C357 C13 2.685 . S
C47 C391 2.686 . S
C323 C81 2.686 . S
C106 C280 2.685 . S
C140 C212 2.686 . S
C246 C174 2.686 . S
C217 C561 2.685 1_455 S
C251 C595 2.685 . S
C285 C527 2.686 1_565 S
C484 C310 2.685 1_545 S
C416 C344 2.686 1_655 S
C450 C378 2.686 . S
C153 C421 2.685 . S
C455 C187 2.686 . S
C119 C489 2.686 . S
C514 C76 2.685 . S
C548 C8 2.686 . S
C42 C582 2.686 . S
