# Generated by pormake.
# Topology rob, (6)-cn, num edge types: 1
# Building blocks:
#     Node 0, Type 0, BuildingBlock: BETFAJ_clean_sbu_0, # of connection points: 6
#     Node 1, Type 0, BuildingBlock: BETFAJ_clean_sbu_0, # of connection points: 6
#     Node 2, Type 0, BuildingBlock: BETFAJ_clean_sbu_0, # of connection points: 6
#     Node 3, Type 0, BuildingBlock: BETFAJ_clean_sbu_0, # of connection points: 6
#     Edge 4, Type (0, 0), BuildingBlock: TEMPAE_clean_linker_10, # of connection points: 2
#     Edge 5, Type (0, 0), BuildingBlock: TEMPAE_clean_linker_10, # of connection points: 2
#     Edge 6, Type (0, 0), BuildingBlock: TEMPAE_clean_linker_10, # of connection points: 2
#     Edge 7, Type (0, 0), BuildingBlock: TEMPAE_clean_linker_10, # of connection points: 2
#     Edge 8, Type (0, 0), BuildingBlock: TEMPAE_clean_linker_10, # of connection points: 2
#     Edge 9, Type (0, 0), BuildingBlock: TEMPAE_clean_linker_10, # of connection points: 2
#     Edge 10, Type (0, 0), BuildingBlock: TEMPAE_clean_linker_10, # of connection points: 2
#     Edge 11, Type (0, 0), BuildingBlock: TEMPAE_clean_linker_10, # of connection points: 2
#     Edge 12, Type (0, 0), BuildingBlock: TEMPAE_clean_linker_10, # of connection points: 2
#     Edge 13, Type (0, 0), BuildingBlock: TEMPAE_clean_linker_10, # of connection points: 2
#     Edge 14, Type (0, 0), BuildingBlock: TEMPAE_clean_linker_10, # of connection points: 2
#     Edge 15, Type (0, 0), BuildingBlock: TEMPAE_clean_linker_10, # of connection points: 2
# Relax obj value: 0.155
# Max RMSD: 0.196
# Mean RMSD: 0.196
data_MOF--net-rob--node1-BETFAJ_clean_sbu_0--edge1-TEMPAE_clean_linker_10
_symmetry_space_group_name_H-M    P1
_symmetry_Int_Tables_number       1
_symmetry_cell_setting            triclinic
loop_
_symmetry_equiv_pos_as_xyz
'x, y, z'
_cell_length_a     16.567617
_cell_length_b     24.005391
_cell_length_c     37.840231
_cell_angle_alpha  89.829924
_cell_angle_beta   126.08946
_cell_angle_gamma 90.101943
loop_
_atom_site_label
_atom_site_type_symbol
_atom_site_fract_x
_atom_site_fract_y
_atom_site_fract_z
_atom_type_partial_charge
Sm0 Sm 0.17437 0.2647 0.99861 0.0
Sm1 Sm 0.37124 0.21564 0.00861 0.0
C2 C 0.02458 0.26625 0.00572 0.0
C3 C 0.01728 0.27712 0.04215 0.0
C4 C 0.93527 0.25711 0.04028 0.0
C5 C 0.93181 0.26306 0.07622 0.0
C6 C 1.01061 0.28904 0.11492 0.0
C7 C 0.09222 0.30959 0.11632 0.0
C8 C 0.09565 0.30351 0.08041 0.0
C9 C 0.3039 0.34927 0.01099 0.0
C10 C 0.38933 0.24002 0.09579 0.0
C11 C 0.50939 0.19461 0.99606 0.0
C12 C 0.51508 0.20266 0.95886 0.0
C13 C 0.45735 0.24366 0.92704 0.0
C14 C 0.4572 0.24817 0.8901 0.0
C15 C 0.51439 0.21155 0.88399 0.0
C16 C 0.57306 0.17096 0.91634 0.0
C17 C 0.5733 0.1666 0.95334 0.0
C18 C 0.24918 0.1407 0.0113 0.0
C19 C 0.16445 0.25265 0.91125 0.0
O20 O 0.07329 0.22094 0.00985 0.0
O21 O 0.04669 0.30871 0.99094 0.0
O22 O 0.31281 0.29755 0.00981 0.0
O23 O 0.22122 0.35886 0.0067 0.0
O24 O 0.29065 0.24315 0.07124 0.0
O25 O 0.44205 0.23764 0.07987 0.0
O26 O 0.50976 0.2397 0.01569 0.0
O27 O 0.44441 0.15746 0.99003 0.0
O28 O 0.22041 0.1826 0.98627 0.0
O29 O 0.34599 0.13555 0.0349 0.0
O30 O 0.26085 0.24069 0.93666 0.0
O31 O 0.10968 0.25999 0.92593 0.0
H32 H 0.87476 0.23583 0.01131 0.0
H33 H 0.86853 0.2459 0.07405 0.0
H34 H 0.15373 0.33041 0.14522 0.0
H35 H 0.16027 0.31871 0.08276 0.0
H36 H 0.41136 0.27184 0.93043 0.0
H37 H 0.41221 0.28046 0.86635 0.0
H38 H 0.61693 0.1415 0.91259 0.0
H39 H 0.61752 0.13429 0.97725 0.0
Sm40 Sm 0.66724 0.77207 1.00001 0.0
Sm41 Sm 0.86094 0.72238 0.00858 0.0
C42 C 0.51865 0.77712 0.00765 0.0
C43 C 0.51536 0.79158 0.04462 0.0
C44 C 0.4285 0.78227 0.04205 0.0
C45 C 0.42861 0.79088 0.07872 0.0
C46 C 0.51598 0.80855 0.11872 0.0
C47 C 0.60228 0.81887 0.12074 0.0
C48 C 0.60192 0.81048 0.08408 0.0
C49 C 0.80098 0.85561 0.01429 0.0
C50 C 0.88102 0.74467 0.09668 0.0
C51 C 0.99667 0.69756 0.99536 0.0
C52 C 1.00839 0.70933 0.96035 0.0
C53 C 0.95996 0.75487 0.93202 0.0
C54 C 0.96384 0.76263 0.89638 0.0
C55 C 1.0151 0.7245 0.88792 0.0
C56 C 0.06447 0.67927 0.91684 0.0
C57 C 0.06123 0.67189 0.95268 0.0
C58 C 0.73726 0.64724 0.01013 0.0
C59 C 0.65935 0.76841 0.91352 0.0
O60 O 0.56711 0.73114 0.01298 0.0
O61 O 0.53928 0.81774 0.99086 0.0
O62 O 0.80698 0.80392 0.01237 0.0
O63 O 0.71814 0.86617 0.00958 0.0
O64 O 0.78241 0.74797 0.07219 0.0
O65 O 0.93335 0.74264 0.08051 0.0
O66 O 1.00606 0.73974 0.01954 0.0
O67 O 0.92199 0.66469 0.98415 0.0
O68 O 0.70869 0.68965 0.98554 0.0
O69 O 0.83389 0.64208 0.03369 0.0
O70 O 0.75708 0.76006 0.93944 0.0
O71 O 0.60236 0.7669 0.92741 0.0
H72 H 0.3613 0.76709 0.01203 0.0
H73 H 0.3612 0.78194 0.07612 0.0
H74 H 0.67043 0.83314 0.15078 0.0
H75 H 0.66992 0.81771 0.08678 0.0
H76 H 0.91766 0.78396 0.93697 0.0
H77 H 0.92607 0.79838 0.87534 0.0
H78 H 0.10316 0.64845 0.9111 0.0
H79 H 0.09783 0.63602 0.97378 0.0
Sm80 Sm 0.35756 0.81258 0.5078 0.0
Sm81 Sm 0.17628 0.7686 0.50063 0.0
C82 C 0.4951 0.83697 0.49475 0.0
C83 C 0.50233 0.83235 0.45775 0.0
C84 C 0.42157 0.81226 0.41705 0.0
C85 C 0.42704 0.8097 0.38161 0.0
C86 C 0.51346 0.82746 0.38595 0.0
C87 C 0.59462 0.84744 0.4269 0.0
C88 C 0.58906 0.84976 0.46247 0.0
C89 C 0.23529 0.89275 0.50546 0.0
C90 C 0.15697 0.77227 0.41297 0.0
C91 C 0.03213 0.75436 0.51074 0.0
C92 C 0.02524 0.75163 0.54811 0.0
C93 C 0.98839 0.79739 0.55773 0.0
C94 C 0.98352 0.79571 0.59342 0.0
C95 C 1.01467 0.74804 0.62016 0.0
C96 C 0.05036 0.70205 0.6102 0.0
C97 C 0.05553 0.70378 0.57462 0.0
C98 C 0.29686 0.68594 0.50447 0.0
C99 C 0.38446 0.80052 0.59745 0.0
O100 O 0.49409 0.79031 0.51237 0.0
O101 O 0.42976 0.87276 0.48968 0.0
O102 O 0.2061 0.85018 0.48133 0.0
O103 O 0.33216 0.89468 0.5317 0.0
O104 O 0.2552 0.77331 0.43958 0.0
O105 O 0.10245 0.7793 0.42752 0.0
O106 O 0.05441 0.80281 0.50268 0.0
O107 O 0.07665 0.71309 0.50612 0.0
O108 O 0.32768 0.73018 0.52694 0.0
O109 O 0.20004 0.68268 0.48101 0.0
O110 O 0.28604 0.79666 0.57257 0.0
O111 O 0.43597 0.79973 0.58103 0.0
H112 H 0.35356 0.79918 0.41233 0.0
H113 H 0.36258 0.79481 0.35052 0.0
H114 H 0.66271 0.86092 0.43156 0.0
H115 H 0.65227 0.86552 0.49357 0.0
H116 H 0.9636 0.83468 0.53771 0.0
H117 H 0.95444 0.83159 0.59983 0.0
H118 H 0.07596 0.66492 0.63038 0.0
H119 H 0.08403 0.66766 0.56817 0.0
Sm120 Sm 0.85546 0.3135 0.50531 0.0
Sm121 Sm 0.65741 0.26379 0.49436 0.0
C122 C 0.99054 0.33714 0.4911 0.0
C123 C 1.00006 0.3268 0.45519 0.0
C124 C 0.93591 0.28949 0.42136 0.0
C125 C 0.93826 0.28421 0.38511 0.0
C126 C 1.00561 0.31585 0.38201 0.0
C127 C 0.07186 0.35202 0.41675 0.0
C128 C 0.06869 0.35759 0.45279 0.0
C129 C 0.73237 0.38783 0.50726 0.0
C130 C 0.65137 0.27071 0.40905 0.0
C131 C 0.50892 0.2635 0.50209 0.0
C132 C 0.5002 0.25242 0.5382 0.0
C133 C 0.44531 0.28934 0.54518 0.0
C134 C 0.44386 0.28313 0.5816 0.0
C135 C 0.49689 0.23961 0.61172 0.0
C136 C 0.55036 0.20198 0.60424 0.0
C137 C 0.55264 0.20856 0.56801 0.0
C138 C 0.78672 0.18004 0.50542 0.0
C139 C 0.87409 0.28245 0.59258 0.0
O140 O 0.99759 0.29382 0.51403 0.0
O141 O 0.9187 0.37127 0.48161 0.0
O142 O 0.70375 0.34627 0.48213 0.0
O143 O 0.82902 0.39313 0.53127 0.0
O144 O 0.74905 0.27892 0.43541 0.0
O145 O 0.59316 0.27098 0.42224 0.0
O146 O 0.55951 0.30837 0.50683 0.0
O147 O 0.52787 0.22114 0.48609 0.0
O148 O 0.79565 0.2319 0.50564 0.0
O149 O 0.70273 0.16935 0.49986 0.0
O150 O 0.77555 0.27783 0.56775 0.0
O151 O 0.92664 0.29132 0.57693 0.0
H152 H 0.88262 0.26511 0.4225 0.0
H153 H 0.88531 0.25639 0.35901 0.0
H154 H 0.12614 0.37627 0.41609 0.0
H155 H 0.1189 0.38666 0.4785 0.0
H156 H 0.40518 0.3238 0.5229 0.0
H157 H 0.40146 0.31254 0.5863 0.0
H158 H 0.59288 0.16846 0.62714 0.0
H159 H 0.59715 0.1801 0.56387 0.0
C160 C 0.71039 0.57062 0.04696 0.0
C161 C 0.67094 0.60641 0.01095 0.0
C162 C 0.65101 0.52959 0.04795 0.0
C163 C 0.54994 0.52313 0.01154 0.0
C164 C 0.50946 0.55953 0.97515 0.0
C165 C 0.57013 0.60118 0.97553 0.0
C166 C 0.6967 0.49299 0.08796 0.0
C167 C 0.40267 0.55367 0.93538 0.0
C168 C 0.42943 0.38142 0.99848 0.0
C169 C 0.36974 0.39278 0.0126 0.0
C170 C 0.4873 0.42352 0.99737 0.0
C171 C 0.48712 0.47814 0.01161 0.0
C172 C 0.42795 0.48946 0.02656 0.0
C173 C 0.36904 0.44687 0.0263 0.0
C174 C 0.54743 0.40972 0.98032 0.0
C175 C 0.42729 0.54651 0.04309 0.0
H176 H 0.78812 0.57481 0.0746 0.0
H177 H 0.53945 0.62863 0.94757 0.0
H178 H 0.65129 0.49496 0.10074 0.0
H179 H 0.69698 0.44898 0.07918 0.0
H180 H 0.77459 0.50533 0.11446 0.0
H181 H 0.38256 0.585 0.90972 0.0
H182 H 0.39078 0.51139 0.92129 0.0
H183 H 0.35097 0.55834 0.94474 0.0
H184 H 0.42855 0.33999 0.98705 0.0
H185 H 0.32281 0.45582 0.03719 0.0
H186 H 0.6279 0.4173 0.00609 0.0
H187 H 0.52475 0.43734 0.95231 0.0
H188 H 0.53775 0.36569 0.96951 0.0
H189 H 0.50445 0.5587 0.07041 0.0
H190 H 0.37945 0.54817 0.05472 0.0
H191 H 0.39978 0.57791 0.01677 0.0
C192 C 0.3218 0.5878 0.49036 0.0
C193 C 0.36176 0.64084 0.5072 0.0
C194 C 0.38109 0.5447 0.49171 0.0
C195 C 0.48213 0.55534 0.50883 0.0
C196 C 0.52282 0.60893 0.52585 0.0
C197 C 0.46273 0.65058 0.52566 0.0
C198 C 0.33546 0.48774 0.47477 0.0
C199 C 0.62927 0.6227 0.54341 0.0
C200 C 0.66821 0.43623 0.54438 0.0
C201 C 0.66497 0.42838 0.50692 0.0
C202 C 0.60701 0.47621 0.54507 0.0
C203 C 0.54446 0.51085 0.50805 0.0
C204 C 0.54193 0.50313 0.47024 0.0
C205 C 0.60081 0.46123 0.46986 0.0
C206 C 0.60906 0.4812 0.58534 0.0
C207 C 0.47889 0.54006 0.43054 0.0
H208 H 0.24402 0.57974 0.47642 0.0
H209 H 0.49435 0.69116 0.5392 0.0
H210 H 0.33267 0.47764 0.44549 0.0
H211 H 0.38234 0.45551 0.49986 0.0
H212 H 0.25851 0.48501 0.46579 0.0
H213 H 0.64848 0.66685 0.5539 0.0
H214 H 0.6816 0.59553 0.57175 0.0
H215 H 0.64129 0.6146 0.51796 0.0
H216 H 0.71781 0.41054 0.57296 0.0
H217 H 0.59928 0.45535 0.44107 0.0
H218 H 0.53217 0.47761 0.57625 0.0
H219 H 0.638 0.52273 0.60046 0.0
H220 H 0.65653 0.44874 0.61013 0.0
H221 H 0.39893 0.53586 0.41708 0.0
H222 H 0.48762 0.52986 0.40434 0.0
H223 H 0.49982 0.58433 0.43997 0.0
C224 C 0.21985 0.06799 0.05011 0.0
C225 C 0.18224 0.10144 0.01303 0.0
C226 C 0.15857 0.02921 0.05195 0.0
C227 C 0.05767 0.02257 0.01535 0.0
C228 C 0.0193 0.0565 0.97784 0.0
C229 C 0.08169 0.096 0.97737 0.0
C230 C 0.20215 0.99498 0.09298 0.0
C231 C 0.91297 0.05017 0.93776 0.0
C232 C 0.93163 0.8836 0.00396 0.0
C233 C 0.86905 0.89773 0.01608 0.0
C234 C 0.99289 0.92375 1.00336 0.0
C235 C 0.99304 0.97936 0.01598 0.0
C236 C 0.93115 0.99357 0.02905 0.0
C237 C 0.86898 0.95277 0.02838 0.0
C238 C 0.05551 0.90688 0.98813 0.0
C239 C 0.93088 0.05184 0.04391 0.0
H240 H 0.29738 0.07238 0.0779 0.0
H241 H 0.05246 0.12166 0.94859 0.0
H242 H 0.15495 0.99883 0.10478 0.0
H243 H 0.2031 0.95033 0.08576 0.0
H244 H 0.27956 1.00786 0.11965 0.0
H245 H 0.89457 0.07957 0.91124 0.0
H246 H 0.90063 1.00697 0.92515 0.0
H247 H 0.86028 0.05739 0.9463 0.0
H248 H 0.93066 0.84139 0.99379 0.0
H249 H 0.82073 0.96386 0.03782 0.0
H250 H 0.13459 0.91904 0.01256 0.0
H251 H 0.0285 0.92902 0.95722 0.0
H252 H 0.05253 0.86135 0.9824 0.0
H253 H 1.00786 0.06403 0.0714 0.0
H254 H 0.88159 0.05566 0.05468 0.0
H255 H 0.90534 0.08192 0.01694 0.0
C256 C 0.91251 0.15218 0.49215 0.0
C257 C 0.85342 0.13809 0.50616 0.0
C258 C 0.9731 0.11217 0.49105 0.0
C259 C 0.9767 0.05693 0.50538 0.0
C260 C 0.91783 0.04275 0.52006 0.0
C261 C 0.85584 0.08327 0.51965 0.0
C262 C 0.03215 0.12888 0.47396 0.0
C263 C 0.92097 0.98486 0.53659 0.0
C264 C 0.06757 0.93823 0.46971 0.0
C265 C 0.16844 0.93404 0.50536 0.0
C266 C 1.00457 0.97831 0.46904 0.0
C267 C 0.04267 1.01418 0.50539 0.0
C268 C 0.14414 1.00919 0.54185 0.0
C269 C 0.20591 0.96971 0.54115 0.0
C270 C 0.89754 0.98273 0.42916 0.0
C271 C 0.18749 0.0454 0.58178 0.0
H272 H 0.90935 0.19421 0.48092 0.0
H273 H 0.81015 0.07225 0.53048 0.0
H274 H 0.11305 0.12234 0.49958 0.0
H275 H 1.01065 0.10223 0.44574 0.0
H276 H 0.02003 0.17318 0.46341 0.0
H277 H 0.8733 0.98097 0.54821 0.0
H278 H 0.89552 0.95393 0.51027 0.0
H279 H 0.99888 0.97387 0.5639 0.0
H280 H 0.03829 0.91079 0.44195 0.0
H281 H 0.28359 0.96628 0.56899 0.0
H282 H 0.88216 0.02567 0.4157 0.0
H283 H 0.84609 0.97442 0.43826 0.0
H284 H 0.8802 0.95302 0.40307 0.0
H285 H 0.18354 0.08985 0.5728 0.0
H286 H 0.26658 0.0349 0.60809 0.0
H287 H 0.14304 0.04073 0.5949 0.0
C288 C 0.66079 0.2236 0.35375 0.0
C289 C 0.60899 0.2591 0.36327 0.0
C290 C 0.62925 0.21624 0.31073 0.0
C291 C 0.54561 0.24646 0.27677 0.0
C292 C 0.49197 0.28177 0.28618 0.0
C293 C 0.52367 0.28706 0.32952 0.0
C294 C 0.68575 0.1765 0.30173 0.0
C295 C 0.40356 0.31549 0.25076 0.0
C296 C 0.51938 0.27213 0.17152 0.0
C297 C 0.43984 0.23667 0.143 0.0
C298 C 0.55614 0.27523 0.21568 0.0
C299 C 0.51358 0.24086 0.23128 0.0
C300 C 0.43741 0.2025 0.20293 0.0
C301 C 0.40026 0.20157 0.15886 0.0
C302 C 0.63664 0.31717 0.24497 0.0
C303 C 0.39293 0.16368 0.21874 0.0
H304 H 0.72654 0.20172 0.38015 0.0
H305 H 0.48474 0.31496 0.33727 0.0
H306 H 0.63366 0.14541 0.27688 0.0
H307 H 0.71992 0.19956 0.28817 0.0
H308 H 0.7459 0.15405 0.33166 0.0
H309 H 0.36908 0.34022 0.26344 0.0
H310 H 0.42768 0.34437 0.23567 0.0
H311 H 0.34578 0.28774 0.22448 0.0
H312 H 0.54888 0.29951 0.15881 0.0
H313 H 0.33893 0.1739 0.13649 0.0
H314 H 0.70075 0.29648 0.27466 0.0
H315 H 0.60678 0.34853 0.256 0.0
H316 H 0.66438 0.33913 0.22817 0.0
H317 H 0.45299 0.1418 0.24896 0.0
H318 H 0.3429 0.13208 0.19377 0.0
H319 H 0.34906 0.18799 0.22689 0.0
C320 C 0.60067 0.79461 0.19922 0.0
C321 C 0.51832 0.81421 0.1586 0.0
C322 C 0.60322 0.79809 0.23693 0.0
C323 C 0.52125 0.82165 0.23412 0.0
C324 C 0.43837 0.84216 0.19335 0.0
C325 C 0.43787 0.83815 0.15613 0.0
C326 C 0.69301 0.77562 0.27964 0.0
C327 C 0.34985 0.86805 0.18897 0.0
C328 C 0.47833 0.77992 0.31906 0.0
C329 C 0.51788 0.82558 0.34767 0.0
C330 C 0.47936 0.77808 0.28221 0.0
C331 C 0.52073 0.82307 0.27348 0.0
C332 C 0.56131 0.86919 0.30232 0.0
C333 C 0.55957 0.86984 0.33906 0.0
C334 C 0.43608 0.7279 0.25258 0.0
C335 C 0.60548 0.91818 0.29407 0.0
H336 H 0.66245 0.77525 0.20136 0.0
H337 H 0.37453 0.85407 0.12505 0.0
H338 H 0.72653 0.80877 0.30484 0.0
H339 H 0.66964 0.74147 0.29163 0.0
H340 H 0.75131 0.75944 0.27649 0.0
H341 H 0.29158 0.88229 0.15507 0.0
H342 H 0.31581 0.83751 0.19868 0.0
H343 H 0.37466 0.9042 0.21132 0.0
H344 H 0.44717 0.74518 0.32571 0.0
H345 H 0.5891 0.90564 0.36059 0.0
H346 H 0.49381 0.70829 0.25054 0.0
H347 H 0.37385 0.74094 0.21901 0.0
H348 H 0.40755 0.69616 0.26412 0.0
H349 H 0.66626 0.90393 0.29202 0.0
H350 H 0.63601 0.95025 0.32009 0.0
H351 H 0.54748 0.93778 0.26222 0.0
C352 C 0.66841 0.8134 0.85692 0.0
C353 C 0.61503 0.78056 0.86733 0.0
C354 C 0.63363 0.82144 0.81341 0.0
C355 C 0.54493 0.79447 0.77963 0.0
C356 C 0.4899 0.7618 0.78995 0.0
C357 C 0.52494 0.75597 0.83382 0.0
C358 C 0.69262 0.85804 0.80367 0.0
C359 C 0.39627 0.73126 0.75489 0.0
C360 C 0.40005 0.84088 0.66132 0.0
C361 C 0.43573 0.80404 0.64486 0.0
C362 C 0.43836 0.83997 0.70566 0.0
C363 C 0.51082 0.79954 0.7336 0.0
C364 C 0.5487 0.763 0.71719 0.0
C365 C 0.51161 0.76633 0.67296 0.0
C366 C 0.39963 0.88142 0.72231 0.0
C367 C 0.62376 0.71818 0.74552 0.0
H368 H 0.73793 0.83271 0.88298 0.0
H369 H 0.48449 0.73009 0.84206 0.0
H370 H 0.72219 0.83281 0.78913 0.0
H371 H 0.64332 0.89046 0.77937 0.0
H372 H 0.75643 0.87882 0.83347 0.0
H373 H 0.36291 0.7071 0.76842 0.0
H374 H 0.33967 0.76114 0.73033 0.0
H375 H 0.41369 0.70222 0.73745 0.0
H376 H 0.34122 0.87006 0.63929 0.0
H377 H 0.53771 0.73731 0.65982 0.0
H378 H 0.46279 0.90185 0.75245 0.0
H379 H 0.35425 0.85959 0.73087 0.0
H380 H 0.35253 0.91411 0.69766 0.0
H381 H 0.686 0.73519 0.77754 0.0
H382 H 0.65535 0.69832 0.72964 0.0
H383 H 0.58664 0.68556 0.75212 0.0
C384 C 0.48234 0.18304 0.66381 0.0
C385 C 0.49864 0.2346 0.65143 0.0
C386 C 0.48338 0.17808 0.70115 0.0
C387 C 0.50258 0.22567 0.72714 0.0
C388 C 0.51972 0.27774 0.7149 0.0
C389 C 0.51704 0.2816 0.67714 0.0
C390 C 0.46364 0.12193 0.71272 0.0
C391 C 0.54145 0.32939 0.74184 0.0
C392 C 0.42165 0.22683 0.80288 0.0
C393 C 0.51148 0.21504 0.84376 0.0
C394 C 0.41746 0.23003 0.76472 0.0
C395 C 0.50527 0.22113 0.76725 0.0
C396 C 0.59614 0.209 0.80831 0.0
C397 C 0.59818 0.20622 0.84598 0.0
C398 C 0.31895 0.24307 0.72168 0.0
C399 C 0.69158 0.19945 0.81255 0.0
H400 H 0.46726 0.14668 0.64386 0.0
H401 H 0.53093 0.32142 0.66805 0.0
H402 H 0.52901 0.10892 0.74563 0.0
H403 H 0.39873 0.12467 0.71412 0.0
H404 H 0.44827 0.08922 0.68877 0.0
H405 H 0.55315 0.36669 0.72792 0.0
H406 H 0.47871 0.33785 0.74403 0.0
H407 H 0.60928 0.32283 0.77567 0.0
H408 H 0.35396 0.233 0.80056 0.0
H409 H 0.66834 0.19792 0.87736 0.0
H410 H 0.29918 0.20948 0.69775 0.0
H411 H 0.32537 0.28225 0.70788 0.0
H412 H 0.25708 0.24774 0.72505 0.0
H413 H 0.68131 0.16495 0.7908 0.0
H414 H 0.75551 0.18911 0.8466 0.0
H415 H 0.7107 0.2373 0.802 0.0
C416 C 1.0099 0.77812 0.1723 0.0
C417 C 0.93158 0.74183 0.14404 0.0
C418 C 0.04626 0.78185 0.21643 0.0
C419 C 1.00482 0.74723 0.23243 0.0
C420 C 0.92905 0.70855 0.20423 0.0
C421 C 0.89219 0.70702 0.16016 0.0
C422 C 0.12599 0.82427 0.24542 0.0
C423 C 0.88545 0.66959 0.22037 0.0
C424 C 0.15974 0.72708 0.35505 0.0
C425 C 0.11065 0.76189 0.36646 0.0
C426 C 0.12471 0.72092 0.31142 0.0
C427 C 0.04002 0.75157 0.27857 0.0
C428 C 0.98883 0.78605 0.2898 0.0
C429 C 0.02423 0.79026 0.33378 0.0
C430 C 0.1791 0.68213 0.30065 0.0
C431 C 0.89937 0.82023 0.25568 0.0
H432 H 0.03893 0.80554 0.15941 0.0
H433 H 0.83138 0.67896 0.13799 0.0
H434 H 0.09789 0.85367 0.25845 0.0
H435 H 0.19266 0.80333 0.27384 0.0
H436 H 0.14937 0.84844 0.22777 0.0
H437 H 0.83334 0.63879 0.19513 0.0
H438 H 0.94607 0.64674 0.24983 0.0
H439 H 0.84424 0.69385 0.22993 0.0
H440 H 0.22642 0.70486 0.38045 0.0
H441 H 0.98719 0.81766 0.3428 0.0
H442 H 0.21471 0.70645 0.28829 0.0
H443 H 0.12561 0.65281 0.27441 0.0
H444 H 0.23799 0.65763 0.32953 0.0
H445 H 0.92284 0.85173 0.24186 0.0
H446 H 0.86425 0.84209 0.26928 0.0
H447 H 0.84236 0.79348 0.22826 0.0
C448 C 0.02082 0.35965 0.32545 0.0
C449 C 1.00548 0.31196 0.34245 0.0
C450 C 0.02096 0.35673 0.28835 0.0
C451 C 1.00461 0.30493 0.26726 0.0
C452 C 0.98811 0.25672 0.28391 0.0
C453 C 0.98908 0.26076 0.32126 0.0
C454 C 0.03866 0.40919 0.2717 0.0
C455 C 0.96997 0.20071 0.26237 0.0
C456 C 0.9195 0.30503 0.14898 0.0
C457 C 1.00884 0.29356 0.15394 0.0
C458 C 0.9169 0.30867 0.18544 0.0
C459 C 1.00592 0.30106 0.22811 0.0
C460 C 0.09638 0.28971 0.23339 0.0
C461 C 0.09664 0.28589 0.19637 0.0
C462 C 0.81877 0.32074 0.17826 0.0
C463 C 0.19316 0.28157 0.27821 0.0
H464 H 0.03155 0.39967 0.34083 0.0
H465 H 0.97831 0.22346 0.33422 0.0
H466 H 0.10509 0.40388 0.27164 0.0
H467 H 0.97387 0.41736 0.23745 0.0
H468 H 0.05054 0.44619 0.29182 0.0
H469 H 0.95629 0.16742 0.27872 0.0
H470 H 0.90455 0.20307 0.22756 0.0
H471 H 0.03544 0.18876 0.26298 0.0
H472 H 0.85144 0.31179 0.11652 0.0
H473 H 0.16575 0.27601 0.2007 0.0
H474 H 0.82465 0.35981 0.19522 0.0
H475 H 0.80067 0.28681 0.19252 0.0
H476 H 0.75603 0.325 0.14304 0.0
H477 H 0.21122 0.31973 0.29805 0.0
H478 H 0.25677 0.2721 0.27676 0.0
H479 H 0.18534 0.24699 0.29551 0.0
C480 C 1.01161 0.30638 0.67031 0.0
C481 C 0.92437 0.27681 0.63994 0.0
C482 C 0.0522 0.30472 0.71503 0.0
C483 C 1.00511 0.27191 0.7293 0.0
C484 C 0.91899 0.24057 0.69878 0.0
C485 C 0.87932 0.24378 0.65449 0.0
C486 C 0.14451 0.33845 0.74694 0.0
C487 C 0.86858 0.20358 0.71283 0.0
C488 C 0.15617 0.22301 0.8467 0.0
C489 C 0.11893 0.25679 0.86426 0.0
C490 C 0.12072 0.22803 0.80299 0.0
C491 C 0.04719 0.26851 0.7763 0.0
C492 C 1.00968 0.30315 0.79387 0.0
C493 C 0.04521 0.29635 0.83773 0.0
C494 C 0.15973 0.18858 0.78522 0.0
C495 C 0.93269 0.34754 0.76643 0.0
H496 H 0.04606 0.33209 0.65899 0.0
H497 H 0.81239 0.22027 0.63106 0.0
H498 H 0.12852 0.36803 0.76459 0.0
H499 H 0.20547 0.31061 0.77181 0.0
H500 H 0.17137 0.36232 0.73053 0.0
H501 H 0.80374 0.18071 0.68494 0.0
H502 H 0.92281 0.17279 0.73738 0.0
H503 H 0.84204 0.2289 0.72858 0.0
H504 H 0.21287 0.19207 0.86722 0.0
H505 H 0.01768 0.32296 0.85157 0.0
H506 H 0.17411 0.21053 0.76362 0.0
H507 H 0.10254 0.15617 0.76526 0.0
H508 H 0.22967 0.16752 0.81176 0.0
H509 H 0.95936 0.3752 0.75172 0.0
H510 H 0.91607 0.37335 0.78575 0.0
H511 H 0.86225 0.32799 0.73912 0.0
C512 C 0.04177 0.79237 0.6865 0.0
C513 C 1.01085 0.74631 0.65854 0.0
C514 C 0.04089 0.79077 0.72341 0.0
C515 C 1.0086 0.74189 0.73276 0.0
C516 C 0.97629 0.69548 0.70442 0.0
C517 C 0.97772 0.69827 0.66769 0.0
C518 C 0.07549 0.84123 0.75267 0.0
C519 C 0.94128 0.64257 0.71317 0.0
C520 C 0.09898 0.71651 0.85014 0.0
C521 C 1.01452 0.73072 0.84844 0.0
C522 C 0.09796 0.71992 0.8128 0.0
C523 C 1.01086 0.73879 0.77274 0.0
C524 C 0.92589 0.75412 0.77088 0.0
C525 C 0.92855 0.74955 0.80859 0.0
C526 C 0.18998 0.7028 0.81615 0.0
C527 C 0.83158 0.7747 0.72892 0.0
H528 H 0.06858 0.82941 0.67998 0.0
H529 H 0.95233 0.6628 0.64593 0.0
H530 H 1.01624 0.85488 0.75594 0.0
H531 H 0.14209 0.83043 0.7859 0.0
H532 H 0.09493 0.87668 0.74003 0.0
H533 H 0.9169 0.61057 0.68757 0.0
H534 H 1.00247 0.62491 0.74529 0.0
H535 H 0.87807 0.65171 0.7149 0.0
H536 H 0.16642 0.70284 0.8808 0.0
H537 H 0.8623 0.7598 0.80655 0.0
H538 H 0.21752 0.73827 0.80713 0.0
H539 H 0.17117 0.6686 0.79279 0.0
H540 H 0.25133 0.68851 0.84958 0.0
H541 H 0.8489 0.80976 0.71522 0.0
H542 H 0.7748 0.78884 0.7337 0.0
H543 H 0.79855 0.74087 0.70427 0.0
loop_
_geom_bond_atom_site_label_1
_geom_bond_atom_site_label_2
_geom_bond_distance
_geom_bond_site_symmetry_2
_ccdc_geom_bond_type
Sm0 C2 2.846 1_556 S
Sm0 O20 2.543 1_556 S
Sm0 O21 2.450 1_556 S
Sm0 O22 2.681 . S
Sm0 O23 2.464 1_556 S
Sm0 O24 2.396 1_556 S
Sm0 O28 2.386 1_556 S
Sm0 O31 2.408 . S
Sm1 C11 2.846 1_554 S
Sm1 O22 2.386 1_554 S
Sm1 O25 2.408 . S
Sm1 O26 2.543 1_554 S
Sm1 O27 2.450 1_554 S
Sm1 O28 2.681 . S
Sm1 O29 2.464 1_554 S
Sm1 O30 2.396 1_554 S
C2 Sm0 2.846 1_554 S
C2 C3 1.506 . S
C2 O20 1.261 . S
C2 O21 1.242 . S
C3 C2 1.506 . S
C3 C4 1.358 . S
C3 C8 1.382 . S
C4 C3 1.358 . S
C4 C5 1.385 . S
C4 H32 0.930 . S
C5 C4 1.385 . S
C5 C6 1.395 . S
C5 H33 0.929 . S
C6 C5 1.395 . S
C6 C7 1.335 . S
C7 C6 1.335 . S
C7 C8 1.398 . S
C7 H34 0.930 . S
C8 C3 1.382 . S
C8 C7 1.398 . S
C8 H35 0.929 . S
C9 O22 1.271 1_554 S
C9 O23 1.251 . S
C10 O24 1.252 . S
C10 O25 1.272 . S
C11 Sm1 2.846 1_556 S
C11 C12 1.506 . S
C11 O26 1.261 . S
C11 O27 1.242 . S
C12 C11 1.506 . S
C12 C13 1.358 . S
C12 C17 1.382 . S
C13 C12 1.358 . S
C13 C14 1.385 . S
C13 H36 0.930 . S
C14 C13 1.385 . S
C14 C15 1.395 . S
C14 H37 0.929 . S
C15 C14 1.395 . S
C15 C16 1.335 . S
C16 C15 1.335 . S
C16 C17 1.398 . S
C16 H38 0.930 . S
C17 C12 1.382 . S
C17 C16 1.398 . S
C17 H39 0.929 . S
C18 O28 1.271 1_556 S
C18 O29 1.251 . S
C19 O30 1.252 . S
C19 O31 1.272 . S
O20 Sm0 2.543 1_554 S
O20 C2 1.261 . S
O21 Sm0 2.450 1_554 S
O21 C2 1.242 . S
O22 Sm0 2.681 . S
O22 Sm1 2.386 1_556 S
O22 C9 1.271 1_556 S
O23 Sm0 2.464 1_554 S
O23 C9 1.251 . S
O24 Sm0 2.396 1_554 S
O24 C10 1.252 . S
O25 Sm1 2.408 . S
O25 C10 1.272 . S
O26 Sm1 2.543 1_556 S
O26 C11 1.261 . S
O27 Sm1 2.450 1_556 S
O27 C11 1.242 . S
O28 Sm0 2.386 1_554 S
O28 Sm1 2.681 . S
O28 C18 1.271 1_554 S
O29 Sm1 2.464 1_556 S
O29 C18 1.251 . S
O30 Sm1 2.396 1_556 S
O30 C19 1.252 . S
O31 Sm0 2.408 . S
O31 C19 1.272 . S
H32 C4 0.930 . S
H33 C5 0.929 . S
H34 C7 0.930 . S
H35 C8 0.929 . S
H36 C13 0.930 . S
H37 C14 0.929 . S
H38 C16 0.930 . S
H39 C17 0.929 . S
Sm40 C42 2.846 1_556 S
Sm40 O60 2.543 1_556 S
Sm40 O61 2.450 1_556 S
Sm40 O62 2.681 . S
Sm40 O63 2.464 1_556 S
Sm40 O64 2.396 1_556 S
Sm40 O68 2.386 1_556 S
Sm40 O71 2.408 . S
Sm41 C51 2.846 1_554 S
Sm41 O62 2.386 1_554 S
Sm41 O65 2.408 . S
Sm41 O66 2.543 1_554 S
Sm41 O67 2.450 1_554 S
Sm41 O68 2.681 . S
Sm41 O69 2.464 1_554 S
Sm41 O70 2.396 1_554 S
C42 Sm40 2.846 1_554 S
C42 C43 1.506 . S
C42 O60 1.261 . S
C42 O61 1.242 . S
C43 C42 1.506 . S
C43 C44 1.358 . S
C43 C48 1.382 . S
C44 C43 1.358 . S
C44 C45 1.385 . S
C44 H72 0.930 . S
C45 C44 1.385 . S
C45 C46 1.395 . S
C45 H73 0.929 . S
C46 C45 1.395 . S
C46 C47 1.335 . S
C47 C46 1.335 . S
C47 C48 1.398 . S
C47 H74 0.930 . S
C48 C43 1.382 . S
C48 C47 1.398 . S
C48 H75 0.929 . S
C49 O62 1.271 1_554 S
C49 O63 1.251 . S
C50 O64 1.252 . S
C50 O65 1.272 . S
C51 Sm41 2.846 1_556 S
C51 C52 1.506 . S
C51 O66 1.261 . S
C51 O67 1.242 . S
C52 C51 1.506 . S
C52 C53 1.358 . S
C52 C57 1.382 . S
C53 C52 1.358 . S
C53 C54 1.385 . S
C53 H76 0.930 . S
C54 C53 1.385 . S
C54 C55 1.395 . S
C54 H77 0.929 . S
C55 C54 1.395 . S
C55 C56 1.335 . S
C56 C55 1.335 . S
C56 C57 1.398 . S
C56 H78 0.930 . S
C57 C52 1.382 . S
C57 C56 1.398 . S
C57 H79 0.929 . S
C58 O68 1.271 1_556 S
C58 O69 1.251 . S
C59 O70 1.252 . S
C59 O71 1.272 . S
O60 Sm40 2.543 1_554 S
O60 C42 1.261 . S
O61 Sm40 2.450 1_554 S
O61 C42 1.242 . S
O62 Sm40 2.681 . S
O62 Sm41 2.386 1_556 S
O62 C49 1.271 1_556 S
O63 Sm40 2.464 1_554 S
O63 C49 1.251 . S
O64 Sm40 2.396 1_554 S
O64 C50 1.252 . S
O65 Sm41 2.408 . S
O65 C50 1.272 . S
O66 Sm41 2.543 1_556 S
O66 C51 1.261 . S
O67 Sm41 2.450 1_556 S
O67 C51 1.242 . S
O68 Sm40 2.386 1_554 S
O68 Sm41 2.681 . S
O68 C58 1.271 1_554 S
O69 Sm41 2.464 1_556 S
O69 C58 1.251 . S
O70 Sm41 2.396 1_556 S
O70 C59 1.252 . S
O71 Sm40 2.408 . S
O71 C59 1.272 . S
H72 C44 0.930 . S
H73 C45 0.929 . S
H74 C47 0.930 . S
H75 C48 0.929 . S
H76 C53 0.930 . S
H77 C54 0.929 . S
H78 C56 0.930 . S
H79 C57 0.929 . S
Sm80 C82 2.846 . S
Sm80 O100 2.543 . S
Sm80 O101 2.450 . S
Sm80 O102 2.681 . S
Sm80 O103 2.464 . S
Sm80 O104 2.396 . S
Sm80 O108 2.386 . S
Sm80 O111 2.408 . S
Sm81 C91 2.846 . S
Sm81 O102 2.386 . S
Sm81 O105 2.408 . S
Sm81 O106 2.543 . S
Sm81 O107 2.450 . S
Sm81 O108 2.681 . S
Sm81 O109 2.464 . S
Sm81 O110 2.396 . S
C82 Sm80 2.846 . S
C82 C83 1.506 . S
C82 O100 1.261 . S
C82 O101 1.242 . S
C83 C82 1.506 . S
C83 C84 1.358 . S
C83 C88 1.382 . S
C84 C83 1.358 . S
C84 C85 1.385 . S
C84 H112 0.930 . S
C85 C84 1.385 . S
C85 C86 1.395 . S
C85 H113 0.929 . S
C86 C85 1.395 . S
C86 C87 1.335 . S
C87 C86 1.335 . S
C87 C88 1.398 . S
C87 H114 0.930 . S
C88 C83 1.382 . S
C88 C87 1.398 . S
C88 H115 0.929 . S
C89 O102 1.271 . S
C89 O103 1.251 . S
C90 O104 1.252 . S
C90 O105 1.272 . S
C91 Sm81 2.846 . S
C91 C92 1.506 . S
C91 O106 1.261 . S
C91 O107 1.242 . S
C92 C91 1.506 . S
C92 C93 1.358 . S
C92 C97 1.382 . S
C93 C92 1.358 . S
C93 C94 1.385 . S
C93 H116 0.930 . S
C94 C93 1.385 . S
C94 C95 1.395 . S
C94 H117 0.929 . S
C95 C94 1.395 . S
C95 C96 1.335 . S
C96 C95 1.335 . S
C96 C97 1.398 . S
C96 H118 0.930 . S
C97 C92 1.382 . S
C97 C96 1.398 . S
C97 H119 0.929 . S
C98 O108 1.271 . S
C98 O109 1.251 . S
C99 O110 1.252 . S
C99 O111 1.272 . S
O100 Sm80 2.543 . S
O100 C82 1.261 . S
O101 Sm80 2.450 . S
O101 C82 1.242 . S
O102 Sm80 2.681 . S
O102 Sm81 2.386 . S
O102 C89 1.271 . S
O103 Sm80 2.464 . S
O103 C89 1.251 . S
O104 Sm80 2.396 . S
O104 C90 1.252 . S
O105 Sm81 2.408 . S
O105 C90 1.272 . S
O106 Sm81 2.543 . S
O106 C91 1.261 . S
O107 Sm81 2.450 . S
O107 C91 1.242 . S
O108 Sm80 2.386 . S
O108 Sm81 2.681 . S
O108 C98 1.271 . S
O109 Sm81 2.464 . S
O109 C98 1.251 . S
O110 Sm81 2.396 . S
O110 C99 1.252 . S
O111 Sm80 2.408 . S
O111 C99 1.272 . S
H112 C84 0.930 . S
H113 C85 0.929 . S
H114 C87 0.930 . S
H115 C88 0.929 . S
H116 C93 0.930 . S
H117 C94 0.929 . S
H118 C96 0.930 . S
H119 C97 0.929 . S
Sm120 C122 2.846 . S
Sm120 O140 2.543 . S
Sm120 O141 2.450 . S
Sm120 O142 2.681 . S
Sm120 O143 2.464 . S
Sm120 O144 2.396 . S
Sm120 O148 2.386 . S
Sm120 O151 2.408 . S
Sm121 C131 2.846 . S
Sm121 O142 2.386 . S
Sm121 O145 2.408 . S
Sm121 O146 2.543 . S
Sm121 O147 2.450 . S
Sm121 O148 2.681 . S
Sm121 O149 2.464 . S
Sm121 O150 2.396 . S
C122 Sm120 2.846 . S
C122 C123 1.506 . S
C122 O140 1.261 . S
C122 O141 1.242 . S
C123 C122 1.506 . S
C123 C124 1.358 . S
C123 C128 1.382 . S
C124 C123 1.358 . S
C124 C125 1.385 . S
C124 H152 0.930 . S
C125 C124 1.385 . S
C125 C126 1.395 . S
C125 H153 0.929 . S
C126 C125 1.395 . S
C126 C127 1.335 . S
C127 C126 1.335 . S
C127 C128 1.398 . S
C127 H154 0.930 . S
C128 C123 1.382 . S
C128 C127 1.398 . S
C128 H155 0.929 . S
C129 O142 1.271 . S
C129 O143 1.251 . S
C130 O144 1.252 . S
C130 O145 1.272 . S
C131 Sm121 2.846 . S
C131 C132 1.506 . S
C131 O146 1.261 . S
C131 O147 1.242 . S
C132 C131 1.506 . S
C132 C133 1.358 . S
C132 C137 1.382 . S
C133 C132 1.358 . S
C133 C134 1.385 . S
C133 H156 0.930 . S
C134 C133 1.385 . S
C134 C135 1.395 . S
C134 H157 0.929 . S
C135 C134 1.395 . S
C135 C136 1.335 . S
C136 C135 1.335 . S
C136 C137 1.398 . S
C136 H158 0.930 . S
C137 C132 1.382 . S
C137 C136 1.398 . S
C137 H159 0.929 . S
C138 O148 1.271 . S
C138 O149 1.251 . S
C139 O150 1.252 . S
C139 O151 1.272 . S
O140 Sm120 2.543 . S
O140 C122 1.261 . S
O141 Sm120 2.450 . S
O141 C122 1.242 . S
O142 Sm120 2.681 . S
O142 Sm121 2.386 . S
O142 C129 1.271 . S
O143 Sm120 2.464 . S
O143 C129 1.251 . S
O144 Sm120 2.396 . S
O144 C130 1.252 . S
O145 Sm121 2.408 . S
O145 C130 1.272 . S
O146 Sm121 2.543 . S
O146 C131 1.261 . S
O147 Sm121 2.450 . S
O147 C131 1.242 . S
O148 Sm120 2.386 . S
O148 Sm121 2.681 . S
O148 C138 1.271 . S
O149 Sm121 2.464 . S
O149 C138 1.251 . S
O150 Sm121 2.396 . S
O150 C139 1.252 . S
O151 Sm120 2.408 . S
O151 C139 1.272 . S
H152 C124 0.930 . S
H153 C125 0.929 . S
H154 C127 0.930 . S
H155 C128 0.929 . S
H156 C133 0.930 . S
H157 C134 0.929 . S
H158 C136 0.930 . S
H159 C137 0.929 . S
C160 C161 1.391 1_554 S
C160 C162 1.394 . S
C160 H176 0.931 . S
C161 C160 1.391 1_556 S
C161 C165 1.376 . S
C162 C160 1.394 . S
C162 C163 1.369 . S
C162 C166 1.531 . S
C163 C162 1.369 . S
C163 C164 1.410 1_554 S
C163 C171 1.503 . S
C164 C163 1.410 1_556 S
C164 C165 1.392 . S
C164 C167 1.511 . S
C165 C161 1.376 . S
C165 C164 1.392 . S
C165 H177 0.929 . S
C166 C162 1.531 . S
C166 H178 0.960 . S
C166 H179 0.962 . S
C166 H180 0.960 . S
C167 C164 1.511 . S
C167 H181 0.961 . S
C167 H182 0.961 . S
C167 H183 0.961 . S
C168 C169 1.370 1_556 S
C168 C170 1.363 . S
C168 H184 0.931 . S
C169 C168 1.370 1_554 S
C169 C173 1.408 . S
C170 C168 1.363 . S
C170 C171 1.370 1_556 S
C170 C174 1.524 . S
C171 C163 1.503 . S
C171 C170 1.370 1_554 S
C171 C172 1.403 . S
C172 C171 1.403 . S
C172 C173 1.404 . S
C172 C175 1.539 . S
C173 C169 1.408 . S
C173 C172 1.404 . S
C173 H185 0.930 . S
C174 C170 1.524 . S
C174 H186 0.956 . S
C174 H187 0.961 . S
C174 H188 0.961 . S
C175 C172 1.539 . S
C175 H189 0.958 . S
C175 H190 0.961 . S
C175 H191 0.960 . S
H176 C160 0.931 . S
H177 C165 0.929 . S
H178 C166 0.960 . S
H179 C166 0.962 . S
H180 C166 0.960 . S
H181 C167 0.961 . S
H182 C167 0.961 . S
H183 C167 0.961 . S
H184 C168 0.931 . S
H185 C173 0.930 . S
H186 C174 0.956 . S
H187 C174 0.961 . S
H188 C174 0.961 . S
H189 C175 0.958 . S
H190 C175 0.961 . S
H191 C175 0.960 . S
C192 C193 1.391 . S
C192 C194 1.394 . S
C192 H208 0.931 . S
C193 C192 1.391 . S
C193 C197 1.376 . S
C194 C192 1.394 . S
C194 C195 1.369 . S
C194 C198 1.531 . S
C195 C194 1.369 . S
C195 C196 1.410 . S
C195 C203 1.503 . S
C196 C195 1.410 . S
C196 C197 1.392 . S
C196 C199 1.511 . S
C197 C193 1.376 . S
C197 C196 1.392 . S
C197 H209 0.929 . S
C198 C194 1.531 . S
C198 H210 0.960 . S
C198 H211 0.962 . S
C198 H212 0.960 . S
C199 C196 1.511 . S
C199 H213 0.961 . S
C199 H214 0.961 . S
C199 H215 0.961 . S
C200 C201 1.370 . S
C200 C202 1.363 . S
C200 H216 0.931 . S
C201 C200 1.370 . S
C201 C205 1.408 . S
C202 C200 1.363 . S
C202 C203 1.370 . S
C202 C206 1.524 . S
C203 C195 1.503 . S
C203 C202 1.370 . S
C203 C204 1.403 . S
C204 C203 1.403 . S
C204 C205 1.404 . S
C204 C207 1.539 . S
C205 C201 1.408 . S
C205 C204 1.404 . S
C205 H217 0.930 . S
C206 C202 1.524 . S
C206 H218 0.956 . S
C206 H219 0.961 . S
C206 H220 0.961 . S
C207 C204 1.539 . S
C207 H221 0.958 . S
C207 H222 0.961 . S
C207 H223 0.960 . S
H208 C192 0.931 . S
H209 C197 0.929 . S
H210 C198 0.960 . S
H211 C198 0.962 . S
H212 C198 0.960 . S
H213 C199 0.961 . S
H214 C199 0.961 . S
H215 C199 0.961 . S
H216 C200 0.931 . S
H217 C205 0.930 . S
H218 C206 0.956 . S
H219 C206 0.961 . S
H220 C206 0.961 . S
H221 C207 0.958 . S
H222 C207 0.961 . S
H223 C207 0.960 . S
C224 C225 1.391 1_554 S
C224 C226 1.394 . S
C224 H240 0.931 . S
C225 C224 1.391 1_556 S
C225 C229 1.376 . S
C226 C224 1.394 . S
C226 C227 1.369 . S
C226 C230 1.538 . S
C227 C226 1.369 . S
C227 C228 1.410 1_454 S
C227 C235 1.503 1_445 S
C228 C227 1.410 1_656 S
C228 C229 1.392 1_655 S
C228 C231 1.511 . S
C229 C225 1.376 . S
C229 C228 1.392 1_455 S
C229 H241 0.929 1_455 S
C230 C226 1.538 . S
C230 H242 0.956 1_545 S
C230 H243 0.951 1_545 S
C230 H244 0.967 . S
C231 C228 1.511 . S
C231 H245 0.961 . S
C231 H246 0.961 . S
C231 H247 0.961 . S
C232 C233 1.370 1_556 S
C232 C234 1.363 . S
C232 H248 0.931 . S
C233 C232 1.370 1_554 S
C233 C237 1.408 . S
C234 C232 1.363 . S
C234 C235 1.370 1_556 S
C234 C238 1.524 1_655 S
C235 C227 1.503 1_665 S
C235 C234 1.370 1_554 S
C235 C236 1.403 . S
C236 C235 1.403 . S
C236 C237 1.404 . S
C236 C239 1.539 1_565 S
C237 C233 1.408 . S
C237 C236 1.404 . S
C237 H249 0.930 . S
C238 C234 1.524 1_455 S
C238 H250 0.956 . S
C238 H251 0.961 1_455 S
C238 H252 0.961 . S
C239 C236 1.539 1_545 S
C239 H253 0.958 . S
C239 H254 0.961 . S
C239 H255 0.960 . S
H240 C224 0.931 . S
H241 C229 0.929 1_655 S
H242 C230 0.956 1_565 S
H243 C230 0.951 1_565 S
H244 C230 0.967 . S
H245 C231 0.961 . S
H246 C231 0.961 . S
H247 C231 0.961 . S
H248 C232 0.931 . S
H249 C237 0.930 . S
H250 C238 0.956 . S
H251 C238 0.961 1_655 S
H252 C238 0.961 . S
H253 C239 0.958 . S
H254 C239 0.961 . S
H255 C239 0.960 . S
C256 C257 1.391 . S
C256 C258 1.394 . S
C256 H272 0.931 . S
C257 C256 1.391 . S
C257 C261 1.376 . S
C258 C256 1.394 . S
C258 C259 1.369 . S
C258 C262 1.531 1_655 S
C259 C258 1.369 . S
C259 C260 1.410 . S
C259 C267 1.503 1_645 S
C260 C259 1.410 . S
C260 C261 1.392 . S
C260 C263 1.511 1_545 S
C261 C257 1.376 . S
C261 C260 1.392 . S
C261 H273 0.929 . S
C262 C258 1.531 1_455 S
C262 H274 0.960 . S
C262 H275 0.962 . S
C262 H276 0.960 . S
C263 C260 1.511 1_565 S
C263 H277 0.961 . S
C263 H278 0.961 . S
C263 H279 0.961 . S
C264 C265 1.370 . S
C264 C266 1.363 1_455 S
C264 H280 0.931 . S
C265 C264 1.370 . S
C265 C269 1.408 . S
C266 C264 1.363 1_655 S
C266 C267 1.370 1_655 S
C266 C270 1.524 . S
C267 C259 1.503 1_465 S
C267 C266 1.370 1_455 S
C267 C268 1.403 . S
C268 C267 1.403 . S
C268 C269 1.404 . S
C268 C271 1.539 . S
C269 C265 1.408 . S
C269 C268 1.404 . S
C269 H281 0.930 . S
C270 C266 1.524 . S
C270 H282 0.956 1_565 S
C270 H283 0.961 . S
C270 H284 0.961 . S
C271 C268 1.539 . S
C271 H285 0.958 1_565 S
C271 H286 0.961 . S
C271 H287 0.960 1_565 S
H272 C256 0.931 . S
H273 C261 0.929 . S
H274 C262 0.960 . S
H275 C262 0.962 . S
H276 C262 0.960 . S
H277 C263 0.961 . S
H278 C263 0.961 . S
H279 C263 0.961 . S
H280 C264 0.931 . S
H281 C269 0.930 . S
H282 C270 0.956 1_545 S
H283 C270 0.961 . S
H284 C270 0.961 . S
H285 C271 0.958 1_545 S
H286 C271 0.961 . S
H287 C271 0.960 1_545 S
C288 C289 1.391 . S
C288 C290 1.394 . S
C288 H304 0.931 . S
C289 C288 1.391 . S
C289 C293 1.376 . S
C290 C288 1.394 . S
C290 C291 1.369 . S
C290 C294 1.531 . S
C291 C290 1.369 . S
C291 C292 1.410 . S
C291 C299 1.503 . S
C292 C291 1.410 . S
C292 C293 1.392 . S
C292 C295 1.511 . S
C293 C289 1.376 . S
C293 C292 1.392 . S
C293 H305 0.929 . S
C294 C290 1.531 . S
C294 H306 0.960 . S
C294 H307 0.962 . S
C294 H308 0.960 . S
C295 C292 1.511 . S
C295 H309 0.961 . S
C295 H310 0.961 . S
C295 H311 0.961 . S
C296 C297 1.370 . S
C296 C298 1.363 . S
C296 H312 0.931 . S
C297 C296 1.370 . S
C297 C301 1.408 . S
C298 C296 1.363 . S
C298 C299 1.370 . S
C298 C302 1.524 . S
C299 C291 1.503 . S
C299 C298 1.370 . S
C299 C300 1.403 . S
C300 C299 1.403 . S
C300 C301 1.404 . S
C300 C303 1.539 . S
C301 C297 1.408 . S
C301 C300 1.404 . S
C301 H313 0.930 . S
C302 C298 1.524 . S
C302 H314 0.956 . S
C302 H315 0.961 . S
C302 H316 0.961 . S
C303 C300 1.539 . S
C303 H317 0.958 . S
C303 H318 0.961 . S
C303 H319 0.960 . S
H304 C288 0.931 . S
H305 C293 0.929 . S
H306 C294 0.960 . S
H307 C294 0.962 . S
H308 C294 0.960 . S
H309 C295 0.961 . S
H310 C295 0.961 . S
H311 C295 0.961 . S
H312 C296 0.931 . S
H313 C301 0.930 . S
H314 C302 0.956 . S
H315 C302 0.961 . S
H316 C302 0.961 . S
H317 C303 0.958 . S
H318 C303 0.961 . S
H319 C303 0.960 . S
C320 C321 1.391 . S
C320 C322 1.394 . S
C320 H336 0.931 . S
C321 C320 1.391 . S
C321 C325 1.376 . S
C322 C320 1.394 . S
C322 C323 1.369 . S
C322 C326 1.531 . S
C323 C322 1.369 . S
C323 C324 1.410 . S
C323 C331 1.503 . S
C324 C323 1.410 . S
C324 C325 1.392 . S
C324 C327 1.511 . S
C325 C321 1.376 . S
C325 C324 1.392 . S
C325 H337 0.929 . S
C326 C322 1.531 . S
C326 H338 0.960 . S
C326 H339 0.962 . S
C326 H340 0.960 . S
C327 C324 1.511 . S
C327 H341 0.961 . S
C327 H342 0.961 . S
C327 H343 0.961 . S
C328 C329 1.370 . S
C328 C330 1.363 . S
C328 H344 0.931 . S
C329 C328 1.370 . S
C329 C333 1.408 . S
C330 C328 1.363 . S
C330 C331 1.370 . S
C330 C334 1.524 . S
C331 C323 1.503 . S
C331 C330 1.370 . S
C331 C332 1.403 . S
C332 C331 1.403 . S
C332 C333 1.404 . S
C332 C335 1.539 . S
C333 C329 1.408 . S
C333 C332 1.404 . S
C333 H345 0.930 . S
C334 C330 1.524 . S
C334 H346 0.956 . S
C334 H347 0.961 . S
C334 H348 0.961 . S
C335 C332 1.539 . S
C335 H349 0.958 . S
C335 H350 0.961 . S
C335 H351 0.960 . S
H336 C320 0.931 . S
H337 C325 0.929 . S
H338 C326 0.960 . S
H339 C326 0.962 . S
H340 C326 0.960 . S
H341 C327 0.961 . S
H342 C327 0.961 . S
H343 C327 0.961 . S
H344 C328 0.931 . S
H345 C333 0.930 . S
H346 C334 0.956 . S
H347 C334 0.961 . S
H348 C334 0.961 . S
H349 C335 0.958 . S
H350 C335 0.961 . S
H351 C335 0.960 . S
C352 C353 1.391 . S
C352 C354 1.394 . S
C352 H368 0.931 . S
C353 C352 1.391 . S
C353 C357 1.376 . S
C354 C352 1.394 . S
C354 C355 1.369 . S
C354 C358 1.531 . S
C355 C354 1.369 . S
C355 C356 1.410 . S
C355 C363 1.503 . S
C356 C355 1.410 . S
C356 C357 1.392 . S
C356 C359 1.511 . S
C357 C353 1.376 . S
C357 C356 1.392 . S
C357 H369 0.929 . S
C358 C354 1.531 . S
C358 H370 0.960 . S
C358 H371 0.962 . S
C358 H372 0.960 . S
C359 C356 1.511 . S
C359 H373 0.961 . S
C359 H374 0.961 . S
C359 H375 0.961 . S
C360 C361 1.370 . S
C360 C362 1.363 . S
C360 H376 0.931 . S
C361 C360 1.370 . S
C361 C365 1.408 . S
C362 C360 1.363 . S
C362 C363 1.370 . S
C362 C366 1.524 . S
C363 C355 1.503 . S
C363 C362 1.370 . S
C363 C364 1.403 . S
C364 C363 1.403 . S
C364 C365 1.404 . S
C364 C367 1.539 . S
C365 C361 1.408 . S
C365 C364 1.404 . S
C365 H377 0.930 . S
C366 C362 1.524 . S
C366 H378 0.956 . S
C366 H379 0.961 . S
C366 H380 0.961 . S
C367 C364 1.539 . S
C367 H381 0.958 . S
C367 H382 0.961 . S
C367 H383 0.960 . S
H368 C352 0.931 . S
H369 C357 0.929 . S
H370 C358 0.960 . S
H371 C358 0.962 . S
H372 C358 0.960 . S
H373 C359 0.961 . S
H374 C359 0.961 . S
H375 C359 0.961 . S
H376 C360 0.931 . S
H377 C365 0.930 . S
H378 C366 0.956 . S
H379 C366 0.961 . S
H380 C366 0.961 . S
H381 C367 0.958 . S
H382 C367 0.961 . S
H383 C367 0.960 . S
C384 C385 1.391 . S
C384 C386 1.394 . S
C384 H400 0.931 . S
C385 C384 1.391 . S
C385 C389 1.376 . S
C386 C384 1.394 . S
C386 C387 1.369 . S
C386 C390 1.531 . S
C387 C386 1.369 . S
C387 C388 1.410 . S
C387 C395 1.503 . S
C388 C387 1.410 . S
C388 C389 1.392 . S
C388 C391 1.511 . S
C389 C385 1.376 . S
C389 C388 1.392 . S
C389 H401 0.929 . S
C390 C386 1.531 . S
C390 H402 0.960 . S
C390 H403 0.962 . S
C390 H404 0.960 . S
C391 C388 1.511 . S
C391 H405 0.961 . S
C391 H406 0.961 . S
C391 H407 0.961 . S
C392 C393 1.370 . S
C392 C394 1.363 . S
C392 H408 0.931 . S
C393 C392 1.370 . S
C393 C397 1.408 . S
C394 C392 1.363 . S
C394 C395 1.370 . S
C394 C398 1.524 . S
C395 C387 1.503 . S
C395 C394 1.370 . S
C395 C396 1.403 . S
C396 C395 1.403 . S
C396 C397 1.404 . S
C396 C399 1.539 . S
C397 C393 1.408 . S
C397 C396 1.404 . S
C397 H409 0.930 . S
C398 C394 1.524 . S
C398 H410 0.956 . S
C398 H411 0.961 . S
C398 H412 0.961 . S
C399 C396 1.539 . S
C399 H413 0.958 . S
C399 H414 0.961 . S
C399 H415 0.960 . S
H400 C384 0.931 . S
H401 C389 0.929 . S
H402 C390 0.960 . S
H403 C390 0.962 . S
H404 C390 0.960 . S
H405 C391 0.961 . S
H406 C391 0.961 . S
H407 C391 0.961 . S
H408 C392 0.931 . S
H409 C397 0.930 . S
H410 C398 0.956 . S
H411 C398 0.961 . S
H412 C398 0.961 . S
H413 C399 0.958 . S
H414 C399 0.961 . S
H415 C399 0.960 . S
C416 C417 1.399 . S
C416 C418 1.398 1_655 S
C416 H432 0.918 1_655 S
C417 C416 1.399 . S
C417 C421 1.376 . S
C418 C416 1.398 1_455 S
C418 C419 1.369 1_455 S
C418 C422 1.531 . S
C419 C418 1.369 1_655 S
C419 C420 1.410 . S
C419 C427 1.503 1_655 S
C420 C419 1.410 . S
C420 C421 1.392 . S
C420 C423 1.511 . S
C421 C417 1.376 . S
C421 C420 1.392 . S
C421 H433 0.929 . S
C422 C418 1.531 . S
C422 H434 0.960 . S
C422 H435 0.962 . S
C422 H436 0.960 . S
C423 C420 1.511 . S
C423 H437 0.961 . S
C423 H438 0.961 . S
C423 H439 0.961 . S
C424 C425 1.370 . S
C424 C426 1.363 . S
C424 H440 0.931 . S
C425 C424 1.370 . S
C425 C429 1.408 . S
C426 C424 1.363 . S
C426 C427 1.370 . S
C426 C430 1.524 . S
C427 C419 1.503 1_455 S
C427 C426 1.370 . S
C427 C428 1.402 1_455 S
C428 C427 1.402 1_655 S
C428 C429 1.404 1_655 S
C428 C431 1.540 . S
C429 C425 1.408 . S
C429 C428 1.404 1_455 S
C429 H441 0.930 . S
C430 C426 1.524 . S
C430 H442 0.956 . S
C430 H443 0.961 . S
C430 H444 0.961 . S
C431 C428 1.540 . S
C431 H445 0.958 . S
C431 H446 0.961 . S
C431 H447 0.960 . S
H432 C416 0.918 1_455 S
H433 C421 0.929 . S
H434 C422 0.960 . S
H435 C422 0.962 . S
H436 C422 0.960 . S
H437 C423 0.961 . S
H438 C423 0.961 . S
H439 C423 0.961 . S
H440 C424 0.931 . S
H441 C429 0.930 . S
H442 C430 0.956 . S
H443 C430 0.961 . S
H444 C430 0.961 . S
H445 C431 0.958 . S
H446 C431 0.961 . S
H447 C431 0.960 . S
C448 C449 1.391 . S
C448 C450 1.394 . S
C448 H464 0.931 . S
C449 C448 1.391 . S
C449 C453 1.376 1_655 S
C450 C448 1.394 . S
C450 C451 1.369 1_655 S
C450 C454 1.531 . S
C451 C450 1.369 1_455 S
C451 C452 1.410 . S
C451 C459 1.503 . S
C452 C451 1.410 . S
C452 C453 1.392 . S
C452 C455 1.511 . S
C453 C449 1.376 1_455 S
C453 C452 1.392 . S
C453 H465 0.929 . S
C454 C450 1.531 . S
C454 H466 0.960 . S
C454 H467 0.962 . S
C454 H468 0.960 . S
C455 C452 1.511 . S
C455 H469 0.961 . S
C455 H470 0.961 . S
C455 H471 0.961 . S
C456 C457 1.370 1_655 S
C456 C458 1.363 . S
C456 H472 0.931 . S
C457 C456 1.370 1_455 S
C457 C461 1.408 . S
C458 C456 1.363 . S
C458 C459 1.370 1_655 S
C458 C462 1.524 . S
C459 C451 1.503 . S
C459 C458 1.370 1_455 S
C459 C460 1.403 . S
C460 C459 1.403 . S
C460 C461 1.404 . S
C460 C463 1.539 . S
C461 C457 1.408 . S
C461 C460 1.404 . S
C461 H473 0.930 . S
C462 C458 1.524 . S
C462 H474 0.956 . S
C462 H475 0.961 . S
C462 H476 0.961 . S
C463 C460 1.539 . S
C463 H477 0.958 . S
C463 H478 0.961 . S
C463 H479 0.960 . S
H464 C448 0.931 . S
H465 C453 0.929 . S
H466 C454 0.960 . S
H467 C454 0.962 . S
H468 C454 0.960 . S
H469 C455 0.961 . S
H470 C455 0.961 . S
H471 C455 0.961 . S
H472 C456 0.931 . S
H473 C461 0.930 . S
H474 C462 0.956 . S
H475 C462 0.961 . S
H476 C462 0.961 . S
H477 C463 0.958 . S
H478 C463 0.961 . S
H479 C463 0.960 . S
C480 C481 1.391 . S
C480 C482 1.394 1_655 S
C480 H496 0.931 1_655 S
C481 C480 1.391 . S
C481 C485 1.376 . S
C482 C480 1.394 1_455 S
C482 C483 1.369 1_455 S
C482 C486 1.531 . S
C483 C482 1.369 1_655 S
C483 C484 1.410 . S
C483 C491 1.503 1_655 S
C484 C483 1.410 . S
C484 C485 1.392 . S
C484 C487 1.511 . S
C485 C481 1.376 . S
C485 C484 1.392 . S
C485 H497 0.929 . S
C486 C482 1.531 . S
C486 H498 0.960 . S
C486 H499 0.962 . S
C486 H500 0.960 . S
C487 C484 1.511 . S
C487 H501 0.961 . S
C487 H502 0.961 . S
C487 H503 0.961 . S
C488 C489 1.370 . S
C488 C490 1.363 . S
C488 H504 0.931 . S
C489 C488 1.370 . S
C489 C493 1.408 . S
C490 C488 1.363 . S
C490 C491 1.370 . S
C490 C494 1.524 . S
C491 C483 1.503 1_455 S
C491 C490 1.370 . S
C491 C492 1.403 1_455 S
C492 C491 1.403 1_655 S
C492 C493 1.404 1_655 S
C492 C495 1.539 . S
C493 C489 1.408 . S
C493 C492 1.404 1_455 S
C493 H505 0.930 1_455 S
C494 C490 1.524 . S
C494 H506 0.956 . S
C494 H507 0.961 . S
C494 H508 0.961 . S
C495 C492 1.539 . S
C495 H509 0.958 . S
C495 H510 0.961 . S
C495 H511 0.960 . S
H496 C480 0.931 1_455 S
H497 C485 0.929 . S
H498 C486 0.960 . S
H499 C486 0.962 . S
H500 C486 0.960 . S
H501 C487 0.961 . S
H502 C487 0.961 . S
H503 C487 0.961 . S
H504 C488 0.931 . S
H505 C493 0.930 1_655 S
H506 C494 0.956 . S
H507 C494 0.961 . S
H508 C494 0.961 . S
H509 C495 0.958 . S
H510 C495 0.961 . S
H511 C495 0.960 . S
C512 C513 1.391 . S
C512 C514 1.394 . S
C512 H528 0.931 . S
C513 C512 1.391 . S
C513 C517 1.376 1_455 S
C514 C512 1.394 . S
C514 C515 1.369 1_455 S
C514 C518 1.531 . S
C515 C514 1.369 1_655 S
C515 C516 1.410 . S
C515 C523 1.503 . S
C516 C515 1.410 . S
C516 C517 1.392 . S
C516 C519 1.511 . S
C517 C513 1.376 1_655 S
C517 C516 1.392 . S
C517 H529 0.929 . S
C518 C514 1.531 . S
C518 H530 0.960 . S
C518 H531 0.962 . S
C518 H532 0.960 . S
C519 C516 1.511 . S
C519 H533 0.961 . S
C519 H534 0.961 . S
C519 H535 0.961 . S
C520 C521 1.370 1_455 S
C520 C522 1.363 . S
C520 H536 0.931 . S
C521 C520 1.370 1_655 S
C521 C525 1.408 . S
C522 C520 1.363 . S
C522 C523 1.370 1_455 S
C522 C526 1.524 . S
C523 C515 1.503 . S
C523 C522 1.370 1_655 S
C523 C524 1.403 . S
C524 C523 1.403 . S
C524 C525 1.404 . S
C524 C527 1.539 . S
C525 C521 1.408 . S
C525 C524 1.404 . S
C525 H537 0.930 . S
C526 C522 1.524 . S
C526 H538 0.956 . S
C526 H539 0.961 . S
C526 H540 0.961 . S
C527 C524 1.539 . S
C527 H541 0.958 . S
C527 H542 0.961 . S
C527 H543 0.960 . S
H528 C512 0.931 . S
H529 C517 0.929 . S
H530 C518 0.960 . S
H531 C518 0.962 . S
H532 C518 0.960 . S
H533 C519 0.961 . S
H534 C519 0.961 . S
H535 C519 0.961 . S
H536 C520 0.931 . S
H537 C525 0.930 . S
H538 C526 0.956 . S
H539 C526 0.961 . S
H540 C526 0.961 . S
H541 C527 0.958 . S
H542 C527 0.961 . S
H543 C527 0.960 . S
C161 C58 1.583 . S
C169 C9 1.577 . S
C193 C98 1.574 . S
C201 C129 1.581 . S
C225 C18 1.584 . S
C233 C49 1.577 . S
C257 C138 1.587 . S
C265 C89 1.577 . S
C289 C130 1.706 . S
C297 C10 1.699 . S
C321 C46 1.014 . S
C329 C86 0.995 . S
C353 C59 1.689 . S
C361 C99 1.701 . S
C385 C135 0.996 . S
C393 C15 1.009 . S
C417 C50 1.684 . S
C425 C90 1.693 . S
C449 C126 1.017 . S
C457 C6 0.990 . S
C481 C139 1.705 . S
C489 C19 1.708 . S
C513 C95 0.993 . S
C521 C55 0.988 . S
