# Generated by pormake.
# Topology wne, (6)-cn, num edge types: 1
# Building blocks:
#     Node 0, Type 0, BuildingBlock: INOVEN_clean_sbu_0, # of connection points: 6
#     Node 1, Type 0, BuildingBlock: INOVEN_clean_sbu_0, # of connection points: 6
#     Node 2, Type 0, BuildingBlock: INOVEN_clean_sbu_0, # of connection points: 6
#     Node 3, Type 0, BuildingBlock: INOVEN_clean_sbu_0, # of connection points: 6
#     Node 4, Type 0, BuildingBlock: INOVEN_clean_sbu_0, # of connection points: 6
#     Node 5, Type 0, BuildingBlock: INOVEN_clean_sbu_0, # of connection points: 6
#     Node 6, Type 0, BuildingBlock: INOVEN_clean_sbu_0, # of connection points: 6
#     Node 7, Type 0, BuildingBlock: INOVEN_clean_sbu_0, # of connection points: 6
#     Node 8, Type 0, BuildingBlock: INOVEN_clean_sbu_0, # of connection points: 6
#     Node 9, Type 0, BuildingBlock: INOVEN_clean_sbu_0, # of connection points: 6
#     Node 10, Type 0, BuildingBlock: INOVEN_clean_sbu_0, # of connection points: 6
#     Node 11, Type 0, BuildingBlock: INOVEN_clean_sbu_0, # of connection points: 6
#     Node 12, Type 0, BuildingBlock: INOVEN_clean_sbu_0, # of connection points: 6
#     Node 13, Type 0, BuildingBlock: INOVEN_clean_sbu_0, # of connection points: 6
#     Node 14, Type 0, BuildingBlock: INOVEN_clean_sbu_0, # of connection points: 6
#     Node 15, Type 0, BuildingBlock: INOVEN_clean_sbu_0, # of connection points: 6
#     Node 16, Type 0, BuildingBlock: INOVEN_clean_sbu_0, # of connection points: 6
#     Node 17, Type 0, BuildingBlock: INOVEN_clean_sbu_0, # of connection points: 6
#     Node 18, Type 0, BuildingBlock: INOVEN_clean_sbu_0, # of connection points: 6
#     Node 19, Type 0, BuildingBlock: INOVEN_clean_sbu_0, # of connection points: 6
#     Node 20, Type 0, BuildingBlock: INOVEN_clean_sbu_0, # of connection points: 6
#     Node 21, Type 0, BuildingBlock: INOVEN_clean_sbu_0, # of connection points: 6
#     Node 22, Type 0, BuildingBlock: INOVEN_clean_sbu_0, # of connection points: 6
#     Node 23, Type 0, BuildingBlock: INOVEN_clean_sbu_0, # of connection points: 6
#     Node 24, Type 0, BuildingBlock: INOVEN_clean_sbu_0, # of connection points: 6
#     Node 25, Type 0, BuildingBlock: INOVEN_clean_sbu_0, # of connection points: 6
#     Node 26, Type 0, BuildingBlock: INOVEN_clean_sbu_0, # of connection points: 6
#     Node 27, Type 0, BuildingBlock: INOVEN_clean_sbu_0, # of connection points: 6
#     Node 28, Type 0, BuildingBlock: INOVEN_clean_sbu_0, # of connection points: 6
#     Node 29, Type 0, BuildingBlock: INOVEN_clean_sbu_0, # of connection points: 6
#     Node 30, Type 0, BuildingBlock: INOVEN_clean_sbu_0, # of connection points: 6
#     Node 31, Type 0, BuildingBlock: INOVEN_clean_sbu_0, # of connection points: 6
#     Node 32, Type 0, BuildingBlock: INOVEN_clean_sbu_0, # of connection points: 6
#     Node 33, Type 0, BuildingBlock: INOVEN_clean_sbu_0, # of connection points: 6
#     Node 34, Type 0, BuildingBlock: INOVEN_clean_sbu_0, # of connection points: 6
#     Node 35, Type 0, BuildingBlock: INOVEN_clean_sbu_0, # of connection points: 6
#     Edge 36, Type (0, 0), BuildingBlock: KIFKEQ_clean_linker_1, # of connection points: 2
#     Edge 37, Type (0, 0), BuildingBlock: KIFKEQ_clean_linker_1, # of connection points: 2
#     Edge 38, Type (0, 0), BuildingBlock: KIFKEQ_clean_linker_1, # of connection points: 2
#     Edge 39, Type (0, 0), BuildingBlock: KIFKEQ_clean_linker_1, # of connection points: 2
#     Edge 40, Type (0, 0), BuildingBlock: KIFKEQ_clean_linker_1, # of connection points: 2
#     Edge 41, Type (0, 0), BuildingBlock: KIFKEQ_clean_linker_1, # of connection points: 2
#     Edge 42, Type (0, 0), BuildingBlock: KIFKEQ_clean_linker_1, # of connection points: 2
#     Edge 43, Type (0, 0), BuildingBlock: KIFKEQ_clean_linker_1, # of connection points: 2
#     Edge 44, Type (0, 0), BuildingBlock: KIFKEQ_clean_linker_1, # of connection points: 2
#     Edge 45, Type (0, 0), BuildingBlock: KIFKEQ_clean_linker_1, # of connection points: 2
#     Edge 46, Type (0, 0), BuildingBlock: KIFKEQ_clean_linker_1, # of connection points: 2
#     Edge 47, Type (0, 0), BuildingBlock: KIFKEQ_clean_linker_1, # of connection points: 2
#     Edge 48, Type (0, 0), BuildingBlock: KIFKEQ_clean_linker_1, # of connection points: 2
#     Edge 49, Type (0, 0), BuildingBlock: KIFKEQ_clean_linker_1, # of connection points: 2
#     Edge 50, Type (0, 0), BuildingBlock: KIFKEQ_clean_linker_1, # of connection points: 2
#     Edge 51, Type (0, 0), BuildingBlock: KIFKEQ_clean_linker_1, # of connection points: 2
#     Edge 52, Type (0, 0), BuildingBlock: KIFKEQ_clean_linker_1, # of connection points: 2
#     Edge 53, Type (0, 0), BuildingBlock: KIFKEQ_clean_linker_1, # of connection points: 2
#     Edge 54, Type (0, 0), BuildingBlock: KIFKEQ_clean_linker_1, # of connection points: 2
#     Edge 55, Type (0, 0), BuildingBlock: KIFKEQ_clean_linker_1, # of connection points: 2
#     Edge 56, Type (0, 0), BuildingBlock: KIFKEQ_clean_linker_1, # of connection points: 2
#     Edge 57, Type (0, 0), BuildingBlock: KIFKEQ_clean_linker_1, # of connection points: 2
#     Edge 58, Type (0, 0), BuildingBlock: KIFKEQ_clean_linker_1, # of connection points: 2
#     Edge 59, Type (0, 0), BuildingBlock: KIFKEQ_clean_linker_1, # of connection points: 2
#     Edge 60, Type (0, 0), BuildingBlock: KIFKEQ_clean_linker_1, # of connection points: 2
#     Edge 61, Type (0, 0), BuildingBlock: KIFKEQ_clean_linker_1, # of connection points: 2
#     Edge 62, Type (0, 0), BuildingBlock: KIFKEQ_clean_linker_1, # of connection points: 2
#     Edge 63, Type (0, 0), BuildingBlock: KIFKEQ_clean_linker_1, # of connection points: 2
#     Edge 64, Type (0, 0), BuildingBlock: KIFKEQ_clean_linker_1, # of connection points: 2
#     Edge 65, Type (0, 0), BuildingBlock: KIFKEQ_clean_linker_1, # of connection points: 2
#     Edge 66, Type (0, 0), BuildingBlock: KIFKEQ_clean_linker_1, # of connection points: 2
#     Edge 67, Type (0, 0), BuildingBlock: KIFKEQ_clean_linker_1, # of connection points: 2
#     Edge 68, Type (0, 0), BuildingBlock: KIFKEQ_clean_linker_1, # of connection points: 2
#     Edge 69, Type (0, 0), BuildingBlock: KIFKEQ_clean_linker_1, # of connection points: 2
#     Edge 70, Type (0, 0), BuildingBlock: KIFKEQ_clean_linker_1, # of connection points: 2
#     Edge 71, Type (0, 0), BuildingBlock: KIFKEQ_clean_linker_1, # of connection points: 2
#     Edge 72, Type (0, 0), BuildingBlock: KIFKEQ_clean_linker_1, # of connection points: 2
#     Edge 73, Type (0, 0), BuildingBlock: KIFKEQ_clean_linker_1, # of connection points: 2
#     Edge 74, Type (0, 0), BuildingBlock: KIFKEQ_clean_linker_1, # of connection points: 2
#     Edge 75, Type (0, 0), BuildingBlock: KIFKEQ_clean_linker_1, # of connection points: 2
#     Edge 76, Type (0, 0), BuildingBlock: KIFKEQ_clean_linker_1, # of connection points: 2
#     Edge 77, Type (0, 0), BuildingBlock: KIFKEQ_clean_linker_1, # of connection points: 2
#     Edge 78, Type (0, 0), BuildingBlock: KIFKEQ_clean_linker_1, # of connection points: 2
#     Edge 79, Type (0, 0), BuildingBlock: KIFKEQ_clean_linker_1, # of connection points: 2
#     Edge 80, Type (0, 0), BuildingBlock: KIFKEQ_clean_linker_1, # of connection points: 2
#     Edge 81, Type (0, 0), BuildingBlock: KIFKEQ_clean_linker_1, # of connection points: 2
#     Edge 82, Type (0, 0), BuildingBlock: KIFKEQ_clean_linker_1, # of connection points: 2
#     Edge 83, Type (0, 0), BuildingBlock: KIFKEQ_clean_linker_1, # of connection points: 2
#     Edge 84, Type (0, 0), BuildingBlock: KIFKEQ_clean_linker_1, # of connection points: 2
#     Edge 85, Type (0, 0), BuildingBlock: KIFKEQ_clean_linker_1, # of connection points: 2
#     Edge 86, Type (0, 0), BuildingBlock: KIFKEQ_clean_linker_1, # of connection points: 2
#     Edge 87, Type (0, 0), BuildingBlock: KIFKEQ_clean_linker_1, # of connection points: 2
#     Edge 88, Type (0, 0), BuildingBlock: KIFKEQ_clean_linker_1, # of connection points: 2
#     Edge 89, Type (0, 0), BuildingBlock: KIFKEQ_clean_linker_1, # of connection points: 2
#     Edge 90, Type (0, 0), BuildingBlock: KIFKEQ_clean_linker_1, # of connection points: 2
#     Edge 91, Type (0, 0), BuildingBlock: KIFKEQ_clean_linker_1, # of connection points: 2
#     Edge 92, Type (0, 0), BuildingBlock: KIFKEQ_clean_linker_1, # of connection points: 2
#     Edge 93, Type (0, 0), BuildingBlock: KIFKEQ_clean_linker_1, # of connection points: 2
#     Edge 94, Type (0, 0), BuildingBlock: KIFKEQ_clean_linker_1, # of connection points: 2
#     Edge 95, Type (0, 0), BuildingBlock: KIFKEQ_clean_linker_1, # of connection points: 2
#     Edge 96, Type (0, 0), BuildingBlock: KIFKEQ_clean_linker_1, # of connection points: 2
#     Edge 97, Type (0, 0), BuildingBlock: KIFKEQ_clean_linker_1, # of connection points: 2
#     Edge 98, Type (0, 0), BuildingBlock: KIFKEQ_clean_linker_1, # of connection points: 2
#     Edge 99, Type (0, 0), BuildingBlock: KIFKEQ_clean_linker_1, # of connection points: 2
#     Edge 100, Type (0, 0), BuildingBlock: KIFKEQ_clean_linker_1, # of connection points: 2
#     Edge 101, Type (0, 0), BuildingBlock: KIFKEQ_clean_linker_1, # of connection points: 2
#     Edge 102, Type (0, 0), BuildingBlock: KIFKEQ_clean_linker_1, # of connection points: 2
#     Edge 103, Type (0, 0), BuildingBlock: KIFKEQ_clean_linker_1, # of connection points: 2
#     Edge 104, Type (0, 0), BuildingBlock: KIFKEQ_clean_linker_1, # of connection points: 2
#     Edge 105, Type (0, 0), BuildingBlock: KIFKEQ_clean_linker_1, # of connection points: 2
#     Edge 106, Type (0, 0), BuildingBlock: KIFKEQ_clean_linker_1, # of connection points: 2
#     Edge 107, Type (0, 0), BuildingBlock: KIFKEQ_clean_linker_1, # of connection points: 2
#     Edge 108, Type (0, 0), BuildingBlock: KIFKEQ_clean_linker_1, # of connection points: 2
#     Edge 109, Type (0, 0), BuildingBlock: KIFKEQ_clean_linker_1, # of connection points: 2
#     Edge 110, Type (0, 0), BuildingBlock: KIFKEQ_clean_linker_1, # of connection points: 2
#     Edge 111, Type (0, 0), BuildingBlock: KIFKEQ_clean_linker_1, # of connection points: 2
#     Edge 112, Type (0, 0), BuildingBlock: KIFKEQ_clean_linker_1, # of connection points: 2
#     Edge 113, Type (0, 0), BuildingBlock: KIFKEQ_clean_linker_1, # of connection points: 2
#     Edge 114, Type (0, 0), BuildingBlock: KIFKEQ_clean_linker_1, # of connection points: 2
#     Edge 115, Type (0, 0), BuildingBlock: KIFKEQ_clean_linker_1, # of connection points: 2
#     Edge 116, Type (0, 0), BuildingBlock: KIFKEQ_clean_linker_1, # of connection points: 2
#     Edge 117, Type (0, 0), BuildingBlock: KIFKEQ_clean_linker_1, # of connection points: 2
#     Edge 118, Type (0, 0), BuildingBlock: KIFKEQ_clean_linker_1, # of connection points: 2
#     Edge 119, Type (0, 0), BuildingBlock: KIFKEQ_clean_linker_1, # of connection points: 2
#     Edge 120, Type (0, 0), BuildingBlock: KIFKEQ_clean_linker_1, # of connection points: 2
#     Edge 121, Type (0, 0), BuildingBlock: KIFKEQ_clean_linker_1, # of connection points: 2
#     Edge 122, Type (0, 0), BuildingBlock: KIFKEQ_clean_linker_1, # of connection points: 2
#     Edge 123, Type (0, 0), BuildingBlock: KIFKEQ_clean_linker_1, # of connection points: 2
#     Edge 124, Type (0, 0), BuildingBlock: KIFKEQ_clean_linker_1, # of connection points: 2
#     Edge 125, Type (0, 0), BuildingBlock: KIFKEQ_clean_linker_1, # of connection points: 2
#     Edge 126, Type (0, 0), BuildingBlock: KIFKEQ_clean_linker_1, # of connection points: 2
#     Edge 127, Type (0, 0), BuildingBlock: KIFKEQ_clean_linker_1, # of connection points: 2
#     Edge 128, Type (0, 0), BuildingBlock: KIFKEQ_clean_linker_1, # of connection points: 2
#     Edge 129, Type (0, 0), BuildingBlock: KIFKEQ_clean_linker_1, # of connection points: 2
#     Edge 130, Type (0, 0), BuildingBlock: KIFKEQ_clean_linker_1, # of connection points: 2
#     Edge 131, Type (0, 0), BuildingBlock: KIFKEQ_clean_linker_1, # of connection points: 2
#     Edge 132, Type (0, 0), BuildingBlock: KIFKEQ_clean_linker_1, # of connection points: 2
#     Edge 133, Type (0, 0), BuildingBlock: KIFKEQ_clean_linker_1, # of connection points: 2
#     Edge 134, Type (0, 0), BuildingBlock: KIFKEQ_clean_linker_1, # of connection points: 2
#     Edge 135, Type (0, 0), BuildingBlock: KIFKEQ_clean_linker_1, # of connection points: 2
#     Edge 136, Type (0, 0), BuildingBlock: KIFKEQ_clean_linker_1, # of connection points: 2
#     Edge 137, Type (0, 0), BuildingBlock: KIFKEQ_clean_linker_1, # of connection points: 2
#     Edge 138, Type (0, 0), BuildingBlock: KIFKEQ_clean_linker_1, # of connection points: 2
#     Edge 139, Type (0, 0), BuildingBlock: KIFKEQ_clean_linker_1, # of connection points: 2
#     Edge 140, Type (0, 0), BuildingBlock: KIFKEQ_clean_linker_1, # of connection points: 2
#     Edge 141, Type (0, 0), BuildingBlock: KIFKEQ_clean_linker_1, # of connection points: 2
#     Edge 142, Type (0, 0), BuildingBlock: KIFKEQ_clean_linker_1, # of connection points: 2
#     Edge 143, Type (0, 0), BuildingBlock: KIFKEQ_clean_linker_1, # of connection points: 2
# Relax obj value: 0.356
# Max RMSD: 0.248
# Mean RMSD: 0.248
data_MOF--net-wne--node1-INOVEN_clean_sbu_0--edge1-KIFKEQ_clean_linker_1
_symmetry_space_group_name_H-M    P1
_symmetry_Int_Tables_number       1
_symmetry_cell_setting            triclinic
loop_
_symmetry_equiv_pos_as_xyz
'x, y, z'
_cell_length_a     87.737435
_cell_length_b     87.860589
_cell_length_c     32.549865
_cell_angle_alpha  90.048856
_cell_angle_beta   89.942413
_cell_angle_gamma 120.02606
loop_
_atom_site_label
_atom_site_type_symbol
_atom_site_fract_x
_atom_site_fract_y
_atom_site_fract_z
_atom_type_partial_charge
Gd0 Gd 0.29229 0.20284 0.0913 0.0
Gd1 Gd 0.31627 0.23832 0.11317 0.0
C2 C 0.32829 0.21143 0.14096 0.0
C3 C 0.27605 0.16934 0.07014 0.0
C4 C 0.27611 0.15245 0.06009 0.0
C5 C 0.2749 0.14069 0.09119 0.0
C6 C 0.2748 0.14665 0.0191 0.0
C7 C 0.27065 0.11782 0.04069 0.0
C8 C 0.27221 0.12978 1.00961 0.0
C9 C 0.27229 0.1238 0.08172 0.0
C10 C 0.28037 0.21498 0.15695 0.0
C11 C 0.2799 0.22928 0.06233 0.0
C12 C 0.32931 0.27059 0.1354 0.0
C13 C 0.32131 0.28193 0.13451 0.0
C14 C 0.31822 0.28768 0.09681 0.0
C15 C 0.31611 0.28661 0.17103 0.0
C16 C 0.30631 0.30385 0.13212 0.0
C17 C 0.30864 0.29745 0.16986 0.0
C18 C 0.31084 0.29847 0.09565 0.0
C19 C 0.32991 0.2294 0.04783 0.0
O20 O 0.31588 0.20105 0.1148 0.0
O21 O 0.32984 0.22676 0.15079 0.0
O22 O 0.27846 0.17501 0.10807 0.0
O23 O 0.2822 0.18232 0.04371 0.0
O24 O 0.27065 0.20439 0.1281 0.0
O25 O 0.29588 0.21761 0.15136 0.0
O26 O 0.29301 0.24024 0.0864 0.0
O27 O 0.27798 0.21367 0.05413 0.0
O28 O 0.33253 0.26597 0.09971 0.0
O29 O 0.32262 0.25761 0.16164 0.0
O30 O 0.33845 0.23811 0.08001 0.0
O31 O 0.31354 0.22496 0.05188 0.0
H32 H 0.27555 0.14435 0.12318 0.0
H33 H 0.27523 0.15499 0.99412 0.0
H34 H 0.27082 0.12593 0.97763 0.0
H35 H 0.27148 0.11539 0.1069 0.0
H36 H 0.32181 0.28417 0.06796 0.0
H37 H 0.31806 0.28211 0.20049 0.0
H38 H 0.30519 0.30123 0.19853 0.0
H39 H 0.30966 0.30337 0.06601 0.0
Gd40 Gd 0.86855 0.10471 0.09391 0.0
Gd41 Gd 0.82911 0.09101 0.10844 0.0
C42 C 0.85754 0.1312 0.13912 0.0
C43 C 0.90132 0.12123 0.06812 0.0
C44 C 0.918 0.13806 0.05646 0.0
C45 C 0.92828 0.1509 0.08607 0.0
C46 C 0.92519 0.14028 0.01667 0.0
C47 C 0.95257 0.16722 0.03682 0.0
C48 C 0.94206 0.15457 1.00699 0.0
C49 C 0.94516 0.16516 0.07645 0.0
C50 C 0.85553 0.08044 0.16031 0.0
C51 C 0.84076 0.06458 0.06616 0.0
C52 C 0.79822 0.07646 0.13993 0.0
C53 C 0.78558 0.05748 0.14231 0.0
C54 C 0.78289 0.04678 0.10791 0.0
C55 C 0.77711 0.04968 0.17935 0.0
C56 C 0.76179 1.02095 0.146 0.0
C57 C 0.76536 0.03154 0.18127 0.0
C58 C 0.77107 0.02882 0.10961 0.0
C59 C 0.83951 0.10701 0.03334 0.0
O60 O 0.87031 0.1285 0.1261 0.0
O61 O 0.84072 0.11868 0.13607 0.0
O62 O 0.89655 0.11875 0.10682 0.0
O63 O 0.88775 0.11382 0.04303 0.0
O64 O 0.87166 0.08832 0.14701 0.0
O65 O 0.84847 0.08692 0.13806 0.0
O66 O 0.82885 0.06601 0.08848 0.0
O67 O 0.85631 0.07873 0.05789 0.0
O68 O 0.80161 0.08324 0.10293 0.0
O69 O 0.81236 0.08196 0.16247 0.0
O70 O 0.82538 0.09206 0.04071 0.0
O71 O 0.84865 0.11206 0.06676 0.0
H72 H 0.92348 0.14975 0.11722 0.0
H73 H 0.91798 0.13058 0.99314 0.0
H74 H 0.94708 0.1553 0.97624 0.0
H75 H 0.95243 0.17457 0.10042 0.0
H76 H 0.78967 0.05231 0.0792 0.0
H77 H 0.77946 0.05763 0.20662 0.0
H78 H 0.75873 1.02592 0.21005 0.0
H79 H 0.76861 1.02135 0.08151 0.0
Gd80 Gd 0.96697 0.77804 0.09395 0.0
Gd81 Gd 0.97961 0.75426 0.11148 0.0
C82 C 0.93914 0.74087 0.13704 0.0
C83 C 0.95003 0.79438 0.07177 0.0
C84 C 0.93315 0.79446 0.06188 0.0
C85 C 0.9228 0.796 0.09307 0.0
C86 C 0.92855 0.79555 0.02091 0.0
C87 C 0.90415 0.80017 0.04265 0.0
C88 C 0.91433 0.79827 1.01148 0.0
C89 C 0.9086 0.79874 0.08368 0.0
C90 C 0.99215 0.79033 0.15694 0.0
C91 C 1.00665 0.79034 0.06624 0.0
C92 C 0.99263 0.73723 0.14721 0.0
C93 C 1.01111 0.74371 0.15903 0.0
C94 C 1.02447 0.75078 0.12923 0.0
C95 C 1.01572 0.74408 0.20048 0.0
C96 C 0.04657 0.75666 0.18143 0.0
C97 C 1.03332 0.75063 0.21162 0.0
C98 C 1.04193 0.75706 0.14024 0.0
C99 C 0.9653 0.74735 0.03413 0.0
O100 O 0.94277 0.75699 0.12763 0.0
O101 O 0.9512 0.73622 0.13146 0.0
O102 O 0.95342 0.79236 0.10991 0.0
O103 O 0.9566 0.7878 0.04558 0.0
O104 O 0.99021 0.80005 0.12994 0.0
O105 O 0.97972 0.77467 0.151 0.0
O106 O 1.00524 0.77842 0.09306 0.0
O107 O 0.99219 0.79053 0.05483 0.0
O108 O 0.98926 0.73593 0.10787 0.0
O109 O 0.98467 0.74407 0.16737 0.0
O110 O 0.98052 0.74933 0.0439 0.0
O111 O 0.95911 0.75118 0.06576 0.0
H112 H 0.92591 0.79551 0.12505 0.0
H113 H 0.93632 0.79486 0.99587 0.0
H114 H 0.91176 0.79948 0.9795 0.0
H115 H 0.90114 0.79982 0.10889 0.0
H116 H 1.02147 0.75116 0.09711 0.0
H117 H 1.0057 0.73919 0.22419 0.0
H118 H 1.03651 0.75048 0.24363 0.0
H119 H 0.05162 0.7613 0.11587 0.0
Gd120 Gd 0.21714 0.27909 0.43838 0.0
Gd121 Gd 0.25341 0.3026 0.4204 0.0
C122 C 0.22663 0.31658 0.39661 0.0
C123 C 0.1838 0.26234 0.46045 0.0
C124 C 0.16673 0.26158 0.47233 0.0
C125 C 0.15898 0.2694 0.44873 0.0
C126 C 0.15692 0.25106 0.50581 0.0
C127 C 0.13191 0.25563 0.49116 0.0
C128 C 0.13991 0.24812 0.51501 0.0
C129 C 0.14195 0.26658 0.45814 0.0
C130 C 0.22981 0.26679 0.37451 0.0
C131 C 0.24429 0.26668 0.46634 0.0
C132 C 0.28397 0.31965 0.38656 0.0
C133 C 0.29682 0.31371 0.38056 0.0
C134 C 0.30229 0.30759 0.41408 0.0
C135 C 0.30254 0.31265 0.34092 0.0
C136 C 0.32027 0.30088 0.36899 0.0
C137 C 0.31413 0.30625 0.33513 0.0
C138 C 0.31393 0.30137 0.40841 0.0
C139 C 0.24656 0.30904 0.49853 0.0
O140 O 0.21406 0.30075 0.40784 0.0
O141 O 0.24333 0.32077 0.3996 0.0
O142 O 0.18926 0.2657 0.42233 0.0
O143 O 0.19688 0.26806 0.48668 0.0
O144 O 0.21836 0.25714 0.40204 0.0
O145 O 0.233 0.28243 0.38055 0.0
O146 O 0.25475 0.27838 0.43902 0.0
O147 O 0.22977 0.26672 0.47793 0.0
O148 O 0.28103 0.32244 0.42439 0.0
O149 O 0.26951 0.31111 0.36538 0.0
O150 O 0.25935 0.30646 0.48797 0.0
O151 O 0.23637 0.3057 0.46743 0.0
H152 H 0.16592 0.27743 0.42241 0.0
H153 H 0.16227 0.24465 0.52452 0.0
H154 H 0.13302 0.23987 0.54106 0.0
H155 H 0.13645 0.27258 0.43861 0.0
H156 H 0.29777 0.30777 0.44495 0.0
H157 H 0.29808 0.31683 0.31447 0.0
H158 H 0.3186 0.30588 0.3043 0.0
H159 H 0.31856 0.29773 0.43543 0.0
Gd160 Gd 0.79235 0.95152 0.43721 0.0
Gd161 Gd 0.76909 0.96439 0.41738 0.0
C162 C 0.75545 0.92405 0.39192 0.0
C163 C 0.8088 0.93455 0.45861 0.0
C164 C 0.809 0.91776 0.46882 0.0
C165 C 0.80939 0.90669 0.43781 0.0
C166 C 0.81137 0.91393 0.50962 0.0
C167 C 0.81491 0.88886 0.48802 0.0
C168 C 0.81419 0.89979 0.51904 0.0
C169 C 0.81222 0.89255 0.4472 0.0
C170 C 0.80441 0.97593 0.3724 0.0
C171 C 0.80484 0.99095 0.4657 0.0
C172 C 0.75278 0.9794 0.38797 0.0
C173 C 0.75485 0.99638 0.4014 0.0
C174 C 0.75103 0.99864 0.44211 0.0
C175 C 0.76339 1.01117 0.3757 0.0
C176 C 0.7651 0.03024 0.43192 0.0
C177 C 0.76849 1.02796 0.39082 0.0
C178 C 0.75604 1.01534 0.45711 0.0
C179 C 0.76246 0.95192 0.49633 0.0
O180 O 0.77051 0.92673 0.40745 0.0
O181 O 0.75184 0.93697 0.39117 0.0
O182 O 0.80635 0.93768 0.42059 0.0
O183 O 0.80257 0.94136 0.48507 0.0
O184 O 0.81405 0.975 0.40129 0.0
O185 O 0.78887 0.96323 0.3782 0.0
O186 O 0.79302 0.98965 0.43874 0.0
O187 O 0.80504 0.9765 0.47677 0.0
O188 O 0.7454 0.96633 0.414 0.0
O189 O 0.76673 0.98057 0.37055 0.0
O190 O 0.7655 0.9673 0.48462 0.0
O191 O 0.76579 0.94467 0.46601 0.0
H192 H 0.8079 0.90918 0.40591 0.0
H193 H 0.8116 0.92226 0.53445 0.0
H194 H 0.81641 0.89785 0.55082 0.0
H195 H 0.81235 0.88452 0.42212 0.0
H196 H 0.7446 0.98758 0.46294 0.0
H197 H 0.76672 1.00982 0.34435 0.0
H198 H 0.77537 0.03916 0.37059 0.0
H199 H 0.75271 1.01654 0.48853 0.0
Gd200 Gd 0.11883 0.85335 0.43841 0.0
Gd201 Gd 0.10656 0.81774 0.41553 0.0
C202 C 0.14753 0.84506 0.3956 0.0
C203 C 0.1353 0.88651 0.46167 0.0
C204 C 0.15206 0.90362 0.47132 0.0
C205 C 0.16268 0.91514 0.43987 0.0
C206 C 0.15625 0.90986 0.51205 0.0
C207 C 0.18075 0.93864 0.48948 0.0
C208 C 0.17032 0.92693 0.52096 0.0
C209 C 0.17672 0.93223 0.44874 0.0
C210 C 0.09443 0.84187 0.37353 0.0
C211 C 0.07925 0.82561 0.46388 0.0
C212 C 0.0951 0.78885 0.37425 0.0
C213 C 0.07789 0.77712 0.35589 0.0
C214 C 0.07431 0.76097 0.33953 0.0
C215 C 0.06449 0.78139 0.35777 0.0
C216 C 0.04328 0.75221 0.33325 0.0
C217 C 0.04736 0.76913 0.34596 0.0
C218 C 0.05713 0.74857 0.32835 0.0
C219 C 0.11934 0.82244 0.49416 0.0
O220 O 0.14395 0.85727 0.40796 0.0
O221 O 0.13518 0.8283 0.39726 0.0
O222 O 0.13187 0.88123 0.42347 0.0
O223 O 0.12901 0.87328 0.48753 0.0
O224 O 0.09545 0.85223 0.40306 0.0
O225 O 0.10706 0.83892 0.3788 0.0
O226 O 0.08075 0.81604 0.43444 0.0
O227 O 0.09371 0.83972 0.47744 0.0
O228 O 0.09531 0.78945 0.41429 0.0
O229 O 0.10389 0.8044 0.35771 0.0
O230 O 0.1044 0.80964 0.48141 0.0
O231 O 0.12633 0.83369 0.46486 0.0
H232 H 0.1599 0.91113 0.40802 0.0
H233 H 0.14827 0.90169 0.5372 0.0
H234 H 0.17259 0.93114 0.55272 0.0
H235 H 0.18439 0.94046 0.42336 0.0
H236 H 0.08455 0.75753 0.33772 0.0
H237 H 0.06707 0.79385 0.37037 0.0
H238 H 1.03713 0.77251 0.3494 0.0
H239 H 0.05459 0.73567 0.31913 0.0
Gd240 Gd 0.7666 0.81433 0.92408 0.0
Gd241 Gd 0.7921 0.85393 0.93829 0.0
C242 C 0.80465 0.82638 0.96684 0.0
C243 C 0.75031 0.78374 0.891 0.0
C244 C 0.75659 0.77119 0.88509 0.0
C245 C 0.76581 0.76846 0.91671 0.0
C246 C 0.75418 0.76247 0.84752 0.0
C247 C 0.76798 0.74652 0.87546 0.0
C248 C 0.75993 0.7503 0.84261 0.0
C249 C 0.77129 0.7562 0.91212 0.0
C250 C 0.76052 0.8247 0.99862 0.0
C251 C 0.75461 0.84242 0.89253 0.0
C252 C 0.80817 0.88673 0.96382 0.0
C253 C 0.80819 0.90358 0.97478 0.0
C254 C 0.80817 0.91492 0.94404 0.0
C255 C 0.81086 0.90983 1.0156 0.0
C256 C 0.81404 0.93832 0.99432 0.0
C257 C 0.81362 0.92677 0.0252 0.0
C258 C 0.81101 0.93186 0.95358 0.0
C259 C 0.80347 0.84095 0.87205 0.0
O260 O 0.79144 0.81438 0.94438 0.0
O261 O 0.80591 0.84189 0.97471 0.0
O262 O 0.74768 0.78662 0.92917 0.0
O263 O 0.75842 0.79814 0.86917 0.0
O264 O 0.76125 0.81052 0.99149 0.0
O265 O 0.7648 0.83389 0.96525 0.0
O266 O 0.77004 0.85534 0.90527 0.0
O267 O 0.75037 0.82568 0.89646 0.0
O268 O 0.80618 0.88189 0.9252 0.0
O269 O 0.80172 0.8732 0.98904 0.0
O270 O 0.81161 0.85712 0.88499 0.0
O271 O 0.79005 0.83381 0.89471 0.0
H272 H 0.76835 0.77542 0.94565 0.0
H273 H 0.7476 0.76484 0.82227 0.0
H274 H 0.7575 0.74344 0.8136 0.0
H275 H 0.77719 0.75365 0.93848 0.0
H276 H 0.80641 0.91091 0.91213 0.0
H277 H 0.81138 0.90181 0.04019 0.0
H278 H 0.81605 0.93103 0.05692 0.0
H279 H 0.81088 0.93995 0.92868 0.0
Gd280 Gd 0.25672 0.96584 0.92233 0.0
Gd281 Gd 0.2175 0.95189 0.93883 0.0
C282 C 0.24491 0.99213 0.96498 0.0
C283 C 0.28777 0.97957 0.89064 0.0
C284 C 0.30115 0.99812 0.88527 0.0
C285 C 0.31881 1.00292 0.88008 0.0
C286 C 0.29664 1.01122 0.89113 0.0
C287 C 0.32751 0.03359 0.89216 0.0
C288 C 0.30971 0.02882 0.8945 0.0
C289 C 0.33192 1.02055 0.88335 0.0
C290 C 0.24768 0.95108 0.99851 0.0
C291 C 0.22844 0.92523 0.89426 0.0
C292 C 0.18467 0.93531 0.96426 0.0
C293 C 0.16787 0.91857 0.97579 0.0
C294 C 0.15732 0.90606 0.94583 0.0
C295 C 0.16081 0.91616 1.01578 0.0
C296 C 0.13305 0.88975 0.99507 0.0
C297 C 0.14382 0.90202 0.02529 0.0
C298 C 0.14032 0.89198 0.95525 0.0
C299 C 0.22967 0.97555 0.87089 0.0
O300 O 0.25652 0.99079 0.94119 0.0
O301 O 0.22971 0.97784 0.97467 0.0
O302 O 0.28441 0.97448 0.92892 0.0
O303 O 0.27352 0.97389 0.86847 0.0
O304 O 0.26118 0.96626 0.98963 0.0
O305 O 0.23785 0.94502 0.96624 0.0
O306 O 0.21578 0.92775 0.90885 0.0
O307 O 0.24517 0.93806 0.89518 0.0
O308 O 0.18955 0.93766 0.92566 0.0
O309 O 0.19817 0.9428 0.98955 0.0
O310 O 0.21379 0.96792 0.88566 0.0
O311 O 0.23698 0.96932 0.893 0.0
H312 H 0.32253 0.99297 0.8759 0.0
H313 H 0.28309 1.00779 0.89538 0.0
H314 H 0.30592 0.03857 0.90108 0.0
H315 H 0.34555 1.02376 0.88201 0.0
H316 H 0.162 0.90737 0.91451 0.0
H317 H 0.16822 0.9256 0.03962 0.0
H318 H 0.1389 0.90112 0.05622 0.0
H319 H 0.13284 0.88285 0.93099 0.0
Gd320 Gd 0.10552 0.30239 0.91458 0.0
Gd321 Gd 0.11814 0.27927 0.93754 0.0
C322 C 0.07842 0.26728 0.96363 0.0
C323 C 0.09361 0.3192 0.87253 0.0
C324 C 0.07571 0.31385 0.85892 0.0
C325 C 0.07139 0.32662 0.84811 0.0
C326 C 0.06239 0.29616 0.86165 0.0
C327 C 1.04022 0.30456 0.85065 0.0
C328 C 0.04476 0.29152 0.85732 0.0
C329 C 0.05377 0.32201 0.84387 0.0
C330 C 0.11828 0.31073 0.99294 0.0
C331 C 0.14623 0.31597 0.89329 0.0
C332 C 0.13497 0.26292 0.96104 0.0
C333 C 0.15156 0.26202 0.96895 0.0
C334 C 0.1539 0.2492 0.94839 0.0
C335 C 0.16421 0.27226 0.99892 0.0
C336 C 0.18067 0.25646 0.98793 0.0
C337 C 0.17857 0.26962 1.00798 0.0
C338 C 0.16807 0.24646 0.95764 0.0
C339 C 0.09351 0.26624 0.87344 0.0
O340 O 0.07984 0.27859 0.93497 0.0
O341 O 0.09289 0.26739 0.97635 0.0
O342 O 0.09599 0.32088 0.91219 0.0
O343 O 0.10071 0.31074 0.85579 0.0
O344 O 0.10324 0.3084 0.98026 0.0
O345 O 0.12532 0.30634 0.9639 0.0
O346 O 0.14253 0.29993 0.90363 0.0
O347 O 0.13413 0.32061 0.89738 0.0
O348 O 0.13033 0.26344 0.92313 0.0
O349 O 0.12996 0.27122 0.98636 0.0
O350 O 0.09442 0.25698 0.90331 0.0
O351 O 0.10629 0.28175 0.87821 0.0
H352 H 0.08154 0.34031 0.84572 0.0
H353 H 0.06553 0.28609 0.86969 0.0
H354 H 1.03467 0.27795 0.86209 0.0
H355 H 0.05083 0.33246 0.83898 0.0
H356 H 0.14443 0.2409 0.92543 0.0
H357 H 0.16289 0.28214 1.01592 0.0
H358 H 0.18776 0.27761 0.03168 0.0
H359 H 0.16911 0.23639 0.94079 0.0
Gd360 Gd 0.83253 0.75406 0.6126 0.0
Gd361 Gd 0.86881 0.77755 0.59435 0.0
C362 C 0.84164 0.78972 0.56465 0.0
C363 C 0.80253 0.73732 0.64967 0.0
C364 C 0.79027 0.74353 0.65966 0.0
C365 C 0.77246 0.73148 0.66618 0.0
C366 C 0.79596 0.76158 0.65731 0.0
C367 C 0.76573 0.75516 0.6613 0.0
C368 C 0.78376 0.76735 0.65783 0.0
C369 C 0.76026 0.73726 0.66729 0.0
C370 C 0.83953 0.74668 0.53529 0.0
C371 C 0.85932 0.74045 0.63822 0.0
C372 C 0.90225 0.79404 0.57306 0.0
C373 C 0.91951 0.79455 0.56469 0.0
C374 C 0.93451 0.80576 0.58814 0.0
C375 C 0.92198 0.78578 0.53125 0.0
C376 C 0.95401 0.79976 0.54472 0.0
C377 C 0.93885 0.78826 0.5216 0.0
C378 C 0.95134 0.80832 0.57844 0.0
C379 C 0.85577 0.78988 0.65708 0.0
O380 O 0.83111 0.77803 0.59189 0.0
O381 O 0.85635 0.78988 0.55394 0.0
O382 O 0.80445 0.73564 0.61048 0.0
O383 O 0.81752 0.74518 0.66911 0.0
O384 O 0.8263 0.74865 0.54529 0.0
O385 O 0.84973 0.75063 0.56656 0.0
O386 O 0.87187 0.75653 0.6285 0.0
O387 O 0.84261 0.73584 0.63269 0.0
O388 O 0.89669 0.79263 0.61096 0.0
O389 O 0.8892 0.78663 0.54675 0.0
O390 O 0.86676 0.79947 0.62869 0.0
O391 O 0.85304 0.77438 0.65188 0.0
H392 H 0.76786 0.71753 0.66794 0.0
H393 H 0.80972 0.77111 0.65269 0.0
H394 H 0.7883 0.78118 0.65318 0.0
H395 H 0.7464 0.72754 0.66944 0.0
H396 H 0.93333 0.81306 0.6136 0.0
H397 H 0.91091 0.77716 0.51203 0.0
H398 H 0.93993 0.78109 0.49579 0.0
H399 H 0.96236 0.81755 0.59692 0.0
Gd400 Gd 0.31542 0.09131 0.6103 0.0
Gd401 Gd 0.29187 0.10419 0.59387 0.0
C402 C 0.27944 0.06499 0.5626 0.0
C403 C 0.33215 0.07643 0.63807 0.0
C404 C 0.3296 0.05911 0.62607 0.0
C405 C 0.33284 0.05601 0.58551 0.0
C406 C 0.32146 0.04487 0.65345 0.0
C407 C 0.31923 1.0247 0.59943 0.0
C408 C 0.31629 1.02781 0.64025 0.0
C409 C 0.32776 0.03904 0.57243 0.0
C410 C 0.32171 0.10525 0.53265 0.0
C411 C 0.32898 0.13139 0.6388 0.0
C412 C 0.27512 0.12103 0.57449 0.0
C413 C 0.27446 0.13767 0.56625 0.0
C414 C 0.26228 0.14066 0.58789 0.0
C415 C 0.28423 0.14968 0.53482 0.0
C416 C 0.26932 0.16695 0.54664 0.0
C417 C 0.28177 0.16408 0.52536 0.0
C418 C 0.25974 0.15491 0.57834 0.0
C419 C 0.28024 0.07918 0.65713 0.0
O420 O 0.29159 0.06615 0.58834 0.0
O421 O 0.27893 0.07946 0.55331 0.0
O422 O 0.33885 0.08889 0.61041 0.0
O423 O 0.31879 0.07582 0.65723 0.0
O424 O 0.3191 0.08979 0.54215 0.0
O425 O 0.31838 0.11171 0.56443 0.0
O426 O 0.31361 0.12864 0.62513 0.0
O427 O 0.33283 0.11863 0.63713 0.0
O428 O 0.27715 0.11719 0.61219 0.0
O429 O 0.28209 0.11522 0.54741 0.0
O430 O 0.2704 0.0804 0.6292 0.0
O431 O 0.29576 0.09195 0.65134 0.0
H432 H 0.33895 0.06663 0.56345 0.0
H433 H 0.31859 0.04686 0.68474 0.0
H434 H 0.3098 1.01706 0.66184 0.0
H435 H 0.33074 0.03721 0.54113 0.0
H436 H 0.25425 0.13159 0.61176 0.0
H437 H 0.29365 0.14786 0.5171 0.0
H438 H 0.28974 0.17296 0.5012 0.0
H439 H 0.24977 0.15609 0.59529 0.0
Gd440 Gd 0.97961 0.2408 0.60853 0.0
Gd441 Gd 0.9658 0.20131 0.59366 0.0
C442 C 1.00596 0.2292 0.56579 0.0
C443 C 0.99235 0.27008 0.64744 0.0
C444 C 1.01 0.2815 0.66484 0.0
C445 C 1.02509 0.28701 0.64058 0.0
C446 C 1.01194 0.28636 0.70641 0.0
C447 C 0.04371 0.30434 0.69748 0.0
C448 C 1.02866 0.29757 0.72272 0.0
C449 C 1.0417 0.29835 0.65659 0.0
C450 C 0.96332 0.23077 0.53391 0.0
C451 C 0.93906 0.21226 0.63749 0.0
C452 C 0.94989 0.16852 0.56855 0.0
C453 C 0.93356 0.15109 0.55931 0.0
C454 C 0.93083 0.13603 0.58088 0.0
C455 C 0.92144 0.14865 0.52802 0.0
C456 C 0.90442 0.1165 0.54038 0.0
C457 C 0.90709 0.13169 0.51887 0.0
C458 C 0.91667 0.11916 0.57165 0.0
C459 C 0.98996 0.21437 0.6601 0.0
O460 O 1.00467 0.24102 0.58884 0.0
O461 O 0.99173 0.21374 0.55736 0.0
O462 O 0.99122 0.26905 0.60722 0.0
O463 O 0.98309 0.25485 0.66561 0.0
O464 O 0.97778 0.24538 0.54174 0.0
O465 O 0.95846 0.22126 0.56681 0.0
O466 O 0.94197 0.19943 0.62626 0.0
O467 O 0.9514 0.22904 0.6329 0.0
O468 O 0.95332 0.17338 0.60704 0.0
O469 O 0.95562 0.18198 0.54328 0.0
O470 O 0.98213 0.19824 0.64702 0.0
O471 O 0.98361 0.22138 0.63747 0.0
H472 H 1.02407 0.28302 0.60873 0.0
H473 H 1.00049 0.28179 0.72605 0.0
H474 H 1.02971 0.30154 0.75456 0.0
H475 H 0.05279 0.3033 0.63576 0.0
H476 H 0.94 0.13723 0.60467 0.0
H477 H 0.92307 0.15982 0.5104 0.0
H478 H 0.89805 0.13057 0.49492 0.0
H479 H 0.9157 0.10813 0.58863 0.0
Gd480 Gd 0.96063 0.53583 0.42938 0.0
Gd481 Gd 0.98386 0.57193 0.4484 0.0
C482 C 0.99745 0.54516 0.47458 0.0
C483 C 0.94419 0.50246 0.40777 0.0
C484 C 0.94405 0.48551 0.39746 0.0
C485 C 0.94252 0.47357 0.42843 0.0
C486 C 0.94285 0.47985 0.35639 0.0
C487 C 0.93815 0.45079 0.37764 0.0
C488 C 0.94005 0.46293 0.34668 0.0
C489 C 0.93968 0.45663 0.41875 0.0
C490 C 0.94856 0.54811 0.49436 0.0
C491 C 0.94787 0.5626 0.40109 0.0
C492 C 1.00102 0.60348 0.47659 0.0
C493 C 0.99972 0.61875 0.46289 0.0
C494 C 1.00092 0.62293 0.42094 0.0
C495 C 0.99447 0.62743 0.4908 0.0
C496 C 0.9913 0.644 0.43485 0.0
C497 C 0.99028 0.63995 0.47693 0.0
C498 C 0.99684 0.63547 0.40713 0.0
C499 C 0.99028 0.56583 0.36954 0.0
O500 O 0.9824 0.53278 0.4591 0.0
O501 O 1.00103 0.56169 0.47515 0.0
O502 O 0.94665 0.50801 0.44584 0.0
O503 O 0.95041 0.5155 0.38139 0.0
O504 O 0.93888 0.53725 0.46591 0.0
O505 O 0.9642 0.55121 0.4883 0.0
O506 O 0.95984 0.57326 0.42764 0.0
O507 O 0.94763 0.54791 0.39023 0.0
O508 O 1.00797 0.59723 0.45081 0.0
O509 O 0.98675 0.59116 0.49385 0.0
O510 O 0.987 0.57804 0.38098 0.0
O511 O 0.9871 0.55539 0.40002 0.0
H512 H 0.94307 0.47713 0.46047 0.0
H513 H 0.94353 0.48835 0.33151 0.0
H514 H 0.93876 0.45917 0.31464 0.0
H515 H 0.93862 0.44807 0.44381 0.0
H516 H 1.00463 0.61625 0.3985 0.0
H517 H 0.99308 0.62413 0.52318 0.0
H518 H 0.98601 0.64626 0.49905 0.0
H519 H 0.99824 0.6386 0.37468 0.0
Gd520 Gd 0.53607 0.43751 0.4295 0.0
Gd521 Gd 0.50018 0.42515 0.45014 0.0
C522 C 0.52751 0.46558 0.47478 0.0
C523 C 0.56939 0.45414 0.40739 0.0
C524 C 0.58623 0.47098 0.39678 0.0
C525 C 0.59778 0.48208 0.42757 0.0
C526 C 0.59217 0.47486 0.35578 0.0
C527 C 0.62079 0.50002 0.37678 0.0
C528 C 0.60903 0.48909 0.34596 0.0
C529 C 0.61466 0.4963 0.41779 0.0
C530 C 0.52387 0.41299 0.49409 0.0
C531 C 0.50865 0.39824 0.40108 0.0
C532 C 0.46897 0.41081 0.48068 0.0
C533 C 0.45404 0.39334 0.4704 0.0
C534 C 0.44841 0.38907 0.42951 0.0
C535 C 0.44732 0.37999 0.50019 0.0
C536 C 0.42998 0.3583 0.44807 0.0
C537 C 0.43541 0.36261 0.48915 0.0
C538 C 0.43647 0.37179 0.41855 0.0
C539 C 0.50594 0.43772 0.37131 0.0
O540 O 0.53956 0.46268 0.45814 0.0
O541 O 0.51094 0.45269 0.47678 0.0
O542 O 0.56394 0.45121 0.44556 0.0
O543 O 0.55627 0.4472 0.38119 0.0
O544 O 0.5345 0.41411 0.4651 0.0
O545 O 0.52101 0.4257 0.48875 0.0
O546 O 0.49825 0.39963 0.42835 0.0
O547 O 0.5234 0.4126 0.38997 0.0
O548 O 0.47436 0.42289 0.45218 0.0
O549 O 0.48197 0.41036 0.4988 0.0
O550 O 0.49352 0.42237 0.38304 0.0
O551 O 0.51664 0.44484 0.40146 0.0
H552 H 0.59398 0.47955 0.45959 0.0
H553 H 0.58396 0.4665 0.33112 0.0
H554 H 0.61304 0.4911 0.31406 0.0
H555 H 0.62294 0.50436 0.44268 0.0
H556 H 0.45351 0.39898 0.40562 0.0
H557 H 0.45175 0.38291 0.53178 0.0
H558 H 0.43065 0.35254 0.51263 0.0
H559 H 0.43218 0.36906 0.38686 0.0
Gd560 Gd 0.63227 0.11107 0.42816 0.0
Gd561 Gd 0.64644 0.08569 0.44272 0.0
C562 C 0.60613 0.07353 0.47331 0.0
C563 C 0.61558 0.1271 0.40221 0.0
C564 C 0.59881 0.12713 0.39067 0.0
C565 C 0.58676 0.12616 0.42085 0.0
C566 C 0.59594 0.13075 0.35009 0.0
C567 C 0.56997 0.13299 0.37052 0.0
C568 C 0.58179 0.13353 0.34017 0.0
C569 C 0.57267 0.129 0.411 0.0
C570 C 0.65669 0.12254 0.49433 0.0
C571 C 0.67251 0.12373 0.40045 0.0
C572 C 0.66032 0.06957 0.47841 0.0
C573 C 0.67878 0.07624 0.4904 0.0
C574 C 0.69236 0.08486 0.46158 0.0
C575 C 0.68307 0.07492 0.53124 0.0
C576 C 0.71412 0.08856 0.51286 0.0
C577 C 0.70061 0.08114 0.54248 0.0
C578 C 0.70977 0.09082 0.47256 0.0
C579 C 0.63011 0.0795 0.36795 0.0
O580 O 0.60876 0.08908 0.46133 0.0
O581 O 0.61858 0.06923 0.46883 0.0
O582 O 0.61818 0.12499 0.44092 0.0
O583 O 0.62286 0.12077 0.37717 0.0
O584 O 0.64875 0.13073 0.48113 0.0
O585 O 0.65024 0.10904 0.47199 0.0
O586 O 0.67131 0.11062 0.42319 0.0
O587 O 0.65822 0.12487 0.39207 0.0
O588 O 0.65706 0.06823 0.43886 0.0
O589 O 0.65215 0.07622 0.4988 0.0
O590 O 0.64486 0.07992 0.37548 0.0
O591 O 0.62514 0.08381 0.40123 0.0
H592 H 0.58845 0.12363 0.4526 0.0
H593 H 0.60502 0.13201 0.32599 0.0
H594 H 0.58055 0.13673 0.30871 0.0
H595 H 0.5639 0.12812 0.43546 0.0
H596 H 0.68955 0.0866 0.43009 0.0
H597 H 0.67284 0.06882 0.55428 0.0
H598 H 0.70348 0.07951 0.57399 0.0
H599 H 0.7196 0.09621 0.44853 0.0
Gd600 Gd 0.88383 0.61141 0.77333 0.0
Gd601 Gd 0.92046 0.63527 0.75582 0.0
C602 C 0.89331 0.64863 0.72993 0.0
C603 C 0.85047 0.5947 0.79512 0.0
C604 C 0.83333 0.59389 0.80659 0.0
C605 C 0.8263 0.60281 0.78461 0.0
C606 C 0.82281 0.58235 0.83797 0.0
C607 C 0.79851 0.58817 0.82445 0.0
C608 C 0.8058 0.57952 0.84667 0.0
C609 C 0.80927 0.6001 0.79359 0.0
C610 C 0.8969 0.59924 0.7102 0.0
C611 C 0.91113 0.5992 0.80176 0.0
C612 C 0.95114 0.65324 0.72213 0.0
C613 C 0.96435 0.64813 0.71332 0.0
C614 C 0.98191 0.66104 0.70721 0.0
C615 C 0.95981 0.63039 0.71599 0.0
C616 C 0.99064 0.6388 0.71226 0.0
C617 C 0.97286 0.62575 0.71556 0.0
C618 C 0.99498 0.65641 0.7065 0.0
C619 C 0.9127 0.64209 0.83309 0.0
O620 O 0.88079 0.63291 0.74198 0.0
O621 O 0.91005 0.65296 0.73307 0.0
O622 O 0.85598 0.59795 0.75701 0.0
O623 O 0.86351 0.60055 0.82151 0.0
O624 O 0.88515 0.5895 0.7371 0.0
O625 O 0.90011 0.61487 0.71625 0.0
O626 O 0.92171 0.61105 0.77484 0.0
O627 O 0.89648 0.59906 0.81297 0.0
O628 O 0.9483 0.65426 0.76108 0.0
O629 O 0.9366 0.64502 0.7011 0.0
O630 O 0.92592 0.64006 0.82362 0.0
O631 O 0.90286 0.63831 0.80121 0.0
H632 H 0.83382 0.61167 0.75992 0.0
H633 H 0.82761 0.57511 0.85538 0.0
H634 H 0.79834 0.57046 0.87108 0.0
H635 H 0.80433 0.60701 0.77538 0.0
H636 H 0.98562 0.67479 0.7053 0.0
H637 H 0.94627 0.62022 0.72055 0.0
H638 H 0.96915 0.61209 0.71991 0.0
H639 H 1.00859 0.66682 0.70454 0.0
Gd640 Gd 0.45905 0.28494 0.77201 0.0
Gd641 Gd 0.43594 0.29793 0.74983 0.0
C642 C 0.42225 0.25732 0.72618 0.0
C643 C 0.47521 0.26785 0.7946 0.0
C644 C 0.47518 0.25101 0.80551 0.0
C645 C 0.47414 0.23901 0.77517 0.0
C646 C 0.47871 0.24798 0.84604 0.0
C647 C 0.48061 0.22187 0.82542 0.0
C648 C 0.48131 0.23374 0.85582 0.0
C649 C 0.47674 0.22475 0.78491 0.0
C650 C 0.47189 0.30941 0.70726 0.0
C651 C 0.4712 0.32432 0.80022 0.0
C652 C 0.41968 0.31238 0.71658 0.0
C653 C 0.42227 0.32998 0.7244 0.0
C654 C 0.4253 0.33668 0.76456 0.0
C655 C 0.42426 0.34108 0.69139 0.0
C656 C 0.43184 0.3653 0.73882 0.0
C657 C 0.42901 0.35861 0.69851 0.0
C658 C 0.4299 0.35408 0.7717 0.0
C659 C 0.42836 0.28526 0.82849 0.0
O660 O 0.43697 0.25991 0.74357 0.0
O661 O 0.41895 0.27042 0.72343 0.0
O662 O 0.47279 0.27077 0.75637 0.0
O663 O 0.46913 0.27495 0.82064 0.0
O664 O 0.48124 0.30823 0.73654 0.0
O665 O 0.45624 0.29681 0.71256 0.0
O666 O 0.45972 0.32316 0.7723 0.0
O667 O 0.47121 0.30982 0.81171 0.0
O668 O 0.41285 0.30093 0.74639 0.0
O669 O 0.4332 0.3125 0.69975 0.0
O670 O 0.43132 0.30058 0.81653 0.0
O671 O 0.43218 0.27814 0.79872 0.0
H672 H 0.47169 0.24084 0.74346 0.0
H673 H 0.48004 0.25702 0.87028 0.0
H674 H 0.48448 0.23244 0.88727 0.0
H675 H 0.47575 0.21599 0.76036 0.0
H676 H 0.42431 0.32853 0.79053 0.0
H677 H 0.42249 0.33628 0.66009 0.0
H678 H 0.43051 0.36692 0.67249 0.0
H679 H 0.43156 0.35861 0.80321 0.0
Gd680 Gd 0.78529 0.18779 0.77224 0.0
Gd681 Gd 0.77261 0.15151 0.75272 0.0
C682 C 0.81289 0.17865 0.7262 0.0
C683 C 0.80205 0.2213 0.79243 0.0
C684 C 0.81879 0.23856 0.80073 0.0
C685 C 0.82242 0.25353 0.77742 0.0
C686 C 0.83024 0.24104 0.83372 0.0
C687 C 0.84808 0.273 0.82021 0.0
C688 C 0.84468 0.25791 0.84308 0.0
C689 C 0.83669 0.27035 0.78691 0.0
C690 C 0.76056 0.17493 0.70812 0.0
C691 C 0.74608 0.16054 0.80223 0.0
C692 C 0.75808 0.12036 0.72201 0.0
C693 C 0.74103 0.10511 0.73319 0.0
C694 C 0.73649 0.10096 0.77469 0.0
C695 C 0.72823 0.09628 0.70284 0.0
C696 C 0.70656 0.07932 0.75545 0.0
C697 C 0.71112 0.08349 0.71384 0.0
C698 C 0.7195 0.08814 0.78565 0.0
C699 C 0.78624 0.15831 0.83086 0.0
O700 O 0.81021 0.19084 0.74288 0.0
O701 O 0.79992 0.16211 0.72471 0.0
O702 O 0.7982 0.21552 0.75462 0.0
O703 O 0.79617 0.20843 0.81926 0.0
O704 O 0.76149 0.18553 0.73695 0.0
O705 O 0.77341 0.1723 0.71368 0.0
O706 O 0.74731 0.14997 0.77522 0.0
O707 O 0.76057 0.1753 0.81285 0.0
O708 O 0.77062 0.1259 0.74948 0.0
O709 O 0.75687 0.13317 0.7051 0.0
O710 O 0.77093 0.14537 0.82042 0.0
O711 O 0.79279 0.16849 0.79972 0.0
H712 H 0.81388 0.25231 0.75208 0.0
H713 H 0.82788 0.22999 0.85287 0.0
H714 H 0.85288 0.25917 0.86916 0.0
H715 H 0.83878 0.28133 0.76789 0.0
H716 H 0.74598 0.10781 0.79887 0.0
H717 H 0.73135 0.0996 0.6707 0.0
H718 H 0.70145 0.077 0.68983 0.0
H719 H 0.71662 0.08498 0.8179 0.0
Gd720 Gd 0.43279 0.14872 0.25434 0.0
Gd721 Gd 0.45843 0.18803 0.27207 0.0
C722 C 0.47066 0.15994 0.29709 0.0
C723 C 0.41659 0.11979 0.21406 0.0
C724 C 0.42309 0.10869 0.19612 0.0
C725 C 0.43228 0.10275 0.22036 0.0
C726 C 0.42085 0.10461 0.15407 0.0
C727 C 0.43441 0.08644 0.16227 0.0
C728 C 0.42661 0.0937 0.13721 0.0
C729 C 0.43778 0.09169 0.20372 0.0
C730 C 0.42614 0.15774 0.33006 0.0
C731 C 0.42068 0.17742 0.22833 0.0
C732 C 0.47497 0.22052 0.2991 0.0
C733 C 0.47545 0.23727 0.31238 0.0
C734 C 0.46648 0.24438 0.29088 0.0
C735 C 0.48704 0.24762 0.34384 0.0
C736 C 0.48134 0.272 0.33092 0.0
C737 C 0.48994 0.2646 0.35292 0.0
C738 C 0.46929 0.26137 0.30016 0.0
C739 C 0.46996 0.1757 0.20477 0.0
O740 O 0.45773 0.14851 0.273 0.0
O741 O 0.47169 0.17514 0.30735 0.0
O742 O 0.41626 0.12044 0.25431 0.0
O743 O 0.42249 0.13515 0.19662 0.0
O744 O 0.426 0.14326 0.32086 0.0
O745 O 0.43101 0.16766 0.29784 0.0
O746 O 0.43624 0.19009 0.24123 0.0
O747 O 0.41641 0.16062 0.23057 0.0
O748 O 0.472 0.21606 0.26026 0.0
O749 O 0.469 0.20682 0.32368 0.0
O750 O 0.47832 0.19163 0.21913 0.0
O751 O 0.45633 0.16862 0.22663 0.0
H752 H 0.43476 0.10615 0.25261 0.0
H753 H 0.41431 0.10954 0.13447 0.0
H754 H 0.42421 0.0903 0.10502 0.0
H755 H 0.44358 0.08634 0.22435 0.0
H756 H 0.45762 0.23701 0.26606 0.0
H757 H 0.49435 0.24276 0.36078 0.0
H758 H 0.49908 0.27198 0.37726 0.0
H759 H 0.46242 0.26639 0.28208 0.0
Gd760 Gd 0.92177 0.2982 0.25758 0.0
Gd761 Gd 0.88243 0.28493 0.27195 0.0
C762 C 0.91052 0.3248 0.3004 0.0
C763 C 0.9528 0.31268 0.22679 0.0
C764 C 0.96568 0.33166 0.22436 0.0
C765 C 0.97089 0.34197 0.26019 0.0
C766 C 0.97163 0.33994 0.18611 0.0
C767 C 0.98862 0.36838 0.21991 0.0
C768 C 0.98298 0.35814 0.18386 0.0
C769 C 0.98226 0.36003 0.258 0.0
C770 C 0.91118 0.28235 0.33263 0.0
C771 C 0.89312 0.25794 0.22783 0.0
C772 C 0.8497 0.26917 0.29754 0.0
C773 C 0.83299 0.25285 0.31088 0.0
C774 C 0.82569 0.2369 0.28876 0.0
C775 C 0.82289 0.25391 0.34325 0.0
C776 C 0.79837 0.2239 0.33005 0.0
C777 C 0.80596 0.23977 0.35265 0.0
C778 C 0.80875 0.22268 0.29831 0.0
C779 C 0.89558 0.30895 0.20511 0.0
O780 O 0.92232 0.32332 0.27774 0.0
O781 O 0.89492 0.31072 0.3085 0.0
O782 O 0.94921 0.3058 0.26369 0.0
O783 O 0.93875 0.30728 0.20396 0.0
O784 O 0.92546 0.29715 0.3253 0.0
O785 O 0.902 0.27726 0.29933 0.0
O786 O 0.88055 0.26061 0.24252 0.0
O787 O 0.90993 0.27066 0.2288 0.0
O788 O 0.85445 0.27045 0.25894 0.0
O789 O 0.86324 0.27713 0.32256 0.0
O790 O 0.8794 0.30101 0.218 0.0
O791 O 0.90266 0.30267 0.22788 0.0
H792 H 0.96628 0.33611 0.29018 0.0
H793 H 0.96744 0.33233 0.15799 0.0
H794 H 0.98751 0.36416 0.15399 0.0
H795 H 0.98657 0.3673 0.28654 0.0
H796 H 0.83287 0.23556 0.26327 0.0
H797 H 0.82791 0.26597 0.36072 0.0
H798 H 0.79878 0.24137 0.37775 0.0
H799 H 0.80357 0.21091 0.27972 0.0
Gd800 Gd 0.77253 0.63692 0.25529 0.0
Gd801 Gd 0.78639 0.61134 0.27185 0.0
C802 C 0.74632 0.59922 0.29913 0.0
C803 C 0.75878 0.65286 0.21819 0.0
C804 C 0.74038 0.64616 0.20561 0.0
C805 C 0.72665 0.6374 0.23399 0.0
C806 C 0.73632 0.64762 0.16466 0.0
C807 C 0.70516 0.63387 0.1821 0.0
C808 C 0.71884 0.64142 0.1529 0.0
C809 C 0.7093 0.63145 0.22249 0.0
C810 C 0.78859 0.64336 0.3305 0.0
C811 C 0.81303 0.64888 0.22679 0.0
C812 C 0.80281 0.59506 0.2977 0.0
C813 C 0.81959 0.59505 0.30901 0.0
C814 C 0.8318 0.59648 0.27875 0.0
C815 C 0.82231 0.59099 0.34929 0.0
C816 C 0.84846 0.58918 0.32835 0.0
C817 C 0.83649 0.58821 0.35882 0.0
C818 C 0.84591 0.59363 0.28821 0.0
C819 C 0.76225 0.59983 0.20506 0.0
O820 O 0.74759 0.61207 0.27521 0.0
O821 O 0.76057 0.59816 0.3084 0.0
O822 O 0.76185 0.65435 0.25783 0.0
O823 O 0.76703 0.64612 0.19851 0.0
O824 O 0.77408 0.64332 0.32213 0.0
O825 O 0.79358 0.63873 0.29777 0.0
O826 O 0.81043 0.6336 0.24086 0.0
O827 O 0.80037 0.65299 0.22859 0.0
O828 O 0.80023 0.59722 0.25901 0.0
O829 O 0.79559 0.60142 0.32283 0.0
O830 O 0.77006 0.59161 0.2188 0.0
O831 O 0.76868 0.61336 0.22724 0.0
H832 H 0.72929 0.63554 0.26553 0.0
H833 H 0.74668 0.65382 0.14195 0.0
H834 H 0.71615 0.64316 0.12132 0.0
H835 H 0.69934 0.62596 0.24623 0.0
H836 H 0.83023 0.59937 0.24722 0.0
H837 H 0.8131 0.58938 0.37338 0.0
H838 H 0.83764 0.58466 0.39003 0.0
H839 H 0.85481 0.59485 0.26373 0.0
Gd840 Gd 0.49915 0.08771 0.95321 0.0
Gd841 Gd 0.53478 0.11097 0.92995 0.0
C842 C 0.50689 0.12255 0.90325 0.0
C843 C 0.47026 0.07087 0.99486 0.0
C844 C 0.4577 0.07627 1.00805 0.0
C845 C 0.44042 0.06354 0.01776 0.0
C846 C 0.46235 0.09405 1.00623 0.0
C847 C 0.43182 0.08596 0.01667 0.0
C848 C 0.44953 0.09889 1.01082 0.0
C849 C 0.42756 0.06834 0.02206 0.0
C850 C 0.50369 0.07946 0.8747 0.0
C851 C 0.52646 0.07421 0.97394 0.0
C852 C 0.56806 0.1278 0.90715 0.0
C853 C 0.58558 0.1288 0.89901 0.0
C854 C 0.60064 0.14121 0.92063 0.0
C855 C 0.58813 0.11908 0.86791 0.0
C856 C 0.62034 0.13456 0.87997 0.0
C857 C 0.60516 0.12182 0.8588 0.0
C858 C 0.6176 0.14405 0.91135 0.0
C859 C 0.52302 0.124 0.994 0.0
O860 O 0.49712 0.11139 0.93236 0.0
O861 O 0.52125 0.12244 0.89052 0.0
O862 O 0.4711 0.06912 0.95526 0.0
O863 O 0.48576 0.07936 1.0118 0.0
O864 O 0.49094 0.08172 0.88742 0.0
O865 O 0.51503 0.08378 0.90383 0.0
O866 O 0.53869 0.08999 0.96152 0.0
O867 O 0.50968 0.06976 0.97211 0.0
O868 O 0.56273 0.12673 0.94512 0.0
O869 O 0.55486 0.11981 0.8814 0.0
O870 O 0.5331 0.13319 0.96392 0.0
O871 O 0.52044 0.10854 0.98948 0.0
H872 H 0.43665 0.04978 0.01937 0.0
H873 H 0.47569 0.10407 0.99883 0.0
H874 H 0.45328 0.11257 1.00705 0.0
H875 H 0.41404 0.05797 0.02617 0.0
H876 H 0.59937 0.14912 0.94448 0.0
H877 H 0.57701 0.10954 0.85009 0.0
H878 H 0.60647 0.11424 0.83422 0.0
H879 H 0.62864 0.15378 0.92905 0.0
Gd880 Gd 0.98338 0.42467 0.95028 0.0
Gd881 Gd 0.96028 0.43728 0.92691 0.0
C882 C 0.94838 0.3979 0.89974 0.0
C883 C 0.99969 0.41118 0.98818 0.0
C884 C 0.99555 0.39282 0.98991 0.0
C885 C 1.00916 0.38895 0.99236 0.0
C886 C 0.97812 0.3791 0.98441 0.0
C887 C 0.98828 0.3581 0.97868 0.0
C888 C 0.97452 0.36188 0.97863 0.0
C889 C 1.00555 0.37169 0.98698 0.0
C890 C 0.99136 0.43717 0.8715 0.0
C891 C 0.99703 0.4655 0.97175 0.0
C892 C 0.94377 0.454 0.90407 0.0
C893 C 0.9436 0.47082 0.89405 0.0
C894 C 0.94363 0.48205 0.92516 0.0
C895 C 0.94087 0.47452 0.85342 0.0
C896 C 0.93775 0.49977 0.87544 0.0
C897 C 0.93808 0.48869 0.84428 0.0
C898 C 0.94081 0.49622 0.91606 0.0
C899 C 0.94737 0.41283 0.9917 0.0
O900 O 0.95956 0.3992 0.92863 0.0
O901 O 0.9486 0.4124 0.88717 0.0
O902 O 1.00456 0.41865 0.95224 0.0
O903 O 0.98833 0.41446 1.00603 0.0
O904 O 0.98856 0.42196 0.88401 0.0
O905 O 0.98737 0.44438 0.9008 0.0
O906 O 0.98184 0.46242 0.95617 0.0
O907 O 1.00089 0.45275 0.97302 0.0
O908 O 0.94577 0.45069 0.94226 0.0
O909 O 0.95044 0.44745 0.87809 0.0
O910 O 0.93811 0.4136 0.96166 0.0
O911 O 0.96286 0.42567 0.98677 0.0
H912 H 1.02266 0.39937 0.99642 0.0
H913 H 0.96737 0.3818 0.98281 0.0
H914 H 0.96111 0.35165 0.9725 0.0
H915 H 1.01646 0.36922 0.98661 0.0
H916 H 0.94543 0.47968 0.95694 0.0
H917 H 0.94033 0.46606 0.82856 0.0
H918 H 0.93557 0.49054 0.81266 0.0
H919 H 0.94099 0.50438 0.94119 0.0
Gd920 Gd 0.64599 0.5708 0.94806 0.0
Gd921 Gd 0.63344 0.53463 0.9278 0.0
C922 C 0.67265 0.56212 0.89831 0.0
C923 C 0.65958 0.60082 0.98497 0.0
C924 C 0.67827 0.61387 0.99017 0.0
C925 C 0.6836 0.6317 0.99376 0.0
C926 C 0.69103 0.60875 0.98582 0.0
C927 C 0.714 0.63928 0.98193 0.0
C928 C 0.70876 0.62137 0.98129 0.0
C929 C 0.70139 0.64435 0.99 0.0
C930 C 0.63187 0.56427 0.87044 0.0
C931 C 0.60536 0.54348 0.97233 0.0
C932 C 0.6167 0.50134 0.90586 0.0
C933 C 0.59979 0.48444 0.89588 0.0
C934 C 0.58861 0.47318 0.92699 0.0
C935 C 0.59593 0.47816 0.85514 0.0
C936 C 0.57061 0.44981 0.877 0.0
C937 C 0.58164 0.46127 0.84587 0.0
C938 C 0.57432 0.45627 0.91775 0.0
C939 C 0.65859 0.54738 0.99107 0.0
O940 O 0.67144 0.57247 0.92605 0.0
O941 O 0.65815 0.54745 0.88731 0.0
O942 O 0.65391 0.5985 0.94717 0.0
O943 O 0.6542 0.58601 1.00431 0.0
O944 O 0.64701 0.57745 0.88092 0.0
O945 O 0.62557 0.55386 0.90133 0.0
O946 O 0.60865 0.5312 0.95894 0.0
O947 O 0.61782 0.56024 0.97078 0.0
O948 O 0.62002 0.50681 0.94399 0.0
O949 O 0.62329 0.51443 0.87958 0.0
O950 O 0.65737 0.53663 0.96231 0.0
O951 O 0.64572 0.54997 0.98601 0.0
H952 H 0.67394 0.63587 0.99704 0.0
H953 H 0.6872 0.595 0.98359 0.0
H954 H 0.71824 0.61717 0.97515 0.0
H955 H 0.70509 0.65811 0.99011 0.0
H956 H 0.59113 0.47725 0.95885 0.0
H957 H 0.60434 0.48612 0.83027 0.0
H958 H 0.57966 0.45701 0.81415 0.0
H959 H 0.5662 0.44823 0.94287 0.0
Gd960 Gd 0.62649 0.8689 0.75883 0.0
Gd961 Gd 0.64993 0.9046 0.78105 0.0
C962 C 0.66345 0.87725 0.80159 0.0
C963 C 0.60978 0.83584 0.73502 0.0
C964 C 0.60926 0.81886 0.72362 0.0
C965 C 0.61675 0.81111 0.74835 0.0
C966 C 0.59919 0.80908 0.68959 0.0
C967 C 0.6035 0.78407 0.70599 0.0
C968 C 0.59635 0.79209 0.68096 0.0
C969 C 0.61402 0.7941 0.73954 0.0
C970 C 0.61374 0.88046 0.82401 0.0
C971 C 0.61441 0.8965 0.73384 0.0
C972 C 0.66737 0.93385 0.82091 0.0
C973 C 0.66162 0.94574 0.83698 0.0
C974 C 0.67401 0.96242 0.85119 0.0
C975 C 0.64382 0.94102 0.8346 0.0
C976 C 0.65121 0.97052 0.85471 0.0
C977 C 0.6386 0.95326 0.84376 0.0
C978 C 0.66886 0.97474 0.86004 0.0
C979 C 0.65771 0.89968 0.70236 0.0
O980 O 0.64766 0.86503 0.78925 0.0
O981 O 0.66792 0.89402 0.79978 0.0
O982 O 0.61239 0.84096 0.7734 0.0
O983 O 0.61616 0.84913 0.70935 0.0
O984 O 0.60427 0.86985 0.79498 0.0
O985 O 0.62934 0.8835 0.81828 0.0
O986 O 0.62576 0.90624 0.76262 0.0
O987 O 0.61458 0.88228 0.7205 0.0
O988 O 0.66749 0.93283 0.78096 0.0
O989 O 0.66033 0.91848 0.83843 0.0
O990 O 0.65537 0.91236 0.71488 0.0
O991 O 0.65362 0.88855 0.73186 0.0
H992 H 0.62442 0.81802 0.77512 0.0
H993 H 0.59304 0.81444 0.67002 0.0
H994 H 0.58845 0.78521 0.65445 0.0
H995 H 0.61973 0.78859 0.75999 0.0
H996 H 0.6878 0.96625 0.85317 0.0
H997 H 0.63407 0.92816 0.82364 0.0
H998 H 0.62491 0.94953 0.83973 0.0
H999 H 0.67901 0.98798 0.86779 0.0
Gd1000 Gd 0.20168 0.77047 0.76088 0.0
Gd1001 Gd 0.16577 0.75809 0.77956 0.0
C1002 C 0.19298 0.79871 0.80366 0.0
C1003 C 0.23507 0.78709 0.73922 0.0
C1004 C 0.25243 0.80375 0.73123 0.0
C1005 C 0.26739 0.80702 0.75417 0.0
C1006 C 0.25498 0.81549 0.69887 0.0
C1007 C 0.28701 0.8329 0.71228 0.0
C1008 C 0.27193 0.82986 0.68979 0.0
C1009 C 0.28428 0.82123 0.74494 0.0
C1010 C 0.18915 0.74556 0.82458 0.0
C1011 C 0.1745 0.73095 0.73321 0.0
C1012 C 0.13549 0.7458 0.81515 0.0
C1013 C 0.12243 0.72758 0.82512 0.0
C1014 C 0.1049 0.72293 0.83191 0.0
C1015 C 0.12702 0.7144 0.82279 0.0
C1016 C 0.09626 0.69193 0.82815 0.0
C1017 C 0.11403 0.6967 0.82428 0.0
C1018 C 0.09189 0.70522 0.83359 0.0
C1019 C 0.17197 0.77112 0.70135 0.0
O1020 O 0.20534 0.7949 0.79421 0.0
O1021 O 0.17622 0.78667 0.79853 0.0
O1022 O 0.22954 0.78294 0.77709 0.0
O1023 O 0.22201 0.78165 0.71301 0.0
O1024 O 0.20018 0.747 0.79624 0.0
O1025 O 0.18611 0.75813 0.81908 0.0
O1026 O 0.1642 0.73237 0.76078 0.0
O1027 O 0.18902 0.74543 0.72138 0.0
O1028 O 0.13788 0.74925 0.77598 0.0
O1029 O 0.15028 0.75236 0.83525 0.0
O1030 O 0.15939 0.75576 0.7125 0.0
O1031 O 0.18253 0.77813 0.7319 0.0
H1032 H 0.26611 0.79825 0.77901 0.0
H1033 H 0.24393 0.8134 0.68002 0.0
H1034 H 0.27326 0.8383 0.66419 0.0
H1035 H 0.29526 0.82304 0.76365 0.0
H1036 H 0.10114 0.73293 0.83356 0.0
H1037 H 0.14052 0.71777 0.81762 0.0
H1038 H 0.11778 0.68677 0.82019 0.0
H1039 H 0.07829 0.702 0.83596 0.0
Gd1040 Gd 0.30075 0.44443 0.76169 0.0
Gd1041 Gd 0.3131 0.42057 0.78302 0.0
C1042 C 0.27258 0.40752 0.80625 0.0
C1043 C 0.28428 0.46128 0.74002 0.0
C1044 C 0.26769 0.46213 0.73224 0.0
C1045 C 0.26479 0.47418 0.75469 0.0
C1046 C 0.25562 0.45267 0.7006 0.0
C1047 C 0.2386 0.46772 0.71375 0.0
C1048 C 0.24127 0.45532 0.69175 0.0
C1049 C 0.25062 0.47694 0.74568 0.0
C1050 C 0.32563 0.45681 0.82533 0.0
C1051 C 0.34006 0.45585 0.73414 0.0
C1052 C 0.32566 0.40381 0.82258 0.0
C1053 C 0.34379 0.40982 0.83542 0.0
C1054 C 0.34891 0.39757 0.8454 0.0
C1055 C 0.35651 0.42775 0.83296 0.0
C1056 C 0.37967 0.42077 0.84386 0.0
C1057 C 0.37435 0.4332 0.83707 0.0
C1058 C 0.36673 0.40301 0.84981 0.0
C1059 C 0.29887 0.41266 0.70514 0.0
O1060 O 0.27604 0.42324 0.7936 0.0
O1061 O 0.28484 0.40298 0.80399 0.0
O1062 O 0.28853 0.46003 0.77788 0.0
O1063 O 0.28955 0.4535 0.71379 0.0
O1064 O 0.32461 0.46635 0.79633 0.0
O1065 O 0.31281 0.44134 0.82011 0.0
O1066 O 0.33866 0.44449 0.76261 0.0
O1067 O 0.32561 0.45583 0.72169 0.0
O1068 O 0.32315 0.4025 0.78293 0.0
O1069 O 0.31808 0.41153 0.84064 0.0
O1070 O 0.31361 0.41388 0.71652 0.0
O1071 O 0.29287 0.41723 0.73589 0.0
H1072 H 0.27382 0.48188 0.77897 0.0
H1073 H 0.25741 0.44342 0.68215 0.0
H1074 H 0.23255 0.44798 0.66671 0.0
H1075 H 0.2491 0.48639 0.764 0.0
H1076 H 0.33924 0.3837 0.84734 0.0
H1077 H 0.35275 0.43741 0.82553 0.0
H1078 H 0.38401 0.44694 0.83247 0.0
H1079 H 0.3704 0.39305 0.85444 0.0
Gd1080 Gd 0.55089 0.94494 0.10409 0.0
Gd1081 Gd 0.58741 0.96852 0.08806 0.0
C1082 C 0.5608 0.98224 0.06099 0.0
C1083 C 0.51734 0.92822 0.12405 0.0
C1084 C 0.49987 0.92723 0.13204 0.0
C1085 C 0.48476 0.91449 0.11126 0.0
C1086 C 0.49746 0.93731 0.16237 0.0
C1087 C 0.4652 0.92157 0.15119 0.0
C1088 C 0.48047 0.93459 0.1716 0.0
C1089 C 0.46783 0.91169 0.1206 0.0
C1090 C 0.56415 0.93267 0.04179 0.0
C1091 C 0.57763 0.93248 0.13458 0.0
C1092 C 0.61809 0.98586 0.0541 0.0
C1093 C 0.63048 0.97978 0.04428 0.0
C1094 C 0.64828 0.99191 0.03782 0.0
C1095 C 0.62491 0.96178 0.04689 0.0
C1096 C 0.65519 0.96837 0.04339 0.0
C1097 C 0.63718 0.9561 0.04662 0.0
C1098 C 0.66057 0.98623 0.03711 0.0
C1099 C 0.57944 0.97547 0.16483 0.0
O1100 O 0.54814 0.96615 0.07021 0.0
O1101 O 0.57746 0.98677 0.06711 0.0
O1102 O 0.52314 0.92999 0.0863 0.0
O1103 O 0.53017 0.93557 0.15091 0.0
O1104 O 0.55254 0.92301 0.06903 0.0
O1105 O 0.56736 0.94833 0.04747 0.0
O1106 O 0.58833 0.9442 0.10767 0.0
O1107 O 0.563 0.93249 0.14514 0.0
O1108 O 0.61546 0.98668 0.09328 0.0
O1109 O 0.60346 0.97852 0.03321 0.0
O1110 O 0.59266 0.97334 0.1559 0.0
O1111 O 0.5697 0.97176 0.13277 0.0
H1112 H 0.48596 0.90623 0.08824 0.0
H1113 H 0.50868 0.94717 0.17938 0.0
H1114 H 0.4794 0.9428 0.19489 0.0
H1115 H 0.45673 0.90129 0.1044 0.0
H1116 H 0.65279 1.00584 0.03587 0.0
H1117 H 0.61119 0.9522 0.05159 0.0
H1118 H 0.6327 0.94229 0.05143 0.0
H1119 H 0.67441 0.99602 0.03509 0.0
Gd1120 Gd 0.1257 0.61883 0.10596 0.0
Gd1121 Gd 0.10262 0.63203 0.08803 0.0
C1122 C 0.08884 0.59179 0.06031 0.0
C1123 C 0.14175 0.60143 0.1268 0.0
C1124 C 0.1415 0.58438 0.13641 0.0
C1125 C 0.14211 0.5736 0.10497 0.0
C1126 C 0.14321 0.57996 0.17717 0.0
C1127 C 0.14664 0.55495 0.15467 0.0
C1128 C 0.14564 0.56555 0.18613 0.0
C1129 C 0.14458 0.5592 0.1139 0.0
C1130 C 0.13781 0.64339 0.04153 0.0
C1131 C 0.13869 0.65826 0.13572 0.0
C1132 C 0.08588 0.64702 0.06092 0.0
C1133 C 0.08786 0.66391 0.0748 0.0
C1134 C 0.08411 0.66607 0.11566 0.0
C1135 C 0.09608 0.67872 0.04907 0.0
C1136 C 0.09748 0.69762 0.10537 0.0
C1137 C 0.10089 0.69542 0.06422 0.0
C1138 C 0.08881 0.68271 0.13067 0.0
C1139 C 0.09613 0.61906 0.16642 0.0
O1140 O 0.10396 0.59437 0.07512 0.0
O1141 O 0.0852 0.6047 0.06091 0.0
O1142 O 0.13948 0.60484 0.08888 0.0
O1143 O 0.13563 0.60825 0.15347 0.0
O1144 O 0.1475 0.64204 0.06968 0.0
O1145 O 0.12215 0.63093 0.04761 0.0
O1146 O 0.12674 0.65717 0.10942 0.0
O1147 O 0.1389 0.64372 0.14577 0.0
O1148 O 0.07886 0.63391 0.08687 0.0
O1149 O 0.09973 0.64836 0.04266 0.0
O1150 O 0.09952 0.63465 0.15564 0.0
O1151 O 0.09925 0.61193 0.13553 0.0
H1152 H 0.14112 0.57653 0.07311 0.0
H1153 H 0.14323 0.58804 0.20235 0.0
H1154 H 0.14737 0.56314 0.21791 0.0
H1155 H 0.14494 0.55143 0.0885 0.0
H1156 H 0.07794 0.655 0.13649 0.0
H1157 H 0.09934 0.67744 0.01761 0.0
H1158 H 0.10752 0.70663 0.0439 0.0
H1159 H 0.08548 0.68382 0.16216 0.0
Gd1160 Gd 0.45266 0.51984 0.10738 0.0
Gd1161 Gd 0.4385 0.48052 0.09249 0.0
C1162 C 0.47889 0.50841 0.06248 0.0
C1163 C 0.46932 0.55273 0.13204 0.0
C1164 C 0.48606 0.56965 0.14287 0.0
C1165 C 0.49801 0.58041 0.11221 0.0
C1166 C 0.48895 0.57658 0.18305 0.0
C1167 C 0.51474 0.60461 0.16121 0.0
C1168 C 0.50304 0.59364 0.1921 0.0
C1169 C 0.51203 0.59748 0.12118 0.0
C1170 C 0.42886 0.50728 0.03996 0.0
C1171 C 0.41231 0.49255 0.13423 0.0
C1172 C 0.42344 0.44921 0.06339 0.0
C1173 C 0.40439 0.43626 0.06395 0.0
C1174 C 0.39557 0.43001 0.10157 0.0
C1175 C 0.39455 0.43141 0.0274 0.0
C1176 C 0.36747 0.41407 0.06627 0.0
C1177 C 0.37623 0.42039 0.02852 0.0
C1178 C 0.3774 0.41906 0.10268 0.0
C1179 C 0.45331 0.49014 0.16849 0.0
O1180 O 0.47648 0.52127 0.07608 0.0
O1181 O 0.46612 0.4917 0.06486 0.0
O1182 O 0.46672 0.54769 0.09357 0.0
O1183 O 0.46209 0.53935 0.15766 0.0
O1184 O 0.4366 0.52328 0.05386 0.0
O1185 O 0.43518 0.50014 0.06234 0.0
O1186 O 0.41357 0.4807 0.11131 0.0
O1187 O 0.42663 0.50785 0.14318 0.0
O1188 O 0.43139 0.45326 0.09908 0.0
O1189 O 0.42817 0.46298 0.04002 0.0
O1190 O 0.43795 0.47674 0.16016 0.0
O1191 O 0.45942 0.49961 0.13574 0.0
H1192 H 0.4963 0.57584 0.08073 0.0
H1193 H 0.47993 0.56901 0.20745 0.0
H1194 H 0.50432 0.59845 0.22325 0.0
H1195 H 0.52073 0.60513 0.09639 0.0
H1196 H 0.40264 0.4336 0.13045 0.0
H1197 H 0.40099 0.43628 0.99803 0.0
H1198 H 0.36896 0.41676 0.99991 0.0
H1199 H 0.37122 0.41408 0.13223 0.0
Gd1200 Gd 0.10362 0.48475 0.58647 0.0
Gd1201 Gd 0.12671 0.5203 0.60761 0.0
C1202 C 0.13883 0.49338 0.63699 0.0
C1203 C 0.08723 0.45333 0.55774 0.0
C1204 C 0.08778 0.43802 0.57469 0.0
C1205 C 0.08122 0.43178 0.61427 0.0
C1206 C 0.09749 0.4315 0.55439 0.0
C1207 C 0.09517 0.41383 0.61413 0.0
C1208 C 0.10118 0.41954 0.57394 0.0
C1209 C 0.08484 0.41981 0.63366 0.0
C1210 C 0.09637 0.48985 0.66571 0.0
C1211 C 0.09003 0.5115 0.56201 0.0
C1212 C 0.14369 0.5539 0.62738 0.0
C1213 C 0.14437 0.57123 0.63582 0.0
C1214 C 0.15622 0.58632 0.61348 0.0
C1215 C 0.13494 0.57361 0.66792 0.0
C1216 C 0.1495 0.60574 0.65522 0.0
C1217 C 0.13739 0.59049 0.67728 0.0
C1218 C 0.15876 0.60313 0.62292 0.0
C1219 C 0.13872 0.50805 0.54214 0.0
O1220 O 0.12737 0.4832 0.60893 0.0
O1221 O 0.13888 0.50792 0.64837 0.0
O1222 O 0.07937 0.45979 0.58003 0.0
O1223 O 0.10217 0.46556 0.54253 0.0
O1224 O 0.09938 0.47759 0.65335 0.0
O1225 O 0.1 0.50074 0.63603 0.0
O1226 O 0.10445 0.52337 0.58081 0.0
O1227 O 0.087 0.49524 0.5578 0.0
O1228 O 0.14149 0.54803 0.58964 0.0
O1229 O 0.13683 0.5411 0.65435 0.0
O1230 O 0.14817 0.51765 0.57251 0.0
O1231 O 0.12337 0.50577 0.54748 0.0
H1232 H 0.07377 0.43655 0.63099 0.0
H1233 H 0.10287 0.43623 0.52405 0.0
H1234 H 0.1091 0.41511 0.55799 0.0
H1235 H 0.07951 0.41524 0.6641 0.0
H1236 H 0.164 0.58519 0.58905 0.0
H1237 H 0.12578 0.56246 0.68621 0.0
H1238 H 0.12967 0.59149 0.70197 0.0
H1239 H 0.16847 0.61419 0.60532 0.0
Gd1240 Gd 0.58998 0.63211 0.59445 0.0
Gd1241 Gd 0.55037 0.61814 0.60626 0.0
C1242 C 0.57774 0.65814 0.63615 0.0
C1243 C 0.62127 0.64683 0.56509 0.0
C1244 C 0.63416 0.66578 0.56368 0.0
C1245 C 0.63717 0.67618 0.59882 0.0
C1246 C 0.64261 0.67385 0.52682 0.0
C1247 C 0.6584 0.70223 0.56155 0.0
C1248 C 0.65458 0.69195 0.52568 0.0
C1249 C 0.64922 0.69411 0.59787 0.0
C1250 C 0.5788 0.61561 0.66857 0.0
C1251 C 0.56205 0.59205 0.5619 0.0
C1252 C 0.51734 0.60181 0.63009 0.0
C1253 C 0.50004 0.58531 0.63954 0.0
C1254 C 0.48514 0.58136 0.61552 0.0
C1255 C 0.49748 0.57431 0.67353 0.0
C1256 C 0.46554 0.55622 0.6593 0.0
C1257 C 0.48056 0.55994 0.68302 0.0
C1258 C 0.4683 0.56719 0.62515 0.0
C1259 C 0.56384 0.64248 0.54025 0.0
O1260 O 0.59004 0.65692 0.61494 0.0
O1261 O 0.56205 0.64393 0.64283 0.0
O1262 O 0.61737 0.63972 0.60174 0.0
O1263 O 0.60743 0.64167 0.54167 0.0
O1264 O 0.59291 0.63069 0.6623 0.0
O1265 O 0.56999 0.61071 0.63467 0.0
O1266 O 0.54906 0.59456 0.57411 0.0
O1267 O 0.5788 0.60464 0.56597 0.0
O1268 O 0.52246 0.60502 0.59171 0.0
O1269 O 0.53067 0.60807 0.6559 0.0
O1270 O 0.54754 0.63425 0.55231 0.0
O1271 O 0.57097 0.63638 0.56345 0.0
H1272 H 0.63045 0.67044 0.62747 0.0
H1273 H 0.64005 0.66614 0.49904 0.0
H1274 H 0.66115 0.69778 0.49697 0.0
H1275 H 0.65189 0.70135 0.62639 0.0
H1276 H 0.48642 0.58955 0.58938 0.0
H1277 H 0.50848 0.57694 0.69319 0.0
H1278 H 0.47918 0.55202 0.70975 0.0
H1279 H 0.45738 0.56484 0.60551 0.0
Gd1280 Gd 0.43966 0.96839 0.58856 0.0
Gd1281 Gd 0.45201 0.94503 0.60876 0.0
C1282 C 0.41241 0.93286 0.63537 0.0
C1283 C 0.42663 0.98536 0.55232 0.0
C1284 C 0.40803 0.97929 0.54303 0.0
C1285 C 0.39529 0.97228 0.57424 0.0
C1286 C 0.40265 0.97925 0.50243 0.0
C1287 C 0.37227 0.96702 0.52519 0.0
C1288 C 0.38491 0.9731 0.49352 0.0
C1289 C 0.37768 0.96633 0.56549 0.0
C1290 C 0.45246 0.97563 0.66707 0.0
C1291 C 0.48034 0.98199 0.5656 0.0
C1292 C 0.46871 0.92848 0.63136 0.0
C1293 C 0.48558 0.92845 0.64178 0.0
C1294 C 0.49765 0.92985 0.61121 0.0
C1295 C 0.48855 0.92453 0.68198 0.0
C1296 C 0.51476 0.92294 0.66055 0.0
C1297 C 0.50282 0.92189 0.69121 0.0
C1298 C 0.51194 0.9272 0.6204 0.0
C1299 C 0.42731 0.93245 0.54433 0.0
O1300 O 0.41387 0.94431 0.60712 0.0
O1301 O 0.42689 0.93299 0.64794 0.0
O1302 O 0.43111 0.98765 0.59102 0.0
O1303 O 0.43341 0.97733 0.53232 0.0
O1304 O 0.43718 0.97289 0.65533 0.0
O1305 O 0.45957 0.97191 0.63703 0.0
O1306 O 0.47693 0.96629 0.57802 0.0
O1307 O 0.46794 0.98633 0.56771 0.0
O1308 O 0.46565 0.93078 0.59318 0.0
O1309 O 0.46189 0.93484 0.65742 0.0
O1310 O 0.42865 0.92294 0.57294 0.0
O1311 O 0.43996 0.94801 0.54991 0.0
H1312 H 0.39893 0.97165 0.60573 0.0
H1313 H 0.4122 0.98411 0.47768 0.0
H1314 H 0.38118 0.97359 0.46205 0.0
H1315 H 0.36851 0.96207 0.59095 0.0
H1316 H 0.49587 0.93263 0.57973 0.0
H1317 H 0.47944 0.92293 0.70634 0.0
H1318 H 0.50408 0.91842 0.7224 0.0
H1319 H 0.52077 0.92846 0.59571 0.0
Gd1320 Gd 0.16627 0.42125 0.28289 0.0
Gd1321 Gd 0.20135 0.44492 0.25885 0.0
C1322 C 0.17453 0.45649 0.22813 0.0
C1323 C 0.13451 0.40914 0.30848 0.0
C1324 C 0.12254 0.4162 0.30229 0.0
C1325 C 0.11727 0.41774 0.26251 0.0
C1326 C 0.11698 0.42229 0.3358 0.0
C1327 C 0.09988 0.42996 0.29 0.0
C1328 C 0.10578 0.42915 0.32972 0.0
C1329 C 0.10607 0.42446 0.25648 0.0
C1330 C 0.17419 0.40718 0.21677 0.0
C1331 C 0.19329 0.40936 0.30976 0.0
C1332 C 0.23484 0.46162 0.23739 0.0
C1333 C 0.25232 0.46246 0.23004 0.0
C1334 C 0.26758 0.47573 0.24941 0.0
C1335 C 0.2546 0.45168 0.20139 0.0
C1336 C 0.28694 0.46786 0.21114 0.0
C1337 C 0.27157 0.45425 0.19235 0.0
C1338 C 0.28448 0.47839 0.24019 0.0
C1339 C 0.18937 0.45689 0.32443 0.0
O1340 O 0.16362 0.44348 0.25251 0.0
O1341 O 0.19032 0.4587 0.22065 0.0
O1342 O 0.13841 0.40314 0.27579 0.0
O1343 O 0.14818 0.41851 0.3318 0.0
O1344 O 0.16584 0.39881 0.24953 0.0
O1345 O 0.17884 0.42359 0.22054 0.0
O1346 O 0.20346 0.42157 0.28294 0.0
O1347 O 0.17809 0.40797 0.32037 0.0
O1348 O 0.22928 0.46088 0.27499 0.0
O1349 O 0.22181 0.45335 0.21151 0.0
O1350 O 0.19863 0.46629 0.29358 0.0
O1351 O 0.18749 0.44166 0.31986 0.0
H1352 H 0.12154 0.4135 0.23582 0.0
H1353 H 0.12115 0.42157 0.3667 0.0
H1354 H 0.1014 0.4334 0.3562 0.0
H1355 H 0.10159 0.42449 0.2255 0.0
H1356 H 0.2665 0.48443 0.27132 0.0
H1357 H 0.2433 0.44144 0.18535 0.0
H1358 H 0.27266 0.44585 0.1696 0.0
H1359 H 0.29569 0.48882 0.25606 0.0
Gd1360 Gd 0.64939 0.75777 0.27942 0.0
Gd1361 Gd 0.62564 0.77026 0.26103 0.0
C1362 C 0.61365 0.73117 0.23089 0.0
C1363 C 0.66598 0.74285 0.30766 0.0
C1364 C 0.66404 0.72597 0.29381 0.0
C1365 C 0.66794 0.72389 0.25303 0.0
C1366 C 0.65557 0.71108 0.31923 0.0
C1367 C 0.65408 0.69227 0.26264 0.0
C1368 C 0.6506 0.69438 0.30379 0.0
C1369 C 0.66307 0.70727 0.23771 0.0
C1370 C 0.65591 0.77135 0.20117 0.0
C1371 C 0.66264 0.79791 0.30596 0.0
C1372 C 0.60853 0.78677 0.24201 0.0
C1373 C 0.6077 0.80331 0.23368 0.0
C1374 C 0.59525 0.80603 0.25486 0.0
C1375 C 0.61767 0.81554 0.2028 0.0
C1376 C 0.60242 0.83252 0.2143 0.0
C1377 C 0.61514 0.8299 0.19345 0.0
C1378 C 0.59264 0.82024 0.24542 0.0
C1379 C 0.6142 0.74568 0.32533 0.0
O1380 O 0.62562 0.7325 0.25746 0.0
O1381 O 0.61319 0.74556 0.22054 0.0
O1382 O 0.6732 0.75602 0.28186 0.0
O1383 O 0.65201 0.74147 0.32544 0.0
O1384 O 0.65358 0.75608 0.21151 0.0
O1385 O 0.65232 0.77785 0.23245 0.0
O1386 O 0.64781 0.79528 0.28911 0.0
O1387 O 0.6661 0.78489 0.30794 0.0
O1388 O 0.61091 0.78318 0.27968 0.0
O1389 O 0.61535 0.78087 0.21473 0.0
O1390 O 0.60436 0.74644 0.29672 0.0
O1391 O 0.62961 0.75859 0.31947 0.0
H1392 H 0.67432 0.73503 0.23242 0.0
H1393 H 0.6522 0.71229 0.35064 0.0
H1394 H 0.64376 0.6831 0.32383 0.0
H1395 H 0.66647 0.70621 0.20626 0.0
H1396 H 0.58709 0.79679 0.27833 0.0
H1397 H 0.62731 0.81394 0.18548 0.0
H1398 H 0.62326 0.83897 0.16974 0.0
H1399 H 0.58246 0.82121 0.262 0.0
Gd1400 Gd 0.31382 0.90542 0.27851 0.0
Gd1401 Gd 0.30073 0.86923 0.26198 0.0
C1402 C 0.34005 0.89552 0.23154 0.0
C1403 C 0.32873 0.93761 0.30243 0.0
C1404 C 0.34455 0.95267 0.28433 0.0
C1405 C 0.34388 0.95888 0.24498 0.0
C1406 C 0.36099 0.95915 0.30359 0.0
C1407 C 0.37582 0.97678 0.24334 0.0
C1408 C 0.37648 0.97104 0.28326 0.0
C1409 C 0.35932 0.9708 0.2248 0.0
C1410 C 0.3005 0.89843 0.20027 0.0
C1411 C 0.27379 0.87912 0.30773 0.0
C1412 C 0.2836 0.83566 0.24206 0.0
C1413 C 0.26675 0.81868 0.23209 0.0
C1414 C 0.25611 0.80702 0.26329 0.0
C1415 C 0.26248 0.81271 0.19119 0.0
C1416 C 0.23781 0.7839 0.21304 0.0
C1417 C 0.2483 0.79575 0.18185 0.0
C1418 C 0.24194 0.79004 0.25398 0.0
C1419 C 0.32536 0.88211 0.32628 0.0
O1420 O 0.33898 0.90638 0.25782 0.0
O1421 O 0.32545 0.8808 0.22152 0.0
O1422 O 0.31446 0.93045 0.27998 0.0
O1423 O 0.33152 0.9259 0.32006 0.0
O1424 O 0.31616 0.91065 0.21066 0.0
O1425 O 0.29354 0.88833 0.23142 0.0
O1426 O 0.27618 0.86657 0.29226 0.0
O1427 O 0.28684 0.89562 0.30748 0.0
O1428 O 0.28665 0.84154 0.27986 0.0
O1429 O 0.29054 0.84847 0.2151 0.0
O1430 O 0.32401 0.87096 0.29844 0.0
O1431 O 0.31284 0.88522 0.3201 0.0
H1432 H 0.33147 0.95416 0.22911 0.0
H1433 H 0.36193 0.95451 0.3338 0.0
H1434 H 0.38897 0.97544 0.29846 0.0
H1435 H 0.35828 0.97538 0.19461 0.0
H1436 H 0.25898 0.81083 0.29524 0.0
H1437 H 0.27048 0.82097 0.16617 0.0
H1438 H 0.246 0.79176 0.14995 0.0
H1439 H 0.23425 0.7817 0.27919 0.0
H1440 H 0.25145 0.08665 0.08484 0.0
H1441 H 0.28136 0.10612 0.97282 0.0
H1442 H 0.2457 0.05714 0.06858 0.0
H1443 H 0.27499 0.07652 0.95573 0.0
H1444 H 0.27456 1.02427 0.9498 0.0
H1445 H 0.28073 0.05365 0.96837 0.0
H1446 H 0.2302 0.03142 0.02849 0.0
H1447 H 0.2242 1.00187 1.01043 0.0
C1448 C 0.25692 0.0848 0.05673 0.0
C1449 C 0.26702 0.09925 0.03046 0.0
C1450 C 0.25336 0.0676 0.04701 0.0
C1451 C 0.25977 0.06397 1.01058 0.0
C1452 C 0.26989 0.07844 0.98436 0.0
C1453 C 0.2734 0.09561 0.99402 0.0
C1454 C 0.26472 1.02552 0.96717 0.0
C1455 C 0.24883 1.01034 0.9785 0.0
C1456 C 0.26823 0.0426 0.97764 0.0
C1457 C 0.25602 0.04539 1.0 0.0
C1458 C 0.24017 0.03016 1.01176 0.0
C1459 C 0.23665 1.01303 1.00119 0.0
H1460 H 0.04626 0.26221 0.93831 0.0
H1461 H 0.06867 0.23976 0.01919 0.0
H1462 H 1.01679 0.23891 0.95626 0.0
H1463 H 1.039 0.2161 0.03684 0.0
H1464 H 0.98221 0.1831 0.08716 0.0
H1465 H 1.01182 0.20696 0.07149 0.0
H1466 H 0.99554 0.20906 0.94763 0.0
H1467 H 0.96581 0.18568 0.96372 0.0
C1468 C 0.04498 0.25235 0.96016 0.0
C1469 C 0.06017 0.25317 0.97731 0.0
C1470 C 1.02788 0.23872 0.97025 0.0
C1471 C 1.02508 0.22521 0.99804 0.0
C1472 C 1.04029 0.22617 1.01568 0.0
C1473 C 0.05747 0.23983 1.00543 0.0
C1474 C 0.98477 0.18872 0.05663 0.0
C1475 C 0.97116 0.18217 0.02697 0.0
C1476 C 1.00202 0.20241 0.04739 0.0
C1477 C 1.0065 0.2103 1.00809 0.0
C1478 C 0.99289 0.20374 0.97846 0.0
C1479 C 0.97567 0.19 0.98763 0.0
H1480 H 0.83562 0.84757 1.01016 0.0
H1481 H 0.8065 0.79628 0.95447 0.0
H1482 H 0.85914 0.84148 0.02835 0.0
H1483 H 0.82966 0.79006 0.97318 0.0
H1484 H 0.88128 0.78896 0.97581 0.0
H1485 H 0.85814 0.7955 0.95881 0.0
H1486 H 0.86928 0.82615 0.06978 0.0
H1487 H 0.89293 0.82019 0.08596 0.0
C1488 C 0.83407 0.83491 1.00207 0.0
C1489 C 0.8189 0.82249 0.98073 0.0
C1490 C 0.84765 0.83134 1.01271 0.0
C1491 C 0.84668 0.81522 1.0023 0.0
C1492 C 0.83136 0.80277 0.98135 0.0
C1493 C 0.81783 0.80631 0.97082 0.0
C1494 C 0.87901 0.79725 0.9966 0.0
C1495 C 0.88932 0.80394 0.0325 0.0
C1496 C 0.86541 0.80086 0.98701 0.0
C1497 C 0.86145 0.8114 1.01277 0.0
C1498 C 0.87178 0.81814 0.04862 0.0
C1499 C 0.88536 0.81447 0.05829 0.0
H1500 H 1.01603 0.20722 0.52772 0.0
H1501 H 1.03768 0.26025 0.57257 0.0
H1502 H 0.04564 0.21347 0.50876 0.0
H1503 H 0.0672 0.26647 0.55395 0.0
H1504 H 0.11767 0.27765 0.48454 0.0
H1505 H 0.08779 0.27139 0.49991 0.0
H1506 H 0.07339 0.21855 0.53509 0.0
H1507 H 0.10309 0.22468 0.51889 0.0
C1508 C 1.02703 0.22026 0.53337 0.0
C1509 C 1.02413 0.23317 0.55168 0.0
C1510 C 0.04419 0.22385 0.52274 0.0
C1511 C 0.0592 0.24056 0.52964 0.0
C1512 C 0.05621 0.25351 0.54744 0.0
C1513 C 1.03911 0.24988 0.55837 0.0
C1514 C 0.10816 0.26463 0.49523 0.0
C1515 C 0.11321 0.25178 0.50041 0.0
C1516 C 0.0909 0.26104 0.50454 0.0
C1517 C 0.07779 0.24439 0.51904 0.0
C1518 C 0.08279 0.2315 0.52374 0.0
C1519 C 0.10009 0.23513 0.51482 0.0
H1520 H 0.83272 0.87587 0.44166 0.0
H1521 H 0.806 0.86771 0.55782 0.0
H1522 H 0.83874 0.85228 0.45782 0.0
H1523 H 0.81268 0.84471 0.57471 0.0
H1524 H 0.8127 0.79292 0.58284 0.0
H1525 H 0.80632 0.81591 0.56385 0.0
H1526 H 0.85506 0.84235 0.49587 0.0
H1527 H 0.86125 0.81893 0.51438 0.0
C1528 C 0.82801 0.86909 0.47067 0.0
C1529 C 0.81872 0.87404 0.49812 0.0
C1530 C 0.83173 0.85555 0.4803 0.0
C1531 C 0.82629 0.8462 0.5178 0.0
C1532 C 0.817 0.85116 0.54522 0.0
C1533 C 0.81332 0.86471 0.53564 0.0
C1534 C 0.82209 0.80353 0.56356 0.0
C1535 C 0.83754 0.80376 0.55019 0.0
C1536 C 0.81847 0.81699 0.55288 0.0
C1537 C 0.83014 0.83144 0.52831 0.0
C1538 C 0.84551 0.83155 0.51441 0.0
C1539 C 0.84915 0.81803 0.52517 0.0
H1540 H 0.2031 0.9512 0.55713 0.0
H1541 H 0.19213 0.96931 0.44383 0.0
H1542 H 0.22606 0.98109 0.57295 0.0
H1543 H 0.21561 0.99917 0.45896 0.0
H1544 H 0.24894 0.05502 0.51681 0.0
H1545 H 0.22553 1.02524 0.49895 0.0
H1546 H 0.25467 1.00377 0.55792 0.0
H1547 H 0.27768 0.03326 0.57614 0.0
C1548 C 0.20548 0.96147 0.5354 0.0
C1549 C 0.19543 0.95739 0.49897 0.0
C1550 C 0.21898 0.97881 0.54432 0.0
C1551 C 0.22309 0.99297 0.51734 0.0
C1552 C 0.21299 0.98892 0.48099 0.0
C1553 C 0.19952 0.97155 0.47197 0.0
C1554 C 0.25044 0.04397 0.52569 0.0
C1555 C 0.26543 0.04686 0.54805 0.0
C1556 C 0.23693 1.02673 0.51534 0.0
C1557 C 0.23782 1.01167 0.52709 0.0
C1558 C 0.25301 1.0147 0.54881 0.0
C1559 C 0.26646 0.03184 0.55904 0.0
H1560 H 0.8112 0.0326 0.08281 0.0
H1561 H 0.86118 0.05449 0.0205 0.0
H1562 H 0.80493 1.00306 0.06544 0.0
H1563 H 0.85499 1.02475 1.00341 0.0
H1564 H 0.83231 0.96895 0.9481 0.0
H1565 H 0.83842 0.99866 0.96364 0.0
H1566 H 0.81149 0.98052 0.07963 0.0
H1567 H 0.80491 0.95072 0.06353 0.0
C1568 C 0.82092 0.03121 0.06523 0.0
C1569 C 0.83676 0.04629 0.05309 0.0
C1570 C 0.81735 1.01405 0.05548 0.0
C1571 C 0.8294 1.01108 0.03298 0.0
C1572 C 0.84516 1.02619 0.02035 0.0
C1573 C 0.84879 0.04341 0.03033 0.0
C1574 C 0.82747 0.97113 0.97682 0.0
C1575 C 0.81795 0.95698 1.00427 0.0
C1576 C 0.83121 0.98843 0.98605 0.0
C1577 C 0.82553 0.99242 0.02309 0.0
C1578 C 0.81601 0.97827 0.05053 0.0
C1579 C 0.81236 0.961 0.04141 0.0
H1580 H 0.11972 0.87049 0.06712 0.0
H1581 H 0.10325 0.87518 0.94526 0.0
H1582 H 0.08982 0.84731 0.08275 0.0
H1583 H 0.07343 0.85158 0.96048 0.0
H1584 H 1.01661 0.81899 1.01395 0.0
H1585 H 0.04642 0.84258 0.99674 0.0
H1586 H 0.06824 0.81761 0.07144 0.0
H1587 H 1.03868 0.79435 0.08884 0.0
C1588 C 0.1098 0.86668 0.04347 0.0
C1589 C 0.11433 0.87502 1.0047 0.0
C1590 C 0.09249 0.85308 0.05237 0.0
C1591 C 0.0788 0.84719 0.02301 0.0
C1592 C 0.0833 0.85561 0.98432 0.0
C1593 C 0.10065 0.86915 0.97534 0.0
C1594 C 1.02775 0.81844 0.0265 0.0
C1595 C 1.02493 0.80451 0.05284 0.0
C1596 C 0.045 0.83205 1.01651 0.0
C1597 C 0.06014 0.83237 0.0327 0.0
C1598 C 0.05721 0.81829 0.05868 0.0
C1599 C 1.04005 0.8047 0.06845 0.0
H1600 H 0.25135 0.21115 1.00995 0.0
H1601 H 0.27662 0.25791 0.08452 0.0
H1602 H 0.22848 0.21796 0.9914 0.0
H1603 H 0.25347 0.26443 0.06755 0.0
H1604 H 0.21554 0.27997 1.00925 0.0
H1605 H 0.2393 0.27407 0.02476 0.0
H1606 H 0.20345 0.21852 1.00801 0.0
H1607 H 0.17999 0.22456 0.99152 0.0
C1608 C 0.2521 0.22293 0.02248 0.0
C1609 C 0.26613 0.23394 0.04872 0.0
C1610 C 0.23872 0.22681 1.01213 0.0
C1611 C 0.23861 0.24181 0.02789 0.0
C1612 C 0.25282 0.25289 0.05387 0.0
C1613 C 0.26627 0.24909 0.06392 0.0
C1614 C 0.21265 0.26646 1.009 0.0
C1615 C 0.19556 0.25285 0.99866 0.0
C1616 C 0.22643 0.26299 0.01811 0.0
C1617 C 0.22377 0.24569 0.01777 0.0
C1618 C 0.20658 0.23209 1.00786 0.0
C1619 C 0.19288 0.23558 0.9984 0.0
H1620 H 0.04702 0.80052 0.4335 0.0
H1621 H 0.06964 0.84121 0.52555 0.0
H1622 H 1.0176 0.79424 0.45296 0.0
H1623 H 1.04005 0.83499 0.54499 0.0
H1624 H 0.98295 0.80868 0.59555 0.0
H1625 H 1.01245 0.81486 0.57739 0.0
H1626 H 0.99712 0.80459 0.45009 0.0
H1627 H 0.96772 0.79874 0.46795 0.0
C1628 C 0.0458 0.80814 0.45812 0.0
C1629 C 0.06101 0.82139 0.47792 0.0
C1630 C 1.02875 0.80461 0.46914 0.0
C1631 C 1.02605 0.81407 0.50068 0.0
C1632 C 1.04128 0.82719 0.52087 0.0
C1633 C 0.0584 0.83084 0.50957 0.0
C1634 C 0.98575 0.8079 0.56349 0.0
C1635 C 0.97243 0.80313 0.53349 0.0
C1636 C 1.0029 0.81147 0.55301 0.0
C1637 C 1.00757 0.81031 0.51206 0.0
C1638 C 0.99426 0.80542 0.48209 0.0
C1639 C 0.97715 0.80197 0.49251 0.0
H1640 H 0.27286 0.18345 0.47107 0.0
H1641 H 0.25808 0.18531 0.59673 0.0
H1642 H 0.26715 0.20707 0.45346 0.0
H1643 H 0.252 0.20865 0.57872 0.0
H1644 H 0.22662 0.23981 0.52349 0.0
H1645 H 0.23262 0.21633 0.54289 0.0
H1646 H 0.27702 0.23777 0.46022 0.0
H1647 H 0.27099 0.26101 0.44085 0.0
C1648 C 0.26857 0.18889 0.49529 0.0
C1649 C 0.26603 0.18204 0.53562 0.0
C1650 C 0.2652 0.20258 0.48501 0.0
C1651 C 0.259 0.21005 0.51444 0.0
C1652 C 0.25645 0.20325 0.55472 0.0
C1653 C 0.25995 0.18965 0.5651 0.0
C1654 C 0.23773 0.23961 0.5096 0.0
C1655 C 0.24827 0.25256 0.48053 0.0
C1656 C 0.24126 0.22607 0.52086 0.0
C1657 C 0.25534 0.22482 0.5032 0.0
C1658 C 0.2659 0.23788 0.47431 0.0
C1659 C 0.26248 0.25144 0.46336 0.0
H1660 H 0.88654 0.08735 0.59176 0.0
H1661 H 0.88738 0.1029 0.4656 0.0
H1662 H 0.86328 0.05769 0.57516 0.0
H1663 H 0.86377 0.0733 0.44944 0.0
H1664 H 0.80975 1.02297 0.44058 0.0
H1665 H 0.83299 0.05244 0.45859 0.0
H1666 H 0.85586 0.03044 0.53955 0.0
H1667 H 0.83238 1.0007 0.52142 0.0
C1668 C 0.88199 0.08459 0.5603 0.0
C1669 C 0.88931 0.09802 0.53022 0.0
C1670 C 0.86845 0.06735 0.55076 0.0
C1671 C 0.86138 0.06273 0.51079 0.0
C1672 C 0.86851 0.07615 0.48077 0.0
C1673 C 0.88218 0.09336 0.4902 0.0
C1674 C 0.81963 1.02427 0.46245 0.0
C1675 C 0.81892 1.00914 0.4795 0.0
C1676 C 0.83319 0.04136 0.47258 0.0
C1677 C 0.84664 0.04418 0.50052 0.0
C1678 C 0.8458 0.02905 0.51818 0.0
C1679 C 0.83227 1.01187 0.50769 0.0
H1680 H 0.91807 0.41956 0.42079 0.0
H1681 H 0.94911 0.43909 0.3103 0.0
H1682 H 0.91187 0.38993 0.40423 0.0
H1683 H 0.94232 0.40938 0.29291 0.0
H1684 H 0.94086 0.35661 0.2875 0.0
H1685 H 0.94747 0.3861 0.30648 0.0
H1686 H 0.89623 0.36457 0.3628 0.0
H1687 H 0.88977 0.3349 0.34437 0.0
C1688 C 0.92369 0.41769 0.39297 0.0
C1689 C 0.93424 0.43218 0.3672 0.0
C1690 C 0.91988 0.40043 0.38307 0.0
C1691 C 0.92649 0.39681 0.34698 0.0
C1692 C 0.93705 0.41131 0.32126 0.0
C1693 C 0.94081 0.42855 0.33109 0.0
C1694 C 0.93096 0.35803 0.30417 0.0
C1695 C 0.91472 0.34303 0.31434 0.0
C1696 C 0.93473 0.37517 0.31485 0.0
C1697 C 0.92245 0.37818 0.33623 0.0
C1698 C 0.90626 0.36312 0.34685 0.0
C1699 C 0.90247 0.34593 0.33607 0.0
H1700 H 0.73667 0.56919 0.34581 0.0
H1701 H 0.71422 0.59669 0.28359 0.0
H1702 H 0.70708 0.54576 0.36443 0.0
H1703 H 0.68481 0.57359 0.30274 0.0
H1704 H 0.63249 0.52158 0.30773 0.0
H1705 H 0.66214 0.54472 0.29027 0.0
H1706 H 0.68138 0.5362 0.40489 0.0
H1707 H 0.65182 0.51254 0.42161 0.0
C1708 C 0.72549 0.5704 0.33637 0.0
C1709 C 0.72815 0.58508 0.3131 0.0
C1710 C 0.70836 0.55688 0.34724 0.0
C1711 C 0.69313 0.55742 0.33518 0.0
C1712 C 0.6959 0.57225 0.31226 0.0
C1713 C 0.71298 0.58573 0.30148 0.0
C1714 C 0.64299 0.52443 0.32925 0.0
C1715 C 0.63933 0.51486 0.36632 0.0
C1716 C 0.66017 0.53802 0.31936 0.0
C1717 C 0.67458 0.5427 0.346 0.0
C1718 C 0.67094 0.53311 0.38305 0.0
C1719 C 0.65373 0.51955 0.393 0.0
H1720 H 0.50005 0.17926 0.34687 0.0
H1721 H 0.47415 0.13138 0.27615 0.0
H1722 H 0.52354 0.17303 0.36431 0.0
H1723 H 0.49734 0.12502 0.29392 0.0
H1724 H 0.54992 0.12557 0.29918 0.0
H1725 H 0.52679 0.13224 0.2826 0.0
H1726 H 0.5326 0.1557 0.40219 0.0
H1727 H 0.55615 0.14957 0.41826 0.0
C1728 C 0.49921 0.16731 0.33523 0.0
C1729 C 0.48492 0.15587 0.31005 0.0
C1730 C 0.51277 0.16365 0.34543 0.0
C1731 C 0.5127 0.14845 0.33064 0.0
C1732 C 0.49831 0.137 0.30565 0.0
C1733 C 0.48475 0.14061 0.29566 0.0
C1734 C 0.54646 0.13229 0.32202 0.0
C1735 C 0.55523 0.13691 0.36031 0.0
C1736 C 0.53288 0.13597 0.31259 0.0
C1737 C 0.52744 0.14455 0.34089 0.0
C1738 C 0.53627 0.14926 0.3791 0.0
C1739 C 0.54978 0.14548 0.38862 0.0
H1740 H 0.76878 0.55669 0.84591 0.0
H1741 H 0.78521 0.61109 0.82293 0.0
H1742 H 0.7391 0.55076 0.86147 0.0
H1743 H 0.75535 0.60507 0.83777 0.0
H1744 H 0.70459 0.59239 0.9101 0.0
H1745 H 0.7341 0.5986 0.89145 0.0
H1746 H 0.71201 0.54748 0.83483 0.0
H1747 H 0.68238 0.54125 0.85381 0.0
C1748 C 0.76619 0.56749 0.84422 0.0
C1749 C 0.77982 0.58448 0.83318 0.0
C1750 C 0.74891 0.56399 0.85276 0.0
C1751 C 0.74442 0.57734 0.85109 0.0
C1752 C 0.75804 0.59434 0.83996 0.0
C1753 C 0.7753 0.5978 0.83097 0.0
C1754 C 0.70591 0.58246 0.89333 0.0
C1755 C 0.69078 0.56628 0.88346 0.0
C1756 C 0.72301 0.58609 0.88239 0.0
C1757 C 0.72584 0.57362 0.86145 0.0
C1758 C 0.71067 0.55746 0.85128 0.0
C1759 C 0.69351 0.5539 0.86189 0.0
H1760 H 0.52501 0.15025 0.84831 0.0
H1761 H 0.47914 0.12705 0.92634 0.0
H1762 H 0.51885 0.17364 0.82958 0.0
H1763 H 0.47274 0.15003 0.90712 0.0
H1764 H 0.47359 0.20241 0.89763 0.0
H1765 H 0.48003 0.17928 0.91483 0.0
H1766 H 0.50176 0.18317 0.79379 0.0
H1767 H 0.49603 0.2069 0.77719 0.0
C1768 C 0.51347 0.14995 0.8612 0.0
C1769 C 0.50261 0.13648 0.88889 0.0
C1770 C 0.50985 0.16346 0.85029 0.0
C1771 C 0.49524 0.16414 0.86671 0.0
C1772 C 0.4843 0.15048 0.89405 0.0
C1773 C 0.48791 0.13702 0.90489 0.0
C1774 C 0.47991 0.19857 0.87457 0.0
C1775 C 0.4842 0.20692 0.83577 0.0
C1776 C 0.48344 0.18494 0.88438 0.0
C1777 C 0.49146 0.17893 0.85591 0.0
C1778 C 0.49577 0.18728 0.81709 0.0
C1779 C 0.49221 0.20091 0.80725 0.0
H1780 H 0.88163 0.28326 0.84987 0.0
H1781 H 0.84899 0.30503 0.81577 0.0
H1782 H 0.90558 0.31263 0.86647 0.0
H1783 H 0.87272 0.33434 0.83318 0.0
H1784 H 0.92272 0.38854 0.83927 0.0
H1785 H 0.89944 0.35914 0.81926 0.0
H1786 H 0.91805 0.33639 0.90993 0.0
H1787 H 0.94152 0.36558 0.92849 0.0
C1788 C 0.8794 0.29424 0.84623 0.0
C1789 C 0.86308 0.29139 0.83114 0.0
C1790 C 0.89329 0.31132 0.85596 0.0
C1791 C 0.89151 0.32639 0.85147 0.0
C1792 C 0.87512 0.32347 0.83652 0.0
C1793 C 0.8613 0.30642 0.8265 0.0
C1794 C 0.92196 0.37726 0.85469 0.0
C1795 C 0.93431 0.37974 0.88544 0.0
C1796 C 0.90837 0.36021 0.84345 0.0
C1797 C 0.90643 0.34487 0.86272 0.0
C1798 C 0.91892 0.34748 0.89338 0.0
C1799 C 0.93253 0.36447 0.90435 0.0
H1800 H 0.45868 0.2856 0.32878 0.0
H1801 H 0.51299 0.30148 0.35254 0.0
H1802 H 0.46505 0.31557 0.34247 0.0
H1803 H 0.51925 0.3313 0.3672 0.0
H1804 H 0.5295 0.38809 0.3579 0.0
H1805 H 0.52297 0.35833 0.33985 0.0
H1806 H 0.47154 0.33702 0.39492 0.0
H1807 H 0.47801 0.36665 0.4125 0.0
C1808 C 0.47202 0.29541 0.3368 0.0
C1809 C 0.48522 0.29072 0.33951 0.0
C1810 C 0.47568 0.31274 0.34514 0.0
C1811 C 0.49275 0.32624 0.35618 0.0
C1812 C 0.50597 0.32157 0.35849 0.0
C1813 C 0.50228 0.30423 0.3505 0.0
C1814 C 0.51671 0.3771 0.3658 0.0
C1815 C 0.50433 0.38006 0.38665 0.0
C1816 C 0.51299 0.35987 0.35576 0.0
C1817 C 0.49666 0.34488 0.36584 0.0
C1818 C 0.48418 0.34796 0.38598 0.0
C1819 C 0.48796 0.36513 0.39631 0.0
H1820 H 0.70433 0.12488 0.40942 0.0
H1821 H 0.6824 0.15556 0.36157 0.0
H1822 H 0.73383 0.14839 0.39212 0.0
H1823 H 0.71205 0.17914 0.34366 0.0
H1824 H 0.76907 0.22583 0.35498 0.0
H1825 H 0.73936 0.20211 0.37026 0.0
H1826 H 0.75483 0.16398 0.33963 0.0
H1827 H 0.7847 0.18771 0.32553 0.0
C1828 C 0.7057 0.13656 0.39478 0.0
C1829 C 0.69066 0.13805 0.3869 0.0
C1830 C 0.72281 0.15017 0.3846 0.0
C1831 C 0.72572 0.16597 0.36627 0.0
C1832 C 0.71064 0.16741 0.35812 0.0
C1833 C 0.69347 0.15372 0.36812 0.0
C1834 C 0.7663 0.21241 0.35181 0.0
C1835 C 0.77971 0.20899 0.33904 0.0
C1836 C 0.749 0.19867 0.36015 0.0
C1837 C 0.7443 0.18082 0.35637 0.0
C1838 C 0.75769 0.17739 0.34352 0.0
C1839 C 0.77497 0.19115 0.33491 0.0
H1840 H 0.86841 0.59623 0.3996 0.0
H1841 H 0.86239 0.57303 0.2796 0.0
H1842 H 0.89164 0.58963 0.41547 0.0
H1843 H 0.88604 0.56692 0.29502 0.0
H1844 H 0.91873 0.54323 0.35048 0.0
H1845 H 0.89515 0.54937 0.3328 0.0
H1846 H 0.92125 0.59746 0.40292 0.0
H1847 H 0.94449 0.59124 0.42078 0.0
C1848 C 0.87194 0.58969 0.37643 0.0
C1849 C 0.86322 0.58528 0.3381 0.0
C1850 C 0.88557 0.58605 0.38543 0.0
C1851 C 0.89109 0.57772 0.35665 0.0
C1852 C 0.88229 0.57319 0.31842 0.0
C1853 C 0.86873 0.57694 0.3093 0.0
C1854 C 0.91953 0.55519 0.3619 0.0
C1855 C 0.93375 0.56667 0.38717 0.0
C1856 C 0.90593 0.55878 0.35165 0.0
C1857 C 0.90592 0.57394 0.36648 0.0
C1858 C 0.92032 0.58549 0.39128 0.0
C1859 C 0.93389 0.58195 0.40132 0.0
H1860 H 0.73653 0.17838 0.85835 0.0
H1861 H 0.7138 0.13335 0.77799 0.0
H1862 H 0.70698 0.17201 0.87805 0.0
H1863 H 0.68447 0.12735 0.79608 0.0
H1864 H 0.6314 0.11121 0.85578 0.0
H1865 H 0.66099 0.11703 0.83994 0.0
H1866 H 0.68144 0.17231 0.86293 0.0
H1867 H 0.65191 0.16633 0.87969 0.0
C1868 C 0.72528 0.16709 0.84484 0.0
C1869 C 0.72789 0.1564 0.81664 0.0
C1870 C 0.70812 0.16347 0.85586 0.0
C1871 C 0.69278 0.14905 0.83892 0.0
C1872 C 0.69553 0.13837 0.81084 0.0
C1873 C 0.71262 0.14192 0.80012 0.0
C1874 C 0.64214 0.12465 0.8573 0.0
C1875 C 0.63886 0.1382 0.86934 0.0
C1876 C 0.65936 0.12808 0.84799 0.0
C1877 C 0.67417 0.14528 0.84982 0.0
C1878 C 0.67081 0.15882 0.86171 0.0
C1879 C 0.65362 0.15535 0.87135 0.0
H1880 H 0.89159 0.56992 0.85183 0.0
H1881 H 0.93996 0.59593 0.78266 0.0
H1882 H 0.89775 0.54641 0.86966 0.0
H1883 H 0.94629 0.57284 0.80093 0.0
H1884 H 0.94624 0.5208 0.80557 0.0
H1885 H 0.93959 0.54389 0.78936 0.0
H1886 H 0.91433 0.53655 0.90724 0.0
H1887 H 0.92034 0.5129 0.92278 0.0
C1888 C 0.90365 0.5708 0.84072 0.0
C1889 C 0.91521 0.58508 0.81571 0.0
C1890 C 0.90726 0.55723 0.85109 0.0
C1891 C 0.92257 0.55732 0.83677 0.0
C1892 C 0.93419 0.57178 0.8122 0.0
C1893 C 0.9306 0.5853 0.80193 0.0
C1894 C 0.93911 0.52388 0.82811 0.0
C1895 C 0.93393 0.51462 0.86572 0.0
C1896 C 0.93545 0.53748 0.81892 0.0
C1897 C 0.92639 0.54251 0.84684 0.0
C1898 C 0.92116 0.53322 0.88442 0.0
C1899 C 0.92487 0.51964 0.89367 0.0
H1900 H 0.55752 0.41913 0.92347 0.0
H1901 H 0.54929 0.43768 0.80754 0.0
H1902 H 0.53372 0.38956 0.90748 0.0
H1903 H 0.52607 0.40804 0.79082 0.0
H1904 H 0.47405 0.35636 0.78337 0.0
H1905 H 0.49711 0.38573 0.80259 0.0
H1906 H 0.52389 0.36343 0.86881 0.0
H1907 H 0.50044 0.33386 0.85008 0.0
C1908 C 0.55068 0.41705 0.89456 0.0
C1909 C 0.55565 0.43125 0.86708 0.0
C1910 C 0.53702 0.39983 0.88504 0.0
C1911 C 0.52762 0.39597 0.84764 0.0
C1912 C 0.53259 0.41018 0.82022 0.0
C1913 C 0.54625 0.42736 0.82968 0.0
C1914 C 0.48476 0.3576 0.80229 0.0
C1915 C 0.48512 0.34242 0.81507 0.0
C1916 C 0.49824 0.37465 0.81311 0.0
C1917 C 0.5128 0.37741 0.8372 0.0
C1918 C 0.513 0.36218 0.85063 0.0
C1919 C 0.49946 0.34505 0.83975 0.0
H1920 H 0.62527 0.7697 0.71635 0.0
H1921 H 0.57295 0.75536 0.67613 0.0
H1922 H 0.6191 0.73981 0.70241 0.0
H1923 H 0.56694 0.72566 0.6612 0.0
H1924 H 0.55508 0.66829 0.67026 0.0
H1925 H 0.56114 0.6979 0.68815 0.0
H1926 H 0.61512 0.71915 0.64991 0.0
H1927 H 0.60911 0.68966 0.63253 0.0
C1928 C 0.6124 0.76025 0.70465 0.0
C1929 C 0.59972 0.76537 0.69743 0.0
C1930 C 0.60888 0.74297 0.69615 0.0
C1931 C 0.59244 0.72992 0.6804 0.0
C1932 C 0.57971 0.735 0.6736 0.0
C1933 C 0.58328 0.75231 0.68177 0.0
C1934 C 0.5683 0.67923 0.66598 0.0
C1935 C 0.58154 0.67625 0.64996 0.0
C1936 C 0.57178 0.69639 0.67595 0.0
C1937 C 0.5887 0.71132 0.67062 0.0
C1938 C 0.60198 0.70824 0.65517 0.0
C1939 C 0.59846 0.69114 0.64494 0.0
H1940 H 0.31884 0.8333 0.71518 0.0
H1941 H 0.2976 0.86676 0.68484 0.0
H1942 H 0.34829 0.85694 0.69833 0.0
H1943 H 0.32712 0.89062 0.6688 0.0
H1944 H 0.38021 0.92663 0.60716 0.0
H1945 H 0.35086 0.9032 0.62507 0.0
H1946 H 0.37327 0.88336 0.7136 0.0
H1947 H 0.40281 0.90659 0.69422 0.0
C1948 C 0.32038 0.84577 0.7054 0.0
C1949 C 0.30546 0.84783 0.70163 0.0
C1950 C 0.33751 0.85954 0.69571 0.0
C1951 C 0.34062 0.87612 0.68199 0.0
C1952 C 0.32565 0.87817 0.67836 0.0
C1953 C 0.3085 0.86434 0.68776 0.0
C1954 C 0.37897 0.91736 0.63067 0.0
C1955 C 0.39419 0.91878 0.64917 0.0
C1956 C 0.36191 0.90379 0.64127 0.0
C1957 C 0.35917 0.89098 0.67114 0.0
C1958 C 0.37445 0.89255 0.69 0.0
C1959 C 0.39158 0.90611 0.67914 0.0
H1960 H 0.16559 0.51062 0.69476 0.0
H1961 H 0.14444 0.46681 0.61079 0.0
H1962 H 0.18879 0.50429 0.7143 0.0
H1963 H 0.1678 0.46087 0.62878 0.0
H1964 H 0.20437 0.44437 0.68835 0.0
H1965 H 0.18054 0.4501 0.67272 0.0
H1966 H 0.21498 0.5052 0.69875 0.0
H1967 H 0.23859 0.49932 0.71525 0.0
C1968 C 0.16581 0.49961 0.68044 0.0
C1969 C 0.15284 0.48923 0.65128 0.0
C1970 C 0.17934 0.49601 0.69137 0.0
C1971 C 0.18058 0.48196 0.67337 0.0
C1972 C 0.16747 0.47159 0.64434 0.0
C1973 C 0.15393 0.4751 0.6337 0.0
C1974 C 0.20697 0.45776 0.69058 0.0
C1975 C 0.22369 0.47129 0.70336 0.0
C1976 C 0.19315 0.46113 0.68142 0.0
C1977 C 0.19543 0.47824 0.68416 0.0
C1978 C 0.21221 0.49176 0.69682 0.0
C1979 C 0.22597 0.48836 0.7063 0.0
H1980 H 0.37233 0.92314 0.2537 0.0
H1981 H 0.34926 0.87696 0.17677 0.0
H1982 H 0.40166 0.9293 0.23416 0.0
H1983 H 0.37886 0.88315 0.15712 0.0
H1984 H 0.43536 0.90898 0.10142 0.0
H1985 H 0.40573 0.90249 0.11929 0.0
H1986 H 0.42271 0.91974 0.24341 0.0
H1987 H 0.45224 0.92584 0.22603 0.0
C1988 C 0.37342 0.91425 0.2324 0.0
C1989 C 0.35811 0.89949 0.21692 0.0
C1990 C 0.39044 0.91775 0.22137 0.0
C1991 C 0.39299 0.90674 0.19407 0.0
C1992 C 0.37767 0.89211 0.17795 0.0
C1993 C 0.36056 0.8885 0.18933 0.0
C1994 C 0.4329 0.91123 0.13278 0.0
C1995 C 0.4467 0.91802 0.16203 0.0
C1996 C 0.41569 0.90749 0.14307 0.0
C1997 C 0.41147 0.91053 0.18296 0.0
C1998 C 0.42524 0.91741 0.21214 0.0
C1999 C 0.44241 0.92101 0.20199 0.0
H2000 H 0.13641 0.53262 0.22256 0.0
H2001 H 0.16523 0.54278 0.10888 0.0
H2002 H 0.14286 0.50933 0.23856 0.0
H2003 H 0.17107 0.51903 0.1241 0.0
H2004 H 0.19402 0.48649 0.18107 0.0
H2005 H 0.18725 0.5095 0.16342 0.0
H2006 H 0.13724 0.4806 0.22555 0.0
H2007 H 0.14423 0.45786 0.24385 0.0
C2008 C 0.14414 0.52999 0.20077 0.0
C2009 C 0.15022 0.53995 0.16421 0.0
C2010 C 0.14769 0.5163 0.20981 0.0
C2011 C 0.15757 0.51192 0.18283 0.0
C2012 C 0.16361 0.52186 0.14624 0.0
C2013 C 0.16001 0.53551 0.13713 0.0
C2014 C 0.18148 0.48491 0.1907 0.0
C2015 C 0.1697 0.47002 0.21383 0.0
C2016 C 0.17752 0.49821 0.1804 0.0
C2017 C 0.16162 0.49729 0.19291 0.0
C2018 C 0.14976 0.48224 0.21563 0.0
C2019 C 0.15371 0.46893 0.22584 0.0
H2020 H 0.58411 0.72105 0.18135 0.0
H2021 H 0.61088 0.69938 0.24973 0.0
H2022 H 0.56061 0.69119 0.16434 0.0
H2023 H 0.58772 0.66979 0.23256 0.0
H2024 H 0.53516 0.61795 0.23166 0.0
H2025 H 0.55828 0.64793 0.24664 0.0
H2026 H 0.55148 0.66441 0.12658 0.0
H2027 H 0.52796 0.63449 0.11204 0.0
C2028 C 0.58515 0.71 0.19245 0.0
C2029 C 0.59963 0.71294 0.21701 0.0
C2030 C 0.5716 0.69272 0.18261 0.0
C2031 C 0.5719 0.67768 0.19717 0.0
C2032 C 0.58656 0.68074 0.22119 0.0
C2033 C 0.60008 0.69792 0.23081 0.0
C2034 C 0.5384 0.62791 0.20839 0.0
C2035 C 0.5294 0.62338 0.17042 0.0
C2036 C 0.55196 0.64527 0.21688 0.0
C2037 C 0.55712 0.65899 0.18792 0.0
C2038 C 0.54802 0.6545 0.15007 0.0
C2039 C 0.53454 0.6371 0.14147 0.0
H2040 H 0.19165 0.7214 0.67521 0.0
H2041 H 0.14827 0.69867 0.76062 0.0
H2042 H 0.18565 0.69185 0.65646 0.0
H2043 H 0.14223 0.6693 0.74189 0.0
H2044 H 0.14644 0.61912 0.73086 0.0
H2045 H 0.15211 0.64849 0.74797 0.0
H2046 H 0.16621 0.66451 0.62202 0.0
H2047 H 0.16018 0.63506 0.60452 0.0
C2048 C 0.18074 0.71016 0.68985 0.0
C2049 C 0.17048 0.71274 0.71946 0.0
C2050 C 0.17722 0.69306 0.67896 0.0
C2051 C 0.1634 0.67779 0.69755 0.0
C2052 C 0.15313 0.68045 0.72703 0.0
C2053 C 0.15655 0.69749 0.7376 0.0
C2054 C 0.15049 0.62869 0.70638 0.0
C2055 C 0.15276 0.62416 0.666 0.0
C2056 C 0.15384 0.64579 0.71639 0.0
C2057 C 0.15974 0.6593 0.68662 0.0
C2058 C 0.16201 0.65482 0.64629 0.0
C2059 C 0.15853 0.63768 0.63619 0.0
H2060 H 0.45519 0.52286 0.68993 0.0
H2061 H 0.43355 0.5553 0.65329 0.0
H2062 H 0.42566 0.49887 0.70542 0.0
H2063 H 0.40408 0.53158 0.66969 0.0
H2064 H 0.34985 0.48159 0.67372 0.0
H2065 H 0.37945 0.50492 0.655 0.0
H2066 H 0.40148 0.48631 0.7475 0.0
H2067 H 0.37213 0.46278 0.76471 0.0
C2068 C 0.44419 0.52503 0.68553 0.0
C2069 C 0.44711 0.54128 0.67002 0.0
C2070 C 0.42703 0.51113 0.6946 0.0
C2071 C 0.41195 0.51286 0.68905 0.0
C2072 C 0.41496 0.52921 0.67381 0.0
C2073 C 0.43209 0.54303 0.6644 0.0
C2074 C 0.36102 0.48236 0.6898 0.0
C2075 C 0.35831 0.46998 0.72061 0.0
C2076 C 0.37818 0.49598 0.67931 0.0
C2077 C 0.39338 0.49792 0.69948 0.0
C2078 C 0.39052 0.48542 0.73026 0.0
C2079 C 0.37344 0.47178 0.74044 0.0
H2080 H 0.58648 0.87852 0.67937 0.0
H2081 H 0.60992 0.92406 0.75821 0.0
H2082 H 0.56298 0.88471 0.66167 0.0
H2083 H 0.58682 0.93048 0.74004 0.0
H2084 H 0.53425 0.92945 0.73253 0.0
H2085 H 0.55745 0.92294 0.74871 0.0
H2086 H 0.55351 0.90209 0.62667 0.0
H2087 H 0.52972 0.90791 0.61107 0.0
C2088 C 0.5868 0.88997 0.69266 0.0
C2089 C 0.60036 0.90074 0.72028 0.0
C2090 C 0.57323 0.89361 0.68235 0.0
C2091 C 0.5726 0.90815 0.69933 0.0
C2092 C 0.58634 0.91898 0.72659 0.0
C2093 C 0.59986 0.91535 0.73682 0.0
C2094 C 0.5381 0.92331 0.70904 0.0
C2095 C 0.52973 0.91929 0.67026 0.0
C2096 C 0.55177 0.91974 0.71825 0.0
C2097 C 0.55777 0.91195 0.68918 0.0
C2098 C 0.5494 0.90791 0.6504 0.0
C2099 C 0.53575 0.91152 0.64115 0.0
H2100 H 0.29807 0.44401 0.19234 0.0
H2101 H 0.31821 0.49971 0.20487 0.0
H2102 H 0.32758 0.44963 0.17609 0.0
H2103 H 0.34761 0.50542 0.18774 0.0
H2104 H 0.40286 0.512 0.18517 0.0
H2105 H 0.37339 0.50594 0.20442 0.0
H2106 H 0.35061 0.45867 0.1309 0.0
H2107 H 0.37994 0.46444 0.1132 0.0
C2108 C 0.30871 0.45752 0.19127 0.0
C2109 C 0.30538 0.47131 0.2003 0.0
C2110 C 0.32586 0.46081 0.18173 0.0
C2111 C 0.34053 0.4781 0.18033 0.0
C2112 C 0.33711 0.49188 0.18914 0.0
C2113 C 0.32 0.48857 0.19899 0.0
C2114 C 0.39157 0.50023 0.17331 0.0
C2115 C 0.39411 0.48874 0.14763 0.0
C2116 C 0.37446 0.49677 0.18412 0.0
C2117 C 0.35908 0.48172 0.16945 0.0
C2118 C 0.36174 0.47024 0.14383 0.0
C2119 C 0.3788 0.47363 0.13331 0.0
H2120 H 0.59053 0.85035 0.26429 0.0
H2121 H 0.60649 0.84951 0.1392 0.0
H2122 H 0.58441 0.87369 0.2465 0.0
H2123 H 0.60074 0.87312 0.12184 0.0
H2124 H 0.60458 0.92702 0.11043 0.0
H2125 H 0.61049 0.90371 0.12971 0.0
H2126 H 0.56529 0.88161 0.20999 0.0
H2127 H 0.5594 0.90519 0.19065 0.0
C2128 C 0.59265 0.85492 0.23283 0.0
C2129 C 0.59908 0.8476 0.20344 0.0
C2130 C 0.58913 0.86851 0.22258 0.0
C2131 C 0.59201 0.8756 0.18254 0.0
C2132 C 0.59854 0.86841 0.15321 0.0
C2133 C 0.60193 0.85472 0.16335 0.0
C2134 C 0.59586 0.9173 0.13241 0.0
C2135 C 0.58147 0.91827 0.14892 0.0
C2136 C 0.59921 0.90369 0.1433 0.0
C2137 C 0.5884 0.89041 0.17146 0.0
C2138 C 0.57412 0.89151 0.18851 0.0
C2139 C 0.57066 0.90511 0.1773 0.0
H2140 H 0.22588 0.7529 0.25778 0.0
H2141 H 0.21565 0.77195 0.14495 0.0
H2142 H 0.20225 0.72327 0.24163 0.0
H2143 H 0.19259 0.74226 0.12801 0.0
H2144 H 0.14092 0.69021 0.12182 0.0
H2145 H 0.16396 0.71956 0.14112 0.0
H2146 H 0.19221 0.69743 0.20149 0.0
H2147 H 0.16877 0.66783 0.18267 0.0
C2148 C 0.21862 0.75092 0.22953 0.0
C2149 C 0.22299 0.76528 0.20297 0.0
C2150 C 0.20507 0.73367 0.21989 0.0
C2151 C 0.19515 0.72992 0.1833 0.0
C2152 C 0.19952 0.74429 0.15679 0.0
C2153 C 0.21309 0.76151 0.16636 0.0
C2154 C 0.15196 0.69147 0.13944 0.0
C2155 C 0.15273 0.67633 0.15056 0.0
C2156 C 0.16542 0.70853 0.15031 0.0
C2157 C 0.18038 0.71133 0.1728 0.0
C2158 C 0.18101 0.69613 0.18458 0.0
C2159 C 0.16748 0.67899 0.17364 0.0
H2160 H 0.33013 0.18193 0.12102 0.0
H2161 H 0.35684 0.22921 0.19365 0.0
H2162 H 0.35198 0.17401 0.1407 0.0
H2163 H 0.37855 0.22102 0.21464 0.0
H2164 H 0.42482 0.21045 0.21664 0.0
H2165 H 0.40297 0.21845 0.19669 0.0
H2166 H 0.36345 0.16347 0.19005 0.0
H2167 H 0.3855 0.15553 0.2088 0.0
C2168 C 0.34056 0.19062 0.14165 0.0
C2169 C 0.34149 0.20628 0.15564 0.0
C2170 C 0.35319 0.18597 0.15327 0.0
C2171 C 0.36735 0.19674 0.17958 0.0
C2172 C 0.36818 0.21236 0.19389 0.0
C2173 C 0.35553 0.21705 0.1821 0.0
C2174 C 0.4115 0.2 0.21068 0.0
C2175 C 0.40716 0.18226 0.21424 0.0
C2176 C 0.39879 0.20463 0.19952 0.0
C2177 C 0.38111 0.19173 0.19159 0.0
C2178 C 0.37682 0.17396 0.19506 0.0
C2179 C 0.38957 0.16933 0.20607 0.0
H2180 H 0.8902 0.1584 0.16195 0.0
H2181 H 0.83626 0.14592 0.14961 0.0
H2182 H 0.89865 0.18821 0.18272 0.0
H2183 H 0.84472 0.17599 0.16852 0.0
H2184 H 0.86106 0.22756 0.23513 0.0
H2185 H 0.85271 0.19771 0.216 0.0
H2186 H 0.90485 0.21616 0.16701 0.0
H2187 H 0.91341 0.24608 0.18822 0.0
C2188 C 0.88006 0.16198 0.16361 0.0
C2189 C 0.86243 0.14943 0.15426 0.0
C2190 C 0.88498 0.17935 0.1752 0.0
C2191 C 0.87255 0.18508 0.17747 0.0
C2192 C 0.85486 0.17242 0.16817 0.0
C2193 C 0.84991 0.15497 0.15706 0.0
C2194 C 0.87082 0.22537 0.22012 0.0
C2195 C 0.888 0.23957 0.2133 0.0
C2196 C 0.86593 0.20802 0.20874 0.0
C2197 C 0.87793 0.20398 0.18951 0.0
C2198 C 0.89511 0.21827 0.18229 0.0
C2199 C 0.90007 0.23567 0.19416 0.0
H2200 H 0.84358 0.64739 0.23186 0.0
H2201 H 0.82436 0.68107 0.18858 0.0
H2202 H 0.87328 0.66922 0.21198 0.0
H2203 H 0.85411 0.70277 0.16671 0.0
H2204 H 0.91207 0.74624 0.16207 0.0
H2205 H 0.88225 0.7246 0.18307 0.0
H2206 H 0.89418 0.68308 0.16238 0.0
H2207 H 0.92415 0.70485 0.14329 0.0
C2208 C 0.84559 0.65938 0.21751 0.0
C2209 C 0.83127 0.66225 0.21189 0.0
C2210 C 0.86283 0.67202 0.20571 0.0
C2211 C 0.86658 0.68809 0.18728 0.0
C2212 C 0.85217 0.69087 0.1813 0.0
C2213 C 0.8349 0.67825 0.19356 0.0
C2214 C 0.90839 0.7325 0.16228 0.0
C2215 C 0.9208 0.72748 0.15116 0.0
C2216 C 0.89106 0.71992 0.17404 0.0
C2217 C 0.88532 0.70174 0.17471 0.0
C2218 C 0.89782 0.69679 0.16337 0.0
C2219 C 0.91519 0.70939 0.15209 0.0
H2220 H 0.17565 0.3812 0.36331 0.0
H2221 H 0.22256 0.40713 0.289 0.0
H2222 H 0.18365 0.35938 0.38429 0.0
H2223 H 0.23032 0.38517 0.3088 0.0
H2224 H 0.24867 0.35166 0.37736 0.0
H2225 H 0.24092 0.37383 0.35868 0.0
H2226 H 0.18577 0.33468 0.36593 0.0
H2227 H 0.1936 0.31269 0.38575 0.0
C2228 C 0.1877 0.38232 0.35141 0.0
C2229 C 0.19842 0.39617 0.32446 0.0
C2230 C 0.19227 0.36961 0.3632 0.0
C2231 C 0.20773 0.37019 0.34845 0.0
C2232 C 0.21847 0.38416 0.32169 0.0
C2233 C 0.21393 0.39685 0.31002 0.0
C2234 C 0.23487 0.34771 0.37485 0.0
C2235 C 0.22184 0.33017 0.38309 0.0
C2236 C 0.23036 0.36052 0.36384 0.0
C2237 C 0.2126 0.35636 0.36051 0.0
C2238 C 0.19959 0.33875 0.36862 0.0
C2239 C 0.20411 0.32596 0.37972 0.0
H2240 H 0.66298 0.8289 0.29141 0.0
H2241 H 0.69309 0.8089 0.35166 0.0
H2242 H 0.68503 0.85868 0.31005 0.0
H2243 H 0.7149 0.83872 0.37237 0.0
H2244 H 0.75994 0.89563 0.37668 0.0
H2245 H 0.73811 0.86588 0.35629 0.0
H2246 H 0.69799 0.8807 0.35718 0.0
H2247 H 0.72009 0.91064 0.37555 0.0
C2248 C 0.6742 0.83079 0.30925 0.0
C2249 C 0.67604 0.81623 0.31998 0.0
C2250 C 0.68697 0.84807 0.32032 0.0
C2251 C 0.7021 0.85161 0.34313 0.0
C2252 C 0.7038 0.83695 0.35425 0.0
C2253 C 0.6911 0.81964 0.34266 0.0
C2254 C 0.74648 0.89261 0.37219 0.0
C2255 C 0.74197 0.9058 0.37762 0.0
C2256 C 0.73377 0.87531 0.36082 0.0
C2257 C 0.71591 0.87037 0.35493 0.0
C2258 C 0.71147 0.88367 0.3604 0.0
C2259 C 0.72425 0.90103 0.37124 0.0
H2260 H 0.26013 0.90104 0.32166 0.0
H2261 H 0.24602 0.84655 0.32802 0.0
H2262 H 0.23022 0.89314 0.34115 0.0
H2263 H 0.21642 0.83862 0.34967 0.0
H2264 H 0.1592 0.8252 0.35477 0.0
H2265 H 0.18905 0.8335 0.33401 0.0
H2266 H 0.20814 0.88489 0.38785 0.0
H2267 H 0.17813 0.87676 0.4064 0.0
C2268 C 0.25074 0.88737 0.3279 0.0
C2269 C 0.25571 0.87451 0.32315 0.0
C2270 C 0.2334 0.88275 0.33938 0.0
C2271 C 0.22036 0.86509 0.34718 0.0
C2272 C 0.22559 0.85231 0.34319 0.0
C2273 C 0.24281 0.85691 0.3311 0.0
C2274 C 0.16975 0.83831 0.36201 0.0
C2275 C 0.16601 0.85026 0.38224 0.0
C2276 C 0.1871 0.84312 0.35038 0.0
C2277 C 0.20155 0.86 0.35912 0.0
C2278 C 0.19769 0.8719 0.37952 0.0
C2279 C 0.18031 0.86717 0.39055 0.0
H2280 H 0.7186 0.82094 0.88302 0.0
H2281 H 0.76003 0.87461 0.86666 0.0
H2282 H 0.69688 0.82909 0.86266 0.0
H2283 H 0.73857 0.88269 0.84445 0.0
H2284 H 0.69567 0.89747 0.83964 0.0
H2285 H 0.71698 0.88896 0.86102 0.0
H2286 H 0.68299 0.8366 0.81388 0.0
H2287 H 0.66142 0.845 0.79446 0.0
C2288 C 0.72316 0.83445 0.87441 0.0
C2289 C 0.74124 0.84704 0.87658 0.0
C2290 C 0.71061 0.8392 0.86246 0.0
C2291 C 0.71562 0.85671 0.85172 0.0
C2292 C 0.73381 0.86917 0.85319 0.0
C2293 C 0.7463 0.86446 0.86563 0.0
C2294 C 0.69269 0.8841 0.83398 0.0
C2295 C 0.67664 0.87199 0.81531 0.0
C2296 C 0.70509 0.87918 0.84599 0.0
C2297 C 0.70209 0.86196 0.83933 0.0
C2298 C 0.68597 0.84988 0.82054 0.0
C2299 C 0.67349 0.85476 0.80902 0.0
H2300 H 0.17211 0.81392 0.81197 0.0
H2301 H 0.22577 0.82581 0.82664 0.0
H2302 H 0.18066 0.84394 0.83121 0.0
H2303 H 0.23432 0.85567 0.84774 0.0
H2304 H 0.24906 0.91369 0.8549 0.0
H2305 H 0.24071 0.8839 0.83276 0.0
H2306 H 0.18828 0.86503 0.88029 0.0
H2307 H 0.19644 0.89472 0.90045 0.0
C2308 C 0.18574 0.82285 0.81984 0.0
C2309 C 0.19814 0.81714 0.81772 0.0
C2310 C 0.19073 0.84026 0.83124 0.0
C2311 C 0.20834 0.85275 0.84152 0.0
C2312 C 0.2207 0.84691 0.8396 0.0
C2313 C 0.21573 0.82954 0.82776 0.0
C2314 C 0.2357 0.90321 0.86035 0.0
C2315 C 0.22349 0.90694 0.87939 0.0
C2316 C 0.23087 0.8859 0.8479 0.0
C2317 C 0.21366 0.87154 0.85436 0.0
C2318 C 0.20153 0.8754 0.87357 0.0
C2319 C 0.2063 0.89266 0.88556 0.0
H2320 H 0.16104 0.35188 0.88567 0.0
H2321 H 0.17346 0.31055 0.87012 0.0
H2322 H 0.19103 0.37364 0.86682 0.0
H2323 H 0.20328 0.33216 0.8492 0.0
H2324 H 0.26095 0.37558 0.84505 0.0
H2325 H 0.23112 0.35403 0.86618 0.0
H2326 H 0.21225 0.38739 0.81784 0.0
H2327 H 0.24218 0.40919 0.79876 0.0
C2328 C 0.17009 0.34735 0.87766 0.0
C2329 C 0.1646 0.3293 0.87947 0.0
C2330 C 0.18746 0.35994 0.86649 0.0
C2331 C 0.20004 0.35499 0.85611 0.0
C2332 C 0.1944 0.33684 0.85756 0.0
C2333 C 0.17708 0.32428 0.86927 0.0
C2334 C 0.25046 0.37839 0.83918 0.0
C2335 C 0.25421 0.39432 0.82029 0.0
C2336 C 0.23314 0.36585 0.85101 0.0
C2337 C 0.2188 0.36861 0.84392 0.0
C2338 C 0.22266 0.38462 0.8249 0.0
C2339 C 0.23999 0.39723 0.81359 0.0
H2340 H 0.89165 0.74585 0.66433 0.0
H2341 H 0.83821 0.7044 0.64467 0.0
H2342 H 0.89969 0.72428 0.6863 0.0
H2343 H 0.84629 0.68267 0.66466 0.0
H2344 H 0.86101 0.64674 0.73384 0.0
H2345 H 0.85305 0.6685 0.71372 0.0
H2346 H 0.90624 0.70271 0.67133 0.0
H2347 H 0.9143 0.68114 0.69349 0.0
C2348 C 0.88156 0.7321 0.66452 0.0
C2349 C 0.86418 0.72706 0.65284 0.0
C2350 C 0.88624 0.71955 0.67685 0.0
C2351 C 0.87379 0.70135 0.67752 0.0
C2352 C 0.85638 0.69638 0.66567 0.0
C2353 C 0.85168 0.70896 0.65384 0.0
C2354 C 0.87105 0.65888 0.72013 0.0
C2355 C 0.88836 0.66197 0.71539 0.0
C2356 C 0.86643 0.67149 0.70818 0.0
C2357 C 0.87885 0.68773 0.69045 0.0
C2358 C 0.89618 0.69071 0.6854 0.0
C2359 C 0.90084 0.67815 0.69784 0.0
H2360 H 0.32455 0.15968 0.65664 0.0
H2361 H 0.3645 0.14483 0.6534 0.0
H2362 H 0.34651 0.18934 0.67738 0.0
H2363 H 0.3867 0.17468 0.67232 0.0
H2364 H 0.42206 0.22624 0.73935 0.0
H2365 H 0.39992 0.19649 0.72037 0.0
H2366 H 0.36964 0.21661 0.66073 0.0
H2367 H 0.39154 0.24637 0.68159 0.0
C2368 C 0.33805 0.16271 0.66027 0.0
C2369 C 0.34254 0.14957 0.65347 0.0
C2370 C 0.35084 0.17995 0.67186 0.0
C2371 C 0.36875 0.18492 0.67668 0.0
C2372 C 0.37318 0.17168 0.66991 0.0
C2373 C 0.36034 0.15437 0.65877 0.0
C2374 C 0.41072 0.2244 0.72206 0.0
C2375 C 0.4088 0.23898 0.71211 0.0
C2376 C 0.39791 0.20714 0.71079 0.0
C2377 C 0.38264 0.20365 0.68865 0.0
C2378 C 0.38085 0.21834 0.67833 0.0
C2379 C 0.39361 0.23561 0.69002 0.0
H2380 H 0.91144 0.17977 0.65997 0.0
H2381 H 0.92483 0.23392 0.64757 0.0
H2382 H 0.88169 0.17186 0.68077 0.0
H2383 H 0.89489 0.22599 0.66672 0.0
H2384 H 0.84368 0.21024 0.73555 0.0
H2385 H 0.87349 0.21814 0.71607 0.0
H2386 H 0.85397 0.16656 0.6632 0.0
H2387 H 0.82414 0.15847 0.68444 0.0
C2388 C 0.90808 0.19006 0.66159 0.0
C2389 C 0.92084 0.20758 0.6522 0.0
C2390 C 0.89078 0.18546 0.67323 0.0
C2391 C 0.88539 0.19814 0.67558 0.0
C2392 C 0.89825 0.2157 0.66624 0.0
C2393 C 0.9156 0.22032 0.65498 0.0
C2394 C 0.84565 0.20054 0.7196 0.0
C2395 C 0.83122 0.18365 0.71165 0.0
C2396 C 0.86295 0.20515 0.70807 0.0
C2397 C 0.86662 0.19313 0.68771 0.0
C2398 C 0.85208 0.17625 0.67937 0.0
C2399 C 0.83477 0.17159 0.69127 0.0
H2400 H 1.03267 0.5671 0.49304 0.0
H2401 H 0.99309 0.51222 0.48837 0.0
H2402 H 0.05472 0.55923 0.51191 0.0
H2403 H 1.01485 0.50425 0.50906 0.0
H2404 H 0.06008 0.49252 0.51428 0.0
H2405 H 1.03837 0.50064 0.49331 0.0
H2406 H 0.0673 0.54969 0.55924 0.0
H2407 H 0.08925 0.54186 0.57832 0.0
C2408 C 1.02856 0.55332 0.49663 0.0
C2409 C 1.01091 0.54038 0.48913 0.0
C2410 C 1.0413 0.54871 0.50775 0.0
C2411 C 1.03693 0.53095 0.51231 0.0
C2412 C 1.01916 0.51805 0.50528 0.0
C2413 C 1.00648 0.52266 0.49371 0.0
C2414 C 0.06188 0.5051 0.52407 0.0
C2415 C 0.07665 0.51649 0.54794 0.0
C2416 C 0.04923 0.50977 0.51231 0.0
C2417 C 0.0507 0.52595 0.52434 0.0
C2418 C 0.06554 0.53729 0.54829 0.0
C2419 C 0.07825 0.5327 0.55961 0.0
H2420 H 0.58381 0.57787 0.55111 0.0
H2421 H 0.52961 0.56459 0.53904 0.0
H2422 H 0.57574 0.54787 0.53214 0.0
H2423 H 0.52157 0.53486 0.51851 0.0
H2424 H 0.50764 0.47732 0.51619 0.0
H2425 H 0.51608 0.50726 0.53675 0.0
H2426 H 0.56759 0.52607 0.48364 0.0
H2427 H 0.55933 0.49612 0.46481 0.0
C2428 C 0.57019 0.56867 0.54376 0.0
C2429 C 0.55746 0.57394 0.54666 0.0
C2430 C 0.56548 0.55128 0.53266 0.0
C2431 C 0.54784 0.53844 0.52363 0.0
C2432 C 0.53521 0.54391 0.5259 0.0
C2433 C 0.5399 0.56121 0.53735 0.0
C2434 C 0.52082 0.48781 0.50913 0.0
C2435 C 0.53273 0.48401 0.48885 0.0
C2436 C 0.52569 0.5052 0.52064 0.0
C2437 C 0.54265 0.51958 0.512 0.0
C2438 C 0.55454 0.51566 0.4918 0.0
C2439 C 0.54971 0.49828 0.48064 0.0
H2440 H 0.57923 0.07879 0.49954 0.0
H2441 H 0.59165 0.03757 0.48207 0.0
H2442 H 0.54969 0.05723 0.5219 0.0
H2443 H 0.56182 1.01577 0.50257 0.0
H2444 H 0.51073 0.98016 0.57171 0.0
H2445 H 0.54061 1.00183 0.5518 0.0
H2446 H 0.52178 0.03555 0.50567 0.0
H2447 H 0.49203 1.01413 0.52755 0.0
C2448 C 0.57568 0.06509 0.50035 0.0
C2449 C 0.5881 0.06011 0.48907 0.0
C2450 C 0.55849 0.05254 0.51288 0.0
C2451 C 0.55284 0.03439 0.51413 0.0
C2452 C 0.56538 0.02947 0.50298 0.0
C2453 C 0.58266 0.04207 0.49093 0.0
C2454 C 0.51291 0.99218 0.55725 0.0
C2455 C 0.49872 0.99522 0.55139 0.0
C2456 C 0.53022 1.00472 0.54544 0.0
C2457 C 0.5341 1.0208 0.52679 0.0
C2458 C 0.51978 1.02369 0.52056 0.0
C2459 C 0.50249 1.01122 0.53285 0.0
H2460 H 0.52856 0.97703 0.03505 0.0
H2461 H 0.58207 1.01832 0.05489 0.0
H2462 H 0.52057 0.99872 1.01406 0.0
H2463 H 0.57403 0.04019 0.03571 0.0
H2464 H 0.55882 0.07625 0.96788 0.0
H2465 H 0.56699 0.05448 0.98684 0.0
H2466 H 0.5142 1.02025 0.03152 0.0
H2467 H 0.50593 0.04179 1.01073 0.0
C2468 C 0.53868 0.99077 0.03507 0.0
C2469 C 0.55605 0.99573 0.04658 0.0
C2470 C 0.53403 1.00339 0.02333 0.0
C2471 C 0.5465 1.02158 0.02305 0.0
C2472 C 0.56392 1.02648 0.03454 0.0
C2473 C 0.5686 1.01382 0.04586 0.0
C2474 C 0.54892 0.0641 0.98186 0.0
C2475 C 0.53165 0.06097 0.98765 0.0
C2476 C 0.55367 0.05149 0.99309 0.0
C2477 C 0.54139 0.03524 1.01103 0.0
C2478 C 0.52413 0.03226 0.01718 0.0
C2479 C 0.51935 0.0448 1.00552 0.0
H2480 H 0.99645 0.49622 0.95912 0.0
H2481 H 1.02802 0.477 1.01536 0.0
H2482 H 1.01819 0.52613 0.97818 0.0
H2483 H 0.04949 0.50685 0.03643 0.0
H2484 H 0.09371 0.56387 0.04202 0.0
H2485 H 0.07214 0.53422 0.02066 0.0
H2486 H 1.03138 0.54813 0.02558 0.0
H2487 H 0.05327 0.57806 0.04501 0.0
C2488 C 1.00795 0.4983 0.97608 0.0
C2489 C 1.01029 0.48394 0.98556 0.0
C2490 C 1.02053 0.51565 0.9874 0.0
C2491 C 1.03597 0.51943 1.0092 0.0
C2492 C 1.03816 0.50493 0.01906 0.0
C2493 C 1.02565 0.48759 1.00724 0.0
C2494 C 0.08016 0.56069 0.03824 0.0
C2495 C 0.07543 0.57364 0.04518 0.0
C2496 C 0.06759 0.54343 0.02629 0.0
C2497 C 0.04962 0.53823 0.02131 0.0
C2498 C 0.04495 0.5513 0.02814 0.0
C2499 C 0.0576 0.56865 0.03958 0.0
H2500 H 0.49325 0.48686 0.05125 0.0
H2501 H 0.50614 0.54085 0.03921 0.0
H2502 H 0.52323 0.49507 0.03152 0.0
H2503 H 0.5358 0.54903 0.01755 0.0
H2504 H 0.59346 0.56356 1.01186 0.0
H2505 H 0.56358 0.55502 0.03329 0.0
H2506 H 0.54502 0.503 0.98385 0.0
H2507 H 0.57498 0.51139 0.96449 0.0
C2508 C 0.50237 0.50046 0.04373 0.0
C2509 C 0.497 0.5131 0.04693 0.0
C2510 C 0.51975 0.50526 0.03213 0.0
C2511 C 0.53248 0.52289 0.02273 0.0
C2512 C 0.52689 0.53541 0.02525 0.0
C2513 C 0.50961 0.53065 0.03736 0.0
C2514 C 0.58303 0.55026 1.00578 0.0
C2515 C 0.58691 0.53823 0.98648 0.0
C2516 C 0.56565 0.54531 0.01779 0.0
C2517 C 0.55134 0.52817 1.01048 0.0
C2518 C 0.55535 0.51619 0.99108 0.0
C2519 C 0.57273 0.52108 0.97959 0.0
H2520 H 0.35419 0.21967 0.02866 0.0
H2521 H 0.33184 0.24968 0.98014 0.0
H2522 H 0.37708 0.23159 0.97552 0.0
H2523 H 0.35492 0.26193 0.92715 0.0
H2524 H 0.4113 0.29803 0.87584 0.0
H2525 H 0.38652 0.28292 0.92261 0.0
H2526 H 0.38641 0.23443 0.90183 0.0
H2527 H 0.41131 0.24969 0.85361 0.0
C2528 C 0.35373 0.22834 1.00569 0.0
C2529 C 0.34054 0.23308 1.00834 0.0
C2530 C 0.36709 0.23538 0.97513 0.0
C2531 C 0.36829 0.24799 0.94641 0.0
C2532 C 0.3548 0.25242 0.94846 0.0
C2533 C 0.34121 0.24509 0.97861 0.0
C2534 C 0.40615 0.28412 0.88096 0.0
C2535 C 0.41372 0.27531 0.86028 0.0
C2536 C 0.39162 0.27532 0.90791 0.0
C2537 C 0.38394 0.2572 0.91644 0.0
C2538 C 0.39173 0.24835 0.89657 0.0
C2539 C 0.40617 0.25716 0.86875 0.0
H2540 H 0.8277 0.12999 0.05197 0.0
H2541 H 0.84276 0.10994 0.94859 0.0
H2542 H 0.81633 0.14389 1.00509 0.0
H2543 H 0.83189 0.12426 0.90144 0.0
H2544 H 0.82021 0.1631 0.8256 0.0
H2545 H 0.83498 0.1529 0.87343 0.0
H2546 H 0.79093 0.13431 0.95632 0.0
H2547 H 0.77605 0.14399 0.90806 0.0
C2548 C 0.82921 0.12906 0.01919 0.0
C2549 C 0.8368 0.11918 1.00457 0.0
C2550 C 0.82239 0.13686 0.99202 0.0
C2551 C 0.823 0.13538 0.94878 0.0
C2552 C 0.83121 0.12604 0.93418 0.0
C2553 C 0.83764 0.11787 0.96143 0.0
C2554 C 0.81378 0.15715 0.85436 0.0
C2555 C 0.7969 0.15476 0.8628 0.0
C2556 C 0.82222 0.15106 0.88184 0.0
C2557 C 0.81436 0.14266 0.91949 0.0
C2558 C 0.79771 0.1408 0.92829 0.0
C2559 C 0.78911 0.14645 0.9004 0.0
H2560 H 0.91883 0.64338 0.9165 0.0
H2561 H 0.9163 0.67491 0.81863 0.0
H2562 H 0.92923 0.66846 0.96381 0.0
H2563 H 0.92738 0.70026 0.8655 0.0
H2564 H 0.97125 0.74573 0.95148 0.0
H2565 H 0.9566 0.72069 0.90406 0.0
H2566 H 0.92085 0.68965 1.00042 0.0
H2567 H 0.93512 0.715 0.04736 0.0
C2568 C 0.9201 0.65554 0.90515 0.0
C2569 C 0.91615 0.65671 0.86358 0.0
C2570 C 0.92621 0.67008 0.93244 0.0
C2571 C 0.92931 0.68672 0.91909 0.0
C2572 C 0.92528 0.68786 0.87745 0.0
C2573 C 0.91867 0.67315 0.85046 0.0
C2574 C 0.95992 0.73376 0.96233 0.0
C2575 C 0.95423 0.73281 1.00337 0.0
C2576 C 0.9515 0.71924 0.935 0.0
C2577 C 0.93738 0.70281 0.9478 0.0
C2578 C 0.93162 0.70189 0.9889 0.0
C2579 C 0.93973 0.7166 1.01591 0.0
H2580 H 0.23949 0.33692 0.49929 0.0
H2581 H 0.26369 0.31384 0.57178 0.0
H2582 H 0.25014 0.36153 0.54841 0.0
H2583 H 0.27417 0.33809 0.6207 0.0
H2584 H 0.28168 0.37732 0.72167 0.0
H2585 H 0.2674 0.35241 0.67428 0.0
H2586 H 0.27663 0.38815 0.57425 0.0
H2587 H 0.29105 0.41314 0.62219 0.0
C2588 C 0.24671 0.3368 0.52613 0.0
C2589 C 0.25035 0.32295 0.53144 0.0
C2590 C 0.2531 0.35116 0.5543 0.0
C2591 C 0.26318 0.35219 0.58939 0.0
C2592 C 0.26635 0.33804 0.59494 0.0
C2593 C 0.26025 0.32393 0.56658 0.0
C2594 C 0.28036 0.37991 0.68972 0.0
C2595 C 0.28733 0.39745 0.6764 0.0
C2596 C 0.27229 0.3655 0.6621 0.0
C2597 C 0.27073 0.36785 0.61957 0.0
C2598 C 0.27725 0.38544 0.60644 0.0
C2599 C 0.28554 0.39992 0.63416 0.0
H2600 H 0.67934 0.88479 0.68574 0.0
H2601 H 0.66916 0.92537 0.64404 0.0
H2602 H 0.70449 0.8957 0.63748 0.0
H2603 H 0.69396 0.93623 0.5971 0.0
H2604 H 0.75063 0.96629 0.55385 0.0
H2605 H 0.72583 0.95233 0.60081 0.0
H2606 H 0.71588 0.90131 0.56167 0.0
H2607 H 0.74101 0.91554 0.51345 0.0
C2608 C 0.68218 0.89583 0.66604 0.0
C2609 C 0.67188 0.90406 0.66944 0.0
C2610 C 0.69676 0.90219 0.63822 0.0
C2611 C 0.70181 0.91721 0.61317 0.0
C2612 C 0.69108 0.92495 0.61596 0.0
C2613 C 0.67656 0.91853 0.64306 0.0
C2614 C 0.74337 0.95207 0.55512 0.0
C2615 C 0.7482 0.94227 0.52911 0.0
C2616 C 0.72884 0.94394 0.58223 0.0
C2617 C 0.71828 0.92548 0.58539 0.0
C2618 C 0.72347 0.91552 0.56066 0.0
C2619 C 0.73803 0.92374 0.53283 0.0
H2620 H 0.10524 0.79623 0.55129 0.0
H2621 H 0.15586 0.83826 0.51234 0.0
H2622 H 0.1194 0.78577 0.59848 0.0
H2623 H 0.1703 0.82776 0.56097 0.0
H2624 H 0.18617 0.80765 0.68661 0.0
H2625 H 0.1753 0.82177 0.63805 0.0
H2626 H 0.13632 0.77068 0.59378 0.0
H2627 H 0.14716 0.75686 0.64096 0.0
C2628 C 0.11948 0.80347 0.55293 0.0
C2629 C 0.12918 0.81822 0.52721 0.0
C2630 C 0.12771 0.7973 0.5802 0.0
C2631 C 0.1462 0.80557 0.58388 0.0
C2632 C 0.15607 0.82086 0.55952 0.0
C2633 C 0.14773 0.82698 0.53148 0.0
C2634 C 0.17551 0.79944 0.66598 0.0
C2635 C 0.16768 0.78091 0.66836 0.0
C2636 C 0.16917 0.80758 0.63799 0.0
C2637 C 0.15457 0.79753 0.61175 0.0
C2638 C 0.14727 0.77911 0.61353 0.0
C2639 C 0.15367 0.77108 0.64079 0.0
H2640 H 0.66013 0.7612 0.12399 0.0
H2641 H 0.68495 0.80535 0.20634 0.0
H2642 H 0.6847 0.77617 0.07564 0.0
H2643 H 0.70993 0.82021 0.15842 0.0
H2644 H 0.76084 0.82811 0.08326 0.0
H2645 H 0.7356 0.81722 0.13045 0.0
H2646 H 0.70042 0.80159 0.02685 0.0
H2647 H 0.72572 0.81297 0.97993 0.0
C2648 C 0.67068 0.77427 0.1316 0.0
C2649 C 0.6701 0.78203 0.16919 0.0
C2650 C 0.68495 0.78293 0.10367 0.0
C2651 C 0.69967 0.7996 0.11243 0.0
C2652 C 0.69906 0.80744 0.15006 0.0
C2653 C 0.68453 0.79894 0.17759 0.0
C2654 C 0.74779 0.82299 0.07045 0.0
C2655 C 0.74564 0.82212 0.02732 0.0
C2656 C 0.73315 0.81654 0.09772 0.0
C2657 C 0.7156 0.80829 0.08313 0.0
C2658 C 0.71351 0.80768 0.0399 0.0
C2659 C 0.72816 0.81452 1.01271 0.0
H2660 H 0.23548 0.91439 1.00496 0.0
H2661 H 0.26856 0.96371 0.06598 0.0
H2662 H 0.24628 0.89984 0.05251 0.0
H2663 H 0.2795 0.94951 0.11184 0.0
H2664 H 0.3141 0.92626 0.14688 0.0
H2665 H 0.29936 0.93666 0.10124 0.0
H2666 H 0.24918 0.89212 0.1332 0.0
H2667 H 0.26412 0.88174 0.18067 0.0
C2668 C 0.2447 0.92213 0.02887 0.0
C2669 C 0.25095 0.94042 0.03113 0.0
C2670 C 0.25105 0.91375 0.05619 0.0
C2671 C 0.26412 0.9234 0.08625 0.0
C2672 C 0.26973 0.94147 0.08915 0.0
C2673 C 0.26326 0.94968 0.06266 0.0
C2674 C 0.29991 0.91844 0.14439 0.0
C2675 C 0.29054 0.903 0.16828 0.0
C2676 C 0.29135 0.92456 0.11795 0.0
C2677 C 0.27288 0.91549 0.11309 0.0
C2678 C 0.26339 0.8996 0.13561 0.0
C2679 C 0.27202 0.89358 0.16301 0.0
H2680 H 0.15614 0.40711 0.14605 0.0
H2681 H 0.18167 0.38111 0.20034 0.0
H2682 H 0.14398 0.38452 0.09192 0.0
H2683 H 0.1699 0.35876 0.14605 0.0
H2684 H 0.15334 0.3259 0.02188 0.0
H2685 H 0.16867 0.35022 0.07153 0.0
H2686 H 0.12142 0.35321 0.08587 0.0
H2687 H 0.1062 0.32899 0.03788 0.0
C2688 C 0.15976 0.39699 0.1457 0.0
C2689 C 0.17044 0.39646 0.17742 0.0
C2690 C 0.1525 0.38373 0.11483 0.0
C2691 C 0.15574 0.36942 0.11396 0.0
C2692 C 0.16707 0.36941 0.14474 0.0
C2693 C 0.17399 0.38243 0.17601 0.0
C2694 C 0.14616 0.33161 0.03586 0.0
C2695 C 0.12831 0.32509 0.02525 0.0
C2696 C 0.15501 0.34571 0.0645 0.0
C2697 C 0.14653 0.35418 0.08302 0.0
C2698 C 0.12874 0.34755 0.07229 0.0
C2699 C 0.11987 0.33335 0.04459 0.0
H2700 H 0.84327 0.71698 0.54195 0.0
H2701 H 0.82711 0.74352 0.45651 0.0
H2702 H 0.83327 0.69218 0.49361 0.0
H2703 H 0.81764 0.71913 0.40781 0.0
H2704 H 0.81321 0.67782 0.31314 0.0
H2705 H 0.82726 0.70283 0.36076 0.0
H2706 H 0.80463 0.66745 0.46323 0.0
H2707 H 0.79018 0.64254 0.41531 0.0
C2708 C 0.83806 0.71783 0.51243 0.0
C2709 C 0.83642 0.73268 0.50325 0.0
C2710 C 0.83207 0.70339 0.48466 0.0
C2711 C 0.82454 0.70333 0.44608 0.0
C2712 C 0.82346 0.71847 0.43659 0.0
C2713 C 0.829 0.73263 0.46471 0.0
C2714 C 0.81166 0.67525 0.34586 0.0
C2715 C 0.8009 0.65783 0.35994 0.0
C2716 C 0.81955 0.68974 0.37343 0.0
C2717 C 0.81725 0.68752 0.41653 0.0
C2718 C 0.80704 0.66998 0.43064 0.0
C2719 C 0.79881 0.65554 0.40297 0.0
H2720 H 0.32536 0.09566 0.45439 0.0
H2721 H 0.35145 0.13869 0.53938 0.0
H2722 H 0.35002 0.11052 0.40622 0.0
H2723 H 0.3765 0.15341 0.49161 0.0
H2724 H 0.42664 0.16025 0.41493 0.0
H2725 H 0.40148 0.14963 0.4623 0.0
H2726 H 0.36641 0.13639 0.359 0.0
H2727 H 0.39165 0.14749 0.31195 0.0
C2728 C 0.33622 0.10848 0.46263 0.0
C2729 C 0.33596 0.11597 0.50088 0.0
C2730 C 0.35052 0.11707 0.43481 0.0
C2731 C 0.36561 0.13337 0.44435 0.0
C2732 C 0.36534 0.14093 0.48264 0.0
C2733 C 0.35077 0.13252 0.51008 0.0
C2734 C 0.41366 0.15572 0.40228 0.0
C2735 C 0.41151 0.15543 0.3592 0.0
C2736 C 0.39907 0.14943 0.42963 0.0
C2737 C 0.38155 0.14193 0.41512 0.0
C2738 C 0.37948 0.1419 0.37197 0.0
C2739 C 0.3941 0.14857 0.34473 0.0
H2740 H 0.96615 0.23396 0.44983 0.0
H2741 H 0.93378 0.23373 0.5494 0.0
H2742 H 0.95094 0.24363 0.40243 0.0
H2743 H 0.91881 0.2439 0.50229 0.0
H2744 H 0.91619 0.28649 0.41608 0.0
H2745 H 0.9259 0.27137 0.46356 0.0
H2746 H 0.9231 0.23708 0.36555 0.0
H2747 H 0.91289 0.252 0.31835 0.0
C2748 C 0.95537 0.2354 0.46148 0.0
C2749 C 0.95095 0.23237 0.50361 0.0
C2750 C 0.94665 0.24114 0.43414 0.0
C2751 C 0.93347 0.24474 0.44785 0.0
C2752 C 0.92884 0.24143 0.48997 0.0
C2753 C 0.93729 0.23527 0.51714 0.0
C2754 C 0.917 0.27531 0.40488 0.0
C2755 C 0.91311 0.27027 0.36325 0.0
C2756 C 0.92274 0.26662 0.43228 0.0
C2757 C 0.92547 0.25282 0.41907 0.0
C2758 C 0.92132 0.2476 0.37745 0.0
C2759 C 0.91514 0.25603 0.35026 0.0
H2760 H 0.08428 0.63328 0.22432 0.0
H2761 H 0.07425 0.58262 0.18206 0.0
H2762 H 0.0592 0.61921 0.27053 0.0
H2763 H 0.04888 0.56828 0.22957 0.0
H2764 H 1.012 0.55117 0.35272 0.0
H2765 H 1.03735 0.56234 0.30511 0.0
H2766 H 1.02728 0.60333 0.2662 0.0
H2767 H 1.00222 0.59221 0.31251 0.0
C2768 C 0.07687 0.61905 0.22502 0.0
C2769 C 0.08167 0.60931 0.19873 0.0
C2770 C 0.06219 0.61087 0.25169 0.0
C2771 C 0.05147 0.59241 0.25414 0.0
C2772 C 0.05661 0.5825 0.2291 0.0
C2773 C 0.07131 0.59077 0.20169 0.0
C2774 C 1.01499 0.56238 0.33351 0.0
C2775 C 1.00471 0.57064 0.33709 0.0
C2776 C 1.02968 0.56888 0.30604 0.0
C2777 C 1.03489 0.58408 0.28157 0.0
C2778 C 1.02424 0.5919 0.2846 0.0
C2779 C 1.00957 0.58533 0.31133 0.0
H2780 H 0.47777 0.42404 0.31892 0.0
H2781 H 0.52302 0.4739 0.34998 0.0
H2782 H 0.46736 0.43865 0.27291 0.0
H2783 H 0.51262 0.4887 0.30217 0.0
H2784 H 0.48995 0.50194 0.17423 0.0
H2785 H 0.50451 0.49119 0.22191 0.0
H2786 H 0.45493 0.45882 0.28274 0.0
H2787 H 0.44073 0.4697 0.23669 0.0
C2788 C 0.48574 0.43817 0.31575 0.0
C2789 C 0.50138 0.44756 0.33899 0.0
C2790 C 0.47962 0.44666 0.28911 0.0
C2791 C 0.48889 0.46506 0.28342 0.0
C2792 C 0.50497 0.47455 0.30525 0.0
C2793 C 0.51101 0.466 0.33283 0.0
C2794 C 0.48224 0.49291 0.19848 0.0
C2795 C 0.46397 0.48688 0.20112 0.0
C2796 C 0.49062 0.4866 0.22588 0.0
C2797 C 0.48099 0.47378 0.25641 0.0
C2798 C 0.46295 0.46839 0.25968 0.0
C2799 C 0.45474 0.47482 0.23308 0.0
H2800 H 0.62932 0.07993 0.28311 0.0
H2801 H 0.60477 0.04521 0.38552 0.0
H2802 H 0.61494 0.05489 0.23557 0.0
H2803 H 0.59077 1.02004 0.33828 0.0
H2804 H 0.59084 0.9785 0.24463 0.0
H2805 H 0.60022 1.00305 0.29286 0.0
H2806 H 0.58645 0.03054 0.20421 0.0
H2807 H 0.57653 1.0056 0.15634 0.0
C2808 C 0.62038 0.06704 0.29555 0.0
C2809 C 0.61785 0.06496 0.33852 0.0
C2810 C 0.61217 0.05251 0.26809 0.0
C2811 C 0.60154 0.03507 0.28241 0.0
C2812 C 0.59881 0.03305 0.32544 0.0
C2813 C 0.60667 0.04764 0.35278 0.0
C2814 C 0.58933 0.98955 0.23568 0.0
C2815 C 0.58245 0.98961 0.19646 0.0
C2816 C 0.59482 1.0038 0.26354 0.0
C2817 C 0.59425 1.01914 0.25314 0.0
C2818 C 0.58725 1.01917 0.21389 0.0
C2819 C 0.58131 1.00466 0.18636 0.0
H2820 H 0.43802 0.98633 0.7267 0.0
H2821 H 0.48898 0.99774 0.68277 0.0
H2822 H 0.45178 1.01095 0.77407 0.0
H2823 H 0.50304 1.02271 0.73144 0.0
H2824 H 0.51945 0.05877 0.85652 0.0
H2825 H 0.50891 0.03384 0.80784 0.0
H2826 H 0.467 0.04281 0.77018 0.0
H2827 H 0.47748 0.0674 0.81752 0.0
C2828 C 0.45226 0.99396 0.72729 0.0
C2829 C 0.46216 0.98969 0.70016 0.0
C2830 C 0.46026 1.00837 0.75464 0.0
C2831 C 0.47871 1.01938 0.75692 0.0
C2832 C 0.48882 1.01474 0.73111 0.0
C2833 C 0.48071 1.00027 0.70305 0.0
C2834 C 0.50817 0.05562 0.83735 0.0
C2835 C 0.49943 0.06542 0.84163 0.0
C2836 C 0.50203 0.04118 0.80928 0.0
C2837 C 0.48675 0.03577 0.78487 0.0
C2838 C 0.47851 0.04599 0.78853 0.0
C2839 C 0.48469 0.06039 0.81587 0.0
H2840 H 0.08434 0.4633 0.7222 0.0
H2841 H 0.07495 0.50477 0.68363 0.0
H2842 H 0.05954 0.45232 0.76916 0.0
H2843 H 0.04977 0.4937 0.73173 0.0
H2844 H 1.01284 0.47355 0.85419 0.0
H2845 H 1.038 0.48771 0.80605 0.0
H2846 H 1.02797 0.43662 0.76719 0.0
H2847 H 1.00318 0.42275 0.81419 0.0
C2848 C 0.07711 0.47029 0.72385 0.0
C2849 C 0.08203 0.48508 0.69839 0.0
C2850 C 0.06257 0.4638 0.75094 0.0
C2851 C 0.05205 0.47175 0.7546 0.0
C2852 C 0.05731 0.48703 0.73035 0.0
C2853 C 0.07191 0.49348 0.70259 0.0
C2854 C 1.01581 0.46533 0.8349 0.0
C2855 C 1.00564 0.4468 0.83874 0.0
C2856 C 1.0304 0.4735 0.80712 0.0
C2857 C 1.03559 0.46351 0.78248 0.0
C2858 C 1.025 0.44505 0.78573 0.0
C2859 C 1.01047 0.43697 0.81286 0.0
H2860 H 0.5888 0.59116 0.65004 0.0
H2861 H 0.57684 0.6139 0.75338 0.0
H2862 H 0.6 0.57707 0.69685 0.0
H2863 H 0.5875 0.59938 0.80045 0.0
H2864 H 0.59828 0.56025 0.87733 0.0
H2865 H 0.58341 0.5704 0.82963 0.0
H2866 H 0.62625 0.58682 0.74388 0.0
H2867 H 0.64126 0.57724 0.79202 0.0
C2868 C 0.5879 0.59265 0.68284 0.0
C2869 C 0.58126 0.60335 0.69751 0.0
C2870 C 0.59463 0.58473 0.70994 0.0
C2871 C 0.59482 0.58691 0.7531 0.0
C2872 C 0.58753 0.59706 0.76779 0.0
C2873 C 0.58121 0.60535 0.7406 0.0
C2874 C 0.6044 0.56569 0.84796 0.0
C2875 C 0.62098 0.56752 0.83866 0.0
C2876 C 0.59591 0.57175 0.82056 0.0
C2877 C 0.60342 0.57954 0.78219 0.0
C2878 C 0.61974 0.58081 0.77252 0.0
C2879 C 0.62841 0.57521 0.80032 0.0
H2880 H 0.21895 0.23241 0.35286 0.0
H2881 H 0.25871 0.28499 0.32047 0.0
H2882 H 0.23107 0.22058 0.30241 0.0
H2883 H 0.27143 0.27315 0.27135 0.0
H2884 H 0.29897 0.2419 0.2154 0.0
H2885 H 0.28754 0.25499 0.26483 0.0
H2886 H 0.23468 0.2185 0.22574 0.0
H2887 H 0.24616 0.20616 0.17503 0.0
C2888 C 0.23034 0.24159 0.33519 0.0
C2889 C 0.23763 0.25988 0.3417 0.0
C2890 C 0.23738 0.23471 0.30586 0.0
C2891 C 0.25247 0.24569 0.282 0.0
C2892 C 0.25996 0.26401 0.28882 0.0
C2893 C 0.25257 0.27092 0.31741 0.0
C2894 C 0.28493 0.23676 0.21674 0.0
C2895 C 0.2737 0.22286 0.1901 0.0
C2896 C 0.27827 0.24432 0.24552 0.0
C2897 C 0.25997 0.23799 0.25016 0.0
C2898 C 0.24879 0.22389 0.22401 0.0
C2899 C 0.25546 0.21672 0.19453 0.0
H2900 H 0.8719 0.06729 0.20926 0.0
H2901 H 0.81992 0.05761 0.18132 0.0
H2902 H 0.8596 0.04277 0.25731 0.0
H2903 H 0.80737 0.03322 0.23071 0.0
H2904 H 0.7872 0.98046 0.30404 0.0
H2905 H 0.79855 1.00473 0.25417 0.0
H2906 H 0.84801 0.03044 0.31921 0.0
H2907 H 0.83675 1.00618 0.36778 0.0
C2908 C 0.85776 0.06007 0.21359 0.0
C2909 C 0.84715 0.06502 0.19109 0.0
C2910 C 0.85055 0.04581 0.2419 0.0
C2911 C 0.83219 0.03551 0.24959 0.0
C2912 C 0.8215 0.04037 0.22655 0.0
C2913 C 0.82879 0.05471 0.1981 0.0
C2914 C 0.80051 0.99128 0.30774 0.0
C2915 C 0.81093 0.99093 0.34054 0.0
C2916 C 0.80714 1.00547 0.27886 0.0
C2917 C 0.82456 1.02009 0.28118 0.0
C2918 C 0.83477 1.01966 0.31449 0.0
C2919 C 0.82818 1.00554 0.3431 0.0
H2920 H 1.00487 0.7723 0.20475 0.0
H2921 H 1.01365 0.82439 0.18379 0.0
H2922 H 1.02934 0.78412 0.25424 0.0
H2923 H 1.03759 0.83616 0.2342 0.0
H2924 H 0.06754 0.849 0.36007 0.0
H2925 H 0.04365 0.83664 0.30957 0.0
H2926 H 0.063 0.80372 0.26205 0.0
H2927 H 0.08747 0.81677 0.31165 0.0
C2928 C 1.01183 0.78624 0.21068 0.0
C2929 C 1.00684 0.79717 0.18962 0.0
C2930 C 1.0261 0.79315 0.23928 0.0
C2931 C 1.0358 0.81131 0.24917 0.0
C2932 C 1.03062 0.82215 0.22838 0.0
C2933 C 1.01673 0.81531 0.19906 0.0
C2934 C 0.06691 0.83924 0.33874 0.0
C2935 C 0.07979 0.83405 0.34077 0.0
C2936 C 0.05304 0.83206 0.30939 0.0
C2937 C 0.05097 0.81896 0.28092 0.0
C2938 C 0.06376 0.81362 0.28315 0.0
C2939 C 0.07798 0.82119 0.31187 0.0
H2940 H 0.85824 0.82235 0.66226 0.0
H2941 H 0.83396 0.77266 0.72512 0.0
H2942 H 0.84542 0.83365 0.71142 0.0
H2943 H 0.82127 0.78402 0.77554 0.0
H2944 H 0.79038 0.80549 0.85019 0.0
H2945 H 0.8019 0.79298 0.79984 0.0
H2946 H 0.84486 0.84509 0.77362 0.0
H2947 H 0.8329 0.85735 0.8226 0.0
C2948 C 0.85026 0.81376 0.68687 0.0
C2949 C 0.84744 0.79647 0.68909 0.0
C2950 C 0.84284 0.82037 0.71581 0.0
C2951 C 0.83216 0.81012 0.74906 0.0
C2952 C 0.82917 0.79265 0.75095 0.0
C2953 C 0.83661 0.78602 0.72178 0.0
C2954 C 0.80214 0.81433 0.8333 0.0
C2955 C 0.81036 0.83265 0.8407 0.0
C2956 C 0.80901 0.80707 0.80429 0.0
C2957 C 0.82453 0.81774 0.7811 0.0
C2958 C 0.83276 0.83606 0.78915 0.0
C2959 C 0.82588 0.84325 0.81799 0.0
H2960 H 0.26401 0.9946 0.83889 0.0
H2961 H 0.21378 0.99171 0.83079 0.0
H2962 H 0.27648 1.01917 0.7901 0.0
H2963 H 0.22597 1.01611 0.78205 0.0
H2964 H 0.24696 0.05059 0.66644 0.0
H2965 H 0.2356 1.02654 0.71585 0.0
H2966 H 0.28687 0.04925 0.77201 0.0
H2967 H 0.29823 0.07347 0.72196 0.0
C2968 C 0.25557 0.99921 0.82711 0.0
C2969 C 0.23776 0.99085 0.83977 0.0
C2970 C 0.26278 1.01352 0.79869 0.0
C2971 C 0.25248 1.02014 0.7809 0.0
C2972 C 0.23462 1.01166 0.79367 0.0
C2973 C 0.22751 0.99749 0.82225 0.0
C2974 C 0.25592 0.05063 0.68935 0.0
C2975 C 0.27368 0.06437 0.68942 0.0
C2976 C 0.24928 0.03665 0.71833 0.0
C2977 C 0.26002 0.03545 0.74922 0.0
C2978 C 0.27791 0.04918 0.7491 0.0
C2979 C 0.28454 0.0633 0.7201 0.0
H2980 H 1.00352 0.19828 0.70857 0.0
H2981 H 1.01153 0.24975 0.68285 0.0
H2982 H 1.02781 0.21084 0.75742 0.0
H2983 H 1.0358 0.26259 0.73279 0.0
H2984 H 0.08924 0.28298 0.80415 0.0
H2985 H 0.06495 0.27149 0.75432 0.0
H2986 H 1.0389 0.22253 0.821 0.0
H2987 H 0.06313 0.23399 0.86993 0.0
C2988 C 1.01035 0.21235 0.71352 0.0
C2989 C 1.00511 0.22279 0.69137 0.0
C2990 C 1.02444 0.2197 0.74221 0.0
C2991 C 1.03423 0.238 0.75052 0.0
C2992 C 1.02904 0.24852 0.72796 0.0
C2993 C 1.01484 0.24109 0.69919 0.0
C2994 C 0.07834 0.26976 0.80827 0.0
C2995 C 0.07854 0.25953 0.84163 0.0
C2996 C 0.06416 0.26307 0.77943 0.0
C2997 C 0.0495 0.24574 0.78227 0.0
C2998 C 0.04977 0.2357 0.81607 0.0
C2999 C 0.06385 0.24239 0.84479 0.0
H3000 H 0.8861 0.56492 0.68824 0.0
H3001 H 0.92608 0.61761 0.65738 0.0
H3002 H 0.8985 0.55324 0.63813 0.0
H3003 H 0.93911 0.6059 0.60859 0.0
H3004 H 0.96683 0.57436 0.55441 0.0
H3005 H 0.95513 0.58731 0.60363 0.0
H3006 H 0.90259 0.55185 0.56087 0.0
H3007 H 0.91432 0.53966 0.51044 0.0
C3008 C 0.8976 0.57415 0.67096 0.0
C3009 C 0.90488 0.59242 0.67771 0.0
C3010 C 0.9048 0.56736 0.64186 0.0
C3011 C 0.92004 0.57842 0.61857 0.0
C3012 C 0.92751 0.59672 0.62564 0.0
C3013 C 0.91995 0.60354 0.65395 0.0
C3014 C 0.95281 0.56946 0.55484 0.0
C3015 C 0.94174 0.55592 0.52726 0.0
C3016 C 0.946 0.57692 0.5835 0.0
C3017 C 0.92771 0.57083 0.58699 0.0
C3018 C 0.91668 0.55705 0.55996 0.0
C3019 C 0.92351 0.54998 0.53066 0.0
H3020 H 0.49805 0.40515 0.55542 0.0
H3021 H 0.53185 0.38677 0.50844 0.0
H3022 H 0.48474 0.38011 0.60343 0.0
H3023 H 0.51951 0.36262 0.55841 0.0
H3024 H 0.506 0.33653 0.69546 0.0
H3025 H 0.51792 0.36075 0.64562 0.0
H3026 H 0.46608 0.34157 0.59587 0.0
H3027 H 0.45432 0.31649 0.64371 0.0
C3028 C 0.50265 0.39582 0.55482 0.0
C3029 C 0.51599 0.3982 0.52663 0.0
C3030 C 0.49501 0.38136 0.58288 0.0
C3031 C 0.50082 0.36895 0.58531 0.0
C3032 C 0.51448 0.37164 0.55797 0.0
C3033 C 0.52166 0.38569 0.52906 0.0
C3034 C 0.49701 0.33726 0.67385 0.0
C3035 C 0.47892 0.32429 0.67495 0.0
C3036 C 0.50395 0.35135 0.64503 0.0
C3037 C 0.49311 0.35359 0.6164 0.0
C3038 C 0.47499 0.3407 0.61747 0.0
C3039 C 0.46813 0.32623 0.64548 0.0
H3040 H 0.6704 0.1524 0.54236 0.0
H3041 H 0.67866 0.10906 0.5168 0.0
H3042 H 0.69481 0.16436 0.59084 0.0
H3043 H 0.70301 0.1207 0.56646 0.0
H3044 H 0.75605 0.15315 0.63975 0.0
H3045 H 0.73188 0.14041 0.58947 0.0
H3046 H 0.70643 0.1646 0.65369 0.0
H3047 H 0.73054 0.17737 0.70279 0.0
C3048 C 0.6773 0.14522 0.54726 0.0
C3049 C 0.67204 0.12948 0.52527 0.0
C3050 C 0.69149 0.1521 0.57579 0.0
C3051 C 0.70137 0.14369 0.58421 0.0
C3052 C 0.69619 0.12795 0.56169 0.0
C3053 C 0.68191 0.12105 0.53305 0.0
C3054 C 0.74531 0.15577 0.64321 0.0
C3055 C 0.74567 0.16657 0.67597 0.0
C3056 C 0.73119 0.14832 0.61409 0.0
C3057 C 0.71669 0.15132 0.61607 0.0
C3058 C 0.71714 0.162 0.64929 0.0
C3059 C 0.73116 0.16939 0.67819 0.0
H3060 H 0.50009 0.19188 0.15746 0.0
H3061 H 0.45632 0.14038 0.18182 0.0
H3062 H 0.51217 0.17938 0.10927 0.0
H3063 H 0.46813 0.1276 0.13269 0.0
H3064 H 0.5018 0.10733 0.0633 0.0
H3065 H 0.4887 0.11878 0.1125 0.0
H3066 H 0.51185 0.16767 0.04554 0.0
H3067 H 0.52484 0.15622 0.99711 0.0
C3068 C 0.49286 0.17781 0.15237 0.0
C3069 C 0.47697 0.16735 0.17391 0.0
C3070 C 0.49981 0.1705 0.12408 0.0
C3071 C 0.49133 0.15221 0.11564 0.0
C3072 C 0.47543 0.14167 0.13763 0.0
C3073 C 0.46843 0.14906 0.16593 0.0
C3074 C 0.50411 0.12053 0.05897 0.0
C3075 C 0.51465 0.13072 0.02562 0.0
C3076 C 0.49646 0.1272 0.08745 0.0
C3077 C 0.49908 0.14449 0.08433 0.0
C3078 C 0.50955 0.15452 0.05063 0.0
C3079 C 0.51708 0.14783 0.02222 0.0
H3080 H 0.93123 0.33199 0.18536 0.0
H3081 H 0.87924 0.32134 0.1537 0.0
H3082 H 0.94393 0.35622 0.13553 0.0
H3083 H 0.89168 0.34567 0.10499 0.0
H3084 H 0.91549 0.3819 0.99393 0.0
H3085 H 0.90405 0.35768 0.04279 0.0
H3086 H 0.95221 0.38478 0.11244 0.0
H3087 H 0.96371 0.40905 0.06261 0.0
C3088 C 0.9224 0.33464 0.16764 0.0
C3089 C 0.90399 0.32414 0.17379 0.0
C3090 C 0.92976 0.34888 0.13894 0.0
C3091 C 0.91911 0.3534 0.11474 0.0
C3092 C 0.9007 0.34287 0.12144 0.0
C3093 C 0.89341 0.32873 0.15007 0.0
C3094 C 0.92373 0.38285 0.01968 0.0
C3095 C 0.94068 0.39783 0.02355 0.0
C3096 C 0.91703 0.36876 0.0484 0.0
C3097 C 0.92684 0.36875 0.08304 0.0
C3098 C 0.94396 0.38373 0.08666 0.0
C3099 C 0.95068 0.3979 0.05775 0.0
H3100 H 0.74035 0.6133 0.18217 0.0
H3101 H 0.74878 0.57006 0.15678 0.0
H3102 H 0.71613 0.60169 0.13219 0.0
H3103 H 0.72448 0.55811 0.10795 0.0
H3104 H 0.68873 0.54509 0.99585 0.0
H3105 H 0.71291 0.55793 0.04488 0.0
H3106 H 0.6873 0.58185 0.10953 0.0
H3107 H 0.66309 0.56901 0.05951 0.0
C3108 C 0.73717 0.60135 0.16586 0.0
C3109 C 0.74704 0.59293 0.17379 0.0
C3110 C 0.72296 0.59445 0.13706 0.0
C3111 C 0.71786 0.57874 0.11454 0.0
C3112 C 0.72775 0.57034 0.12304 0.0
C3113 C 0.74187 0.57722 0.15175 0.0
C3114 C 0.6881 0.55303 0.02054 0.0
C3115 C 0.67355 0.55575 0.02299 0.0
C3116 C 0.70216 0.56045 0.04937 0.0
C3117 C 0.70257 0.57109 0.08268 0.0
C3118 C 0.68802 0.574 0.08483 0.0
C3119 C 0.67389 0.5665 0.05583 0.0
H3120 H 0.63225 0.90648 0.88381 0.0
H3121 H 0.57957 0.8725 0.84003 0.0
H3122 H 0.62101 0.91974 0.93328 0.0
H3123 H 0.56823 0.88499 0.89086 0.0
H3124 H 0.55304 0.89827 0.02034 0.0
H3125 H 0.56485 0.88632 0.96938 0.0
H3126 H 0.60517 0.93881 0.93758 0.0
H3127 H 0.59271 0.95081 0.98726 0.0
C3128 C 0.61826 0.90173 0.88455 0.0
C3129 C 0.60701 0.88833 0.8569 0.0
C3130 C 0.61173 0.90941 0.91324 0.0
C3131 C 0.59352 0.90362 0.91683 0.0
C3132 C 0.58228 0.88995 0.88979 0.0
C3133 C 0.58886 0.88269 0.86032 0.0
C3134 C 0.56434 0.9074 1.00238 0.0
C3135 C 0.57174 0.9257 1.00877 0.0
C3136 C 0.57119 0.90046 0.9728 0.0
C3137 C 0.58618 0.9114 0.94868 0.0
C3138 C 0.59375 0.92974 0.9553 0.0
C3139 C 0.58652 0.93671 0.98409 0.0
H3140 H 0.11951 0.65159 0.98215 0.0
H3141 H 0.17212 0.6688 0.02444 0.0
H3142 H 0.1312 0.67615 0.93282 0.0
H3143 H 0.18384 0.69259 0.9737 0.0
H3144 H 0.19925 0.72129 0.8445 0.0
H3145 H 0.18698 0.69738 0.89501 0.0
H3146 H 0.14806 0.71122 0.92915 0.0
H3147 H 0.16102 0.73583 0.88009 0.0
C3148 C 0.13355 0.66056 0.98135 0.0
C3149 C 0.14465 0.65797 1.00853 0.0
C3150 C 0.14035 0.67477 0.9526 0.0
C3151 C 0.15866 0.68675 0.94855 0.0
C3152 C 0.16973 0.68387 0.97512 0.0
C3153 C 0.16291 0.67004 1.00457 0.0
C3154 C 0.18816 0.71945 0.86289 0.0
C3155 C 0.18132 0.73088 0.85733 0.0
C3156 C 0.18103 0.70556 0.8922 0.0
C3157 C 0.16629 0.70193 0.91685 0.0
C3158 C 0.15926 0.71322 0.91101 0.0
C3159 C 0.16678 0.72751 0.88254 0.0
H3160 H 0.41647 0.5239 0.98963 0.0
H3161 H 0.40571 0.47181 0.01953 0.0
H3162 H 0.39225 0.51178 0.94062 0.0
H3163 H 0.38175 0.45943 0.96912 0.0
H3164 H 0.32949 0.4398 0.89456 0.0
H3165 H 0.35352 0.45104 0.945 0.0
H3166 H 0.38034 0.5 0.87839 0.0
H3167 H 0.35626 0.48885 0.82917 0.0
C3168 C 0.40908 0.50978 0.98552 0.0
C3169 C 0.41363 0.49906 1.00878 0.0
C3170 C 0.39503 0.50267 0.95667 0.0
C3171 C 0.38458 0.48433 0.94925 0.0
C3172 C 0.38904 0.47355 0.97306 0.0
C3173 C 0.40316 0.48073 1.00205 0.0
C3174 C 0.3405 0.45299 0.89067 0.0
C3175 C 0.34052 0.46331 0.85729 0.0
C3176 C 0.35455 0.45954 0.91984 0.0
C3177 C 0.36937 0.47679 0.91723 0.0
C3178 C 0.36935 0.48691 0.88329 0.0
C3179 C 0.35535 0.48038 0.85435 0.0
H3180 H 0.16508 0.49965 0.54879 0.0
H3181 H 0.1266 0.49635 0.46194 0.0
H3182 H 0.17583 0.48641 0.49837 0.0
H3183 H 0.1379 0.48375 0.41061 0.0
H3184 H 0.17945 0.48206 0.31662 0.0
H3185 H 0.16636 0.49293 0.36718 0.0
H3186 H 0.16684 0.4574 0.45746 0.0
H3187 H 0.17927 0.44594 0.40606 0.0
C3188 C 0.15886 0.49617 0.51887 0.0
C3189 C 0.14484 0.49929 0.51012 0.0
C3190 C 0.16506 0.48842 0.48968 0.0
C3191 C 0.15797 0.48386 0.44956 0.0
C3192 C 0.14396 0.48704 0.4407 0.0
C3193 C 0.13736 0.49429 0.47045 0.0
C3194 C 0.17669 0.47639 0.34715 0.0
C3195 C 0.18064 0.463 0.35658 0.0
C3196 C 0.16903 0.48266 0.37642 0.0
C3197 C 0.16541 0.47629 0.41727 0.0
C3198 C 0.1694 0.46289 0.42679 0.0
C3199 C 0.17654 0.4562 0.39701 0.0
H3200 H 0.58209 0.71529 0.33035 0.0
H3201 H 0.63165 0.74174 0.39397 0.0
H3202 H 0.57106 0.69128 0.37952 0.0
H3203 H 0.62048 0.71775 0.44462 0.0
H3204 H 0.59944 0.6654 0.51939 0.0
H3205 H 0.61188 0.6895 0.46924 0.0
H3206 H 0.5595 0.67928 0.44142 0.0
H3207 H 0.54734 0.65502 0.4901 0.0
C3208 C 0.59071 0.71614 0.35515 0.0
C3209 C 0.60788 0.73087 0.35752 0.0
C3210 C 0.58424 0.70219 0.38412 0.0
C3211 C 0.5945 0.70206 0.41766 0.0
C3212 C 0.61186 0.71679 0.41978 0.0
C3213 C 0.61838 0.73082 0.39048 0.0
C3214 C 0.59053 0.66809 0.50217 0.0
C3215 C 0.57217 0.65769 0.509 0.0
C3216 C 0.59774 0.68226 0.47328 0.0
C3217 C 0.58698 0.68684 0.44968 0.0
C3218 C 0.56862 0.67644 0.45723 0.0
C3219 C 0.56148 0.66234 0.4859 0.0
H3220 H 0.40277 0.89811 0.52443 0.0
H3221 H 0.41764 0.95088 0.48888 0.0
H3222 H 0.37882 0.88656 0.47398 0.0
H3223 H 0.39308 0.93938 0.43987 0.0
H3224 H 0.33442 0.90962 0.38339 0.0
H3225 H 0.35878 0.92222 0.43342 0.0
H3226 H 0.37336 0.88409 0.39714 0.0
H3227 H 0.34971 0.87216 0.34606 0.0
C3228 C 0.40101 0.90739 0.50608 0.0
C3229 C 0.41257 0.92565 0.51167 0.0
C3230 C 0.38709 0.90068 0.47677 0.0
C3231 C 0.38357 0.91183 0.45207 0.0
C3232 C 0.39496 0.93012 0.45801 0.0
C3233 C 0.40924 0.93683 0.48655 0.0
C3234 C 0.34289 0.90399 0.38557 0.0
C3235 C 0.3398 0.88977 0.35963 0.0
C3236 C 0.35701 0.91127 0.41463 0.0
C3237 C 0.36843 0.90436 0.42016 0.0
C3238 C 0.36507 0.88993 0.3947 0.0
C3239 C 0.35132 0.88301 0.365 0.0
H3240 H 0.28637 0.30935 0.07504 0.0
H3241 H 0.31748 0.33169 0.18465 0.0
H3242 H 0.29156 0.33837 0.05547 0.0
H3243 H 0.32198 0.36019 0.16605 0.0
H3244 H 0.34928 0.38602 1.01516 0.0
H3245 H 0.32279 0.35905 0.03293 0.0
H3246 H 0.31626 0.38387 0.14084 0.0
H3247 H 0.34274 0.41128 0.12227 0.0
C3248 C 0.29366 0.32026 0.09585 0.0
C3249 C 0.30229 0.31839 0.13029 0.0
C3250 C 0.29648 0.33684 0.08477 0.0
C3251 C 0.30767 0.35164 0.10846 0.0
C3252 C 0.3134 0.34909 0.14685 0.0
C3253 C 0.31082 0.33261 0.1576 0.0
C3254 C 0.34174 0.3861 0.04145 0.0
C3255 C 0.3485 0.40055 0.06825 0.0
C3256 C 0.32641 0.37057 0.05166 0.0
C3257 C 0.31773 0.3692 0.08903 0.0
C3258 C 0.3229 0.38448 0.11229 0.0
C3259 C 0.33815 0.4001 0.10183 0.0
H3260 H 0.68585 0.97676 1.00362 0.0
H3261 H 0.65473 0.94958 0.11008 0.0
H3262 H 0.71175 0.97881 0.03623 0.0
H3263 H 0.68067 0.95165 0.1428 0.0
H3264 H 0.73032 1.00764 0.18652 0.0
H3265 H 0.70283 0.98317 0.16389 0.0
H3266 H 0.73038 0.96852 0.07682 0.0
H3267 H 0.75839 0.99261 0.10145 0.0
C3268 C 0.6844 0.97049 0.03315 0.0
C3269 C 0.66847 0.96346 0.05479 0.0
C3270 C 0.69919 0.97148 0.05176 0.0
C3271 C 0.69827 0.96571 0.09248 0.0
C3272 C 0.68174 0.95632 0.11154 0.0
C3273 C 0.6669 0.95515 0.09273 0.0
C3274 C 0.7308 0.99871 0.16434 0.0
C3275 C 0.74659 1.00267 0.14443 0.0
C3276 C 0.71489 0.98454 0.15127 0.0
C3277 C 0.71445 0.97427 0.11767 0.0
C3278 C 0.73037 0.97646 0.10228 0.0
C3279 C 0.74637 0.99042 0.11607 0.0
H3280 H 0.07864 0.78097 0.14864 0.0
H3281 H 0.05473 0.73781 0.23467 0.0
H3282 H 0.10262 0.77494 0.13768 0.0
H3283 H 0.07873 0.73228 0.22489 0.0
H3284 H 0.09403 0.7231 0.06566 0.0
H3285 H 0.09273 0.74735 0.09704 0.0
H3286 H 0.10842 0.73596 0.21351 0.0
H3287 H 0.11018 0.71172 0.18156 0.0
C3288 C 0.0789 0.77074 0.16666 0.0
C3289 C 0.06428 0.75921 0.19067 0.0
C3290 C 0.09271 0.76739 0.16058 0.0
C3291 C 0.09212 0.75265 0.17899 0.0
C3292 C 0.07947 0.74358 0.20965 0.0
C3293 C 0.06557 0.74678 0.21532 0.0
C3294 C 0.09801 0.7262 0.09747 0.0
C3295 C 0.10158 0.71509 0.12146 0.0
C3296 C 0.09738 0.74026 0.11555 0.0
C3297 C 0.10014 0.74337 0.15806 0.0
C3298 C 0.10598 0.7337 0.18084 0.0
C3299 C 0.10675 0.7197 0.16263 0.0
H3300 H 0.40062 0.33541 0.49107 0.0
H3301 H 0.42847 0.34023 0.37788 0.0
H3302 H 0.37448 0.31064 0.46299 0.0
H3303 H 0.40188 0.31553 0.34911 0.0
H3304 H 0.32616 0.27708 0.41107 0.0
H3305 H 0.3554 0.28178 0.42672 0.0
H3306 H 0.37757 0.32177 0.33278 0.0
H3307 H 0.34884 0.31769 0.31841 0.0
C3308 C 0.40143 0.33072 0.46082 0.0
C3309 C 0.41639 0.34022 0.4361 0.0
C3310 C 0.38639 0.31637 0.44467 0.0
C3311 C 0.386 0.31141 0.40339 0.0
C3312 C 0.40174 0.31927 0.38077 0.0
C3313 C 0.41687 0.33354 0.39709 0.0
C3314 C 0.33723 0.28647 0.39282 0.0
C3315 C 0.33532 0.2977 0.36507 0.0
C3316 C 0.35393 0.289 0.40153 0.0
C3317 C 0.36881 0.30256 0.38202 0.0
C3318 C 0.36638 0.3113 0.3487 0.0
C3319 C 0.34977 0.30897 0.34044 0.0
H3320 H 0.76205 0.05608 0.3929 0.0
H3321 H 0.77836 0.04412 0.50781 0.0
H3322 H 0.76081 0.08021 0.4254 0.0
H3323 H 0.77669 0.06821 0.54082 0.0
H3324 H 0.72217 0.06844 0.56255 0.0
H3325 H 0.7463 0.06332 0.5514 0.0
H3326 H 0.77042 0.10754 0.46847 0.0
H3327 H 0.74642 0.11337 0.48131 0.0
C3328 C 0.76611 0.05905 0.42469 0.0
C3329 C 0.76963 0.04778 0.44818 0.0
C3330 C 0.76552 0.07303 0.44339 0.0
C3331 C 0.76827 0.07586 0.48597 0.0
C3332 C 0.77425 0.06615 0.50811 0.0
C3333 C 0.77497 0.05223 0.4893 0.0
C3334 C 0.73303 0.07782 0.54386 0.0
C3335 C 0.7318 0.09073 0.52095 0.0
C3336 C 0.74703 0.07486 0.53745 0.0
C3337 C 0.75987 0.08459 0.50765 0.0
C3338 C 0.7604 0.09954 0.49075 0.0
C3339 C 0.74653 0.10273 0.4978 0.0
H3340 H 1.01683 0.74749 0.38583 0.0
H3341 H 1.02762 0.72301 0.28321 0.0
H3342 H 0.99278 0.71918 0.40667 0.0
H3343 H 1.00417 0.6946 0.3055 0.0
H3344 H 0.97454 0.64455 0.36406 0.0
H3345 H 0.9766 0.67057 0.33154 0.0
H3346 H 1.00268 0.70102 0.43982 0.0
H3347 H 1.00087 0.6754 0.4716 0.0
C3348 C 1.01364 0.73627 0.36643 0.0
C3349 C 1.02479 0.73741 0.33397 0.0
C3350 C 0.99983 0.71995 0.37869 0.0
C3351 C 0.9972 0.70457 0.35911 0.0
C3352 C 1.00606 0.70613 0.32194 0.0
C3353 C 1.01973 0.72248 0.30936 0.0
C3354 C 0.98036 0.65676 0.38116 0.0
C3355 C 0.98807 0.65808 0.41987 0.0
C3356 C 0.98138 0.6716 0.36266 0.0
C3357 C 0.99006 0.68794 0.3827 0.0
C3358 C 0.99576 0.68866 0.42344 0.0
C3359 C 0.99482 0.6739 0.44177 0.0
H3360 H 0.72955 0.63836 0.91067 0.0
H3361 H 0.73744 0.67032 0.01803 0.0
H3362 H 0.75236 0.66398 0.87434 0.0
H3363 H 0.76036 0.69585 0.98204 0.0
H3364 H 0.79339 0.74164 0.91352 0.0
H3365 H 0.78866 0.71319 0.9367 0.0
H3366 H 0.74326 0.6871 0.85765 0.0
H3367 H 0.74709 0.71508 0.8367 0.0
C3368 C 0.73682 0.65066 0.92721 0.0
C3369 C 0.73157 0.65255 0.9668 0.0
C3370 C 0.74987 0.66529 0.90639 0.0
C3371 C 0.75793 0.68191 0.92515 0.0
C3372 C 0.75444 0.68319 0.96682 0.0
C3373 C 0.74121 0.66863 0.98739 0.0
C3374 C 0.78263 0.72984 0.9003 0.0
C3375 C 0.77007 0.7307 0.87494 0.0
C3376 C 0.78011 0.71357 0.91322 0.0
C3377 C 0.76536 0.698 0.89975 0.0
C3378 C 0.75474 0.6989 0.86868 0.0
C3379 C 0.75698 0.71511 0.85659 0.0
H3380 H 0.32685 0.05227 0.95848 0.0
H3381 H 0.35972 0.05452 0.85714 0.0
H3382 H 0.35245 0.07574 0.99301 0.0
H3383 H 0.38533 0.07749 0.89203 0.0
H3384 H 0.43091 0.1076 0.95763 0.0
H3385 H 0.40437 0.10475 0.92725 0.0
H3386 H 0.37353 0.06951 0.02512 0.0
H3387 H 0.40006 0.07289 0.05629 0.0
C3388 C 0.33942 0.05827 0.94275 0.0
C3389 C 0.34143 0.05124 0.90564 0.0
C3390 C 0.3541 0.07168 0.9627 0.0
C3391 C 0.371 0.07816 0.94593 0.0
C3392 C 0.37256 0.07282 0.90607 0.0
C3393 C 0.35789 0.05946 0.88615 0.0
C3394 C 0.41861 0.10001 0.974 0.0
C3395 C 0.41751 0.08992 1.00863 0.0
C3396 C 0.40334 0.09829 0.95629 0.0
C3397 C 0.38679 0.08636 0.97277 0.0
C3398 C 0.38603 0.07868 1.0112 0.0
C3399 C 0.40129 0.08046 0.029 0.0
H3400 H 0.9694 0.33943 0.91192 0.0
H3401 H 1.00088 0.33814 1.01222 0.0
H3402 H 0.97213 0.31637 0.87684 0.0
H3403 H 1.00406 0.31556 0.97697 0.0
H3404 H 1.01825 0.28409 0.91201 0.0
H3405 H 0.99531 0.28791 0.94339 0.0
H3406 H 0.99913 0.32202 0.84352 0.0
H3407 H 1.02146 0.31751 0.81111 0.0
C3408 C 0.97632 0.33373 0.92723 0.0
C3409 C 0.98532 0.34084 0.96431 0.0
C3410 C 0.97796 0.32059 0.90699 0.0
C3411 C 0.98863 0.31439 0.92355 0.0
C3412 C 0.9957 0.31995 0.96317 0.0
C3413 C 0.99408 0.33308 0.98331 0.0
C3414 C 1.01355 0.29162 0.89547 0.0
C3415 C 1.02216 0.30107 0.85977 0.0
C3416 C 1.00046 0.29393 0.91378 0.0
C3417 C 0.99591 0.30583 0.8969 0.0
C3418 C 1.00243 0.31291 0.85774 0.0
C3419 C 1.01542 0.31048 0.83925 0.0
H3420 H 0.73552 0.74714 0.70258 0.0
H3421 H 0.76575 0.77375 0.59466 0.0
H3422 H 0.70934 0.74488 0.67106 0.0
H3423 H 0.73953 0.77148 0.56299 0.0
H3424 H 0.66209 0.73031 0.60761 0.0
H3425 H 0.6902 0.75449 0.63151 0.0
H3426 H 0.71733 0.74011 0.54257 0.0
H3427 H 0.68974 0.71562 0.52047 0.0
C3428 C 0.73672 0.75326 0.67296 0.0
C3429 C 0.75246 0.76016 0.65059 0.0
C3430 C 0.72177 0.75213 0.65494 0.0
C3431 C 0.72234 0.75765 0.61411 0.0
C3432 C 0.73872 0.76698 0.59433 0.0
C3433 C 0.75373 0.76828 0.61253 0.0
C3434 C 0.67404 0.73258 0.59244 0.0
C3435 C 0.67369 0.72045 0.56354 0.0
C3436 C 0.6901 0.74658 0.60583 0.0
C3437 C 0.70595 0.7489 0.58963 0.0
C3438 C 0.70534 0.73867 0.55577 0.0
C3439 C 0.68937 0.72449 0.54303 0.0
H3440 H 0.36289 0.98554 0.47382 0.0
H3441 H 0.34094 0.94288 0.56152 0.0
H3442 H 0.33836 0.99014 0.48459 0.0
H3443 H 0.31646 0.94808 0.57361 0.0
H3444 H 0.30553 1.00889 0.52525 0.0
H3445 H 0.30785 0.9846 0.49552 0.0
H3446 H 0.32531 0.97597 0.61275 0.0
H3447 H 0.32342 1.00028 0.64195 0.0
C3448 C 0.35241 0.97651 0.49391 0.0
C3449 C 0.35436 0.96443 0.5184 0.0
C3450 C 0.33819 0.97915 0.5001 0.0
C3451 C 0.32584 0.96991 0.5312 0.0
C3452 C 0.32607 0.95569 0.55021 0.0
C3453 C 0.3402 0.95286 0.54355 0.0
C3454 C 0.3094 1.00146 0.54489 0.0
C3455 C 0.31499 1.00693 0.58548 0.0
C3456 C 0.31051 0.98743 0.52797 0.0
C3457 C 0.31713 0.97864 0.55149 0.0
C3458 C 0.32012 0.98243 0.59371 0.0
C3459 C 0.31915 0.99652 0.61051 0.0
H3460 H 0.10362 0.41333 0.69502 0.0
H3461 H 0.09446 0.38493 0.58086 0.0
H3462 H 0.10109 0.38809 0.73247 0.0
H3463 H 0.0923 0.36005 0.6179 0.0
H3464 H 0.07776 0.3133 0.67657 0.0
H3465 H 0.10112 0.34366 0.66679 0.0
H3466 H 0.07159 0.36141 0.73861 0.0
H3467 H 0.04817 0.33158 0.74679 0.0
C3468 C 0.10155 0.40189 0.67782 0.0
C3469 C 0.09859 0.40085 0.63515 0.0
C3470 C 0.10032 0.38755 0.69924 0.0
C3471 C 0.09621 0.37198 0.6783 0.0
C3472 C 0.0956 0.37187 0.63507 0.0
C3473 C 0.09671 0.38614 0.61371 0.0
C3474 C 0.07653 0.32366 0.69143 0.0
C3475 C 0.06056 0.32008 0.70999 0.0
C3476 C 0.09 0.34104 0.6861 0.0
C3477 C 0.08778 0.35491 0.70026 0.0
C3478 C 0.07359 0.35104 0.7266 0.0
C3479 C 0.06001 0.33374 0.7313 0.0
H3480 H 1.02201 0.65046 0.67266 0.0
H3481 H 0.99135 0.61865 0.7751 0.0
H3482 H 0.04849 0.65356 0.70384 0.0
H3483 H 1.01783 0.62127 0.80592 0.0
H3484 H 0.06494 0.67253 0.86827 0.0
H3485 H 1.03841 0.64897 0.83767 0.0
H3486 H 0.06895 0.64648 0.73629 0.0
H3487 H 0.09546 0.67053 0.7664 0.0
C3488 C 1.02085 0.64348 0.70097 0.0
C3489 C 1.00477 0.63486 0.72212 0.0
C3490 C 1.03602 0.64507 0.71878 0.0
C3491 C 1.03534 0.63809 0.75812 0.0
C3492 C 1.0188 0.62712 0.77604 0.0
C3493 C 1.00361 0.62554 0.75821 0.0
C3494 C 0.06607 0.6665 0.84024 0.0
C3495 C 0.08212 0.67377 0.81901 0.0
C3496 C 0.05086 0.65281 0.82278 0.0
C3497 C 0.05149 0.64621 0.78376 0.0
C3498 C 0.06801 0.65158 0.76591 0.0
C3499 C 0.08323 0.66532 0.78335 0.0
H3500 H 0.45347 0.38885 0.79723 0.0
H3501 H 0.41702 0.3823 0.70033 0.0
H3502 H 0.45085 0.41328 0.82496 0.0
H3503 H 0.41483 0.40675 0.72708 0.0
H3504 H 0.40093 0.44021 0.78084 0.0
H3505 H 0.42463 0.43673 0.7523 0.0
H3506 H 0.42308 0.40704 0.85952 0.0
H3507 H 0.39972 0.4109 0.88842 0.0
C3508 C 0.44533 0.39295 0.78112 0.0
C3509 C 0.43492 0.38321 0.74749 0.0
C3510 C 0.44399 0.40705 0.79679 0.0
C3511 C 0.43238 0.41171 0.77877 0.0
C3512 C 0.42398 0.40358 0.74174 0.0
C3513 C 0.42517 0.38941 0.72635 0.0
C3514 C 0.40633 0.43381 0.79941 0.0
C3515 C 0.39808 0.42524 0.8362 0.0
C3516 C 0.41988 0.43175 0.7829 0.0
C3517 C 0.42525 0.42107 0.80292 0.0
C3518 C 0.41914 0.41521 0.84303 0.0
C3519 C 0.4056 0.41727 0.85954 0.0
H3520 H 0.68689 0.04788 0.71666 0.0
H3521 H 0.68645 0.07762 0.82204 0.0
H3522 H 0.66292 1.02151 0.74577 0.0
H3523 H 0.66243 0.05083 0.85198 0.0
H3524 H 0.66297 0.99967 0.90391 0.0
H3525 H 0.66735 1.02774 0.88012 0.0
H3526 H 0.63402 1.00216 0.77538 0.0
H3527 H 0.63033 0.97424 0.79804 0.0
C3528 C 0.68121 0.04896 0.7453 0.0
C3529 C 0.68897 0.06474 0.76763 0.0
C3530 C 0.66731 0.03376 0.76208 0.0
C3531 C 0.66097 0.03399 0.8017 0.0
C3532 C 0.66725 0.0502 0.82174 0.0
C3533 C 0.68111 0.06548 0.80475 0.0
C3534 C 0.65604 0.99994 0.87663 0.0
C3535 C 0.64707 0.98492 0.85183 0.0
C3536 C 0.65837 1.01603 0.86316 0.0
C3537 C 0.65162 1.01724 0.82485 0.0
C3538 C 0.6398 1.00166 0.80439 0.0
C3539 C 0.63761 0.98559 0.81764 0.0
H3540 H 0.41152 0.05974 0.11229 0.0
H3541 H 0.45934 0.0772 0.18202 0.0
H3542 H 0.40482 0.0298 0.11888 0.0
H3543 H 0.45211 0.0467 0.19008 0.0
H3544 H 0.38405 0.97762 0.16168 0.0
H3545 H 0.40681 1.00285 0.12411 0.0
H3546 H 0.42718 0.0303 0.23895 0.0
H3547 H 0.40444 1.00546 0.27609 0.0
C3548 C 0.42116 0.05738 0.12719 0.0
C3549 C 0.43545 0.07081 0.14875 0.0
C3550 C 0.41727 0.04001 0.13102 0.0
C3551 C 0.42748 0.03583 0.15685 0.0
C3552 C 0.44368 0.04954 0.17117 0.0
C3553 C 0.44773 0.06699 0.16678 0.0
C3554 C 0.39365 0.98893 0.17888 0.0
C3555 C 0.39208 0.9898 0.22174 0.0
C3556 C 0.40681 1.00326 0.15738 0.0
C3557 C 0.41863 1.01867 0.17842 0.0
C3558 C 0.41839 1.01861 0.22167 0.0
C3559 C 0.40521 1.00435 0.2431 0.0
H3560 H 0.99228 0.39572 0.2684 0.0
H3561 H 1.01755 0.38353 0.16995 0.0
H3562 H 1.02027 0.42193 0.28477 0.0
H3563 H 0.04502 0.40986 0.18516 0.0
H3564 H 0.09502 0.44749 0.22569 0.0
H3565 H 0.06632 0.44197 0.2019 0.0
H3566 H 0.04304 0.41568 0.31624 0.0
H3567 H 0.07122 0.42041 0.33914 0.0
C3568 C 1.0036 0.39895 0.24925 0.0
C3569 C 1.00288 0.3871 0.21909 0.0
C3570 C 1.01956 0.41408 0.25837 0.0
C3571 C 1.03491 0.41769 0.23695 0.0
C3572 C 1.03345 0.40745 0.20235 0.0
C3573 C 1.01759 0.39221 0.19363 0.0
C3574 C 0.08386 0.441 0.24625 0.0
C3575 C 0.08524 0.43362 0.28346 0.0
C3576 C 0.06747 0.43803 0.23274 0.0
C3577 C 0.05238 0.42796 0.25669 0.0
C3578 C 0.05441 0.42343 0.29692 0.0
C3579 C 0.07069 0.42613 0.31013 0.0
H3580 H 0.64114 0.67862 0.18637 0.0
H3581 H 0.65712 0.66636 0.30138 0.0
H3582 H 0.64292 0.65462 0.15318 0.0
H3583 H 0.65844 0.6423 0.2687 0.0
H3584 H 0.67269 0.60904 0.21283 0.0
H3585 H 0.64876 0.61501 0.22535 0.0
H3586 H 0.6733 0.65938 0.14296 0.0
H3587 H 0.69738 0.65415 0.13216 0.0
C3588 C 0.64449 0.67047 0.20485 0.0
C3589 C 0.64969 0.6748 0.24608 0.0
C3590 C 0.64527 0.6566 0.18594 0.0
C3591 C 0.65116 0.64681 0.20808 0.0
C3592 C 0.6538 0.64954 0.2507 0.0
C3593 C 0.65316 0.66348 0.26951 0.0
C3594 C 0.6727 0.61976 0.1964 0.0
C3595 C 0.68754 0.63178 0.17357 0.0
C3596 C 0.65886 0.62302 0.20325 0.0
C3597 C 0.65954 0.63806 0.18645 0.0
C3598 C 0.67248 0.64779 0.15686 0.0
C3599 C 0.68645 0.64476 0.15065 0.0
loop_
_geom_bond_atom_site_label_1
_geom_bond_atom_site_label_2
_geom_bond_distance
_geom_bond_site_symmetry_2
_ccdc_geom_bond_type
Gd0 C3 2.818 . S
Gd0 O20 2.377 . S
Gd0 O22 2.448 . S
Gd0 O23 2.506 . S
Gd0 O24 2.435 . S
Gd0 O25 2.717 . S
Gd0 O27 2.395 . S
Gd0 O31 2.327 . S
Gd1 C12 2.818 . S
Gd1 O21 2.395 . S
Gd1 O25 2.327 . S
Gd1 O26 2.377 . S
Gd1 O28 2.448 . S
Gd1 O29 2.506 . S
Gd1 O30 2.435 . S
Gd1 O31 2.717 . S
C2 O20 1.240 . S
C2 O21 1.240 . S
C3 Gd0 2.818 . S
C3 C4 1.510 . S
C3 O22 1.249 . S
C3 O23 1.252 . S
C4 C3 1.510 . S
C4 C5 1.404 . S
C4 C6 1.352 . S
C5 C4 1.404 . S
C5 C9 1.389 . S
C5 H32 0.930 . S
C6 C4 1.352 . S
C6 C8 1.374 . S
C6 H33 0.931 . S
C7 C8 1.359 . S
C7 C9 1.364 . S
C8 C6 1.374 . S
C8 C7 1.359 . S
C8 H34 0.931 . S
C9 C5 1.389 . S
C9 C7 1.364 . S
C9 H35 0.931 . S
C10 O24 1.256 . S
C10 O25 1.257 . S
C11 O26 1.240 . S
C11 O27 1.240 . S
C12 Gd1 2.818 . S
C12 C13 1.510 . S
C12 O28 1.249 . S
C12 O29 1.252 . S
C13 C12 1.510 . S
C13 C14 1.404 . S
C13 C15 1.352 . S
C14 C13 1.404 . S
C14 C18 1.389 . S
C14 H36 0.930 . S
C15 C13 1.352 . S
C15 C17 1.374 . S
C15 H37 0.931 . S
C16 C17 1.359 . S
C16 C18 1.364 . S
C17 C15 1.374 . S
C17 C16 1.359 . S
C17 H38 0.931 . S
C18 C14 1.389 . S
C18 C16 1.364 . S
C18 H39 0.931 . S
C19 O30 1.256 . S
C19 O31 1.257 . S
O20 Gd0 2.377 . S
O20 C2 1.240 . S
O21 Gd1 2.395 . S
O21 C2 1.240 . S
O22 Gd0 2.448 . S
O22 C3 1.249 . S
O23 Gd0 2.506 . S
O23 C3 1.252 . S
O24 Gd0 2.435 . S
O24 C10 1.256 . S
O25 Gd0 2.717 . S
O25 Gd1 2.327 . S
O25 C10 1.257 . S
O26 Gd1 2.377 . S
O26 C11 1.240 . S
O27 Gd0 2.395 . S
O27 C11 1.240 . S
O28 Gd1 2.448 . S
O28 C12 1.249 . S
O29 Gd1 2.506 . S
O29 C12 1.252 . S
O30 Gd1 2.435 . S
O30 C19 1.256 . S
O31 Gd0 2.327 . S
O31 Gd1 2.717 . S
O31 C19 1.257 . S
H32 C5 0.930 . S
H33 C6 0.931 . S
H34 C8 0.931 . S
H35 C9 0.931 . S
H36 C14 0.930 . S
H37 C15 0.931 . S
H38 C17 0.931 . S
H39 C18 0.931 . S
Gd40 C43 2.818 . S
Gd40 O60 2.377 . S
Gd40 O62 2.448 . S
Gd40 O63 2.506 . S
Gd40 O64 2.435 . S
Gd40 O65 2.717 . S
Gd40 O67 2.395 . S
Gd40 O71 2.327 . S
Gd41 C52 2.818 . S
Gd41 O61 2.395 . S
Gd41 O65 2.327 . S
Gd41 O66 2.377 . S
Gd41 O68 2.448 . S
Gd41 O69 2.506 . S
Gd41 O70 2.435 . S
Gd41 O71 2.717 . S
C42 O60 1.240 . S
C42 O61 1.240 . S
C43 Gd40 2.818 . S
C43 C44 1.510 . S
C43 O62 1.249 . S
C43 O63 1.252 . S
C44 C43 1.510 . S
C44 C45 1.404 . S
C44 C46 1.352 . S
C45 C44 1.404 . S
C45 C49 1.389 . S
C45 H72 0.930 . S
C46 C44 1.352 . S
C46 C48 1.374 . S
C46 H73 0.931 . S
C47 C48 1.359 . S
C47 C49 1.364 . S
C48 C46 1.374 . S
C48 C47 1.359 . S
C48 H74 0.931 . S
C49 C45 1.389 . S
C49 C47 1.364 . S
C49 H75 0.931 . S
C50 O64 1.256 . S
C50 O65 1.257 . S
C51 O66 1.240 . S
C51 O67 1.240 . S
C52 Gd41 2.818 . S
C52 C53 1.510 . S
C52 O68 1.249 . S
C52 O69 1.252 . S
C53 C52 1.510 . S
C53 C54 1.404 . S
C53 C55 1.352 . S
C54 C53 1.404 . S
C54 C58 1.389 . S
C54 H76 0.930 . S
C55 C53 1.352 . S
C55 C57 1.342 1_545 S
C55 H77 0.931 . S
C56 C57 1.338 . S
C56 C58 1.333 1_565 S
C57 C55 1.342 1_565 S
C57 C56 1.338 . S
C57 H78 1.002 . S
C58 C54 1.389 . S
C58 C56 1.333 1_545 S
C58 H79 0.931 . S
C59 O70 1.256 . S
C59 O71 1.257 . S
O60 Gd40 2.377 . S
O60 C42 1.240 . S
O61 Gd41 2.395 . S
O61 C42 1.240 . S
O62 Gd40 2.448 . S
O62 C43 1.249 . S
O63 Gd40 2.506 . S
O63 C43 1.252 . S
O64 Gd40 2.435 . S
O64 C50 1.256 . S
O65 Gd40 2.717 . S
O65 Gd41 2.327 . S
O65 C50 1.257 . S
O66 Gd41 2.377 . S
O66 C51 1.240 . S
O67 Gd40 2.395 . S
O67 C51 1.240 . S
O68 Gd41 2.448 . S
O68 C52 1.249 . S
O69 Gd41 2.506 . S
O69 C52 1.252 . S
O70 Gd41 2.435 . S
O70 C59 1.256 . S
O71 Gd40 2.327 . S
O71 Gd41 2.717 . S
O71 C59 1.257 . S
H72 C45 0.930 . S
H73 C46 0.931 . S
H74 C48 0.931 . S
H75 C49 0.931 . S
H76 C54 0.930 . S
H77 C55 0.931 . S
H78 C57 1.002 . S
H79 C58 0.931 . S
Gd80 C83 2.818 . S
Gd80 O100 2.377 . S
Gd80 O102 2.448 . S
Gd80 O103 2.506 . S
Gd80 O104 2.435 . S
Gd80 O105 2.717 . S
Gd80 O107 2.395 . S
Gd80 O111 2.327 . S
Gd81 C92 2.818 . S
Gd81 O101 2.395 . S
Gd81 O105 2.327 . S
Gd81 O106 2.377 . S
Gd81 O108 2.448 . S
Gd81 O109 2.506 . S
Gd81 O110 2.435 . S
Gd81 O111 2.717 . S
C82 O100 1.240 . S
C82 O101 1.240 . S
C83 Gd80 2.818 . S
C83 C84 1.510 . S
C83 O102 1.249 . S
C83 O103 1.252 . S
C84 C83 1.510 . S
C84 C85 1.404 . S
C84 C86 1.352 . S
C85 C84 1.404 . S
C85 C89 1.389 . S
C85 H112 0.930 . S
C86 C84 1.352 . S
C86 C88 1.374 . S
C86 H113 0.931 . S
C87 C88 1.359 . S
C87 C89 1.364 . S
C88 C86 1.374 . S
C88 C87 1.359 . S
C88 H114 0.931 . S
C89 C85 1.389 . S
C89 C87 1.364 . S
C89 H115 0.931 . S
C90 O104 1.256 . S
C90 O105 1.257 . S
C91 O106 1.240 . S
C91 O107 1.240 . S
C92 Gd81 2.818 . S
C92 C93 1.510 . S
C92 O108 1.249 . S
C92 O109 1.252 . S
C93 C92 1.510 . S
C93 C94 1.404 . S
C93 C95 1.352 . S
C94 C93 1.404 . S
C94 C98 1.389 . S
C94 H116 0.930 . S
C95 C93 1.352 . S
C95 C97 1.292 1_655 S
C95 H117 0.931 . S
C96 C97 1.378 . S
C96 C98 1.343 1_455 S
C97 C95 1.292 1_455 S
C97 C96 1.378 . S
C97 H118 0.981 . S
C98 C94 1.389 . S
C98 C96 1.343 1_655 S
C98 H119 0.931 . S
C99 O110 1.256 . S
C99 O111 1.257 . S
O100 Gd80 2.377 . S
O100 C82 1.240 . S
O101 Gd81 2.395 . S
O101 C82 1.240 . S
O102 Gd80 2.448 . S
O102 C83 1.249 . S
O103 Gd80 2.506 . S
O103 C83 1.252 . S
O104 Gd80 2.435 . S
O104 C90 1.256 . S
O105 Gd80 2.717 . S
O105 Gd81 2.327 . S
O105 C90 1.257 . S
O106 Gd81 2.377 . S
O106 C91 1.240 . S
O107 Gd80 2.395 . S
O107 C91 1.240 . S
O108 Gd81 2.448 . S
O108 C92 1.249 . S
O109 Gd81 2.506 . S
O109 C92 1.252 . S
O110 Gd81 2.435 . S
O110 C99 1.256 . S
O111 Gd80 2.327 . S
O111 Gd81 2.717 . S
O111 C99 1.257 . S
H112 C85 0.930 . S
H113 C86 0.931 . S
H114 C88 0.931 . S
H115 C89 0.931 . S
H116 C94 0.930 . S
H117 C95 0.931 . S
H118 C97 0.981 . S
H119 C98 0.931 . S
Gd120 C123 2.818 . S
Gd120 O140 2.377 . S
Gd120 O142 2.448 . S
Gd120 O143 2.506 . S
Gd120 O144 2.435 . S
Gd120 O145 2.717 . S
Gd120 O147 2.395 . S
Gd120 O151 2.327 . S
Gd121 C132 2.818 . S
Gd121 O141 2.395 . S
Gd121 O145 2.327 . S
Gd121 O146 2.377 . S
Gd121 O148 2.448 . S
Gd121 O149 2.506 . S
Gd121 O150 2.435 . S
Gd121 O151 2.717 . S
C122 O140 1.240 . S
C122 O141 1.240 . S
C123 Gd120 2.818 . S
C123 C124 1.510 . S
C123 O142 1.249 . S
C123 O143 1.252 . S
C124 C123 1.510 . S
C124 C125 1.404 . S
C124 C126 1.352 . S
C125 C124 1.404 . S
C125 C129 1.389 . S
C125 H152 0.930 . S
C126 C124 1.352 . S
C126 C128 1.374 . S
C126 H153 0.931 . S
C127 C128 1.359 . S
C127 C129 1.364 . S
C128 C126 1.374 . S
C128 C127 1.359 . S
C128 H154 0.931 . S
C129 C125 1.389 . S
C129 C127 1.364 . S
C129 H155 0.931 . S
C130 O144 1.256 . S
C130 O145 1.257 . S
C131 O146 1.240 . S
C131 O147 1.240 . S
C132 Gd121 2.818 . S
C132 C133 1.510 . S
C132 O148 1.249 . S
C132 O149 1.252 . S
C133 C132 1.510 . S
C133 C134 1.404 . S
C133 C135 1.352 . S
C134 C133 1.404 . S
C134 C138 1.389 . S
C134 H156 0.930 . S
C135 C133 1.352 . S
C135 C137 1.374 . S
C135 H157 0.931 . S
C136 C137 1.359 . S
C136 C138 1.364 . S
C137 C135 1.374 . S
C137 C136 1.359 . S
C137 H158 0.931 . S
C138 C134 1.389 . S
C138 C136 1.364 . S
C138 H159 0.931 . S
C139 O150 1.256 . S
C139 O151 1.257 . S
O140 Gd120 2.377 . S
O140 C122 1.240 . S
O141 Gd121 2.395 . S
O141 C122 1.240 . S
O142 Gd120 2.448 . S
O142 C123 1.249 . S
O143 Gd120 2.506 . S
O143 C123 1.252 . S
O144 Gd120 2.435 . S
O144 C130 1.256 . S
O145 Gd120 2.717 . S
O145 Gd121 2.327 . S
O145 C130 1.257 . S
O146 Gd121 2.377 . S
O146 C131 1.240 . S
O147 Gd120 2.395 . S
O147 C131 1.240 . S
O148 Gd121 2.448 . S
O148 C132 1.249 . S
O149 Gd121 2.506 . S
O149 C132 1.252 . S
O150 Gd121 2.435 . S
O150 C139 1.256 . S
O151 Gd120 2.327 . S
O151 Gd121 2.717 . S
O151 C139 1.257 . S
H152 C125 0.930 . S
H153 C126 0.931 . S
H154 C128 0.931 . S
H155 C129 0.931 . S
H156 C134 0.930 . S
H157 C135 0.931 . S
H158 C137 0.931 . S
H159 C138 0.931 . S
Gd160 C163 2.818 . S
Gd160 O180 2.377 . S
Gd160 O182 2.448 . S
Gd160 O183 2.506 . S
Gd160 O184 2.435 . S
Gd160 O185 2.717 . S
Gd160 O187 2.395 . S
Gd160 O191 2.327 . S
Gd161 C172 2.818 . S
Gd161 O181 2.395 . S
Gd161 O185 2.327 . S
Gd161 O186 2.377 . S
Gd161 O188 2.448 . S
Gd161 O189 2.506 . S
Gd161 O190 2.435 . S
Gd161 O191 2.717 . S
C162 O180 1.240 . S
C162 O181 1.240 . S
C163 Gd160 2.818 . S
C163 C164 1.510 . S
C163 O182 1.249 . S
C163 O183 1.252 . S
C164 C163 1.510 . S
C164 C165 1.404 . S
C164 C166 1.352 . S
C165 C164 1.404 . S
C165 C169 1.389 . S
C165 H192 0.930 . S
C166 C164 1.352 . S
C166 C168 1.374 . S
C166 H193 0.931 . S
C167 C168 1.359 . S
C167 C169 1.364 . S
C168 C166 1.374 . S
C168 C167 1.359 . S
C168 H194 0.931 . S
C169 C165 1.389 . S
C169 C167 1.364 . S
C169 H195 0.931 . S
C170 O184 1.256 . S
C170 O185 1.257 . S
C171 O186 1.240 . S
C171 O187 1.240 . S
C172 Gd161 2.818 . S
C172 C173 1.510 . S
C172 O188 1.249 . S
C172 O189 1.252 . S
C173 C172 1.510 . S
C173 C174 1.404 . S
C173 C175 1.352 . S
C174 C173 1.404 . S
C174 C178 1.389 . S
C174 H196 0.930 . S
C175 C173 1.352 . S
C175 C177 1.292 1_565 S
C175 H197 0.931 . S
C176 C177 1.378 . S
C176 C178 1.343 1_545 S
C177 C175 1.292 1_545 S
C177 C176 1.378 . S
C177 H198 0.981 . S
C178 C174 1.389 . S
C178 C176 1.343 1_565 S
C178 H199 0.931 . S
C179 O190 1.256 . S
C179 O191 1.257 . S
O180 Gd160 2.377 . S
O180 C162 1.240 . S
O181 Gd161 2.395 . S
O181 C162 1.240 . S
O182 Gd160 2.448 . S
O182 C163 1.249 . S
O183 Gd160 2.506 . S
O183 C163 1.252 . S
O184 Gd160 2.435 . S
O184 C170 1.256 . S
O185 Gd160 2.717 . S
O185 Gd161 2.327 . S
O185 C170 1.257 . S
O186 Gd161 2.377 . S
O186 C171 1.240 . S
O187 Gd160 2.395 . S
O187 C171 1.240 . S
O188 Gd161 2.448 . S
O188 C172 1.249 . S
O189 Gd161 2.506 . S
O189 C172 1.252 . S
O190 Gd161 2.435 . S
O190 C179 1.256 . S
O191 Gd160 2.327 . S
O191 Gd161 2.717 . S
O191 C179 1.257 . S
H192 C165 0.930 . S
H193 C166 0.931 . S
H194 C168 0.931 . S
H195 C169 0.931 . S
H196 C174 0.930 . S
H197 C175 0.931 . S
H198 C177 0.981 . S
H199 C178 0.931 . S
Gd200 C203 2.818 . S
Gd200 O220 2.377 . S
Gd200 O222 2.448 . S
Gd200 O223 2.506 . S
Gd200 O224 2.435 . S
Gd200 O225 2.717 . S
Gd200 O227 2.395 . S
Gd200 O231 2.327 . S
Gd201 C212 2.818 . S
Gd201 O221 2.395 . S
Gd201 O225 2.327 . S
Gd201 O226 2.377 . S
Gd201 O228 2.448 . S
Gd201 O229 2.506 . S
Gd201 O230 2.435 . S
Gd201 O231 2.717 . S
C202 O220 1.240 . S
C202 O221 1.240 . S
C203 Gd200 2.818 . S
C203 C204 1.510 . S
C203 O222 1.249 . S
C203 O223 1.252 . S
C204 C203 1.510 . S
C204 C205 1.404 . S
C204 C206 1.352 . S
C205 C204 1.404 . S
C205 C209 1.389 . S
C205 H232 0.930 . S
C206 C204 1.352 . S
C206 C208 1.374 . S
C206 H233 0.931 . S
C207 C208 1.359 . S
C207 C209 1.364 . S
C208 C206 1.374 . S
C208 C207 1.359 . S
C208 H234 0.931 . S
C209 C205 1.389 . S
C209 C207 1.364 . S
C209 H235 0.931 . S
C210 O224 1.256 . S
C210 O225 1.257 . S
C211 O226 1.240 . S
C211 O227 1.240 . S
C212 Gd201 2.818 . S
C212 C213 1.510 . S
C212 O228 1.249 . S
C212 O229 1.252 . S
C213 C212 1.510 . S
C213 C214 1.404 . S
C213 C215 1.352 . S
C214 C213 1.404 . S
C214 C218 1.389 . S
C214 H236 0.930 . S
C215 C213 1.352 . S
C215 C217 1.342 1_455 S
C215 H237 0.931 . S
C216 C217 1.338 . S
C216 C218 1.333 1_655 S
C217 C215 1.342 1_655 S
C217 C216 1.338 . S
C217 H238 1.002 . S
C218 C214 1.389 . S
C218 C216 1.333 1_455 S
C218 H239 0.931 . S
C219 O230 1.256 . S
C219 O231 1.257 . S
O220 Gd200 2.377 . S
O220 C202 1.240 . S
O221 Gd201 2.395 . S
O221 C202 1.240 . S
O222 Gd200 2.448 . S
O222 C203 1.249 . S
O223 Gd200 2.506 . S
O223 C203 1.252 . S
O224 Gd200 2.435 . S
O224 C210 1.256 . S
O225 Gd200 2.717 . S
O225 Gd201 2.327 . S
O225 C210 1.257 . S
O226 Gd201 2.377 . S
O226 C211 1.240 . S
O227 Gd200 2.395 . S
O227 C211 1.240 . S
O228 Gd201 2.448 . S
O228 C212 1.249 . S
O229 Gd201 2.506 . S
O229 C212 1.252 . S
O230 Gd201 2.435 . S
O230 C219 1.256 . S
O231 Gd200 2.327 . S
O231 Gd201 2.717 . S
O231 C219 1.257 . S
H232 C205 0.930 . S
H233 C206 0.931 . S
H234 C208 0.931 . S
H235 C209 0.931 . S
H236 C214 0.930 . S
H237 C215 0.931 . S
H238 C217 1.002 . S
H239 C218 0.931 . S
Gd240 C243 2.818 . S
Gd240 O260 2.377 . S
Gd240 O262 2.448 . S
Gd240 O263 2.506 . S
Gd240 O264 2.435 . S
Gd240 O265 2.717 . S
Gd240 O267 2.395 . S
Gd240 O271 2.327 . S
Gd241 C252 2.818 . S
Gd241 O261 2.395 . S
Gd241 O265 2.327 . S
Gd241 O266 2.377 . S
Gd241 O268 2.448 . S
Gd241 O269 2.506 . S
Gd241 O270 2.435 . S
Gd241 O271 2.717 . S
C242 O260 1.240 . S
C242 O261 1.240 . S
C243 Gd240 2.818 . S
C243 C244 1.510 . S
C243 O262 1.249 . S
C243 O263 1.252 . S
C244 C243 1.510 . S
C244 C245 1.404 . S
C244 C246 1.352 . S
C245 C244 1.404 . S
C245 C249 1.389 . S
C245 H272 0.930 . S
C246 C244 1.352 . S
C246 C248 1.374 . S
C246 H273 0.931 . S
C247 C248 1.359 . S
C247 C249 1.364 . S
C248 C246 1.374 . S
C248 C247 1.359 . S
C248 H274 0.931 . S
C249 C245 1.389 . S
C249 C247 1.364 . S
C249 H275 0.931 . S
C250 O264 1.256 . S
C250 O265 1.257 . S
C251 O266 1.240 . S
C251 O267 1.240 . S
C252 Gd241 2.818 . S
C252 C253 1.510 . S
C252 O268 1.249 . S
C252 O269 1.252 . S
C253 C252 1.510 . S
C253 C254 1.404 . S
C253 C255 1.352 . S
C254 C253 1.404 . S
C254 C258 1.389 . S
C254 H276 0.930 . S
C255 C253 1.352 . S
C255 C257 1.374 . S
C255 H277 0.931 . S
C256 C257 1.359 . S
C256 C258 1.364 . S
C257 C255 1.374 . S
C257 C256 1.359 . S
C257 H278 0.931 . S
C258 C254 1.389 . S
C258 C256 1.364 . S
C258 H279 0.931 . S
C259 O270 1.256 . S
C259 O271 1.257 . S
O260 Gd240 2.377 . S
O260 C242 1.240 . S
O261 Gd241 2.395 . S
O261 C242 1.240 . S
O262 Gd240 2.448 . S
O262 C243 1.249 . S
O263 Gd240 2.506 . S
O263 C243 1.252 . S
O264 Gd240 2.435 . S
O264 C250 1.256 . S
O265 Gd240 2.717 . S
O265 Gd241 2.327 . S
O265 C250 1.257 . S
O266 Gd241 2.377 . S
O266 C251 1.240 . S
O267 Gd240 2.395 . S
O267 C251 1.240 . S
O268 Gd241 2.448 . S
O268 C252 1.249 . S
O269 Gd241 2.506 . S
O269 C252 1.252 . S
O270 Gd241 2.435 . S
O270 C259 1.256 . S
O271 Gd240 2.327 . S
O271 Gd241 2.717 . S
O271 C259 1.257 . S
H272 C245 0.930 . S
H273 C246 0.931 . S
H274 C248 0.931 . S
H275 C249 0.931 . S
H276 C254 0.930 . S
H277 C255 0.931 . S
H278 C257 0.931 . S
H279 C258 0.931 . S
Gd280 C283 2.818 . S
Gd280 O300 2.377 . S
Gd280 O302 2.448 . S
Gd280 O303 2.506 . S
Gd280 O304 2.435 . S
Gd280 O305 2.717 . S
Gd280 O307 2.395 . S
Gd280 O311 2.327 . S
Gd281 C292 2.818 . S
Gd281 O301 2.395 . S
Gd281 O305 2.327 . S
Gd281 O306 2.377 . S
Gd281 O308 2.448 . S
Gd281 O309 2.506 . S
Gd281 O310 2.435 . S
Gd281 O311 2.717 . S
C282 O300 1.240 . S
C282 O301 1.240 . S
C283 Gd280 2.818 . S
C283 C284 1.510 . S
C283 O302 1.249 . S
C283 O303 1.252 . S
C284 C283 1.510 . S
C284 C285 1.404 . S
C284 C286 1.352 . S
C285 C284 1.404 . S
C285 C289 1.389 . S
C285 H312 0.930 . S
C286 C284 1.352 . S
C286 C288 1.342 1_565 S
C286 H313 0.931 . S
C287 C288 1.338 . S
C287 C289 1.333 1_545 S
C288 C286 1.342 1_545 S
C288 C287 1.338 . S
C288 H314 1.002 . S
C289 C285 1.389 . S
C289 C287 1.333 1_565 S
C289 H315 0.931 . S
C290 O304 1.256 . S
C290 O305 1.257 . S
C291 O306 1.240 . S
C291 O307 1.240 . S
C292 Gd281 2.818 . S
C292 C293 1.510 . S
C292 O308 1.249 . S
C292 O309 1.252 . S
C293 C292 1.510 . S
C293 C294 1.404 . S
C293 C295 1.352 . S
C294 C293 1.404 . S
C294 C298 1.389 . S
C294 H316 0.930 . S
C295 C293 1.352 . S
C295 C297 1.374 . S
C295 H317 0.931 . S
C296 C297 1.359 . S
C296 C298 1.364 . S
C297 C295 1.374 . S
C297 C296 1.359 . S
C297 H318 0.931 . S
C298 C294 1.389 . S
C298 C296 1.364 . S
C298 H319 0.931 . S
C299 O310 1.256 . S
C299 O311 1.257 . S
O300 Gd280 2.377 . S
O300 C282 1.240 . S
O301 Gd281 2.395 . S
O301 C282 1.240 . S
O302 Gd280 2.448 . S
O302 C283 1.249 . S
O303 Gd280 2.506 . S
O303 C283 1.252 . S
O304 Gd280 2.435 . S
O304 C290 1.256 . S
O305 Gd280 2.717 . S
O305 Gd281 2.327 . S
O305 C290 1.257 . S
O306 Gd281 2.377 . S
O306 C291 1.240 . S
O307 Gd280 2.395 . S
O307 C291 1.240 . S
O308 Gd281 2.448 . S
O308 C292 1.249 . S
O309 Gd281 2.506 . S
O309 C292 1.252 . S
O310 Gd281 2.435 . S
O310 C299 1.256 . S
O311 Gd280 2.327 . S
O311 Gd281 2.717 . S
O311 C299 1.257 . S
H312 C285 0.930 . S
H313 C286 0.931 . S
H314 C288 1.002 . S
H315 C289 0.931 . S
H316 C294 0.930 . S
H317 C295 0.931 . S
H318 C297 0.931 . S
H319 C298 0.931 . S
Gd320 C323 2.818 . S
Gd320 O340 2.377 . S
Gd320 O342 2.448 . S
Gd320 O343 2.506 . S
Gd320 O344 2.435 . S
Gd320 O345 2.717 . S
Gd320 O347 2.395 . S
Gd320 O351 2.327 . S
Gd321 C332 2.818 . S
Gd321 O341 2.395 . S
Gd321 O345 2.327 . S
Gd321 O346 2.377 . S
Gd321 O348 2.448 . S
Gd321 O349 2.506 . S
Gd321 O350 2.435 . S
Gd321 O351 2.717 . S
C322 O340 1.240 . S
C322 O341 1.240 . S
C323 Gd320 2.818 . S
C323 C324 1.510 . S
C323 O342 1.249 . S
C323 O343 1.252 . S
C324 C323 1.510 . S
C324 C325 1.404 . S
C324 C326 1.352 . S
C325 C324 1.404 . S
C325 C329 1.389 . S
C325 H352 0.930 . S
C326 C324 1.352 . S
C326 C328 1.292 1_455 S
C326 H353 0.931 . S
C327 C328 1.378 . S
C327 C329 1.343 1_655 S
C328 C326 1.292 1_655 S
C328 C327 1.378 . S
C328 H354 0.981 . S
C329 C325 1.389 . S
C329 C327 1.343 1_455 S
C329 H355 0.931 . S
C330 O344 1.256 . S
C330 O345 1.257 . S
C331 O346 1.240 . S
C331 O347 1.240 . S
C332 Gd321 2.818 . S
C332 C333 1.510 . S
C332 O348 1.249 . S
C332 O349 1.252 . S
C333 C332 1.510 . S
C333 C334 1.404 . S
C333 C335 1.352 . S
C334 C333 1.404 . S
C334 C338 1.389 . S
C334 H356 0.930 . S
C335 C333 1.352 . S
C335 C337 1.374 . S
C335 H357 0.931 . S
C336 C337 1.359 . S
C336 C338 1.364 . S
C337 C335 1.374 . S
C337 C336 1.359 . S
C337 H358 0.931 . S
C338 C334 1.389 . S
C338 C336 1.364 . S
C338 H359 0.931 . S
C339 O350 1.256 . S
C339 O351 1.257 . S
O340 Gd320 2.377 . S
O340 C322 1.240 . S
O341 Gd321 2.395 . S
O341 C322 1.240 . S
O342 Gd320 2.448 . S
O342 C323 1.249 . S
O343 Gd320 2.506 . S
O343 C323 1.252 . S
O344 Gd320 2.435 . S
O344 C330 1.256 . S
O345 Gd320 2.717 . S
O345 Gd321 2.327 . S
O345 C330 1.257 . S
O346 Gd321 2.377 . S
O346 C331 1.240 . S
O347 Gd320 2.395 . S
O347 C331 1.240 . S
O348 Gd321 2.448 . S
O348 C332 1.249 . S
O349 Gd321 2.506 . S
O349 C332 1.252 . S
O350 Gd321 2.435 . S
O350 C339 1.256 . S
O351 Gd320 2.327 . S
O351 Gd321 2.717 . S
O351 C339 1.257 . S
H352 C325 0.930 . S
H353 C326 0.931 . S
H354 C328 0.981 . S
H355 C329 0.931 . S
H356 C334 0.930 . S
H357 C335 0.931 . S
H358 C337 0.931 . S
H359 C338 0.931 . S
Gd360 C363 2.818 . S
Gd360 O380 2.377 . S
Gd360 O382 2.448 . S
Gd360 O383 2.506 . S
Gd360 O384 2.435 . S
Gd360 O385 2.717 . S
Gd360 O387 2.395 . S
Gd360 O391 2.327 . S
Gd361 C372 2.818 . S
Gd361 O381 2.395 . S
Gd361 O385 2.327 . S
Gd361 O386 2.377 . S
Gd361 O388 2.448 . S
Gd361 O389 2.506 . S
Gd361 O390 2.435 . S
Gd361 O391 2.717 . S
C362 O380 1.240 . S
C362 O381 1.240 . S
C363 Gd360 2.818 . S
C363 C364 1.510 . S
C363 O382 1.249 . S
C363 O383 1.252 . S
C364 C363 1.510 . S
C364 C365 1.404 . S
C364 C366 1.352 . S
C365 C364 1.404 . S
C365 C369 1.389 . S
C365 H392 0.930 . S
C366 C364 1.352 . S
C366 C368 1.374 . S
C366 H393 0.931 . S
C367 C368 1.359 . S
C367 C369 1.364 . S
C368 C366 1.374 . S
C368 C367 1.359 . S
C368 H394 0.931 . S
C369 C365 1.389 . S
C369 C367 1.364 . S
C369 H395 0.931 . S
C370 O384 1.256 . S
C370 O385 1.257 . S
C371 O386 1.240 . S
C371 O387 1.240 . S
C372 Gd361 2.818 . S
C372 C373 1.510 . S
C372 O388 1.249 . S
C372 O389 1.252 . S
C373 C372 1.510 . S
C373 C374 1.404 . S
C373 C375 1.352 . S
C374 C373 1.404 . S
C374 C378 1.389 . S
C374 H396 0.930 . S
C375 C373 1.352 . S
C375 C377 1.374 . S
C375 H397 0.931 . S
C376 C377 1.359 . S
C376 C378 1.364 . S
C377 C375 1.374 . S
C377 C376 1.359 . S
C377 H398 0.931 . S
C378 C374 1.389 . S
C378 C376 1.364 . S
C378 H399 0.931 . S
C379 O390 1.256 . S
C379 O391 1.257 . S
O380 Gd360 2.377 . S
O380 C362 1.240 . S
O381 Gd361 2.395 . S
O381 C362 1.240 . S
O382 Gd360 2.448 . S
O382 C363 1.249 . S
O383 Gd360 2.506 . S
O383 C363 1.252 . S
O384 Gd360 2.435 . S
O384 C370 1.256 . S
O385 Gd360 2.717 . S
O385 Gd361 2.327 . S
O385 C370 1.257 . S
O386 Gd361 2.377 . S
O386 C371 1.240 . S
O387 Gd360 2.395 . S
O387 C371 1.240 . S
O388 Gd361 2.448 . S
O388 C372 1.249 . S
O389 Gd361 2.506 . S
O389 C372 1.252 . S
O390 Gd361 2.435 . S
O390 C379 1.256 . S
O391 Gd360 2.327 . S
O391 Gd361 2.717 . S
O391 C379 1.257 . S
H392 C365 0.930 . S
H393 C366 0.931 . S
H394 C368 0.931 . S
H395 C369 0.931 . S
H396 C374 0.930 . S
H397 C375 0.931 . S
H398 C377 0.931 . S
H399 C378 0.931 . S
Gd400 C403 2.818 . S
Gd400 O420 2.377 . S
Gd400 O422 2.448 . S
Gd400 O423 2.506 . S
Gd400 O424 2.435 . S
Gd400 O425 2.717 . S
Gd400 O427 2.395 . S
Gd400 O431 2.327 . S
Gd401 C412 2.818 . S
Gd401 O421 2.395 . S
Gd401 O425 2.327 . S
Gd401 O426 2.377 . S
Gd401 O428 2.448 . S
Gd401 O429 2.506 . S
Gd401 O430 2.435 . S
Gd401 O431 2.717 . S
C402 O420 1.240 . S
C402 O421 1.240 . S
C403 Gd400 2.818 . S
C403 C404 1.510 . S
C403 O422 1.249 . S
C403 O423 1.252 . S
C404 C403 1.510 . S
C404 C405 1.404 . S
C404 C406 1.352 . S
C405 C404 1.404 . S
C405 C409 1.389 . S
C405 H432 0.930 . S
C406 C404 1.352 . S
C406 C408 1.292 1_545 S
C406 H433 0.931 . S
C407 C408 1.378 . S
C407 C409 1.343 1_565 S
C408 C406 1.292 1_565 S
C408 C407 1.378 . S
C408 H434 0.981 . S
C409 C405 1.389 . S
C409 C407 1.343 1_545 S
C409 H435 0.931 . S
C410 O424 1.256 . S
C410 O425 1.257 . S
C411 O426 1.240 . S
C411 O427 1.240 . S
C412 Gd401 2.818 . S
C412 C413 1.510 . S
C412 O428 1.249 . S
C412 O429 1.252 . S
C413 C412 1.510 . S
C413 C414 1.404 . S
C413 C415 1.352 . S
C414 C413 1.404 . S
C414 C418 1.389 . S
C414 H436 0.930 . S
C415 C413 1.352 . S
C415 C417 1.374 . S
C415 H437 0.931 . S
C416 C417 1.359 . S
C416 C418 1.364 . S
C417 C415 1.374 . S
C417 C416 1.359 . S
C417 H438 0.931 . S
C418 C414 1.389 . S
C418 C416 1.364 . S
C418 H439 0.931 . S
C419 O430 1.256 . S
C419 O431 1.257 . S
O420 Gd400 2.377 . S
O420 C402 1.240 . S
O421 Gd401 2.395 . S
O421 C402 1.240 . S
O422 Gd400 2.448 . S
O422 C403 1.249 . S
O423 Gd400 2.506 . S
O423 C403 1.252 . S
O424 Gd400 2.435 . S
O424 C410 1.256 . S
O425 Gd400 2.717 . S
O425 Gd401 2.327 . S
O425 C410 1.257 . S
O426 Gd401 2.377 . S
O426 C411 1.240 . S
O427 Gd400 2.395 . S
O427 C411 1.240 . S
O428 Gd401 2.448 . S
O428 C412 1.249 . S
O429 Gd401 2.506 . S
O429 C412 1.252 . S
O430 Gd401 2.435 . S
O430 C419 1.256 . S
O431 Gd400 2.327 . S
O431 Gd401 2.717 . S
O431 C419 1.257 . S
H432 C405 0.930 . S
H433 C406 0.931 . S
H434 C408 0.981 . S
H435 C409 0.931 . S
H436 C414 0.930 . S
H437 C415 0.931 . S
H438 C417 0.931 . S
H439 C418 0.931 . S
Gd440 C443 2.818 . S
Gd440 O460 2.377 . S
Gd440 O462 2.448 . S
Gd440 O463 2.506 . S
Gd440 O464 2.435 . S
Gd440 O465 2.717 . S
Gd440 O467 2.395 . S
Gd440 O471 2.327 . S
Gd441 C452 2.818 . S
Gd441 O461 2.395 . S
Gd441 O465 2.327 . S
Gd441 O466 2.377 . S
Gd441 O468 2.448 . S
Gd441 O469 2.506 . S
Gd441 O470 2.435 . S
Gd441 O471 2.717 . S
C442 O460 1.240 . S
C442 O461 1.240 . S
C443 Gd440 2.818 . S
C443 C444 1.510 . S
C443 O462 1.249 . S
C443 O463 1.252 . S
C444 C443 1.510 . S
C444 C445 1.404 . S
C444 C446 1.352 . S
C445 C444 1.404 . S
C445 C449 1.389 . S
C445 H472 0.930 . S
C446 C444 1.352 . S
C446 C448 1.342 1_655 S
C446 H473 0.931 . S
C447 C448 1.338 . S
C447 C449 1.333 1_455 S
C448 C446 1.342 1_455 S
C448 C447 1.338 . S
C448 H474 1.002 . S
C449 C445 1.389 . S
C449 C447 1.333 1_655 S
C449 H475 0.931 . S
C450 O464 1.256 . S
C450 O465 1.257 . S
C451 O466 1.240 . S
C451 O467 1.240 . S
C452 Gd441 2.818 . S
C452 C453 1.510 . S
C452 O468 1.249 . S
C452 O469 1.252 . S
C453 C452 1.510 . S
C453 C454 1.404 . S
C453 C455 1.352 . S
C454 C453 1.404 . S
C454 C458 1.389 . S
C454 H476 0.930 . S
C455 C453 1.352 . S
C455 C457 1.374 . S
C455 H477 0.931 . S
C456 C457 1.359 . S
C456 C458 1.364 . S
C457 C455 1.374 . S
C457 C456 1.359 . S
C457 H478 0.931 . S
C458 C454 1.389 . S
C458 C456 1.364 . S
C458 H479 0.931 . S
C459 O470 1.256 . S
C459 O471 1.257 . S
O460 Gd440 2.377 . S
O460 C442 1.240 . S
O461 Gd441 2.395 . S
O461 C442 1.240 . S
O462 Gd440 2.448 . S
O462 C443 1.249 . S
O463 Gd440 2.506 . S
O463 C443 1.252 . S
O464 Gd440 2.435 . S
O464 C450 1.256 . S
O465 Gd440 2.717 . S
O465 Gd441 2.327 . S
O465 C450 1.257 . S
O466 Gd441 2.377 . S
O466 C451 1.240 . S
O467 Gd440 2.395 . S
O467 C451 1.240 . S
O468 Gd441 2.448 . S
O468 C452 1.249 . S
O469 Gd441 2.506 . S
O469 C452 1.252 . S
O470 Gd441 2.435 . S
O470 C459 1.256 . S
O471 Gd440 2.327 . S
O471 Gd441 2.717 . S
O471 C459 1.257 . S
H472 C445 0.930 . S
H473 C446 0.931 . S
H474 C448 1.002 . S
H475 C449 0.931 . S
H476 C454 0.930 . S
H477 C455 0.931 . S
H478 C457 0.931 . S
H479 C458 0.931 . S
Gd480 C483 2.818 . S
Gd480 O500 2.377 . S
Gd480 O502 2.448 . S
Gd480 O503 2.506 . S
Gd480 O504 2.435 . S
Gd480 O505 2.717 . S
Gd480 O507 2.395 . S
Gd480 O511 2.327 . S
Gd481 C492 2.818 . S
Gd481 O501 2.395 . S
Gd481 O505 2.327 . S
Gd481 O506 2.377 . S
Gd481 O508 2.448 . S
Gd481 O509 2.506 . S
Gd481 O510 2.435 . S
Gd481 O511 2.717 . S
C482 O500 1.240 . S
C482 O501 1.240 . S
C483 Gd480 2.818 . S
C483 C484 1.510 . S
C483 O502 1.249 . S
C483 O503 1.252 . S
C484 C483 1.510 . S
C484 C485 1.404 . S
C484 C486 1.352 . S
C485 C484 1.404 . S
C485 C489 1.389 . S
C485 H512 0.930 . S
C486 C484 1.352 . S
C486 C488 1.374 . S
C486 H513 0.931 . S
C487 C488 1.359 . S
C487 C489 1.364 . S
C488 C486 1.374 . S
C488 C487 1.359 . S
C488 H514 0.931 . S
C489 C485 1.389 . S
C489 C487 1.364 . S
C489 H515 0.931 . S
C490 O504 1.256 . S
C490 O505 1.257 . S
C491 O506 1.240 . S
C491 O507 1.240 . S
C492 Gd481 2.818 . S
C492 C493 1.510 . S
C492 O508 1.249 . S
C492 O509 1.252 . S
C493 C492 1.510 . S
C493 C494 1.404 . S
C493 C495 1.352 . S
C494 C493 1.404 . S
C494 C498 1.389 . S
C494 H516 0.930 . S
C495 C493 1.352 . S
C495 C497 1.374 . S
C495 H517 0.931 . S
C496 C497 1.359 . S
C496 C498 1.364 . S
C497 C495 1.374 . S
C497 C496 1.359 . S
C497 H518 0.931 . S
C498 C494 1.389 . S
C498 C496 1.364 . S
C498 H519 0.931 . S
C499 O510 1.256 . S
C499 O511 1.257 . S
O500 Gd480 2.377 . S
O500 C482 1.240 . S
O501 Gd481 2.395 . S
O501 C482 1.240 . S
O502 Gd480 2.448 . S
O502 C483 1.249 . S
O503 Gd480 2.506 . S
O503 C483 1.252 . S
O504 Gd480 2.435 . S
O504 C490 1.256 . S
O505 Gd480 2.717 . S
O505 Gd481 2.327 . S
O505 C490 1.257 . S
O506 Gd481 2.377 . S
O506 C491 1.240 . S
O507 Gd480 2.395 . S
O507 C491 1.240 . S
O508 Gd481 2.448 . S
O508 C492 1.249 . S
O509 Gd481 2.506 . S
O509 C492 1.252 . S
O510 Gd481 2.435 . S
O510 C499 1.256 . S
O511 Gd480 2.327 . S
O511 Gd481 2.717 . S
O511 C499 1.257 . S
H512 C485 0.930 . S
H513 C486 0.931 . S
H514 C488 0.931 . S
H515 C489 0.931 . S
H516 C494 0.930 . S
H517 C495 0.931 . S
H518 C497 0.931 . S
H519 C498 0.931 . S
Gd520 C523 2.818 . S
Gd520 O540 2.377 . S
Gd520 O542 2.448 . S
Gd520 O543 2.506 . S
Gd520 O544 2.435 . S
Gd520 O545 2.717 . S
Gd520 O547 2.395 . S
Gd520 O551 2.327 . S
Gd521 C532 2.818 . S
Gd521 O541 2.395 . S
Gd521 O545 2.327 . S
Gd521 O546 2.377 . S
Gd521 O548 2.448 . S
Gd521 O549 2.506 . S
Gd521 O550 2.435 . S
Gd521 O551 2.717 . S
C522 O540 1.240 . S
C522 O541 1.240 . S
C523 Gd520 2.818 . S
C523 C524 1.510 . S
C523 O542 1.249 . S
C523 O543 1.252 . S
C524 C523 1.510 . S
C524 C525 1.404 . S
C524 C526 1.352 . S
C525 C524 1.404 . S
C525 C529 1.389 . S
C525 H552 0.930 . S
C526 C524 1.352 . S
C526 C528 1.374 . S
C526 H553 0.931 . S
C527 C528 1.359 . S
C527 C529 1.364 . S
C528 C526 1.374 . S
C528 C527 1.359 . S
C528 H554 0.931 . S
C529 C525 1.389 . S
C529 C527 1.364 . S
C529 H555 0.931 . S
C530 O544 1.256 . S
C530 O545 1.257 . S
C531 O546 1.240 . S
C531 O547 1.240 . S
C532 Gd521 2.818 . S
C532 C533 1.510 . S
C532 O548 1.249 . S
C532 O549 1.252 . S
C533 C532 1.510 . S
C533 C534 1.404 . S
C533 C535 1.352 . S
C534 C533 1.404 . S
C534 C538 1.389 . S
C534 H556 0.930 . S
C535 C533 1.352 . S
C535 C537 1.374 . S
C535 H557 0.931 . S
C536 C537 1.359 . S
C536 C538 1.364 . S
C537 C535 1.374 . S
C537 C536 1.359 . S
C537 H558 0.931 . S
C538 C534 1.389 . S
C538 C536 1.364 . S
C538 H559 0.931 . S
C539 O550 1.256 . S
C539 O551 1.257 . S
O540 Gd520 2.377 . S
O540 C522 1.240 . S
O541 Gd521 2.395 . S
O541 C522 1.240 . S
O542 Gd520 2.448 . S
O542 C523 1.249 . S
O543 Gd520 2.506 . S
O543 C523 1.252 . S
O544 Gd520 2.435 . S
O544 C530 1.256 . S
O545 Gd520 2.717 . S
O545 Gd521 2.327 . S
O545 C530 1.257 . S
O546 Gd521 2.377 . S
O546 C531 1.240 . S
O547 Gd520 2.395 . S
O547 C531 1.240 . S
O548 Gd521 2.448 . S
O548 C532 1.249 . S
O549 Gd521 2.506 . S
O549 C532 1.252 . S
O550 Gd521 2.435 . S
O550 C539 1.256 . S
O551 Gd520 2.327 . S
O551 Gd521 2.717 . S
O551 C539 1.257 . S
H552 C525 0.930 . S
H553 C526 0.931 . S
H554 C528 0.931 . S
H555 C529 0.931 . S
H556 C534 0.930 . S
H557 C535 0.931 . S
H558 C537 0.931 . S
H559 C538 0.931 . S
Gd560 C563 2.818 . S
Gd560 O580 2.377 . S
Gd560 O582 2.448 . S
Gd560 O583 2.506 . S
Gd560 O584 2.435 . S
Gd560 O585 2.717 . S
Gd560 O587 2.395 . S
Gd560 O591 2.327 . S
Gd561 C572 2.818 . S
Gd561 O581 2.395 . S
Gd561 O585 2.327 . S
Gd561 O586 2.377 . S
Gd561 O588 2.448 . S
Gd561 O589 2.506 . S
Gd561 O590 2.435 . S
Gd561 O591 2.717 . S
C562 O580 1.240 . S
C562 O581 1.240 . S
C563 Gd560 2.818 . S
C563 C564 1.510 . S
C563 O582 1.249 . S
C563 O583 1.252 . S
C564 C563 1.510 . S
C564 C565 1.404 . S
C564 C566 1.352 . S
C565 C564 1.404 . S
C565 C569 1.389 . S
C565 H592 0.930 . S
C566 C564 1.352 . S
C566 C568 1.374 . S
C566 H593 0.931 . S
C567 C568 1.359 . S
C567 C569 1.364 . S
C568 C566 1.374 . S
C568 C567 1.359 . S
C568 H594 0.931 . S
C569 C565 1.389 . S
C569 C567 1.364 . S
C569 H595 0.931 . S
C570 O584 1.256 . S
C570 O585 1.257 . S
C571 O586 1.240 . S
C571 O587 1.240 . S
C572 Gd561 2.818 . S
C572 C573 1.510 . S
C572 O588 1.249 . S
C572 O589 1.252 . S
C573 C572 1.510 . S
C573 C574 1.404 . S
C573 C575 1.352 . S
C574 C573 1.404 . S
C574 C578 1.389 . S
C574 H596 0.930 . S
C575 C573 1.352 . S
C575 C577 1.374 . S
C575 H597 0.931 . S
C576 C577 1.359 . S
C576 C578 1.364 . S
C577 C575 1.374 . S
C577 C576 1.359 . S
C577 H598 0.931 . S
C578 C574 1.389 . S
C578 C576 1.364 . S
C578 H599 0.931 . S
C579 O590 1.256 . S
C579 O591 1.257 . S
O580 Gd560 2.377 . S
O580 C562 1.240 . S
O581 Gd561 2.395 . S
O581 C562 1.240 . S
O582 Gd560 2.448 . S
O582 C563 1.249 . S
O583 Gd560 2.506 . S
O583 C563 1.252 . S
O584 Gd560 2.435 . S
O584 C570 1.256 . S
O585 Gd560 2.717 . S
O585 Gd561 2.327 . S
O585 C570 1.257 . S
O586 Gd561 2.377 . S
O586 C571 1.240 . S
O587 Gd560 2.395 . S
O587 C571 1.240 . S
O588 Gd561 2.448 . S
O588 C572 1.249 . S
O589 Gd561 2.506 . S
O589 C572 1.252 . S
O590 Gd561 2.435 . S
O590 C579 1.256 . S
O591 Gd560 2.327 . S
O591 Gd561 2.717 . S
O591 C579 1.257 . S
H592 C565 0.930 . S
H593 C566 0.931 . S
H594 C568 0.931 . S
H595 C569 0.931 . S
H596 C574 0.930 . S
H597 C575 0.931 . S
H598 C577 0.931 . S
H599 C578 0.931 . S
Gd600 C603 2.818 . S
Gd600 O620 2.377 . S
Gd600 O622 2.448 . S
Gd600 O623 2.506 . S
Gd600 O624 2.435 . S
Gd600 O625 2.717 . S
Gd600 O627 2.395 . S
Gd600 O631 2.327 . S
Gd601 C612 2.818 . S
Gd601 O621 2.395 . S
Gd601 O625 2.327 . S
Gd601 O626 2.377 . S
Gd601 O628 2.448 . S
Gd601 O629 2.506 . S
Gd601 O630 2.435 . S
Gd601 O631 2.717 . S
C602 O620 1.240 . S
C602 O621 1.240 . S
C603 Gd600 2.818 . S
C603 C604 1.510 . S
C603 O622 1.249 . S
C603 O623 1.252 . S
C604 C603 1.510 . S
C604 C605 1.404 . S
C604 C606 1.352 . S
C605 C604 1.404 . S
C605 C609 1.389 . S
C605 H632 0.930 . S
C606 C604 1.352 . S
C606 C608 1.374 . S
C606 H633 0.931 . S
C607 C608 1.359 . S
C607 C609 1.364 . S
C608 C606 1.374 . S
C608 C607 1.359 . S
C608 H634 0.931 . S
C609 C605 1.389 . S
C609 C607 1.364 . S
C609 H635 0.931 . S
C610 O624 1.256 . S
C610 O625 1.257 . S
C611 O626 1.240 . S
C611 O627 1.240 . S
C612 Gd601 2.818 . S
C612 C613 1.510 . S
C612 O628 1.249 . S
C612 O629 1.252 . S
C613 C612 1.510 . S
C613 C614 1.404 . S
C613 C615 1.352 . S
C614 C613 1.404 . S
C614 C618 1.389 . S
C614 H636 0.930 . S
C615 C613 1.352 . S
C615 C617 1.374 . S
C615 H637 0.931 . S
C616 C617 1.359 . S
C616 C618 1.364 . S
C617 C615 1.374 . S
C617 C616 1.359 . S
C617 H638 0.931 . S
C618 C614 1.389 . S
C618 C616 1.364 . S
C618 H639 0.931 . S
C619 O630 1.256 . S
C619 O631 1.257 . S
O620 Gd600 2.377 . S
O620 C602 1.240 . S
O621 Gd601 2.395 . S
O621 C602 1.240 . S
O622 Gd600 2.448 . S
O622 C603 1.249 . S
O623 Gd600 2.506 . S
O623 C603 1.252 . S
O624 Gd600 2.435 . S
O624 C610 1.256 . S
O625 Gd600 2.717 . S
O625 Gd601 2.327 . S
O625 C610 1.257 . S
O626 Gd601 2.377 . S
O626 C611 1.240 . S
O627 Gd600 2.395 . S
O627 C611 1.240 . S
O628 Gd601 2.448 . S
O628 C612 1.249 . S
O629 Gd601 2.506 . S
O629 C612 1.252 . S
O630 Gd601 2.435 . S
O630 C619 1.256 . S
O631 Gd600 2.327 . S
O631 Gd601 2.717 . S
O631 C619 1.257 . S
H632 C605 0.930 . S
H633 C606 0.931 . S
H634 C608 0.931 . S
H635 C609 0.931 . S
H636 C614 0.930 . S
H637 C615 0.931 . S
H638 C617 0.931 . S
H639 C618 0.931 . S
Gd640 C643 2.818 . S
Gd640 O660 2.377 . S
Gd640 O662 2.448 . S
Gd640 O663 2.506 . S
Gd640 O664 2.435 . S
Gd640 O665 2.717 . S
Gd640 O667 2.395 . S
Gd640 O671 2.327 . S
Gd641 C652 2.818 . S
Gd641 O661 2.395 . S
Gd641 O665 2.327 . S
Gd641 O666 2.377 . S
Gd641 O668 2.448 . S
Gd641 O669 2.506 . S
Gd641 O670 2.435 . S
Gd641 O671 2.717 . S
C642 O660 1.240 . S
C642 O661 1.240 . S
C643 Gd640 2.818 . S
C643 C644 1.510 . S
C643 O662 1.249 . S
C643 O663 1.252 . S
C644 C643 1.510 . S
C644 C645 1.404 . S
C644 C646 1.352 . S
C645 C644 1.404 . S
C645 C649 1.389 . S
C645 H672 0.930 . S
C646 C644 1.352 . S
C646 C648 1.374 . S
C646 H673 0.931 . S
C647 C648 1.359 . S
C647 C649 1.364 . S
C648 C646 1.374 . S
C648 C647 1.359 . S
C648 H674 0.931 . S
C649 C645 1.389 . S
C649 C647 1.364 . S
C649 H675 0.931 . S
C650 O664 1.256 . S
C650 O665 1.257 . S
C651 O666 1.240 . S
C651 O667 1.240 . S
C652 Gd641 2.818 . S
C652 C653 1.510 . S
C652 O668 1.249 . S
C652 O669 1.252 . S
C653 C652 1.510 . S
C653 C654 1.404 . S
C653 C655 1.352 . S
C654 C653 1.404 . S
C654 C658 1.389 . S
C654 H676 0.930 . S
C655 C653 1.352 . S
C655 C657 1.374 . S
C655 H677 0.931 . S
C656 C657 1.359 . S
C656 C658 1.364 . S
C657 C655 1.374 . S
C657 C656 1.359 . S
C657 H678 0.931 . S
C658 C654 1.389 . S
C658 C656 1.364 . S
C658 H679 0.931 . S
C659 O670 1.256 . S
C659 O671 1.257 . S
O660 Gd640 2.377 . S
O660 C642 1.240 . S
O661 Gd641 2.395 . S
O661 C642 1.240 . S
O662 Gd640 2.448 . S
O662 C643 1.249 . S
O663 Gd640 2.506 . S
O663 C643 1.252 . S
O664 Gd640 2.435 . S
O664 C650 1.256 . S
O665 Gd640 2.717 . S
O665 Gd641 2.327 . S
O665 C650 1.257 . S
O666 Gd641 2.377 . S
O666 C651 1.240 . S
O667 Gd640 2.395 . S
O667 C651 1.240 . S
O668 Gd641 2.448 . S
O668 C652 1.249 . S
O669 Gd641 2.506 . S
O669 C652 1.252 . S
O670 Gd641 2.435 . S
O670 C659 1.256 . S
O671 Gd640 2.327 . S
O671 Gd641 2.717 . S
O671 C659 1.257 . S
H672 C645 0.930 . S
H673 C646 0.931 . S
H674 C648 0.931 . S
H675 C649 0.931 . S
H676 C654 0.930 . S
H677 C655 0.931 . S
H678 C657 0.931 . S
H679 C658 0.931 . S
Gd680 C683 2.818 . S
Gd680 O700 2.377 . S
Gd680 O702 2.448 . S
Gd680 O703 2.506 . S
Gd680 O704 2.435 . S
Gd680 O705 2.717 . S
Gd680 O707 2.395 . S
Gd680 O711 2.327 . S
Gd681 C692 2.818 . S
Gd681 O701 2.395 . S
Gd681 O705 2.327 . S
Gd681 O706 2.377 . S
Gd681 O708 2.448 . S
Gd681 O709 2.506 . S
Gd681 O710 2.435 . S
Gd681 O711 2.717 . S
C682 O700 1.240 . S
C682 O701 1.240 . S
C683 Gd680 2.818 . S
C683 C684 1.510 . S
C683 O702 1.249 . S
C683 O703 1.252 . S
C684 C683 1.510 . S
C684 C685 1.404 . S
C684 C686 1.352 . S
C685 C684 1.404 . S
C685 C689 1.389 . S
C685 H712 0.930 . S
C686 C684 1.352 . S
C686 C688 1.374 . S
C686 H713 0.931 . S
C687 C688 1.359 . S
C687 C689 1.364 . S
C688 C686 1.374 . S
C688 C687 1.359 . S
C688 H714 0.931 . S
C689 C685 1.389 . S
C689 C687 1.364 . S
C689 H715 0.931 . S
C690 O704 1.256 . S
C690 O705 1.257 . S
C691 O706 1.240 . S
C691 O707 1.240 . S
C692 Gd681 2.818 . S
C692 C693 1.510 . S
C692 O708 1.249 . S
C692 O709 1.252 . S
C693 C692 1.510 . S
C693 C694 1.404 . S
C693 C695 1.352 . S
C694 C693 1.404 . S
C694 C698 1.389 . S
C694 H716 0.930 . S
C695 C693 1.352 . S
C695 C697 1.374 . S
C695 H717 0.931 . S
C696 C697 1.359 . S
C696 C698 1.364 . S
C697 C695 1.374 . S
C697 C696 1.359 . S
C697 H718 0.931 . S
C698 C694 1.389 . S
C698 C696 1.364 . S
C698 H719 0.931 . S
C699 O710 1.256 . S
C699 O711 1.257 . S
O700 Gd680 2.377 . S
O700 C682 1.240 . S
O701 Gd681 2.395 . S
O701 C682 1.240 . S
O702 Gd680 2.448 . S
O702 C683 1.249 . S
O703 Gd680 2.506 . S
O703 C683 1.252 . S
O704 Gd680 2.435 . S
O704 C690 1.256 . S
O705 Gd680 2.717 . S
O705 Gd681 2.327 . S
O705 C690 1.257 . S
O706 Gd681 2.377 . S
O706 C691 1.240 . S
O707 Gd680 2.395 . S
O707 C691 1.240 . S
O708 Gd681 2.448 . S
O708 C692 1.249 . S
O709 Gd681 2.506 . S
O709 C692 1.252 . S
O710 Gd681 2.435 . S
O710 C699 1.256 . S
O711 Gd680 2.327 . S
O711 Gd681 2.717 . S
O711 C699 1.257 . S
H712 C685 0.930 . S
H713 C686 0.931 . S
H714 C688 0.931 . S
H715 C689 0.931 . S
H716 C694 0.930 . S
H717 C695 0.931 . S
H718 C697 0.931 . S
H719 C698 0.931 . S
Gd720 C723 2.818 . S
Gd720 O740 2.377 . S
Gd720 O742 2.448 . S
Gd720 O743 2.506 . S
Gd720 O744 2.435 . S
Gd720 O745 2.717 . S
Gd720 O747 2.395 . S
Gd720 O751 2.327 . S
Gd721 C732 2.818 . S
Gd721 O741 2.395 . S
Gd721 O745 2.327 . S
Gd721 O746 2.377 . S
Gd721 O748 2.448 . S
Gd721 O749 2.506 . S
Gd721 O750 2.435 . S
Gd721 O751 2.717 . S
C722 O740 1.240 . S
C722 O741 1.240 . S
C723 Gd720 2.818 . S
C723 C724 1.510 . S
C723 O742 1.249 . S
C723 O743 1.252 . S
C724 C723 1.510 . S
C724 C725 1.404 . S
C724 C726 1.352 . S
C725 C724 1.404 . S
C725 C729 1.389 . S
C725 H752 0.930 . S
C726 C724 1.352 . S
C726 C728 1.374 . S
C726 H753 0.931 . S
C727 C728 1.359 . S
C727 C729 1.364 . S
C728 C726 1.374 . S
C728 C727 1.359 . S
C728 H754 0.931 . S
C729 C725 1.389 . S
C729 C727 1.364 . S
C729 H755 0.931 . S
C730 O744 1.256 . S
C730 O745 1.257 . S
C731 O746 1.240 . S
C731 O747 1.240 . S
C732 Gd721 2.818 . S
C732 C733 1.510 . S
C732 O748 1.249 . S
C732 O749 1.252 . S
C733 C732 1.510 . S
C733 C734 1.404 . S
C733 C735 1.352 . S
C734 C733 1.404 . S
C734 C738 1.389 . S
C734 H756 0.930 . S
C735 C733 1.352 . S
C735 C737 1.374 . S
C735 H757 0.931 . S
C736 C737 1.359 . S
C736 C738 1.364 . S
C737 C735 1.374 . S
C737 C736 1.359 . S
C737 H758 0.931 . S
C738 C734 1.389 . S
C738 C736 1.364 . S
C738 H759 0.931 . S
C739 O750 1.256 . S
C739 O751 1.257 . S
O740 Gd720 2.377 . S
O740 C722 1.240 . S
O741 Gd721 2.395 . S
O741 C722 1.240 . S
O742 Gd720 2.448 . S
O742 C723 1.249 . S
O743 Gd720 2.506 . S
O743 C723 1.252 . S
O744 Gd720 2.435 . S
O744 C730 1.256 . S
O745 Gd720 2.717 . S
O745 Gd721 2.327 . S
O745 C730 1.257 . S
O746 Gd721 2.377 . S
O746 C731 1.240 . S
O747 Gd720 2.395 . S
O747 C731 1.240 . S
O748 Gd721 2.448 . S
O748 C732 1.249 . S
O749 Gd721 2.506 . S
O749 C732 1.252 . S
O750 Gd721 2.435 . S
O750 C739 1.256 . S
O751 Gd720 2.327 . S
O751 Gd721 2.717 . S
O751 C739 1.257 . S
H752 C725 0.930 . S
H753 C726 0.931 . S
H754 C728 0.931 . S
H755 C729 0.931 . S
H756 C734 0.930 . S
H757 C735 0.931 . S
H758 C737 0.931 . S
H759 C738 0.931 . S
Gd760 C763 2.818 . S
Gd760 O780 2.377 . S
Gd760 O782 2.448 . S
Gd760 O783 2.506 . S
Gd760 O784 2.435 . S
Gd760 O785 2.717 . S
Gd760 O787 2.395 . S
Gd760 O791 2.327 . S
Gd761 C772 2.818 . S
Gd761 O781 2.395 . S
Gd761 O785 2.327 . S
Gd761 O786 2.377 . S
Gd761 O788 2.448 . S
Gd761 O789 2.506 . S
Gd761 O790 2.435 . S
Gd761 O791 2.717 . S
C762 O780 1.240 . S
C762 O781 1.240 . S
C763 Gd760 2.818 . S
C763 C764 1.510 . S
C763 O782 1.249 . S
C763 O783 1.252 . S
C764 C763 1.510 . S
C764 C765 1.404 . S
C764 C766 1.352 . S
C765 C764 1.404 . S
C765 C769 1.389 . S
C765 H792 0.930 . S
C766 C764 1.352 . S
C766 C768 1.374 . S
C766 H793 0.931 . S
C767 C768 1.359 . S
C767 C769 1.364 . S
C768 C766 1.374 . S
C768 C767 1.359 . S
C768 H794 0.931 . S
C769 C765 1.389 . S
C769 C767 1.364 . S
C769 H795 0.931 . S
C770 O784 1.256 . S
C770 O785 1.257 . S
C771 O786 1.240 . S
C771 O787 1.240 . S
C772 Gd761 2.818 . S
C772 C773 1.510 . S
C772 O788 1.249 . S
C772 O789 1.252 . S
C773 C772 1.510 . S
C773 C774 1.404 . S
C773 C775 1.352 . S
C774 C773 1.404 . S
C774 C778 1.389 . S
C774 H796 0.930 . S
C775 C773 1.352 . S
C775 C777 1.374 . S
C775 H797 0.931 . S
C776 C777 1.359 . S
C776 C778 1.364 . S
C777 C775 1.374 . S
C777 C776 1.359 . S
C777 H798 0.931 . S
C778 C774 1.389 . S
C778 C776 1.364 . S
C778 H799 0.931 . S
C779 O790 1.256 . S
C779 O791 1.257 . S
O780 Gd760 2.377 . S
O780 C762 1.240 . S
O781 Gd761 2.395 . S
O781 C762 1.240 . S
O782 Gd760 2.448 . S
O782 C763 1.249 . S
O783 Gd760 2.506 . S
O783 C763 1.252 . S
O784 Gd760 2.435 . S
O784 C770 1.256 . S
O785 Gd760 2.717 . S
O785 Gd761 2.327 . S
O785 C770 1.257 . S
O786 Gd761 2.377 . S
O786 C771 1.240 . S
O787 Gd760 2.395 . S
O787 C771 1.240 . S
O788 Gd761 2.448 . S
O788 C772 1.249 . S
O789 Gd761 2.506 . S
O789 C772 1.252 . S
O790 Gd761 2.435 . S
O790 C779 1.256 . S
O791 Gd760 2.327 . S
O791 Gd761 2.717 . S
O791 C779 1.257 . S
H792 C765 0.930 . S
H793 C766 0.931 . S
H794 C768 0.931 . S
H795 C769 0.931 . S
H796 C774 0.930 . S
H797 C775 0.931 . S
H798 C777 0.931 . S
H799 C778 0.931 . S
Gd800 C803 2.818 . S
Gd800 O820 2.377 . S
Gd800 O822 2.448 . S
Gd800 O823 2.506 . S
Gd800 O824 2.435 . S
Gd800 O825 2.717 . S
Gd800 O827 2.395 . S
Gd800 O831 2.327 . S
Gd801 C812 2.818 . S
Gd801 O821 2.395 . S
Gd801 O825 2.327 . S
Gd801 O826 2.377 . S
Gd801 O828 2.448 . S
Gd801 O829 2.506 . S
Gd801 O830 2.435 . S
Gd801 O831 2.717 . S
C802 O820 1.240 . S
C802 O821 1.240 . S
C803 Gd800 2.818 . S
C803 C804 1.510 . S
C803 O822 1.249 . S
C803 O823 1.252 . S
C804 C803 1.510 . S
C804 C805 1.404 . S
C804 C806 1.352 . S
C805 C804 1.404 . S
C805 C809 1.389 . S
C805 H832 0.930 . S
C806 C804 1.352 . S
C806 C808 1.374 . S
C806 H833 0.931 . S
C807 C808 1.359 . S
C807 C809 1.364 . S
C808 C806 1.374 . S
C808 C807 1.359 . S
C808 H834 0.931 . S
C809 C805 1.389 . S
C809 C807 1.364 . S
C809 H835 0.931 . S
C810 O824 1.256 . S
C810 O825 1.257 . S
C811 O826 1.240 . S
C811 O827 1.240 . S
C812 Gd801 2.818 . S
C812 C813 1.510 . S
C812 O828 1.249 . S
C812 O829 1.252 . S
C813 C812 1.510 . S
C813 C814 1.404 . S
C813 C815 1.352 . S
C814 C813 1.404 . S
C814 C818 1.389 . S
C814 H836 0.930 . S
C815 C813 1.352 . S
C815 C817 1.374 . S
C815 H837 0.931 . S
C816 C817 1.359 . S
C816 C818 1.364 . S
C817 C815 1.374 . S
C817 C816 1.359 . S
C817 H838 0.931 . S
C818 C814 1.389 . S
C818 C816 1.364 . S
C818 H839 0.931 . S
C819 O830 1.256 . S
C819 O831 1.257 . S
O820 Gd800 2.377 . S
O820 C802 1.240 . S
O821 Gd801 2.395 . S
O821 C802 1.240 . S
O822 Gd800 2.448 . S
O822 C803 1.249 . S
O823 Gd800 2.506 . S
O823 C803 1.252 . S
O824 Gd800 2.435 . S
O824 C810 1.256 . S
O825 Gd800 2.717 . S
O825 Gd801 2.327 . S
O825 C810 1.257 . S
O826 Gd801 2.377 . S
O826 C811 1.240 . S
O827 Gd800 2.395 . S
O827 C811 1.240 . S
O828 Gd801 2.448 . S
O828 C812 1.249 . S
O829 Gd801 2.506 . S
O829 C812 1.252 . S
O830 Gd801 2.435 . S
O830 C819 1.256 . S
O831 Gd800 2.327 . S
O831 Gd801 2.717 . S
O831 C819 1.257 . S
H832 C805 0.930 . S
H833 C806 0.931 . S
H834 C808 0.931 . S
H835 C809 0.931 . S
H836 C814 0.930 . S
H837 C815 0.931 . S
H838 C817 0.931 . S
H839 C818 0.931 . S
Gd840 C843 2.818 . S
Gd840 O860 2.377 . S
Gd840 O862 2.448 . S
Gd840 O863 2.506 . S
Gd840 O864 2.435 . S
Gd840 O865 2.717 . S
Gd840 O867 2.395 . S
Gd840 O871 2.327 . S
Gd841 C852 2.818 . S
Gd841 O861 2.395 . S
Gd841 O865 2.327 . S
Gd841 O866 2.377 . S
Gd841 O868 2.448 . S
Gd841 O869 2.506 . S
Gd841 O870 2.435 . S
Gd841 O871 2.717 . S
C842 O860 1.240 . S
C842 O861 1.240 . S
C843 Gd840 2.818 . S
C843 C844 1.510 . S
C843 O862 1.249 . S
C843 O863 1.252 . S
C844 C843 1.510 . S
C844 C845 1.404 . S
C844 C846 1.352 . S
C845 C844 1.404 . S
C845 C849 1.389 . S
C845 H872 0.930 . S
C846 C844 1.352 . S
C846 C848 1.374 . S
C846 H873 0.931 . S
C847 C848 1.359 . S
C847 C849 1.364 . S
C848 C846 1.374 . S
C848 C847 1.359 . S
C848 H874 0.931 . S
C849 C845 1.389 . S
C849 C847 1.364 . S
C849 H875 0.931 . S
C850 O864 1.256 . S
C850 O865 1.257 . S
C851 O866 1.240 . S
C851 O867 1.240 . S
C852 Gd841 2.818 . S
C852 C853 1.510 . S
C852 O868 1.249 . S
C852 O869 1.252 . S
C853 C852 1.510 . S
C853 C854 1.404 . S
C853 C855 1.352 . S
C854 C853 1.404 . S
C854 C858 1.389 . S
C854 H876 0.930 . S
C855 C853 1.352 . S
C855 C857 1.374 . S
C855 H877 0.931 . S
C856 C857 1.359 . S
C856 C858 1.364 . S
C857 C855 1.374 . S
C857 C856 1.359 . S
C857 H878 0.931 . S
C858 C854 1.389 . S
C858 C856 1.364 . S
C858 H879 0.931 . S
C859 O870 1.256 . S
C859 O871 1.257 . S
O860 Gd840 2.377 . S
O860 C842 1.240 . S
O861 Gd841 2.395 . S
O861 C842 1.240 . S
O862 Gd840 2.448 . S
O862 C843 1.249 . S
O863 Gd840 2.506 . S
O863 C843 1.252 . S
O864 Gd840 2.435 . S
O864 C850 1.256 . S
O865 Gd840 2.717 . S
O865 Gd841 2.327 . S
O865 C850 1.257 . S
O866 Gd841 2.377 . S
O866 C851 1.240 . S
O867 Gd840 2.395 . S
O867 C851 1.240 . S
O868 Gd841 2.448 . S
O868 C852 1.249 . S
O869 Gd841 2.506 . S
O869 C852 1.252 . S
O870 Gd841 2.435 . S
O870 C859 1.256 . S
O871 Gd840 2.327 . S
O871 Gd841 2.717 . S
O871 C859 1.257 . S
H872 C845 0.930 . S
H873 C846 0.931 . S
H874 C848 0.931 . S
H875 C849 0.931 . S
H876 C854 0.930 . S
H877 C855 0.931 . S
H878 C857 0.931 . S
H879 C858 0.931 . S
Gd880 C883 2.818 . S
Gd880 O900 2.377 . S
Gd880 O902 2.448 . S
Gd880 O903 2.506 . S
Gd880 O904 2.435 . S
Gd880 O905 2.717 . S
Gd880 O907 2.395 . S
Gd880 O911 2.327 . S
Gd881 C892 2.818 . S
Gd881 O901 2.395 . S
Gd881 O905 2.327 . S
Gd881 O906 2.377 . S
Gd881 O908 2.448 . S
Gd881 O909 2.506 . S
Gd881 O910 2.435 . S
Gd881 O911 2.717 . S
C882 O900 1.240 . S
C882 O901 1.240 . S
C883 Gd880 2.818 . S
C883 C884 1.510 . S
C883 O902 1.249 . S
C883 O903 1.252 . S
C884 C883 1.510 . S
C884 C885 1.404 . S
C884 C886 1.352 . S
C885 C884 1.404 . S
C885 C889 1.389 . S
C885 H912 0.930 . S
C886 C884 1.352 . S
C886 C888 1.374 . S
C886 H913 0.931 . S
C887 C888 1.359 . S
C887 C889 1.364 . S
C888 C886 1.374 . S
C888 C887 1.359 . S
C888 H914 0.931 . S
C889 C885 1.389 . S
C889 C887 1.364 . S
C889 H915 0.931 . S
C890 O904 1.256 . S
C890 O905 1.257 . S
C891 O906 1.240 . S
C891 O907 1.240 . S
C892 Gd881 2.818 . S
C892 C893 1.510 . S
C892 O908 1.249 . S
C892 O909 1.252 . S
C893 C892 1.510 . S
C893 C894 1.404 . S
C893 C895 1.352 . S
C894 C893 1.404 . S
C894 C898 1.389 . S
C894 H916 0.930 . S
C895 C893 1.352 . S
C895 C897 1.374 . S
C895 H917 0.931 . S
C896 C897 1.359 . S
C896 C898 1.364 . S
C897 C895 1.374 . S
C897 C896 1.359 . S
C897 H918 0.931 . S
C898 C894 1.389 . S
C898 C896 1.364 . S
C898 H919 0.931 . S
C899 O910 1.256 . S
C899 O911 1.257 . S
O900 Gd880 2.377 . S
O900 C882 1.240 . S
O901 Gd881 2.395 . S
O901 C882 1.240 . S
O902 Gd880 2.448 . S
O902 C883 1.249 . S
O903 Gd880 2.506 . S
O903 C883 1.252 . S
O904 Gd880 2.435 . S
O904 C890 1.256 . S
O905 Gd880 2.717 . S
O905 Gd881 2.327 . S
O905 C890 1.257 . S
O906 Gd881 2.377 . S
O906 C891 1.240 . S
O907 Gd880 2.395 . S
O907 C891 1.240 . S
O908 Gd881 2.448 . S
O908 C892 1.249 . S
O909 Gd881 2.506 . S
O909 C892 1.252 . S
O910 Gd881 2.435 . S
O910 C899 1.256 . S
O911 Gd880 2.327 . S
O911 Gd881 2.717 . S
O911 C899 1.257 . S
H912 C885 0.930 . S
H913 C886 0.931 . S
H914 C888 0.931 . S
H915 C889 0.931 . S
H916 C894 0.930 . S
H917 C895 0.931 . S
H918 C897 0.931 . S
H919 C898 0.931 . S
Gd920 C923 2.818 . S
Gd920 O940 2.377 . S
Gd920 O942 2.448 . S
Gd920 O943 2.506 . S
Gd920 O944 2.435 . S
Gd920 O945 2.717 . S
Gd920 O947 2.395 . S
Gd920 O951 2.327 . S
Gd921 C932 2.818 . S
Gd921 O941 2.395 . S
Gd921 O945 2.327 . S
Gd921 O946 2.377 . S
Gd921 O948 2.448 . S
Gd921 O949 2.506 . S
Gd921 O950 2.435 . S
Gd921 O951 2.717 . S
C922 O940 1.240 . S
C922 O941 1.240 . S
C923 Gd920 2.818 . S
C923 C924 1.510 . S
C923 O942 1.249 . S
C923 O943 1.252 . S
C924 C923 1.510 . S
C924 C925 1.404 . S
C924 C926 1.352 . S
C925 C924 1.404 . S
C925 C929 1.389 . S
C925 H952 0.930 . S
C926 C924 1.352 . S
C926 C928 1.374 . S
C926 H953 0.931 . S
C927 C928 1.359 . S
C927 C929 1.364 . S
C928 C926 1.374 . S
C928 C927 1.359 . S
C928 H954 0.931 . S
C929 C925 1.389 . S
C929 C927 1.364 . S
C929 H955 0.931 . S
C930 O944 1.256 . S
C930 O945 1.257 . S
C931 O946 1.240 . S
C931 O947 1.240 . S
C932 Gd921 2.818 . S
C932 C933 1.510 . S
C932 O948 1.249 . S
C932 O949 1.252 . S
C933 C932 1.510 . S
C933 C934 1.404 . S
C933 C935 1.352 . S
C934 C933 1.404 . S
C934 C938 1.389 . S
C934 H956 0.930 . S
C935 C933 1.352 . S
C935 C937 1.374 . S
C935 H957 0.931 . S
C936 C937 1.359 . S
C936 C938 1.364 . S
C937 C935 1.374 . S
C937 C936 1.359 . S
C937 H958 0.931 . S
C938 C934 1.389 . S
C938 C936 1.364 . S
C938 H959 0.931 . S
C939 O950 1.256 . S
C939 O951 1.257 . S
O940 Gd920 2.377 . S
O940 C922 1.240 . S
O941 Gd921 2.395 . S
O941 C922 1.240 . S
O942 Gd920 2.448 . S
O942 C923 1.249 . S
O943 Gd920 2.506 . S
O943 C923 1.252 . S
O944 Gd920 2.435 . S
O944 C930 1.256 . S
O945 Gd920 2.717 . S
O945 Gd921 2.327 . S
O945 C930 1.257 . S
O946 Gd921 2.377 . S
O946 C931 1.240 . S
O947 Gd920 2.395 . S
O947 C931 1.240 . S
O948 Gd921 2.448 . S
O948 C932 1.249 . S
O949 Gd921 2.506 . S
O949 C932 1.252 . S
O950 Gd921 2.435 . S
O950 C939 1.256 . S
O951 Gd920 2.327 . S
O951 Gd921 2.717 . S
O951 C939 1.257 . S
H952 C925 0.930 . S
H953 C926 0.931 . S
H954 C928 0.931 . S
H955 C929 0.931 . S
H956 C934 0.930 . S
H957 C935 0.931 . S
H958 C937 0.931 . S
H959 C938 0.931 . S
Gd960 C963 2.818 . S
Gd960 O980 2.377 . S
Gd960 O982 2.448 . S
Gd960 O983 2.506 . S
Gd960 O984 2.435 . S
Gd960 O985 2.717 . S
Gd960 O987 2.395 . S
Gd960 O991 2.327 . S
Gd961 C972 2.818 . S
Gd961 O981 2.395 . S
Gd961 O985 2.327 . S
Gd961 O986 2.377 . S
Gd961 O988 2.448 . S
Gd961 O989 2.506 . S
Gd961 O990 2.435 . S
Gd961 O991 2.717 . S
C962 O980 1.240 . S
C962 O981 1.240 . S
C963 Gd960 2.818 . S
C963 C964 1.510 . S
C963 O982 1.249 . S
C963 O983 1.252 . S
C964 C963 1.510 . S
C964 C965 1.404 . S
C964 C966 1.352 . S
C965 C964 1.404 . S
C965 C969 1.389 . S
C965 H992 0.930 . S
C966 C964 1.352 . S
C966 C968 1.374 . S
C966 H993 0.931 . S
C967 C968 1.359 . S
C967 C969 1.364 . S
C968 C966 1.374 . S
C968 C967 1.359 . S
C968 H994 0.931 . S
C969 C965 1.389 . S
C969 C967 1.364 . S
C969 H995 0.931 . S
C970 O984 1.256 . S
C970 O985 1.257 . S
C971 O986 1.240 . S
C971 O987 1.240 . S
C972 Gd961 2.818 . S
C972 C973 1.510 . S
C972 O988 1.249 . S
C972 O989 1.252 . S
C973 C972 1.510 . S
C973 C974 1.404 . S
C973 C975 1.352 . S
C974 C973 1.404 . S
C974 C978 1.389 . S
C974 H996 0.930 . S
C975 C973 1.352 . S
C975 C977 1.374 . S
C975 H997 0.931 . S
C976 C977 1.359 . S
C976 C978 1.364 . S
C977 C975 1.374 . S
C977 C976 1.359 . S
C977 H998 0.931 . S
C978 C974 1.389 . S
C978 C976 1.364 . S
C978 H999 0.931 . S
C979 O990 1.256 . S
C979 O991 1.257 . S
O980 Gd960 2.377 . S
O980 C962 1.240 . S
O981 Gd961 2.395 . S
O981 C962 1.240 . S
O982 Gd960 2.448 . S
O982 C963 1.249 . S
O983 Gd960 2.506 . S
O983 C963 1.252 . S
O984 Gd960 2.435 . S
O984 C970 1.256 . S
O985 Gd960 2.717 . S
O985 Gd961 2.327 . S
O985 C970 1.257 . S
O986 Gd961 2.377 . S
O986 C971 1.240 . S
O987 Gd960 2.395 . S
O987 C971 1.240 . S
O988 Gd961 2.448 . S
O988 C972 1.249 . S
O989 Gd961 2.506 . S
O989 C972 1.252 . S
O990 Gd961 2.435 . S
O990 C979 1.256 . S
O991 Gd960 2.327 . S
O991 Gd961 2.717 . S
O991 C979 1.257 . S
H992 C965 0.930 . S
H993 C966 0.931 . S
H994 C968 0.931 . S
H995 C969 0.931 . S
H996 C974 0.930 . S
H997 C975 0.931 . S
H998 C977 0.931 . S
H999 C978 0.931 . S
Gd1000 C1003 2.818 . S
Gd1000 O1020 2.377 . S
Gd1000 O1022 2.448 . S
Gd1000 O1023 2.506 . S
Gd1000 O1024 2.435 . S
Gd1000 O1025 2.717 . S
Gd1000 O1027 2.395 . S
Gd1000 O1031 2.327 . S
Gd1001 C1012 2.818 . S
Gd1001 O1021 2.395 . S
Gd1001 O1025 2.327 . S
Gd1001 O1026 2.377 . S
Gd1001 O1028 2.448 . S
Gd1001 O1029 2.506 . S
Gd1001 O1030 2.435 . S
Gd1001 O1031 2.717 . S
C1002 O1020 1.240 . S
C1002 O1021 1.240 . S
C1003 Gd1000 2.818 . S
C1003 C1004 1.510 . S
C1003 O1022 1.249 . S
C1003 O1023 1.252 . S
C1004 C1003 1.510 . S
C1004 C1005 1.404 . S
C1004 C1006 1.352 . S
C1005 C1004 1.404 . S
C1005 C1009 1.389 . S
C1005 H1032 0.930 . S
C1006 C1004 1.352 . S
C1006 C1008 1.374 . S
C1006 H1033 0.931 . S
C1007 C1008 1.359 . S
C1007 C1009 1.364 . S
C1008 C1006 1.374 . S
C1008 C1007 1.359 . S
C1008 H1034 0.931 . S
C1009 C1005 1.389 . S
C1009 C1007 1.364 . S
C1009 H1035 0.931 . S
C1010 O1024 1.256 . S
C1010 O1025 1.257 . S
C1011 O1026 1.240 . S
C1011 O1027 1.240 . S
C1012 Gd1001 2.818 . S
C1012 C1013 1.510 . S
C1012 O1028 1.249 . S
C1012 O1029 1.252 . S
C1013 C1012 1.510 . S
C1013 C1014 1.404 . S
C1013 C1015 1.352 . S
C1014 C1013 1.404 . S
C1014 C1018 1.389 . S
C1014 H1036 0.930 . S
C1015 C1013 1.352 . S
C1015 C1017 1.374 . S
C1015 H1037 0.931 . S
C1016 C1017 1.359 . S
C1016 C1018 1.364 . S
C1017 C1015 1.374 . S
C1017 C1016 1.359 . S
C1017 H1038 0.931 . S
C1018 C1014 1.389 . S
C1018 C1016 1.364 . S
C1018 H1039 0.931 . S
C1019 O1030 1.256 . S
C1019 O1031 1.257 . S
O1020 Gd1000 2.377 . S
O1020 C1002 1.240 . S
O1021 Gd1001 2.395 . S
O1021 C1002 1.240 . S
O1022 Gd1000 2.448 . S
O1022 C1003 1.249 . S
O1023 Gd1000 2.506 . S
O1023 C1003 1.252 . S
O1024 Gd1000 2.435 . S
O1024 C1010 1.256 . S
O1025 Gd1000 2.717 . S
O1025 Gd1001 2.327 . S
O1025 C1010 1.257 . S
O1026 Gd1001 2.377 . S
O1026 C1011 1.240 . S
O1027 Gd1000 2.395 . S
O1027 C1011 1.240 . S
O1028 Gd1001 2.448 . S
O1028 C1012 1.249 . S
O1029 Gd1001 2.506 . S
O1029 C1012 1.252 . S
O1030 Gd1001 2.435 . S
O1030 C1019 1.256 . S
O1031 Gd1000 2.327 . S
O1031 Gd1001 2.717 . S
O1031 C1019 1.257 . S
H1032 C1005 0.930 . S
H1033 C1006 0.931 . S
H1034 C1008 0.931 . S
H1035 C1009 0.931 . S
H1036 C1014 0.930 . S
H1037 C1015 0.931 . S
H1038 C1017 0.931 . S
H1039 C1018 0.931 . S
Gd1040 C1043 2.818 . S
Gd1040 O1060 2.377 . S
Gd1040 O1062 2.448 . S
Gd1040 O1063 2.506 . S
Gd1040 O1064 2.435 . S
Gd1040 O1065 2.717 . S
Gd1040 O1067 2.395 . S
Gd1040 O1071 2.327 . S
Gd1041 C1052 2.818 . S
Gd1041 O1061 2.395 . S
Gd1041 O1065 2.327 . S
Gd1041 O1066 2.377 . S
Gd1041 O1068 2.448 . S
Gd1041 O1069 2.506 . S
Gd1041 O1070 2.435 . S
Gd1041 O1071 2.717 . S
C1042 O1060 1.240 . S
C1042 O1061 1.240 . S
C1043 Gd1040 2.818 . S
C1043 C1044 1.510 . S
C1043 O1062 1.249 . S
C1043 O1063 1.252 . S
C1044 C1043 1.510 . S
C1044 C1045 1.404 . S
C1044 C1046 1.352 . S
C1045 C1044 1.404 . S
C1045 C1049 1.389 . S
C1045 H1072 0.930 . S
C1046 C1044 1.352 . S
C1046 C1048 1.374 . S
C1046 H1073 0.931 . S
C1047 C1048 1.359 . S
C1047 C1049 1.364 . S
C1048 C1046 1.374 . S
C1048 C1047 1.359 . S
C1048 H1074 0.931 . S
C1049 C1045 1.389 . S
C1049 C1047 1.364 . S
C1049 H1075 0.931 . S
C1050 O1064 1.256 . S
C1050 O1065 1.257 . S
C1051 O1066 1.240 . S
C1051 O1067 1.240 . S
C1052 Gd1041 2.818 . S
C1052 C1053 1.510 . S
C1052 O1068 1.249 . S
C1052 O1069 1.252 . S
C1053 C1052 1.510 . S
C1053 C1054 1.404 . S
C1053 C1055 1.352 . S
C1054 C1053 1.404 . S
C1054 C1058 1.389 . S
C1054 H1076 0.930 . S
C1055 C1053 1.352 . S
C1055 C1057 1.374 . S
C1055 H1077 0.931 . S
C1056 C1057 1.359 . S
C1056 C1058 1.364 . S
C1057 C1055 1.374 . S
C1057 C1056 1.359 . S
C1057 H1078 0.931 . S
C1058 C1054 1.389 . S
C1058 C1056 1.364 . S
C1058 H1079 0.931 . S
C1059 O1070 1.256 . S
C1059 O1071 1.257 . S
O1060 Gd1040 2.377 . S
O1060 C1042 1.240 . S
O1061 Gd1041 2.395 . S
O1061 C1042 1.240 . S
O1062 Gd1040 2.448 . S
O1062 C1043 1.249 . S
O1063 Gd1040 2.506 . S
O1063 C1043 1.252 . S
O1064 Gd1040 2.435 . S
O1064 C1050 1.256 . S
O1065 Gd1040 2.717 . S
O1065 Gd1041 2.327 . S
O1065 C1050 1.257 . S
O1066 Gd1041 2.377 . S
O1066 C1051 1.240 . S
O1067 Gd1040 2.395 . S
O1067 C1051 1.240 . S
O1068 Gd1041 2.448 . S
O1068 C1052 1.249 . S
O1069 Gd1041 2.506 . S
O1069 C1052 1.252 . S
O1070 Gd1041 2.435 . S
O1070 C1059 1.256 . S
O1071 Gd1040 2.327 . S
O1071 Gd1041 2.717 . S
O1071 C1059 1.257 . S
H1072 C1045 0.930 . S
H1073 C1046 0.931 . S
H1074 C1048 0.931 . S
H1075 C1049 0.931 . S
H1076 C1054 0.930 . S
H1077 C1055 0.931 . S
H1078 C1057 0.931 . S
H1079 C1058 0.931 . S
Gd1080 C1083 2.818 . S
Gd1080 O1100 2.377 . S
Gd1080 O1102 2.448 . S
Gd1080 O1103 2.506 . S
Gd1080 O1104 2.435 . S
Gd1080 O1105 2.717 . S
Gd1080 O1107 2.395 . S
Gd1080 O1111 2.327 . S
Gd1081 C1092 2.818 . S
Gd1081 O1101 2.395 . S
Gd1081 O1105 2.327 . S
Gd1081 O1106 2.377 . S
Gd1081 O1108 2.448 . S
Gd1081 O1109 2.506 . S
Gd1081 O1110 2.435 . S
Gd1081 O1111 2.717 . S
C1082 O1100 1.240 . S
C1082 O1101 1.240 . S
C1083 Gd1080 2.818 . S
C1083 C1084 1.510 . S
C1083 O1102 1.249 . S
C1083 O1103 1.252 . S
C1084 C1083 1.510 . S
C1084 C1085 1.404 . S
C1084 C1086 1.352 . S
C1085 C1084 1.404 . S
C1085 C1089 1.389 . S
C1085 H1112 0.930 . S
C1086 C1084 1.352 . S
C1086 C1088 1.374 . S
C1086 H1113 0.931 . S
C1087 C1088 1.359 . S
C1087 C1089 1.364 . S
C1088 C1086 1.374 . S
C1088 C1087 1.359 . S
C1088 H1114 0.931 . S
C1089 C1085 1.389 . S
C1089 C1087 1.364 . S
C1089 H1115 0.931 . S
C1090 O1104 1.256 . S
C1090 O1105 1.257 . S
C1091 O1106 1.240 . S
C1091 O1107 1.240 . S
C1092 Gd1081 2.818 . S
C1092 C1093 1.510 . S
C1092 O1108 1.249 . S
C1092 O1109 1.252 . S
C1093 C1092 1.510 . S
C1093 C1094 1.404 . S
C1093 C1095 1.352 . S
C1094 C1093 1.404 . S
C1094 C1098 1.389 . S
C1094 H1116 0.930 . S
C1095 C1093 1.352 . S
C1095 C1097 1.374 . S
C1095 H1117 0.931 . S
C1096 C1097 1.359 . S
C1096 C1098 1.364 . S
C1097 C1095 1.374 . S
C1097 C1096 1.359 . S
C1097 H1118 0.931 . S
C1098 C1094 1.389 . S
C1098 C1096 1.364 . S
C1098 H1119 0.931 . S
C1099 O1110 1.256 . S
C1099 O1111 1.257 . S
O1100 Gd1080 2.377 . S
O1100 C1082 1.240 . S
O1101 Gd1081 2.395 . S
O1101 C1082 1.240 . S
O1102 Gd1080 2.448 . S
O1102 C1083 1.249 . S
O1103 Gd1080 2.506 . S
O1103 C1083 1.252 . S
O1104 Gd1080 2.435 . S
O1104 C1090 1.256 . S
O1105 Gd1080 2.717 . S
O1105 Gd1081 2.327 . S
O1105 C1090 1.257 . S
O1106 Gd1081 2.377 . S
O1106 C1091 1.240 . S
O1107 Gd1080 2.395 . S
O1107 C1091 1.240 . S
O1108 Gd1081 2.448 . S
O1108 C1092 1.249 . S
O1109 Gd1081 2.506 . S
O1109 C1092 1.252 . S
O1110 Gd1081 2.435 . S
O1110 C1099 1.256 . S
O1111 Gd1080 2.327 . S
O1111 Gd1081 2.717 . S
O1111 C1099 1.257 . S
H1112 C1085 0.930 . S
H1113 C1086 0.931 . S
H1114 C1088 0.931 . S
H1115 C1089 0.931 . S
H1116 C1094 0.930 . S
H1117 C1095 0.931 . S
H1118 C1097 0.931 . S
H1119 C1098 0.931 . S
Gd1120 C1123 2.818 . S
Gd1120 O1140 2.377 . S
Gd1120 O1142 2.448 . S
Gd1120 O1143 2.506 . S
Gd1120 O1144 2.435 . S
Gd1120 O1145 2.717 . S
Gd1120 O1147 2.395 . S
Gd1120 O1151 2.327 . S
Gd1121 C1132 2.818 . S
Gd1121 O1141 2.395 . S
Gd1121 O1145 2.327 . S
Gd1121 O1146 2.377 . S
Gd1121 O1148 2.448 . S
Gd1121 O1149 2.506 . S
Gd1121 O1150 2.435 . S
Gd1121 O1151 2.717 . S
C1122 O1140 1.240 . S
C1122 O1141 1.240 . S
C1123 Gd1120 2.818 . S
C1123 C1124 1.510 . S
C1123 O1142 1.249 . S
C1123 O1143 1.252 . S
C1124 C1123 1.510 . S
C1124 C1125 1.404 . S
C1124 C1126 1.352 . S
C1125 C1124 1.404 . S
C1125 C1129 1.389 . S
C1125 H1152 0.930 . S
C1126 C1124 1.352 . S
C1126 C1128 1.374 . S
C1126 H1153 0.931 . S
C1127 C1128 1.359 . S
C1127 C1129 1.364 . S
C1128 C1126 1.374 . S
C1128 C1127 1.359 . S
C1128 H1154 0.931 . S
C1129 C1125 1.389 . S
C1129 C1127 1.364 . S
C1129 H1155 0.931 . S
C1130 O1144 1.256 . S
C1130 O1145 1.257 . S
C1131 O1146 1.240 . S
C1131 O1147 1.240 . S
C1132 Gd1121 2.818 . S
C1132 C1133 1.510 . S
C1132 O1148 1.249 . S
C1132 O1149 1.252 . S
C1133 C1132 1.510 . S
C1133 C1134 1.404 . S
C1133 C1135 1.352 . S
C1134 C1133 1.404 . S
C1134 C1138 1.389 . S
C1134 H1156 0.930 . S
C1135 C1133 1.352 . S
C1135 C1137 1.374 . S
C1135 H1157 0.931 . S
C1136 C1137 1.359 . S
C1136 C1138 1.364 . S
C1137 C1135 1.374 . S
C1137 C1136 1.359 . S
C1137 H1158 0.931 . S
C1138 C1134 1.389 . S
C1138 C1136 1.364 . S
C1138 H1159 0.931 . S
C1139 O1150 1.256 . S
C1139 O1151 1.257 . S
O1140 Gd1120 2.377 . S
O1140 C1122 1.240 . S
O1141 Gd1121 2.395 . S
O1141 C1122 1.240 . S
O1142 Gd1120 2.448 . S
O1142 C1123 1.249 . S
O1143 Gd1120 2.506 . S
O1143 C1123 1.252 . S
O1144 Gd1120 2.435 . S
O1144 C1130 1.256 . S
O1145 Gd1120 2.717 . S
O1145 Gd1121 2.327 . S
O1145 C1130 1.257 . S
O1146 Gd1121 2.377 . S
O1146 C1131 1.240 . S
O1147 Gd1120 2.395 . S
O1147 C1131 1.240 . S
O1148 Gd1121 2.448 . S
O1148 C1132 1.249 . S
O1149 Gd1121 2.506 . S
O1149 C1132 1.252 . S
O1150 Gd1121 2.435 . S
O1150 C1139 1.256 . S
O1151 Gd1120 2.327 . S
O1151 Gd1121 2.717 . S
O1151 C1139 1.257 . S
H1152 C1125 0.930 . S
H1153 C1126 0.931 . S
H1154 C1128 0.931 . S
H1155 C1129 0.931 . S
H1156 C1134 0.930 . S
H1157 C1135 0.931 . S
H1158 C1137 0.931 . S
H1159 C1138 0.931 . S
Gd1160 C1163 2.818 . S
Gd1160 O1180 2.377 . S
Gd1160 O1182 2.448 . S
Gd1160 O1183 2.506 . S
Gd1160 O1184 2.435 . S
Gd1160 O1185 2.717 . S
Gd1160 O1187 2.395 . S
Gd1160 O1191 2.327 . S
Gd1161 C1172 2.818 . S
Gd1161 O1181 2.395 . S
Gd1161 O1185 2.327 . S
Gd1161 O1186 2.377 . S
Gd1161 O1188 2.448 . S
Gd1161 O1189 2.506 . S
Gd1161 O1190 2.435 . S
Gd1161 O1191 2.717 . S
C1162 O1180 1.240 . S
C1162 O1181 1.240 . S
C1163 Gd1160 2.818 . S
C1163 C1164 1.510 . S
C1163 O1182 1.249 . S
C1163 O1183 1.252 . S
C1164 C1163 1.510 . S
C1164 C1165 1.404 . S
C1164 C1166 1.352 . S
C1165 C1164 1.404 . S
C1165 C1169 1.389 . S
C1165 H1192 0.930 . S
C1166 C1164 1.352 . S
C1166 C1168 1.374 . S
C1166 H1193 0.931 . S
C1167 C1168 1.359 . S
C1167 C1169 1.364 . S
C1168 C1166 1.374 . S
C1168 C1167 1.359 . S
C1168 H1194 0.931 . S
C1169 C1165 1.389 . S
C1169 C1167 1.364 . S
C1169 H1195 0.931 . S
C1170 O1184 1.256 . S
C1170 O1185 1.257 . S
C1171 O1186 1.240 . S
C1171 O1187 1.240 . S
C1172 Gd1161 2.818 . S
C1172 C1173 1.510 . S
C1172 O1188 1.249 . S
C1172 O1189 1.252 . S
C1173 C1172 1.510 . S
C1173 C1174 1.404 . S
C1173 C1175 1.352 . S
C1174 C1173 1.404 . S
C1174 C1178 1.389 . S
C1174 H1196 0.930 . S
C1175 C1173 1.352 . S
C1175 C1177 1.374 . S
C1175 H1197 0.931 . S
C1176 C1177 1.359 . S
C1176 C1178 1.364 . S
C1177 C1175 1.374 . S
C1177 C1176 1.359 . S
C1177 H1198 0.931 . S
C1178 C1174 1.389 . S
C1178 C1176 1.364 . S
C1178 H1199 0.931 . S
C1179 O1190 1.256 . S
C1179 O1191 1.257 . S
O1180 Gd1160 2.377 . S
O1180 C1162 1.240 . S
O1181 Gd1161 2.395 . S
O1181 C1162 1.240 . S
O1182 Gd1160 2.448 . S
O1182 C1163 1.249 . S
O1183 Gd1160 2.506 . S
O1183 C1163 1.252 . S
O1184 Gd1160 2.435 . S
O1184 C1170 1.256 . S
O1185 Gd1160 2.717 . S
O1185 Gd1161 2.327 . S
O1185 C1170 1.257 . S
O1186 Gd1161 2.377 . S
O1186 C1171 1.240 . S
O1187 Gd1160 2.395 . S
O1187 C1171 1.240 . S
O1188 Gd1161 2.448 . S
O1188 C1172 1.249 . S
O1189 Gd1161 2.506 . S
O1189 C1172 1.252 . S
O1190 Gd1161 2.435 . S
O1190 C1179 1.256 . S
O1191 Gd1160 2.327 . S
O1191 Gd1161 2.717 . S
O1191 C1179 1.257 . S
H1192 C1165 0.930 . S
H1193 C1166 0.931 . S
H1194 C1168 0.931 . S
H1195 C1169 0.931 . S
H1196 C1174 0.930 . S
H1197 C1175 0.931 . S
H1198 C1177 0.931 . S
H1199 C1178 0.931 . S
Gd1200 C1203 2.818 . S
Gd1200 O1220 2.377 . S
Gd1200 O1222 2.448 . S
Gd1200 O1223 2.506 . S
Gd1200 O1224 2.435 . S
Gd1200 O1225 2.717 . S
Gd1200 O1227 2.395 . S
Gd1200 O1231 2.327 . S
Gd1201 C1212 2.818 . S
Gd1201 O1221 2.395 . S
Gd1201 O1225 2.327 . S
Gd1201 O1226 2.377 . S
Gd1201 O1228 2.448 . S
Gd1201 O1229 2.506 . S
Gd1201 O1230 2.435 . S
Gd1201 O1231 2.717 . S
C1202 O1220 1.240 . S
C1202 O1221 1.240 . S
C1203 Gd1200 2.818 . S
C1203 C1204 1.510 . S
C1203 O1222 1.249 . S
C1203 O1223 1.252 . S
C1204 C1203 1.510 . S
C1204 C1205 1.404 . S
C1204 C1206 1.352 . S
C1205 C1204 1.404 . S
C1205 C1209 1.389 . S
C1205 H1232 0.930 . S
C1206 C1204 1.352 . S
C1206 C1208 1.374 . S
C1206 H1233 0.931 . S
C1207 C1208 1.359 . S
C1207 C1209 1.364 . S
C1208 C1206 1.374 . S
C1208 C1207 1.359 . S
C1208 H1234 0.931 . S
C1209 C1205 1.389 . S
C1209 C1207 1.364 . S
C1209 H1235 0.931 . S
C1210 O1224 1.256 . S
C1210 O1225 1.257 . S
C1211 O1226 1.240 . S
C1211 O1227 1.240 . S
C1212 Gd1201 2.818 . S
C1212 C1213 1.510 . S
C1212 O1228 1.249 . S
C1212 O1229 1.252 . S
C1213 C1212 1.510 . S
C1213 C1214 1.404 . S
C1213 C1215 1.352 . S
C1214 C1213 1.404 . S
C1214 C1218 1.389 . S
C1214 H1236 0.930 . S
C1215 C1213 1.352 . S
C1215 C1217 1.374 . S
C1215 H1237 0.931 . S
C1216 C1217 1.359 . S
C1216 C1218 1.364 . S
C1217 C1215 1.374 . S
C1217 C1216 1.359 . S
C1217 H1238 0.931 . S
C1218 C1214 1.389 . S
C1218 C1216 1.364 . S
C1218 H1239 0.931 . S
C1219 O1230 1.256 . S
C1219 O1231 1.257 . S
O1220 Gd1200 2.377 . S
O1220 C1202 1.240 . S
O1221 Gd1201 2.395 . S
O1221 C1202 1.240 . S
O1222 Gd1200 2.448 . S
O1222 C1203 1.249 . S
O1223 Gd1200 2.506 . S
O1223 C1203 1.252 . S
O1224 Gd1200 2.435 . S
O1224 C1210 1.256 . S
O1225 Gd1200 2.717 . S
O1225 Gd1201 2.327 . S
O1225 C1210 1.257 . S
O1226 Gd1201 2.377 . S
O1226 C1211 1.240 . S
O1227 Gd1200 2.395 . S
O1227 C1211 1.240 . S
O1228 Gd1201 2.448 . S
O1228 C1212 1.249 . S
O1229 Gd1201 2.506 . S
O1229 C1212 1.252 . S
O1230 Gd1201 2.435 . S
O1230 C1219 1.256 . S
O1231 Gd1200 2.327 . S
O1231 Gd1201 2.717 . S
O1231 C1219 1.257 . S
H1232 C1205 0.930 . S
H1233 C1206 0.931 . S
H1234 C1208 0.931 . S
H1235 C1209 0.931 . S
H1236 C1214 0.930 . S
H1237 C1215 0.931 . S
H1238 C1217 0.931 . S
H1239 C1218 0.931 . S
Gd1240 C1243 2.818 . S
Gd1240 O1260 2.377 . S
Gd1240 O1262 2.448 . S
Gd1240 O1263 2.506 . S
Gd1240 O1264 2.435 . S
Gd1240 O1265 2.717 . S
Gd1240 O1267 2.395 . S
Gd1240 O1271 2.327 . S
Gd1241 C1252 2.818 . S
Gd1241 O1261 2.395 . S
Gd1241 O1265 2.327 . S
Gd1241 O1266 2.377 . S
Gd1241 O1268 2.448 . S
Gd1241 O1269 2.506 . S
Gd1241 O1270 2.435 . S
Gd1241 O1271 2.717 . S
C1242 O1260 1.240 . S
C1242 O1261 1.240 . S
C1243 Gd1240 2.818 . S
C1243 C1244 1.510 . S
C1243 O1262 1.249 . S
C1243 O1263 1.252 . S
C1244 C1243 1.510 . S
C1244 C1245 1.404 . S
C1244 C1246 1.352 . S
C1245 C1244 1.404 . S
C1245 C1249 1.389 . S
C1245 H1272 0.930 . S
C1246 C1244 1.352 . S
C1246 C1248 1.374 . S
C1246 H1273 0.931 . S
C1247 C1248 1.359 . S
C1247 C1249 1.364 . S
C1248 C1246 1.374 . S
C1248 C1247 1.359 . S
C1248 H1274 0.931 . S
C1249 C1245 1.389 . S
C1249 C1247 1.364 . S
C1249 H1275 0.931 . S
C1250 O1264 1.256 . S
C1250 O1265 1.257 . S
C1251 O1266 1.240 . S
C1251 O1267 1.240 . S
C1252 Gd1241 2.818 . S
C1252 C1253 1.510 . S
C1252 O1268 1.249 . S
C1252 O1269 1.252 . S
C1253 C1252 1.510 . S
C1253 C1254 1.404 . S
C1253 C1255 1.352 . S
C1254 C1253 1.404 . S
C1254 C1258 1.389 . S
C1254 H1276 0.930 . S
C1255 C1253 1.352 . S
C1255 C1257 1.374 . S
C1255 H1277 0.931 . S
C1256 C1257 1.359 . S
C1256 C1258 1.364 . S
C1257 C1255 1.374 . S
C1257 C1256 1.359 . S
C1257 H1278 0.931 . S
C1258 C1254 1.389 . S
C1258 C1256 1.364 . S
C1258 H1279 0.931 . S
C1259 O1270 1.256 . S
C1259 O1271 1.257 . S
O1260 Gd1240 2.377 . S
O1260 C1242 1.240 . S
O1261 Gd1241 2.395 . S
O1261 C1242 1.240 . S
O1262 Gd1240 2.448 . S
O1262 C1243 1.249 . S
O1263 Gd1240 2.506 . S
O1263 C1243 1.252 . S
O1264 Gd1240 2.435 . S
O1264 C1250 1.256 . S
O1265 Gd1240 2.717 . S
O1265 Gd1241 2.327 . S
O1265 C1250 1.257 . S
O1266 Gd1241 2.377 . S
O1266 C1251 1.240 . S
O1267 Gd1240 2.395 . S
O1267 C1251 1.240 . S
O1268 Gd1241 2.448 . S
O1268 C1252 1.249 . S
O1269 Gd1241 2.506 . S
O1269 C1252 1.252 . S
O1270 Gd1241 2.435 . S
O1270 C1259 1.256 . S
O1271 Gd1240 2.327 . S
O1271 Gd1241 2.717 . S
O1271 C1259 1.257 . S
H1272 C1245 0.930 . S
H1273 C1246 0.931 . S
H1274 C1248 0.931 . S
H1275 C1249 0.931 . S
H1276 C1254 0.930 . S
H1277 C1255 0.931 . S
H1278 C1257 0.931 . S
H1279 C1258 0.931 . S
Gd1280 C1283 2.818 . S
Gd1280 O1300 2.377 . S
Gd1280 O1302 2.448 . S
Gd1280 O1303 2.506 . S
Gd1280 O1304 2.435 . S
Gd1280 O1305 2.717 . S
Gd1280 O1307 2.395 . S
Gd1280 O1311 2.327 . S
Gd1281 C1292 2.818 . S
Gd1281 O1301 2.395 . S
Gd1281 O1305 2.327 . S
Gd1281 O1306 2.377 . S
Gd1281 O1308 2.448 . S
Gd1281 O1309 2.506 . S
Gd1281 O1310 2.435 . S
Gd1281 O1311 2.717 . S
C1282 O1300 1.240 . S
C1282 O1301 1.240 . S
C1283 Gd1280 2.818 . S
C1283 C1284 1.510 . S
C1283 O1302 1.249 . S
C1283 O1303 1.252 . S
C1284 C1283 1.510 . S
C1284 C1285 1.404 . S
C1284 C1286 1.352 . S
C1285 C1284 1.404 . S
C1285 C1289 1.389 . S
C1285 H1312 0.930 . S
C1286 C1284 1.352 . S
C1286 C1288 1.374 . S
C1286 H1313 0.931 . S
C1287 C1288 1.359 . S
C1287 C1289 1.364 . S
C1288 C1286 1.374 . S
C1288 C1287 1.359 . S
C1288 H1314 0.931 . S
C1289 C1285 1.389 . S
C1289 C1287 1.364 . S
C1289 H1315 0.931 . S
C1290 O1304 1.256 . S
C1290 O1305 1.257 . S
C1291 O1306 1.240 . S
C1291 O1307 1.240 . S
C1292 Gd1281 2.818 . S
C1292 C1293 1.510 . S
C1292 O1308 1.249 . S
C1292 O1309 1.252 . S
C1293 C1292 1.510 . S
C1293 C1294 1.404 . S
C1293 C1295 1.352 . S
C1294 C1293 1.404 . S
C1294 C1298 1.389 . S
C1294 H1316 0.930 . S
C1295 C1293 1.352 . S
C1295 C1297 1.374 . S
C1295 H1317 0.931 . S
C1296 C1297 1.359 . S
C1296 C1298 1.364 . S
C1297 C1295 1.374 . S
C1297 C1296 1.359 . S
C1297 H1318 0.931 . S
C1298 C1294 1.389 . S
C1298 C1296 1.364 . S
C1298 H1319 0.931 . S
C1299 O1310 1.256 . S
C1299 O1311 1.257 . S
O1300 Gd1280 2.377 . S
O1300 C1282 1.240 . S
O1301 Gd1281 2.395 . S
O1301 C1282 1.240 . S
O1302 Gd1280 2.448 . S
O1302 C1283 1.249 . S
O1303 Gd1280 2.506 . S
O1303 C1283 1.252 . S
O1304 Gd1280 2.435 . S
O1304 C1290 1.256 . S
O1305 Gd1280 2.717 . S
O1305 Gd1281 2.327 . S
O1305 C1290 1.257 . S
O1306 Gd1281 2.377 . S
O1306 C1291 1.240 . S
O1307 Gd1280 2.395 . S
O1307 C1291 1.240 . S
O1308 Gd1281 2.448 . S
O1308 C1292 1.249 . S
O1309 Gd1281 2.506 . S
O1309 C1292 1.252 . S
O1310 Gd1281 2.435 . S
O1310 C1299 1.256 . S
O1311 Gd1280 2.327 . S
O1311 Gd1281 2.717 . S
O1311 C1299 1.257 . S
H1312 C1285 0.930 . S
H1313 C1286 0.931 . S
H1314 C1288 0.931 . S
H1315 C1289 0.931 . S
H1316 C1294 0.930 . S
H1317 C1295 0.931 . S
H1318 C1297 0.931 . S
H1319 C1298 0.931 . S
Gd1320 C1323 2.818 . S
Gd1320 O1340 2.377 . S
Gd1320 O1342 2.448 . S
Gd1320 O1343 2.506 . S
Gd1320 O1344 2.435 . S
Gd1320 O1345 2.717 . S
Gd1320 O1347 2.395 . S
Gd1320 O1351 2.327 . S
Gd1321 C1332 2.818 . S
Gd1321 O1341 2.395 . S
Gd1321 O1345 2.327 . S
Gd1321 O1346 2.377 . S
Gd1321 O1348 2.448 . S
Gd1321 O1349 2.506 . S
Gd1321 O1350 2.435 . S
Gd1321 O1351 2.717 . S
C1322 O1340 1.240 . S
C1322 O1341 1.240 . S
C1323 Gd1320 2.818 . S
C1323 C1324 1.510 . S
C1323 O1342 1.249 . S
C1323 O1343 1.252 . S
C1324 C1323 1.510 . S
C1324 C1325 1.404 . S
C1324 C1326 1.352 . S
C1325 C1324 1.404 . S
C1325 C1329 1.389 . S
C1325 H1352 0.930 . S
C1326 C1324 1.352 . S
C1326 C1328 1.374 . S
C1326 H1353 0.931 . S
C1327 C1328 1.359 . S
C1327 C1329 1.364 . S
C1328 C1326 1.374 . S
C1328 C1327 1.359 . S
C1328 H1354 0.931 . S
C1329 C1325 1.389 . S
C1329 C1327 1.364 . S
C1329 H1355 0.931 . S
C1330 O1344 1.256 . S
C1330 O1345 1.257 . S
C1331 O1346 1.240 . S
C1331 O1347 1.240 . S
C1332 Gd1321 2.818 . S
C1332 C1333 1.510 . S
C1332 O1348 1.249 . S
C1332 O1349 1.252 . S
C1333 C1332 1.510 . S
C1333 C1334 1.404 . S
C1333 C1335 1.352 . S
C1334 C1333 1.404 . S
C1334 C1338 1.389 . S
C1334 H1356 0.930 . S
C1335 C1333 1.352 . S
C1335 C1337 1.374 . S
C1335 H1357 0.931 . S
C1336 C1337 1.359 . S
C1336 C1338 1.364 . S
C1337 C1335 1.374 . S
C1337 C1336 1.359 . S
C1337 H1358 0.931 . S
C1338 C1334 1.389 . S
C1338 C1336 1.364 . S
C1338 H1359 0.931 . S
C1339 O1350 1.256 . S
C1339 O1351 1.257 . S
O1340 Gd1320 2.377 . S
O1340 C1322 1.240 . S
O1341 Gd1321 2.395 . S
O1341 C1322 1.240 . S
O1342 Gd1320 2.448 . S
O1342 C1323 1.249 . S
O1343 Gd1320 2.506 . S
O1343 C1323 1.252 . S
O1344 Gd1320 2.435 . S
O1344 C1330 1.256 . S
O1345 Gd1320 2.717 . S
O1345 Gd1321 2.327 . S
O1345 C1330 1.257 . S
O1346 Gd1321 2.377 . S
O1346 C1331 1.240 . S
O1347 Gd1320 2.395 . S
O1347 C1331 1.240 . S
O1348 Gd1321 2.448 . S
O1348 C1332 1.249 . S
O1349 Gd1321 2.506 . S
O1349 C1332 1.252 . S
O1350 Gd1321 2.435 . S
O1350 C1339 1.256 . S
O1351 Gd1320 2.327 . S
O1351 Gd1321 2.717 . S
O1351 C1339 1.257 . S
H1352 C1325 0.930 . S
H1353 C1326 0.931 . S
H1354 C1328 0.931 . S
H1355 C1329 0.931 . S
H1356 C1334 0.930 . S
H1357 C1335 0.931 . S
H1358 C1337 0.931 . S
H1359 C1338 0.931 . S
Gd1360 C1363 2.818 . S
Gd1360 O1380 2.377 . S
Gd1360 O1382 2.448 . S
Gd1360 O1383 2.506 . S
Gd1360 O1384 2.435 . S
Gd1360 O1385 2.717 . S
Gd1360 O1387 2.395 . S
Gd1360 O1391 2.327 . S
Gd1361 C1372 2.818 . S
Gd1361 O1381 2.395 . S
Gd1361 O1385 2.327 . S
Gd1361 O1386 2.377 . S
Gd1361 O1388 2.448 . S
Gd1361 O1389 2.506 . S
Gd1361 O1390 2.435 . S
Gd1361 O1391 2.717 . S
C1362 O1380 1.240 . S
C1362 O1381 1.240 . S
C1363 Gd1360 2.818 . S
C1363 C1364 1.510 . S
C1363 O1382 1.249 . S
C1363 O1383 1.252 . S
C1364 C1363 1.510 . S
C1364 C1365 1.404 . S
C1364 C1366 1.352 . S
C1365 C1364 1.404 . S
C1365 C1369 1.389 . S
C1365 H1392 0.930 . S
C1366 C1364 1.352 . S
C1366 C1368 1.374 . S
C1366 H1393 0.931 . S
C1367 C1368 1.359 . S
C1367 C1369 1.364 . S
C1368 C1366 1.374 . S
C1368 C1367 1.359 . S
C1368 H1394 0.931 . S
C1369 C1365 1.389 . S
C1369 C1367 1.364 . S
C1369 H1395 0.931 . S
C1370 O1384 1.256 . S
C1370 O1385 1.257 . S
C1371 O1386 1.240 . S
C1371 O1387 1.240 . S
C1372 Gd1361 2.818 . S
C1372 C1373 1.510 . S
C1372 O1388 1.249 . S
C1372 O1389 1.252 . S
C1373 C1372 1.510 . S
C1373 C1374 1.404 . S
C1373 C1375 1.352 . S
C1374 C1373 1.404 . S
C1374 C1378 1.389 . S
C1374 H1396 0.930 . S
C1375 C1373 1.352 . S
C1375 C1377 1.374 . S
C1375 H1397 0.931 . S
C1376 C1377 1.359 . S
C1376 C1378 1.364 . S
C1377 C1375 1.374 . S
C1377 C1376 1.359 . S
C1377 H1398 0.931 . S
C1378 C1374 1.389 . S
C1378 C1376 1.364 . S
C1378 H1399 0.931 . S
C1379 O1390 1.256 . S
C1379 O1391 1.257 . S
O1380 Gd1360 2.377 . S
O1380 C1362 1.240 . S
O1381 Gd1361 2.395 . S
O1381 C1362 1.240 . S
O1382 Gd1360 2.448 . S
O1382 C1363 1.249 . S
O1383 Gd1360 2.506 . S
O1383 C1363 1.252 . S
O1384 Gd1360 2.435 . S
O1384 C1370 1.256 . S
O1385 Gd1360 2.717 . S
O1385 Gd1361 2.327 . S
O1385 C1370 1.257 . S
O1386 Gd1361 2.377 . S
O1386 C1371 1.240 . S
O1387 Gd1360 2.395 . S
O1387 C1371 1.240 . S
O1388 Gd1361 2.448 . S
O1388 C1372 1.249 . S
O1389 Gd1361 2.506 . S
O1389 C1372 1.252 . S
O1390 Gd1361 2.435 . S
O1390 C1379 1.256 . S
O1391 Gd1360 2.327 . S
O1391 Gd1361 2.717 . S
O1391 C1379 1.257 . S
H1392 C1365 0.930 . S
H1393 C1366 0.931 . S
H1394 C1368 0.931 . S
H1395 C1369 0.931 . S
H1396 C1374 0.930 . S
H1397 C1375 0.931 . S
H1398 C1377 0.931 . S
H1399 C1378 0.931 . S
Gd1400 C1403 2.818 . S
Gd1400 O1420 2.377 . S
Gd1400 O1422 2.448 . S
Gd1400 O1423 2.506 . S
Gd1400 O1424 2.435 . S
Gd1400 O1425 2.717 . S
Gd1400 O1427 2.395 . S
Gd1400 O1431 2.327 . S
Gd1401 C1412 2.818 . S
Gd1401 O1421 2.395 . S
Gd1401 O1425 2.327 . S
Gd1401 O1426 2.377 . S
Gd1401 O1428 2.448 . S
Gd1401 O1429 2.506 . S
Gd1401 O1430 2.435 . S
Gd1401 O1431 2.717 . S
C1402 O1420 1.240 . S
C1402 O1421 1.240 . S
C1403 Gd1400 2.818 . S
C1403 C1404 1.510 . S
C1403 O1422 1.249 . S
C1403 O1423 1.252 . S
C1404 C1403 1.510 . S
C1404 C1405 1.404 . S
C1404 C1406 1.352 . S
C1405 C1404 1.404 . S
C1405 C1409 1.389 . S
C1405 H1432 0.930 . S
C1406 C1404 1.352 . S
C1406 C1408 1.374 . S
C1406 H1433 0.931 . S
C1407 C1408 1.359 . S
C1407 C1409 1.364 . S
C1408 C1406 1.374 . S
C1408 C1407 1.359 . S
C1408 H1434 0.931 . S
C1409 C1405 1.389 . S
C1409 C1407 1.364 . S
C1409 H1435 0.931 . S
C1410 O1424 1.256 . S
C1410 O1425 1.257 . S
C1411 O1426 1.240 . S
C1411 O1427 1.240 . S
C1412 Gd1401 2.818 . S
C1412 C1413 1.510 . S
C1412 O1428 1.249 . S
C1412 O1429 1.252 . S
C1413 C1412 1.510 . S
C1413 C1414 1.404 . S
C1413 C1415 1.352 . S
C1414 C1413 1.404 . S
C1414 C1418 1.389 . S
C1414 H1436 0.930 . S
C1415 C1413 1.352 . S
C1415 C1417 1.374 . S
C1415 H1437 0.931 . S
C1416 C1417 1.359 . S
C1416 C1418 1.364 . S
C1417 C1415 1.374 . S
C1417 C1416 1.359 . S
C1417 H1438 0.931 . S
C1418 C1414 1.389 . S
C1418 C1416 1.364 . S
C1418 H1439 0.931 . S
C1419 O1430 1.256 . S
C1419 O1431 1.257 . S
O1420 Gd1400 2.377 . S
O1420 C1402 1.240 . S
O1421 Gd1401 2.395 . S
O1421 C1402 1.240 . S
O1422 Gd1400 2.448 . S
O1422 C1403 1.249 . S
O1423 Gd1400 2.506 . S
O1423 C1403 1.252 . S
O1424 Gd1400 2.435 . S
O1424 C1410 1.256 . S
O1425 Gd1400 2.717 . S
O1425 Gd1401 2.327 . S
O1425 C1410 1.257 . S
O1426 Gd1401 2.377 . S
O1426 C1411 1.240 . S
O1427 Gd1400 2.395 . S
O1427 C1411 1.240 . S
O1428 Gd1401 2.448 . S
O1428 C1412 1.249 . S
O1429 Gd1401 2.506 . S
O1429 C1412 1.252 . S
O1430 Gd1401 2.435 . S
O1430 C1419 1.256 . S
O1431 Gd1400 2.327 . S
O1431 Gd1401 2.717 . S
O1431 C1419 1.257 . S
H1432 C1405 0.930 . S
H1433 C1406 0.931 . S
H1434 C1408 0.931 . S
H1435 C1409 0.931 . S
H1436 C1414 0.930 . S
H1437 C1415 0.931 . S
H1438 C1417 0.931 . S
H1439 C1418 0.931 . S
H1440 C1448 0.950 . S
H1441 C1453 0.950 . S
H1442 C1450 0.950 . S
H1443 C1452 0.950 . S
H1444 C1454 0.950 . S
H1445 C1456 0.950 . S
H1446 C1458 0.950 . S
H1447 C1459 0.950 . S
C1448 H1440 0.950 . S
C1448 C1449 1.386 . S
C1448 C1450 1.391 . S
C1449 C1448 1.386 . S
C1449 C1453 1.393 . S
C1450 H1442 0.950 . S
C1450 C1448 1.391 . S
C1450 C1451 1.400 . S
C1451 C1450 1.400 . S
C1451 C1452 1.398 . S
C1451 C1457 1.491 . S
C1452 H1443 0.950 . S
C1452 C1451 1.398 . S
C1452 C1453 1.391 . S
C1453 H1441 0.950 . S
C1453 C1449 1.393 . S
C1453 C1452 1.391 . S
C1454 H1444 0.950 . S
C1454 C1455 1.386 . S
C1454 C1456 1.391 1_565 S
C1455 C1454 1.386 . S
C1455 C1459 1.393 . S
C1456 H1445 0.950 . S
C1456 C1454 1.391 1_545 S
C1456 C1457 1.400 1_556 S
C1457 C1451 1.491 . S
C1457 C1456 1.400 1_554 S
C1457 C1458 1.398 1_545 S
C1458 H1446 0.950 . S
C1458 C1457 1.398 1_565 S
C1458 C1459 1.391 1_554 S
C1459 H1447 0.950 . S
C1459 C1455 1.393 . S
C1459 C1458 1.391 1_556 S
H1460 C1468 0.950 . S
H1461 C1473 0.950 1_554 S
H1462 C1470 0.950 . S
H1463 C1472 0.950 . S
H1464 C1474 0.950 . S
H1465 C1476 0.950 . S
H1466 C1478 0.950 1_556 S
H1467 C1479 0.950 . S
C1468 H1460 0.950 . S
C1468 C1469 1.386 . S
C1468 C1470 1.391 1_455 S
C1469 C1468 1.386 . S
C1469 C1473 1.393 . S
C1470 H1462 0.950 . S
C1470 C1468 1.391 1_655 S
C1470 C1471 1.400 1_556 S
C1471 C1470 1.400 1_554 S
C1471 C1472 1.398 1_655 S
C1471 C1477 1.491 . S
C1472 H1463 0.950 . S
C1472 C1471 1.398 1_455 S
C1472 C1473 1.391 1_554 S
C1473 H1461 0.950 1_556 S
C1473 C1469 1.393 . S
C1473 C1472 1.391 1_556 S
C1474 H1464 0.950 . S
C1474 C1475 1.386 . S
C1474 C1476 1.391 . S
C1475 C1474 1.386 . S
C1475 C1479 1.393 . S
C1476 H1465 0.950 . S
C1476 C1474 1.391 . S
C1476 C1477 1.400 . S
C1477 C1471 1.491 . S
C1477 C1476 1.400 . S
C1477 C1478 1.398 . S
C1478 H1466 0.950 1_554 S
C1478 C1477 1.398 . S
C1478 C1479 1.391 . S
C1479 H1467 0.950 . S
C1479 C1475 1.393 . S
C1479 C1478 1.391 . S
H1480 C1488 0.949 1_554 S
H1481 C1493 0.950 . S
H1482 C1490 0.950 . S
H1483 C1492 0.950 . S
H1484 C1494 0.950 . S
H1485 C1496 0.950 . S
H1486 C1498 0.950 . S
H1487 C1499 0.950 . S
C1488 H1480 0.949 1_556 S
C1488 C1489 1.386 . S
C1488 C1490 1.391 1_556 S
C1489 C1488 1.386 . S
C1489 C1493 1.393 . S
C1490 H1482 0.950 . S
C1490 C1488 1.391 1_554 S
C1490 C1491 1.400 . S
C1491 C1490 1.400 . S
C1491 C1492 1.398 1_554 S
C1491 C1497 1.491 . S
C1492 H1483 0.950 . S
C1492 C1491 1.398 1_556 S
C1492 C1493 1.391 . S
C1493 H1481 0.950 . S
C1493 C1489 1.393 . S
C1493 C1492 1.391 . S
C1494 H1484 0.950 . S
C1494 C1495 1.386 . S
C1494 C1496 1.391 . S
C1495 C1494 1.386 . S
C1495 C1499 1.393 . S
C1496 H1485 0.950 . S
C1496 C1494 1.391 . S
C1496 C1497 1.400 . S
C1497 C1491 1.491 . S
C1497 C1496 1.400 . S
C1497 C1498 1.398 . S
C1498 H1486 0.950 . S
C1498 C1497 1.398 . S
C1498 C1499 1.391 . S
C1499 H1487 0.950 . S
C1499 C1495 1.393 . S
C1499 C1498 1.391 . S
H1500 C1508 0.950 . S
H1501 C1513 0.950 . S
H1502 C1510 0.950 . S
H1503 C1512 0.956 . S
H1504 C1514 0.950 . S
H1505 C1516 0.950 . S
H1506 C1518 0.950 . S
H1507 C1519 0.950 . S
C1508 H1500 0.950 . S
C1508 C1509 1.386 . S
C1508 C1510 1.391 1_655 S
C1509 C1508 1.386 . S
C1509 C1513 1.393 . S
C1510 H1502 0.950 . S
C1510 C1508 1.391 1_455 S
C1510 C1511 1.400 . S
C1511 C1510 1.400 . S
C1511 C1512 1.445 . S
C1511 C1517 1.491 . S
C1512 H1503 0.956 . S
C1512 C1511 1.445 . S
C1512 C1513 1.340 1_455 S
C1513 H1501 0.950 . S
C1513 C1509 1.393 . S
C1513 C1512 1.340 1_655 S
C1514 H1504 0.950 . S
C1514 C1515 1.386 . S
C1514 C1516 1.391 . S
C1515 C1514 1.386 . S
C1515 C1519 1.393 . S
C1516 H1505 0.950 . S
C1516 C1514 1.391 . S
C1516 C1517 1.400 . S
C1517 C1511 1.491 . S
C1517 C1516 1.400 . S
C1517 C1518 1.398 . S
C1518 H1506 0.950 . S
C1518 C1517 1.398 . S
C1518 C1519 1.391 . S
C1519 H1507 0.950 . S
C1519 C1515 1.393 . S
C1519 C1518 1.391 . S
H1520 C1528 0.950 . S
H1521 C1533 0.950 . S
H1522 C1530 0.950 . S
H1523 C1532 0.950 . S
H1524 C1534 0.950 . S
H1525 C1536 0.950 . S
H1526 C1538 0.950 . S
H1527 C1539 0.950 . S
C1528 H1520 0.950 . S
C1528 C1529 1.386 . S
C1528 C1530 1.391 . S
C1529 C1528 1.386 . S
C1529 C1533 1.393 . S
C1530 H1522 0.950 . S
C1530 C1528 1.391 . S
C1530 C1531 1.400 . S
C1531 C1530 1.400 . S
C1531 C1532 1.398 . S
C1531 C1537 1.491 . S
C1532 H1523 0.950 . S
C1532 C1531 1.398 . S
C1532 C1533 1.391 . S
C1533 H1521 0.950 . S
C1533 C1529 1.393 . S
C1533 C1532 1.391 . S
C1534 H1524 0.950 . S
C1534 C1535 1.386 . S
C1534 C1536 1.391 . S
C1535 C1534 1.386 . S
C1535 C1539 1.393 . S
C1536 H1525 0.950 . S
C1536 C1534 1.391 . S
C1536 C1537 1.400 . S
C1537 C1531 1.491 . S
C1537 C1536 1.400 . S
C1537 C1538 1.398 . S
C1538 H1526 0.950 . S
C1538 C1537 1.398 . S
C1538 C1539 1.391 . S
C1539 H1527 0.950 . S
C1539 C1535 1.393 . S
C1539 C1538 1.391 . S
H1540 C1548 0.950 . S
H1541 C1553 0.950 . S
H1542 C1550 0.950 . S
H1543 C1552 0.950 . S
H1544 C1554 0.950 . S
H1545 C1556 0.950 . S
H1546 C1558 0.950 . S
H1547 C1559 0.950 . S
C1548 H1540 0.950 . S
C1548 C1549 1.386 . S
C1548 C1550 1.391 . S
C1549 C1548 1.386 . S
C1549 C1553 1.393 . S
C1550 H1542 0.950 . S
C1550 C1548 1.391 . S
C1550 C1551 1.400 . S
C1551 C1550 1.400 . S
C1551 C1552 1.398 . S
C1551 C1557 1.491 . S
C1552 H1543 0.950 . S
C1552 C1551 1.398 . S
C1552 C1553 1.391 . S
C1553 H1541 0.950 . S
C1553 C1549 1.393 . S
C1553 C1552 1.391 . S
C1554 H1544 0.950 . S
C1554 C1555 1.386 . S
C1554 C1556 1.391 . S
C1555 C1554 1.386 . S
C1555 C1559 1.393 . S
C1556 H1545 0.950 . S
C1556 C1554 1.391 . S
C1556 C1557 1.400 1_545 S
C1557 C1551 1.491 . S
C1557 C1556 1.400 1_565 S
C1557 C1558 1.398 . S
C1558 H1546 0.950 . S
C1558 C1557 1.398 . S
C1558 C1559 1.391 1_565 S
C1559 H1547 0.950 . S
C1559 C1555 1.393 . S
C1559 C1558 1.391 1_545 S
H1560 C1568 0.950 . S
H1561 C1573 0.950 . S
H1562 C1570 0.950 . S
H1563 C1572 0.950 1_565 S
H1564 C1574 0.950 . S
H1565 C1576 0.950 . S
H1566 C1578 0.950 . S
H1567 C1579 0.950 1_554 S
C1568 H1560 0.950 . S
C1568 C1569 1.386 . S
C1568 C1570 1.391 1_545 S
C1569 C1568 1.386 . S
C1569 C1573 1.393 1_554 S
C1570 H1562 0.950 . S
C1570 C1568 1.391 1_565 S
C1570 C1571 1.400 1_554 S
C1571 C1570 1.400 1_556 S
C1571 C1572 1.398 1_565 S
C1571 C1577 1.491 . S
C1572 H1563 0.950 1_545 S
C1572 C1571 1.398 1_545 S
C1572 C1573 1.391 . S
C1573 H1561 0.950 . S
C1573 C1569 1.393 1_556 S
C1573 C1572 1.391 . S
C1574 H1564 0.950 . S
C1574 C1575 1.386 . S
C1574 C1576 1.391 . S
C1575 C1574 1.386 . S
C1575 C1579 1.393 . S
C1576 H1565 0.950 . S
C1576 C1574 1.391 . S
C1576 C1577 1.400 . S
C1577 C1571 1.491 . S
C1577 C1576 1.400 . S
C1577 C1578 1.398 1_556 S
C1578 H1566 0.950 . S
C1578 C1577 1.398 1_554 S
C1578 C1579 1.391 1_554 S
C1579 H1567 0.950 1_556 S
C1579 C1575 1.393 . S
C1579 C1578 1.391 1_556 S
H1580 C1588 0.950 . S
H1581 C1593 0.950 . S
H1582 C1590 0.950 . S
H1583 C1592 0.950 . S
H1584 C1594 0.950 . S
H1585 C1596 0.950 . S
H1586 C1598 0.950 . S
H1587 C1599 0.950 . S
C1588 H1580 0.950 . S
C1588 C1589 1.386 . S
C1588 C1590 1.391 . S
C1589 C1588 1.386 . S
C1589 C1593 1.393 . S
C1590 H1582 0.950 . S
C1590 C1588 1.391 . S
C1590 C1591 1.400 . S
C1591 C1590 1.400 . S
C1591 C1592 1.398 . S
C1591 C1597 1.491 . S
C1592 H1583 0.950 . S
C1592 C1591 1.398 . S
C1592 C1593 1.391 . S
C1593 H1581 0.950 . S
C1593 C1589 1.393 . S
C1593 C1592 1.391 . S
C1594 H1584 0.950 . S
C1594 C1595 1.386 . S
C1594 C1596 1.391 1_554 S
C1595 C1594 1.386 . S
C1595 C1599 1.393 . S
C1596 H1585 0.950 . S
C1596 C1594 1.391 1_556 S
C1596 C1597 1.400 1_655 S
C1597 C1591 1.491 . S
C1597 C1596 1.400 1_455 S
C1597 C1598 1.398 1_556 S
C1598 H1586 0.950 . S
C1598 C1597 1.398 1_554 S
C1598 C1599 1.391 1_455 S
C1599 H1587 0.950 . S
C1599 C1595 1.393 . S
C1599 C1598 1.391 1_655 S
H1600 C1608 0.950 . S
H1601 C1613 0.950 . S
H1602 C1610 0.950 . S
H1603 C1612 0.950 . S
H1604 C1614 0.950 . S
H1605 C1616 0.950 . S
H1606 C1618 0.950 . S
H1607 C1619 0.950 . S
C1608 H1600 0.950 . S
C1608 C1609 1.386 . S
C1608 C1610 1.391 . S
C1609 C1608 1.386 . S
C1609 C1613 1.393 . S
C1610 H1602 0.950 . S
C1610 C1608 1.391 . S
C1610 C1611 1.400 1_554 S
C1611 C1610 1.400 1_556 S
C1611 C1612 1.398 . S
C1611 C1617 1.491 . S
C1612 H1603 0.950 . S
C1612 C1611 1.398 . S
C1612 C1613 1.391 1_556 S
C1613 H1601 0.950 . S
C1613 C1609 1.393 . S
C1613 C1612 1.391 1_554 S
C1614 H1604 0.950 . S
C1614 C1615 1.386 . S
C1614 C1616 1.391 . S
C1615 C1614 1.386 . S
C1615 C1619 1.393 . S
C1616 H1605 0.950 . S
C1616 C1614 1.391 . S
C1616 C1617 1.400 . S
C1617 C1611 1.491 . S
C1617 C1616 1.400 . S
C1617 C1618 1.398 . S
C1618 H1606 0.950 . S
C1618 C1617 1.398 . S
C1618 C1619 1.391 . S
C1619 H1607 0.950 . S
C1619 C1615 1.393 . S
C1619 C1618 1.391 . S
H1620 C1628 0.950 . S
H1621 C1633 0.950 . S
H1622 C1630 0.950 . S
H1623 C1632 0.950 . S
H1624 C1634 0.950 . S
H1625 C1636 0.950 . S
H1626 C1638 0.950 . S
H1627 C1639 0.950 . S
C1628 H1620 0.950 . S
C1628 C1629 1.386 . S
C1628 C1630 1.391 1_455 S
C1629 C1628 1.386 . S
C1629 C1633 1.393 . S
C1630 H1622 0.950 . S
C1630 C1628 1.391 1_655 S
C1630 C1631 1.400 . S
C1631 C1630 1.400 . S
C1631 C1632 1.398 1_655 S
C1631 C1637 1.491 . S
C1632 H1623 0.950 . S
C1632 C1631 1.398 1_455 S
C1632 C1633 1.391 . S
C1633 H1621 0.950 . S
C1633 C1629 1.393 . S
C1633 C1632 1.391 . S
C1634 H1624 0.950 . S
C1634 C1635 1.386 . S
C1634 C1636 1.391 . S
C1635 C1634 1.386 . S
C1635 C1639 1.393 . S
C1636 H1625 0.950 . S
C1636 C1634 1.391 . S
C1636 C1637 1.400 . S
C1637 C1631 1.491 . S
C1637 C1636 1.400 . S
C1637 C1638 1.398 . S
C1638 H1626 0.950 . S
C1638 C1637 1.398 . S
C1638 C1639 1.391 . S
C1639 H1627 0.950 . S
C1639 C1635 1.393 . S
C1639 C1638 1.391 . S
H1640 C1648 0.950 . S
H1641 C1653 0.950 . S
H1642 C1650 0.950 . S
H1643 C1652 0.950 . S
H1644 C1654 0.950 . S
H1645 C1656 0.950 . S
H1646 C1658 0.950 . S
H1647 C1659 0.950 . S
C1648 H1640 0.950 . S
C1648 C1649 1.386 . S
C1648 C1650 1.391 . S
C1649 C1648 1.386 . S
C1649 C1653 1.393 . S
C1650 H1642 0.950 . S
C1650 C1648 1.391 . S
C1650 C1651 1.400 . S
C1651 C1650 1.400 . S
C1651 C1652 1.398 . S
C1651 C1657 1.491 . S
C1652 H1643 0.950 . S
C1652 C1651 1.398 . S
C1652 C1653 1.391 . S
C1653 H1641 0.950 . S
C1653 C1649 1.393 . S
C1653 C1652 1.391 . S
C1654 H1644 0.950 . S
C1654 C1655 1.386 . S
C1654 C1656 1.391 . S
C1655 C1654 1.386 . S
C1655 C1659 1.393 . S
C1656 H1645 0.950 . S
C1656 C1654 1.391 . S
C1656 C1657 1.400 . S
C1657 C1651 1.491 . S
C1657 C1656 1.400 . S
C1657 C1658 1.398 . S
C1658 H1646 0.950 . S
C1658 C1657 1.398 . S
C1658 C1659 1.391 . S
C1659 H1647 0.950 . S
C1659 C1655 1.393 . S
C1659 C1658 1.391 . S
H1660 C1668 0.950 . S
H1661 C1673 0.950 . S
H1662 C1670 0.950 . S
H1663 C1672 0.950 . S
H1664 C1674 0.950 . S
H1665 C1676 0.950 . S
H1666 C1678 0.950 . S
H1667 C1679 0.950 . S
C1668 H1660 0.950 . S
C1668 C1669 1.386 . S
C1668 C1670 1.391 . S
C1669 C1668 1.386 . S
C1669 C1673 1.393 . S
C1670 H1662 0.950 . S
C1670 C1668 1.391 . S
C1670 C1671 1.400 . S
C1671 C1670 1.400 . S
C1671 C1672 1.398 . S
C1671 C1677 1.491 . S
C1672 H1663 0.950 . S
C1672 C1671 1.398 . S
C1672 C1673 1.391 . S
C1673 H1661 0.950 . S
C1673 C1669 1.393 . S
C1673 C1672 1.391 . S
C1674 H1664 0.950 . S
C1674 C1675 1.386 . S
C1674 C1676 1.391 1_565 S
C1675 C1674 1.386 . S
C1675 C1679 1.393 . S
C1676 H1665 0.950 . S
C1676 C1674 1.391 1_545 S
C1676 C1677 1.400 . S
C1677 C1671 1.491 . S
C1677 C1676 1.400 . S
C1677 C1678 1.398 1_545 S
C1678 H1666 0.950 . S
C1678 C1677 1.398 1_565 S
C1678 C1679 1.391 . S
C1679 H1667 0.950 . S
C1679 C1675 1.393 . S
C1679 C1678 1.391 . S
H1680 C1688 0.950 . S
H1681 C1693 0.950 . S
H1682 C1690 0.950 . S
H1683 C1692 0.950 . S
H1684 C1694 0.950 . S
H1685 C1696 0.950 . S
H1686 C1698 0.950 . S
H1687 C1699 0.950 . S
C1688 H1680 0.950 . S
C1688 C1689 1.386 . S
C1688 C1690 1.391 . S
C1689 C1688 1.386 . S
C1689 C1693 1.393 . S
C1690 H1682 0.950 . S
C1690 C1688 1.391 . S
C1690 C1691 1.400 . S
C1691 C1690 1.400 . S
C1691 C1692 1.398 . S
C1691 C1697 1.491 . S
C1692 H1683 0.950 . S
C1692 C1691 1.398 . S
C1692 C1693 1.391 . S
C1693 H1681 0.950 . S
C1693 C1689 1.393 . S
C1693 C1692 1.391 . S
C1694 H1684 0.950 . S
C1694 C1695 1.386 . S
C1694 C1696 1.391 . S
C1695 C1694 1.386 . S
C1695 C1699 1.393 . S
C1696 H1685 0.950 . S
C1696 C1694 1.391 . S
C1696 C1697 1.400 . S
C1697 C1691 1.491 . S
C1697 C1696 1.400 . S
C1697 C1698 1.398 . S
C1698 H1686 0.950 . S
C1698 C1697 1.398 . S
C1698 C1699 1.391 . S
C1699 H1687 0.950 . S
C1699 C1695 1.393 . S
C1699 C1698 1.391 . S
H1700 C1708 0.950 . S
H1701 C1713 0.950 . S
H1702 C1710 0.950 . S
H1703 C1712 0.950 . S
H1704 C1714 0.950 . S
H1705 C1716 0.950 . S
H1706 C1718 0.950 . S
H1707 C1719 0.950 . S
C1708 H1700 0.950 . S
C1708 C1709 1.386 . S
C1708 C1710 1.391 . S
C1709 C1708 1.386 . S
C1709 C1713 1.393 . S
C1710 H1702 0.950 . S
C1710 C1708 1.391 . S
C1710 C1711 1.400 . S
C1711 C1710 1.400 . S
C1711 C1712 1.398 . S
C1711 C1717 1.491 . S
C1712 H1703 0.950 . S
C1712 C1711 1.398 . S
C1712 C1713 1.391 . S
C1713 H1701 0.950 . S
C1713 C1709 1.393 . S
C1713 C1712 1.391 . S
C1714 H1704 0.950 . S
C1714 C1715 1.386 . S
C1714 C1716 1.391 . S
C1715 C1714 1.386 . S
C1715 C1719 1.393 . S
C1716 H1705 0.950 . S
C1716 C1714 1.391 . S
C1716 C1717 1.400 . S
C1717 C1711 1.491 . S
C1717 C1716 1.400 . S
C1717 C1718 1.398 . S
C1718 H1706 0.950 . S
C1718 C1717 1.398 . S
C1718 C1719 1.391 . S
C1719 H1707 0.950 . S
C1719 C1715 1.393 . S
C1719 C1718 1.391 . S
H1720 C1728 0.950 . S
H1721 C1733 0.950 . S
H1722 C1730 0.950 . S
H1723 C1732 0.950 . S
H1724 C1734 0.950 . S
H1725 C1736 0.950 . S
H1726 C1738 0.950 . S
H1727 C1739 0.950 . S
C1728 H1720 0.950 . S
C1728 C1729 1.386 . S
C1728 C1730 1.391 . S
C1729 C1728 1.386 . S
C1729 C1733 1.393 . S
C1730 H1722 0.950 . S
C1730 C1728 1.391 . S
C1730 C1731 1.400 . S
C1731 C1730 1.400 . S
C1731 C1732 1.398 . S
C1731 C1737 1.491 . S
C1732 H1723 0.950 . S
C1732 C1731 1.398 . S
C1732 C1733 1.391 . S
C1733 H1721 0.950 . S
C1733 C1729 1.393 . S
C1733 C1732 1.391 . S
C1734 H1724 0.950 . S
C1734 C1735 1.386 . S
C1734 C1736 1.391 . S
C1735 C1734 1.386 . S
C1735 C1739 1.393 . S
C1736 H1725 0.950 . S
C1736 C1734 1.391 . S
C1736 C1737 1.400 . S
C1737 C1731 1.491 . S
C1737 C1736 1.400 . S
C1737 C1738 1.398 . S
C1738 H1726 0.950 . S
C1738 C1737 1.398 . S
C1738 C1739 1.391 . S
C1739 H1727 0.950 . S
C1739 C1735 1.393 . S
C1739 C1738 1.391 . S
H1740 C1748 0.950 . S
H1741 C1753 0.950 . S
H1742 C1750 0.950 . S
H1743 C1752 0.950 . S
H1744 C1754 0.950 . S
H1745 C1756 0.950 . S
H1746 C1758 0.950 . S
H1747 C1759 0.950 . S
C1748 H1740 0.950 . S
C1748 C1749 1.386 . S
C1748 C1750 1.391 . S
C1749 C1748 1.386 . S
C1749 C1753 1.393 . S
C1750 H1742 0.950 . S
C1750 C1748 1.391 . S
C1750 C1751 1.400 . S
C1751 C1750 1.400 . S
C1751 C1752 1.398 . S
C1751 C1757 1.491 . S
C1752 H1743 0.950 . S
C1752 C1751 1.398 . S
C1752 C1753 1.391 . S
C1753 H1741 0.950 . S
C1753 C1749 1.393 . S
C1753 C1752 1.391 . S
C1754 H1744 0.950 . S
C1754 C1755 1.386 . S
C1754 C1756 1.391 . S
C1755 C1754 1.386 . S
C1755 C1759 1.393 . S
C1756 H1745 0.950 . S
C1756 C1754 1.391 . S
C1756 C1757 1.400 . S
C1757 C1751 1.491 . S
C1757 C1756 1.400 . S
C1757 C1758 1.398 . S
C1758 H1746 0.950 . S
C1758 C1757 1.398 . S
C1758 C1759 1.391 . S
C1759 H1747 0.950 . S
C1759 C1755 1.393 . S
C1759 C1758 1.391 . S
H1760 C1768 0.950 . S
H1761 C1773 0.950 . S
H1762 C1770 0.950 . S
H1763 C1772 0.950 . S
H1764 C1774 0.950 . S
H1765 C1776 0.950 . S
H1766 C1778 0.950 . S
H1767 C1779 0.950 . S
C1768 H1760 0.950 . S
C1768 C1769 1.386 . S
C1768 C1770 1.391 . S
C1769 C1768 1.386 . S
C1769 C1773 1.393 . S
C1770 H1762 0.950 . S
C1770 C1768 1.391 . S
C1770 C1771 1.400 . S
C1771 C1770 1.400 . S
C1771 C1772 1.398 . S
C1771 C1777 1.491 . S
C1772 H1763 0.950 . S
C1772 C1771 1.398 . S
C1772 C1773 1.391 . S
C1773 H1761 0.950 . S
C1773 C1769 1.393 . S
C1773 C1772 1.391 . S
C1774 H1764 0.950 . S
C1774 C1775 1.386 . S
C1774 C1776 1.391 . S
C1775 C1774 1.386 . S
C1775 C1779 1.393 . S
C1776 H1765 0.950 . S
C1776 C1774 1.391 . S
C1776 C1777 1.400 . S
C1777 C1771 1.491 . S
C1777 C1776 1.400 . S
C1777 C1778 1.398 . S
C1778 H1766 0.950 . S
C1778 C1777 1.398 . S
C1778 C1779 1.391 . S
C1779 H1767 0.950 . S
C1779 C1775 1.393 . S
C1779 C1778 1.391 . S
H1780 C1788 0.950 . S
H1781 C1793 0.950 . S
H1782 C1790 0.950 . S
H1783 C1792 0.950 . S
H1784 C1794 0.950 . S
H1785 C1796 0.950 . S
H1786 C1798 0.950 . S
H1787 C1799 0.950 . S
C1788 H1780 0.950 . S
C1788 C1789 1.386 . S
C1788 C1790 1.391 . S
C1789 C1788 1.386 . S
C1789 C1793 1.393 . S
C1790 H1782 0.950 . S
C1790 C1788 1.391 . S
C1790 C1791 1.400 . S
C1791 C1790 1.400 . S
C1791 C1792 1.398 . S
C1791 C1797 1.491 . S
C1792 H1783 0.950 . S
C1792 C1791 1.398 . S
C1792 C1793 1.391 . S
C1793 H1781 0.950 . S
C1793 C1789 1.393 . S
C1793 C1792 1.391 . S
C1794 H1784 0.950 . S
C1794 C1795 1.386 . S
C1794 C1796 1.391 . S
C1795 C1794 1.386 . S
C1795 C1799 1.393 . S
C1796 H1785 0.950 . S
C1796 C1794 1.391 . S
C1796 C1797 1.400 . S
C1797 C1791 1.491 . S
C1797 C1796 1.400 . S
C1797 C1798 1.398 . S
C1798 H1786 0.950 . S
C1798 C1797 1.398 . S
C1798 C1799 1.391 . S
C1799 H1787 0.950 . S
C1799 C1795 1.393 . S
C1799 C1798 1.391 . S
H1800 C1808 0.950 . S
H1801 C1813 0.950 . S
H1802 C1810 0.950 . S
H1803 C1812 0.950 . S
H1804 C1814 0.950 . S
H1805 C1816 0.950 . S
H1806 C1818 0.950 . S
H1807 C1819 0.950 . S
C1808 H1800 0.950 . S
C1808 C1809 1.386 . S
C1808 C1810 1.391 . S
C1809 C1808 1.386 . S
C1809 C1813 1.393 . S
C1810 H1802 0.950 . S
C1810 C1808 1.391 . S
C1810 C1811 1.400 . S
C1811 C1810 1.400 . S
C1811 C1812 1.398 . S
C1811 C1817 1.491 . S
C1812 H1803 0.950 . S
C1812 C1811 1.398 . S
C1812 C1813 1.391 . S
C1813 H1801 0.950 . S
C1813 C1809 1.393 . S
C1813 C1812 1.391 . S
C1814 H1804 0.950 . S
C1814 C1815 1.386 . S
C1814 C1816 1.391 . S
C1815 C1814 1.386 . S
C1815 C1819 1.393 . S
C1816 H1805 0.950 . S
C1816 C1814 1.391 . S
C1816 C1817 1.400 . S
C1817 C1811 1.491 . S
C1817 C1816 1.400 . S
C1817 C1818 1.398 . S
C1818 H1806 0.950 . S
C1818 C1817 1.398 . S
C1818 C1819 1.391 . S
C1819 H1807 0.950 . S
C1819 C1815 1.393 . S
C1819 C1818 1.391 . S
H1820 C1828 0.950 . S
H1821 C1833 0.950 . S
H1822 C1830 0.950 . S
H1823 C1832 0.950 . S
H1824 C1834 0.950 . S
H1825 C1836 0.950 . S
H1826 C1838 0.950 . S
H1827 C1839 0.950 . S
C1828 H1820 0.950 . S
C1828 C1829 1.386 . S
C1828 C1830 1.391 . S
C1829 C1828 1.386 . S
C1829 C1833 1.393 . S
C1830 H1822 0.950 . S
C1830 C1828 1.391 . S
C1830 C1831 1.400 . S
C1831 C1830 1.400 . S
C1831 C1832 1.398 . S
C1831 C1837 1.491 . S
C1832 H1823 0.950 . S
C1832 C1831 1.398 . S
C1832 C1833 1.391 . S
C1833 H1821 0.950 . S
C1833 C1829 1.393 . S
C1833 C1832 1.391 . S
C1834 H1824 0.950 . S
C1834 C1835 1.386 . S
C1834 C1836 1.391 . S
C1835 C1834 1.386 . S
C1835 C1839 1.393 . S
C1836 H1825 0.950 . S
C1836 C1834 1.391 . S
C1836 C1837 1.400 . S
C1837 C1831 1.491 . S
C1837 C1836 1.400 . S
C1837 C1838 1.398 . S
C1838 H1826 0.950 . S
C1838 C1837 1.398 . S
C1838 C1839 1.391 . S
C1839 H1827 0.950 . S
C1839 C1835 1.393 . S
C1839 C1838 1.391 . S
H1840 C1848 0.950 . S
H1841 C1853 0.950 . S
H1842 C1850 0.950 . S
H1843 C1852 0.950 . S
H1844 C1854 0.950 . S
H1845 C1856 0.950 . S
H1846 C1858 0.950 . S
H1847 C1859 0.950 . S
C1848 H1840 0.950 . S
C1848 C1849 1.386 . S
C1848 C1850 1.391 . S
C1849 C1848 1.386 . S
C1849 C1853 1.393 . S
C1850 H1842 0.950 . S
C1850 C1848 1.391 . S
C1850 C1851 1.400 . S
C1851 C1850 1.400 . S
C1851 C1852 1.398 . S
C1851 C1857 1.491 . S
C1852 H1843 0.950 . S
C1852 C1851 1.398 . S
C1852 C1853 1.391 . S
C1853 H1841 0.950 . S
C1853 C1849 1.393 . S
C1853 C1852 1.391 . S
C1854 H1844 0.950 . S
C1854 C1855 1.386 . S
C1854 C1856 1.391 . S
C1855 C1854 1.386 . S
C1855 C1859 1.393 . S
C1856 H1845 0.950 . S
C1856 C1854 1.391 . S
C1856 C1857 1.400 . S
C1857 C1851 1.491 . S
C1857 C1856 1.400 . S
C1857 C1858 1.398 . S
C1858 H1846 0.950 . S
C1858 C1857 1.398 . S
C1858 C1859 1.391 . S
C1859 H1847 0.950 . S
C1859 C1855 1.393 . S
C1859 C1858 1.391 . S
H1860 C1868 0.950 . S
H1861 C1873 0.950 . S
H1862 C1870 0.950 . S
H1863 C1872 0.950 . S
H1864 C1874 0.950 . S
H1865 C1876 0.950 . S
H1866 C1878 0.950 . S
H1867 C1879 0.950 . S
C1868 H1860 0.950 . S
C1868 C1869 1.386 . S
C1868 C1870 1.391 . S
C1869 C1868 1.386 . S
C1869 C1873 1.393 . S
C1870 H1862 0.950 . S
C1870 C1868 1.391 . S
C1870 C1871 1.400 . S
C1871 C1870 1.400 . S
C1871 C1872 1.398 . S
C1871 C1877 1.491 . S
C1872 H1863 0.950 . S
C1872 C1871 1.398 . S
C1872 C1873 1.391 . S
C1873 H1861 0.950 . S
C1873 C1869 1.393 . S
C1873 C1872 1.391 . S
C1874 H1864 0.950 . S
C1874 C1875 1.386 . S
C1874 C1876 1.391 . S
C1875 C1874 1.386 . S
C1875 C1879 1.393 . S
C1876 H1865 0.950 . S
C1876 C1874 1.391 . S
C1876 C1877 1.400 . S
C1877 C1871 1.491 . S
C1877 C1876 1.400 . S
C1877 C1878 1.398 . S
C1878 H1866 0.950 . S
C1878 C1877 1.398 . S
C1878 C1879 1.391 . S
C1879 H1867 0.950 . S
C1879 C1875 1.393 . S
C1879 C1878 1.391 . S
H1880 C1888 0.950 . S
H1881 C1893 0.950 . S
H1882 C1890 0.950 . S
H1883 C1892 0.950 . S
H1884 C1894 0.950 . S
H1885 C1896 0.950 . S
H1886 C1898 0.950 . S
H1887 C1899 0.950 . S
C1888 H1880 0.950 . S
C1888 C1889 1.386 . S
C1888 C1890 1.391 . S
C1889 C1888 1.386 . S
C1889 C1893 1.393 . S
C1890 H1882 0.950 . S
C1890 C1888 1.391 . S
C1890 C1891 1.400 . S
C1891 C1890 1.400 . S
C1891 C1892 1.398 . S
C1891 C1897 1.491 . S
C1892 H1883 0.950 . S
C1892 C1891 1.398 . S
C1892 C1893 1.391 . S
C1893 H1881 0.950 . S
C1893 C1889 1.393 . S
C1893 C1892 1.391 . S
C1894 H1884 0.950 . S
C1894 C1895 1.386 . S
C1894 C1896 1.391 . S
C1895 C1894 1.386 . S
C1895 C1899 1.393 . S
C1896 H1885 0.950 . S
C1896 C1894 1.391 . S
C1896 C1897 1.400 . S
C1897 C1891 1.491 . S
C1897 C1896 1.400 . S
C1897 C1898 1.398 . S
C1898 H1886 0.950 . S
C1898 C1897 1.398 . S
C1898 C1899 1.391 . S
C1899 H1887 0.950 . S
C1899 C1895 1.393 . S
C1899 C1898 1.391 . S
H1900 C1908 0.950 . S
H1901 C1913 0.950 . S
H1902 C1910 0.950 . S
H1903 C1912 0.950 . S
H1904 C1914 0.950 . S
H1905 C1916 0.950 . S
H1906 C1918 0.950 . S
H1907 C1919 0.950 . S
C1908 H1900 0.950 . S
C1908 C1909 1.386 . S
C1908 C1910 1.391 . S
C1909 C1908 1.386 . S
C1909 C1913 1.393 . S
C1910 H1902 0.950 . S
C1910 C1908 1.391 . S
C1910 C1911 1.400 . S
C1911 C1910 1.400 . S
C1911 C1912 1.398 . S
C1911 C1917 1.491 . S
C1912 H1903 0.950 . S
C1912 C1911 1.398 . S
C1912 C1913 1.391 . S
C1913 H1901 0.950 . S
C1913 C1909 1.393 . S
C1913 C1912 1.391 . S
C1914 H1904 0.950 . S
C1914 C1915 1.386 . S
C1914 C1916 1.391 . S
C1915 C1914 1.386 . S
C1915 C1919 1.393 . S
C1916 H1905 0.950 . S
C1916 C1914 1.391 . S
C1916 C1917 1.400 . S
C1917 C1911 1.491 . S
C1917 C1916 1.400 . S
C1917 C1918 1.398 . S
C1918 H1906 0.950 . S
C1918 C1917 1.398 . S
C1918 C1919 1.391 . S
C1919 H1907 0.950 . S
C1919 C1915 1.393 . S
C1919 C1918 1.391 . S
H1920 C1928 0.950 . S
H1921 C1933 0.950 . S
H1922 C1930 0.950 . S
H1923 C1932 0.950 . S
H1924 C1934 0.950 . S
H1925 C1936 0.950 . S
H1926 C1938 0.950 . S
H1927 C1939 0.950 . S
C1928 H1920 0.950 . S
C1928 C1929 1.386 . S
C1928 C1930 1.391 . S
C1929 C1928 1.386 . S
C1929 C1933 1.393 . S
C1930 H1922 0.950 . S
C1930 C1928 1.391 . S
C1930 C1931 1.400 . S
C1931 C1930 1.400 . S
C1931 C1932 1.398 . S
C1931 C1937 1.491 . S
C1932 H1923 0.950 . S
C1932 C1931 1.398 . S
C1932 C1933 1.391 . S
C1933 H1921 0.950 . S
C1933 C1929 1.393 . S
C1933 C1932 1.391 . S
C1934 H1924 0.950 . S
C1934 C1935 1.386 . S
C1934 C1936 1.391 . S
C1935 C1934 1.386 . S
C1935 C1939 1.393 . S
C1936 H1925 0.950 . S
C1936 C1934 1.391 . S
C1936 C1937 1.400 . S
C1937 C1931 1.491 . S
C1937 C1936 1.400 . S
C1937 C1938 1.398 . S
C1938 H1926 0.950 . S
C1938 C1937 1.398 . S
C1938 C1939 1.391 . S
C1939 H1927 0.950 . S
C1939 C1935 1.393 . S
C1939 C1938 1.391 . S
H1940 C1948 0.950 . S
H1941 C1953 0.950 . S
H1942 C1950 0.950 . S
H1943 C1952 0.950 . S
H1944 C1954 0.950 . S
H1945 C1956 0.950 . S
H1946 C1958 0.950 . S
H1947 C1959 0.950 . S
C1948 H1940 0.950 . S
C1948 C1949 1.386 . S
C1948 C1950 1.391 . S
C1949 C1948 1.386 . S
C1949 C1953 1.393 . S
C1950 H1942 0.950 . S
C1950 C1948 1.391 . S
C1950 C1951 1.400 . S
C1951 C1950 1.400 . S
C1951 C1952 1.398 . S
C1951 C1957 1.491 . S
C1952 H1943 0.950 . S
C1952 C1951 1.398 . S
C1952 C1953 1.391 . S
C1953 H1941 0.950 . S
C1953 C1949 1.393 . S
C1953 C1952 1.391 . S
C1954 H1944 0.950 . S
C1954 C1955 1.386 . S
C1954 C1956 1.391 . S
C1955 C1954 1.386 . S
C1955 C1959 1.393 . S
C1956 H1945 0.950 . S
C1956 C1954 1.391 . S
C1956 C1957 1.400 . S
C1957 C1951 1.491 . S
C1957 C1956 1.400 . S
C1957 C1958 1.398 . S
C1958 H1946 0.950 . S
C1958 C1957 1.398 . S
C1958 C1959 1.391 . S
C1959 H1947 0.950 . S
C1959 C1955 1.393 . S
C1959 C1958 1.391 . S
H1960 C1968 0.950 . S
H1961 C1973 0.950 . S
H1962 C1970 0.950 . S
H1963 C1972 0.950 . S
H1964 C1974 0.950 . S
H1965 C1976 0.950 . S
H1966 C1978 0.950 . S
H1967 C1979 0.950 . S
C1968 H1960 0.950 . S
C1968 C1969 1.386 . S
C1968 C1970 1.391 . S
C1969 C1968 1.386 . S
C1969 C1973 1.393 . S
C1970 H1962 0.950 . S
C1970 C1968 1.391 . S
C1970 C1971 1.400 . S
C1971 C1970 1.400 . S
C1971 C1972 1.398 . S
C1971 C1977 1.491 . S
C1972 H1963 0.950 . S
C1972 C1971 1.398 . S
C1972 C1973 1.391 . S
C1973 H1961 0.950 . S
C1973 C1969 1.393 . S
C1973 C1972 1.391 . S
C1974 H1964 0.950 . S
C1974 C1975 1.386 . S
C1974 C1976 1.391 . S
C1975 C1974 1.386 . S
C1975 C1979 1.393 . S
C1976 H1965 0.950 . S
C1976 C1974 1.391 . S
C1976 C1977 1.400 . S
C1977 C1971 1.491 . S
C1977 C1976 1.400 . S
C1977 C1978 1.398 . S
C1978 H1966 0.950 . S
C1978 C1977 1.398 . S
C1978 C1979 1.391 . S
C1979 H1967 0.950 . S
C1979 C1975 1.393 . S
C1979 C1978 1.391 . S
H1980 C1988 0.950 . S
H1981 C1993 0.950 . S
H1982 C1990 0.950 . S
H1983 C1992 0.950 . S
H1984 C1994 0.950 . S
H1985 C1996 0.950 . S
H1986 C1998 0.950 . S
H1987 C1999 0.950 . S
C1988 H1980 0.950 . S
C1988 C1989 1.386 . S
C1988 C1990 1.391 . S
C1989 C1988 1.386 . S
C1989 C1993 1.393 . S
C1990 H1982 0.950 . S
C1990 C1988 1.391 . S
C1990 C1991 1.400 . S
C1991 C1990 1.400 . S
C1991 C1992 1.398 . S
C1991 C1997 1.491 . S
C1992 H1983 0.950 . S
C1992 C1991 1.398 . S
C1992 C1993 1.391 . S
C1993 H1981 0.950 . S
C1993 C1989 1.393 . S
C1993 C1992 1.391 . S
C1994 H1984 0.950 . S
C1994 C1995 1.386 . S
C1994 C1996 1.391 . S
C1995 C1994 1.386 . S
C1995 C1999 1.393 . S
C1996 H1985 0.950 . S
C1996 C1994 1.391 . S
C1996 C1997 1.400 . S
C1997 C1991 1.491 . S
C1997 C1996 1.400 . S
C1997 C1998 1.398 . S
C1998 H1986 0.950 . S
C1998 C1997 1.398 . S
C1998 C1999 1.391 . S
C1999 H1987 0.950 . S
C1999 C1995 1.393 . S
C1999 C1998 1.391 . S
H2000 C2008 0.950 . S
H2001 C2013 0.950 . S
H2002 C2010 0.950 . S
H2003 C2012 0.950 . S
H2004 C2014 0.950 . S
H2005 C2016 0.950 . S
H2006 C2018 0.950 . S
H2007 C2019 0.950 . S
C2008 H2000 0.950 . S
C2008 C2009 1.386 . S
C2008 C2010 1.391 . S
C2009 C2008 1.386 . S
C2009 C2013 1.393 . S
C2010 H2002 0.950 . S
C2010 C2008 1.391 . S
C2010 C2011 1.400 . S
C2011 C2010 1.400 . S
C2011 C2012 1.398 . S
C2011 C2017 1.491 . S
C2012 H2003 0.950 . S
C2012 C2011 1.398 . S
C2012 C2013 1.391 . S
C2013 H2001 0.950 . S
C2013 C2009 1.393 . S
C2013 C2012 1.391 . S
C2014 H2004 0.950 . S
C2014 C2015 1.386 . S
C2014 C2016 1.391 . S
C2015 C2014 1.386 . S
C2015 C2019 1.393 . S
C2016 H2005 0.950 . S
C2016 C2014 1.391 . S
C2016 C2017 1.400 . S
C2017 C2011 1.491 . S
C2017 C2016 1.400 . S
C2017 C2018 1.398 . S
C2018 H2006 0.950 . S
C2018 C2017 1.398 . S
C2018 C2019 1.391 . S
C2019 H2007 0.950 . S
C2019 C2015 1.393 . S
C2019 C2018 1.391 . S
H2020 C2028 0.950 . S
H2021 C2033 0.950 . S
H2022 C2030 0.950 . S
H2023 C2032 0.950 . S
H2024 C2034 0.950 . S
H2025 C2036 0.950 . S
H2026 C2038 0.950 . S
H2027 C2039 0.950 . S
C2028 H2020 0.950 . S
C2028 C2029 1.386 . S
C2028 C2030 1.391 . S
C2029 C2028 1.386 . S
C2029 C2033 1.393 . S
C2030 H2022 0.950 . S
C2030 C2028 1.391 . S
C2030 C2031 1.400 . S
C2031 C2030 1.400 . S
C2031 C2032 1.398 . S
C2031 C2037 1.491 . S
C2032 H2023 0.950 . S
C2032 C2031 1.398 . S
C2032 C2033 1.391 . S
C2033 H2021 0.950 . S
C2033 C2029 1.393 . S
C2033 C2032 1.391 . S
C2034 H2024 0.950 . S
C2034 C2035 1.386 . S
C2034 C2036 1.391 . S
C2035 C2034 1.386 . S
C2035 C2039 1.393 . S
C2036 H2025 0.950 . S
C2036 C2034 1.391 . S
C2036 C2037 1.400 . S
C2037 C2031 1.491 . S
C2037 C2036 1.400 . S
C2037 C2038 1.398 . S
C2038 H2026 0.950 . S
C2038 C2037 1.398 . S
C2038 C2039 1.391 . S
C2039 H2027 0.950 . S
C2039 C2035 1.393 . S
C2039 C2038 1.391 . S
H2040 C2048 0.950 . S
H2041 C2053 0.950 . S
H2042 C2050 0.950 . S
H2043 C2052 0.950 . S
H2044 C2054 0.950 . S
H2045 C2056 0.950 . S
H2046 C2058 0.950 . S
H2047 C2059 0.950 . S
C2048 H2040 0.950 . S
C2048 C2049 1.386 . S
C2048 C2050 1.391 . S
C2049 C2048 1.386 . S
C2049 C2053 1.393 . S
C2050 H2042 0.950 . S
C2050 C2048 1.391 . S
C2050 C2051 1.400 . S
C2051 C2050 1.400 . S
C2051 C2052 1.398 . S
C2051 C2057 1.491 . S
C2052 H2043 0.950 . S
C2052 C2051 1.398 . S
C2052 C2053 1.391 . S
C2053 H2041 0.950 . S
C2053 C2049 1.393 . S
C2053 C2052 1.391 . S
C2054 H2044 0.950 . S
C2054 C2055 1.386 . S
C2054 C2056 1.391 . S
C2055 C2054 1.386 . S
C2055 C2059 1.393 . S
C2056 H2045 0.950 . S
C2056 C2054 1.391 . S
C2056 C2057 1.400 . S
C2057 C2051 1.491 . S
C2057 C2056 1.400 . S
C2057 C2058 1.398 . S
C2058 H2046 0.950 . S
C2058 C2057 1.398 . S
C2058 C2059 1.391 . S
C2059 H2047 0.950 . S
C2059 C2055 1.393 . S
C2059 C2058 1.391 . S
H2060 C2068 0.950 . S
H2061 C2073 0.950 . S
H2062 C2070 0.950 . S
H2063 C2072 0.950 . S
H2064 C2074 0.950 . S
H2065 C2076 0.950 . S
H2066 C2078 0.950 . S
H2067 C2079 0.950 . S
C2068 H2060 0.950 . S
C2068 C2069 1.386 . S
C2068 C2070 1.391 . S
C2069 C2068 1.386 . S
C2069 C2073 1.393 . S
C2070 H2062 0.950 . S
C2070 C2068 1.391 . S
C2070 C2071 1.400 . S
C2071 C2070 1.400 . S
C2071 C2072 1.398 . S
C2071 C2077 1.491 . S
C2072 H2063 0.950 . S
C2072 C2071 1.398 . S
C2072 C2073 1.391 . S
C2073 H2061 0.950 . S
C2073 C2069 1.393 . S
C2073 C2072 1.391 . S
C2074 H2064 0.950 . S
C2074 C2075 1.386 . S
C2074 C2076 1.391 . S
C2075 C2074 1.386 . S
C2075 C2079 1.393 . S
C2076 H2065 0.950 . S
C2076 C2074 1.391 . S
C2076 C2077 1.400 . S
C2077 C2071 1.491 . S
C2077 C2076 1.400 . S
C2077 C2078 1.398 . S
C2078 H2066 0.950 . S
C2078 C2077 1.398 . S
C2078 C2079 1.391 . S
C2079 H2067 0.950 . S
C2079 C2075 1.393 . S
C2079 C2078 1.391 . S
H2080 C2088 0.950 . S
H2081 C2093 0.950 . S
H2082 C2090 0.950 . S
H2083 C2092 0.950 . S
H2084 C2094 0.950 . S
H2085 C2096 0.950 . S
H2086 C2098 0.950 . S
H2087 C2099 0.950 . S
C2088 H2080 0.950 . S
C2088 C2089 1.386 . S
C2088 C2090 1.391 . S
C2089 C2088 1.386 . S
C2089 C2093 1.393 . S
C2090 H2082 0.950 . S
C2090 C2088 1.391 . S
C2090 C2091 1.400 . S
C2091 C2090 1.400 . S
C2091 C2092 1.398 . S
C2091 C2097 1.491 . S
C2092 H2083 0.950 . S
C2092 C2091 1.398 . S
C2092 C2093 1.391 . S
C2093 H2081 0.950 . S
C2093 C2089 1.393 . S
C2093 C2092 1.391 . S
C2094 H2084 0.950 . S
C2094 C2095 1.386 . S
C2094 C2096 1.391 . S
C2095 C2094 1.386 . S
C2095 C2099 1.393 . S
C2096 H2085 0.950 . S
C2096 C2094 1.391 . S
C2096 C2097 1.400 . S
C2097 C2091 1.491 . S
C2097 C2096 1.400 . S
C2097 C2098 1.398 . S
C2098 H2086 0.950 . S
C2098 C2097 1.398 . S
C2098 C2099 1.391 . S
C2099 H2087 0.950 . S
C2099 C2095 1.393 . S
C2099 C2098 1.391 . S
H2100 C2108 0.950 . S
H2101 C2113 0.950 . S
H2102 C2110 0.950 . S
H2103 C2112 0.950 . S
H2104 C2114 0.950 . S
H2105 C2116 0.950 . S
H2106 C2118 0.950 . S
H2107 C2119 0.950 . S
C2108 H2100 0.950 . S
C2108 C2109 1.386 . S
C2108 C2110 1.391 . S
C2109 C2108 1.386 . S
C2109 C2113 1.393 . S
C2110 H2102 0.950 . S
C2110 C2108 1.391 . S
C2110 C2111 1.400 . S
C2111 C2110 1.400 . S
C2111 C2112 1.398 . S
C2111 C2117 1.491 . S
C2112 H2103 0.950 . S
C2112 C2111 1.398 . S
C2112 C2113 1.391 . S
C2113 H2101 0.950 . S
C2113 C2109 1.393 . S
C2113 C2112 1.391 . S
C2114 H2104 0.950 . S
C2114 C2115 1.386 . S
C2114 C2116 1.391 . S
C2115 C2114 1.386 . S
C2115 C2119 1.393 . S
C2116 H2105 0.950 . S
C2116 C2114 1.391 . S
C2116 C2117 1.400 . S
C2117 C2111 1.491 . S
C2117 C2116 1.400 . S
C2117 C2118 1.398 . S
C2118 H2106 0.950 . S
C2118 C2117 1.398 . S
C2118 C2119 1.391 . S
C2119 H2107 0.950 . S
C2119 C2115 1.393 . S
C2119 C2118 1.391 . S
H2120 C2128 0.950 . S
H2121 C2133 0.950 . S
H2122 C2130 0.950 . S
H2123 C2132 0.950 . S
H2124 C2134 0.950 . S
H2125 C2136 0.950 . S
H2126 C2138 0.950 . S
H2127 C2139 0.950 . S
C2128 H2120 0.950 . S
C2128 C2129 1.386 . S
C2128 C2130 1.391 . S
C2129 C2128 1.386 . S
C2129 C2133 1.393 . S
C2130 H2122 0.950 . S
C2130 C2128 1.391 . S
C2130 C2131 1.400 . S
C2131 C2130 1.400 . S
C2131 C2132 1.398 . S
C2131 C2137 1.491 . S
C2132 H2123 0.950 . S
C2132 C2131 1.398 . S
C2132 C2133 1.391 . S
C2133 H2121 0.950 . S
C2133 C2129 1.393 . S
C2133 C2132 1.391 . S
C2134 H2124 0.950 . S
C2134 C2135 1.386 . S
C2134 C2136 1.391 . S
C2135 C2134 1.386 . S
C2135 C2139 1.393 . S
C2136 H2125 0.950 . S
C2136 C2134 1.391 . S
C2136 C2137 1.400 . S
C2137 C2131 1.491 . S
C2137 C2136 1.400 . S
C2137 C2138 1.398 . S
C2138 H2126 0.950 . S
C2138 C2137 1.398 . S
C2138 C2139 1.391 . S
C2139 H2127 0.950 . S
C2139 C2135 1.393 . S
C2139 C2138 1.391 . S
H2140 C2148 0.950 . S
H2141 C2153 0.950 . S
H2142 C2150 0.950 . S
H2143 C2152 0.950 . S
H2144 C2154 0.950 . S
H2145 C2156 0.950 . S
H2146 C2158 0.950 . S
H2147 C2159 0.950 . S
C2148 H2140 0.950 . S
C2148 C2149 1.386 . S
C2148 C2150 1.391 . S
C2149 C2148 1.386 . S
C2149 C2153 1.393 . S
C2150 H2142 0.950 . S
C2150 C2148 1.391 . S
C2150 C2151 1.400 . S
C2151 C2150 1.400 . S
C2151 C2152 1.398 . S
C2151 C2157 1.491 . S
C2152 H2143 0.950 . S
C2152 C2151 1.398 . S
C2152 C2153 1.391 . S
C2153 H2141 0.950 . S
C2153 C2149 1.393 . S
C2153 C2152 1.391 . S
C2154 H2144 0.950 . S
C2154 C2155 1.386 . S
C2154 C2156 1.391 . S
C2155 C2154 1.386 . S
C2155 C2159 1.393 . S
C2156 H2145 0.950 . S
C2156 C2154 1.391 . S
C2156 C2157 1.400 . S
C2157 C2151 1.491 . S
C2157 C2156 1.400 . S
C2157 C2158 1.398 . S
C2158 H2146 0.950 . S
C2158 C2157 1.398 . S
C2158 C2159 1.391 . S
C2159 H2147 0.950 . S
C2159 C2155 1.393 . S
C2159 C2158 1.391 . S
H2160 C2168 0.950 . S
H2161 C2173 0.950 . S
H2162 C2170 0.950 . S
H2163 C2172 0.950 . S
H2164 C2174 0.950 . S
H2165 C2176 0.950 . S
H2166 C2178 0.950 . S
H2167 C2179 0.950 . S
C2168 H2160 0.950 . S
C2168 C2169 1.386 . S
C2168 C2170 1.391 . S
C2169 C2168 1.386 . S
C2169 C2173 1.393 . S
C2170 H2162 0.950 . S
C2170 C2168 1.391 . S
C2170 C2171 1.400 . S
C2171 C2170 1.400 . S
C2171 C2172 1.398 . S
C2171 C2177 1.491 . S
C2172 H2163 0.950 . S
C2172 C2171 1.398 . S
C2172 C2173 1.391 . S
C2173 H2161 0.950 . S
C2173 C2169 1.393 . S
C2173 C2172 1.391 . S
C2174 H2164 0.950 . S
C2174 C2175 1.386 . S
C2174 C2176 1.391 . S
C2175 C2174 1.386 . S
C2175 C2179 1.393 . S
C2176 H2165 0.950 . S
C2176 C2174 1.391 . S
C2176 C2177 1.400 . S
C2177 C2171 1.491 . S
C2177 C2176 1.400 . S
C2177 C2178 1.398 . S
C2178 H2166 0.950 . S
C2178 C2177 1.398 . S
C2178 C2179 1.391 . S
C2179 H2167 0.950 . S
C2179 C2175 1.393 . S
C2179 C2178 1.391 . S
H2180 C2188 0.950 . S
H2181 C2193 0.950 . S
H2182 C2190 0.950 . S
H2183 C2192 0.950 . S
H2184 C2194 0.950 . S
H2185 C2196 0.950 . S
H2186 C2198 0.950 . S
H2187 C2199 0.950 . S
C2188 H2180 0.950 . S
C2188 C2189 1.386 . S
C2188 C2190 1.391 . S
C2189 C2188 1.386 . S
C2189 C2193 1.393 . S
C2190 H2182 0.950 . S
C2190 C2188 1.391 . S
C2190 C2191 1.400 . S
C2191 C2190 1.400 . S
C2191 C2192 1.398 . S
C2191 C2197 1.491 . S
C2192 H2183 0.950 . S
C2192 C2191 1.398 . S
C2192 C2193 1.391 . S
C2193 H2181 0.950 . S
C2193 C2189 1.393 . S
C2193 C2192 1.391 . S
C2194 H2184 0.950 . S
C2194 C2195 1.386 . S
C2194 C2196 1.391 . S
C2195 C2194 1.386 . S
C2195 C2199 1.393 . S
C2196 H2185 0.950 . S
C2196 C2194 1.391 . S
C2196 C2197 1.400 . S
C2197 C2191 1.491 . S
C2197 C2196 1.400 . S
C2197 C2198 1.398 . S
C2198 H2186 0.950 . S
C2198 C2197 1.398 . S
C2198 C2199 1.391 . S
C2199 H2187 0.950 . S
C2199 C2195 1.393 . S
C2199 C2198 1.391 . S
H2200 C2208 0.950 . S
H2201 C2213 0.950 . S
H2202 C2210 0.950 . S
H2203 C2212 0.950 . S
H2204 C2214 0.950 . S
H2205 C2216 0.950 . S
H2206 C2218 0.950 . S
H2207 C2219 0.950 . S
C2208 H2200 0.950 . S
C2208 C2209 1.386 . S
C2208 C2210 1.391 . S
C2209 C2208 1.386 . S
C2209 C2213 1.393 . S
C2210 H2202 0.950 . S
C2210 C2208 1.391 . S
C2210 C2211 1.400 . S
C2211 C2210 1.400 . S
C2211 C2212 1.398 . S
C2211 C2217 1.491 . S
C2212 H2203 0.950 . S
C2212 C2211 1.398 . S
C2212 C2213 1.391 . S
C2213 H2201 0.950 . S
C2213 C2209 1.393 . S
C2213 C2212 1.391 . S
C2214 H2204 0.950 . S
C2214 C2215 1.386 . S
C2214 C2216 1.391 . S
C2215 C2214 1.386 . S
C2215 C2219 1.393 . S
C2216 H2205 0.950 . S
C2216 C2214 1.391 . S
C2216 C2217 1.400 . S
C2217 C2211 1.491 . S
C2217 C2216 1.400 . S
C2217 C2218 1.398 . S
C2218 H2206 0.950 . S
C2218 C2217 1.398 . S
C2218 C2219 1.391 . S
C2219 H2207 0.950 . S
C2219 C2215 1.393 . S
C2219 C2218 1.391 . S
H2220 C2228 0.950 . S
H2221 C2233 0.950 . S
H2222 C2230 0.950 . S
H2223 C2232 0.950 . S
H2224 C2234 0.950 . S
H2225 C2236 0.950 . S
H2226 C2238 0.950 . S
H2227 C2239 0.950 . S
C2228 H2220 0.950 . S
C2228 C2229 1.386 . S
C2228 C2230 1.391 . S
C2229 C2228 1.386 . S
C2229 C2233 1.393 . S
C2230 H2222 0.950 . S
C2230 C2228 1.391 . S
C2230 C2231 1.400 . S
C2231 C2230 1.400 . S
C2231 C2232 1.398 . S
C2231 C2237 1.491 . S
C2232 H2223 0.950 . S
C2232 C2231 1.398 . S
C2232 C2233 1.391 . S
C2233 H2221 0.950 . S
C2233 C2229 1.393 . S
C2233 C2232 1.391 . S
C2234 H2224 0.950 . S
C2234 C2235 1.386 . S
C2234 C2236 1.391 . S
C2235 C2234 1.386 . S
C2235 C2239 1.393 . S
C2236 H2225 0.950 . S
C2236 C2234 1.391 . S
C2236 C2237 1.400 . S
C2237 C2231 1.491 . S
C2237 C2236 1.400 . S
C2237 C2238 1.398 . S
C2238 H2226 0.950 . S
C2238 C2237 1.398 . S
C2238 C2239 1.391 . S
C2239 H2227 0.950 . S
C2239 C2235 1.393 . S
C2239 C2238 1.391 . S
H2240 C2248 0.950 . S
H2241 C2253 0.950 . S
H2242 C2250 0.950 . S
H2243 C2252 0.950 . S
H2244 C2254 0.950 . S
H2245 C2256 0.950 . S
H2246 C2258 0.950 . S
H2247 C2259 0.950 . S
C2248 H2240 0.950 . S
C2248 C2249 1.386 . S
C2248 C2250 1.391 . S
C2249 C2248 1.386 . S
C2249 C2253 1.393 . S
C2250 H2242 0.950 . S
C2250 C2248 1.391 . S
C2250 C2251 1.400 . S
C2251 C2250 1.400 . S
C2251 C2252 1.398 . S
C2251 C2257 1.491 . S
C2252 H2243 0.950 . S
C2252 C2251 1.398 . S
C2252 C2253 1.391 . S
C2253 H2241 0.950 . S
C2253 C2249 1.393 . S
C2253 C2252 1.391 . S
C2254 H2244 0.950 . S
C2254 C2255 1.386 . S
C2254 C2256 1.391 . S
C2255 C2254 1.386 . S
C2255 C2259 1.393 . S
C2256 H2245 0.950 . S
C2256 C2254 1.391 . S
C2256 C2257 1.400 . S
C2257 C2251 1.491 . S
C2257 C2256 1.400 . S
C2257 C2258 1.398 . S
C2258 H2246 0.950 . S
C2258 C2257 1.398 . S
C2258 C2259 1.391 . S
C2259 H2247 0.950 . S
C2259 C2255 1.393 . S
C2259 C2258 1.391 . S
H2260 C2268 0.950 . S
H2261 C2273 0.950 . S
H2262 C2270 0.950 . S
H2263 C2272 0.950 . S
H2264 C2274 0.950 . S
H2265 C2276 0.950 . S
H2266 C2278 0.950 . S
H2267 C2279 0.950 . S
C2268 H2260 0.950 . S
C2268 C2269 1.386 . S
C2268 C2270 1.391 . S
C2269 C2268 1.386 . S
C2269 C2273 1.393 . S
C2270 H2262 0.950 . S
C2270 C2268 1.391 . S
C2270 C2271 1.400 . S
C2271 C2270 1.400 . S
C2271 C2272 1.398 . S
C2271 C2277 1.491 . S
C2272 H2263 0.950 . S
C2272 C2271 1.398 . S
C2272 C2273 1.391 . S
C2273 H2261 0.950 . S
C2273 C2269 1.393 . S
C2273 C2272 1.391 . S
C2274 H2264 0.950 . S
C2274 C2275 1.386 . S
C2274 C2276 1.391 . S
C2275 C2274 1.386 . S
C2275 C2279 1.393 . S
C2276 H2265 0.950 . S
C2276 C2274 1.391 . S
C2276 C2277 1.400 . S
C2277 C2271 1.491 . S
C2277 C2276 1.400 . S
C2277 C2278 1.398 . S
C2278 H2266 0.950 . S
C2278 C2277 1.398 . S
C2278 C2279 1.391 . S
C2279 H2267 0.950 . S
C2279 C2275 1.393 . S
C2279 C2278 1.391 . S
H2280 C2288 0.950 . S
H2281 C2293 0.950 . S
H2282 C2290 0.950 . S
H2283 C2292 0.950 . S
H2284 C2294 0.950 . S
H2285 C2296 0.950 . S
H2286 C2298 0.950 . S
H2287 C2299 0.950 . S
C2288 H2280 0.950 . S
C2288 C2289 1.386 . S
C2288 C2290 1.391 . S
C2289 C2288 1.386 . S
C2289 C2293 1.393 . S
C2290 H2282 0.950 . S
C2290 C2288 1.391 . S
C2290 C2291 1.400 . S
C2291 C2290 1.400 . S
C2291 C2292 1.398 . S
C2291 C2297 1.491 . S
C2292 H2283 0.950 . S
C2292 C2291 1.398 . S
C2292 C2293 1.391 . S
C2293 H2281 0.950 . S
C2293 C2289 1.393 . S
C2293 C2292 1.391 . S
C2294 H2284 0.950 . S
C2294 C2295 1.386 . S
C2294 C2296 1.391 . S
C2295 C2294 1.386 . S
C2295 C2299 1.393 . S
C2296 H2285 0.950 . S
C2296 C2294 1.391 . S
C2296 C2297 1.400 . S
C2297 C2291 1.491 . S
C2297 C2296 1.400 . S
C2297 C2298 1.398 . S
C2298 H2286 0.950 . S
C2298 C2297 1.398 . S
C2298 C2299 1.391 . S
C2299 H2287 0.950 . S
C2299 C2295 1.393 . S
C2299 C2298 1.391 . S
H2300 C2308 0.950 . S
H2301 C2313 0.950 . S
H2302 C2310 0.950 . S
H2303 C2312 0.950 . S
H2304 C2314 0.950 . S
H2305 C2316 0.950 . S
H2306 C2318 0.950 . S
H2307 C2319 0.950 . S
C2308 H2300 0.950 . S
C2308 C2309 1.386 . S
C2308 C2310 1.391 . S
C2309 C2308 1.386 . S
C2309 C2313 1.393 . S
C2310 H2302 0.950 . S
C2310 C2308 1.391 . S
C2310 C2311 1.400 . S
C2311 C2310 1.400 . S
C2311 C2312 1.398 . S
C2311 C2317 1.491 . S
C2312 H2303 0.950 . S
C2312 C2311 1.398 . S
C2312 C2313 1.391 . S
C2313 H2301 0.950 . S
C2313 C2309 1.393 . S
C2313 C2312 1.391 . S
C2314 H2304 0.950 . S
C2314 C2315 1.386 . S
C2314 C2316 1.391 . S
C2315 C2314 1.386 . S
C2315 C2319 1.393 . S
C2316 H2305 0.950 . S
C2316 C2314 1.391 . S
C2316 C2317 1.400 . S
C2317 C2311 1.491 . S
C2317 C2316 1.400 . S
C2317 C2318 1.398 . S
C2318 H2306 0.950 . S
C2318 C2317 1.398 . S
C2318 C2319 1.391 . S
C2319 H2307 0.950 . S
C2319 C2315 1.393 . S
C2319 C2318 1.391 . S
H2320 C2328 0.950 . S
H2321 C2333 0.950 . S
H2322 C2330 0.950 . S
H2323 C2332 0.950 . S
H2324 C2334 0.950 . S
H2325 C2336 0.950 . S
H2326 C2338 0.950 . S
H2327 C2339 0.950 . S
C2328 H2320 0.950 . S
C2328 C2329 1.386 . S
C2328 C2330 1.391 . S
C2329 C2328 1.386 . S
C2329 C2333 1.393 . S
C2330 H2322 0.950 . S
C2330 C2328 1.391 . S
C2330 C2331 1.400 . S
C2331 C2330 1.400 . S
C2331 C2332 1.398 . S
C2331 C2337 1.491 . S
C2332 H2323 0.950 . S
C2332 C2331 1.398 . S
C2332 C2333 1.391 . S
C2333 H2321 0.950 . S
C2333 C2329 1.393 . S
C2333 C2332 1.391 . S
C2334 H2324 0.950 . S
C2334 C2335 1.386 . S
C2334 C2336 1.391 . S
C2335 C2334 1.386 . S
C2335 C2339 1.393 . S
C2336 H2325 0.950 . S
C2336 C2334 1.391 . S
C2336 C2337 1.400 . S
C2337 C2331 1.491 . S
C2337 C2336 1.400 . S
C2337 C2338 1.398 . S
C2338 H2326 0.950 . S
C2338 C2337 1.398 . S
C2338 C2339 1.391 . S
C2339 H2327 0.950 . S
C2339 C2335 1.393 . S
C2339 C2338 1.391 . S
H2340 C2348 0.950 . S
H2341 C2353 0.950 . S
H2342 C2350 0.950 . S
H2343 C2352 0.950 . S
H2344 C2354 0.950 . S
H2345 C2356 0.950 . S
H2346 C2358 0.950 . S
H2347 C2359 0.950 . S
C2348 H2340 0.950 . S
C2348 C2349 1.386 . S
C2348 C2350 1.391 . S
C2349 C2348 1.386 . S
C2349 C2353 1.393 . S
C2350 H2342 0.950 . S
C2350 C2348 1.391 . S
C2350 C2351 1.400 . S
C2351 C2350 1.400 . S
C2351 C2352 1.398 . S
C2351 C2357 1.491 . S
C2352 H2343 0.950 . S
C2352 C2351 1.398 . S
C2352 C2353 1.391 . S
C2353 H2341 0.950 . S
C2353 C2349 1.393 . S
C2353 C2352 1.391 . S
C2354 H2344 0.950 . S
C2354 C2355 1.386 . S
C2354 C2356 1.391 . S
C2355 C2354 1.386 . S
C2355 C2359 1.393 . S
C2356 H2345 0.950 . S
C2356 C2354 1.391 . S
C2356 C2357 1.400 . S
C2357 C2351 1.491 . S
C2357 C2356 1.400 . S
C2357 C2358 1.398 . S
C2358 H2346 0.950 . S
C2358 C2357 1.398 . S
C2358 C2359 1.391 . S
C2359 H2347 0.950 . S
C2359 C2355 1.393 . S
C2359 C2358 1.391 . S
H2360 C2368 0.950 . S
H2361 C2373 0.950 . S
H2362 C2370 0.950 . S
H2363 C2372 0.950 . S
H2364 C2374 0.950 . S
H2365 C2376 0.950 . S
H2366 C2378 0.950 . S
H2367 C2379 0.950 . S
C2368 H2360 0.950 . S
C2368 C2369 1.386 . S
C2368 C2370 1.391 . S
C2369 C2368 1.386 . S
C2369 C2373 1.393 . S
C2370 H2362 0.950 . S
C2370 C2368 1.391 . S
C2370 C2371 1.400 . S
C2371 C2370 1.400 . S
C2371 C2372 1.398 . S
C2371 C2377 1.491 . S
C2372 H2363 0.950 . S
C2372 C2371 1.398 . S
C2372 C2373 1.391 . S
C2373 H2361 0.950 . S
C2373 C2369 1.393 . S
C2373 C2372 1.391 . S
C2374 H2364 0.950 . S
C2374 C2375 1.386 . S
C2374 C2376 1.391 . S
C2375 C2374 1.386 . S
C2375 C2379 1.393 . S
C2376 H2365 0.950 . S
C2376 C2374 1.391 . S
C2376 C2377 1.400 . S
C2377 C2371 1.491 . S
C2377 C2376 1.400 . S
C2377 C2378 1.398 . S
C2378 H2366 0.950 . S
C2378 C2377 1.398 . S
C2378 C2379 1.391 . S
C2379 H2367 0.950 . S
C2379 C2375 1.393 . S
C2379 C2378 1.391 . S
H2380 C2388 0.950 . S
H2381 C2393 0.950 . S
H2382 C2390 0.950 . S
H2383 C2392 0.950 . S
H2384 C2394 0.950 . S
H2385 C2396 0.950 . S
H2386 C2398 0.950 . S
H2387 C2399 0.950 . S
C2388 H2380 0.950 . S
C2388 C2389 1.386 . S
C2388 C2390 1.391 . S
C2389 C2388 1.386 . S
C2389 C2393 1.393 . S
C2390 H2382 0.950 . S
C2390 C2388 1.391 . S
C2390 C2391 1.400 . S
C2391 C2390 1.400 . S
C2391 C2392 1.398 . S
C2391 C2397 1.491 . S
C2392 H2383 0.950 . S
C2392 C2391 1.398 . S
C2392 C2393 1.391 . S
C2393 H2381 0.950 . S
C2393 C2389 1.393 . S
C2393 C2392 1.391 . S
C2394 H2384 0.950 . S
C2394 C2395 1.386 . S
C2394 C2396 1.391 . S
C2395 C2394 1.386 . S
C2395 C2399 1.393 . S
C2396 H2385 0.950 . S
C2396 C2394 1.391 . S
C2396 C2397 1.400 . S
C2397 C2391 1.491 . S
C2397 C2396 1.400 . S
C2397 C2398 1.398 . S
C2398 H2386 0.950 . S
C2398 C2397 1.398 . S
C2398 C2399 1.391 . S
C2399 H2387 0.950 . S
C2399 C2395 1.393 . S
C2399 C2398 1.391 . S
H2400 C2408 0.950 . S
H2401 C2413 0.950 . S
H2402 C2410 0.950 . S
H2403 C2412 0.950 . S
H2404 C2414 0.950 . S
H2405 C2416 0.950 . S
H2406 C2418 0.950 . S
H2407 C2419 0.950 . S
C2408 H2400 0.950 . S
C2408 C2409 1.386 . S
C2408 C2410 1.391 . S
C2409 C2408 1.386 . S
C2409 C2413 1.393 . S
C2410 H2402 0.950 . S
C2410 C2408 1.391 . S
C2410 C2411 1.400 . S
C2411 C2410 1.400 . S
C2411 C2412 1.398 . S
C2411 C2417 1.491 1_655 S
C2412 H2403 0.950 . S
C2412 C2411 1.398 . S
C2412 C2413 1.391 . S
C2413 H2401 0.950 . S
C2413 C2409 1.393 . S
C2413 C2412 1.391 . S
C2414 H2404 0.950 . S
C2414 C2415 1.386 . S
C2414 C2416 1.391 . S
C2415 C2414 1.386 . S
C2415 C2419 1.393 . S
C2416 H2405 0.950 . S
C2416 C2414 1.391 . S
C2416 C2417 1.400 . S
C2417 C2411 1.491 1_455 S
C2417 C2416 1.400 . S
C2417 C2418 1.398 . S
C2418 H2406 0.950 . S
C2418 C2417 1.398 . S
C2418 C2419 1.391 . S
C2419 H2407 0.950 . S
C2419 C2415 1.393 . S
C2419 C2418 1.391 . S
H2420 C2428 0.950 . S
H2421 C2433 0.950 . S
H2422 C2430 0.950 . S
H2423 C2432 0.950 . S
H2424 C2434 0.950 . S
H2425 C2436 0.950 . S
H2426 C2438 0.950 . S
H2427 C2439 0.950 . S
C2428 H2420 0.950 . S
C2428 C2429 1.386 . S
C2428 C2430 1.391 . S
C2429 C2428 1.386 . S
C2429 C2433 1.393 . S
C2430 H2422 0.950 . S
C2430 C2428 1.391 . S
C2430 C2431 1.400 . S
C2431 C2430 1.400 . S
C2431 C2432 1.398 . S
C2431 C2437 1.491 . S
C2432 H2423 0.950 . S
C2432 C2431 1.398 . S
C2432 C2433 1.391 . S
C2433 H2421 0.950 . S
C2433 C2429 1.393 . S
C2433 C2432 1.391 . S
C2434 H2424 0.950 . S
C2434 C2435 1.386 . S
C2434 C2436 1.391 . S
C2435 C2434 1.386 . S
C2435 C2439 1.393 . S
C2436 H2425 0.950 . S
C2436 C2434 1.391 . S
C2436 C2437 1.400 . S
C2437 C2431 1.491 . S
C2437 C2436 1.400 . S
C2437 C2438 1.398 . S
C2438 H2426 0.950 . S
C2438 C2437 1.398 . S
C2438 C2439 1.391 . S
C2439 H2427 0.950 . S
C2439 C2435 1.393 . S
C2439 C2438 1.391 . S
H2440 C2448 0.950 . S
H2441 C2453 0.950 . S
H2442 C2450 0.950 . S
H2443 C2452 0.950 . S
H2444 C2454 0.950 . S
H2445 C2456 0.950 . S
H2446 C2458 0.950 . S
H2447 C2459 0.950 . S
C2448 H2440 0.950 . S
C2448 C2449 1.386 . S
C2448 C2450 1.391 . S
C2449 C2448 1.386 . S
C2449 C2453 1.393 . S
C2450 H2442 0.950 . S
C2450 C2448 1.391 . S
C2450 C2451 1.400 . S
C2451 C2450 1.400 . S
C2451 C2452 1.398 . S
C2451 C2457 1.491 1_545 S
C2452 H2443 0.950 . S
C2452 C2451 1.398 . S
C2452 C2453 1.391 . S
C2453 H2441 0.950 . S
C2453 C2449 1.393 . S
C2453 C2452 1.391 . S
C2454 H2444 0.950 . S
C2454 C2455 1.386 . S
C2454 C2456 1.391 . S
C2455 C2454 1.386 . S
C2455 C2459 1.393 . S
C2456 H2445 0.950 . S
C2456 C2454 1.391 . S
C2456 C2457 1.400 . S
C2457 C2451 1.491 1_565 S
C2457 C2456 1.400 . S
C2457 C2458 1.398 . S
C2458 H2446 0.950 . S
C2458 C2457 1.398 . S
C2458 C2459 1.391 . S
C2459 H2447 0.950 . S
C2459 C2455 1.393 . S
C2459 C2458 1.391 . S
H2460 C2468 0.950 . S
H2461 C2473 0.950 . S
H2462 C2470 0.950 1_556 S
H2463 C2472 0.950 1_545 S
H2464 C2474 0.950 . S
H2465 C2476 0.950 1_554 S
H2466 C2478 0.950 1_565 S
H2467 C2479 0.950 . S
C2468 H2460 0.950 . S
C2468 C2469 1.386 . S
C2468 C2470 1.391 . S
C2469 C2468 1.386 . S
C2469 C2473 1.393 . S
C2470 H2462 0.950 1_554 S
C2470 C2468 1.391 . S
C2470 C2471 1.400 . S
C2471 C2470 1.400 . S
C2471 C2472 1.398 . S
C2471 C2477 1.491 1_564 S
C2472 H2463 0.950 1_565 S
C2472 C2471 1.398 . S
C2472 C2473 1.391 . S
C2473 H2461 0.950 . S
C2473 C2469 1.393 . S
C2473 C2472 1.391 . S
C2474 H2464 0.950 . S
C2474 C2475 1.386 . S
C2474 C2476 1.391 . S
C2475 C2474 1.386 . S
C2475 C2479 1.393 . S
C2476 H2465 0.950 1_556 S
C2476 C2474 1.391 . S
C2476 C2477 1.400 . S
C2477 C2471 1.491 1_546 S
C2477 C2476 1.400 . S
C2477 C2478 1.398 . S
C2478 H2466 0.950 1_545 S
C2478 C2477 1.398 . S
C2478 C2479 1.391 . S
C2479 H2467 0.950 . S
C2479 C2475 1.393 . S
C2479 C2478 1.391 . S
H2480 C2488 0.950 . S
H2481 C2493 0.950 . S
H2482 C2490 0.950 . S
H2483 C2492 0.950 1_455 S
H2484 C2494 0.950 . S
H2485 C2496 0.950 . S
H2486 C2498 0.950 1_655 S
H2487 C2499 0.950 . S
C2488 H2480 0.950 . S
C2488 C2489 1.386 1_554 S
C2488 C2490 1.391 . S
C2489 C2488 1.386 1_556 S
C2489 C2493 1.393 . S
C2490 H2482 0.950 . S
C2490 C2488 1.391 . S
C2490 C2491 1.400 1_554 S
C2491 C2490 1.400 1_556 S
C2491 C2492 1.398 . S
C2491 C2497 1.491 1_656 S
C2492 H2483 0.950 1_655 S
C2492 C2491 1.398 . S
C2492 C2493 1.391 . S
C2493 H2481 0.950 . S
C2493 C2489 1.393 . S
C2493 C2492 1.391 . S
C2494 H2484 0.950 . S
C2494 C2495 1.386 1_556 S
C2494 C2496 1.391 . S
C2495 C2494 1.386 1_554 S
C2495 C2499 1.393 . S
C2496 H2485 0.950 . S
C2496 C2494 1.391 . S
C2496 C2497 1.400 1_556 S
C2497 C2491 1.491 1_454 S
C2497 C2496 1.400 1_554 S
C2497 C2498 1.398 . S
C2498 H2486 0.950 1_455 S
C2498 C2497 1.398 . S
C2498 C2499 1.391 . S
C2499 H2487 0.950 . S
C2499 C2495 1.393 . S
C2499 C2498 1.391 . S
H2500 C2508 0.950 . S
H2501 C2513 0.950 . S
H2502 C2510 0.950 . S
H2503 C2512 0.950 . S
H2504 C2514 0.950 . S
H2505 C2516 0.950 . S
H2506 C2518 0.950 . S
H2507 C2519 0.950 . S
C2508 H2500 0.950 . S
C2508 C2509 1.386 1_556 S
C2508 C2510 1.391 . S
C2509 C2508 1.386 1_554 S
C2509 C2513 1.393 . S
C2510 H2502 0.950 . S
C2510 C2508 1.391 . S
C2510 C2511 1.400 1_556 S
C2511 C2510 1.400 1_554 S
C2511 C2512 1.398 . S
C2511 C2517 1.491 1_554 S
C2512 H2503 0.950 . S
C2512 C2511 1.398 . S
C2512 C2513 1.391 . S
C2513 H2501 0.950 . S
C2513 C2509 1.393 . S
C2513 C2512 1.391 . S
C2514 H2504 0.950 . S
C2514 C2515 1.386 1_554 S
C2514 C2516 1.391 . S
C2515 C2514 1.386 1_556 S
C2515 C2519 1.393 . S
C2516 H2505 0.950 . S
C2516 C2514 1.391 . S
C2516 C2517 1.400 1_554 S
C2517 C2511 1.491 1_556 S
C2517 C2516 1.400 1_556 S
C2517 C2518 1.398 . S
C2518 H2506 0.950 . S
C2518 C2517 1.398 . S
C2518 C2519 1.391 . S
C2519 H2507 0.950 . S
C2519 C2515 1.393 . S
C2519 C2518 1.391 . S
H2520 C2528 0.950 . S
H2521 C2533 0.950 . S
H2522 C2530 0.950 . S
H2523 C2532 0.950 . S
H2524 C2534 0.950 . S
H2525 C2536 0.950 . S
H2526 C2538 0.950 . S
H2527 C2539 0.950 . S
C2528 H2520 0.950 . S
C2528 C2529 1.386 . S
C2528 C2530 1.391 . S
C2529 C2528 1.386 . S
C2529 C2533 1.393 . S
C2530 H2522 0.950 . S
C2530 C2528 1.391 . S
C2530 C2531 1.400 . S
C2531 C2530 1.400 . S
C2531 C2532 1.398 . S
C2531 C2537 1.491 . S
C2532 H2523 0.950 . S
C2532 C2531 1.398 . S
C2532 C2533 1.391 . S
C2533 H2521 0.950 . S
C2533 C2529 1.393 . S
C2533 C2532 1.391 . S
C2534 H2524 0.950 . S
C2534 C2535 1.386 . S
C2534 C2536 1.391 . S
C2535 C2534 1.386 . S
C2535 C2539 1.393 . S
C2536 H2525 0.950 . S
C2536 C2534 1.391 . S
C2536 C2537 1.400 . S
C2537 C2531 1.491 . S
C2537 C2536 1.400 . S
C2537 C2538 1.398 . S
C2538 H2526 0.950 . S
C2538 C2537 1.398 . S
C2538 C2539 1.391 . S
C2539 H2527 0.950 . S
C2539 C2535 1.393 . S
C2539 C2538 1.391 . S
H2540 C2548 0.950 1_554 S
H2541 C2553 0.950 . S
H2542 C2550 0.950 . S
H2543 C2552 0.950 . S
H2544 C2554 0.950 . S
H2545 C2556 0.950 . S
H2546 C2558 0.950 . S
H2547 C2559 0.950 . S
C2548 H2540 0.950 1_556 S
C2548 C2549 1.386 . S
C2548 C2550 1.391 . S
C2549 C2548 1.386 . S
C2549 C2553 1.393 . S
C2550 H2542 0.950 . S
C2550 C2548 1.391 . S
C2550 C2551 1.400 . S
C2551 C2550 1.400 . S
C2551 C2552 1.398 . S
C2551 C2557 1.491 . S
C2552 H2543 0.950 . S
C2552 C2551 1.398 . S
C2552 C2553 1.391 . S
C2553 H2541 0.950 . S
C2553 C2549 1.393 . S
C2553 C2552 1.391 . S
C2554 H2544 0.950 . S
C2554 C2555 1.386 . S
C2554 C2556 1.391 . S
C2555 C2554 1.386 . S
C2555 C2559 1.393 . S
C2556 H2545 0.950 . S
C2556 C2554 1.391 . S
C2556 C2557 1.400 . S
C2557 C2551 1.491 . S
C2557 C2556 1.400 . S
C2557 C2558 1.398 . S
C2558 H2546 0.950 . S
C2558 C2557 1.398 . S
C2558 C2559 1.391 . S
C2559 H2547 0.950 . S
C2559 C2555 1.393 . S
C2559 C2558 1.391 . S
H2560 C2568 0.950 . S
H2561 C2573 0.950 . S
H2562 C2570 0.950 . S
H2563 C2572 0.950 . S
H2564 C2574 0.950 . S
H2565 C2576 0.950 . S
H2566 C2578 0.950 . S
H2567 C2579 0.950 1_554 S
C2568 H2560 0.950 . S
C2568 C2569 1.386 . S
C2568 C2570 1.391 . S
C2569 C2568 1.386 . S
C2569 C2573 1.393 . S
C2570 H2562 0.950 . S
C2570 C2568 1.391 . S
C2570 C2571 1.400 . S
C2571 C2570 1.400 . S
C2571 C2572 1.398 . S
C2571 C2577 1.491 . S
C2572 H2563 0.950 . S
C2572 C2571 1.398 . S
C2572 C2573 1.391 . S
C2573 H2561 0.950 . S
C2573 C2569 1.393 . S
C2573 C2572 1.391 . S
C2574 H2564 0.950 . S
C2574 C2575 1.386 . S
C2574 C2576 1.391 . S
C2575 C2574 1.386 . S
C2575 C2579 1.393 . S
C2576 H2565 0.950 . S
C2576 C2574 1.391 . S
C2576 C2577 1.400 . S
C2577 C2571 1.491 . S
C2577 C2576 1.400 . S
C2577 C2578 1.398 . S
C2578 H2566 0.950 . S
C2578 C2577 1.398 . S
C2578 C2579 1.391 . S
C2579 H2567 0.950 1_556 S
C2579 C2575 1.393 . S
C2579 C2578 1.391 . S
H2580 C2588 0.950 . S
H2581 C2593 0.950 . S
H2582 C2590 0.950 . S
H2583 C2592 0.950 . S
H2584 C2594 0.950 . S
H2585 C2596 0.950 . S
H2586 C2598 0.950 . S
H2587 C2599 0.950 . S
C2588 H2580 0.950 . S
C2588 C2589 1.386 . S
C2588 C2590 1.391 . S
C2589 C2588 1.386 . S
C2589 C2593 1.393 . S
C2590 H2582 0.950 . S
C2590 C2588 1.391 . S
C2590 C2591 1.400 . S
C2591 C2590 1.400 . S
C2591 C2592 1.398 . S
C2591 C2597 1.491 . S
C2592 H2583 0.950 . S
C2592 C2591 1.398 . S
C2592 C2593 1.391 . S
C2593 H2581 0.950 . S
C2593 C2589 1.393 . S
C2593 C2592 1.391 . S
C2594 H2584 0.950 . S
C2594 C2595 1.386 . S
C2594 C2596 1.391 . S
C2595 C2594 1.386 . S
C2595 C2599 1.393 . S
C2596 H2585 0.950 . S
C2596 C2594 1.391 . S
C2596 C2597 1.400 . S
C2597 C2591 1.491 . S
C2597 C2596 1.400 . S
C2597 C2598 1.398 . S
C2598 H2586 0.950 . S
C2598 C2597 1.398 . S
C2598 C2599 1.391 . S
C2599 H2587 0.950 . S
C2599 C2595 1.393 . S
C2599 C2598 1.391 . S
H2600 C2608 0.950 . S
H2601 C2613 0.950 . S
H2602 C2610 0.950 . S
H2603 C2612 0.950 . S
H2604 C2614 0.950 . S
H2605 C2616 0.950 . S
H2606 C2618 0.950 . S
H2607 C2619 0.950 . S
C2608 H2600 0.950 . S
C2608 C2609 1.386 . S
C2608 C2610 1.391 . S
C2609 C2608 1.386 . S
C2609 C2613 1.393 . S
C2610 H2602 0.950 . S
C2610 C2608 1.391 . S
C2610 C2611 1.400 . S
C2611 C2610 1.400 . S
C2611 C2612 1.398 . S
C2611 C2617 1.491 . S
C2612 H2603 0.950 . S
C2612 C2611 1.398 . S
C2612 C2613 1.391 . S
C2613 H2601 0.950 . S
C2613 C2609 1.393 . S
C2613 C2612 1.391 . S
C2614 H2604 0.950 . S
C2614 C2615 1.386 . S
C2614 C2616 1.391 . S
C2615 C2614 1.386 . S
C2615 C2619 1.393 . S
C2616 H2605 0.950 . S
C2616 C2614 1.391 . S
C2616 C2617 1.400 . S
C2617 C2611 1.491 . S
C2617 C2616 1.400 . S
C2617 C2618 1.398 . S
C2618 H2606 0.950 . S
C2618 C2617 1.398 . S
C2618 C2619 1.391 . S
C2619 H2607 0.950 . S
C2619 C2615 1.393 . S
C2619 C2618 1.391 . S
H2620 C2628 0.950 . S
H2621 C2633 0.950 . S
H2622 C2630 0.950 . S
H2623 C2632 0.950 . S
H2624 C2634 0.950 . S
H2625 C2636 0.950 . S
H2626 C2638 0.950 . S
H2627 C2639 0.950 . S
C2628 H2620 0.950 . S
C2628 C2629 1.386 . S
C2628 C2630 1.391 . S
C2629 C2628 1.386 . S
C2629 C2633 1.393 . S
C2630 H2622 0.950 . S
C2630 C2628 1.391 . S
C2630 C2631 1.400 . S
C2631 C2630 1.400 . S
C2631 C2632 1.398 . S
C2631 C2637 1.491 . S
C2632 H2623 0.950 . S
C2632 C2631 1.398 . S
C2632 C2633 1.391 . S
C2633 H2621 0.950 . S
C2633 C2629 1.393 . S
C2633 C2632 1.391 . S
C2634 H2624 0.950 . S
C2634 C2635 1.386 . S
C2634 C2636 1.391 . S
C2635 C2634 1.386 . S
C2635 C2639 1.393 . S
C2636 H2625 0.950 . S
C2636 C2634 1.391 . S
C2636 C2637 1.400 . S
C2637 C2631 1.491 . S
C2637 C2636 1.400 . S
C2637 C2638 1.398 . S
C2638 H2626 0.950 . S
C2638 C2637 1.398 . S
C2638 C2639 1.391 . S
C2639 H2627 0.950 . S
C2639 C2635 1.393 . S
C2639 C2638 1.391 . S
H2640 C2648 0.950 . S
H2641 C2653 0.950 . S
H2642 C2650 0.950 . S
H2643 C2652 0.950 . S
H2644 C2654 0.950 . S
H2645 C2656 0.950 . S
H2646 C2658 0.950 . S
H2647 C2659 0.950 1_556 S
C2648 H2640 0.950 . S
C2648 C2649 1.386 . S
C2648 C2650 1.391 . S
C2649 C2648 1.386 . S
C2649 C2653 1.393 . S
C2650 H2642 0.950 . S
C2650 C2648 1.391 . S
C2650 C2651 1.400 . S
C2651 C2650 1.400 . S
C2651 C2652 1.398 . S
C2651 C2657 1.491 . S
C2652 H2643 0.950 . S
C2652 C2651 1.398 . S
C2652 C2653 1.391 . S
C2653 H2641 0.950 . S
C2653 C2649 1.393 . S
C2653 C2652 1.391 . S
C2654 H2644 0.950 . S
C2654 C2655 1.386 . S
C2654 C2656 1.391 . S
C2655 C2654 1.386 . S
C2655 C2659 1.393 . S
C2656 H2645 0.950 . S
C2656 C2654 1.391 . S
C2656 C2657 1.400 . S
C2657 C2651 1.491 . S
C2657 C2656 1.400 . S
C2657 C2658 1.398 . S
C2658 H2646 0.950 . S
C2658 C2657 1.398 . S
C2658 C2659 1.391 . S
C2659 H2647 0.950 1_554 S
C2659 C2655 1.393 . S
C2659 C2658 1.391 . S
H2660 C2668 0.950 . S
H2661 C2673 0.950 . S
H2662 C2670 0.950 . S
H2663 C2672 0.950 . S
H2664 C2674 0.950 . S
H2665 C2676 0.950 . S
H2666 C2678 0.950 . S
H2667 C2679 0.950 . S
C2668 H2660 0.950 . S
C2668 C2669 1.386 . S
C2668 C2670 1.391 . S
C2669 C2668 1.386 . S
C2669 C2673 1.393 . S
C2670 H2662 0.950 . S
C2670 C2668 1.391 . S
C2670 C2671 1.400 . S
C2671 C2670 1.400 . S
C2671 C2672 1.398 . S
C2671 C2677 1.491 . S
C2672 H2663 0.950 . S
C2672 C2671 1.398 . S
C2672 C2673 1.391 . S
C2673 H2661 0.950 . S
C2673 C2669 1.393 . S
C2673 C2672 1.391 . S
C2674 H2664 0.950 . S
C2674 C2675 1.386 . S
C2674 C2676 1.391 . S
C2675 C2674 1.386 . S
C2675 C2679 1.393 . S
C2676 H2665 0.950 . S
C2676 C2674 1.391 . S
C2676 C2677 1.400 . S
C2677 C2671 1.491 . S
C2677 C2676 1.400 . S
C2677 C2678 1.398 . S
C2678 H2666 0.950 . S
C2678 C2677 1.398 . S
C2678 C2679 1.391 . S
C2679 H2667 0.950 . S
C2679 C2675 1.393 . S
C2679 C2678 1.391 . S
H2680 C2688 0.950 . S
H2681 C2693 0.950 . S
H2682 C2690 0.950 . S
H2683 C2692 0.950 . S
H2684 C2694 0.950 . S
H2685 C2696 0.950 . S
H2686 C2698 0.950 . S
H2687 C2699 0.950 . S
C2688 H2680 0.950 . S
C2688 C2689 1.386 . S
C2688 C2690 1.391 . S
C2689 C2688 1.386 . S
C2689 C2693 1.393 . S
C2690 H2682 0.950 . S
C2690 C2688 1.391 . S
C2690 C2691 1.400 . S
C2691 C2690 1.400 . S
C2691 C2692 1.398 . S
C2691 C2697 1.491 . S
C2692 H2683 0.950 . S
C2692 C2691 1.398 . S
C2692 C2693 1.391 . S
C2693 H2681 0.950 . S
C2693 C2689 1.393 . S
C2693 C2692 1.391 . S
C2694 H2684 0.950 . S
C2694 C2695 1.386 . S
C2694 C2696 1.391 . S
C2695 C2694 1.386 . S
C2695 C2699 1.393 . S
C2696 H2685 0.950 . S
C2696 C2694 1.391 . S
C2696 C2697 1.400 . S
C2697 C2691 1.491 . S
C2697 C2696 1.400 . S
C2697 C2698 1.398 . S
C2698 H2686 0.950 . S
C2698 C2697 1.398 . S
C2698 C2699 1.391 . S
C2699 H2687 0.950 . S
C2699 C2695 1.393 . S
C2699 C2698 1.391 . S
H2700 C2708 0.950 . S
H2701 C2713 0.950 . S
H2702 C2710 0.950 . S
H2703 C2712 0.950 . S
H2704 C2714 0.950 . S
H2705 C2716 0.950 . S
H2706 C2718 0.950 . S
H2707 C2719 0.950 . S
C2708 H2700 0.950 . S
C2708 C2709 1.386 . S
C2708 C2710 1.391 . S
C2709 C2708 1.386 . S
C2709 C2713 1.393 . S
C2710 H2702 0.950 . S
C2710 C2708 1.391 . S
C2710 C2711 1.400 . S
C2711 C2710 1.400 . S
C2711 C2712 1.398 . S
C2711 C2717 1.491 . S
C2712 H2703 0.950 . S
C2712 C2711 1.398 . S
C2712 C2713 1.391 . S
C2713 H2701 0.950 . S
C2713 C2709 1.393 . S
C2713 C2712 1.391 . S
C2714 H2704 0.950 . S
C2714 C2715 1.386 . S
C2714 C2716 1.391 . S
C2715 C2714 1.386 . S
C2715 C2719 1.393 . S
C2716 H2705 0.950 . S
C2716 C2714 1.391 . S
C2716 C2717 1.400 . S
C2717 C2711 1.491 . S
C2717 C2716 1.400 . S
C2717 C2718 1.398 . S
C2718 H2706 0.950 . S
C2718 C2717 1.398 . S
C2718 C2719 1.391 . S
C2719 H2707 0.950 . S
C2719 C2715 1.393 . S
C2719 C2718 1.391 . S
H2720 C2728 0.950 . S
H2721 C2733 0.950 . S
H2722 C2730 0.950 . S
H2723 C2732 0.950 . S
H2724 C2734 0.950 . S
H2725 C2736 0.950 . S
H2726 C2738 0.950 . S
H2727 C2739 0.950 . S
C2728 H2720 0.950 . S
C2728 C2729 1.386 . S
C2728 C2730 1.391 . S
C2729 C2728 1.386 . S
C2729 C2733 1.393 . S
C2730 H2722 0.950 . S
C2730 C2728 1.391 . S
C2730 C2731 1.400 . S
C2731 C2730 1.400 . S
C2731 C2732 1.398 . S
C2731 C2737 1.491 . S
C2732 H2723 0.950 . S
C2732 C2731 1.398 . S
C2732 C2733 1.391 . S
C2733 H2721 0.950 . S
C2733 C2729 1.393 . S
C2733 C2732 1.391 . S
C2734 H2724 0.950 . S
C2734 C2735 1.386 . S
C2734 C2736 1.391 . S
C2735 C2734 1.386 . S
C2735 C2739 1.393 . S
C2736 H2725 0.950 . S
C2736 C2734 1.391 . S
C2736 C2737 1.400 . S
C2737 C2731 1.491 . S
C2737 C2736 1.400 . S
C2737 C2738 1.398 . S
C2738 H2726 0.950 . S
C2738 C2737 1.398 . S
C2738 C2739 1.391 . S
C2739 H2727 0.950 . S
C2739 C2735 1.393 . S
C2739 C2738 1.391 . S
H2740 C2748 0.950 . S
H2741 C2753 0.950 . S
H2742 C2750 0.950 . S
H2743 C2752 0.950 . S
H2744 C2754 0.950 . S
H2745 C2756 0.950 . S
H2746 C2758 0.950 . S
H2747 C2759 0.950 . S
C2748 H2740 0.950 . S
C2748 C2749 1.386 . S
C2748 C2750 1.391 . S
C2749 C2748 1.386 . S
C2749 C2753 1.393 . S
C2750 H2742 0.950 . S
C2750 C2748 1.391 . S
C2750 C2751 1.400 . S
C2751 C2750 1.400 . S
C2751 C2752 1.398 . S
C2751 C2757 1.491 . S
C2752 H2743 0.950 . S
C2752 C2751 1.398 . S
C2752 C2753 1.391 . S
C2753 H2741 0.950 . S
C2753 C2749 1.393 . S
C2753 C2752 1.391 . S
C2754 H2744 0.950 . S
C2754 C2755 1.386 . S
C2754 C2756 1.391 . S
C2755 C2754 1.386 . S
C2755 C2759 1.393 . S
C2756 H2745 0.950 . S
C2756 C2754 1.391 . S
C2756 C2757 1.400 . S
C2757 C2751 1.491 . S
C2757 C2756 1.400 . S
C2757 C2758 1.398 . S
C2758 H2746 0.950 . S
C2758 C2757 1.398 . S
C2758 C2759 1.391 . S
C2759 H2747 0.950 . S
C2759 C2755 1.393 . S
C2759 C2758 1.391 . S
H2760 C2768 0.950 . S
H2761 C2773 0.950 . S
H2762 C2770 0.950 . S
H2763 C2772 0.950 . S
H2764 C2774 0.950 . S
H2765 C2776 0.950 . S
H2766 C2778 0.950 . S
H2767 C2779 0.950 . S
C2768 H2760 0.950 . S
C2768 C2769 1.386 . S
C2768 C2770 1.391 . S
C2769 C2768 1.386 . S
C2769 C2773 1.393 . S
C2770 H2762 0.950 . S
C2770 C2768 1.391 . S
C2770 C2771 1.400 . S
C2771 C2770 1.400 . S
C2771 C2772 1.398 . S
C2771 C2777 1.491 1_455 S
C2772 H2763 0.950 . S
C2772 C2771 1.398 . S
C2772 C2773 1.391 . S
C2773 H2761 0.950 . S
C2773 C2769 1.393 . S
C2773 C2772 1.391 . S
C2774 H2764 0.950 . S
C2774 C2775 1.386 . S
C2774 C2776 1.391 . S
C2775 C2774 1.386 . S
C2775 C2779 1.393 . S
C2776 H2765 0.950 . S
C2776 C2774 1.391 . S
C2776 C2777 1.400 . S
C2777 C2771 1.491 1_655 S
C2777 C2776 1.400 . S
C2777 C2778 1.398 . S
C2778 H2766 0.950 . S
C2778 C2777 1.398 . S
C2778 C2779 1.391 . S
C2779 H2767 0.950 . S
C2779 C2775 1.393 . S
C2779 C2778 1.391 . S
H2780 C2788 0.950 . S
H2781 C2793 0.950 . S
H2782 C2790 0.950 . S
H2783 C2792 0.950 . S
H2784 C2794 0.950 . S
H2785 C2796 0.950 . S
H2786 C2798 0.950 . S
H2787 C2799 0.950 . S
C2788 H2780 0.950 . S
C2788 C2789 1.386 . S
C2788 C2790 1.391 . S
C2789 C2788 1.386 . S
C2789 C2793 1.393 . S
C2790 H2782 0.950 . S
C2790 C2788 1.391 . S
C2790 C2791 1.400 . S
C2791 C2790 1.400 . S
C2791 C2792 1.398 . S
C2791 C2797 1.491 . S
C2792 H2783 0.950 . S
C2792 C2791 1.398 . S
C2792 C2793 1.391 . S
C2793 H2781 0.950 . S
C2793 C2789 1.393 . S
C2793 C2792 1.391 . S
C2794 H2784 0.950 . S
C2794 C2795 1.386 . S
C2794 C2796 1.391 . S
C2795 C2794 1.386 . S
C2795 C2799 1.393 . S
C2796 H2785 0.950 . S
C2796 C2794 1.391 . S
C2796 C2797 1.400 . S
C2797 C2791 1.491 . S
C2797 C2796 1.400 . S
C2797 C2798 1.398 . S
C2798 H2786 0.950 . S
C2798 C2797 1.398 . S
C2798 C2799 1.391 . S
C2799 H2787 0.950 . S
C2799 C2795 1.393 . S
C2799 C2798 1.391 . S
H2800 C2808 0.950 . S
H2801 C2813 0.950 . S
H2802 C2810 0.950 . S
H2803 C2812 0.950 . S
H2804 C2814 0.950 . S
H2805 C2816 0.950 . S
H2806 C2818 0.950 . S
H2807 C2819 0.950 . S
C2808 H2800 0.950 . S
C2808 C2809 1.386 . S
C2808 C2810 1.391 . S
C2809 C2808 1.386 . S
C2809 C2813 1.393 . S
C2810 H2802 0.950 . S
C2810 C2808 1.391 . S
C2810 C2811 1.400 . S
C2811 C2810 1.400 . S
C2811 C2812 1.398 . S
C2811 C2817 1.491 1_545 S
C2812 H2803 0.950 . S
C2812 C2811 1.398 . S
C2812 C2813 1.391 . S
C2813 H2801 0.950 . S
C2813 C2809 1.393 . S
C2813 C2812 1.391 . S
C2814 H2804 0.950 . S
C2814 C2815 1.386 . S
C2814 C2816 1.391 . S
C2815 C2814 1.386 . S
C2815 C2819 1.393 . S
C2816 H2805 0.950 . S
C2816 C2814 1.391 . S
C2816 C2817 1.400 . S
C2817 C2811 1.491 1_565 S
C2817 C2816 1.400 . S
C2817 C2818 1.398 . S
C2818 H2806 0.950 . S
C2818 C2817 1.398 . S
C2818 C2819 1.391 . S
C2819 H2807 0.950 . S
C2819 C2815 1.393 . S
C2819 C2818 1.391 . S
H2820 C2828 0.950 . S
H2821 C2833 0.950 . S
H2822 C2830 0.950 . S
H2823 C2832 0.950 . S
H2824 C2834 0.950 . S
H2825 C2836 0.950 . S
H2826 C2838 0.950 . S
H2827 C2839 0.950 . S
C2828 H2820 0.950 . S
C2828 C2829 1.386 . S
C2828 C2830 1.391 . S
C2829 C2828 1.386 . S
C2829 C2833 1.393 . S
C2830 H2822 0.950 . S
C2830 C2828 1.391 . S
C2830 C2831 1.400 . S
C2831 C2830 1.400 . S
C2831 C2832 1.398 . S
C2831 C2837 1.491 1_565 S
C2832 H2823 0.950 . S
C2832 C2831 1.398 . S
C2832 C2833 1.391 . S
C2833 H2821 0.950 . S
C2833 C2829 1.393 . S
C2833 C2832 1.391 . S
C2834 H2824 0.950 . S
C2834 C2835 1.386 . S
C2834 C2836 1.391 . S
C2835 C2834 1.386 . S
C2835 C2839 1.393 . S
C2836 H2825 0.950 . S
C2836 C2834 1.391 . S
C2836 C2837 1.400 . S
C2837 C2831 1.491 1_545 S
C2837 C2836 1.400 . S
C2837 C2838 1.398 . S
C2838 H2826 0.950 . S
C2838 C2837 1.398 . S
C2838 C2839 1.391 . S
C2839 H2827 0.950 . S
C2839 C2835 1.393 . S
C2839 C2838 1.391 . S
H2840 C2848 0.950 . S
H2841 C2853 0.950 . S
H2842 C2850 0.950 . S
H2843 C2852 0.950 . S
H2844 C2854 0.950 . S
H2845 C2856 0.950 . S
H2846 C2858 0.950 . S
H2847 C2859 0.950 . S
C2848 H2840 0.950 . S
C2848 C2849 1.386 . S
C2848 C2850 1.391 . S
C2849 C2848 1.386 . S
C2849 C2853 1.393 . S
C2850 H2842 0.950 . S
C2850 C2848 1.391 . S
C2850 C2851 1.400 . S
C2851 C2850 1.400 . S
C2851 C2852 1.398 . S
C2851 C2857 1.491 1_455 S
C2852 H2843 0.950 . S
C2852 C2851 1.398 . S
C2852 C2853 1.391 . S
C2853 H2841 0.950 . S
C2853 C2849 1.393 . S
C2853 C2852 1.391 . S
C2854 H2844 0.950 . S
C2854 C2855 1.386 . S
C2854 C2856 1.391 . S
C2855 C2854 1.386 . S
C2855 C2859 1.393 . S
C2856 H2845 0.950 . S
C2856 C2854 1.391 . S
C2856 C2857 1.400 . S
C2857 C2851 1.491 1_655 S
C2857 C2856 1.400 . S
C2857 C2858 1.398 . S
C2858 H2846 0.950 . S
C2858 C2857 1.398 . S
C2858 C2859 1.391 . S
C2859 H2847 0.950 . S
C2859 C2855 1.393 . S
C2859 C2858 1.391 . S
H2860 C2868 0.950 . S
H2861 C2873 0.950 . S
H2862 C2870 0.950 . S
H2863 C2872 0.950 . S
H2864 C2874 0.950 . S
H2865 C2876 0.950 . S
H2866 C2878 0.950 . S
H2867 C2879 0.950 . S
C2868 H2860 0.950 . S
C2868 C2869 1.386 . S
C2868 C2870 1.391 . S
C2869 C2868 1.386 . S
C2869 C2873 1.393 . S
C2870 H2862 0.950 . S
C2870 C2868 1.391 . S
C2870 C2871 1.400 . S
C2871 C2870 1.400 . S
C2871 C2872 1.398 . S
C2871 C2877 1.491 . S
C2872 H2863 0.950 . S
C2872 C2871 1.398 . S
C2872 C2873 1.391 . S
C2873 H2861 0.950 . S
C2873 C2869 1.393 . S
C2873 C2872 1.391 . S
C2874 H2864 0.950 . S
C2874 C2875 1.386 . S
C2874 C2876 1.391 . S
C2875 C2874 1.386 . S
C2875 C2879 1.393 . S
C2876 H2865 0.950 . S
C2876 C2874 1.391 . S
C2876 C2877 1.400 . S
C2877 C2871 1.491 . S
C2877 C2876 1.400 . S
C2877 C2878 1.398 . S
C2878 H2866 0.950 . S
C2878 C2877 1.398 . S
C2878 C2879 1.391 . S
C2879 H2867 0.950 . S
C2879 C2875 1.393 . S
C2879 C2878 1.391 . S
H2880 C2888 0.950 . S
H2881 C2893 0.950 . S
H2882 C2890 0.950 . S
H2883 C2892 0.950 . S
H2884 C2894 0.950 . S
H2885 C2896 0.950 . S
H2886 C2898 0.950 . S
H2887 C2899 0.950 . S
C2888 H2880 0.950 . S
C2888 C2889 1.386 . S
C2888 C2890 1.391 . S
C2889 C2888 1.386 . S
C2889 C2893 1.393 . S
C2890 H2882 0.950 . S
C2890 C2888 1.391 . S
C2890 C2891 1.400 . S
C2891 C2890 1.400 . S
C2891 C2892 1.398 . S
C2891 C2897 1.491 . S
C2892 H2883 0.950 . S
C2892 C2891 1.398 . S
C2892 C2893 1.391 . S
C2893 H2881 0.950 . S
C2893 C2889 1.393 . S
C2893 C2892 1.391 . S
C2894 H2884 0.950 . S
C2894 C2895 1.386 . S
C2894 C2896 1.391 . S
C2895 C2894 1.386 . S
C2895 C2899 1.393 . S
C2896 H2885 0.950 . S
C2896 C2894 1.391 . S
C2896 C2897 1.400 . S
C2897 C2891 1.491 . S
C2897 C2896 1.400 . S
C2897 C2898 1.398 . S
C2898 H2886 0.950 . S
C2898 C2897 1.398 . S
C2898 C2899 1.391 . S
C2899 H2887 0.950 . S
C2899 C2895 1.393 . S
C2899 C2898 1.391 . S
H2900 C2908 0.950 . S
H2901 C2913 0.950 . S
H2902 C2910 0.950 . S
H2903 C2912 0.950 1_565 S
H2904 C2914 0.950 . S
H2905 C2916 0.950 . S
H2906 C2918 0.950 1_545 S
H2907 C2919 0.950 . S
C2908 H2900 0.950 . S
C2908 C2909 1.386 . S
C2908 C2910 1.391 . S
C2909 C2908 1.386 . S
C2909 C2913 1.393 . S
C2910 H2902 0.950 . S
C2910 C2908 1.391 . S
C2910 C2911 1.400 . S
C2911 C2910 1.400 . S
C2911 C2912 1.398 . S
C2911 C2917 1.491 1_545 S
C2912 H2903 0.950 1_545 S
C2912 C2911 1.398 . S
C2912 C2913 1.391 . S
C2913 H2901 0.950 . S
C2913 C2909 1.393 . S
C2913 C2912 1.391 . S
C2914 H2904 0.950 . S
C2914 C2915 1.386 . S
C2914 C2916 1.391 . S
C2915 C2914 1.386 . S
C2915 C2919 1.393 . S
C2916 H2905 0.950 . S
C2916 C2914 1.391 . S
C2916 C2917 1.400 . S
C2917 C2911 1.491 1_565 S
C2917 C2916 1.400 . S
C2917 C2918 1.398 . S
C2918 H2906 0.950 1_565 S
C2918 C2917 1.398 . S
C2918 C2919 1.391 . S
C2919 H2907 0.950 . S
C2919 C2915 1.393 . S
C2919 C2918 1.391 . S
H2920 C2928 0.950 . S
H2921 C2933 0.950 . S
H2922 C2930 0.950 . S
H2923 C2932 0.950 . S
H2924 C2934 0.950 . S
H2925 C2936 0.950 . S
H2926 C2938 0.950 . S
H2927 C2939 0.950 . S
C2928 H2920 0.950 . S
C2928 C2929 1.386 . S
C2928 C2930 1.391 . S
C2929 C2928 1.386 . S
C2929 C2933 1.393 . S
C2930 H2922 0.950 . S
C2930 C2928 1.391 . S
C2930 C2931 1.400 . S
C2931 C2930 1.400 . S
C2931 C2932 1.398 . S
C2931 C2937 1.491 1_655 S
C2932 H2923 0.950 . S
C2932 C2931 1.398 . S
C2932 C2933 1.391 . S
C2933 H2921 0.950 . S
C2933 C2929 1.393 . S
C2933 C2932 1.391 . S
C2934 H2924 0.950 . S
C2934 C2935 1.386 . S
C2934 C2936 1.391 . S
C2935 C2934 1.386 . S
C2935 C2939 1.393 . S
C2936 H2925 0.950 . S
C2936 C2934 1.391 . S
C2936 C2937 1.400 . S
C2937 C2931 1.491 1_455 S
C2937 C2936 1.400 . S
C2937 C2938 1.398 . S
C2938 H2926 0.950 . S
C2938 C2937 1.398 . S
C2938 C2939 1.391 . S
C2939 H2927 0.950 . S
C2939 C2935 1.393 . S
C2939 C2938 1.391 . S
H2940 C2948 0.950 . S
H2941 C2953 0.950 . S
H2942 C2950 0.950 . S
H2943 C2952 0.950 . S
H2944 C2954 0.950 . S
H2945 C2956 0.950 . S
H2946 C2958 0.950 . S
H2947 C2959 0.950 . S
C2948 H2940 0.950 . S
C2948 C2949 1.386 . S
C2948 C2950 1.391 . S
C2949 C2948 1.386 . S
C2949 C2953 1.393 . S
C2950 H2942 0.950 . S
C2950 C2948 1.391 . S
C2950 C2951 1.400 . S
C2951 C2950 1.400 . S
C2951 C2952 1.398 . S
C2951 C2957 1.491 . S
C2952 H2943 0.950 . S
C2952 C2951 1.398 . S
C2952 C2953 1.391 . S
C2953 H2941 0.950 . S
C2953 C2949 1.393 . S
C2953 C2952 1.391 . S
C2954 H2944 0.950 . S
C2954 C2955 1.386 . S
C2954 C2956 1.391 . S
C2955 C2954 1.386 . S
C2955 C2959 1.393 . S
C2956 H2945 0.950 . S
C2956 C2954 1.391 . S
C2956 C2957 1.400 . S
C2957 C2951 1.491 . S
C2957 C2956 1.400 . S
C2957 C2958 1.398 . S
C2958 H2946 0.950 . S
C2958 C2957 1.398 . S
C2958 C2959 1.391 . S
C2959 H2947 0.950 . S
C2959 C2955 1.393 . S
C2959 C2958 1.391 . S
H2960 C2968 0.950 . S
H2961 C2973 0.950 . S
H2962 C2970 0.950 . S
H2963 C2972 0.950 . S
H2964 C2974 0.950 . S
H2965 C2976 0.950 . S
H2966 C2978 0.950 . S
H2967 C2979 0.950 . S
C2968 H2960 0.950 . S
C2968 C2969 1.386 . S
C2968 C2970 1.391 . S
C2969 C2968 1.386 . S
C2969 C2973 1.393 . S
C2970 H2962 0.950 . S
C2970 C2968 1.391 . S
C2970 C2971 1.400 . S
C2971 C2970 1.400 . S
C2971 C2972 1.398 . S
C2971 C2977 1.491 1_565 S
C2972 H2963 0.950 . S
C2972 C2971 1.398 . S
C2972 C2973 1.391 . S
C2973 H2961 0.950 . S
C2973 C2969 1.393 . S
C2973 C2972 1.391 . S
C2974 H2964 0.950 . S
C2974 C2975 1.386 . S
C2974 C2976 1.391 . S
C2975 C2974 1.386 . S
C2975 C2979 1.393 . S
C2976 H2965 0.950 . S
C2976 C2974 1.391 . S
C2976 C2977 1.400 . S
C2977 C2971 1.491 1_545 S
C2977 C2976 1.400 . S
C2977 C2978 1.398 . S
C2978 H2966 0.950 . S
C2978 C2977 1.398 . S
C2978 C2979 1.391 . S
C2979 H2967 0.950 . S
C2979 C2975 1.393 . S
C2979 C2978 1.391 . S
H2980 C2988 0.950 . S
H2981 C2993 0.950 . S
H2982 C2990 0.950 . S
H2983 C2992 0.950 . S
H2984 C2994 0.950 . S
H2985 C2996 0.950 . S
H2986 C2998 0.950 . S
H2987 C2999 0.950 . S
C2988 H2980 0.950 . S
C2988 C2989 1.386 . S
C2988 C2990 1.391 . S
C2989 C2988 1.386 . S
C2989 C2993 1.393 . S
C2990 H2982 0.950 . S
C2990 C2988 1.391 . S
C2990 C2991 1.400 . S
C2991 C2990 1.400 . S
C2991 C2992 1.398 . S
C2991 C2997 1.491 1_655 S
C2992 H2983 0.950 . S
C2992 C2991 1.398 . S
C2992 C2993 1.391 . S
C2993 H2981 0.950 . S
C2993 C2989 1.393 . S
C2993 C2992 1.391 . S
C2994 H2984 0.950 . S
C2994 C2995 1.386 . S
C2994 C2996 1.391 . S
C2995 C2994 1.386 . S
C2995 C2999 1.393 . S
C2996 H2985 0.950 . S
C2996 C2994 1.391 . S
C2996 C2997 1.400 . S
C2997 C2991 1.491 1_455 S
C2997 C2996 1.400 . S
C2997 C2998 1.398 . S
C2998 H2986 0.950 . S
C2998 C2997 1.398 . S
C2998 C2999 1.391 . S
C2999 H2987 0.950 . S
C2999 C2995 1.393 . S
C2999 C2998 1.391 . S
H3000 C3008 0.950 . S
H3001 C3013 0.950 . S
H3002 C3010 0.950 . S
H3003 C3012 0.950 . S
H3004 C3014 0.950 . S
H3005 C3016 0.950 . S
H3006 C3018 0.950 . S
H3007 C3019 0.950 . S
C3008 H3000 0.950 . S
C3008 C3009 1.386 . S
C3008 C3010 1.391 . S
C3009 C3008 1.386 . S
C3009 C3013 1.393 . S
C3010 H3002 0.950 . S
C3010 C3008 1.391 . S
C3010 C3011 1.400 . S
C3011 C3010 1.400 . S
C3011 C3012 1.398 . S
C3011 C3017 1.491 . S
C3012 H3003 0.950 . S
C3012 C3011 1.398 . S
C3012 C3013 1.391 . S
C3013 H3001 0.950 . S
C3013 C3009 1.393 . S
C3013 C3012 1.391 . S
C3014 H3004 0.950 . S
C3014 C3015 1.386 . S
C3014 C3016 1.391 . S
C3015 C3014 1.386 . S
C3015 C3019 1.393 . S
C3016 H3005 0.950 . S
C3016 C3014 1.391 . S
C3016 C3017 1.400 . S
C3017 C3011 1.491 . S
C3017 C3016 1.400 . S
C3017 C3018 1.398 . S
C3018 H3006 0.950 . S
C3018 C3017 1.398 . S
C3018 C3019 1.391 . S
C3019 H3007 0.950 . S
C3019 C3015 1.393 . S
C3019 C3018 1.391 . S
H3020 C3028 0.950 . S
H3021 C3033 0.950 . S
H3022 C3030 0.950 . S
H3023 C3032 0.950 . S
H3024 C3034 0.950 . S
H3025 C3036 0.950 . S
H3026 C3038 0.950 . S
H3027 C3039 0.950 . S
C3028 H3020 0.950 . S
C3028 C3029 1.386 . S
C3028 C3030 1.391 . S
C3029 C3028 1.386 . S
C3029 C3033 1.393 . S
C3030 H3022 0.950 . S
C3030 C3028 1.391 . S
C3030 C3031 1.400 . S
C3031 C3030 1.400 . S
C3031 C3032 1.398 . S
C3031 C3037 1.491 . S
C3032 H3023 0.950 . S
C3032 C3031 1.398 . S
C3032 C3033 1.391 . S
C3033 H3021 0.950 . S
C3033 C3029 1.393 . S
C3033 C3032 1.391 . S
C3034 H3024 0.950 . S
C3034 C3035 1.386 . S
C3034 C3036 1.391 . S
C3035 C3034 1.386 . S
C3035 C3039 1.393 . S
C3036 H3025 0.950 . S
C3036 C3034 1.391 . S
C3036 C3037 1.400 . S
C3037 C3031 1.491 . S
C3037 C3036 1.400 . S
C3037 C3038 1.398 . S
C3038 H3026 0.950 . S
C3038 C3037 1.398 . S
C3038 C3039 1.391 . S
C3039 H3027 0.950 . S
C3039 C3035 1.393 . S
C3039 C3038 1.391 . S
H3040 C3048 0.950 . S
H3041 C3053 0.950 . S
H3042 C3050 0.950 . S
H3043 C3052 0.950 . S
H3044 C3054 0.950 . S
H3045 C3056 0.950 . S
H3046 C3058 0.950 . S
H3047 C3059 0.950 . S
C3048 H3040 0.950 . S
C3048 C3049 1.386 . S
C3048 C3050 1.391 . S
C3049 C3048 1.386 . S
C3049 C3053 1.393 . S
C3050 H3042 0.950 . S
C3050 C3048 1.391 . S
C3050 C3051 1.400 . S
C3051 C3050 1.400 . S
C3051 C3052 1.398 . S
C3051 C3057 1.491 . S
C3052 H3043 0.950 . S
C3052 C3051 1.398 . S
C3052 C3053 1.391 . S
C3053 H3041 0.950 . S
C3053 C3049 1.393 . S
C3053 C3052 1.391 . S
C3054 H3044 0.950 . S
C3054 C3055 1.386 . S
C3054 C3056 1.391 . S
C3055 C3054 1.386 . S
C3055 C3059 1.393 . S
C3056 H3045 0.950 . S
C3056 C3054 1.391 . S
C3056 C3057 1.400 . S
C3057 C3051 1.491 . S
C3057 C3056 1.400 . S
C3057 C3058 1.398 . S
C3058 H3046 0.950 . S
C3058 C3057 1.398 . S
C3058 C3059 1.391 . S
C3059 H3047 0.950 . S
C3059 C3055 1.393 . S
C3059 C3058 1.391 . S
H3060 C3068 0.950 . S
H3061 C3073 0.950 . S
H3062 C3070 0.950 . S
H3063 C3072 0.950 . S
H3064 C3074 0.950 . S
H3065 C3076 0.950 . S
H3066 C3078 0.950 . S
H3067 C3079 0.950 1_556 S
C3068 H3060 0.950 . S
C3068 C3069 1.386 . S
C3068 C3070 1.391 . S
C3069 C3068 1.386 . S
C3069 C3073 1.393 . S
C3070 H3062 0.950 . S
C3070 C3068 1.391 . S
C3070 C3071 1.400 . S
C3071 C3070 1.400 . S
C3071 C3072 1.398 . S
C3071 C3077 1.491 . S
C3072 H3063 0.950 . S
C3072 C3071 1.398 . S
C3072 C3073 1.391 . S
C3073 H3061 0.950 . S
C3073 C3069 1.393 . S
C3073 C3072 1.391 . S
C3074 H3064 0.950 . S
C3074 C3075 1.386 . S
C3074 C3076 1.391 . S
C3075 C3074 1.386 . S
C3075 C3079 1.393 . S
C3076 H3065 0.950 . S
C3076 C3074 1.391 . S
C3076 C3077 1.400 . S
C3077 C3071 1.491 . S
C3077 C3076 1.400 . S
C3077 C3078 1.398 . S
C3078 H3066 0.950 . S
C3078 C3077 1.398 . S
C3078 C3079 1.391 . S
C3079 H3067 0.950 1_554 S
C3079 C3075 1.393 . S
C3079 C3078 1.391 . S
H3080 C3088 0.950 . S
H3081 C3093 0.950 . S
H3082 C3090 0.950 . S
H3083 C3092 0.950 . S
H3084 C3094 0.950 1_556 S
H3085 C3096 0.950 . S
H3086 C3098 0.950 . S
H3087 C3099 0.950 . S
C3088 H3080 0.950 . S
C3088 C3089 1.386 . S
C3088 C3090 1.391 . S
C3089 C3088 1.386 . S
C3089 C3093 1.393 . S
C3090 H3082 0.950 . S
C3090 C3088 1.391 . S
C3090 C3091 1.400 . S
C3091 C3090 1.400 . S
C3091 C3092 1.398 . S
C3091 C3097 1.491 . S
C3092 H3083 0.950 . S
C3092 C3091 1.398 . S
C3092 C3093 1.391 . S
C3093 H3081 0.950 . S
C3093 C3089 1.393 . S
C3093 C3092 1.391 . S
C3094 H3084 0.950 1_554 S
C3094 C3095 1.386 . S
C3094 C3096 1.391 . S
C3095 C3094 1.386 . S
C3095 C3099 1.393 . S
C3096 H3085 0.950 . S
C3096 C3094 1.391 . S
C3096 C3097 1.400 . S
C3097 C3091 1.491 . S
C3097 C3096 1.400 . S
C3097 C3098 1.398 . S
C3098 H3086 0.950 . S
C3098 C3097 1.398 . S
C3098 C3099 1.391 . S
C3099 H3087 0.950 . S
C3099 C3095 1.393 . S
C3099 C3098 1.391 . S
H3100 C3108 0.950 . S
H3101 C3113 0.950 . S
H3102 C3110 0.950 . S
H3103 C3112 0.950 . S
H3104 C3114 0.950 . S
H3105 C3116 0.950 . S
H3106 C3118 0.950 . S
H3107 C3119 0.950 . S
C3108 H3100 0.950 . S
C3108 C3109 1.386 . S
C3108 C3110 1.391 . S
C3109 C3108 1.386 . S
C3109 C3113 1.393 . S
C3110 H3102 0.950 . S
C3110 C3108 1.391 . S
C3110 C3111 1.400 . S
C3111 C3110 1.400 . S
C3111 C3112 1.398 . S
C3111 C3117 1.491 . S
C3112 H3103 0.950 . S
C3112 C3111 1.398 . S
C3112 C3113 1.391 . S
C3113 H3101 0.950 . S
C3113 C3109 1.393 . S
C3113 C3112 1.391 . S
C3114 H3104 0.950 . S
C3114 C3115 1.386 . S
C3114 C3116 1.391 . S
C3115 C3114 1.386 . S
C3115 C3119 1.393 . S
C3116 H3105 0.950 . S
C3116 C3114 1.391 . S
C3116 C3117 1.400 . S
C3117 C3111 1.491 . S
C3117 C3116 1.400 . S
C3117 C3118 1.398 . S
C3118 H3106 0.950 . S
C3118 C3117 1.398 . S
C3118 C3119 1.391 . S
C3119 H3107 0.950 . S
C3119 C3115 1.393 . S
C3119 C3118 1.391 . S
H3120 C3128 0.950 . S
H3121 C3133 0.950 . S
H3122 C3130 0.950 . S
H3123 C3132 0.950 . S
H3124 C3134 0.950 . S
H3125 C3136 0.950 . S
H3126 C3138 0.950 . S
H3127 C3139 0.950 . S
C3128 H3120 0.950 . S
C3128 C3129 1.386 . S
C3128 C3130 1.391 . S
C3129 C3128 1.386 . S
C3129 C3133 1.393 . S
C3130 H3122 0.950 . S
C3130 C3128 1.391 . S
C3130 C3131 1.400 . S
C3131 C3130 1.400 . S
C3131 C3132 1.398 . S
C3131 C3137 1.491 . S
C3132 H3123 0.950 . S
C3132 C3131 1.398 . S
C3132 C3133 1.391 . S
C3133 H3121 0.950 . S
C3133 C3129 1.393 . S
C3133 C3132 1.391 . S
C3134 H3124 0.950 . S
C3134 C3135 1.386 . S
C3134 C3136 1.391 . S
C3135 C3134 1.386 . S
C3135 C3139 1.393 . S
C3136 H3125 0.950 . S
C3136 C3134 1.391 . S
C3136 C3137 1.400 . S
C3137 C3131 1.491 . S
C3137 C3136 1.400 . S
C3137 C3138 1.398 . S
C3138 H3126 0.950 . S
C3138 C3137 1.398 . S
C3138 C3139 1.391 . S
C3139 H3127 0.950 . S
C3139 C3135 1.393 . S
C3139 C3138 1.391 . S
H3140 C3148 0.950 . S
H3141 C3153 0.950 . S
H3142 C3150 0.950 . S
H3143 C3152 0.950 . S
H3144 C3154 0.950 . S
H3145 C3156 0.950 . S
H3146 C3158 0.950 . S
H3147 C3159 0.950 . S
C3148 H3140 0.950 . S
C3148 C3149 1.386 . S
C3148 C3150 1.391 . S
C3149 C3148 1.386 . S
C3149 C3153 1.393 . S
C3150 H3142 0.950 . S
C3150 C3148 1.391 . S
C3150 C3151 1.400 . S
C3151 C3150 1.400 . S
C3151 C3152 1.398 . S
C3151 C3157 1.491 . S
C3152 H3143 0.950 . S
C3152 C3151 1.398 . S
C3152 C3153 1.391 . S
C3153 H3141 0.950 . S
C3153 C3149 1.393 . S
C3153 C3152 1.391 . S
C3154 H3144 0.950 . S
C3154 C3155 1.386 . S
C3154 C3156 1.391 . S
C3155 C3154 1.386 . S
C3155 C3159 1.393 . S
C3156 H3145 0.950 . S
C3156 C3154 1.391 . S
C3156 C3157 1.400 . S
C3157 C3151 1.491 . S
C3157 C3156 1.400 . S
C3157 C3158 1.398 . S
C3158 H3146 0.950 . S
C3158 C3157 1.398 . S
C3158 C3159 1.391 . S
C3159 H3147 0.950 . S
C3159 C3155 1.393 . S
C3159 C3158 1.391 . S
H3160 C3168 0.950 . S
H3161 C3173 0.950 1_554 S
H3162 C3170 0.950 . S
H3163 C3172 0.950 . S
H3164 C3174 0.950 . S
H3165 C3176 0.950 . S
H3166 C3178 0.950 . S
H3167 C3179 0.950 . S
C3168 H3160 0.950 . S
C3168 C3169 1.386 . S
C3168 C3170 1.391 . S
C3169 C3168 1.386 . S
C3169 C3173 1.393 . S
C3170 H3162 0.950 . S
C3170 C3168 1.391 . S
C3170 C3171 1.400 . S
C3171 C3170 1.400 . S
C3171 C3172 1.398 . S
C3171 C3177 1.491 . S
C3172 H3163 0.950 . S
C3172 C3171 1.398 . S
C3172 C3173 1.391 . S
C3173 H3161 0.950 1_556 S
C3173 C3169 1.393 . S
C3173 C3172 1.391 . S
C3174 H3164 0.950 . S
C3174 C3175 1.386 . S
C3174 C3176 1.391 . S
C3175 C3174 1.386 . S
C3175 C3179 1.393 . S
C3176 H3165 0.950 . S
C3176 C3174 1.391 . S
C3176 C3177 1.400 . S
C3177 C3171 1.491 . S
C3177 C3176 1.400 . S
C3177 C3178 1.398 . S
C3178 H3166 0.950 . S
C3178 C3177 1.398 . S
C3178 C3179 1.391 . S
C3179 H3167 0.950 . S
C3179 C3175 1.393 . S
C3179 C3178 1.391 . S
H3180 C3188 0.950 . S
H3181 C3193 0.950 . S
H3182 C3190 0.950 . S
H3183 C3192 0.950 . S
H3184 C3194 0.950 . S
H3185 C3196 0.950 . S
H3186 C3198 0.950 . S
H3187 C3199 0.950 . S
C3188 H3180 0.950 . S
C3188 C3189 1.386 . S
C3188 C3190 1.391 . S
C3189 C3188 1.386 . S
C3189 C3193 1.393 . S
C3190 H3182 0.950 . S
C3190 C3188 1.391 . S
C3190 C3191 1.400 . S
C3191 C3190 1.400 . S
C3191 C3192 1.398 . S
C3191 C3197 1.491 . S
C3192 H3183 0.950 . S
C3192 C3191 1.398 . S
C3192 C3193 1.391 . S
C3193 H3181 0.950 . S
C3193 C3189 1.393 . S
C3193 C3192 1.391 . S
C3194 H3184 0.950 . S
C3194 C3195 1.386 . S
C3194 C3196 1.391 . S
C3195 C3194 1.386 . S
C3195 C3199 1.393 . S
C3196 H3185 0.950 . S
C3196 C3194 1.391 . S
C3196 C3197 1.400 . S
C3197 C3191 1.491 . S
C3197 C3196 1.400 . S
C3197 C3198 1.398 . S
C3198 H3186 0.950 . S
C3198 C3197 1.398 . S
C3198 C3199 1.391 . S
C3199 H3187 0.950 . S
C3199 C3195 1.393 . S
C3199 C3198 1.391 . S
H3200 C3208 0.950 . S
H3201 C3213 0.950 . S
H3202 C3210 0.950 . S
H3203 C3212 0.950 . S
H3204 C3214 0.950 . S
H3205 C3216 0.950 . S
H3206 C3218 0.950 . S
H3207 C3219 0.950 . S
C3208 H3200 0.950 . S
C3208 C3209 1.386 . S
C3208 C3210 1.391 . S
C3209 C3208 1.386 . S
C3209 C3213 1.393 . S
C3210 H3202 0.950 . S
C3210 C3208 1.391 . S
C3210 C3211 1.400 . S
C3211 C3210 1.400 . S
C3211 C3212 1.398 . S
C3211 C3217 1.491 . S
C3212 H3203 0.950 . S
C3212 C3211 1.398 . S
C3212 C3213 1.391 . S
C3213 H3201 0.950 . S
C3213 C3209 1.393 . S
C3213 C3212 1.391 . S
C3214 H3204 0.950 . S
C3214 C3215 1.386 . S
C3214 C3216 1.391 . S
C3215 C3214 1.386 . S
C3215 C3219 1.393 . S
C3216 H3205 0.950 . S
C3216 C3214 1.391 . S
C3216 C3217 1.400 . S
C3217 C3211 1.491 . S
C3217 C3216 1.400 . S
C3217 C3218 1.398 . S
C3218 H3206 0.950 . S
C3218 C3217 1.398 . S
C3218 C3219 1.391 . S
C3219 H3207 0.950 . S
C3219 C3215 1.393 . S
C3219 C3218 1.391 . S
H3220 C3228 0.950 . S
H3221 C3233 0.950 . S
H3222 C3230 0.950 . S
H3223 C3232 0.950 . S
H3224 C3234 0.950 . S
H3225 C3236 0.950 . S
H3226 C3238 0.950 . S
H3227 C3239 0.950 . S
C3228 H3220 0.950 . S
C3228 C3229 1.386 . S
C3228 C3230 1.391 . S
C3229 C3228 1.386 . S
C3229 C3233 1.393 . S
C3230 H3222 0.950 . S
C3230 C3228 1.391 . S
C3230 C3231 1.400 . S
C3231 C3230 1.400 . S
C3231 C3232 1.398 . S
C3231 C3237 1.491 . S
C3232 H3223 0.950 . S
C3232 C3231 1.398 . S
C3232 C3233 1.391 . S
C3233 H3221 0.950 . S
C3233 C3229 1.393 . S
C3233 C3232 1.391 . S
C3234 H3224 0.950 . S
C3234 C3235 1.386 . S
C3234 C3236 1.391 . S
C3235 C3234 1.386 . S
C3235 C3239 1.393 . S
C3236 H3225 0.950 . S
C3236 C3234 1.391 . S
C3236 C3237 1.400 . S
C3237 C3231 1.491 . S
C3237 C3236 1.400 . S
C3237 C3238 1.398 . S
C3238 H3226 0.950 . S
C3238 C3237 1.398 . S
C3238 C3239 1.391 . S
C3239 H3227 0.950 . S
C3239 C3235 1.393 . S
C3239 C3238 1.391 . S
H3240 C3248 0.950 . S
H3241 C3253 0.950 . S
H3242 C3250 0.950 . S
H3243 C3252 0.950 . S
H3244 C3254 0.950 . S
H3245 C3256 0.950 . S
H3246 C3258 0.950 . S
H3247 C3259 0.950 . S
C3248 H3240 0.950 . S
C3248 C3249 1.386 . S
C3248 C3250 1.391 . S
C3249 C3248 1.386 . S
C3249 C3253 1.393 . S
C3250 H3242 0.950 . S
C3250 C3248 1.391 . S
C3250 C3251 1.400 . S
C3251 C3250 1.400 . S
C3251 C3252 1.398 . S
C3251 C3257 1.491 . S
C3252 H3243 0.950 . S
C3252 C3251 1.398 . S
C3252 C3253 1.391 . S
C3253 H3241 0.950 . S
C3253 C3249 1.393 . S
C3253 C3252 1.391 . S
C3254 H3244 0.950 . S
C3254 C3255 1.386 . S
C3254 C3256 1.391 . S
C3255 C3254 1.386 . S
C3255 C3259 1.393 . S
C3256 H3245 0.950 . S
C3256 C3254 1.391 . S
C3256 C3257 1.400 . S
C3257 C3251 1.491 . S
C3257 C3256 1.400 . S
C3257 C3258 1.398 . S
C3258 H3246 0.950 . S
C3258 C3257 1.398 . S
C3258 C3259 1.391 . S
C3259 H3247 0.950 . S
C3259 C3255 1.393 . S
C3259 C3258 1.391 . S
H3260 C3268 0.950 . S
H3261 C3273 0.950 . S
H3262 C3270 0.950 . S
H3263 C3272 0.950 . S
H3264 C3274 0.950 . S
H3265 C3276 0.950 . S
H3266 C3278 0.950 . S
H3267 C3279 0.950 . S
C3268 H3260 0.950 . S
C3268 C3269 1.386 . S
C3268 C3270 1.391 . S
C3269 C3268 1.386 . S
C3269 C3273 1.393 . S
C3270 H3262 0.950 . S
C3270 C3268 1.391 . S
C3270 C3271 1.400 . S
C3271 C3270 1.400 . S
C3271 C3272 1.398 . S
C3271 C3277 1.491 . S
C3272 H3263 0.950 . S
C3272 C3271 1.398 . S
C3272 C3273 1.391 . S
C3273 H3261 0.950 . S
C3273 C3269 1.393 . S
C3273 C3272 1.391 . S
C3274 H3264 0.950 . S
C3274 C3275 1.386 . S
C3274 C3276 1.391 . S
C3275 C3274 1.386 . S
C3275 C3279 1.393 . S
C3276 H3265 0.950 . S
C3276 C3274 1.391 . S
C3276 C3277 1.400 . S
C3277 C3271 1.491 . S
C3277 C3276 1.400 . S
C3277 C3278 1.398 . S
C3278 H3266 0.950 . S
C3278 C3277 1.398 . S
C3278 C3279 1.391 . S
C3279 H3267 0.950 . S
C3279 C3275 1.393 . S
C3279 C3278 1.391 . S
H3280 C3288 0.950 . S
H3281 C3293 0.950 . S
H3282 C3290 0.950 . S
H3283 C3292 0.950 1_655 S
H3284 C3294 0.950 . S
H3285 C3296 0.950 . S
H3286 C3298 0.950 . S
H3287 C3299 0.950 . S
C3288 H3280 0.950 . S
C3288 C3289 1.386 . S
C3288 C3290 1.391 . S
C3289 C3288 1.386 . S
C3289 C3293 1.393 1_455 S
C3290 H3282 0.950 . S
C3290 C3288 1.391 . S
C3290 C3291 1.400 . S
C3291 C3290 1.400 . S
C3291 C3292 1.398 . S
C3291 C3297 1.491 . S
C3292 H3283 0.950 1_455 S
C3292 C3291 1.398 . S
C3292 C3293 1.391 1_455 S
C3293 H3281 0.950 . S
C3293 C3289 1.393 1_655 S
C3293 C3292 1.391 1_655 S
C3294 H3284 0.950 . S
C3294 C3295 1.386 . S
C3294 C3296 1.391 . S
C3295 C3294 1.386 . S
C3295 C3299 1.393 . S
C3296 H3285 0.950 . S
C3296 C3294 1.391 . S
C3296 C3297 1.400 . S
C3297 C3291 1.491 . S
C3297 C3296 1.400 . S
C3297 C3298 1.398 . S
C3298 H3286 0.950 . S
C3298 C3297 1.398 . S
C3298 C3299 1.391 . S
C3299 H3287 0.950 . S
C3299 C3295 1.393 . S
C3299 C3298 1.391 . S
H3300 C3308 0.950 . S
H3301 C3313 0.950 . S
H3302 C3310 0.950 . S
H3303 C3312 0.950 . S
H3304 C3314 0.950 . S
H3305 C3316 0.950 . S
H3306 C3318 0.950 . S
H3307 C3319 0.950 . S
C3308 H3300 0.950 . S
C3308 C3309 1.386 . S
C3308 C3310 1.391 . S
C3309 C3308 1.386 . S
C3309 C3313 1.393 . S
C3310 H3302 0.950 . S
C3310 C3308 1.391 . S
C3310 C3311 1.400 . S
C3311 C3310 1.400 . S
C3311 C3312 1.398 . S
C3311 C3317 1.491 . S
C3312 H3303 0.950 . S
C3312 C3311 1.398 . S
C3312 C3313 1.391 . S
C3313 H3301 0.950 . S
C3313 C3309 1.393 . S
C3313 C3312 1.391 . S
C3314 H3304 0.950 . S
C3314 C3315 1.386 . S
C3314 C3316 1.391 . S
C3315 C3314 1.386 . S
C3315 C3319 1.393 . S
C3316 H3305 0.950 . S
C3316 C3314 1.391 . S
C3316 C3317 1.400 . S
C3317 C3311 1.491 . S
C3317 C3316 1.400 . S
C3317 C3318 1.398 . S
C3318 H3306 0.950 . S
C3318 C3317 1.398 . S
C3318 C3319 1.391 . S
C3319 H3307 0.950 . S
C3319 C3315 1.393 . S
C3319 C3318 1.391 . S
H3320 C3328 0.949 . S
H3321 C3333 0.950 . S
H3322 C3330 0.950 . S
H3323 C3332 0.950 . S
H3324 C3334 0.950 . S
H3325 C3336 0.950 . S
H3326 C3338 0.950 . S
H3327 C3339 0.950 . S
C3328 H3320 0.949 . S
C3328 C3329 1.386 . S
C3328 C3330 1.391 . S
C3329 C3328 1.386 . S
C3329 C3333 1.393 . S
C3330 H3322 0.950 . S
C3330 C3328 1.391 . S
C3330 C3331 1.400 . S
C3331 C3330 1.400 . S
C3331 C3332 1.398 . S
C3331 C3337 1.491 . S
C3332 H3323 0.950 . S
C3332 C3331 1.398 . S
C3332 C3333 1.391 . S
C3333 H3321 0.950 . S
C3333 C3329 1.393 . S
C3333 C3332 1.391 . S
C3334 H3324 0.950 . S
C3334 C3335 1.386 . S
C3334 C3336 1.391 . S
C3335 C3334 1.386 . S
C3335 C3339 1.393 . S
C3336 H3325 0.950 . S
C3336 C3334 1.391 . S
C3336 C3337 1.400 . S
C3337 C3331 1.491 . S
C3337 C3336 1.400 . S
C3337 C3338 1.398 . S
C3338 H3326 0.950 . S
C3338 C3337 1.398 . S
C3338 C3339 1.391 . S
C3339 H3327 0.950 . S
C3339 C3335 1.393 . S
C3339 C3338 1.391 . S
H3340 C3348 0.950 . S
H3341 C3353 0.950 . S
H3342 C3350 0.950 . S
H3343 C3352 0.950 . S
H3344 C3354 0.950 . S
H3345 C3356 0.950 . S
H3346 C3358 0.950 . S
H3347 C3359 0.950 . S
C3348 H3340 0.950 . S
C3348 C3349 1.386 . S
C3348 C3350 1.391 . S
C3349 C3348 1.386 . S
C3349 C3353 1.393 . S
C3350 H3342 0.950 . S
C3350 C3348 1.391 . S
C3350 C3351 1.400 . S
C3351 C3350 1.400 . S
C3351 C3352 1.398 . S
C3351 C3357 1.491 . S
C3352 H3343 0.950 . S
C3352 C3351 1.398 . S
C3352 C3353 1.391 . S
C3353 H3341 0.950 . S
C3353 C3349 1.393 . S
C3353 C3352 1.391 . S
C3354 H3344 0.950 . S
C3354 C3355 1.386 . S
C3354 C3356 1.391 . S
C3355 C3354 1.386 . S
C3355 C3359 1.393 . S
C3356 H3345 0.950 . S
C3356 C3354 1.391 . S
C3356 C3357 1.400 . S
C3357 C3351 1.491 . S
C3357 C3356 1.400 . S
C3357 C3358 1.398 . S
C3358 H3346 0.950 . S
C3358 C3357 1.398 . S
C3358 C3359 1.391 . S
C3359 H3347 0.950 . S
C3359 C3355 1.393 . S
C3359 C3358 1.391 . S
H3360 C3368 0.950 . S
H3361 C3373 0.950 . S
H3362 C3370 0.950 . S
H3363 C3372 0.950 . S
H3364 C3374 0.950 . S
H3365 C3376 0.950 . S
H3366 C3378 0.950 . S
H3367 C3379 0.950 . S
C3368 H3360 0.950 . S
C3368 C3369 1.386 . S
C3368 C3370 1.391 . S
C3369 C3368 1.386 . S
C3369 C3373 1.393 . S
C3370 H3362 0.950 . S
C3370 C3368 1.391 . S
C3370 C3371 1.400 . S
C3371 C3370 1.400 . S
C3371 C3372 1.398 . S
C3371 C3377 1.491 . S
C3372 H3363 0.950 . S
C3372 C3371 1.398 . S
C3372 C3373 1.391 . S
C3373 H3361 0.950 . S
C3373 C3369 1.393 . S
C3373 C3372 1.391 . S
C3374 H3364 0.950 . S
C3374 C3375 1.386 . S
C3374 C3376 1.391 . S
C3375 C3374 1.386 . S
C3375 C3379 1.393 . S
C3376 H3365 0.950 . S
C3376 C3374 1.391 . S
C3376 C3377 1.400 . S
C3377 C3371 1.491 . S
C3377 C3376 1.400 . S
C3377 C3378 1.398 . S
C3378 H3366 0.950 . S
C3378 C3377 1.398 . S
C3378 C3379 1.391 . S
C3379 H3367 0.950 . S
C3379 C3375 1.393 . S
C3379 C3378 1.391 . S
H3380 C3388 0.950 . S
H3381 C3393 0.950 1_565 S
H3382 C3390 0.950 . S
H3383 C3392 0.950 . S
H3384 C3394 0.950 . S
H3385 C3396 0.950 . S
H3386 C3398 0.950 . S
H3387 C3399 0.950 . S
C3388 H3380 0.950 . S
C3388 C3389 1.386 . S
C3388 C3390 1.391 . S
C3389 C3388 1.386 . S
C3389 C3393 1.393 . S
C3390 H3382 0.950 . S
C3390 C3388 1.391 . S
C3390 C3391 1.400 . S
C3391 C3390 1.400 . S
C3391 C3392 1.398 . S
C3391 C3397 1.491 . S
C3392 H3383 0.950 . S
C3392 C3391 1.398 . S
C3392 C3393 1.391 . S
C3393 H3381 0.950 1_545 S
C3393 C3389 1.393 . S
C3393 C3392 1.391 . S
C3394 H3384 0.950 . S
C3394 C3395 1.386 . S
C3394 C3396 1.391 . S
C3395 C3394 1.386 . S
C3395 C3399 1.393 . S
C3396 H3385 0.950 . S
C3396 C3394 1.391 . S
C3396 C3397 1.400 . S
C3397 C3391 1.491 . S
C3397 C3396 1.400 . S
C3397 C3398 1.398 . S
C3398 H3386 0.950 . S
C3398 C3397 1.398 . S
C3398 C3399 1.391 . S
C3399 H3387 0.950 . S
C3399 C3395 1.393 . S
C3399 C3398 1.391 . S
H3400 C3408 0.950 . S
H3401 C3413 0.950 . S
H3402 C3410 0.950 . S
H3403 C3412 0.950 . S
H3404 C3414 0.950 . S
H3405 C3416 0.950 1_455 S
H3406 C3418 0.950 . S
H3407 C3419 0.950 . S
C3408 H3400 0.950 . S
C3408 C3409 1.386 . S
C3408 C3410 1.391 . S
C3409 C3408 1.386 . S
C3409 C3413 1.393 . S
C3410 H3402 0.950 . S
C3410 C3408 1.391 . S
C3410 C3411 1.400 . S
C3411 C3410 1.400 . S
C3411 C3412 1.398 . S
C3411 C3417 1.491 . S
C3412 H3403 0.950 . S
C3412 C3411 1.398 . S
C3412 C3413 1.391 . S
C3413 H3401 0.950 . S
C3413 C3409 1.393 . S
C3413 C3412 1.391 . S
C3414 H3404 0.950 . S
C3414 C3415 1.386 1_455 S
C3414 C3416 1.391 1_455 S
C3415 C3414 1.386 1_655 S
C3415 C3419 1.393 . S
C3416 H3405 0.950 1_655 S
C3416 C3414 1.391 1_655 S
C3416 C3417 1.400 . S
C3417 C3411 1.491 . S
C3417 C3416 1.400 . S
C3417 C3418 1.398 . S
C3418 H3406 0.950 . S
C3418 C3417 1.398 . S
C3418 C3419 1.391 . S
C3419 H3407 0.950 . S
C3419 C3415 1.393 . S
C3419 C3418 1.391 . S
H3420 C3428 0.950 . S
H3421 C3433 0.950 . S
H3422 C3430 0.950 . S
H3423 C3432 0.950 . S
H3424 C3434 0.950 . S
H3425 C3436 0.950 . S
H3426 C3438 0.950 . S
H3427 C3439 0.950 . S
C3428 H3420 0.950 . S
C3428 C3429 1.386 . S
C3428 C3430 1.391 . S
C3429 C3428 1.386 . S
C3429 C3433 1.393 . S
C3430 H3422 0.950 . S
C3430 C3428 1.391 . S
C3430 C3431 1.400 . S
C3431 C3430 1.400 . S
C3431 C3432 1.398 . S
C3431 C3437 1.491 . S
C3432 H3423 0.950 . S
C3432 C3431 1.398 . S
C3432 C3433 1.391 . S
C3433 H3421 0.950 . S
C3433 C3429 1.393 . S
C3433 C3432 1.391 . S
C3434 H3424 0.950 . S
C3434 C3435 1.386 . S
C3434 C3436 1.391 . S
C3435 C3434 1.386 . S
C3435 C3439 1.393 . S
C3436 H3425 0.950 . S
C3436 C3434 1.391 . S
C3436 C3437 1.400 . S
C3437 C3431 1.491 . S
C3437 C3436 1.400 . S
C3437 C3438 1.398 . S
C3438 H3426 0.950 . S
C3438 C3437 1.398 . S
C3438 C3439 1.391 . S
C3439 H3427 0.950 . S
C3439 C3435 1.393 . S
C3439 C3438 1.391 . S
H3440 C3448 0.950 . S
H3441 C3453 0.950 . S
H3442 C3450 0.950 . S
H3443 C3452 0.950 . S
H3444 C3454 0.950 . S
H3445 C3456 0.950 . S
H3446 C3458 0.950 1_545 S
H3447 C3459 0.950 . S
C3448 H3440 0.950 . S
C3448 C3449 1.386 . S
C3448 C3450 1.391 . S
C3449 C3448 1.386 . S
C3449 C3453 1.393 . S
C3450 H3442 0.950 . S
C3450 C3448 1.391 . S
C3450 C3451 1.400 . S
C3451 C3450 1.400 . S
C3451 C3452 1.398 . S
C3451 C3457 1.491 . S
C3452 H3443 0.950 . S
C3452 C3451 1.398 . S
C3452 C3453 1.391 . S
C3453 H3441 0.950 . S
C3453 C3449 1.393 . S
C3453 C3452 1.391 . S
C3454 H3444 0.950 . S
C3454 C3455 1.386 . S
C3454 C3456 1.391 . S
C3455 C3454 1.386 . S
C3455 C3459 1.393 1_565 S
C3456 H3445 0.950 . S
C3456 C3454 1.391 . S
C3456 C3457 1.400 . S
C3457 C3451 1.491 . S
C3457 C3456 1.400 . S
C3457 C3458 1.398 . S
C3458 H3446 0.950 1_565 S
C3458 C3457 1.398 . S
C3458 C3459 1.391 1_565 S
C3459 H3447 0.950 . S
C3459 C3455 1.393 1_545 S
C3459 C3458 1.391 1_545 S
H3460 C3468 0.950 . S
H3461 C3473 0.950 . S
H3462 C3470 0.950 . S
H3463 C3472 0.950 . S
H3464 C3474 0.950 . S
H3465 C3476 0.950 . S
H3466 C3478 0.950 . S
H3467 C3479 0.950 . S
C3468 H3460 0.950 . S
C3468 C3469 1.386 . S
C3468 C3470 1.391 . S
C3469 C3468 1.386 . S
C3469 C3473 1.393 . S
C3470 H3462 0.950 . S
C3470 C3468 1.391 . S
C3470 C3471 1.400 . S
C3471 C3470 1.400 . S
C3471 C3472 1.398 . S
C3471 C3477 1.491 . S
C3472 H3463 0.950 . S
C3472 C3471 1.398 . S
C3472 C3473 1.391 . S
C3473 H3461 0.950 . S
C3473 C3469 1.393 . S
C3473 C3472 1.391 . S
C3474 H3464 0.950 . S
C3474 C3475 1.386 . S
C3474 C3476 1.391 . S
C3475 C3474 1.386 . S
C3475 C3479 1.393 . S
C3476 H3465 0.950 . S
C3476 C3474 1.391 . S
C3476 C3477 1.400 . S
C3477 C3471 1.491 . S
C3477 C3476 1.400 . S
C3477 C3478 1.398 . S
C3478 H3466 0.950 . S
C3478 C3477 1.398 . S
C3478 C3479 1.391 . S
C3479 H3467 0.950 . S
C3479 C3475 1.393 . S
C3479 C3478 1.391 . S
H3480 C3488 0.950 . S
H3481 C3493 0.950 . S
H3482 C3490 0.950 . S
H3483 C3492 0.950 . S
H3484 C3494 0.950 . S
H3485 C3496 0.950 . S
H3486 C3498 0.950 . S
H3487 C3499 0.950 . S
C3488 H3480 0.950 . S
C3488 C3489 1.386 . S
C3488 C3490 1.391 . S
C3489 C3488 1.386 . S
C3489 C3493 1.393 . S
C3490 H3482 0.950 . S
C3490 C3488 1.391 . S
C3490 C3491 1.400 . S
C3491 C3490 1.400 . S
C3491 C3492 1.398 . S
C3491 C3497 1.491 1_655 S
C3492 H3483 0.950 . S
C3492 C3491 1.398 . S
C3492 C3493 1.391 . S
C3493 H3481 0.950 . S
C3493 C3489 1.393 . S
C3493 C3492 1.391 . S
C3494 H3484 0.950 . S
C3494 C3495 1.386 . S
C3494 C3496 1.391 . S
C3495 C3494 1.386 . S
C3495 C3499 1.393 . S
C3496 H3485 0.950 . S
C3496 C3494 1.391 . S
C3496 C3497 1.400 . S
C3497 C3491 1.491 1_455 S
C3497 C3496 1.400 . S
C3497 C3498 1.398 . S
C3498 H3486 0.950 . S
C3498 C3497 1.398 . S
C3498 C3499 1.391 . S
C3499 H3487 0.950 . S
C3499 C3495 1.393 . S
C3499 C3498 1.391 . S
H3500 C3508 0.950 . S
H3501 C3513 0.950 . S
H3502 C3510 0.950 . S
H3503 C3512 0.950 . S
H3504 C3514 0.950 . S
H3505 C3516 0.950 . S
H3506 C3518 0.950 . S
H3507 C3519 0.950 . S
C3508 H3500 0.950 . S
C3508 C3509 1.386 . S
C3508 C3510 1.391 . S
C3509 C3508 1.386 . S
C3509 C3513 1.393 . S
C3510 H3502 0.950 . S
C3510 C3508 1.391 . S
C3510 C3511 1.400 . S
C3511 C3510 1.400 . S
C3511 C3512 1.398 . S
C3511 C3517 1.491 . S
C3512 H3503 0.950 . S
C3512 C3511 1.398 . S
C3512 C3513 1.391 . S
C3513 H3501 0.950 . S
C3513 C3509 1.393 . S
C3513 C3512 1.391 . S
C3514 H3504 0.950 . S
C3514 C3515 1.386 . S
C3514 C3516 1.391 . S
C3515 C3514 1.386 . S
C3515 C3519 1.393 . S
C3516 H3505 0.950 . S
C3516 C3514 1.391 . S
C3516 C3517 1.400 . S
C3517 C3511 1.491 . S
C3517 C3516 1.400 . S
C3517 C3518 1.398 . S
C3518 H3506 0.950 . S
C3518 C3517 1.398 . S
C3518 C3519 1.391 . S
C3519 H3507 0.950 . S
C3519 C3515 1.393 . S
C3519 C3518 1.391 . S
H3520 C3528 0.950 . S
H3521 C3533 0.950 . S
H3522 C3530 0.950 . S
H3523 C3532 0.950 . S
H3524 C3534 0.950 . S
H3525 C3536 0.950 . S
H3526 C3538 0.950 . S
H3527 C3539 0.950 . S
C3528 H3520 0.950 . S
C3528 C3529 1.386 . S
C3528 C3530 1.391 . S
C3529 C3528 1.386 . S
C3529 C3533 1.393 . S
C3530 H3522 0.950 . S
C3530 C3528 1.391 . S
C3530 C3531 1.400 . S
C3531 C3530 1.400 . S
C3531 C3532 1.398 . S
C3531 C3537 1.491 1_545 S
C3532 H3523 0.950 . S
C3532 C3531 1.398 . S
C3532 C3533 1.391 . S
C3533 H3521 0.950 . S
C3533 C3529 1.393 . S
C3533 C3532 1.391 . S
C3534 H3524 0.950 . S
C3534 C3535 1.386 . S
C3534 C3536 1.391 . S
C3535 C3534 1.386 . S
C3535 C3539 1.393 . S
C3536 H3525 0.950 . S
C3536 C3534 1.391 . S
C3536 C3537 1.400 . S
C3537 C3531 1.491 1_565 S
C3537 C3536 1.400 . S
C3537 C3538 1.398 . S
C3538 H3526 0.950 . S
C3538 C3537 1.398 . S
C3538 C3539 1.391 . S
C3539 H3527 0.950 . S
C3539 C3535 1.393 . S
C3539 C3538 1.391 . S
H3540 C3548 0.950 . S
H3541 C3553 0.950 . S
H3542 C3550 0.950 . S
H3543 C3552 0.950 . S
H3544 C3554 0.950 . S
H3545 C3556 0.950 . S
H3546 C3558 0.950 . S
H3547 C3559 0.950 . S
C3548 H3540 0.950 . S
C3548 C3549 1.386 . S
C3548 C3550 1.391 . S
C3549 C3548 1.386 . S
C3549 C3553 1.393 . S
C3550 H3542 0.950 . S
C3550 C3548 1.391 . S
C3550 C3551 1.400 . S
C3551 C3550 1.400 . S
C3551 C3552 1.398 . S
C3551 C3557 1.491 1_545 S
C3552 H3543 0.950 . S
C3552 C3551 1.398 . S
C3552 C3553 1.391 . S
C3553 H3541 0.950 . S
C3553 C3549 1.393 . S
C3553 C3552 1.391 . S
C3554 H3544 0.950 . S
C3554 C3555 1.386 . S
C3554 C3556 1.391 . S
C3555 C3554 1.386 . S
C3555 C3559 1.393 . S
C3556 H3545 0.950 . S
C3556 C3554 1.391 . S
C3556 C3557 1.400 . S
C3557 C3551 1.491 1_565 S
C3557 C3556 1.400 . S
C3557 C3558 1.398 . S
C3558 H3546 0.950 . S
C3558 C3557 1.398 . S
C3558 C3559 1.391 . S
C3559 H3547 0.950 . S
C3559 C3555 1.393 . S
C3559 C3558 1.391 . S
H3560 C3568 0.950 . S
H3561 C3573 0.950 . S
H3562 C3570 0.950 . S
H3563 C3572 0.950 . S
H3564 C3574 0.950 . S
H3565 C3576 0.950 . S
H3566 C3578 0.950 . S
H3567 C3579 0.950 . S
C3568 H3560 0.950 . S
C3568 C3569 1.386 . S
C3568 C3570 1.391 . S
C3569 C3568 1.386 . S
C3569 C3573 1.393 . S
C3570 H3562 0.950 . S
C3570 C3568 1.391 . S
C3570 C3571 1.400 . S
C3571 C3570 1.400 . S
C3571 C3572 1.398 . S
C3571 C3577 1.491 1_655 S
C3572 H3563 0.950 . S
C3572 C3571 1.398 . S
C3572 C3573 1.391 . S
C3573 H3561 0.950 . S
C3573 C3569 1.393 . S
C3573 C3572 1.391 . S
C3574 H3564 0.950 . S
C3574 C3575 1.386 . S
C3574 C3576 1.391 . S
C3575 C3574 1.386 . S
C3575 C3579 1.393 . S
C3576 H3565 0.950 . S
C3576 C3574 1.391 . S
C3576 C3577 1.400 . S
C3577 C3571 1.491 1_455 S
C3577 C3576 1.400 . S
C3577 C3578 1.398 . S
C3578 H3566 0.950 . S
C3578 C3577 1.398 . S
C3578 C3579 1.391 . S
C3579 H3567 0.950 . S
C3579 C3575 1.393 . S
C3579 C3578 1.391 . S
H3580 C3588 0.950 . S
H3581 C3593 0.950 . S
H3582 C3590 0.950 . S
H3583 C3592 0.950 . S
H3584 C3594 0.950 . S
H3585 C3596 0.950 . S
H3586 C3598 0.950 . S
H3587 C3599 0.950 . S
C3588 H3580 0.950 . S
C3588 C3589 1.386 . S
C3588 C3590 1.391 . S
C3589 C3588 1.386 . S
C3589 C3593 1.393 . S
C3590 H3582 0.950 . S
C3590 C3588 1.391 . S
C3590 C3591 1.400 . S
C3591 C3590 1.400 . S
C3591 C3592 1.398 . S
C3591 C3597 1.491 . S
C3592 H3583 0.950 . S
C3592 C3591 1.398 . S
C3592 C3593 1.391 . S
C3593 H3581 0.950 . S
C3593 C3589 1.393 . S
C3593 C3592 1.391 . S
C3594 H3584 0.950 . S
C3594 C3595 1.386 . S
C3594 C3596 1.391 . S
C3595 C3594 1.386 . S
C3595 C3599 1.393 . S
C3596 H3585 0.950 . S
C3596 C3594 1.391 . S
C3596 C3597 1.400 . S
C3597 C3591 1.491 . S
C3597 C3596 1.400 . S
C3597 C3598 1.398 . S
C3598 H3586 0.950 . S
C3598 C3597 1.398 . S
C3598 C3599 1.391 . S
C3599 H3587 0.950 . S
C3599 C3595 1.393 . S
C3599 C3598 1.391 . S
C1449 C7 2.001 . S
C1455 C282 2.026 . S
C1469 C322 2.026 . S
C1475 C47 2.014 . S
C1489 C242 2.028 . S
C1495 C87 2.002 . S
C1509 C442 2.023 . S
C1515 C127 2.003 . S
C1529 C167 2.009 . S
C1535 C362 2.032 . S
C1549 C207 2.009 . S
C1555 C402 2.023 . S
C1569 C51 2.032 . S
C1575 C256 2.009 . S
C1589 C296 2.002 . S
C1595 C91 2.027 . S
C1609 C11 2.031 . S
C1615 C336 2.014 . S
C1629 C211 2.029 . S
C1635 C376 2.003 . S
C1649 C416 2.007 . S
C1655 C131 2.031 . S
C1669 C456 2.012 . S
C1675 C171 2.025 . S
C1689 C487 2.001 . S
C1695 C762 2.025 . S
C1709 C802 2.029 . S
C1715 C527 2.003 . S
C1729 C722 2.032 . S
C1735 C567 2.009 . S
C1749 C607 2.006 . S
C1755 C922 2.022 . S
C1769 C842 2.030 . S
C1775 C647 2.003 . S
C1789 C687 2.013 . S
C1795 C882 2.032 . S
C1809 C736 2.004 . S
C1815 C531 2.022 . S
C1829 C571 2.023 . S
C1835 C776 2.006 . S
C1849 C816 2.002 . S
C1855 C491 2.029 . S
C1869 C691 2.029 . S
C1875 C856 2.015 . S
C1889 C611 2.024 . S
C1895 C896 2.010 . S
C1909 C936 2.015 . S
C1915 C651 2.028 . S
C1929 C967 2.011 . S
C1935 C1242 2.032 . S
C1949 C1007 2.003 . S
C1955 C1282 2.023 . S
C1969 C1202 2.026 . S
C1975 C1047 2.001 . S
C1989 C1402 2.022 . S
C1995 C1087 2.006 . S
C2009 C1127 2.015 . S
C2015 C1322 2.028 . S
C2029 C1362 2.029 . S
C2035 C1167 2.002 . S
C2049 C1011 2.023 . S
C2055 C1216 2.007 . S
C2069 C1256 2.003 . S
C2075 C1051 2.023 . S
C2089 C971 2.024 . S
C2095 C1296 2.011 . S
C2109 C1336 2.001 . S
C2115 C1171 2.024 . S
C2129 C1376 2.010 . S
C2135 C1091 2.023 . S
C2149 C1416 2.014 . S
C2155 C1131 2.027 . S
C2169 C2 2.184 . S
C2175 C731 2.184 . S
C2189 C42 2.188 . S
C2195 C771 2.188 . S
C2209 C811 2.185 . S
C2215 C82 2.185 . S
C2229 C1331 2.187 . S
C2235 C122 2.187 . S
C2249 C1371 2.184 . S
C2255 C162 2.184 . S
C2269 C1411 2.185 . S
C2275 C202 2.185 . S
C2289 C251 2.189 . S
C2295 C962 2.189 . S
C2309 C1002 2.190 . S
C2315 C291 2.190 . S
C2329 C331 2.185 . S
C2335 C1042 2.185 . S
C2349 C371 2.185 . S
C2355 C602 2.185 . S
C2369 C411 2.197 . S
C2375 C642 2.197 . S
C2389 C451 2.198 . S
C2395 C682 2.198 . S
C2409 C482 2.200 . S
C2415 C1211 2.200 . S
C2429 C1251 2.194 . S
C2435 C522 2.194 . S
C2449 C562 2.187 . S
C2455 C1291 2.187 . S
C2469 C1082 2.194 . S
C2475 C851 2.194 . S
C2489 C891 2.185 . S
C2495 C1122 2.185 . S
C2509 C1162 2.200 . S
C2515 C931 2.200 . S
C2529 C19 2.118 1_556 S
C2535 C659 2.125 . S
C2549 C59 2.116 1_556 S
C2555 C699 2.099 . S
C2569 C619 2.103 . S
C2575 C99 2.121 1_556 S
C2589 C139 2.126 . S
C2595 C1059 2.112 . S
C2609 C979 2.124 . S
C2615 C179 2.121 . S
C2629 C219 2.106 . S
C2635 C1019 2.098 . S
C2649 C1370 2.126 . S
C2655 C250 2.113 1_554 S
C2669 C290 2.099 1_554 S
C2675 C1410 2.104 . S
C2689 C1330 2.122 . S
C2695 C330 2.123 1_554 S
C2709 C370 2.112 . S
C2715 C810 2.126 . S
C2729 C410 2.116 . S
C2735 C730 2.099 . S
C2749 C450 2.121 . S
C2755 C770 2.103 . S
C2769 C1139 2.109 . S
C2775 C499 2.098 . S
C2789 C539 2.104 . S
C2795 C1179 2.099 . S
C2809 C579 2.113 . S
C2815 C1099 2.126 . S
C2829 C1290 2.122 . S
C2835 C850 2.123 . S
C2849 C1210 2.117 . S
C2855 C890 2.126 . S
C2869 C1250 2.098 . S
C2875 C930 2.114 . S
C2889 C130 2.601 . S
C2895 C10 2.599 . S
C2909 C50 2.599 . S
C2915 C170 2.595 . S
C2929 C90 2.590 . S
C2935 C210 2.589 . S
C2949 C379 2.595 . S
C2955 C259 2.591 . S
C2969 C299 2.601 . S
C2975 C419 2.601 . S
C2989 C459 2.589 . S
C2995 C339 2.590 . S
C3009 C610 2.597 . S
C3015 C490 2.600 . S
C3029 C530 2.591 . S
C3035 C650 2.589 . S
C3049 C570 2.600 . S
C3055 C690 2.596 . S
C3069 C739 2.589 . S
C3075 C859 2.591 1_554 S
C3089 C779 2.600 . S
C3095 C899 2.597 1_554 S
C3109 C819 2.601 . S
C3115 C939 2.600 1_554 S
C3129 C970 2.589 . S
C3135 C1090 2.589 1_556 S
C3149 C1130 2.589 1_556 S
C3155 C1010 2.590 . S
C3169 C1170 2.598 1_556 S
C3175 C1050 2.594 . S
C3189 C1219 2.596 . S
C3195 C1339 2.592 . S
C3209 C1379 2.596 . S
C3215 C1259 2.592 . S
C3229 C1299 2.589 . S
C3235 C1419 2.592 . S
C3249 C16 0.278 . S
C3255 C1176 0.255 . S
C3269 C1096 0.201 . S
C3275 C56 0.322 . S
C3289 C96 0.294 . S
C3295 C1136 0.267 . S
C3309 C536 0.218 . S
C3315 C136 0.250 . S
C3329 C176 0.230 . S
C3335 C576 0.282 . S
C3349 C216 0.326 . S
C3355 C496 0.215 . S
C3369 C927 0.241 . S
C3375 C247 0.286 . S
C3389 C287 0.232 . S
C3395 C847 0.282 . S
C3409 C887 0.208 . S
C3415 C327 0.291 . S
C3429 C367 0.283 . S
C3435 C1247 0.246 . S
C3449 C1287 0.284 . S
C3455 C407 0.272 . S
C3469 C1207 0.214 . S
C3475 C447 0.327 . S
C3489 C616 0.208 . S
C3495 C1016 0.292 . S
C3509 C656 0.293 . S
C3515 C1056 0.219 . S
C3529 C696 0.200 . S
C3535 C976 0.281 . S
C3549 C727 0.278 . S
C3555 C1407 0.254 . S
C3569 C767 0.210 . S
C3575 C1327 0.293 . S
C3589 C1367 0.200 . S
C3595 C807 0.284 . S
