# Generated by pormake.
# Topology uns, (4)-cn, num edge types: 1
# Building blocks:
#     Node 0, Type 0, BuildingBlock: QUQFOY_clean_sbu_1, # of connection points: 4
#     Node 1, Type 0, BuildingBlock: QUQFOY_clean_sbu_1, # of connection points: 4
#     Node 2, Type 0, BuildingBlock: QUQFOY_clean_sbu_1, # of connection points: 4
#     Node 3, Type 0, BuildingBlock: QUQFOY_clean_sbu_1, # of connection points: 4
#     Node 4, Type 0, BuildingBlock: QUQFOY_clean_sbu_1, # of connection points: 4
#     Node 5, Type 0, BuildingBlock: QUQFOY_clean_sbu_1, # of connection points: 4
#     Node 6, Type 0, BuildingBlock: QUQFOY_clean_sbu_1, # of connection points: 4
#     Node 7, Type 0, BuildingBlock: QUQFOY_clean_sbu_1, # of connection points: 4
#     Node 8, Type 0, BuildingBlock: QUQFOY_clean_sbu_1, # of connection points: 4
#     Node 9, Type 0, BuildingBlock: QUQFOY_clean_sbu_1, # of connection points: 4
#     Node 10, Type 0, BuildingBlock: QUQFOY_clean_sbu_1, # of connection points: 4
#     Node 11, Type 0, BuildingBlock: QUQFOY_clean_sbu_1, # of connection points: 4
#     Node 12, Type 0, BuildingBlock: QUQFOY_clean_sbu_1, # of connection points: 4
#     Node 13, Type 0, BuildingBlock: QUQFOY_clean_sbu_1, # of connection points: 4
#     Node 14, Type 0, BuildingBlock: QUQFOY_clean_sbu_1, # of connection points: 4
#     Node 15, Type 0, BuildingBlock: QUQFOY_clean_sbu_1, # of connection points: 4
#     Node 16, Type 0, BuildingBlock: QUQFOY_clean_sbu_1, # of connection points: 4
#     Node 17, Type 0, BuildingBlock: QUQFOY_clean_sbu_1, # of connection points: 4
#     Node 18, Type 0, BuildingBlock: QUQFOY_clean_sbu_1, # of connection points: 4
#     Node 19, Type 0, BuildingBlock: QUQFOY_clean_sbu_1, # of connection points: 4
#     Node 20, Type 0, BuildingBlock: QUQFOY_clean_sbu_1, # of connection points: 4
#     Node 21, Type 0, BuildingBlock: QUQFOY_clean_sbu_1, # of connection points: 4
#     Node 22, Type 0, BuildingBlock: QUQFOY_clean_sbu_1, # of connection points: 4
#     Node 23, Type 0, BuildingBlock: QUQFOY_clean_sbu_1, # of connection points: 4
#     Node 24, Type 0, BuildingBlock: QUQFOY_clean_sbu_1, # of connection points: 4
#     Node 25, Type 0, BuildingBlock: QUQFOY_clean_sbu_1, # of connection points: 4
#     Node 26, Type 0, BuildingBlock: QUQFOY_clean_sbu_1, # of connection points: 4
#     Node 27, Type 0, BuildingBlock: QUQFOY_clean_sbu_1, # of connection points: 4
#     Node 28, Type 0, BuildingBlock: QUQFOY_clean_sbu_1, # of connection points: 4
#     Node 29, Type 0, BuildingBlock: QUQFOY_clean_sbu_1, # of connection points: 4
#     Node 30, Type 0, BuildingBlock: QUQFOY_clean_sbu_1, # of connection points: 4
#     Node 31, Type 0, BuildingBlock: QUQFOY_clean_sbu_1, # of connection points: 4
#     Node 32, Type 0, BuildingBlock: QUQFOY_clean_sbu_1, # of connection points: 4
#     Node 33, Type 0, BuildingBlock: QUQFOY_clean_sbu_1, # of connection points: 4
#     Node 34, Type 0, BuildingBlock: QUQFOY_clean_sbu_1, # of connection points: 4
#     Node 35, Type 0, BuildingBlock: QUQFOY_clean_sbu_1, # of connection points: 4
#     Edge 36, Type (0, 0), BuildingBlock: XUDNAN_clean_linker_2, # of connection points: 2
#     Edge 37, Type (0, 0), BuildingBlock: XUDNAN_clean_linker_2, # of connection points: 2
#     Edge 38, Type (0, 0), BuildingBlock: XUDNAN_clean_linker_2, # of connection points: 2
#     Edge 39, Type (0, 0), BuildingBlock: XUDNAN_clean_linker_2, # of connection points: 2
#     Edge 40, Type (0, 0), BuildingBlock: XUDNAN_clean_linker_2, # of connection points: 2
#     Edge 41, Type (0, 0), BuildingBlock: XUDNAN_clean_linker_2, # of connection points: 2
#     Edge 42, Type (0, 0), BuildingBlock: XUDNAN_clean_linker_2, # of connection points: 2
#     Edge 43, Type (0, 0), BuildingBlock: XUDNAN_clean_linker_2, # of connection points: 2
#     Edge 44, Type (0, 0), BuildingBlock: XUDNAN_clean_linker_2, # of connection points: 2
#     Edge 45, Type (0, 0), BuildingBlock: XUDNAN_clean_linker_2, # of connection points: 2
#     Edge 46, Type (0, 0), BuildingBlock: XUDNAN_clean_linker_2, # of connection points: 2
#     Edge 47, Type (0, 0), BuildingBlock: XUDNAN_clean_linker_2, # of connection points: 2
#     Edge 48, Type (0, 0), BuildingBlock: XUDNAN_clean_linker_2, # of connection points: 2
#     Edge 49, Type (0, 0), BuildingBlock: XUDNAN_clean_linker_2, # of connection points: 2
#     Edge 50, Type (0, 0), BuildingBlock: XUDNAN_clean_linker_2, # of connection points: 2
#     Edge 51, Type (0, 0), BuildingBlock: XUDNAN_clean_linker_2, # of connection points: 2
#     Edge 52, Type (0, 0), BuildingBlock: XUDNAN_clean_linker_2, # of connection points: 2
#     Edge 53, Type (0, 0), BuildingBlock: XUDNAN_clean_linker_2, # of connection points: 2
#     Edge 54, Type (0, 0), BuildingBlock: XUDNAN_clean_linker_2, # of connection points: 2
#     Edge 55, Type (0, 0), BuildingBlock: XUDNAN_clean_linker_2, # of connection points: 2
#     Edge 56, Type (0, 0), BuildingBlock: XUDNAN_clean_linker_2, # of connection points: 2
#     Edge 57, Type (0, 0), BuildingBlock: XUDNAN_clean_linker_2, # of connection points: 2
#     Edge 58, Type (0, 0), BuildingBlock: XUDNAN_clean_linker_2, # of connection points: 2
#     Edge 59, Type (0, 0), BuildingBlock: XUDNAN_clean_linker_2, # of connection points: 2
#     Edge 60, Type (0, 0), BuildingBlock: XUDNAN_clean_linker_2, # of connection points: 2
#     Edge 61, Type (0, 0), BuildingBlock: XUDNAN_clean_linker_2, # of connection points: 2
#     Edge 62, Type (0, 0), BuildingBlock: XUDNAN_clean_linker_2, # of connection points: 2
#     Edge 63, Type (0, 0), BuildingBlock: XUDNAN_clean_linker_2, # of connection points: 2
#     Edge 64, Type (0, 0), BuildingBlock: XUDNAN_clean_linker_2, # of connection points: 2
#     Edge 65, Type (0, 0), BuildingBlock: XUDNAN_clean_linker_2, # of connection points: 2
#     Edge 66, Type (0, 0), BuildingBlock: XUDNAN_clean_linker_2, # of connection points: 2
#     Edge 67, Type (0, 0), BuildingBlock: XUDNAN_clean_linker_2, # of connection points: 2
#     Edge 68, Type (0, 0), BuildingBlock: XUDNAN_clean_linker_2, # of connection points: 2
#     Edge 69, Type (0, 0), BuildingBlock: XUDNAN_clean_linker_2, # of connection points: 2
#     Edge 70, Type (0, 0), BuildingBlock: XUDNAN_clean_linker_2, # of connection points: 2
#     Edge 71, Type (0, 0), BuildingBlock: XUDNAN_clean_linker_2, # of connection points: 2
#     Edge 72, Type (0, 0), BuildingBlock: XUDNAN_clean_linker_2, # of connection points: 2
#     Edge 73, Type (0, 0), BuildingBlock: XUDNAN_clean_linker_2, # of connection points: 2
#     Edge 74, Type (0, 0), BuildingBlock: XUDNAN_clean_linker_2, # of connection points: 2
#     Edge 75, Type (0, 0), BuildingBlock: XUDNAN_clean_linker_2, # of connection points: 2
#     Edge 76, Type (0, 0), BuildingBlock: XUDNAN_clean_linker_2, # of connection points: 2
#     Edge 77, Type (0, 0), BuildingBlock: XUDNAN_clean_linker_2, # of connection points: 2
#     Edge 78, Type (0, 0), BuildingBlock: XUDNAN_clean_linker_2, # of connection points: 2
#     Edge 79, Type (0, 0), BuildingBlock: XUDNAN_clean_linker_2, # of connection points: 2
#     Edge 80, Type (0, 0), BuildingBlock: XUDNAN_clean_linker_2, # of connection points: 2
#     Edge 81, Type (0, 0), BuildingBlock: XUDNAN_clean_linker_2, # of connection points: 2
#     Edge 82, Type (0, 0), BuildingBlock: XUDNAN_clean_linker_2, # of connection points: 2
#     Edge 83, Type (0, 0), BuildingBlock: XUDNAN_clean_linker_2, # of connection points: 2
#     Edge 84, Type (0, 0), BuildingBlock: XUDNAN_clean_linker_2, # of connection points: 2
#     Edge 85, Type (0, 0), BuildingBlock: XUDNAN_clean_linker_2, # of connection points: 2
#     Edge 86, Type (0, 0), BuildingBlock: XUDNAN_clean_linker_2, # of connection points: 2
#     Edge 87, Type (0, 0), BuildingBlock: XUDNAN_clean_linker_2, # of connection points: 2
#     Edge 88, Type (0, 0), BuildingBlock: XUDNAN_clean_linker_2, # of connection points: 2
#     Edge 89, Type (0, 0), BuildingBlock: XUDNAN_clean_linker_2, # of connection points: 2
#     Edge 90, Type (0, 0), BuildingBlock: XUDNAN_clean_linker_2, # of connection points: 2
#     Edge 91, Type (0, 0), BuildingBlock: XUDNAN_clean_linker_2, # of connection points: 2
#     Edge 92, Type (0, 0), BuildingBlock: XUDNAN_clean_linker_2, # of connection points: 2
#     Edge 93, Type (0, 0), BuildingBlock: XUDNAN_clean_linker_2, # of connection points: 2
#     Edge 94, Type (0, 0), BuildingBlock: XUDNAN_clean_linker_2, # of connection points: 2
#     Edge 95, Type (0, 0), BuildingBlock: XUDNAN_clean_linker_2, # of connection points: 2
#     Edge 96, Type (0, 0), BuildingBlock: XUDNAN_clean_linker_2, # of connection points: 2
#     Edge 97, Type (0, 0), BuildingBlock: XUDNAN_clean_linker_2, # of connection points: 2
#     Edge 98, Type (0, 0), BuildingBlock: XUDNAN_clean_linker_2, # of connection points: 2
#     Edge 99, Type (0, 0), BuildingBlock: XUDNAN_clean_linker_2, # of connection points: 2
#     Edge 100, Type (0, 0), BuildingBlock: XUDNAN_clean_linker_2, # of connection points: 2
#     Edge 101, Type (0, 0), BuildingBlock: XUDNAN_clean_linker_2, # of connection points: 2
#     Edge 102, Type (0, 0), BuildingBlock: XUDNAN_clean_linker_2, # of connection points: 2
#     Edge 103, Type (0, 0), BuildingBlock: XUDNAN_clean_linker_2, # of connection points: 2
#     Edge 104, Type (0, 0), BuildingBlock: XUDNAN_clean_linker_2, # of connection points: 2
#     Edge 105, Type (0, 0), BuildingBlock: XUDNAN_clean_linker_2, # of connection points: 2
#     Edge 106, Type (0, 0), BuildingBlock: XUDNAN_clean_linker_2, # of connection points: 2
#     Edge 107, Type (0, 0), BuildingBlock: XUDNAN_clean_linker_2, # of connection points: 2
# Relax obj value: 0.035
# Max RMSD: 0.166
# Mean RMSD: 0.166
data_MOF--net-uns--node1-QUQFOY_clean_sbu_1--edge1-XUDNAN_clean_linker_2
_symmetry_space_group_name_H-M    P1
_symmetry_Int_Tables_number       1
_symmetry_cell_setting            triclinic
loop_
_symmetry_equiv_pos_as_xyz
'x, y, z'
_cell_length_a     52.447395
_cell_length_b     52.435972
_cell_length_c     67.219519
_cell_angle_alpha  90.114796
_cell_angle_beta   89.897225
_cell_angle_gamma 120.0518
loop_
_atom_site_label
_atom_site_type_symbol
_atom_site_fract_x
_atom_site_fract_y
_atom_site_fract_z
_atom_type_partial_charge
O0 O 0.27292 0.20634 0.0485 0.0
Cd1 Cd 0.30272 0.19175 0.05202 0.0
Cd2 Cd 0.29057 0.19717 0.09244 0.0
O3 O 0.25591 0.19956 0.07935 0.0
O4 O 0.2987 0.16559 0.02887 0.0
O5 O 0.28528 0.14937 0.05966 0.0
C6 C 0.28657 0.14363 0.04106 0.0
C7 C 0.29201 0.18463 0.12583 0.0
C8 C 0.25483 0.20619 0.06123 0.0
C9 C 0.35155 0.23869 0.07467 0.0
O10 O 0.33151 0.23205 0.08752 0.0
O11 O 0.34612 0.22368 0.05873 0.0
O12 O 0.28797 0.20609 0.12107 0.0
O13 O 0.29137 0.16767 0.11166 0.0
O14 O 0.80592 0.07169 0.05124 0.0
Cd15 Cd 0.81793 0.11571 0.05279 0.0
Cd16 Cd 0.81515 0.09957 0.09522 0.0
O17 O 0.81274 0.06228 0.08228 0.0
O18 O 0.83215 0.13099 0.0253 0.0
O19 O 0.86147 0.14582 0.05149 0.0
C20 C 0.85836 0.1465 0.03245 0.0
C21 C 0.82845 0.11366 0.12863 0.0
C22 C 0.80646 0.05426 0.06416 0.0
C23 C 0.77156 0.11685 0.07718 0.0
O24 O 0.78026 0.10569 0.09036 0.0
O25 O 0.78478 0.12492 0.06051 0.0
O26 O 0.80661 0.08832 0.12393 0.0
O27 O 0.84514 0.1299 0.11434 0.0
O28 O 0.94452 0.73462 0.04864 0.0
Cd29 Cd 0.89985 0.70518 0.05031 0.0
Cd30 Cd 0.91758 0.71572 0.09359 0.0
O31 O 0.95684 0.74714 0.08019 0.0
O32 O 0.88503 0.70581 0.02296 0.0
O33 O 0.87172 0.72109 0.04953 0.0
C34 C 0.87067 0.71755 0.03046 0.0
C35 C 0.90689 0.71674 0.12758 0.0
C36 C 0.96368 0.74977 0.06176 0.0
C37 C 0.89268 0.65415 0.07389 0.0
O38 O 0.90434 0.67265 0.08787 0.0
O39 O 0.88781 0.66177 0.057 0.0
O40 O 0.92994 0.71609 0.12182 0.0
O41 O 0.89147 0.72028 0.11408 0.0
O42 O 0.21301 0.27764 0.47971 0.0
Cd43 Cd 0.19838 0.30734 0.47684 0.0
Cd44 Cd 0.20317 0.29754 0.43719 0.0
O45 O 0.20888 0.26338 0.4483 0.0
O46 O 0.17176 0.30241 0.49984 0.0
O47 O 0.15642 0.29088 0.46869 0.0
C48 C 0.15022 0.2914 0.48727 0.0
C49 C 0.17765 0.29901 0.40909 0.0
C50 C 0.21472 0.26119 0.46646 0.0
C51 C 0.24469 0.35779 0.45487 0.0
O52 O 0.23794 0.33905 0.44103 0.0
O53 O 0.23059 0.35079 0.47124 0.0
O54 O 0.2006 0.29614 0.40737 0.0
O55 O 0.16695 0.29697 0.42674 0.0
O56 O 0.73927 0.93972 0.47846 0.0
Cd57 Cd 0.70888 0.89544 0.47561 0.0
Cd58 Cd 0.72345 0.91043 0.43613 0.0
O59 O 0.75712 0.95009 0.44786 0.0
O60 O 0.707 0.87931 0.50285 0.0
O61 O 0.72398 0.86671 0.47677 0.0
C62 C 0.71923 0.86516 0.49573 0.0
C63 C 0.72326 0.8817 0.40948 0.0
C64 C 0.75744 0.9579 0.46592 0.0
C65 C 0.66192 0.89307 0.4499 0.0
O66 O 0.6824 0.90536 0.43719 0.0
O67 O 0.66661 0.88506 0.46672 0.0
O68 O 0.72774 0.90798 0.40668 0.0
O69 O 0.72315 0.87346 0.42763 0.0
O70 O 0.0844 0.81242 0.48922 0.0
Cd71 Cd 0.1277 0.82778 0.48063 0.0
Cd72 Cd 0.09441 0.80889 0.44511 0.0
O73 O 0.06117 0.80997 0.46126 0.0
O74 O 0.14862 0.8438 0.50653 0.0
O75 O 0.1546 0.87224 0.48077 0.0
C76 C 0.15989 0.86995 0.49925 0.0
C77 C 0.10869 0.82147 0.41191 0.0
C78 C 0.0614 0.80851 0.48017 0.0
C79 C 0.12241 0.77543 0.46 0.0
O80 O 0.10026 0.77433 0.45164 0.0
O81 O 0.13978 0.79743 0.47065 0.0
O82 O 0.08267 0.8005 0.41652 0.0
O83 O 0.12535 0.83788 0.4262 0.0
O84 O 0.7444 0.80388 0.97961 0.0
Cd85 Cd 0.71473 0.81882 0.97926 0.0
Cd86 Cd 0.72148 0.81007 0.93576 0.0
O87 O 0.75453 0.80333 0.94764 0.0
O88 O 0.71751 0.83463 1.00677 0.0
O89 O 0.73023 0.8628 0.98004 0.0
C90 C 0.72828 0.86058 0.9992 0.0
C91 C 0.71986 0.82183 0.90213 0.0
C92 C 0.75871 0.79977 0.9659 0.0
C93 C 0.66169 0.77415 0.95775 0.0
O94 O 0.67888 0.78021 0.94302 0.0
O95 O 0.67088 0.78739 0.9743 0.0
O96 O 0.71973 0.79816 0.90725 0.0
O97 O 0.72428 0.84072 0.91597 0.0
O98 O 0.20768 0.93096 0.98202 0.0
Cd99 Cd 0.19558 0.88855 0.97371 0.0
Cd100 Cd 0.20312 0.9157 0.93805 0.0
O101 O 0.20325 0.95024 0.95397 0.0
O102 O 0.18143 0.86716 0.99957 0.0
O103 O 0.15175 0.85936 0.97419 0.0
C104 C 0.155 0.85458 0.99261 0.0
C105 C 0.17473 0.88509 0.91223 0.0
C106 C 0.20778 0.95209 0.97271 0.0
C107 C 0.24571 0.89626 0.9487 0.0
O108 O 0.24121 0.91432 0.93896 0.0
O109 O 0.22839 0.88086 0.96265 0.0
O110 O 0.19396 0.91243 0.90894 0.0
O111 O 0.16877 0.87653 0.93057 0.0
O112 O 0.0697 0.27301 0.9787 0.0
Cd113 Cd 0.11443 0.30225 0.97774 0.0
Cd114 Cd 0.09804 0.29609 0.93489 0.0
O115 O 0.05819 0.26304 0.94685 0.0
O116 O 0.12772 0.29927 1.00505 0.0
O117 O 0.14254 0.2863 0.97807 0.0
C118 C 0.14253 0.28823 0.99724 0.0
C119 C 0.11214 0.29772 0.90142 0.0
C120 C 0.05086 0.25887 0.96519 0.0
C121 C 0.12261 0.35567 0.95698 0.0
O122 O 0.11075 0.33865 0.94226 0.0
O123 O 0.12728 0.34624 0.97319 0.0
O124 O 0.08842 0.29774 0.90627 0.0
O125 O 0.12636 0.29339 0.91543 0.0
O126 O 0.80328 0.73894 0.55122 0.0
Cd127 Cd 0.81874 0.71002 0.55534 0.0
Cd128 Cd 0.81722 0.72451 0.59449 0.0
O129 O 0.81023 0.75687 0.58182 0.0
O130 O 0.84569 0.71365 0.53276 0.0
O131 O 0.86084 0.72862 0.56354 0.0
C132 C 0.86722 0.72655 0.54524 0.0
C133 C 0.84524 0.72701 0.62214 0.0
C134 C 0.80281 0.75696 0.56374 0.0
C135 C 0.77554 0.66187 0.5808 0.0
O136 O 0.78291 0.68235 0.59343 0.0
O137 O 0.78808 0.66703 0.56387 0.0
O138 O 0.82215 0.72959 0.62406 0.0
O139 O 0.85467 0.72726 0.60433 0.0
O140 O 0.28458 0.08194 0.55092 0.0
Cd141 Cd 0.31535 0.12627 0.55173 0.0
Cd142 Cd 0.30614 0.11287 0.59293 0.0
O143 O 0.27163 0.07268 0.58259 0.0
O144 O 0.31397 0.14013 0.5242 0.0
O145 O 0.3005 0.15527 0.55078 0.0
C146 C 0.30292 0.15517 0.53163 0.0
C147 C 0.30826 0.13933 0.6216 0.0
C148 C 0.26861 0.06421 0.56449 0.0
C149 C 0.36573 0.13021 0.57442 0.0
O150 O 0.34739 0.11929 0.58856 0.0
O151 O 0.35852 0.13662 0.55789 0.0
O152 O 0.30554 0.11354 0.62276 0.0
O153 O 0.30588 0.14841 0.6042 0.0
O154 O 0.9345 0.20695 0.54593 0.0
Cd155 Cd 0.89138 0.19045 0.55539 0.0
Cd156 Cd 0.92537 0.2075 0.59013 0.0
O157 O 0.95798 0.20667 0.57308 0.0
O158 O 0.86976 0.17519 0.52961 0.0
O159 O 0.8655 0.14584 0.55441 0.0
C160 C 0.85962 0.14877 0.53617 0.0
C161 C 0.91145 0.1934 0.62316 0.0
C162 C 0.95751 0.20974 0.55432 0.0
C163 C 0.89704 0.24153 0.57801 0.0
O164 O 0.92001 0.24274 0.58502 0.0
O165 O 0.879 0.21966 0.56749 0.0
O166 O 0.93754 0.21433 0.61865 0.0
O167 O 0.89448 0.17778 0.60873 0.0
O168 O 0.94569 0.55161 0.38695 0.0
Cd169 Cd 0.97735 0.53924 0.38933 0.0
Cd170 Cd 0.96249 0.53768 0.42774 0.0
O171 O 0.9261 0.53894 0.41693 0.0
O172 O 0.97889 0.52413 0.3623 0.0
O173 O 0.96302 0.4956 0.38892 0.0
C174 C 0.9672 0.49806 0.36988 0.0
C175 C 0.96573 0.51058 0.45401 0.0
C176 C 0.92593 0.54815 0.39942 0.0
C177 C 0.02259 0.58535 0.41481 0.0
O178 O 1.00119 0.5766 0.42684 0.0
O179 O 0.01937 0.5717 0.39848 0.0
O180 O 0.95873 0.53061 0.45704 0.0
O181 O 0.96699 0.50326 0.4358 0.0
O182 O 0.47151 0.39846 0.38619 0.0
Cd183 Cd 0.48438 0.44258 0.38944 0.0
Cd184 Cd 0.4845 0.42754 0.42729 0.0
O185 O 0.48388 0.39045 0.41591 0.0
O186 O 0.49932 0.46002 0.36257 0.0
O187 O 0.52804 0.47168 0.38904 0.0
C188 C 0.52543 0.47409 0.37011 0.0
C189 C 0.5114 0.45856 0.4533 0.0
C190 C 0.4748 0.38168 0.39827 0.0
C191 C 0.43785 0.44095 0.41497 0.0
O192 O 0.44534 0.42669 0.42645 0.0
O193 O 0.45255 0.45262 0.39918 0.0
O194 O 0.49199 0.43133 0.4565 0.0
O195 O 0.51843 0.46695 0.43504 0.0
O196 O 0.62273 0.08063 0.3871 0.0
Cd197 Cd 0.57833 0.04964 0.3885 0.0
Cd198 Cd 0.59399 0.06124 0.43046 0.0
O199 O 0.63242 0.09591 0.41835 0.0
O200 O 0.56387 0.04937 0.36091 0.0
O201 O 0.54892 0.06385 0.3871 0.0
C202 C 0.54853 0.06027 0.36805 0.0
C203 C 0.57745 0.05934 0.46335 0.0
C204 C 0.6405 0.09787 0.40022 0.0
C205 C 0.57552 1.00068 0.41201 0.0
O206 O 0.58765 0.02016 0.42539 0.0
O207 O 0.56742 1.00669 0.39569 0.0
O208 O 0.60309 0.06301 0.45947 0.0
O209 O 0.56234 0.06045 0.44857 0.0
O210 O 0.8949 0.62122 0.82107 0.0
Cd211 Cd 0.88051 0.65098 0.81688 0.0
Cd212 Cd 0.88705 0.63998 0.77682 0.0
O213 O 0.89235 0.60685 0.78979 0.0
O214 O 0.852 0.64574 0.83849 0.0
O215 O 0.83936 0.63476 0.80683 0.0
C216 C 0.83161 0.6351 0.82508 0.0
C217 C 0.87347 0.63983 0.74346 0.0
C218 C 0.89721 0.60472 0.80814 0.0
C219 C 0.92672 0.70135 0.79543 0.0
O220 O 0.9198 0.68212 0.7819 0.0
O221 O 0.91272 0.69465 0.81182 0.0
O222 O 0.89639 0.63826 0.74818 0.0
O223 O 0.856 0.63783 0.75769 0.0
O224 O 0.41163 0.27343 0.82399 0.0
Cd225 Cd 0.38117 0.23034 0.81737 0.0
Cd226 Cd 0.39786 0.26044 0.77863 0.0
O227 O 0.43075 0.29509 0.79519 0.0
O228 O 0.37739 0.21132 0.84383 0.0
O229 O 0.39625 0.20149 0.81754 0.0
C230 C 0.39048 0.19827 0.83637 0.0
C231 C 0.39892 0.24889 0.745 0.0
C232 C 0.43022 0.29575 0.81415 0.0
C233 C 0.33488 0.23437 0.79472 0.0
O234 O 0.35595 0.25164 0.78351 0.0
O235 O 0.33905 0.22104 0.80905 0.0
O236 O 0.40206 0.27391 0.75038 0.0
O237 O 0.39925 0.23194 0.75881 0.0
O238 O 0.7426 0.13853 0.81581 0.0
Cd239 Cd 0.78688 0.15301 0.81237 0.0
Cd240 Cd 0.7713 0.14805 0.77332 0.0
O241 O 0.7323 0.14391 0.78474 0.0
O242 O 0.80886 0.17944 0.83532 0.0
O243 O 0.81227 0.195 0.80428 0.0
C244 C 0.81922 0.20107 0.82283 0.0
C245 C 0.79861 0.17305 0.74516 0.0
C246 C 0.72446 0.1377 0.80291 0.0
C247 C 0.78938 0.10592 0.79038 0.0
O248 O 0.77635 0.11232 0.7771 0.0
O249 O 0.79823 0.12101 0.80632 0.0
O250 O 0.77239 0.15064 0.74351 0.0
O251 O 0.80764 0.18356 0.7628 0.0
O252 O 0.41363 0.13416 0.31414 0.0
Cd253 Cd 0.38293 0.1477 0.3123 0.0
Cd254 Cd 0.39531 0.14604 0.27245 0.0
O255 O 0.43042 0.14206 0.28328 0.0
O256 O 0.38266 0.16255 0.33962 0.0
O257 O 0.39793 0.19146 0.31318 0.0
C258 C 0.39431 0.18872 0.33224 0.0
C259 C 0.39324 0.17201 0.24505 0.0
C260 C 0.4317 0.13485 0.30121 0.0
C261 C 0.33452 0.10263 0.2879 0.0
O262 O 0.35439 0.10989 0.27482 0.0
O263 O 0.34013 0.11611 0.30448 0.0
O264 O 0.39789 0.15022 0.24289 0.0
O265 O 0.3941 0.1817 0.2629 0.0
O266 O 0.88832 0.28671 0.31806 0.0
Cd267 Cd 0.87551 0.2425 0.31541 0.0
Cd268 Cd 0.87429 0.2565 0.27683 0.0
O269 O 0.87629 0.29439 0.28811 0.0
O270 O 0.86061 0.2256 0.34244 0.0
O271 O 0.83176 0.21329 0.31602 0.0
C272 C 0.83444 0.21132 0.335 0.0
C273 C 0.84763 0.22685 0.25004 0.0
C274 C 0.88541 0.30344 0.30571 0.0
C275 C 0.92136 0.24316 0.2896 0.0
O276 O 0.91282 0.25611 0.27774 0.0
O277 O 0.90773 0.2327 0.30593 0.0
O278 O 0.8679 0.25391 0.24742 0.0
O279 O 0.83975 0.21792 0.26813 0.0
O280 O 0.73672 0.60857 0.31928 0.0
Cd281 Cd 0.78109 0.63948 0.31743 0.0
Cd282 Cd 0.76794 0.62611 0.27805 0.0
O283 O 0.72895 0.5908 0.28868 0.0
O284 O 0.7968 0.63965 0.34449 0.0
O285 O 0.80979 0.62449 0.31761 0.0
C286 C 0.81113 0.62804 0.3367 0.0
C287 C 0.79591 0.62801 0.25045 0.0
C288 C 0.71984 0.58998 0.3064 0.0
C289 C 0.78366 0.68694 0.29278 0.0
O290 O 0.77125 0.66638 0.28011 0.0
O291 O 0.79223 0.68223 0.30935 0.0
O292 O 0.76943 0.62326 0.24847 0.0
O293 O 0.80504 0.62771 0.26827 0.0
O294 O 0.47835 0.07507 0.88872 0.0
Cd295 Cd 0.49125 0.04385 0.8905 0.0
Cd296 Cd 0.4884 0.05539 0.93009 0.0
O297 O 0.48562 0.09134 0.91971 0.0
O298 O 0.50566 0.04335 0.86301 0.0
O299 O 0.5349 0.05797 0.88925 0.0
C300 C 0.5319 0.05448 0.87018 0.0
C301 C 0.51413 0.0517 0.95724 0.0
C302 C 0.47871 0.09288 0.90174 0.0
C303 C 0.44313 0.99608 0.91365 0.0
O304 O 0.45076 0.01586 0.92687 0.0
O305 O 0.45808 1.0013 0.89771 0.0
O306 O 0.49285 0.05704 0.95972 0.0
O307 O 0.52323 0.05223 0.93926 0.0
O308 O 0.95376 0.41479 0.88234 0.0
Cd309 Cd 0.98234 0.45673 0.89276 0.0
Cd310 Cd 0.95978 0.42502 0.92691 0.0
O311 O 0.92707 0.39305 0.909 0.0
O312 O 0.99114 0.48043 0.86789 0.0
O313 O 0.96665 0.48505 0.89307 0.0
C314 C 0.97625 0.49181 0.87503 0.0
C315 C 0.95727 0.44096 0.95879 0.0
C316 C 0.93182 0.39284 0.89042 0.0
C317 C 0.02321 0.44754 0.91772 0.0
O318 O 0.99962 0.4274 0.92544 0.0
O319 O 0.02239 0.46499 0.90494 0.0
O320 O 0.95013 0.41397 0.95536 0.0
O321 O 0.96151 0.45781 0.94364 0.0
O322 O 0.61288 0.55391 0.87798 0.0
Cd323 Cd 0.57105 0.53748 0.88959 0.0
Cd324 Cd 0.60195 0.54784 0.92297 0.0
O325 O 0.63456 0.54897 0.90464 0.0
O326 O 0.54274 0.50972 0.86928 0.0
O327 O 0.55167 0.49536 0.89814 0.0
C328 C 0.53884 0.4885 0.88096 0.0
C329 C 0.58691 0.52915 0.95494 0.0
C330 C 0.63511 0.5546 0.88614 0.0
C331 C 0.5762 0.58598 0.9142 0.0
O332 O 0.59724 0.58398 0.92179 0.0
O333 O 0.55947 0.56724 0.90132 0.0
O334 O 0.61349 0.54993 0.95142 0.0
O335 O 0.57022 0.51589 0.93982 0.0
O336 O 0.6256 0.88506 0.71248 0.0
Cd337 Cd 0.65134 0.86818 0.72261 0.0
Cd338 Cd 0.63103 0.87844 0.75616 0.0
O339 O 0.5995 0.8815 0.73916 0.0
O340 O 0.65847 0.85211 0.69759 0.0
O341 O 0.63229 0.82372 0.72257 0.0
C342 C 0.64182 0.82598 0.70456 0.0
C343 C 0.62924 0.84875 0.7821 0.0
C344 C 0.60466 0.88686 0.72065 0.0
C345 C 0.69456 0.91598 0.7484 0.0
O346 O 0.67195 0.91468 0.75625 0.0
O347 O 0.69208 0.89722 0.73537 0.0
O348 O 0.62272 0.86923 0.785 0.0
O349 O 0.63223 0.84236 0.76393 0.0
O350 O 0.14041 0.74342 0.7157 0.0
Cd351 Cd 0.16003 0.78567 0.72787 0.0
Cd352 Cd 0.13583 0.75064 0.75939 0.0
O353 O 0.13671 0.7178 0.7426 0.0
O354 O 0.18685 0.81229 0.70647 0.0
O355 O 0.20294 0.80385 0.7347 0.0
C356 C 0.20875 0.8161 0.71734 0.0
C357 C 0.14914 0.76594 0.79233 0.0
C358 C 0.13522 0.71929 0.72375 0.0
C359 C 0.10921 0.78464 0.74704 0.0
O360 O 0.10306 0.75883 0.7518 0.0
O361 O 0.13422 0.8024 0.73957 0.0
O362 O 0.12753 0.74 0.78816 0.0
O363 O 0.16562 0.78178 0.77778 0.0
O364 O 0.275 0.39798 0.71333 0.0
Cd365 Cd 0.23268 0.37018 0.72352 0.0
Cd366 Cd 0.26251 0.39142 0.75714 0.0
O367 O 0.29608 0.42446 0.74016 0.0
O368 O 0.20895 0.36206 0.69867 0.0
O369 O 0.20562 0.38734 0.72386 0.0
C370 C 0.19849 0.37778 0.70585 0.0
C371 C 0.23251 0.39091 0.78258 0.0
C372 C 0.29687 0.41977 0.72161 0.0
C373 C 0.24001 0.32854 0.74936 0.0
O374 O 0.26063 0.35171 0.7572 0.0
O375 O 0.2231 0.33004 0.73643 0.0
O376 O 0.25986 0.39913 0.78593 0.0
O377 O 0.22371 0.38734 0.76427 0.0
O378 O 0.54717 0.94842 0.15578 0.0
Cd379 Cd 0.53123 0.97532 0.14605 0.0
Cd380 Cd 0.54962 0.95915 0.1116 0.0
O381 O 0.54771 0.9252 0.12848 0.0
O382 O 0.51592 0.98184 0.17171 0.0
O383 O 0.48671 0.95659 0.14683 0.0
C384 C 0.48956 0.96541 0.16508 0.0
C385 C 0.53561 0.95944 0.07865 0.0
C386 C 0.54993 0.92821 0.14731 0.0
C387 C 0.58279 0.02118 0.12409 0.0
O388 O 0.58475 0.99964 0.1174 0.0
O389 O 0.5603 0.01693 0.13403 0.0
O390 O 0.55647 0.95414 0.08299 0.0
O391 O 0.52012 0.96081 0.09318 0.0
O392 O 0.07537 0.61335 0.14738 0.0
Cd393 Cd 0.04505 0.56928 0.14272 0.0
Cd394 Cd 0.06069 0.58661 0.10469 0.0
O395 O 0.09618 0.62328 0.1176 0.0
O396 O 0.04688 0.54512 0.16549 0.0
O397 O 0.06292 0.54489 0.13507 0.0
C398 C 0.05998 0.53625 0.15333 0.0
C399 C 0.05728 0.55706 0.07773 0.0
C400 C 0.09545 0.631 0.13553 0.0
C401 C 0.99985 0.57088 0.11747 0.0
O402 O 0.02174 0.58596 0.10622 0.0
O403 O 1.00285 0.55879 0.13306 0.0
O404 O 0.06461 0.58429 0.07512 0.0
O405 O 0.05618 0.5481 0.09577 0.0
O406 O 0.41235 0.46557 0.1448 0.0
Cd407 Cd 0.4562 0.47838 0.14067 0.0
Cd408 Cd 0.44052 0.47727 0.10163 0.0
O409 O 0.40211 0.47316 0.11419 0.0
O410 O 0.47993 0.50402 0.16369 0.0
O411 O 0.48234 0.52051 0.13306 0.0
C412 C 0.49025 0.52601 0.15149 0.0
C413 C 0.46909 0.50492 0.0747 0.0
C414 C 0.39443 0.46617 0.13232 0.0
C415 C 0.4569 0.43245 0.1154 0.0
O416 O 0.44459 0.44071 0.10281 0.0
O417 O 0.46558 0.44551 0.13211 0.0
O418 O 0.4425 0.48353 0.07208 0.0
O419 O 0.4777 0.51319 0.09277 0.0
O420 O 0.07221 0.46331 0.65255 0.0
Cd421 Cd 0.04206 0.47728 0.648 0.0
Cd422 Cd 0.05536 0.47243 0.60814 0.0
O423 O 0.08854 0.46795 0.62163 0.0
O424 O 0.04535 0.50436 0.67031 0.0
O425 O 0.05833 0.51915 0.63921 0.0
C426 C 0.05664 0.52567 0.65757 0.0
C427 C 0.05688 0.48754 0.57503 0.0
C428 C 0.0897 0.46211 0.63991 0.0
C429 C 0.99363 0.43045 0.62489 0.0
O430 O 0.01373 0.43805 0.61194 0.0
O431 O 0.99894 0.44447 0.64126 0.0
O432 O 0.05944 0.46508 0.57942 0.0
O433 O 0.057 0.50376 0.58956 0.0
O434 O 0.55253 0.61435 0.65002 0.0
Cd435 Cd 0.53784 0.57007 0.6455 0.0
Cd436 Cd 0.54327 0.58831 0.60567 0.0
O437 O 0.54795 0.62613 0.61915 0.0
O438 O 0.51102 0.5469 0.66799 0.0
O439 O 0.49588 0.54494 0.63697 0.0
C440 C 0.48956 0.53701 0.65538 0.0
C441 C 0.5287 0.57452 0.57252 0.0
C442 C 0.55389 0.63311 0.63744 0.0
C443 C 0.58419 0.56759 0.62255 0.0
O444 O 0.57729 0.58069 0.60968 0.0
O445 O 0.56983 0.55881 0.63877 0.0
O446 O 0.55106 0.59963 0.57699 0.0
O447 O 0.51218 0.55855 0.58697 0.0
O448 O 0.41772 0.95059 0.65381 0.0
Cd449 Cd 0.45908 0.98082 0.64352 0.0
Cd450 Cd 0.42852 0.95915 0.60861 0.0
O451 O 0.39668 0.92546 0.62633 0.0
O452 O 0.48775 0.98454 0.66503 0.0
O453 O 0.48388 0.96334 0.63587 0.0
C454 C 0.49536 0.96982 0.65341 0.0
C455 C 0.45732 0.9612 0.58161 0.0
C456 C 0.39626 0.92886 0.64513 0.0
C457 C 0.44873 0.02168 0.61851 0.0
O458 O 0.42947 0.99822 0.61009 0.0
O459 O 0.46574 0.02083 0.63173 0.0
O460 O 0.42975 0.95277 0.57911 0.0
O461 O 0.46695 0.96424 0.59963 0.0
O462 O 0.14642 0.40673 0.21145 0.0
Cd463 Cd 0.16199 0.37909 0.22041 0.0
Cd464 Cd 0.14318 0.39434 0.25533 0.0
O465 O 0.14426 0.42847 0.23907 0.0
O466 O 0.17703 0.37309 0.19443 0.0
O467 O 0.20644 0.39635 0.21965 0.0
C468 C 0.20345 0.38807 0.20127 0.0
C469 C 0.15635 0.39286 0.28837 0.0
C470 C 0.14255 0.42612 0.22019 0.0
C471 C 0.10961 0.33265 0.24131 0.0
O472 O 0.10825 0.35402 0.24894 0.0
O473 O 0.13192 0.33696 0.23114 0.0
O474 O 0.13543 0.39805 0.28398 0.0
O475 O 0.17242 0.39237 0.27392 0.0
O476 O 0.62088 0.74186 0.2126 0.0
Cd477 Cd 0.64433 0.78356 0.22538 0.0
Cd478 Cd 0.63156 0.74805 0.25633 0.0
O479 O 0.5981 0.71571 0.23917 0.0
O480 O 0.64441 0.81111 0.20473 0.0
O481 O 0.6208 0.80254 0.23344 0.0
C482 C 0.62707 0.81525 0.21622 0.0
C483 C 0.63254 0.76303 0.28919 0.0
C484 C 0.60152 0.71765 0.22036 0.0
C485 C 0.69298 0.78031 0.24391 0.0
O486 O 0.67245 0.7553 0.24944 0.0
O487 O 0.68702 0.79871 0.23603 0.0
O488 O 0.62794 0.737 0.28503 0.0
O489 O 0.63273 0.77918 0.2746 0.0
O490 O 0.28097 0.87529 0.22293 0.0
Cd491 Cd 0.23668 0.86149 0.22586 0.0
Cd492 Cd 0.25272 0.86365 0.26471 0.0
O493 O 0.29123 0.86699 0.25328 0.0
O494 O 0.22105 0.84767 0.19847 0.0
O495 O 0.20771 0.81771 0.22432 0.0
C496 C 0.20661 0.82121 0.20537 0.0
C497 C 0.22338 0.83753 0.29176 0.0
C498 C 0.299 0.87463 0.23527 0.0
C499 C 0.23697 0.90835 0.2504 0.0
O500 O 0.25068 0.90121 0.26263 0.0
O501 O 0.22633 0.8935 0.23451 0.0
O502 O 0.25023 0.8584 0.29425 0.0
O503 O 0.21465 0.82876 0.27375 0.0
H504 H 0.317 0.15224 0.1389 0.0
H505 H 0.29159 0.21527 0.1586 0.0
H506 H 0.31709 0.22094 0.19047 0.0
H507 H 0.30993 0.11769 0.1878 0.0
H508 H 0.34129 0.11303 0.18353 0.0
H509 H 0.31934 0.11268 0.16285 0.0
H510 H 0.36635 0.15449 0.14625 0.0
H511 H 0.38831 0.15549 0.16713 0.0
H512 H 0.38843 0.18851 0.15955 0.0
H513 H 0.34801 0.22221 0.2195 0.0
H514 H 0.3765 0.2139 0.24533 0.0
H515 H 0.38212 0.15029 0.20685 0.0
C516 C 0.31612 0.16664 0.15011 0.0
C517 C 0.30207 0.18316 0.14623 0.0
C518 C 0.302 0.20222 0.16121 0.0
C519 C 0.31663 0.20577 0.17935 0.0
C520 C 0.33125 0.19008 0.18238 0.0
C521 C 0.33069 0.17049 0.16835 0.0
C522 C 0.34842 0.15654 0.17531 0.0
C523 C 0.32856 0.123 0.17751 0.0
C524 C 0.37442 0.16423 0.16122 0.0
C525 C 0.35908 0.17142 0.19538 0.0
C526 C 0.3491 0.19084 0.19911 0.0
C527 C 0.35588 0.20698 0.21676 0.0
C528 C 0.37231 0.2023 0.2313 0.0
C529 C 0.38177 0.18158 0.22816 0.0
C530 C 0.37557 0.16654 0.2097 0.0
H531 H 0.86188 0.17092 0.142 0.0
H532 H 0.79928 0.08232 0.16165 0.0
H533 H 0.7958 0.10185 0.19431 0.0
H534 H 0.89927 0.19759 0.19036 0.0
H535 H 0.90404 0.23381 0.18692 0.0
H536 H 0.9031 0.21241 0.16565 0.0
H537 H 0.86072 0.21817 0.15075 0.0
H538 H 0.86105 0.23897 0.1722 0.0
H539 H 0.82749 0.20629 0.16499 0.0
H540 H 0.79673 0.13124 0.22428 0.0
H541 H 0.80638 0.16792 0.25063 0.0
H542 H 0.86783 0.23749 0.21149 0.0
C543 C 0.84803 0.15554 0.15334 0.0
C544 C 0.831 0.12501 0.14924 0.0
C545 C 0.81269 0.10575 0.16441 0.0
C546 C 0.81041 0.11666 0.18301 0.0
C547 C 0.8266 0.14693 0.18631 0.0
C548 C 0.84543 0.16609 0.17203 0.0
C549 C 0.85999 0.19772 0.17931 0.0
C550 C 0.89359 0.21117 0.18064 0.0
C551 C 0.85181 0.21638 0.16602 0.0
C552 C 0.84623 0.19334 0.19981 0.0
C553 C 0.82697 0.16388 0.20354 0.0
C554 C 0.81183 0.15438 0.22154 0.0
C555 C 0.81728 0.17542 0.23639 0.0
C556 C 0.83767 0.20567 0.23316 0.0
C557 C 0.8518 0.21464 0.21441 0.0
H558 H 0.78535 0.64025 0.21266 0.0
H559 H 0.85353 0.64099 0.2496 0.0
H560 H 0.88986 0.66628 0.22276 0.0
H561 H 0.81173 0.62836 0.16516 0.0
H562 H 0.80195 0.65201 0.15183 0.0
H563 H 0.78134 0.63251 0.17357 0.0
H564 H 0.79178 0.68204 0.18919 0.0
H565 H 0.81301 0.70178 0.1677 0.0
H566 H 0.82932 0.71138 0.19211 0.0
H567 H 0.91919 0.6934 0.1924 0.0
H568 H 0.9384 0.71563 0.15951 0.0
H569 H 0.8513 0.69816 0.1425 0.0
C570 C 0.80778 0.64512 0.21499 0.0
C571 C 0.8165 0.63836 0.23325 0.0
C572 C 0.84622 0.64566 0.23573 0.0
C573 C 0.86707 0.66024 0.2206 0.0
C574 C 0.85792 0.66747 0.20309 0.0
C575 C 0.8289 0.65982 0.20011 0.0
C576 C 0.82483 0.67044 0.18 0.0
C577 C 0.80372 0.64427 0.16686 0.0
C578 C 0.8141 0.69273 0.18241 0.0
C579 C 0.8561 0.68521 0.17208 0.0
C580 C 0.87486 0.68339 0.1857 0.0
C581 C 0.90469 0.69492 0.18163 0.0
C582 C 0.91544 0.70769 0.16293 0.0
C583 C 0.89646 0.7089 0.14843 0.0
C584 C 0.86652 0.69807 0.15333 0.0
H585 H 0.19921 0.31044 0.37074 0.0
H586 H 0.13365 0.31274 0.40904 0.0
H587 H 0.12273 0.33874 0.3828 0.0
H588 H 0.22743 0.38126 0.35017 0.0
H589 H 0.23258 0.37134 0.32541 0.0
H590 H 0.23407 0.351 0.34651 0.0
H591 H 0.19305 0.30222 0.33123 0.0
H592 H 0.19193 0.32231 0.30986 0.0
H593 H 0.15876 0.29948 0.32378 0.0
H594 H 0.12151 0.36777 0.35341 0.0
H595 H 0.1251 0.39183 0.32124 0.0
H596 H 0.19106 0.37039 0.30158 0.0
C597 C 0.18206 0.31578 0.37347 0.0
C598 C 0.16719 0.30935 0.39201 0.0
C599 C 0.14519 0.31714 0.39498 0.0
C600 C 0.13899 0.33215 0.38019 0.0
C601 C 0.15483 0.33912 0.36242 0.0
C602 C 0.17551 0.33071 0.35883 0.0
C603 C 0.18954 0.3411 0.33847 0.0
C604 C 0.22288 0.36244 0.34026 0.0
C605 C 0.18291 0.31471 0.32504 0.0
C606 C 0.17371 0.35691 0.33125 0.0
C607 C 0.15392 0.35565 0.34537 0.0
C608 C 0.1368 0.36872 0.3422 0.0
C609 C 0.13917 0.38255 0.32388 0.0
C610 C 0.15846 0.3832 0.30882 0.0
C611 C 0.17634 0.37062 0.3128 0.0
H612 H 0.65543 0.82063 0.30161 0.0
H613 H 0.63224 0.73348 0.32278 0.0
H614 H 0.65527 0.75473 0.35515 0.0
H615 H 0.72552 0.85901 0.32463 0.0
H616 H 0.72317 0.89116 0.33106 0.0
H617 H 0.70341 0.86921 0.30981 0.0
H618 H 0.65434 0.86202 0.3241 0.0
H619 H 0.67404 0.88453 0.34518 0.0
H620 H 0.64339 0.84788 0.34898 0.0
H621 H 0.68307 0.78579 0.38484 0.0
H622 H 0.70841 0.82357 0.41084 0.0
H623 H 0.71382 0.89062 0.37046 0.0
C624 C 0.65459 0.80591 0.31319 0.0
C625 C 0.64178 0.77528 0.30961 0.0
C626 C 0.6417 0.75694 0.32512 0.0
C627 C 0.65492 0.76885 0.34356 0.0
C628 C 0.6682 0.79919 0.34636 0.0
C629 C 0.66776 0.81744 0.33172 0.0
C630 C 0.68376 0.84934 0.33854 0.0
C631 C 0.71055 0.86829 0.32521 0.0
C632 C 0.66262 0.86166 0.33925 0.0
C633 C 0.69327 0.84617 0.35928 0.0
C634 C 0.68424 0.81708 0.36345 0.0
C635 C 0.69019 0.80864 0.38174 0.0
C636 C 0.70484 0.83033 0.39639 0.0
C637 C 0.71337 0.86018 0.39275 0.0
C638 C 0.70798 0.86812 0.37372 0.0
H639 H 0.1662 0.85394 0.39886 0.0
H640 H 0.07773 0.79155 0.37887 0.0
H641 H 0.09766 0.78709 0.34661 0.0
H642 H 0.19382 0.8903 0.35048 0.0
H643 H 0.22986 0.89485 0.35437 0.0
H644 H 0.20821 0.89438 0.37534 0.0
H645 H 0.21334 0.85198 0.39088 0.0
H646 H 0.2344 0.85184 0.36973 0.0
H647 H 0.20146 0.8185 0.37693 0.0
H648 H 0.1275 0.78716 0.31706 0.0
H649 H 0.16447 0.79626 0.29107 0.0
H650 H 0.23361 0.85829 0.33023 0.0
C651 C 0.15093 0.83989 0.38753 0.0
C652 C 0.12031 0.82324 0.39143 0.0
C653 C 0.10122 0.80469 0.37627 0.0
C654 C 0.11237 0.80185 0.3579 0.0
C655 C 0.14271 0.81772 0.35481 0.0
C656 C 0.16171 0.83675 0.36907 0.0
C657 C 0.19344 0.85101 0.36204 0.0
C658 C 0.20713 0.88463 0.36046 0.0
C659 C 0.21173 0.84284 0.37571 0.0
C660 C 0.1893 0.83693 0.34167 0.0
C661 C 0.15988 0.81768 0.33782 0.0
C662 C 0.1506 0.80225 0.3199 0.0
C663 C 0.17182 0.80739 0.30526 0.0
C664 C 0.20204 0.82783 0.30857 0.0
C665 C 0.21079 0.84225 0.32725 0.0
H666 H 0.64058 0.86911 0.82058 0.0
H667 H 0.6412 0.80349 0.78143 0.0
H668 H 0.66621 0.79093 0.80751 0.0
H669 H 0.71144 0.89527 0.8404 0.0
H670 H 0.70239 0.90098 0.86528 0.0
H671 H 0.68212 0.90321 0.8444 0.0
H672 H 0.633 0.86332 0.85998 0.0
H673 H 0.65301 0.8615 0.88116 0.0
H674 H 0.62914 0.82852 0.86736 0.0
H675 H 0.69375 0.78753 0.83711 0.0
H676 H 0.7173 0.78988 0.86932 0.0
H677 H 0.69999 0.85864 0.88904 0.0
C678 C 0.6452 0.85151 0.81766 0.0
C679 C 0.63858 0.83705 0.79897 0.0
C680 C 0.64573 0.81466 0.79566 0.0
C681 C 0.66015 0.80753 0.81034 0.0
C682 C 0.66738 0.82302 0.82827 0.0
C683 C 0.65981 0.84427 0.8321 0.0
C684 C 0.67085 0.85823 0.85239 0.0
C685 C 0.69301 0.89139 0.85049 0.0
C686 C 0.64496 0.85254 0.86603 0.0
C687 C 0.68587 0.84154 0.85939 0.0
C688 C 0.68368 0.82141 0.84521 0.0
C689 C 0.69552 0.80317 0.84833 0.0
C690 C 0.70904 0.80481 0.86665 0.0
C691 C 0.71075 0.8246 0.8817 0.0
C692 C 0.69951 0.84363 0.87777 0.0
H693 H 0.19224 0.89404 0.87295 0.0
H694 H 0.13367 0.82624 0.91421 0.0
H695 H 0.12209 0.78842 0.88838 0.0
H696 H 0.14815 0.86026 0.82783 0.0
H697 H 0.18031 0.8717 0.81251 0.0
H698 H 0.18207 0.89342 0.83381 0.0
H699 H 0.22625 0.8895 0.84727 0.0
H700 H 0.22418 0.8672 0.82624 0.0
H701 H 0.2222 0.85364 0.85115 0.0
H702 H 0.11904 0.75751 0.85863 0.0
H703 H 0.12105 0.73634 0.82624 0.0
H704 H 0.18215 0.82401 0.80427 0.0
C705 C 0.17641 0.87133 0.87644 0.0
C706 C 0.16367 0.86323 0.89566 0.0
C707 C 0.14353 0.83312 0.89962 0.0
C708 C 0.13695 0.81142 0.88505 0.0
C709 C 0.15066 0.82006 0.86652 0.0
C710 C 0.16966 0.84934 0.86207 0.0
C711 C 0.18194 0.85267 0.84114 0.0
C712 C 0.17255 0.87057 0.82805 0.0
C713 C 0.21564 0.86658 0.84148 0.0
C714 C 0.16705 0.82067 0.83456 0.0
C715 C 0.14914 0.80224 0.84945 0.0
C716 C 0.13295 0.77178 0.84686 0.0
C717 C 0.13438 0.75992 0.82841 0.0
C718 C 0.15195 0.77839 0.81268 0.0
C719 C 0.16887 0.80918 0.81603 0.0
H720 H 0.1694 0.31886 0.88904 0.0
H721 H 0.08317 0.2991 0.86811 0.0
H722 H 0.10493 0.32268 0.83597 0.0
H723 H 0.20915 0.38952 0.86753 0.0
H724 H 0.24095 0.38677 0.86073 0.0
H725 H 0.21858 0.36619 0.88161 0.0
H726 H 0.2105 0.31746 0.86599 0.0
H727 H 0.23346 0.338 0.8453 0.0
H728 H 0.1966 0.30805 0.84094 0.0
H729 H 0.13639 0.35061 0.80659 0.0
H730 H 0.17465 0.3767 0.78099 0.0
H731 H 0.24072 0.37969 0.82124 0.0
C732 C 0.15497 0.31879 0.87751 0.0
C733 C 0.12448 0.30685 0.88107 0.0
C734 C 0.10652 0.30788 0.86571 0.0
C735 C 0.11872 0.3214 0.84742 0.0
C736 C 0.14898 0.33393 0.84465 0.0
C737 C 0.16685 0.33243 0.85916 0.0
C738 C 0.19882 0.34826 0.85253 0.0
C739 C 0.21799 0.37422 0.86643 0.0
C740 C 0.21053 0.32665 0.8511 0.0
C741 C 0.19613 0.35901 0.83211 0.0
C742 C 0.16719 0.35052 0.82787 0.0
C743 C 0.15914 0.35738 0.80976 0.0
C744 C 0.18108 0.37242 0.79534 0.0
C745 C 0.21079 0.38061 0.79912 0.0
C746 C 0.21835 0.37429 0.81797 0.0
H747 H 0.82406 0.7156 0.66051 0.0
H748 H 0.8918 0.71712 0.62246 0.0
H749 H 0.90475 0.69309 0.64895 0.0
H750 H 0.86468 0.72898 0.70769 0.0
H751 H 0.83179 0.70479 0.72147 0.0
H752 H 0.8296 0.72415 0.70002 0.0
H753 H 0.79059 0.67436 0.68468 0.0
H754 H 0.79323 0.65478 0.70583 0.0
H755 H 0.79942 0.64556 0.68112 0.0
H756 H 0.90783 0.66552 0.67848 0.0
H757 H 0.90558 0.64234 0.71078 0.0
H758 H 0.83586 0.65857 0.72995 0.0
C759 C 0.84214 0.7116 0.65791 0.0
C760 C 0.85702 0.71846 0.63937 0.0
C761 C 0.88022 0.71235 0.63654 0.0
C762 C 0.88759 0.69846 0.65146 0.0
C763 C 0.87165 0.6909 0.6692 0.0
C764 C 0.84979 0.69773 0.67265 0.0
C765 C 0.83578 0.68679 0.69294 0.0
C766 C 0.84077 0.71273 0.70632 0.0
C767 C 0.8028 0.66403 0.69101 0.0
C768 C 0.85303 0.67254 0.7003 0.0
C769 C 0.87348 0.67503 0.68629 0.0
C770 C 0.89202 0.66361 0.6896 0.0
C771 C 0.89041 0.65026 0.70798 0.0
C772 C 0.87045 0.64846 0.72294 0.0
C773 C 0.85109 0.65923 0.71879 0.0
H774 H 0.37844 0.19284 0.73 0.0
H775 H 0.39794 0.28068 0.71313 0.0
H776 H 0.3749 0.26177 0.68043 0.0
H777 H 0.39105 0.17093 0.68051 0.0
H778 H 0.36143 0.13349 0.68329 0.0
H779 H 0.38111 0.15449 0.70487 0.0
H780 H 0.3317 0.14404 0.72065 0.0
H781 H 0.31194 0.1236 0.69892 0.0
H782 H 0.30834 0.15429 0.70738 0.0
H783 H 0.34686 0.23278 0.6502 0.0
H784 H 0.32143 0.19696 0.62314 0.0
H785 H 0.32011 0.12788 0.6594 0.0
C786 C 0.37854 0.20825 0.71926 0.0
C787 C 0.39025 0.23836 0.72418 0.0
C788 C 0.38936 0.2576 0.70975 0.0
C789 C 0.37611 0.24702 0.69113 0.0
C790 C 0.36384 0.21708 0.68703 0.0
C791 C 0.36536 0.19804 0.70054 0.0
C792 C 0.35019 0.1668 0.69244 0.0
C793 C 0.37226 0.15579 0.69013 0.0
C794 C 0.32399 0.14596 0.70564 0.0
C795 C 0.33983 0.17126 0.67234 0.0
C796 C 0.34775 0.2004 0.66958 0.0
C797 C 0.34065 0.20991 0.65218 0.0
C798 C 0.32596 0.18932 0.63692 0.0
C799 C 0.31856 0.15951 0.63909 0.0
C800 C 0.32516 0.1504 0.65727 0.0
H801 H 0.85441 0.15889 0.63684 0.0
H802 H 0.94255 0.22373 0.65601 0.0
H803 H 0.92283 0.2272 0.68857 0.0
H804 H 0.81714 0.19152 0.65977 0.0
H805 H 0.78532 0.15743 0.6673 0.0
H806 H 0.80621 0.15826 0.64577 0.0
H807 H 0.8141 0.1173 0.66086 0.0
H808 H 0.79263 0.11584 0.68223 0.0
H809 H 0.82943 0.1221 0.68548 0.0
H810 H 0.89325 0.22636 0.71832 0.0
H811 H 0.85676 0.21613 0.74484 0.0
H812 H 0.78772 0.1514 0.70682 0.0
C813 C 0.86968 0.17328 0.64805 0.0
C814 C 0.90012 0.19094 0.6438 0.0
C815 C 0.9192 0.20984 0.65885 0.0
C816 C 0.90817 0.21213 0.67739 0.0
C817 C 0.87797 0.19528 0.68082 0.0
C818 C 0.85903 0.17579 0.66673 0.0
C819 C 0.82747 0.16032 0.67424 0.0
C820 C 0.80789 0.16731 0.66098 0.0
C821 C 0.81519 0.12691 0.6758 0.0
C822 C 0.83164 0.17433 0.69466 0.0
C823 C 0.86093 0.19459 0.69808 0.0
C824 C 0.87026 0.2104 0.71584 0.0
C825 C 0.84929 0.2046 0.73079 0.0
C826 C 0.81928 0.18306 0.72797 0.0
C827 C 0.81039 0.16821 0.70944 0.0
H828 H 0.97403 0.52909 0.49291 0.0
H829 H 0.98432 0.47011 0.45255 0.0
H830 H 1.01113 0.45995 0.47867 0.0
H831 H 0.04471 0.56078 0.51459 0.0
H832 H 0.03285 0.56326 0.53935 0.0
H833 H 0.01264 0.56449 0.51809 0.0
H834 H 0.96459 0.52033 0.53179 0.0
H835 H 0.9845 0.51943 0.55333 0.0
H836 H 0.96415 0.48679 0.53835 0.0
H837 H 0.03902 0.45821 0.50864 0.0
H838 H 0.06102 0.46045 0.54146 0.0
H839 H 0.03329 0.52124 0.56222 0.0
C840 C 0.98131 0.51351 0.48966 0.0
C841 C 0.97683 0.50022 0.47065 0.0
C842 C 0.98721 0.48036 0.467 0.0
C843 C 1.00268 0.47463 0.48171 0.0
C844 C 1.00764 0.48896 0.50001 0.0
C845 C 0.9969 0.50765 0.50413 0.0
C846 C 1.00554 0.52053 0.52491 0.0
C847 C 0.0251 0.55426 0.52418 0.0
C848 C 0.97806 0.5112 0.53786 0.0
C849 C 0.02285 0.50615 0.53186 0.0
C850 C 0.02393 0.48816 0.51721 0.0
C851 C 0.03827 0.47219 0.52022 0.0
C852 C 0.05088 0.47377 0.5389 0.0
C853 C 0.04912 0.4912 0.55441 0.0
C854 C 0.03548 0.50812 0.5506 0.0
H855 H 0.49213 0.44884 0.49201 0.0
H856 H 0.55102 0.51788 0.45156 0.0
H857 H 0.55962 0.55525 0.47717 0.0
H858 H 0.45833 0.48681 0.51208 0.0
H859 H 0.45548 0.47323 0.53707 0.0
H860 H 0.45547 0.45152 0.51627 0.0
H861 H 0.49994 0.44938 0.5311 0.0
H862 H 0.49959 0.47041 0.5522 0.0
H863 H 0.53279 0.48318 0.53778 0.0
H864 H 0.55975 0.58524 0.50657 0.0
H865 H 0.55605 0.6054 0.53894 0.0
H866 H 0.49624 0.51685 0.56005 0.0
C867 C 0.5074 0.47176 0.48866 0.0
C868 C 0.52109 0.48037 0.46976 0.0
C869 C 0.54049 0.51068 0.46595 0.0
C870 C 0.54532 0.53209 0.48035 0.0
C871 C 0.53056 0.52288 0.49851 0.0
C872 C 0.51234 0.49341 0.50281 0.0
C873 C 0.49878 0.48935 0.52335 0.0
C874 C 0.46501 0.47434 0.52211 0.0
C875 C 0.50836 0.47207 0.53691 0.0
C876 C 0.51223 0.52118 0.52996 0.0
C877 C 0.53037 0.54015 0.51535 0.0
C878 C 0.54564 0.57057 0.51811 0.0
C879 C 0.54322 0.58183 0.53653 0.0
C880 C 0.52566 0.56277 0.55202 0.0
C881 C 0.50942 0.53207 0.54843 0.0
H882 H 0.51936 0.03621 0.47523 0.0
H883 H 0.60606 0.05858 0.49693 0.0
H884 H 0.58414 0.03365 0.52858 0.0
H885 H 0.49104 0.04527 0.5237 0.0
H886 H 0.45449 0.01489 0.51914 0.0
H887 H 0.4773 0.03615 0.4986 0.0
H888 H 0.47039 0.98819 0.48245 0.0
H889 H 0.44817 0.96688 0.50318 0.0
H890 H 0.48045 0.96508 0.49623 0.0
H891 H 0.55298 1.00347 0.55694 0.0
H892 H 0.51511 0.97594 0.58235 0.0
H893 H 0.44807 0.97309 0.54309 0.0
C894 C 0.5338 0.03651 0.48683 0.0
C895 C 0.56453 0.04951 0.48353 0.0
C896 C 0.58254 0.04894 0.49903 0.0
C897 C 0.57026 0.03464 0.51707 0.0
C898 C 0.53987 0.02106 0.51955 0.0
C899 C 0.52187 0.02234 0.50507 0.0
C900 C 0.48983 1.00575 0.51166 0.0
C901 C 0.47744 0.02677 0.51338 0.0
C902 C 0.47111 0.97994 0.49753 0.0
C903 C 0.49269 0.99474 0.53197 0.0
C904 C 0.52178 1.00372 0.53612 0.0
C905 C 0.53013 0.99645 0.55392 0.0
C906 C 0.50838 0.98058 0.56822 0.0
C907 C 0.47852 0.97212 0.56474 0.0
C908 C 0.47059 0.97879 0.54613 0.0
H909 H 0.49498 0.04305 0.99609 0.0
H910 H 0.55506 0.03372 0.95627 0.0
H911 H 0.56535 1.00727 0.98257 0.0
H912 H 0.53742 0.05365 0.04184 0.0
H913 H 0.50477 0.03317 0.05676 0.0
H914 H 0.50378 0.05292 0.03516 0.0
H915 H 0.4599 1.00466 0.02144 0.0
H916 H 0.46121 0.98463 0.04278 0.0
H917 H 0.4639 0.97272 0.01808 0.0
H918 H 0.56678 0.97911 1.01255 0.0
H919 H 0.56386 0.9565 0.04524 0.0
H920 H 0.50276 0.984 0.06569 0.0
C921 C 0.5108 0.03603 0.993 0.0
C922 C 0.52434 0.04067 0.97407 0.0
C923 C 0.54459 0.03071 0.97065 0.0
C924 C 0.55041 0.01544 0.98547 0.0
C925 C 0.53589 0.01034 1.00369 0.0
C926 C 0.51687 0.02076 1.00764 0.0
C927 C 0.50393 0.0121 0.0284 0.0
C928 C 0.51303 0.03959 0.0413 0.0
C929 C 0.47024 0.99235 0.02762 0.0
C930 C 0.51849 0.995 0.0355 0.0
C931 C 0.53672 0.99414 0.02096 0.0
C932 C 0.55265 0.97976 0.02405 0.0
C933 C 0.55068 0.96679 0.04266 0.0
C934 C 0.53294 0.96824 0.05807 0.0
C935 C 0.51621 0.9821 0.0542 0.0
H936 H 0.98434 0.49921 0.97062 0.0
H937 H 0.95161 0.41053 0.99299 0.0
H938 H 0.97577 0.43087 0.02516 0.0
H939 H 0.05396 0.53149 0.99301 0.0
H940 H 0.05608 0.56593 0.99933 0.0
H941 H 0.03431 0.54486 0.97838 0.0
H942 H 0.98808 0.54368 0.9932 0.0
H943 H 1.00991 0.56546 1.01392 0.0
H944 H 0.97688 0.53069 0.01828 0.0
H945 H 1.00703 0.46062 0.05389 0.0
H946 H 0.0366 0.49774 0.07929 0.0
H947 H 0.04864 0.56736 0.0388 0.0
C948 C 0.98152 0.48404 0.98246 0.0
C949 C 0.96592 0.4532 0.97922 0.0
C950 C 0.96325 0.4342 0.99507 0.0
C951 C 0.97711 0.44555 1.01339 0.0
C952 C 0.99342 0.476 1.01578 0.0
C953 C 0.99515 0.49502 1.00095 0.0
C954 C 0.0143 0.52688 1.0074 0.0
C955 C 0.04126 0.54324 0.99371 0.0
C956 C 0.99621 0.5426 1.00826 0.0
C957 C 0.02333 0.52274 0.02805 0.0
C958 C 1.01121 0.49321 0.03251 0.0
C959 C 0.01646 0.48382 0.05063 0.0
C960 C 0.03354 0.50513 0.06492 0.0
C961 C 0.0451 0.53554 0.06109 0.0
C962 C 0.04042 0.54436 0.04218 0.0
H963 H 0.52891 0.49574 0.96684 0.0
H964 H 0.61693 0.55488 0.98917 0.0
H965 H 0.59599 0.55709 0.02155 0.0
H966 H 0.49389 0.53019 0.9901 0.0
H967 H 0.46033 0.49672 0.99614 0.0
H968 H 0.48194 0.49771 0.97499 0.0
H969 H 0.48559 0.45364 0.98898 0.0
H970 H 0.46332 0.452 1.0099 0.0
H971 H 0.4989 0.45551 1.01396 0.0
H972 H 0.56543 0.55615 0.05068 0.0
H973 H 0.52783 0.54594 0.07635 0.0
H974 H 0.45948 0.4869 0.03552 0.0
C975 C 0.54385 0.50851 0.9787 0.0
C976 C 0.57465 0.52502 0.97541 0.0
C977 C 0.59332 0.54186 0.99128 0.0
C978 C 0.5816 0.54346 1.00972 0.0
C979 C 0.55114 0.52797 1.01218 0.0
C980 C 0.53252 0.5103 0.99727 0.0
C981 C 0.50055 0.49604 1.00381 0.0
C982 C 0.48316 0.50575 0.99046 0.0
C983 C 0.48625 0.4623 1.00419 0.0
C984 C 0.50414 0.5086 0.02465 0.0
C985 C 0.5335 0.52718 0.0291 0.0
C986 C 0.54237 0.54148 0.04741 0.0
C987 C 0.52078 0.53572 0.06186 0.0
C988 C 0.49061 0.51569 0.05801 0.0
C989 C 0.48227 0.50254 0.03893 0.0
H990 H 0.23752 0.01137 0.9618 0.0
H991 H 0.19162 0.95209 1.01083 0.0
H992 H 0.2062 0.99444 0.03307 0.0
H993 H 0.29869 0.06317 0.98994 0.0
H994 H 0.30299 0.09553 0.97752 0.0
H995 H 0.28689 0.06085 0.9645 0.0
H996 H 0.24043 0.0644 0.95677 0.0
H997 H 0.25657 0.09931 0.96953 0.0
H998 H 0.2208 0.0698 0.97687 0.0
H999 H 0.22861 0.04214 0.05088 0.0
H1000 H 0.25466 0.09347 0.06278 0.0
H1001 H 0.28655 0.12355 1.00286 0.0
C1002 C 0.22995 1.00743 0.97708 0.0
C1003 C 0.21328 0.97835 0.98454 0.0
C1004 C 0.20438 0.97411 1.00476 0.0
C1005 C 0.21257 0.99804 0.01756 0.0
C1006 C 0.22977 0.02634 1.01001 0.0
C1007 C 0.23815 0.03132 0.99023 0.0
C1008 C 0.25765 0.06417 0.98638 0.0
C1009 C 0.28838 0.07134 0.97916 0.0
C1010 C 0.24298 0.07506 0.97151 0.0
C1011 C 0.25907 0.07661 1.0071 0.0
C1012 C 0.24281 0.05428 0.02044 0.0
C1013 C 0.24123 0.0599 0.04054 0.0
C1014 C 0.25627 0.08918 0.04719 0.0
C1015 C 0.27271 0.11267 0.03382 0.0
C1016 C 0.27419 0.10615 1.01349 0.0
H1017 H 0.02883 0.24271 1.00305 0.0
H1018 H 1.00197 0.2302 0.94107 0.0
H1019 H 0.94987 0.20059 0.95159 0.0
H1020 H 0.97391 0.16977 0.02002 0.0
H1021 H 0.96888 0.18308 0.04361 0.0
H1022 H 1.0039 0.20233 0.03107 0.0
H1023 H 1.00154 0.25049 0.03238 0.0
H1024 H 0.96637 0.23133 0.04473 0.0
H1025 H 0.97015 0.25099 0.02195 0.0
H1026 H 0.90039 0.17396 0.96907 0.0
H1027 H 0.85785 0.14992 0.99184 0.0
H1028 H 0.91722 0.1797 0.04244 0.0
C1029 C 0.0121 0.23358 0.99162 0.0
C1030 C 0.01965 0.23886 0.97118 0.0
C1031 C 0.99687 0.22642 0.95681 0.0
C1032 C 0.96717 0.20965 0.96263 0.0
C1033 C 0.96056 0.20538 0.98291 0.0
C1034 C 0.98242 0.21677 0.99717 0.0
C1035 C 0.96954 0.20915 0.01799 0.0
C1036 C 0.97966 0.18994 0.0288 0.0
C1037 C 0.97737 0.23716 0.02996 0.0
C1038 C 0.93692 0.19184 1.01327 0.0
C1039 C 0.9322 0.18997 0.99295 0.0
C1040 C 0.90388 0.17522 0.98499 0.0
C1041 C 0.87982 0.1617 0.99809 0.0
C1042 C 0.88408 0.16291 0.01898 0.0
C1043 C 0.91312 0.17842 0.02658 0.0
H1044 H 0.83811 0.74357 0.04129 0.0
H1045 H 0.8679 0.71553 0.9898 0.0
H1046 H 0.84424 0.73503 0.96766 0.0
H1047 H 0.76728 0.72575 0.02115 0.0
H1048 H 0.76753 0.75717 0.03229 0.0
H1049 H 0.78696 0.74107 0.04405 0.0
H1050 H 0.83495 0.79187 0.04353 0.0
H1051 H 0.8157 0.80805 0.03161 0.0
H1052 H 0.84827 0.81109 0.02025 0.0
H1053 H 0.81765 0.7583 0.95091 0.0
H1054 H 0.78774 0.78069 0.94112 0.0
H1055 H 0.77504 0.79313 1.00349 0.0
C1056 C 0.83955 0.7414 0.02537 0.0
C1057 C 0.85489 0.72794 0.01734 0.0
C1058 C 0.85625 0.72564 0.99637 0.0
C1059 C 0.84295 0.73677 0.98363 0.0
C1060 C 0.82827 0.75015 0.99201 0.0
C1061 C 0.82631 0.75233 1.0124 0.0
C1062 C 0.80888 0.76737 0.01758 0.0
C1063 C 0.78101 0.7466 0.02947 0.0
C1064 C 0.82811 0.79631 0.02891 0.0
C1065 C 0.80127 0.77319 0.99695 0.0
C1066 C 0.8128 0.76328 0.98238 0.0
C1067 C 0.8085 0.76613 0.9622 0.0
C1068 C 0.79156 0.77899 0.95679 0.0
C1069 C 0.77896 0.78874 0.97149 0.0
C1070 C 0.78429 0.786 0.99183 0.0
H1071 H 0.0164 0.2362 0.56536 0.0
H1072 H 0.95789 0.20166 0.51444 0.0
H1073 H 1.0006 0.21859 0.4922 0.0
H1074 H 0.07149 0.3012 0.54147 0.0
H1075 H 0.10236 0.30117 0.55318 0.0
H1076 H 0.06726 0.28476 0.56567 0.0
H1077 H 0.06716 0.23549 0.56882 0.0
H1078 H 0.10243 0.25185 0.55654 0.0
H1079 H 0.07182 0.21848 0.54684 0.0
H1080 H 0.04899 0.24109 0.47506 0.0
H1081 H 0.1008 0.26585 0.46416 0.0
H1082 H 0.12917 0.28651 0.52566 0.0
C1083 C 0.01262 0.23178 0.54958 0.0
C1084 C 0.9837 0.21754 0.54169 0.0
C1085 C 0.97975 0.21258 0.52088 0.0
C1086 C 1.0039 0.22211 0.50808 0.0
C1087 C 0.03205 0.23668 0.51621 0.0
C1088 C 0.03665 0.24136 0.53646 0.0
C1089 C 0.06942 0.25838 0.54108 0.0
C1090 C 0.07814 0.28814 0.55093 0.0
C1091 C 0.07822 0.23995 0.55409 0.0
C1092 C 0.08233 0.26259 0.52027 0.0
C1093 C 0.06029 0.24986 0.50619 0.0
C1094 C 0.06649 0.25104 0.48595 0.0
C1095 C 0.09604 0.26527 0.47989 0.0
C1096 C 0.11915 0.2782 0.494 0.0
C1097 C 0.11206 0.27693 0.51448 0.0
H1098 H 0.79329 0.76892 0.52552 0.0
H1099 H 0.78642 0.78928 0.58726 0.0
H1100 H 0.76369 0.81844 0.57652 0.0
H1101 H 0.81122 0.84063 0.50565 0.0
H1102 H 0.79043 0.82526 0.48314 0.0
H1103 H 0.80676 0.80666 0.49574 0.0
H1104 H 0.75565 0.75921 0.49752 0.0
H1105 H 0.7391 0.77775 0.48513 0.0
H1106 H 0.72525 0.76062 0.50896 0.0
H1107 H 0.73923 0.84314 0.55913 0.0
H1108 H 0.719 0.86539 0.53638 0.0
H1109 H 0.74307 0.83025 0.48576 0.0
C1110 C 0.78724 0.77968 0.53682 0.0
C1111 C 0.79163 0.77671 0.55729 0.0
C1112 C 0.78343 0.79129 0.57151 0.0
C1113 C 0.77037 0.8078 0.56555 0.0
C1114 C 0.76587 0.80979 0.5453 0.0
C1115 C 0.77442 0.79646 0.53112 0.0
C1116 C 0.76732 0.8022 0.5103 0.0
C1117 C 0.79562 0.81973 0.49798 0.0
C1118 C 0.74553 0.77322 0.49987 0.0
C1119 C 0.75312 0.82059 0.51496 0.0
C1120 C 0.75237 0.82455 0.53525 0.0
C1121 C 0.73988 0.84032 0.54322 0.0
C1122 C 0.7283 0.85277 0.53013 0.0
C1123 C 0.72938 0.8496 0.50924 0.0
C1124 C 0.74185 0.83309 0.50163 0.0
H1125 H 0.24973 0.04156 0.5271 0.0
H1126 H 0.24244 0.01582 0.58911 0.0
H1127 H 0.2142 0.96337 0.57908 0.0
H1128 H 0.17625 0.98316 0.5122 0.0
H1129 H 0.1887 0.97889 0.48807 0.0
H1130 H 0.20697 0.01418 0.50037 0.0
H1131 H 0.25672 0.01525 0.49711 0.0
H1132 H 0.23857 0.97979 0.48508 0.0
H1133 H 0.26023 0.98529 0.50713 0.0
H1134 H 0.18993 0.91367 0.56193 0.0
H1135 H 0.16698 0.87061 0.53955 0.0
H1136 H 0.18895 0.92882 0.48867 0.0
C1137 C 0.24188 0.02494 0.53865 0.0
C1138 C 0.24836 0.03289 0.55895 0.0
C1139 C 0.23762 0.01037 0.57351 0.0
C1140 C 0.22171 0.9805 0.56793 0.0
C1141 C 0.21643 0.97349 0.54774 0.0
C1142 C 0.22579 0.99511 0.53336 0.0
C1143 C 0.21736 0.98179 0.51268 0.0
C1144 C 0.19605 0.98999 0.50275 0.0
C1145 C 0.24486 0.99109 0.49974 0.0
C1146 C 0.20213 0.94924 0.51761 0.0
C1147 C 0.20196 0.94494 0.53791 0.0
C1148 C 0.18974 0.91681 0.54603 0.0
C1149 C 0.17688 0.89246 0.53314 0.0
C1150 C 0.17611 0.89623 0.5123 0.0
C1151 C 0.18915 0.92512 0.5045 0.0
H1152 H 0.74923 0.91854 0.98838 0.0
H1153 H 0.7327 0.86223 0.03973 0.0
H1154 H 0.75304 0.90573 0.06171 0.0
H1155 H 0.81767 0.97995 1.00572 0.0
H1156 H 0.81018 1.00749 0.9959 0.0
H1157 H 0.79473 0.97199 0.98402 0.0
H1158 H 0.7423 0.96467 0.9878 0.0
H1159 H 0.75761 1.00024 0.99954 0.0
H1160 H 0.72952 0.96796 1.01207 0.0
H1161 H 0.77565 0.95554 0.07826 0.0
H1162 H 0.79538 1.00746 0.08825 0.0
H1163 H 0.79636 0.03129 0.0263 0.0
C1164 C 0.74983 0.91535 1.00425 0.0
C1165 C 0.73934 0.88689 1.01229 0.0
C1166 C 0.7405 0.88374 0.03317 0.0
C1167 C 0.75215 0.90835 0.04581 0.0
C1168 C 0.76251 0.93609 0.03741 0.0
C1169 C 0.76125 0.93972 0.01713 0.0
C1170 C 0.77317 0.97188 1.012 0.0
C1171 C 0.80057 0.98351 0.99862 0.0
C1172 C 0.74922 0.97644 1.00229 0.0
C1173 C 0.78115 0.98568 0.03255 0.0
C1174 C 0.7751 0.96471 0.04698 0.0
C1175 C 0.78047 0.97217 0.06708 0.0
C1176 C 0.7918 1.00177 0.07261 0.0
C1177 C 0.79746 0.02358 0.05811 0.0
C1178 C 0.79233 0.01527 0.03779 0.0
H1179 H 0.0958 0.82531 0.98306 0.0
H1180 H 0.15603 0.84675 0.03271 0.0
H1181 H 0.11393 0.82409 0.05586 0.0
H1182 H 0.04378 0.83932 1.00778 0.0
H1183 H 0.01186 0.80897 0.99643 0.0
H1184 H 0.04664 0.82627 0.98351 0.0
H1185 H 0.04432 0.7759 0.98024 0.0
H1186 H 1.00934 0.75839 0.9929 0.0
H1187 H 0.03926 0.75424 1.00224 0.0
H1188 H 0.06522 0.80112 0.07396 0.0
H1189 H 0.01333 0.77468 0.08515 0.0
H1190 H 0.98469 0.76701 0.02376 0.0
C1191 C 0.10013 0.82492 0.99876 0.0
C1192 C 0.12932 0.83782 1.00601 0.0
C1193 C 0.13394 0.83693 0.02673 0.0
C1194 C 0.11014 0.82424 0.04005 0.0
C1195 C 0.08172 0.8123 0.03248 0.0
C1196 C 0.07657 0.81213 1.0123 0.0
C1197 C 0.04382 0.79752 1.00805 0.0
C1198 C 0.03608 0.81933 0.99837 0.0
C1199 C 0.03359 0.76987 0.9951 0.0
C1200 C 0.03143 0.78956 0.02898 0.0
C1201 C 0.05366 0.79853 0.04288 0.0
C1202 C 0.04761 0.79385 0.06319 0.0
C1203 C 0.01804 0.77896 0.06942 0.0
C1204 C 0.99483 0.76868 0.05538 0.0
C1205 C 1.00184 0.7745 0.03492 0.0
H1206 H 0.17945 0.26728 0.98602 0.0
H1207 H 0.13933 0.28295 0.03767 0.0
H1208 H 0.16185 0.26179 0.05932 0.0
H1209 H 0.17153 0.19824 1.00243 0.0
H1210 H 0.20665 0.20567 0.99272 0.0
H1211 H 0.18715 0.22177 0.98104 0.0
H1212 H 0.23258 0.27388 0.98554 0.0
H1213 H 0.25229 0.25791 0.99708 0.0
H1214 H 0.24823 0.28585 1.00998 0.0
H1215 H 0.188 0.2382 0.07548 0.0
H1216 H 0.2192 0.21741 0.08526 0.0
H1217 H 0.2435 0.21802 0.02338 0.0
C1218 C 0.17547 0.26633 1.00188 0.0
C1219 C 0.15756 0.2768 1.01011 0.0
C1220 C 0.153 0.27519 0.03098 0.0
C1221 C 0.1656 0.26307 0.04343 0.0
C1222 C 0.18289 0.25272 0.03486 0.0
C1223 C 0.1881 0.25446 1.0146 0.0
C1224 C 0.20818 0.24239 1.00931 0.0
C1225 C 0.19243 0.21541 0.99556 0.0
C1226 C 0.23703 0.26644 0.99993 0.0
C1227 C 0.21347 0.2337 0.02975 0.0
C1228 C 0.19845 0.2396 0.04425 0.0
C1229 C 0.19991 0.23352 0.06426 0.0
C1230 C 0.21763 0.22159 0.06966 0.0
C1231 C 0.23388 0.21603 0.05513 0.0
C1232 C 0.2314 0.22195 0.03488 0.0
H1233 H 0.88894 0.72926 0.50724 0.0
H1234 H 0.91627 0.75514 0.56845 0.0
H1235 H 0.9682 0.78056 0.55788 0.0
H1236 H 0.94824 0.71581 0.49406 0.0
H1237 H 0.95226 0.73013 0.46918 0.0
H1238 H 0.91701 0.71389 0.48145 0.0
H1239 H 0.91524 0.76179 0.47562 0.0
H1240 H 0.95064 0.77827 0.4635 0.0
H1241 H 0.94505 0.79641 0.48447 0.0
H1242 H 0.01684 0.80322 0.54118 0.0
H1243 H 0.06006 0.81969 0.51949 0.0
H1244 H 1.00261 0.7798 0.46857 0.0
C1245 C 0.90587 0.74013 0.51843 0.0
C1246 C 0.89842 0.74013 0.53872 0.0
C1247 C 0.92129 0.75473 0.55285 0.0
C1248 C 0.95091 0.76935 0.54699 0.0
C1249 C 0.95747 0.76925 0.52691 0.0
C1250 C 0.93571 0.7549 0.51282 0.0
C1251 C 0.94907 0.75798 0.49224 0.0
C1252 C 0.94117 0.72765 0.48374 0.0
C1253 C 0.93942 0.7746 0.47813 0.0
C1254 C 0.98171 0.77621 0.49703 0.0
C1255 C 0.98589 0.7825 0.51714 0.0
C1256 C 0.01387 0.79845 0.52541 0.0
C1257 C 0.03832 0.80772 0.51292 0.0
C1258 C 0.03483 0.80112 0.49229 0.0
C1259 C 1.00604 0.78551 0.48421 0.0
H1260 H 0.22467 0.24823 0.50424 0.0
H1261 H 0.23101 0.22945 0.44207 0.0
H1262 H 0.25444 0.20056 0.452 0.0
H1263 H 0.29345 0.25789 0.51956 0.0
H1264 H 0.28055 0.24051 0.54344 0.0
H1265 H 0.26296 0.25842 0.53159 0.0
H1266 H 0.21248 0.21027 0.53374 0.0
H1267 H 0.22985 0.19228 0.54582 0.0
H1268 H 0.20857 0.17668 0.52352 0.0
H1269 H 0.27979 0.176 0.46877 0.0
H1270 H 0.30156 0.15458 0.49095 0.0
H1271 H 0.2781 0.18893 0.54229 0.0
C1272 C 0.23065 0.2378 0.49266 0.0
C1273 C 0.22592 0.24117 0.47231 0.0
C1274 C 0.2342 0.22712 0.45773 0.0
C1275 C 0.24766 0.21076 0.46324 0.0
C1276 C 0.25254 0.20847 0.4834 0.0
C1277 C 0.24396 0.22132 0.49789 0.0
C1278 C 0.25189 0.21576 0.51851 0.0
C1279 C 0.2735 0.24488 0.52888 0.0
C1280 C 0.22404 0.19767 0.53114 0.0
C1281 C 0.26661 0.19801 0.51339 0.0
C1282 C 0.26681 0.19411 0.49305 0.0
C1283 C 0.27957 0.1788 0.48471 0.0
C1284 C 0.29202 0.16681 0.49747 0.0
C1285 C 0.29163 0.17005 0.51841 0.0
C1286 C 0.27885 0.18607 0.52638 0.0
H1287 H 0.77305 0.97849 0.50409 0.0
H1288 H 0.78541 1.0076 0.44265 0.0
H1289 H 0.81231 0.05948 0.45404 0.0
H1290 H 0.76054 0.03339 0.52428 0.0
H1291 H 0.78054 0.03786 0.54702 0.0
H1292 H 0.76359 1.00307 0.53413 0.0
H1293 H 0.81374 1.00473 0.5324 0.0
H1294 H 0.83079 0.03933 0.54556 0.0
H1295 H 0.84518 0.0365 0.52181 0.0
H1296 H 0.83427 0.10817 0.47237 0.0
H1297 H 0.85508 0.15003 0.49577 0.0
H1298 H 0.8303 0.08932 0.54541 0.0
C1299 C 0.78174 0.99575 0.49298 0.0
C1300 C 0.77706 0.9889 0.47242 0.0
C1301 C 0.78887 0.01221 0.45843 0.0
C1302 C 0.80401 0.04177 0.46479 0.0
C1303 C 0.80752 0.04768 0.48518 0.0
C1304 C 0.79719 0.02531 0.49906 0.0
C1305 C 0.80395 0.03754 0.52009 0.0
C1306 C 0.77545 0.02736 0.53208 0.0
C1307 C 0.82465 0.02902 0.53058 0.0
C1308 C 0.81931 0.07035 0.51594 0.0
C1309 C 0.82093 0.0757 0.4957 0.0
C1310 C 0.83336 0.10421 0.48822 0.0
C1311 C 0.84497 0.12788 0.50169 0.0
C1312 C 0.84438 0.12308 0.5225 0.0
C1313 C 0.83115 0.0938 0.52964 0.0
H1314 H 0.94592 0.44013 0.3809 0.0
H1315 H 0.96431 0.49638 0.32928 0.0
H1316 H 0.94338 0.4527 0.30744 0.0
H1317 H 0.96431 0.38911 0.35742 0.0
H1318 H 0.93567 0.35739 0.37011 0.0
H1319 H 0.95196 0.39316 0.38165 0.0
H1320 H 0.90015 0.38741 0.38543 0.0
H1321 H 0.88375 0.35175 0.37368 0.0
H1322 H 0.87729 0.37992 0.36374 0.0
H1323 H 0.91877 0.40253 0.29114 0.0
H1324 H 0.89724 0.35022 0.28144 0.0
H1325 H 0.8964 0.32678 0.34344 0.0
C1326 C 0.94573 0.44328 0.36499 0.0
C1327 C 0.9568 0.47177 0.35684 0.0
C1328 C 0.95612 0.47486 0.33592 0.0
C1329 C 0.94409 0.45013 0.32337 0.0
C1330 C 0.93298 0.42236 0.33188 0.0
C1331 C 0.93405 0.41882 0.35219 0.0
C1332 C 0.92127 0.38657 0.35747 0.0
C1333 C 0.9447 0.38125 0.36723 0.0
C1334 C 0.894 0.37579 0.37087 0.0
C1335 C 0.91291 0.3726 0.33698 0.0
C1336 C 0.91952 0.39358 0.32244 0.0
C1337 C 0.9136 0.38591 0.3024 0.0
C1338 C 0.9012 0.3561 0.29703 0.0
C1339 C 0.89514 0.33432 0.31163 0.0
C1340 C 0.9008 0.34283 0.33188 0.0
H1341 H 0.58341 0.50981 0.38125 0.0
H1342 H 0.52681 0.47527 0.32945 0.0
H1343 H 0.57036 0.49932 0.30756 0.0
H1344 H 0.63453 0.58058 0.35965 0.0
H1345 H 0.66623 0.5827 0.37168 0.0
H1346 H 0.63051 0.56258 0.38322 0.0
H1347 H 0.63593 0.51614 0.38482 0.0
H1348 H 0.67153 0.53604 0.37308 0.0
H1349 H 0.64319 0.50212 0.3623 0.0
H1350 H 0.62052 0.52595 0.29117 0.0
H1351 H 0.67286 0.55711 0.28163 0.0
H1352 H 0.69651 0.57545 0.34399 0.0
C1353 C 0.58015 0.50745 0.3653 0.0
C1354 C 0.55162 0.49061 0.35711 0.0
C1355 C 0.54838 0.48813 0.33613 0.0
C1356 C 0.57303 0.50159 0.32354 0.0
C1357 C 0.60085 0.51768 0.33209 0.0
C1358 C 0.60453 0.52097 0.35248 0.0
C1359 C 0.63679 0.53997 0.35785 0.0
C1360 C 0.64233 0.56813 0.36874 0.0
C1361 C 0.64748 0.52252 0.37025 0.0
C1362 C 0.65064 0.54686 0.33731 0.0
C1363 C 0.62959 0.53354 0.32265 0.0
C1364 C 0.63718 0.53658 0.30253 0.0
C1365 C 0.667 0.5542 0.29725 0.0
C1366 C 0.68885 0.56881 0.31202 0.0
C1367 C 0.6804 0.56469 0.33231 0.0
H1368 H 0.51172 0.08169 0.37813 0.0
H1369 H 0.54937 0.06096 0.32735 0.0
H1370 H 0.52529 0.07946 0.30473 0.0
H1371 H 0.44154 0.06031 0.3553 0.0
H1372 H 0.43814 0.08947 0.36694 0.0
H1373 H 0.45859 0.07478 0.37908 0.0
H1374 H 0.50415 0.12728 0.38104 0.0
H1375 H 0.4839 0.14208 0.36874 0.0
H1376 H 0.51847 0.14855 0.35858 0.0
H1377 H 0.4977 0.10133 0.28746 0.0
H1378 H 0.46576 0.12121 0.2771 0.0
H1379 H 0.44552 0.12664 0.33908 0.0
C1380 C 0.5148 0.08091 0.36226 0.0
C1381 C 0.53247 0.06984 0.35456 0.0
C1382 C 0.53589 0.06923 0.33366 0.0
C1383 C 0.52239 0.07982 0.32065 0.0
C1384 C 0.50539 0.09088 0.32871 0.0
C1385 C 0.50133 0.09124 0.34903 0.0
C1386 C 0.48152 0.10376 0.35385 0.0
C1387 C 0.45327 0.0807 0.36441 0.0
C1388 C 0.498 0.1321 0.36629 0.0
C1389 C 0.47502 0.11029 0.3331 0.0
C1390 C 0.48918 0.10296 0.31879 0.0
C1391 C 0.48645 0.10709 0.29856 0.0
C1392 C 0.46837 0.11852 0.2928 0.0
C1393 C 0.45305 0.12547 0.30722 0.0
C1394 C 0.45682 0.12152 0.32763 0.0
H1395 H 0.69265 0.57622 0.89856 0.0
H1396 H 0.63788 0.55286 0.84575 0.0
H1397 H 0.68192 0.57043 0.82462 0.0
H1398 H 0.75198 0.64278 0.8792 0.0
H1399 H 0.78063 0.63868 0.89088 0.0
H1400 H 0.74469 0.62254 0.90215 0.0
H1401 H 0.74083 0.57132 0.90196 0.0
H1402 H 0.77688 0.58735 0.89084 0.0
H1403 H 0.74589 0.5567 0.87893 0.0
H1404 H 0.73174 0.59184 0.80901 0.0
H1405 H 0.78434 0.61505 0.8 0.0
H1406 H 0.80751 0.62587 0.86266 0.0
C1407 C 0.68991 0.5744 0.88257 0.0
C1408 C 0.66173 0.56305 0.87384 0.0
C1409 C 0.65918 0.56149 0.85282 0.0
C1410 C 0.68409 0.5714 0.84065 0.0
C1411 C 0.71155 0.58298 0.84967 0.0
C1412 C 0.71468 0.58449 0.87013 0.0
C1413 C 0.74694 0.59886 0.87591 0.0
C1414 C 0.75662 0.62741 0.88773 0.0
C1415 C 0.75298 0.57727 0.8876 0.0
C1416 C 0.76134 0.60531 0.85552 0.0
C1417 C 0.74047 0.59584 0.84061 0.0
C1418 C 0.74831 0.59932 0.82055 0.0
C1419 C 0.77827 0.6126 0.81558 0.0
C1420 C 0.80012 0.62242 0.83058 0.0
C1421 C 0.7914 0.61879 0.85081 0.0
H1422 H 0.41738 0.16647 0.82566 0.0
H1423 H 0.38819 0.19549 0.87697 0.0
H1424 H 0.40994 0.17422 0.89926 0.0
H1425 H 0.40294 0.09697 0.84703 0.0
H1426 H 0.4347 0.09834 0.83556 0.0
H1427 H 0.41679 0.11593 0.82371 0.0
H1428 H 0.46645 0.16516 0.82304 0.0
H1429 H 0.48441 0.1478 0.83516 0.0
H1430 H 0.48624 0.18017 0.84595 0.0
H1431 H 0.43651 0.15115 0.91619 0.0
H1432 H 0.46075 0.12306 0.92622 0.0
H1433 H 0.47146 0.10802 0.86401 0.0
C1434 C 0.41533 0.16812 0.84158 0.0
C1435 C 0.40101 0.18267 0.84951 0.0
C1436 C 0.3989 0.18436 0.87047 0.0
C1437 C 0.41136 0.1725 0.8833 0.0
C1438 C 0.42578 0.1588 0.87502 0.0
C1439 C 0.42746 0.15617 0.85464 0.0
C1440 C 0.44357 0.13974 0.8496 0.0
C1441 C 0.42328 0.11104 0.83831 0.0
C1442 C 0.47185 0.1594 0.83774 0.0
C1443 C 0.45063 0.13354 0.87029 0.0
C1444 C 0.44049 0.14499 0.88476 0.0
C1445 C 0.44447 0.142 0.90497 0.0
C1446 C 0.45845 0.12617 0.91054 0.0
C1447 C 0.46803 0.11328 0.89596 0.0
C1448 C 0.46442 0.11755 0.87557 0.0
H1449 H 0.89766 0.33417 0.90133 0.0
H1450 H 0.92398 0.39311 0.85058 0.0
H1451 H 0.89763 0.35063 0.82816 0.0
H1452 H 0.90676 0.27873 0.87766 0.0
H1453 H 0.8753 0.248 0.88912 0.0
H1454 H 0.89413 0.28299 0.90174 0.0
H1455 H 0.8453 0.28385 0.90443 0.0
H1456 H 0.82624 0.24867 0.89203 0.0
H1457 H 0.82423 0.2796 0.88225 0.0
H1458 H 0.87121 0.30235 0.81088 0.0
H1459 H 0.84393 0.2506 0.79981 0.0
H1460 H 0.83463 0.22183 0.86129 0.0
C1461 C 0.89732 0.33809 0.88555 0.0
C1462 C 0.91282 0.36702 0.87773 0.0
C1463 C 0.91232 0.3712 0.85693 0.0
C1464 C 0.8974 0.3472 0.84404 0.0
C1465 C 0.88305 0.31899 0.8521 0.0
C1466 C 0.88264 0.31422 0.87235 0.0
C1467 C 0.86637 0.28143 0.87689 0.0
C1468 C 0.88687 0.27226 0.88695 0.0
C1469 C 0.8389 0.27288 0.88966 0.0
C1470 C 0.85802 0.26869 0.85603 0.0
C1471 C 0.86785 0.29084 0.842 0.0
C1472 C 0.86323 0.28478 0.82172 0.0
C1473 C 0.84779 0.25527 0.81557 0.0
C1474 C 0.83715 0.23207 0.82963 0.0
C1475 C 0.84254 0.23901 0.85014 0.0
H1476 H 0.41514 0.24675 0.32182 0.0
H1477 H 0.39826 0.18969 0.37278 0.0
H1478 H 0.41924 0.23296 0.39499 0.0
H1479 H 0.48386 0.30728 0.33894 0.0
H1480 H 0.47674 0.33528 0.32953 0.0
H1481 H 0.46064 0.29987 0.31745 0.0
H1482 H 0.40856 0.29325 0.32186 0.0
H1483 H 0.42454 0.32876 0.33375 0.0
H1484 H 0.39636 0.29657 0.34632 0.0
H1485 H 0.44336 0.28272 0.41174 0.0
H1486 H 0.46411 0.33472 0.42198 0.0
H1487 H 0.46382 0.35918 0.36035 0.0
C1488 C 0.41573 0.24334 0.33765 0.0
C1489 C 0.40504 0.21476 0.34552 0.0
C1490 C 0.40618 0.2113 0.36636 0.0
C1491 C 0.41823 0.23579 0.37913 0.0
C1492 C 0.42891 0.26366 0.37089 0.0
C1493 C 0.42745 0.26755 0.35066 0.0
C1494 C 0.43971 0.29982 0.34571 0.0
C1495 C 0.46685 0.31122 0.3321 0.0
C1496 C 0.41587 0.30489 0.33636 0.0
C1497 C 0.44819 0.31339 0.36629 0.0
C1498 C 0.44211 0.29222 0.38059 0.0
C1499 C 0.44814 0.2995 0.40067 0.0
C1500 C 0.46008 0.32913 0.40635 0.0
C1501 C 0.46558 0.35108 0.39202 0.0
C1502 C 0.45985 0.34297 0.37171 0.0
H1503 H 0.66322 0.11262 0.36238 0.0
H1504 H 0.6883 0.12976 0.4246 0.0
H1505 H 0.74052 0.16013 0.41463 0.0
H1506 H 0.72374 0.10589 0.34583 0.0
H1507 H 0.72772 0.12414 0.32238 0.0
H1508 H 0.69221 0.1048 0.33427 0.0
H1509 H 0.68824 0.15208 0.3335 0.0
H1510 H 0.72359 0.17149 0.32138 0.0
H1511 H 0.71731 0.18565 0.34419 0.0
H1512 H 0.79037 0.18621 0.39785 0.0
H1513 H 0.8336 0.20972 0.37566 0.0
H1514 H 0.77601 0.17662 0.32423 0.0
C1515 C 0.67962 0.12299 0.37395 0.0
C1516 C 0.67154 0.11871 0.39433 0.0
C1517 C 0.69381 0.13276 0.40892 0.0
C1518 C 0.72358 0.14996 0.40339 0.0
C1519 C 0.73077 0.15314 0.3832 0.0
C1520 C 0.70937 0.14038 0.3687 0.0
C1521 C 0.72291 0.14721 0.34804 0.0
C1522 C 0.71624 0.11882 0.33699 0.0
C1523 C 0.71239 0.16518 0.33607 0.0
C1524 C 0.75535 0.16556 0.35316 0.0
C1525 C 0.75939 0.16859 0.37354 0.0
C1526 C 0.78741 0.18413 0.38188 0.0
C1527 C 0.81188 0.1973 0.36911 0.0
C1528 C 0.80831 0.19507 0.34815 0.0
C1529 C 0.77956 0.17876 0.34016 0.0
H1530 H 0.9132 0.55905 0.3619 0.0
H1531 H 0.89024 0.55858 0.42403 0.0
H1532 H 0.85851 0.57908 0.41469 0.0
H1533 H 0.91755 0.62617 0.34858 0.0
H1534 H 0.9014 0.61402 0.3243 0.0
H1535 H 0.92113 0.59796 0.33566 0.0
H1536 H 0.87547 0.54584 0.33188 0.0
H1537 H 0.85569 0.5617 0.32027 0.0
H1538 H 0.84053 0.53856 0.34188 0.0
H1539 H 0.8322 0.60302 0.39876 0.0
H1540 H 0.80923 0.62395 0.37725 0.0
H1541 H 0.84808 0.60736 0.32528 0.0
C1542 C 0.90125 0.56293 0.37355 0.0
C1543 C 0.90427 0.55723 0.39374 0.0
C1544 C 0.88818 0.56259 0.40848 0.0
C1545 C 0.87021 0.57438 0.40332 0.0
C1546 C 0.86831 0.58037 0.38333 0.0
C1547 C 0.88303 0.5744 0.36864 0.0
C1548 C 0.87729 0.58288 0.34827 0.0
C1549 C 0.90606 0.60667 0.33865 0.0
C1550 C 0.86129 0.55562 0.33478 0.0
C1551 C 0.85739 0.59503 0.3538 0.0
C1552 C 0.8526 0.5935 0.37411 0.0
C1553 C 0.8356 0.60408 0.38283 0.0
C1554 C 0.82277 0.6161 0.37046 0.0
C1555 C 0.82681 0.61732 0.34955 0.0
C1556 C 0.84451 0.60672 0.34119 0.0
H1557 H 0.59052 0.07827 0.88024 0.0
H1558 H 0.53182 0.05469 0.8295 0.0
H1559 H 0.57458 0.07515 0.80685 0.0
H1560 H 0.6483 0.14663 0.86074 0.0
H1561 H 0.67769 0.1422 0.87078 0.0
H1562 H 0.64249 0.12555 0.88315 0.0
H1563 H 0.63866 0.0744 0.88102 0.0
H1564 H 0.67399 0.09094 0.86885 0.0
H1565 H 0.64232 0.0607 0.85719 0.0
H1566 H 0.6241 0.09949 0.78956 0.0
H1567 H 0.67617 0.12191 0.77905 0.0
H1568 H 0.70243 0.1288 0.84094 0.0
C1569 C 0.58663 0.07722 0.86437 0.0
C1570 C 0.55772 0.0648 0.8567 0.0
C1571 C 0.55369 0.06395 0.83579 0.0
C1572 C 0.57788 0.07567 0.82277 0.0
C1573 C 0.60607 0.08811 0.83081 0.0
C1574 C 0.61056 0.08868 0.85111 0.0
C1575 C 0.64311 0.10289 0.85588 0.0
C1576 C 0.6535 0.13098 0.86838 0.0
C1577 C 0.64991 0.08092 0.86635 0.0
C1578 C 0.65617 0.11014 0.83511 0.0
C1579 C 0.63449 0.10168 0.82085 0.0
C1580 C 0.64127 0.10614 0.80061 0.0
C1581 C 0.67095 0.11904 0.79477 0.0
C1582 C 0.6935 0.12715 0.80911 0.0
C1583 C 0.68582 0.12288 0.82955 0.0
H1584 H 0.94821 0.52272 0.8855 0.0
H1585 H 0.98501 0.50027 0.83503 0.0
H1586 H 0.96711 0.52487 0.81251 0.0
H1587 H 0.88319 0.51276 0.8613 0.0
H1588 H 0.88352 0.54381 0.87311 0.0
H1589 H 0.89944 0.52472 0.88559 0.0
H1590 H 0.94902 0.57361 0.88908 0.0
H1591 H 0.93313 0.59291 0.87685 0.0
H1592 H 0.96639 0.59537 0.86723 0.0
H1593 H 0.94305 0.54958 0.79509 0.0
H1594 H 0.91974 0.57815 0.78444 0.0
H1595 H 0.9003 0.58673 0.8461 0.0
C1596 C 0.95277 0.52326 0.86974 0.0
C1597 C 0.96806 0.50952 0.86208 0.0
C1598 C 0.9735 0.51071 0.84133 0.0
C1599 C 0.96325 0.5245 0.82836 0.0
C1600 C 0.9478 0.53731 0.83631 0.0
C1601 C 0.94297 0.53728 0.85654 0.0
C1602 C 0.92627 0.55329 0.86119 0.0
C1603 C 0.89633 0.53239 0.87087 0.0
C1604 C 0.94482 0.58041 0.87437 0.0
C1605 C 0.92242 0.56218 0.84043 0.0
C1606 C 0.9347 0.55242 0.82628 0.0
C1607 C 0.93352 0.55752 0.80605 0.0
C1608 C 0.92005 0.57363 0.80012 0.0
C1609 C 0.90821 0.58479 0.81439 0.0
C1610 C 0.90919 0.57861 0.8348 0.0
H1611 H 0.51354 0.46689 0.84424 0.0
H1612 H 0.52724 0.43954 0.90229 0.0
H1613 H 0.50369 0.38815 0.89052 0.0
H1614 H 0.44208 0.40256 0.83498 0.0
H1615 H 0.44874 0.40125 0.80878 0.0
H1616 H 0.46654 0.43596 0.82179 0.0
H1617 H 0.5173 0.44467 0.80992 0.0
H1618 H 0.49966 0.40978 0.7971 0.0
H1619 H 0.52781 0.41753 0.81533 0.0
H1620 H 0.47913 0.34011 0.87284 0.0
H1621 H 0.45161 0.29718 0.85096 0.0
H1622 H 0.45365 0.35455 0.80377 0.0
C1623 C 0.51134 0.45005 0.85453 0.0
C1624 C 0.52222 0.45732 0.87425 0.0
C1625 C 0.51905 0.4346 0.88717 0.0
C1626 C 0.50582 0.40533 0.88059 0.0
C1627 C 0.49586 0.39902 0.86101 0.0
C1628 C 0.49818 0.42061 0.84818 0.0
C1629 C 0.48522 0.40762 0.82794 0.0
C1630 C 0.45909 0.41211 0.82309 0.0
C1631 C 0.50892 0.42069 0.81161 0.0
C1632 C 0.47513 0.37532 0.83146 0.0
C1633 C 0.48169 0.37103 0.85065 0.0
C1634 C 0.47393 0.34319 0.85778 0.0
C1635 C 0.45832 0.31894 0.8452 0.0
C1636 C 0.45061 0.3225 0.82562 0.0
C1637 C 0.45969 0.3512 0.81852 0.0
H1638 H 0.55926 0.65449 0.67562 0.0
H1639 H 0.57557 0.68205 0.61381 0.0
H1640 H 0.60048 0.73407 0.62447 0.0
H1641 H 0.54481 0.71281 0.69223 0.0
H1642 H 0.56219 0.71671 0.71602 0.0
H1643 H 0.5448 0.68162 0.70347 0.0
H1644 H 0.59356 0.68053 0.70552 0.0
H1645 H 0.61122 0.71581 0.71782 0.0
H1646 H 0.6268 0.71068 0.69528 0.0
H1647 H 0.62701 0.78291 0.64175 0.0
H1648 H 0.6478 0.82571 0.6643 0.0
H1649 H 0.61234 0.76706 0.71508 0.0
C1650 C 0.56775 0.67146 0.66431 0.0
C1651 C 0.56547 0.66412 0.64384 0.0
C1652 C 0.57685 0.68703 0.62954 0.0
C1653 C 0.59121 0.71668 0.63546 0.0
C1654 C 0.59371 0.72313 0.65573 0.0
C1655 C 0.58181 0.70121 0.66994 0.0
C1656 C 0.58728 0.71422 0.69076 0.0
C1657 C 0.55803 0.70585 0.70123 0.0
C1658 C 0.60582 0.70474 0.70306 0.0
C1659 C 0.60451 0.74688 0.68602 0.0
C1660 C 0.60817 0.75145 0.66572 0.0
C1661 C 0.62403 0.77961 0.65766 0.0
C1662 C 0.63595 0.80381 0.67064 0.0
C1663 C 0.63172 0.79982 0.69149 0.0
C1664 C 0.61593 0.77087 0.69923 0.0
H1665 H 0.2274 0.83809 0.67957 0.0
H1666 H 0.25956 0.83102 0.7376 0.0
H1667 H 0.31041 0.85627 0.72459 0.0
H1668 H 0.27824 0.82537 0.65057 0.0
H1669 H 0.28295 0.85143 0.63144 0.0
H1670 H 0.24888 0.83273 0.64515 0.0
H1671 H 0.25433 0.8829 0.65531 0.0
H1672 H 0.28824 0.90173 0.64147 0.0
H1673 H 0.28763 0.91003 0.66744 0.0
H1674 H 0.35765 0.88333 0.70581 0.0
H1675 H 0.3988 0.91192 0.6827 0.0
H1676 H 0.33674 0.90046 0.63615 0.0
C1677 C 0.24515 0.84197 0.68958 0.0
C1678 C 0.23944 0.83263 0.70968 0.0
C1679 C 0.26332 0.83799 0.7222 0.0
C1680 C 0.29229 0.85223 0.71491 0.0
C1681 C 0.2971 0.86085 0.69501 0.0
C1682 C 0.27426 0.85601 0.6825 0.0
C1683 C 0.28562 0.86785 0.66177 0.0
C1684 C 0.27318 0.84285 0.64632 0.0
C1685 C 0.27854 0.89207 0.65618 0.0
C1686 C 0.31849 0.88041 0.66466 0.0
C1687 C 0.3245 0.876 0.68397 0.0
C1688 C 0.3532 0.8867 0.69062 0.0
C1689 C 0.37642 0.90289 0.67737 0.0
C1690 C 0.37097 0.90814 0.65758 0.0
C1691 C 0.34154 0.89624 0.65105 0.0
H1692 H 0.16772 0.40576 0.71678 0.0
H1693 H 0.19158 0.37136 0.66564 0.0
H1694 H 0.16836 0.39108 0.64339 0.0
H1695 H 0.09605 0.38936 0.69754 0.0
H1696 H 0.09839 0.42216 0.70798 0.0
H1697 H 0.11691 0.40527 0.71996 0.0
H1698 H 0.16614 0.45479 0.71803 0.0
H1699 H 0.14784 0.47172 0.7058 0.0
H1700 H 0.17924 0.47245 0.69425 0.0
H1701 H 0.14511 0.41679 0.62641 0.0
H1702 H 0.11736 0.44105 0.61605 0.0
H1703 H 0.10596 0.4568 0.67802 0.0
C1704 C 0.16778 0.40213 0.70092 0.0
C1705 C 0.18152 0.38698 0.69299 0.0
C1706 C 0.18111 0.38272 0.67213 0.0
C1707 C 0.16812 0.39402 0.65932 0.0
C1708 C 0.1553 0.40931 0.66755 0.0
C1709 C 0.15451 0.41294 0.68787 0.0
C1710 C 0.13854 0.4296 0.6928 0.0
C1711 C 0.11082 0.41045 0.7053 0.0
C1712 C 0.15918 0.45888 0.70334 0.0
C1713 C 0.13062 0.43482 0.67207 0.0
C1714 C 0.14087 0.42327 0.65774 0.0
C1715 C 0.13678 0.42575 0.63751 0.0
C1716 C 0.12113 0.43976 0.63176 0.0
C1717 C 0.10938 0.45082 0.64618 0.0
C1718 C 0.11457 0.44854 0.66661 0.0
H1719 H 0.31941 0.8799 0.19704 0.0
H1720 H 0.34858 0.89575 0.2585 0.0
H1721 H 0.40043 0.92114 0.24711 0.0
H1722 H 0.37788 0.86663 0.1787 0.0
H1723 H 0.38051 0.88425 0.15518 0.0
H1724 H 0.34594 0.8661 0.16834 0.0
H1725 H 0.34373 0.91434 0.16731 0.0
H1726 H 0.37852 0.93278 0.15446 0.0
H1727 H 0.37382 0.94771 0.17745 0.0
H1728 H 0.44896 0.94872 0.22888 0.0
H1729 H 0.4908 0.97068 0.20551 0.0
H1730 H 0.4302 0.93505 0.15575 0.0
C1731 C 0.33669 0.8883 0.20814 0.0
C1732 C 0.32989 0.88582 0.22871 0.0
C1733 C 0.35318 0.89714 0.24271 0.0
C1734 C 0.38271 0.91179 0.23636 0.0
C1735 C 0.38859 0.91459 0.21596 0.0
C1736 C 0.36622 0.90264 0.20207 0.0
C1737 C 0.37844 0.90864 0.18103 0.0
C1738 C 0.37021 0.87968 0.17018 0.0
C1739 C 0.368 0.92696 0.16939 0.0
C1740 C 0.41122 0.92632 0.18522 0.0
C1741 C 0.41656 0.92968 0.20547 0.0
C1742 C 0.44502 0.94594 0.21301 0.0
C1743 C 0.46867 0.95853 0.19956 0.0
C1744 C 0.46388 0.95464 0.17874 0.0
C1745 C 0.43465 0.93844 0.17155 0.0
H1746 H 0.11408 0.45668 0.23135 0.0
H1747 H 0.15266 0.43683 0.18064 0.0
H1748 H 0.13555 0.46246 0.15855 0.0
H1749 H 0.04952 0.44579 0.20634 0.0
H1750 H 0.04793 0.47567 0.21845 0.0
H1751 H 0.06465 0.45735 0.23094 0.0
H1752 H 0.11287 0.50723 0.23553 0.0
H1753 H 0.09618 0.52575 0.22325 0.0
H1754 H 0.13044 0.53004 0.21411 0.0
H1755 H 0.11254 0.48764 0.14146 0.0
H1756 H 0.0873 0.51403 0.13049 0.0
H1757 H 0.06292 0.5184 0.19167 0.0
C1758 C 0.11936 0.45822 0.21566 0.0
C1759 C 0.13479 0.4447 0.20778 0.0
C1760 C 0.14084 0.44687 0.18708 0.0
C1761 C 0.13119 0.4614 0.17436 0.0
C1762 C 0.11543 0.47377 0.18245 0.0
C1763 C 0.10971 0.47264 0.20261 0.0
C1764 C 0.09164 0.48734 0.20717 0.0
C1765 C 0.06166 0.46521 0.21627 0.0
C1766 C 0.10881 0.51419 0.22082 0.0
C1767 C 0.08804 0.49663 0.18642 0.0
C1768 C 0.10197 0.48849 0.17244 0.0
C1769 C 0.10166 0.49428 0.15227 0.0
C1770 C 0.08714 0.50923 0.14617 0.0
C1771 C 0.07304 0.51832 0.16016 0.0
C1772 C 0.07335 0.51166 0.18057 0.0
H1773 H 0.56737 0.65859 0.23063 0.0
H1774 H 0.59744 0.7179 0.17997 0.0
H1775 H 0.57287 0.67554 0.15728 0.0
H1776 H 0.5771 0.60212 0.20815 0.0
H1777 H 0.54456 0.57187 0.219 0.0
H1778 H 0.56339 0.60683 0.23168 0.0
H1779 H 0.51516 0.60903 0.23263 0.0
H1780 H 0.49611 0.57394 0.22012 0.0
H1781 H 0.49565 0.6054 0.20978 0.0
H1782 H 0.5465 0.62721 0.1398 0.0
H1783 H 0.518 0.57557 0.12863 0.0
H1784 H 0.50478 0.54648 0.19014 0.0
C1785 C 0.56847 0.66266 0.21479 0.0
C1786 C 0.5844 0.69172 0.20715 0.0
C1787 C 0.58549 0.69597 0.18626 0.0
C1788 C 0.5716 0.672 0.17319 0.0
C1789 C 0.55661 0.64373 0.18114 0.0
C1790 C 0.55475 0.63885 0.20142 0.0
C1791 C 0.53749 0.60603 0.2059 0.0
C1792 C 0.55679 0.59614 0.21683 0.0
C1793 C 0.50944 0.59814 0.21781 0.0
C1794 C 0.53012 0.59336 0.18497 0.0
C1795 C 0.5414 0.61558 0.17095 0.0
C1796 C 0.53751 0.6096 0.15063 0.0
C1797 C 0.52132 0.58013 0.14443 0.0
C1798 C 0.50918 0.55686 0.15846 0.0
C1799 C 0.51392 0.5637 0.17902 0.0
H1800 H 0.1106 0.66051 0.73471 0.0
H1801 H 0.13922 0.71843 0.68333 0.0
H1802 H 0.12203 0.67552 0.66118 0.0
H1803 H 0.13025 0.60772 0.71497 0.0
H1804 H 0.09853 0.57621 0.72554 0.0
H1805 H 0.11397 0.6116 0.73759 0.0
H1806 H 0.0631 0.6084 0.73618 0.0
H1807 H 0.04757 0.57311 0.72399 0.0
H1808 H 0.04474 0.60266 0.71256 0.0
H1809 H 0.10101 0.62656 0.64429 0.0
H1810 H 0.07853 0.57457 0.63388 0.0
H1811 H 0.0626 0.54749 0.69579 0.0
C1812 C 0.11352 0.66418 0.71882 0.0
C1813 C 0.12636 0.69301 0.71084 0.0
C1814 C 0.12946 0.69669 0.6899 0.0
C1815 C 0.11974 0.67241 0.67713 0.0
C1816 C 0.10683 0.64435 0.68542 0.0
C1817 C 0.10376 0.64003 0.70576 0.0
C1818 C 0.08865 0.60738 0.71067 0.0
C1819 C 0.10907 0.60032 0.72292 0.0
C1820 C 0.05927 0.5973 0.72149 0.0
C1821 C 0.08368 0.59414 0.68992 0.0
C1822 C 0.09439 0.61592 0.6756 0.0
C1823 C 0.09254 0.60929 0.65537 0.0
C1824 C 0.07966 0.57964 0.6496 0.0
C1825 C 0.06865 0.55682 0.66396 0.0
C1826 C 0.0706 0.56433 0.6844 0.0
H1827 H 0.35543 0.45494 0.73296 0.0
H1828 H 0.29738 0.42706 0.68167 0.0
H1829 H 0.34004 0.45418 0.65959 0.0
H1830 H 0.40859 0.52876 0.71405 0.0
H1831 H 0.44003 0.52801 0.72413 0.0
H1832 H 0.40474 0.50793 0.73628 0.0
H1833 H 0.40753 0.46009 0.7338 0.0
H1834 H 0.44268 0.47996 0.72148 0.0
H1835 H 0.41282 0.44794 0.70983 0.0
H1836 H 0.38851 0.4822 0.64266 0.0
H1837 H 0.44036 0.51116 0.63199 0.0
H1838 H 0.46827 0.52092 0.69369 0.0
C1839 C 0.35173 0.45501 0.71713 0.0
C1840 C 0.32296 0.43887 0.70909 0.0
C1841 C 0.31913 0.43914 0.68822 0.0
C1842 C 0.34325 0.45452 0.6755 0.0
C1843 C 0.37129 0.46959 0.68377 0.0
C1844 C 0.37577 0.47016 0.70408 0.0
C1845 C 0.40849 0.4874 0.70885 0.0
C1846 C 0.4159 0.51464 0.72158 0.0
C1847 C 0.41846 0.46766 0.7191 0.0
C1848 C 0.42151 0.49614 0.68807 0.0
C1849 C 0.39957 0.48565 0.67388 0.0
C1850 C 0.40592 0.49064 0.65364 0.0
C1851 C 0.4355 0.50706 0.64771 0.0
C1852 C 0.45849 0.5183 0.66194 0.0
C1853 C 0.45126 0.51256 0.68241 0.0
H1854 H 0.57237 0.91359 0.73183 0.0
H1855 H 0.59822 0.88101 0.68065 0.0
H1856 H 0.57425 0.89972 0.65839 0.0
H1857 H 0.50063 0.89772 0.71204 0.0
H1858 H 0.50316 0.93072 0.72226 0.0
H1859 H 0.52124 0.91359 0.73455 0.0
H1860 H 0.57075 0.96282 0.73277 0.0
H1861 H 0.55289 0.97999 0.72025 0.0
H1862 H 0.58428 0.98034 0.70899 0.0
H1863 H 0.54925 0.92278 0.64132 0.0
H1864 H 0.52171 0.94689 0.63038 0.0
H1865 H 0.51183 0.96592 0.6919 0.0
C1866 C 0.57254 0.91003 0.71597 0.0
C1867 C 0.58723 0.89579 0.70802 0.0
C1868 C 0.58728 0.89193 0.68714 0.0
C1869 C 0.57372 0.9025 0.67431 0.0
C1870 C 0.56015 0.91705 0.68249 0.0
C1871 C 0.55918 0.92071 0.7028 0.0
C1872 C 0.54338 0.9377 0.70744 0.0
C1873 C 0.51544 0.9188 0.7198 0.0
C1874 C 0.56406 0.96695 0.71799 0.0
C1875 C 0.53579 0.94296 0.68657 0.0
C1876 C 0.54575 0.93081 0.67247 0.0
C1877 C 0.54129 0.93238 0.6522 0.0
C1878 C 0.52568 0.94622 0.64613 0.0
C1879 C 0.51472 0.95846 0.66023 0.0
C1880 C 0.52023 0.95711 0.68074 0.0
H1881 H 0.26253 0.41383 0.21112 0.0
H1882 H 0.20265 0.38409 0.1608 0.0
H1883 H 0.24486 0.40291 0.13781 0.0
H1884 H 0.31977 0.4803 0.18888 0.0
H1885 H 0.34955 0.47707 0.19951 0.0
H1886 H 0.31469 0.46152 0.21225 0.0
H1887 H 0.3111 0.41041 0.21272 0.0
H1888 H 0.3461 0.42589 0.20018 0.0
H1889 H 0.31421 0.39447 0.1897 0.0
H1890 H 0.29373 0.42664 0.12001 0.0
H1891 H 0.34547 0.44838 0.10895 0.0
H1892 H 0.37374 0.4608 0.17061 0.0
C1893 C 0.25831 0.41113 0.19527 0.0
C1894 C 0.22918 0.39745 0.18782 0.0
C1895 C 0.22468 0.39433 0.16695 0.0
C1896 C 0.24856 0.40513 0.15371 0.0
C1897 C 0.27696 0.41882 0.1615 0.0
C1898 C 0.28197 0.42147 0.18179 0.0
C1899 C 0.31469 0.4363 0.18622 0.0
C1900 C 0.32529 0.46553 0.19738 0.0
C1901 C 0.32195 0.41552 0.19789 0.0
C1902 C 0.32721 0.44155 0.16528 0.0
C1903 C 0.30509 0.43164 0.15123 0.0
C1904 C 0.31125 0.43436 0.13089 0.0
C1905 C 0.34074 0.44691 0.12473 0.0
C1906 C 0.36374 0.45629 0.13886 0.0
C1907 C 0.35672 0.45381 0.1594 0.0
H1908 H 0.58061 0.89965 0.13749 0.0
H1909 H 0.53463 0.91418 0.18601 0.0
H1910 H 0.54886 0.88655 0.20864 0.0
H1911 H 0.5637 0.82538 0.15236 0.0
H1912 H 0.59953 0.83149 0.14536 0.0
H1913 H 0.58391 0.85058 0.13251 0.0
H1914 H 0.6304 0.90047 0.14081 0.0
H1915 H 0.64601 0.88157 0.15386 0.0
H1916 H 0.6417 0.90961 0.16637 0.0
H1917 H 0.56931 0.859 0.22646 0.0
H1918 H 0.59422 0.83242 0.23816 0.0
H1919 H 0.6286 0.83685 0.17867 0.0
C1920 C 0.5731 0.8965 0.15278 0.0
C1921 C 0.55635 0.90894 0.15995 0.0
C1922 C 0.54747 0.90487 0.18017 0.0
C1923 C 0.55543 0.88918 0.19317 0.0
C1924 C 0.57249 0.87779 0.18581 0.0
C1925 C 0.58121 0.88114 0.16609 0.0
C1926 C 0.60055 0.86769 0.16233 0.0
C1927 C 0.58605 0.84227 0.14725 0.0
C1928 C 0.6315 0.89125 0.15544 0.0
C1929 C 0.60139 0.85645 0.18298 0.0
C1930 C 0.58492 0.8624 0.19626 0.0
C1931 C 0.58226 0.85416 0.2162 0.0
C1932 C 0.59656 0.83914 0.22273 0.0
C1933 C 0.6135 0.83266 0.2094 0.0
C1934 C 0.61601 0.84166 0.18929 0.0
H1935 H 0.16928 0.76266 0.21475 0.0
H1936 H 0.20973 0.82197 0.16482 0.0
H1937 H 0.18768 0.77971 0.14176 0.0
H1938 H 0.17774 0.70309 0.19601 0.0
H1939 H 0.14254 0.67455 0.20504 0.0
H1940 H 0.1616 0.70941 0.21783 0.0
H1941 H 0.11605 0.71594 0.21402 0.0
H1942 H 0.09674 0.68097 0.20142 0.0
H1943 H 0.10077 0.71364 0.18964 0.0
H1944 H 0.16248 0.73076 0.12404 0.0
H1945 H 0.13171 0.67922 0.11276 0.0
H1946 H 0.10616 0.65182 0.17395 0.0
C1947 C 0.17336 0.76677 0.19896 0.0
C1948 C 0.19128 0.79571 0.19163 0.0
C1949 C 0.19601 0.80008 0.17083 0.0
C1950 C 0.18371 0.77617 0.15759 0.0
C1951 C 0.16649 0.74793 0.16529 0.0
C1952 C 0.16097 0.74313 0.18546 0.0
C1953 C 0.14099 0.71061 0.18978 0.0
C1954 C 0.15667 0.69872 0.20294 0.0
C1955 C 0.11191 0.70497 0.19927 0.0
C1956 C 0.13615 0.69796 0.16891 0.0
C1957 C 0.15133 0.71981 0.15502 0.0
C1958 C 0.1504 0.71346 0.13478 0.0
C1959 C 0.13298 0.68408 0.12852 0.0
C1960 C 0.11644 0.66141 0.14242 0.0
C1961 C 0.11846 0.66858 0.16291 0.0
H1962 H 0.372 0.26416 0.11053 0.0
H1963 H 0.39519 0.27424 0.04797 0.0
H1964 H 0.43668 0.32442 0.05485 0.0
H1965 H 0.3764 0.32832 0.11604 0.0
H1966 H 0.39072 0.33608 0.14105 0.0
H1967 H 0.36998 0.2987 0.13265 0.0
H1968 H 0.41332 0.29048 0.14166 0.0
H1969 H 0.43434 0.32809 0.15019 0.0
H1970 H 0.44945 0.31461 0.13157 0.0
H1971 H 0.4662 0.37612 0.06665 0.0
H1972 H 0.479 0.42416 0.08133 0.0
H1973 H 0.43604 0.38137 0.13628 0.0
C1974 C 0.38649 0.27648 0.09835 0.0
C1975 C 0.3804 0.26533 0.07868 0.0
C1976 C 0.39965 0.28219 0.06316 0.0
C1977 C 0.42329 0.31071 0.067 0.0
C1978 C 0.42754 0.32174 0.08644 0.0
C1979 C 0.40976 0.30489 0.10192 0.0
C1980 C 0.41502 0.32309 0.12062 0.0
C1981 C 0.38635 0.32146 0.12798 0.0
C1982 C 0.42887 0.3135 0.13698 0.0
C1983 C 0.43684 0.35343 0.11289 0.0
C1984 C 0.44463 0.35202 0.09335 0.0
C1985 C 0.46106 0.3774 0.08209 0.0
C1986 C 0.46832 0.40464 0.09057 0.0
C1987 C 0.45906 0.40635 0.11008 0.0
C1988 C 0.44442 0.38064 0.12169 0.0
H1989 H 0.63383 0.05634 0.14316 0.0
H1990 H 0.58479 0.04852 0.08976 0.0
H1991 H 0.63057 0.08489 0.07296 0.0
H1992 H 0.69637 0.13862 0.13484 0.0
H1993 H 0.72282 0.12967 0.1448 0.0
H1994 H 0.6858 0.11193 0.15456 0.0
H1995 H 0.68076 0.06108 0.14737 0.0
H1996 H 0.71725 0.07844 0.13731 0.0
H1997 H 0.68664 0.05242 0.12239 0.0
H1998 H 0.68169 0.10857 0.05921 0.0
H1999 H 0.7323 0.11962 0.05101 0.0
H2000 H 0.74864 0.1144 0.11363 0.0
C2001 C 0.63264 0.06413 0.12847 0.0
C2002 C 0.60589 0.05064 0.11795 0.0
C2003 C 0.60504 0.05962 0.09827 0.0
C2004 C 0.63102 0.08013 0.08857 0.0
C2005 C 0.6576 0.09168 0.09888 0.0
C2006 C 0.65847 0.08463 0.11866 0.0
C2007 C 0.68981 0.09567 0.12539 0.0
C2008 C 0.69926 0.12046 0.14081 0.0
C2009 C 0.69381 0.0704 0.13356 0.0
C2010 C 0.70607 0.1075 0.10594 0.0
C2011 C 0.68738 0.10576 0.09087 0.0
C2012 C 0.69677 0.11108 0.07102 0.0
C2013 C 0.72557 0.11734 0.06644 0.0
C2014 C 0.74441 0.11789 0.08166 0.0
C2015 C 0.73482 0.11434 0.10166 0.0
H2016 H 0.9175 0.62833 0.05277 0.0
H2017 H 0.8644 0.61768 0.10468 0.0
H2018 H 0.87791 0.58284 0.11895 0.0
H2019 H 0.9109 0.55009 0.05467 0.0
H2020 H 0.94893 0.56672 0.04718 0.0
H2021 H 0.92624 0.58081 0.0377 0.0
H2022 H 0.96456 0.63275 0.05036 0.0
H2023 H 0.9869 0.61891 0.06029 0.0
H2024 H 0.97436 0.63796 0.07636 0.0
H2025 H 0.90879 0.5629 0.13202 0.0
H2026 H 0.95142 0.55716 0.14118 0.0
H2027 H 0.98486 0.58071 0.081 0.0
C2028 C 0.90698 0.61679 0.06637 0.0
C2029 C 0.88934 0.62495 0.0774 0.0
C2030 C 0.8773 0.61097 0.09579 0.0
C2031 C 0.88503 0.59127 0.10406 0.0
C2032 C 0.90472 0.58562 0.09369 0.0
C2033 C 0.91498 0.59742 0.07494 0.0
C2034 C 0.94015 0.59286 0.06861 0.0
C2035 C 0.931 0.57133 0.051 0.0
C2036 C 0.96811 0.62237 0.06365 0.0
C2037 C 0.9441 0.57919 0.08732 0.0
C2038 C 0.923 0.57432 0.10145 0.0
C2039 C 0.92485 0.56566 0.12084 0.0
C2040 C 0.94916 0.56253 0.12598 0.0
C2041 C 0.97146 0.56856 0.11185 0.0
C2042 C 0.96811 0.57585 0.09215 0.0
H2043 H 0.29443 0.38144 0.47682 0.0
H2044 H 0.2554 0.39531 0.4244 0.0
H2045 H 0.30473 0.43028 0.41139 0.0
H2046 H 0.36696 0.4591 0.47708 0.0
H2047 H 0.38748 0.44163 0.48466 0.0
H2048 H 0.35027 0.42762 0.49339 0.0
H2049 H 0.3365 0.37607 0.47981 0.0
H2050 H 0.37314 0.38986 0.47062 0.0
H2051 H 0.34234 0.37195 0.45382 0.0
H2052 H 0.35604 0.45039 0.39953 0.0
H2053 H 0.40458 0.45602 0.39113 0.0
H2054 H 0.41078 0.42868 0.45092 0.0
C2055 C 0.29643 0.39366 0.46337 0.0
C2056 C 0.27135 0.3865 0.45185 0.0
C2057 C 0.27449 0.40129 0.43366 0.0
C2058 C 0.30247 0.4211 0.42612 0.0
C2059 C 0.32709 0.4259 0.437 0.0
C2060 C 0.32435 0.4131 0.45552 0.0
C2061 C 0.35354 0.41686 0.46236 0.0
C2062 C 0.36526 0.43755 0.48044 0.0
C2063 C 0.35121 0.38692 0.46689 0.0
C2064 C 0.37223 0.43122 0.44413 0.0
C2065 C 0.35699 0.43716 0.42988 0.0
C2066 C 0.36856 0.44676 0.41081 0.0
C2067 C 0.39608 0.44977 0.40611 0.0
C2068 C 0.41139 0.4427 0.42033 0.0
C2069 C 0.39965 0.43436 0.43972 0.0
H2070 H 0.58068 0.9795 0.44758 0.0
H2071 H 0.56676 0.95741 0.38485 0.0
H2072 H 0.57444 0.91522 0.39101 0.0
H2073 H 0.63957 0.97363 0.45237 0.0
H2074 H 0.63282 0.95876 0.47722 0.0
H2075 H 0.6168 0.98021 0.46933 0.0
H2076 H 0.56485 0.93724 0.47826 0.0
H2077 H 0.58085 0.91549 0.48624 0.0
H2078 H 0.55216 0.90122 0.46772 0.0
H2079 H 0.59606 0.88509 0.40194 0.0
H2080 H 0.63123 0.87173 0.41584 0.0
H2081 H 0.63203 0.91337 0.47159 0.0
C2082 C 0.57813 0.96514 0.43521 0.0
C2083 C 0.57315 0.97173 0.4157 0.0
C2084 C 0.57027 0.95261 0.39993 0.0
C2085 C 0.57452 0.92854 0.40335 0.0
C2086 C 0.58118 0.92372 0.42264 0.0
C2087 C 0.58261 0.94139 0.43838 0.0
C2088 C 0.59535 0.9354 0.45683 0.0
C2089 C 0.62275 0.96366 0.46434 0.0
C2090 C 0.57189 0.9215 0.47323 0.0
C2091 C 0.60327 0.91337 0.44863 0.0
C2092 C 0.5939 0.90608 0.42908 0.0
C2093 C 0.60258 0.88979 0.41739 0.0
C2094 C 0.62252 0.88222 0.42541 0.0
C2095 C 0.63365 0.89099 0.44491 0.0
C2096 C 0.62276 0.90537 0.45698 0.0
H2097 H 0.10086 0.7247 0.48033 0.0
H2098 H 0.15109 0.77048 0.42824 0.0
H2099 H 0.13956 0.72312 0.41289 0.0
H2100 H 0.11312 0.65654 0.47627 0.0
H2101 H 0.07576 0.63297 0.48454 0.0
H2102 H 0.09698 0.66992 0.49421 0.0
H2103 H 0.05565 0.68017 0.48333 0.0
H2104 H 0.03472 0.64383 0.4732 0.0
H2105 H 0.04452 0.67533 0.45758 0.0
H2106 H 0.11014 0.672 0.39936 0.0
H2107 H 0.06897 0.62254 0.39037 0.0
H2108 H 0.03842 0.60963 0.45146 0.0
C2109 C 0.11127 0.72468 0.46641 0.0
C2110 C 0.12769 0.75105 0.45574 0.0
C2111 C 0.13946 0.75046 0.43693 0.0
C2112 C 0.13277 0.72358 0.42804 0.0
C2113 C 0.11452 0.69755 0.43828 0.0
C2114 C 0.10461 0.69794 0.45737 0.0
C2115 C 0.08112 0.66741 0.46378 0.0
C2116 C 0.09243 0.65604 0.4807 0.0
C2117 C 0.05234 0.66669 0.46979 0.0
C2118 C 0.07741 0.65044 0.44476 0.0
C2119 C 0.09733 0.66783 0.43034 0.0
C2120 C 0.09511 0.65787 0.41074 0.0
C2121 C 0.07161 0.62978 0.40571 0.0
C2122 C 0.05048 0.61228 0.42019 0.0
C2123 C 0.0543 0.62244 0.44005 0.0
H2124 H 0.58742 0.60919 0.95099 0.0
H2125 H 0.55728 0.61839 0.89297 0.0
H2126 H 0.56265 0.66619 0.90345 0.0
H2127 H 0.55864 0.65312 0.98083 0.0
H2128 H 0.5911 0.66835 0.99623 0.0
H2129 H 0.5754 0.6313 0.98673 0.0
H2130 H 0.62574 0.64449 0.97115 0.0
H2131 H 0.64145 0.68121 0.98057 0.0
H2132 H 0.64333 0.67529 0.9543 0.0
H2133 H 0.58477 0.71719 0.91621 0.0
H2134 H 0.62222 0.76574 0.92901 0.0
H2135 H 0.63753 0.72414 0.97938 0.0
C2136 C 0.58081 0.62077 0.94078 0.0
C2137 C 0.57199 0.61031 0.92119 0.0
C2138 C 0.56374 0.62595 0.90811 0.0
C2139 C 0.56669 0.65306 0.91401 0.0
C2140 C 0.57724 0.66372 0.93314 0.0
C2141 C 0.58368 0.64769 0.94646 0.0
C2142 C 0.59963 0.66576 0.96464 0.0
C2143 C 0.58001 0.65393 0.98321 0.0
C2144 C 0.62927 0.66676 0.96781 0.0
C2145 C 0.60392 0.69546 0.95864 0.0
C2146 C 0.58983 0.69358 0.94078 0.0
C2147 C 0.59488 0.71878 0.93052 0.0
C2148 C 0.6161 0.74633 0.93795 0.0
C2149 C 0.63201 0.7485 0.95545 0.0
C2150 C 0.62457 0.72295 0.96651 0.0
H2151 H 0.29516 0.91418 0.97052 0.0
H2152 H 0.25521 0.87727 0.91368 0.0
H2153 H 0.3036 0.88869 0.90022 0.0
H2154 H 0.35069 0.97377 0.9526 0.0
H2155 H 0.37889 0.97804 0.96982 0.0
H2156 H 0.34098 0.95796 0.97717 0.0
H2157 H 0.34579 0.91235 0.98552 0.0
H2158 H 0.38409 0.93253 0.97839 0.0
H2159 H 0.35964 0.89746 0.96699 0.0
H2160 H 0.3563 0.91547 0.89048 0.0
H2161 H 0.40797 0.95501 0.88563 0.0
H2162 H 0.41437 0.97517 0.94863 0.0
C2163 C 0.29653 0.90683 0.95569 0.0
C2164 C 0.27162 0.89404 0.94328 0.0
C2165 C 0.27411 0.8863 0.92352 0.0
C2166 C 0.30151 0.89273 0.91577 0.0
C2167 C 0.32621 0.90701 0.92798 0.0
C2168 C 0.32391 0.91361 0.94768 0.0
C2169 C 0.35399 0.93391 0.9565 0.0
C2170 C 0.35624 0.96259 0.96446 0.0
C2171 C 0.3613 0.91811 0.97281 0.0
C2172 C 0.37321 0.93953 0.93834 0.0
C2173 C 0.35701 0.92316 0.92218 0.0
C2174 C 0.36942 0.92774 0.90317 0.0
C2175 C 0.3988 0.95026 0.90051 0.0
C2176 C 0.41515 0.96814 0.91674 0.0
C2177 C 0.40247 0.96171 0.93595 0.0
H2178 H 0.09736 0.37953 0.97951 0.0
H2179 H 0.15371 0.39578 0.92855 0.0
H2180 H 0.1434 0.43424 0.91692 0.0
H2181 H 0.04341 0.3753 0.95537 0.0
H2182 H 0.03029 0.39259 0.97257 0.0
H2183 H 0.05106 0.37647 0.98162 0.0
H2184 H 0.08912 0.42595 0.99772 0.0
H2185 H 0.06802 0.4423 0.98905 0.0
H2186 H 0.10655 0.45898 0.98287 0.0
H2187 H 0.1156 0.45813 0.90544 0.0
H2188 H 0.07414 0.46563 0.89606 0.0
H2189 H 0.03432 0.4329 0.95376 0.0
C2190 C 0.10919 0.39288 0.96678 0.0
C2191 C 0.12694 0.38549 0.95521 0.0
C2192 C 0.14073 0.40188 0.93787 0.0
C2193 C 0.13487 0.4237 0.93114 0.0
C2194 C 0.11513 0.42883 0.94191 0.0
C2195 C 0.10291 0.41426 0.95966 0.0
C2196 C 0.07771 0.41868 0.96612 0.0
C2197 C 0.04896 0.38901 0.96906 0.0
C2198 C 0.08585 0.43761 0.98506 0.0
C2199 C 0.07583 0.43537 0.94838 0.0
C2200 C 0.09823 0.44209 0.9349 0.0
C2201 C 0.09852 0.45387 0.91617 0.0
C2202 C 0.07489 0.45802 0.9109 0.0
C2203 C 0.05113 0.44975 0.92418 0.0
C2204 C 0.05236 0.43951 0.94337 0.0
H2205 H 0.72502 0.62833 0.56004 0.0
H2206 H 0.76962 0.63269 0.61503 0.0
H2207 H 0.72269 0.59541 0.62991 0.0
H2208 H 0.67112 0.63187 0.57963 0.0
H2209 H 0.64144 0.60698 0.56362 0.0
H2210 H 0.67856 0.62446 0.55471 0.0
H2211 H 0.67315 0.57366 0.5467 0.0
H2212 H 0.63556 0.55585 0.5554 0.0
H2213 H 0.66103 0.54589 0.56579 0.0
H2214 H 0.67129 0.57135 0.64199 0.0
H2215 H 0.62081 0.56139 0.64918 0.0
H2216 H 0.60837 0.57076 0.58646 0.0
C2217 C 0.72502 0.61977 0.57468 0.0
C2218 C 0.75082 0.63275 0.58627 0.0
C2219 C 0.75004 0.62243 0.60582 0.0
C2220 C 0.72344 0.60126 0.6144 0.0
C2221 C 0.69776 0.59042 0.60319 0.0
C2222 C 0.6984 0.5988 0.58352 0.0
C2223 C 0.66756 0.58853 0.57597 0.0
C2224 C 0.66453 0.6145 0.56805 0.0
C2225 C 0.65881 0.56455 0.56002 0.0
C2226 C 0.65 0.57581 0.5949 0.0
C2227 C 0.66755 0.57617 0.61031 0.0
C2228 C 0.65704 0.56991 0.62989 0.0
C2229 C 0.62832 0.56426 0.6339 0.0
C2230 C 0.61072 0.56531 0.6184 0.0
C2231 C 0.62128 0.56961 0.59861 0.0
H2232 H 0.38686 0.10052 0.55382 0.0
H2233 H 0.4052 0.15945 0.60358 0.0
H2234 H 0.4402 0.14549 0.61705 0.0
H2235 H 0.37776 0.04523 0.57981 0.0
H2236 H 0.39382 0.02988 0.56338 0.0
H2237 H 0.37988 0.05213 0.55341 0.0
H2238 H 0.43047 0.08745 0.53743 0.0
H2239 H 0.44459 0.06483 0.54701 0.0
H2240 H 0.46322 0.10368 0.55258 0.0
H2241 H 0.46121 0.11532 0.6299 0.0
H2242 H 0.46709 0.07304 0.63995 0.0
H2243 H 0.43398 0.03263 0.58239 0.0
C2244 C 0.4 0.11202 0.56671 0.0
C2245 C 0.39422 0.13171 0.57734 0.0
C2246 C 0.41017 0.14502 0.59493 0.0
C2247 C 0.42999 0.13708 0.60273 0.0
C2248 C 0.43358 0.11574 0.59276 0.0
C2249 C 0.41943 0.10378 0.57485 0.0
C2250 C 0.4221 0.07726 0.56914 0.0
C2251 C 0.39159 0.04953 0.5663 0.0
C2252 C 0.44125 0.0837 0.55043 0.0
C2253 C 0.43769 0.07475 0.58732 0.0
C2254 C 0.44505 0.09761 0.60053 0.0
C2255 C 0.45636 0.09778 0.61941 0.0
C2256 C 0.45958 0.07369 0.62506 0.0
C2257 C 0.45088 0.04961 0.61198 0.0
C2258 C 0.44085 0.05082 0.5927 0.0
H2259 H 0.97285 0.40777 0.58851 0.0
H2260 H 0.951 0.39188 0.65113 0.0
H2261 H 0.91078 0.3415 0.64299 0.0
H2262 H 0.89597 0.35617 0.56719 0.0
H2263 H 0.91207 0.34537 0.54755 0.0
H2264 H 0.93164 0.38236 0.55735 0.0
H2265 H 0.9767 0.37619 0.56483 0.0
H2266 H 0.95743 0.33949 0.5551 0.0
H2267 H 0.97186 0.34581 0.58007 0.0
H2268 H 0.88251 0.29029 0.62927 0.0
H2269 H 0.87206 0.24419 0.61241 0.0
H2270 H 0.91397 0.29284 0.55895 0.0
C2271 C 0.95884 0.39412 0.60048 0.0
C2272 C 0.96499 0.40374 0.62047 0.0
C2273 C 0.94643 0.38513 0.63571 0.0
C2274 C 0.92352 0.35647 0.63116 0.0
C2275 C 0.91933 0.347 0.61132 0.0
C2276 C 0.93643 0.36554 0.5962 0.0
C2277 C 0.93189 0.34906 0.57679 0.0
C2278 C 0.91699 0.35882 0.56131 0.0
C2279 C 0.96119 0.35285 0.56877 0.0
C2280 C 0.91124 0.31784 0.58359 0.0
C2281 C 0.90327 0.31717 0.60336 0.0
C2282 C 0.88772 0.29062 0.61365 0.0
C2283 C 0.88162 0.26446 0.60391 0.0
C2284 C 0.89127 0.26504 0.58417 0.0
C2285 C 0.9051 0.29182 0.57367 0.0
H2286 H 0.94693 0.72622 0.75968 0.0
H2287 H 0.96675 0.74054 0.82255 0.0
H2288 H 0.01759 0.77954 0.81447 0.0
H2289 H 1.0035 0.72149 0.74791 0.0
H2290 H 1.01097 0.73862 0.72373 0.0
H2291 H 0.97461 0.72217 0.73381 0.0
H2292 H 0.97497 0.77147 0.72991 0.0
H2293 H 0.01165 0.78821 0.71965 0.0
H2294 H 1.00427 0.80465 0.74084 0.0
H2295 H 0.06802 0.80476 0.80022 0.0
H2296 H 0.11147 0.80993 0.78236 0.0
H2297 H 0.05987 0.77626 0.72878 0.0
C2298 C 0.96161 0.73861 0.77176 0.0
C2299 C 0.95301 0.73048 0.79172 0.0
C2300 C 0.97277 0.74676 0.80716 0.0
C2301 C 1.00172 0.76895 0.80264 0.0
C2302 C 1.01033 0.77468 0.78265 0.0
C2303 C 0.99056 0.76008 0.76742 0.0
C2304 C 1.00602 0.76464 0.74759 0.0
C2305 C 0.99834 0.73499 0.73774 0.0
C2306 C 0.9988 0.78337 0.73368 0.0
C2307 C 0.03781 0.78161 0.75424 0.0
C2308 C 0.03991 0.78858 0.77432 0.0
C2309 C 0.06671 0.8004 0.7844 0.0
C2310 C 0.09139 0.80349 0.77411 0.0
C2311 C 0.08897 0.79434 0.75407 0.0
C2312 C 0.06233 0.78462 0.74382 0.0
H2313 H 0.25551 0.29282 0.73036 0.0
H2314 H 0.21918 0.30397 0.78522 0.0
H2315 H 0.2281 0.26705 0.80157 0.0
H2316 H 0.23482 0.21065 0.73901 0.0
H2317 H 0.2695 0.21858 0.72819 0.0
H2318 H 0.25053 0.23688 0.71899 0.0
H2319 H 0.29733 0.28743 0.72525 0.0
H2320 H 0.3162 0.26943 0.73453 0.0
H2321 H 0.31325 0.29612 0.74983 0.0
H2322 H 0.25354 0.24125 0.81423 0.0
H2323 H 0.29316 0.23003 0.82157 0.0
H2324 H 0.31307 0.23494 0.7587 0.0
C2325 C 0.24767 0.28583 0.74539 0.0
C2326 C 0.23579 0.30024 0.75641 0.0
C2327 C 0.22742 0.29227 0.77644 0.0
C2328 C 0.23246 0.27135 0.78583 0.0
C2329 C 0.24589 0.25861 0.77495 0.0
C2330 C 0.25295 0.2652 0.75499 0.0
C2331 C 0.27234 0.25336 0.74769 0.0
C2332 C 0.2558 0.22837 0.73258 0.0
C2333 C 0.30148 0.27806 0.73884 0.0
C2334 C 0.27731 0.24161 0.76697 0.0
C2335 C 0.26108 0.2438 0.78243 0.0
C2336 C 0.26558 0.23844 0.80214 0.0
C2337 C 0.28806 0.232 0.80623 0.0
C2338 C 0.30593 0.23151 0.79067 0.0
C2339 C 0.29936 0.23482 0.77081 0.0
H2340 H 0.73203 0.96552 0.72853 0.0
H2341 H 0.71846 0.92028 0.78454 0.0
H2342 H 0.75571 0.96647 0.80041 0.0
H2343 H 0.81465 0.02707 0.73787 0.0
H2344 H 0.80737 0.05351 0.72591 0.0
H2345 H 0.78929 0.01587 0.71729 0.0
H2346 H 0.73872 0.01264 0.7218 0.0
H2347 H 0.75643 0.04982 0.73061 0.0
H2348 H 0.72898 0.02068 0.74582 0.0
H2349 H 0.78098 0.01794 0.81224 0.0
H2350 H 0.79176 0.06892 0.81842 0.0
H2351 H 0.78984 0.0819 0.75495 0.0
C2352 C 0.73863 0.96517 0.74373 0.0
C2353 C 0.72335 0.93948 0.75522 0.0
C2354 C 0.73081 0.93974 0.77543 0.0
C2355 C 0.75192 0.96592 0.78455 0.0
C2356 C 0.76534 0.99162 0.77322 0.0
C2357 C 0.75941 0.99135 0.75307 0.0
C2358 C 0.7717 0.02235 0.74518 0.0
C2359 C 0.79728 0.03016 0.73071 0.0
C2360 C 0.74751 0.02659 0.73531 0.0
C2361 C 0.7827 0.03976 0.76432 0.0
C2362 C 0.7799 0.02189 0.78024 0.0
C2363 C 0.78429 0.03238 0.79982 0.0
C2364 C 0.79041 0.06137 0.80324 0.0
C2365 C 0.79159 0.07922 0.78716 0.0
C2366 C 0.78927 0.06871 0.7675 0.0
H2367 H 0.24502 0.93491 0.28621 0.0
H2368 H 0.22818 0.94364 0.22421 0.0
H2369 H 0.23885 0.99446 0.23083 0.0
H2370 H 0.22171 0.98849 0.30802 0.0
H2371 H 0.25142 1.00163 0.32574 0.0
H2372 H 0.23284 0.96361 0.31789 0.0
H2373 H 0.2829 0.96913 0.30743 0.0
H2374 H 0.3015 1.00689 0.31511 0.0
H2375 H 0.3059 0.99758 0.28999 0.0
H2376 H 0.26429 0.04645 0.24148 0.0
H2377 H 0.30267 0.09432 0.2546 0.0
H2378 H 0.30374 0.05296 0.30992 0.0
C2379 C 0.24242 0.94712 0.27417 0.0
C2380 C 0.23585 0.93543 0.25468 0.0
C2381 C 0.2329 0.95207 0.23929 0.0
C2382 C 0.23885 0.98094 0.24297 0.0
C2383 C 0.2472 0.99253 0.26216 0.0
C2384 C 0.24853 0.97588 0.27761 0.0
C2385 C 0.26323 0.9946 0.29583 0.0
C2386 C 0.24096 0.98661 0.31287 0.0
C2387 C 0.28996 0.9919 0.30244 0.0
C2388 C 0.27252 0.02489 0.28768 0.0
C2389 C 0.26207 0.02311 0.26847 0.0
C2390 C 0.27165 0.04811 0.2567 0.0
C2391 C 0.29346 0.07523 0.26426 0.0
C2392 C 0.30547 0.07717 0.28341 0.0
C2393 C 0.29387 0.05205 0.29561 0.0
H2394 H 0.94406 0.24983 0.25262 0.0
H2395 H 0.95942 0.23496 0.31372 0.0
H2396 H 1.00867 0.24329 0.30409 0.0
H2397 H 0.99095 0.22202 0.22734 0.0
H2398 H 1.0032 0.251 0.20912 0.0
H2399 H 0.96657 0.23493 0.21938 0.0
H2400 H 0.97685 0.28673 0.23014 0.0
H2401 H 0.01311 0.3028 0.21983 0.0
H2402 H 1.00839 0.30929 0.24557 0.0
H2403 H 0.05938 0.26485 0.28974 0.0
H2404 H 0.10606 0.30035 0.27344 0.0
H2405 H 0.05805 0.30238 0.22194 0.0
C2406 C 0.95735 0.24731 0.2639 0.0
C2407 C 0.94797 0.2418 0.28394 0.0
C2408 C 0.96606 0.23889 0.29825 0.0
C2409 C 0.99403 0.24349 0.29285 0.0
C2410 C 1.00325 0.2505 0.27306 0.0
C2411 C 0.98518 0.2521 0.25878 0.0
C2412 C 1.00155 0.26508 0.23951 0.0
C2413 C 0.98987 0.24186 0.22285 0.0
C2414 C 0.99989 0.2926 0.23345 0.0
C2415 C 0.03236 0.27285 0.24558 0.0
C2416 C 0.03275 0.26319 0.26472 0.0
C2417 C 0.05921 0.27154 0.27454 0.0
C2418 C 0.0857 0.29151 0.26511 0.0
C2419 C 0.08547 0.30308 0.24618 0.0
C2420 C 0.05867 0.29258 0.23597 0.0
H2421 H 0.78333 0.707 0.25597 0.0
H2422 H 0.78808 0.7305 0.3182 0.0
H2423 H 0.77976 0.77148 0.30903 0.0
H2424 H 0.81087 0.78447 0.23375 0.0
H2425 H 0.78451 0.76821 0.21385 0.0
H2426 H 0.80149 0.74865 0.22424 0.0
H2427 H 0.74994 0.70374 0.2314 0.0
H2428 H 0.73299 0.72294 0.22102 0.0
H2429 H 0.72398 0.70885 0.24605 0.0
H2430 H 0.75776 0.79966 0.29454 0.0
H2431 H 0.7212 0.80832 0.27746 0.0
H2432 H 0.72844 0.76505 0.22483 0.0
C2433 C 0.78379 0.72152 0.26762 0.0
C2434 C 0.78627 0.71561 0.28779 0.0
C2435 C 0.78654 0.73485 0.30264 0.0
C2436 C 0.78191 0.75824 0.2975 0.0
C2437 C 0.77752 0.76224 0.27747 0.0
C2438 C 0.77877 0.74446 0.26273 0.0
C2439 C 0.76744 0.74874 0.24305 0.0
C2440 C 0.79259 0.7634 0.22783 0.0
C2441 C 0.74209 0.71935 0.23495 0.0
C2442 C 0.75686 0.76957 0.24937 0.0
C2443 C 0.76416 0.7783 0.26902 0.0
C2444 C 0.75288 0.79389 0.27899 0.0
C2445 C 0.73229 0.79898 0.26913 0.0
C2446 C 0.72294 0.78813 0.24966 0.0
C2447 C 0.73646 0.77468 0.23937 0.0
loop_
_geom_bond_atom_site_label_1
_geom_bond_atom_site_label_2
_geom_bond_distance
_geom_bond_site_symmetry_2
_ccdc_geom_bond_type
O0 Cd1 2.223 . S
O0 C8 1.315 . S
Cd1 O0 2.223 . S
Cd1 O4 2.297 . S
Cd1 O5 2.439 . S
Cd1 O11 2.240 . S
Cd2 O3 2.240 . S
Cd2 O10 2.223 . S
Cd2 O12 2.297 . S
Cd2 O13 2.439 . S
O3 Cd2 2.240 . S
O3 C8 1.279 . S
O4 Cd1 2.297 . S
O4 C6 1.247 . S
O5 Cd1 2.439 . S
O5 C6 1.208 . S
C6 O4 1.247 . S
C6 O5 1.208 . S
C7 O12 1.247 . S
C7 O13 1.208 . S
C8 O0 1.315 . S
C8 O3 1.279 . S
C9 O10 1.315 . S
C9 O11 1.279 . S
O10 Cd2 2.223 . S
O10 C9 1.315 . S
O11 Cd1 2.240 . S
O11 C9 1.279 . S
O12 Cd2 2.297 . S
O12 C7 1.247 . S
O13 Cd2 2.439 . S
O13 C7 1.208 . S
O14 Cd15 2.223 . S
O14 C22 1.315 . S
Cd15 O14 2.223 . S
Cd15 O18 2.297 . S
Cd15 O19 2.439 . S
Cd15 O25 2.240 . S
Cd16 O17 2.240 . S
Cd16 O24 2.223 . S
Cd16 O26 2.297 . S
Cd16 O27 2.439 . S
O17 Cd16 2.240 . S
O17 C22 1.279 . S
O18 Cd15 2.297 . S
O18 C20 1.247 . S
O19 Cd15 2.439 . S
O19 C20 1.208 . S
C20 O18 1.247 . S
C20 O19 1.208 . S
C21 O26 1.247 . S
C21 O27 1.208 . S
C22 O14 1.315 . S
C22 O17 1.279 . S
C23 O24 1.315 . S
C23 O25 1.279 . S
O24 Cd16 2.223 . S
O24 C23 1.315 . S
O25 Cd15 2.240 . S
O25 C23 1.279 . S
O26 Cd16 2.297 . S
O26 C21 1.247 . S
O27 Cd16 2.439 . S
O27 C21 1.208 . S
O28 Cd29 2.223 . S
O28 C36 1.315 . S
Cd29 O28 2.223 . S
Cd29 O32 2.297 . S
Cd29 O33 2.439 . S
Cd29 O39 2.240 . S
Cd30 O31 2.240 . S
Cd30 O38 2.223 . S
Cd30 O40 2.297 . S
Cd30 O41 2.439 . S
O31 Cd30 2.240 . S
O31 C36 1.279 . S
O32 Cd29 2.297 . S
O32 C34 1.247 . S
O33 Cd29 2.439 . S
O33 C34 1.208 . S
C34 O32 1.247 . S
C34 O33 1.208 . S
C35 O40 1.247 . S
C35 O41 1.208 . S
C36 O28 1.315 . S
C36 O31 1.279 . S
C37 O38 1.315 . S
C37 O39 1.279 . S
O38 Cd30 2.223 . S
O38 C37 1.315 . S
O39 Cd29 2.240 . S
O39 C37 1.279 . S
O40 Cd30 2.297 . S
O40 C35 1.247 . S
O41 Cd30 2.439 . S
O41 C35 1.208 . S
O42 Cd43 2.223 . S
O42 C50 1.315 . S
Cd43 O42 2.223 . S
Cd43 O46 2.297 . S
Cd43 O47 2.439 . S
Cd43 O53 2.240 . S
Cd44 O45 2.240 . S
Cd44 O52 2.223 . S
Cd44 O54 2.297 . S
Cd44 O55 2.439 . S
O45 Cd44 2.240 . S
O45 C50 1.279 . S
O46 Cd43 2.297 . S
O46 C48 1.247 . S
O47 Cd43 2.439 . S
O47 C48 1.208 . S
C48 O46 1.247 . S
C48 O47 1.208 . S
C49 O54 1.247 . S
C49 O55 1.208 . S
C50 O42 1.315 . S
C50 O45 1.279 . S
C51 O52 1.315 . S
C51 O53 1.279 . S
O52 Cd44 2.223 . S
O52 C51 1.315 . S
O53 Cd43 2.240 . S
O53 C51 1.279 . S
O54 Cd44 2.297 . S
O54 C49 1.247 . S
O55 Cd44 2.439 . S
O55 C49 1.208 . S
O56 Cd57 2.223 . S
O56 C64 1.315 . S
Cd57 O56 2.223 . S
Cd57 O60 2.297 . S
Cd57 O61 2.439 . S
Cd57 O67 2.240 . S
Cd58 O59 2.240 . S
Cd58 O66 2.223 . S
Cd58 O68 2.297 . S
Cd58 O69 2.439 . S
O59 Cd58 2.240 . S
O59 C64 1.279 . S
O60 Cd57 2.297 . S
O60 C62 1.247 . S
O61 Cd57 2.439 . S
O61 C62 1.208 . S
C62 O60 1.247 . S
C62 O61 1.208 . S
C63 O68 1.247 . S
C63 O69 1.208 . S
C64 O56 1.315 . S
C64 O59 1.279 . S
C65 O66 1.315 . S
C65 O67 1.279 . S
O66 Cd58 2.223 . S
O66 C65 1.315 . S
O67 Cd57 2.240 . S
O67 C65 1.279 . S
O68 Cd58 2.297 . S
O68 C63 1.247 . S
O69 Cd58 2.439 . S
O69 C63 1.208 . S
O70 Cd71 2.223 . S
O70 C78 1.315 . S
Cd71 O70 2.223 . S
Cd71 O74 2.297 . S
Cd71 O75 2.439 . S
Cd71 O81 2.240 . S
Cd72 O73 2.240 . S
Cd72 O80 2.223 . S
Cd72 O82 2.297 . S
Cd72 O83 2.439 . S
O73 Cd72 2.240 . S
O73 C78 1.279 . S
O74 Cd71 2.297 . S
O74 C76 1.247 . S
O75 Cd71 2.439 . S
O75 C76 1.208 . S
C76 O74 1.247 . S
C76 O75 1.208 . S
C77 O82 1.247 . S
C77 O83 1.208 . S
C78 O70 1.315 . S
C78 O73 1.279 . S
C79 O80 1.315 . S
C79 O81 1.279 . S
O80 Cd72 2.223 . S
O80 C79 1.315 . S
O81 Cd71 2.240 . S
O81 C79 1.279 . S
O82 Cd72 2.297 . S
O82 C77 1.247 . S
O83 Cd72 2.439 . S
O83 C77 1.208 . S
O84 Cd85 2.223 . S
O84 C92 1.315 . S
Cd85 O84 2.223 . S
Cd85 O88 2.297 . S
Cd85 O89 2.439 . S
Cd85 O95 2.240 . S
Cd86 O87 2.240 . S
Cd86 O94 2.223 . S
Cd86 O96 2.297 . S
Cd86 O97 2.439 . S
O87 Cd86 2.240 . S
O87 C92 1.279 . S
O88 Cd85 2.297 . S
O88 C90 1.247 . S
O89 Cd85 2.439 . S
O89 C90 1.208 . S
C90 O88 1.247 . S
C90 O89 1.208 . S
C91 O96 1.247 . S
C91 O97 1.208 . S
C92 O84 1.315 . S
C92 O87 1.279 . S
C93 O94 1.315 . S
C93 O95 1.279 . S
O94 Cd86 2.223 . S
O94 C93 1.315 . S
O95 Cd85 2.240 . S
O95 C93 1.279 . S
O96 Cd86 2.297 . S
O96 C91 1.247 . S
O97 Cd86 2.439 . S
O97 C91 1.208 . S
O98 Cd99 2.223 . S
O98 C106 1.315 . S
Cd99 O98 2.223 . S
Cd99 O102 2.297 . S
Cd99 O103 2.439 . S
Cd99 O109 2.240 . S
Cd100 O101 2.240 . S
Cd100 O108 2.223 . S
Cd100 O110 2.297 . S
Cd100 O111 2.439 . S
O101 Cd100 2.240 . S
O101 C106 1.279 . S
O102 Cd99 2.297 . S
O102 C104 1.247 . S
O103 Cd99 2.439 . S
O103 C104 1.208 . S
C104 O102 1.247 . S
C104 O103 1.208 . S
C105 O110 1.247 . S
C105 O111 1.208 . S
C106 O98 1.315 . S
C106 O101 1.279 . S
C107 O108 1.315 . S
C107 O109 1.279 . S
O108 Cd100 2.223 . S
O108 C107 1.315 . S
O109 Cd99 2.240 . S
O109 C107 1.279 . S
O110 Cd100 2.297 . S
O110 C105 1.247 . S
O111 Cd100 2.439 . S
O111 C105 1.208 . S
O112 Cd113 2.223 . S
O112 C120 1.315 . S
Cd113 O112 2.223 . S
Cd113 O116 2.297 . S
Cd113 O117 2.439 . S
Cd113 O123 2.240 . S
Cd114 O115 2.240 . S
Cd114 O122 2.223 . S
Cd114 O124 2.297 . S
Cd114 O125 2.439 . S
O115 Cd114 2.240 . S
O115 C120 1.279 . S
O116 Cd113 2.297 . S
O116 C118 1.247 . S
O117 Cd113 2.439 . S
O117 C118 1.208 . S
C118 O116 1.247 . S
C118 O117 1.208 . S
C119 O124 1.247 . S
C119 O125 1.208 . S
C120 O112 1.315 . S
C120 O115 1.279 . S
C121 O122 1.315 . S
C121 O123 1.279 . S
O122 Cd114 2.223 . S
O122 C121 1.315 . S
O123 Cd113 2.240 . S
O123 C121 1.279 . S
O124 Cd114 2.297 . S
O124 C119 1.247 . S
O125 Cd114 2.439 . S
O125 C119 1.208 . S
O126 Cd127 2.223 . S
O126 C134 1.315 . S
Cd127 O126 2.223 . S
Cd127 O130 2.297 . S
Cd127 O131 2.439 . S
Cd127 O137 2.240 . S
Cd128 O129 2.240 . S
Cd128 O136 2.223 . S
Cd128 O138 2.297 . S
Cd128 O139 2.439 . S
O129 Cd128 2.240 . S
O129 C134 1.279 . S
O130 Cd127 2.297 . S
O130 C132 1.247 . S
O131 Cd127 2.439 . S
O131 C132 1.208 . S
C132 O130 1.247 . S
C132 O131 1.208 . S
C133 O138 1.247 . S
C133 O139 1.208 . S
C134 O126 1.315 . S
C134 O129 1.279 . S
C135 O136 1.315 . S
C135 O137 1.279 . S
O136 Cd128 2.223 . S
O136 C135 1.315 . S
O137 Cd127 2.240 . S
O137 C135 1.279 . S
O138 Cd128 2.297 . S
O138 C133 1.247 . S
O139 Cd128 2.439 . S
O139 C133 1.208 . S
O140 Cd141 2.223 . S
O140 C148 1.315 . S
Cd141 O140 2.223 . S
Cd141 O144 2.297 . S
Cd141 O145 2.439 . S
Cd141 O151 2.240 . S
Cd142 O143 2.240 . S
Cd142 O150 2.223 . S
Cd142 O152 2.297 . S
Cd142 O153 2.439 . S
O143 Cd142 2.240 . S
O143 C148 1.279 . S
O144 Cd141 2.297 . S
O144 C146 1.247 . S
O145 Cd141 2.439 . S
O145 C146 1.208 . S
C146 O144 1.247 . S
C146 O145 1.208 . S
C147 O152 1.247 . S
C147 O153 1.208 . S
C148 O140 1.315 . S
C148 O143 1.279 . S
C149 O150 1.315 . S
C149 O151 1.279 . S
O150 Cd142 2.223 . S
O150 C149 1.315 . S
O151 Cd141 2.240 . S
O151 C149 1.279 . S
O152 Cd142 2.297 . S
O152 C147 1.247 . S
O153 Cd142 2.439 . S
O153 C147 1.208 . S
O154 Cd155 2.223 . S
O154 C162 1.315 . S
Cd155 O154 2.223 . S
Cd155 O158 2.297 . S
Cd155 O159 2.439 . S
Cd155 O165 2.240 . S
Cd156 O157 2.240 . S
Cd156 O164 2.223 . S
Cd156 O166 2.297 . S
Cd156 O167 2.439 . S
O157 Cd156 2.240 . S
O157 C162 1.279 . S
O158 Cd155 2.297 . S
O158 C160 1.247 . S
O159 Cd155 2.439 . S
O159 C160 1.208 . S
C160 O158 1.247 . S
C160 O159 1.208 . S
C161 O166 1.247 . S
C161 O167 1.208 . S
C162 O154 1.315 . S
C162 O157 1.279 . S
C163 O164 1.315 . S
C163 O165 1.279 . S
O164 Cd156 2.223 . S
O164 C163 1.315 . S
O165 Cd155 2.240 . S
O165 C163 1.279 . S
O166 Cd156 2.297 . S
O166 C161 1.247 . S
O167 Cd156 2.439 . S
O167 C161 1.208 . S
O168 Cd169 2.223 . S
O168 C176 1.315 . S
Cd169 O168 2.223 . S
Cd169 O172 2.297 . S
Cd169 O173 2.439 . S
Cd169 O179 2.240 . S
Cd170 O171 2.240 . S
Cd170 O178 2.223 . S
Cd170 O180 2.297 . S
Cd170 O181 2.439 . S
O171 Cd170 2.240 . S
O171 C176 1.279 . S
O172 Cd169 2.297 . S
O172 C174 1.247 . S
O173 Cd169 2.439 . S
O173 C174 1.208 . S
C174 O172 1.247 . S
C174 O173 1.208 . S
C175 O180 1.247 . S
C175 O181 1.208 . S
C176 O168 1.315 . S
C176 O171 1.279 . S
C177 O178 1.315 . S
C177 O179 1.279 . S
O178 Cd170 2.223 . S
O178 C177 1.315 . S
O179 Cd169 2.240 . S
O179 C177 1.279 . S
O180 Cd170 2.297 . S
O180 C175 1.247 . S
O181 Cd170 2.439 . S
O181 C175 1.208 . S
O182 Cd183 2.223 . S
O182 C190 1.315 . S
Cd183 O182 2.223 . S
Cd183 O186 2.297 . S
Cd183 O187 2.439 . S
Cd183 O193 2.240 . S
Cd184 O185 2.240 . S
Cd184 O192 2.223 . S
Cd184 O194 2.297 . S
Cd184 O195 2.439 . S
O185 Cd184 2.240 . S
O185 C190 1.279 . S
O186 Cd183 2.297 . S
O186 C188 1.247 . S
O187 Cd183 2.439 . S
O187 C188 1.208 . S
C188 O186 1.247 . S
C188 O187 1.208 . S
C189 O194 1.247 . S
C189 O195 1.208 . S
C190 O182 1.315 . S
C190 O185 1.279 . S
C191 O192 1.315 . S
C191 O193 1.279 . S
O192 Cd184 2.223 . S
O192 C191 1.315 . S
O193 Cd183 2.240 . S
O193 C191 1.279 . S
O194 Cd184 2.297 . S
O194 C189 1.247 . S
O195 Cd184 2.439 . S
O195 C189 1.208 . S
O196 Cd197 2.223 . S
O196 C204 1.315 . S
Cd197 O196 2.223 . S
Cd197 O200 2.297 . S
Cd197 O201 2.439 . S
Cd197 O207 2.240 . S
Cd198 O199 2.240 . S
Cd198 O206 2.223 . S
Cd198 O208 2.297 . S
Cd198 O209 2.439 . S
O199 Cd198 2.240 . S
O199 C204 1.279 . S
O200 Cd197 2.297 . S
O200 C202 1.247 . S
O201 Cd197 2.439 . S
O201 C202 1.208 . S
C202 O200 1.247 . S
C202 O201 1.208 . S
C203 O208 1.247 . S
C203 O209 1.208 . S
C204 O196 1.315 . S
C204 O199 1.279 . S
C205 O206 1.315 . S
C205 O207 1.279 . S
O206 Cd198 2.223 . S
O206 C205 1.315 . S
O207 Cd197 2.240 . S
O207 C205 1.279 . S
O208 Cd198 2.297 . S
O208 C203 1.247 . S
O209 Cd198 2.439 . S
O209 C203 1.208 . S
O210 Cd211 2.223 . S
O210 C218 1.315 . S
Cd211 O210 2.223 . S
Cd211 O214 2.297 . S
Cd211 O215 2.439 . S
Cd211 O221 2.240 . S
Cd212 O213 2.240 . S
Cd212 O220 2.223 . S
Cd212 O222 2.297 . S
Cd212 O223 2.439 . S
O213 Cd212 2.240 . S
O213 C218 1.279 . S
O214 Cd211 2.297 . S
O214 C216 1.247 . S
O215 Cd211 2.439 . S
O215 C216 1.208 . S
C216 O214 1.247 . S
C216 O215 1.208 . S
C217 O222 1.247 . S
C217 O223 1.208 . S
C218 O210 1.315 . S
C218 O213 1.279 . S
C219 O220 1.315 . S
C219 O221 1.279 . S
O220 Cd212 2.223 . S
O220 C219 1.315 . S
O221 Cd211 2.240 . S
O221 C219 1.279 . S
O222 Cd212 2.297 . S
O222 C217 1.247 . S
O223 Cd212 2.439 . S
O223 C217 1.208 . S
O224 Cd225 2.223 . S
O224 C232 1.315 . S
Cd225 O224 2.223 . S
Cd225 O228 2.297 . S
Cd225 O229 2.439 . S
Cd225 O235 2.240 . S
Cd226 O227 2.240 . S
Cd226 O234 2.223 . S
Cd226 O236 2.297 . S
Cd226 O237 2.439 . S
O227 Cd226 2.240 . S
O227 C232 1.279 . S
O228 Cd225 2.297 . S
O228 C230 1.247 . S
O229 Cd225 2.439 . S
O229 C230 1.208 . S
C230 O228 1.247 . S
C230 O229 1.208 . S
C231 O236 1.247 . S
C231 O237 1.208 . S
C232 O224 1.315 . S
C232 O227 1.279 . S
C233 O234 1.315 . S
C233 O235 1.279 . S
O234 Cd226 2.223 . S
O234 C233 1.315 . S
O235 Cd225 2.240 . S
O235 C233 1.279 . S
O236 Cd226 2.297 . S
O236 C231 1.247 . S
O237 Cd226 2.439 . S
O237 C231 1.208 . S
O238 Cd239 2.223 . S
O238 C246 1.315 . S
Cd239 O238 2.223 . S
Cd239 O242 2.297 . S
Cd239 O243 2.439 . S
Cd239 O249 2.240 . S
Cd240 O241 2.240 . S
Cd240 O248 2.223 . S
Cd240 O250 2.297 . S
Cd240 O251 2.439 . S
O241 Cd240 2.240 . S
O241 C246 1.279 . S
O242 Cd239 2.297 . S
O242 C244 1.247 . S
O243 Cd239 2.439 . S
O243 C244 1.208 . S
C244 O242 1.247 . S
C244 O243 1.208 . S
C245 O250 1.247 . S
C245 O251 1.208 . S
C246 O238 1.315 . S
C246 O241 1.279 . S
C247 O248 1.315 . S
C247 O249 1.279 . S
O248 Cd240 2.223 . S
O248 C247 1.315 . S
O249 Cd239 2.240 . S
O249 C247 1.279 . S
O250 Cd240 2.297 . S
O250 C245 1.247 . S
O251 Cd240 2.439 . S
O251 C245 1.208 . S
O252 Cd253 2.223 . S
O252 C260 1.315 . S
Cd253 O252 2.223 . S
Cd253 O256 2.297 . S
Cd253 O257 2.439 . S
Cd253 O263 2.240 . S
Cd254 O255 2.240 . S
Cd254 O262 2.223 . S
Cd254 O264 2.297 . S
Cd254 O265 2.439 . S
O255 Cd254 2.240 . S
O255 C260 1.279 . S
O256 Cd253 2.297 . S
O256 C258 1.247 . S
O257 Cd253 2.439 . S
O257 C258 1.208 . S
C258 O256 1.247 . S
C258 O257 1.208 . S
C259 O264 1.247 . S
C259 O265 1.208 . S
C260 O252 1.315 . S
C260 O255 1.279 . S
C261 O262 1.315 . S
C261 O263 1.279 . S
O262 Cd254 2.223 . S
O262 C261 1.315 . S
O263 Cd253 2.240 . S
O263 C261 1.279 . S
O264 Cd254 2.297 . S
O264 C259 1.247 . S
O265 Cd254 2.439 . S
O265 C259 1.208 . S
O266 Cd267 2.223 . S
O266 C274 1.315 . S
Cd267 O266 2.223 . S
Cd267 O270 2.297 . S
Cd267 O271 2.439 . S
Cd267 O277 2.240 . S
Cd268 O269 2.240 . S
Cd268 O276 2.223 . S
Cd268 O278 2.297 . S
Cd268 O279 2.439 . S
O269 Cd268 2.240 . S
O269 C274 1.279 . S
O270 Cd267 2.297 . S
O270 C272 1.247 . S
O271 Cd267 2.439 . S
O271 C272 1.208 . S
C272 O270 1.247 . S
C272 O271 1.208 . S
C273 O278 1.247 . S
C273 O279 1.208 . S
C274 O266 1.315 . S
C274 O269 1.279 . S
C275 O276 1.315 . S
C275 O277 1.279 . S
O276 Cd268 2.223 . S
O276 C275 1.315 . S
O277 Cd267 2.240 . S
O277 C275 1.279 . S
O278 Cd268 2.297 . S
O278 C273 1.247 . S
O279 Cd268 2.439 . S
O279 C273 1.208 . S
O280 Cd281 2.223 . S
O280 C288 1.315 . S
Cd281 O280 2.223 . S
Cd281 O284 2.297 . S
Cd281 O285 2.439 . S
Cd281 O291 2.240 . S
Cd282 O283 2.240 . S
Cd282 O290 2.223 . S
Cd282 O292 2.297 . S
Cd282 O293 2.439 . S
O283 Cd282 2.240 . S
O283 C288 1.279 . S
O284 Cd281 2.297 . S
O284 C286 1.247 . S
O285 Cd281 2.439 . S
O285 C286 1.208 . S
C286 O284 1.247 . S
C286 O285 1.208 . S
C287 O292 1.247 . S
C287 O293 1.208 . S
C288 O280 1.315 . S
C288 O283 1.279 . S
C289 O290 1.315 . S
C289 O291 1.279 . S
O290 Cd282 2.223 . S
O290 C289 1.315 . S
O291 Cd281 2.240 . S
O291 C289 1.279 . S
O292 Cd282 2.297 . S
O292 C287 1.247 . S
O293 Cd282 2.439 . S
O293 C287 1.208 . S
O294 Cd295 2.223 . S
O294 C302 1.315 . S
Cd295 O294 2.223 . S
Cd295 O298 2.297 . S
Cd295 O299 2.439 . S
Cd295 O305 2.240 . S
Cd296 O297 2.240 . S
Cd296 O304 2.223 . S
Cd296 O306 2.297 . S
Cd296 O307 2.439 . S
O297 Cd296 2.240 . S
O297 C302 1.279 . S
O298 Cd295 2.297 . S
O298 C300 1.247 . S
O299 Cd295 2.439 . S
O299 C300 1.208 . S
C300 O298 1.247 . S
C300 O299 1.208 . S
C301 O306 1.247 . S
C301 O307 1.208 . S
C302 O294 1.315 . S
C302 O297 1.279 . S
C303 O304 1.315 . S
C303 O305 1.279 . S
O304 Cd296 2.223 . S
O304 C303 1.315 . S
O305 Cd295 2.240 . S
O305 C303 1.279 . S
O306 Cd296 2.297 . S
O306 C301 1.247 . S
O307 Cd296 2.439 . S
O307 C301 1.208 . S
O308 Cd309 2.223 . S
O308 C316 1.315 . S
Cd309 O308 2.223 . S
Cd309 O312 2.297 . S
Cd309 O313 2.439 . S
Cd309 O319 2.240 . S
Cd310 O311 2.240 . S
Cd310 O318 2.223 . S
Cd310 O320 2.297 . S
Cd310 O321 2.439 . S
O311 Cd310 2.240 . S
O311 C316 1.279 . S
O312 Cd309 2.297 . S
O312 C314 1.247 . S
O313 Cd309 2.439 . S
O313 C314 1.208 . S
C314 O312 1.247 . S
C314 O313 1.208 . S
C315 O320 1.247 . S
C315 O321 1.208 . S
C316 O308 1.315 . S
C316 O311 1.279 . S
C317 O318 1.315 . S
C317 O319 1.279 . S
O318 Cd310 2.223 . S
O318 C317 1.315 . S
O319 Cd309 2.240 . S
O319 C317 1.279 . S
O320 Cd310 2.297 . S
O320 C315 1.247 . S
O321 Cd310 2.439 . S
O321 C315 1.208 . S
O322 Cd323 2.223 . S
O322 C330 1.315 . S
Cd323 O322 2.223 . S
Cd323 O326 2.297 . S
Cd323 O327 2.439 . S
Cd323 O333 2.240 . S
Cd324 O325 2.240 . S
Cd324 O332 2.223 . S
Cd324 O334 2.297 . S
Cd324 O335 2.439 . S
O325 Cd324 2.240 . S
O325 C330 1.279 . S
O326 Cd323 2.297 . S
O326 C328 1.247 . S
O327 Cd323 2.439 . S
O327 C328 1.208 . S
C328 O326 1.247 . S
C328 O327 1.208 . S
C329 O334 1.247 . S
C329 O335 1.208 . S
C330 O322 1.315 . S
C330 O325 1.279 . S
C331 O332 1.315 . S
C331 O333 1.279 . S
O332 Cd324 2.223 . S
O332 C331 1.315 . S
O333 Cd323 2.240 . S
O333 C331 1.279 . S
O334 Cd324 2.297 . S
O334 C329 1.247 . S
O335 Cd324 2.439 . S
O335 C329 1.208 . S
O336 Cd337 2.223 . S
O336 C344 1.315 . S
Cd337 O336 2.223 . S
Cd337 O340 2.297 . S
Cd337 O341 2.439 . S
Cd337 O347 2.240 . S
Cd338 O339 2.240 . S
Cd338 O346 2.223 . S
Cd338 O348 2.297 . S
Cd338 O349 2.439 . S
O339 Cd338 2.240 . S
O339 C344 1.279 . S
O340 Cd337 2.297 . S
O340 C342 1.247 . S
O341 Cd337 2.439 . S
O341 C342 1.208 . S
C342 O340 1.247 . S
C342 O341 1.208 . S
C343 O348 1.247 . S
C343 O349 1.208 . S
C344 O336 1.315 . S
C344 O339 1.279 . S
C345 O346 1.315 . S
C345 O347 1.279 . S
O346 Cd338 2.223 . S
O346 C345 1.315 . S
O347 Cd337 2.240 . S
O347 C345 1.279 . S
O348 Cd338 2.297 . S
O348 C343 1.247 . S
O349 Cd338 2.439 . S
O349 C343 1.208 . S
O350 Cd351 2.223 . S
O350 C358 1.315 . S
Cd351 O350 2.223 . S
Cd351 O354 2.297 . S
Cd351 O355 2.439 . S
Cd351 O361 2.240 . S
Cd352 O353 2.240 . S
Cd352 O360 2.223 . S
Cd352 O362 2.297 . S
Cd352 O363 2.439 . S
O353 Cd352 2.240 . S
O353 C358 1.279 . S
O354 Cd351 2.297 . S
O354 C356 1.247 . S
O355 Cd351 2.439 . S
O355 C356 1.208 . S
C356 O354 1.247 . S
C356 O355 1.208 . S
C357 O362 1.247 . S
C357 O363 1.208 . S
C358 O350 1.315 . S
C358 O353 1.279 . S
C359 O360 1.315 . S
C359 O361 1.279 . S
O360 Cd352 2.223 . S
O360 C359 1.315 . S
O361 Cd351 2.240 . S
O361 C359 1.279 . S
O362 Cd352 2.297 . S
O362 C357 1.247 . S
O363 Cd352 2.439 . S
O363 C357 1.208 . S
O364 Cd365 2.223 . S
O364 C372 1.315 . S
Cd365 O364 2.223 . S
Cd365 O368 2.297 . S
Cd365 O369 2.439 . S
Cd365 O375 2.240 . S
Cd366 O367 2.240 . S
Cd366 O374 2.223 . S
Cd366 O376 2.297 . S
Cd366 O377 2.439 . S
O367 Cd366 2.240 . S
O367 C372 1.279 . S
O368 Cd365 2.297 . S
O368 C370 1.247 . S
O369 Cd365 2.439 . S
O369 C370 1.208 . S
C370 O368 1.247 . S
C370 O369 1.208 . S
C371 O376 1.247 . S
C371 O377 1.208 . S
C372 O364 1.315 . S
C372 O367 1.279 . S
C373 O374 1.315 . S
C373 O375 1.279 . S
O374 Cd366 2.223 . S
O374 C373 1.315 . S
O375 Cd365 2.240 . S
O375 C373 1.279 . S
O376 Cd366 2.297 . S
O376 C371 1.247 . S
O377 Cd366 2.439 . S
O377 C371 1.208 . S
O378 Cd379 2.223 . S
O378 C386 1.315 . S
Cd379 O378 2.223 . S
Cd379 O382 2.297 . S
Cd379 O383 2.439 . S
Cd379 O389 2.240 . S
Cd380 O381 2.240 . S
Cd380 O388 2.223 . S
Cd380 O390 2.297 . S
Cd380 O391 2.439 . S
O381 Cd380 2.240 . S
O381 C386 1.279 . S
O382 Cd379 2.297 . S
O382 C384 1.247 . S
O383 Cd379 2.439 . S
O383 C384 1.208 . S
C384 O382 1.247 . S
C384 O383 1.208 . S
C385 O390 1.247 . S
C385 O391 1.208 . S
C386 O378 1.315 . S
C386 O381 1.279 . S
C387 O388 1.315 . S
C387 O389 1.279 . S
O388 Cd380 2.223 . S
O388 C387 1.315 . S
O389 Cd379 2.240 . S
O389 C387 1.279 . S
O390 Cd380 2.297 . S
O390 C385 1.247 . S
O391 Cd380 2.439 . S
O391 C385 1.208 . S
O392 Cd393 2.223 . S
O392 C400 1.315 . S
Cd393 O392 2.223 . S
Cd393 O396 2.297 . S
Cd393 O397 2.439 . S
Cd393 O403 2.240 . S
Cd394 O395 2.240 . S
Cd394 O402 2.223 . S
Cd394 O404 2.297 . S
Cd394 O405 2.439 . S
O395 Cd394 2.240 . S
O395 C400 1.279 . S
O396 Cd393 2.297 . S
O396 C398 1.247 . S
O397 Cd393 2.439 . S
O397 C398 1.208 . S
C398 O396 1.247 . S
C398 O397 1.208 . S
C399 O404 1.247 . S
C399 O405 1.208 . S
C400 O392 1.315 . S
C400 O395 1.279 . S
C401 O402 1.315 . S
C401 O403 1.279 . S
O402 Cd394 2.223 . S
O402 C401 1.315 . S
O403 Cd393 2.240 . S
O403 C401 1.279 . S
O404 Cd394 2.297 . S
O404 C399 1.247 . S
O405 Cd394 2.439 . S
O405 C399 1.208 . S
O406 Cd407 2.223 . S
O406 C414 1.315 . S
Cd407 O406 2.223 . S
Cd407 O410 2.297 . S
Cd407 O411 2.439 . S
Cd407 O417 2.240 . S
Cd408 O409 2.240 . S
Cd408 O416 2.223 . S
Cd408 O418 2.297 . S
Cd408 O419 2.439 . S
O409 Cd408 2.240 . S
O409 C414 1.279 . S
O410 Cd407 2.297 . S
O410 C412 1.247 . S
O411 Cd407 2.439 . S
O411 C412 1.208 . S
C412 O410 1.247 . S
C412 O411 1.208 . S
C413 O418 1.247 . S
C413 O419 1.208 . S
C414 O406 1.315 . S
C414 O409 1.279 . S
C415 O416 1.315 . S
C415 O417 1.279 . S
O416 Cd408 2.223 . S
O416 C415 1.315 . S
O417 Cd407 2.240 . S
O417 C415 1.279 . S
O418 Cd408 2.297 . S
O418 C413 1.247 . S
O419 Cd408 2.439 . S
O419 C413 1.208 . S
O420 Cd421 2.223 . S
O420 C428 1.315 . S
Cd421 O420 2.223 . S
Cd421 O424 2.297 . S
Cd421 O425 2.439 . S
Cd421 O431 2.240 . S
Cd422 O423 2.240 . S
Cd422 O430 2.223 . S
Cd422 O432 2.297 . S
Cd422 O433 2.439 . S
O423 Cd422 2.240 . S
O423 C428 1.279 . S
O424 Cd421 2.297 . S
O424 C426 1.247 . S
O425 Cd421 2.439 . S
O425 C426 1.208 . S
C426 O424 1.247 . S
C426 O425 1.208 . S
C427 O432 1.247 . S
C427 O433 1.208 . S
C428 O420 1.315 . S
C428 O423 1.279 . S
C429 O430 1.315 . S
C429 O431 1.279 . S
O430 Cd422 2.223 . S
O430 C429 1.315 . S
O431 Cd421 2.240 . S
O431 C429 1.279 . S
O432 Cd422 2.297 . S
O432 C427 1.247 . S
O433 Cd422 2.439 . S
O433 C427 1.208 . S
O434 Cd435 2.223 . S
O434 C442 1.315 . S
Cd435 O434 2.223 . S
Cd435 O438 2.297 . S
Cd435 O439 2.439 . S
Cd435 O445 2.240 . S
Cd436 O437 2.240 . S
Cd436 O444 2.223 . S
Cd436 O446 2.297 . S
Cd436 O447 2.439 . S
O437 Cd436 2.240 . S
O437 C442 1.279 . S
O438 Cd435 2.297 . S
O438 C440 1.247 . S
O439 Cd435 2.439 . S
O439 C440 1.208 . S
C440 O438 1.247 . S
C440 O439 1.208 . S
C441 O446 1.247 . S
C441 O447 1.208 . S
C442 O434 1.315 . S
C442 O437 1.279 . S
C443 O444 1.315 . S
C443 O445 1.279 . S
O444 Cd436 2.223 . S
O444 C443 1.315 . S
O445 Cd435 2.240 . S
O445 C443 1.279 . S
O446 Cd436 2.297 . S
O446 C441 1.247 . S
O447 Cd436 2.439 . S
O447 C441 1.208 . S
O448 Cd449 2.223 . S
O448 C456 1.315 . S
Cd449 O448 2.223 . S
Cd449 O452 2.297 . S
Cd449 O453 2.439 . S
Cd449 O459 2.240 . S
Cd450 O451 2.240 . S
Cd450 O458 2.223 . S
Cd450 O460 2.297 . S
Cd450 O461 2.439 . S
O451 Cd450 2.240 . S
O451 C456 1.279 . S
O452 Cd449 2.297 . S
O452 C454 1.247 . S
O453 Cd449 2.439 . S
O453 C454 1.208 . S
C454 O452 1.247 . S
C454 O453 1.208 . S
C455 O460 1.247 . S
C455 O461 1.208 . S
C456 O448 1.315 . S
C456 O451 1.279 . S
C457 O458 1.315 . S
C457 O459 1.279 . S
O458 Cd450 2.223 . S
O458 C457 1.315 . S
O459 Cd449 2.240 . S
O459 C457 1.279 . S
O460 Cd450 2.297 . S
O460 C455 1.247 . S
O461 Cd450 2.439 . S
O461 C455 1.208 . S
O462 Cd463 2.223 . S
O462 C470 1.315 . S
Cd463 O462 2.223 . S
Cd463 O466 2.297 . S
Cd463 O467 2.439 . S
Cd463 O473 2.240 . S
Cd464 O465 2.240 . S
Cd464 O472 2.223 . S
Cd464 O474 2.297 . S
Cd464 O475 2.439 . S
O465 Cd464 2.240 . S
O465 C470 1.279 . S
O466 Cd463 2.297 . S
O466 C468 1.247 . S
O467 Cd463 2.439 . S
O467 C468 1.208 . S
C468 O466 1.247 . S
C468 O467 1.208 . S
C469 O474 1.247 . S
C469 O475 1.208 . S
C470 O462 1.315 . S
C470 O465 1.279 . S
C471 O472 1.315 . S
C471 O473 1.279 . S
O472 Cd464 2.223 . S
O472 C471 1.315 . S
O473 Cd463 2.240 . S
O473 C471 1.279 . S
O474 Cd464 2.297 . S
O474 C469 1.247 . S
O475 Cd464 2.439 . S
O475 C469 1.208 . S
O476 Cd477 2.223 . S
O476 C484 1.315 . S
Cd477 O476 2.223 . S
Cd477 O480 2.297 . S
Cd477 O481 2.439 . S
Cd477 O487 2.240 . S
Cd478 O479 2.240 . S
Cd478 O486 2.223 . S
Cd478 O488 2.297 . S
Cd478 O489 2.439 . S
O479 Cd478 2.240 . S
O479 C484 1.279 . S
O480 Cd477 2.297 . S
O480 C482 1.247 . S
O481 Cd477 2.439 . S
O481 C482 1.208 . S
C482 O480 1.247 . S
C482 O481 1.208 . S
C483 O488 1.247 . S
C483 O489 1.208 . S
C484 O476 1.315 . S
C484 O479 1.279 . S
C485 O486 1.315 . S
C485 O487 1.279 . S
O486 Cd478 2.223 . S
O486 C485 1.315 . S
O487 Cd477 2.240 . S
O487 C485 1.279 . S
O488 Cd478 2.297 . S
O488 C483 1.247 . S
O489 Cd478 2.439 . S
O489 C483 1.208 . S
O490 Cd491 2.223 . S
O490 C498 1.315 . S
Cd491 O490 2.223 . S
Cd491 O494 2.297 . S
Cd491 O495 2.439 . S
Cd491 O501 2.240 . S
Cd492 O493 2.240 . S
Cd492 O500 2.223 . S
Cd492 O502 2.297 . S
Cd492 O503 2.439 . S
O493 Cd492 2.240 . S
O493 C498 1.279 . S
O494 Cd491 2.297 . S
O494 C496 1.247 . S
O495 Cd491 2.439 . S
O495 C496 1.208 . S
C496 O494 1.247 . S
C496 O495 1.208 . S
C497 O502 1.247 . S
C497 O503 1.208 . S
C498 O490 1.315 . S
C498 O493 1.279 . S
C499 O500 1.315 . S
C499 O501 1.279 . S
O500 Cd492 2.223 . S
O500 C499 1.315 . S
O501 Cd491 2.240 . S
O501 C499 1.279 . S
O502 Cd492 2.297 . S
O502 C497 1.247 . S
O503 Cd492 2.439 . S
O503 C497 1.208 . S
H504 C516 0.930 . S
H505 C518 0.930 . S
H506 C519 0.930 . S
H507 C523 0.959 . S
H508 C523 0.959 . S
H509 C523 0.961 . S
H510 C524 0.960 . S
H511 C524 0.961 . S
H512 C524 0.959 . S
H513 C527 0.929 . S
H514 C528 0.931 . S
H515 C530 0.930 . S
C516 H504 0.930 . S
C516 C517 1.399 . S
C516 C521 1.399 . S
C517 C516 1.399 . S
C517 C518 1.376 . S
C518 H505 0.930 . S
C518 C517 1.376 . S
C518 C519 1.388 . S
C519 H506 0.930 . S
C519 C518 1.388 . S
C519 C520 1.390 . S
C520 C519 1.390 . S
C520 C521 1.394 . S
C520 C526 1.465 . S
C521 C516 1.399 . S
C521 C520 1.394 . S
C521 C522 1.516 . S
C522 C521 1.516 . S
C522 C523 1.502 . S
C522 C524 1.561 . S
C522 C525 1.526 . S
C523 H507 0.959 . S
C523 H508 0.959 . S
C523 H509 0.961 . S
C523 C522 1.502 . S
C524 H510 0.960 . S
C524 H511 0.961 . S
C524 H512 0.959 . S
C524 C522 1.561 . S
C525 C522 1.526 . S
C525 C526 1.396 . S
C525 C530 1.390 . S
C526 C520 1.465 . S
C526 C525 1.396 . S
C526 C527 1.399 . S
C527 H513 0.929 . S
C527 C526 1.399 . S
C527 C528 1.385 . S
C528 H514 0.931 . S
C528 C527 1.385 . S
C528 C529 1.389 . S
C529 C528 1.389 . S
C529 C530 1.387 . S
C530 H515 0.930 . S
C530 C525 1.390 . S
C530 C529 1.387 . S
H531 C543 0.930 . S
H532 C545 0.930 . S
H533 C546 0.930 . S
H534 C550 0.959 . S
H535 C550 0.959 . S
H536 C550 0.961 . S
H537 C551 0.960 . S
H538 C551 0.961 . S
H539 C551 0.959 . S
H540 C554 0.929 . S
H541 C555 0.931 . S
H542 C557 0.930 . S
C543 H531 0.930 . S
C543 C544 1.399 . S
C543 C548 1.399 . S
C544 C543 1.399 . S
C544 C545 1.376 . S
C545 H532 0.930 . S
C545 C544 1.376 . S
C545 C546 1.388 . S
C546 H533 0.930 . S
C546 C545 1.388 . S
C546 C547 1.390 . S
C547 C546 1.390 . S
C547 C548 1.394 . S
C547 C553 1.465 . S
C548 C543 1.399 . S
C548 C547 1.394 . S
C548 C549 1.516 . S
C549 C548 1.516 . S
C549 C550 1.502 . S
C549 C551 1.561 . S
C549 C552 1.526 . S
C550 H534 0.959 . S
C550 H535 0.959 . S
C550 H536 0.961 . S
C550 C549 1.502 . S
C551 H537 0.960 . S
C551 H538 0.961 . S
C551 H539 0.959 . S
C551 C549 1.561 . S
C552 C549 1.526 . S
C552 C553 1.396 . S
C552 C557 1.390 . S
C553 C547 1.465 . S
C553 C552 1.396 . S
C553 C554 1.399 . S
C554 H540 0.929 . S
C554 C553 1.399 . S
C554 C555 1.385 . S
C555 H541 0.931 . S
C555 C554 1.385 . S
C555 C556 1.389 . S
C556 C555 1.389 . S
C556 C557 1.387 . S
C557 H542 0.930 . S
C557 C552 1.390 . S
C557 C556 1.387 . S
H558 C570 0.930 . S
H559 C572 0.930 . S
H560 C573 0.930 . S
H561 C577 0.959 . S
H562 C577 0.959 . S
H563 C577 0.961 . S
H564 C578 0.960 . S
H565 C578 0.961 . S
H566 C578 0.959 . S
H567 C581 0.929 . S
H568 C582 0.931 . S
H569 C584 0.930 . S
C570 H558 0.930 . S
C570 C571 1.399 . S
C570 C575 1.399 . S
C571 C570 1.399 . S
C571 C572 1.376 . S
C572 H559 0.930 . S
C572 C571 1.376 . S
C572 C573 1.388 . S
C573 H560 0.930 . S
C573 C572 1.388 . S
C573 C574 1.390 . S
C574 C573 1.390 . S
C574 C575 1.394 . S
C574 C580 1.465 . S
C575 C570 1.399 . S
C575 C574 1.394 . S
C575 C576 1.516 . S
C576 C575 1.516 . S
C576 C577 1.502 . S
C576 C578 1.561 . S
C576 C579 1.526 . S
C577 H561 0.959 . S
C577 H562 0.959 . S
C577 H563 0.961 . S
C577 C576 1.502 . S
C578 H564 0.960 . S
C578 H565 0.961 . S
C578 H566 0.959 . S
C578 C576 1.561 . S
C579 C576 1.526 . S
C579 C580 1.396 . S
C579 C584 1.390 . S
C580 C574 1.465 . S
C580 C579 1.396 . S
C580 C581 1.399 . S
C581 H567 0.929 . S
C581 C580 1.399 . S
C581 C582 1.385 . S
C582 H568 0.931 . S
C582 C581 1.385 . S
C582 C583 1.389 . S
C583 C582 1.389 . S
C583 C584 1.387 . S
C584 H569 0.930 . S
C584 C579 1.390 . S
C584 C583 1.387 . S
H585 C597 0.930 . S
H586 C599 0.930 . S
H587 C600 0.930 . S
H588 C604 0.959 . S
H589 C604 0.959 . S
H590 C604 0.961 . S
H591 C605 0.960 . S
H592 C605 0.961 . S
H593 C605 0.959 . S
H594 C608 0.929 . S
H595 C609 0.931 . S
H596 C611 0.930 . S
C597 H585 0.930 . S
C597 C598 1.399 . S
C597 C602 1.399 . S
C598 C597 1.399 . S
C598 C599 1.376 . S
C599 H586 0.930 . S
C599 C598 1.376 . S
C599 C600 1.388 . S
C600 H587 0.930 . S
C600 C599 1.388 . S
C600 C601 1.390 . S
C601 C600 1.390 . S
C601 C602 1.394 . S
C601 C607 1.465 . S
C602 C597 1.399 . S
C602 C601 1.394 . S
C602 C603 1.516 . S
C603 C602 1.516 . S
C603 C604 1.502 . S
C603 C605 1.561 . S
C603 C606 1.526 . S
C604 H588 0.959 . S
C604 H589 0.959 . S
C604 H590 0.961 . S
C604 C603 1.502 . S
C605 H591 0.960 . S
C605 H592 0.961 . S
C605 H593 0.959 . S
C605 C603 1.561 . S
C606 C603 1.526 . S
C606 C607 1.396 . S
C606 C611 1.390 . S
C607 C601 1.465 . S
C607 C606 1.396 . S
C607 C608 1.399 . S
C608 H594 0.929 . S
C608 C607 1.399 . S
C608 C609 1.385 . S
C609 H595 0.931 . S
C609 C608 1.385 . S
C609 C610 1.389 . S
C610 C609 1.389 . S
C610 C611 1.387 . S
C611 H596 0.930 . S
C611 C606 1.390 . S
C611 C610 1.387 . S
H612 C624 0.930 . S
H613 C626 0.930 . S
H614 C627 0.930 . S
H615 C631 0.959 . S
H616 C631 0.959 . S
H617 C631 0.961 . S
H618 C632 0.960 . S
H619 C632 0.961 . S
H620 C632 0.959 . S
H621 C635 0.929 . S
H622 C636 0.931 . S
H623 C638 0.930 . S
C624 H612 0.930 . S
C624 C625 1.399 . S
C624 C629 1.399 . S
C625 C624 1.399 . S
C625 C626 1.376 . S
C626 H613 0.930 . S
C626 C625 1.376 . S
C626 C627 1.388 . S
C627 H614 0.930 . S
C627 C626 1.388 . S
C627 C628 1.390 . S
C628 C627 1.390 . S
C628 C629 1.394 . S
C628 C634 1.465 . S
C629 C624 1.399 . S
C629 C628 1.394 . S
C629 C630 1.516 . S
C630 C629 1.516 . S
C630 C631 1.502 . S
C630 C632 1.561 . S
C630 C633 1.526 . S
C631 H615 0.959 . S
C631 H616 0.959 . S
C631 H617 0.961 . S
C631 C630 1.502 . S
C632 H618 0.960 . S
C632 H619 0.961 . S
C632 H620 0.959 . S
C632 C630 1.561 . S
C633 C630 1.526 . S
C633 C634 1.396 . S
C633 C638 1.390 . S
C634 C628 1.465 . S
C634 C633 1.396 . S
C634 C635 1.399 . S
C635 H621 0.929 . S
C635 C634 1.399 . S
C635 C636 1.385 . S
C636 H622 0.931 . S
C636 C635 1.385 . S
C636 C637 1.389 . S
C637 C636 1.389 . S
C637 C638 1.387 . S
C638 H623 0.930 . S
C638 C633 1.390 . S
C638 C637 1.387 . S
H639 C651 0.930 . S
H640 C653 0.930 . S
H641 C654 0.930 . S
H642 C658 0.959 . S
H643 C658 0.959 . S
H644 C658 0.961 . S
H645 C659 0.960 . S
H646 C659 0.961 . S
H647 C659 0.959 . S
H648 C662 0.929 . S
H649 C663 0.931 . S
H650 C665 0.930 . S
C651 H639 0.930 . S
C651 C652 1.399 . S
C651 C656 1.399 . S
C652 C651 1.399 . S
C652 C653 1.376 . S
C653 H640 0.930 . S
C653 C652 1.376 . S
C653 C654 1.388 . S
C654 H641 0.930 . S
C654 C653 1.388 . S
C654 C655 1.390 . S
C655 C654 1.390 . S
C655 C656 1.394 . S
C655 C661 1.465 . S
C656 C651 1.399 . S
C656 C655 1.394 . S
C656 C657 1.516 . S
C657 C656 1.516 . S
C657 C658 1.502 . S
C657 C659 1.561 . S
C657 C660 1.526 . S
C658 H642 0.959 . S
C658 H643 0.959 . S
C658 H644 0.961 . S
C658 C657 1.502 . S
C659 H645 0.960 . S
C659 H646 0.961 . S
C659 H647 0.959 . S
C659 C657 1.561 . S
C660 C657 1.526 . S
C660 C661 1.396 . S
C660 C665 1.390 . S
C661 C655 1.465 . S
C661 C660 1.396 . S
C661 C662 1.399 . S
C662 H648 0.929 . S
C662 C661 1.399 . S
C662 C663 1.385 . S
C663 H649 0.931 . S
C663 C662 1.385 . S
C663 C664 1.389 . S
C664 C663 1.389 . S
C664 C665 1.387 . S
C665 H650 0.930 . S
C665 C660 1.390 . S
C665 C664 1.387 . S
H666 C678 0.930 . S
H667 C680 0.930 . S
H668 C681 0.930 . S
H669 C685 0.959 . S
H670 C685 0.959 . S
H671 C685 0.961 . S
H672 C686 0.960 . S
H673 C686 0.961 . S
H674 C686 0.959 . S
H675 C689 0.929 . S
H676 C690 0.931 . S
H677 C692 0.930 . S
C678 H666 0.930 . S
C678 C679 1.399 . S
C678 C683 1.399 . S
C679 C678 1.399 . S
C679 C680 1.376 . S
C680 H667 0.930 . S
C680 C679 1.376 . S
C680 C681 1.388 . S
C681 H668 0.930 . S
C681 C680 1.388 . S
C681 C682 1.390 . S
C682 C681 1.390 . S
C682 C683 1.394 . S
C682 C688 1.465 . S
C683 C678 1.399 . S
C683 C682 1.394 . S
C683 C684 1.516 . S
C684 C683 1.516 . S
C684 C685 1.502 . S
C684 C686 1.561 . S
C684 C687 1.526 . S
C685 H669 0.959 . S
C685 H670 0.959 . S
C685 H671 0.961 . S
C685 C684 1.502 . S
C686 H672 0.960 . S
C686 H673 0.961 . S
C686 H674 0.959 . S
C686 C684 1.561 . S
C687 C684 1.526 . S
C687 C688 1.396 . S
C687 C692 1.390 . S
C688 C682 1.465 . S
C688 C687 1.396 . S
C688 C689 1.399 . S
C689 H675 0.929 . S
C689 C688 1.399 . S
C689 C690 1.385 . S
C690 H676 0.931 . S
C690 C689 1.385 . S
C690 C691 1.389 . S
C691 C690 1.389 . S
C691 C692 1.387 . S
C692 H677 0.930 . S
C692 C687 1.390 . S
C692 C691 1.387 . S
H693 C705 0.930 . S
H694 C707 0.930 . S
H695 C708 0.930 . S
H696 C712 0.959 . S
H697 C712 0.959 . S
H698 C712 0.961 . S
H699 C713 0.960 . S
H700 C713 0.961 . S
H701 C713 0.959 . S
H702 C716 0.929 . S
H703 C717 0.931 . S
H704 C719 0.930 . S
C705 H693 0.930 . S
C705 C706 1.399 . S
C705 C710 1.399 . S
C706 C705 1.399 . S
C706 C707 1.376 . S
C707 H694 0.930 . S
C707 C706 1.376 . S
C707 C708 1.388 . S
C708 H695 0.930 . S
C708 C707 1.388 . S
C708 C709 1.390 . S
C709 C708 1.390 . S
C709 C710 1.394 . S
C709 C715 1.465 . S
C710 C705 1.399 . S
C710 C709 1.394 . S
C710 C711 1.516 . S
C711 C710 1.516 . S
C711 C712 1.502 . S
C711 C713 1.561 . S
C711 C714 1.526 . S
C712 H696 0.959 . S
C712 H697 0.959 . S
C712 H698 0.961 . S
C712 C711 1.502 . S
C713 H699 0.960 . S
C713 H700 0.961 . S
C713 H701 0.959 . S
C713 C711 1.561 . S
C714 C711 1.526 . S
C714 C715 1.396 . S
C714 C719 1.390 . S
C715 C709 1.465 . S
C715 C714 1.396 . S
C715 C716 1.399 . S
C716 H702 0.929 . S
C716 C715 1.399 . S
C716 C717 1.385 . S
C717 H703 0.931 . S
C717 C716 1.385 . S
C717 C718 1.389 . S
C718 C717 1.389 . S
C718 C719 1.387 . S
C719 H704 0.930 . S
C719 C714 1.390 . S
C719 C718 1.387 . S
H720 C732 0.930 . S
H721 C734 0.930 . S
H722 C735 0.930 . S
H723 C739 0.959 . S
H724 C739 0.959 . S
H725 C739 0.961 . S
H726 C740 0.960 . S
H727 C740 0.961 . S
H728 C740 0.959 . S
H729 C743 0.929 . S
H730 C744 0.931 . S
H731 C746 0.930 . S
C732 H720 0.930 . S
C732 C733 1.399 . S
C732 C737 1.399 . S
C733 C732 1.399 . S
C733 C734 1.376 . S
C734 H721 0.930 . S
C734 C733 1.376 . S
C734 C735 1.388 . S
C735 H722 0.930 . S
C735 C734 1.388 . S
C735 C736 1.390 . S
C736 C735 1.390 . S
C736 C737 1.394 . S
C736 C742 1.465 . S
C737 C732 1.399 . S
C737 C736 1.394 . S
C737 C738 1.516 . S
C738 C737 1.516 . S
C738 C739 1.502 . S
C738 C740 1.561 . S
C738 C741 1.526 . S
C739 H723 0.959 . S
C739 H724 0.959 . S
C739 H725 0.961 . S
C739 C738 1.502 . S
C740 H726 0.960 . S
C740 H727 0.961 . S
C740 H728 0.959 . S
C740 C738 1.561 . S
C741 C738 1.526 . S
C741 C742 1.396 . S
C741 C746 1.390 . S
C742 C736 1.465 . S
C742 C741 1.396 . S
C742 C743 1.399 . S
C743 H729 0.929 . S
C743 C742 1.399 . S
C743 C744 1.385 . S
C744 H730 0.931 . S
C744 C743 1.385 . S
C744 C745 1.389 . S
C745 C744 1.389 . S
C745 C746 1.387 . S
C746 H731 0.930 . S
C746 C741 1.390 . S
C746 C745 1.387 . S
H747 C759 0.930 . S
H748 C761 0.930 . S
H749 C762 0.930 . S
H750 C766 0.959 . S
H751 C766 0.959 . S
H752 C766 0.961 . S
H753 C767 0.960 . S
H754 C767 0.961 . S
H755 C767 0.959 . S
H756 C770 0.929 . S
H757 C771 0.931 . S
H758 C773 0.930 . S
C759 H747 0.930 . S
C759 C760 1.399 . S
C759 C764 1.399 . S
C760 C759 1.399 . S
C760 C761 1.376 . S
C761 H748 0.930 . S
C761 C760 1.376 . S
C761 C762 1.388 . S
C762 H749 0.930 . S
C762 C761 1.388 . S
C762 C763 1.390 . S
C763 C762 1.390 . S
C763 C764 1.394 . S
C763 C769 1.465 . S
C764 C759 1.399 . S
C764 C763 1.394 . S
C764 C765 1.516 . S
C765 C764 1.516 . S
C765 C766 1.502 . S
C765 C767 1.561 . S
C765 C768 1.526 . S
C766 H750 0.959 . S
C766 H751 0.959 . S
C766 H752 0.961 . S
C766 C765 1.502 . S
C767 H753 0.960 . S
C767 H754 0.961 . S
C767 H755 0.959 . S
C767 C765 1.561 . S
C768 C765 1.526 . S
C768 C769 1.396 . S
C768 C773 1.390 . S
C769 C763 1.465 . S
C769 C768 1.396 . S
C769 C770 1.399 . S
C770 H756 0.929 . S
C770 C769 1.399 . S
C770 C771 1.385 . S
C771 H757 0.931 . S
C771 C770 1.385 . S
C771 C772 1.389 . S
C772 C771 1.389 . S
C772 C773 1.387 . S
C773 H758 0.930 . S
C773 C768 1.390 . S
C773 C772 1.387 . S
H774 C786 0.930 . S
H775 C788 0.930 . S
H776 C789 0.930 . S
H777 C793 0.959 . S
H778 C793 0.959 . S
H779 C793 0.961 . S
H780 C794 0.960 . S
H781 C794 0.961 . S
H782 C794 0.959 . S
H783 C797 0.929 . S
H784 C798 0.931 . S
H785 C800 0.930 . S
C786 H774 0.930 . S
C786 C787 1.399 . S
C786 C791 1.399 . S
C787 C786 1.399 . S
C787 C788 1.376 . S
C788 H775 0.930 . S
C788 C787 1.376 . S
C788 C789 1.388 . S
C789 H776 0.930 . S
C789 C788 1.388 . S
C789 C790 1.390 . S
C790 C789 1.390 . S
C790 C791 1.394 . S
C790 C796 1.465 . S
C791 C786 1.399 . S
C791 C790 1.394 . S
C791 C792 1.516 . S
C792 C791 1.516 . S
C792 C793 1.502 . S
C792 C794 1.561 . S
C792 C795 1.526 . S
C793 H777 0.959 . S
C793 H778 0.959 . S
C793 H779 0.961 . S
C793 C792 1.502 . S
C794 H780 0.960 . S
C794 H781 0.961 . S
C794 H782 0.959 . S
C794 C792 1.561 . S
C795 C792 1.526 . S
C795 C796 1.396 . S
C795 C800 1.390 . S
C796 C790 1.465 . S
C796 C795 1.396 . S
C796 C797 1.399 . S
C797 H783 0.929 . S
C797 C796 1.399 . S
C797 C798 1.385 . S
C798 H784 0.931 . S
C798 C797 1.385 . S
C798 C799 1.389 . S
C799 C798 1.389 . S
C799 C800 1.387 . S
C800 H785 0.930 . S
C800 C795 1.390 . S
C800 C799 1.387 . S
H801 C813 0.930 . S
H802 C815 0.930 . S
H803 C816 0.930 . S
H804 C820 0.959 . S
H805 C820 0.959 . S
H806 C820 0.961 . S
H807 C821 0.960 . S
H808 C821 0.961 . S
H809 C821 0.959 . S
H810 C824 0.929 . S
H811 C825 0.931 . S
H812 C827 0.930 . S
C813 H801 0.930 . S
C813 C814 1.399 . S
C813 C818 1.399 . S
C814 C813 1.399 . S
C814 C815 1.376 . S
C815 H802 0.930 . S
C815 C814 1.376 . S
C815 C816 1.388 . S
C816 H803 0.930 . S
C816 C815 1.388 . S
C816 C817 1.390 . S
C817 C816 1.390 . S
C817 C818 1.394 . S
C817 C823 1.465 . S
C818 C813 1.399 . S
C818 C817 1.394 . S
C818 C819 1.516 . S
C819 C818 1.516 . S
C819 C820 1.502 . S
C819 C821 1.561 . S
C819 C822 1.526 . S
C820 H804 0.959 . S
C820 H805 0.959 . S
C820 H806 0.961 . S
C820 C819 1.502 . S
C821 H807 0.960 . S
C821 H808 0.961 . S
C821 H809 0.959 . S
C821 C819 1.561 . S
C822 C819 1.526 . S
C822 C823 1.396 . S
C822 C827 1.390 . S
C823 C817 1.465 . S
C823 C822 1.396 . S
C823 C824 1.399 . S
C824 H810 0.929 . S
C824 C823 1.399 . S
C824 C825 1.385 . S
C825 H811 0.931 . S
C825 C824 1.385 . S
C825 C826 1.389 . S
C826 C825 1.389 . S
C826 C827 1.387 . S
C827 H812 0.930 . S
C827 C822 1.390 . S
C827 C826 1.387 . S
H828 C840 0.930 . S
H829 C842 0.930 . S
H830 C843 0.930 . S
H831 C847 0.959 . S
H832 C847 0.959 . S
H833 C847 0.961 . S
H834 C848 0.960 . S
H835 C848 0.961 . S
H836 C848 0.959 1_655 S
H837 C851 0.929 . S
H838 C852 0.931 . S
H839 C854 0.930 . S
C840 H828 0.930 . S
C840 C841 1.399 . S
C840 C845 1.399 . S
C841 C840 1.399 . S
C841 C842 1.376 . S
C842 H829 0.930 . S
C842 C841 1.376 . S
C842 C843 1.388 . S
C843 H830 0.930 . S
C843 C842 1.388 . S
C843 C844 1.390 . S
C844 C843 1.390 . S
C844 C845 1.394 . S
C844 C850 1.465 . S
C845 C840 1.399 . S
C845 C844 1.394 . S
C845 C846 1.516 1_655 S
C846 C845 1.516 1_455 S
C846 C847 1.502 . S
C846 C848 1.561 . S
C846 C849 1.526 . S
C847 H831 0.959 . S
C847 H832 0.959 . S
C847 H833 0.961 . S
C847 C846 1.502 . S
C848 H834 0.960 . S
C848 H835 0.961 . S
C848 H836 0.959 1_455 S
C848 C846 1.561 . S
C849 C846 1.526 . S
C849 C850 1.396 1_455 S
C849 C854 1.390 . S
C850 C844 1.465 . S
C850 C849 1.396 1_655 S
C850 C851 1.399 . S
C851 H837 0.929 . S
C851 C850 1.399 . S
C851 C852 1.385 1_655 S
C852 H838 0.931 . S
C852 C851 1.385 1_455 S
C852 C853 1.389 . S
C853 C852 1.389 . S
C853 C854 1.387 . S
C854 H839 0.930 . S
C854 C849 1.390 . S
C854 C853 1.387 . S
H855 C867 0.930 . S
H856 C869 0.930 . S
H857 C870 0.930 . S
H858 C874 0.959 . S
H859 C874 0.959 . S
H860 C874 0.961 . S
H861 C875 0.960 . S
H862 C875 0.961 . S
H863 C875 0.959 . S
H864 C878 0.929 . S
H865 C879 0.931 . S
H866 C881 0.930 . S
C867 H855 0.930 . S
C867 C868 1.399 . S
C867 C872 1.399 . S
C868 C867 1.399 . S
C868 C869 1.376 . S
C869 H856 0.930 . S
C869 C868 1.376 . S
C869 C870 1.388 . S
C870 H857 0.930 . S
C870 C869 1.388 . S
C870 C871 1.390 . S
C871 C870 1.390 . S
C871 C872 1.394 . S
C871 C877 1.465 . S
C872 C867 1.399 . S
C872 C871 1.394 . S
C872 C873 1.516 . S
C873 C872 1.516 . S
C873 C874 1.502 . S
C873 C875 1.561 . S
C873 C876 1.526 . S
C874 H858 0.959 . S
C874 H859 0.959 . S
C874 H860 0.961 . S
C874 C873 1.502 . S
C875 H861 0.960 . S
C875 H862 0.961 . S
C875 H863 0.959 . S
C875 C873 1.561 . S
C876 C873 1.526 . S
C876 C877 1.396 . S
C876 C881 1.390 . S
C877 C871 1.465 . S
C877 C876 1.396 . S
C877 C878 1.399 . S
C878 H864 0.929 . S
C878 C877 1.399 . S
C878 C879 1.385 . S
C879 H865 0.931 . S
C879 C878 1.385 . S
C879 C880 1.389 . S
C880 C879 1.389 . S
C880 C881 1.387 . S
C881 H866 0.930 . S
C881 C876 1.390 . S
C881 C880 1.387 . S
H882 C894 0.930 1_565 S
H883 C896 0.930 . S
H884 C897 0.930 . S
H885 C901 0.959 . S
H886 C901 0.959 . S
H887 C901 0.961 . S
H888 C902 0.960 . S
H889 C902 0.961 . S
H890 C902 0.959 . S
H891 C905 0.929 . S
H892 C906 0.931 1_545 S
H893 C908 0.930 . S
C894 H882 0.930 1_545 S
C894 C895 1.399 . S
C894 C899 1.400 1_545 S
C895 C894 1.399 . S
C895 C896 1.376 . S
C896 H883 0.930 . S
C896 C895 1.376 . S
C896 C897 1.388 . S
C897 H884 0.930 . S
C897 C896 1.388 . S
C897 C898 1.390 . S
C898 C897 1.390 . S
C898 C899 1.397 1_545 S
C898 C904 1.465 . S
C899 C894 1.400 1_565 S
C899 C898 1.397 1_565 S
C899 C900 1.513 . S
C900 C899 1.513 . S
C900 C901 1.502 . S
C900 C902 1.561 . S
C900 C903 1.526 . S
C901 H885 0.959 . S
C901 H886 0.959 . S
C901 H887 0.961 . S
C901 C900 1.502 . S
C902 H888 0.960 . S
C902 H889 0.961 . S
C902 H890 0.959 . S
C902 C900 1.561 . S
C903 C900 1.526 . S
C903 C904 1.396 1_565 S
C903 C908 1.390 . S
C904 C898 1.465 . S
C904 C903 1.396 1_545 S
C904 C905 1.399 . S
C905 H891 0.929 . S
C905 C904 1.399 . S
C905 C906 1.385 1_545 S
C906 H892 0.931 1_565 S
C906 C905 1.385 1_565 S
C906 C907 1.389 . S
C907 C906 1.389 . S
C907 C908 1.387 . S
C908 H893 0.930 . S
C908 C903 1.390 . S
C908 C907 1.387 . S
H909 C921 0.930 . S
H910 C923 0.930 . S
H911 C924 0.930 . S
H912 C928 0.959 . S
H913 C928 0.959 . S
H914 C928 0.961 1_556 S
H915 C929 0.960 . S
H916 C929 0.961 . S
H917 C929 0.959 . S
H918 C932 0.929 . S
H919 C933 0.931 . S
H920 C935 0.930 . S
C921 H909 0.930 . S
C921 C922 1.399 . S
C921 C926 1.399 . S
C922 C921 1.399 . S
C922 C923 1.376 . S
C923 H910 0.930 . S
C923 C922 1.376 . S
C923 C924 1.388 . S
C924 H911 0.930 . S
C924 C923 1.388 . S
C924 C925 1.390 . S
C925 C924 1.390 . S
C925 C926 1.394 . S
C925 C931 1.455 1_546 S
C926 C921 1.399 . S
C926 C925 1.394 . S
C926 C927 1.516 1_545 S
C927 C926 1.516 1_565 S
C927 C928 1.502 1_556 S
C927 C929 1.561 . S
C927 C930 1.526 1_556 S
C928 H912 0.959 . S
C928 H913 0.959 . S
C928 H914 0.961 1_554 S
C928 C927 1.502 1_554 S
C929 H915 0.960 . S
C929 H916 0.961 . S
C929 H917 0.959 . S
C929 C927 1.561 . S
C930 C927 1.526 1_554 S
C930 C931 1.401 . S
C930 C935 1.390 . S
C931 C925 1.455 1_564 S
C931 C930 1.401 . S
C931 C932 1.404 1_565 S
C932 H918 0.929 . S
C932 C931 1.404 1_545 S
C932 C933 1.385 1_545 S
C933 H919 0.931 . S
C933 C932 1.385 1_565 S
C933 C934 1.389 . S
C934 C933 1.389 . S
C934 C935 1.387 . S
C935 H920 0.930 . S
C935 C930 1.390 . S
C935 C934 1.387 . S
H936 C948 0.930 . S
H937 C950 0.930 . S
H938 C951 0.915 1_554 S
H939 C955 0.959 . S
H940 C955 0.959 . S
H941 C955 0.961 . S
H942 C956 0.960 . S
H943 C956 0.961 1_554 S
H944 C956 0.959 1_554 S
H945 C959 0.929 . S
H946 C960 0.931 . S
H947 C962 0.930 . S
C948 H936 0.930 . S
C948 C949 1.399 . S
C948 C953 1.399 . S
C949 C948 1.399 . S
C949 C950 1.376 . S
C950 H937 0.930 . S
C950 C949 1.376 . S
C950 C951 1.388 . S
C951 H938 0.915 1_556 S
C951 C950 1.388 . S
C951 C952 1.390 . S
C952 C951 1.390 . S
C952 C953 1.394 . S
C952 C958 1.465 1_656 S
C953 C948 1.399 . S
C953 C952 1.394 . S
C953 C954 1.517 1_655 S
C954 C953 1.517 1_455 S
C954 C955 1.508 . S
C954 C956 1.546 1_455 S
C954 C957 1.533 1_556 S
C955 H939 0.959 . S
C955 H940 0.959 . S
C955 H941 0.961 . S
C955 C954 1.508 . S
C956 H942 0.960 . S
C956 H943 0.961 1_556 S
C956 H944 0.959 1_556 S
C956 C954 1.546 1_655 S
C957 C954 1.533 1_554 S
C957 C958 1.396 . S
C957 C962 1.390 . S
C958 C952 1.465 1_454 S
C958 C957 1.396 . S
C958 C959 1.399 . S
C959 H945 0.929 . S
C959 C958 1.399 . S
C959 C960 1.385 . S
C960 H946 0.931 . S
C960 C959 1.385 . S
C960 C961 1.389 . S
C961 C960 1.389 . S
C961 C962 1.387 . S
C962 H947 0.930 . S
C962 C957 1.390 . S
C962 C961 1.387 . S
H963 C975 0.930 . S
H964 C977 0.930 . S
H965 C978 0.930 . S
H966 C982 0.959 1_554 S
H967 C982 0.959 . S
H968 C982 0.961 . S
H969 C983 0.960 . S
H970 C983 0.961 . S
H971 C983 0.959 . S
H972 C986 0.929 . S
H973 C987 0.931 . S
H974 C989 0.930 . S
C975 H963 0.930 . S
C975 C976 1.399 . S
C975 C980 1.399 . S
C976 C975 1.399 . S
C976 C977 1.376 . S
C977 H964 0.930 . S
C977 C976 1.376 . S
C977 C978 1.388 . S
C978 H965 0.930 . S
C978 C977 1.388 . S
C978 C979 1.390 . S
C979 C978 1.390 . S
C979 C980 1.394 . S
C979 C985 1.465 1_556 S
C980 C975 1.399 . S
C980 C979 1.394 . S
C980 C981 1.516 . S
C981 C980 1.516 . S
C981 C982 1.502 . S
C981 C983 1.561 . S
C981 C984 1.526 1_556 S
C982 H966 0.959 1_556 S
C982 H967 0.959 . S
C982 H968 0.961 . S
C982 C981 1.502 . S
C983 H969 0.960 . S
C983 H970 0.961 . S
C983 H971 0.959 . S
C983 C981 1.561 . S
C984 C981 1.526 1_554 S
C984 C985 1.396 . S
C984 C989 1.390 . S
C985 C979 1.465 1_554 S
C985 C984 1.396 . S
C985 C986 1.399 . S
C986 H972 0.929 . S
C986 C985 1.399 . S
C986 C987 1.385 . S
C987 H973 0.931 . S
C987 C986 1.385 . S
C987 C988 1.389 . S
C988 C987 1.389 . S
C988 C989 1.387 . S
C989 H974 0.930 . S
C989 C984 1.390 . S
C989 C988 1.387 . S
H990 C1002 0.930 . S
H991 C1004 0.930 . S
H992 C1005 0.930 . S
H993 C1009 0.954 . S
H994 C1009 0.959 . S
H995 C1009 0.961 . S
H996 C1010 0.960 . S
H997 C1010 0.961 . S
H998 C1010 0.959 . S
H999 C1013 0.929 . S
H1000 C1014 0.931 . S
H1001 C1016 0.930 . S
C1002 H990 0.930 . S
C1002 C1003 1.399 1_545 S
C1002 C1007 1.399 . S
C1003 C1002 1.399 1_565 S
C1003 C1004 1.376 . S
C1004 H991 0.930 . S
C1004 C1003 1.376 . S
C1004 C1005 1.388 1_565 S
C1005 H992 0.930 . S
C1005 C1004 1.388 1_545 S
C1005 C1006 1.390 . S
C1006 C1005 1.390 . S
C1006 C1007 1.394 . S
C1006 C1012 1.491 . S
C1007 C1002 1.399 . S
C1007 C1006 1.394 . S
C1007 C1008 1.516 . S
C1008 C1007 1.516 . S
C1008 C1009 1.502 . S
C1008 C1010 1.561 . S
C1008 C1011 1.526 . S
C1009 H993 0.954 . S
C1009 H994 0.959 . S
C1009 H995 0.961 . S
C1009 C1008 1.502 . S
C1010 H996 0.960 . S
C1010 H997 0.961 . S
C1010 H998 0.959 . S
C1010 C1008 1.561 . S
C1011 C1008 1.526 . S
C1011 C1012 1.403 . S
C1011 C1016 1.390 1_556 S
C1012 C1006 1.491 . S
C1012 C1011 1.403 . S
C1012 C1013 1.371 1_556 S
C1013 H999 0.929 . S
C1013 C1012 1.371 1_554 S
C1013 C1014 1.385 . S
C1014 H1000 0.931 . S
C1014 C1013 1.385 . S
C1014 C1015 1.389 . S
C1015 C1014 1.389 . S
C1015 C1016 1.387 . S
C1016 H1001 0.930 . S
C1016 C1011 1.390 1_554 S
C1016 C1015 1.387 . S
H1017 C1029 0.930 . S
H1018 C1031 0.933 1_455 S
H1019 C1032 0.930 . S
H1020 C1036 0.959 . S
H1021 C1036 0.959 1_554 S
H1022 C1036 0.961 . S
H1023 C1037 0.960 1_455 S
H1024 C1037 0.961 . S
H1025 C1037 0.959 . S
H1026 C1040 0.929 . S
H1027 C1041 0.931 . S
H1028 C1043 0.930 . S
C1029 H1017 0.930 . S
C1029 C1030 1.399 . S
C1029 C1034 1.399 1_455 S
C1030 C1029 1.399 . S
C1030 C1031 1.353 1_455 S
C1031 H1018 0.933 1_655 S
C1031 C1030 1.353 1_655 S
C1031 C1032 1.410 . S
C1032 H1019 0.930 . S
C1032 C1031 1.410 . S
C1032 C1033 1.390 . S
C1033 C1032 1.390 . S
C1033 C1034 1.394 . S
C1033 C1039 1.465 . S
C1034 C1029 1.399 1_655 S
C1034 C1033 1.394 . S
C1034 C1035 1.516 1_556 S
C1035 C1034 1.516 1_554 S
C1035 C1036 1.502 1_554 S
C1035 C1037 1.561 . S
C1035 C1038 1.526 . S
C1036 H1020 0.959 . S
C1036 H1021 0.959 1_556 S
C1036 H1022 0.961 . S
C1036 C1035 1.502 1_556 S
C1037 H1023 0.960 1_655 S
C1037 H1024 0.961 . S
C1037 H1025 0.959 . S
C1037 C1035 1.561 . S
C1038 C1035 1.526 . S
C1038 C1039 1.396 1_554 S
C1038 C1043 1.390 . S
C1039 C1033 1.465 . S
C1039 C1038 1.396 1_556 S
C1039 C1040 1.399 . S
C1040 H1026 0.929 . S
C1040 C1039 1.399 . S
C1040 C1041 1.385 1_556 S
C1041 H1027 0.931 . S
C1041 C1040 1.385 1_554 S
C1041 C1042 1.389 . S
C1042 C1041 1.389 . S
C1042 C1043 1.387 . S
C1043 H1028 0.930 . S
C1043 C1038 1.390 . S
C1043 C1042 1.387 . S
H1044 C1056 0.930 . S
H1045 C1058 0.930 . S
H1046 C1059 0.930 . S
H1047 C1063 0.959 . S
H1048 C1063 0.959 . S
H1049 C1063 0.961 . S
H1050 C1064 0.960 . S
H1051 C1064 0.961 . S
H1052 C1064 0.959 . S
H1053 C1067 0.929 . S
H1054 C1068 0.931 . S
H1055 C1070 0.930 . S
C1056 H1044 0.930 . S
C1056 C1057 1.399 . S
C1056 C1061 1.399 . S
C1057 C1056 1.399 . S
C1057 C1058 1.376 1_554 S
C1058 H1045 0.930 . S
C1058 C1057 1.376 1_556 S
C1058 C1059 1.388 . S
C1059 H1046 0.930 . S
C1059 C1058 1.388 . S
C1059 C1060 1.390 . S
C1060 C1059 1.390 . S
C1060 C1061 1.394 1_556 S
C1060 C1066 1.465 . S
C1061 C1056 1.399 . S
C1061 C1060 1.394 1_554 S
C1061 C1062 1.516 . S
C1062 C1061 1.516 . S
C1062 C1063 1.502 . S
C1062 C1064 1.561 . S
C1062 C1065 1.526 1_554 S
C1063 H1047 0.959 . S
C1063 H1048 0.959 . S
C1063 H1049 0.961 . S
C1063 C1062 1.502 . S
C1064 H1050 0.960 . S
C1064 H1051 0.961 . S
C1064 H1052 0.959 . S
C1064 C1062 1.561 . S
C1065 C1062 1.526 1_556 S
C1065 C1066 1.396 . S
C1065 C1070 1.390 . S
C1066 C1060 1.465 . S
C1066 C1065 1.396 . S
C1066 C1067 1.399 . S
C1067 H1053 0.929 . S
C1067 C1066 1.399 . S
C1067 C1068 1.385 . S
C1068 H1054 0.931 . S
C1068 C1067 1.385 . S
C1068 C1069 1.389 . S
C1069 C1068 1.389 . S
C1069 C1070 1.387 . S
C1070 H1055 0.930 . S
C1070 C1065 1.390 . S
C1070 C1069 1.387 . S
H1071 C1083 0.930 . S
H1072 C1085 0.930 . S
H1073 C1086 0.928 . S
H1074 C1090 0.959 . S
H1075 C1090 0.959 . S
H1076 C1090 0.961 . S
H1077 C1091 0.960 . S
H1078 C1091 0.961 . S
H1079 C1091 0.959 . S
H1080 C1094 0.929 . S
H1081 C1095 0.931 . S
H1082 C1097 0.930 . S
C1083 H1071 0.930 . S
C1083 C1084 1.399 1_455 S
C1083 C1088 1.399 . S
C1084 C1083 1.399 1_655 S
C1084 C1085 1.376 . S
C1085 H1072 0.930 . S
C1085 C1084 1.376 . S
C1085 C1086 1.388 1_655 S
C1086 H1073 0.928 . S
C1086 C1085 1.388 1_455 S
C1086 C1087 1.390 . S
C1087 C1086 1.390 . S
C1087 C1088 1.394 . S
C1087 C1093 1.465 . S
C1088 C1083 1.399 . S
C1088 C1087 1.394 . S
C1088 C1089 1.516 . S
C1089 C1088 1.516 . S
C1089 C1090 1.502 . S
C1089 C1091 1.561 . S
C1089 C1092 1.526 . S
C1090 H1074 0.959 . S
C1090 H1075 0.959 . S
C1090 H1076 0.961 . S
C1090 C1089 1.502 . S
C1091 H1077 0.960 . S
C1091 H1078 0.961 . S
C1091 H1079 0.959 . S
C1091 C1089 1.561 . S
C1092 C1089 1.526 . S
C1092 C1093 1.396 . S
C1092 C1097 1.390 . S
C1093 C1087 1.465 . S
C1093 C1092 1.396 . S
C1093 C1094 1.399 . S
C1094 H1080 0.929 . S
C1094 C1093 1.399 . S
C1094 C1095 1.385 . S
C1095 H1081 0.931 . S
C1095 C1094 1.385 . S
C1095 C1096 1.389 . S
C1096 C1095 1.389 . S
C1096 C1097 1.387 . S
C1097 H1082 0.930 . S
C1097 C1092 1.390 . S
C1097 C1096 1.387 . S
H1098 C1110 0.930 . S
H1099 C1112 0.930 . S
H1100 C1113 0.930 . S
H1101 C1117 0.959 . S
H1102 C1117 0.959 . S
H1103 C1117 0.961 . S
H1104 C1118 0.960 . S
H1105 C1118 0.961 . S
H1106 C1118 0.959 . S
H1107 C1121 0.929 . S
H1108 C1122 0.931 . S
H1109 C1124 0.930 . S
C1110 H1098 0.930 . S
C1110 C1111 1.399 . S
C1110 C1115 1.399 . S
C1111 C1110 1.399 . S
C1111 C1112 1.376 . S
C1112 H1099 0.930 . S
C1112 C1111 1.376 . S
C1112 C1113 1.388 . S
C1113 H1100 0.930 . S
C1113 C1112 1.388 . S
C1113 C1114 1.390 . S
C1114 C1113 1.390 . S
C1114 C1115 1.394 . S
C1114 C1120 1.465 . S
C1115 C1110 1.399 . S
C1115 C1114 1.394 . S
C1115 C1116 1.516 . S
C1116 C1115 1.516 . S
C1116 C1117 1.502 . S
C1116 C1118 1.561 . S
C1116 C1119 1.526 . S
C1117 H1101 0.959 . S
C1117 H1102 0.959 . S
C1117 H1103 0.961 . S
C1117 C1116 1.502 . S
C1118 H1104 0.960 . S
C1118 H1105 0.961 . S
C1118 H1106 0.959 . S
C1118 C1116 1.561 . S
C1119 C1116 1.526 . S
C1119 C1120 1.396 . S
C1119 C1124 1.390 . S
C1120 C1114 1.465 . S
C1120 C1119 1.396 . S
C1120 C1121 1.399 . S
C1121 H1107 0.929 . S
C1121 C1120 1.399 . S
C1121 C1122 1.385 . S
C1122 H1108 0.931 . S
C1122 C1121 1.385 . S
C1122 C1123 1.389 . S
C1123 C1122 1.389 . S
C1123 C1124 1.387 . S
C1124 H1109 0.930 . S
C1124 C1119 1.390 . S
C1124 C1123 1.387 . S
H1125 C1137 0.930 . S
H1126 C1139 0.930 . S
H1127 C1140 0.930 . S
H1128 C1144 0.959 . S
H1129 C1144 0.959 . S
H1130 C1144 0.961 . S
H1131 C1145 0.960 1_545 S
H1132 C1145 0.961 . S
H1133 C1145 0.959 . S
H1134 C1148 0.929 . S
H1135 C1149 0.931 . S
H1136 C1151 0.930 . S
C1137 H1125 0.930 . S
C1137 C1138 1.399 . S
C1137 C1142 1.399 1_545 S
C1138 C1137 1.399 . S
C1138 C1139 1.376 1_545 S
C1139 H1126 0.930 . S
C1139 C1138 1.376 1_565 S
C1139 C1140 1.388 . S
C1140 H1127 0.930 . S
C1140 C1139 1.388 . S
C1140 C1141 1.390 . S
C1141 C1140 1.390 . S
C1141 C1142 1.394 . S
C1141 C1147 1.465 . S
C1142 C1137 1.399 1_565 S
C1142 C1141 1.394 . S
C1142 C1143 1.516 . S
C1143 C1142 1.516 . S
C1143 C1144 1.502 . S
C1143 C1145 1.561 . S
C1143 C1146 1.526 . S
C1144 H1128 0.959 . S
C1144 H1129 0.959 . S
C1144 H1130 0.961 . S
C1144 C1143 1.502 . S
C1145 H1131 0.960 1_565 S
C1145 H1132 0.961 . S
C1145 H1133 0.959 . S
C1145 C1143 1.561 . S
C1146 C1143 1.526 . S
C1146 C1147 1.396 . S
C1146 C1151 1.390 . S
C1147 C1141 1.465 . S
C1147 C1146 1.396 . S
C1147 C1148 1.399 . S
C1148 H1134 0.929 . S
C1148 C1147 1.399 . S
C1148 C1149 1.385 . S
C1149 H1135 0.931 . S
C1149 C1148 1.385 . S
C1149 C1150 1.389 . S
C1150 C1149 1.389 . S
C1150 C1151 1.387 . S
C1151 H1136 0.930 . S
C1151 C1146 1.390 . S
C1151 C1150 1.387 . S
H1152 C1164 0.930 . S
H1153 C1166 0.930 . S
H1154 C1167 0.930 . S
H1155 C1171 0.959 . S
H1156 C1171 0.959 1_545 S
H1157 C1171 0.961 . S
H1158 C1172 0.960 . S
H1159 C1172 0.999 . S
H1160 C1172 0.959 . S
H1161 C1175 0.929 . S
H1162 C1176 0.931 . S
H1163 C1178 0.930 . S
C1164 H1152 0.930 . S
C1164 C1165 1.399 . S
C1164 C1169 1.399 . S
C1165 C1164 1.399 . S
C1165 C1166 1.376 1_556 S
C1166 H1153 0.930 . S
C1166 C1165 1.376 1_554 S
C1166 C1167 1.388 . S
C1167 H1154 0.930 . S
C1167 C1166 1.388 . S
C1167 C1168 1.390 . S
C1168 C1167 1.390 . S
C1168 C1169 1.394 1_554 S
C1168 C1174 1.465 . S
C1169 C1164 1.399 . S
C1169 C1168 1.394 1_556 S
C1169 C1170 1.516 . S
C1170 C1169 1.516 . S
C1170 C1171 1.502 . S
C1170 C1172 1.561 . S
C1170 C1173 1.526 1_556 S
C1171 H1155 0.959 . S
C1171 H1156 0.959 1_565 S
C1171 H1157 0.961 . S
C1171 C1170 1.502 . S
C1172 H1158 0.960 . S
C1172 H1159 0.999 . S
C1172 H1160 0.959 . S
C1172 C1170 1.561 . S
C1173 C1170 1.526 1_554 S
C1173 C1174 1.396 . S
C1173 C1178 1.390 1_565 S
C1174 C1168 1.465 . S
C1174 C1173 1.396 . S
C1174 C1175 1.399 . S
C1175 H1161 0.929 . S
C1175 C1174 1.399 . S
C1175 C1176 1.385 . S
C1176 H1162 0.931 . S
C1176 C1175 1.385 . S
C1176 C1177 1.389 1_565 S
C1177 C1176 1.389 1_545 S
C1177 C1178 1.387 . S
C1178 H1163 0.930 . S
C1178 C1173 1.390 1_545 S
C1178 C1177 1.387 . S
H1179 C1191 0.930 . S
H1180 C1193 0.930 . S
H1181 C1194 0.930 . S
H1182 C1198 0.959 . S
H1183 C1198 0.959 . S
H1184 C1198 0.961 . S
H1185 C1199 0.960 . S
H1186 C1199 0.961 . S
H1187 C1199 0.959 . S
H1188 C1202 0.929 . S
H1189 C1203 0.931 . S
H1190 C1205 0.930 . S
C1191 H1179 0.930 . S
C1191 C1192 1.399 . S
C1191 C1196 1.399 . S
C1192 C1191 1.399 . S
C1192 C1193 1.376 . S
C1193 H1180 0.930 . S
C1193 C1192 1.376 . S
C1193 C1194 1.388 1_556 S
C1194 H1181 0.930 . S
C1194 C1193 1.388 1_554 S
C1194 C1195 1.390 . S
C1195 C1194 1.390 . S
C1195 C1196 1.394 1_554 S
C1195 C1201 1.465 . S
C1196 C1191 1.399 . S
C1196 C1195 1.394 1_556 S
C1196 C1197 1.516 1_556 S
C1197 C1196 1.516 1_554 S
C1197 C1198 1.502 1_554 S
C1197 C1199 1.561 . S
C1197 C1200 1.526 . S
C1198 H1182 0.959 . S
C1198 H1183 0.959 . S
C1198 H1184 0.961 . S
C1198 C1197 1.502 1_556 S
C1199 H1185 0.960 . S
C1199 H1186 0.961 . S
C1199 H1187 0.959 . S
C1199 C1197 1.561 . S
C1200 C1197 1.526 . S
C1200 C1201 1.396 . S
C1200 C1205 1.390 1_455 S
C1201 C1195 1.465 . S
C1201 C1200 1.396 . S
C1201 C1202 1.399 . S
C1202 H1188 0.929 . S
C1202 C1201 1.399 . S
C1202 C1203 1.385 1_455 S
C1203 H1189 0.931 . S
C1203 C1202 1.385 1_655 S
C1203 C1204 1.389 . S
C1204 C1203 1.389 . S
C1204 C1205 1.387 . S
C1205 H1190 0.930 . S
C1205 C1200 1.390 1_655 S
C1205 C1204 1.387 . S
H1206 C1218 0.930 . S
H1207 C1220 0.930 . S
H1208 C1221 0.930 . S
H1209 C1225 0.959 1_554 S
H1210 C1225 0.959 . S
H1211 C1225 0.961 . S
H1212 C1226 0.960 . S
H1213 C1226 0.961 . S
H1214 C1226 0.959 . S
H1215 C1229 0.929 . S
H1216 C1230 0.931 . S
H1217 C1232 0.930 . S
C1218 H1206 0.930 . S
C1218 C1219 1.399 . S
C1218 C1223 1.399 . S
C1219 C1218 1.399 . S
C1219 C1220 1.376 . S
C1220 H1207 0.930 . S
C1220 C1219 1.376 . S
C1220 C1221 1.388 1_556 S
C1221 H1208 0.930 . S
C1221 C1220 1.388 1_554 S
C1221 C1222 1.390 . S
C1222 C1221 1.390 . S
C1222 C1223 1.394 1_554 S
C1222 C1228 1.465 . S
C1223 C1218 1.399 . S
C1223 C1222 1.394 1_556 S
C1223 C1224 1.516 . S
C1224 C1223 1.516 . S
C1224 C1225 1.502 . S
C1224 C1226 1.561 . S
C1224 C1227 1.526 1_556 S
C1225 H1209 0.959 1_556 S
C1225 H1210 0.959 . S
C1225 H1211 0.961 . S
C1225 C1224 1.502 . S
C1226 H1212 0.960 . S
C1226 H1213 0.961 . S
C1226 H1214 0.959 . S
C1226 C1224 1.561 . S
C1227 C1224 1.526 1_554 S
C1227 C1228 1.396 . S
C1227 C1232 1.390 . S
C1228 C1222 1.465 . S
C1228 C1227 1.396 . S
C1228 C1229 1.399 . S
C1229 H1215 0.929 . S
C1229 C1228 1.399 . S
C1229 C1230 1.385 . S
C1230 H1216 0.931 . S
C1230 C1229 1.385 . S
C1230 C1231 1.389 . S
C1231 C1230 1.389 . S
C1231 C1232 1.387 . S
C1232 H1217 0.930 . S
C1232 C1227 1.390 . S
C1232 C1231 1.387 . S
H1233 C1245 0.930 . S
H1234 C1247 0.930 . S
H1235 C1248 0.930 . S
H1236 C1252 0.959 . S
H1237 C1252 0.959 . S
H1238 C1252 0.961 . S
H1239 C1253 0.960 . S
H1240 C1253 0.961 . S
H1241 C1253 0.959 . S
H1242 C1256 0.929 . S
H1243 C1257 0.931 . S
H1244 C1259 0.930 . S
C1245 H1233 0.930 . S
C1245 C1246 1.399 . S
C1245 C1250 1.399 . S
C1246 C1245 1.399 . S
C1246 C1247 1.376 . S
C1247 H1234 0.930 . S
C1247 C1246 1.376 . S
C1247 C1248 1.388 . S
C1248 H1235 0.930 . S
C1248 C1247 1.388 . S
C1248 C1249 1.390 . S
C1249 C1248 1.390 . S
C1249 C1250 1.394 . S
C1249 C1255 1.465 . S
C1250 C1245 1.399 . S
C1250 C1249 1.394 . S
C1250 C1251 1.516 . S
C1251 C1250 1.516 . S
C1251 C1252 1.502 . S
C1251 C1253 1.561 . S
C1251 C1254 1.526 . S
C1252 H1236 0.959 . S
C1252 H1237 0.959 . S
C1252 H1238 0.961 . S
C1252 C1251 1.502 . S
C1253 H1239 0.960 . S
C1253 H1240 0.961 . S
C1253 H1241 0.959 . S
C1253 C1251 1.561 . S
C1254 C1251 1.526 . S
C1254 C1255 1.396 . S
C1254 C1259 1.390 . S
C1255 C1249 1.465 . S
C1255 C1254 1.396 . S
C1255 C1256 1.399 1_655 S
C1256 H1242 0.929 . S
C1256 C1255 1.399 1_455 S
C1256 C1257 1.385 . S
C1257 H1243 0.931 . S
C1257 C1256 1.385 . S
C1257 C1258 1.389 . S
C1258 C1257 1.389 . S
C1258 C1259 1.387 1_455 S
C1259 H1244 0.930 . S
C1259 C1254 1.390 . S
C1259 C1258 1.387 1_655 S
H1260 C1272 0.930 . S
H1261 C1274 0.930 . S
H1262 C1275 0.930 . S
H1263 C1279 0.959 . S
H1264 C1279 0.959 . S
H1265 C1279 0.961 . S
H1266 C1280 0.960 . S
H1267 C1280 0.961 . S
H1268 C1280 0.959 . S
H1269 C1283 0.929 . S
H1270 C1284 0.931 . S
H1271 C1286 0.930 . S
C1272 H1260 0.930 . S
C1272 C1273 1.399 . S
C1272 C1277 1.399 . S
C1273 C1272 1.399 . S
C1273 C1274 1.376 . S
C1274 H1261 0.930 . S
C1274 C1273 1.376 . S
C1274 C1275 1.388 . S
C1275 H1262 0.930 . S
C1275 C1274 1.388 . S
C1275 C1276 1.390 . S
C1276 C1275 1.390 . S
C1276 C1277 1.394 . S
C1276 C1282 1.465 . S
C1277 C1272 1.399 . S
C1277 C1276 1.394 . S
C1277 C1278 1.516 . S
C1278 C1277 1.516 . S
C1278 C1279 1.502 . S
C1278 C1280 1.561 . S
C1278 C1281 1.526 . S
C1279 H1263 0.959 . S
C1279 H1264 0.959 . S
C1279 H1265 0.961 . S
C1279 C1278 1.502 . S
C1280 H1266 0.960 . S
C1280 H1267 0.961 . S
C1280 H1268 0.959 . S
C1280 C1278 1.561 . S
C1281 C1278 1.526 . S
C1281 C1282 1.396 . S
C1281 C1286 1.390 . S
C1282 C1276 1.465 . S
C1282 C1281 1.396 . S
C1282 C1283 1.399 . S
C1283 H1269 0.929 . S
C1283 C1282 1.399 . S
C1283 C1284 1.385 . S
C1284 H1270 0.931 . S
C1284 C1283 1.385 . S
C1284 C1285 1.389 . S
C1285 C1284 1.389 . S
C1285 C1286 1.387 . S
C1286 H1271 0.930 . S
C1286 C1281 1.390 . S
C1286 C1285 1.387 . S
H1287 C1299 0.930 . S
H1288 C1301 0.930 . S
H1289 C1302 0.930 . S
H1290 C1306 0.959 . S
H1291 C1306 0.959 . S
H1292 C1306 0.961 1_565 S
H1293 C1307 0.960 . S
H1294 C1307 0.961 . S
H1295 C1307 0.959 . S
H1296 C1310 0.929 . S
H1297 C1311 0.931 . S
H1298 C1313 0.930 . S
C1299 H1287 0.930 . S
C1299 C1300 1.399 . S
C1299 C1304 1.399 1_565 S
C1300 C1299 1.399 . S
C1300 C1301 1.376 1_565 S
C1301 H1288 0.930 . S
C1301 C1300 1.376 1_545 S
C1301 C1302 1.388 . S
C1302 H1289 0.930 . S
C1302 C1301 1.388 . S
C1302 C1303 1.390 . S
C1303 C1302 1.390 . S
C1303 C1304 1.394 . S
C1303 C1309 1.465 . S
C1304 C1299 1.399 1_545 S
C1304 C1303 1.394 . S
C1304 C1305 1.516 . S
C1305 C1304 1.516 . S
C1305 C1306 1.502 . S
C1305 C1307 1.561 . S
C1305 C1308 1.526 . S
C1306 H1290 0.959 . S
C1306 H1291 0.959 . S
C1306 H1292 0.961 1_545 S
C1306 C1305 1.502 . S
C1307 H1293 0.960 . S
C1307 H1294 0.961 . S
C1307 H1295 0.959 . S
C1307 C1305 1.561 . S
C1308 C1305 1.526 . S
C1308 C1309 1.396 . S
C1308 C1313 1.390 . S
C1309 C1303 1.465 . S
C1309 C1308 1.396 . S
C1309 C1310 1.399 . S
C1310 H1296 0.929 . S
C1310 C1309 1.399 . S
C1310 C1311 1.385 . S
C1311 H1297 0.931 . S
C1311 C1310 1.385 . S
C1311 C1312 1.389 . S
C1312 C1311 1.389 . S
C1312 C1313 1.387 . S
C1313 H1298 0.930 . S
C1313 C1308 1.390 . S
C1313 C1312 1.387 . S
H1314 C1326 0.930 . S
H1315 C1328 0.930 . S
H1316 C1329 0.930 . S
H1317 C1333 0.959 . S
H1318 C1333 0.959 . S
H1319 C1333 0.961 . S
H1320 C1334 0.960 . S
H1321 C1334 0.961 . S
H1322 C1334 0.959 . S
H1323 C1337 0.929 . S
H1324 C1338 0.931 . S
H1325 C1340 0.930 . S
C1326 H1314 0.930 . S
C1326 C1327 1.399 . S
C1326 C1331 1.399 . S
C1327 C1326 1.399 . S
C1327 C1328 1.376 . S
C1328 H1315 0.930 . S
C1328 C1327 1.376 . S
C1328 C1329 1.388 . S
C1329 H1316 0.930 . S
C1329 C1328 1.388 . S
C1329 C1330 1.390 . S
C1330 C1329 1.390 . S
C1330 C1331 1.394 . S
C1330 C1336 1.465 . S
C1331 C1326 1.399 . S
C1331 C1330 1.394 . S
C1331 C1332 1.516 . S
C1332 C1331 1.516 . S
C1332 C1333 1.502 . S
C1332 C1334 1.561 . S
C1332 C1335 1.526 . S
C1333 H1317 0.959 . S
C1333 H1318 0.959 . S
C1333 H1319 0.961 . S
C1333 C1332 1.502 . S
C1334 H1320 0.960 . S
C1334 H1321 0.961 . S
C1334 H1322 0.959 . S
C1334 C1332 1.561 . S
C1335 C1332 1.526 . S
C1335 C1336 1.396 . S
C1335 C1340 1.390 . S
C1336 C1330 1.465 . S
C1336 C1335 1.396 . S
C1336 C1337 1.399 . S
C1337 H1323 0.929 . S
C1337 C1336 1.399 . S
C1337 C1338 1.385 . S
C1338 H1324 0.931 . S
C1338 C1337 1.385 . S
C1338 C1339 1.389 . S
C1339 C1338 1.389 . S
C1339 C1340 1.387 . S
C1340 H1325 0.930 . S
C1340 C1335 1.390 . S
C1340 C1339 1.387 . S
H1341 C1353 0.930 . S
H1342 C1355 0.930 . S
H1343 C1356 0.930 . S
H1344 C1360 0.959 . S
H1345 C1360 0.959 . S
H1346 C1360 0.961 . S
H1347 C1361 0.960 . S
H1348 C1361 0.961 . S
H1349 C1361 0.959 . S
H1350 C1364 0.929 . S
H1351 C1365 0.931 . S
H1352 C1367 0.930 . S
C1353 H1341 0.930 . S
C1353 C1354 1.399 . S
C1353 C1358 1.399 . S
C1354 C1353 1.399 . S
C1354 C1355 1.376 . S
C1355 H1342 0.930 . S
C1355 C1354 1.376 . S
C1355 C1356 1.388 . S
C1356 H1343 0.930 . S
C1356 C1355 1.388 . S
C1356 C1357 1.390 . S
C1357 C1356 1.390 . S
C1357 C1358 1.394 . S
C1357 C1363 1.465 . S
C1358 C1353 1.399 . S
C1358 C1357 1.394 . S
C1358 C1359 1.516 . S
C1359 C1358 1.516 . S
C1359 C1360 1.502 . S
C1359 C1361 1.561 . S
C1359 C1362 1.526 . S
C1360 H1344 0.959 . S
C1360 H1345 0.959 . S
C1360 H1346 0.961 . S
C1360 C1359 1.502 . S
C1361 H1347 0.960 . S
C1361 H1348 0.961 . S
C1361 H1349 0.959 . S
C1361 C1359 1.561 . S
C1362 C1359 1.526 . S
C1362 C1363 1.396 . S
C1362 C1367 1.390 . S
C1363 C1357 1.465 . S
C1363 C1362 1.396 . S
C1363 C1364 1.399 . S
C1364 H1350 0.929 . S
C1364 C1363 1.399 . S
C1364 C1365 1.385 . S
C1365 H1351 0.931 . S
C1365 C1364 1.385 . S
C1365 C1366 1.389 . S
C1366 C1365 1.389 . S
C1366 C1367 1.387 . S
C1367 H1352 0.930 . S
C1367 C1362 1.390 . S
C1367 C1366 1.387 . S
H1368 C1380 0.930 . S
H1369 C1382 0.930 . S
H1370 C1383 0.930 . S
H1371 C1387 0.959 . S
H1372 C1387 0.959 . S
H1373 C1387 0.961 . S
H1374 C1388 0.960 . S
H1375 C1388 0.961 . S
H1376 C1388 0.959 . S
H1377 C1391 0.929 . S
H1378 C1392 0.931 . S
H1379 C1394 0.930 . S
C1380 H1368 0.930 . S
C1380 C1381 1.399 . S
C1380 C1385 1.399 . S
C1381 C1380 1.399 . S
C1381 C1382 1.376 . S
C1382 H1369 0.930 . S
C1382 C1381 1.376 . S
C1382 C1383 1.388 . S
C1383 H1370 0.930 . S
C1383 C1382 1.388 . S
C1383 C1384 1.390 . S
C1384 C1383 1.390 . S
C1384 C1385 1.394 . S
C1384 C1390 1.465 . S
C1385 C1380 1.399 . S
C1385 C1384 1.394 . S
C1385 C1386 1.516 . S
C1386 C1385 1.516 . S
C1386 C1387 1.502 . S
C1386 C1388 1.561 . S
C1386 C1389 1.526 . S
C1387 H1371 0.959 . S
C1387 H1372 0.959 . S
C1387 H1373 0.961 . S
C1387 C1386 1.502 . S
C1388 H1374 0.960 . S
C1388 H1375 0.961 . S
C1388 H1376 0.959 . S
C1388 C1386 1.561 . S
C1389 C1386 1.526 . S
C1389 C1390 1.396 . S
C1389 C1394 1.390 . S
C1390 C1384 1.465 . S
C1390 C1389 1.396 . S
C1390 C1391 1.399 . S
C1391 H1377 0.929 . S
C1391 C1390 1.399 . S
C1391 C1392 1.385 . S
C1392 H1378 0.931 . S
C1392 C1391 1.385 . S
C1392 C1393 1.389 . S
C1393 C1392 1.389 . S
C1393 C1394 1.387 . S
C1394 H1379 0.930 . S
C1394 C1389 1.390 . S
C1394 C1393 1.387 . S
H1395 C1407 0.930 . S
H1396 C1409 0.930 . S
H1397 C1410 0.930 . S
H1398 C1414 0.959 . S
H1399 C1414 0.959 . S
H1400 C1414 0.961 . S
H1401 C1415 0.960 . S
H1402 C1415 0.961 . S
H1403 C1415 0.959 . S
H1404 C1418 0.929 . S
H1405 C1419 0.931 . S
H1406 C1421 0.930 . S
C1407 H1395 0.930 . S
C1407 C1408 1.399 . S
C1407 C1412 1.399 . S
C1408 C1407 1.399 . S
C1408 C1409 1.376 . S
C1409 H1396 0.930 . S
C1409 C1408 1.376 . S
C1409 C1410 1.388 . S
C1410 H1397 0.930 . S
C1410 C1409 1.388 . S
C1410 C1411 1.390 . S
C1411 C1410 1.390 . S
C1411 C1412 1.394 . S
C1411 C1417 1.465 . S
C1412 C1407 1.399 . S
C1412 C1411 1.394 . S
C1412 C1413 1.516 . S
C1413 C1412 1.516 . S
C1413 C1414 1.502 . S
C1413 C1415 1.561 . S
C1413 C1416 1.526 . S
C1414 H1398 0.959 . S
C1414 H1399 0.959 . S
C1414 H1400 0.961 . S
C1414 C1413 1.502 . S
C1415 H1401 0.960 . S
C1415 H1402 0.961 . S
C1415 H1403 0.959 . S
C1415 C1413 1.561 . S
C1416 C1413 1.526 . S
C1416 C1417 1.396 . S
C1416 C1421 1.390 . S
C1417 C1411 1.465 . S
C1417 C1416 1.396 . S
C1417 C1418 1.399 . S
C1418 H1404 0.929 . S
C1418 C1417 1.399 . S
C1418 C1419 1.385 . S
C1419 H1405 0.931 . S
C1419 C1418 1.385 . S
C1419 C1420 1.389 . S
C1420 C1419 1.389 . S
C1420 C1421 1.387 . S
C1421 H1406 0.930 . S
C1421 C1416 1.390 . S
C1421 C1420 1.387 . S
H1422 C1434 0.930 . S
H1423 C1436 0.930 . S
H1424 C1437 0.930 . S
H1425 C1441 0.959 . S
H1426 C1441 0.959 . S
H1427 C1441 0.961 . S
H1428 C1442 0.960 . S
H1429 C1442 0.961 . S
H1430 C1442 0.959 . S
H1431 C1445 0.929 . S
H1432 C1446 0.931 . S
H1433 C1448 0.930 . S
C1434 H1422 0.930 . S
C1434 C1435 1.399 . S
C1434 C1439 1.399 . S
C1435 C1434 1.399 . S
C1435 C1436 1.376 . S
C1436 H1423 0.930 . S
C1436 C1435 1.376 . S
C1436 C1437 1.388 . S
C1437 H1424 0.930 . S
C1437 C1436 1.388 . S
C1437 C1438 1.390 . S
C1438 C1437 1.390 . S
C1438 C1439 1.394 . S
C1438 C1444 1.465 . S
C1439 C1434 1.399 . S
C1439 C1438 1.394 . S
C1439 C1440 1.516 . S
C1440 C1439 1.516 . S
C1440 C1441 1.502 . S
C1440 C1442 1.561 . S
C1440 C1443 1.526 . S
C1441 H1425 0.959 . S
C1441 H1426 0.959 . S
C1441 H1427 0.961 . S
C1441 C1440 1.502 . S
C1442 H1428 0.960 . S
C1442 H1429 0.961 . S
C1442 H1430 0.959 . S
C1442 C1440 1.561 . S
C1443 C1440 1.526 . S
C1443 C1444 1.396 . S
C1443 C1448 1.390 . S
C1444 C1438 1.465 . S
C1444 C1443 1.396 . S
C1444 C1445 1.399 . S
C1445 H1431 0.929 . S
C1445 C1444 1.399 . S
C1445 C1446 1.385 . S
C1446 H1432 0.931 . S
C1446 C1445 1.385 . S
C1446 C1447 1.389 . S
C1447 C1446 1.389 . S
C1447 C1448 1.387 . S
C1448 H1433 0.930 . S
C1448 C1443 1.390 . S
C1448 C1447 1.387 . S
H1449 C1461 0.930 . S
H1450 C1463 0.930 . S
H1451 C1464 0.930 . S
H1452 C1468 0.959 . S
H1453 C1468 0.959 . S
H1454 C1468 0.961 . S
H1455 C1469 0.960 . S
H1456 C1469 0.961 . S
H1457 C1469 0.959 . S
H1458 C1472 0.929 . S
H1459 C1473 0.931 . S
H1460 C1475 0.930 . S
C1461 H1449 0.930 . S
C1461 C1462 1.399 . S
C1461 C1466 1.399 . S
C1462 C1461 1.399 . S
C1462 C1463 1.376 . S
C1463 H1450 0.930 . S
C1463 C1462 1.376 . S
C1463 C1464 1.388 . S
C1464 H1451 0.930 . S
C1464 C1463 1.388 . S
C1464 C1465 1.390 . S
C1465 C1464 1.390 . S
C1465 C1466 1.394 . S
C1465 C1471 1.465 . S
C1466 C1461 1.399 . S
C1466 C1465 1.394 . S
C1466 C1467 1.516 . S
C1467 C1466 1.516 . S
C1467 C1468 1.502 . S
C1467 C1469 1.561 . S
C1467 C1470 1.526 . S
C1468 H1452 0.959 . S
C1468 H1453 0.959 . S
C1468 H1454 0.961 . S
C1468 C1467 1.502 . S
C1469 H1455 0.960 . S
C1469 H1456 0.961 . S
C1469 H1457 0.959 . S
C1469 C1467 1.561 . S
C1470 C1467 1.526 . S
C1470 C1471 1.396 . S
C1470 C1475 1.390 . S
C1471 C1465 1.465 . S
C1471 C1470 1.396 . S
C1471 C1472 1.399 . S
C1472 H1458 0.929 . S
C1472 C1471 1.399 . S
C1472 C1473 1.385 . S
C1473 H1459 0.931 . S
C1473 C1472 1.385 . S
C1473 C1474 1.389 . S
C1474 C1473 1.389 . S
C1474 C1475 1.387 . S
C1475 H1460 0.930 . S
C1475 C1470 1.390 . S
C1475 C1474 1.387 . S
H1476 C1488 0.930 . S
H1477 C1490 0.930 . S
H1478 C1491 0.930 . S
H1479 C1495 0.959 . S
H1480 C1495 0.959 . S
H1481 C1495 0.961 . S
H1482 C1496 0.960 . S
H1483 C1496 0.961 . S
H1484 C1496 0.959 . S
H1485 C1499 0.929 . S
H1486 C1500 0.931 . S
H1487 C1502 0.930 . S
C1488 H1476 0.930 . S
C1488 C1489 1.399 . S
C1488 C1493 1.399 . S
C1489 C1488 1.399 . S
C1489 C1490 1.376 . S
C1490 H1477 0.930 . S
C1490 C1489 1.376 . S
C1490 C1491 1.388 . S
C1491 H1478 0.930 . S
C1491 C1490 1.388 . S
C1491 C1492 1.390 . S
C1492 C1491 1.390 . S
C1492 C1493 1.394 . S
C1492 C1498 1.465 . S
C1493 C1488 1.399 . S
C1493 C1492 1.394 . S
C1493 C1494 1.516 . S
C1494 C1493 1.516 . S
C1494 C1495 1.502 . S
C1494 C1496 1.561 . S
C1494 C1497 1.526 . S
C1495 H1479 0.959 . S
C1495 H1480 0.959 . S
C1495 H1481 0.961 . S
C1495 C1494 1.502 . S
C1496 H1482 0.960 . S
C1496 H1483 0.961 . S
C1496 H1484 0.959 . S
C1496 C1494 1.561 . S
C1497 C1494 1.526 . S
C1497 C1498 1.396 . S
C1497 C1502 1.390 . S
C1498 C1492 1.465 . S
C1498 C1497 1.396 . S
C1498 C1499 1.399 . S
C1499 H1485 0.929 . S
C1499 C1498 1.399 . S
C1499 C1500 1.385 . S
C1500 H1486 0.931 . S
C1500 C1499 1.385 . S
C1500 C1501 1.389 . S
C1501 C1500 1.389 . S
C1501 C1502 1.387 . S
C1502 H1487 0.930 . S
C1502 C1497 1.390 . S
C1502 C1501 1.387 . S
H1503 C1515 0.930 . S
H1504 C1517 0.930 . S
H1505 C1518 0.930 . S
H1506 C1522 0.959 . S
H1507 C1522 0.959 . S
H1508 C1522 0.961 . S
H1509 C1523 0.960 . S
H1510 C1523 0.961 . S
H1511 C1523 0.959 . S
H1512 C1526 0.929 . S
H1513 C1527 0.931 . S
H1514 C1529 0.930 . S
C1515 H1503 0.930 . S
C1515 C1516 1.399 . S
C1515 C1520 1.399 . S
C1516 C1515 1.399 . S
C1516 C1517 1.376 . S
C1517 H1504 0.930 . S
C1517 C1516 1.376 . S
C1517 C1518 1.388 . S
C1518 H1505 0.930 . S
C1518 C1517 1.388 . S
C1518 C1519 1.390 . S
C1519 C1518 1.390 . S
C1519 C1520 1.394 . S
C1519 C1525 1.465 . S
C1520 C1515 1.399 . S
C1520 C1519 1.394 . S
C1520 C1521 1.516 . S
C1521 C1520 1.516 . S
C1521 C1522 1.502 . S
C1521 C1523 1.561 . S
C1521 C1524 1.526 . S
C1522 H1506 0.959 . S
C1522 H1507 0.959 . S
C1522 H1508 0.961 . S
C1522 C1521 1.502 . S
C1523 H1509 0.960 . S
C1523 H1510 0.961 . S
C1523 H1511 0.959 . S
C1523 C1521 1.561 . S
C1524 C1521 1.526 . S
C1524 C1525 1.396 . S
C1524 C1529 1.390 . S
C1525 C1519 1.465 . S
C1525 C1524 1.396 . S
C1525 C1526 1.399 . S
C1526 H1512 0.929 . S
C1526 C1525 1.399 . S
C1526 C1527 1.385 . S
C1527 H1513 0.931 . S
C1527 C1526 1.385 . S
C1527 C1528 1.389 . S
C1528 C1527 1.389 . S
C1528 C1529 1.387 . S
C1529 H1514 0.930 . S
C1529 C1524 1.390 . S
C1529 C1528 1.387 . S
H1530 C1542 0.930 . S
H1531 C1544 0.930 . S
H1532 C1545 0.930 . S
H1533 C1549 0.959 . S
H1534 C1549 0.959 . S
H1535 C1549 0.961 . S
H1536 C1550 0.960 . S
H1537 C1550 0.961 . S
H1538 C1550 0.959 . S
H1539 C1553 0.929 . S
H1540 C1554 0.931 . S
H1541 C1556 0.930 . S
C1542 H1530 0.930 . S
C1542 C1543 1.399 . S
C1542 C1547 1.399 . S
C1543 C1542 1.399 . S
C1543 C1544 1.376 . S
C1544 H1531 0.930 . S
C1544 C1543 1.376 . S
C1544 C1545 1.388 . S
C1545 H1532 0.930 . S
C1545 C1544 1.388 . S
C1545 C1546 1.390 . S
C1546 C1545 1.390 . S
C1546 C1547 1.394 . S
C1546 C1552 1.465 . S
C1547 C1542 1.399 . S
C1547 C1546 1.394 . S
C1547 C1548 1.516 . S
C1548 C1547 1.516 . S
C1548 C1549 1.502 . S
C1548 C1550 1.561 . S
C1548 C1551 1.526 . S
C1549 H1533 0.959 . S
C1549 H1534 0.959 . S
C1549 H1535 0.961 . S
C1549 C1548 1.502 . S
C1550 H1536 0.960 . S
C1550 H1537 0.961 . S
C1550 H1538 0.959 . S
C1550 C1548 1.561 . S
C1551 C1548 1.526 . S
C1551 C1552 1.396 . S
C1551 C1556 1.390 . S
C1552 C1546 1.465 . S
C1552 C1551 1.396 . S
C1552 C1553 1.399 . S
C1553 H1539 0.929 . S
C1553 C1552 1.399 . S
C1553 C1554 1.385 . S
C1554 H1540 0.931 . S
C1554 C1553 1.385 . S
C1554 C1555 1.389 . S
C1555 C1554 1.389 . S
C1555 C1556 1.387 . S
C1556 H1541 0.930 . S
C1556 C1551 1.390 . S
C1556 C1555 1.387 . S
H1557 C1569 0.930 . S
H1558 C1571 0.930 . S
H1559 C1572 0.930 . S
H1560 C1576 0.959 . S
H1561 C1576 0.959 . S
H1562 C1576 0.961 . S
H1563 C1577 0.960 . S
H1564 C1577 0.961 . S
H1565 C1577 0.959 . S
H1566 C1580 0.929 . S
H1567 C1581 0.931 . S
H1568 C1583 0.930 . S
C1569 H1557 0.930 . S
C1569 C1570 1.399 . S
C1569 C1574 1.399 . S
C1570 C1569 1.399 . S
C1570 C1571 1.376 . S
C1571 H1558 0.930 . S
C1571 C1570 1.376 . S
C1571 C1572 1.388 . S
C1572 H1559 0.930 . S
C1572 C1571 1.388 . S
C1572 C1573 1.390 . S
C1573 C1572 1.390 . S
C1573 C1574 1.394 . S
C1573 C1579 1.465 . S
C1574 C1569 1.399 . S
C1574 C1573 1.394 . S
C1574 C1575 1.516 . S
C1575 C1574 1.516 . S
C1575 C1576 1.502 . S
C1575 C1577 1.561 . S
C1575 C1578 1.526 . S
C1576 H1560 0.959 . S
C1576 H1561 0.959 . S
C1576 H1562 0.961 . S
C1576 C1575 1.502 . S
C1577 H1563 0.960 . S
C1577 H1564 0.961 . S
C1577 H1565 0.959 . S
C1577 C1575 1.561 . S
C1578 C1575 1.526 . S
C1578 C1579 1.396 . S
C1578 C1583 1.390 . S
C1579 C1573 1.465 . S
C1579 C1578 1.396 . S
C1579 C1580 1.399 . S
C1580 H1566 0.929 . S
C1580 C1579 1.399 . S
C1580 C1581 1.385 . S
C1581 H1567 0.931 . S
C1581 C1580 1.385 . S
C1581 C1582 1.389 . S
C1582 C1581 1.389 . S
C1582 C1583 1.387 . S
C1583 H1568 0.930 . S
C1583 C1578 1.390 . S
C1583 C1582 1.387 . S
H1584 C1596 0.930 . S
H1585 C1598 0.930 . S
H1586 C1599 0.930 . S
H1587 C1603 0.959 . S
H1588 C1603 0.959 . S
H1589 C1603 0.961 . S
H1590 C1604 0.960 . S
H1591 C1604 0.961 . S
H1592 C1604 0.959 . S
H1593 C1607 0.929 . S
H1594 C1608 0.931 . S
H1595 C1610 0.930 . S
C1596 H1584 0.930 . S
C1596 C1597 1.399 . S
C1596 C1601 1.399 . S
C1597 C1596 1.399 . S
C1597 C1598 1.376 . S
C1598 H1585 0.930 . S
C1598 C1597 1.376 . S
C1598 C1599 1.388 . S
C1599 H1586 0.930 . S
C1599 C1598 1.388 . S
C1599 C1600 1.390 . S
C1600 C1599 1.390 . S
C1600 C1601 1.394 . S
C1600 C1606 1.465 . S
C1601 C1596 1.399 . S
C1601 C1600 1.394 . S
C1601 C1602 1.516 . S
C1602 C1601 1.516 . S
C1602 C1603 1.502 . S
C1602 C1604 1.561 . S
C1602 C1605 1.526 . S
C1603 H1587 0.959 . S
C1603 H1588 0.959 . S
C1603 H1589 0.961 . S
C1603 C1602 1.502 . S
C1604 H1590 0.960 . S
C1604 H1591 0.961 . S
C1604 H1592 0.959 . S
C1604 C1602 1.561 . S
C1605 C1602 1.526 . S
C1605 C1606 1.396 . S
C1605 C1610 1.390 . S
C1606 C1600 1.465 . S
C1606 C1605 1.396 . S
C1606 C1607 1.399 . S
C1607 H1593 0.929 . S
C1607 C1606 1.399 . S
C1607 C1608 1.385 . S
C1608 H1594 0.931 . S
C1608 C1607 1.385 . S
C1608 C1609 1.389 . S
C1609 C1608 1.389 . S
C1609 C1610 1.387 . S
C1610 H1595 0.930 . S
C1610 C1605 1.390 . S
C1610 C1609 1.387 . S
H1611 C1623 0.930 . S
H1612 C1625 0.930 . S
H1613 C1626 0.930 . S
H1614 C1630 0.959 . S
H1615 C1630 0.959 . S
H1616 C1630 0.961 . S
H1617 C1631 0.960 . S
H1618 C1631 0.961 . S
H1619 C1631 0.959 . S
H1620 C1634 0.929 . S
H1621 C1635 0.931 . S
H1622 C1637 0.930 . S
C1623 H1611 0.930 . S
C1623 C1624 1.399 . S
C1623 C1628 1.399 . S
C1624 C1623 1.399 . S
C1624 C1625 1.376 . S
C1625 H1612 0.930 . S
C1625 C1624 1.376 . S
C1625 C1626 1.388 . S
C1626 H1613 0.930 . S
C1626 C1625 1.388 . S
C1626 C1627 1.390 . S
C1627 C1626 1.390 . S
C1627 C1628 1.394 . S
C1627 C1633 1.465 . S
C1628 C1623 1.399 . S
C1628 C1627 1.394 . S
C1628 C1629 1.516 . S
C1629 C1628 1.516 . S
C1629 C1630 1.502 . S
C1629 C1631 1.561 . S
C1629 C1632 1.526 . S
C1630 H1614 0.959 . S
C1630 H1615 0.959 . S
C1630 H1616 0.961 . S
C1630 C1629 1.502 . S
C1631 H1617 0.960 . S
C1631 H1618 0.961 . S
C1631 H1619 0.959 . S
C1631 C1629 1.561 . S
C1632 C1629 1.526 . S
C1632 C1633 1.396 . S
C1632 C1637 1.390 . S
C1633 C1627 1.465 . S
C1633 C1632 1.396 . S
C1633 C1634 1.399 . S
C1634 H1620 0.929 . S
C1634 C1633 1.399 . S
C1634 C1635 1.385 . S
C1635 H1621 0.931 . S
C1635 C1634 1.385 . S
C1635 C1636 1.389 . S
C1636 C1635 1.389 . S
C1636 C1637 1.387 . S
C1637 H1622 0.930 . S
C1637 C1632 1.390 . S
C1637 C1636 1.387 . S
H1638 C1650 0.930 . S
H1639 C1652 0.930 . S
H1640 C1653 0.930 . S
H1641 C1657 0.959 . S
H1642 C1657 0.959 . S
H1643 C1657 0.961 . S
H1644 C1658 0.960 . S
H1645 C1658 0.961 . S
H1646 C1658 0.959 . S
H1647 C1661 0.929 . S
H1648 C1662 0.931 . S
H1649 C1664 0.930 . S
C1650 H1638 0.930 . S
C1650 C1651 1.399 . S
C1650 C1655 1.399 . S
C1651 C1650 1.399 . S
C1651 C1652 1.376 . S
C1652 H1639 0.930 . S
C1652 C1651 1.376 . S
C1652 C1653 1.388 . S
C1653 H1640 0.930 . S
C1653 C1652 1.388 . S
C1653 C1654 1.390 . S
C1654 C1653 1.390 . S
C1654 C1655 1.394 . S
C1654 C1660 1.465 . S
C1655 C1650 1.399 . S
C1655 C1654 1.394 . S
C1655 C1656 1.516 . S
C1656 C1655 1.516 . S
C1656 C1657 1.502 . S
C1656 C1658 1.561 . S
C1656 C1659 1.526 . S
C1657 H1641 0.959 . S
C1657 H1642 0.959 . S
C1657 H1643 0.961 . S
C1657 C1656 1.502 . S
C1658 H1644 0.960 . S
C1658 H1645 0.961 . S
C1658 H1646 0.959 . S
C1658 C1656 1.561 . S
C1659 C1656 1.526 . S
C1659 C1660 1.396 . S
C1659 C1664 1.390 . S
C1660 C1654 1.465 . S
C1660 C1659 1.396 . S
C1660 C1661 1.399 . S
C1661 H1647 0.929 . S
C1661 C1660 1.399 . S
C1661 C1662 1.385 . S
C1662 H1648 0.931 . S
C1662 C1661 1.385 . S
C1662 C1663 1.389 . S
C1663 C1662 1.389 . S
C1663 C1664 1.387 . S
C1664 H1649 0.930 . S
C1664 C1659 1.390 . S
C1664 C1663 1.387 . S
H1665 C1677 0.930 . S
H1666 C1679 0.930 . S
H1667 C1680 0.930 . S
H1668 C1684 0.959 . S
H1669 C1684 0.959 . S
H1670 C1684 0.961 . S
H1671 C1685 0.960 . S
H1672 C1685 0.961 . S
H1673 C1685 0.959 . S
H1674 C1688 0.929 . S
H1675 C1689 0.931 . S
H1676 C1691 0.930 . S
C1677 H1665 0.930 . S
C1677 C1678 1.399 . S
C1677 C1682 1.399 . S
C1678 C1677 1.399 . S
C1678 C1679 1.376 . S
C1679 H1666 0.930 . S
C1679 C1678 1.376 . S
C1679 C1680 1.388 . S
C1680 H1667 0.930 . S
C1680 C1679 1.388 . S
C1680 C1681 1.390 . S
C1681 C1680 1.390 . S
C1681 C1682 1.394 . S
C1681 C1687 1.465 . S
C1682 C1677 1.399 . S
C1682 C1681 1.394 . S
C1682 C1683 1.516 . S
C1683 C1682 1.516 . S
C1683 C1684 1.502 . S
C1683 C1685 1.561 . S
C1683 C1686 1.526 . S
C1684 H1668 0.959 . S
C1684 H1669 0.959 . S
C1684 H1670 0.961 . S
C1684 C1683 1.502 . S
C1685 H1671 0.960 . S
C1685 H1672 0.961 . S
C1685 H1673 0.959 . S
C1685 C1683 1.561 . S
C1686 C1683 1.526 . S
C1686 C1687 1.396 . S
C1686 C1691 1.390 . S
C1687 C1681 1.465 . S
C1687 C1686 1.396 . S
C1687 C1688 1.399 . S
C1688 H1674 0.929 . S
C1688 C1687 1.399 . S
C1688 C1689 1.385 . S
C1689 H1675 0.931 . S
C1689 C1688 1.385 . S
C1689 C1690 1.389 . S
C1690 C1689 1.389 . S
C1690 C1691 1.387 . S
C1691 H1676 0.930 . S
C1691 C1686 1.390 . S
C1691 C1690 1.387 . S
H1692 C1704 0.930 . S
H1693 C1706 0.930 . S
H1694 C1707 0.930 . S
H1695 C1711 0.959 . S
H1696 C1711 0.959 . S
H1697 C1711 0.961 . S
H1698 C1712 0.960 . S
H1699 C1712 0.961 . S
H1700 C1712 0.959 . S
H1701 C1715 0.929 . S
H1702 C1716 0.931 . S
H1703 C1718 0.930 . S
C1704 H1692 0.930 . S
C1704 C1705 1.399 . S
C1704 C1709 1.399 . S
C1705 C1704 1.399 . S
C1705 C1706 1.376 . S
C1706 H1693 0.930 . S
C1706 C1705 1.376 . S
C1706 C1707 1.388 . S
C1707 H1694 0.930 . S
C1707 C1706 1.388 . S
C1707 C1708 1.390 . S
C1708 C1707 1.390 . S
C1708 C1709 1.394 . S
C1708 C1714 1.465 . S
C1709 C1704 1.399 . S
C1709 C1708 1.394 . S
C1709 C1710 1.516 . S
C1710 C1709 1.516 . S
C1710 C1711 1.502 . S
C1710 C1712 1.561 . S
C1710 C1713 1.526 . S
C1711 H1695 0.959 . S
C1711 H1696 0.959 . S
C1711 H1697 0.961 . S
C1711 C1710 1.502 . S
C1712 H1698 0.960 . S
C1712 H1699 0.961 . S
C1712 H1700 0.959 . S
C1712 C1710 1.561 . S
C1713 C1710 1.526 . S
C1713 C1714 1.396 . S
C1713 C1718 1.390 . S
C1714 C1708 1.465 . S
C1714 C1713 1.396 . S
C1714 C1715 1.399 . S
C1715 H1701 0.929 . S
C1715 C1714 1.399 . S
C1715 C1716 1.385 . S
C1716 H1702 0.931 . S
C1716 C1715 1.385 . S
C1716 C1717 1.389 . S
C1717 C1716 1.389 . S
C1717 C1718 1.387 . S
C1718 H1703 0.930 . S
C1718 C1713 1.390 . S
C1718 C1717 1.387 . S
H1719 C1731 0.930 . S
H1720 C1733 0.930 . S
H1721 C1734 0.930 . S
H1722 C1738 0.959 . S
H1723 C1738 0.959 . S
H1724 C1738 0.961 . S
H1725 C1739 0.960 . S
H1726 C1739 0.961 . S
H1727 C1739 0.959 . S
H1728 C1742 0.929 . S
H1729 C1743 0.931 . S
H1730 C1745 0.930 . S
C1731 H1719 0.930 . S
C1731 C1732 1.399 . S
C1731 C1736 1.399 . S
C1732 C1731 1.399 . S
C1732 C1733 1.376 . S
C1733 H1720 0.930 . S
C1733 C1732 1.376 . S
C1733 C1734 1.388 . S
C1734 H1721 0.930 . S
C1734 C1733 1.388 . S
C1734 C1735 1.390 . S
C1735 C1734 1.390 . S
C1735 C1736 1.394 . S
C1735 C1741 1.465 . S
C1736 C1731 1.399 . S
C1736 C1735 1.394 . S
C1736 C1737 1.516 . S
C1737 C1736 1.516 . S
C1737 C1738 1.502 . S
C1737 C1739 1.561 . S
C1737 C1740 1.526 . S
C1738 H1722 0.959 . S
C1738 H1723 0.959 . S
C1738 H1724 0.961 . S
C1738 C1737 1.502 . S
C1739 H1725 0.960 . S
C1739 H1726 0.961 . S
C1739 H1727 0.959 . S
C1739 C1737 1.561 . S
C1740 C1737 1.526 . S
C1740 C1741 1.396 . S
C1740 C1745 1.390 . S
C1741 C1735 1.465 . S
C1741 C1740 1.396 . S
C1741 C1742 1.399 . S
C1742 H1728 0.929 . S
C1742 C1741 1.399 . S
C1742 C1743 1.385 . S
C1743 H1729 0.931 . S
C1743 C1742 1.385 . S
C1743 C1744 1.389 . S
C1744 C1743 1.389 . S
C1744 C1745 1.387 . S
C1745 H1730 0.930 . S
C1745 C1740 1.390 . S
C1745 C1744 1.387 . S
H1746 C1758 0.930 . S
H1747 C1760 0.930 . S
H1748 C1761 0.930 . S
H1749 C1765 0.959 . S
H1750 C1765 0.959 . S
H1751 C1765 0.961 . S
H1752 C1766 0.960 . S
H1753 C1766 0.961 . S
H1754 C1766 0.959 . S
H1755 C1769 0.929 . S
H1756 C1770 0.931 . S
H1757 C1772 0.930 . S
C1758 H1746 0.930 . S
C1758 C1759 1.399 . S
C1758 C1763 1.399 . S
C1759 C1758 1.399 . S
C1759 C1760 1.376 . S
C1760 H1747 0.930 . S
C1760 C1759 1.376 . S
C1760 C1761 1.388 . S
C1761 H1748 0.930 . S
C1761 C1760 1.388 . S
C1761 C1762 1.390 . S
C1762 C1761 1.390 . S
C1762 C1763 1.394 . S
C1762 C1768 1.465 . S
C1763 C1758 1.399 . S
C1763 C1762 1.394 . S
C1763 C1764 1.516 . S
C1764 C1763 1.516 . S
C1764 C1765 1.502 . S
C1764 C1766 1.561 . S
C1764 C1767 1.526 . S
C1765 H1749 0.959 . S
C1765 H1750 0.959 . S
C1765 H1751 0.961 . S
C1765 C1764 1.502 . S
C1766 H1752 0.960 . S
C1766 H1753 0.961 . S
C1766 H1754 0.959 . S
C1766 C1764 1.561 . S
C1767 C1764 1.526 . S
C1767 C1768 1.396 . S
C1767 C1772 1.390 . S
C1768 C1762 1.465 . S
C1768 C1767 1.396 . S
C1768 C1769 1.399 . S
C1769 H1755 0.929 . S
C1769 C1768 1.399 . S
C1769 C1770 1.385 . S
C1770 H1756 0.931 . S
C1770 C1769 1.385 . S
C1770 C1771 1.389 . S
C1771 C1770 1.389 . S
C1771 C1772 1.387 . S
C1772 H1757 0.930 . S
C1772 C1767 1.390 . S
C1772 C1771 1.387 . S
H1773 C1785 0.930 . S
H1774 C1787 0.930 . S
H1775 C1788 0.930 . S
H1776 C1792 0.959 . S
H1777 C1792 0.959 . S
H1778 C1792 0.961 . S
H1779 C1793 0.960 . S
H1780 C1793 0.961 . S
H1781 C1793 0.959 . S
H1782 C1796 0.929 . S
H1783 C1797 0.931 . S
H1784 C1799 0.930 . S
C1785 H1773 0.930 . S
C1785 C1786 1.399 . S
C1785 C1790 1.399 . S
C1786 C1785 1.399 . S
C1786 C1787 1.376 . S
C1787 H1774 0.930 . S
C1787 C1786 1.376 . S
C1787 C1788 1.388 . S
C1788 H1775 0.930 . S
C1788 C1787 1.388 . S
C1788 C1789 1.390 . S
C1789 C1788 1.390 . S
C1789 C1790 1.394 . S
C1789 C1795 1.465 . S
C1790 C1785 1.399 . S
C1790 C1789 1.394 . S
C1790 C1791 1.516 . S
C1791 C1790 1.516 . S
C1791 C1792 1.502 . S
C1791 C1793 1.561 . S
C1791 C1794 1.526 . S
C1792 H1776 0.959 . S
C1792 H1777 0.959 . S
C1792 H1778 0.961 . S
C1792 C1791 1.502 . S
C1793 H1779 0.960 . S
C1793 H1780 0.961 . S
C1793 H1781 0.959 . S
C1793 C1791 1.561 . S
C1794 C1791 1.526 . S
C1794 C1795 1.396 . S
C1794 C1799 1.390 . S
C1795 C1789 1.465 . S
C1795 C1794 1.396 . S
C1795 C1796 1.399 . S
C1796 H1782 0.929 . S
C1796 C1795 1.399 . S
C1796 C1797 1.385 . S
C1797 H1783 0.931 . S
C1797 C1796 1.385 . S
C1797 C1798 1.389 . S
C1798 C1797 1.389 . S
C1798 C1799 1.387 . S
C1799 H1784 0.930 . S
C1799 C1794 1.390 . S
C1799 C1798 1.387 . S
H1800 C1812 0.930 . S
H1801 C1814 0.930 . S
H1802 C1815 0.930 . S
H1803 C1819 0.959 . S
H1804 C1819 0.959 . S
H1805 C1819 0.961 . S
H1806 C1820 0.960 . S
H1807 C1820 0.961 . S
H1808 C1820 0.959 . S
H1809 C1823 0.929 . S
H1810 C1824 0.931 . S
H1811 C1826 0.930 . S
C1812 H1800 0.930 . S
C1812 C1813 1.399 . S
C1812 C1817 1.399 . S
C1813 C1812 1.399 . S
C1813 C1814 1.376 . S
C1814 H1801 0.930 . S
C1814 C1813 1.376 . S
C1814 C1815 1.388 . S
C1815 H1802 0.930 . S
C1815 C1814 1.388 . S
C1815 C1816 1.390 . S
C1816 C1815 1.390 . S
C1816 C1817 1.394 . S
C1816 C1822 1.465 . S
C1817 C1812 1.399 . S
C1817 C1816 1.394 . S
C1817 C1818 1.516 . S
C1818 C1817 1.516 . S
C1818 C1819 1.502 . S
C1818 C1820 1.561 . S
C1818 C1821 1.526 . S
C1819 H1803 0.959 . S
C1819 H1804 0.959 . S
C1819 H1805 0.961 . S
C1819 C1818 1.502 . S
C1820 H1806 0.960 . S
C1820 H1807 0.961 . S
C1820 H1808 0.959 . S
C1820 C1818 1.561 . S
C1821 C1818 1.526 . S
C1821 C1822 1.396 . S
C1821 C1826 1.390 . S
C1822 C1816 1.465 . S
C1822 C1821 1.396 . S
C1822 C1823 1.399 . S
C1823 H1809 0.929 . S
C1823 C1822 1.399 . S
C1823 C1824 1.385 . S
C1824 H1810 0.931 . S
C1824 C1823 1.385 . S
C1824 C1825 1.389 . S
C1825 C1824 1.389 . S
C1825 C1826 1.387 . S
C1826 H1811 0.930 . S
C1826 C1821 1.390 . S
C1826 C1825 1.387 . S
H1827 C1839 0.930 . S
H1828 C1841 0.930 . S
H1829 C1842 0.930 . S
H1830 C1846 0.959 . S
H1831 C1846 0.959 . S
H1832 C1846 0.961 . S
H1833 C1847 0.960 . S
H1834 C1847 0.961 . S
H1835 C1847 0.959 . S
H1836 C1850 0.929 . S
H1837 C1851 0.931 . S
H1838 C1853 0.930 . S
C1839 H1827 0.930 . S
C1839 C1840 1.399 . S
C1839 C1844 1.399 . S
C1840 C1839 1.399 . S
C1840 C1841 1.376 . S
C1841 H1828 0.930 . S
C1841 C1840 1.376 . S
C1841 C1842 1.388 . S
C1842 H1829 0.930 . S
C1842 C1841 1.388 . S
C1842 C1843 1.390 . S
C1843 C1842 1.390 . S
C1843 C1844 1.394 . S
C1843 C1849 1.465 . S
C1844 C1839 1.399 . S
C1844 C1843 1.394 . S
C1844 C1845 1.516 . S
C1845 C1844 1.516 . S
C1845 C1846 1.502 . S
C1845 C1847 1.561 . S
C1845 C1848 1.526 . S
C1846 H1830 0.959 . S
C1846 H1831 0.959 . S
C1846 H1832 0.961 . S
C1846 C1845 1.502 . S
C1847 H1833 0.960 . S
C1847 H1834 0.961 . S
C1847 H1835 0.959 . S
C1847 C1845 1.561 . S
C1848 C1845 1.526 . S
C1848 C1849 1.396 . S
C1848 C1853 1.390 . S
C1849 C1843 1.465 . S
C1849 C1848 1.396 . S
C1849 C1850 1.399 . S
C1850 H1836 0.929 . S
C1850 C1849 1.399 . S
C1850 C1851 1.385 . S
C1851 H1837 0.931 . S
C1851 C1850 1.385 . S
C1851 C1852 1.389 . S
C1852 C1851 1.389 . S
C1852 C1853 1.387 . S
C1853 H1838 0.930 . S
C1853 C1848 1.390 . S
C1853 C1852 1.387 . S
H1854 C1866 0.930 . S
H1855 C1868 0.930 . S
H1856 C1869 0.930 . S
H1857 C1873 0.959 . S
H1858 C1873 0.959 . S
H1859 C1873 0.961 . S
H1860 C1874 0.960 . S
H1861 C1874 0.961 . S
H1862 C1874 0.959 . S
H1863 C1877 0.929 . S
H1864 C1878 0.931 . S
H1865 C1880 0.930 . S
C1866 H1854 0.930 . S
C1866 C1867 1.399 . S
C1866 C1871 1.399 . S
C1867 C1866 1.399 . S
C1867 C1868 1.376 . S
C1868 H1855 0.930 . S
C1868 C1867 1.376 . S
C1868 C1869 1.388 . S
C1869 H1856 0.930 . S
C1869 C1868 1.388 . S
C1869 C1870 1.390 . S
C1870 C1869 1.390 . S
C1870 C1871 1.394 . S
C1870 C1876 1.465 . S
C1871 C1866 1.399 . S
C1871 C1870 1.394 . S
C1871 C1872 1.516 . S
C1872 C1871 1.516 . S
C1872 C1873 1.502 . S
C1872 C1874 1.561 . S
C1872 C1875 1.526 . S
C1873 H1857 0.959 . S
C1873 H1858 0.959 . S
C1873 H1859 0.961 . S
C1873 C1872 1.502 . S
C1874 H1860 0.960 . S
C1874 H1861 0.961 . S
C1874 H1862 0.959 . S
C1874 C1872 1.561 . S
C1875 C1872 1.526 . S
C1875 C1876 1.396 . S
C1875 C1880 1.390 . S
C1876 C1870 1.465 . S
C1876 C1875 1.396 . S
C1876 C1877 1.399 . S
C1877 H1863 0.929 . S
C1877 C1876 1.399 . S
C1877 C1878 1.385 . S
C1878 H1864 0.931 . S
C1878 C1877 1.385 . S
C1878 C1879 1.389 . S
C1879 C1878 1.389 . S
C1879 C1880 1.387 . S
C1880 H1865 0.930 . S
C1880 C1875 1.390 . S
C1880 C1879 1.387 . S
H1881 C1893 0.930 . S
H1882 C1895 0.930 . S
H1883 C1896 0.930 . S
H1884 C1900 0.959 . S
H1885 C1900 0.959 . S
H1886 C1900 0.961 . S
H1887 C1901 0.960 . S
H1888 C1901 0.961 . S
H1889 C1901 0.959 . S
H1890 C1904 0.929 . S
H1891 C1905 0.931 . S
H1892 C1907 0.930 . S
C1893 H1881 0.930 . S
C1893 C1894 1.399 . S
C1893 C1898 1.399 . S
C1894 C1893 1.399 . S
C1894 C1895 1.376 . S
C1895 H1882 0.930 . S
C1895 C1894 1.376 . S
C1895 C1896 1.388 . S
C1896 H1883 0.930 . S
C1896 C1895 1.388 . S
C1896 C1897 1.390 . S
C1897 C1896 1.390 . S
C1897 C1898 1.394 . S
C1897 C1903 1.465 . S
C1898 C1893 1.399 . S
C1898 C1897 1.394 . S
C1898 C1899 1.516 . S
C1899 C1898 1.516 . S
C1899 C1900 1.502 . S
C1899 C1901 1.561 . S
C1899 C1902 1.526 . S
C1900 H1884 0.959 . S
C1900 H1885 0.959 . S
C1900 H1886 0.961 . S
C1900 C1899 1.502 . S
C1901 H1887 0.960 . S
C1901 H1888 0.961 . S
C1901 H1889 0.959 . S
C1901 C1899 1.561 . S
C1902 C1899 1.526 . S
C1902 C1903 1.396 . S
C1902 C1907 1.390 . S
C1903 C1897 1.465 . S
C1903 C1902 1.396 . S
C1903 C1904 1.399 . S
C1904 H1890 0.929 . S
C1904 C1903 1.399 . S
C1904 C1905 1.385 . S
C1905 H1891 0.931 . S
C1905 C1904 1.385 . S
C1905 C1906 1.389 . S
C1906 C1905 1.389 . S
C1906 C1907 1.387 . S
C1907 H1892 0.930 . S
C1907 C1902 1.390 . S
C1907 C1906 1.387 . S
H1908 C1920 0.930 . S
H1909 C1922 0.930 . S
H1910 C1923 0.930 . S
H1911 C1927 0.959 . S
H1912 C1927 0.959 . S
H1913 C1927 0.961 . S
H1914 C1928 0.960 . S
H1915 C1928 0.961 . S
H1916 C1928 0.959 . S
H1917 C1931 0.929 . S
H1918 C1932 0.931 . S
H1919 C1934 0.930 . S
C1920 H1908 0.930 . S
C1920 C1921 1.399 . S
C1920 C1925 1.399 . S
C1921 C1920 1.399 . S
C1921 C1922 1.376 . S
C1922 H1909 0.930 . S
C1922 C1921 1.376 . S
C1922 C1923 1.388 . S
C1923 H1910 0.930 . S
C1923 C1922 1.388 . S
C1923 C1924 1.390 . S
C1924 C1923 1.390 . S
C1924 C1925 1.394 . S
C1924 C1930 1.465 . S
C1925 C1920 1.399 . S
C1925 C1924 1.394 . S
C1925 C1926 1.516 . S
C1926 C1925 1.516 . S
C1926 C1927 1.502 . S
C1926 C1928 1.561 . S
C1926 C1929 1.526 . S
C1927 H1911 0.959 . S
C1927 H1912 0.959 . S
C1927 H1913 0.961 . S
C1927 C1926 1.502 . S
C1928 H1914 0.960 . S
C1928 H1915 0.961 . S
C1928 H1916 0.959 . S
C1928 C1926 1.561 . S
C1929 C1926 1.526 . S
C1929 C1930 1.396 . S
C1929 C1934 1.390 . S
C1930 C1924 1.465 . S
C1930 C1929 1.396 . S
C1930 C1931 1.399 . S
C1931 H1917 0.929 . S
C1931 C1930 1.399 . S
C1931 C1932 1.385 . S
C1932 H1918 0.931 . S
C1932 C1931 1.385 . S
C1932 C1933 1.389 . S
C1933 C1932 1.389 . S
C1933 C1934 1.387 . S
C1934 H1919 0.930 . S
C1934 C1929 1.390 . S
C1934 C1933 1.387 . S
H1935 C1947 0.930 . S
H1936 C1949 0.930 . S
H1937 C1950 0.930 . S
H1938 C1954 0.959 . S
H1939 C1954 0.959 . S
H1940 C1954 0.961 . S
H1941 C1955 0.960 . S
H1942 C1955 0.961 . S
H1943 C1955 0.959 . S
H1944 C1958 0.929 . S
H1945 C1959 0.931 . S
H1946 C1961 0.930 . S
C1947 H1935 0.930 . S
C1947 C1948 1.399 . S
C1947 C1952 1.399 . S
C1948 C1947 1.399 . S
C1948 C1949 1.376 . S
C1949 H1936 0.930 . S
C1949 C1948 1.376 . S
C1949 C1950 1.388 . S
C1950 H1937 0.930 . S
C1950 C1949 1.388 . S
C1950 C1951 1.390 . S
C1951 C1950 1.390 . S
C1951 C1952 1.394 . S
C1951 C1957 1.465 . S
C1952 C1947 1.399 . S
C1952 C1951 1.394 . S
C1952 C1953 1.516 . S
C1953 C1952 1.516 . S
C1953 C1954 1.502 . S
C1953 C1955 1.561 . S
C1953 C1956 1.526 . S
C1954 H1938 0.959 . S
C1954 H1939 0.959 . S
C1954 H1940 0.961 . S
C1954 C1953 1.502 . S
C1955 H1941 0.960 . S
C1955 H1942 0.961 . S
C1955 H1943 0.959 . S
C1955 C1953 1.561 . S
C1956 C1953 1.526 . S
C1956 C1957 1.396 . S
C1956 C1961 1.390 . S
C1957 C1951 1.465 . S
C1957 C1956 1.396 . S
C1957 C1958 1.399 . S
C1958 H1944 0.929 . S
C1958 C1957 1.399 . S
C1958 C1959 1.385 . S
C1959 H1945 0.931 . S
C1959 C1958 1.385 . S
C1959 C1960 1.389 . S
C1960 C1959 1.389 . S
C1960 C1961 1.387 . S
C1961 H1946 0.930 . S
C1961 C1956 1.390 . S
C1961 C1960 1.387 . S
H1962 C1974 0.930 . S
H1963 C1976 0.930 . S
H1964 C1977 0.930 . S
H1965 C1981 0.959 . S
H1966 C1981 0.959 . S
H1967 C1981 0.961 . S
H1968 C1982 0.960 . S
H1969 C1982 0.961 . S
H1970 C1982 0.959 . S
H1971 C1985 0.929 . S
H1972 C1986 0.931 . S
H1973 C1988 0.930 . S
C1974 H1962 0.930 . S
C1974 C1975 1.399 . S
C1974 C1979 1.399 . S
C1975 C1974 1.399 . S
C1975 C1976 1.376 . S
C1976 H1963 0.930 . S
C1976 C1975 1.376 . S
C1976 C1977 1.388 . S
C1977 H1964 0.930 . S
C1977 C1976 1.388 . S
C1977 C1978 1.390 . S
C1978 C1977 1.390 . S
C1978 C1979 1.394 . S
C1978 C1984 1.465 . S
C1979 C1974 1.399 . S
C1979 C1978 1.394 . S
C1979 C1980 1.516 . S
C1980 C1979 1.516 . S
C1980 C1981 1.502 . S
C1980 C1982 1.561 . S
C1980 C1983 1.526 . S
C1981 H1965 0.959 . S
C1981 H1966 0.959 . S
C1981 H1967 0.961 . S
C1981 C1980 1.502 . S
C1982 H1968 0.960 . S
C1982 H1969 0.961 . S
C1982 H1970 0.959 . S
C1982 C1980 1.561 . S
C1983 C1980 1.526 . S
C1983 C1984 1.396 . S
C1983 C1988 1.390 . S
C1984 C1978 1.465 . S
C1984 C1983 1.396 . S
C1984 C1985 1.399 . S
C1985 H1971 0.929 . S
C1985 C1984 1.399 . S
C1985 C1986 1.385 . S
C1986 H1972 0.931 . S
C1986 C1985 1.385 . S
C1986 C1987 1.389 . S
C1987 C1986 1.389 . S
C1987 C1988 1.387 . S
C1988 H1973 0.930 . S
C1988 C1983 1.390 . S
C1988 C1987 1.387 . S
H1989 C2001 0.930 . S
H1990 C2003 0.930 . S
H1991 C2004 0.930 . S
H1992 C2008 0.959 . S
H1993 C2008 0.959 . S
H1994 C2008 0.961 . S
H1995 C2009 0.960 . S
H1996 C2009 0.961 . S
H1997 C2009 0.959 . S
H1998 C2012 0.929 1_565 S
H1999 C2013 0.931 . S
H2000 C2015 0.930 . S
C2001 H1989 0.930 . S
C2001 C2002 1.399 1_545 S
C2001 C2006 1.399 . S
C2002 C2001 1.399 1_565 S
C2002 C2003 1.376 . S
C2003 H1990 0.930 . S
C2003 C2002 1.376 . S
C2003 C2004 1.388 . S
C2004 H1991 0.930 . S
C2004 C2003 1.388 . S
C2004 C2005 1.390 1_565 S
C2005 C2004 1.390 1_545 S
C2005 C2006 1.394 . S
C2005 C2011 1.465 . S
C2006 C2001 1.399 . S
C2006 C2005 1.394 . S
C2006 C2007 1.516 . S
C2007 C2006 1.516 . S
C2007 C2008 1.502 . S
C2007 C2009 1.561 . S
C2007 C2010 1.526 . S
C2008 H1992 0.959 . S
C2008 H1993 0.959 . S
C2008 H1994 0.961 . S
C2008 C2007 1.502 . S
C2009 H1995 0.960 . S
C2009 H1996 0.961 . S
C2009 H1997 0.959 . S
C2009 C2007 1.561 . S
C2010 C2007 1.526 . S
C2010 C2011 1.396 . S
C2010 C2015 1.390 . S
C2011 C2005 1.465 . S
C2011 C2010 1.396 . S
C2011 C2012 1.399 . S
C2012 H1998 0.929 1_545 S
C2012 C2011 1.399 . S
C2012 C2013 1.385 . S
C2013 H1999 0.931 . S
C2013 C2012 1.385 . S
C2013 C2014 1.389 . S
C2014 C2013 1.389 . S
C2014 C2015 1.387 . S
C2015 H2000 0.930 . S
C2015 C2010 1.390 . S
C2015 C2014 1.387 . S
H2016 C2028 0.930 . S
H2017 C2030 0.930 . S
H2018 C2031 0.930 . S
H2019 C2035 0.959 . S
H2020 C2035 0.959 . S
H2021 C2035 0.961 . S
H2022 C2036 0.960 . S
H2023 C2036 0.961 . S
H2024 C2036 0.959 . S
H2025 C2039 0.929 . S
H2026 C2040 0.931 . S
H2027 C2042 0.930 . S
C2028 H2016 0.930 . S
C2028 C2029 1.399 . S
C2028 C2033 1.399 . S
C2029 C2028 1.399 . S
C2029 C2030 1.376 . S
C2030 H2017 0.930 . S
C2030 C2029 1.376 . S
C2030 C2031 1.388 . S
C2031 H2018 0.930 . S
C2031 C2030 1.388 . S
C2031 C2032 1.390 . S
C2032 C2031 1.390 . S
C2032 C2033 1.394 . S
C2032 C2038 1.465 . S
C2033 C2028 1.399 . S
C2033 C2032 1.394 . S
C2033 C2034 1.516 1_655 S
C2034 C2033 1.516 1_455 S
C2034 C2035 1.502 . S
C2034 C2036 1.561 . S
C2034 C2037 1.526 . S
C2035 H2019 0.959 . S
C2035 H2020 0.959 . S
C2035 H2021 0.961 . S
C2035 C2034 1.502 . S
C2036 H2022 0.960 . S
C2036 H2023 0.961 . S
C2036 H2024 0.959 . S
C2036 C2034 1.561 . S
C2037 C2034 1.526 . S
C2037 C2038 1.396 1_455 S
C2037 C2042 1.390 . S
C2038 C2032 1.465 . S
C2038 C2037 1.396 1_655 S
C2038 C2039 1.399 . S
C2039 H2025 0.929 . S
C2039 C2038 1.399 . S
C2039 C2040 1.385 . S
C2040 H2026 0.931 . S
C2040 C2039 1.385 . S
C2040 C2041 1.389 1_655 S
C2041 C2040 1.389 1_455 S
C2041 C2042 1.387 . S
C2042 H2027 0.930 . S
C2042 C2037 1.390 . S
C2042 C2041 1.387 . S
H2043 C2055 0.930 . S
H2044 C2057 0.930 . S
H2045 C2058 0.930 . S
H2046 C2062 0.959 . S
H2047 C2062 0.959 . S
H2048 C2062 0.961 . S
H2049 C2063 0.960 . S
H2050 C2063 0.961 . S
H2051 C2063 0.959 . S
H2052 C2066 0.929 . S
H2053 C2067 0.931 . S
H2054 C2069 0.930 . S
C2055 H2043 0.930 . S
C2055 C2056 1.399 . S
C2055 C2060 1.399 . S
C2056 C2055 1.399 . S
C2056 C2057 1.376 . S
C2057 H2044 0.930 . S
C2057 C2056 1.376 . S
C2057 C2058 1.388 . S
C2058 H2045 0.930 . S
C2058 C2057 1.388 . S
C2058 C2059 1.390 . S
C2059 C2058 1.390 . S
C2059 C2060 1.394 . S
C2059 C2065 1.465 . S
C2060 C2055 1.399 . S
C2060 C2059 1.394 . S
C2060 C2061 1.516 . S
C2061 C2060 1.516 . S
C2061 C2062 1.502 . S
C2061 C2063 1.561 . S
C2061 C2064 1.526 . S
C2062 H2046 0.959 . S
C2062 H2047 0.959 . S
C2062 H2048 0.961 . S
C2062 C2061 1.502 . S
C2063 H2049 0.960 . S
C2063 H2050 0.961 . S
C2063 H2051 0.959 . S
C2063 C2061 1.561 . S
C2064 C2061 1.526 . S
C2064 C2065 1.396 . S
C2064 C2069 1.390 . S
C2065 C2059 1.465 . S
C2065 C2064 1.396 . S
C2065 C2066 1.399 . S
C2066 H2052 0.929 . S
C2066 C2065 1.399 . S
C2066 C2067 1.385 . S
C2067 H2053 0.931 . S
C2067 C2066 1.385 . S
C2067 C2068 1.389 . S
C2068 C2067 1.389 . S
C2068 C2069 1.387 . S
C2069 H2054 0.930 . S
C2069 C2064 1.390 . S
C2069 C2068 1.387 . S
H2070 C2082 0.930 . S
H2071 C2084 0.930 . S
H2072 C2085 0.930 . S
H2073 C2089 0.959 . S
H2074 C2089 0.959 . S
H2075 C2089 0.961 . S
H2076 C2090 0.960 . S
H2077 C2090 0.961 . S
H2078 C2090 0.959 . S
H2079 C2093 0.929 . S
H2080 C2094 0.931 . S
H2081 C2096 0.930 . S
C2082 H2070 0.930 . S
C2082 C2083 1.399 1_565 S
C2082 C2087 1.399 . S
C2083 C2082 1.399 1_545 S
C2083 C2084 1.376 . S
C2084 H2071 0.930 . S
C2084 C2083 1.376 . S
C2084 C2085 1.388 . S
C2085 H2072 0.930 . S
C2085 C2084 1.388 . S
C2085 C2086 1.390 1_545 S
C2086 C2085 1.390 1_565 S
C2086 C2087 1.394 . S
C2086 C2092 1.465 . S
C2087 C2082 1.399 . S
C2087 C2086 1.394 . S
C2087 C2088 1.516 . S
C2088 C2087 1.516 . S
C2088 C2089 1.502 . S
C2088 C2090 1.561 . S
C2088 C2091 1.526 . S
C2089 H2073 0.959 . S
C2089 H2074 0.959 . S
C2089 H2075 0.961 . S
C2089 C2088 1.502 . S
C2090 H2076 0.960 . S
C2090 H2077 0.961 . S
C2090 H2078 0.959 . S
C2090 C2088 1.561 . S
C2091 C2088 1.526 . S
C2091 C2092 1.396 . S
C2091 C2096 1.390 . S
C2092 C2086 1.465 . S
C2092 C2091 1.396 . S
C2092 C2093 1.399 . S
C2093 H2079 0.929 . S
C2093 C2092 1.399 . S
C2093 C2094 1.385 . S
C2094 H2080 0.931 . S
C2094 C2093 1.385 . S
C2094 C2095 1.389 . S
C2095 C2094 1.389 . S
C2095 C2096 1.387 . S
C2096 H2081 0.930 . S
C2096 C2091 1.390 . S
C2096 C2095 1.387 . S
H2097 C2109 0.930 . S
H2098 C2111 0.930 . S
H2099 C2112 0.930 . S
H2100 C2116 0.959 . S
H2101 C2116 0.959 . S
H2102 C2116 0.961 . S
H2103 C2117 0.960 . S
H2104 C2117 0.961 . S
H2105 C2117 0.959 1_655 S
H2106 C2120 0.929 . S
H2107 C2121 0.931 . S
H2108 C2123 0.942 . S
C2109 H2097 0.930 . S
C2109 C2110 1.399 . S
C2109 C2114 1.399 . S
C2110 C2109 1.399 . S
C2110 C2111 1.376 . S
C2111 H2098 0.930 . S
C2111 C2110 1.376 . S
C2111 C2112 1.388 . S
C2112 H2099 0.930 . S
C2112 C2111 1.388 . S
C2112 C2113 1.390 . S
C2113 C2112 1.390 . S
C2113 C2114 1.394 . S
C2113 C2119 1.465 . S
C2114 C2109 1.399 . S
C2114 C2113 1.394 . S
C2114 C2115 1.516 . S
C2115 C2114 1.516 . S
C2115 C2116 1.502 . S
C2115 C2117 1.561 . S
C2115 C2118 1.526 . S
C2116 H2100 0.959 . S
C2116 H2101 0.959 . S
C2116 H2102 0.961 . S
C2116 C2115 1.502 . S
C2117 H2103 0.960 . S
C2117 H2104 0.961 . S
C2117 H2105 0.959 1_455 S
C2117 C2115 1.561 . S
C2118 C2115 1.526 . S
C2118 C2119 1.396 . S
C2118 C2123 1.387 . S
C2119 C2113 1.465 . S
C2119 C2118 1.396 . S
C2119 C2120 1.399 1_455 S
C2120 H2106 0.929 . S
C2120 C2119 1.399 1_655 S
C2120 C2121 1.385 . S
C2121 H2107 0.931 . S
C2121 C2120 1.385 . S
C2121 C2122 1.389 . S
C2122 C2121 1.389 . S
C2122 C2123 1.378 1_655 S
C2123 H2108 0.942 . S
C2123 C2118 1.387 . S
C2123 C2122 1.378 1_455 S
H2124 C2136 0.930 . S
H2125 C2138 0.930 . S
H2126 C2139 0.930 . S
H2127 C2143 0.959 . S
H2128 C2143 0.959 . S
H2129 C2143 0.961 . S
H2130 C2144 0.960 . S
H2131 C2144 0.961 . S
H2132 C2144 0.959 . S
H2133 C2147 0.929 . S
H2134 C2148 0.931 . S
H2135 C2150 0.930 . S
C2136 H2124 0.930 . S
C2136 C2137 1.399 . S
C2136 C2141 1.399 . S
C2137 C2136 1.399 . S
C2137 C2138 1.376 . S
C2138 H2125 0.930 . S
C2138 C2137 1.376 . S
C2138 C2139 1.388 . S
C2139 H2126 0.930 . S
C2139 C2138 1.388 . S
C2139 C2140 1.390 . S
C2140 C2139 1.390 . S
C2140 C2141 1.394 . S
C2140 C2146 1.465 . S
C2141 C2136 1.399 . S
C2141 C2140 1.394 . S
C2141 C2142 1.516 . S
C2142 C2141 1.516 . S
C2142 C2143 1.502 . S
C2142 C2144 1.561 . S
C2142 C2145 1.526 . S
C2143 H2127 0.959 . S
C2143 H2128 0.959 . S
C2143 H2129 0.961 . S
C2143 C2142 1.502 . S
C2144 H2130 0.960 . S
C2144 H2131 0.961 . S
C2144 H2132 0.959 . S
C2144 C2142 1.561 . S
C2145 C2142 1.526 . S
C2145 C2146 1.396 . S
C2145 C2150 1.390 . S
C2146 C2140 1.465 . S
C2146 C2145 1.396 . S
C2146 C2147 1.399 . S
C2147 H2133 0.929 . S
C2147 C2146 1.399 . S
C2147 C2148 1.385 . S
C2148 H2134 0.931 . S
C2148 C2147 1.385 . S
C2148 C2149 1.389 . S
C2149 C2148 1.389 . S
C2149 C2150 1.387 . S
C2150 H2135 0.930 . S
C2150 C2145 1.390 . S
C2150 C2149 1.387 . S
H2151 C2163 0.930 . S
H2152 C2165 0.930 . S
H2153 C2166 0.930 . S
H2154 C2170 0.959 . S
H2155 C2170 0.959 . S
H2156 C2170 0.961 . S
H2157 C2171 0.960 . S
H2158 C2171 0.961 . S
H2159 C2171 0.959 . S
H2160 C2174 0.929 . S
H2161 C2175 0.931 . S
H2162 C2177 0.930 . S
C2163 H2151 0.930 . S
C2163 C2164 1.399 . S
C2163 C2168 1.399 . S
C2164 C2163 1.399 . S
C2164 C2165 1.376 . S
C2165 H2152 0.930 . S
C2165 C2164 1.376 . S
C2165 C2166 1.388 . S
C2166 H2153 0.930 . S
C2166 C2165 1.388 . S
C2166 C2167 1.390 . S
C2167 C2166 1.390 . S
C2167 C2168 1.394 . S
C2167 C2173 1.465 . S
C2168 C2163 1.399 . S
C2168 C2167 1.394 . S
C2168 C2169 1.516 1_565 S
C2169 C2168 1.516 1_545 S
C2169 C2170 1.502 . S
C2169 C2171 1.561 . S
C2169 C2172 1.526 . S
C2170 H2154 0.959 . S
C2170 H2155 0.959 . S
C2170 H2156 0.961 . S
C2170 C2169 1.502 . S
C2171 H2157 0.960 . S
C2171 H2158 0.961 . S
C2171 H2159 0.959 . S
C2171 C2169 1.561 . S
C2172 C2169 1.526 . S
C2172 C2173 1.396 1_545 S
C2172 C2177 1.390 . S
C2173 C2167 1.465 . S
C2173 C2172 1.396 1_565 S
C2173 C2174 1.399 . S
C2174 H2160 0.929 . S
C2174 C2173 1.399 . S
C2174 C2175 1.385 . S
C2175 H2161 0.931 . S
C2175 C2174 1.385 . S
C2175 C2176 1.389 1_565 S
C2176 C2175 1.389 1_545 S
C2176 C2177 1.387 . S
C2177 H2162 0.930 . S
C2177 C2172 1.390 . S
C2177 C2176 1.387 . S
H2178 C2190 0.930 . S
H2179 C2192 0.930 . S
H2180 C2193 0.930 . S
H2181 C2197 0.971 . S
H2182 C2197 0.980 . S
H2183 C2197 0.945 1_455 S
H2184 C2198 0.960 . S
H2185 C2198 0.961 . S
H2186 C2198 0.959 . S
H2187 C2201 0.929 . S
H2188 C2202 0.931 . S
H2189 C2204 0.930 . S
C2190 H2178 0.930 . S
C2190 C2191 1.399 . S
C2190 C2195 1.399 . S
C2191 C2190 1.399 . S
C2191 C2192 1.376 . S
C2192 H2179 0.930 . S
C2192 C2191 1.376 . S
C2192 C2193 1.388 . S
C2193 H2180 0.930 . S
C2193 C2192 1.388 . S
C2193 C2194 1.390 . S
C2194 C2193 1.390 . S
C2194 C2195 1.394 . S
C2194 C2200 1.465 . S
C2195 C2190 1.399 . S
C2195 C2194 1.394 . S
C2195 C2196 1.516 . S
C2196 C2195 1.516 . S
C2196 C2197 1.486 1_455 S
C2196 C2198 1.561 . S
C2196 C2199 1.526 . S
C2197 H2181 0.971 . S
C2197 H2182 0.980 . S
C2197 H2183 0.945 1_655 S
C2197 C2196 1.486 1_655 S
C2198 H2184 0.960 . S
C2198 H2185 0.961 . S
C2198 H2186 0.959 . S
C2198 C2196 1.561 . S
C2199 C2196 1.526 . S
C2199 C2200 1.396 . S
C2199 C2204 1.390 1_455 S
C2200 C2194 1.465 . S
C2200 C2199 1.396 . S
C2200 C2201 1.399 . S
C2201 H2187 0.929 . S
C2201 C2200 1.399 . S
C2201 C2202 1.385 1_455 S
C2202 H2188 0.931 . S
C2202 C2201 1.385 1_655 S
C2202 C2203 1.389 . S
C2203 C2202 1.389 . S
C2203 C2204 1.387 . S
C2204 H2189 0.930 . S
C2204 C2199 1.390 1_655 S
C2204 C2203 1.387 . S
H2205 C2217 0.930 . S
H2206 C2219 0.930 . S
H2207 C2220 0.930 . S
H2208 C2224 0.959 . S
H2209 C2224 0.959 . S
H2210 C2224 0.961 . S
H2211 C2225 0.960 . S
H2212 C2225 0.961 . S
H2213 C2225 0.959 . S
H2214 C2228 0.929 . S
H2215 C2229 0.931 . S
H2216 C2231 0.930 . S
C2217 H2205 0.930 . S
C2217 C2218 1.399 . S
C2217 C2222 1.399 . S
C2218 C2217 1.399 . S
C2218 C2219 1.376 . S
C2219 H2206 0.930 . S
C2219 C2218 1.376 . S
C2219 C2220 1.388 . S
C2220 H2207 0.930 . S
C2220 C2219 1.388 . S
C2220 C2221 1.390 . S
C2221 C2220 1.390 . S
C2221 C2222 1.394 . S
C2221 C2227 1.465 . S
C2222 C2217 1.399 . S
C2222 C2221 1.394 . S
C2222 C2223 1.516 . S
C2223 C2222 1.516 . S
C2223 C2224 1.502 . S
C2223 C2225 1.561 . S
C2223 C2226 1.526 . S
C2224 H2208 0.959 . S
C2224 H2209 0.959 . S
C2224 H2210 0.961 . S
C2224 C2223 1.502 . S
C2225 H2211 0.960 . S
C2225 H2212 0.961 . S
C2225 H2213 0.959 . S
C2225 C2223 1.561 . S
C2226 C2223 1.526 . S
C2226 C2227 1.396 . S
C2226 C2231 1.390 . S
C2227 C2221 1.465 . S
C2227 C2226 1.396 . S
C2227 C2228 1.399 . S
C2228 H2214 0.929 . S
C2228 C2227 1.399 . S
C2228 C2229 1.385 . S
C2229 H2215 0.931 . S
C2229 C2228 1.385 . S
C2229 C2230 1.389 . S
C2230 C2229 1.389 . S
C2230 C2231 1.387 . S
C2231 H2216 0.930 . S
C2231 C2226 1.390 . S
C2231 C2230 1.387 . S
H2232 C2244 0.930 . S
H2233 C2246 0.930 . S
H2234 C2247 0.930 . S
H2235 C2251 0.959 . S
H2236 C2251 0.959 . S
H2237 C2251 0.961 . S
H2238 C2252 0.960 . S
H2239 C2252 0.961 1_565 S
H2240 C2252 0.959 . S
H2241 C2255 0.929 . S
H2242 C2256 0.931 . S
H2243 C2258 0.930 . S
C2244 H2232 0.930 . S
C2244 C2245 1.399 . S
C2244 C2249 1.399 . S
C2245 C2244 1.399 . S
C2245 C2246 1.376 . S
C2246 H2233 0.930 . S
C2246 C2245 1.376 . S
C2246 C2247 1.388 . S
C2247 H2234 0.930 . S
C2247 C2246 1.388 . S
C2247 C2248 1.390 . S
C2248 C2247 1.390 . S
C2248 C2249 1.394 . S
C2248 C2254 1.465 . S
C2249 C2244 1.399 . S
C2249 C2248 1.394 . S
C2249 C2250 1.516 . S
C2250 C2249 1.516 . S
C2250 C2251 1.502 1_545 S
C2250 C2252 1.561 . S
C2250 C2253 1.526 . S
C2251 H2235 0.959 . S
C2251 H2236 0.959 . S
C2251 H2237 0.961 . S
C2251 C2250 1.502 1_565 S
C2252 H2238 0.960 . S
C2252 H2239 0.961 1_545 S
C2252 H2240 0.959 . S
C2252 C2250 1.561 . S
C2253 C2250 1.526 . S
C2253 C2254 1.396 . S
C2253 C2258 1.390 1_545 S
C2254 C2248 1.465 . S
C2254 C2253 1.396 . S
C2254 C2255 1.399 . S
C2255 H2241 0.929 . S
C2255 C2254 1.399 . S
C2255 C2256 1.385 . S
C2256 H2242 0.931 . S
C2256 C2255 1.385 . S
C2256 C2257 1.389 1_545 S
C2257 C2256 1.389 1_565 S
C2257 C2258 1.387 . S
C2258 H2243 0.930 . S
C2258 C2253 1.390 1_565 S
C2258 C2257 1.387 . S
H2259 C2271 0.930 . S
H2260 C2273 0.930 . S
H2261 C2274 0.930 . S
H2262 C2278 0.959 . S
H2263 C2278 0.959 . S
H2264 C2278 0.961 . S
H2265 C2279 0.960 . S
H2266 C2279 0.960 1_655 S
H2267 C2279 0.959 . S
H2268 C2282 0.929 . S
H2269 C2283 0.931 . S
H2270 C2285 0.930 . S
C2271 H2259 0.930 . S
C2271 C2272 1.399 . S
C2271 C2276 1.399 1_455 S
C2272 C2271 1.399 . S
C2272 C2273 1.376 . S
C2273 H2260 0.930 . S
C2273 C2272 1.376 . S
C2273 C2274 1.388 1_455 S
C2274 H2261 0.930 . S
C2274 C2273 1.388 1_655 S
C2274 C2275 1.390 . S
C2275 C2274 1.390 . S
C2275 C2276 1.394 . S
C2275 C2281 1.465 . S
C2276 C2271 1.399 1_655 S
C2276 C2275 1.394 . S
C2276 C2277 1.516 . S
C2277 C2276 1.516 . S
C2277 C2278 1.502 . S
C2277 C2279 1.561 1_655 S
C2277 C2280 1.526 . S
C2278 H2262 0.959 . S
C2278 H2263 0.959 . S
C2278 H2264 0.961 . S
C2278 C2277 1.502 . S
C2279 H2265 0.960 . S
C2279 H2266 0.960 1_455 S
C2279 H2267 0.959 . S
C2279 C2277 1.561 1_455 S
C2280 C2277 1.526 . S
C2280 C2281 1.396 . S
C2280 C2285 1.390 . S
C2281 C2275 1.465 . S
C2281 C2280 1.396 . S
C2281 C2282 1.399 . S
C2282 H2268 0.929 . S
C2282 C2281 1.399 . S
C2282 C2283 1.385 . S
C2283 H2269 0.931 . S
C2283 C2282 1.385 . S
C2283 C2284 1.389 . S
C2284 C2283 1.389 . S
C2284 C2285 1.387 . S
C2285 H2270 0.930 . S
C2285 C2280 1.390 . S
C2285 C2284 1.387 . S
H2286 C2298 0.930 . S
H2287 C2300 0.930 . S
H2288 C2301 0.930 . S
H2289 C2305 0.959 . S
H2290 C2305 0.959 . S
H2291 C2305 0.961 . S
H2292 C2306 0.960 . S
H2293 C2306 0.961 . S
H2294 C2306 0.959 . S
H2295 C2309 0.929 . S
H2296 C2310 0.931 . S
H2297 C2312 0.930 . S
C2298 H2286 0.930 . S
C2298 C2299 1.399 . S
C2298 C2303 1.399 . S
C2299 C2298 1.399 . S
C2299 C2300 1.376 . S
C2300 H2287 0.930 . S
C2300 C2299 1.376 . S
C2300 C2301 1.388 . S
C2301 H2288 0.930 . S
C2301 C2300 1.388 . S
C2301 C2302 1.390 . S
C2302 C2301 1.390 . S
C2302 C2303 1.394 . S
C2302 C2308 1.465 1_655 S
C2303 C2298 1.399 . S
C2303 C2302 1.394 . S
C2303 C2304 1.516 . S
C2304 C2303 1.516 . S
C2304 C2305 1.502 . S
C2304 C2306 1.561 . S
C2304 C2307 1.526 1_655 S
C2305 H2289 0.959 . S
C2305 H2290 0.959 . S
C2305 H2291 0.961 . S
C2305 C2304 1.502 . S
C2306 H2292 0.960 . S
C2306 H2293 0.961 . S
C2306 H2294 0.959 . S
C2306 C2304 1.561 . S
C2307 C2304 1.526 1_455 S
C2307 C2308 1.396 . S
C2307 C2312 1.390 . S
C2308 C2302 1.465 1_455 S
C2308 C2307 1.396 . S
C2308 C2309 1.399 . S
C2309 H2295 0.929 . S
C2309 C2308 1.399 . S
C2309 C2310 1.385 . S
C2310 H2296 0.931 . S
C2310 C2309 1.385 . S
C2310 C2311 1.389 . S
C2311 C2310 1.389 . S
C2311 C2312 1.387 . S
C2312 H2297 0.930 . S
C2312 C2307 1.390 . S
C2312 C2311 1.387 . S
H2313 C2325 0.930 . S
H2314 C2327 0.930 . S
H2315 C2328 0.930 . S
H2316 C2332 0.959 . S
H2317 C2332 0.959 . S
H2318 C2332 0.961 . S
H2319 C2333 0.960 . S
H2320 C2333 0.961 . S
H2321 C2333 0.959 . S
H2322 C2336 0.929 . S
H2323 C2337 0.931 . S
H2324 C2339 0.930 . S
C2325 H2313 0.930 . S
C2325 C2326 1.399 . S
C2325 C2330 1.399 . S
C2326 C2325 1.399 . S
C2326 C2327 1.376 . S
C2327 H2314 0.930 . S
C2327 C2326 1.376 . S
C2327 C2328 1.388 . S
C2328 H2315 0.930 . S
C2328 C2327 1.388 . S
C2328 C2329 1.390 . S
C2329 C2328 1.390 . S
C2329 C2330 1.394 . S
C2329 C2335 1.465 . S
C2330 C2325 1.399 . S
C2330 C2329 1.394 . S
C2330 C2331 1.516 . S
C2331 C2330 1.516 . S
C2331 C2332 1.502 . S
C2331 C2333 1.561 . S
C2331 C2334 1.526 . S
C2332 H2316 0.959 . S
C2332 H2317 0.959 . S
C2332 H2318 0.961 . S
C2332 C2331 1.502 . S
C2333 H2319 0.960 . S
C2333 H2320 0.961 . S
C2333 H2321 0.959 . S
C2333 C2331 1.561 . S
C2334 C2331 1.526 . S
C2334 C2335 1.396 . S
C2334 C2339 1.390 . S
C2335 C2329 1.465 . S
C2335 C2334 1.396 . S
C2335 C2336 1.399 . S
C2336 H2322 0.929 . S
C2336 C2335 1.399 . S
C2336 C2337 1.385 . S
C2337 H2323 0.931 . S
C2337 C2336 1.385 . S
C2337 C2338 1.389 . S
C2338 C2337 1.389 . S
C2338 C2339 1.387 . S
C2339 H2324 0.930 . S
C2339 C2334 1.390 . S
C2339 C2338 1.387 . S
H2340 C2352 0.930 . S
H2341 C2354 0.930 . S
H2342 C2355 0.930 . S
H2343 C2359 0.959 . S
H2344 C2359 0.959 . S
H2345 C2359 0.961 . S
H2346 C2360 0.960 . S
H2347 C2360 0.961 . S
H2348 C2360 0.959 . S
H2349 C2363 0.929 . S
H2350 C2364 0.931 . S
H2351 C2366 0.930 . S
C2352 H2340 0.930 . S
C2352 C2353 1.399 . S
C2352 C2357 1.399 . S
C2353 C2352 1.399 . S
C2353 C2354 1.376 . S
C2354 H2341 0.930 . S
C2354 C2353 1.376 . S
C2354 C2355 1.388 . S
C2355 H2342 0.930 . S
C2355 C2354 1.388 . S
C2355 C2356 1.390 . S
C2356 C2355 1.390 . S
C2356 C2357 1.394 . S
C2356 C2362 1.465 1_565 S
C2357 C2352 1.399 . S
C2357 C2356 1.394 . S
C2357 C2358 1.516 1_565 S
C2358 C2357 1.516 1_545 S
C2358 C2359 1.502 . S
C2358 C2360 1.561 . S
C2358 C2361 1.526 . S
C2359 H2343 0.959 . S
C2359 H2344 0.959 . S
C2359 H2345 0.961 . S
C2359 C2358 1.502 . S
C2360 H2346 0.960 . S
C2360 H2347 0.961 . S
C2360 H2348 0.959 . S
C2360 C2358 1.561 . S
C2361 C2358 1.526 . S
C2361 C2362 1.396 . S
C2361 C2366 1.390 . S
C2362 C2356 1.465 1_545 S
C2362 C2361 1.396 . S
C2362 C2363 1.399 . S
C2363 H2349 0.929 . S
C2363 C2362 1.399 . S
C2363 C2364 1.385 . S
C2364 H2350 0.931 . S
C2364 C2363 1.385 . S
C2364 C2365 1.389 . S
C2365 C2364 1.389 . S
C2365 C2366 1.387 . S
C2366 H2351 0.930 . S
C2366 C2361 1.390 . S
C2366 C2365 1.387 . S
H2367 C2379 0.930 . S
H2368 C2381 0.930 . S
H2369 C2382 0.930 . S
H2370 C2386 0.959 . S
H2371 C2386 0.959 . S
H2372 C2386 0.961 . S
H2373 C2387 0.960 . S
H2374 C2387 0.961 . S
H2375 C2387 0.959 . S
H2376 C2390 0.929 . S
H2377 C2391 0.931 . S
H2378 C2393 0.930 . S
C2379 H2367 0.930 . S
C2379 C2380 1.399 . S
C2379 C2384 1.399 . S
C2380 C2379 1.399 . S
C2380 C2381 1.376 . S
C2381 H2368 0.930 . S
C2381 C2380 1.376 . S
C2381 C2382 1.388 . S
C2382 H2369 0.930 . S
C2382 C2381 1.388 . S
C2382 C2383 1.390 . S
C2383 C2382 1.390 . S
C2383 C2384 1.394 . S
C2383 C2389 1.465 1_565 S
C2384 C2379 1.399 . S
C2384 C2383 1.394 . S
C2384 C2385 1.516 . S
C2385 C2384 1.516 . S
C2385 C2386 1.502 . S
C2385 C2387 1.561 . S
C2385 C2388 1.526 1_565 S
C2386 H2370 0.959 . S
C2386 H2371 0.959 . S
C2386 H2372 0.961 . S
C2386 C2385 1.502 . S
C2387 H2373 0.960 . S
C2387 H2374 0.961 . S
C2387 H2375 0.959 . S
C2387 C2385 1.561 . S
C2388 C2385 1.526 1_545 S
C2388 C2389 1.396 . S
C2388 C2393 1.390 . S
C2389 C2383 1.465 1_545 S
C2389 C2388 1.396 . S
C2389 C2390 1.399 . S
C2390 H2376 0.929 . S
C2390 C2389 1.399 . S
C2390 C2391 1.385 . S
C2391 H2377 0.931 . S
C2391 C2390 1.385 . S
C2391 C2392 1.389 . S
C2392 C2391 1.389 . S
C2392 C2393 1.387 . S
C2393 H2378 0.930 . S
C2393 C2388 1.390 . S
C2393 C2392 1.387 . S
H2394 C2406 0.930 . S
H2395 C2408 0.930 . S
H2396 C2409 0.930 . S
H2397 C2413 0.959 . S
H2398 C2413 0.959 . S
H2399 C2413 0.961 . S
H2400 C2414 0.960 . S
H2401 C2414 0.961 . S
H2402 C2414 0.959 . S
H2403 C2417 0.929 . S
H2404 C2418 0.931 . S
H2405 C2420 0.930 . S
C2406 H2394 0.930 . S
C2406 C2407 1.399 . S
C2406 C2411 1.399 . S
C2407 C2406 1.399 . S
C2407 C2408 1.376 . S
C2408 H2395 0.930 . S
C2408 C2407 1.376 . S
C2408 C2409 1.388 . S
C2409 H2396 0.930 . S
C2409 C2408 1.388 . S
C2409 C2410 1.390 . S
C2410 C2409 1.390 . S
C2410 C2411 1.394 . S
C2410 C2416 1.465 1_655 S
C2411 C2406 1.399 . S
C2411 C2410 1.394 . S
C2411 C2412 1.516 . S
C2412 C2411 1.516 . S
C2412 C2413 1.502 . S
C2412 C2414 1.561 . S
C2412 C2415 1.526 1_655 S
C2413 H2397 0.959 . S
C2413 H2398 0.959 . S
C2413 H2399 0.961 . S
C2413 C2412 1.502 . S
C2414 H2400 0.960 . S
C2414 H2401 0.961 . S
C2414 H2402 0.959 . S
C2414 C2412 1.561 . S
C2415 C2412 1.526 1_455 S
C2415 C2416 1.396 . S
C2415 C2420 1.390 . S
C2416 C2410 1.465 1_455 S
C2416 C2415 1.396 . S
C2416 C2417 1.399 . S
C2417 H2403 0.929 . S
C2417 C2416 1.399 . S
C2417 C2418 1.385 . S
C2418 H2404 0.931 . S
C2418 C2417 1.385 . S
C2418 C2419 1.389 . S
C2419 C2418 1.389 . S
C2419 C2420 1.387 . S
C2420 H2405 0.930 . S
C2420 C2415 1.390 . S
C2420 C2419 1.387 . S
H2421 C2433 0.930 . S
H2422 C2435 0.930 . S
H2423 C2436 0.930 . S
H2424 C2440 0.959 . S
H2425 C2440 0.959 . S
H2426 C2440 0.961 . S
H2427 C2441 0.960 . S
H2428 C2441 0.961 . S
H2429 C2441 0.959 . S
H2430 C2444 0.929 . S
H2431 C2445 0.931 . S
H2432 C2447 0.930 . S
C2433 H2421 0.930 . S
C2433 C2434 1.399 . S
C2433 C2438 1.399 . S
C2434 C2433 1.399 . S
C2434 C2435 1.376 . S
C2435 H2422 0.930 . S
C2435 C2434 1.376 . S
C2435 C2436 1.388 . S
C2436 H2423 0.930 . S
C2436 C2435 1.388 . S
C2436 C2437 1.390 . S
C2437 C2436 1.390 . S
C2437 C2438 1.394 . S
C2437 C2443 1.465 . S
C2438 C2433 1.399 . S
C2438 C2437 1.394 . S
C2438 C2439 1.516 . S
C2439 C2438 1.516 . S
C2439 C2440 1.502 . S
C2439 C2441 1.561 . S
C2439 C2442 1.526 . S
C2440 H2424 0.959 . S
C2440 H2425 0.959 . S
C2440 H2426 0.961 . S
C2440 C2439 1.502 . S
C2441 H2427 0.960 . S
C2441 H2428 0.961 . S
C2441 H2429 0.959 . S
C2441 C2439 1.561 . S
C2442 C2439 1.526 . S
C2442 C2443 1.396 . S
C2442 C2447 1.390 . S
C2443 C2437 1.465 . S
C2443 C2442 1.396 . S
C2443 C2444 1.399 . S
C2444 H2430 0.929 . S
C2444 C2443 1.399 . S
C2444 C2445 1.385 . S
C2445 H2431 0.931 . S
C2445 C2444 1.385 . S
C2445 C2446 1.389 . S
C2446 C2445 1.389 . S
C2446 C2447 1.387 . S
C2447 H2432 0.930 . S
C2447 C2442 1.390 . S
C2447 C2446 1.387 . S
C517 C7 1.340 . S
C529 C259 1.312 . S
C544 C21 1.305 . S
C556 C273 1.348 . S
C571 C287 1.306 . S
C583 C35 1.347 . S
C598 C49 1.353 . S
C610 C469 1.307 . S
C625 C483 1.331 . S
C637 C63 1.334 . S
C652 C77 1.328 . S
C664 C497 1.322 . S
C679 C343 1.316 . S
C691 C91 1.347 . S
C706 C105 1.325 . S
C718 C357 1.325 . S
C733 C119 1.320 . S
C745 C371 1.344 . S
C760 C133 1.305 . S
C772 C217 1.349 . S
C787 C231 1.308 . S
C799 C147 1.352 . S
C814 C161 1.306 . S
C826 C245 1.353 . S
C841 C175 1.343 . S
C853 C427 1.310 . S
C868 C189 1.353 . S
C880 C441 1.308 . S
C895 C203 1.326 . S
C907 C455 1.325 . S
C922 C301 1.353 . S
C934 C385 1.306 . S
C949 C315 1.314 . S
C961 C399 1.349 . S
C976 C329 1.350 . S
C988 C413 1.312 . S
C1003 C106 1.420 . S
C1015 C6 1.439 . S
C1030 C120 1.388 . S
C1042 C20 1.438 . S
C1057 C34 1.418 . S
C1069 C92 1.437 . S
C1084 C162 1.415 . S
C1096 C48 1.442 . S
C1111 C134 1.404 . S
C1123 C62 1.430 . S
C1138 C148 1.402 . S
C1150 C76 1.431 . S
C1165 C90 1.423 . S
C1177 C22 1.436 . S
C1192 C104 1.421 . S
C1204 C36 1.432 . S
C1219 C118 1.438 . S
C1231 C8 1.411 . S
C1246 C132 1.456 . S
C1258 C78 1.367 . S
C1273 C50 1.434 . S
C1285 C146 1.421 . S
C1300 C64 1.438 . S
C1312 C160 1.422 . S
C1327 C174 1.418 . S
C1339 C274 1.439 . S
C1354 C188 1.422 . S
C1366 C288 1.441 . S
C1381 C202 1.418 . S
C1393 C260 1.435 . S
C1408 C330 1.424 . S
C1420 C216 1.437 . S
C1435 C230 1.431 . S
C1447 C302 1.431 . S
C1462 C316 1.388 . S
C1474 C244 1.455 . S
C1489 C258 1.458 . S
C1501 C190 1.370 . S
C1516 C204 1.396 . S
C1528 C272 1.439 . S
C1543 C176 1.435 . S
C1555 C286 1.424 . S
C1570 C300 1.423 . S
C1582 C246 1.435 . S
C1597 C314 1.418 . S
C1609 C218 1.441 . S
C1624 C328 1.428 . S
C1636 C232 1.417 . S
C1651 C442 1.392 . S
C1663 C342 1.435 . S
C1678 C356 1.447 . S
C1690 C456 1.405 . S
C1705 C370 1.446 . S
C1717 C428 1.375 . S
C1732 C498 1.439 . S
C1744 C384 1.419 . S
C1759 C470 1.392 . S
C1771 C398 1.453 . S
C1786 C484 1.408 . S
C1798 C412 1.446 . S
C1813 C358 1.363 . S
C1825 C426 1.460 . S
C1840 C372 1.384 . S
C1852 C440 1.452 . S
C1867 C344 1.362 . S
C1879 C454 1.459 . S
C1894 C468 1.420 . S
C1906 C414 1.435 . S
C1921 C386 1.391 . S
C1933 C482 1.442 . S
C1948 C496 1.429 . S
C1960 C400 1.427 . S
C1975 C9 1.185 . S
C1987 C415 1.092 . S
C2002 C387 1.092 . S
C2014 C23 1.134 . S
C2029 C37 1.102 . S
C2041 C401 1.179 . S
C2056 C51 1.074 . S
C2068 C191 1.159 . S
C2083 C205 1.169 . S
C2095 C65 1.071 . S
C2110 C79 1.076 . S
C2122 C177 1.156 . S
C2137 C331 1.140 . S
C2149 C93 1.071 . S
C2164 C107 1.159 . S
C2176 C303 1.166 . S
C2191 C121 1.088 . S
C2203 C317 1.182 . S
C2218 C135 1.070 . S
C2230 C443 1.161 . S
C2245 C149 1.124 . S
C2257 C457 1.184 . S
C2272 C429 1.156 . S
C2284 C163 1.070 . S
C2299 C219 1.187 . S
C2311 C359 1.079 . S
C2326 C373 1.081 . S
C2338 C233 1.148 . S
C2353 C345 1.069 . S
C2365 C247 1.180 . S
C2380 C499 1.141 . S
C2392 C261 1.071 . S
C2407 C275 1.175 . S
C2419 C471 1.079 . S
C2434 C289 1.096 . S
C2446 C485 1.094 . S
