# Generated by pormake.
# Topology wnd, (6)-cn, num edge types: 1
# Building blocks:
#     Node 0, Type 0, BuildingBlock: MIFKUJ_clean_sbu_0, # of connection points: 6
#     Node 1, Type 0, BuildingBlock: MIFKUJ_clean_sbu_0, # of connection points: 6
#     Node 2, Type 0, BuildingBlock: MIFKUJ_clean_sbu_0, # of connection points: 6
#     Node 3, Type 0, BuildingBlock: MIFKUJ_clean_sbu_0, # of connection points: 6
#     Node 4, Type 0, BuildingBlock: MIFKUJ_clean_sbu_0, # of connection points: 6
#     Node 5, Type 0, BuildingBlock: MIFKUJ_clean_sbu_0, # of connection points: 6
#     Node 6, Type 0, BuildingBlock: MIFKUJ_clean_sbu_0, # of connection points: 6
#     Node 7, Type 0, BuildingBlock: MIFKUJ_clean_sbu_0, # of connection points: 6
#     Node 8, Type 0, BuildingBlock: MIFKUJ_clean_sbu_0, # of connection points: 6
#     Node 9, Type 0, BuildingBlock: MIFKUJ_clean_sbu_0, # of connection points: 6
#     Node 10, Type 0, BuildingBlock: MIFKUJ_clean_sbu_0, # of connection points: 6
#     Node 11, Type 0, BuildingBlock: MIFKUJ_clean_sbu_0, # of connection points: 6
#     Node 12, Type 0, BuildingBlock: MIFKUJ_clean_sbu_0, # of connection points: 6
#     Node 13, Type 0, BuildingBlock: MIFKUJ_clean_sbu_0, # of connection points: 6
#     Node 14, Type 0, BuildingBlock: MIFKUJ_clean_sbu_0, # of connection points: 6
#     Node 15, Type 0, BuildingBlock: MIFKUJ_clean_sbu_0, # of connection points: 6
#     Node 16, Type 0, BuildingBlock: MIFKUJ_clean_sbu_0, # of connection points: 6
#     Node 17, Type 0, BuildingBlock: MIFKUJ_clean_sbu_0, # of connection points: 6
#     Node 18, Type 0, BuildingBlock: MIFKUJ_clean_sbu_0, # of connection points: 6
#     Node 19, Type 0, BuildingBlock: MIFKUJ_clean_sbu_0, # of connection points: 6
#     Node 20, Type 0, BuildingBlock: MIFKUJ_clean_sbu_0, # of connection points: 6
#     Node 21, Type 0, BuildingBlock: MIFKUJ_clean_sbu_0, # of connection points: 6
#     Node 22, Type 0, BuildingBlock: MIFKUJ_clean_sbu_0, # of connection points: 6
#     Node 23, Type 0, BuildingBlock: MIFKUJ_clean_sbu_0, # of connection points: 6
#     Node 24, Type 0, BuildingBlock: MIFKUJ_clean_sbu_0, # of connection points: 6
#     Node 25, Type 0, BuildingBlock: MIFKUJ_clean_sbu_0, # of connection points: 6
#     Node 26, Type 0, BuildingBlock: MIFKUJ_clean_sbu_0, # of connection points: 6
#     Node 27, Type 0, BuildingBlock: MIFKUJ_clean_sbu_0, # of connection points: 6
#     Node 28, Type 0, BuildingBlock: MIFKUJ_clean_sbu_0, # of connection points: 6
#     Node 29, Type 0, BuildingBlock: MIFKUJ_clean_sbu_0, # of connection points: 6
#     Node 30, Type 0, BuildingBlock: MIFKUJ_clean_sbu_0, # of connection points: 6
#     Node 31, Type 0, BuildingBlock: MIFKUJ_clean_sbu_0, # of connection points: 6
#     Node 32, Type 0, BuildingBlock: MIFKUJ_clean_sbu_0, # of connection points: 6
#     Node 33, Type 0, BuildingBlock: MIFKUJ_clean_sbu_0, # of connection points: 6
#     Node 34, Type 0, BuildingBlock: MIFKUJ_clean_sbu_0, # of connection points: 6
#     Node 35, Type 0, BuildingBlock: MIFKUJ_clean_sbu_0, # of connection points: 6
#     Edge 36, Type (0, 0), None
#     Edge 37, Type (0, 0), None
#     Edge 38, Type (0, 0), None
#     Edge 39, Type (0, 0), None
#     Edge 40, Type (0, 0), None
#     Edge 41, Type (0, 0), None
#     Edge 42, Type (0, 0), None
#     Edge 43, Type (0, 0), None
#     Edge 44, Type (0, 0), None
#     Edge 45, Type (0, 0), None
#     Edge 46, Type (0, 0), None
#     Edge 47, Type (0, 0), None
#     Edge 48, Type (0, 0), None
#     Edge 49, Type (0, 0), None
#     Edge 50, Type (0, 0), None
#     Edge 51, Type (0, 0), None
#     Edge 52, Type (0, 0), None
#     Edge 53, Type (0, 0), None
#     Edge 54, Type (0, 0), None
#     Edge 55, Type (0, 0), None
#     Edge 56, Type (0, 0), None
#     Edge 57, Type (0, 0), None
#     Edge 58, Type (0, 0), None
#     Edge 59, Type (0, 0), None
#     Edge 60, Type (0, 0), None
#     Edge 61, Type (0, 0), None
#     Edge 62, Type (0, 0), None
#     Edge 63, Type (0, 0), None
#     Edge 64, Type (0, 0), None
#     Edge 65, Type (0, 0), None
#     Edge 66, Type (0, 0), None
#     Edge 67, Type (0, 0), None
#     Edge 68, Type (0, 0), None
#     Edge 69, Type (0, 0), None
#     Edge 70, Type (0, 0), None
#     Edge 71, Type (0, 0), None
#     Edge 72, Type (0, 0), None
#     Edge 73, Type (0, 0), None
#     Edge 74, Type (0, 0), None
#     Edge 75, Type (0, 0), None
#     Edge 76, Type (0, 0), None
#     Edge 77, Type (0, 0), None
#     Edge 78, Type (0, 0), None
#     Edge 79, Type (0, 0), None
#     Edge 80, Type (0, 0), None
#     Edge 81, Type (0, 0), None
#     Edge 82, Type (0, 0), None
#     Edge 83, Type (0, 0), None
#     Edge 84, Type (0, 0), None
#     Edge 85, Type (0, 0), None
#     Edge 86, Type (0, 0), None
#     Edge 87, Type (0, 0), None
#     Edge 88, Type (0, 0), None
#     Edge 89, Type (0, 0), None
#     Edge 90, Type (0, 0), None
#     Edge 91, Type (0, 0), None
#     Edge 92, Type (0, 0), None
#     Edge 93, Type (0, 0), None
#     Edge 94, Type (0, 0), None
#     Edge 95, Type (0, 0), None
#     Edge 96, Type (0, 0), None
#     Edge 97, Type (0, 0), None
#     Edge 98, Type (0, 0), None
#     Edge 99, Type (0, 0), None
#     Edge 100, Type (0, 0), None
#     Edge 101, Type (0, 0), None
#     Edge 102, Type (0, 0), None
#     Edge 103, Type (0, 0), None
#     Edge 104, Type (0, 0), None
#     Edge 105, Type (0, 0), None
#     Edge 106, Type (0, 0), None
#     Edge 107, Type (0, 0), None
#     Edge 108, Type (0, 0), None
#     Edge 109, Type (0, 0), None
#     Edge 110, Type (0, 0), None
#     Edge 111, Type (0, 0), None
#     Edge 112, Type (0, 0), None
#     Edge 113, Type (0, 0), None
#     Edge 114, Type (0, 0), None
#     Edge 115, Type (0, 0), None
#     Edge 116, Type (0, 0), None
#     Edge 117, Type (0, 0), None
#     Edge 118, Type (0, 0), None
#     Edge 119, Type (0, 0), None
#     Edge 120, Type (0, 0), None
#     Edge 121, Type (0, 0), None
#     Edge 122, Type (0, 0), None
#     Edge 123, Type (0, 0), None
#     Edge 124, Type (0, 0), None
#     Edge 125, Type (0, 0), None
#     Edge 126, Type (0, 0), None
#     Edge 127, Type (0, 0), None
#     Edge 128, Type (0, 0), None
#     Edge 129, Type (0, 0), None
#     Edge 130, Type (0, 0), None
#     Edge 131, Type (0, 0), None
#     Edge 132, Type (0, 0), None
#     Edge 133, Type (0, 0), None
#     Edge 134, Type (0, 0), None
#     Edge 135, Type (0, 0), None
#     Edge 136, Type (0, 0), None
#     Edge 137, Type (0, 0), None
#     Edge 138, Type (0, 0), None
#     Edge 139, Type (0, 0), None
#     Edge 140, Type (0, 0), None
#     Edge 141, Type (0, 0), None
#     Edge 142, Type (0, 0), None
#     Edge 143, Type (0, 0), None
# Relax obj value: 0.102
# Max RMSD: 0.226
# Mean RMSD: 0.226
data_MOF--net-wnd--node1-MIFKUJ_clean_sbu_0--edge1-none
_symmetry_space_group_name_H-M    P1
_symmetry_Int_Tables_number       1
_symmetry_cell_setting            triclinic
loop_
_symmetry_equiv_pos_as_xyz
'x, y, z'
_cell_length_a     19.999158
_cell_length_b     19.998864
_cell_length_c     58.540319
_cell_angle_alpha  90.001253
_cell_angle_beta   89.998925
_cell_angle_gamma 119.99888
loop_
_atom_site_label
_atom_site_type_symbol
_atom_site_fract_x
_atom_site_fract_y
_atom_site_fract_z
_atom_type_partial_charge
Zn0 Zn 0.38045 0.8969 0.03115 0.0
Zn1 Zn 0.49103 0.13736 0.02088 0.0
C2 C 0.24448 0.75169 0.03413 0.0
O3 O 0.25929 0.76876 0.05588 0.0
C4 C 0.6549 0.18676 0.02371 0.0
O5 O 0.64456 0.14944 0.00443 0.0
O6 O 0.44558 0.85231 0.04252 0.0
O7 O 0.44308 -0.02154 0.00657 0.0
O8 O 0.49918 0.09417 -0.00874 0.0
C9 C 0.4618 0.81665 0.02741 0.0
O10 O 0.44161 0.81725 0.00612 0.0
O11 O 0.2865 0.8013 0.01913 0.0
C12 C 0.49508 0.27522 0.03017 0.0
O13 O 0.52631 0.26604 0.04866 0.0
O14 O 0.46763 0.22195 0.01533 0.0
O15 O 0.41468 0.05474 0.04137 0.0
O16 O 0.34121 0.94141 0.05622 0.0
O17 O 0.59797 0.18531 0.03387 0.0
C18 C 0.48233 0.0243 -0.0096 0.0
C19 C 0.36481 0.01338 0.05615 0.0
Zn20 Zn 0.11065 0.50993 0.03115 0.0
Zn21 Zn 0.87019 0.37999 0.02088 0.0
C22 C 0.25588 0.51919 0.03413 0.0
O23 O 0.2388 0.51694 0.05588 0.0
C24 C 0.82076 0.49444 0.02369 0.0
O25 O 0.85805 0.52138 0.00441 0.0
O26 O 0.15522 0.61964 0.04252 0.0
O27 O 0.02909 0.49099 0.00656 0.0
O28 O 0.91337 0.43131 -0.00875 0.0
C29 C 0.19089 0.67153 0.02741 0.0
O30 O 0.19028 0.65073 0.00611 0.0
O31 O 0.20627 0.51159 0.01913 0.0
C32 C 0.73236 0.2462 0.03017 0.0
O33 O 0.74154 0.28662 0.04867 0.0
O34 O 0.78562 0.27199 0.01533 0.0
O35 O 0.95282 0.3863 0.04137 0.0
O36 O 0.06616 0.42619 0.05622 0.0
O37 O 0.82224 0.43899 0.03386 0.0
C38 C -0.01677 0.48436 -0.0096 0.0
C39 C -0.00581 0.37781 0.05615 0.0
Zn40 Zn 0.49764 0.6271 0.03115 0.0
Zn41 Zn 0.62754 0.51654 0.02087 0.0
C42 C 0.48838 0.76306 0.03413 0.0
O43 O 0.49064 0.74825 0.05588 0.0
C44 C 0.51307 0.35268 0.0237 0.0
O45 O 0.48612 0.36299 0.00441 0.0
O46 O 0.38793 0.56198 0.04252 0.0
O47 O 0.51655 0.56446 0.00656 0.0
O48 O 0.57619 0.50838 -0.00875 0.0
C49 C 0.33604 0.54576 0.02741 0.0
O50 O 0.35683 0.56594 0.00612 0.0
O51 O 0.49598 0.72105 0.01913 0.0
C52 C 0.76133 0.51248 0.03016 0.0
O53 O 0.72094 0.48127 0.04866 0.0
O54 O 0.73552 0.53992 0.01531 0.0
O55 O 0.62131 0.5929 0.04137 0.0
O56 O 0.5814 0.66635 0.05621 0.0
O57 O 0.56855 0.40961 0.03386 0.0
C58 C 0.52315 0.52521 -0.0096 0.0
C59 C 0.6298 0.64278 0.05615 0.0
Zn60 Zn 0.88182 0.39552 0.43034 0.0
Zn61 Zn 0.12229 0.5061 0.44061 0.0
C62 C 0.73662 0.25955 0.42736 0.0
O63 O 0.75369 0.27436 0.40561 0.0
C64 C 0.17168 0.66997 0.43778 0.0
O65 O 0.13436 0.65963 0.45706 0.0
O66 O 0.83723 0.46065 0.41897 0.0
O67 O -0.03662 0.45815 0.45492 0.0
O68 O 0.0791 0.51425 0.47023 0.0
C69 C 0.80157 0.47688 0.43408 0.0
O70 O 0.80217 0.45668 0.45537 0.0
O71 O 0.78623 0.30157 0.44236 0.0
C72 C 0.26013 0.51014 0.43132 0.0
O73 O 0.25095 0.54137 0.41283 0.0
O74 O 0.20686 0.48269 0.44616 0.0
O75 O 0.03966 0.42976 0.42012 0.0
O76 O 0.92634 0.35629 0.40527 0.0
O77 O 0.17023 0.61304 0.42762 0.0
C78 C 0.00923 0.4974 0.47109 0.0
C79 C -0.00169 0.37989 0.40534 0.0
Zn80 Zn 0.61203 0.51271 0.43034 0.0
Zn81 Zn 0.50146 0.64261 0.44062 0.0
C82 C 0.74798 0.50345 0.42736 0.0
O83 O 0.73317 0.50571 0.40561 0.0
C84 C 0.33759 0.52813 0.43779 0.0
O85 O 0.3479 0.50118 0.45708 0.0
O86 O 0.5469 0.403 0.41897 0.0
O87 O 0.54938 0.53163 0.45493 0.0
O88 O 0.4933 0.59126 0.47024 0.0
C89 C 0.53068 0.35111 0.43408 0.0
O90 O 0.55088 0.37191 0.45537 0.0
O91 O 0.70597 0.51105 0.44236 0.0
C92 C 0.49739 0.77641 0.43134 0.0
O93 O 0.46619 0.736 0.41283 0.0
O94 O 0.52483 0.75058 0.44618 0.0
O95 O 0.57782 0.63638 0.42012 0.0
O96 O 0.65127 0.59648 0.40528 0.0
O97 O 0.39452 0.58361 0.42763 0.0
C98 C 0.51013 0.53822 0.47109 0.0
C99 C 0.6277 0.64487 0.40535 0.0
Zn100 Zn 0.49486 0.12573 0.43034 0.0
Zn101 Zn 0.36491 0.88527 0.44061 0.0
C102 C 0.50412 0.27095 0.42736 0.0
O103 O 0.50185 0.25388 0.40561 0.0
C104 C 0.47938 0.83586 0.4378 0.0
O105 O 0.50633 0.87314 0.45709 0.0
O106 O 0.60457 0.17029 0.41897 0.0
O107 O 0.47591 0.04416 0.45493 0.0
O108 O 0.41623 0.92844 0.47024 0.0
C109 C 0.65645 0.20596 0.43408 0.0
O110 O 0.63566 0.20536 0.45538 0.0
O111 O 0.49652 0.22134 0.44236 0.0
C112 C 0.23112 0.74743 0.43132 0.0
O113 O 0.27154 0.75661 0.41282 0.0
O114 O 0.25692 0.80069 0.44616 0.0
O115 O 0.37122 0.9679 0.42012 0.0
O116 O 0.41112 0.08123 0.40527 0.0
O117 O 0.42391 0.83732 0.42763 0.0
C118 C 0.46929 -0.0017 0.47109 0.0
C119 C 0.36273 0.00927 0.40534 0.0
Zn120 Zn 0.50142 0.88521 0.94061 0.0
Zn121 Zn 0.612 0.12567 0.93034 0.0
C122 C 0.33755 0.83579 0.93779 0.0
O123 O 0.34788 0.87308 0.95708 0.0
C124 C 0.74797 0.27087 0.92736 0.0
O125 O 0.73316 0.25379 0.90561 0.0
O126 O 0.52481 0.80062 0.94617 0.0
O127 O 0.57776 0.96782 0.92012 0.0
O128 O 0.65123 0.08115 0.90527 0.0
C129 C 0.49738 0.74736 0.93133 0.0
O130 O 0.46619 0.75657 0.91282 0.0
O131 O 0.39448 0.83726 0.92763 0.0
C132 C 0.53064 0.20592 0.93408 0.0
O133 O 0.55084 0.20532 0.95537 0.0
O134 O 0.54687 0.17025 0.91897 0.0
O135 O 0.54937 0.04412 0.95492 0.0
O136 O 0.49327 0.9284 0.97024 0.0
O137 O 0.70595 0.22127 0.94236 0.0
C138 C 0.62763 0.00918 0.90534 0.0
C139 C 0.51012 -0.00172 0.97109 0.0
Zn140 Zn 0.12226 0.64257 0.94061 0.0
Zn141 Zn 0.8818 0.51264 0.93034 0.0
C142 C 0.17171 0.52813 0.93781 0.0
O143 O 0.13445 0.50122 0.9571 0.0
C144 C 0.73658 0.50337 0.92736 0.0
O145 O 0.75366 0.50563 0.90561 0.0
O146 O 0.20684 0.75055 0.94617 0.0
O147 O 0.03964 0.63628 0.92012 0.0
O148 O 0.9263 0.59638 0.90527 0.0
C149 C 0.26009 0.77636 0.93132 0.0
O150 O 0.2509 0.73596 0.91282 0.0
O151 O 0.17021 0.58357 0.92764 0.0
C152 C 0.80157 0.35104 0.93408 0.0
O153 O 0.80217 0.37183 0.95538 0.0
O154 O 0.83723 0.40292 0.91897 0.0
O155 O -0.03664 0.53157 0.95493 0.0
O156 O 0.07907 0.59125 0.97024 0.0
O157 O 0.78619 0.51097 0.94236 0.0
C158 C -0.00173 0.64477 0.90534 0.0
C159 C 0.00921 0.53819 0.9711 0.0
Zn160 Zn 0.36492 0.50604 0.94062 0.0
Zn161 Zn 0.49482 0.39547 0.93034 0.0
C162 C 0.47938 0.6699 0.93779 0.0
O163 O 0.50633 0.65959 0.95708 0.0
C164 C 0.50407 0.25951 0.92736 0.0
O165 O 0.50181 0.27432 0.90561 0.0
O166 O 0.25696 0.48268 0.94618 0.0
O167 O 0.37115 0.42967 0.92012 0.0
O168 O 0.41105 0.35623 0.90528 0.0
C169 C 0.23113 0.51009 0.93133 0.0
O170 O 0.2715 0.54126 0.91283 0.0
O171 O 0.42392 0.61297 0.92763 0.0
C172 C 0.65642 0.47681 0.93408 0.0
O173 O 0.63563 0.45662 0.95537 0.0
O174 O 0.60453 0.46059 0.91896 0.0
O175 O 0.47592 0.45812 0.95493 0.0
O176 O 0.41628 0.5142 0.97024 0.0
O177 O 0.49647 0.30152 0.94236 0.0
C178 C 0.36266 0.3798 0.90535 0.0
C179 C 0.46932 0.49737 0.9711 0.0
Zn180 Zn 0.87014 0.5165 0.52088 0.0
Zn181 Zn 0.1106 0.62707 0.53115 0.0
C182 C 0.82072 0.35262 0.5237 0.0
O183 O 0.85802 0.36296 0.50442 0.0
C184 C 0.2558 0.76305 0.53413 0.0
O185 O 0.23872 0.74823 0.55588 0.0
O186 O 0.78555 0.53989 0.51532 0.0
O187 O 0.95275 0.59284 0.54137 0.0
O188 O 0.06608 0.6663 0.55622 0.0
C189 C 0.7323 0.51247 0.53016 0.0
O190 O 0.7415 0.48128 0.54867 0.0
O191 O 0.82219 0.40956 0.53386 0.0
C192 C 0.19085 0.54571 0.52741 0.0
O193 O 0.19025 0.56591 0.50612 0.0
O194 O 0.15518 0.56194 0.54252 0.0
O195 O 0.02905 0.56444 0.50657 0.0
O196 O 0.91333 0.50835 0.49125 0.0
O197 O 0.2062 0.72103 0.51913 0.0
C198 C -0.00589 0.6427 0.55615 0.0
C199 C -0.0168 0.5252 0.4904 0.0
Zn200 Zn 0.49098 0.38 0.52087 0.0
Zn201 Zn 0.3804 0.50988 0.53115 0.0
C202 C 0.65484 0.49447 0.5237 0.0
O203 O 0.64453 0.5214 0.5044 0.0
C204 C 0.24444 0.51914 0.53413 0.0
O205 O 0.25925 0.51688 0.55588 0.0
O206 O 0.46762 0.27203 0.51531 0.0
O207 O 0.41461 0.38621 0.54137 0.0
O208 O 0.34115 0.42612 0.55621 0.0
C209 C 0.49503 0.2462 0.53015 0.0
O210 O 0.5262 0.28658 0.54866 0.0
O211 O 0.59791 0.43901 0.53386 0.0
C212 C 0.46174 0.67149 0.52742 0.0
O213 O 0.44155 0.65069 0.50612 0.0
O214 O 0.44552 0.61959 0.54253 0.0
O215 O 0.44304 0.49098 0.50656 0.0
O216 O 0.49913 0.43135 0.49125 0.0
O217 O 0.28645 0.51154 0.51913 0.0
C218 C 0.36473 0.37772 0.55614 0.0
C219 C 0.4823 0.48439 0.4904 0.0
Zn220 Zn 0.6275 0.13733 0.52088 0.0
Zn221 Zn 0.49756 0.89687 0.53115 0.0
C222 C 0.51305 0.18675 0.52369 0.0
O223 O 0.48613 0.14951 0.50439 0.0
C224 C 0.4883 0.75165 0.53413 0.0
O225 O 0.49056 0.76872 0.55588 0.0
O226 O 0.73548 0.22191 0.51532 0.0
O227 O 0.62122 0.05472 0.54137 0.0
O228 O 0.5813 0.94137 0.55622 0.0
C229 C 0.76129 0.27516 0.53017 0.0
O230 O 0.72089 0.26597 0.54867 0.0
O231 O 0.5685 0.18528 0.53385 0.0
C232 C 0.33596 0.81664 0.52741 0.0
O233 O 0.35675 0.81724 0.50612 0.0
O234 O 0.38785 0.85231 0.54252 0.0
O235 O 0.5165 -0.02157 0.50656 0.0
O236 O 0.57618 0.09414 0.49125 0.0
O237 O 0.4959 0.80126 0.51913 0.0
C238 C 0.6297 0.01334 0.55615 0.0
C239 C 0.52312 0.02429 0.4904 0.0
Zn240 Zn 0.04715 0.23028 0.36448 0.0
Zn241 Zn 0.15769 0.47075 0.35421 0.0
C242 C 0.9112 0.08506 0.36746 0.0
O243 O 0.92602 0.10214 0.38921 0.0
C244 C 0.32157 0.52018 0.35703 0.0
O245 O 0.31124 0.48291 0.33774 0.0
O246 O 0.11229 0.18571 0.37586 0.0
O247 O 0.10979 0.31184 0.3399 0.0
O248 O 0.16585 0.42755 0.32459 0.0
C249 C 0.12851 0.15004 0.36075 0.0
O250 O 0.10831 0.15065 0.33945 0.0
O251 O 0.95321 0.13467 0.35246 0.0
C252 C 0.16176 0.60861 0.36349 0.0
O253 O 0.19298 0.59941 0.38199 0.0
O254 O 0.13431 0.55534 0.34865 0.0
O255 O 0.08134 0.38814 0.3747 0.0
O256 O 0.0079 0.2748 0.38955 0.0
O257 O 0.26464 0.51869 0.36719 0.0
C258 C 0.14903 0.35769 0.32373 0.0
C259 C 0.03147 0.34676 0.38948 0.0
Zn260 Zn 0.77734 0.84329 0.36449 0.0
Zn261 Zn 0.53688 0.7134 0.35421 0.0
C262 C 0.92256 0.85253 0.36746 0.0
O263 O 0.90549 0.85029 0.38921 0.0
C264 C 0.48747 0.82786 0.35704 0.0
O265 O 0.52478 0.85483 0.33776 0.0
O266 O 0.82194 0.95301 0.37586 0.0
O267 O 0.69579 0.82437 0.3399 0.0
O268 O 0.58008 0.76475 0.32459 0.0
C269 C 0.85761 0.00489 0.36075 0.0
O270 O 0.857 -0.01591 0.33945 0.0
O271 O 0.87294 0.84493 0.35247 0.0
C272 C 0.39904 0.57961 0.3635 0.0
O273 O 0.4082 0.62 0.382 0.0
O274 O 0.4523 0.60543 0.34866 0.0
O275 O 0.61949 0.71966 0.37471 0.0
O276 O 0.73282 0.75954 0.38956 0.0
O277 O 0.48894 0.7724 0.3672 0.0
C278 C 0.64994 0.81778 0.32373 0.0
C279 C 0.66086 0.71116 0.38948 0.0
Zn280 Zn 0.16432 0.96047 0.36448 0.0
Zn281 Zn 0.29424 0.84993 0.35421 0.0
C282 C 0.15508 0.09644 0.36747 0.0
O283 O 0.15734 0.08164 0.38922 0.0
C284 C 0.17976 0.68607 0.35703 0.0
O285 O 0.1528 0.69639 0.33774 0.0
O286 O 0.05461 0.89534 0.37586 0.0
O287 O 0.18326 0.89785 0.3399 0.0
O288 O 0.24291 0.84179 0.32458 0.0
C289 C 0.00272 0.87911 0.36075 0.0
O290 O 0.02351 0.89929 0.33945 0.0
O291 O 0.16266 0.05443 0.35246 0.0
C292 C 0.42803 0.84589 0.3635 0.0
O293 O 0.38762 0.81466 0.382 0.0
O294 O 0.40222 0.87334 0.34866 0.0
O295 O 0.28794 0.92626 0.3747 0.0
O296 O 0.24806 -0.00029 0.38955 0.0
O297 O 0.23524 0.74299 0.36719 0.0
C298 C 0.18987 0.85861 0.32373 0.0
C299 C 0.29644 -0.02387 0.38948 0.0
Zn300 Zn 0.5484 0.72875 0.76368 0.0
Zn301 Zn 0.78887 0.83928 0.77395 0.0
C302 C 0.40318 0.59279 0.7607 0.0
O303 O 0.42025 0.6076 0.73895 0.0
C304 C 0.83829 0.00316 0.77114 0.0
O305 O 0.801 -0.00718 0.79042 0.0
O306 O 0.50383 0.79389 0.7523 0.0
O307 O 0.62997 0.79138 0.78826 0.0
O308 O 0.74569 0.84743 0.80357 0.0
C309 C 0.46816 0.81012 0.76741 0.0
O310 O 0.46876 0.78992 0.78871 0.0
O311 O 0.45279 0.6348 0.7757 0.0
C312 C 0.9267 0.84331 0.76465 0.0
O313 O 0.9175 0.87454 0.74616 0.0
O314 O 0.87344 0.81586 0.77949 0.0
O315 O 0.70624 0.76296 0.75346 0.0
O316 O 0.59291 0.68951 0.73861 0.0
O317 O 0.83682 0.94624 0.76097 0.0
C318 C 0.67582 0.83062 0.80443 0.0
C319 C 0.66487 0.7131 0.73868 0.0
Zn320 Zn 0.27861 0.84593 0.76367 0.0
Zn321 Zn 0.16802 -0.02419 0.77394 0.0
C322 C 0.41457 0.83669 0.7607 0.0
O323 O 0.39977 0.83895 0.73895 0.0
C324 C 0.00417 0.86131 0.77111 0.0
O325 O 0.01449 0.83433 0.79039 0.0
O326 O 0.21348 0.73621 0.7523 0.0
O327 O 0.21597 0.86486 0.78825 0.0
O328 O 0.15987 0.92449 0.80356 0.0
C329 C 0.19725 0.68432 0.76741 0.0
O330 O 0.21745 0.70513 0.78871 0.0
O331 O 0.37256 0.84428 0.7757 0.0
C332 C 0.16395 0.10961 0.76466 0.0
O333 O 0.1327 0.06919 0.74616 0.0
O334 O 0.19142 0.0838 0.77949 0.0
O335 O 0.24438 0.96955 0.75345 0.0
O336 O 0.31784 0.92967 0.7386 0.0
O337 O 0.06108 0.91681 0.76095 0.0
C338 C 0.17672 0.87146 0.80442 0.0
C339 C 0.29425 -0.02195 0.73867 0.0
Zn340 Zn 0.16142 0.45894 0.76368 0.0
Zn341 Zn 0.0315 0.21848 0.77395 0.0
C342 C 0.17067 0.60416 0.7607 0.0
O343 O 0.16841 0.58708 0.73895 0.0
C344 C 0.14597 0.16908 0.77112 0.0
O345 O 0.17293 0.20635 0.79041 0.0
O346 O 0.27113 0.50352 0.7523 0.0
O347 O 0.14249 0.37739 0.78826 0.0
O348 O 0.08286 0.26167 0.80358 0.0
C349 C 0.32302 0.5392 0.76742 0.0
O350 O 0.30223 0.5386 0.78871 0.0
O351 O 0.16308 0.55455 0.7757 0.0
C352 C 0.89772 0.08063 0.76467 0.0
O353 O 0.9381 0.08982 0.74617 0.0
O354 O 0.92353 0.13389 0.77951 0.0
O355 O 0.03775 0.30108 0.75346 0.0
O356 O 0.07766 0.41443 0.73861 0.0
O357 O 0.09049 0.17054 0.76097 0.0
C358 C 0.1359 0.33154 0.80443 0.0
C359 C 0.02926 0.34246 0.73868 0.0
Zn360 Zn 0.1682 0.21864 0.27395 0.0
Zn361 Zn 0.27875 0.4591 0.26368 0.0
C362 C 0.00432 0.16921 0.27114 0.0
O363 O 0.01466 0.20647 0.29043 0.0
C364 C 0.41471 0.60432 0.2607 0.0
O365 O 0.3999 0.58725 0.23895 0.0
O366 O 0.19159 0.13405 0.2795 0.0
O367 O 0.24454 0.30125 0.25345 0.0
O368 O 0.31798 0.41459 0.23861 0.0
C369 C 0.16417 0.0808 0.26466 0.0
O370 O 0.13297 0.09002 0.24616 0.0
O371 O 0.06125 0.1707 0.26097 0.0
C372 C 0.19738 0.53934 0.26741 0.0
O373 O 0.21759 0.53875 0.28871 0.0
O374 O 0.21361 0.50368 0.2523 0.0
O375 O 0.21612 0.37755 0.28826 0.0
O376 O 0.16006 0.26183 0.30357 0.0
O377 O 0.3727 0.55471 0.2757 0.0
C378 C 0.2944 0.34262 0.23868 0.0
C379 C 0.17687 0.33169 0.30443 0.0
Zn380 Zn 0.78902 -0.024 0.27396 0.0
Zn381 Zn 0.54856 0.84609 0.26368 0.0
C382 C 0.83846 0.86156 0.27113 0.0
O383 O 0.80119 0.83462 0.29042 0.0
C384 C 0.40335 0.83684 0.2607 0.0
O385 O 0.42043 0.83909 0.23895 0.0
O386 O 0.87361 0.08397 0.27952 0.0
O387 O 0.70642 0.96974 0.25346 0.0
O388 O 0.59308 0.92985 0.23861 0.0
C389 C 0.92685 0.10979 0.26467 0.0
O390 O 0.91765 0.06941 0.24616 0.0
O391 O 0.83697 0.91701 0.26097 0.0
C392 C 0.46831 0.68449 0.26741 0.0
O393 O 0.4689 0.70527 0.28871 0.0
O394 O 0.50398 0.73638 0.2523 0.0
O395 O 0.63011 0.86501 0.28826 0.0
O396 O 0.74582 0.92464 0.30358 0.0
O397 O 0.45295 0.84444 0.2757 0.0
C398 C 0.66504 -0.02177 0.23868 0.0
C399 C 0.67595 0.8716 0.30443 0.0
Zn400 Zn 0.03168 0.83948 0.27394 0.0
Zn401 Zn 0.16158 0.72891 0.26367 0.0
C402 C 0.14616 0.00334 0.27112 0.0
O403 O 0.17312 -0.00698 0.29041 0.0
C404 C 0.17082 0.59294 0.26069 0.0
O405 O 0.16856 0.60775 0.23894 0.0
O406 O 0.92371 0.81609 0.2795 0.0
O407 O 0.03794 0.76313 0.25345 0.0
O408 O 0.07784 0.68967 0.2386 0.0
C409 C 0.89789 0.84354 0.26465 0.0
O410 O 0.93829 0.87475 0.24615 0.0
O411 O 0.09069 0.94642 0.26096 0.0
C412 C 0.32318 0.81027 0.26741 0.0
O413 O 0.30239 0.79008 0.28871 0.0
O414 O 0.2713 0.79404 0.2523 0.0
O415 O 0.14265 0.79155 0.28826 0.0
O416 O 0.08301 0.84763 0.30357 0.0
O417 O 0.16323 0.63496 0.27569 0.0
C418 C 0.02945 0.71326 0.23867 0.0
C419 C 0.13605 0.83079 0.30442 0.0
Zn420 Zn 0.53678 0.84981 0.85421 0.0
Zn421 Zn 0.77724 0.96034 0.86449 0.0
C422 C 0.48733 0.68592 0.85702 0.0
O423 O 0.52458 0.69625 0.83773 0.0
C424 C 0.92246 0.0963 0.86747 0.0
O425 O 0.90538 0.08147 0.88922 0.0
O426 O 0.45219 0.87319 0.84865 0.0
O427 O 0.61938 0.92615 0.8747 0.0
O428 O 0.73273 -0.00042 0.88955 0.0
C429 C 0.39894 0.84576 0.86349 0.0
O430 O 0.40815 0.81457 0.88199 0.0
O431 O 0.48883 0.74286 0.86719 0.0
C432 C 0.85747 0.87897 0.86075 0.0
O433 O 0.85688 0.89918 0.83946 0.0
O434 O 0.82181 0.8952 0.87586 0.0
O435 O 0.69569 0.8977 0.8399 0.0
O436 O 0.57997 0.84166 0.82459 0.0
O437 O 0.87285 0.05429 0.85247 0.0
C438 C 0.66076 -0.02398 0.88948 0.0
C439 C 0.64984 0.85846 0.82373 0.0
Zn440 Zn 0.15761 0.71328 0.85421 0.0
Zn441 Zn 0.04705 0.84318 0.86448 0.0
C442 C 0.32148 0.82775 0.85703 0.0
O443 O 0.31116 0.8547 0.83774 0.0
C444 C 0.91108 0.85241 0.86747 0.0
O445 O 0.92588 0.85014 0.88922 0.0
O446 O 0.13422 0.6053 0.84865 0.0
O447 O 0.08127 0.71955 0.8747 0.0
O448 O 0.00782 0.75943 0.88955 0.0
C449 C 0.16165 0.57947 0.8635 0.0
O450 O 0.19284 0.61988 0.882 0.0
O451 O 0.26455 0.77228 0.86719 0.0
C452 C 0.12842 0.00479 0.86075 0.0
O453 O 0.10823 -0.01601 0.83945 0.0
O454 O 0.11219 0.95289 0.87586 0.0
O455 O 0.10968 0.82426 0.8399 0.0
O456 O 0.16576 0.76462 0.82458 0.0
O457 O 0.9531 0.84483 0.85247 0.0
C458 C 0.0314 0.71105 0.88948 0.0
C459 C 0.14892 0.81765 0.82373 0.0
Zn460 Zn 0.29411 0.47061 0.85421 0.0
Zn461 Zn 0.16423 0.23016 0.86449 0.0
C462 C 0.17965 0.52001 0.85703 0.0
O463 O 0.1527 0.48275 0.83774 0.0
C464 C 0.15499 0.08495 0.86747 0.0
O465 O 0.15724 0.10202 0.88922 0.0
O466 O 0.40208 0.55521 0.84865 0.0
O467 O 0.28788 0.38802 0.8747 0.0
O468 O 0.24799 0.27468 0.88955 0.0
C469 C 0.42791 0.60846 0.86349 0.0
O470 O 0.38754 0.59927 0.882 0.0
O471 O 0.23511 0.51855 0.8672 0.0
C472 C 0.00263 0.14989 0.86075 0.0
O473 O 0.02342 0.15049 0.83946 0.0
O474 O 0.05451 0.18556 0.87586 0.0
O475 O 0.18313 0.3117 0.8399 0.0
O476 O 0.24276 0.42741 0.82459 0.0
O477 O 0.16258 0.13456 0.85247 0.0
C478 C 0.29638 0.34665 0.88948 0.0
C479 C 0.18973 0.35755 0.82373 0.0
Zn480 Zn 0.71368 0.56348 0.69782 0.0
Zn481 Zn 0.82422 0.80394 0.68754 0.0
C482 C 0.57771 0.41825 0.7008 0.0
O483 O 0.59253 0.43533 0.72254 0.0
C484 C -0.01191 0.85336 0.69035 0.0
O485 O -0.02225 0.81608 0.67107 0.0
O486 O 0.77882 0.51891 0.70919 0.0
O487 O 0.7763 0.64504 0.67323 0.0
O488 O 0.83235 0.76076 0.65792 0.0
C489 C 0.79504 0.48324 0.69408 0.0
O490 O 0.77485 0.48384 0.67278 0.0
O491 O 0.61973 0.46787 0.6858 0.0
C492 C 0.82825 0.94178 0.69684 0.0
O493 O 0.85949 0.93258 0.71533 0.0
O494 O 0.80081 0.88852 0.682 0.0
O495 O 0.74788 0.72132 0.70803 0.0
O496 O 0.67444 0.60798 0.72288 0.0
O497 O 0.93117 0.85189 0.70052 0.0
C498 C 0.81554 0.69089 0.65706 0.0
C499 C 0.69802 0.67995 0.72281 0.0
Zn500 Zn 0.44387 0.17649 0.69781 0.0
Zn501 Zn 0.20341 0.04658 0.68754 0.0
C502 C 0.58909 0.18575 0.70079 0.0
O503 O 0.57201 0.1835 0.72254 0.0
C504 C 0.15398 0.16102 0.69037 0.0
O505 O 0.19126 0.18797 0.67108 0.0
O506 O 0.48845 0.2862 0.70919 0.0
O507 O 0.36232 0.15757 0.67323 0.0
O508 O 0.2466 0.09793 0.65791 0.0
C509 C 0.52412 0.33809 0.69408 0.0
O510 O 0.52352 0.3173 0.67278 0.0
O511 O 0.53948 0.17815 0.68579 0.0
C512 C 0.06556 0.91279 0.69682 0.0
O513 O 0.07475 0.95317 0.71532 0.0
O514 O 0.11882 0.9386 0.68198 0.0
O515 O 0.28601 0.05283 0.70803 0.0
O516 O 0.39935 0.09273 0.72288 0.0
O517 O 0.15546 0.10556 0.70053 0.0
C518 C 0.31647 0.15097 0.65706 0.0
C519 C 0.32739 0.04433 0.72281 0.0
Zn520 Zn 0.83085 0.29368 0.69782 0.0
Zn521 Zn -0.03925 0.18311 0.68755 0.0
C522 C 0.82161 0.42965 0.7008 0.0
O523 O 0.82387 0.41484 0.72255 0.0
C524 C 0.84625 0.01925 0.69038 0.0
O525 O 0.81927 0.02957 0.6711 0.0
O526 O 0.72114 0.22855 0.70919 0.0
O527 O 0.84979 0.23104 0.67324 0.0
O528 O 0.90942 0.17495 0.65793 0.0
C529 C 0.66925 0.21233 0.69408 0.0
O530 O 0.69005 0.23251 0.67278 0.0
O531 O 0.82921 0.38763 0.6858 0.0
C532 C 0.09454 0.17904 0.69684 0.0
O533 O 0.05413 0.14779 0.71533 0.0
O534 O 0.06873 0.2065 0.682 0.0
O535 O 0.95448 0.25946 0.70804 0.0
O536 O 0.9146 0.33292 0.72289 0.0
O537 O 0.90174 0.07617 0.70054 0.0
C538 C 0.85639 0.1918 0.65707 0.0
C539 C -0.03702 0.30933 0.72282 0.0
Zn540 Zn 0.21521 0.06222 0.09701 0.0
Zn541 Zn 0.45567 0.17276 0.10728 0.0
C542 C 0.06998 0.92627 0.09403 0.0
O543 O 0.08706 0.94109 0.07228 0.0
C544 C 0.5051 0.33664 0.10446 0.0
O545 O 0.46782 0.32631 0.12375 0.0
O546 O 0.17064 0.12736 0.08563 0.0
O547 O 0.29677 0.12486 0.12159 0.0
O548 O 0.41248 0.18092 0.13691 0.0
C549 C 0.13496 0.14358 0.10074 0.0
O550 O 0.13557 0.12338 0.12204 0.0
O551 O 0.11959 0.96828 0.10903 0.0
C552 C 0.59352 0.17681 0.098 0.0
O553 O 0.58433 0.20803 0.0795 0.0
O554 O 0.54026 0.14937 0.11284 0.0
O555 O 0.37306 0.09641 0.08679 0.0
O556 O 0.25972 0.02298 0.07194 0.0
O557 O 0.50362 0.2797 0.0943 0.0
C558 C 0.34262 0.1641 0.13776 0.0
C559 C 0.33168 0.04654 0.07201 0.0
Zn560 Zn 0.9454 0.17939 0.09701 0.0
Zn561 Zn 0.83485 0.30931 0.10728 0.0
C562 C 0.08137 0.17015 0.09403 0.0
O563 O 0.06657 0.17242 0.07228 0.0
C564 C 0.67099 0.19482 0.10446 0.0
O565 O 0.68131 0.16787 0.12375 0.0
O566 O 0.88026 0.06968 0.08563 0.0
O567 O 0.88278 0.19833 0.12159 0.0
O568 O 0.8267 0.25798 0.13691 0.0
C569 C 0.86403 0.01779 0.10075 0.0
O570 O 0.88422 0.03859 0.12204 0.0
O571 O 0.03935 0.17773 0.10903 0.0
C572 C 0.8308 0.44311 0.09799 0.0
O573 O 0.79957 0.40268 0.0795 0.0
O574 O 0.85825 0.4173 0.11283 0.0
O575 O 0.91119 0.30302 0.08679 0.0
O576 O -0.01536 0.26313 0.07194 0.0
O577 O 0.7279 0.2503 0.0943 0.0
C578 C 0.84353 0.20494 0.13776 0.0
C579 C -0.03895 0.31152 0.07201 0.0
Zn580 Zn 0.82822 0.79242 0.097 0.0
Zn581 Zn 0.69832 0.55196 0.10728 0.0
C582 C 0.83746 0.93762 0.09403 0.0
O583 O 0.8352 0.92056 0.07228 0.0
C584 C 0.81281 0.50258 0.10445 0.0
O585 O 0.83978 0.53987 0.12373 0.0
O586 O 0.93794 0.83701 0.08563 0.0
O587 O 0.8093 0.71086 0.12159 0.0
O588 O 0.74967 0.59514 0.1369 0.0
C589 C -0.01018 0.87268 0.10074 0.0
O590 O -0.03098 0.87208 0.12204 0.0
O591 O 0.82986 0.88802 0.10903 0.0
C592 C 0.56453 0.4141 0.09799 0.0
O593 O 0.60492 0.42327 0.07949 0.0
O594 O 0.59035 0.46737 0.11283 0.0
O595 O 0.70459 0.63457 0.08679 0.0
O596 O 0.74446 0.7479 0.07194 0.0
O597 O 0.75732 0.50401 0.09429 0.0
C598 C 0.8027 0.66501 0.13776 0.0
C599 C 0.69608 0.67593 0.07201 0.0
Zn600 Zn 0.83473 0.55185 0.60728 0.0
Zn601 Zn 0.94526 0.79231 0.59701 0.0
C602 C 0.67085 0.5024 0.60447 0.0
O603 O 0.68118 0.53965 0.62376 0.0
C604 C 0.08122 0.93753 0.59402 0.0
O605 O 0.0664 0.92045 0.57228 0.0
O606 O 0.85811 0.46725 0.61284 0.0
O607 O 0.91108 0.63444 0.58679 0.0
O608 O -0.01549 0.74779 0.57194 0.0
C609 C 0.83067 0.41399 0.598 0.0
O610 O 0.79948 0.4232 0.5795 0.0
O611 O 0.72778 0.50391 0.5943 0.0
C612 C 0.8639 0.87254 0.60074 0.0
O613 O 0.8841 0.87195 0.62204 0.0
O614 O 0.88013 0.83687 0.58563 0.0
O615 O 0.88263 0.71076 0.62159 0.0
O616 O 0.82658 0.59504 0.63691 0.0
O617 O 0.03921 0.88792 0.60903 0.0
C618 C -0.03905 0.67583 0.57201 0.0
C619 C 0.84339 0.6649 0.63776 0.0
Zn620 Zn 0.45554 0.30918 0.60728 0.0
Zn621 Zn 0.21508 0.1793 0.597 0.0
C622 C 0.50497 0.19473 0.60446 0.0
O623 O 0.46769 0.16779 0.62375 0.0
C624 C 0.06987 0.17006 0.59403 0.0
O625 O 0.08695 0.1723 0.57228 0.0
O626 O 0.54013 0.41715 0.61284 0.0
O627 O 0.37294 0.30294 0.58679 0.0
O628 O 0.25961 0.26306 0.57194 0.0
C629 C 0.59338 0.44298 0.598 0.0
O630 O 0.5842 0.40261 0.57949 0.0
O631 O 0.50349 0.25018 0.59429 0.0
C632 C 0.13482 0.0177 0.60074 0.0
O633 O 0.13542 0.03849 0.62204 0.0
O634 O 0.17049 0.06958 0.58563 0.0
O635 O 0.29663 0.1982 0.62159 0.0
O636 O 0.41234 0.25783 0.6369 0.0
O637 O 0.11948 0.17766 0.60903 0.0
C638 C 0.33158 0.31144 0.57201 0.0
C639 C 0.34248 0.2048 0.63776 0.0
Zn640 Zn 0.6982 0.17267 0.60728 0.0
Zn641 Zn 0.82811 0.06212 0.59701 0.0
C642 C 0.81267 0.33653 0.60446 0.0
O643 O 0.83962 0.32622 0.62375 0.0
C644 C 0.83734 0.92615 0.59402 0.0
O645 O 0.83507 0.94095 0.57227 0.0
O646 O 0.59022 0.14928 0.61284 0.0
O647 O 0.70448 0.09633 0.58679 0.0
O648 O 0.74436 0.02289 0.57194 0.0
C649 C 0.5644 0.1767 0.59799 0.0
O650 O 0.60479 0.20789 0.57949 0.0
O651 O 0.7572 0.27961 0.5943 0.0
C652 C -0.01029 0.14349 0.60074 0.0
O653 O -0.03107 0.1233 0.62204 0.0
O654 O 0.93782 0.12725 0.58563 0.0
O655 O 0.80918 0.12474 0.6216 0.0
O656 O 0.74953 0.18082 0.63691 0.0
O657 O 0.82976 0.96817 0.60903 0.0
C658 C 0.69598 0.04647 0.57201 0.0
C659 C 0.80257 0.16399 0.63776 0.0
Zn660 Zn 0.20357 0.18328 0.18754 0.0
Zn661 Zn 0.44403 0.29382 0.19782 0.0
C662 C 0.15413 0.0194 0.19035 0.0
O663 O 0.19139 0.02974 0.17106 0.0
C664 C 0.58925 0.42979 0.2008 0.0
O665 O 0.57218 0.41497 0.22255 0.0
O666 O 0.11899 0.20668 0.18199 0.0
O667 O 0.28618 0.25962 0.20803 0.0
O668 O 0.39951 0.33306 0.22288 0.0
C669 C 0.06574 0.17925 0.19683 0.0
O670 O 0.07496 0.14807 0.21533 0.0
O671 O 0.15562 0.07633 0.20052 0.0
C672 C 0.52427 0.21246 0.19408 0.0
O673 O 0.52368 0.23266 0.17279 0.0
O674 O 0.4886 0.22869 0.20919 0.0
O675 O 0.36248 0.23119 0.17323 0.0
O676 O 0.24676 0.17514 0.15792 0.0
O677 O 0.53964 0.38777 0.1858 0.0
C678 C 0.32755 0.30948 0.22281 0.0
C679 C 0.31663 0.19195 0.15706 0.0
Zn680 Zn 0.82442 0.04676 0.18755 0.0
Zn681 Zn 0.71384 0.17665 0.19782 0.0
C682 C -0.01172 0.16125 0.19037 0.0
O683 O -0.02205 0.18819 0.17108 0.0
C684 C 0.57787 0.1859 0.2008 0.0
O685 O 0.59268 0.18363 0.22255 0.0
O686 O 0.80103 0.93879 0.18199 0.0
O687 O 0.74806 0.05301 0.20804 0.0
O688 O 0.6746 0.0929 0.22289 0.0
C689 C 0.82848 0.91296 0.19683 0.0
O690 O 0.85969 0.95337 0.21533 0.0
O691 O 0.93136 0.10577 0.20053 0.0
C692 C 0.7952 0.33826 0.19408 0.0
O693 O 0.775 0.31745 0.17279 0.0
O694 O 0.77897 0.28636 0.20919 0.0
O695 O 0.77647 0.15773 0.17324 0.0
O696 O 0.83256 0.09809 0.15793 0.0
O697 O 0.61989 0.17831 0.1858 0.0
C698 C 0.69818 0.04452 0.22282 0.0
C699 C 0.81572 0.15112 0.15707 0.0
Zn700 Zn -0.03907 0.80409 0.18753 0.0
Zn701 Zn 0.83102 0.56363 0.19782 0.0
C702 C 0.84647 0.8535 0.19036 0.0
O703 O 0.81953 0.81625 0.17107 0.0
C704 C 0.82177 0.41842 0.2008 0.0
O705 O 0.82403 0.4355 0.22255 0.0
O706 O 0.06889 0.88869 0.18197 0.0
O707 O 0.95468 0.72149 0.20803 0.0
O708 O 0.91478 0.60815 0.22288 0.0
C709 C 0.09471 0.94193 0.19682 0.0
O710 O 0.05434 0.93273 0.21533 0.0
O711 O 0.90193 0.85203 0.20052 0.0
C712 C 0.66941 0.48338 0.19408 0.0
O713 O 0.6902 0.48398 0.17278 0.0
O714 O 0.7213 0.51905 0.20919 0.0
O715 O 0.84993 0.64518 0.17323 0.0
O716 O 0.90957 0.76089 0.15791 0.0
O717 O 0.82936 0.46802 0.1858 0.0
C718 C -0.03683 0.68012 0.22281 0.0
C719 C 0.85653 0.69102 0.15706 0.0
loop_
_geom_bond_atom_site_label_1
_geom_bond_atom_site_label_2
_geom_bond_distance
_geom_bond_site_symmetry_2
_ccdc_geom_bond_type
Zn0 O6 1.969 . S
Zn0 O7 1.969 . S
Zn0 O11 2.024 . S
Zn0 O16 1.969 . S
Zn1 O8 1.969 . S
Zn1 O14 1.969 . S
Zn1 O15 1.965 . S
Zn1 O17 2.024 . S
C2 O3 1.229 . S
C2 O11 1.058 . S
O3 C2 1.229 . S
C4 O5 1.229 . S
C4 O17 1.058 . S
O5 C4 1.229 . S
O6 Zn0 1.969 . S
O6 C9 1.267 . S
O7 Zn0 1.969 . S
O7 C18 1.253 1_565 S
O8 Zn1 1.969 . S
O8 C18 1.258 . S
C9 O6 1.267 . S
C9 O10 1.228 . S
O10 C9 1.228 . S
O11 Zn0 2.024 . S
O11 C2 1.058 . S
C12 O13 1.228 . S
C12 O14 1.267 . S
O13 C12 1.228 . S
O14 Zn1 1.969 . S
O14 C12 1.267 . S
O15 Zn1 1.965 . S
O15 C19 1.260 . S
O16 Zn0 1.969 . S
O16 C19 1.258 1_565 S
O17 Zn1 2.024 . S
O17 C4 1.058 . S
C18 O7 1.253 1_545 S
C18 O8 1.258 . S
C19 O15 1.260 . S
C19 O16 1.258 1_545 S
Zn20 O26 1.969 . S
Zn20 O27 1.965 . S
Zn20 O31 2.024 . S
Zn20 O36 1.969 . S
Zn21 O28 1.969 . S
Zn21 O34 1.969 . S
Zn21 O35 1.965 . S
Zn21 O37 2.024 . S
C22 O23 1.229 . S
C22 O31 1.058 . S
O23 C22 1.229 . S
C24 O25 1.229 . S
C24 O37 1.058 . S
O25 C24 1.229 . S
O26 Zn20 1.969 . S
O26 C29 1.267 . S
O27 Zn20 1.965 . S
O27 C38 1.260 . S
O28 Zn21 1.969 . S
O28 C38 1.258 1_655 S
C29 O26 1.267 . S
C29 O30 1.228 . S
O30 C29 1.228 . S
O31 Zn20 2.024 . S
O31 C22 1.058 . S
C32 O33 1.228 . S
C32 O34 1.267 . S
O33 C32 1.228 . S
O34 Zn21 1.969 . S
O34 C32 1.267 . S
O35 Zn21 1.965 . S
O35 C39 1.260 1_655 S
O36 Zn20 1.969 . S
O36 C39 1.258 . S
O37 Zn21 2.024 . S
O37 C24 1.058 . S
C38 O27 1.260 . S
C38 O28 1.258 1_455 S
C39 O35 1.260 1_455 S
C39 O36 1.258 . S
Zn40 O46 1.969 . S
Zn40 O47 1.965 . S
Zn40 O51 2.024 . S
Zn40 O56 1.969 . S
Zn41 O48 1.969 . S
Zn41 O54 1.969 . S
Zn41 O55 1.965 . S
Zn41 O57 2.024 . S
C42 O43 1.229 . S
C42 O51 1.058 . S
O43 C42 1.229 . S
C44 O45 1.229 . S
C44 O57 1.058 . S
O45 C44 1.229 . S
O46 Zn40 1.969 . S
O46 C49 1.267 . S
O47 Zn40 1.965 . S
O47 C58 1.260 . S
O48 Zn41 1.969 . S
O48 C58 1.258 . S
C49 O46 1.267 . S
C49 O50 1.228 . S
O50 C49 1.228 . S
O51 Zn40 2.024 . S
O51 C42 1.058 . S
C52 O53 1.228 . S
C52 O54 1.267 . S
O53 C52 1.228 . S
O54 Zn41 1.969 . S
O54 C52 1.267 . S
O55 Zn41 1.965 . S
O55 C59 1.260 . S
O56 Zn40 1.969 . S
O56 C59 1.258 . S
O57 Zn41 2.024 . S
O57 C44 1.058 . S
C58 O47 1.260 . S
C58 O48 1.258 . S
C59 O55 1.260 . S
C59 O56 1.258 . S
Zn60 O66 1.969 . S
Zn60 O67 1.969 . S
Zn60 O71 2.024 . S
Zn60 O76 1.969 . S
Zn61 O68 1.969 . S
Zn61 O74 1.969 . S
Zn61 O75 1.965 . S
Zn61 O77 2.024 . S
C62 O63 1.229 . S
C62 O71 1.058 . S
O63 C62 1.229 . S
C64 O65 1.229 . S
C64 O77 1.058 . S
O65 C64 1.229 . S
O66 Zn60 1.969 . S
O66 C69 1.267 . S
O67 Zn60 1.969 . S
O67 C78 1.253 1_655 S
O68 Zn61 1.969 . S
O68 C78 1.258 . S
C69 O66 1.267 . S
C69 O70 1.228 . S
O70 C69 1.228 . S
O71 Zn60 2.024 . S
O71 C62 1.058 . S
C72 O73 1.228 . S
C72 O74 1.267 . S
O73 C72 1.228 . S
O74 Zn61 1.969 . S
O74 C72 1.267 . S
O75 Zn61 1.965 . S
O75 C79 1.260 . S
O76 Zn60 1.969 . S
O76 C79 1.258 1_655 S
O77 Zn61 2.024 . S
O77 C64 1.058 . S
C78 O67 1.253 1_455 S
C78 O68 1.258 . S
C79 O75 1.260 . S
C79 O76 1.258 1_455 S
Zn80 O86 1.969 . S
Zn80 O87 1.965 . S
Zn80 O91 2.024 . S
Zn80 O96 1.969 . S
Zn81 O88 1.969 . S
Zn81 O94 1.969 . S
Zn81 O95 1.965 . S
Zn81 O97 2.024 . S
C82 O83 1.229 . S
C82 O91 1.058 . S
O83 C82 1.229 . S
C84 O85 1.229 . S
C84 O97 1.058 . S
O85 C84 1.229 . S
O86 Zn80 1.969 . S
O86 C89 1.267 . S
O87 Zn80 1.965 . S
O87 C98 1.260 . S
O88 Zn81 1.969 . S
O88 C98 1.258 . S
C89 O86 1.267 . S
C89 O90 1.228 . S
O90 C89 1.228 . S
O91 Zn80 2.024 . S
O91 C82 1.058 . S
C92 O93 1.228 . S
C92 O94 1.267 . S
O93 C92 1.228 . S
O94 Zn81 1.969 . S
O94 C92 1.267 . S
O95 Zn81 1.965 . S
O95 C99 1.260 . S
O96 Zn80 1.969 . S
O96 C99 1.258 . S
O97 Zn81 2.024 . S
O97 C84 1.058 . S
C98 O87 1.260 . S
C98 O88 1.258 . S
C99 O95 1.260 . S
C99 O96 1.258 . S
Zn100 O106 1.969 . S
Zn100 O107 1.965 . S
Zn100 O111 2.024 . S
Zn100 O116 1.969 . S
Zn101 O108 1.969 . S
Zn101 O114 1.969 . S
Zn101 O115 1.965 . S
Zn101 O117 2.024 . S
C102 O103 1.229 . S
C102 O111 1.058 . S
O103 C102 1.229 . S
C104 O105 1.229 . S
C104 O117 1.058 . S
O105 C104 1.229 . S
O106 Zn100 1.969 . S
O106 C109 1.267 . S
O107 Zn100 1.965 . S
O107 C118 1.260 . S
O108 Zn101 1.969 . S
O108 C118 1.258 1_565 S
C109 O106 1.267 . S
C109 O110 1.228 . S
O110 C109 1.228 . S
O111 Zn100 2.024 . S
O111 C102 1.058 . S
C112 O113 1.228 . S
C112 O114 1.267 . S
O113 C112 1.228 . S
O114 Zn101 1.969 . S
O114 C112 1.267 . S
O115 Zn101 1.965 . S
O115 C119 1.260 1_565 S
O116 Zn100 1.969 . S
O116 C119 1.258 . S
O117 Zn101 2.024 . S
O117 C104 1.058 . S
C118 O107 1.260 . S
C118 O108 1.258 1_545 S
C119 O115 1.260 1_545 S
C119 O116 1.258 . S
Zn120 O126 1.969 . S
Zn120 O127 1.965 . S
Zn120 O131 2.024 . S
Zn120 O136 1.969 . S
Zn121 O128 1.969 . S
Zn121 O134 1.969 . S
Zn121 O135 1.965 . S
Zn121 O137 2.024 . S
C122 O123 1.229 . S
C122 O131 1.058 . S
O123 C122 1.229 . S
C124 O125 1.229 . S
C124 O137 1.058 . S
O125 C124 1.229 . S
O126 Zn120 1.969 . S
O126 C129 1.267 . S
O127 Zn120 1.965 . S
O127 C138 1.260 1_565 S
O128 Zn121 1.969 . S
O128 C138 1.258 . S
C129 O126 1.267 . S
C129 O130 1.228 . S
O130 C129 1.228 . S
O131 Zn120 2.024 . S
O131 C122 1.058 . S
C132 O133 1.228 . S
C132 O134 1.267 . S
O133 C132 1.228 . S
O134 Zn121 1.969 . S
O134 C132 1.267 . S
O135 Zn121 1.965 . S
O135 C139 1.260 . S
O136 Zn120 1.969 . S
O136 C139 1.258 1_565 S
O137 Zn121 2.024 . S
O137 C124 1.058 . S
C138 O127 1.260 1_545 S
C138 O128 1.258 . S
C139 O135 1.260 . S
C139 O136 1.258 1_545 S
Zn140 O146 1.969 . S
Zn140 O147 1.965 . S
Zn140 O151 2.024 . S
Zn140 O156 1.969 . S
Zn141 O148 1.969 . S
Zn141 O154 1.969 . S
Zn141 O155 1.975 . S
Zn141 O157 2.024 . S
C142 O143 1.229 . S
C142 O151 1.058 . S
O143 C142 1.229 . S
C144 O145 1.229 . S
C144 O157 1.058 . S
O145 C144 1.229 . S
O146 Zn140 1.969 . S
O146 C149 1.267 . S
O147 Zn140 1.965 . S
O147 C158 1.260 . S
O148 Zn141 1.969 . S
O148 C158 1.258 1_655 S
C149 O146 1.267 . S
C149 O150 1.228 . S
O150 C149 1.228 . S
O151 Zn140 2.024 . S
O151 C142 1.058 . S
C152 O153 1.228 . S
C152 O154 1.267 . S
O153 C152 1.228 . S
O154 Zn141 1.969 . S
O154 C152 1.267 . S
O155 Zn141 1.975 . S
O155 C159 1.255 1_655 S
O156 Zn140 1.969 . S
O156 C159 1.258 . S
O157 Zn141 2.024 . S
O157 C144 1.058 . S
C158 O147 1.260 . S
C158 O148 1.258 1_455 S
C159 O155 1.255 1_455 S
C159 O156 1.258 . S
Zn160 O166 1.969 . S
Zn160 O167 1.965 . S
Zn160 O171 2.024 . S
Zn160 O176 1.969 . S
Zn161 O168 1.969 . S
Zn161 O174 1.969 . S
Zn161 O175 1.965 . S
Zn161 O177 2.024 . S
C162 O163 1.229 . S
C162 O171 1.058 . S
O163 C162 1.229 . S
C164 O165 1.229 . S
C164 O177 1.058 . S
O165 C164 1.229 . S
O166 Zn160 1.969 . S
O166 C169 1.267 . S
O167 Zn160 1.965 . S
O167 C178 1.260 . S
O168 Zn161 1.969 . S
O168 C178 1.258 . S
C169 O166 1.267 . S
C169 O170 1.228 . S
O170 C169 1.228 . S
O171 Zn160 2.024 . S
O171 C162 1.058 . S
C172 O173 1.228 . S
C172 O174 1.267 . S
O173 C172 1.228 . S
O174 Zn161 1.969 . S
O174 C172 1.267 . S
O175 Zn161 1.965 . S
O175 C179 1.260 . S
O176 Zn160 1.969 . S
O176 C179 1.258 . S
O177 Zn161 2.024 . S
O177 C164 1.058 . S
C178 O167 1.260 . S
C178 O168 1.258 . S
C179 O175 1.260 . S
C179 O176 1.258 . S
Zn180 O186 1.969 . S
Zn180 O187 1.965 . S
Zn180 O191 2.024 . S
Zn180 O196 1.969 . S
Zn181 O188 1.969 . S
Zn181 O194 1.969 . S
Zn181 O195 1.965 . S
Zn181 O197 2.024 . S
C182 O183 1.229 . S
C182 O191 1.058 . S
O183 C182 1.229 . S
C184 O185 1.229 . S
C184 O197 1.058 . S
O185 C184 1.229 . S
O186 Zn180 1.969 . S
O186 C189 1.267 . S
O187 Zn180 1.965 . S
O187 C198 1.260 1_655 S
O188 Zn181 1.969 . S
O188 C198 1.258 . S
C189 O186 1.267 . S
C189 O190 1.228 . S
O190 C189 1.228 . S
O191 Zn180 2.024 . S
O191 C182 1.058 . S
C192 O193 1.228 . S
C192 O194 1.267 . S
O193 C192 1.228 . S
O194 Zn181 1.969 . S
O194 C192 1.267 . S
O195 Zn181 1.965 . S
O195 C199 1.260 . S
O196 Zn180 1.969 . S
O196 C199 1.258 1_655 S
O197 Zn181 2.024 . S
O197 C184 1.058 . S
C198 O187 1.260 1_455 S
C198 O188 1.258 . S
C199 O195 1.260 . S
C199 O196 1.258 1_455 S
Zn200 O206 1.969 . S
Zn200 O207 1.965 . S
Zn200 O211 2.024 . S
Zn200 O216 1.969 . S
Zn201 O208 1.969 . S
Zn201 O214 1.969 . S
Zn201 O215 1.965 . S
Zn201 O217 2.024 . S
C202 O203 1.229 . S
C202 O211 1.058 . S
O203 C202 1.229 . S
C204 O205 1.229 . S
C204 O217 1.058 . S
O205 C204 1.229 . S
O206 Zn200 1.969 . S
O206 C209 1.267 . S
O207 Zn200 1.965 . S
O207 C218 1.260 . S
O208 Zn201 1.969 . S
O208 C218 1.258 . S
C209 O206 1.267 . S
C209 O210 1.228 . S
O210 C209 1.228 . S
O211 Zn200 2.024 . S
O211 C202 1.058 . S
C212 O213 1.228 . S
C212 O214 1.267 . S
O213 C212 1.228 . S
O214 Zn201 1.969 . S
O214 C212 1.267 . S
O215 Zn201 1.965 . S
O215 C219 1.260 . S
O216 Zn200 1.969 . S
O216 C219 1.258 . S
O217 Zn201 2.024 . S
O217 C204 1.058 . S
C218 O207 1.260 . S
C218 O208 1.258 . S
C219 O215 1.260 . S
C219 O216 1.258 . S
Zn220 O226 1.969 . S
Zn220 O227 1.965 . S
Zn220 O231 2.024 . S
Zn220 O236 1.969 . S
Zn221 O228 1.969 . S
Zn221 O234 1.969 . S
Zn221 O235 1.975 . S
Zn221 O237 2.024 . S
C222 O223 1.229 . S
C222 O231 1.058 . S
O223 C222 1.229 . S
C224 O225 1.229 . S
C224 O237 1.058 . S
O225 C224 1.229 . S
O226 Zn220 1.969 . S
O226 C229 1.267 . S
O227 Zn220 1.965 . S
O227 C238 1.260 . S
O228 Zn221 1.969 . S
O228 C238 1.258 1_565 S
C229 O226 1.267 . S
C229 O230 1.228 . S
O230 C229 1.228 . S
O231 Zn220 2.024 . S
O231 C222 1.058 . S
C232 O233 1.228 . S
C232 O234 1.267 . S
O233 C232 1.228 . S
O234 Zn221 1.969 . S
O234 C232 1.267 . S
O235 Zn221 1.975 . S
O235 C239 1.255 1_565 S
O236 Zn220 1.969 . S
O236 C239 1.258 . S
O237 Zn221 2.024 . S
O237 C224 1.058 . S
C238 O227 1.260 . S
C238 O228 1.258 1_545 S
C239 O235 1.255 1_545 S
C239 O236 1.258 . S
Zn240 O246 1.969 . S
Zn240 O247 1.965 . S
Zn240 O251 2.024 . S
Zn240 O256 1.969 . S
Zn241 O248 1.969 . S
Zn241 O254 1.969 . S
Zn241 O255 1.965 . S
Zn241 O257 2.024 . S
C242 O243 1.229 . S
C242 O251 1.058 1_655 S
O243 C242 1.229 . S
C244 O245 1.229 . S
C244 O257 1.058 . S
O245 C244 1.229 . S
O246 Zn240 1.969 . S
O246 C249 1.267 . S
O247 Zn240 1.965 . S
O247 C258 1.260 . S
O248 Zn241 1.969 . S
O248 C258 1.258 . S
C249 O246 1.267 . S
C249 O250 1.228 . S
O250 C249 1.228 . S
O251 Zn240 2.024 . S
O251 C242 1.058 1_455 S
C252 O253 1.228 . S
C252 O254 1.267 . S
O253 C252 1.228 . S
O254 Zn241 1.969 . S
O254 C252 1.267 . S
O255 Zn241 1.965 . S
O255 C259 1.260 . S
O256 Zn240 1.969 . S
O256 C259 1.258 . S
O257 Zn241 2.024 . S
O257 C244 1.058 . S
C258 O247 1.260 . S
C258 O248 1.258 . S
C259 O255 1.260 . S
C259 O256 1.258 . S
Zn260 O266 1.969 1_565 S
Zn260 O267 1.965 . S
Zn260 O271 2.024 . S
Zn260 O276 1.969 . S
Zn261 O268 1.969 . S
Zn261 O274 1.969 . S
Zn261 O275 1.965 . S
Zn261 O277 2.024 . S
C262 O263 1.229 . S
C262 O271 1.058 . S
O263 C262 1.229 . S
C264 O265 1.229 . S
C264 O277 1.058 . S
O265 C264 1.229 . S
O266 Zn260 1.969 1_545 S
O266 C269 1.267 . S
O267 Zn260 1.965 . S
O267 C278 1.260 . S
O268 Zn261 1.969 . S
O268 C278 1.258 . S
C269 O266 1.267 . S
C269 O270 1.228 . S
O270 C269 1.228 . S
O271 Zn260 2.024 . S
O271 C262 1.058 . S
C272 O273 1.228 . S
C272 O274 1.267 . S
O273 C272 1.228 . S
O274 Zn261 1.969 . S
O274 C272 1.267 . S
O275 Zn261 1.965 . S
O275 C279 1.260 . S
O276 Zn260 1.969 . S
O276 C279 1.258 . S
O277 Zn261 2.024 . S
O277 C264 1.058 . S
C278 O267 1.260 . S
C278 O268 1.258 . S
C279 O275 1.260 . S
C279 O276 1.258 . S
Zn280 O286 1.969 . S
Zn280 O287 1.965 . S
Zn280 O291 2.024 1_565 S
Zn280 O296 1.969 . S
Zn281 O288 1.969 . S
Zn281 O294 1.969 . S
Zn281 O295 1.965 . S
Zn281 O297 2.024 . S
C282 O283 1.229 . S
C282 O291 1.058 . S
O283 C282 1.229 . S
C284 O285 1.229 . S
C284 O297 1.058 . S
O285 C284 1.229 . S
O286 Zn280 1.969 . S
O286 C289 1.267 . S
O287 Zn280 1.965 . S
O287 C298 1.260 . S
O288 Zn281 1.969 . S
O288 C298 1.258 . S
C289 O286 1.267 . S
C289 O290 1.228 . S
O290 C289 1.228 . S
O291 Zn280 2.024 1_545 S
O291 C282 1.058 . S
C292 O293 1.228 . S
C292 O294 1.267 . S
O293 C292 1.228 . S
O294 Zn281 1.969 . S
O294 C292 1.267 . S
O295 Zn281 1.965 . S
O295 C299 1.260 . S
O296 Zn280 1.969 . S
O296 C299 1.258 . S
O297 Zn281 2.024 . S
O297 C284 1.058 . S
C298 O287 1.260 . S
C298 O288 1.258 . S
C299 O295 1.260 . S
C299 O296 1.258 . S
Zn300 O306 1.969 . S
Zn300 O307 1.965 . S
Zn300 O311 2.024 . S
Zn300 O316 1.969 . S
Zn301 O308 1.969 . S
Zn301 O314 1.969 . S
Zn301 O315 1.965 . S
Zn301 O317 2.024 1_565 S
C302 O303 1.229 . S
C302 O311 1.058 . S
O303 C302 1.229 . S
C304 O305 1.229 . S
C304 O317 1.058 . S
O305 C304 1.229 . S
O306 Zn300 1.969 . S
O306 C309 1.267 . S
O307 Zn300 1.965 . S
O307 C318 1.260 . S
O308 Zn301 1.969 . S
O308 C318 1.258 . S
C309 O306 1.267 . S
C309 O310 1.228 . S
O310 C309 1.228 . S
O311 Zn300 2.024 . S
O311 C302 1.058 . S
C312 O313 1.228 . S
C312 O314 1.267 . S
O313 C312 1.228 . S
O314 Zn301 1.969 . S
O314 C312 1.267 . S
O315 Zn301 1.965 . S
O315 C319 1.260 . S
O316 Zn300 1.969 . S
O316 C319 1.258 . S
O317 Zn301 2.024 1_545 S
O317 C304 1.058 . S
C318 O307 1.260 . S
C318 O308 1.258 . S
C319 O315 1.260 . S
C319 O316 1.258 . S
Zn320 O326 1.969 . S
Zn320 O327 1.965 . S
Zn320 O331 2.024 . S
Zn320 O336 1.969 . S
Zn321 O328 1.969 . S
Zn321 O334 1.969 1_565 S
Zn321 O335 1.965 . S
Zn321 O337 2.024 . S
C322 O323 1.229 . S
C322 O331 1.058 . S
O323 C322 1.229 . S
C324 O325 1.229 . S
C324 O337 1.058 . S
O325 C324 1.229 . S
O326 Zn320 1.969 . S
O326 C329 1.267 . S
O327 Zn320 1.965 . S
O327 C338 1.260 . S
O328 Zn321 1.969 . S
O328 C338 1.258 . S
C329 O326 1.267 . S
C329 O330 1.228 . S
O330 C329 1.228 . S
O331 Zn320 2.024 . S
O331 C322 1.058 . S
C332 O333 1.228 . S
C332 O334 1.267 . S
O333 C332 1.228 . S
O334 Zn321 1.969 1_545 S
O334 C332 1.267 . S
O335 Zn321 1.965 . S
O335 C339 1.260 . S
O336 Zn320 1.969 . S
O336 C339 1.258 . S
O337 Zn321 2.024 . S
O337 C324 1.058 . S
C338 O327 1.260 . S
C338 O328 1.258 . S
C339 O335 1.260 . S
C339 O336 1.258 . S
Zn340 O346 1.969 . S
Zn340 O347 1.965 . S
Zn340 O351 2.024 . S
Zn340 O356 1.969 . S
Zn341 O348 1.969 . S
Zn341 O354 1.969 1_455 S
Zn341 O355 1.965 . S
Zn341 O357 2.024 . S
C342 O343 1.229 . S
C342 O351 1.058 . S
O343 C342 1.229 . S
C344 O345 1.229 . S
C344 O357 1.058 . S
O345 C344 1.229 . S
O346 Zn340 1.969 . S
O346 C349 1.267 . S
O347 Zn340 1.965 . S
O347 C358 1.260 . S
O348 Zn341 1.969 . S
O348 C358 1.258 . S
C349 O346 1.267 . S
C349 O350 1.228 . S
O350 C349 1.228 . S
O351 Zn340 2.024 . S
O351 C342 1.058 . S
C352 O353 1.228 . S
C352 O354 1.267 . S
O353 C352 1.228 . S
O354 Zn341 1.969 1_655 S
O354 C352 1.267 . S
O355 Zn341 1.965 . S
O355 C359 1.260 . S
O356 Zn340 1.969 . S
O356 C359 1.258 . S
O357 Zn341 2.024 . S
O357 C344 1.058 . S
C358 O347 1.260 . S
C358 O348 1.258 . S
C359 O355 1.260 . S
C359 O356 1.258 . S
Zn360 O366 1.969 . S
Zn360 O367 1.965 . S
Zn360 O371 2.024 . S
Zn360 O376 1.969 . S
Zn361 O368 1.969 . S
Zn361 O374 1.969 . S
Zn361 O375 1.965 . S
Zn361 O377 2.024 . S
C362 O363 1.229 . S
C362 O371 1.058 . S
O363 C362 1.229 . S
C364 O365 1.229 . S
C364 O377 1.058 . S
O365 C364 1.229 . S
O366 Zn360 1.969 . S
O366 C369 1.267 . S
O367 Zn360 1.965 . S
O367 C378 1.260 . S
O368 Zn361 1.969 . S
O368 C378 1.258 . S
C369 O366 1.267 . S
C369 O370 1.228 . S
O370 C369 1.228 . S
O371 Zn360 2.024 . S
O371 C362 1.058 . S
C372 O373 1.228 . S
C372 O374 1.267 . S
O373 C372 1.228 . S
O374 Zn361 1.969 . S
O374 C372 1.267 . S
O375 Zn361 1.965 . S
O375 C379 1.260 . S
O376 Zn360 1.969 . S
O376 C379 1.258 . S
O377 Zn361 2.024 . S
O377 C364 1.058 . S
C378 O367 1.260 . S
C378 O368 1.258 . S
C379 O375 1.260 . S
C379 O376 1.258 . S
Zn380 O386 1.969 1_565 S
Zn380 O387 1.965 . S
Zn380 O391 2.024 . S
Zn380 O396 1.969 . S
Zn381 O388 1.969 . S
Zn381 O394 1.969 . S
Zn381 O395 1.965 . S
Zn381 O397 2.024 . S
C382 O383 1.229 . S
C382 O391 1.058 . S
O383 C382 1.229 . S
C384 O385 1.229 . S
C384 O397 1.058 . S
O385 C384 1.229 . S
O386 Zn380 1.969 1_545 S
O386 C389 1.267 . S
O387 Zn380 1.965 . S
O387 C398 1.260 . S
O388 Zn381 1.969 . S
O388 C398 1.258 . S
C389 O386 1.267 . S
C389 O390 1.228 . S
O390 C389 1.228 . S
O391 Zn380 2.024 . S
O391 C382 1.058 . S
C392 O393 1.228 . S
C392 O394 1.267 . S
O393 C392 1.228 . S
O394 Zn381 1.969 . S
O394 C392 1.267 . S
O395 Zn381 1.965 . S
O395 C399 1.260 . S
O396 Zn380 1.969 . S
O396 C399 1.258 . S
O397 Zn381 2.024 . S
O397 C384 1.058 . S
C398 O387 1.260 . S
C398 O388 1.258 . S
C399 O395 1.260 . S
C399 O396 1.258 . S
Zn400 O406 1.969 1_455 S
Zn400 O407 1.965 . S
Zn400 O411 2.024 1_565 S
Zn400 O416 1.969 . S
Zn401 O408 1.969 . S
Zn401 O414 1.969 . S
Zn401 O415 1.965 . S
Zn401 O417 2.024 . S
C402 O403 1.229 . S
C402 O411 1.058 . S
O403 C402 1.229 . S
C404 O405 1.229 . S
C404 O417 1.058 . S
O405 C404 1.229 . S
O406 Zn400 1.969 1_655 S
O406 C409 1.267 . S
O407 Zn400 1.965 . S
O407 C418 1.260 . S
O408 Zn401 1.969 . S
O408 C418 1.258 . S
C409 O406 1.267 . S
C409 O410 1.228 . S
O410 C409 1.228 . S
O411 Zn400 2.024 1_545 S
O411 C402 1.058 . S
C412 O413 1.228 . S
C412 O414 1.267 . S
O413 C412 1.228 . S
O414 Zn401 1.969 . S
O414 C412 1.267 . S
O415 Zn401 1.965 . S
O415 C419 1.260 . S
O416 Zn400 1.969 . S
O416 C419 1.258 . S
O417 Zn401 2.024 . S
O417 C404 1.058 . S
C418 O407 1.260 . S
C418 O408 1.258 . S
C419 O415 1.260 . S
C419 O416 1.258 . S
Zn420 O426 1.969 . S
Zn420 O427 1.965 . S
Zn420 O431 2.024 . S
Zn420 O436 1.969 . S
Zn421 O428 1.969 . S
Zn421 O434 1.969 . S
Zn421 O435 1.965 . S
Zn421 O437 2.024 1_565 S
C422 O423 1.229 . S
C422 O431 1.058 . S
O423 C422 1.229 . S
C424 O425 1.229 . S
C424 O437 1.058 . S
O425 C424 1.229 . S
O426 Zn420 1.969 . S
O426 C429 1.267 . S
O427 Zn420 1.965 . S
O427 C438 1.260 . S
O428 Zn421 1.969 . S
O428 C438 1.258 . S
C429 O426 1.267 . S
C429 O430 1.228 . S
O430 C429 1.228 . S
O431 Zn420 2.024 . S
O431 C422 1.058 . S
C432 O433 1.228 . S
C432 O434 1.267 . S
O433 C432 1.228 . S
O434 Zn421 1.969 . S
O434 C432 1.267 . S
O435 Zn421 1.965 . S
O435 C439 1.260 . S
O436 Zn420 1.969 . S
O436 C439 1.258 . S
O437 Zn421 2.024 1_545 S
O437 C424 1.058 . S
C438 O427 1.260 . S
C438 O428 1.258 . S
C439 O435 1.260 . S
C439 O436 1.258 . S
Zn440 O446 1.969 . S
Zn440 O447 1.965 . S
Zn440 O451 2.024 . S
Zn440 O456 1.969 . S
Zn441 O448 1.969 . S
Zn441 O454 1.969 1_565 S
Zn441 O455 1.965 . S
Zn441 O457 2.024 . S
C442 O443 1.229 . S
C442 O451 1.058 . S
O443 C442 1.229 . S
C444 O445 1.229 . S
C444 O457 1.058 1_655 S
O445 C444 1.229 . S
O446 Zn440 1.969 . S
O446 C449 1.267 . S
O447 Zn440 1.965 . S
O447 C458 1.260 . S
O448 Zn441 1.969 . S
O448 C458 1.258 . S
C449 O446 1.267 . S
C449 O450 1.228 . S
O450 C449 1.228 . S
O451 Zn440 2.024 . S
O451 C442 1.058 . S
C452 O453 1.228 . S
C452 O454 1.267 . S
O453 C452 1.228 . S
O454 Zn441 1.969 1_545 S
O454 C452 1.267 . S
O455 Zn441 1.965 . S
O455 C459 1.260 . S
O456 Zn440 1.969 . S
O456 C459 1.258 . S
O457 Zn441 2.024 . S
O457 C444 1.058 1_455 S
C458 O447 1.260 . S
C458 O448 1.258 . S
C459 O455 1.260 . S
C459 O456 1.258 . S
Zn460 O466 1.969 . S
Zn460 O467 1.965 . S
Zn460 O471 2.024 . S
Zn460 O476 1.969 . S
Zn461 O468 1.969 . S
Zn461 O474 1.969 . S
Zn461 O475 1.965 . S
Zn461 O477 2.024 . S
C462 O463 1.229 . S
C462 O471 1.058 . S
O463 C462 1.229 . S
C464 O465 1.229 . S
C464 O477 1.058 . S
O465 C464 1.229 . S
O466 Zn460 1.969 . S
O466 C469 1.267 . S
O467 Zn460 1.965 . S
O467 C478 1.260 . S
O468 Zn461 1.969 . S
O468 C478 1.258 . S
C469 O466 1.267 . S
C469 O470 1.228 . S
O470 C469 1.228 . S
O471 Zn460 2.024 . S
O471 C462 1.058 . S
C472 O473 1.228 . S
C472 O474 1.267 . S
O473 C472 1.228 . S
O474 Zn461 1.969 . S
O474 C472 1.267 . S
O475 Zn461 1.965 . S
O475 C479 1.260 . S
O476 Zn460 1.969 . S
O476 C479 1.258 . S
O477 Zn461 2.024 . S
O477 C464 1.058 . S
C478 O467 1.260 . S
C478 O468 1.258 . S
C479 O475 1.260 . S
C479 O476 1.258 . S
Zn480 O486 1.969 . S
Zn480 O487 1.965 . S
Zn480 O491 2.024 . S
Zn480 O496 1.969 . S
Zn481 O488 1.969 . S
Zn481 O494 1.969 . S
Zn481 O495 1.965 . S
Zn481 O497 2.024 1_655 S
C482 O483 1.229 . S
C482 O491 1.058 . S
O483 C482 1.229 . S
C484 O485 1.229 . S
C484 O497 1.058 . S
O485 C484 1.229 . S
O486 Zn480 1.969 . S
O486 C489 1.267 . S
O487 Zn480 1.965 . S
O487 C498 1.260 . S
O488 Zn481 1.969 . S
O488 C498 1.258 . S
C489 O486 1.267 . S
C489 O490 1.228 . S
O490 C489 1.228 . S
O491 Zn480 2.024 . S
O491 C482 1.058 . S
C492 O493 1.228 . S
C492 O494 1.267 . S
O493 C492 1.228 . S
O494 Zn481 1.969 . S
O494 C492 1.267 . S
O495 Zn481 1.965 . S
O495 C499 1.260 . S
O496 Zn480 1.969 . S
O496 C499 1.258 . S
O497 Zn481 2.024 1_455 S
O497 C484 1.058 . S
C498 O487 1.260 . S
C498 O488 1.258 . S
C499 O495 1.260 . S
C499 O496 1.258 . S
Zn500 O506 1.969 . S
Zn500 O507 1.965 . S
Zn500 O511 2.024 . S
Zn500 O516 1.969 . S
Zn501 O508 1.969 . S
Zn501 O514 1.969 1_545 S
Zn501 O515 1.965 . S
Zn501 O517 2.024 . S
C502 O503 1.229 . S
C502 O511 1.058 . S
O503 C502 1.229 . S
C504 O505 1.229 . S
C504 O517 1.058 . S
O505 C504 1.229 . S
O506 Zn500 1.969 . S
O506 C509 1.267 . S
O507 Zn500 1.965 . S
O507 C518 1.260 . S
O508 Zn501 1.969 . S
O508 C518 1.258 . S
C509 O506 1.267 . S
C509 O510 1.228 . S
O510 C509 1.228 . S
O511 Zn500 2.024 . S
O511 C502 1.058 . S
C512 O513 1.228 . S
C512 O514 1.267 . S
O513 C512 1.228 . S
O514 Zn501 1.969 1_565 S
O514 C512 1.267 . S
O515 Zn501 1.965 . S
O515 C519 1.260 . S
O516 Zn500 1.969 . S
O516 C519 1.258 . S
O517 Zn501 2.024 . S
O517 C504 1.058 . S
C518 O507 1.260 . S
C518 O508 1.258 . S
C519 O515 1.260 . S
C519 O516 1.258 . S
Zn520 O526 1.969 . S
Zn520 O527 1.965 . S
Zn520 O531 2.024 . S
Zn520 O536 1.969 . S
Zn521 O528 1.969 . S
Zn521 O534 1.969 1_655 S
Zn521 O535 1.965 . S
Zn521 O537 2.024 . S
C522 O523 1.229 . S
C522 O531 1.058 . S
O523 C522 1.229 . S
C524 O525 1.229 . S
C524 O537 1.058 . S
O525 C524 1.229 . S
O526 Zn520 1.969 . S
O526 C529 1.267 . S
O527 Zn520 1.965 . S
O527 C538 1.260 . S
O528 Zn521 1.969 . S
O528 C538 1.258 . S
C529 O526 1.267 . S
C529 O530 1.228 . S
O530 C529 1.228 . S
O531 Zn520 2.024 . S
O531 C522 1.058 . S
C532 O533 1.228 . S
C532 O534 1.267 . S
O533 C532 1.228 . S
O534 Zn521 1.969 1_455 S
O534 C532 1.267 . S
O535 Zn521 1.965 . S
O535 C539 1.260 . S
O536 Zn520 1.969 . S
O536 C539 1.258 . S
O537 Zn521 2.024 . S
O537 C524 1.058 . S
C538 O527 1.260 . S
C538 O528 1.258 . S
C539 O535 1.260 . S
C539 O536 1.258 . S
Zn540 O546 1.969 . S
Zn540 O547 1.965 . S
Zn540 O551 2.024 . S
Zn540 O556 1.969 . S
Zn541 O548 1.969 . S
Zn541 O554 1.969 . S
Zn541 O555 1.965 . S
Zn541 O557 2.024 . S
C542 O543 1.229 . S
C542 O551 1.058 1_565 S
O543 C542 1.229 . S
C544 O545 1.229 . S
C544 O557 1.058 . S
O545 C544 1.229 . S
O546 Zn540 1.969 . S
O546 C549 1.267 . S
O547 Zn540 1.965 . S
O547 C558 1.260 . S
O548 Zn541 1.969 . S
O548 C558 1.258 . S
C549 O546 1.267 . S
C549 O550 1.228 . S
O550 C549 1.228 . S
O551 Zn540 2.024 . S
O551 C542 1.058 1_545 S
C552 O553 1.228 . S
C552 O554 1.267 . S
O553 C552 1.228 . S
O554 Zn541 1.969 . S
O554 C552 1.267 . S
O555 Zn541 1.965 . S
O555 C559 1.260 . S
O556 Zn540 1.969 . S
O556 C559 1.258 . S
O557 Zn541 2.024 . S
O557 C544 1.058 . S
C558 O547 1.260 . S
C558 O548 1.258 . S
C559 O555 1.260 . S
C559 O556 1.258 . S
Zn560 O566 1.969 . S
Zn560 O567 1.965 . S
Zn560 O571 2.024 1_655 S
Zn560 O576 1.969 . S
Zn561 O568 1.969 . S
Zn561 O574 1.969 . S
Zn561 O575 1.965 . S
Zn561 O577 2.024 . S
C562 O563 1.229 . S
C562 O571 1.058 . S
O563 C562 1.229 . S
C564 O565 1.229 . S
C564 O577 1.058 . S
O565 C564 1.229 . S
O566 Zn560 1.969 . S
O566 C569 1.267 . S
O567 Zn560 1.965 . S
O567 C578 1.260 . S
O568 Zn561 1.969 . S
O568 C578 1.258 . S
C569 O566 1.267 . S
C569 O570 1.228 . S
O570 C569 1.228 . S
O571 Zn560 2.024 1_455 S
O571 C562 1.058 . S
C572 O573 1.228 . S
C572 O574 1.267 . S
O573 C572 1.228 . S
O574 Zn561 1.969 . S
O574 C572 1.267 . S
O575 Zn561 1.965 . S
O575 C579 1.260 . S
O576 Zn560 1.969 . S
O576 C579 1.258 . S
O577 Zn561 2.024 . S
O577 C564 1.058 . S
C578 O567 1.260 . S
C578 O568 1.258 . S
C579 O575 1.260 . S
C579 O576 1.258 . S
Zn580 O586 1.969 1_655 S
Zn580 O587 1.965 . S
Zn580 O591 2.024 . S
Zn580 O596 1.969 . S
Zn581 O588 1.969 . S
Zn581 O594 1.969 . S
Zn581 O595 1.965 . S
Zn581 O597 2.024 . S
C582 O583 1.229 . S
C582 O591 1.058 . S
O583 C582 1.229 . S
C584 O585 1.229 . S
C584 O597 1.058 . S
O585 C584 1.229 . S
O586 Zn580 1.969 1_455 S
O586 C589 1.267 . S
O587 Zn580 1.965 . S
O587 C598 1.260 . S
O588 Zn581 1.969 . S
O588 C598 1.258 . S
C589 O586 1.267 . S
C589 O590 1.228 . S
O590 C589 1.228 . S
O591 Zn580 2.024 . S
O591 C582 1.058 . S
C592 O593 1.228 . S
C592 O594 1.267 . S
O593 C592 1.228 . S
O594 Zn581 1.969 . S
O594 C592 1.267 . S
O595 Zn581 1.965 . S
O595 C599 1.260 . S
O596 Zn580 1.969 . S
O596 C599 1.258 . S
O597 Zn581 2.024 . S
O597 C584 1.058 . S
C598 O587 1.260 . S
C598 O588 1.258 . S
C599 O595 1.260 . S
C599 O596 1.258 . S
Zn600 O606 1.969 . S
Zn600 O607 1.965 . S
Zn600 O611 2.024 . S
Zn600 O616 1.969 . S
Zn601 O608 1.969 . S
Zn601 O614 1.969 . S
Zn601 O615 1.965 . S
Zn601 O617 2.024 1_655 S
C602 O603 1.229 . S
C602 O611 1.058 . S
O603 C602 1.229 . S
C604 O605 1.229 . S
C604 O617 1.058 . S
O605 C604 1.229 . S
O606 Zn600 1.969 . S
O606 C609 1.267 . S
O607 Zn600 1.965 . S
O607 C618 1.260 . S
O608 Zn601 1.969 . S
O608 C618 1.258 . S
C609 O606 1.267 . S
C609 O610 1.228 . S
O610 C609 1.228 . S
O611 Zn600 2.024 . S
O611 C602 1.058 . S
C612 O613 1.228 . S
C612 O614 1.267 . S
O613 C612 1.228 . S
O614 Zn601 1.969 . S
O614 C612 1.267 . S
O615 Zn601 1.965 . S
O615 C619 1.260 . S
O616 Zn600 1.969 . S
O616 C619 1.258 . S
O617 Zn601 2.024 1_455 S
O617 C604 1.058 . S
C618 O607 1.260 . S
C618 O608 1.258 . S
C619 O615 1.260 . S
C619 O616 1.258 . S
Zn620 O626 1.969 . S
Zn620 O627 1.965 . S
Zn620 O631 2.024 . S
Zn620 O636 1.969 . S
Zn621 O628 1.969 . S
Zn621 O634 1.969 . S
Zn621 O635 1.965 . S
Zn621 O637 2.024 . S
C622 O623 1.229 . S
C622 O631 1.058 . S
O623 C622 1.229 . S
C624 O625 1.229 . S
C624 O637 1.058 . S
O625 C624 1.229 . S
O626 Zn620 1.969 . S
O626 C629 1.267 . S
O627 Zn620 1.965 . S
O627 C638 1.260 . S
O628 Zn621 1.969 . S
O628 C638 1.258 . S
C629 O626 1.267 . S
C629 O630 1.228 . S
O630 C629 1.228 . S
O631 Zn620 2.024 . S
O631 C622 1.058 . S
C632 O633 1.228 . S
C632 O634 1.267 . S
O633 C632 1.228 . S
O634 Zn621 1.969 . S
O634 C632 1.267 . S
O635 Zn621 1.965 . S
O635 C639 1.260 . S
O636 Zn620 1.969 . S
O636 C639 1.258 . S
O637 Zn621 2.024 . S
O637 C624 1.058 . S
C638 O627 1.260 . S
C638 O628 1.258 . S
C639 O635 1.260 . S
C639 O636 1.258 . S
Zn640 O646 1.969 . S
Zn640 O647 1.965 . S
Zn640 O651 2.024 . S
Zn640 O656 1.969 . S
Zn641 O648 1.969 . S
Zn641 O654 1.969 1_655 S
Zn641 O655 1.965 . S
Zn641 O657 2.024 . S
C642 O643 1.229 . S
C642 O651 1.058 . S
O643 C642 1.229 . S
C644 O645 1.229 . S
C644 O657 1.058 1_565 S
O645 C644 1.229 . S
O646 Zn640 1.969 . S
O646 C649 1.267 . S
O647 Zn640 1.965 . S
O647 C658 1.260 . S
O648 Zn641 1.969 . S
O648 C658 1.258 . S
C649 O646 1.267 . S
C649 O650 1.228 . S
O650 C649 1.228 . S
O651 Zn640 2.024 . S
O651 C642 1.058 . S
C652 O653 1.228 . S
C652 O654 1.267 . S
O653 C652 1.228 . S
O654 Zn641 1.969 1_455 S
O654 C652 1.267 . S
O655 Zn641 1.965 . S
O655 C659 1.260 . S
O656 Zn640 1.969 . S
O656 C659 1.258 . S
O657 Zn641 2.024 . S
O657 C644 1.058 1_545 S
C658 O647 1.260 . S
C658 O648 1.258 . S
C659 O655 1.260 . S
C659 O656 1.258 . S
Zn660 O666 1.969 . S
Zn660 O667 1.965 . S
Zn660 O671 2.024 . S
Zn660 O676 1.969 . S
Zn661 O668 1.969 . S
Zn661 O674 1.969 . S
Zn661 O675 1.965 . S
Zn661 O677 2.024 . S
C662 O663 1.229 . S
C662 O671 1.058 . S
O663 C662 1.229 . S
C664 O665 1.229 . S
C664 O677 1.058 . S
O665 C664 1.229 . S
O666 Zn660 1.969 . S
O666 C669 1.267 . S
O667 Zn660 1.965 . S
O667 C678 1.260 . S
O668 Zn661 1.969 . S
O668 C678 1.258 . S
C669 O666 1.267 . S
C669 O670 1.228 . S
O670 C669 1.228 . S
O671 Zn660 2.024 . S
O671 C662 1.058 . S
C672 O673 1.228 . S
C672 O674 1.267 . S
O673 C672 1.228 . S
O674 Zn661 1.969 . S
O674 C672 1.267 . S
O675 Zn661 1.965 . S
O675 C679 1.260 . S
O676 Zn660 1.969 . S
O676 C679 1.258 . S
O677 Zn661 2.024 . S
O677 C664 1.058 . S
C678 O667 1.260 . S
C678 O668 1.258 . S
C679 O675 1.260 . S
C679 O676 1.258 . S
Zn680 O686 1.969 1_545 S
Zn680 O687 1.965 . S
Zn680 O691 2.024 1_655 S
Zn680 O696 1.969 . S
Zn681 O688 1.969 . S
Zn681 O694 1.969 . S
Zn681 O695 1.965 . S
Zn681 O697 2.024 . S
C682 O683 1.229 . S
C682 O691 1.058 . S
O683 C682 1.229 . S
C684 O685 1.229 . S
C684 O697 1.058 . S
O685 C684 1.229 . S
O686 Zn680 1.969 1_565 S
O686 C689 1.267 . S
O687 Zn680 1.965 . S
O687 C698 1.260 . S
O688 Zn681 1.969 . S
O688 C698 1.258 . S
C689 O686 1.267 . S
C689 O690 1.228 . S
O690 C689 1.228 . S
O691 Zn680 2.024 1_455 S
O691 C682 1.058 . S
C692 O693 1.228 . S
C692 O694 1.267 . S
O693 C692 1.228 . S
O694 Zn681 1.969 . S
O694 C692 1.267 . S
O695 Zn681 1.965 . S
O695 C699 1.260 . S
O696 Zn680 1.969 . S
O696 C699 1.258 . S
O697 Zn681 2.024 . S
O697 C684 1.058 . S
C698 O687 1.260 . S
C698 O688 1.258 . S
C699 O695 1.260 . S
C699 O696 1.258 . S
Zn700 O706 1.969 1_655 S
Zn700 O707 1.965 . S
Zn700 O711 2.024 . S
Zn700 O716 1.969 . S
Zn701 O708 1.969 . S
Zn701 O714 1.969 . S
Zn701 O715 1.965 . S
Zn701 O717 2.024 . S
C702 O703 1.229 . S
C702 O711 1.058 . S
O703 C702 1.229 . S
C704 O705 1.229 . S
C704 O717 1.058 . S
O705 C704 1.229 . S
O706 Zn700 1.969 1_455 S
O706 C709 1.267 . S
O707 Zn700 1.965 . S
O707 C718 1.260 . S
O708 Zn701 1.969 . S
O708 C718 1.258 . S
C709 O706 1.267 . S
C709 O710 1.228 . S
O710 C709 1.228 . S
O711 Zn700 2.024 . S
O711 C702 1.058 . S
C712 O713 1.228 . S
C712 O714 1.267 . S
O713 C712 1.228 . S
O714 Zn701 1.969 . S
O714 C712 1.267 . S
O715 Zn701 1.965 . S
O715 C719 1.260 . S
O716 Zn700 1.969 . S
O716 C719 1.258 . S
O717 Zn701 2.024 . S
O717 C704 1.058 . S
C718 O707 1.260 . S
C718 O708 1.258 . S
C719 O715 1.260 . S
C719 O716 1.258 . S
C559 C19 2.871 . S
C579 C39 2.871 1_655 S
C59 C599 2.872 . S
C79 C259 2.871 . S
C99 C279 2.872 . S
C299 C119 2.871 1_565 S
C138 C438 2.871 1_545 S
C458 C158 2.871 . S
C178 C478 2.872 . S
C618 C198 2.871 1_655 S
C218 C638 2.872 . S
C658 C238 2.871 . S
C499 C319 2.871 . S
C339 C519 2.872 1_565 S
C539 C359 2.872 1_655 S
C378 C678 2.871 . S
C398 C698 2.871 1_565 S
C718 C418 2.871 1_655 S
C18 C139 1.941 1_554 S
C159 C38 1.941 1_556 S
C58 C179 1.941 1_554 S
C199 C78 1.941 . S
C98 C219 1.941 . S
C239 C118 1.941 . S
C379 C258 1.941 . S
C278 C399 1.941 . S
C419 C298 1.941 . S
C318 C439 1.941 . S
C459 C338 1.942 . S
C358 C479 1.941 . S
C498 C619 1.941 . S
C639 C518 1.941 . S
C659 C538 1.942 . S
C679 C558 1.941 . S
C578 C699 1.941 . S
C598 C719 1.941 . S
C9 C42 1.460 . S
C29 C2 1.459 . S
C22 C49 1.460 . S
C69 C82 1.460 . S
C102 C89 1.460 . S
C62 C109 1.459 . S
C164 C132 1.460 . S
C152 C124 1.459 . S
C172 C144 1.460 . S
C204 C192 1.460 . S
C212 C224 1.460 . S
C232 C184 1.459 . S
C282 C249 1.460 . S
C242 C269 1.460 . S
C262 C289 1.460 1_655 S
C322 C309 1.460 . S
C329 C342 1.460 . S
C302 C349 1.460 . S
C372 C404 1.460 . S
C364 C392 1.460 . S
C412 C384 1.460 . S
C444 C432 1.460 . S
C464 C452 1.460 . S
C424 C472 1.460 1_655 S
C522 C489 1.460 . S
C509 C482 1.460 . S
C502 C529 1.460 . S
C549 C562 1.460 . S
C569 C582 1.460 1_545 S
C542 C589 1.460 . S
C612 C644 1.460 . S
C632 C604 1.460 1_545 S
C624 C652 1.460 . S
C672 C684 1.460 . S
C704 C692 1.460 . S
C664 C712 1.460 . S
C44 C12 1.241 . S
C32 C4 1.240 . S
C24 C52 1.241 . S
C84 C72 1.241 . S
C92 C104 1.241 . S
C112 C64 1.240 . S
C162 C129 1.241 . S
C149 C122 1.240 . S
C142 C169 1.241 . S
C202 C189 1.241 . S
C222 C209 1.241 . S
C182 C229 1.240 . S
C252 C284 1.240 . S
C272 C244 1.241 . S
C292 C264 1.240 . S
C324 C312 1.240 1_455 S
C332 C344 1.240 . S
C352 C304 1.241 . S
C402 C369 1.240 . S
C362 C389 1.241 1_455 S
C409 C382 1.240 . S
C442 C429 1.240 . S
C449 C462 1.240 . S
C469 C422 1.241 . S
C492 C524 1.240 1_565 S
C484 C512 1.241 . S
C504 C532 1.240 . S
C564 C552 1.240 . S
C572 C584 1.241 . S
C592 C544 1.241 . S
C642 C609 1.240 . S
C602 C629 1.241 . S
C649 C622 1.240 . S
C682 C669 1.240 . S
C689 C702 1.240 . S
C709 C662 1.241 1_565 S
