# Generated by pormake.
# Topology wmt, (6)-cn, num edge types: 1
# Building blocks:
#     Node 0, Type 0, BuildingBlock: GEDQOX_clean_sbu_0, # of connection points: 6
#     Node 1, Type 0, BuildingBlock: GEDQOX_clean_sbu_0, # of connection points: 6
#     Node 2, Type 0, BuildingBlock: GEDQOX_clean_sbu_0, # of connection points: 6
#     Node 3, Type 0, BuildingBlock: GEDQOX_clean_sbu_0, # of connection points: 6
#     Node 4, Type 0, BuildingBlock: GEDQOX_clean_sbu_0, # of connection points: 6
#     Node 5, Type 0, BuildingBlock: GEDQOX_clean_sbu_0, # of connection points: 6
#     Node 6, Type 0, BuildingBlock: GEDQOX_clean_sbu_0, # of connection points: 6
#     Node 7, Type 0, BuildingBlock: GEDQOX_clean_sbu_0, # of connection points: 6
#     Node 8, Type 0, BuildingBlock: GEDQOX_clean_sbu_0, # of connection points: 6
#     Node 9, Type 0, BuildingBlock: GEDQOX_clean_sbu_0, # of connection points: 6
#     Node 10, Type 0, BuildingBlock: GEDQOX_clean_sbu_0, # of connection points: 6
#     Node 11, Type 0, BuildingBlock: GEDQOX_clean_sbu_0, # of connection points: 6
#     Node 12, Type 0, BuildingBlock: GEDQOX_clean_sbu_0, # of connection points: 6
#     Node 13, Type 0, BuildingBlock: GEDQOX_clean_sbu_0, # of connection points: 6
#     Node 14, Type 0, BuildingBlock: GEDQOX_clean_sbu_0, # of connection points: 6
#     Node 15, Type 0, BuildingBlock: GEDQOX_clean_sbu_0, # of connection points: 6
#     Node 16, Type 0, BuildingBlock: GEDQOX_clean_sbu_0, # of connection points: 6
#     Node 17, Type 0, BuildingBlock: GEDQOX_clean_sbu_0, # of connection points: 6
#     Node 18, Type 0, BuildingBlock: GEDQOX_clean_sbu_0, # of connection points: 6
#     Node 19, Type 0, BuildingBlock: GEDQOX_clean_sbu_0, # of connection points: 6
#     Node 20, Type 0, BuildingBlock: GEDQOX_clean_sbu_0, # of connection points: 6
#     Node 21, Type 0, BuildingBlock: GEDQOX_clean_sbu_0, # of connection points: 6
#     Node 22, Type 0, BuildingBlock: GEDQOX_clean_sbu_0, # of connection points: 6
#     Node 23, Type 0, BuildingBlock: GEDQOX_clean_sbu_0, # of connection points: 6
#     Node 24, Type 0, BuildingBlock: GEDQOX_clean_sbu_0, # of connection points: 6
#     Node 25, Type 0, BuildingBlock: GEDQOX_clean_sbu_0, # of connection points: 6
#     Node 26, Type 0, BuildingBlock: GEDQOX_clean_sbu_0, # of connection points: 6
#     Node 27, Type 0, BuildingBlock: GEDQOX_clean_sbu_0, # of connection points: 6
#     Node 28, Type 0, BuildingBlock: GEDQOX_clean_sbu_0, # of connection points: 6
#     Node 29, Type 0, BuildingBlock: GEDQOX_clean_sbu_0, # of connection points: 6
#     Node 30, Type 0, BuildingBlock: GEDQOX_clean_sbu_0, # of connection points: 6
#     Node 31, Type 0, BuildingBlock: GEDQOX_clean_sbu_0, # of connection points: 6
#     Node 32, Type 0, BuildingBlock: GEDQOX_clean_sbu_0, # of connection points: 6
#     Node 33, Type 0, BuildingBlock: GEDQOX_clean_sbu_0, # of connection points: 6
#     Node 34, Type 0, BuildingBlock: GEDQOX_clean_sbu_0, # of connection points: 6
#     Node 35, Type 0, BuildingBlock: GEDQOX_clean_sbu_0, # of connection points: 6
#     Edge 36, Type (0, 0), BuildingBlock: KIFKEQ_clean_linker_1, # of connection points: 2
#     Edge 37, Type (0, 0), BuildingBlock: KIFKEQ_clean_linker_1, # of connection points: 2
#     Edge 38, Type (0, 0), BuildingBlock: KIFKEQ_clean_linker_1, # of connection points: 2
#     Edge 39, Type (0, 0), BuildingBlock: KIFKEQ_clean_linker_1, # of connection points: 2
#     Edge 40, Type (0, 0), BuildingBlock: KIFKEQ_clean_linker_1, # of connection points: 2
#     Edge 41, Type (0, 0), BuildingBlock: KIFKEQ_clean_linker_1, # of connection points: 2
#     Edge 42, Type (0, 0), BuildingBlock: KIFKEQ_clean_linker_1, # of connection points: 2
#     Edge 43, Type (0, 0), BuildingBlock: KIFKEQ_clean_linker_1, # of connection points: 2
#     Edge 44, Type (0, 0), BuildingBlock: KIFKEQ_clean_linker_1, # of connection points: 2
#     Edge 45, Type (0, 0), BuildingBlock: KIFKEQ_clean_linker_1, # of connection points: 2
#     Edge 46, Type (0, 0), BuildingBlock: KIFKEQ_clean_linker_1, # of connection points: 2
#     Edge 47, Type (0, 0), BuildingBlock: KIFKEQ_clean_linker_1, # of connection points: 2
#     Edge 48, Type (0, 0), BuildingBlock: KIFKEQ_clean_linker_1, # of connection points: 2
#     Edge 49, Type (0, 0), BuildingBlock: KIFKEQ_clean_linker_1, # of connection points: 2
#     Edge 50, Type (0, 0), BuildingBlock: KIFKEQ_clean_linker_1, # of connection points: 2
#     Edge 51, Type (0, 0), BuildingBlock: KIFKEQ_clean_linker_1, # of connection points: 2
#     Edge 52, Type (0, 0), BuildingBlock: KIFKEQ_clean_linker_1, # of connection points: 2
#     Edge 53, Type (0, 0), BuildingBlock: KIFKEQ_clean_linker_1, # of connection points: 2
#     Edge 54, Type (0, 0), BuildingBlock: KIFKEQ_clean_linker_1, # of connection points: 2
#     Edge 55, Type (0, 0), BuildingBlock: KIFKEQ_clean_linker_1, # of connection points: 2
#     Edge 56, Type (0, 0), BuildingBlock: KIFKEQ_clean_linker_1, # of connection points: 2
#     Edge 57, Type (0, 0), BuildingBlock: KIFKEQ_clean_linker_1, # of connection points: 2
#     Edge 58, Type (0, 0), BuildingBlock: KIFKEQ_clean_linker_1, # of connection points: 2
#     Edge 59, Type (0, 0), BuildingBlock: KIFKEQ_clean_linker_1, # of connection points: 2
#     Edge 60, Type (0, 0), BuildingBlock: KIFKEQ_clean_linker_1, # of connection points: 2
#     Edge 61, Type (0, 0), BuildingBlock: KIFKEQ_clean_linker_1, # of connection points: 2
#     Edge 62, Type (0, 0), BuildingBlock: KIFKEQ_clean_linker_1, # of connection points: 2
#     Edge 63, Type (0, 0), BuildingBlock: KIFKEQ_clean_linker_1, # of connection points: 2
#     Edge 64, Type (0, 0), BuildingBlock: KIFKEQ_clean_linker_1, # of connection points: 2
#     Edge 65, Type (0, 0), BuildingBlock: KIFKEQ_clean_linker_1, # of connection points: 2
#     Edge 66, Type (0, 0), BuildingBlock: KIFKEQ_clean_linker_1, # of connection points: 2
#     Edge 67, Type (0, 0), BuildingBlock: KIFKEQ_clean_linker_1, # of connection points: 2
#     Edge 68, Type (0, 0), BuildingBlock: KIFKEQ_clean_linker_1, # of connection points: 2
#     Edge 69, Type (0, 0), BuildingBlock: KIFKEQ_clean_linker_1, # of connection points: 2
#     Edge 70, Type (0, 0), BuildingBlock: KIFKEQ_clean_linker_1, # of connection points: 2
#     Edge 71, Type (0, 0), BuildingBlock: KIFKEQ_clean_linker_1, # of connection points: 2
#     Edge 72, Type (0, 0), BuildingBlock: KIFKEQ_clean_linker_1, # of connection points: 2
#     Edge 73, Type (0, 0), BuildingBlock: KIFKEQ_clean_linker_1, # of connection points: 2
#     Edge 74, Type (0, 0), BuildingBlock: KIFKEQ_clean_linker_1, # of connection points: 2
#     Edge 75, Type (0, 0), BuildingBlock: KIFKEQ_clean_linker_1, # of connection points: 2
#     Edge 76, Type (0, 0), BuildingBlock: KIFKEQ_clean_linker_1, # of connection points: 2
#     Edge 77, Type (0, 0), BuildingBlock: KIFKEQ_clean_linker_1, # of connection points: 2
#     Edge 78, Type (0, 0), BuildingBlock: KIFKEQ_clean_linker_1, # of connection points: 2
#     Edge 79, Type (0, 0), BuildingBlock: KIFKEQ_clean_linker_1, # of connection points: 2
#     Edge 80, Type (0, 0), BuildingBlock: KIFKEQ_clean_linker_1, # of connection points: 2
#     Edge 81, Type (0, 0), BuildingBlock: KIFKEQ_clean_linker_1, # of connection points: 2
#     Edge 82, Type (0, 0), BuildingBlock: KIFKEQ_clean_linker_1, # of connection points: 2
#     Edge 83, Type (0, 0), BuildingBlock: KIFKEQ_clean_linker_1, # of connection points: 2
#     Edge 84, Type (0, 0), BuildingBlock: KIFKEQ_clean_linker_1, # of connection points: 2
#     Edge 85, Type (0, 0), BuildingBlock: KIFKEQ_clean_linker_1, # of connection points: 2
#     Edge 86, Type (0, 0), BuildingBlock: KIFKEQ_clean_linker_1, # of connection points: 2
#     Edge 87, Type (0, 0), BuildingBlock: KIFKEQ_clean_linker_1, # of connection points: 2
#     Edge 88, Type (0, 0), BuildingBlock: KIFKEQ_clean_linker_1, # of connection points: 2
#     Edge 89, Type (0, 0), BuildingBlock: KIFKEQ_clean_linker_1, # of connection points: 2
#     Edge 90, Type (0, 0), BuildingBlock: KIFKEQ_clean_linker_1, # of connection points: 2
#     Edge 91, Type (0, 0), BuildingBlock: KIFKEQ_clean_linker_1, # of connection points: 2
#     Edge 92, Type (0, 0), BuildingBlock: KIFKEQ_clean_linker_1, # of connection points: 2
#     Edge 93, Type (0, 0), BuildingBlock: KIFKEQ_clean_linker_1, # of connection points: 2
#     Edge 94, Type (0, 0), BuildingBlock: KIFKEQ_clean_linker_1, # of connection points: 2
#     Edge 95, Type (0, 0), BuildingBlock: KIFKEQ_clean_linker_1, # of connection points: 2
#     Edge 96, Type (0, 0), BuildingBlock: KIFKEQ_clean_linker_1, # of connection points: 2
#     Edge 97, Type (0, 0), BuildingBlock: KIFKEQ_clean_linker_1, # of connection points: 2
#     Edge 98, Type (0, 0), BuildingBlock: KIFKEQ_clean_linker_1, # of connection points: 2
#     Edge 99, Type (0, 0), BuildingBlock: KIFKEQ_clean_linker_1, # of connection points: 2
#     Edge 100, Type (0, 0), BuildingBlock: KIFKEQ_clean_linker_1, # of connection points: 2
#     Edge 101, Type (0, 0), BuildingBlock: KIFKEQ_clean_linker_1, # of connection points: 2
#     Edge 102, Type (0, 0), BuildingBlock: KIFKEQ_clean_linker_1, # of connection points: 2
#     Edge 103, Type (0, 0), BuildingBlock: KIFKEQ_clean_linker_1, # of connection points: 2
#     Edge 104, Type (0, 0), BuildingBlock: KIFKEQ_clean_linker_1, # of connection points: 2
#     Edge 105, Type (0, 0), BuildingBlock: KIFKEQ_clean_linker_1, # of connection points: 2
#     Edge 106, Type (0, 0), BuildingBlock: KIFKEQ_clean_linker_1, # of connection points: 2
#     Edge 107, Type (0, 0), BuildingBlock: KIFKEQ_clean_linker_1, # of connection points: 2
#     Edge 108, Type (0, 0), BuildingBlock: KIFKEQ_clean_linker_1, # of connection points: 2
#     Edge 109, Type (0, 0), BuildingBlock: KIFKEQ_clean_linker_1, # of connection points: 2
#     Edge 110, Type (0, 0), BuildingBlock: KIFKEQ_clean_linker_1, # of connection points: 2
#     Edge 111, Type (0, 0), BuildingBlock: KIFKEQ_clean_linker_1, # of connection points: 2
#     Edge 112, Type (0, 0), BuildingBlock: KIFKEQ_clean_linker_1, # of connection points: 2
#     Edge 113, Type (0, 0), BuildingBlock: KIFKEQ_clean_linker_1, # of connection points: 2
#     Edge 114, Type (0, 0), BuildingBlock: KIFKEQ_clean_linker_1, # of connection points: 2
#     Edge 115, Type (0, 0), BuildingBlock: KIFKEQ_clean_linker_1, # of connection points: 2
#     Edge 116, Type (0, 0), BuildingBlock: KIFKEQ_clean_linker_1, # of connection points: 2
#     Edge 117, Type (0, 0), BuildingBlock: KIFKEQ_clean_linker_1, # of connection points: 2
#     Edge 118, Type (0, 0), BuildingBlock: KIFKEQ_clean_linker_1, # of connection points: 2
#     Edge 119, Type (0, 0), BuildingBlock: KIFKEQ_clean_linker_1, # of connection points: 2
#     Edge 120, Type (0, 0), BuildingBlock: KIFKEQ_clean_linker_1, # of connection points: 2
#     Edge 121, Type (0, 0), BuildingBlock: KIFKEQ_clean_linker_1, # of connection points: 2
#     Edge 122, Type (0, 0), BuildingBlock: KIFKEQ_clean_linker_1, # of connection points: 2
#     Edge 123, Type (0, 0), BuildingBlock: KIFKEQ_clean_linker_1, # of connection points: 2
#     Edge 124, Type (0, 0), BuildingBlock: KIFKEQ_clean_linker_1, # of connection points: 2
#     Edge 125, Type (0, 0), BuildingBlock: KIFKEQ_clean_linker_1, # of connection points: 2
#     Edge 126, Type (0, 0), BuildingBlock: KIFKEQ_clean_linker_1, # of connection points: 2
#     Edge 127, Type (0, 0), BuildingBlock: KIFKEQ_clean_linker_1, # of connection points: 2
#     Edge 128, Type (0, 0), BuildingBlock: KIFKEQ_clean_linker_1, # of connection points: 2
#     Edge 129, Type (0, 0), BuildingBlock: KIFKEQ_clean_linker_1, # of connection points: 2
#     Edge 130, Type (0, 0), BuildingBlock: KIFKEQ_clean_linker_1, # of connection points: 2
#     Edge 131, Type (0, 0), BuildingBlock: KIFKEQ_clean_linker_1, # of connection points: 2
#     Edge 132, Type (0, 0), BuildingBlock: KIFKEQ_clean_linker_1, # of connection points: 2
#     Edge 133, Type (0, 0), BuildingBlock: KIFKEQ_clean_linker_1, # of connection points: 2
#     Edge 134, Type (0, 0), BuildingBlock: KIFKEQ_clean_linker_1, # of connection points: 2
#     Edge 135, Type (0, 0), BuildingBlock: KIFKEQ_clean_linker_1, # of connection points: 2
#     Edge 136, Type (0, 0), BuildingBlock: KIFKEQ_clean_linker_1, # of connection points: 2
#     Edge 137, Type (0, 0), BuildingBlock: KIFKEQ_clean_linker_1, # of connection points: 2
#     Edge 138, Type (0, 0), BuildingBlock: KIFKEQ_clean_linker_1, # of connection points: 2
#     Edge 139, Type (0, 0), BuildingBlock: KIFKEQ_clean_linker_1, # of connection points: 2
#     Edge 140, Type (0, 0), BuildingBlock: KIFKEQ_clean_linker_1, # of connection points: 2
#     Edge 141, Type (0, 0), BuildingBlock: KIFKEQ_clean_linker_1, # of connection points: 2
#     Edge 142, Type (0, 0), BuildingBlock: KIFKEQ_clean_linker_1, # of connection points: 2
#     Edge 143, Type (0, 0), BuildingBlock: KIFKEQ_clean_linker_1, # of connection points: 2
# Relax obj value: 0.159
# Max RMSD: 0.200
# Mean RMSD: 0.200
data_MOF--net-wmt--node1-GEDQOX_clean_sbu_0--edge1-KIFKEQ_clean_linker_1
_symmetry_space_group_name_H-M    P1
_symmetry_Int_Tables_number       1
_symmetry_cell_setting            triclinic
loop_
_symmetry_equiv_pos_as_xyz
'x, y, z'
_cell_length_a     85.704383
_cell_length_b     85.773276
_cell_length_c     36.744825
_cell_angle_alpha  90.055398
_cell_angle_beta   89.961321
_cell_angle_gamma 119.92878
loop_
_atom_site_label
_atom_site_type_symbol
_atom_site_fract_x
_atom_site_fract_y
_atom_site_fract_z
_atom_type_partial_charge
Nd0 Nd 0.0387 0.47982 0.05342 0.0
Nd1 Nd 0.07133 0.50641 1.00751 0.0
C2 C 0.01315 0.46533 0.10389 0.0
C3 C 0.0111 0.46782 0.14302 0.0
C4 C 0.02563 0.4806 0.16371 0.0
C5 C 0.02361 0.48253 0.20098 0.0
C6 C 0.00698 0.47165 0.21843 0.0
C7 C 0.99234 0.45914 0.19729 0.0
C8 C 0.99441 0.45724 0.16001 0.0
C9 C 0.05895 0.46579 1.02686 0.0
C10 C 0.07701 0.5086 0.0935 0.0
C11 C 0.09528 0.52254 0.95485 0.0
C12 C 0.09406 0.52737 0.91667 0.0
C13 C 0.10687 0.52908 0.89081 0.0
C14 C 0.10578 0.53379 0.85468 0.0
C15 C 0.09182 0.53692 0.84363 0.0
C16 C 0.07901 0.53515 0.86984 0.0
C17 C 0.08005 0.53033 0.90577 0.0
C18 C 0.04979 0.51915 0.03369 0.0
C19 C 0.03185 0.47725 0.96816 0.0
O20 O 0.01525 0.47833 0.08227 0.0
O21 O 0.02375 0.45898 0.09544 0.0
O22 O 0.0415 0.45682 1.0297 0.0
O23 O 0.06545 0.48158 0.03939 0.0
O24 O 0.0593 0.49895 0.09476 0.0
O25 O 0.08602 0.51185 0.06254 0.0
O26 O 0.08802 0.50536 0.96206 0.0
O27 O 0.09177 0.53121 0.9799 0.0
O28 O 0.06721 0.52878 0.03344 0.0
O29 O 0.04487 0.50399 1.02003 0.0
O30 O 0.04953 0.48799 0.96509 0.0
O31 O 0.02368 0.47339 0.99995 0.0
H32 H 0.03857 0.48907 0.15111 0.0
H33 H 0.0351 0.49254 0.21613 0.0
H34 H 0.97939 0.4504 0.2097 0.0
H35 H 0.983 0.44735 0.14448 0.0
H36 H 0.11774 0.52675 0.89855 0.0
H37 H 0.11575 0.53474 0.83534 0.0
H38 H 0.06824 0.53773 0.86284 0.0
H39 H 0.06994 0.52903 0.92517 0.0
Nd40 Nd 0.51964 0.56032 0.03853 0.0
Nd41 Nd 0.49274 0.56867 0.99785 0.0
C42 C 0.53487 0.54796 0.08465 0.0
C43 C 0.5343 0.54352 0.12382 0.0
C44 C 0.51961 0.54019 0.14607 0.0
C45 C 0.51951 0.53619 0.18319 0.0
C46 C 0.53428 0.53578 0.19896 0.0
C47 C 0.54889 0.53901 0.17643 0.0
C48 C 0.54886 0.54277 0.13932 0.0
C49 C 0.53342 0.59544 1.01822 0.0
C50 C 0.4913 0.56806 0.08573 0.0
C51 C 0.47744 0.58056 0.95141 0.0
C52 C 0.47041 0.5763 0.91354 0.0
C53 C 0.47804 0.58945 0.88618 0.0
C54 C 0.47153 0.58559 0.85036 0.0
C55 C 0.45709 0.56851 0.84113 0.0
C56 C 0.44946 0.55538 0.8686 0.0
C57 C 0.45603 0.5592 0.90428 0.0
C58 C 0.47959 0.53342 1.01639 0.0
C59 C 0.5201 0.55784 0.9512 0.0
O60 O 0.52064 0.53762 0.06514 0.0
O61 O 0.54188 0.56497 0.0763 0.0
O62 O 0.54253 0.58705 1.01796 0.0
O63 O 0.51774 0.58563 0.03082 0.0
O64 O 0.50096 0.56002 0.08329 0.0
O65 O 0.48784 0.57508 0.05676 0.0
O66 O 0.49492 0.58827 0.9556 0.0
O67 O 0.46851 0.56845 0.97639 0.0
O68 O 0.46979 0.54107 1.0171 0.0
O69 O 0.49501 0.54421 1.00448 0.0
O70 O 0.50866 0.56409 0.95099 0.0
O71 O 0.5255 0.55392 0.98178 0.0
H72 H 0.50826 0.54075 0.13479 0.0
H73 H 0.50809 0.5339 0.19973 0.0
H74 H 0.5604 0.53862 0.18754 0.0
H75 H 0.56032 0.54522 0.12272 0.0
H76 H 0.48907 0.60275 0.89252 0.0
H77 H 0.47765 0.59605 0.82997 0.0
H78 H 0.43854 0.542 0.86241 0.0
H79 H 0.44986 0.54868 0.92454 0.0
Nd80 Nd 0.43658 0.95381 0.03417 0.0
Nd81 Nd 0.43306 0.92031 0.99326 0.0
C82 C 0.44525 0.98047 0.08144 0.0
C83 C 0.44949 0.984 0.12079 0.0
C84 C 0.45345 0.97282 0.14204 0.0
C85 C 0.45736 0.97628 0.17926 0.0
C86 C 0.45729 0.99099 0.19631 0.0
C87 C 0.4534 0.00222 0.17469 0.0
C88 C 0.44959 -0.00124 0.13744 0.0
C89 C 0.40263 0.92936 1.01114 0.0
C90 C 0.43262 0.91887 0.08073 0.0
C91 C 0.42412 0.89299 0.94833 0.0
C92 C 0.42631 0.89005 0.90943 0.0
C93 C 0.42236 0.89882 0.88169 0.0
C94 C 0.42495 0.89608 0.84511 0.0
C95 C 0.43171 0.88467 0.83555 0.0
C96 C 0.43559 0.87588 0.86339 0.0
C97 C 0.43284 0.87849 0.89992 0.0
C98 C 0.46702 0.94508 1.01569 0.0
C99 C 0.44088 0.9575 0.94695 0.0
O100 O 0.45697 0.97892 0.06126 0.0
O101 O 0.42865 0.96868 0.07285 0.0
O102 O 0.40919 0.9467 1.01029 0.0
O103 O 0.41365 0.9254 1.02512 0.0
O104 O 0.43852 0.9363 0.07898 0.0
O105 O 0.42725 0.90853 0.05137 0.0
O106 O 0.4133 0.89918 0.95647 0.0
O107 O 0.4388 0.9002 0.96802 0.0
O108 O 0.46104 0.92786 1.01638 0.0
O109 O 0.4554 0.94816 1.0021 0.0
O110 O 0.43544 0.93998 0.94635 0.0
O111 O 0.4438 0.96647 0.97784 0.0
H112 H 0.45358 0.96143 0.12982 0.0
H113 H 0.46058 0.96747 0.19456 0.0
H114 H 0.4529 0.0135 0.18664 0.0
H115 H 0.44655 0.00758 0.12166 0.0
H116 H 0.41745 0.90793 0.88821 0.0
H117 H 0.42209 0.90325 0.82434 0.0
H118 H 0.44069 0.86692 0.85692 0.0
H119 H 0.43597 0.87158 0.92084 0.0
Nd120 Nd 0.48668 0.04913 0.63557 0.0
Nd121 Nd 0.51242 0.07559 0.69501 0.0
C122 C 0.47012 0.02351 0.58583 0.0
C123 C 0.47144 0.02067 0.54632 0.0
C124 C 0.46559 0.00325 0.53317 0.0
C125 C 0.46561 5e-05 0.49571 0.0
C126 C 0.47155 0.01423 0.4704 0.0
C127 C 0.47801 0.0318 0.48386 0.0
C128 C 0.47794 0.03499 0.52138 0.0
C129 C 0.47723 0.07338 0.66025 0.0
C130 C 0.51803 0.08817 0.60835 0.0
C131 C 0.53184 0.09908 0.74638 0.0
C132 C 0.53492 0.09844 0.78624 0.0
C133 C 0.52206 0.09663 0.81225 0.0
C134 C 0.52503 0.09557 0.84954 0.0
C135 C 0.54095 0.09627 0.86194 0.0
C136 C 0.55391 0.09839 0.83583 0.0
C137 C 0.55097 0.09954 0.79863 0.0
C138 C 0.52183 0.0525 0.66311 0.0
C139 C 0.48113 0.03633 0.722 0.0
O140 O 0.48303 0.0247 0.60668 0.0
O141 O 0.46485 0.03491 0.59507 0.0
O142 O 0.47457 0.06717 0.62725 0.0
O143 O 0.48328 0.06561 0.68033 0.0
O144 O 0.50748 0.07112 0.59951 0.0
O145 O 0.52094 0.09377 0.64283 0.0
O146 O 0.5161 0.09643 0.73568 0.0
O147 O 0.53814 0.09131 0.72495 0.0
O148 O 0.52247 0.05477 0.69817 0.0
O149 O 0.51581 0.06142 0.64816 0.0
O150 O 0.49187 0.05325 0.73146 0.0
O151 O 0.47839 0.03113 0.68746 0.0
H152 H 0.46073 0.99202 0.55188 0.0
H153 H 0.46089 0.98641 0.48656 0.0
H154 H 0.48262 0.04306 0.46533 0.0
H155 H 0.48268 0.04859 0.53082 0.0
H156 H 0.5096 0.09591 0.80387 0.0
H157 H 0.51483 0.09426 0.86865 0.0
H158 H 0.56622 0.09874 0.84397 0.0
H159 H 0.56123 0.10104 0.77942 0.0
Nd160 Nd 0.95199 0.43673 0.654 0.0
Nd161 Nd 0.91904 0.42946 0.70054 0.0
C162 C 0.97918 0.45135 0.60712 0.0
C163 C 0.98228 0.45485 0.56768 0.0
C164 C -0.00101 0.45911 0.55277 0.0
C165 C 0.00228 0.46262 0.5155 0.0
C166 C 0.98887 0.46193 0.49226 0.0
C167 C 0.9722 0.45795 0.50752 0.0
C168 C 0.96896 0.45446 0.54485 0.0
C169 C 0.92828 0.40094 0.66491 0.0
C170 C 0.91597 0.43342 0.61403 0.0
C171 C 0.89274 0.41847 0.74907 0.0
C172 C 0.89127 0.42139 0.78826 0.0
C173 C 0.87494 0.41881 0.80239 0.0
C174 C 0.87359 0.42248 0.83907 0.0
C175 C 0.88856 0.42877 0.86243 0.0
C176 C 0.90485 0.43109 0.84819 0.0
C177 C 0.90621 0.42751 0.81146 0.0
C178 C 0.94484 0.4649 0.69177 0.0
C179 C 0.9564 0.43377 0.74008 0.0
O180 O 0.97284 0.46034 0.62432 0.0
O181 O 0.97176 0.4346 0.61787 0.0
O182 O 0.94562 0.40788 0.66239 0.0
O183 O 0.92365 0.41262 0.65915 0.0
O184 O 0.93357 0.44026 0.6138 0.0
O185 O 0.90623 0.42606 0.64365 0.0
O186 O 0.90056 0.40919 0.74037 0.0
O187 O 0.89764 0.43247 0.72807 0.0
O188 O 0.92779 0.4596 0.68958 0.0
O189 O 0.94703 0.45182 0.69763 0.0
O190 O 0.93873 0.42744 0.74232 0.0
O191 O 0.96516 0.44001 0.70915 0.0
H192 H 0.00956 0.45975 0.57 0.0
H193 H 0.01538 0.46597 0.50491 0.0
H194 H 0.96152 0.45718 0.49052 0.0
H195 H 0.95605 0.45146 0.55587 0.0
H196 H 0.86327 0.41415 0.78493 0.0
H197 H 0.86081 0.42038 0.84915 0.0
H198 H 0.91672 0.43616 0.86519 0.0
H199 H 0.91901 0.4298 0.80105 0.0
Nd200 Nd 0.56263 0.50854 0.64213 0.0
Nd201 Nd 0.56436 0.48296 0.69939 0.0
C202 C 0.55556 0.52363 0.5862 0.0
C203 C 0.54989 0.52126 0.54751 0.0
C204 C 0.54225 0.5312 0.53382 0.0
C205 C 0.53864 0.531 0.49659 0.0
C206 C 0.54255 0.5208 0.47202 0.0
C207 C 0.54945 0.51016 0.48607 0.0
C208 C 0.55316 0.51045 0.52344 0.0
C209 C 0.5948 0.52289 0.67884 0.0
C210 C 0.56934 0.47607 0.61338 0.0
C211 C 0.56985 0.46458 0.75066 0.0
C212 C 0.56502 0.46097 0.79003 0.0
C213 C 0.57476 0.47403 0.81676 0.0
C214 C 0.56962 0.47089 0.85345 0.0
C215 C 0.55459 0.45459 0.86461 0.0
C216 C 0.54512 0.44136 0.83797 0.0
C217 C 0.55029 0.44449 0.80124 0.0
C218 C 0.53074 0.47523 0.67641 0.0
C219 C 0.55629 0.51416 0.72715 0.0
O220 O 0.54351 0.51386 0.61074 0.0
O221 O 0.57157 0.52599 0.59332 0.0
O222 O 0.58684 0.53182 0.66973 0.0
O223 O 0.58589 0.50676 0.66799 0.0
O224 O 0.56765 0.49013 0.60539 0.0
O225 O 0.56861 0.4703 0.64719 0.0
O226 O 0.58185 0.48109 0.74159 0.0
O227 O 0.55661 0.45708 0.72718 0.0
O228 O 0.53455 0.47509 0.71055 0.0
O229 O 0.54444 0.4799 0.65743 0.0
O230 O 0.56487 0.50532 0.73442 0.0
O231 O 0.55143 0.51528 0.69346 0.0
H232 H 0.5395 0.53955 0.55185 0.0
H233 H 0.53302 0.53909 0.48693 0.0
H234 H 0.55266 0.50218 0.46798 0.0
H235 H 0.55904 0.50263 0.53335 0.0
H236 H 0.58629 0.48682 0.80937 0.0
H237 H 0.57749 0.48129 0.87312 0.0
H238 H 0.53338 0.42871 0.84528 0.0
H239 H 0.54254 0.43408 0.78148 0.0
Nd240 Nd 0.91781 0.48861 0.19928 0.0
Nd241 Nd 0.94607 0.51342 0.14208 0.0
C242 C 0.89175 0.46923 0.2461 0.0
C243 C 0.89104 0.46389 0.28471 0.0
C244 C 0.87979 0.46607 0.30952 0.0
C245 C 0.87912 0.46115 0.34615 0.0
C246 C 0.88959 0.45377 0.3586 0.0
C247 C 0.90091 0.45171 0.33369 0.0
C248 C 0.90169 0.45676 0.29728 0.0
C249 C 0.94494 0.48149 0.18392 0.0
C250 C 0.9553 0.52155 0.22979 0.0
C251 C 0.97299 0.53058 0.09537 0.0
C252 C 0.97513 0.53042 0.05549 0.0
C253 C 0.99225 0.54027 0.0397 0.0
C254 C 0.9944 0.54021 1.00187 0.0
C255 C 0.97943 0.53029 0.97897 0.0
C256 C 0.96231 0.52023 0.99513 0.0
C257 C 0.96019 0.52029 0.03295 0.0
C258 C 0.91871 0.52071 0.15517 0.0
C259 C 0.90968 0.48025 0.11115 0.0
O260 O 0.89741 0.48626 0.23982 0.0
O261 O 0.89808 0.46226 0.22267 0.0
O262 O 0.93941 0.48131 0.21687 0.0
O263 O 0.93631 0.48538 0.1617 0.0
O264 O 0.93812 0.5105 0.2371 0.0
O265 O 0.96181 0.52373 0.19628 0.0
O266 O 0.96978 0.51592 0.11251 0.0
O267 O 0.96305 0.53715 0.10733 0.0
O268 O 0.92608 0.52224 0.1235 0.0
O269 O 0.92657 0.51656 0.1791 0.0
O270 O 0.92693 0.49102 0.10494 0.0
O271 O 0.90241 0.47854 0.14394 0.0
H272 H 0.87151 0.4716 0.30054 0.0
H273 H 0.87024 0.46287 0.36461 0.0
H274 H 0.9094 0.4464 0.34248 0.0
H275 H 0.9107 0.45513 0.27901 0.0
H276 H 0.00397 0.54808 0.05664 0.0
H277 H 0.00776 0.54825 0.99054 0.0
H278 H 0.95051 0.51219 0.97858 0.0
H279 H 0.94686 0.51245 0.04461 0.0
Nd280 Nd 0.49822 0.42927 0.20632 0.0
Nd281 Nd 0.4674 0.43082 0.16625 0.0
C282 C 0.51765 0.42122 0.25025 0.0
C283 C 0.52424 0.42485 0.28844 0.0
C284 C 0.51329 0.41447 0.31753 0.0
C285 C 0.51967 0.41818 0.35342 0.0
C286 C 0.53712 0.43237 0.36102 0.0
C287 C 0.54814 0.44251 0.33186 0.0
C288 C 0.54182 0.43874 0.29606 0.0
C289 C 0.50386 0.4631 0.1934 0.0
C290 C 0.46591 0.43199 0.25414 0.0
C291 C 0.44787 0.43751 0.11921 0.0
C292 C 0.44791 0.44125 0.07967 0.0
C293 C 0.46386 0.45291 0.06094 0.0
C294 C 0.46352 0.45614 1.02352 0.0
C295 C 0.44722 0.44774 1.00389 0.0
C296 C 0.4313 0.43609 1.02285 0.0
C297 C 0.43166 0.43291 0.0602 0.0
C298 C 0.46074 0.39689 0.183 0.0
C299 C 0.50186 0.43393 0.1198 0.0
O300 O 0.50035 0.41053 0.24494 0.0
O301 O 0.52466 0.43491 0.22782 0.0
O302 O 0.51671 0.45928 0.19081 0.0
O303 O 0.48954 0.44955 0.20318 0.0
O304 O 0.47943 0.4285 0.25376 0.0
O305 O 0.45946 0.4348 0.22359 0.0
O306 O 0.46069 0.44988 0.13922 0.0
O307 O 0.44414 0.42128 0.12824 0.0
O308 O 0.4488 0.40196 0.1846 0.0
O309 O 0.47553 0.40937 0.17087 0.0
O310 O 0.48971 0.439 0.12331 0.0
O311 O 0.50571 0.42646 0.14728 0.0
H312 H 0.49974 0.40355 0.31267 0.0
H313 H 0.51081 0.41019 0.37528 0.0
H314 H 0.56174 0.45334 0.33672 0.0
H315 H 0.55072 0.4468 0.27429 0.0
H316 H 0.47659 0.45952 0.07524 0.0
H317 H 0.47608 0.46499 1.00983 0.0
H318 H 0.41846 0.42955 1.00889 0.0
H319 H 0.41916 0.4239 0.07396 0.0
Nd320 Nd 0.56825 0.068 0.20511 0.0
Nd321 Nd 0.56507 0.03572 0.1634 0.0
C322 C 0.57702 0.09524 0.25037 0.0
C323 C 0.57336 0.09819 0.28863 0.0
C324 C 0.58645 0.10257 0.31581 0.0
C325 C 0.58319 0.10569 0.35175 0.0
C326 C 0.56679 0.10466 0.36134 0.0
C327 C 0.55375 0.10037 0.33405 0.0
C328 C 0.55699 0.09722 0.29821 0.0
C329 C 0.53372 0.04055 0.19375 0.0
C330 C 0.56503 0.03222 0.25047 0.0
C331 C 0.55752 0.00951 0.11586 0.0
C332 C 0.55373 0.00607 0.07637 0.0
C333 C 0.54297 0.01155 0.05766 0.0
C334 C 0.53986 0.00839 1.02013 0.0
C335 C 0.54754 -0.00022 1.00044 0.0
C336 C 0.5582 0.99422 1.01945 0.0
C337 C 0.56122 -0.00268 0.0569 0.0
C338 C 0.59963 0.06174 0.17966 0.0
C339 C 0.56236 0.06754 0.119 0.0
O340 O 0.58716 0.08797 0.24517 0.0
O341 O 0.56363 0.08935 0.2273 0.0
O342 O 0.53808 0.05734 0.19115 0.0
O343 O 0.54715 0.03933 0.20239 0.0
O344 O 0.5698 0.0496 0.25112 0.0
O345 O 0.5607 0.02307 0.2196 0.0
O346 O 0.54539 0.01038 0.13599 0.0
O347 O 0.57393 0.02161 0.12488 0.0
O348 O 0.59356 0.04457 0.18229 0.0
O349 O 0.58761 0.06495 0.16808 0.0
O350 O 0.55668 0.05023 0.12216 0.0
O351 O 0.57073 0.07872 0.14632 0.0
H352 H 0.59928 0.10365 0.30927 0.0
H353 H 0.59361 0.10913 0.37193 0.0
H354 H 0.54086 0.09917 0.34046 0.0
H355 H 0.5466 0.09399 0.27805 0.0
H356 H 0.53704 0.01833 0.07203 0.0
H357 H 0.53173 0.013 1.00642 0.0
H358 H 0.56413 0.98734 1.00539 0.0
H359 H 0.56952 0.99291 0.0707 0.0
Nd360 Nd 0.48951 0.91594 0.49968 0.0
Nd361 Nd 0.5133 0.94164 0.56122 0.0
C362 C 0.47067 0.89185 0.44896 0.0
C363 C 0.46667 0.89311 0.41025 0.0
C364 C 0.464 0.87951 0.38553 0.0
C365 C 0.46026 0.88075 0.34878 0.0
C366 C 0.4591 0.89564 0.33601 0.0
C367 C 0.46176 0.90919 0.36111 0.0
C368 C 0.4656 0.90799 0.39764 0.0
C369 C 0.48244 0.94262 0.51965 0.0
C370 C 0.52377 0.95378 0.47498 0.0
C371 C 0.53093 0.96676 0.61131 0.0
C372 C 0.53118 0.9697 0.65122 0.0
C373 C 0.51555 0.96591 0.67079 0.0
C374 C 0.51643 0.96946 0.70831 0.0
C375 C 0.53293 0.97685 0.72718 0.0
C376 C 0.54846 0.9804 0.70741 0.0
C377 C 0.54759 0.97693 0.66999 0.0
C378 C 0.51954 0.91398 0.54464 0.0
C379 C 0.47819 0.90529 0.58555 0.0
O380 O 0.48736 0.89659 0.45679 0.0
O381 O 0.46354 0.89789 0.47266 0.0
O382 O 0.4831 0.93859 0.48584 0.0
O383 O 0.48574 0.93302 0.54014 0.0
O384 O 0.5126 0.93698 0.46525 0.0
O385 O 0.52515 0.9592 0.50925 0.0
O386 O 0.5173 0.96544 0.5927 0.0
O387 O 0.5362 0.95568 0.59987 0.0
O388 O 0.51978 0.91963 0.57753 0.0
O389 O 0.51684 0.92331 0.52174 0.0
O390 O 0.48862 0.92243 0.59352 0.0
O391 O 0.47814 0.89874 0.55271 0.0
H392 H 0.46486 0.86796 0.39463 0.0
H393 H 0.45853 0.87016 0.33032 0.0
H394 H 0.46065 0.92069 0.3527 0.0
H395 H 0.46767 0.91872 0.4161 0.0
H396 H 0.50268 0.96036 0.65708 0.0
H397 H 0.50421 0.96669 0.72239 0.0
H398 H 0.56136 0.98575 0.7209 0.0
H399 H 0.55983 0.97996 0.65562 0.0
Nd400 Nd 0.06908 0.56754 0.50379 0.0
Nd401 Nd 0.03595 0.5645 0.54418 0.0
C402 C 0.09505 0.57492 0.45619 0.0
C403 C 0.09535 0.56901 0.41848 0.0
C404 C 0.10753 0.58112 0.39292 0.0
C405 C 0.10759 0.57563 0.35695 0.0
C406 C 0.09546 0.55787 0.34585 0.0
C407 C 0.08339 0.54578 0.37181 0.0
C408 C 0.08324 0.55131 0.40753 0.0
C409 C 0.04408 0.53362 0.52636 0.0
C410 C 0.0319 0.55976 0.45752 0.0
C411 C 0.00898 0.55576 0.59053 0.0
C412 C 0.00516 0.55113 0.62951 0.0
C413 C 0.01746 0.54935 0.65181 0.0
C414 C 0.01389 0.54537 0.68892 0.0
C415 C -0.00209 0.54317 0.70458 0.0
C416 C 0.98543 0.54457 0.68185 0.0
C417 C 0.98903 0.5485 0.64474 0.0
C418 C 0.06 0.59818 0.5193 0.0
C419 C 0.07118 0.56901 0.59087 0.0
O420 O 0.08791 0.5852 0.46079 0.0
O421 O 0.09025 0.56264 0.48151 0.0
O422 O 0.06127 0.53955 0.52744 0.0
O423 O 0.04115 0.54527 0.5126 0.0
O424 O 0.04938 0.5651 0.45698 0.0
O425 O 0.02294 0.55689 0.48832 0.0
O426 O 0.01048 0.54411 0.57005 0.0
O427 O 0.0211 0.57238 0.58287 0.0
O428 O 0.04262 0.59141 0.51849 0.0
O429 O 0.06425 0.58756 0.53424 0.0
O430 O 0.05371 0.56306 0.58925 0.0
O431 O 0.08142 0.57428 0.56136 0.0
H432 H 0.11691 0.59488 0.40071 0.0
H433 H 0.11692 0.5854 0.33773 0.0
H434 H 0.07407 0.53192 0.36468 0.0
H435 H 0.07362 0.5417 0.42662 0.0
H436 H 0.02987 0.5511 0.64057 0.0
H437 H 0.02387 0.54449 0.70548 0.0
H438 H 0.97285 0.54265 0.69276 0.0
H439 H 0.97924 0.54962 0.62796 0.0
Nd440 Nd 0.42886 0.51338 0.50638 0.0
Nd441 Nd 0.42418 0.48345 0.56123 0.0
C442 C 0.4271 0.53482 0.45667 0.0
C443 C 0.43318 0.53936 0.41835 0.0
C444 C 0.42353 0.54387 0.39377 0.0
C445 C 0.42882 0.54756 0.35713 0.0
C446 C 0.44393 0.54682 0.34419 0.0
C447 C 0.45363 0.54241 0.36918 0.0
C448 C 0.44827 0.53863 0.40567 0.0
C449 C 0.45929 0.51695 0.53878 0.0
C450 C 0.4352 0.48108 0.4775 0.0
C451 C 0.42653 0.46518 0.61711 0.0
C452 C 0.43144 0.46695 0.65639 0.0
C453 C 0.44376 0.46177 0.66835 0.0
C454 C 0.44727 0.46148 0.70555 0.0
C455 C 0.43854 0.46636 0.73193 0.0
C456 C 0.42674 0.47227 0.71977 0.0
C457 C 0.42322 0.47253 0.68249 0.0
C458 C 0.39507 0.4742 0.51675 0.0
C459 C 0.42084 0.51784 0.59245 0.0
O460 O 0.41402 0.51835 0.46252 0.0
O461 O 0.43968 0.54042 0.48165 0.0
O462 O 0.45893 0.51994 0.50416 0.0
O463 O 0.44437 0.51212 0.55276 0.0
O464 O 0.42876 0.4918 0.46943 0.0
O465 O 0.43763 0.47794 0.5118 0.0
O466 O 0.43959 0.47371 0.59355 0.0
O467 O 0.41166 0.46506 0.60806 0.0
O468 O 0.40053 0.46318 0.52669 0.0
O469 O 0.40453 0.48941 0.53144 0.0
O470 O 0.42029 0.50242 0.59895 0.0
O471 O 0.42365 0.52501 0.55932 0.0
H472 H 0.41175 0.54436 0.40283 0.0
H473 H 0.42084 0.55064 0.33884 0.0
H474 H 0.46551 0.54199 0.36069 0.0
H475 H 0.4559 0.53507 0.42397 0.0
H476 H 0.45041 0.45753 0.64887 0.0
H477 H 0.45671 0.45722 0.71368 0.0
H478 H 0.4197 0.47607 0.73914 0.0
H479 H 0.41372 0.47669 0.67422 0.0
Nd480 Nd 0.71001 0.81197 0.38776 0.0
Nd481 Nd 0.74183 0.84034 0.34321 0.0
C482 C 0.68433 0.79516 0.43722 0.0
C483 C 0.68129 0.79608 0.47655 0.0
C484 C 0.69286 0.81117 0.49759 0.0
C485 C 0.68971 0.81163 0.53496 0.0
C486 C 0.67518 0.79682 0.55205 0.0
C487 C 0.66362 0.78179 0.53078 0.0
C488 C 0.66659 0.78149 0.4934 0.0
C489 C 0.73246 0.80046 0.36128 0.0
C490 C 0.74668 0.84272 0.42973 0.0
C491 C 0.76562 0.85793 0.29095 0.0
C492 C 0.76377 0.86164 0.25231 0.0
C493 C 0.77881 0.86958 0.2292 0.0
C494 C 0.77698 0.87332 0.19271 0.0
C495 C 0.76002 0.86906 0.17856 0.0
C496 C 0.74501 0.86109 0.20199 0.0
C497 C 0.74688 0.8575 0.2384 0.0
C498 C 0.71845 0.85072 0.36914 0.0
C499 C 0.70334 0.80951 0.30248 0.0
O500 O 0.68582 0.80839 0.41707 0.0
O501 O 0.6958 0.78999 0.42808 0.0
O502 O 0.71502 0.79064 0.36246 0.0
O503 O 0.73781 0.81593 0.37473 0.0
O504 O 0.72915 0.83161 0.43026 0.0
O505 O 0.75608 0.84704 0.39907 0.0
O506 O 0.76016 0.84114 0.29934 0.0
O507 O 0.76048 0.86575 0.31483 0.0
O508 O 0.73576 0.86132 0.36925 0.0
O509 O 0.71451 0.83584 0.35513 0.0
O510 O 0.72071 0.82172 0.29982 0.0
O511 O 0.69518 0.80449 0.33418 0.0
H512 H 0.7044 0.8225 0.48522 0.0
H513 H 0.69893 0.82333 0.5507 0.0
H514 H 0.65226 0.77024 0.54314 0.0
H515 H 0.65748 0.76974 0.47766 0.0
H516 H 0.79198 0.87293 0.23938 0.0
H517 H 0.78881 0.87935 0.17548 0.0
H518 H 0.73179 0.85788 0.19236 0.0
H519 H 0.73513 0.8516 0.25583 0.0
Nd520 Nd 0.18107 0.89309 0.37676 0.0
Nd521 Nd 0.15201 0.89339 0.32708 0.0
C522 C 0.20168 0.88641 0.42033 0.0
C523 C 0.20379 0.88569 0.46046 0.0
C524 C 0.18874 0.87799 0.48375 0.0
C525 C 0.19082 0.87683 0.52139 0.0
C526 C 0.20803 0.88342 0.53693 0.0
C527 C 0.22307 0.89123 0.51346 0.0
C528 C 0.22096 0.89232 0.47577 0.0
C529 C 0.1783 0.92385 0.38211 0.0
C530 C 0.14302 0.88379 0.41121 0.0
C531 C 0.13232 0.89919 0.27898 0.0
C532 C 0.12619 0.89493 0.24054 0.0
C533 C 0.13789 0.90353 0.21111 0.0
C534 C 0.13161 0.89944 0.17515 0.0
C535 C 0.11352 0.88662 0.16781 0.0
C536 C 0.10186 0.87814 0.1973 0.0
C537 C 0.10809 0.88231 0.23315 0.0
C538 C 0.1496 0.86049 0.33691 0.0
C539 C 0.18944 0.89797 0.28893 0.0
O540 O 0.18643 0.8739 0.40655 0.0
O541 O 0.2072 0.90226 0.40555 0.0
O542 O 0.18136 0.91617 0.40931 0.0
O543 O 0.17721 0.91547 0.35324 0.0
O544 O 0.15472 0.87814 0.40851 0.0
O545 O 0.14181 0.89387 0.3853 0.0
O546 O 0.1493 0.91071 0.28536 0.0
O547 O 0.12566 0.88574 0.30181 0.0
O548 O 0.1355 0.86238 0.33731 0.0
O549 O 0.16339 0.87536 0.33216 0.0
O550 O 0.17328 0.89632 0.28433 0.0
O551 O 0.19576 0.89762 0.32174 0.0
H552 H 0.17528 0.87271 0.47286 0.0
H553 H 0.17886 0.87049 0.53821 0.0
H554 H 0.23656 0.89671 0.52422 0.0
H555 H 0.23279 0.89833 0.45853 0.0
H556 H 0.1519 0.91339 0.21577 0.0
H557 H 0.14099 0.90611 0.15307 0.0
H558 H 0.08781 0.86839 0.19269 0.0
H559 H 0.09868 0.87563 0.2552 0.0
Nd560 Nd 0.0915 0.28318 0.37047 0.0
Nd561 Nd 0.08727 0.25117 0.32403 0.0
C562 C 0.10086 0.30887 0.42 0.0
C563 C 0.10356 0.31151 0.45979 0.0
C564 C 0.11163 0.30353 0.48009 0.0
C565 C 0.11441 0.30666 0.51763 0.0
C566 C 0.10889 0.31758 0.53571 0.0
C567 C 0.10072 0.32543 0.51526 0.0
C568 C 0.09816 0.32248 0.47773 0.0
C569 C 0.05718 0.25999 0.34732 0.0
C570 C 0.08741 0.24691 0.41106 0.0
C571 C 0.07952 0.22692 0.27189 0.0
C572 C 0.08384 0.228 0.23261 0.0
C573 C 0.07921 0.21235 0.21255 0.0
C574 C 0.084 0.21343 0.17568 0.0
C575 C 0.09348 0.23022 0.15807 0.0
C576 C 0.09799 0.24586 0.17839 0.0
C577 C 0.09328 0.24475 0.21519 0.0
C578 C 0.12156 0.27523 0.34555 0.0
C579 C 0.09451 0.28975 0.28502 0.0
O580 O 0.11242 0.30616 0.40183 0.0
O581 O 0.08431 0.29885 0.40849 0.0
O582 O 0.06422 0.27737 0.34841 0.0
O583 O 0.06795 0.25515 0.35921 0.0
O584 O 0.09332 0.26435 0.41204 0.0
O585 O 0.08179 0.23747 0.38046 0.0
O586 O 0.0686 0.23271 0.28175 0.0
O587 O 0.09318 0.23224 0.29404 0.0
O588 O 0.11543 0.25802 0.34478 0.0
O589 O 0.10986 0.27872 0.33422 0.0
O590 O 0.08813 0.27215 0.28202 0.0
O591 O 0.09904 0.29797 0.31676 0.0
H592 H 0.1157 0.29482 0.467 0.0
H593 H 0.12057 0.30026 0.53264 0.0
H594 H 0.09649 0.33405 0.52824 0.0
H595 H 0.09197 0.32882 0.46263 0.0
H596 H 0.072 0.19928 0.22548 0.0
H597 H 0.08018 0.20111 0.16091 0.0
H598 H 0.10555 0.25904 0.16609 0.0
H599 H 0.09726 0.25704 0.23017 0.0
Nd600 Nd 0.13915 0.37549 0.97547 0.0
Nd601 Nd 0.16368 0.40742 1.02548 0.0
C602 C 0.12645 0.35023 0.92435 0.0
C603 C 0.12573 0.34811 0.8841 0.0
C604 C 0.14102 0.3514 0.8638 0.0
C605 C 0.13979 0.34815 0.82623 0.0
C606 C 0.12325 0.34159 0.80789 0.0
C607 C 0.10806 0.3386 0.82822 0.0
C608 C 0.10927 0.34172 0.86579 0.0
C609 C 0.12515 0.39699 0.99413 0.0
C610 C 0.17082 0.41339 0.93921 0.0
C611 C 0.17772 0.43133 0.07899 0.0
C612 C 0.18092 0.43027 0.11825 0.0
C613 C 0.19258 0.44587 0.13778 0.0
C614 C 0.1964 0.44481 0.17456 0.0
C615 C 0.18857 0.4281 0.1926 0.0
C616 C 0.17678 0.41252 0.17283 0.0
C617 C 0.17305 0.41359 0.13611 0.0
C618 C 0.17637 0.38477 1.00757 0.0
C619 C 0.13262 0.36783 0.06055 0.0
O620 O 0.14202 0.35606 0.94036 0.0
O621 O 0.11692 0.35669 0.93906 0.0
O622 O 0.11567 0.37965 0.9902 0.0
O623 O 0.14152 0.40283 0.98632 0.0
O624 O 0.16024 0.39584 0.93639 0.0
O625 O 0.17291 0.42214 0.97023 0.0
O626 O 0.16091 0.42411 0.06855 0.0
O627 O 0.18733 0.42756 0.05686 0.0
O628 O 0.18667 0.40209 1.00881 0.0
O629 O 0.16058 0.38048 1.01606 0.0
O630 O 0.14255 0.38555 0.06465 0.0
O631 O 0.13105 0.36011 1.0287 0.0
H632 H 0.15391 0.35628 0.87693 0.0
H633 H 0.15175 0.35042 0.81175 0.0
H634 H 0.09516 0.33388 0.81511 0.0
H635 H 0.09723 0.33896 0.88063 0.0
H636 H 0.19888 0.45887 0.12449 0.0
H637 H 0.20541 0.4571 0.18891 0.0
H638 H 0.17074 0.39938 0.18549 0.0
H639 H 0.16422 0.40133 0.12152 0.0
Nd640 Nd 0.6212 0.76701 0.99156 0.0
Nd641 Nd 0.58736 0.75595 0.03805 0.0
C642 C 0.64723 0.78192 0.94218 0.0
C643 C 0.64935 0.78393 0.90191 0.0
C644 C 0.64661 0.79662 0.88295 0.0
C645 C 0.64968 0.79905 0.84532 0.0
C646 C 0.65534 0.78869 0.82548 0.0
C647 C 0.6577 0.77574 0.84452 0.0
C648 C 0.65492 0.77353 0.88216 0.0
C649 C 0.59985 0.73063 1.00117 0.0
C650 C 0.58441 0.7621 0.95306 0.0
C651 C 0.56125 0.74239 0.08709 0.0
C652 C 0.56064 0.74667 0.12575 0.0
C653 C 0.54446 0.738 0.14537 0.0
C654 C 0.54377 0.74293 0.18151 0.0
C655 C 0.55926 0.75671 0.19856 0.0
C656 C 0.57552 0.76509 0.17883 0.0
C657 C 0.57618 0.76016 0.14282 0.0
C658 C 0.60975 0.79233 0.03017 0.0
C659 C 0.62633 0.76428 0.07699 0.0
O660 O 0.64047 0.79064 0.95907 0.0
O661 O 0.64153 0.76587 0.95575 0.0
O662 O 0.61728 0.73891 0.99948 0.0
O663 O 0.59394 0.74126 0.9955 0.0
O664 O 0.60213 0.77091 0.95416 0.0
O665 O 0.57472 0.75195 0.98066 0.0
O666 O 0.57115 0.73513 0.07924 0.0
O667 O 0.56363 0.75505 0.06416 0.0
O668 O 0.59234 0.78483 1.02937 0.0
O669 O 0.61422 0.78068 0.03542 0.0
O670 O 0.60847 0.75627 0.07905 0.0
O671 O 0.63499 0.77163 0.04642 0.0
H672 H 0.64222 0.8048 0.89714 0.0
H673 H 0.64789 0.80931 0.83201 0.0
H674 H 0.66162 0.76715 0.83038 0.0
H675 H 0.65718 0.76366 0.89585 0.0
H676 H 0.5323 0.72762 0.13257 0.0
H677 H 0.53101 0.7363 0.19574 0.0
H678 H 0.58779 0.77551 0.1912 0.0
H679 H 0.58879 0.76706 0.12808 0.0
Nd680 Nd 0.23923 0.86058 0.98002 0.0
Nd681 Nd 0.23365 0.82784 1.02556 0.0
C682 C 0.23874 0.88106 0.92624 0.0
C683 C 0.23407 0.87914 0.88667 0.0
C684 C 0.21964 0.88115 0.87435 0.0
C685 C 0.21573 0.88042 0.83703 0.0
C686 C 0.22618 0.87767 0.81087 0.0
C687 C 0.24038 0.87527 0.82338 0.0
C688 C 0.24429 0.87602 0.86067 0.0
C689 C 0.26994 0.8635 1.00871 0.0
C690 C 0.23238 0.82319 0.9395 0.0
C691 C 0.23526 0.80684 0.07676 0.0
C692 C 0.22958 0.80174 0.11524 0.0
C693 C 0.24178 0.80171 0.14075 0.0
C694 C 0.2364 0.79611 0.17676 0.0
C695 C 0.21862 0.79025 0.18807 0.0
C696 C 0.20651 0.79058 0.16257 0.0
C697 C 0.21192 0.7963 0.12669 0.0
C698 C 0.20307 0.82681 1.00067 0.0
C699 C 0.23404 0.86368 0.06573 0.0
O700 O 0.22552 0.87281 0.94944 0.0
O701 O 0.25312 0.88045 0.93589 0.0
O702 O 0.26635 0.87652 1.00745 0.0
O703 O 0.25756 0.84925 0.99421 0.0
O704 O 0.22985 0.83715 0.93982 0.0
O705 O 0.23713 0.81798 0.96938 0.0
O706 O 0.24837 0.82324 0.07055 0.0
O707 O 0.22254 0.80123 0.05215 0.0
O708 O 0.20447 0.81243 1.00221 0.0
O709 O 0.21685 0.83995 1.01342 0.0
O710 O 0.23508 0.84873 0.06866 0.0
O711 O 0.23386 0.87058 0.03361 0.0
H712 H 0.21145 0.8835 0.89362 0.0
H713 H 0.20449 0.882 0.8287 0.0
H714 H 0.24887 0.87329 0.80428 0.0
H715 H 0.2555 0.87438 0.869 0.0
H716 H 0.25545 0.8058 0.13267 0.0
H717 H 0.24606 0.79596 0.19552 0.0
H718 H 0.19281 0.78649 0.17039 0.0
H719 H 0.20221 0.7963 0.10785 0.0
Nd720 Nd 0.58589 0.81597 0.53632 0.0
Nd721 Nd 0.61336 0.84161 0.47904 0.0
C722 C 0.55995 0.79494 0.58189 0.0
C723 C 0.55956 0.78881 0.61969 0.0
C724 C 0.54718 0.78865 0.64492 0.0
C725 C 0.54734 0.78367 0.68122 0.0
C726 C 0.55992 0.77874 0.69298 0.0
C727 C 0.57199 0.77848 0.66727 0.0
C728 C 0.57189 0.78356 0.6312 0.0
C729 C 0.61474 0.81134 0.5231 0.0
C730 C 0.6218 0.85065 0.56725 0.0
C731 C 0.63995 0.8603 0.43238 0.0
C732 C 0.64261 0.86145 0.3924 0.0
C733 C 0.66002 0.86866 0.37802 0.0
C734 C 0.66287 0.87024 0.34028 0.0
C735 C 0.64834 0.86473 0.31588 0.0
C736 C 0.63083 0.85719 0.33053 0.0
C737 C 0.62801 0.85554 0.36832 0.0
C738 C 0.58432 0.84635 0.49138 0.0
C739 C 0.57825 0.80701 0.44851 0.0
O740 O 0.56518 0.81202 0.57757 0.0
O741 O 0.56663 0.78887 0.55724 0.0
O742 O 0.60864 0.81075 0.55565 0.0
O743 O 0.6057 0.81421 0.49998 0.0
O744 O 0.6049 0.83852 0.57435 0.0
O745 O 0.62848 0.85329 0.53373 0.0
O746 O 0.63735 0.84549 0.44804 0.0
O747 O 0.62952 0.86603 0.44558 0.0
O748 O 0.59147 0.84774 0.45952 0.0
O749 O 0.59296 0.84337 0.51546 0.0
O750 O 0.59539 0.81832 0.44234 0.0
O751 O 0.57077 0.80545 0.48096 0.0
H752 H 0.53758 0.7927 0.63669 0.0
H753 H 0.538 0.78424 0.70027 0.0
H754 H 0.58166 0.77447 0.67507 0.0
H755 H 0.58165 0.78357 0.61242 0.0
H756 H 0.67148 0.87316 0.39605 0.0
H757 H 0.67649 0.87574 0.33025 0.0
H758 H 0.61931 0.85293 0.31285 0.0
H759 H 0.61442 0.84983 0.37877 0.0
Nd760 Nd 0.16771 0.7599 0.53189 0.0
Nd761 Nd 0.14066 0.76692 0.48764 0.0
C762 C 0.18453 0.75057 0.58035 0.0
C763 C 0.18725 0.75228 0.62028 0.0
C764 C 0.17336 0.74972 0.64415 0.0
C765 C 0.17691 0.75386 0.68123 0.0
C766 C 0.19444 0.76068 0.69527 0.0
C767 C 0.20812 0.76248 0.67145 0.0
C768 C 0.20455 0.75836 0.63441 0.0
C769 C 0.18034 0.7946 0.50928 0.0
C770 C 0.13826 0.76789 0.57617 0.0
C771 C 0.12414 0.77998 0.44749 0.0
C772 C 0.12227 0.78169 0.40768 0.0
C773 C 0.13579 0.78356 0.38336 0.0
C774 C 0.13442 0.786 0.346 0.0
C775 C 0.11939 0.78648 0.33183 0.0
C776 C 0.10585 0.78455 0.3563 0.0
C777 C 0.10731 0.78224 0.39376 0.0
C778 C 0.1331 0.73171 0.48854 0.0
C779 C 0.17058 0.76144 0.44402 0.0
O780 O 0.16839 0.73937 0.56796 0.0
O781 O 0.1923 0.76573 0.56251 0.0
O782 O 0.18997 0.78678 0.50806 0.0
O783 O 0.16498 0.78401 0.52189 0.0
O784 O 0.15238 0.76543 0.57775 0.0
O785 O 0.13078 0.76831 0.5449 0.0
O786 O 0.14043 0.7897 0.46047 0.0
O787 O 0.11564 0.76377 0.46163 0.0
O788 O 0.13033 0.73932 0.46077 0.0
O789 O 0.13871 0.74234 0.51527 0.0
O790 O 0.16181 0.7704 0.44599 0.0
O791 O 0.17266 0.75333 0.47294 0.0
H792 H 0.15988 0.74499 0.63397 0.0
H793 H 0.16596 0.75204 0.69877 0.0
H794 H 0.22181 0.7679 0.68101 0.0
H795 H 0.21551 0.76056 0.61649 0.0
H796 H 0.14754 0.78328 0.39329 0.0
H797 H 0.14503 0.78724 0.32814 0.0
H798 H 0.0942 0.78508 0.34656 0.0
H799 H 0.0968 0.78102 0.41192 0.0
Nd800 Nd 0.23001 0.40219 0.52561 0.0
Nd801 Nd 0.23072 0.37319 0.47814 0.0
C802 C 0.23521 0.42693 0.57489 0.0
C803 C 0.22963 0.42723 0.61319 0.0
C804 C 0.2423 0.43302 0.64161 0.0
C805 C 0.23711 0.43343 0.6777 0.0
C806 C 0.2191 0.4281 0.68625 0.0
C807 C 0.20651 0.42251 0.65765 0.0
C808 C 0.21168 0.42206 0.62172 0.0
C809 C 0.19743 0.37145 0.51682 0.0
C810 C 0.23513 0.36931 0.56369 0.0
C811 C 0.22421 0.34812 0.42858 0.0
C812 C 0.22161 0.34535 0.38868 0.0
C813 C 0.20794 0.34666 0.37014 0.0
C814 C 0.20555 0.34349 0.33253 0.0
C815 C 0.21675 0.3389 0.31263 0.0
C816 C 0.23048 0.33775 0.33133 0.0
C817 C 0.23283 0.34089 0.36883 0.0
C818 C 0.2639 0.40288 0.49001 0.0
C819 C 0.22172 0.40255 0.44062 0.0
O820 O 0.24676 0.4214 0.56916 0.0
O821 O 0.22259 0.42117 0.55006 0.0
O822 O 0.19903 0.3873 0.51715 0.0
O823 O 0.21237 0.3726 0.52188 0.0
O824 O 0.23723 0.38573 0.56657 0.0
O825 O 0.2306 0.36051 0.53246 0.0
O826 O 0.21161 0.34883 0.44731 0.0
O827 O 0.2404 0.35969 0.43995 0.0
O828 O 0.26086 0.3865 0.48829 0.0
O829 O 0.24977 0.40353 0.4833 0.0
O830 O 0.21872 0.38593 0.44106 0.0
O831 O 0.22944 0.41346 0.46866 0.0
H832 H 0.25625 0.43719 0.63593 0.0
H833 H 0.24716 0.43768 0.69896 0.0
H834 H 0.19261 0.41863 0.66293 0.0
H835 H 0.20153 0.41768 0.60062 0.0
H836 H 0.199 0.35002 0.38467 0.0
H837 H 0.19473 0.34433 0.31918 0.0
H838 H 0.23956 0.33457 0.31693 0.0
H839 H 0.24345 0.33978 0.38241 0.0
Nd840 Nd 0.1596 0.25799 0.82364 0.0
Nd841 Nd 0.19018 0.28613 0.87167 0.0
C842 C 0.13968 0.23382 0.77372 0.0
C843 C 0.13382 0.23329 0.73542 0.0
C844 C 0.13728 0.22351 0.70904 0.0
C845 C 0.13109 0.22219 0.67318 0.0
C846 C 0.12113 0.23048 0.66296 0.0
C847 C 0.1179 0.24045 0.68934 0.0
C848 C 0.12418 0.24187 0.72504 0.0
C849 C 0.15839 0.28881 0.8371 0.0
C850 C 0.1974 0.29147 0.78571 0.0
C851 C 0.20883 0.31008 0.92294 0.0
C852 C 0.208 0.31208 0.96299 0.0
C853 C 0.20466 0.32538 0.97715 0.0
C854 C 0.20451 0.32791 1.01483 0.0
C855 C 0.20783 0.31727 0.0393 0.0
C856 C 0.21087 0.30377 1.02503 0.0
C857 C 0.21096 0.30121 0.98741 0.0
C858 C 0.19334 0.25672 0.8548 0.0
C859 C 0.1518 0.25645 0.90931 0.0
O860 O 0.15666 0.2389 0.77935 0.0
O861 O 0.13314 0.24006 0.79829 0.0
O862 O 0.14397 0.27309 0.836 0.0
O863 O 0.17195 0.28749 0.8302 0.0
O864 O 0.18278 0.27528 0.78228 0.0
O865 O 0.20231 0.29962 0.8176 0.0
O866 O 0.19634 0.31059 0.90347 0.0
O867 O 0.21284 0.29813 0.911 0.0
O868 O 0.2068 0.27299 0.85768 0.0
O869 O 0.17863 0.25593 0.86316 0.0
O870 O 0.16573 0.27289 0.90952 0.0
O871 O 0.14803 0.24596 0.88034 0.0
H872 H 0.14461 0.2167 0.7163 0.0
H873 H 0.13376 0.21433 0.65366 0.0
H874 H 0.11057 0.24729 0.68233 0.0
H875 H 0.12134 0.24961 0.74454 0.0
H876 H 0.20238 0.334 0.95901 0.0
H877 H 0.20224 0.33851 1.02473 0.0
H878 H 0.21316 0.2951 0.04298 0.0
H879 H 0.21348 0.29077 0.97754 0.0
Nd880 Nd 0.73368 0.90196 0.84042 0.0
Nd881 Nd 0.70306 0.90368 0.87995 0.0
C882 C 0.75941 0.90702 0.79393 0.0
C883 C 0.75995 0.90149 0.75592 0.0
C884 C 0.77249 0.91385 0.73115 0.0
C885 C 0.77295 0.9088 0.69499 0.0
C886 C 0.76089 0.89123 0.68283 0.0
C887 C 0.74842 0.87887 0.70795 0.0
C888 C 0.74787 0.88397 0.7439 0.0
C889 C 0.70461 0.86933 0.85824 0.0
C890 C 0.69901 0.9001 0.7928 0.0
C891 C 0.67856 0.9006 0.92826 0.0
C892 C 0.67423 0.89514 0.96694 0.0
C893 C 0.6772 0.88187 0.98242 0.0
C894 C 0.67406 0.87774 1.01965 0.0
C895 C 0.66779 0.88675 0.04226 0.0
C896 C 0.66445 0.89974 1.02628 0.0
C897 C 0.66769 0.90391 0.98917 0.0
C898 C 0.73067 0.93628 0.85768 0.0
C899 C 0.73326 0.89864 0.92662 0.0
O900 O 0.75397 0.9187 0.79859 0.0
O901 O 0.75295 0.89425 0.81848 0.0
O902 O 0.72103 0.87231 0.85995 0.0
O903 O 0.70451 0.88289 0.84623 0.0
O904 O 0.71554 0.90235 0.79312 0.0
O905 O 0.69029 0.89887 0.8234 0.0
O906 O 0.67584 0.88808 0.90464 0.0
O907 O 0.69355 0.91561 0.92222 0.0
O908 O 0.71372 0.93134 0.85492 0.0
O909 O 0.73283 0.92413 0.87235 0.0
O910 O 0.71629 0.8945 0.92299 0.0
O911 O 0.74459 0.90529 0.89892 0.0
H912 H 0.78187 0.92748 0.73973 0.0
H913 H 0.78259 0.91878 0.67647 0.0
H914 H 0.73912 0.86513 0.70002 0.0
H915 H 0.73798 0.87414 0.7623 0.0
H916 H 0.68223 0.8749 0.96584 0.0
H917 H 0.67701 0.86783 0.03087 0.0
H918 H 0.6593 0.90674 0.04245 0.0
H919 H 0.66523 0.91415 0.97788 0.0
Nd920 Nd 0.08458 0.83268 0.82937 0.0
Nd921 Nd 0.09216 0.81128 0.88985 0.0
C922 C 0.07552 0.84868 0.77893 0.0
C923 C 0.08146 0.85375 0.74069 0.0
C924 C 0.06881 0.84987 0.71287 0.0
C925 C 0.07433 0.85363 0.67638 0.0
C926 C 0.09265 0.86135 0.66695 0.0
C927 C 0.10529 0.86558 0.69509 0.0
C928 C 0.09977 0.86174 0.73138 0.0
C929 C 0.11965 0.84519 0.84789 0.0
C930 C 0.09572 0.80349 0.8028 0.0
C931 C 0.1047 0.79784 0.93957 0.0
C932 C 0.10612 0.79745 0.97981 0.0
C933 C 0.10716 0.78327 0.99637 0.0
C934 C 0.10856 0.78259 0.03431 0.0
C935 C 0.10897 0.79612 0.0568 0.0
C936 C 0.108 0.8104 0.04002 0.0
C937 C 0.10654 0.81103 1.00199 0.0
C938 C 0.05652 0.79934 0.87545 0.0
C939 C 0.08333 0.84177 0.91647 0.0
O940 O 0.06595 0.83142 0.78575 0.0
O941 O 0.08755 0.85746 0.80416 0.0
O942 O 0.1148 0.84445 0.81423 0.0
O943 O 0.10645 0.8394 0.86882 0.0
O944 O 0.08678 0.81184 0.79436 0.0
O945 O 0.10098 0.80307 0.8366 0.0
O946 O 0.11462 0.81334 0.92344 0.0
O947 O 0.08856 0.78871 0.92546 0.0
O948 O 0.06264 0.79895 0.90754 0.0
O949 O 0.06881 0.80463 0.85185 0.0
O950 O 0.09224 0.83333 0.92378 0.0
O951 O 0.0767 0.84154 0.88355 0.0
H952 H 0.0546 0.84361 0.7193 0.0
H953 H 0.06418 0.85 0.65551 0.0
H954 H 0.11953 0.87183 0.68913 0.0
H955 H 0.10989 0.86484 0.75212 0.0
H956 H 0.10695 0.77268 0.97988 0.0
H957 H 0.10955 0.77153 0.04599 0.0
H958 H 0.10807 0.82096 0.05631 0.0
H959 H 0.1057 0.82211 0.98992 0.0
Nd960 Nd 0.37701 0.13616 0.73126 0.0
Nd961 Nd 0.40717 0.1658 0.68139 0.0
C962 C 0.34929 0.11774 0.77538 0.0
C963 C 0.34644 0.11618 0.81548 0.0
C964 C 0.35582 0.13119 0.83844 0.0
C965 C 0.35249 0.12979 0.87605 0.0
C966 C 0.33973 0.11331 0.8918 0.0
C967 C 0.33044 0.09829 0.86866 0.0
C968 C 0.33375 0.09973 0.83101 0.0
C969 C 0.40858 0.13497 0.72779 0.0
C970 C 0.41067 0.17112 0.76844 0.0
C971 C 0.43016 0.18413 0.62821 0.0
C972 C 0.42913 0.18917 0.58992 0.0
C973 C 0.44112 0.18934 0.5636 0.0
C974 C 0.44095 0.19509 0.52785 0.0
C975 C 0.42888 0.20096 0.51772 0.0
C976 C 0.41662 0.20038 0.544 0.0
C977 C 0.41669 0.19449 0.57955 0.0
C978 C 0.38051 0.17225 0.7042 0.0
C979 C 0.37085 0.13095 0.64369 0.0
O980 O 0.35342 0.13334 0.76122 0.0
O981 O 0.35846 0.11077 0.76089 0.0
O982 O 0.39824 0.13038 0.75622 0.0
O983 O 0.40142 0.13866 0.70171 0.0
O984 O 0.39312 0.16005 0.76866 0.0
O985 O 0.4205 0.17383 0.73861 0.0
O986 O 0.42474 0.16722 0.635 0.0
O987 O 0.42518 0.1915 0.65341 0.0
O988 O 0.39726 0.18482 0.7026 0.0
O989 O 0.37881 0.15758 0.69383 0.0
O990 O 0.3855 0.14702 0.63974 0.0
O991 O 0.36517 0.1233 0.67597 0.0
H992 H 0.36571 0.14409 0.82731 0.0
H993 H 0.3601 0.1416 0.89284 0.0
H994 H 0.32036 0.08544 0.87955 0.0
H995 H 0.32623 0.088 0.81395 0.0
H996 H 0.45084 0.1853 0.57085 0.0
H997 H 0.45061 0.1954 0.50841 0.0
H998 H 0.40691 0.20447 0.53706 0.0
H999 H 0.40713 0.19433 0.59907 0.0
Nd1000 Nd 0.84586 0.23638 0.72342 0.0
Nd1001 Nd 0.81673 0.23541 0.67194 0.0
C1002 C 0.86279 0.23086 0.77782 0.0
C1003 C 0.86003 0.2258 0.81703 0.0
C1004 C 0.85976 0.21006 0.82855 0.0
C1005 C 0.85829 0.20558 0.86558 0.0
C1006 C 0.8573 0.21687 0.89229 0.0
C1007 C 0.85719 0.23247 0.88053 0.0
C1008 C 0.85848 0.23684 0.84345 0.0
C1009 C 0.85773 0.26664 0.68129 0.0
C1010 C 0.81504 0.24422 0.7587 0.0
C1011 C 0.79573 0.23954 0.62495 0.0
C1012 C 0.78998 0.23302 0.58727 0.0
C1013 C 0.78881 0.2443 0.56108 0.0
C1014 C 0.78449 0.23862 0.52479 0.0
C1015 C 0.78125 0.22149 0.5139 0.0
C1016 C 0.78218 0.21015 0.54051 0.0
C1017 C 0.78661 0.21589 0.57661 0.0
C1018 C 0.81012 0.20351 0.70255 0.0
C1019 C 0.84575 0.2254 0.63846 0.0
O1020 O 0.85281 0.21835 0.75418 0.0
O1021 O 0.86544 0.24681 0.76887 0.0
O1022 O 0.86733 0.25927 0.68951 0.0
O1023 O 0.84237 0.25824 0.69608 0.0
O1024 O 0.8297 0.24309 0.76349 0.0
O1025 O 0.80732 0.24204 0.72628 0.0
O1026 O 0.81282 0.25142 0.62911 0.0
O1027 O 0.78953 0.22737 0.65077 0.0
O1028 O 0.80734 0.20457 0.66808 0.0
O1029 O 0.81648 0.21854 0.71704 0.0
O1030 O 0.83611 0.23323 0.63211 0.0
O1031 O 0.84916 0.22241 0.67216 0.0
H1032 H 0.86095 0.2013 0.80887 0.0
H1033 H 0.85805 0.19327 0.87321 0.0
H1034 H 0.85668 0.24167 0.90003 0.0
H1035 H 0.85862 0.24908 0.83563 0.0
H1036 H 0.79154 0.25765 0.56857 0.0
H1037 H 0.78414 0.24783 0.50515 0.0
H1038 H 0.77947 0.19676 0.53354 0.0
H1039 H 0.78757 0.20694 0.59612 0.0
Nd1040 Nd 0.76455 0.61636 0.72029 0.0
Nd1041 Nd 0.76015 0.58385 0.67633 0.0
C1042 C 0.77325 0.64236 0.76909 0.0
C1043 C 0.77681 0.64547 0.80855 0.0
C1044 C 0.78438 0.66298 0.82247 0.0
C1045 C 0.78781 0.66623 0.85979 0.0
C1046 C 0.7836 0.65198 0.88413 0.0
C1047 C 0.77605 0.63442 0.86995 0.0
C1048 C 0.7726 0.6312 0.83257 0.0
C1049 C 0.73002 0.59334 0.69761 0.0
C1050 C 0.76067 0.58055 0.76297 0.0
C1051 C 0.75148 0.55849 0.62646 0.0
C1052 C 0.75462 0.5583 0.58682 0.0
C1053 C 0.75317 0.57037 0.56317 0.0
C1054 C 0.75738 0.5709 0.52621 0.0
C1055 C 0.76319 0.5594 0.51194 0.0
C1056 C 0.76424 0.54704 0.53557 0.0
C1057 C 0.76003 0.54654 0.57261 0.0
C1058 C 0.7944 0.60717 0.69963 0.0
C1059 C 0.76907 0.62242 0.6342 0.0
O1060 O 0.78509 0.64062 0.74974 0.0
O1061 O 0.7567 0.63095 0.75948 0.0
O1062 O 0.73751 0.61075 0.69779 0.0
O1063 O 0.74065 0.58837 0.70982 0.0
O1064 O 0.76689 0.59806 0.76248 0.0
O1065 O 0.75419 0.57064 0.73319 0.0
O1066 O 0.74059 0.56424 0.63688 0.0
O1067 O 0.76574 0.56445 0.64716 0.0
O1068 O 0.78766 0.58983 0.69965 0.0
O1069 O 0.78326 0.61114 0.68667 0.0
O1070 O 0.76345 0.60492 0.63197 0.0
O1071 O 0.77203 0.63069 0.66584 0.0
H1072 H 0.78775 0.6742 0.8044 0.0
H1073 H 0.79386 0.67995 0.86954 0.0
H1074 H 0.77236 0.62307 0.88783 0.0
H1075 H 0.76634 0.61756 0.82246 0.0
H1076 H 0.74898 0.57958 0.5733 0.0
H1077 H 0.75613 0.5804 0.50882 0.0
H1078 H 0.76882 0.53811 0.5257 0.0
H1079 H 0.76134 0.53716 0.59034 0.0
Nd1080 Nd 0.80721 0.70649 0.32175 0.0
Nd1081 Nd 0.83689 0.73881 0.36454 0.0
C1082 C 0.79 0.68073 0.27257 0.0
C1083 C 0.79155 0.67787 0.23335 0.0
C1084 C 0.80589 0.69077 0.21243 0.0
C1085 C 0.80704 0.68798 0.17515 0.0
C1086 C 0.7938 0.67221 0.15791 0.0
C1087 C 0.77961 0.65918 0.17926 0.0
C1088 C 0.77852 0.662 0.21653 0.0
C1089 C 0.79668 0.72939 0.35008 0.0
C1090 C 0.83726 0.74321 0.27814 0.0
C1091 C 0.85538 0.7642 0.41335 0.0
C1092 C 0.85923 0.76515 0.4528 0.0
C1093 C 0.84612 0.75352 0.47762 0.0
C1094 C 0.85021 0.75421 0.5147 0.0
C1095 C 0.86754 0.76652 0.5278 0.0
C1096 C 0.88061 0.77818 0.5028 0.0
C1097 C 0.87648 0.7775 0.46572 0.0
C1098 C 0.84669 0.71573 0.33465 0.0
C1099 C 0.8078 0.70026 0.40746 0.0
O1100 O 0.80275 0.6817 0.29358 0.0
O1101 O 0.78529 0.69263 0.28109 0.0
O1102 O 0.78643 0.71197 0.34892 0.0
O1103 O 0.81178 0.73427 0.33542 0.0
O1104 O 0.82595 0.72571 0.278 0.0
O1105 O 0.84245 0.75265 0.30866 0.0
O1106 O 0.83886 0.75941 0.40372 0.0
O1107 O 0.86254 0.75688 0.39304 0.0
O1108 O 0.85731 0.73306 0.33472 0.0
O1109 O 0.83223 0.71165 0.35077 0.0
O1110 O 0.82014 0.71763 0.40951 0.0
O1111 O 0.80138 0.69216 0.37602 0.0
H1112 H 0.81622 0.70301 0.22486 0.0
H1113 H 0.81833 0.6982 0.15989 0.0
H1114 H 0.76905 0.64698 0.16702 0.0
H1115 H 0.76736 0.65183 0.23218 0.0
H1116 H 0.83275 0.74376 0.46835 0.0
H1117 H 0.83989 0.74482 0.533 0.0
H1118 H 0.89402 0.78791 0.51191 0.0
H1119 H 0.88681 0.78658 0.44705 0.0
Nd1120 Nd 0.28613 0.08711 0.33446 0.0
Nd1121 Nd 0.25611 0.08699 0.38243 0.0
C1122 C 0.31005 0.09269 0.28255 0.0
C1123 C 0.31299 0.09687 0.2431 0.0
C1124 C 0.3299 0.1021 0.22787 0.0
C1125 C 0.33274 0.10488 0.19027 0.0
C1126 C 0.31871 0.10247 0.16678 0.0
C1127 C 0.30186 0.09775 0.18238 0.0
C1128 C 0.29903 0.09495 0.22011 0.0
C1129 C 0.25826 0.05398 0.353 0.0
C1130 C 0.25486 0.0935 0.29758 0.0
C1131 C 0.23094 0.08009 0.43172 0.0
C1132 C 0.23012 0.08451 0.47051 0.0
C1133 C 0.2214 0.07062 0.4961 0.0
C1134 C 0.22046 0.07457 0.5328 0.0
C1135 C 0.22809 0.09251 0.54468 0.0
C1136 C 0.23672 0.10639 0.51897 0.0
C1137 C 0.23778 0.10245 0.48237 0.0
C1138 C 0.2852 0.12012 0.36891 0.0
C1139 C 0.29171 0.08647 0.421 0.0
O1140 O 0.31135 0.10536 0.30432 0.0
O1141 O 0.2968 0.0768 0.29142 0.0
O1142 O 0.27498 0.05791 0.35197 0.0
O1143 O 0.25645 0.06708 0.34314 0.0
O1144 O 0.27196 0.09797 0.29817 0.0
O1145 O 0.24409 0.08532 0.32548 0.0
O1146 O 0.23701 0.06907 0.4248 0.0
O1147 O 0.23661 0.09331 0.40828 0.0
O1148 O 0.26895 0.11758 0.37064 0.0
O1149 O 0.28523 0.10586 0.37552 0.0
O1150 O 0.27496 0.08359 0.42411 0.0
O1151 O 0.29996 0.08985 0.38906 0.0
H1152 H 0.34091 0.10378 0.24505 0.0
H1153 H 0.34599 0.10887 0.17959 0.0
H1154 H 0.29068 0.09567 0.16533 0.0
H1155 H 0.28584 0.09094 0.23121 0.0
H1156 H 0.21531 0.05669 0.48769 0.0
H1157 H 0.21361 0.06356 0.55183 0.0
H1158 H 0.243 0.12035 0.52725 0.0
H1159 H 0.24467 0.1135 0.46346 0.0
Nd1160 Nd 0.8874 0.18232 0.32254 0.0
Nd1161 Nd 0.89516 0.1585 0.37361 0.0
C1162 C 0.87555 0.19929 0.2801 0.0
C1163 C 0.87276 0.19995 0.24053 0.0
C1164 C 0.87909 0.19195 0.21565 0.0
C1165 C 0.87638 0.19259 0.17817 0.0
C1166 C 0.86713 0.20111 0.16475 0.0
C1167 C 0.86059 0.20888 0.1899 0.0
C1168 C 0.86345 0.20837 0.22738 0.0
C1169 C 0.92284 0.19101 0.32565 0.0
C1170 C 0.89051 0.15027 0.28545 0.0
C1171 C 0.90547 0.13984 0.41427 0.0
C1172 C 0.90228 0.1346 0.45289 0.0
C1173 C 0.90846 0.12367 0.46808 0.0
C1174 C 0.90452 0.11803 0.50443 0.0
C1175 C 0.89425 0.12317 0.52602 0.0
C1176 C 0.88846 0.13446 0.51072 0.0
C1177 C 0.89241 0.14008 0.47455 0.0
C1178 C 0.85965 0.14902 0.36609 0.0
C1179 C 0.88837 0.18856 0.41214 0.0
O1180 O 0.86501 0.18397 0.29615 0.0
O1181 O 0.89225 0.20649 0.29116 0.0
O1182 O 0.9148 0.1915 0.29617 0.0
O1183 O 0.91247 0.18675 0.35282 0.0
O1184 O 0.88184 0.15933 0.28434 0.0
O1185 O 0.89936 0.15021 0.3151 0.0
O1186 O 0.91572 0.15708 0.40791 0.0
O1187 O 0.89115 0.13238 0.39354 0.0
O1188 O 0.86659 0.14909 0.39746 0.0
O1189 O 0.87129 0.15388 0.34156 0.0
O1190 O 0.89568 0.17826 0.41599 0.0
O1191 O 0.88327 0.19135 0.37981 0.0
H1192 H 0.88618 0.18523 0.22522 0.0
H1193 H 0.88141 0.18627 0.15969 0.0
H1194 H 0.8535 0.21563 0.18059 0.0
H1195 H 0.85832 0.2145 0.24614 0.0
H1196 H 0.91607 0.11928 0.45171 0.0
H1197 H 0.90908 0.10925 0.51529 0.0
H1198 H 0.88079 0.13893 0.52669 0.0
H1199 H 0.88754 0.14854 0.46332 0.0
Nd1200 Nd 0.25135 0.15325 0.88082 0.0
Nd1201 Nd 0.28048 0.18136 0.82767 0.0
C1202 C 0.22751 0.13571 0.93286 0.0
C1203 C 0.22871 0.13076 0.97091 0.0
C1204 C 0.21807 0.1323 0.99814 0.0
C1205 C 0.21944 0.12798 0.03438 0.0
C1206 C 0.23147 0.12199 0.04411 0.0
C1207 C 0.24194 0.12027 1.01651 0.0
C1208 C 0.24067 0.12472 0.98047 0.0
C1209 C 0.2807 0.14934 0.86786 0.0
C1210 C 0.28633 0.19029 0.91525 0.0
C1211 C 0.30785 0.20047 0.78323 0.0
C1212 C 0.31086 0.20266 0.74338 0.0
C1213 C 0.32795 0.20771 0.72925 0.0
C1214 C 0.33088 0.20873 0.69154 0.0
C1215 C 0.31673 0.20464 0.66695 0.0
C1216 C 0.29958 0.19958 0.68133 0.0
C1217 C 0.29667 0.19856 0.7191 0.0
C1218 C 0.2475 0.1801 0.8274 0.0
C1219 C 0.2498 0.14322 0.79675 0.0
O1220 O 0.23387 0.15281 0.92623 0.0
O1221 O 0.23177 0.12777 0.90754 0.0
O1222 O 0.26463 0.13553 0.87075 0.0
O1223 O 0.28031 0.16354 0.872 0.0
O1224 O 0.27129 0.17478 0.92133 0.0
O1225 O 0.29265 0.19593 0.88195 0.0
O1226 O 0.30394 0.1847 0.79607 0.0
O1227 O 0.29827 0.20687 0.79826 0.0
O1228 O 0.25748 0.18332 0.79872 0.0
O1229 O 0.25555 0.17871 0.85463 0.0
O1230 O 0.26727 0.15459 0.79729 0.0
O1231 O 0.23925 0.14277 0.82364 0.0
H1232 H 0.20882 0.13702 0.99143 0.0
H1233 H 0.21133 0.12971 0.05486 0.0
H1234 H 0.25112 0.11541 1.02266 0.0
H1235 H 0.24912 0.12346 0.96008 0.0
H1236 H 0.33903 0.21061 0.74744 0.0
H1237 H 0.34417 0.21236 0.68168 0.0
H1238 H 0.28838 0.19648 0.6634 0.0
H1239 H 0.2833 0.19439 0.72932 0.0
Nd1240 Nd 0.84682 0.10118 0.8662 0.0
Nd1241 Nd 0.81868 0.10103 0.81321 0.0
C1242 C 0.8671 0.09601 0.91339 0.0
C1243 C 0.87224 0.10081 0.95206 0.0
C1244 C 0.8713 0.08773 0.97631 0.0
C1245 C 0.87509 0.09168 1.01338 0.0
C1246 C 0.88003 0.10888 1.02703 0.0
C1247 C 0.88124 0.12206 1.00256 0.0
C1248 C 0.87729 0.11805 0.96554 0.0
C1249 C 0.85318 0.13401 0.84121 0.0
C1250 C 0.81646 0.10953 0.89874 0.0
C1251 C 0.80164 0.10665 0.75896 0.0
C1252 C 0.80365 0.11157 0.71985 0.0
C1253 C 0.79462 0.12011 0.70584 0.0
C1254 C 0.79512 0.12372 0.66852 0.0
C1255 C 0.80468 0.11888 0.64412 0.0
C1256 C 0.8142 0.11078 0.65853 0.0
C1257 C 0.81369 0.10717 0.69595 0.0
C1258 C 0.80678 0.06988 0.85269 0.0
C1259 C 0.85027 0.09408 0.77955 0.0
O1260 O 0.85016 0.08413 0.90738 0.0
O1261 O 0.87363 0.10917 0.88964 0.0
O1262 O 0.85493 0.1312 0.87532 0.0
O1263 O 0.84781 0.11985 0.82339 0.0
O1264 O 0.82601 0.10157 0.90499 0.0
O1265 O 0.81369 0.11321 0.86513 0.0
O1266 O 0.81196 0.11919 0.78216 0.0
O1267 O 0.79939 0.0908 0.76725 0.0
O1268 O 0.79704 0.07723 0.84545 0.0
O1269 O 0.8222 0.07885 0.83855 0.0
O1270 O 0.83565 0.09516 0.77387 0.0
O1271 O 0.85758 0.09602 0.81225 0.0
H1272 H 0.86738 0.07433 0.96662 0.0
H1273 H 0.87415 0.08126 0.03139 0.0
H1274 H 0.88473 0.13534 1.0122 0.0
H1275 H 0.87792 0.12836 0.94762 0.0
H1276 H 0.78682 0.12366 0.72373 0.0
H1277 H 0.78747 0.1298 0.6587 0.0
H1278 H 0.822 0.10714 0.64088 0.0
H1279 H 0.82091 0.1007 0.70609 0.0
Nd1280 Nd 0.89353 0.73557 0.8688 0.0
Nd1281 Nd 0.88927 0.70574 0.81503 0.0
C1282 C 0.90054 0.76288 0.9122 0.0
C1283 C 0.89505 0.76366 0.95002 0.0
C1284 C 0.90742 0.77609 0.97494 0.0
C1285 C 0.90245 0.7761 1.01135 0.0
C1286 C 0.88499 0.76362 1.02348 0.0
C1287 C 0.87258 0.75144 0.99811 0.0
C1288 C 0.87757 0.75137 0.96198 0.0
C1289 C 0.8592 0.70782 0.85843 0.0
C1290 C 0.88977 0.69912 0.90404 0.0
C1291 C 0.87987 0.67828 0.76978 0.0
C1292 C 0.87696 0.67541 0.73003 0.0
C1293 C 0.86788 0.65789 0.71585 0.0
C1294 C 0.8654 0.65501 0.67818 0.0
C1295 C 0.87198 0.66961 0.65375 0.0
C1296 C 0.8808 0.68717 0.66828 0.0
C1297 C 0.88324 0.69003 0.70597 0.0
C1298 C 0.92379 0.73406 0.82308 0.0
C1299 C 0.88947 0.7402 0.78107 0.0
O1300 O 0.91162 0.75665 0.90804 0.0
O1301 O 0.88771 0.75663 0.88777 0.0
O1302 O 0.86517 0.71456 0.89038 0.0
O1303 O 0.87108 0.71565 0.83469 0.0
O1304 O 0.89529 0.71635 0.90938 0.0
O1305 O 0.8857 0.69175 0.87109 0.0
O1306 O 0.86826 0.68103 0.78762 0.0
O1307 O 0.89643 0.68896 0.7805 0.0
O1308 O 0.91717 0.72593 0.7924 0.0
O1309 O 0.91259 0.72668 0.84849 0.0
O1310 O 0.88239 0.72266 0.77842 0.0
O1311 O 0.89756 0.749 0.81138 0.0
H1312 H 0.92102 0.7856 0.96638 0.0
H1313 H 0.9124 0.78556 0.03014 0.0
H1314 H 0.85892 0.74188 1.00614 0.0
H1315 H 0.86775 0.74155 0.94347 0.0
H1316 H 0.86272 0.64641 0.73394 0.0
H1317 H 0.85823 0.6413 0.66823 0.0
H1318 H 0.88621 0.69877 0.65049 0.0
H1319 H 0.89021 0.70368 0.71631 0.0
Nd1320 Nd 0.81852 0.58495 0.16774 0.0
Nd1321 Nd 0.84567 0.61472 0.21902 0.0
C1322 C 0.79714 0.55664 0.12735 0.0
C1323 C 0.79219 0.55324 0.08821 0.0
C1324 C 0.80407 0.55281 0.0623 0.0
C1325 C 0.79974 0.55087 1.02522 0.0
C1326 C 0.78345 0.54935 1.01304 0.0
C1327 C 0.77127 0.54901 0.03916 0.0
C1328 C 0.77556 0.55086 0.07625 0.0
C1329 C 0.81348 0.61368 0.17806 0.0
C1330 C 0.85125 0.62016 0.1294 0.0
C1331 C 0.86534 0.64237 0.26266 0.0
C1332 C 0.86528 0.64606 0.30214 0.0
C1333 C 0.84911 0.63948 0.32181 0.0
C1334 C 0.84938 0.64245 0.35946 0.0
C1335 C 0.86581 0.65189 0.37843 0.0
C1336 C 0.88194 0.6586 0.35845 0.0
C1337 C 0.88166 0.65572 0.32082 0.0
C1338 C 0.85079 0.58568 0.20981 0.0
C1339 C 0.81095 0.58198 0.2562 0.0
O1340 O 0.81353 0.56073 0.1365 0.0
O1341 O 0.79154 0.56619 0.14506 0.0
O1342 O 0.8119 0.60646 0.14625 0.0
O1343 O 0.81744 0.60578 0.20188 0.0
O1344 O 0.83897 0.60303 0.12506 0.0
O1345 O 0.85542 0.62787 0.16205 0.0
O1346 O 0.8519 0.64095 0.24318 0.0
O1347 O 0.86983 0.63035 0.25385 0.0
O1348 O 0.85279 0.59389 0.24059 0.0
O1349 O 0.84678 0.59319 0.18495 0.0
O1350 O 0.82241 0.59935 0.25788 0.0
O1351 O 0.80895 0.57261 0.22602 0.0
H1352 H 0.81689 0.55434 0.07051 0.0
H1353 H 0.80932 0.55086 1.00601 0.0
H1354 H 0.7587 0.54807 0.03093 0.0
H1355 H 0.76603 0.55093 0.09555 0.0
H1356 H 0.83626 0.63183 0.30819 0.0
H1357 H 0.83669 0.63692 0.37387 0.0
H1358 H 0.89485 0.66614 0.37191 0.0
H1359 H 0.8943 0.66092 0.30631 0.0
Nd1360 Nd 0.40348 0.23464 0.17943 0.0
Nd1361 Nd 0.37058 0.22879 0.22546 0.0
C1362 C 0.42839 0.24379 0.12822 0.0
C1363 C 0.4281 0.23794 0.0901 0.0
C1364 C 0.44048 0.24976 0.06441 0.0
C1365 C 0.44029 0.24412 1.02839 0.0
C1366 C 0.42768 0.2265 1.01726 0.0
C1367 C 0.41532 0.21474 0.0433 0.0
C1368 C 0.41546 0.22041 0.0791 0.0
C1369 C 0.37977 0.19978 0.19787 0.0
C1370 C 0.36466 0.22654 0.13943 0.0
C1371 C 0.34487 0.21834 0.27545 0.0
C1372 C 0.34272 0.21662 0.3156 0.0
C1373 C 0.35197 0.21026 0.33705 0.0
C1374 C 0.34934 0.20844 0.37491 0.0
C1375 C 0.33742 0.21295 0.39224 0.0
C1376 C 0.32834 0.21944 0.37052 0.0
C1377 C 0.33094 0.22121 0.33277 0.0
C1378 C 0.39337 0.26354 0.20415 0.0
C1379 C 0.40697 0.23355 0.26685 0.0
O1380 O 0.42019 0.25294 0.13468 0.0
O1381 O 0.42523 0.23179 0.15338 0.0
O1382 O 0.39703 0.20617 0.19684 0.0
O1383 O 0.37602 0.21149 0.18797 0.0
O1384 O 0.3824 0.23342 0.13686 0.0
O1385 O 0.35621 0.22134 0.17095 0.0
O1386 O 0.34891 0.20736 0.25868 0.0
O1387 O 0.35336 0.23463 0.26201 0.0
O1388 O 0.37595 0.25624 0.20557 0.0
O1389 O 0.39845 0.25289 0.21551 0.0
O1390 O 0.38942 0.22704 0.26702 0.0
O1391 O 0.41668 0.23995 0.23668 0.0
H1392 H 0.45031 0.26337 0.07221 0.0
H1393 H 0.44987 0.25366 1.00918 0.0
H1394 H 0.40561 0.20098 0.03625 0.0
H1395 H 0.40571 0.21101 0.09831 0.0
H1396 H 0.36117 0.20663 0.32458 0.0
H1397 H 0.35647 0.20325 0.3905 0.0
H1398 H 0.31932 0.22337 0.38273 0.0
H1399 H 0.3237 0.22619 0.31688 0.0
Nd1400 Nd 0.7647 0.17565 0.17021 0.0
Nd1401 Nd 0.76661 0.14488 0.21019 0.0
C1402 C 0.75786 0.19516 0.12373 0.0
C1403 C 0.76103 0.20051 0.08502 0.0
C1404 C 0.76056 0.21586 0.0736 0.0
C1405 C 0.76413 0.22154 0.0373 0.0
C1406 C 0.7683 0.21199 1.01155 0.0
C1407 C 0.76858 0.19646 1.02312 0.0
C1408 C 0.76498 0.19079 0.05947 0.0
C1409 C 0.79698 0.1848 0.20228 0.0
C1410 C 0.77524 0.14793 0.12448 0.0
C1411 C 0.77315 0.12565 0.25827 0.0
C1412 C 0.77718 0.12616 0.29764 0.0
C1413 C 0.77879 0.14014 0.3201 0.0
C1414 C 0.78306 0.14069 0.35713 0.0
C1415 C 0.78583 0.12723 0.37263 0.0
C1416 C 0.78403 0.11316 0.34994 0.0
C1417 C 0.77974 0.11264 0.31295 0.0
C1418 C 0.73396 0.13521 0.17898 0.0
C1419 C 0.7595 0.17404 0.25673 0.0
O1420 O 0.74648 0.1782 0.13079 0.0
O1421 O 0.7721 0.20189 0.14465 0.0
O1422 O 0.79026 0.19544 0.2022 0.0
O1423 O 0.78703 0.17071 0.18463 0.0
O1424 O 0.77055 0.16056 0.12365 0.0
O1425 O 0.77604 0.14041 0.15527 0.0
O1426 O 0.78559 0.13826 0.23801 0.0
O1427 O 0.75696 0.12223 0.24953 0.0
O1428 O 0.74135 0.12514 0.17903 0.0
O1429 O 0.7436 0.14973 0.19605 0.0
O1430 O 0.76565 0.16267 0.25581 0.0
O1431 O 0.75563 0.17987 0.22661 0.0
H1432 H 0.75751 0.22354 0.09287 0.0
H1433 H 0.76355 0.2334 1.02938 0.0
H1434 H 0.77197 0.18889 1.00428 0.0
H1435 H 0.76544 0.17892 0.06769 0.0
H1436 H 0.77704 0.1508 0.30889 0.0
H1437 H 0.78454 0.15188 0.37341 0.0
H1438 H 0.78576 0.10239 0.36082 0.0
H1439 H 0.77855 0.1017 0.2962 0.0
H1440 H 0.13998 0.43169 1.01911 0.0
H1441 H 0.09134 0.38782 0.97418 0.0
H1442 H 0.12471 0.44923 1.0266 0.0
H1443 H 0.07656 0.40549 0.97885 0.0
H1444 H 0.04682 0.43008 1.02952 0.0
H1445 H 0.0637 0.41464 1.02194 0.0
H1446 H 0.11197 0.46545 1.00067 0.0
H1447 H 0.09496 0.48109 1.01094 0.0
C1448 C 0.1261 0.42593 1.01047 0.0
C1449 C 0.11672 0.40832 0.99673 0.0
C1450 C 0.11737 0.43599 1.01444 0.0
C1451 C 0.09921 0.42873 1.00396 0.0
C1452 C 0.09028 0.41139 0.98857 0.0
C1453 C 0.09881 0.40124 0.98557 0.0
C1454 C 0.06103 0.43798 1.02314 0.0
C1455 C 0.06956 0.45677 1.02059 0.0
C1456 C 0.07076 0.4291 1.01845 0.0
C1457 C 0.08924 0.43868 1.01 0.0
C1458 C 0.09782 0.45758 1.00743 0.0
C1459 C 0.08808 0.46656 1.01299 0.0
H1460 H 0.60954 0.70729 0.97509 0.0
H1461 H 0.56517 0.7096 1.02497 0.0
H1462 H 0.59233 0.67474 0.97545 0.0
H1463 H 0.54818 0.6767 1.02831 0.0
H1464 H 0.51734 0.61583 1.0073 0.0
H1465 H 0.53233 0.64855 0.99987 0.0
H1466 H 0.58389 0.65172 1.01566 0.0
H1467 H 0.56904 0.61935 1.02025 0.0
C1468 C 0.5961 0.70074 0.98656 0.0
C1469 C 0.58874 0.71089 1.00045 0.0
C1470 C 0.58624 0.68203 0.98712 0.0
C1471 C 0.56895 0.67291 1.00279 0.0
C1472 C 0.56138 0.68315 1.01584 0.0
C1473 C 0.57113 0.702 1.01425 0.0
C1474 C 0.53189 0.62364 1.00873 0.0
C1475 C 0.54206 0.6151 1.01391 0.0
C1476 C 0.5405 0.64239 1.0048 0.0
C1477 C 0.55942 0.65293 1.00671 0.0
C1478 C 0.5694 0.64419 1.01272 0.0
C1479 C 0.56086 0.62555 1.01572 0.0
H1480 H 0.38459 0.89308 1.02518 0.0
H1481 H 0.377 0.93651 0.98719 0.0
H1482 H 0.35172 0.87297 1.02613 0.0
H1483 H 0.34449 0.91655 0.9884 0.0
H1484 H 0.28819 0.84857 0.97529 0.0
H1485 H 0.32119 0.86183 0.97443 0.0
H1486 H 0.32627 0.9012 0.05379 0.0
H1487 H 0.29369 0.88815 0.05466 0.0
C1488 C 0.37593 0.89822 1.01645 0.0
C1489 C 0.38327 0.91641 1.00664 0.0
C1490 C 0.35721 0.88672 1.01694 0.0
C1491 C 0.34573 0.89337 1.00778 0.0
C1492 C 0.35315 0.91123 0.99595 0.0
C1493 C 0.37173 0.92262 0.99526 0.0
C1494 C 0.29639 0.85963 0.99346 0.0
C1495 C 0.28854 0.86752 1.01478 0.0
C1496 C 0.31518 0.86722 0.99286 0.0
C1497 C 0.32611 0.88266 1.01362 0.0
C1498 C 0.31807 0.88942 0.03725 0.0
C1499 C 0.29946 0.88193 0.03782 0.0
H1500 H 0.46178 0.08797 0.61911 0.0
H1501 H 0.47724 0.08551 0.72983 0.0
H1502 H 0.44824 0.10544 0.63849 0.0
H1503 H 0.46415 0.10389 0.74952 0.0
H1504 H 0.41584 0.11367 0.77153 0.0
H1505 H 0.4353 0.10126 0.75775 0.0
H1506 H 0.45304 0.1332 0.65952 0.0
H1507 H 0.43282 0.14479 0.67253 0.0
C1508 C 0.46252 0.09142 0.64767 0.0
C1509 C 0.47045 0.08525 0.673 0.0
C1510 C 0.4549 0.10167 0.6588 0.0
C1511 C 0.45515 0.10626 0.69561 0.0
C1512 C 0.46355 0.10048 0.72098 0.0
C1513 C 0.47113 0.09004 0.70976 0.0
C1514 C 0.42409 0.1182 0.74724 0.0
C1515 C 0.42259 0.12994 0.72271 0.0
C1516 C 0.43536 0.11117 0.73944 0.0
C1517 C 0.44555 0.11594 0.70714 0.0
C1518 C 0.44501 0.12879 0.6841 0.0
C1519 C 0.43353 0.13556 0.69162 0.0
H1520 H 0.89458 0.38051 0.69392 0.0
H1521 H 0.93432 0.3776 0.62671 0.0
H1522 H 0.87606 0.34764 0.69257 0.0
H1523 H 0.91546 0.34519 0.62272 0.0
H1524 H 0.89306 0.28898 0.66718 0.0
H1525 H 0.90852 0.32119 0.6596 0.0
H1526 H 0.85756 0.32021 0.66253 0.0
H1527 H 0.84208 0.28763 0.67244 0.0
C1528 C 0.89914 0.37281 0.67832 0.0
C1529 C 0.91599 0.38145 0.66113 0.0
C1530 C 0.88849 0.354 0.67721 0.0
C1531 C 0.89436 0.34358 0.65808 0.0
C1532 C 0.91073 0.35256 0.63887 0.0
C1533 C 0.92153 0.3712 0.64092 0.0
C1534 C 0.88509 0.29556 0.6658 0.0
C1535 C 0.86637 0.28579 0.67069 0.0
C1536 C 0.89397 0.31415 0.66112 0.0
C1537 C 0.88437 0.32351 0.66036 0.0
C1538 C 0.86547 0.31357 0.66358 0.0
C1539 C 0.85656 0.29488 0.66886 0.0
H1540 H 0.61773 0.55878 0.67888 0.0
H1541 H 0.61595 0.5081 0.69557 0.0
H1542 H 0.65005 0.57457 0.68462 0.0
H1543 H 0.64871 0.52415 0.70392 0.0
H1544 H 0.70958 0.55824 0.67543 0.0
H1545 H 0.67662 0.54025 0.67387 0.0
H1546 H 0.67357 0.58434 0.72395 0.0
H1547 H 0.70605 0.60245 0.72258 0.0
C1548 C 0.62426 0.55101 0.68462 0.0
C1549 C 0.61429 0.53219 0.68675 0.0
C1550 C 0.64291 0.56013 0.68825 0.0
C1551 C 0.65219 0.55075 0.69512 0.0
C1552 C 0.64213 0.53185 0.69818 0.0
C1553 C 0.62335 0.52265 0.6938 0.0
C1554 C 0.70172 0.56399 0.6858 0.0
C1555 C 0.71027 0.58182 0.69828 0.0
C1556 C 0.68285 0.55366 0.68531 0.0
C1557 C 0.67226 0.56088 0.69818 0.0
C1558 C 0.68108 0.57846 0.71247 0.0
C1559 C 0.69978 0.58886 0.71192 0.0
H1560 H 0.84811 0.56708 0.14753 0.0
H1561 H 0.86962 0.57664 0.25656 0.0
H1562 H 0.86178 0.54862 0.1349 0.0
H1563 H 0.88427 0.55924 0.24351 0.0
H1564 H 0.90177 0.51898 0.21943 0.0
H1565 H 0.88257 0.53177 0.23297 0.0
H1566 H 0.88975 0.55191 0.12271 0.0
H1567 H 0.90788 0.53815 0.10894 0.0
C1568 C 0.85572 0.56516 0.16883 0.0
C1569 C 0.85783 0.57332 0.20297 0.0
C1570 C 0.86375 0.55474 0.16152 0.0
C1571 C 0.87439 0.55251 0.18799 0.0
C1572 C 0.87602 0.56033 0.22252 0.0
C1573 C 0.86771 0.57047 0.22998 0.0
C1574 C 0.89897 0.52591 0.19805 0.0
C1575 C 0.90633 0.52758 0.16318 0.0
C1576 C 0.8881 0.53342 0.20583 0.0
C1577 C 0.8846 0.54305 0.17906 0.0
C1578 C 0.89177 0.54436 0.14397 0.0
C1579 C 0.90235 0.5366 0.13608 0.0
H1580 H 0.38352 0.2873 0.18141 0.0
H1581 H 0.43027 0.28317 0.20921 0.0
H1582 H 0.40243 0.31939 0.17213 0.0
H1583 H 0.44954 0.31565 0.1991 0.0
H1584 H 0.46978 0.37703 0.22701 0.0
H1585 H 0.45539 0.34409 0.22801 0.0
H1586 H 0.42471 0.34116 0.13232 0.0
H1587 H 0.43858 0.37384 0.13246 0.0
C1588 C 0.39792 0.29326 0.18511 0.0
C1589 C 0.40542 0.28278 0.19618 0.0
C1590 C 0.40882 0.31168 0.17948 0.0
C1591 C 0.42755 0.32012 0.1846 0.0
C1592 C 0.43515 0.30956 0.19512 0.0
C1593 C 0.42416 0.291 0.20074 0.0
C1594 C 0.46025 0.36925 0.20584 0.0
C1595 C 0.45513 0.37776 0.17979 0.0
C1596 C 0.45205 0.35044 0.2063 0.0
C1597 C 0.43867 0.33998 0.18058 0.0
C1598 C 0.43463 0.34877 0.15301 0.0
C1599 C 0.44264 0.36746 0.15288 0.0
H1600 H 0.61734 0.09766 0.16057 0.0
H1601 H 0.62596 0.05527 0.20094 0.0
H1602 H 0.65018 0.1178 0.15667 0.0
H1603 H 0.65828 0.0751 0.19703 0.0
H1604 H 0.71218 0.14874 0.19962 0.0
H1605 H 0.6791 0.13266 0.19852 0.0
H1606 H 0.67899 0.08827 0.14281 0.0
H1607 H 0.71175 0.10412 0.14413 0.0
C1608 C 0.62622 0.09273 0.16891 0.0
C1609 C 0.61912 0.07485 0.18062 0.0
C1610 C 0.64494 0.10422 0.16667 0.0
C1611 C 0.65673 0.09787 0.17582 0.0
C1612 C 0.64952 0.08023 0.18894 0.0
C1613 C 0.63099 0.0689 0.19137 0.0
C1614 C 0.70504 0.13571 0.18649 0.0
C1615 C 0.71448 0.12751 0.17251 0.0
C1616 C 0.68615 0.12654 0.18583 0.0
C1617 C 0.67652 0.10909 0.17124 0.0
C1618 C 0.68607 0.10156 0.15492 0.0
C1619 C 0.70483 0.11066 0.15555 0.0
H1620 H 0.56232 0.85053 0.44386 0.0
H1621 H 0.57801 0.85701 0.55686 0.0
H1622 H 0.54351 0.8639 0.45593 0.0
H1623 H 0.56023 0.87135 0.56875 0.0
H1624 H 0.53278 0.91033 0.47969 0.0
H1625 H 0.54627 0.89179 0.46673 0.0
H1626 H 0.53253 0.8694 0.57528 0.0
H1627 H 0.52012 0.88888 0.58865 0.0
C1628 C 0.56169 0.85481 0.47131 0.0
C1629 C 0.57167 0.85285 0.49937 0.0
C1630 C 0.55105 0.86263 0.47823 0.0
C1631 C 0.55042 0.86897 0.51328 0.0
C1632 C 0.56005 0.86643 0.54153 0.0
C1633 C 0.5704 0.85831 0.53471 0.0
C1634 C 0.53255 0.90132 0.5006 0.0
C1635 C 0.52565 0.90117 0.53529 0.0
C1636 C 0.54017 0.89055 0.49315 0.0
C1637 C 0.54071 0.87912 0.52004 0.0
C1638 C 0.53286 0.87835 0.55416 0.0
C1639 C 0.52559 0.8894 0.5618 0.0
H1640 H 0.09548 0.61804 0.5391 0.0
H1641 H 0.05322 0.62135 0.48198 0.0
H1642 H 0.11564 0.65044 0.52994 0.0
H1643 H 0.07324 0.65348 0.47269 0.0
H1644 H 0.13206 0.71191 0.54797 0.0
H1645 H 0.11633 0.67903 0.55292 0.0
H1646 H 0.10162 0.67452 0.43943 0.0
H1647 H 0.11727 0.70722 0.43449 0.0
C1648 C 0.09059 0.62566 0.52426 0.0
C1649 C 0.07279 0.61726 0.51134 0.0
C1650 C 0.10207 0.64416 0.5192 0.0
C1651 C 0.09601 0.65446 0.50059 0.0
C1652 C 0.07837 0.64587 0.48679 0.0
C1653 C 0.06687 0.62749 0.49225 0.0
C1654 C 0.1257 0.70386 0.52401 0.0
C1655 C 0.12568 0.71208 0.49098 0.0
C1656 C 0.11677 0.68507 0.52679 0.0
C1657 C 0.10759 0.67423 0.49664 0.0
C1658 C 0.10835 0.68253 0.46323 0.0
C1659 C 0.11735 0.70125 0.46041 0.0
H1660 H 0.37475 0.49082 0.5191 0.0
H1661 H 0.37376 0.44228 0.48403 0.0
H1662 H 0.34254 0.47706 0.50529 0.0
H1663 H 0.34187 0.42852 0.4709 0.0
H1664 H 0.28671 0.40717 0.43562 0.0
H1665 H 0.319 0.42829 0.43354 0.0
H1666 H 0.3149 0.45292 0.53308 0.0
H1667 H 0.28229 0.4321 0.534 0.0
C1668 C 0.36772 0.47736 0.50777 0.0
C1669 C 0.37666 0.46753 0.50287 0.0
C1670 C 0.34928 0.46945 0.50013 0.0
C1671 C 0.33958 0.45167 0.48711 0.0
C1672 C 0.34889 0.44231 0.48038 0.0
C1673 C 0.36719 0.45015 0.48814 0.0
C1674 C 0.29269 0.41749 0.45638 0.0
C1675 C 0.2822 0.41808 0.48503 0.0
C1676 C 0.31117 0.42949 0.45539 0.0
C1677 C 0.31962 0.44206 0.48355 0.0
C1678 C 0.30883 0.44349 0.51084 0.0
C1679 C 0.29019 0.43158 0.51149 0.0
H1680 H 0.76368 0.72046 0.37637 0.0
H1681 H 0.81283 0.76561 0.33622 0.0
H1682 H 0.74969 0.73912 0.37869 0.0
H1683 H 0.79865 0.78437 0.33802 0.0
H1684 H 0.72241 0.76775 0.33277 0.0
H1685 H 0.73933 0.75195 0.33155 0.0
H1686 H 0.78524 0.79831 0.37855 0.0
H1687 H 0.76818 0.81435 0.37932 0.0
C1688 C 0.77154 0.73443 0.36828 0.0
C1689 C 0.78927 0.74151 0.35572 0.0
C1690 C 0.76349 0.74511 0.36936 0.0
C1691 C 0.77294 0.76314 0.35783 0.0
C1692 C 0.79102 0.77053 0.34702 0.0
C1693 C 0.79911 0.75979 0.34594 0.0
C1694 C 0.73617 0.77467 0.34255 0.0
C1695 C 0.74391 0.79221 0.3565 0.0
C1696 C 0.74583 0.76555 0.34212 0.0
C1697 C 0.7635 0.77372 0.35571 0.0
C1698 C 0.77163 0.79164 0.368 0.0
C1699 C 0.76189 0.80082 0.36843 0.0
H1700 H 0.19089 0.94682 0.43984 0.0
H1701 H 0.179 0.94457 0.3251 0.0
H1702 H 0.2071 0.97964 0.43733 0.0
H1703 H 0.19519 0.97745 0.3227 0.0
H1704 H 0.26067 0.02854 0.39162 0.0
H1705 H 0.23705 -0.00224 0.40339 0.0
H1706 H 0.19867 0.00773 0.3471 0.0
H1707 H 0.22248 0.03896 0.33583 0.0
C1708 C 0.19131 0.95333 0.41432 0.0
C1709 C 0.18402 0.94318 0.38249 0.0
C1710 C 0.20061 0.9721 0.4129 0.0
C1711 C 0.2026 0.98103 0.37972 0.0
C1712 C 0.19381 0.97089 0.34864 0.0
C1713 C 0.18463 0.95209 0.34999 0.0
C1714 C 0.24713 0.02425 0.38221 0.0
C1715 C 0.24337 0.03601 0.36262 0.0
C1716 C 0.23358 0.00669 0.38921 0.0
C1717 C 0.21602 0.0004 0.37628 0.0
C1718 C 0.21211 0.01229 0.35739 0.0
C1719 C 0.22567 0.03008 0.351 0.0
H1720 H 0.94316 0.19354 0.38541 0.0
H1721 H 0.94678 0.20477 0.27019 0.0
H1722 H 0.97612 0.20819 0.38861 0.0
H1723 H 0.9795 0.21944 0.27349 0.0
H1724 H 0.03648 0.22492 0.36914 0.0
H1725 H 0.00365 0.20593 0.36311 0.0
H1726 H 0.00173 0.24877 0.30541 0.0
H1727 H 0.03425 0.26769 0.31184 0.0
C1728 C 0.95098 0.19894 0.36078 0.0
C1729 C 0.94246 0.19821 0.32765 0.0
C1730 C 0.96978 0.20722 0.36256 0.0
C1731 C 0.98032 0.21504 0.33132 0.0
C1732 C 0.97171 0.21368 0.29803 0.0
C1733 C 0.95298 0.20527 0.29617 0.0
C1734 C 0.029 0.23013 0.35486 0.0
C1735 C 0.03782 0.24775 0.34098 0.0
C1736 C 0.01027 0.21934 0.35163 0.0
C1737 C 0.0002 0.2259 0.33379 0.0
C1738 C 0.00918 0.24332 0.319 0.0
C1739 C 0.02777 0.25416 0.32278 0.0
H1740 H 0.23305 0.19101 0.77341 0.0
H1741 H 0.2302 0.18063 0.88891 0.0
H1742 H 0.21473 0.20541 0.78177 0.0
H1743 H 0.21212 0.1951 0.89714 0.0
H1744 H 0.21882 0.25357 0.8911 0.0
H1745 H 0.22675 0.2301 0.88501 0.0
H1746 H 0.18314 0.20182 0.80885 0.0
H1747 H 0.17474 0.22531 0.81607 0.0
C1748 C 0.22809 0.19135 0.80036 0.0
C1749 C 0.23332 0.18503 0.83061 0.0
C1750 C 0.21754 0.19948 0.80509 0.0
C1751 C 0.2122 0.20147 0.84014 0.0
C1752 C 0.21617 0.1938 0.86988 0.0
C1753 C 0.22654 0.18555 0.86514 0.0
C1754 C 0.21069 0.24216 0.87363 0.0
C1755 C 0.19619 0.24118 0.85402 0.0
C1756 C 0.21516 0.2287 0.87027 0.0
C1757 C 0.20551 0.21416 0.84655 0.0
C1758 C 0.19072 0.21291 0.8274 0.0
C1759 C 0.1859 0.22624 0.83159 0.0
H1760 H 0.82097 0.04761 0.84423 0.0
H1761 H 0.77342 0.0485 0.88007 0.0
H1762 H 0.80431 0.01459 0.84665 0.0
H1763 H 0.75697 0.01577 0.88275 0.0
H1764 H 0.76527 0.95335 0.88512 0.0
H1765 H 0.78589 0.98609 0.88847 0.0
H1766 H 0.74759 0.99475 0.8284 0.0
H1767 H 0.72727 0.9625 0.82508 0.0
C1768 C 0.80712 0.04078 0.85346 0.0
C1769 C 0.79835 0.05055 0.86135 0.0
C1770 C 0.79762 0.02192 0.85485 0.0
C1771 C 0.77927 0.01267 0.86409 0.0
C1772 C 0.77101 0.02257 0.87474 0.0
C1773 C 0.78044 0.0413 0.87338 0.0
C1774 C 0.76148 0.96231 0.87218 0.0
C1775 C 0.74459 0.95545 0.85527 0.0
C1776 C 0.77322 0.98098 0.87418 0.0
C1777 C 0.7681 0.99291 0.85948 0.0
C1778 C 0.75167 0.98589 0.84083 0.0
C1779 C 0.74009 0.9674 0.83872 0.0
H1780 H 0.04117 0.79962 0.8105 0.0
H1781 H 0.02844 0.78206 0.92201 0.0
H1782 H 0.00921 0.78673 0.79715 0.0
H1783 H -0.00347 0.76808 0.90844 0.0
H1784 H 0.94005 0.75363 0.8839 0.0
H1785 H 0.97223 0.77196 0.89562 0.0
H1786 H 0.98334 0.75914 0.78818 0.0
H1787 H 0.95122 0.74188 0.77594 0.0
C1788 C 0.03151 0.79302 0.83213 0.0
C1789 C 0.03726 0.7919 0.86727 0.0
C1790 C 0.01316 0.78544 0.82446 0.0
C1791 C 0.00014 0.77626 0.85165 0.0
C1792 C 0.00605 0.77533 0.8869 0.0
C1793 C 0.02438 0.78319 0.89467 0.0
C1794 C 0.94943 0.75503 0.86266 0.0
C1795 C 0.94318 0.74632 0.82911 0.0
C1796 C 0.96789 0.76538 0.86945 0.0
C1797 C 0.98052 0.76691 0.84306 0.0
C1798 C 0.97414 0.75856 0.80905 0.0
C1799 C 0.95568 0.74852 0.80206 0.0
H1800 H 0.04243 0.471 0.90219 0.0
H1801 H -0.00382 0.46594 0.95963 0.0
H1802 H 0.02396 0.45774 0.84825 0.0
H1803 H 0.9779 0.45376 0.90523 0.0
H1804 H 0.94484 0.42116 0.8096 0.0
H1805 H 0.963 0.42981 0.86507 0.0
H1806 H 0.01043 0.46429 0.80157 0.0
H1807 H 0.99266 0.4549 0.74673 0.0
C1808 C 0.02834 0.46722 0.90312 0.0
C1809 C 0.02077 0.46954 0.93509 0.0
C1810 C 0.01771 0.45968 0.87211 0.0
C1811 C -0.00067 0.45467 0.87203 0.0
C1812 C 0.99183 0.45703 0.90422 0.0
C1813 C 0.00238 0.46421 0.93542 0.0
C1814 C 0.95921 0.43032 0.80757 0.0
C1815 C 0.96725 0.43724 0.77366 0.0
C1816 C 0.96963 0.43546 0.83942 0.0
C1817 C 0.98828 0.44788 0.83811 0.0
C1818 C -0.00374 0.45444 0.80395 0.0
C1819 C 0.98596 0.44908 0.77226 0.0
H1820 H 0.5502 0.55547 0.93962 0.0
H1821 H 0.50401 0.55134 0.88369 0.0
H1822 H 0.55949 0.54683 0.88439 0.0
H1823 H 0.51287 0.5418 0.82832 0.0
H1824 H 0.54134 0.53627 0.72602 0.0
H1825 H 0.53328 0.54858 0.77839 0.0
H1826 H 0.55096 0.52083 0.8509 0.0
H1827 H 0.55958 0.50933 0.79935 0.0
C1828 C 0.54197 0.55266 0.91546 0.0
C1829 C 0.52627 0.55395 0.91624 0.0
C1830 C 0.54723 0.54754 0.8837 0.0
C1831 C 0.53678 0.5432 0.85178 0.0
C1832 C 0.52135 0.5451 0.85217 0.0
C1833 C 0.51622 0.55051 0.88399 0.0
C1834 C 0.54364 0.53297 0.7532 0.0
C1835 C 0.55135 0.522 0.75831 0.0
C1836 C 0.53889 0.53992 0.78329 0.0
C1837 C 0.54164 0.53595 0.81917 0.0
C1838 C 0.54909 0.52471 0.82395 0.0
C1839 C 0.55396 0.51797 0.79412 0.0
H1840 H 0.43174 0.94485 0.87638 0.0
H1841 H 0.46045 0.99383 0.93883 0.0
H1842 H 0.43936 0.96261 0.82025 0.0
H1843 H 0.4687 0.01132 0.88353 0.0
H1844 H 0.46937 0.04188 0.78651 0.0
H1845 H 0.45775 0.02184 0.83843 0.0
H1846 H 0.46233 0.98099 0.77809 0.0
H1847 H 0.47308 0.001 0.72505 0.0
C1848 C 0.43969 0.95937 0.87817 0.0
C1849 C 0.44525 0.96788 0.91228 0.0
C1850 C 0.44418 0.96958 0.84593 0.0
C1851 C 0.45448 0.98854 0.84703 0.0
C1852 C 0.46027 -0.00313 0.88125 0.0
C1853 C 0.45561 0.98675 0.91324 0.0
C1854 C 0.46769 0.02853 0.78415 0.0
C1855 C 0.47224 0.02307 0.75175 0.0
C1856 C 0.46118 0.01703 0.81415 0.0
C1857 C 0.45945 -0.00019 0.81313 0.0
C1858 C 0.46336 0.99406 0.78008 0.0
C1859 C 0.46956 0.00553 0.74962 0.0
H1860 H 0.99193 0.53515 0.23277 0.0
H1861 H 0.94676 0.52804 0.29743 0.0
H1862 H 0.01101 0.54501 0.28678 0.0
H1863 H 0.96597 0.53909 0.35068 0.0
H1864 H -0.00384 0.53676 0.44804 0.0
H1865 H 0.97883 0.52911 0.39239 0.0
H1866 H 0.02672 0.56594 0.3326 0.0
H1867 H 0.04435 0.57278 0.3887 0.0
C1868 C 0.98614 0.53602 0.25838 0.0
C1869 C 0.96771 0.53044 0.26089 0.0
C1870 C -0.00286 0.5418 0.28944 0.0
C1871 C 0.99006 0.54254 0.32364 0.0
C1872 C 0.97187 0.5381 0.32536 0.0
C1873 C 0.96083 0.53193 0.2946 0.0
C1874 C 0.00302 0.54331 0.42307 0.0
C1875 C 0.02163 0.55552 0.42292 0.0
C1876 C 0.99301 0.53902 0.39097 0.0
C1877 C 0.00117 0.54711 0.35767 0.0
C1878 C 0.01989 0.55929 0.35748 0.0
C1879 C 0.03002 0.56332 0.3897 0.0
H1880 H 0.43644 0.43563 0.26666 0.0
H1881 H 0.48174 0.43731 0.32175 0.0
H1882 H 0.42858 0.44577 0.32191 0.0
H1883 H 0.47413 0.44799 0.37706 0.0
H1884 H 0.44685 0.45617 0.4795 0.0
H1885 H 0.45328 0.44221 0.42756 0.0
H1886 H 0.44052 0.47346 0.35389 0.0
H1887 H 0.43383 0.48693 0.40497 0.0
C1888 C 0.44467 0.43803 0.29065 0.0
C1889 C 0.4598 0.43573 0.28949 0.0
C1890 C 0.44025 0.44401 0.32239 0.0
C1891 C 0.45089 0.44807 0.35398 0.0
C1892 C 0.46556 0.44496 0.35342 0.0
C1893 C 0.46994 0.43884 0.32159 0.0
C1894 C 0.44539 0.45999 0.45218 0.0
C1895 C 0.43963 0.47258 0.44664 0.0
C1896 C 0.44914 0.45204 0.42236 0.0
C1897 C 0.44719 0.45646 0.38631 0.0
C1898 C 0.44173 0.46928 0.38105 0.0
C1899 C 0.43799 0.47715 0.4106 0.0
H1900 H 0.5456 0.99598 0.259 0.0
H1901 H 0.57636 0.04498 0.32042 0.0
H1902 H 0.53798 0.97863 0.3142 0.0
H1903 H 0.56951 0.02729 0.37655 0.0
H1904 H 0.53598 0.99022 0.47298 0.0
H1905 H 0.54761 0.01004 0.42008 0.0
H1906 H 0.54758 0.96698 0.35865 0.0
H1907 H 0.53466 0.94702 0.41035 0.0
C1908 C 0.55113 0.00309 0.28433 0.0
C1909 C 0.56177 0.02194 0.28503 0.0
C1910 C 0.54683 0.99302 0.31632 0.0
C1911 C 0.55331 0.00135 0.35032 0.0
C1912 C 0.56411 0.02029 0.3511 0.0
C1913 C 0.56819 0.03047 0.31886 0.0
C1914 C 0.53853 0.98506 0.44814 0.0
C1915 C 0.53397 0.9669 0.44562 0.0
C1916 C 0.54534 -0.00352 0.41774 0.0
C1917 C 0.54817 0.99012 0.38435 0.0
C1918 C 0.54492 0.97231 0.38311 0.0
C1919 C 0.53768 0.96083 0.41303 0.0
H1920 H 0.6699 0.77987 0.29783 0.0
H1921 H 0.71216 0.82079 0.2317 0.0
H1922 H 0.65146 0.76695 0.24395 0.0
H1923 H 0.69339 0.80833 0.1778 0.0
H1924 H 0.6619 0.77445 0.08225 0.0
H1925 H 0.68067 0.78394 0.13653 0.0
H1926 H 0.63415 0.77251 0.2018 0.0
H1927 H 0.6153 0.76233 0.14765 0.0
C1928 C 0.67524 0.7862 0.27177 0.0
C1929 C 0.6925 0.80146 0.26915 0.0
C1930 C 0.66459 0.77882 0.24082 0.0
C1931 C 0.67081 0.7866 0.20639 0.0
C1932 C 0.6882 0.80176 0.20372 0.0
C1933 C 0.69896 0.80903 0.2347 0.0
C1934 C 0.65564 0.77371 0.10829 0.0
C1935 C 0.6371 0.76767 0.1106 0.0
C1936 C 0.66645 0.77934 0.13942 0.0
C1937 C 0.65904 0.77925 0.17364 0.0
C1938 C 0.64035 0.7726 0.17606 0.0
C1939 C 0.6295 0.76677 0.14494 0.0
H1940 H 0.22852 0.89249 0.07075 0.0
H1941 H 0.23207 0.85266 0.13658 0.0
H1942 H 0.22035 0.90352 0.12453 0.0
H1943 H 0.22364 0.86352 0.19019 0.0
H1944 H 0.21947 0.89425 0.28625 0.0
H1945 H 0.23266 0.88831 0.23287 0.0
H1946 H 0.1943 0.89283 0.16401 0.0
H1947 H 0.18129 0.89904 0.21715 0.0
C1948 C 0.22772 0.88616 0.0967 0.0
C1949 C 0.23089 0.87159 0.09914 0.0
C1950 C 0.22292 0.89244 0.12757 0.0
C1951 C 0.2212 0.88436 0.16177 0.0
C1952 C 0.225 0.87022 0.16444 0.0
C1953 C 0.22976 0.86391 0.13355 0.0
C1954 C 0.21404 0.89432 0.25969 0.0
C1955 C 0.19924 0.89708 0.25617 0.0
C1956 C 0.22152 0.89073 0.22906 0.0
C1957 C 0.21447 0.88992 0.19406 0.0
C1958 C 0.20021 0.8935 0.19042 0.0
C1959 C 0.19268 0.897 0.22102 0.0
H1960 H 0.08116 0.27884 0.21603 0.0
H1961 H 0.11635 0.32595 0.27928 0.0
H1962 H 0.08805 0.29755 0.16177 0.0
H1963 H 0.124 0.34442 0.22521 0.0
H1964 H 0.12663 0.37721 0.12834 0.0
H1965 H 0.11513 0.35804 0.18199 0.0
H1966 H 0.11072 0.31322 0.11956 0.0
H1967 H 0.12117 0.33207 0.06589 0.0
C1968 C 0.0904 0.29317 0.21831 0.0
C1969 C 0.09814 0.3009 0.25197 0.0
C1970 C 0.09446 0.30392 0.18716 0.0
C1971 C 0.10664 0.3226 0.18886 0.0
C1972 C 0.11427 0.33023 0.22273 0.0
C1973 C 0.10997 0.31956 0.25385 0.0
C1974 C 0.12299 0.36321 0.12609 0.0
C1975 C 0.12479 0.35618 0.09286 0.0
C1976 C 0.11652 0.3522 0.15692 0.0
C1977 C 0.11204 0.334 0.1554 0.0
C1978 C 0.11364 0.327 0.12187 0.0
C1979 C 0.11978 0.3379 0.091 0.0
H1980 H 0.6583 0.87505 0.56711 0.0
H1981 H 0.61245 0.84841 0.63894 0.0
H1982 H 0.67777 0.88952 0.61968 0.0
H1983 H 0.63179 0.86226 0.69102 0.0
H1984 H 0.6668 0.89851 0.77935 0.0
H1985 H 0.6491 0.88915 0.7236 0.0
H1986 H 0.69076 0.88295 0.67086 0.0
H1987 H 0.70874 0.89293 0.7263 0.0
C1988 C 0.65233 0.87236 0.594 0.0
C1989 C 0.63374 0.86059 0.59858 0.0
C1990 C 0.66353 0.88055 0.62425 0.0
C1991 C 0.65644 0.87716 0.65986 0.0
C1992 C 0.6378 0.86556 0.66418 0.0
C1993 C 0.62665 0.85747 0.6341 0.0
C1994 C 0.67231 0.89538 0.75574 0.0
C1995 C 0.68918 0.89641 0.75754 0.0
C1996 C 0.66207 0.88986 0.72373 0.0
C1997 C 0.6683 0.88499 0.69261 0.0
C1998 C 0.68552 0.88671 0.694 0.0
C1999 C 0.69584 0.89239 0.72597 0.0
H2000 H 0.1165 0.78254 0.58346 0.0
H2001 H 0.14443 0.76174 0.64685 0.0
H2002 H 0.10621 0.78988 0.63888 0.0
H2003 H 0.13332 0.76817 0.70272 0.0
H2004 H 0.12559 0.79965 0.79669 0.0
H2005 H 0.13562 0.79027 0.74289 0.0
H2006 H 0.08667 0.77903 0.68705 0.0
H2007 H 0.07737 0.78939 0.73986 0.0
C2008 C 0.1202 0.77922 0.60928 0.0
C2009 C 0.13125 0.77144 0.6105 0.0
C2010 C 0.11416 0.78333 0.64133 0.0
C2011 C 0.11869 0.77951 0.67579 0.0
C2012 C 0.12966 0.77157 0.67696 0.0
C2013 C 0.13595 0.76772 0.64479 0.0
C2014 C 0.11694 0.79497 0.77298 0.0
C2015 C 0.10075 0.79538 0.77246 0.0
C2016 C 0.12265 0.78954 0.74202 0.0
C2017 C 0.11215 0.78408 0.70998 0.0
C2018 C 0.0955 0.78365 0.71047 0.0
C2019 C 0.09001 0.78942 0.74102 0.0
H2020 H 0.18835 0.28213 0.71411 0.0
H2021 H 0.22713 0.32506 0.78241 0.0
H2022 H 0.20061 0.30152 0.66098 0.0
H2023 H 0.2395 0.34431 0.72922 0.0
H2024 H 0.23572 0.37899 0.63521 0.0
H2025 H 0.22924 0.35987 0.68865 0.0
H2026 H 0.22645 0.31739 0.62083 0.0
H2027 H 0.23267 0.33635 0.56743 0.0
C2028 C 0.19972 0.29555 0.71775 0.0
C2029 C 0.20663 0.30203 0.75265 0.0
C2030 C 0.2068 0.30668 0.68722 0.0
C2031 C 0.22096 0.32456 0.69086 0.0
C2032 C 0.22841 0.33073 0.72552 0.0
C2033 C 0.22137 0.31961 0.756 0.0
C2034 C 0.23409 0.36572 0.63176 0.0
C2035 C 0.23456 0.35919 0.59692 0.0
C2036 C 0.23039 0.35473 0.66245 0.0
C2037 C 0.2271 0.33698 0.65899 0.0
C2038 C 0.22856 0.33084 0.6244 0.0
C2039 C 0.23226 0.3418 0.59379 0.0
H2040 H 0.37827 0.14164 0.57249 0.0
H2041 H 0.33772 0.10021 0.64076 0.0
H2042 H 0.35888 0.12856 0.51973 0.0
H2043 H 0.3184 0.08698 0.58767 0.0
H2044 H 0.28147 0.08539 0.49229 0.0
H2045 H 0.30068 0.09431 0.54611 0.0
H2046 H 0.34573 0.1026 0.47954 0.0
H2047 H 0.32666 0.09394 0.42571 0.0
C2048 C 0.36531 0.12962 0.57626 0.0
C2049 C 0.3596 0.12204 0.61104 0.0
C2050 C 0.3542 0.12204 0.54586 0.0
C2051 C 0.33704 0.10669 0.54936 0.0
C2052 C 0.33145 0.0989 0.58402 0.0
C2053 C 0.3426 0.10644 0.61445 0.0
C2054 C 0.29539 0.08882 0.48916 0.0
C2055 C 0.3025 0.08906 0.4545 0.0
C2056 C 0.30642 0.09391 0.52011 0.0
C2057 C 0.32484 0.0994 0.51716 0.0
C2058 C 0.33171 0.0988 0.48275 0.0
C2059 C 0.3207 0.09368 0.45186 0.0
H2060 H 0.87636 0.21286 0.41772 0.0
H2061 H 0.89013 0.17966 0.48308 0.0
H2062 H 0.86723 0.22229 0.47247 0.0
H2063 H 0.88022 0.18833 0.53747 0.0
H2064 H 0.87331 0.21753 0.63514 0.0
H2065 H 0.88497 0.21003 0.58114 0.0
H2066 H 0.84444 0.21246 0.51535 0.0
H2067 H 0.83348 0.22068 0.56865 0.0
C2068 C 0.8775 0.2076 0.44375 0.0
C2069 C 0.88409 0.19555 0.44575 0.0
C2070 C 0.87205 0.21285 0.4753 0.0
C2071 C 0.87275 0.206 0.50984 0.0
C2072 C 0.87966 0.19418 0.51177 0.0
C2073 C 0.88531 0.18911 0.4803 0.0
C2074 C 0.86693 0.21645 0.6091 0.0
C2075 C 0.85255 0.21987 0.60634 0.0
C2076 C 0.87356 0.21207 0.578 0.0
C2077 C 0.86584 0.21075 0.54335 0.0
C2078 C 0.85119 0.21381 0.54103 0.0
C2079 C 0.84475 0.2184 0.57188 0.0
H2080 H 0.77115 0.61254 0.56391 0.0
H2081 H 0.77754 0.65756 0.6282 0.0
H2082 H 0.78041 0.63144 0.50968 0.0
H2083 H 0.78645 0.67631 0.57402 0.0
H2084 H 0.82063 0.70985 0.47735 0.0
H2085 H 0.81098 0.69093 0.53162 0.0
H2086 H 0.7709 0.64663 0.46805 0.0
H2087 H 0.78075 0.66534 0.41388 0.0
C2088 C 0.77428 0.62638 0.56645 0.0
C2089 C 0.77354 0.63346 0.60051 0.0
C2090 C 0.77959 0.63725 0.53529 0.0
C2091 C 0.78426 0.65548 0.53738 0.0
C2092 C 0.78327 0.66246 0.5714 0.0
C2093 C 0.77801 0.65162 0.6025 0.0
C2094 C 0.8097 0.69612 0.47499 0.0
C2095 C 0.8015 0.68918 0.44114 0.0
C2096 C 0.80411 0.68525 0.50617 0.0
C2097 C 0.79015 0.66718 0.50431 0.0
C2098 C 0.78187 0.66035 0.4705 0.0
C2099 C 0.78747 0.67117 0.43939 0.0
H2100 H 0.32302 0.20889 0.91724 0.0
H2101 H 0.27615 0.19198 0.98491 0.0
H2102 H 0.34221 0.21897 0.97082 0.0
H2103 H 0.29532 0.20321 0.03849 0.0
H2104 H 0.3294 0.20158 0.13027 0.0
H2105 H 0.31108 0.19506 0.07624 0.0
H2106 H 0.35625 0.238 1.01914 0.0
H2107 H 0.37496 0.24368 0.0732 0.0
C2108 C 0.31687 0.20789 0.94354 0.0
C2109 C 0.29806 0.1996 0.94687 0.0
C2110 C 0.32791 0.21372 0.97446 0.0
C2111 C 0.32045 0.21173 1.0095 0.0
C2112 C 0.30165 0.20447 1.01234 0.0
C2113 C 0.2906 0.19824 0.98152 0.0
C2114 C 0.33544 0.20969 0.10623 0.0
C2115 C 0.35365 0.22318 0.10609 0.0
C2116 C 0.32482 0.20607 0.0751 0.0
C2117 C 0.33195 0.21609 0.04296 0.0
C2118 C 0.35022 0.22976 0.043 0.0
C2119 C 0.36098 0.23313 0.07408 0.0
H2120 H 0.79592 0.1262 0.89958 0.0
H2121 H 0.82173 0.10582 0.97073 0.0
H2122 H 0.78523 0.1354 0.95283 0.0
H2123 H 0.81166 0.11542 1.0233 0.0
H2124 H 0.77696 0.11742 0.11258 0.0
H2125 H 0.78576 0.10809 0.05757 0.0
H2126 H 0.79421 0.15632 1.00309 0.0
H2127 H 0.78483 0.16542 0.05826 0.0
C2128 C 0.7993 0.12364 0.92648 0.0
C2129 C 0.80953 0.11504 0.93068 0.0
C2130 C 0.7933 0.12907 0.95708 0.0
C2131 C 0.7974 0.12605 0.99264 0.0
C2132 C 0.8078 0.11763 0.99659 0.0
C2133 C 0.8137 0.11217 0.9662 0.0
C2134 C 0.78065 0.12606 0.08891 0.0
C2135 C 0.78018 0.14221 0.09003 0.0
C2136 C 0.78582 0.12074 0.05725 0.0
C2137 C 0.79093 0.13148 1.02569 0.0
C2138 C 0.79021 0.14755 1.0266 0.0
C2139 C 0.78486 0.15282 0.05833 0.0
H2140 H 0.89085 0.70843 0.97559 0.0
H2141 H 0.88113 0.66355 0.90701 0.0
H2142 H 0.88308 0.68939 1.02887 0.0
H2143 H 0.87412 0.64452 0.96084 0.0
H2144 H 0.84124 0.61067 0.05844 0.0
H2145 H 0.85192 0.62949 1.00464 0.0
H2146 H 0.89062 0.67381 0.07032 0.0
H2147 H 0.87925 0.65509 0.12462 0.0
C2148 C 0.88739 0.69454 0.97185 0.0
C2149 C 0.88666 0.68759 0.93675 0.0
C2150 C 0.88302 0.68357 1.00269 0.0
C2151 C 0.87792 0.66527 0.99963 0.0
C2152 C 0.87765 0.65842 0.96452 0.0
C2153 C 0.88184 0.66939 0.93353 0.0
C2154 C 0.85216 0.62439 0.0615 0.0
C2155 C 0.85933 0.63132 0.09612 0.0
C2156 C 0.8584 0.63523 0.03037 0.0
C2157 C 0.87217 0.65333 0.03269 0.0
C2158 C 0.87976 0.66008 0.06724 0.0
C2159 C 0.87334 0.64928 0.09851 0.0
H2160 H 0.05982 0.57425 0.65593 0.0
H2161 H 0.09841 0.56189 0.60828 0.0
H2162 H 0.06602 0.56672 0.7159 0.0
H2163 H 0.10503 0.55466 0.66924 0.0
H2164 H 0.11934 0.55831 0.79605 0.0
H2165 H 0.11678 0.56761 0.73436 0.0
H2166 H 0.05889 0.53679 0.74252 0.0
H2167 H 0.06131 0.52702 0.80326 0.0
C2168 C 0.06982 0.5701 0.65835 0.0
C2169 C 0.07841 0.56839 0.62724 0.0
C2170 C 0.07334 0.56575 0.69278 0.0
C2171 C 0.08574 0.55972 0.69729 0.0
C2172 C 0.09536 0.55922 0.66659 0.0
C2173 C 0.09167 0.56346 0.63176 0.0
C2174 C 0.10605 0.55326 0.78454 0.0
C2175 C 0.09052 0.54205 0.80515 0.0
C2176 C 0.10462 0.55867 0.74916 0.0
C2177 C 0.08764 0.55316 0.73372 0.0
C2178 C 0.07218 0.5416 0.7539 0.0
C2179 C 0.07359 0.53605 0.78893 0.0
H2180 H 0.47646 0.57742 0.77746 0.0
H2181 H 0.42198 0.54975 0.81836 0.0
H2182 H 0.46519 0.56791 0.71576 0.0
H2183 H 0.41067 0.5404 0.75667 0.0
H2184 H 0.40299 0.50443 0.65576 0.0
H2185 H 0.41052 0.51909 0.71473 0.0
H2186 H 0.44843 0.56927 0.66355 0.0
H2187 H 0.441 0.55427 0.60406 0.0
C2188 C 0.46205 0.56961 0.77322 0.0
C2189 C 0.45016 0.56417 0.80301 0.0
C2190 C 0.45556 0.5642 0.73773 0.0
C2191 C 0.43698 0.55327 0.73107 0.0
C2192 C 0.42506 0.54853 0.76074 0.0
C2193 C 0.43156 0.55387 0.79618 0.0
C2194 C 0.41249 0.51875 0.65689 0.0
C2195 C 0.42137 0.52819 0.6252 0.0
C2196 C 0.41685 0.5272 0.69084 0.0
C2197 C 0.43027 0.54537 0.69416 0.0
C2198 C 0.43822 0.55519 0.66209 0.0
C2199 C 0.43375 0.5467 0.6279 0.0
H2200 H 0.41011 0.87913 0.77639 0.0
H2201 H 0.46153 0.88536 0.80705 0.0
H2202 H 0.41711 0.87796 0.71238 0.0
H2203 H 0.46878 0.88468 0.74323 0.0
H2204 H 0.47837 0.87898 0.62703 0.0
H2205 H 0.46383 0.86905 0.68669 0.0
H2206 H 0.43657 0.8994 0.66961 0.0
H2207 H 0.45069 0.9087 0.61027 0.0
C2208 C 0.4229 0.8802 0.76942 0.0
C2209 C 0.43532 0.88249 0.79677 0.0
C2210 C 0.42692 0.87952 0.73273 0.0
C2211 C 0.44358 0.88131 0.7224 0.0
C2212 C 0.4557 0.88292 0.74997 0.0
C2213 C 0.45159 0.88343 0.78666 0.0
C2214 C 0.46856 0.8827 0.63549 0.0
C2215 C 0.46534 0.89429 0.61398 0.0
C2216 C 0.46048 0.87733 0.6699 0.0
C2217 C 0.44917 0.8836 0.68335 0.0
C2218 C 0.44495 0.89406 0.66026 0.0
C2219 C 0.453 0.89938 0.62609 0.0
H2220 H 0.51576 0.07482 0.9128 0.0
H2221 H 0.57256 0.11288 0.90165 0.0
H2222 H 0.52041 0.07017 0.97614 0.0
H2223 H 0.57736 0.10743 0.96473 0.0
H2224 H 0.57833 0.10198 0.08964 0.0
H2225 H 0.57283 0.11058 1.02918 0.0
H2226 H 0.53285 0.05518 1.00821 0.0
H2227 H 0.5378 0.0469 0.06803 0.0
C2228 C 0.52925 0.08235 0.9238 0.0
C2229 C 0.54377 0.09417 0.90162 0.0
C2230 C 0.53197 0.07948 0.96023 0.0
C2231 C 0.54933 0.08823 0.97574 0.0
C2232 C 0.56379 0.10049 0.95398 0.0
C2233 C 0.56105 0.10342 0.91749 0.0
C2234 C 0.56823 0.09174 0.07219 0.0
C2235 C 0.55866 0.07372 0.08373 0.0
C2236 C 0.56517 0.09662 0.03739 0.0
C2237 C 0.55235 0.0836 1.01353 0.0
C2238 C 0.54261 0.0657 1.02568 0.0
C2239 C 0.54566 0.06088 0.0601 0.0
H2240 H 0.90268 0.42187 0.92333 0.0
H2241 H 0.87194 0.44666 0.88907 0.0
H2242 H 0.90286 0.43188 0.98566 0.0
H2243 H 0.87179 0.45632 0.95151 0.0
H2244 H 0.90427 0.4939 0.04983 0.0
H2245 H 0.89554 0.47911 0.9907 0.0
H2246 H 0.8843 0.42894 0.04042 0.0
H2247 H 0.89308 0.44398 0.09994 0.0
C2248 C 0.89582 0.42932 0.92914 0.0
C2249 C 0.88741 0.43356 0.90106 0.0
C2250 C 0.89572 0.43486 0.96499 0.0
C2251 C 0.88731 0.4449 0.97365 0.0
C2252 C 0.87846 0.44869 0.94577 0.0
C2253 C 0.87845 0.44304 0.90999 0.0
C2254 C 0.89916 0.47953 0.04832 0.0
C2255 C 0.89895 0.46997 0.07946 0.0
C2256 C 0.89424 0.47105 1.01441 0.0
C2257 C 0.88933 0.45284 1.01071 0.0
C2258 C 0.88814 0.44301 0.04232 0.0
C2259 C 0.89286 0.4515 0.07646 0.0
H2260 H 0.50207 0.45527 0.06492 0.0
H2261 H 0.52281 0.42017 0.09306 0.0
H2262 H 0.51545 0.45992 1.00514 0.0
H2263 H 0.53686 0.42529 0.03263 0.0
H2264 H 0.54067 0.42345 0.90548 0.0
H2265 H 0.52919 0.41862 0.9678 0.0
H2266 H 0.54381 0.47454 0.97486 0.0
H2267 H 0.55449 0.47917 0.91238 0.0
C2268 C 0.50954 0.44853 0.05844 0.0
C2269 C 0.51118 0.43719 0.08395 0.0
C2270 C 0.51744 0.45139 1.02404 0.0
C2271 C 0.52737 0.44308 1.01384 0.0
C2272 C 0.52919 0.43181 0.03939 0.0
C2273 C 0.52126 0.42897 0.07414 0.0
C2274 C 0.54135 0.43471 0.92024 0.0
C2275 C 0.54847 0.4517 0.90355 0.0
C2276 C 0.53496 0.43197 0.95623 0.0
C2277 C 0.53544 0.44614 0.9765 0.0
C2278 C 0.54295 0.46321 0.96006 0.0
C2279 C 0.54931 0.46594 0.9242 0.0
H2280 H 0.88785 0.42314 0.38462 0.0
H2281 H 0.88992 0.47209 0.42036 0.0
H2282 H 0.8902 0.41561 0.44752 0.0
H2283 H 0.89246 0.46462 0.48359 0.0
H2284 H 0.88865 0.44067 0.59818 0.0
H2285 H 0.8787 0.44372 0.53692 0.0
H2286 H 0.91535 0.42858 0.48933 0.0
H2287 H 0.92486 0.42534 0.54955 0.0
C2288 C 0.88875 0.43228 0.40596 0.0
C2289 C 0.889 0.44836 0.39738 0.0
C2290 C 0.89006 0.42794 0.44205 0.0
C2291 C 0.89176 0.43962 0.47064 0.0
C2292 C 0.89103 0.45525 0.46231 0.0
C2293 C 0.88964 0.45957 0.42605 0.0
C2294 C 0.8942 0.43764 0.57449 0.0
C2295 C 0.90756 0.43285 0.57852 0.0
C2296 C 0.88867 0.43955 0.53949 0.0
C2297 C 0.89621 0.43638 0.50815 0.0
C2298 C 0.90903 0.43089 0.51266 0.0
C2299 C 0.91462 0.42918 0.54727 0.0
H2300 H 0.59308 0.48799 0.55783 0.0
H2301 H 0.54485 0.44149 0.59645 0.0
H2302 H 0.58721 0.47545 0.49655 0.0
H2303 H 0.53837 0.42914 0.53475 0.0
H2304 H 0.53356 0.40955 0.41704 0.0
H2305 H 0.54433 0.41756 0.47974 0.0
H2306 H 0.56572 0.47374 0.45375 0.0
H2307 H 0.55531 0.46575 0.39151 0.0
C2308 C 0.58158 0.47471 0.55337 0.0
C2309 C 0.56953 0.46559 0.58183 0.0
C2310 C 0.578 0.46766 0.51813 0.0
C2311 C 0.56202 0.45152 0.51038 0.0
C2312 C 0.55082 0.44158 0.53962 0.0
C2313 C 0.55458 0.44855 0.57511 0.0
C2314 C 0.5406 0.4236 0.42484 0.0
C2315 C 0.54369 0.43702 0.3992 0.0
C2316 C 0.5468 0.4282 0.46075 0.0
C2317 C 0.55615 0.44633 0.47185 0.0
C2318 C 0.5591 0.45968 0.4461 0.0
C2319 C 0.55303 0.4551 0.41032 0.0
H2320 H 0.54987 0.12277 0.3854 0.0
H2321 H 0.57513 0.09322 0.42434 0.0
H2322 H 0.54118 0.1251 0.44754 0.0
H2323 H 0.56648 0.09557 0.4864 0.0
H2324 H 0.55437 0.10582 0.59835 0.0
H2325 H 0.56938 0.11455 0.53893 0.0
H2326 H 0.51916 0.1034 0.48928 0.0
H2327 H 0.50446 0.09488 0.54835 0.0
C2328 C 0.55364 0.11682 0.40721 0.0
C2329 C 0.56303 0.10761 0.3997 0.0
C2330 C 0.54872 0.11824 0.44289 0.0
C2331 C 0.55307 0.11049 0.47208 0.0
C2332 C 0.56315 0.10197 0.46476 0.0
C2333 C 0.56806 0.10055 0.42906 0.0
C2334 C 0.54686 0.1062 0.57498 0.0
C2335 C 0.52835 0.1 0.57794 0.0
C2336 C 0.55534 0.11084 0.54082 0.0
C2337 C 0.54544 0.10945 0.50916 0.0
C2338 C 0.5273 0.10483 0.51294 0.0
C2339 C 0.51885 0.10004 0.54689 0.0
H2340 H 0.47301 0.9261 0.29409 0.0
H2341 H 0.43641 0.86873 0.28866 0.0
H2342 H 0.46492 0.92928 0.23228 0.0
H2343 H 0.42878 0.87199 0.2259 0.0
H2344 H 0.43737 0.89016 0.09893 0.0
H2345 H 0.44343 0.88279 0.16029 0.0
H2346 H 0.43547 0.92473 0.20564 0.0
H2347 H 0.42903 0.93167 0.14545 0.0
C2348 C 0.4632 0.91414 0.27986 0.0
C2349 C 0.45516 0.89719 0.29689 0.0
C2350 C 0.45864 0.91597 0.24425 0.0
C2351 C 0.44606 0.90091 0.22435 0.0
C2352 C 0.43856 0.88383 0.24055 0.0
C2353 C 0.44298 0.88199 0.27651 0.0
C2354 C 0.4365 0.89745 0.12219 0.0
C2355 C 0.43304 0.9117 0.11726 0.0
C2356 C 0.44006 0.89331 0.15722 0.0
C2357 C 0.44031 0.90346 0.18765 0.0
C2358 C 0.4358 0.91695 0.18271 0.0
C2359 C 0.43212 0.92092 0.14811 0.0
H2360 H 0.10286 0.54339 0.11011 0.0
H2361 H 0.07002 0.49066 0.15662 0.0
H2362 H 0.10967 0.55648 0.17176 0.0
H2363 H 0.07662 0.50355 0.21748 0.0
H2364 H 0.06607 0.53479 0.30529 0.0
H2365 H 0.06536 0.52343 0.24442 0.0
H2366 H 0.12312 0.55641 0.23678 0.0
H2367 H 0.12403 0.56748 0.29874 0.0
C2368 C 0.09774 0.53456 0.13349 0.0
C2369 C 0.08595 0.51604 0.12871 0.0
C2370 C 0.10148 0.54203 0.1687 0.0
C2371 C 0.09336 0.53106 0.19935 0.0
C2372 C 0.08281 0.51239 0.1944 0.0
C2373 C 0.07917 0.50499 0.15956 0.0
C2374 C 0.07871 0.53951 0.29107 0.0
C2375 C 0.09514 0.55187 0.30745 0.0
C2376 C 0.07828 0.53303 0.25601 0.0
C2377 C 0.09422 0.53884 0.23601 0.0
C2378 C 0.11063 0.55169 0.25159 0.0
C2379 C 0.11111 0.55807 0.28704 0.0
H2380 H 0.50711 0.56864 0.14954 0.0
H2381 H 0.46006 0.56816 0.10626 0.0
H2382 H 0.49462 0.56379 0.21033 0.0
H2383 H 0.44747 0.56353 0.16837 0.0
H2384 H 0.44253 0.57124 0.29686 0.0
H2385 H 0.45301 0.57767 0.23366 0.0
H2386 H 0.46863 0.53709 0.23933 0.0
H2387 H 0.45782 0.53029 0.30165 0.0
C2388 C 0.49408 0.56762 0.15303 0.0
C2389 C 0.48447 0.56851 0.1228 0.0
C2390 C 0.4869 0.56479 0.18803 0.0
C2391 C 0.46987 0.56288 0.19423 0.0
C2392 C 0.46061 0.56488 0.16445 0.0
C2393 C 0.46784 0.56762 0.12894 0.0
C2394 C 0.44794 0.56348 0.28452 0.0
C2395 C 0.44953 0.55039 0.30491 0.0
C2396 C 0.45397 0.56721 0.24823 0.0
C2397 C 0.46187 0.55807 0.23155 0.0
C2398 C 0.46295 0.54466 0.25155 0.0
C2399 C 0.45682 0.54083 0.28751 0.0
H2400 H 0.76719 0.90636 0.95043 0.0
H2401 H 0.71162 0.88149 0.98437 0.0
H2402 H 0.77499 0.89889 1.00983 0.0
H2403 H 0.71932 0.87452 0.04283 0.0
H2404 H 0.73303 0.84777 0.13122 0.0
H2405 H 0.72807 0.85469 0.0696 0.0
H2406 H 0.77703 0.90611 0.07565 0.0
H2407 H 0.78209 0.89907 0.13759 0.0
C2408 C 0.75666 0.89938 0.97041 0.0
C2409 C 0.73876 0.89459 0.96238 0.0
C2410 C 0.76113 0.89516 1.00453 0.0
C2411 C 0.74777 0.88592 0.03118 0.0
C2412 C 0.72996 0.88129 1.02296 0.0
C2413 C 0.72555 0.8855 0.98925 0.0
C2414 C 0.74275 0.86058 0.11953 0.0
C2415 C 0.75783 0.87294 0.13973 0.0
C2416 C 0.73991 0.86457 0.08407 0.0
C2417 C 0.75201 0.8811 0.06763 0.0
C2418 C 0.76748 0.89322 0.08725 0.0
C2419 C 0.77036 0.88918 0.12284 0.0
H2420 H 0.10925 0.87516 0.93428 0.0
H2421 H 0.0575 0.83204 0.96814 0.0
H2422 H 0.11491 0.88771 0.99547 0.0
H2423 H 0.0627 0.84483 1.02944 0.0
H2424 H 0.09164 0.85312 0.13949 0.0
H2425 H 0.0814 0.84499 0.07707 0.0
H2426 H 0.10973 0.90119 0.04699 0.0
H2427 H 0.12031 0.90926 0.10964 0.0
C2428 C 0.09862 0.869 0.9544 0.0
C2429 C 0.08276 0.8529 0.94632 0.0
C2430 C 0.10191 0.87608 0.98971 0.0
C2431 C 0.08942 0.86714 1.01783 0.0
C2432 C 0.07281 0.85189 1.00875 0.0
C2433 C 0.0696 0.84476 0.97342 0.0
C2434 C 0.09551 0.86377 0.11969 0.0
C2435 C 0.10684 0.88185 0.12963 0.0
C2436 C 0.08952 0.85912 0.08379 0.0
C2437 C 0.09457 0.87242 0.05674 0.0
C2438 C 0.10568 0.89055 0.06686 0.0
C2439 C 0.11179 0.89519 0.1028 0.0
H2440 H 0.12804 0.22188 0.93406 0.0
H2441 H 0.15009 0.27804 0.96097 0.0
H2442 H 0.11157 0.21361 0.99232 0.0
H2443 H 0.13415 0.26993 1.01824 0.0
H2444 H 0.09286 0.25259 0.10556 0.0
H2445 H 0.10428 0.25692 0.04355 0.0
H2446 H 0.11807 0.21538 0.05927 0.0
H2447 H 0.10657 0.21099 0.12162 0.0
C2448 C 0.12925 0.23241 0.95212 0.0
C2449 C 0.14046 0.2506 0.9428 0.0
C2450 C 0.11994 0.22771 0.98559 0.0
C2451 C 0.12145 0.2411 1.01004 0.0
C2452 C 0.13237 0.25921 1.00007 0.0
C2453 C 0.1417 0.26386 0.96714 0.0
C2454 C 0.09831 0.24435 0.09591 0.0
C2455 C 0.099 0.23162 0.11896 0.0
C2456 C 0.10485 0.2468 0.06022 0.0
C2457 C 0.11233 0.23665 0.0464 0.0
C2458 C 0.11229 0.22334 0.06883 0.0
C2459 C 0.10572 0.22086 0.10467 0.0
H2460 H 0.19717 0.38081 0.3909 0.0
H2461 H 0.23327 0.43699 0.41449 0.0
H2462 H 0.18909 0.38872 0.33365 0.0
H2463 H 0.22481 0.44505 0.35638 0.0
H2464 H 0.22133 0.44645 0.22752 0.0
H2465 H 0.22869 0.44222 0.28969 0.0
H2466 H 0.17297 0.40249 0.30811 0.0
H2467 H 0.16563 0.40669 0.24621 0.0
C2468 C 0.20332 0.39495 0.38402 0.0
C2469 C 0.21599 0.40827 0.40737 0.0
C2470 C 0.19852 0.39949 0.35112 0.0
C2471 C 0.20621 0.41754 0.34027 0.0
C2472 C 0.2187 0.431 0.36381 0.0
C2473 C 0.22345 0.42642 0.3972 0.0
C2474 C 0.21059 0.43703 0.24502 0.0
C2475 C 0.19291 0.42674 0.23154 0.0
C2476 C 0.21482 0.43463 0.28075 0.0
C2477 C 0.20148 0.42187 0.3039 0.0
C2478 C 0.18368 0.41217 0.29087 0.0
C2479 C 0.17946 0.41455 0.25526 0.0
H2480 H 0.5756 0.79112 0.22477 0.0
H2481 H 0.54115 0.73598 0.25804 0.0
H2482 H 0.57578 0.80114 0.28665 0.0
H2483 H 0.54076 0.74612 0.32015 0.0
H2484 H 0.56898 0.77259 0.43223 0.0
H2485 H 0.56127 0.75898 0.37158 0.0
H2486 H 0.55782 0.80464 0.33231 0.0
H2487 H 0.56604 0.81831 0.39271 0.0
C2488 C 0.56799 0.78111 0.24529 0.0
C2489 C 0.5585 0.76272 0.23636 0.0
C2490 C 0.56785 0.78689 0.2808 0.0
C2491 C 0.55816 0.77447 0.30852 0.0
C2492 C 0.54843 0.75606 0.29956 0.0
C2493 C 0.54854 0.75026 0.26388 0.0
C2494 C 0.56578 0.77927 0.41092 0.0
C2495 C 0.56773 0.79629 0.41713 0.0
C2496 C 0.56149 0.77156 0.37607 0.0
C2497 C 0.5592 0.78083 0.3468 0.0
C2498 C 0.55983 0.79727 0.35397 0.0
C2499 C 0.56422 0.80498 0.38868 0.0
H2500 H 0.20402 0.76635 0.42473 0.0
H2501 H 0.15331 0.75652 0.38051 0.0
H2502 H 0.21659 0.77144 0.36268 0.0
H2503 H 0.16566 0.76188 0.31957 0.0
H2504 H 0.18691 0.76103 0.20966 0.0
H2505 H 0.17609 0.75103 0.27125 0.0
H2506 H 0.22566 0.79437 0.31464 0.0
H2507 H 0.23662 0.80425 0.25269 0.0
C2508 C 0.19545 0.7648 0.40175 0.0
C2509 C 0.17765 0.7609 0.40744 0.0
C2510 C 0.20269 0.76798 0.36626 0.0
C2511 C 0.19218 0.76711 0.33587 0.0
C2512 C 0.17416 0.76242 0.34189 0.0
C2513 C 0.16705 0.7594 0.37702 0.0
C2514 C 0.19553 0.76847 0.23228 0.0
C2515 C 0.21255 0.78362 0.22605 0.0
C2516 C 0.18933 0.7627 0.26773 0.0
C2517 C 0.19988 0.77197 0.29819 0.0
C2518 C 0.2172 0.78676 0.29199 0.0
C2519 C 0.22346 0.79248 0.25639 0.0
H2520 H 0.59691 0.79211 0.91294 0.0
H2521 H 0.55426 0.73671 0.91555 0.0
H2522 H 0.5886 0.79532 0.85191 0.0
H2523 H 0.5462 0.73973 0.85249 0.0
H2524 H 0.53256 0.76025 0.74284 0.0
H2525 H 0.53554 0.75555 0.80781 0.0
H2526 H 0.59336 0.78342 0.79585 0.0
H2527 H 0.59051 0.78876 0.73221 0.0
C2528 C 0.58544 0.78066 0.90072 0.0
C2529 C 0.57625 0.76416 0.9192 0.0
C2530 C 0.58082 0.78245 0.86536 0.0
C2531 C 0.56707 0.76766 0.84688 0.0
C2532 C 0.55693 0.75137 0.86601 0.0
C2533 C 0.56147 0.74964 0.90208 0.0
C2534 C 0.5459 0.76545 0.75423 0.0
C2535 C 0.56129 0.77493 0.73216 0.0
C2536 C 0.54757 0.76259 0.79134 0.0
C2537 C 0.56468 0.76929 0.80714 0.0
C2538 C 0.57997 0.77835 0.7848 0.0
C2539 C 0.57832 0.78121 0.74801 0.0
H2540 H 0.18144 0.77893 0.73441 0.0
H2541 H 0.21755 0.75763 0.74332 0.0
H2542 H 0.19048 0.7922 0.79459 0.0
H2543 H 0.22707 0.77154 0.80348 0.0
H2544 H 0.2272 0.78898 0.92635 0.0
H2545 H 0.21728 0.77199 0.86884 0.0
H2546 H 0.21853 0.81773 0.8169 0.0
H2547 H 0.22822 0.83442 0.87317 0.0
C2548 C 0.19111 0.77682 0.74935 0.0
C2549 C 0.1988 0.76724 0.73371 0.0
C2550 C 0.19648 0.78464 0.7838 0.0
C2551 C 0.20971 0.78317 0.80371 0.0
C2552 C 0.21685 0.77292 0.78891 0.0
C2553 C 0.21151 0.76511 0.75426 0.0
C2554 C 0.22553 0.79541 0.90249 0.0
C2555 C 0.22835 0.81301 0.90465 0.0
C2556 C 0.21982 0.78568 0.86959 0.0
C2557 C 0.21674 0.79338 0.83844 0.0
C2558 C 0.22027 0.81118 0.8405 0.0
C2559 C 0.22597 0.82082 0.87295 0.0
H2560 H 0.18782 0.40327 0.7193 0.0
H2561 H 0.2372 0.45289 0.74071 0.0
H2562 H 0.17757 0.40364 0.78073 0.0
H2563 H 0.2269 0.45312 0.80284 0.0
H2564 H 0.20679 0.43058 0.92335 0.0
H2565 H 0.21971 0.43615 0.86179 0.0
H2566 H 0.16745 0.42078 0.8167 0.0
H2567 H 0.15471 0.41496 0.87781 0.0
C2568 C 0.19645 0.4144 0.73695 0.0
C2569 C 0.21328 0.42817 0.72466 0.0
C2570 C 0.19054 0.41461 0.77231 0.0
C2571 C 0.20127 0.42858 0.79666 0.0
C2572 C 0.2183 0.44216 0.78483 0.0
C2573 C 0.22422 0.44198 0.74922 0.0
C2574 C 0.19833 0.4292 0.90028 0.0
C2575 C 0.17984 0.42266 0.90526 0.0
C2576 C 0.20565 0.4322 0.865 0.0
C2577 C 0.19454 0.42857 0.83421 0.0
C2578 C 0.17633 0.42335 0.83967 0.0
C2579 C 0.16907 0.42032 0.87471 0.0
H2580 H 0.099 0.2228 0.42616 0.0
H2581 H 0.07761 0.25376 0.47587 0.0
H2582 H 0.1055 0.21539 0.48702 0.0
H2583 H 0.08414 0.24671 0.5358 0.0
H2584 H 0.08789 0.22433 0.64213 0.0
H2585 H 0.0769 0.22383 0.58079 0.0
H2586 H 0.12718 0.23223 0.5364 0.0
H2587 H 0.13814 0.23255 0.59803 0.0
C2588 C 0.09517 0.22751 0.45005 0.0
C2589 C 0.08762 0.23868 0.44633 0.0
C2590 C 0.09912 0.22352 0.48486 0.0
C2591 C 0.09538 0.23047 0.51645 0.0
C2592 C 0.08698 0.24086 0.51237 0.0
C2593 C 0.08324 0.24494 0.47789 0.0
C2594 C 0.09661 0.22605 0.61932 0.0
C2595 C 0.11401 0.22876 0.62514 0.0
C2596 C 0.09029 0.22571 0.58407 0.0
C2597 C 0.10119 0.22817 0.55351 0.0
C2598 C 0.11832 0.2301 0.5592 0.0
C2599 C 0.12464 0.23037 0.59458 0.0
H2600 H 0.79011 0.90136 0.63719 0.0
H2601 H 0.73208 0.86865 0.64028 0.0
H2602 H 0.79009 0.89088 0.57506 0.0
H2603 H 0.73225 0.85785 0.57924 0.0
H2604 H 0.7389 0.82513 0.4934 0.0
H2605 H 0.74435 0.83811 0.55404 0.0
H2606 H 0.77723 0.89111 0.50856 0.0
H2607 H 0.77158 0.87792 0.44695 0.0
C2608 C 0.77735 0.89208 0.62469 0.0
C2609 C 0.7611 0.88568 0.64423 0.0
C2610 C 0.77739 0.88606 0.58911 0.0
C2611 C 0.76121 0.87335 0.57252 0.0
C2612 C 0.74499 0.86737 0.5916 0.0
C2613 C 0.74491 0.87351 0.62678 0.0
C2614 C 0.74775 0.83951 0.49631 0.0
C2615 C 0.75482 0.85052 0.46543 0.0
C2616 C 0.75072 0.84696 0.53106 0.0
C2617 C 0.76091 0.86565 0.536 0.0
C2618 C 0.76929 0.87664 0.50549 0.0
C2619 C 0.76622 0.86911 0.47031 0.0
H2620 H 0.08003 0.87302 0.60994 0.0
H2621 H 0.11884 0.85647 0.63538 0.0
H2622 H 0.08989 0.87751 0.54636 0.0
H2623 H 0.12923 0.86182 0.57293 0.0
H2624 H 0.13368 0.85503 0.45477 0.0
H2625 H 0.1199 0.84908 0.51451 0.0
H2626 H 0.11476 0.89656 0.50578 0.0
H2627 H 0.12818 0.9022 0.44472 0.0
C2628 C 0.09064 0.87033 0.60207 0.0
C2629 C 0.09863 0.86439 0.62802 0.0
C2630 C 0.09643 0.8731 0.56565 0.0
C2631 C 0.11029 0.86993 0.55425 0.0
C2632 C 0.1183 0.86411 0.58034 0.0
C2633 C 0.1125 0.8613 0.61651 0.0
C2634 C 0.12939 0.8641 0.46528 0.0
C2635 C 0.13214 0.87917 0.44505 0.0
C2636 C 0.12161 0.86077 0.49981 0.0
C2637 C 0.11655 0.87255 0.51554 0.0
C2638 C 0.11845 0.88717 0.49457 0.0
C2639 C 0.12613 0.89042 0.45957 0.0
H2640 H 0.43182 0.18735 0.45158 0.0
H2641 H 0.42684 0.23072 0.49892 0.0
H2642 H 0.43003 0.19788 0.39059 0.0
H2643 H 0.42546 0.24144 0.43841 0.0
H2644 H 0.39605 0.23811 0.33264 0.0
H2645 H 0.40365 0.23164 0.39186 0.0
H2646 H 0.44311 0.22086 0.34266 0.0
H2647 H 0.43493 0.22699 0.28217 0.0
C2648 C 0.43062 0.19929 0.44899 0.0
C2649 C 0.42916 0.20799 0.48027 0.0
C2650 C 0.42968 0.20539 0.41396 0.0
C2651 C 0.42739 0.22043 0.40931 0.0
C2652 C 0.42678 0.22957 0.4407 0.0
C2653 C 0.42756 0.22341 0.47555 0.0
C2654 C 0.40662 0.23469 0.33432 0.0
C2655 C 0.41494 0.23316 0.30257 0.0
C2656 C 0.41107 0.23104 0.36854 0.0
C2657 C 0.42406 0.22573 0.37242 0.0
C2658 C 0.43294 0.22479 0.34076 0.0
C2659 C 0.42847 0.22855 0.30613 0.0
H2660 H 0.79239 0.20135 0.47551 0.0
H2661 H 0.76139 0.22823 0.46341 0.0
H2662 H 0.78496 0.19028 0.41348 0.0
H2663 H 0.75439 0.21745 0.40049 0.0
H2664 H 0.76516 0.20766 0.27587 0.0
H2665 H 0.76963 0.21999 0.338 0.0
H2666 H 0.75669 0.16819 0.38159 0.0
H2667 H 0.75201 0.15597 0.32036 0.0
C2668 C 0.78386 0.20482 0.45982 0.0
C2669 C 0.77729 0.2155 0.47499 0.0
C2670 C 0.77967 0.19852 0.42407 0.0
C2671 C 0.7689 0.2028 0.40214 0.0
C2672 C 0.76275 0.21395 0.41667 0.0
C2673 C 0.76683 0.22015 0.45274 0.0
C2674 C 0.7628 0.19885 0.29885 0.0
C2675 C 0.75847 0.18091 0.29321 0.0
C2676 C 0.76546 0.20591 0.33437 0.0
C2677 C 0.7639 0.19516 0.36468 0.0
C2678 C 0.75844 0.17696 0.35887 0.0
C2679 C 0.7557 0.16995 0.32371 0.0
H2680 H 0.79108 0.59416 0.2885 0.0
H2681 H 0.80561 0.55291 0.29752 0.0
H2682 H 0.77777 0.58684 0.34893 0.0
H2683 H 0.79262 0.54574 0.35916 0.0
H2684 H 0.75691 0.5321 0.46383 0.0
H2685 H 0.76594 0.53485 0.3998 0.0
H2686 H 0.79132 0.59266 0.40823 0.0
H2687 H 0.78239 0.58995 0.47162 0.0
C2688 C 0.79103 0.5832 0.30326 0.0
C2689 C 0.79927 0.57403 0.28835 0.0
C2690 C 0.78362 0.57915 0.33812 0.0
C2691 C 0.7845 0.56599 0.35939 0.0
C2692 C 0.7917 0.55594 0.34354 0.0
C2693 C 0.79905 0.55994 0.30821 0.0
C2694 C 0.76449 0.5454 0.452 0.0
C2695 C 0.76871 0.5608 0.4729 0.0
C2696 C 0.76966 0.54695 0.41528 0.0
C2697 C 0.77913 0.56394 0.39859 0.0
C2698 C 0.7836 0.5793 0.41976 0.0
C2699 C 0.77846 0.57776 0.45627 0.0
H2700 H 0.91424 0.77077 0.74469 0.0
H2701 H 0.85848 0.72899 0.74515 0.0
H2702 H 0.90989 0.78077 0.68459 0.0
H2703 H 0.85411 0.73866 0.6859 0.0
H2704 H 0.84677 0.76383 0.58684 0.0
H2705 H 0.85288 0.76178 0.65091 0.0
H2706 H 0.9045 0.76783 0.62232 0.0
H2707 H 0.89841 0.76997 0.55816 0.0
C2708 C 0.90097 0.76412 0.73245 0.0
C2709 C 0.88667 0.7492 0.74954 0.0
C2710 C 0.8985 0.76966 0.69791 0.0
C2711 C 0.88164 0.76049 0.68028 0.0
C2712 C 0.8672 0.74623 0.69866 0.0
C2713 C 0.86971 0.74063 0.73266 0.0
C2714 C 0.85945 0.76478 0.59418 0.0
C2715 C 0.87198 0.76683 0.5672 0.0
C2716 C 0.86299 0.76367 0.63098 0.0
C2717 C 0.87914 0.76451 0.64186 0.0
C2718 C 0.89203 0.76736 0.61504 0.0
C2719 C 0.88849 0.76851 0.57818 0.0
H2720 H 0.22099 0.11781 0.57374 0.0
H2721 H 0.2341 0.0771 0.60432 0.0
H2722 H 0.22292 0.12677 0.6375 0.0
H2723 H 0.23571 0.08585 0.66808 0.0
H2724 H 0.26612 0.1282 0.75969 0.0
H2725 H 0.25786 0.11331 0.70081 0.0
H2726 H 0.20951 0.11718 0.7006 0.0
H2727 H 0.21789 0.13219 0.76032 0.0
C2728 C 0.22412 0.11066 0.5941 0.0
C2729 C 0.22756 0.09684 0.58385 0.0
C2730 C 0.225 0.11566 0.6307 0.0
C2731 C 0.2295 0.10705 0.65788 0.0
C2732 C 0.23232 0.09282 0.64777 0.0
C2733 C 0.23129 0.08773 0.61124 0.0
C2734 C 0.25352 0.12553 0.74748 0.0
C2735 C 0.24263 0.13133 0.76458 0.0
C2736 C 0.24874 0.11692 0.71375 0.0
C2737 C 0.23305 0.11408 0.6959 0.0
C2738 C 0.22174 0.11927 0.71362 0.0
C2739 C 0.22641 0.12768 0.74789 0.0
H2740 H 0.83468 0.072 0.7223 0.0
H2741 H 0.88585 0.11437 0.7613 0.0
H2742 H 0.84664 0.07646 0.66071 0.0
H2743 H 0.89783 0.11932 0.69915 0.0
H2744 H 0.9149 0.11986 0.57964 0.0
H2745 H 0.90592 0.10928 0.64229 0.0
H2746 H 0.8528 0.10104 0.62039 0.0
H2747 H 0.86152 0.11096 0.55815 0.0
C2748 C 0.84871 0.08187 0.7178 0.0
C2749 C 0.85935 0.09283 0.74648 0.0
C2750 C 0.8555 0.08461 0.68244 0.0
C2751 C 0.87304 0.09859 0.6748 0.0
C2752 C 0.88426 0.10845 0.70408 0.0
C2753 C 0.87747 0.10555 0.73974 0.0
C2754 C 0.90124 0.11555 0.58819 0.0
C2755 C 0.88895 0.11635 0.56391 0.0
C2756 C 0.89615 0.10961 0.62412 0.0
C2757 C 0.8786 0.10415 0.63635 0.0
C2758 C 0.86632 0.10478 0.61183 0.0
C2759 C 0.87141 0.11075 0.57618 0.0
H2760 H 0.26244 0.1289 0.07923 0.0
H2761 H 0.2053 0.10603 0.09714 0.0
H2762 H 0.2661 0.12188 0.14127 0.0
H2763 H 0.20919 0.09998 0.16053 0.0
H2764 H 0.22278 0.0743 0.26048 0.0
H2765 H 0.21592 0.08133 0.19975 0.0
H2766 H 0.26623 0.13175 0.20088 0.0
H2767 H 0.27324 0.12435 0.26008 0.0
C2768 C 0.2506 0.12235 0.09636 0.0
C2769 C 0.23355 0.11798 0.08284 0.0
C2770 C 0.25275 0.11858 0.13235 0.0
C2771 C 0.23798 0.11055 0.1563 0.0
C2772 C 0.22087 0.10611 0.14291 0.0
C2773 C 0.21868 0.10979 0.10662 0.0
C2774 C 0.23213 0.08699 0.24784 0.0
C2775 C 0.24859 0.0987 0.26474 0.0
C2776 C 0.22825 0.09104 0.21306 0.0
C2777 C 0.24072 0.10694 0.19491 0.0
C2778 C 0.25656 0.11912 0.2133 0.0
C2779 C 0.26051 0.11497 0.24748 0.0
H2780 H 0.86107 0.1295 0.24523 0.0
H2781 H 0.91821 0.14932 0.24957 0.0
H2782 H 0.85974 0.11765 0.18436 0.0
H2783 H 0.91698 0.13756 0.18777 0.0
H2784 H 0.90691 0.1391 0.06024 0.0
H2785 H 0.91049 0.14647 0.1252 0.0
H2786 H 0.86381 0.095 0.14879 0.0
H2787 H 0.86011 0.08771 0.08397 0.0
C2788 C 0.87329 0.13091 0.23339 0.0
C2789 C 0.88971 0.14016 0.25221 0.0
C2790 C 0.87253 0.12411 0.19849 0.0
C2791 C 0.88825 0.12668 0.18112 0.0
C2792 C 0.90465 0.13542 0.20042 0.0
C2793 C 0.90534 0.14196 0.23587 0.0
C2794 C 0.89748 0.12932 0.07933 0.0
C2795 C 0.88316 0.11285 0.06682 0.0
C2796 C 0.89966 0.13346 0.11659 0.0
C2797 C 0.88744 0.12132 0.1422 0.0
C2798 C 0.87342 0.10467 0.12977 0.0
C2799 C 0.87136 0.10045 0.09261 0.0
H2800 H 0.86416 0.73369 0.06431 0.0
H2801 H 0.89389 0.79173 0.07132 0.0
H2802 H 0.85335 0.73202 0.12605 0.0
H2803 H 0.88328 0.78993 0.1341 0.0
H2804 H 0.87172 0.76978 0.26059 0.0
H2805 H 0.88465 0.77695 0.19882 0.0
H2806 H 0.83211 0.74132 0.15367 0.0
H2807 H 0.81937 0.73435 0.21452 0.0
C2808 C 0.86834 0.74613 0.0789 0.0
C2809 C 0.87964 0.76286 0.06241 0.0
C2810 C 0.86219 0.74516 0.11442 0.0
C2811 C 0.86725 0.76087 0.1347 0.0
C2812 C 0.87916 0.77762 0.11905 0.0
C2813 C 0.88525 0.77861 0.08315 0.0
C2814 C 0.86292 0.76401 0.23731 0.0
C2815 C 0.84459 0.75141 0.24229 0.0
C2816 C 0.87031 0.76801 0.20205 0.0
C2817 C 0.85944 0.75937 0.17154 0.0
C2818 C 0.8409 0.74788 0.17667 0.0
C2819 C 0.83359 0.74397 0.21154 0.0
H2820 H 0.75122 0.53064 0.97588 0.0
H2821 H 0.8076 0.56928 0.96002 0.0
H2822 H 0.74509 0.53528 0.91282 0.0
H2823 H 0.80151 0.5733 0.89728 0.0
H2824 H 0.77936 0.59938 0.82216 0.0
H2825 H 0.78422 0.58872 0.87891 0.0
H2826 H 0.75234 0.53384 0.84199 0.0
H2827 H 0.74719 0.54473 0.78343 0.0
C2828 C 0.76234 0.53988 0.95889 0.0
C2829 C 0.77989 0.54975 0.97334 0.0
C2830 C 0.75883 0.54233 0.92265 0.0
C2831 C 0.77279 0.55476 0.90026 0.0
C2832 C 0.79045 0.56372 0.914 0.0
C2833 C 0.79395 0.5613 0.95001 0.0
C2834 C 0.77314 0.58499 0.82567 0.0
C2835 C 0.76276 0.57295 0.79788 0.0
C2836 C 0.77617 0.57889 0.85838 0.0
C2837 C 0.76892 0.56047 0.8648 0.0
C2838 C 0.75817 0.54817 0.83762 0.0
C2839 C 0.75524 0.55438 0.80418 0.0
H2840 H 0.43619 0.20676 0.78239 0.0
H2841 H 0.40169 0.15579 0.83436 0.0
H2842 H 0.44226 0.22177 0.84232 0.0
H2843 H 0.40756 0.17053 0.89321 0.0
H2844 H 0.39812 0.20387 0.97645 0.0
H2845 H 0.39717 0.19166 0.91631 0.0
H2846 H 0.45505 0.22307 0.90909 0.0
H2847 H 0.45617 0.23505 0.9703 0.0
C2848 C 0.4304 0.19872 0.80661 0.0
C2849 C 0.41843 0.18012 0.80369 0.0
C2850 C 0.43374 0.2073 0.84084 0.0
C2851 C 0.42506 0.19737 0.8724 0.0
C2852 C 0.41414 0.17864 0.86943 0.0
C2853 C 0.4109 0.17017 0.83567 0.0
C2854 C 0.41073 0.20811 0.96245 0.0
C2855 C 0.42724 0.22024 0.97888 0.0
C2856 C 0.41016 0.20115 0.92775 0.0
C2857 C 0.42606 0.20621 0.90807 0.0
C2858 C 0.44257 0.21893 0.92355 0.0
C2859 C 0.44317 0.22581 0.95864 0.0
H2860 H 0.83073 0.26221 0.82082 0.0
H2861 H 0.7789 0.22598 0.77378 0.0
H2862 H 0.81745 0.25577 0.88127 0.0
H2863 H 0.76538 0.21955 0.83471 0.0
H2864 H 0.7586 0.19195 0.94858 0.0
H2865 H 0.7678 0.20247 0.88634 0.0
H2866 H 0.79702 0.2573 0.92494 0.0
H2867 H 0.78836 0.24677 0.98724 0.0
C2868 C 0.81632 0.25337 0.82333 0.0
C2869 C 0.80585 0.24468 0.7925 0.0
C2870 C 0.80868 0.24963 0.85808 0.0
C2871 C 0.79036 0.23696 0.86302 0.0
C2872 C 0.77959 0.22921 0.83191 0.0
C2873 C 0.78725 0.23311 0.79694 0.0
C2874 C 0.76699 0.20626 0.94383 0.0
C2875 C 0.77283 0.21847 0.97312 0.0
C2876 C 0.77205 0.21232 0.90801 0.0
C2877 C 0.78315 0.23076 0.90051 0.0
C2878 C 0.78857 0.243 0.92969 0.0
C2879 C 0.78347 0.23695 0.96546 0.0
H2880 H 0.0315 0.47632 0.27132 0.0
H2881 H 0.97826 0.46914 0.25715 0.0
H2882 H 0.02789 0.47587 0.33703 0.0
H2883 H 0.97433 0.46786 0.32311 0.0
H2884 H 0.97882 0.4805 0.44562 0.0
H2885 H 0.9838 0.48458 0.37993 0.0
H2886 H 0.01113 0.45377 0.38267 0.0
H2887 H 0.00621 0.44975 0.44796 0.0
C2888 C 0.01906 0.4748 0.28215 0.0
C2889 C 0.00513 0.47263 0.25873 0.0
C2890 C 0.01689 0.4743 0.31997 0.0
C2891 C 0.00072 0.47158 0.33555 0.0
C2892 C 0.987 0.47003 0.31218 0.0
C2893 C 0.98918 0.47055 0.27428 0.0
C2894 C 0.98582 0.47453 0.43214 0.0
C2895 C 0.99214 0.46482 0.45222 0.0
C2896 C 0.98869 0.47688 0.39444 0.0
C2897 C -0.00206 0.46957 0.37586 0.0
C2898 C 0.00428 0.45992 0.39604 0.0
C2899 C 0.00144 0.45759 0.43361 0.0
H2900 H 0.52827 0.49371 0.42052 0.0
H2901 H 0.55223 0.55122 0.43235 0.0
H2902 H 0.5256 0.49663 0.35464 0.0
H2903 H 0.5495 0.5541 0.36702 0.0
H2904 H 0.56229 0.55468 0.24573 0.0
H2905 H 0.56367 0.55031 0.31097 0.0
H2906 H 0.50913 0.50579 0.30857 0.0
H2907 H 0.50775 0.51019 0.24285 0.0
C2908 C 0.53296 0.50695 0.40912 0.0
C2909 C 0.54043 0.52222 0.43187 0.0
C2910 C 0.5313 0.50862 0.37141 0.0
C2911 C 0.53739 0.52562 0.35544 0.0
C2912 C 0.54481 0.54082 0.37826 0.0
C2913 C 0.54623 0.53914 0.41585 0.0
C2914 C 0.55061 0.54388 0.25899 0.0
C2915 C 0.53492 0.53279 0.23894 0.0
C2916 C 0.55135 0.54146 0.29652 0.0
C2917 C 0.53649 0.52774 0.31516 0.0
C2918 C 0.52085 0.51643 0.29508 0.0
C2919 C 0.52001 0.51904 0.25748 0.0
H2920 H 0.44742 0.96619 0.2518 0.0
H2921 H 0.47507 0.02349 0.23256 0.0
H2922 H 0.4521 0.9716 0.3169 0.0
H2923 H 0.47878 0.02889 0.29784 0.0
H2924 H 0.49603 0.03399 0.41677 0.0
H2925 H 0.49368 0.0283 0.35135 0.0
H2926 H 0.44177 0.98075 0.36733 0.0
H2927 H 0.44433 0.98629 0.43257 0.0
C2928 C 0.45457 0.97998 0.2613 0.0
C2929 C 0.46075 0.99437 0.23649 0.0
C2930 C 0.45704 0.9831 0.29893 0.0
C2931 C 0.46569 0.00072 0.31314 0.0
C2932 C 0.47218 0.01512 0.28826 0.0
C2933 C 0.4698 0.012 0.25061 0.0
C2934 C 0.4841 0.02233 0.40631 0.0
C2935 C 0.4704 0.0106 0.43021 0.0
C2936 C 0.48271 0.01907 0.36863 0.0
C2937 C 0.46751 0.00402 0.35358 0.0
C2938 C 0.45387 0.99227 0.37761 0.0
C2939 C 0.45531 0.99548 0.41525 0.0
H2940 H 0.95706 0.53141 0.92687 0.0
H2941 H 0.00674 0.5305 0.93885 0.0
H2942 H 0.96079 0.53304 0.86111 0.0
H2943 H 0.01088 0.53294 0.87295 0.0
H2944 H 0.00465 0.52156 0.74977 0.0
H2945 H -0.00019 0.51746 0.81549 0.0
H2946 H 0.9791 0.5542 0.81573 0.0
H2947 H 0.98384 0.5582 0.75037 0.0
C2948 C 0.96875 0.53145 0.91554 0.0
C2949 C 0.9816 0.53085 0.93843 0.0
C2950 C 0.97101 0.53263 0.8777 0.0
C2951 C 0.98622 0.53328 0.86149 0.0
C2952 C -0.00107 0.53235 0.8843 0.0
C2953 C -0.00334 0.53117 0.92223 0.0
C2954 C -0.00088 0.52881 0.76391 0.0
C2955 C 0.99459 0.54017 0.74462 0.0
C2956 C -0.00364 0.52647 0.80165 0.0
C2957 C 0.989 0.53545 0.82113 0.0
C2958 C 0.98445 0.54676 0.80172 0.0
C2959 C 0.98718 0.54907 0.76409 0.0
H2960 H 0.44099 0.43925 0.76624 0.0
H2961 H 0.44162 0.48901 0.78842 0.0
H2962 H 0.44409 0.43543 0.83101 0.0
H2963 H 0.44426 0.48491 0.85356 0.0
H2964 H 0.46567 0.4796 0.96588 0.0
H2965 H 0.46454 0.48463 0.90061 0.0
H2966 H 0.42621 0.42819 0.88602 0.0
H2967 H 0.42768 0.42312 0.95084 0.0
C2968 C 0.44193 0.44948 0.78486 0.0
C2969 C 0.44105 0.46446 0.77182 0.0
C2970 C 0.4435 0.44717 0.82219 0.0
C2971 C 0.44432 0.45978 0.84779 0.0
C2972 C 0.44378 0.47495 0.83476 0.0
C2973 C 0.44209 0.47722 0.79734 0.0
C2974 C 0.45713 0.46823 0.9487 0.0
C2975 C 0.44675 0.45094 0.96384 0.0
C2976 C 0.45633 0.47115 0.91126 0.0
C2977 C 0.44528 0.45683 0.88781 0.0
C2978 C 0.43503 0.43954 0.90299 0.0
C2979 C 0.43572 0.43665 0.94037 0.0
H2980 H 0.51647 0.98874 0.9607 0.0
H2981 H 0.57249 0.00423 0.94878 0.0
H2982 H 0.51227 0.9838 0.89493 0.0
H2983 H 0.56821 -0.00112 0.88353 0.0
H2984 H 0.55984 0.0056 0.76395 0.0
H2985 H 0.56276 0.01141 0.82912 0.0
H2986 H 0.51156 0.96333 0.8469 0.0
H2987 H 0.50869 0.95736 0.78149 0.0
C2988 C 0.5279 0.99115 0.94409 0.0
C2989 C 0.54482 -0.00314 0.9602 0.0
C2990 C 0.52545 0.98814 0.90639 0.0
C2991 C 0.5399 0.99095 0.88374 0.0
C2992 C 0.55681 -0.00323 0.89991 0.0
C2993 C 0.55922 -0.00035 0.93751 0.0
C2994 C 0.54923 0.99614 0.78165 0.0
C2995 C 0.53412 0.98086 0.76718 0.0
C2996 C 0.55091 -0.00049 0.81917 0.0
C2997 C 0.53749 0.98777 0.8435 0.0
C2998 C 0.52211 0.97276 0.82904 0.0
C2999 C 0.52046 0.96934 0.79142 0.0
H3000 H 0.63796 0.79786 0.77345 0.0
H3001 H 0.68095 0.78569 0.78567 0.0
H3002 H 0.6434 0.80119 0.70784 0.0
H3003 H 0.68565 0.7882 0.72015 0.0
H3004 H 0.67074 0.77066 0.59972 0.0
H3005 H 0.66638 0.7698 0.66556 0.0
H3006 H 0.66898 0.82133 0.66111 0.0
H3007 H 0.67359 0.82228 0.59487 0.0
C3008 C 0.64866 0.79603 0.76243 0.0
C3009 C 0.65887 0.7913 0.78527 0.0
C3010 C 0.65171 0.79789 0.72471 0.0
C3011 C 0.66485 0.79481 0.7088 0.0
C3012 C 0.67524 0.79039 0.73154 0.0
C3013 C 0.67241 0.78881 0.76919 0.0
C3014 C 0.67035 0.7818 0.61277 0.0
C3015 C 0.6725 0.79654 0.59215 0.0
C3016 C 0.66796 0.78136 0.65049 0.0
C3017 C 0.66738 0.79551 0.66855 0.0
C3018 C 0.66931 0.8102 0.64793 0.0
C3019 C 0.67205 0.8108 0.61012 0.0
H3020 H 0.22813 0.85645 0.75658 0.0
H3021 H 0.21626 0.89926 0.77375 0.0
H3022 H 0.22341 0.85743 0.69139 0.0
H3023 H 0.21159 0.90028 0.70862 0.0
H3024 H 0.18884 0.88725 0.5932 0.0
H3025 H 0.19232 0.88496 0.65844 0.0
H3026 H 0.23632 0.87516 0.63806 0.0
H3027 H 0.2323 0.87663 0.57279 0.0
C3028 C 0.22463 0.86617 0.74652 0.0
C3029 C 0.22263 0.87779 0.77079 0.0
C3030 C 0.22192 0.86675 0.70894 0.0
C3031 C 0.21715 0.87898 0.69431 0.0
C3032 C 0.21497 0.89047 0.71864 0.0
C3033 C 0.21765 0.88988 0.75622 0.0
C3034 C 0.19913 0.88439 0.60249 0.0
C3035 C 0.21027 0.88214 0.57729 0.0
C3036 C 0.20129 0.88329 0.64014 0.0
C3037 C 0.21465 0.87991 0.65394 0.0
C3038 C 0.22574 0.87758 0.62874 0.0
C3039 C 0.22358 0.87868 0.5911 0.0
H3040 H 0.09526 0.3138 0.77123 0.0
H3041 H 0.14781 0.36028 0.75358 0.0
H3042 H 0.0922 0.30783 0.70609 0.0
H3043 H 0.14483 0.35397 0.68832 0.0
H3044 H 0.1388 0.32576 0.57682 0.0
H3045 H 0.14275 0.33122 0.64256 0.0
H3046 H 0.08852 0.322 0.6506 0.0
H3047 H 0.08453 0.31635 0.58526 0.0
C3048 C 0.10614 0.32285 0.75353 0.0
C3049 C 0.12172 0.33765 0.76791 0.0
C3050 C 0.10439 0.31936 0.7161 0.0
C3051 C 0.11822 0.33046 0.69191 0.0
C3052 C 0.13399 0.34504 0.70622 0.0
C3053 C 0.13569 0.34863 0.74371 0.0
C3054 C 0.1277 0.32477 0.59273 0.0
C3055 C 0.11135 0.32063 0.57578 0.0
C3056 C 0.13001 0.32806 0.63031 0.0
C3057 C 0.11595 0.32704 0.65188 0.0
C3058 C 0.09957 0.32273 0.63491 0.0
C3059 C 0.09733 0.31965 0.59738 0.0
H3060 H 0.67504 0.91081 0.0979 0.0
H3061 H 0.65457 0.85424 0.07806 0.0
H3062 H 0.67015 0.90499 0.16276 0.0
H3063 H 0.65043 0.84851 0.14348 0.0
H3064 H 0.62759 0.84246 0.25999 0.0
H3065 H 0.63226 0.84742 0.19454 0.0
H3066 H 0.68142 0.89741 0.21465 0.0
H3067 H 0.67632 0.89289 0.27982 0.0
C3068 C 0.66945 0.89709 0.10728 0.0
C3069 C 0.66511 0.88301 0.08238 0.0
C3070 C 0.66688 0.89377 0.14475 0.0
C3071 C 0.65994 0.87626 0.15873 0.0
C3072 C 0.65563 0.86215 0.13388 0.0
C3073 C 0.65821 0.86548 0.09627 0.0
C3074 C 0.63932 0.8546 0.25051 0.0
C3075 C 0.65152 0.86728 0.27555 0.0
C3076 C 0.64213 0.85734 0.21282 0.0
C3077 C 0.6572 0.87287 0.19897 0.0
C3078 C 0.6695 0.88541 0.22404 0.0
C3079 C 0.6667 0.88268 0.26164 0.0
H3080 H 0.08923 0.76918 0.28883 0.0
H3081 H 0.14579 0.80874 0.28361 0.0
H3082 H 0.08658 0.77216 0.22347 0.0
H3083 H 0.14326 0.81133 0.21792 0.0
H3084 H 0.12853 0.82376 0.10518 0.0
H3085 H 0.13079 0.82203 0.1712 0.0
H3086 H 0.09515 0.76455 0.16664 0.0
H3087 H 0.09245 0.76635 0.10101 0.0
C3088 C 0.10111 0.7786 0.27381 0.0
C3089 C 0.11774 0.78867 0.29172 0.0
C3090 C 0.09963 0.78016 0.23612 0.0
C3091 C 0.11472 0.79191 0.21507 0.0
C3092 C 0.1313 0.80222 0.23308 0.0
C3093 C 0.1328 0.80059 0.2708 0.0
C3094 C 0.12102 0.81076 0.11827 0.0
C3095 C 0.11032 0.7952 0.09746 0.0
C3096 C 0.12248 0.80974 0.1562 0.0
C3097 C 0.11317 0.79314 0.17455 0.0
C3098 C 0.10238 0.77761 0.15373 0.0
C3099 C 0.101 0.77862 0.11586 0.0
H3100 H 0.18608 0.32533 0.08116 0.0
H3101 H 0.23149 0.31668 0.08859 0.0
H3102 H 0.18743 0.33031 0.14688 0.0
H3103 H 0.23284 0.32164 0.15396 0.0
H3104 H 0.21918 0.31281 0.27413 0.0
H3105 H 0.21647 0.30756 0.20878 0.0
H3106 H 0.2057 0.35129 0.19462 0.0
H3107 H 0.20845 0.35658 0.26027 0.0
C3108 C 0.19643 0.32461 0.09671 0.0
C3109 C 0.20859 0.32046 0.07946 0.0
C3110 C 0.19721 0.32747 0.13445 0.0
C3111 C 0.21017 0.32627 0.15591 0.0
C3112 C 0.22242 0.3223 0.13854 0.0
C3113 C 0.22164 0.31944 0.10093 0.0
C3114 C 0.21636 0.32142 0.25713 0.0
C3115 C 0.21422 0.33525 0.27261 0.0
C3116 C 0.2148 0.3184 0.21954 0.0
C3117 C 0.21102 0.3291 0.19621 0.0
C3118 C 0.20845 0.34267 0.21172 0.0
C3119 C 0.21003 0.34571 0.24942 0.0
H3120 H 0.30574 0.11724 0.11662 0.0
H3121 H 0.33809 0.09169 0.12461 0.0
H3122 H 0.31026 0.11969 0.05068 0.0
H3123 H 0.3431 0.0947 0.05922 0.0
H3124 H 0.33358 0.08536 0.93731 0.0
H3125 H 0.32789 0.08272 1.0026 0.0
H3126 H 0.33278 0.13532 1.00374 0.0
H3127 H 0.33786 0.13769 0.93805 0.0
C3128 C 0.31381 0.11213 0.10442 0.0
C3129 C 0.32156 0.10429 0.12627 0.0
C3130 C 0.31657 0.11371 0.06654 0.0
C3131 C 0.32705 0.10738 0.04931 0.0
C3132 C 0.33477 0.09955 0.07122 0.0
C3133 C 0.33208 0.09803 0.10899 0.0
C3134 C 0.33326 0.09631 0.95131 0.0
C3135 C 0.33621 0.11175 0.93209 0.0
C3136 C 0.33019 0.09489 0.989 0.0
C3137 C 0.32994 0.10884 1.0088 0.0
C3138 C 0.33272 0.12422 0.98955 0.0
C3139 C 0.33586 0.12567 0.95182 0.0
H3140 H 0.83968 0.22317 0.94851 0.0
H3141 H 0.87474 0.20148 0.92712 0.0
H3142 H 0.84153 0.2188 1.01349 0.0
H3143 H 0.87562 0.19606 0.99169 0.0
H3144 H 0.89198 0.20907 0.11073 0.0
H3145 H 0.88865 0.21181 0.04571 0.0
H3146 H 0.83333 0.19817 0.06247 0.0
H3147 H 0.83691 0.19588 0.12791 0.0
C3148 C 0.84773 0.21739 0.9575 0.0
C3149 C 0.85718 0.21287 0.93215 0.0
C3150 C 0.84858 0.21463 0.99494 0.0
C3151 C 0.85885 0.20717 1.00826 0.0
C3152 C 0.86785 0.20216 0.9828 0.0
C3153 C 0.8671 0.20503 0.94545 0.0
C3154 C 0.87905 0.2065 0.10055 0.0
C3155 C 0.86473 0.20226 0.12467 0.0
C3156 C 0.87709 0.20801 0.06308 0.0
C3157 C 0.86068 0.20518 0.04841 0.0
C3158 C 0.84628 0.20076 0.07258 0.0
C3159 C 0.8483 0.1994 0.11019 0.0
H3160 H 0.79625 0.6368 0.93358 0.0
H3161 H 0.77729 0.67481 0.9257 0.0
H3162 H 0.80024 0.64204 0.99917 0.0
H3163 H 0.78114 0.67996 0.99098 0.0
H3164 H 0.80374 0.69753 0.10386 0.0
H3165 H 0.80298 0.69313 0.03831 0.0
H3166 H 0.78342 0.63649 0.05475 0.0
H3167 H 0.78501 0.64106 0.12046 0.0
C3168 C 0.79285 0.64621 0.94582 0.0
C3169 C 0.78647 0.65539 0.92419 0.0
C3170 C 0.79513 0.64922 0.9835 0.0
C3171 C 0.79106 0.66147 1.00061 0.0
C3172 C 0.78477 0.6707 0.97886 0.0
C3173 C 0.78254 0.66772 0.94127 0.0
C3174 C 0.79957 0.68418 0.09361 0.0
C3175 C 0.79432 0.66964 0.11769 0.0
C3176 C 0.7989 0.6816 0.05586 0.0
C3177 C 0.79293 0.6644 0.04097 0.0
C3178 C 0.78818 0.64995 0.06505 0.0
C3179 C 0.78887 0.65253 0.10285 0.0
H3180 H 0.36214 0.2196 0.44669 0.0
H3181 H 0.30582 0.20174 0.42984 0.0
H3182 H 0.35721 0.21687 0.51233 0.0
H3183 H 0.30108 0.19982 0.49534 0.0
H3184 H 0.29435 0.18172 0.61387 0.0
H3185 H 0.29941 0.18309 0.54839 0.0
H3186 H 0.35126 0.2309 0.5627 0.0
H3187 H 0.34622 0.22947 0.62818 0.0
C3188 C 0.34868 0.21503 0.45687 0.0
C3189 C 0.33442 0.21097 0.43265 0.0
C3190 C 0.34589 0.21368 0.49468 0.0
C3191 C 0.32874 0.2082 0.50947 0.0
C3192 C 0.31445 0.20392 0.4852 0.0
C3193 C 0.31723 0.20526 0.44745 0.0
C3194 C 0.30678 0.19263 0.60309 0.0
C3195 C 0.31983 0.2055 0.6266 0.0
C3196 C 0.3097 0.19342 0.56538 0.0
C3197 C 0.32576 0.20713 0.54991 0.0
C3198 C 0.33885 0.21996 0.57345 0.0
C3199 C 0.33593 0.21915 0.61116 0.0
H3200 H 0.80459 0.14707 0.60813 0.0
H3201 H 0.80318 0.09674 0.58827 0.0
H3202 H 0.8014 0.15028 0.54301 0.0
H3203 H 0.80019 0.10006 0.52326 0.0
H3204 H 0.80926 0.11814 0.40459 0.0
H3205 H 0.81531 0.11732 0.46922 0.0
H3206 H 0.77884 0.1367 0.49541 0.0
H3207 H 0.77269 0.13741 0.43086 0.0
C3208 C 0.80356 0.13664 0.58999 0.0
C3209 C 0.80405 0.12157 0.60384 0.0
C3210 C 0.80175 0.1385 0.55251 0.0
C3211 C 0.80044 0.1254 0.52765 0.0
C3212 C 0.80139 0.11057 0.54138 0.0
C3213 C 0.80314 0.10867 0.57885 0.0
C3214 C 0.80242 0.12212 0.42409 0.0
C3215 C 0.79032 0.12768 0.41224 0.0
C3216 C 0.80593 0.12167 0.46127 0.0
C3217 C 0.7975 0.12683 0.48779 0.0
C3218 C 0.78576 0.13282 0.4759 0.0
C3219 C 0.78222 0.13323 0.43872 0.0
H3220 H 0.8646 0.68812 0.60152 0.0
H3221 H 0.87516 0.64417 0.61401 0.0
H3222 H 0.86285 0.68385 0.53563 0.0
H3223 H 0.87278 0.63951 0.54841 0.0
H3224 H 0.8883 0.64935 0.42817 0.0
H3225 H 0.88932 0.65361 0.49382 0.0
H3226 H 0.84483 0.6637 0.4868 0.0
H3227 H 0.84419 0.65998 0.42072 0.0
C3228 C 0.86653 0.67753 0.59031 0.0
C3229 C 0.87009 0.66655 0.61336 0.0
C3230 C 0.86532 0.67494 0.55243 0.0
C3231 C 0.86773 0.66136 0.53644 0.0
C3232 C 0.87108 0.65026 0.55954 0.0
C3233 C 0.87223 0.65281 0.59736 0.0
C3234 C 0.87883 0.65265 0.44048 0.0
C3235 C 0.86621 0.65437 0.4189 0.0
C3236 C 0.87927 0.65488 0.47834 0.0
C3237 C 0.86712 0.65895 0.4959 0.0
C3238 C 0.85451 0.66073 0.47433 0.0
C3239 C 0.85401 0.6584 0.4364 0.0
H3240 H 0.05564 0.52773 0.10597 0.0
H3241 H 0.01732 0.51493 1.01905 0.0
H3242 H 0.03132 0.51769 0.15073 0.0
H3243 H 0.99333 0.50616 0.0633 0.0
H3244 H 0.95173 0.46561 0.12846 0.0
H3245 H 0.98009 0.47843 0.09587 0.0
H3246 H 0.00596 0.51749 0.18185 0.0
H3247 H 0.97753 0.50335 0.21596 0.0
C3248 C 0.04214 0.52356 0.09661 0.0
C3249 C 0.0381 0.52154 0.05927 0.0
C3250 C 0.02822 0.51774 0.12219 0.0
C3251 C 0.0103 0.51017 0.11035 0.0
C3252 C 0.0069 0.51103 0.07315 0.0
C3253 C 0.02065 0.51639 0.04778 0.0
C3254 C 0.96369 0.47637 0.14112 0.0
C3255 C 0.96251 0.48391 0.174 0.0
C3256 C 0.97983 0.48404 0.12213 0.0
C3257 C 0.99492 0.49974 0.13521 0.0
C3258 C 0.99441 0.50574 0.17059 0.0
C3259 C 0.97821 0.49764 0.19017 0.0
H3260 H 0.48854 0.50797 1.00445 0.0
H3261 H 0.46608 0.52789 0.08475 0.0
H3262 H 0.49506 0.49224 0.05162 0.0
H3263 H 0.47389 0.51357 0.13256 0.0
H3264 H 0.48109 0.4752 0.20755 0.0
H3265 H 0.47188 0.49028 0.16443 0.0
H3266 H 0.5169 0.50035 0.09517 0.0
H3267 H 0.5251 0.48376 0.13748 0.0
C3268 C 0.48452 0.50846 0.0322 0.0
C3269 C 0.47704 0.51917 0.04132 0.0
C3270 C 0.48863 0.49985 0.05941 0.0
C3271 C 0.48576 0.50225 0.0962 0.0
C3272 C 0.47643 0.51143 0.10468 0.0
C3273 C 0.47184 0.51961 0.07726 0.0
C3274 C 0.48925 0.48106 0.18345 0.0
C3275 C 0.50342 0.47795 0.17507 0.0
C3276 C 0.48397 0.48972 0.1586 0.0
C3277 C 0.49307 0.49576 0.12531 0.0
C3278 C 0.50889 0.49487 0.11954 0.0
C3279 C 0.51396 0.48585 0.14418 0.0
H3280 H 0.51261 0.04122 0.13852 0.0
H3281 H 0.52071 0.00579 0.20934 0.0
H3282 H 0.49559 0.01628 0.09677 0.0
H3283 H 0.50556 0.9815 0.16669 0.0
H3284 H 0.47252 0.93804 0.08486 0.0
H3285 H 0.48433 0.96006 0.13324 0.0
H3286 H 0.5033 0.00281 0.05314 0.0
H3287 H 0.48966 0.98043 1.00542 0.0
C3288 C 0.5103 0.02797 0.14554 0.0
C3289 C 0.51828 0.02539 0.17639 0.0
C3290 C 0.50105 0.01377 0.12117 0.0
C3291 C 0.50015 -0.00294 0.12702 0.0
C3292 C 0.50608 0.99407 0.16055 0.0
C3293 C 0.51483 0.00807 0.18522 0.0
C3294 C 0.47965 0.95218 0.07774 0.0
C3295 C 0.48 0.95767 0.04176 0.0
C3296 C 0.48644 0.96492 0.10552 0.0
C3297 C 0.49429 0.9834 0.09752 0.0
C3298 C 0.49657 0.98876 0.06078 0.0
C3299 C 0.48923 0.97599 0.03319 0.0
H3300 H 0.46724 0.94796 0.57848 0.0
H3301 H 0.50478 0.9757 0.4917 0.0
H3302 H 0.47954 0.97574 0.61315 0.0
H3303 H 0.51867 0.00319 0.52765 0.0
H3304 H 0.52956 0.05301 0.59273 0.0
H3305 H 0.51883 0.02703 0.55379 0.0
H3306 H 0.50426 0.99278 0.64899 0.0
H3307 H 0.51364 0.01908 0.68794 0.0
C3308 C 0.47792 0.96023 0.56658 0.0
C3309 C 0.48525 0.95987 0.53275 0.0
C3310 C 0.48537 0.97602 0.58684 0.0
C3311 C 0.50071 0.99158 0.57415 0.0
C3312 C 0.50697 0.99152 0.53865 0.0
C3313 C 0.49902 0.97581 0.51782 0.0
C3314 C 0.52451 0.03993 0.60531 0.0
C3315 C 0.52206 0.03788 0.64314 0.0
C3316 C 0.51835 0.02496 0.58291 0.0
C3317 C 0.51006 0.00764 0.59803 0.0
C3318 C 0.50981 0.00586 0.63631 0.0
C3319 C 0.51561 0.02092 0.65879 0.0
H3320 H 0.97879 0.48073 0.71545 0.0
H3321 H 0.94463 0.48619 0.63648 0.0
H3322 H 0.00459 0.49742 0.67687 0.0
H3323 H 0.9709 0.50461 0.59859 0.0
H3324 H 0.00933 0.50934 0.5135 0.0
H3325 H 0.98588 0.49609 0.55942 0.0
H3326 H 0.02665 0.51847 0.64372 0.0
H3327 H 0.04986 0.52968 0.59745 0.0
C3328 C 0.97706 0.48646 0.69052 0.0
C3329 C 0.95978 0.48174 0.67812 0.0
C3330 C 0.99192 0.49606 0.66815 0.0
C3331 C 0.98973 0.50147 0.63334 0.0
C3332 C 0.97286 0.49958 0.62416 0.0
C3333 C 0.95785 0.48951 0.64628 0.0
C3334 C 0.01315 0.51066 0.54195 0.0
C3335 C 0.03124 0.52068 0.55221 0.0
C3336 C -0.00027 0.5036 0.56838 0.0
C3337 C 0.00419 0.50709 0.60555 0.0
C3338 C 0.0225 0.51564 0.61557 0.0
C3339 C 0.03591 0.52205 0.58903 0.0
H3340 H 0.51393 0.46292 0.61265 0.0
H3341 H 0.51578 0.49354 0.70733 0.0
H3342 H 0.49744 0.47459 0.57944 0.0
H3343 H 0.50102 0.5068 0.67342 0.0
H3344 H 0.4619 0.51715 0.61091 0.0
H3345 H 0.47663 0.50488 0.64665 0.0
H3346 H 0.5029 0.50043 0.54957 0.0
H3347 H 0.48627 0.51115 0.51291 0.0
C3348 C 0.51038 0.47189 0.62651 0.0
C3349 C 0.51606 0.47743 0.66231 0.0
C3350 C 0.50141 0.47899 0.60722 0.0
C3351 C 0.49845 0.4922 0.6231 0.0
C3352 C 0.50297 0.49666 0.66007 0.0
C3353 C 0.51138 0.48902 0.67975 0.0
C3354 C 0.47104 0.51378 0.59718 0.0
C3355 C 0.47274 0.51475 0.55911 0.0
C3356 C 0.47963 0.50682 0.61786 0.0
C3357 C 0.49076 0.50127 0.60114 0.0
C3358 C 0.49388 0.50392 0.56324 0.0
C3359 C 0.48474 0.51045 0.54222 0.0
H3360 H 0.62284 0.79371 0.47357 0.0
H3361 H 0.64688 0.837 0.55151 0.0
H3362 H 0.65098 0.80671 0.44 0.0
H3363 H 0.67485 0.85105 0.51606 0.0
H3364 H 0.72476 0.86145 0.4402 0.0
H3365 H 0.70112 0.85137 0.48659 0.0
H3366 H 0.66094 0.833 0.40158 0.0
H3367 H 0.68438 0.84211 0.35582 0.0
C3368 C 0.6344 0.80573 0.48409 0.0
C3369 C 0.63273 0.81466 0.51433 0.0
C3370 C 0.65037 0.81342 0.46451 0.0
C3371 C 0.66465 0.83046 0.47423 0.0
C3372 C 0.66385 0.83815 0.50745 0.0
C3373 C 0.64791 0.83009 0.52777 0.0
C3374 C 0.71088 0.8558 0.43163 0.0
C3375 C 0.70617 0.85207 0.39475 0.0
C3376 C 0.69738 0.84994 0.45812 0.0
C3377 C 0.67921 0.84052 0.44762 0.0
C3378 C 0.67484 0.83937 0.41046 0.0
C3379 C 0.68821 0.84488 0.38422 0.0
H3380 H 0.17423 0.85127 0.3199 0.0
H3381 H 0.12913 0.8376 0.39101 0.0
H3382 H 0.18578 0.83772 0.36189 0.0
H3383 H 0.14015 0.82315 0.43274 0.0
H3384 H 0.1946 0.80118 0.44123 0.0
H3385 H 0.1853 0.81434 0.39345 0.0
H3386 H 0.1641 0.83534 0.47486 0.0
H3387 H 0.17148 0.82016 0.52207 0.0
C3388 C 0.16634 0.84452 0.34385 0.0
C3389 C 0.15109 0.84575 0.35292 0.0
C3390 C 0.17302 0.83686 0.36807 0.0
C3391 C 0.16436 0.83014 0.40151 0.0
C3392 C 0.14763 0.82909 0.40798 0.0
C3393 C 0.141 0.83688 0.38373 0.0
C3394 C 0.18837 0.80902 0.44885 0.0
C3395 C 0.18303 0.80913 0.48484 0.0
C3396 C 0.18298 0.81654 0.42146 0.0
C3397 C 0.17308 0.82508 0.43025 0.0
C3398 C 0.17076 0.82794 0.46708 0.0
C3399 C 0.17538 0.81968 0.49421 0.0
H3400 H 0.19087 0.33755 0.52448 0.0
H3401 H 0.17094 0.36927 0.47232 0.0
H3402 H 0.17311 0.31269 0.48347 0.0
H3403 H 0.15227 0.34396 0.4323 0.0
H3404 H 0.12935 0.26772 0.41258 0.0
H3405 H 0.14526 0.28991 0.4602 0.0
H3406 H 0.16104 0.33264 0.38131 0.0
H3407 H 0.14417 0.3104 0.3345 0.0
C3408 C 0.18212 0.3389 0.50501 0.0
C3409 C 0.18251 0.35534 0.50072 0.0
C3410 C 0.17194 0.32466 0.48155 0.0
C3411 C 0.16185 0.32664 0.45381 0.0
C3412 C 0.16056 0.34238 0.45253 0.0
C3413 C 0.17093 0.35673 0.4758 0.0
C3414 C 0.1367 0.28185 0.4054 0.0
C3415 C 0.13559 0.28753 0.37025 0.0
C3416 C 0.14567 0.29456 0.43264 0.0
C3417 C 0.15383 0.31303 0.42472 0.0
C3418 C 0.1542 0.31852 0.38856 0.0
C3419 C 0.14494 0.30585 0.36161 0.0
H3420 H 0.13522 0.29042 0.88589 0.0
H3421 H 0.18582 0.3227 0.83047 0.0
H3422 H 0.14249 0.31536 0.92746 0.0
H3423 H 0.19365 0.34718 0.87306 0.0
H3424 H 0.19305 0.39222 0.94197 0.0
H3425 H 0.18851 0.3697 0.89634 0.0
H3426 H 0.16262 0.32784 0.97736 0.0
H3427 H 0.16623 0.35038 1.02208 0.0
C3428 C 0.1477 0.30299 0.88219 0.0
C3429 C 0.1601 0.30468 0.85555 0.0
C3430 C 0.15208 0.31712 0.9064 0.0
C3431 C 0.16899 0.33297 0.90443 0.0
C3432 C 0.18061 0.33514 0.87556 0.0
C3433 C 0.17612 0.32113 0.85115 0.0
C3434 C 0.18699 0.37826 0.95014 0.0
C3435 C 0.17985 0.37285 0.98514 0.0
C3436 C 0.18425 0.36532 0.92402 0.0
C3437 C 0.17458 0.34692 0.93295 0.0
C3438 C 0.16939 0.34184 0.96926 0.0
C3439 C 0.17179 0.35472 0.99506 0.0
H3440 H 0.70501 0.84796 0.91319 0.0
H3441 H 0.67023 0.86117 0.85197 0.0
H3442 H 0.68102 0.83184 0.95726 0.0
H3443 H 0.64718 0.84729 0.89766 0.0
H3444 H 0.60275 0.80587 0.97017 0.0
H3445 H 0.62535 0.82393 0.92556 0.0
H3446 H 0.66712 0.83589 1.0054 0.0
H3447 H 0.64423 0.81568 0.04795 0.0
C3448 C 0.69215 0.84723 0.90908 0.0
C3449 C 0.68947 0.85597 0.87971 0.0
C3450 C 0.67853 0.83849 0.93487 0.0
C3451 C 0.66227 0.83886 0.93219 0.0
C3452 C 0.65934 0.84658 0.90112 0.0
C3453 C 0.67264 0.85464 0.8748 0.0
C3454 C 0.61678 0.81275 0.97815 0.0
C3455 C 0.62193 0.80904 1.01159 0.0
C3456 C 0.62987 0.82321 0.95264 0.0
C3457 C 0.64831 0.83083 0.9611 0.0
C3458 C 0.65317 0.82941 0.99703 0.0
C3459 C 0.64007 0.81825 1.02184 0.0
H3460 H 0.13481 0.8621 0.90909 0.0
H3461 H 0.14215 0.83437 0.81849 0.0
H3462 H 0.15586 0.85791 0.94467 0.0
H3463 H 0.16478 0.83114 0.85358 0.0
H3464 H 0.18086 0.805 0.94607 0.0
H3465 H 0.16398 0.81284 0.90299 0.0
H3466 H 0.18395 0.86411 0.9575 0.0
H3467 H 0.19849 0.8553 1.00225 0.0
C3468 C 0.14178 0.85591 0.89622 0.0
C3469 C 0.13698 0.84852 0.86135 0.0
C3470 C 0.15394 0.85348 0.91661 0.0
C3471 C 0.16197 0.84399 0.9022 0.0
C3472 C 0.1585 0.83815 0.86572 0.0
C3473 C 0.14593 0.84035 0.84532 0.0
C3474 C 0.18104 0.81764 0.94919 0.0
C3475 C 0.19081 0.82953 0.97741 0.0
C3476 C 0.17182 0.82237 0.92407 0.0
C3477 C 0.17264 0.83918 0.92662 0.0
C3478 C 0.18255 0.8509 0.95502 0.0
C3479 C 0.191 0.84588 0.98068 0.0
H3480 H 0.28273 0.12459 0.82385 0.0
H3481 H 0.31456 0.17542 0.87868 0.0
H3482 H 0.30877 0.13081 0.78615 0.0
H3483 H 0.33987 0.18236 0.83977 0.0
H3484 H 0.38593 0.18749 0.77109 0.0
H3485 H 0.36282 0.17892 0.81749 0.0
H3486 H 0.32172 0.14987 0.73623 0.0
H3487 H 0.34511 0.15691 0.69108 0.0
C3488 C 0.29543 0.13682 0.82843 0.0
C3489 C 0.29671 0.14969 0.85343 0.0
C3490 C 0.31021 0.14061 0.80644 0.0
C3491 C 0.32619 0.15742 0.80896 0.0
C3492 C 0.32786 0.16933 0.83684 0.0
C3493 C 0.3133 0.16538 0.85913 0.0
C3494 C 0.37191 0.17956 0.76323 0.0
C3495 C 0.36713 0.17266 0.72793 0.0
C3496 C 0.35865 0.17456 0.78977 0.0
C3497 C 0.34038 0.16324 0.78086 0.0
C3498 C 0.33566 0.15791 0.74445 0.0
C3499 C 0.34896 0.16233 0.71834 0.0
H3500 H 0.80658 0.19853 0.77402 0.0
H3501 H 0.81588 0.17666 0.67592 0.0
H3502 H 0.81835 0.18356 0.81031 0.0
H3503 H 0.82606 0.15968 0.71278 0.0
H3504 H 0.86449 0.15034 0.7768 0.0
H3505 H 0.85133 0.16524 0.7431 0.0
H3506 H 0.81922 0.16112 0.83772 0.0
H3507 H 0.83429 0.1484 0.87218 0.0
C3508 C 0.81043 0.18974 0.76036 0.0
C3509 C 0.8107 0.18898 0.72222 0.0
C3510 C 0.81717 0.18101 0.78133 0.0
C3511 C 0.82377 0.17072 0.76472 0.0
C3512 C 0.8219 0.16817 0.72655 0.0
C3513 C 0.81561 0.17746 0.70532 0.0
C3514 C 0.85523 0.15348 0.79066 0.0
C3515 C 0.85029 0.14823 0.82686 0.0
C3516 C 0.84719 0.16146 0.77105 0.0
C3517 C 0.83352 0.16375 0.78688 0.0
C3518 C 0.82961 0.15965 0.82419 0.0
C3519 C 0.83829 0.15238 0.84422 0.0
H3520 H 0.8509 0.67507 0.88642 0.0
H3521 H 0.83325 0.70155 0.81098 0.0
H3522 H 0.83679 0.64792 0.84877 0.0
H3523 H 0.81819 0.67437 0.77477 0.0
H3524 H 0.8189 0.64178 0.68764 0.0
H3525 H 0.83302 0.6645 0.73472 0.0
H3526 H 0.81303 0.62286 0.81686 0.0
H3527 H 0.8006 0.60005 0.76879 0.0
C3528 C 0.84315 0.67471 0.86285 0.0
C3529 C 0.84351 0.69039 0.85072 0.0
C3530 C 0.83519 0.65923 0.84115 0.0
C3531 C 0.82731 0.65941 0.80771 0.0
C3532 C 0.82506 0.67417 0.79934 0.0
C3533 C 0.83322 0.68958 0.82057 0.0
C3534 C 0.81826 0.63752 0.71563 0.0
C3535 C 0.80824 0.61935 0.72501 0.0
C3536 C 0.82592 0.65048 0.74273 0.0
C3537 C 0.823 0.64545 0.77966 0.0
C3538 C 0.81503 0.62715 0.78872 0.0
C3539 C 0.80796 0.61411 0.76127 0.0
H3540 H 0.79278 0.61997 0.22309 0.0
H3541 H 0.83868 0.64645 0.15176 0.0
H3542 H 0.80313 0.64778 0.25693 0.0
H3543 H 0.84987 0.67421 0.18726 0.0
H3544 H 0.85686 0.7226 0.2632 0.0
H3545 H 0.84739 0.69953 0.21563 0.0
H3546 H 0.82851 0.65842 0.29869 0.0
H3547 H 0.83714 0.68126 0.34556 0.0
C3548 C 0.80473 0.63201 0.21382 0.0
C3549 C 0.81512 0.63114 0.18543 0.0
C3550 C 0.81088 0.64781 0.23359 0.0
C3551 C 0.82779 0.6628 0.22587 0.0
C3552 C 0.83696 0.66272 0.19421 0.0
C3553 C 0.83053 0.64689 0.17382 0.0
C3554 C 0.85118 0.70865 0.27108 0.0
C3555 C 0.84739 0.70352 0.30777 0.0
C3556 C 0.84566 0.69547 0.24393 0.0
C3557 C 0.83649 0.67717 0.25349 0.0
C3558 C 0.83483 0.67239 0.29047 0.0
C3559 C 0.84005 0.68544 0.31735 0.0
H3560 H 0.3448 0.17644 0.1863 0.0
H3561 H 0.3876 0.19217 0.26461 0.0
H3562 H 0.32269 0.15877 0.23275 0.0
H3563 H 0.36552 0.17566 0.31195 0.0
H3564 H 0.31967 0.12842 0.37497 0.0
H3565 H 0.34394 0.14725 0.33385 0.0
H3566 H 0.31015 0.16558 0.28428 0.0
H3567 H 0.28537 0.14569 0.32441 0.0
C3568 C 0.34941 0.1757 0.21337 0.0
C3569 C 0.36772 0.18544 0.22216 0.0
C3570 C 0.3368 0.16601 0.24013 0.0
C3571 C 0.34234 0.16636 0.27626 0.0
C3572 C 0.36083 0.17516 0.28438 0.0
C3573 C 0.37349 0.18448 0.25731 0.0
C3574 C 0.31759 0.13678 0.35574 0.0
C3575 C 0.30065 0.13539 0.352 0.0
C3576 C 0.33151 0.14762 0.33227 0.0
C3577 C 0.32876 0.15744 0.30509 0.0
C3578 C 0.31239 0.15758 0.30415 0.0
C3579 C 0.29833 0.14651 0.32744 0.0
H3580 H 0.83346 0.12766 0.32043 0.0
H3581 H 0.84906 0.17165 0.39539 0.0
H3582 H 0.81718 0.13842 0.28413 0.0
H3583 H 0.83367 0.18333 0.35767 0.0
H3584 H 0.79884 0.19491 0.27362 0.0
H3585 H 0.80957 0.18372 0.32346 0.0
H3586 H 0.83252 0.16339 0.2446 0.0
H3587 H 0.82078 0.17343 0.19549 0.0
C3588 C 0.83267 0.13921 0.33001 0.0
C3589 C 0.84295 0.14923 0.35973 0.0
C3590 C 0.82375 0.14567 0.30877 0.0
C3591 C 0.82519 0.16237 0.31677 0.0
C3592 C 0.83275 0.17068 0.35024 0.0
C3593 C 0.84149 0.16396 0.37195 0.0
C3594 C 0.80659 0.18843 0.26721 0.0
C3595 C 0.80871 0.1846 0.23095 0.0
C3596 C 0.81263 0.18194 0.29568 0.0
C3597 C 0.82103 0.17182 0.28793 0.0
C3598 C 0.82514 0.1702 0.25152 0.0
C3599 C 0.81882 0.1763 0.22332 0.0
loop_
_geom_bond_atom_site_label_1
_geom_bond_atom_site_label_2
_geom_bond_distance
_geom_bond_site_symmetry_2
_ccdc_geom_bond_type
Nd0 C2 2.836 . S
Nd0 O20 2.500 . S
Nd0 O21 2.492 . S
Nd0 O22 2.487 . S
Nd0 O23 2.682 1_554 S
Nd0 O24 2.410 . S
Nd0 O29 2.414 . S
Nd0 O31 2.424 1_554 S
Nd1 C11 2.836 . S
Nd1 O23 2.414 . S
Nd1 O25 2.424 1_556 S
Nd1 O26 2.500 . S
Nd1 O27 2.492 . S
Nd1 O28 2.487 . S
Nd1 O29 2.682 1_556 S
Nd1 O30 2.410 . S
C2 Nd0 2.836 . S
C2 C3 1.498 . S
C2 O20 1.258 . S
C2 O21 1.239 . S
C3 C2 1.498 . S
C3 C4 1.366 . S
C3 C8 1.407 . S
C4 C3 1.366 . S
C4 C5 1.392 . S
C4 H32 0.930 . S
C5 C4 1.392 . S
C5 C6 1.398 . S
C5 H33 0.929 . S
C6 C5 1.398 . S
C6 C7 1.352 . S
C7 C6 1.352 . S
C7 C8 1.384 . S
C7 H34 0.930 . S
C8 C3 1.407 . S
C8 C7 1.384 . S
C8 H35 0.929 . S
C9 O22 1.241 . S
C9 O23 1.273 1_554 S
C10 O24 1.251 . S
C10 O25 1.268 . S
C11 Nd1 2.836 . S
C11 C12 1.498 . S
C11 O26 1.258 . S
C11 O27 1.239 . S
C12 C11 1.498 . S
C12 C13 1.366 . S
C12 C17 1.407 . S
C13 C12 1.366 . S
C13 C14 1.392 . S
C13 H36 0.930 . S
C14 C13 1.392 . S
C14 C15 1.398 . S
C14 H37 0.929 . S
C15 C14 1.398 . S
C15 C16 1.352 . S
C16 C15 1.352 . S
C16 C17 1.384 . S
C16 H38 0.930 . S
C17 C12 1.407 . S
C17 C16 1.384 . S
C17 H39 0.929 . S
C18 O28 1.241 1_554 S
C18 O29 1.273 . S
C19 O30 1.251 . S
C19 O31 1.268 . S
O20 Nd0 2.500 . S
O20 C2 1.258 . S
O21 Nd0 2.492 . S
O21 C2 1.239 . S
O22 Nd0 2.487 . S
O22 C9 1.241 . S
O23 Nd0 2.682 1_556 S
O23 Nd1 2.414 . S
O23 C9 1.273 1_556 S
O24 Nd0 2.410 . S
O24 C10 1.251 . S
O25 Nd1 2.424 1_554 S
O25 C10 1.268 . S
O26 Nd1 2.500 . S
O26 C11 1.258 . S
O27 Nd1 2.492 . S
O27 C11 1.239 . S
O28 Nd1 2.487 . S
O28 C18 1.241 1_556 S
O29 Nd0 2.414 . S
O29 Nd1 2.682 1_554 S
O29 C18 1.273 . S
O30 Nd1 2.410 . S
O30 C19 1.251 . S
O31 Nd0 2.424 1_556 S
O31 C19 1.268 . S
H32 C4 0.930 . S
H33 C5 0.929 . S
H34 C7 0.930 . S
H35 C8 0.929 . S
H36 C13 0.930 . S
H37 C14 0.929 . S
H38 C16 0.930 . S
H39 C17 0.929 . S
Nd40 C42 2.836 . S
Nd40 O60 2.500 . S
Nd40 O61 2.492 . S
Nd40 O62 2.487 . S
Nd40 O63 2.682 1_554 S
Nd40 O64 2.410 . S
Nd40 O69 2.414 . S
Nd40 O71 2.424 1_554 S
Nd41 C51 2.836 . S
Nd41 O63 2.414 . S
Nd41 O65 2.424 1_556 S
Nd41 O66 2.500 . S
Nd41 O67 2.492 . S
Nd41 O68 2.487 . S
Nd41 O69 2.682 1_556 S
Nd41 O70 2.410 . S
C42 Nd40 2.836 . S
C42 C43 1.498 . S
C42 O60 1.258 . S
C42 O61 1.239 . S
C43 C42 1.498 . S
C43 C44 1.366 . S
C43 C48 1.407 . S
C44 C43 1.366 . S
C44 C45 1.392 . S
C44 H72 0.930 . S
C45 C44 1.392 . S
C45 C46 1.398 . S
C45 H73 0.929 . S
C46 C45 1.398 . S
C46 C47 1.352 . S
C47 C46 1.352 . S
C47 C48 1.384 . S
C47 H74 0.930 . S
C48 C43 1.407 . S
C48 C47 1.384 . S
C48 H75 0.929 . S
C49 O62 1.241 . S
C49 O63 1.273 1_554 S
C50 O64 1.251 . S
C50 O65 1.268 . S
C51 Nd41 2.836 . S
C51 C52 1.498 . S
C51 O66 1.258 . S
C51 O67 1.239 . S
C52 C51 1.498 . S
C52 C53 1.366 . S
C52 C57 1.407 . S
C53 C52 1.366 . S
C53 C54 1.392 . S
C53 H76 0.930 . S
C54 C53 1.392 . S
C54 C55 1.398 . S
C54 H77 0.929 . S
C55 C54 1.398 . S
C55 C56 1.352 . S
C56 C55 1.352 . S
C56 C57 1.384 . S
C56 H78 0.930 . S
C57 C52 1.407 . S
C57 C56 1.384 . S
C57 H79 0.929 . S
C58 O68 1.241 1_554 S
C58 O69 1.273 . S
C59 O70 1.251 . S
C59 O71 1.268 . S
O60 Nd40 2.500 . S
O60 C42 1.258 . S
O61 Nd40 2.492 . S
O61 C42 1.239 . S
O62 Nd40 2.487 . S
O62 C49 1.241 . S
O63 Nd40 2.682 1_556 S
O63 Nd41 2.414 . S
O63 C49 1.273 1_556 S
O64 Nd40 2.410 . S
O64 C50 1.251 . S
O65 Nd41 2.424 1_554 S
O65 C50 1.268 . S
O66 Nd41 2.500 . S
O66 C51 1.258 . S
O67 Nd41 2.492 . S
O67 C51 1.239 . S
O68 Nd41 2.487 . S
O68 C58 1.241 1_556 S
O69 Nd40 2.414 . S
O69 Nd41 2.682 1_554 S
O69 C58 1.273 . S
O70 Nd41 2.410 . S
O70 C59 1.251 . S
O71 Nd40 2.424 1_556 S
O71 C59 1.268 . S
H72 C44 0.930 . S
H73 C45 0.929 . S
H74 C47 0.930 . S
H75 C48 0.929 . S
H76 C53 0.930 . S
H77 C54 0.929 . S
H78 C56 0.930 . S
H79 C57 0.929 . S
Nd80 C82 2.836 . S
Nd80 O100 2.500 . S
Nd80 O101 2.492 . S
Nd80 O102 2.487 . S
Nd80 O103 2.682 1_554 S
Nd80 O104 2.410 . S
Nd80 O109 2.414 . S
Nd80 O111 2.424 1_554 S
Nd81 C91 2.836 . S
Nd81 O103 2.414 . S
Nd81 O105 2.424 1_556 S
Nd81 O106 2.500 . S
Nd81 O107 2.492 . S
Nd81 O108 2.487 . S
Nd81 O109 2.682 1_556 S
Nd81 O110 2.410 . S
C82 Nd80 2.836 . S
C82 C83 1.498 . S
C82 O100 1.258 . S
C82 O101 1.239 . S
C83 C82 1.498 . S
C83 C84 1.366 . S
C83 C88 1.407 . S
C84 C83 1.366 . S
C84 C85 1.392 . S
C84 H112 0.930 . S
C85 C84 1.392 . S
C85 C86 1.398 . S
C85 H113 0.929 . S
C86 C85 1.398 . S
C86 C87 1.352 . S
C87 C86 1.352 . S
C87 C88 1.384 . S
C87 H114 0.930 . S
C88 C83 1.407 . S
C88 C87 1.384 . S
C88 H115 0.929 . S
C89 O102 1.241 . S
C89 O103 1.273 1_554 S
C90 O104 1.251 . S
C90 O105 1.268 . S
C91 Nd81 2.836 . S
C91 C92 1.498 . S
C91 O106 1.258 . S
C91 O107 1.239 . S
C92 C91 1.498 . S
C92 C93 1.366 . S
C92 C97 1.407 . S
C93 C92 1.366 . S
C93 C94 1.392 . S
C93 H116 0.930 . S
C94 C93 1.392 . S
C94 C95 1.398 . S
C94 H117 0.929 . S
C95 C94 1.398 . S
C95 C96 1.352 . S
C96 C95 1.352 . S
C96 C97 1.384 . S
C96 H118 0.930 . S
C97 C92 1.407 . S
C97 C96 1.384 . S
C97 H119 0.929 . S
C98 O108 1.241 1_554 S
C98 O109 1.273 . S
C99 O110 1.251 . S
C99 O111 1.268 . S
O100 Nd80 2.500 . S
O100 C82 1.258 . S
O101 Nd80 2.492 . S
O101 C82 1.239 . S
O102 Nd80 2.487 . S
O102 C89 1.241 . S
O103 Nd80 2.682 1_556 S
O103 Nd81 2.414 . S
O103 C89 1.273 1_556 S
O104 Nd80 2.410 . S
O104 C90 1.251 . S
O105 Nd81 2.424 1_554 S
O105 C90 1.268 . S
O106 Nd81 2.500 . S
O106 C91 1.258 . S
O107 Nd81 2.492 . S
O107 C91 1.239 . S
O108 Nd81 2.487 . S
O108 C98 1.241 1_556 S
O109 Nd80 2.414 . S
O109 Nd81 2.682 1_554 S
O109 C98 1.273 . S
O110 Nd81 2.410 . S
O110 C99 1.251 . S
O111 Nd80 2.424 1_556 S
O111 C99 1.268 . S
H112 C84 0.930 . S
H113 C85 0.929 . S
H114 C87 0.930 . S
H115 C88 0.929 . S
H116 C93 0.930 . S
H117 C94 0.929 . S
H118 C96 0.930 . S
H119 C97 0.929 . S
Nd120 C122 2.836 . S
Nd120 O140 2.500 . S
Nd120 O141 2.492 . S
Nd120 O142 2.487 . S
Nd120 O143 2.682 . S
Nd120 O144 2.410 . S
Nd120 O149 2.414 . S
Nd120 O151 2.424 . S
Nd121 C131 2.836 . S
Nd121 O143 2.414 . S
Nd121 O145 2.424 . S
Nd121 O146 2.500 . S
Nd121 O147 2.492 . S
Nd121 O148 2.487 . S
Nd121 O149 2.682 . S
Nd121 O150 2.410 . S
C122 Nd120 2.836 . S
C122 C123 1.498 . S
C122 O140 1.258 . S
C122 O141 1.239 . S
C123 C122 1.498 . S
C123 C124 1.366 . S
C123 C128 1.407 . S
C124 C123 1.366 . S
C124 C125 1.392 . S
C124 H152 0.930 . S
C125 C124 1.392 . S
C125 C126 1.398 . S
C125 H153 0.929 . S
C126 C125 1.398 . S
C126 C127 1.352 . S
C127 C126 1.352 . S
C127 C128 1.384 . S
C127 H154 0.930 . S
C128 C123 1.407 . S
C128 C127 1.384 . S
C128 H155 0.929 . S
C129 O142 1.241 . S
C129 O143 1.273 . S
C130 O144 1.251 . S
C130 O145 1.268 . S
C131 Nd121 2.836 . S
C131 C132 1.498 . S
C131 O146 1.258 . S
C131 O147 1.239 . S
C132 C131 1.498 . S
C132 C133 1.366 . S
C132 C137 1.407 . S
C133 C132 1.366 . S
C133 C134 1.392 . S
C133 H156 0.930 . S
C134 C133 1.392 . S
C134 C135 1.398 . S
C134 H157 0.929 . S
C135 C134 1.398 . S
C135 C136 1.352 . S
C136 C135 1.352 . S
C136 C137 1.384 . S
C136 H158 0.930 . S
C137 C132 1.407 . S
C137 C136 1.384 . S
C137 H159 0.929 . S
C138 O148 1.241 . S
C138 O149 1.273 . S
C139 O150 1.251 . S
C139 O151 1.268 . S
O140 Nd120 2.500 . S
O140 C122 1.258 . S
O141 Nd120 2.492 . S
O141 C122 1.239 . S
O142 Nd120 2.487 . S
O142 C129 1.241 . S
O143 Nd120 2.682 . S
O143 Nd121 2.414 . S
O143 C129 1.273 . S
O144 Nd120 2.410 . S
O144 C130 1.251 . S
O145 Nd121 2.424 . S
O145 C130 1.268 . S
O146 Nd121 2.500 . S
O146 C131 1.258 . S
O147 Nd121 2.492 . S
O147 C131 1.239 . S
O148 Nd121 2.487 . S
O148 C138 1.241 . S
O149 Nd120 2.414 . S
O149 Nd121 2.682 . S
O149 C138 1.273 . S
O150 Nd121 2.410 . S
O150 C139 1.251 . S
O151 Nd120 2.424 . S
O151 C139 1.268 . S
H152 C124 0.930 . S
H153 C125 0.929 . S
H154 C127 0.930 . S
H155 C128 0.929 . S
H156 C133 0.930 . S
H157 C134 0.929 . S
H158 C136 0.930 . S
H159 C137 0.929 . S
Nd160 C162 2.836 . S
Nd160 O180 2.500 . S
Nd160 O181 2.492 . S
Nd160 O182 2.487 . S
Nd160 O183 2.682 . S
Nd160 O184 2.410 . S
Nd160 O189 2.414 . S
Nd160 O191 2.424 . S
Nd161 C171 2.836 . S
Nd161 O183 2.414 . S
Nd161 O185 2.424 . S
Nd161 O186 2.500 . S
Nd161 O187 2.492 . S
Nd161 O188 2.487 . S
Nd161 O189 2.682 . S
Nd161 O190 2.410 . S
C162 Nd160 2.836 . S
C162 C163 1.498 . S
C162 O180 1.258 . S
C162 O181 1.239 . S
C163 C162 1.498 . S
C163 C164 1.366 . S
C163 C168 1.407 . S
C164 C163 1.366 . S
C164 C165 1.392 . S
C164 H192 0.930 . S
C165 C164 1.392 . S
C165 C166 1.398 . S
C165 H193 0.929 . S
C166 C165 1.398 . S
C166 C167 1.352 . S
C167 C166 1.352 . S
C167 C168 1.384 . S
C167 H194 0.930 . S
C168 C163 1.407 . S
C168 C167 1.384 . S
C168 H195 0.929 . S
C169 O182 1.241 . S
C169 O183 1.273 . S
C170 O184 1.251 . S
C170 O185 1.268 . S
C171 Nd161 2.836 . S
C171 C172 1.498 . S
C171 O186 1.258 . S
C171 O187 1.239 . S
C172 C171 1.498 . S
C172 C173 1.366 . S
C172 C177 1.407 . S
C173 C172 1.366 . S
C173 C174 1.392 . S
C173 H196 0.930 . S
C174 C173 1.392 . S
C174 C175 1.398 . S
C174 H197 0.929 . S
C175 C174 1.398 . S
C175 C176 1.352 . S
C176 C175 1.352 . S
C176 C177 1.384 . S
C176 H198 0.930 . S
C177 C172 1.407 . S
C177 C176 1.384 . S
C177 H199 0.929 . S
C178 O188 1.241 . S
C178 O189 1.273 . S
C179 O190 1.251 . S
C179 O191 1.268 . S
O180 Nd160 2.500 . S
O180 C162 1.258 . S
O181 Nd160 2.492 . S
O181 C162 1.239 . S
O182 Nd160 2.487 . S
O182 C169 1.241 . S
O183 Nd160 2.682 . S
O183 Nd161 2.414 . S
O183 C169 1.273 . S
O184 Nd160 2.410 . S
O184 C170 1.251 . S
O185 Nd161 2.424 . S
O185 C170 1.268 . S
O186 Nd161 2.500 . S
O186 C171 1.258 . S
O187 Nd161 2.492 . S
O187 C171 1.239 . S
O188 Nd161 2.487 . S
O188 C178 1.241 . S
O189 Nd160 2.414 . S
O189 Nd161 2.682 . S
O189 C178 1.273 . S
O190 Nd161 2.410 . S
O190 C179 1.251 . S
O191 Nd160 2.424 . S
O191 C179 1.268 . S
H192 C164 0.930 . S
H193 C165 0.929 . S
H194 C167 0.930 . S
H195 C168 0.929 . S
H196 C173 0.930 . S
H197 C174 0.929 . S
H198 C176 0.930 . S
H199 C177 0.929 . S
Nd200 C202 2.836 . S
Nd200 O220 2.500 . S
Nd200 O221 2.492 . S
Nd200 O222 2.487 . S
Nd200 O223 2.682 . S
Nd200 O224 2.410 . S
Nd200 O229 2.414 . S
Nd200 O231 2.424 . S
Nd201 C211 2.836 . S
Nd201 O223 2.414 . S
Nd201 O225 2.424 . S
Nd201 O226 2.500 . S
Nd201 O227 2.492 . S
Nd201 O228 2.487 . S
Nd201 O229 2.682 . S
Nd201 O230 2.410 . S
C202 Nd200 2.836 . S
C202 C203 1.498 . S
C202 O220 1.258 . S
C202 O221 1.239 . S
C203 C202 1.498 . S
C203 C204 1.366 . S
C203 C208 1.407 . S
C204 C203 1.366 . S
C204 C205 1.392 . S
C204 H232 0.930 . S
C205 C204 1.392 . S
C205 C206 1.398 . S
C205 H233 0.929 . S
C206 C205 1.398 . S
C206 C207 1.352 . S
C207 C206 1.352 . S
C207 C208 1.384 . S
C207 H234 0.930 . S
C208 C203 1.407 . S
C208 C207 1.384 . S
C208 H235 0.929 . S
C209 O222 1.241 . S
C209 O223 1.273 . S
C210 O224 1.251 . S
C210 O225 1.268 . S
C211 Nd201 2.836 . S
C211 C212 1.498 . S
C211 O226 1.258 . S
C211 O227 1.239 . S
C212 C211 1.498 . S
C212 C213 1.366 . S
C212 C217 1.407 . S
C213 C212 1.366 . S
C213 C214 1.392 . S
C213 H236 0.930 . S
C214 C213 1.392 . S
C214 C215 1.398 . S
C214 H237 0.929 . S
C215 C214 1.398 . S
C215 C216 1.352 . S
C216 C215 1.352 . S
C216 C217 1.384 . S
C216 H238 0.930 . S
C217 C212 1.407 . S
C217 C216 1.384 . S
C217 H239 0.929 . S
C218 O228 1.241 . S
C218 O229 1.273 . S
C219 O230 1.251 . S
C219 O231 1.268 . S
O220 Nd200 2.500 . S
O220 C202 1.258 . S
O221 Nd200 2.492 . S
O221 C202 1.239 . S
O222 Nd200 2.487 . S
O222 C209 1.241 . S
O223 Nd200 2.682 . S
O223 Nd201 2.414 . S
O223 C209 1.273 . S
O224 Nd200 2.410 . S
O224 C210 1.251 . S
O225 Nd201 2.424 . S
O225 C210 1.268 . S
O226 Nd201 2.500 . S
O226 C211 1.258 . S
O227 Nd201 2.492 . S
O227 C211 1.239 . S
O228 Nd201 2.487 . S
O228 C218 1.241 . S
O229 Nd200 2.414 . S
O229 Nd201 2.682 . S
O229 C218 1.273 . S
O230 Nd201 2.410 . S
O230 C219 1.251 . S
O231 Nd200 2.424 . S
O231 C219 1.268 . S
H232 C204 0.930 . S
H233 C205 0.929 . S
H234 C207 0.930 . S
H235 C208 0.929 . S
H236 C213 0.930 . S
H237 C214 0.929 . S
H238 C216 0.930 . S
H239 C217 0.929 . S
Nd240 C242 2.836 . S
Nd240 O260 2.500 . S
Nd240 O261 2.492 . S
Nd240 O262 2.487 . S
Nd240 O263 2.682 . S
Nd240 O264 2.410 . S
Nd240 O269 2.414 . S
Nd240 O271 2.424 . S
Nd241 C251 2.836 . S
Nd241 O263 2.414 . S
Nd241 O265 2.424 . S
Nd241 O266 2.500 . S
Nd241 O267 2.492 . S
Nd241 O268 2.487 . S
Nd241 O269 2.682 . S
Nd241 O270 2.410 . S
C242 Nd240 2.836 . S
C242 C243 1.498 . S
C242 O260 1.258 . S
C242 O261 1.239 . S
C243 C242 1.498 . S
C243 C244 1.366 . S
C243 C248 1.407 . S
C244 C243 1.366 . S
C244 C245 1.392 . S
C244 H272 0.930 . S
C245 C244 1.392 . S
C245 C246 1.398 . S
C245 H273 0.929 . S
C246 C245 1.398 . S
C246 C247 1.352 . S
C247 C246 1.352 . S
C247 C248 1.384 . S
C247 H274 0.930 . S
C248 C243 1.407 . S
C248 C247 1.384 . S
C248 H275 0.929 . S
C249 O262 1.241 . S
C249 O263 1.273 . S
C250 O264 1.251 . S
C250 O265 1.268 . S
C251 Nd241 2.836 . S
C251 C252 1.498 . S
C251 O266 1.258 . S
C251 O267 1.239 . S
C252 C251 1.498 . S
C252 C253 1.366 1_554 S
C252 C257 1.407 1_554 S
C253 C252 1.366 1_556 S
C253 C254 1.392 . S
C253 H276 0.930 . S
C254 C253 1.392 . S
C254 C255 1.398 . S
C254 H277 0.929 . S
C255 C254 1.398 . S
C255 C256 1.352 . S
C256 C255 1.352 . S
C256 C257 1.384 . S
C256 H278 0.930 . S
C257 C252 1.407 1_556 S
C257 C256 1.384 . S
C257 H279 0.929 1_556 S
C258 O268 1.241 . S
C258 O269 1.273 . S
C259 O270 1.251 . S
C259 O271 1.268 . S
O260 Nd240 2.500 . S
O260 C242 1.258 . S
O261 Nd240 2.492 . S
O261 C242 1.239 . S
O262 Nd240 2.487 . S
O262 C249 1.241 . S
O263 Nd240 2.682 . S
O263 Nd241 2.414 . S
O263 C249 1.273 . S
O264 Nd240 2.410 . S
O264 C250 1.251 . S
O265 Nd241 2.424 . S
O265 C250 1.268 . S
O266 Nd241 2.500 . S
O266 C251 1.258 . S
O267 Nd241 2.492 . S
O267 C251 1.239 . S
O268 Nd241 2.487 . S
O268 C258 1.241 . S
O269 Nd240 2.414 . S
O269 Nd241 2.682 . S
O269 C258 1.273 . S
O270 Nd241 2.410 . S
O270 C259 1.251 . S
O271 Nd240 2.424 . S
O271 C259 1.268 . S
H272 C244 0.930 . S
H273 C245 0.929 . S
H274 C247 0.930 . S
H275 C248 0.929 . S
H276 C253 0.930 . S
H277 C254 0.929 . S
H278 C256 0.930 . S
H279 C257 0.929 1_554 S
Nd280 C282 2.836 . S
Nd280 O300 2.500 . S
Nd280 O301 2.492 . S
Nd280 O302 2.487 . S
Nd280 O303 2.682 . S
Nd280 O304 2.410 . S
Nd280 O309 2.414 . S
Nd280 O311 2.424 . S
Nd281 C291 2.836 . S
Nd281 O303 2.414 . S
Nd281 O305 2.424 . S
Nd281 O306 2.500 . S
Nd281 O307 2.492 . S
Nd281 O308 2.487 . S
Nd281 O309 2.682 . S
Nd281 O310 2.410 . S
C282 Nd280 2.836 . S
C282 C283 1.498 . S
C282 O300 1.258 . S
C282 O301 1.239 . S
C283 C282 1.498 . S
C283 C284 1.366 . S
C283 C288 1.407 . S
C284 C283 1.366 . S
C284 C285 1.392 . S
C284 H312 0.930 . S
C285 C284 1.392 . S
C285 C286 1.398 . S
C285 H313 0.929 . S
C286 C285 1.398 . S
C286 C287 1.352 . S
C287 C286 1.352 . S
C287 C288 1.384 . S
C287 H314 0.930 . S
C288 C283 1.407 . S
C288 C287 1.384 . S
C288 H315 0.929 . S
C289 O302 1.241 . S
C289 O303 1.273 . S
C290 O304 1.251 . S
C290 O305 1.268 . S
C291 Nd281 2.836 . S
C291 C292 1.498 . S
C291 O306 1.258 . S
C291 O307 1.239 . S
C292 C291 1.498 . S
C292 C293 1.366 1_554 S
C292 C297 1.407 1_554 S
C293 C292 1.366 1_556 S
C293 C294 1.392 . S
C293 H316 0.930 . S
C294 C293 1.392 . S
C294 C295 1.398 . S
C294 H317 0.929 . S
C295 C294 1.398 . S
C295 C296 1.352 . S
C296 C295 1.352 . S
C296 C297 1.384 . S
C296 H318 0.930 . S
C297 C292 1.407 1_556 S
C297 C296 1.384 . S
C297 H319 0.929 1_556 S
C298 O308 1.241 . S
C298 O309 1.273 . S
C299 O310 1.251 . S
C299 O311 1.268 . S
O300 Nd280 2.500 . S
O300 C282 1.258 . S
O301 Nd280 2.492 . S
O301 C282 1.239 . S
O302 Nd280 2.487 . S
O302 C289 1.241 . S
O303 Nd280 2.682 . S
O303 Nd281 2.414 . S
O303 C289 1.273 . S
O304 Nd280 2.410 . S
O304 C290 1.251 . S
O305 Nd281 2.424 . S
O305 C290 1.268 . S
O306 Nd281 2.500 . S
O306 C291 1.258 . S
O307 Nd281 2.492 . S
O307 C291 1.239 . S
O308 Nd281 2.487 . S
O308 C298 1.241 . S
O309 Nd280 2.414 . S
O309 Nd281 2.682 . S
O309 C298 1.273 . S
O310 Nd281 2.410 . S
O310 C299 1.251 . S
O311 Nd280 2.424 . S
O311 C299 1.268 . S
H312 C284 0.930 . S
H313 C285 0.929 . S
H314 C287 0.930 . S
H315 C288 0.929 . S
H316 C293 0.930 . S
H317 C294 0.929 . S
H318 C296 0.930 . S
H319 C297 0.929 1_554 S
Nd320 C322 2.836 . S
Nd320 O340 2.500 . S
Nd320 O341 2.492 . S
Nd320 O342 2.487 . S
Nd320 O343 2.682 . S
Nd320 O344 2.410 . S
Nd320 O349 2.414 . S
Nd320 O351 2.424 . S
Nd321 C331 2.836 . S
Nd321 O343 2.414 . S
Nd321 O345 2.424 . S
Nd321 O346 2.500 . S
Nd321 O347 2.492 . S
Nd321 O348 2.487 . S
Nd321 O349 2.682 . S
Nd321 O350 2.410 . S
C322 Nd320 2.836 . S
C322 C323 1.498 . S
C322 O340 1.258 . S
C322 O341 1.239 . S
C323 C322 1.498 . S
C323 C324 1.366 . S
C323 C328 1.407 . S
C324 C323 1.366 . S
C324 C325 1.392 . S
C324 H352 0.930 . S
C325 C324 1.392 . S
C325 C326 1.398 . S
C325 H353 0.929 . S
C326 C325 1.398 . S
C326 C327 1.352 . S
C327 C326 1.352 . S
C327 C328 1.384 . S
C327 H354 0.930 . S
C328 C323 1.407 . S
C328 C327 1.384 . S
C328 H355 0.929 . S
C329 O342 1.241 . S
C329 O343 1.273 . S
C330 O344 1.251 . S
C330 O345 1.268 . S
C331 Nd321 2.836 . S
C331 C332 1.498 . S
C331 O346 1.258 . S
C331 O347 1.239 . S
C332 C331 1.498 . S
C332 C333 1.366 1_554 S
C332 C337 1.407 1_554 S
C333 C332 1.366 1_556 S
C333 C334 1.392 . S
C333 H356 0.930 . S
C334 C333 1.392 . S
C334 C335 1.398 . S
C334 H357 0.929 . S
C335 C334 1.398 . S
C335 C336 1.352 . S
C336 C335 1.352 . S
C336 C337 1.384 . S
C336 H358 0.930 . S
C337 C332 1.407 1_556 S
C337 C336 1.384 . S
C337 H359 0.929 1_556 S
C338 O348 1.241 . S
C338 O349 1.273 . S
C339 O350 1.251 . S
C339 O351 1.268 . S
O340 Nd320 2.500 . S
O340 C322 1.258 . S
O341 Nd320 2.492 . S
O341 C322 1.239 . S
O342 Nd320 2.487 . S
O342 C329 1.241 . S
O343 Nd320 2.682 . S
O343 Nd321 2.414 . S
O343 C329 1.273 . S
O344 Nd320 2.410 . S
O344 C330 1.251 . S
O345 Nd321 2.424 . S
O345 C330 1.268 . S
O346 Nd321 2.500 . S
O346 C331 1.258 . S
O347 Nd321 2.492 . S
O347 C331 1.239 . S
O348 Nd321 2.487 . S
O348 C338 1.241 . S
O349 Nd320 2.414 . S
O349 Nd321 2.682 . S
O349 C338 1.273 . S
O350 Nd321 2.410 . S
O350 C339 1.251 . S
O351 Nd320 2.424 . S
O351 C339 1.268 . S
H352 C324 0.930 . S
H353 C325 0.929 . S
H354 C327 0.930 . S
H355 C328 0.929 . S
H356 C333 0.930 . S
H357 C334 0.929 . S
H358 C336 0.930 . S
H359 C337 0.929 1_554 S
Nd360 C362 2.836 . S
Nd360 O380 2.500 . S
Nd360 O381 2.492 . S
Nd360 O382 2.487 . S
Nd360 O383 2.682 . S
Nd360 O384 2.410 . S
Nd360 O389 2.414 . S
Nd360 O391 2.424 . S
Nd361 C371 2.836 . S
Nd361 O383 2.414 . S
Nd361 O385 2.424 . S
Nd361 O386 2.500 . S
Nd361 O387 2.492 . S
Nd361 O388 2.487 . S
Nd361 O389 2.682 . S
Nd361 O390 2.410 . S
C362 Nd360 2.836 . S
C362 C363 1.498 . S
C362 O380 1.258 . S
C362 O381 1.239 . S
C363 C362 1.498 . S
C363 C364 1.366 . S
C363 C368 1.407 . S
C364 C363 1.366 . S
C364 C365 1.392 . S
C364 H392 0.930 . S
C365 C364 1.392 . S
C365 C366 1.398 . S
C365 H393 0.929 . S
C366 C365 1.398 . S
C366 C367 1.352 . S
C367 C366 1.352 . S
C367 C368 1.384 . S
C367 H394 0.930 . S
C368 C363 1.407 . S
C368 C367 1.384 . S
C368 H395 0.929 . S
C369 O382 1.241 . S
C369 O383 1.273 . S
C370 O384 1.251 . S
C370 O385 1.268 . S
C371 Nd361 2.836 . S
C371 C372 1.498 . S
C371 O386 1.258 . S
C371 O387 1.239 . S
C372 C371 1.498 . S
C372 C373 1.366 . S
C372 C377 1.407 . S
C373 C372 1.366 . S
C373 C374 1.392 . S
C373 H396 0.930 . S
C374 C373 1.392 . S
C374 C375 1.398 . S
C374 H397 0.929 . S
C375 C374 1.398 . S
C375 C376 1.352 . S
C376 C375 1.352 . S
C376 C377 1.384 . S
C376 H398 0.930 . S
C377 C372 1.407 . S
C377 C376 1.384 . S
C377 H399 0.929 . S
C378 O388 1.241 . S
C378 O389 1.273 . S
C379 O390 1.251 . S
C379 O391 1.268 . S
O380 Nd360 2.500 . S
O380 C362 1.258 . S
O381 Nd360 2.492 . S
O381 C362 1.239 . S
O382 Nd360 2.487 . S
O382 C369 1.241 . S
O383 Nd360 2.682 . S
O383 Nd361 2.414 . S
O383 C369 1.273 . S
O384 Nd360 2.410 . S
O384 C370 1.251 . S
O385 Nd361 2.424 . S
O385 C370 1.268 . S
O386 Nd361 2.500 . S
O386 C371 1.258 . S
O387 Nd361 2.492 . S
O387 C371 1.239 . S
O388 Nd361 2.487 . S
O388 C378 1.241 . S
O389 Nd360 2.414 . S
O389 Nd361 2.682 . S
O389 C378 1.273 . S
O390 Nd361 2.410 . S
O390 C379 1.251 . S
O391 Nd360 2.424 . S
O391 C379 1.268 . S
H392 C364 0.930 . S
H393 C365 0.929 . S
H394 C367 0.930 . S
H395 C368 0.929 . S
H396 C373 0.930 . S
H397 C374 0.929 . S
H398 C376 0.930 . S
H399 C377 0.929 . S
Nd400 C402 2.836 . S
Nd400 O420 2.500 . S
Nd400 O421 2.492 . S
Nd400 O422 2.487 . S
Nd400 O423 2.682 . S
Nd400 O424 2.410 . S
Nd400 O429 2.414 . S
Nd400 O431 2.424 . S
Nd401 C411 2.836 . S
Nd401 O423 2.414 . S
Nd401 O425 2.424 . S
Nd401 O426 2.500 . S
Nd401 O427 2.492 . S
Nd401 O428 2.487 . S
Nd401 O429 2.682 . S
Nd401 O430 2.410 . S
C402 Nd400 2.836 . S
C402 C403 1.498 . S
C402 O420 1.258 . S
C402 O421 1.239 . S
C403 C402 1.498 . S
C403 C404 1.366 . S
C403 C408 1.407 . S
C404 C403 1.366 . S
C404 C405 1.392 . S
C404 H432 0.930 . S
C405 C404 1.392 . S
C405 C406 1.398 . S
C405 H433 0.929 . S
C406 C405 1.398 . S
C406 C407 1.352 . S
C407 C406 1.352 . S
C407 C408 1.384 . S
C407 H434 0.930 . S
C408 C403 1.407 . S
C408 C407 1.384 . S
C408 H435 0.929 . S
C409 O422 1.241 . S
C409 O423 1.273 . S
C410 O424 1.251 . S
C410 O425 1.268 . S
C411 Nd401 2.836 . S
C411 C412 1.498 . S
C411 O426 1.258 . S
C411 O427 1.239 . S
C412 C411 1.498 . S
C412 C413 1.366 . S
C412 C417 1.407 . S
C413 C412 1.366 . S
C413 C414 1.392 . S
C413 H436 0.930 . S
C414 C413 1.392 . S
C414 C415 1.398 . S
C414 H437 0.929 . S
C415 C414 1.398 . S
C415 C416 1.352 . S
C416 C415 1.352 . S
C416 C417 1.384 . S
C416 H438 0.930 . S
C417 C412 1.407 . S
C417 C416 1.384 . S
C417 H439 0.929 . S
C418 O428 1.241 . S
C418 O429 1.273 . S
C419 O430 1.251 . S
C419 O431 1.268 . S
O420 Nd400 2.500 . S
O420 C402 1.258 . S
O421 Nd400 2.492 . S
O421 C402 1.239 . S
O422 Nd400 2.487 . S
O422 C409 1.241 . S
O423 Nd400 2.682 . S
O423 Nd401 2.414 . S
O423 C409 1.273 . S
O424 Nd400 2.410 . S
O424 C410 1.251 . S
O425 Nd401 2.424 . S
O425 C410 1.268 . S
O426 Nd401 2.500 . S
O426 C411 1.258 . S
O427 Nd401 2.492 . S
O427 C411 1.239 . S
O428 Nd401 2.487 . S
O428 C418 1.241 . S
O429 Nd400 2.414 . S
O429 Nd401 2.682 . S
O429 C418 1.273 . S
O430 Nd401 2.410 . S
O430 C419 1.251 . S
O431 Nd400 2.424 . S
O431 C419 1.268 . S
H432 C404 0.930 . S
H433 C405 0.929 . S
H434 C407 0.930 . S
H435 C408 0.929 . S
H436 C413 0.930 . S
H437 C414 0.929 . S
H438 C416 0.930 . S
H439 C417 0.929 . S
Nd440 C442 2.836 . S
Nd440 O460 2.500 . S
Nd440 O461 2.492 . S
Nd440 O462 2.487 . S
Nd440 O463 2.682 . S
Nd440 O464 2.410 . S
Nd440 O469 2.414 . S
Nd440 O471 2.424 . S
Nd441 C451 2.836 . S
Nd441 O463 2.414 . S
Nd441 O465 2.424 . S
Nd441 O466 2.500 . S
Nd441 O467 2.492 . S
Nd441 O468 2.487 . S
Nd441 O469 2.682 . S
Nd441 O470 2.410 . S
C442 Nd440 2.836 . S
C442 C443 1.498 . S
C442 O460 1.258 . S
C442 O461 1.239 . S
C443 C442 1.498 . S
C443 C444 1.366 . S
C443 C448 1.407 . S
C444 C443 1.366 . S
C444 C445 1.392 . S
C444 H472 0.930 . S
C445 C444 1.392 . S
C445 C446 1.398 . S
C445 H473 0.929 . S
C446 C445 1.398 . S
C446 C447 1.352 . S
C447 C446 1.352 . S
C447 C448 1.384 . S
C447 H474 0.930 . S
C448 C443 1.407 . S
C448 C447 1.384 . S
C448 H475 0.929 . S
C449 O462 1.241 . S
C449 O463 1.273 . S
C450 O464 1.251 . S
C450 O465 1.268 . S
C451 Nd441 2.836 . S
C451 C452 1.498 . S
C451 O466 1.258 . S
C451 O467 1.239 . S
C452 C451 1.498 . S
C452 C453 1.366 . S
C452 C457 1.407 . S
C453 C452 1.366 . S
C453 C454 1.392 . S
C453 H476 0.930 . S
C454 C453 1.392 . S
C454 C455 1.398 . S
C454 H477 0.929 . S
C455 C454 1.398 . S
C455 C456 1.352 . S
C456 C455 1.352 . S
C456 C457 1.384 . S
C456 H478 0.930 . S
C457 C452 1.407 . S
C457 C456 1.384 . S
C457 H479 0.929 . S
C458 O468 1.241 . S
C458 O469 1.273 . S
C459 O470 1.251 . S
C459 O471 1.268 . S
O460 Nd440 2.500 . S
O460 C442 1.258 . S
O461 Nd440 2.492 . S
O461 C442 1.239 . S
O462 Nd440 2.487 . S
O462 C449 1.241 . S
O463 Nd440 2.682 . S
O463 Nd441 2.414 . S
O463 C449 1.273 . S
O464 Nd440 2.410 . S
O464 C450 1.251 . S
O465 Nd441 2.424 . S
O465 C450 1.268 . S
O466 Nd441 2.500 . S
O466 C451 1.258 . S
O467 Nd441 2.492 . S
O467 C451 1.239 . S
O468 Nd441 2.487 . S
O468 C458 1.241 . S
O469 Nd440 2.414 . S
O469 Nd441 2.682 . S
O469 C458 1.273 . S
O470 Nd441 2.410 . S
O470 C459 1.251 . S
O471 Nd440 2.424 . S
O471 C459 1.268 . S
H472 C444 0.930 . S
H473 C445 0.929 . S
H474 C447 0.930 . S
H475 C448 0.929 . S
H476 C453 0.930 . S
H477 C454 0.929 . S
H478 C456 0.930 . S
H479 C457 0.929 . S
Nd480 C482 2.836 . S
Nd480 O500 2.500 . S
Nd480 O501 2.492 . S
Nd480 O502 2.487 . S
Nd480 O503 2.682 . S
Nd480 O504 2.410 . S
Nd480 O509 2.414 . S
Nd480 O511 2.424 . S
Nd481 C491 2.836 . S
Nd481 O503 2.414 . S
Nd481 O505 2.424 . S
Nd481 O506 2.500 . S
Nd481 O507 2.492 . S
Nd481 O508 2.487 . S
Nd481 O509 2.682 . S
Nd481 O510 2.410 . S
C482 Nd480 2.836 . S
C482 C483 1.498 . S
C482 O500 1.258 . S
C482 O501 1.239 . S
C483 C482 1.498 . S
C483 C484 1.366 . S
C483 C488 1.407 . S
C484 C483 1.366 . S
C484 C485 1.392 . S
C484 H512 0.930 . S
C485 C484 1.392 . S
C485 C486 1.398 . S
C485 H513 0.929 . S
C486 C485 1.398 . S
C486 C487 1.352 . S
C487 C486 1.352 . S
C487 C488 1.384 . S
C487 H514 0.930 . S
C488 C483 1.407 . S
C488 C487 1.384 . S
C488 H515 0.929 . S
C489 O502 1.241 . S
C489 O503 1.273 . S
C490 O504 1.251 . S
C490 O505 1.268 . S
C491 Nd481 2.836 . S
C491 C492 1.498 . S
C491 O506 1.258 . S
C491 O507 1.239 . S
C492 C491 1.498 . S
C492 C493 1.366 . S
C492 C497 1.407 . S
C493 C492 1.366 . S
C493 C494 1.392 . S
C493 H516 0.930 . S
C494 C493 1.392 . S
C494 C495 1.398 . S
C494 H517 0.929 . S
C495 C494 1.398 . S
C495 C496 1.352 . S
C496 C495 1.352 . S
C496 C497 1.384 . S
C496 H518 0.930 . S
C497 C492 1.407 . S
C497 C496 1.384 . S
C497 H519 0.929 . S
C498 O508 1.241 . S
C498 O509 1.273 . S
C499 O510 1.251 . S
C499 O511 1.268 . S
O500 Nd480 2.500 . S
O500 C482 1.258 . S
O501 Nd480 2.492 . S
O501 C482 1.239 . S
O502 Nd480 2.487 . S
O502 C489 1.241 . S
O503 Nd480 2.682 . S
O503 Nd481 2.414 . S
O503 C489 1.273 . S
O504 Nd480 2.410 . S
O504 C490 1.251 . S
O505 Nd481 2.424 . S
O505 C490 1.268 . S
O506 Nd481 2.500 . S
O506 C491 1.258 . S
O507 Nd481 2.492 . S
O507 C491 1.239 . S
O508 Nd481 2.487 . S
O508 C498 1.241 . S
O509 Nd480 2.414 . S
O509 Nd481 2.682 . S
O509 C498 1.273 . S
O510 Nd481 2.410 . S
O510 C499 1.251 . S
O511 Nd480 2.424 . S
O511 C499 1.268 . S
H512 C484 0.930 . S
H513 C485 0.929 . S
H514 C487 0.930 . S
H515 C488 0.929 . S
H516 C493 0.930 . S
H517 C494 0.929 . S
H518 C496 0.930 . S
H519 C497 0.929 . S
Nd520 C522 2.836 . S
Nd520 O540 2.500 . S
Nd520 O541 2.492 . S
Nd520 O542 2.487 . S
Nd520 O543 2.682 . S
Nd520 O544 2.410 . S
Nd520 O549 2.414 . S
Nd520 O551 2.424 . S
Nd521 C531 2.836 . S
Nd521 O543 2.414 . S
Nd521 O545 2.424 . S
Nd521 O546 2.500 . S
Nd521 O547 2.492 . S
Nd521 O548 2.487 . S
Nd521 O549 2.682 . S
Nd521 O550 2.410 . S
C522 Nd520 2.836 . S
C522 C523 1.498 . S
C522 O540 1.258 . S
C522 O541 1.239 . S
C523 C522 1.498 . S
C523 C524 1.366 . S
C523 C528 1.407 . S
C524 C523 1.366 . S
C524 C525 1.392 . S
C524 H552 0.930 . S
C525 C524 1.392 . S
C525 C526 1.398 . S
C525 H553 0.929 . S
C526 C525 1.398 . S
C526 C527 1.352 . S
C527 C526 1.352 . S
C527 C528 1.384 . S
C527 H554 0.930 . S
C528 C523 1.407 . S
C528 C527 1.384 . S
C528 H555 0.929 . S
C529 O542 1.241 . S
C529 O543 1.273 . S
C530 O544 1.251 . S
C530 O545 1.268 . S
C531 Nd521 2.836 . S
C531 C532 1.498 . S
C531 O546 1.258 . S
C531 O547 1.239 . S
C532 C531 1.498 . S
C532 C533 1.366 . S
C532 C537 1.407 . S
C533 C532 1.366 . S
C533 C534 1.392 . S
C533 H556 0.930 . S
C534 C533 1.392 . S
C534 C535 1.398 . S
C534 H557 0.929 . S
C535 C534 1.398 . S
C535 C536 1.352 . S
C536 C535 1.352 . S
C536 C537 1.384 . S
C536 H558 0.930 . S
C537 C532 1.407 . S
C537 C536 1.384 . S
C537 H559 0.929 . S
C538 O548 1.241 . S
C538 O549 1.273 . S
C539 O550 1.251 . S
C539 O551 1.268 . S
O540 Nd520 2.500 . S
O540 C522 1.258 . S
O541 Nd520 2.492 . S
O541 C522 1.239 . S
O542 Nd520 2.487 . S
O542 C529 1.241 . S
O543 Nd520 2.682 . S
O543 Nd521 2.414 . S
O543 C529 1.273 . S
O544 Nd520 2.410 . S
O544 C530 1.251 . S
O545 Nd521 2.424 . S
O545 C530 1.268 . S
O546 Nd521 2.500 . S
O546 C531 1.258 . S
O547 Nd521 2.492 . S
O547 C531 1.239 . S
O548 Nd521 2.487 . S
O548 C538 1.241 . S
O549 Nd520 2.414 . S
O549 Nd521 2.682 . S
O549 C538 1.273 . S
O550 Nd521 2.410 . S
O550 C539 1.251 . S
O551 Nd520 2.424 . S
O551 C539 1.268 . S
H552 C524 0.930 . S
H553 C525 0.929 . S
H554 C527 0.930 . S
H555 C528 0.929 . S
H556 C533 0.930 . S
H557 C534 0.929 . S
H558 C536 0.930 . S
H559 C537 0.929 . S
Nd560 C562 2.836 . S
Nd560 O580 2.500 . S
Nd560 O581 2.492 . S
Nd560 O582 2.487 . S
Nd560 O583 2.682 . S
Nd560 O584 2.410 . S
Nd560 O589 2.414 . S
Nd560 O591 2.424 . S
Nd561 C571 2.836 . S
Nd561 O583 2.414 . S
Nd561 O585 2.424 . S
Nd561 O586 2.500 . S
Nd561 O587 2.492 . S
Nd561 O588 2.487 . S
Nd561 O589 2.682 . S
Nd561 O590 2.410 . S
C562 Nd560 2.836 . S
C562 C563 1.498 . S
C562 O580 1.258 . S
C562 O581 1.239 . S
C563 C562 1.498 . S
C563 C564 1.366 . S
C563 C568 1.407 . S
C564 C563 1.366 . S
C564 C565 1.392 . S
C564 H592 0.930 . S
C565 C564 1.392 . S
C565 C566 1.398 . S
C565 H593 0.929 . S
C566 C565 1.398 . S
C566 C567 1.352 . S
C567 C566 1.352 . S
C567 C568 1.384 . S
C567 H594 0.930 . S
C568 C563 1.407 . S
C568 C567 1.384 . S
C568 H595 0.929 . S
C569 O582 1.241 . S
C569 O583 1.273 . S
C570 O584 1.251 . S
C570 O585 1.268 . S
C571 Nd561 2.836 . S
C571 C572 1.498 . S
C571 O586 1.258 . S
C571 O587 1.239 . S
C572 C571 1.498 . S
C572 C573 1.366 . S
C572 C577 1.407 . S
C573 C572 1.366 . S
C573 C574 1.392 . S
C573 H596 0.930 . S
C574 C573 1.392 . S
C574 C575 1.398 . S
C574 H597 0.929 . S
C575 C574 1.398 . S
C575 C576 1.352 . S
C576 C575 1.352 . S
C576 C577 1.384 . S
C576 H598 0.930 . S
C577 C572 1.407 . S
C577 C576 1.384 . S
C577 H599 0.929 . S
C578 O588 1.241 . S
C578 O589 1.273 . S
C579 O590 1.251 . S
C579 O591 1.268 . S
O580 Nd560 2.500 . S
O580 C562 1.258 . S
O581 Nd560 2.492 . S
O581 C562 1.239 . S
O582 Nd560 2.487 . S
O582 C569 1.241 . S
O583 Nd560 2.682 . S
O583 Nd561 2.414 . S
O583 C569 1.273 . S
O584 Nd560 2.410 . S
O584 C570 1.251 . S
O585 Nd561 2.424 . S
O585 C570 1.268 . S
O586 Nd561 2.500 . S
O586 C571 1.258 . S
O587 Nd561 2.492 . S
O587 C571 1.239 . S
O588 Nd561 2.487 . S
O588 C578 1.241 . S
O589 Nd560 2.414 . S
O589 Nd561 2.682 . S
O589 C578 1.273 . S
O590 Nd561 2.410 . S
O590 C579 1.251 . S
O591 Nd560 2.424 . S
O591 C579 1.268 . S
H592 C564 0.930 . S
H593 C565 0.929 . S
H594 C567 0.930 . S
H595 C568 0.929 . S
H596 C573 0.930 . S
H597 C574 0.929 . S
H598 C576 0.930 . S
H599 C577 0.929 . S
Nd600 C602 2.836 . S
Nd600 O620 2.500 . S
Nd600 O621 2.492 . S
Nd600 O622 2.487 . S
Nd600 O623 2.682 . S
Nd600 O624 2.410 . S
Nd600 O629 2.414 . S
Nd600 O631 2.424 1_556 S
Nd601 C611 2.836 1_556 S
Nd601 O623 2.414 . S
Nd601 O625 2.424 . S
Nd601 O626 2.500 1_556 S
Nd601 O627 2.492 1_556 S
Nd601 O628 2.487 . S
Nd601 O629 2.682 . S
Nd601 O630 2.410 1_556 S
C602 Nd600 2.836 . S
C602 C603 1.498 . S
C602 O620 1.258 . S
C602 O621 1.239 . S
C603 C602 1.498 . S
C603 C604 1.366 . S
C603 C608 1.407 . S
C604 C603 1.366 . S
C604 C605 1.392 . S
C604 H632 0.930 . S
C605 C604 1.392 . S
C605 C606 1.398 . S
C605 H633 0.929 . S
C606 C605 1.398 . S
C606 C607 1.352 . S
C607 C606 1.352 . S
C607 C608 1.384 . S
C607 H634 0.930 . S
C608 C603 1.407 . S
C608 C607 1.384 . S
C608 H635 0.929 . S
C609 O622 1.241 . S
C609 O623 1.273 . S
C610 O624 1.251 . S
C610 O625 1.268 . S
C611 Nd601 2.836 1_554 S
C611 C612 1.498 . S
C611 O626 1.258 . S
C611 O627 1.239 . S
C612 C611 1.498 . S
C612 C613 1.366 . S
C612 C617 1.407 . S
C613 C612 1.366 . S
C613 C614 1.392 . S
C613 H636 0.930 . S
C614 C613 1.392 . S
C614 C615 1.398 . S
C614 H637 0.929 . S
C615 C614 1.398 . S
C615 C616 1.352 . S
C616 C615 1.352 . S
C616 C617 1.384 . S
C616 H638 0.930 . S
C617 C612 1.407 . S
C617 C616 1.384 . S
C617 H639 0.929 . S
C618 O628 1.241 . S
C618 O629 1.273 . S
C619 O630 1.251 . S
C619 O631 1.268 . S
O620 Nd600 2.500 . S
O620 C602 1.258 . S
O621 Nd600 2.492 . S
O621 C602 1.239 . S
O622 Nd600 2.487 . S
O622 C609 1.241 . S
O623 Nd600 2.682 . S
O623 Nd601 2.414 . S
O623 C609 1.273 . S
O624 Nd600 2.410 . S
O624 C610 1.251 . S
O625 Nd601 2.424 . S
O625 C610 1.268 . S
O626 Nd601 2.500 1_554 S
O626 C611 1.258 . S
O627 Nd601 2.492 1_554 S
O627 C611 1.239 . S
O628 Nd601 2.487 . S
O628 C618 1.241 . S
O629 Nd600 2.414 . S
O629 Nd601 2.682 . S
O629 C618 1.273 . S
O630 Nd601 2.410 1_554 S
O630 C619 1.251 . S
O631 Nd600 2.424 1_554 S
O631 C619 1.268 . S
H632 C604 0.930 . S
H633 C605 0.929 . S
H634 C607 0.930 . S
H635 C608 0.929 . S
H636 C613 0.930 . S
H637 C614 0.929 . S
H638 C616 0.930 . S
H639 C617 0.929 . S
Nd640 C642 2.836 . S
Nd640 O660 2.500 . S
Nd640 O661 2.492 . S
Nd640 O662 2.487 . S
Nd640 O663 2.682 . S
Nd640 O664 2.410 . S
Nd640 O669 2.414 . S
Nd640 O671 2.424 1_556 S
Nd641 C651 2.836 1_556 S
Nd641 O663 2.414 . S
Nd641 O665 2.424 . S
Nd641 O666 2.500 1_556 S
Nd641 O667 2.492 1_556 S
Nd641 O668 2.487 . S
Nd641 O669 2.682 . S
Nd641 O670 2.410 1_556 S
C642 Nd640 2.836 . S
C642 C643 1.498 . S
C642 O660 1.258 . S
C642 O661 1.239 . S
C643 C642 1.498 . S
C643 C644 1.366 . S
C643 C648 1.407 . S
C644 C643 1.366 . S
C644 C645 1.392 . S
C644 H672 0.930 . S
C645 C644 1.392 . S
C645 C646 1.398 . S
C645 H673 0.929 . S
C646 C645 1.398 . S
C646 C647 1.352 . S
C647 C646 1.352 . S
C647 C648 1.384 . S
C647 H674 0.930 . S
C648 C643 1.407 . S
C648 C647 1.384 . S
C648 H675 0.929 . S
C649 O662 1.241 . S
C649 O663 1.273 . S
C650 O664 1.251 . S
C650 O665 1.268 . S
C651 Nd641 2.836 1_554 S
C651 C652 1.498 . S
C651 O666 1.258 . S
C651 O667 1.239 . S
C652 C651 1.498 . S
C652 C653 1.366 . S
C652 C657 1.407 . S
C653 C652 1.366 . S
C653 C654 1.392 . S
C653 H676 0.930 . S
C654 C653 1.392 . S
C654 C655 1.398 . S
C654 H677 0.929 . S
C655 C654 1.398 . S
C655 C656 1.352 . S
C656 C655 1.352 . S
C656 C657 1.384 . S
C656 H678 0.930 . S
C657 C652 1.407 . S
C657 C656 1.384 . S
C657 H679 0.929 . S
C658 O668 1.241 . S
C658 O669 1.273 . S
C659 O670 1.251 . S
C659 O671 1.268 . S
O660 Nd640 2.500 . S
O660 C642 1.258 . S
O661 Nd640 2.492 . S
O661 C642 1.239 . S
O662 Nd640 2.487 . S
O662 C649 1.241 . S
O663 Nd640 2.682 . S
O663 Nd641 2.414 . S
O663 C649 1.273 . S
O664 Nd640 2.410 . S
O664 C650 1.251 . S
O665 Nd641 2.424 . S
O665 C650 1.268 . S
O666 Nd641 2.500 1_554 S
O666 C651 1.258 . S
O667 Nd641 2.492 1_554 S
O667 C651 1.239 . S
O668 Nd641 2.487 . S
O668 C658 1.241 . S
O669 Nd640 2.414 . S
O669 Nd641 2.682 . S
O669 C658 1.273 . S
O670 Nd641 2.410 1_554 S
O670 C659 1.251 . S
O671 Nd640 2.424 1_554 S
O671 C659 1.268 . S
H672 C644 0.930 . S
H673 C645 0.929 . S
H674 C647 0.930 . S
H675 C648 0.929 . S
H676 C653 0.930 . S
H677 C654 0.929 . S
H678 C656 0.930 . S
H679 C657 0.929 . S
Nd680 C682 2.836 . S
Nd680 O700 2.500 . S
Nd680 O701 2.492 . S
Nd680 O702 2.487 . S
Nd680 O703 2.682 . S
Nd680 O704 2.410 . S
Nd680 O709 2.414 . S
Nd680 O711 2.424 1_556 S
Nd681 C691 2.836 1_556 S
Nd681 O703 2.414 . S
Nd681 O705 2.424 . S
Nd681 O706 2.500 1_556 S
Nd681 O707 2.492 1_556 S
Nd681 O708 2.487 . S
Nd681 O709 2.682 . S
Nd681 O710 2.410 1_556 S
C682 Nd680 2.836 . S
C682 C683 1.498 . S
C682 O700 1.258 . S
C682 O701 1.239 . S
C683 C682 1.498 . S
C683 C684 1.366 . S
C683 C688 1.407 . S
C684 C683 1.366 . S
C684 C685 1.392 . S
C684 H712 0.930 . S
C685 C684 1.392 . S
C685 C686 1.398 . S
C685 H713 0.929 . S
C686 C685 1.398 . S
C686 C687 1.352 . S
C687 C686 1.352 . S
C687 C688 1.384 . S
C687 H714 0.930 . S
C688 C683 1.407 . S
C688 C687 1.384 . S
C688 H715 0.929 . S
C689 O702 1.241 . S
C689 O703 1.273 . S
C690 O704 1.251 . S
C690 O705 1.268 . S
C691 Nd681 2.836 1_554 S
C691 C692 1.498 . S
C691 O706 1.258 . S
C691 O707 1.239 . S
C692 C691 1.498 . S
C692 C693 1.366 . S
C692 C697 1.407 . S
C693 C692 1.366 . S
C693 C694 1.392 . S
C693 H716 0.930 . S
C694 C693 1.392 . S
C694 C695 1.398 . S
C694 H717 0.929 . S
C695 C694 1.398 . S
C695 C696 1.352 . S
C696 C695 1.352 . S
C696 C697 1.384 . S
C696 H718 0.930 . S
C697 C692 1.407 . S
C697 C696 1.384 . S
C697 H719 0.929 . S
C698 O708 1.241 . S
C698 O709 1.273 . S
C699 O710 1.251 . S
C699 O711 1.268 . S
O700 Nd680 2.500 . S
O700 C682 1.258 . S
O701 Nd680 2.492 . S
O701 C682 1.239 . S
O702 Nd680 2.487 . S
O702 C689 1.241 . S
O703 Nd680 2.682 . S
O703 Nd681 2.414 . S
O703 C689 1.273 . S
O704 Nd680 2.410 . S
O704 C690 1.251 . S
O705 Nd681 2.424 . S
O705 C690 1.268 . S
O706 Nd681 2.500 1_554 S
O706 C691 1.258 . S
O707 Nd681 2.492 1_554 S
O707 C691 1.239 . S
O708 Nd681 2.487 . S
O708 C698 1.241 . S
O709 Nd680 2.414 . S
O709 Nd681 2.682 . S
O709 C698 1.273 . S
O710 Nd681 2.410 1_554 S
O710 C699 1.251 . S
O711 Nd680 2.424 1_554 S
O711 C699 1.268 . S
H712 C684 0.930 . S
H713 C685 0.929 . S
H714 C687 0.930 . S
H715 C688 0.929 . S
H716 C693 0.930 . S
H717 C694 0.929 . S
H718 C696 0.930 . S
H719 C697 0.929 . S
Nd720 C722 2.836 . S
Nd720 O740 2.500 . S
Nd720 O741 2.492 . S
Nd720 O742 2.487 . S
Nd720 O743 2.682 . S
Nd720 O744 2.410 . S
Nd720 O749 2.414 . S
Nd720 O751 2.424 . S
Nd721 C731 2.836 . S
Nd721 O743 2.414 . S
Nd721 O745 2.424 . S
Nd721 O746 2.500 . S
Nd721 O747 2.492 . S
Nd721 O748 2.487 . S
Nd721 O749 2.682 . S
Nd721 O750 2.410 . S
C722 Nd720 2.836 . S
C722 C723 1.498 . S
C722 O740 1.258 . S
C722 O741 1.239 . S
C723 C722 1.498 . S
C723 C724 1.366 . S
C723 C728 1.407 . S
C724 C723 1.366 . S
C724 C725 1.392 . S
C724 H752 0.930 . S
C725 C724 1.392 . S
C725 C726 1.398 . S
C725 H753 0.929 . S
C726 C725 1.398 . S
C726 C727 1.352 . S
C727 C726 1.352 . S
C727 C728 1.384 . S
C727 H754 0.930 . S
C728 C723 1.407 . S
C728 C727 1.384 . S
C728 H755 0.929 . S
C729 O742 1.241 . S
C729 O743 1.273 . S
C730 O744 1.251 . S
C730 O745 1.268 . S
C731 Nd721 2.836 . S
C731 C732 1.498 . S
C731 O746 1.258 . S
C731 O747 1.239 . S
C732 C731 1.498 . S
C732 C733 1.366 . S
C732 C737 1.407 . S
C733 C732 1.366 . S
C733 C734 1.392 . S
C733 H756 0.930 . S
C734 C733 1.392 . S
C734 C735 1.398 . S
C734 H757 0.929 . S
C735 C734 1.398 . S
C735 C736 1.352 . S
C736 C735 1.352 . S
C736 C737 1.384 . S
C736 H758 0.930 . S
C737 C732 1.407 . S
C737 C736 1.384 . S
C737 H759 0.929 . S
C738 O748 1.241 . S
C738 O749 1.273 . S
C739 O750 1.251 . S
C739 O751 1.268 . S
O740 Nd720 2.500 . S
O740 C722 1.258 . S
O741 Nd720 2.492 . S
O741 C722 1.239 . S
O742 Nd720 2.487 . S
O742 C729 1.241 . S
O743 Nd720 2.682 . S
O743 Nd721 2.414 . S
O743 C729 1.273 . S
O744 Nd720 2.410 . S
O744 C730 1.251 . S
O745 Nd721 2.424 . S
O745 C730 1.268 . S
O746 Nd721 2.500 . S
O746 C731 1.258 . S
O747 Nd721 2.492 . S
O747 C731 1.239 . S
O748 Nd721 2.487 . S
O748 C738 1.241 . S
O749 Nd720 2.414 . S
O749 Nd721 2.682 . S
O749 C738 1.273 . S
O750 Nd721 2.410 . S
O750 C739 1.251 . S
O751 Nd720 2.424 . S
O751 C739 1.268 . S
H752 C724 0.930 . S
H753 C725 0.929 . S
H754 C727 0.930 . S
H755 C728 0.929 . S
H756 C733 0.930 . S
H757 C734 0.929 . S
H758 C736 0.930 . S
H759 C737 0.929 . S
Nd760 C762 2.836 . S
Nd760 O780 2.500 . S
Nd760 O781 2.492 . S
Nd760 O782 2.487 . S
Nd760 O783 2.682 . S
Nd760 O784 2.410 . S
Nd760 O789 2.414 . S
Nd760 O791 2.424 . S
Nd761 C771 2.836 . S
Nd761 O783 2.414 . S
Nd761 O785 2.424 . S
Nd761 O786 2.500 . S
Nd761 O787 2.492 . S
Nd761 O788 2.487 . S
Nd761 O789 2.682 . S
Nd761 O790 2.410 . S
C762 Nd760 2.836 . S
C762 C763 1.498 . S
C762 O780 1.258 . S
C762 O781 1.239 . S
C763 C762 1.498 . S
C763 C764 1.366 . S
C763 C768 1.407 . S
C764 C763 1.366 . S
C764 C765 1.392 . S
C764 H792 0.930 . S
C765 C764 1.392 . S
C765 C766 1.398 . S
C765 H793 0.929 . S
C766 C765 1.398 . S
C766 C767 1.352 . S
C767 C766 1.352 . S
C767 C768 1.384 . S
C767 H794 0.930 . S
C768 C763 1.407 . S
C768 C767 1.384 . S
C768 H795 0.929 . S
C769 O782 1.241 . S
C769 O783 1.273 . S
C770 O784 1.251 . S
C770 O785 1.268 . S
C771 Nd761 2.836 . S
C771 C772 1.498 . S
C771 O786 1.258 . S
C771 O787 1.239 . S
C772 C771 1.498 . S
C772 C773 1.366 . S
C772 C777 1.407 . S
C773 C772 1.366 . S
C773 C774 1.392 . S
C773 H796 0.930 . S
C774 C773 1.392 . S
C774 C775 1.398 . S
C774 H797 0.929 . S
C775 C774 1.398 . S
C775 C776 1.352 . S
C776 C775 1.352 . S
C776 C777 1.384 . S
C776 H798 0.930 . S
C777 C772 1.407 . S
C777 C776 1.384 . S
C777 H799 0.929 . S
C778 O788 1.241 . S
C778 O789 1.273 . S
C779 O790 1.251 . S
C779 O791 1.268 . S
O780 Nd760 2.500 . S
O780 C762 1.258 . S
O781 Nd760 2.492 . S
O781 C762 1.239 . S
O782 Nd760 2.487 . S
O782 C769 1.241 . S
O783 Nd760 2.682 . S
O783 Nd761 2.414 . S
O783 C769 1.273 . S
O784 Nd760 2.410 . S
O784 C770 1.251 . S
O785 Nd761 2.424 . S
O785 C770 1.268 . S
O786 Nd761 2.500 . S
O786 C771 1.258 . S
O787 Nd761 2.492 . S
O787 C771 1.239 . S
O788 Nd761 2.487 . S
O788 C778 1.241 . S
O789 Nd760 2.414 . S
O789 Nd761 2.682 . S
O789 C778 1.273 . S
O790 Nd761 2.410 . S
O790 C779 1.251 . S
O791 Nd760 2.424 . S
O791 C779 1.268 . S
H792 C764 0.930 . S
H793 C765 0.929 . S
H794 C767 0.930 . S
H795 C768 0.929 . S
H796 C773 0.930 . S
H797 C774 0.929 . S
H798 C776 0.930 . S
H799 C777 0.929 . S
Nd800 C802 2.836 . S
Nd800 O820 2.500 . S
Nd800 O821 2.492 . S
Nd800 O822 2.487 . S
Nd800 O823 2.682 . S
Nd800 O824 2.410 . S
Nd800 O829 2.414 . S
Nd800 O831 2.424 . S
Nd801 C811 2.836 . S
Nd801 O823 2.414 . S
Nd801 O825 2.424 . S
Nd801 O826 2.500 . S
Nd801 O827 2.492 . S
Nd801 O828 2.487 . S
Nd801 O829 2.682 . S
Nd801 O830 2.410 . S
C802 Nd800 2.836 . S
C802 C803 1.498 . S
C802 O820 1.258 . S
C802 O821 1.239 . S
C803 C802 1.498 . S
C803 C804 1.366 . S
C803 C808 1.407 . S
C804 C803 1.366 . S
C804 C805 1.392 . S
C804 H832 0.930 . S
C805 C804 1.392 . S
C805 C806 1.398 . S
C805 H833 0.929 . S
C806 C805 1.398 . S
C806 C807 1.352 . S
C807 C806 1.352 . S
C807 C808 1.384 . S
C807 H834 0.930 . S
C808 C803 1.407 . S
C808 C807 1.384 . S
C808 H835 0.929 . S
C809 O822 1.241 . S
C809 O823 1.273 . S
C810 O824 1.251 . S
C810 O825 1.268 . S
C811 Nd801 2.836 . S
C811 C812 1.498 . S
C811 O826 1.258 . S
C811 O827 1.239 . S
C812 C811 1.498 . S
C812 C813 1.366 . S
C812 C817 1.407 . S
C813 C812 1.366 . S
C813 C814 1.392 . S
C813 H836 0.930 . S
C814 C813 1.392 . S
C814 C815 1.398 . S
C814 H837 0.929 . S
C815 C814 1.398 . S
C815 C816 1.352 . S
C816 C815 1.352 . S
C816 C817 1.384 . S
C816 H838 0.930 . S
C817 C812 1.407 . S
C817 C816 1.384 . S
C817 H839 0.929 . S
C818 O828 1.241 . S
C818 O829 1.273 . S
C819 O830 1.251 . S
C819 O831 1.268 . S
O820 Nd800 2.500 . S
O820 C802 1.258 . S
O821 Nd800 2.492 . S
O821 C802 1.239 . S
O822 Nd800 2.487 . S
O822 C809 1.241 . S
O823 Nd800 2.682 . S
O823 Nd801 2.414 . S
O823 C809 1.273 . S
O824 Nd800 2.410 . S
O824 C810 1.251 . S
O825 Nd801 2.424 . S
O825 C810 1.268 . S
O826 Nd801 2.500 . S
O826 C811 1.258 . S
O827 Nd801 2.492 . S
O827 C811 1.239 . S
O828 Nd801 2.487 . S
O828 C818 1.241 . S
O829 Nd800 2.414 . S
O829 Nd801 2.682 . S
O829 C818 1.273 . S
O830 Nd801 2.410 . S
O830 C819 1.251 . S
O831 Nd800 2.424 . S
O831 C819 1.268 . S
H832 C804 0.930 . S
H833 C805 0.929 . S
H834 C807 0.930 . S
H835 C808 0.929 . S
H836 C813 0.930 . S
H837 C814 0.929 . S
H838 C816 0.930 . S
H839 C817 0.929 . S
Nd840 C842 2.836 . S
Nd840 O860 2.500 . S
Nd840 O861 2.492 . S
Nd840 O862 2.487 . S
Nd840 O863 2.682 . S
Nd840 O864 2.410 . S
Nd840 O869 2.414 . S
Nd840 O871 2.424 . S
Nd841 C851 2.836 . S
Nd841 O863 2.414 . S
Nd841 O865 2.424 . S
Nd841 O866 2.500 . S
Nd841 O867 2.492 . S
Nd841 O868 2.487 . S
Nd841 O869 2.682 . S
Nd841 O870 2.410 . S
C842 Nd840 2.836 . S
C842 C843 1.498 . S
C842 O860 1.258 . S
C842 O861 1.239 . S
C843 C842 1.498 . S
C843 C844 1.366 . S
C843 C848 1.407 . S
C844 C843 1.366 . S
C844 C845 1.392 . S
C844 H872 0.930 . S
C845 C844 1.392 . S
C845 C846 1.398 . S
C845 H873 0.929 . S
C846 C845 1.398 . S
C846 C847 1.352 . S
C847 C846 1.352 . S
C847 C848 1.384 . S
C847 H874 0.930 . S
C848 C843 1.407 . S
C848 C847 1.384 . S
C848 H875 0.929 . S
C849 O862 1.241 . S
C849 O863 1.273 . S
C850 O864 1.251 . S
C850 O865 1.268 . S
C851 Nd841 2.836 . S
C851 C852 1.498 . S
C851 O866 1.258 . S
C851 O867 1.239 . S
C852 C851 1.498 . S
C852 C853 1.366 . S
C852 C857 1.407 . S
C853 C852 1.366 . S
C853 C854 1.392 1_556 S
C853 H876 0.930 . S
C854 C853 1.392 1_554 S
C854 C855 1.398 . S
C854 H877 0.929 . S
C855 C854 1.398 . S
C855 C856 1.352 . S
C856 C855 1.352 . S
C856 C857 1.384 1_554 S
C856 H878 0.930 . S
C857 C852 1.407 . S
C857 C856 1.384 1_556 S
C857 H879 0.929 . S
C858 O868 1.241 . S
C858 O869 1.273 . S
C859 O870 1.251 . S
C859 O871 1.268 . S
O860 Nd840 2.500 . S
O860 C842 1.258 . S
O861 Nd840 2.492 . S
O861 C842 1.239 . S
O862 Nd840 2.487 . S
O862 C849 1.241 . S
O863 Nd840 2.682 . S
O863 Nd841 2.414 . S
O863 C849 1.273 . S
O864 Nd840 2.410 . S
O864 C850 1.251 . S
O865 Nd841 2.424 . S
O865 C850 1.268 . S
O866 Nd841 2.500 . S
O866 C851 1.258 . S
O867 Nd841 2.492 . S
O867 C851 1.239 . S
O868 Nd841 2.487 . S
O868 C858 1.241 . S
O869 Nd840 2.414 . S
O869 Nd841 2.682 . S
O869 C858 1.273 . S
O870 Nd841 2.410 . S
O870 C859 1.251 . S
O871 Nd840 2.424 . S
O871 C859 1.268 . S
H872 C844 0.930 . S
H873 C845 0.929 . S
H874 C847 0.930 . S
H875 C848 0.929 . S
H876 C853 0.930 . S
H877 C854 0.929 . S
H878 C856 0.930 . S
H879 C857 0.929 . S
Nd880 C882 2.836 . S
Nd880 O900 2.500 . S
Nd880 O901 2.492 . S
Nd880 O902 2.487 . S
Nd880 O903 2.682 . S
Nd880 O904 2.410 . S
Nd880 O909 2.414 . S
Nd880 O911 2.424 . S
Nd881 C891 2.836 . S
Nd881 O903 2.414 . S
Nd881 O905 2.424 . S
Nd881 O906 2.500 . S
Nd881 O907 2.492 . S
Nd881 O908 2.487 . S
Nd881 O909 2.682 . S
Nd881 O910 2.410 . S
C882 Nd880 2.836 . S
C882 C883 1.498 . S
C882 O900 1.258 . S
C882 O901 1.239 . S
C883 C882 1.498 . S
C883 C884 1.366 . S
C883 C888 1.407 . S
C884 C883 1.366 . S
C884 C885 1.392 . S
C884 H912 0.930 . S
C885 C884 1.392 . S
C885 C886 1.398 . S
C885 H913 0.929 . S
C886 C885 1.398 . S
C886 C887 1.352 . S
C887 C886 1.352 . S
C887 C888 1.384 . S
C887 H914 0.930 . S
C888 C883 1.407 . S
C888 C887 1.384 . S
C888 H915 0.929 . S
C889 O902 1.241 . S
C889 O903 1.273 . S
C890 O904 1.251 . S
C890 O905 1.268 . S
C891 Nd881 2.836 . S
C891 C892 1.498 . S
C891 O906 1.258 . S
C891 O907 1.239 . S
C892 C891 1.498 . S
C892 C893 1.366 . S
C892 C897 1.407 . S
C893 C892 1.366 . S
C893 C894 1.392 1_556 S
C893 H916 0.930 . S
C894 C893 1.392 1_554 S
C894 C895 1.398 . S
C894 H917 0.929 . S
C895 C894 1.398 . S
C895 C896 1.352 . S
C896 C895 1.352 . S
C896 C897 1.384 1_554 S
C896 H918 0.930 . S
C897 C892 1.407 . S
C897 C896 1.384 1_556 S
C897 H919 0.929 . S
C898 O908 1.241 . S
C898 O909 1.273 . S
C899 O910 1.251 . S
C899 O911 1.268 . S
O900 Nd880 2.500 . S
O900 C882 1.258 . S
O901 Nd880 2.492 . S
O901 C882 1.239 . S
O902 Nd880 2.487 . S
O902 C889 1.241 . S
O903 Nd880 2.682 . S
O903 Nd881 2.414 . S
O903 C889 1.273 . S
O904 Nd880 2.410 . S
O904 C890 1.251 . S
O905 Nd881 2.424 . S
O905 C890 1.268 . S
O906 Nd881 2.500 . S
O906 C891 1.258 . S
O907 Nd881 2.492 . S
O907 C891 1.239 . S
O908 Nd881 2.487 . S
O908 C898 1.241 . S
O909 Nd880 2.414 . S
O909 Nd881 2.682 . S
O909 C898 1.273 . S
O910 Nd881 2.410 . S
O910 C899 1.251 . S
O911 Nd880 2.424 . S
O911 C899 1.268 . S
H912 C884 0.930 . S
H913 C885 0.929 . S
H914 C887 0.930 . S
H915 C888 0.929 . S
H916 C893 0.930 . S
H917 C894 0.929 . S
H918 C896 0.930 . S
H919 C897 0.929 . S
Nd920 C922 2.836 . S
Nd920 O940 2.500 . S
Nd920 O941 2.492 . S
Nd920 O942 2.487 . S
Nd920 O943 2.682 . S
Nd920 O944 2.410 . S
Nd920 O949 2.414 . S
Nd920 O951 2.424 . S
Nd921 C931 2.836 . S
Nd921 O943 2.414 . S
Nd921 O945 2.424 . S
Nd921 O946 2.500 . S
Nd921 O947 2.492 . S
Nd921 O948 2.487 . S
Nd921 O949 2.682 . S
Nd921 O950 2.410 . S
C922 Nd920 2.836 . S
C922 C923 1.498 . S
C922 O940 1.258 . S
C922 O941 1.239 . S
C923 C922 1.498 . S
C923 C924 1.366 . S
C923 C928 1.407 . S
C924 C923 1.366 . S
C924 C925 1.392 . S
C924 H952 0.930 . S
C925 C924 1.392 . S
C925 C926 1.398 . S
C925 H953 0.929 . S
C926 C925 1.398 . S
C926 C927 1.352 . S
C927 C926 1.352 . S
C927 C928 1.384 . S
C927 H954 0.930 . S
C928 C923 1.407 . S
C928 C927 1.384 . S
C928 H955 0.929 . S
C929 O942 1.241 . S
C929 O943 1.273 . S
C930 O944 1.251 . S
C930 O945 1.268 . S
C931 Nd921 2.836 . S
C931 C932 1.498 . S
C931 O946 1.258 . S
C931 O947 1.239 . S
C932 C931 1.498 . S
C932 C933 1.366 . S
C932 C937 1.407 . S
C933 C932 1.366 . S
C933 C934 1.392 1_556 S
C933 H956 0.930 . S
C934 C933 1.392 1_554 S
C934 C935 1.398 . S
C934 H957 0.929 . S
C935 C934 1.398 . S
C935 C936 1.352 . S
C936 C935 1.352 . S
C936 C937 1.384 1_554 S
C936 H958 0.930 . S
C937 C932 1.407 . S
C937 C936 1.384 1_556 S
C937 H959 0.929 . S
C938 O948 1.241 . S
C938 O949 1.273 . S
C939 O950 1.251 . S
C939 O951 1.268 . S
O940 Nd920 2.500 . S
O940 C922 1.258 . S
O941 Nd920 2.492 . S
O941 C922 1.239 . S
O942 Nd920 2.487 . S
O942 C929 1.241 . S
O943 Nd920 2.682 . S
O943 Nd921 2.414 . S
O943 C929 1.273 . S
O944 Nd920 2.410 . S
O944 C930 1.251 . S
O945 Nd921 2.424 . S
O945 C930 1.268 . S
O946 Nd921 2.500 . S
O946 C931 1.258 . S
O947 Nd921 2.492 . S
O947 C931 1.239 . S
O948 Nd921 2.487 . S
O948 C938 1.241 . S
O949 Nd920 2.414 . S
O949 Nd921 2.682 . S
O949 C938 1.273 . S
O950 Nd921 2.410 . S
O950 C939 1.251 . S
O951 Nd920 2.424 . S
O951 C939 1.268 . S
H952 C924 0.930 . S
H953 C925 0.929 . S
H954 C927 0.930 . S
H955 C928 0.929 . S
H956 C933 0.930 . S
H957 C934 0.929 . S
H958 C936 0.930 . S
H959 C937 0.929 . S
Nd960 C962 2.836 . S
Nd960 O980 2.500 . S
Nd960 O981 2.492 . S
Nd960 O982 2.487 . S
Nd960 O983 2.682 . S
Nd960 O984 2.410 . S
Nd960 O989 2.414 . S
Nd960 O991 2.424 . S
Nd961 C971 2.836 . S
Nd961 O983 2.414 . S
Nd961 O985 2.424 . S
Nd961 O986 2.500 . S
Nd961 O987 2.492 . S
Nd961 O988 2.487 . S
Nd961 O989 2.682 . S
Nd961 O990 2.410 . S
C962 Nd960 2.836 . S
C962 C963 1.498 . S
C962 O980 1.258 . S
C962 O981 1.239 . S
C963 C962 1.498 . S
C963 C964 1.366 . S
C963 C968 1.407 . S
C964 C963 1.366 . S
C964 C965 1.392 . S
C964 H992 0.930 . S
C965 C964 1.392 . S
C965 C966 1.398 . S
C965 H993 0.929 . S
C966 C965 1.398 . S
C966 C967 1.352 . S
C967 C966 1.352 . S
C967 C968 1.384 . S
C967 H994 0.930 . S
C968 C963 1.407 . S
C968 C967 1.384 . S
C968 H995 0.929 . S
C969 O982 1.241 . S
C969 O983 1.273 . S
C970 O984 1.251 . S
C970 O985 1.268 . S
C971 Nd961 2.836 . S
C971 C972 1.498 . S
C971 O986 1.258 . S
C971 O987 1.239 . S
C972 C971 1.498 . S
C972 C973 1.366 . S
C972 C977 1.407 . S
C973 C972 1.366 . S
C973 C974 1.392 . S
C973 H996 0.930 . S
C974 C973 1.392 . S
C974 C975 1.398 . S
C974 H997 0.929 . S
C975 C974 1.398 . S
C975 C976 1.352 . S
C976 C975 1.352 . S
C976 C977 1.384 . S
C976 H998 0.930 . S
C977 C972 1.407 . S
C977 C976 1.384 . S
C977 H999 0.929 . S
C978 O988 1.241 . S
C978 O989 1.273 . S
C979 O990 1.251 . S
C979 O991 1.268 . S
O980 Nd960 2.500 . S
O980 C962 1.258 . S
O981 Nd960 2.492 . S
O981 C962 1.239 . S
O982 Nd960 2.487 . S
O982 C969 1.241 . S
O983 Nd960 2.682 . S
O983 Nd961 2.414 . S
O983 C969 1.273 . S
O984 Nd960 2.410 . S
O984 C970 1.251 . S
O985 Nd961 2.424 . S
O985 C970 1.268 . S
O986 Nd961 2.500 . S
O986 C971 1.258 . S
O987 Nd961 2.492 . S
O987 C971 1.239 . S
O988 Nd961 2.487 . S
O988 C978 1.241 . S
O989 Nd960 2.414 . S
O989 Nd961 2.682 . S
O989 C978 1.273 . S
O990 Nd961 2.410 . S
O990 C979 1.251 . S
O991 Nd960 2.424 . S
O991 C979 1.268 . S
H992 C964 0.930 . S
H993 C965 0.929 . S
H994 C967 0.930 . S
H995 C968 0.929 . S
H996 C973 0.930 . S
H997 C974 0.929 . S
H998 C976 0.930 . S
H999 C977 0.929 . S
Nd1000 C1002 2.836 . S
Nd1000 O1020 2.500 . S
Nd1000 O1021 2.492 . S
Nd1000 O1022 2.487 . S
Nd1000 O1023 2.682 . S
Nd1000 O1024 2.410 . S
Nd1000 O1029 2.414 . S
Nd1000 O1031 2.424 . S
Nd1001 C1011 2.836 . S
Nd1001 O1023 2.414 . S
Nd1001 O1025 2.424 . S
Nd1001 O1026 2.500 . S
Nd1001 O1027 2.492 . S
Nd1001 O1028 2.487 . S
Nd1001 O1029 2.682 . S
Nd1001 O1030 2.410 . S
C1002 Nd1000 2.836 . S
C1002 C1003 1.498 . S
C1002 O1020 1.258 . S
C1002 O1021 1.239 . S
C1003 C1002 1.498 . S
C1003 C1004 1.366 . S
C1003 C1008 1.407 . S
C1004 C1003 1.366 . S
C1004 C1005 1.392 . S
C1004 H1032 0.930 . S
C1005 C1004 1.392 . S
C1005 C1006 1.398 . S
C1005 H1033 0.929 . S
C1006 C1005 1.398 . S
C1006 C1007 1.352 . S
C1007 C1006 1.352 . S
C1007 C1008 1.384 . S
C1007 H1034 0.930 . S
C1008 C1003 1.407 . S
C1008 C1007 1.384 . S
C1008 H1035 0.929 . S
C1009 O1022 1.241 . S
C1009 O1023 1.273 . S
C1010 O1024 1.251 . S
C1010 O1025 1.268 . S
C1011 Nd1001 2.836 . S
C1011 C1012 1.498 . S
C1011 O1026 1.258 . S
C1011 O1027 1.239 . S
C1012 C1011 1.498 . S
C1012 C1013 1.366 . S
C1012 C1017 1.407 . S
C1013 C1012 1.366 . S
C1013 C1014 1.392 . S
C1013 H1036 0.930 . S
C1014 C1013 1.392 . S
C1014 C1015 1.398 . S
C1014 H1037 0.929 . S
C1015 C1014 1.398 . S
C1015 C1016 1.352 . S
C1016 C1015 1.352 . S
C1016 C1017 1.384 . S
C1016 H1038 0.930 . S
C1017 C1012 1.407 . S
C1017 C1016 1.384 . S
C1017 H1039 0.929 . S
C1018 O1028 1.241 . S
C1018 O1029 1.273 . S
C1019 O1030 1.251 . S
C1019 O1031 1.268 . S
O1020 Nd1000 2.500 . S
O1020 C1002 1.258 . S
O1021 Nd1000 2.492 . S
O1021 C1002 1.239 . S
O1022 Nd1000 2.487 . S
O1022 C1009 1.241 . S
O1023 Nd1000 2.682 . S
O1023 Nd1001 2.414 . S
O1023 C1009 1.273 . S
O1024 Nd1000 2.410 . S
O1024 C1010 1.251 . S
O1025 Nd1001 2.424 . S
O1025 C1010 1.268 . S
O1026 Nd1001 2.500 . S
O1026 C1011 1.258 . S
O1027 Nd1001 2.492 . S
O1027 C1011 1.239 . S
O1028 Nd1001 2.487 . S
O1028 C1018 1.241 . S
O1029 Nd1000 2.414 . S
O1029 Nd1001 2.682 . S
O1029 C1018 1.273 . S
O1030 Nd1001 2.410 . S
O1030 C1019 1.251 . S
O1031 Nd1000 2.424 . S
O1031 C1019 1.268 . S
H1032 C1004 0.930 . S
H1033 C1005 0.929 . S
H1034 C1007 0.930 . S
H1035 C1008 0.929 . S
H1036 C1013 0.930 . S
H1037 C1014 0.929 . S
H1038 C1016 0.930 . S
H1039 C1017 0.929 . S
Nd1040 C1042 2.836 . S
Nd1040 O1060 2.500 . S
Nd1040 O1061 2.492 . S
Nd1040 O1062 2.487 . S
Nd1040 O1063 2.682 . S
Nd1040 O1064 2.410 . S
Nd1040 O1069 2.414 . S
Nd1040 O1071 2.424 . S
Nd1041 C1051 2.836 . S
Nd1041 O1063 2.414 . S
Nd1041 O1065 2.424 . S
Nd1041 O1066 2.500 . S
Nd1041 O1067 2.492 . S
Nd1041 O1068 2.487 . S
Nd1041 O1069 2.682 . S
Nd1041 O1070 2.410 . S
C1042 Nd1040 2.836 . S
C1042 C1043 1.498 . S
C1042 O1060 1.258 . S
C1042 O1061 1.239 . S
C1043 C1042 1.498 . S
C1043 C1044 1.366 . S
C1043 C1048 1.407 . S
C1044 C1043 1.366 . S
C1044 C1045 1.392 . S
C1044 H1072 0.930 . S
C1045 C1044 1.392 . S
C1045 C1046 1.398 . S
C1045 H1073 0.929 . S
C1046 C1045 1.398 . S
C1046 C1047 1.352 . S
C1047 C1046 1.352 . S
C1047 C1048 1.384 . S
C1047 H1074 0.930 . S
C1048 C1043 1.407 . S
C1048 C1047 1.384 . S
C1048 H1075 0.929 . S
C1049 O1062 1.241 . S
C1049 O1063 1.273 . S
C1050 O1064 1.251 . S
C1050 O1065 1.268 . S
C1051 Nd1041 2.836 . S
C1051 C1052 1.498 . S
C1051 O1066 1.258 . S
C1051 O1067 1.239 . S
C1052 C1051 1.498 . S
C1052 C1053 1.366 . S
C1052 C1057 1.407 . S
C1053 C1052 1.366 . S
C1053 C1054 1.392 . S
C1053 H1076 0.930 . S
C1054 C1053 1.392 . S
C1054 C1055 1.398 . S
C1054 H1077 0.929 . S
C1055 C1054 1.398 . S
C1055 C1056 1.352 . S
C1056 C1055 1.352 . S
C1056 C1057 1.384 . S
C1056 H1078 0.930 . S
C1057 C1052 1.407 . S
C1057 C1056 1.384 . S
C1057 H1079 0.929 . S
C1058 O1068 1.241 . S
C1058 O1069 1.273 . S
C1059 O1070 1.251 . S
C1059 O1071 1.268 . S
O1060 Nd1040 2.500 . S
O1060 C1042 1.258 . S
O1061 Nd1040 2.492 . S
O1061 C1042 1.239 . S
O1062 Nd1040 2.487 . S
O1062 C1049 1.241 . S
O1063 Nd1040 2.682 . S
O1063 Nd1041 2.414 . S
O1063 C1049 1.273 . S
O1064 Nd1040 2.410 . S
O1064 C1050 1.251 . S
O1065 Nd1041 2.424 . S
O1065 C1050 1.268 . S
O1066 Nd1041 2.500 . S
O1066 C1051 1.258 . S
O1067 Nd1041 2.492 . S
O1067 C1051 1.239 . S
O1068 Nd1041 2.487 . S
O1068 C1058 1.241 . S
O1069 Nd1040 2.414 . S
O1069 Nd1041 2.682 . S
O1069 C1058 1.273 . S
O1070 Nd1041 2.410 . S
O1070 C1059 1.251 . S
O1071 Nd1040 2.424 . S
O1071 C1059 1.268 . S
H1072 C1044 0.930 . S
H1073 C1045 0.929 . S
H1074 C1047 0.930 . S
H1075 C1048 0.929 . S
H1076 C1053 0.930 . S
H1077 C1054 0.929 . S
H1078 C1056 0.930 . S
H1079 C1057 0.929 . S
Nd1080 C1082 2.836 . S
Nd1080 O1100 2.500 . S
Nd1080 O1101 2.492 . S
Nd1080 O1102 2.487 . S
Nd1080 O1103 2.682 . S
Nd1080 O1104 2.410 . S
Nd1080 O1109 2.414 . S
Nd1080 O1111 2.424 . S
Nd1081 C1091 2.836 . S
Nd1081 O1103 2.414 . S
Nd1081 O1105 2.424 . S
Nd1081 O1106 2.500 . S
Nd1081 O1107 2.492 . S
Nd1081 O1108 2.487 . S
Nd1081 O1109 2.682 . S
Nd1081 O1110 2.410 . S
C1082 Nd1080 2.836 . S
C1082 C1083 1.498 . S
C1082 O1100 1.258 . S
C1082 O1101 1.239 . S
C1083 C1082 1.498 . S
C1083 C1084 1.366 . S
C1083 C1088 1.407 . S
C1084 C1083 1.366 . S
C1084 C1085 1.392 . S
C1084 H1112 0.930 . S
C1085 C1084 1.392 . S
C1085 C1086 1.398 . S
C1085 H1113 0.929 . S
C1086 C1085 1.398 . S
C1086 C1087 1.352 . S
C1087 C1086 1.352 . S
C1087 C1088 1.384 . S
C1087 H1114 0.930 . S
C1088 C1083 1.407 . S
C1088 C1087 1.384 . S
C1088 H1115 0.929 . S
C1089 O1102 1.241 . S
C1089 O1103 1.273 . S
C1090 O1104 1.251 . S
C1090 O1105 1.268 . S
C1091 Nd1081 2.836 . S
C1091 C1092 1.498 . S
C1091 O1106 1.258 . S
C1091 O1107 1.239 . S
C1092 C1091 1.498 . S
C1092 C1093 1.366 . S
C1092 C1097 1.407 . S
C1093 C1092 1.366 . S
C1093 C1094 1.392 . S
C1093 H1116 0.930 . S
C1094 C1093 1.392 . S
C1094 C1095 1.398 . S
C1094 H1117 0.929 . S
C1095 C1094 1.398 . S
C1095 C1096 1.352 . S
C1096 C1095 1.352 . S
C1096 C1097 1.384 . S
C1096 H1118 0.930 . S
C1097 C1092 1.407 . S
C1097 C1096 1.384 . S
C1097 H1119 0.929 . S
C1098 O1108 1.241 . S
C1098 O1109 1.273 . S
C1099 O1110 1.251 . S
C1099 O1111 1.268 . S
O1100 Nd1080 2.500 . S
O1100 C1082 1.258 . S
O1101 Nd1080 2.492 . S
O1101 C1082 1.239 . S
O1102 Nd1080 2.487 . S
O1102 C1089 1.241 . S
O1103 Nd1080 2.682 . S
O1103 Nd1081 2.414 . S
O1103 C1089 1.273 . S
O1104 Nd1080 2.410 . S
O1104 C1090 1.251 . S
O1105 Nd1081 2.424 . S
O1105 C1090 1.268 . S
O1106 Nd1081 2.500 . S
O1106 C1091 1.258 . S
O1107 Nd1081 2.492 . S
O1107 C1091 1.239 . S
O1108 Nd1081 2.487 . S
O1108 C1098 1.241 . S
O1109 Nd1080 2.414 . S
O1109 Nd1081 2.682 . S
O1109 C1098 1.273 . S
O1110 Nd1081 2.410 . S
O1110 C1099 1.251 . S
O1111 Nd1080 2.424 . S
O1111 C1099 1.268 . S
H1112 C1084 0.930 . S
H1113 C1085 0.929 . S
H1114 C1087 0.930 . S
H1115 C1088 0.929 . S
H1116 C1093 0.930 . S
H1117 C1094 0.929 . S
H1118 C1096 0.930 . S
H1119 C1097 0.929 . S
Nd1120 C1122 2.836 . S
Nd1120 O1140 2.500 . S
Nd1120 O1141 2.492 . S
Nd1120 O1142 2.487 . S
Nd1120 O1143 2.682 . S
Nd1120 O1144 2.410 . S
Nd1120 O1149 2.414 . S
Nd1120 O1151 2.424 . S
Nd1121 C1131 2.836 . S
Nd1121 O1143 2.414 . S
Nd1121 O1145 2.424 . S
Nd1121 O1146 2.500 . S
Nd1121 O1147 2.492 . S
Nd1121 O1148 2.487 . S
Nd1121 O1149 2.682 . S
Nd1121 O1150 2.410 . S
C1122 Nd1120 2.836 . S
C1122 C1123 1.498 . S
C1122 O1140 1.258 . S
C1122 O1141 1.239 . S
C1123 C1122 1.498 . S
C1123 C1124 1.366 . S
C1123 C1128 1.407 . S
C1124 C1123 1.366 . S
C1124 C1125 1.392 . S
C1124 H1152 0.930 . S
C1125 C1124 1.392 . S
C1125 C1126 1.398 . S
C1125 H1153 0.929 . S
C1126 C1125 1.398 . S
C1126 C1127 1.352 . S
C1127 C1126 1.352 . S
C1127 C1128 1.384 . S
C1127 H1154 0.930 . S
C1128 C1123 1.407 . S
C1128 C1127 1.384 . S
C1128 H1155 0.929 . S
C1129 O1142 1.241 . S
C1129 O1143 1.273 . S
C1130 O1144 1.251 . S
C1130 O1145 1.268 . S
C1131 Nd1121 2.836 . S
C1131 C1132 1.498 . S
C1131 O1146 1.258 . S
C1131 O1147 1.239 . S
C1132 C1131 1.498 . S
C1132 C1133 1.366 . S
C1132 C1137 1.407 . S
C1133 C1132 1.366 . S
C1133 C1134 1.392 . S
C1133 H1156 0.930 . S
C1134 C1133 1.392 . S
C1134 C1135 1.398 . S
C1134 H1157 0.929 . S
C1135 C1134 1.398 . S
C1135 C1136 1.352 . S
C1136 C1135 1.352 . S
C1136 C1137 1.384 . S
C1136 H1158 0.930 . S
C1137 C1132 1.407 . S
C1137 C1136 1.384 . S
C1137 H1159 0.929 . S
C1138 O1148 1.241 . S
C1138 O1149 1.273 . S
C1139 O1150 1.251 . S
C1139 O1151 1.268 . S
O1140 Nd1120 2.500 . S
O1140 C1122 1.258 . S
O1141 Nd1120 2.492 . S
O1141 C1122 1.239 . S
O1142 Nd1120 2.487 . S
O1142 C1129 1.241 . S
O1143 Nd1120 2.682 . S
O1143 Nd1121 2.414 . S
O1143 C1129 1.273 . S
O1144 Nd1120 2.410 . S
O1144 C1130 1.251 . S
O1145 Nd1121 2.424 . S
O1145 C1130 1.268 . S
O1146 Nd1121 2.500 . S
O1146 C1131 1.258 . S
O1147 Nd1121 2.492 . S
O1147 C1131 1.239 . S
O1148 Nd1121 2.487 . S
O1148 C1138 1.241 . S
O1149 Nd1120 2.414 . S
O1149 Nd1121 2.682 . S
O1149 C1138 1.273 . S
O1150 Nd1121 2.410 . S
O1150 C1139 1.251 . S
O1151 Nd1120 2.424 . S
O1151 C1139 1.268 . S
H1152 C1124 0.930 . S
H1153 C1125 0.929 . S
H1154 C1127 0.930 . S
H1155 C1128 0.929 . S
H1156 C1133 0.930 . S
H1157 C1134 0.929 . S
H1158 C1136 0.930 . S
H1159 C1137 0.929 . S
Nd1160 C1162 2.836 . S
Nd1160 O1180 2.500 . S
Nd1160 O1181 2.492 . S
Nd1160 O1182 2.487 . S
Nd1160 O1183 2.682 . S
Nd1160 O1184 2.410 . S
Nd1160 O1189 2.414 . S
Nd1160 O1191 2.424 . S
Nd1161 C1171 2.836 . S
Nd1161 O1183 2.414 . S
Nd1161 O1185 2.424 . S
Nd1161 O1186 2.500 . S
Nd1161 O1187 2.492 . S
Nd1161 O1188 2.487 . S
Nd1161 O1189 2.682 . S
Nd1161 O1190 2.410 . S
C1162 Nd1160 2.836 . S
C1162 C1163 1.498 . S
C1162 O1180 1.258 . S
C1162 O1181 1.239 . S
C1163 C1162 1.498 . S
C1163 C1164 1.366 . S
C1163 C1168 1.407 . S
C1164 C1163 1.366 . S
C1164 C1165 1.392 . S
C1164 H1192 0.930 . S
C1165 C1164 1.392 . S
C1165 C1166 1.398 . S
C1165 H1193 0.929 . S
C1166 C1165 1.398 . S
C1166 C1167 1.352 . S
C1167 C1166 1.352 . S
C1167 C1168 1.384 . S
C1167 H1194 0.930 . S
C1168 C1163 1.407 . S
C1168 C1167 1.384 . S
C1168 H1195 0.929 . S
C1169 O1182 1.241 . S
C1169 O1183 1.273 . S
C1170 O1184 1.251 . S
C1170 O1185 1.268 . S
C1171 Nd1161 2.836 . S
C1171 C1172 1.498 . S
C1171 O1186 1.258 . S
C1171 O1187 1.239 . S
C1172 C1171 1.498 . S
C1172 C1173 1.366 . S
C1172 C1177 1.407 . S
C1173 C1172 1.366 . S
C1173 C1174 1.392 . S
C1173 H1196 0.930 . S
C1174 C1173 1.392 . S
C1174 C1175 1.398 . S
C1174 H1197 0.929 . S
C1175 C1174 1.398 . S
C1175 C1176 1.352 . S
C1176 C1175 1.352 . S
C1176 C1177 1.384 . S
C1176 H1198 0.930 . S
C1177 C1172 1.407 . S
C1177 C1176 1.384 . S
C1177 H1199 0.929 . S
C1178 O1188 1.241 . S
C1178 O1189 1.273 . S
C1179 O1190 1.251 . S
C1179 O1191 1.268 . S
O1180 Nd1160 2.500 . S
O1180 C1162 1.258 . S
O1181 Nd1160 2.492 . S
O1181 C1162 1.239 . S
O1182 Nd1160 2.487 . S
O1182 C1169 1.241 . S
O1183 Nd1160 2.682 . S
O1183 Nd1161 2.414 . S
O1183 C1169 1.273 . S
O1184 Nd1160 2.410 . S
O1184 C1170 1.251 . S
O1185 Nd1161 2.424 . S
O1185 C1170 1.268 . S
O1186 Nd1161 2.500 . S
O1186 C1171 1.258 . S
O1187 Nd1161 2.492 . S
O1187 C1171 1.239 . S
O1188 Nd1161 2.487 . S
O1188 C1178 1.241 . S
O1189 Nd1160 2.414 . S
O1189 Nd1161 2.682 . S
O1189 C1178 1.273 . S
O1190 Nd1161 2.410 . S
O1190 C1179 1.251 . S
O1191 Nd1160 2.424 . S
O1191 C1179 1.268 . S
H1192 C1164 0.930 . S
H1193 C1165 0.929 . S
H1194 C1167 0.930 . S
H1195 C1168 0.929 . S
H1196 C1173 0.930 . S
H1197 C1174 0.929 . S
H1198 C1176 0.930 . S
H1199 C1177 0.929 . S
Nd1200 C1202 2.836 . S
Nd1200 O1220 2.500 . S
Nd1200 O1221 2.492 . S
Nd1200 O1222 2.487 . S
Nd1200 O1223 2.682 . S
Nd1200 O1224 2.410 . S
Nd1200 O1229 2.414 . S
Nd1200 O1231 2.424 . S
Nd1201 C1211 2.836 . S
Nd1201 O1223 2.414 . S
Nd1201 O1225 2.424 . S
Nd1201 O1226 2.500 . S
Nd1201 O1227 2.492 . S
Nd1201 O1228 2.487 . S
Nd1201 O1229 2.682 . S
Nd1201 O1230 2.410 . S
C1202 Nd1200 2.836 . S
C1202 C1203 1.498 . S
C1202 O1220 1.258 . S
C1202 O1221 1.239 . S
C1203 C1202 1.498 . S
C1203 C1204 1.366 . S
C1203 C1208 1.407 . S
C1204 C1203 1.366 . S
C1204 C1205 1.392 . S
C1204 H1232 0.930 . S
C1205 C1204 1.392 . S
C1205 C1206 1.398 1_556 S
C1205 H1233 0.929 1_556 S
C1206 C1205 1.398 1_554 S
C1206 C1207 1.352 1_554 S
C1207 C1206 1.352 1_556 S
C1207 C1208 1.384 . S
C1207 H1234 0.930 . S
C1208 C1203 1.407 . S
C1208 C1207 1.384 . S
C1208 H1235 0.929 . S
C1209 O1222 1.241 . S
C1209 O1223 1.273 . S
C1210 O1224 1.251 . S
C1210 O1225 1.268 . S
C1211 Nd1201 2.836 . S
C1211 C1212 1.498 . S
C1211 O1226 1.258 . S
C1211 O1227 1.239 . S
C1212 C1211 1.498 . S
C1212 C1213 1.366 . S
C1212 C1217 1.407 . S
C1213 C1212 1.366 . S
C1213 C1214 1.392 . S
C1213 H1236 0.930 . S
C1214 C1213 1.392 . S
C1214 C1215 1.398 . S
C1214 H1237 0.929 . S
C1215 C1214 1.398 . S
C1215 C1216 1.352 . S
C1216 C1215 1.352 . S
C1216 C1217 1.384 . S
C1216 H1238 0.930 . S
C1217 C1212 1.407 . S
C1217 C1216 1.384 . S
C1217 H1239 0.929 . S
C1218 O1228 1.241 . S
C1218 O1229 1.273 . S
C1219 O1230 1.251 . S
C1219 O1231 1.268 . S
O1220 Nd1200 2.500 . S
O1220 C1202 1.258 . S
O1221 Nd1200 2.492 . S
O1221 C1202 1.239 . S
O1222 Nd1200 2.487 . S
O1222 C1209 1.241 . S
O1223 Nd1200 2.682 . S
O1223 Nd1201 2.414 . S
O1223 C1209 1.273 . S
O1224 Nd1200 2.410 . S
O1224 C1210 1.251 . S
O1225 Nd1201 2.424 . S
O1225 C1210 1.268 . S
O1226 Nd1201 2.500 . S
O1226 C1211 1.258 . S
O1227 Nd1201 2.492 . S
O1227 C1211 1.239 . S
O1228 Nd1201 2.487 . S
O1228 C1218 1.241 . S
O1229 Nd1200 2.414 . S
O1229 Nd1201 2.682 . S
O1229 C1218 1.273 . S
O1230 Nd1201 2.410 . S
O1230 C1219 1.251 . S
O1231 Nd1200 2.424 . S
O1231 C1219 1.268 . S
H1232 C1204 0.930 . S
H1233 C1205 0.929 1_554 S
H1234 C1207 0.930 . S
H1235 C1208 0.929 . S
H1236 C1213 0.930 . S
H1237 C1214 0.929 . S
H1238 C1216 0.930 . S
H1239 C1217 0.929 . S
Nd1240 C1242 2.836 . S
Nd1240 O1260 2.500 . S
Nd1240 O1261 2.492 . S
Nd1240 O1262 2.487 . S
Nd1240 O1263 2.682 . S
Nd1240 O1264 2.410 . S
Nd1240 O1269 2.414 . S
Nd1240 O1271 2.424 . S
Nd1241 C1251 2.836 . S
Nd1241 O1263 2.414 . S
Nd1241 O1265 2.424 . S
Nd1241 O1266 2.500 . S
Nd1241 O1267 2.492 . S
Nd1241 O1268 2.487 . S
Nd1241 O1269 2.682 . S
Nd1241 O1270 2.410 . S
C1242 Nd1240 2.836 . S
C1242 C1243 1.498 . S
C1242 O1260 1.258 . S
C1242 O1261 1.239 . S
C1243 C1242 1.498 . S
C1243 C1244 1.366 . S
C1243 C1248 1.407 . S
C1244 C1243 1.366 . S
C1244 C1245 1.392 . S
C1244 H1272 0.930 . S
C1245 C1244 1.392 . S
C1245 C1246 1.398 1_556 S
C1245 H1273 0.929 1_556 S
C1246 C1245 1.398 1_554 S
C1246 C1247 1.352 1_554 S
C1247 C1246 1.352 1_556 S
C1247 C1248 1.384 . S
C1247 H1274 0.930 . S
C1248 C1243 1.407 . S
C1248 C1247 1.384 . S
C1248 H1275 0.929 . S
C1249 O1262 1.241 . S
C1249 O1263 1.273 . S
C1250 O1264 1.251 . S
C1250 O1265 1.268 . S
C1251 Nd1241 2.836 . S
C1251 C1252 1.498 . S
C1251 O1266 1.258 . S
C1251 O1267 1.239 . S
C1252 C1251 1.498 . S
C1252 C1253 1.366 . S
C1252 C1257 1.407 . S
C1253 C1252 1.366 . S
C1253 C1254 1.392 . S
C1253 H1276 0.930 . S
C1254 C1253 1.392 . S
C1254 C1255 1.398 . S
C1254 H1277 0.929 . S
C1255 C1254 1.398 . S
C1255 C1256 1.352 . S
C1256 C1255 1.352 . S
C1256 C1257 1.384 . S
C1256 H1278 0.930 . S
C1257 C1252 1.407 . S
C1257 C1256 1.384 . S
C1257 H1279 0.929 . S
C1258 O1268 1.241 . S
C1258 O1269 1.273 . S
C1259 O1270 1.251 . S
C1259 O1271 1.268 . S
O1260 Nd1240 2.500 . S
O1260 C1242 1.258 . S
O1261 Nd1240 2.492 . S
O1261 C1242 1.239 . S
O1262 Nd1240 2.487 . S
O1262 C1249 1.241 . S
O1263 Nd1240 2.682 . S
O1263 Nd1241 2.414 . S
O1263 C1249 1.273 . S
O1264 Nd1240 2.410 . S
O1264 C1250 1.251 . S
O1265 Nd1241 2.424 . S
O1265 C1250 1.268 . S
O1266 Nd1241 2.500 . S
O1266 C1251 1.258 . S
O1267 Nd1241 2.492 . S
O1267 C1251 1.239 . S
O1268 Nd1241 2.487 . S
O1268 C1258 1.241 . S
O1269 Nd1240 2.414 . S
O1269 Nd1241 2.682 . S
O1269 C1258 1.273 . S
O1270 Nd1241 2.410 . S
O1270 C1259 1.251 . S
O1271 Nd1240 2.424 . S
O1271 C1259 1.268 . S
H1272 C1244 0.930 . S
H1273 C1245 0.929 1_554 S
H1274 C1247 0.930 . S
H1275 C1248 0.929 . S
H1276 C1253 0.930 . S
H1277 C1254 0.929 . S
H1278 C1256 0.930 . S
H1279 C1257 0.929 . S
Nd1280 C1282 2.836 . S
Nd1280 O1300 2.500 . S
Nd1280 O1301 2.492 . S
Nd1280 O1302 2.487 . S
Nd1280 O1303 2.682 . S
Nd1280 O1304 2.410 . S
Nd1280 O1309 2.414 . S
Nd1280 O1311 2.424 . S
Nd1281 C1291 2.836 . S
Nd1281 O1303 2.414 . S
Nd1281 O1305 2.424 . S
Nd1281 O1306 2.500 . S
Nd1281 O1307 2.492 . S
Nd1281 O1308 2.487 . S
Nd1281 O1309 2.682 . S
Nd1281 O1310 2.410 . S
C1282 Nd1280 2.836 . S
C1282 C1283 1.498 . S
C1282 O1300 1.258 . S
C1282 O1301 1.239 . S
C1283 C1282 1.498 . S
C1283 C1284 1.366 . S
C1283 C1288 1.407 . S
C1284 C1283 1.366 . S
C1284 C1285 1.392 . S
C1284 H1312 0.930 . S
C1285 C1284 1.392 . S
C1285 C1286 1.398 1_556 S
C1285 H1313 0.929 1_556 S
C1286 C1285 1.398 1_554 S
C1286 C1287 1.352 1_554 S
C1287 C1286 1.352 1_556 S
C1287 C1288 1.384 . S
C1287 H1314 0.930 . S
C1288 C1283 1.407 . S
C1288 C1287 1.384 . S
C1288 H1315 0.929 . S
C1289 O1302 1.241 . S
C1289 O1303 1.273 . S
C1290 O1304 1.251 . S
C1290 O1305 1.268 . S
C1291 Nd1281 2.836 . S
C1291 C1292 1.498 . S
C1291 O1306 1.258 . S
C1291 O1307 1.239 . S
C1292 C1291 1.498 . S
C1292 C1293 1.366 . S
C1292 C1297 1.407 . S
C1293 C1292 1.366 . S
C1293 C1294 1.392 . S
C1293 H1316 0.930 . S
C1294 C1293 1.392 . S
C1294 C1295 1.398 . S
C1294 H1317 0.929 . S
C1295 C1294 1.398 . S
C1295 C1296 1.352 . S
C1296 C1295 1.352 . S
C1296 C1297 1.384 . S
C1296 H1318 0.930 . S
C1297 C1292 1.407 . S
C1297 C1296 1.384 . S
C1297 H1319 0.929 . S
C1298 O1308 1.241 . S
C1298 O1309 1.273 . S
C1299 O1310 1.251 . S
C1299 O1311 1.268 . S
O1300 Nd1280 2.500 . S
O1300 C1282 1.258 . S
O1301 Nd1280 2.492 . S
O1301 C1282 1.239 . S
O1302 Nd1280 2.487 . S
O1302 C1289 1.241 . S
O1303 Nd1280 2.682 . S
O1303 Nd1281 2.414 . S
O1303 C1289 1.273 . S
O1304 Nd1280 2.410 . S
O1304 C1290 1.251 . S
O1305 Nd1281 2.424 . S
O1305 C1290 1.268 . S
O1306 Nd1281 2.500 . S
O1306 C1291 1.258 . S
O1307 Nd1281 2.492 . S
O1307 C1291 1.239 . S
O1308 Nd1281 2.487 . S
O1308 C1298 1.241 . S
O1309 Nd1280 2.414 . S
O1309 Nd1281 2.682 . S
O1309 C1298 1.273 . S
O1310 Nd1281 2.410 . S
O1310 C1299 1.251 . S
O1311 Nd1280 2.424 . S
O1311 C1299 1.268 . S
H1312 C1284 0.930 . S
H1313 C1285 0.929 1_554 S
H1314 C1287 0.930 . S
H1315 C1288 0.929 . S
H1316 C1293 0.930 . S
H1317 C1294 0.929 . S
H1318 C1296 0.930 . S
H1319 C1297 0.929 . S
Nd1320 C1322 2.836 . S
Nd1320 O1340 2.500 . S
Nd1320 O1341 2.492 . S
Nd1320 O1342 2.487 . S
Nd1320 O1343 2.682 . S
Nd1320 O1344 2.410 . S
Nd1320 O1349 2.414 . S
Nd1320 O1351 2.424 . S
Nd1321 C1331 2.836 . S
Nd1321 O1343 2.414 . S
Nd1321 O1345 2.424 . S
Nd1321 O1346 2.500 . S
Nd1321 O1347 2.492 . S
Nd1321 O1348 2.487 . S
Nd1321 O1349 2.682 . S
Nd1321 O1350 2.410 . S
C1322 Nd1320 2.836 . S
C1322 C1323 1.498 . S
C1322 O1340 1.258 . S
C1322 O1341 1.239 . S
C1323 C1322 1.498 . S
C1323 C1324 1.366 . S
C1323 C1328 1.407 . S
C1324 C1323 1.366 . S
C1324 C1325 1.392 1_554 S
C1324 H1352 0.930 . S
C1325 C1324 1.392 1_556 S
C1325 C1326 1.398 . S
C1325 H1353 0.929 . S
C1326 C1325 1.398 . S
C1326 C1327 1.352 . S
C1327 C1326 1.352 . S
C1327 C1328 1.384 1_556 S
C1327 H1354 0.930 . S
C1328 C1323 1.407 . S
C1328 C1327 1.384 1_554 S
C1328 H1355 0.929 . S
C1329 O1342 1.241 . S
C1329 O1343 1.273 . S
C1330 O1344 1.251 . S
C1330 O1345 1.268 . S
C1331 Nd1321 2.836 . S
C1331 C1332 1.498 . S
C1331 O1346 1.258 . S
C1331 O1347 1.239 . S
C1332 C1331 1.498 . S
C1332 C1333 1.366 . S
C1332 C1337 1.407 . S
C1333 C1332 1.366 . S
C1333 C1334 1.392 . S
C1333 H1356 0.930 . S
C1334 C1333 1.392 . S
C1334 C1335 1.398 . S
C1334 H1357 0.929 . S
C1335 C1334 1.398 . S
C1335 C1336 1.352 . S
C1336 C1335 1.352 . S
C1336 C1337 1.384 . S
C1336 H1358 0.930 . S
C1337 C1332 1.407 . S
C1337 C1336 1.384 . S
C1337 H1359 0.929 . S
C1338 O1348 1.241 . S
C1338 O1349 1.273 . S
C1339 O1350 1.251 . S
C1339 O1351 1.268 . S
O1340 Nd1320 2.500 . S
O1340 C1322 1.258 . S
O1341 Nd1320 2.492 . S
O1341 C1322 1.239 . S
O1342 Nd1320 2.487 . S
O1342 C1329 1.241 . S
O1343 Nd1320 2.682 . S
O1343 Nd1321 2.414 . S
O1343 C1329 1.273 . S
O1344 Nd1320 2.410 . S
O1344 C1330 1.251 . S
O1345 Nd1321 2.424 . S
O1345 C1330 1.268 . S
O1346 Nd1321 2.500 . S
O1346 C1331 1.258 . S
O1347 Nd1321 2.492 . S
O1347 C1331 1.239 . S
O1348 Nd1321 2.487 . S
O1348 C1338 1.241 . S
O1349 Nd1320 2.414 . S
O1349 Nd1321 2.682 . S
O1349 C1338 1.273 . S
O1350 Nd1321 2.410 . S
O1350 C1339 1.251 . S
O1351 Nd1320 2.424 . S
O1351 C1339 1.268 . S
H1352 C1324 0.930 . S
H1353 C1325 0.929 . S
H1354 C1327 0.930 . S
H1355 C1328 0.929 . S
H1356 C1333 0.930 . S
H1357 C1334 0.929 . S
H1358 C1336 0.930 . S
H1359 C1337 0.929 . S
Nd1360 C1362 2.836 . S
Nd1360 O1380 2.500 . S
Nd1360 O1381 2.492 . S
Nd1360 O1382 2.487 . S
Nd1360 O1383 2.682 . S
Nd1360 O1384 2.410 . S
Nd1360 O1389 2.414 . S
Nd1360 O1391 2.424 . S
Nd1361 C1371 2.836 . S
Nd1361 O1383 2.414 . S
Nd1361 O1385 2.424 . S
Nd1361 O1386 2.500 . S
Nd1361 O1387 2.492 . S
Nd1361 O1388 2.487 . S
Nd1361 O1389 2.682 . S
Nd1361 O1390 2.410 . S
C1362 Nd1360 2.836 . S
C1362 C1363 1.498 . S
C1362 O1380 1.258 . S
C1362 O1381 1.239 . S
C1363 C1362 1.498 . S
C1363 C1364 1.366 . S
C1363 C1368 1.407 . S
C1364 C1363 1.366 . S
C1364 C1365 1.392 1_554 S
C1364 H1392 0.930 . S
C1365 C1364 1.392 1_556 S
C1365 C1366 1.398 . S
C1365 H1393 0.929 . S
C1366 C1365 1.398 . S
C1366 C1367 1.352 . S
C1367 C1366 1.352 . S
C1367 C1368 1.384 1_556 S
C1367 H1394 0.930 . S
C1368 C1363 1.407 . S
C1368 C1367 1.384 1_554 S
C1368 H1395 0.929 . S
C1369 O1382 1.241 . S
C1369 O1383 1.273 . S
C1370 O1384 1.251 . S
C1370 O1385 1.268 . S
C1371 Nd1361 2.836 . S
C1371 C1372 1.498 . S
C1371 O1386 1.258 . S
C1371 O1387 1.239 . S
C1372 C1371 1.498 . S
C1372 C1373 1.366 . S
C1372 C1377 1.407 . S
C1373 C1372 1.366 . S
C1373 C1374 1.392 . S
C1373 H1396 0.930 . S
C1374 C1373 1.392 . S
C1374 C1375 1.398 . S
C1374 H1397 0.929 . S
C1375 C1374 1.398 . S
C1375 C1376 1.352 . S
C1376 C1375 1.352 . S
C1376 C1377 1.384 . S
C1376 H1398 0.930 . S
C1377 C1372 1.407 . S
C1377 C1376 1.384 . S
C1377 H1399 0.929 . S
C1378 O1388 1.241 . S
C1378 O1389 1.273 . S
C1379 O1390 1.251 . S
C1379 O1391 1.268 . S
O1380 Nd1360 2.500 . S
O1380 C1362 1.258 . S
O1381 Nd1360 2.492 . S
O1381 C1362 1.239 . S
O1382 Nd1360 2.487 . S
O1382 C1369 1.241 . S
O1383 Nd1360 2.682 . S
O1383 Nd1361 2.414 . S
O1383 C1369 1.273 . S
O1384 Nd1360 2.410 . S
O1384 C1370 1.251 . S
O1385 Nd1361 2.424 . S
O1385 C1370 1.268 . S
O1386 Nd1361 2.500 . S
O1386 C1371 1.258 . S
O1387 Nd1361 2.492 . S
O1387 C1371 1.239 . S
O1388 Nd1361 2.487 . S
O1388 C1378 1.241 . S
O1389 Nd1360 2.414 . S
O1389 Nd1361 2.682 . S
O1389 C1378 1.273 . S
O1390 Nd1361 2.410 . S
O1390 C1379 1.251 . S
O1391 Nd1360 2.424 . S
O1391 C1379 1.268 . S
H1392 C1364 0.930 . S
H1393 C1365 0.929 . S
H1394 C1367 0.930 . S
H1395 C1368 0.929 . S
H1396 C1373 0.930 . S
H1397 C1374 0.929 . S
H1398 C1376 0.930 . S
H1399 C1377 0.929 . S
Nd1400 C1402 2.836 . S
Nd1400 O1420 2.500 . S
Nd1400 O1421 2.492 . S
Nd1400 O1422 2.487 . S
Nd1400 O1423 2.682 . S
Nd1400 O1424 2.410 . S
Nd1400 O1429 2.414 . S
Nd1400 O1431 2.424 . S
Nd1401 C1411 2.836 . S
Nd1401 O1423 2.414 . S
Nd1401 O1425 2.424 . S
Nd1401 O1426 2.500 . S
Nd1401 O1427 2.492 . S
Nd1401 O1428 2.487 . S
Nd1401 O1429 2.682 . S
Nd1401 O1430 2.410 . S
C1402 Nd1400 2.836 . S
C1402 C1403 1.498 . S
C1402 O1420 1.258 . S
C1402 O1421 1.239 . S
C1403 C1402 1.498 . S
C1403 C1404 1.366 . S
C1403 C1408 1.407 . S
C1404 C1403 1.366 . S
C1404 C1405 1.392 1_554 S
C1404 H1432 0.930 . S
C1405 C1404 1.392 1_556 S
C1405 C1406 1.398 . S
C1405 H1433 0.929 . S
C1406 C1405 1.398 . S
C1406 C1407 1.352 . S
C1407 C1406 1.352 . S
C1407 C1408 1.384 1_556 S
C1407 H1434 0.930 . S
C1408 C1403 1.407 . S
C1408 C1407 1.384 1_554 S
C1408 H1435 0.929 . S
C1409 O1422 1.241 . S
C1409 O1423 1.273 . S
C1410 O1424 1.251 . S
C1410 O1425 1.268 . S
C1411 Nd1401 2.836 . S
C1411 C1412 1.498 . S
C1411 O1426 1.258 . S
C1411 O1427 1.239 . S
C1412 C1411 1.498 . S
C1412 C1413 1.366 . S
C1412 C1417 1.407 . S
C1413 C1412 1.366 . S
C1413 C1414 1.392 . S
C1413 H1436 0.930 . S
C1414 C1413 1.392 . S
C1414 C1415 1.398 . S
C1414 H1437 0.929 . S
C1415 C1414 1.398 . S
C1415 C1416 1.352 . S
C1416 C1415 1.352 . S
C1416 C1417 1.384 . S
C1416 H1438 0.930 . S
C1417 C1412 1.407 . S
C1417 C1416 1.384 . S
C1417 H1439 0.929 . S
C1418 O1428 1.241 . S
C1418 O1429 1.273 . S
C1419 O1430 1.251 . S
C1419 O1431 1.268 . S
O1420 Nd1400 2.500 . S
O1420 C1402 1.258 . S
O1421 Nd1400 2.492 . S
O1421 C1402 1.239 . S
O1422 Nd1400 2.487 . S
O1422 C1409 1.241 . S
O1423 Nd1400 2.682 . S
O1423 Nd1401 2.414 . S
O1423 C1409 1.273 . S
O1424 Nd1400 2.410 . S
O1424 C1410 1.251 . S
O1425 Nd1401 2.424 . S
O1425 C1410 1.268 . S
O1426 Nd1401 2.500 . S
O1426 C1411 1.258 . S
O1427 Nd1401 2.492 . S
O1427 C1411 1.239 . S
O1428 Nd1401 2.487 . S
O1428 C1418 1.241 . S
O1429 Nd1400 2.414 . S
O1429 Nd1401 2.682 . S
O1429 C1418 1.273 . S
O1430 Nd1401 2.410 . S
O1430 C1419 1.251 . S
O1431 Nd1400 2.424 . S
O1431 C1419 1.268 . S
H1432 C1404 0.930 . S
H1433 C1405 0.929 . S
H1434 C1407 0.930 . S
H1435 C1408 0.929 . S
H1436 C1413 0.930 . S
H1437 C1414 0.929 . S
H1438 C1416 0.930 . S
H1439 C1417 0.929 . S
H1440 C1448 0.950 . S
H1441 C1453 0.950 . S
H1442 C1450 0.950 . S
H1443 C1452 0.950 . S
H1444 C1454 0.950 . S
H1445 C1456 0.950 . S
H1446 C1458 0.950 . S
H1447 C1459 0.950 . S
C1448 H1440 0.950 . S
C1448 C1449 1.386 . S
C1448 C1450 1.391 . S
C1449 C1448 1.386 . S
C1449 C1453 1.393 1_556 S
C1450 H1442 0.950 . S
C1450 C1448 1.391 . S
C1450 C1451 1.400 . S
C1451 C1450 1.400 . S
C1451 C1452 1.398 1_556 S
C1451 C1457 1.491 . S
C1452 H1443 0.950 . S
C1452 C1451 1.398 1_554 S
C1452 C1453 1.391 . S
C1453 H1441 0.950 . S
C1453 C1449 1.393 1_554 S
C1453 C1452 1.391 . S
C1454 H1444 0.950 . S
C1454 C1455 1.386 1_554 S
C1454 C1456 1.391 . S
C1455 C1454 1.386 1_556 S
C1455 C1459 1.393 . S
C1456 H1445 0.950 . S
C1456 C1454 1.391 . S
C1456 C1457 1.400 1_554 S
C1457 C1451 1.491 . S
C1457 C1456 1.400 1_556 S
C1457 C1458 1.398 . S
C1458 H1446 0.950 . S
C1458 C1457 1.398 . S
C1458 C1459 1.391 . S
C1459 H1447 0.950 . S
C1459 C1455 1.393 . S
C1459 C1458 1.391 . S
H1460 C1468 0.950 . S
H1461 C1473 0.950 . S
H1462 C1470 0.950 . S
H1463 C1472 0.950 . S
H1464 C1474 0.950 . S
H1465 C1476 0.950 . S
H1466 C1478 0.950 . S
H1467 C1479 0.950 . S
C1468 H1460 0.950 . S
C1468 C1469 1.386 . S
C1468 C1470 1.391 . S
C1469 C1468 1.386 . S
C1469 C1473 1.393 1_556 S
C1470 H1462 0.950 . S
C1470 C1468 1.391 . S
C1470 C1471 1.400 . S
C1471 C1470 1.400 . S
C1471 C1472 1.398 1_556 S
C1471 C1477 1.491 . S
C1472 H1463 0.950 . S
C1472 C1471 1.398 1_554 S
C1472 C1473 1.391 . S
C1473 H1461 0.950 . S
C1473 C1469 1.393 1_554 S
C1473 C1472 1.391 . S
C1474 H1464 0.950 . S
C1474 C1475 1.386 1_554 S
C1474 C1476 1.391 . S
C1475 C1474 1.386 1_556 S
C1475 C1479 1.393 . S
C1476 H1465 0.950 . S
C1476 C1474 1.391 . S
C1476 C1477 1.400 1_554 S
C1477 C1471 1.491 . S
C1477 C1476 1.400 1_556 S
C1477 C1478 1.398 . S
C1478 H1466 0.950 . S
C1478 C1477 1.398 . S
C1478 C1479 1.391 . S
C1479 H1467 0.950 . S
C1479 C1475 1.393 . S
C1479 C1478 1.391 . S
H1480 C1488 0.950 . S
H1481 C1493 0.950 . S
H1482 C1490 0.950 . S
H1483 C1492 0.950 . S
H1484 C1494 0.950 . S
H1485 C1496 0.950 . S
H1486 C1498 0.950 . S
H1487 C1499 0.950 . S
C1488 H1480 0.950 . S
C1488 C1489 1.386 1_554 S
C1488 C1490 1.391 . S
C1489 C1488 1.386 1_556 S
C1489 C1493 1.393 . S
C1490 H1482 0.950 . S
C1490 C1488 1.391 . S
C1490 C1491 1.400 1_554 S
C1491 C1490 1.400 1_556 S
C1491 C1492 1.398 . S
C1491 C1497 1.491 . S
C1492 H1483 0.950 . S
C1492 C1491 1.398 . S
C1492 C1493 1.391 . S
C1493 H1481 0.950 . S
C1493 C1489 1.393 . S
C1493 C1492 1.391 . S
C1494 H1484 0.950 . S
C1494 C1495 1.386 . S
C1494 C1496 1.391 . S
C1495 C1494 1.386 . S
C1495 C1499 1.393 1_556 S
C1496 H1485 0.950 . S
C1496 C1494 1.391 . S
C1496 C1497 1.400 . S
C1497 C1491 1.491 . S
C1497 C1496 1.400 . S
C1497 C1498 1.398 1_556 S
C1498 H1486 0.950 . S
C1498 C1497 1.398 1_554 S
C1498 C1499 1.391 . S
C1499 H1487 0.950 . S
C1499 C1495 1.393 1_554 S
C1499 C1498 1.391 . S
H1500 C1508 0.950 . S
H1501 C1513 0.950 . S
H1502 C1510 0.950 . S
H1503 C1512 0.950 . S
H1504 C1514 0.950 . S
H1505 C1516 0.950 . S
H1506 C1518 0.950 . S
H1507 C1519 0.950 . S
C1508 H1500 0.950 . S
C1508 C1509 1.386 . S
C1508 C1510 1.391 . S
C1509 C1508 1.386 . S
C1509 C1513 1.393 . S
C1510 H1502 0.950 . S
C1510 C1508 1.391 . S
C1510 C1511 1.400 . S
C1511 C1510 1.400 . S
C1511 C1512 1.398 . S
C1511 C1517 1.491 . S
C1512 H1503 0.950 . S
C1512 C1511 1.398 . S
C1512 C1513 1.391 . S
C1513 H1501 0.950 . S
C1513 C1509 1.393 . S
C1513 C1512 1.391 . S
C1514 H1504 0.950 . S
C1514 C1515 1.386 . S
C1514 C1516 1.391 . S
C1515 C1514 1.386 . S
C1515 C1519 1.393 . S
C1516 H1505 0.950 . S
C1516 C1514 1.391 . S
C1516 C1517 1.400 . S
C1517 C1511 1.491 . S
C1517 C1516 1.400 . S
C1517 C1518 1.398 . S
C1518 H1506 0.950 . S
C1518 C1517 1.398 . S
C1518 C1519 1.391 . S
C1519 H1507 0.950 . S
C1519 C1515 1.393 . S
C1519 C1518 1.391 . S
H1520 C1528 0.950 . S
H1521 C1533 0.950 . S
H1522 C1530 0.950 . S
H1523 C1532 0.950 . S
H1524 C1534 0.950 . S
H1525 C1536 0.950 . S
H1526 C1538 0.950 . S
H1527 C1539 0.950 . S
C1528 H1520 0.950 . S
C1528 C1529 1.386 . S
C1528 C1530 1.391 . S
C1529 C1528 1.386 . S
C1529 C1533 1.393 . S
C1530 H1522 0.950 . S
C1530 C1528 1.391 . S
C1530 C1531 1.400 . S
C1531 C1530 1.400 . S
C1531 C1532 1.398 . S
C1531 C1537 1.491 . S
C1532 H1523 0.950 . S
C1532 C1531 1.398 . S
C1532 C1533 1.391 . S
C1533 H1521 0.950 . S
C1533 C1529 1.393 . S
C1533 C1532 1.391 . S
C1534 H1524 0.950 . S
C1534 C1535 1.386 . S
C1534 C1536 1.391 . S
C1535 C1534 1.386 . S
C1535 C1539 1.393 . S
C1536 H1525 0.950 . S
C1536 C1534 1.391 . S
C1536 C1537 1.400 . S
C1537 C1531 1.491 . S
C1537 C1536 1.400 . S
C1537 C1538 1.398 . S
C1538 H1526 0.950 . S
C1538 C1537 1.398 . S
C1538 C1539 1.391 . S
C1539 H1527 0.950 . S
C1539 C1535 1.393 . S
C1539 C1538 1.391 . S
H1540 C1548 0.950 . S
H1541 C1553 0.950 . S
H1542 C1550 0.950 . S
H1543 C1552 0.950 . S
H1544 C1554 0.950 . S
H1545 C1556 0.950 . S
H1546 C1558 0.950 . S
H1547 C1559 0.950 . S
C1548 H1540 0.950 . S
C1548 C1549 1.386 . S
C1548 C1550 1.391 . S
C1549 C1548 1.386 . S
C1549 C1553 1.393 . S
C1550 H1542 0.950 . S
C1550 C1548 1.391 . S
C1550 C1551 1.400 . S
C1551 C1550 1.400 . S
C1551 C1552 1.398 . S
C1551 C1557 1.491 . S
C1552 H1543 0.950 . S
C1552 C1551 1.398 . S
C1552 C1553 1.391 . S
C1553 H1541 0.950 . S
C1553 C1549 1.393 . S
C1553 C1552 1.391 . S
C1554 H1544 0.950 . S
C1554 C1555 1.386 . S
C1554 C1556 1.391 . S
C1555 C1554 1.386 . S
C1555 C1559 1.393 . S
C1556 H1545 0.950 . S
C1556 C1554 1.391 . S
C1556 C1557 1.400 . S
C1557 C1551 1.491 . S
C1557 C1556 1.400 . S
C1557 C1558 1.398 . S
C1558 H1546 0.950 . S
C1558 C1557 1.398 . S
C1558 C1559 1.391 . S
C1559 H1547 0.950 . S
C1559 C1555 1.393 . S
C1559 C1558 1.391 . S
H1560 C1568 0.950 . S
H1561 C1573 0.950 . S
H1562 C1570 0.950 . S
H1563 C1572 0.950 . S
H1564 C1574 0.950 . S
H1565 C1576 0.950 . S
H1566 C1578 0.950 . S
H1567 C1579 0.950 . S
C1568 H1560 0.950 . S
C1568 C1569 1.386 . S
C1568 C1570 1.391 . S
C1569 C1568 1.386 . S
C1569 C1573 1.393 . S
C1570 H1562 0.950 . S
C1570 C1568 1.391 . S
C1570 C1571 1.400 . S
C1571 C1570 1.400 . S
C1571 C1572 1.398 . S
C1571 C1577 1.491 . S
C1572 H1563 0.950 . S
C1572 C1571 1.398 . S
C1572 C1573 1.391 . S
C1573 H1561 0.950 . S
C1573 C1569 1.393 . S
C1573 C1572 1.391 . S
C1574 H1564 0.950 . S
C1574 C1575 1.386 . S
C1574 C1576 1.391 . S
C1575 C1574 1.386 . S
C1575 C1579 1.393 . S
C1576 H1565 0.950 . S
C1576 C1574 1.391 . S
C1576 C1577 1.400 . S
C1577 C1571 1.491 . S
C1577 C1576 1.400 . S
C1577 C1578 1.398 . S
C1578 H1566 0.950 . S
C1578 C1577 1.398 . S
C1578 C1579 1.391 . S
C1579 H1567 0.950 . S
C1579 C1575 1.393 . S
C1579 C1578 1.391 . S
H1580 C1588 0.950 . S
H1581 C1593 0.950 . S
H1582 C1590 0.950 . S
H1583 C1592 0.950 . S
H1584 C1594 0.950 . S
H1585 C1596 0.950 . S
H1586 C1598 0.950 . S
H1587 C1599 0.950 . S
C1588 H1580 0.950 . S
C1588 C1589 1.386 . S
C1588 C1590 1.391 . S
C1589 C1588 1.386 . S
C1589 C1593 1.393 . S
C1590 H1582 0.950 . S
C1590 C1588 1.391 . S
C1590 C1591 1.400 . S
C1591 C1590 1.400 . S
C1591 C1592 1.398 . S
C1591 C1597 1.491 . S
C1592 H1583 0.950 . S
C1592 C1591 1.398 . S
C1592 C1593 1.391 . S
C1593 H1581 0.950 . S
C1593 C1589 1.393 . S
C1593 C1592 1.391 . S
C1594 H1584 0.950 . S
C1594 C1595 1.386 . S
C1594 C1596 1.391 . S
C1595 C1594 1.386 . S
C1595 C1599 1.393 . S
C1596 H1585 0.950 . S
C1596 C1594 1.391 . S
C1596 C1597 1.400 . S
C1597 C1591 1.491 . S
C1597 C1596 1.400 . S
C1597 C1598 1.398 . S
C1598 H1586 0.950 . S
C1598 C1597 1.398 . S
C1598 C1599 1.391 . S
C1599 H1587 0.950 . S
C1599 C1595 1.393 . S
C1599 C1598 1.391 . S
H1600 C1608 0.950 . S
H1601 C1613 0.950 . S
H1602 C1610 0.950 . S
H1603 C1612 0.950 . S
H1604 C1614 0.950 . S
H1605 C1616 0.950 . S
H1606 C1618 0.950 . S
H1607 C1619 0.950 . S
C1608 H1600 0.950 . S
C1608 C1609 1.386 . S
C1608 C1610 1.391 . S
C1609 C1608 1.386 . S
C1609 C1613 1.393 . S
C1610 H1602 0.950 . S
C1610 C1608 1.391 . S
C1610 C1611 1.400 . S
C1611 C1610 1.400 . S
C1611 C1612 1.398 . S
C1611 C1617 1.491 . S
C1612 H1603 0.950 . S
C1612 C1611 1.398 . S
C1612 C1613 1.391 . S
C1613 H1601 0.950 . S
C1613 C1609 1.393 . S
C1613 C1612 1.391 . S
C1614 H1604 0.950 . S
C1614 C1615 1.386 . S
C1614 C1616 1.391 . S
C1615 C1614 1.386 . S
C1615 C1619 1.393 . S
C1616 H1605 0.950 . S
C1616 C1614 1.391 . S
C1616 C1617 1.400 . S
C1617 C1611 1.491 . S
C1617 C1616 1.400 . S
C1617 C1618 1.398 . S
C1618 H1606 0.950 . S
C1618 C1617 1.398 . S
C1618 C1619 1.391 . S
C1619 H1607 0.950 . S
C1619 C1615 1.393 . S
C1619 C1618 1.391 . S
H1620 C1628 0.950 . S
H1621 C1633 0.950 . S
H1622 C1630 0.950 . S
H1623 C1632 0.950 . S
H1624 C1634 0.950 . S
H1625 C1636 0.950 . S
H1626 C1638 0.950 . S
H1627 C1639 0.950 . S
C1628 H1620 0.950 . S
C1628 C1629 1.386 . S
C1628 C1630 1.391 . S
C1629 C1628 1.386 . S
C1629 C1633 1.393 . S
C1630 H1622 0.950 . S
C1630 C1628 1.391 . S
C1630 C1631 1.400 . S
C1631 C1630 1.400 . S
C1631 C1632 1.398 . S
C1631 C1637 1.491 . S
C1632 H1623 0.950 . S
C1632 C1631 1.398 . S
C1632 C1633 1.391 . S
C1633 H1621 0.950 . S
C1633 C1629 1.393 . S
C1633 C1632 1.391 . S
C1634 H1624 0.950 . S
C1634 C1635 1.386 . S
C1634 C1636 1.391 . S
C1635 C1634 1.386 . S
C1635 C1639 1.393 . S
C1636 H1625 0.950 . S
C1636 C1634 1.391 . S
C1636 C1637 1.400 . S
C1637 C1631 1.491 . S
C1637 C1636 1.400 . S
C1637 C1638 1.398 . S
C1638 H1626 0.950 . S
C1638 C1637 1.398 . S
C1638 C1639 1.391 . S
C1639 H1627 0.950 . S
C1639 C1635 1.393 . S
C1639 C1638 1.391 . S
H1640 C1648 0.950 . S
H1641 C1653 0.950 . S
H1642 C1650 0.950 . S
H1643 C1652 0.950 . S
H1644 C1654 0.950 . S
H1645 C1656 0.950 . S
H1646 C1658 0.950 . S
H1647 C1659 0.950 . S
C1648 H1640 0.950 . S
C1648 C1649 1.386 . S
C1648 C1650 1.391 . S
C1649 C1648 1.386 . S
C1649 C1653 1.393 . S
C1650 H1642 0.950 . S
C1650 C1648 1.391 . S
C1650 C1651 1.400 . S
C1651 C1650 1.400 . S
C1651 C1652 1.398 . S
C1651 C1657 1.491 . S
C1652 H1643 0.950 . S
C1652 C1651 1.398 . S
C1652 C1653 1.391 . S
C1653 H1641 0.950 . S
C1653 C1649 1.393 . S
C1653 C1652 1.391 . S
C1654 H1644 0.950 . S
C1654 C1655 1.386 . S
C1654 C1656 1.391 . S
C1655 C1654 1.386 . S
C1655 C1659 1.393 . S
C1656 H1645 0.950 . S
C1656 C1654 1.391 . S
C1656 C1657 1.400 . S
C1657 C1651 1.491 . S
C1657 C1656 1.400 . S
C1657 C1658 1.398 . S
C1658 H1646 0.950 . S
C1658 C1657 1.398 . S
C1658 C1659 1.391 . S
C1659 H1647 0.950 . S
C1659 C1655 1.393 . S
C1659 C1658 1.391 . S
H1660 C1668 0.950 . S
H1661 C1673 0.950 . S
H1662 C1670 0.950 . S
H1663 C1672 0.950 . S
H1664 C1674 0.950 . S
H1665 C1676 0.950 . S
H1666 C1678 0.950 . S
H1667 C1679 0.950 . S
C1668 H1660 0.950 . S
C1668 C1669 1.386 . S
C1668 C1670 1.391 . S
C1669 C1668 1.386 . S
C1669 C1673 1.393 . S
C1670 H1662 0.950 . S
C1670 C1668 1.391 . S
C1670 C1671 1.400 . S
C1671 C1670 1.400 . S
C1671 C1672 1.398 . S
C1671 C1677 1.491 . S
C1672 H1663 0.950 . S
C1672 C1671 1.398 . S
C1672 C1673 1.391 . S
C1673 H1661 0.950 . S
C1673 C1669 1.393 . S
C1673 C1672 1.391 . S
C1674 H1664 0.950 . S
C1674 C1675 1.386 . S
C1674 C1676 1.391 . S
C1675 C1674 1.386 . S
C1675 C1679 1.393 . S
C1676 H1665 0.950 . S
C1676 C1674 1.391 . S
C1676 C1677 1.400 . S
C1677 C1671 1.491 . S
C1677 C1676 1.400 . S
C1677 C1678 1.398 . S
C1678 H1666 0.950 . S
C1678 C1677 1.398 . S
C1678 C1679 1.391 . S
C1679 H1667 0.950 . S
C1679 C1675 1.393 . S
C1679 C1678 1.391 . S
H1680 C1688 0.950 . S
H1681 C1693 0.950 . S
H1682 C1690 0.950 . S
H1683 C1692 0.950 . S
H1684 C1694 0.950 . S
H1685 C1696 0.950 . S
H1686 C1698 0.950 . S
H1687 C1699 0.950 . S
C1688 H1680 0.950 . S
C1688 C1689 1.386 . S
C1688 C1690 1.391 . S
C1689 C1688 1.386 . S
C1689 C1693 1.393 . S
C1690 H1682 0.950 . S
C1690 C1688 1.391 . S
C1690 C1691 1.400 . S
C1691 C1690 1.400 . S
C1691 C1692 1.398 . S
C1691 C1697 1.491 . S
C1692 H1683 0.950 . S
C1692 C1691 1.398 . S
C1692 C1693 1.391 . S
C1693 H1681 0.950 . S
C1693 C1689 1.393 . S
C1693 C1692 1.391 . S
C1694 H1684 0.950 . S
C1694 C1695 1.386 . S
C1694 C1696 1.391 . S
C1695 C1694 1.386 . S
C1695 C1699 1.393 . S
C1696 H1685 0.950 . S
C1696 C1694 1.391 . S
C1696 C1697 1.400 . S
C1697 C1691 1.491 . S
C1697 C1696 1.400 . S
C1697 C1698 1.398 . S
C1698 H1686 0.950 . S
C1698 C1697 1.398 . S
C1698 C1699 1.391 . S
C1699 H1687 0.950 . S
C1699 C1695 1.393 . S
C1699 C1698 1.391 . S
H1700 C1708 0.950 . S
H1701 C1713 0.950 . S
H1702 C1710 0.950 . S
H1703 C1712 0.950 . S
H1704 C1714 0.950 . S
H1705 C1716 0.950 . S
H1706 C1718 0.950 . S
H1707 C1719 0.950 . S
C1708 H1700 0.950 . S
C1708 C1709 1.386 . S
C1708 C1710 1.391 . S
C1709 C1708 1.386 . S
C1709 C1713 1.393 . S
C1710 H1702 0.950 . S
C1710 C1708 1.391 . S
C1710 C1711 1.400 . S
C1711 C1710 1.400 . S
C1711 C1712 1.398 . S
C1711 C1717 1.491 1_565 S
C1712 H1703 0.950 . S
C1712 C1711 1.398 . S
C1712 C1713 1.391 . S
C1713 H1701 0.950 . S
C1713 C1709 1.393 . S
C1713 C1712 1.391 . S
C1714 H1704 0.950 . S
C1714 C1715 1.386 . S
C1714 C1716 1.391 . S
C1715 C1714 1.386 . S
C1715 C1719 1.393 . S
C1716 H1705 0.950 . S
C1716 C1714 1.391 . S
C1716 C1717 1.400 . S
C1717 C1711 1.491 1_545 S
C1717 C1716 1.400 . S
C1717 C1718 1.398 . S
C1718 H1706 0.950 . S
C1718 C1717 1.398 . S
C1718 C1719 1.391 . S
C1719 H1707 0.950 . S
C1719 C1715 1.393 . S
C1719 C1718 1.391 . S
H1720 C1728 0.950 . S
H1721 C1733 0.950 . S
H1722 C1730 0.950 . S
H1723 C1732 0.950 . S
H1724 C1734 0.950 . S
H1725 C1736 0.950 . S
H1726 C1738 0.950 . S
H1727 C1739 0.950 . S
C1728 H1720 0.950 . S
C1728 C1729 1.386 . S
C1728 C1730 1.391 . S
C1729 C1728 1.386 . S
C1729 C1733 1.393 . S
C1730 H1722 0.950 . S
C1730 C1728 1.391 . S
C1730 C1731 1.400 . S
C1731 C1730 1.400 . S
C1731 C1732 1.398 . S
C1731 C1737 1.491 1_655 S
C1732 H1723 0.950 . S
C1732 C1731 1.398 . S
C1732 C1733 1.391 . S
C1733 H1721 0.950 . S
C1733 C1729 1.393 . S
C1733 C1732 1.391 . S
C1734 H1724 0.950 . S
C1734 C1735 1.386 . S
C1734 C1736 1.391 . S
C1735 C1734 1.386 . S
C1735 C1739 1.393 . S
C1736 H1725 0.950 . S
C1736 C1734 1.391 . S
C1736 C1737 1.400 . S
C1737 C1731 1.491 1_455 S
C1737 C1736 1.400 . S
C1737 C1738 1.398 . S
C1738 H1726 0.950 . S
C1738 C1737 1.398 . S
C1738 C1739 1.391 . S
C1739 H1727 0.950 . S
C1739 C1735 1.393 . S
C1739 C1738 1.391 . S
H1740 C1748 0.950 . S
H1741 C1753 0.950 . S
H1742 C1750 0.950 . S
H1743 C1752 0.950 . S
H1744 C1754 0.950 . S
H1745 C1756 0.950 . S
H1746 C1758 0.950 . S
H1747 C1759 0.950 . S
C1748 H1740 0.950 . S
C1748 C1749 1.386 . S
C1748 C1750 1.391 . S
C1749 C1748 1.386 . S
C1749 C1753 1.393 . S
C1750 H1742 0.950 . S
C1750 C1748 1.391 . S
C1750 C1751 1.400 . S
C1751 C1750 1.400 . S
C1751 C1752 1.398 . S
C1751 C1757 1.491 . S
C1752 H1743 0.950 . S
C1752 C1751 1.398 . S
C1752 C1753 1.391 . S
C1753 H1741 0.950 . S
C1753 C1749 1.393 . S
C1753 C1752 1.391 . S
C1754 H1744 0.950 . S
C1754 C1755 1.386 . S
C1754 C1756 1.391 . S
C1755 C1754 1.386 . S
C1755 C1759 1.393 . S
C1756 H1745 0.950 . S
C1756 C1754 1.391 . S
C1756 C1757 1.400 . S
C1757 C1751 1.491 . S
C1757 C1756 1.400 . S
C1757 C1758 1.398 . S
C1758 H1746 0.950 . S
C1758 C1757 1.398 . S
C1758 C1759 1.391 . S
C1759 H1747 0.950 . S
C1759 C1755 1.393 . S
C1759 C1758 1.391 . S
H1760 C1768 0.950 . S
H1761 C1773 0.950 . S
H1762 C1770 0.950 . S
H1763 C1772 0.950 . S
H1764 C1774 0.950 . S
H1765 C1776 0.950 . S
H1766 C1778 0.950 . S
H1767 C1779 0.950 . S
C1768 H1760 0.950 . S
C1768 C1769 1.386 . S
C1768 C1770 1.391 . S
C1769 C1768 1.386 . S
C1769 C1773 1.393 . S
C1770 H1762 0.950 . S
C1770 C1768 1.391 . S
C1770 C1771 1.400 . S
C1771 C1770 1.400 . S
C1771 C1772 1.398 . S
C1771 C1777 1.491 1_545 S
C1772 H1763 0.950 . S
C1772 C1771 1.398 . S
C1772 C1773 1.391 . S
C1773 H1761 0.950 . S
C1773 C1769 1.393 . S
C1773 C1772 1.391 . S
C1774 H1764 0.950 . S
C1774 C1775 1.386 . S
C1774 C1776 1.391 . S
C1775 C1774 1.386 . S
C1775 C1779 1.393 . S
C1776 H1765 0.950 . S
C1776 C1774 1.391 . S
C1776 C1777 1.400 . S
C1777 C1771 1.491 1_565 S
C1777 C1776 1.400 . S
C1777 C1778 1.398 . S
C1778 H1766 0.950 . S
C1778 C1777 1.398 . S
C1778 C1779 1.391 . S
C1779 H1767 0.950 . S
C1779 C1775 1.393 . S
C1779 C1778 1.391 . S
H1780 C1788 0.950 . S
H1781 C1793 0.950 . S
H1782 C1790 0.950 . S
H1783 C1792 0.950 . S
H1784 C1794 0.950 . S
H1785 C1796 0.950 . S
H1786 C1798 0.950 . S
H1787 C1799 0.950 . S
C1788 H1780 0.950 . S
C1788 C1789 1.386 . S
C1788 C1790 1.391 . S
C1789 C1788 1.386 . S
C1789 C1793 1.393 . S
C1790 H1782 0.950 . S
C1790 C1788 1.391 . S
C1790 C1791 1.400 . S
C1791 C1790 1.400 . S
C1791 C1792 1.398 . S
C1791 C1797 1.491 1_455 S
C1792 H1783 0.950 . S
C1792 C1791 1.398 . S
C1792 C1793 1.391 . S
C1793 H1781 0.950 . S
C1793 C1789 1.393 . S
C1793 C1792 1.391 . S
C1794 H1784 0.950 . S
C1794 C1795 1.386 . S
C1794 C1796 1.391 . S
C1795 C1794 1.386 . S
C1795 C1799 1.393 . S
C1796 H1785 0.950 . S
C1796 C1794 1.391 . S
C1796 C1797 1.400 . S
C1797 C1791 1.491 1_655 S
C1797 C1796 1.400 . S
C1797 C1798 1.398 . S
C1798 H1786 0.950 . S
C1798 C1797 1.398 . S
C1798 C1799 1.391 . S
C1799 H1787 0.950 . S
C1799 C1795 1.393 . S
C1799 C1798 1.391 . S
H1800 C1808 0.950 . S
H1801 C1813 0.950 . S
H1802 C1810 0.950 . S
H1803 C1812 0.950 1_655 S
H1804 C1814 0.950 . S
H1805 C1816 0.950 . S
H1806 C1818 0.950 1_455 S
H1807 C1819 0.950 . S
C1808 H1800 0.950 . S
C1808 C1809 1.386 . S
C1808 C1810 1.391 . S
C1809 C1808 1.386 . S
C1809 C1813 1.393 . S
C1810 H1802 0.950 . S
C1810 C1808 1.391 . S
C1810 C1811 1.400 . S
C1811 C1810 1.400 . S
C1811 C1812 1.398 . S
C1811 C1817 1.491 1_455 S
C1812 H1803 0.950 1_455 S
C1812 C1811 1.398 . S
C1812 C1813 1.391 . S
C1813 H1801 0.950 . S
C1813 C1809 1.393 . S
C1813 C1812 1.391 . S
C1814 H1804 0.950 . S
C1814 C1815 1.386 . S
C1814 C1816 1.391 . S
C1815 C1814 1.386 . S
C1815 C1819 1.393 . S
C1816 H1805 0.950 . S
C1816 C1814 1.391 . S
C1816 C1817 1.400 . S
C1817 C1811 1.491 1_655 S
C1817 C1816 1.400 . S
C1817 C1818 1.398 . S
C1818 H1806 0.950 1_655 S
C1818 C1817 1.398 . S
C1818 C1819 1.391 . S
C1819 H1807 0.950 . S
C1819 C1815 1.393 . S
C1819 C1818 1.391 . S
H1820 C1828 0.950 . S
H1821 C1833 0.950 . S
H1822 C1830 0.950 . S
H1823 C1832 0.950 . S
H1824 C1834 0.950 . S
H1825 C1836 0.950 . S
H1826 C1838 0.950 . S
H1827 C1839 0.950 . S
C1828 H1820 0.950 . S
C1828 C1829 1.386 . S
C1828 C1830 1.391 . S
C1829 C1828 1.386 . S
C1829 C1833 1.393 . S
C1830 H1822 0.950 . S
C1830 C1828 1.391 . S
C1830 C1831 1.400 . S
C1831 C1830 1.400 . S
C1831 C1832 1.398 . S
C1831 C1837 1.491 . S
C1832 H1823 0.950 . S
C1832 C1831 1.398 . S
C1832 C1833 1.391 . S
C1833 H1821 0.950 . S
C1833 C1829 1.393 . S
C1833 C1832 1.391 . S
C1834 H1824 0.950 . S
C1834 C1835 1.386 . S
C1834 C1836 1.391 . S
C1835 C1834 1.386 . S
C1835 C1839 1.393 . S
C1836 H1825 0.950 . S
C1836 C1834 1.391 . S
C1836 C1837 1.400 . S
C1837 C1831 1.491 . S
C1837 C1836 1.400 . S
C1837 C1838 1.398 . S
C1838 H1826 0.950 . S
C1838 C1837 1.398 . S
C1838 C1839 1.391 . S
C1839 H1827 0.950 . S
C1839 C1835 1.393 . S
C1839 C1838 1.391 . S
H1840 C1848 0.950 . S
H1841 C1853 0.950 . S
H1842 C1850 0.950 . S
H1843 C1852 0.950 1_545 S
H1844 C1854 0.950 . S
H1845 C1856 0.950 . S
H1846 C1858 0.950 1_565 S
H1847 C1859 0.950 . S
C1848 H1840 0.950 . S
C1848 C1849 1.386 . S
C1848 C1850 1.391 . S
C1849 C1848 1.386 . S
C1849 C1853 1.393 . S
C1850 H1842 0.950 . S
C1850 C1848 1.391 . S
C1850 C1851 1.400 . S
C1851 C1850 1.400 . S
C1851 C1852 1.398 . S
C1851 C1857 1.491 1_565 S
C1852 H1843 0.950 1_565 S
C1852 C1851 1.398 . S
C1852 C1853 1.391 . S
C1853 H1841 0.950 . S
C1853 C1849 1.393 . S
C1853 C1852 1.391 . S
C1854 H1844 0.950 . S
C1854 C1855 1.386 . S
C1854 C1856 1.391 . S
C1855 C1854 1.386 . S
C1855 C1859 1.393 . S
C1856 H1845 0.950 . S
C1856 C1854 1.391 . S
C1856 C1857 1.400 . S
C1857 C1851 1.491 1_545 S
C1857 C1856 1.400 . S
C1857 C1858 1.398 . S
C1858 H1846 0.950 1_545 S
C1858 C1857 1.398 . S
C1858 C1859 1.391 . S
C1859 H1847 0.950 . S
C1859 C1855 1.393 . S
C1859 C1858 1.391 . S
H1860 C1868 0.950 . S
H1861 C1873 0.950 . S
H1862 C1870 0.950 . S
H1863 C1872 0.950 . S
H1864 C1874 0.950 . S
H1865 C1876 0.950 . S
H1866 C1878 0.950 . S
H1867 C1879 0.950 . S
C1868 H1860 0.950 . S
C1868 C1869 1.386 . S
C1868 C1870 1.391 . S
C1869 C1868 1.386 . S
C1869 C1873 1.393 . S
C1870 H1862 0.950 . S
C1870 C1868 1.391 . S
C1870 C1871 1.400 . S
C1871 C1870 1.400 . S
C1871 C1872 1.398 . S
C1871 C1877 1.491 1_655 S
C1872 H1863 0.950 . S
C1872 C1871 1.398 . S
C1872 C1873 1.391 . S
C1873 H1861 0.950 . S
C1873 C1869 1.393 . S
C1873 C1872 1.391 . S
C1874 H1864 0.950 . S
C1874 C1875 1.386 . S
C1874 C1876 1.391 . S
C1875 C1874 1.386 . S
C1875 C1879 1.393 . S
C1876 H1865 0.950 . S
C1876 C1874 1.391 . S
C1876 C1877 1.400 . S
C1877 C1871 1.491 1_455 S
C1877 C1876 1.400 . S
C1877 C1878 1.398 . S
C1878 H1866 0.950 . S
C1878 C1877 1.398 . S
C1878 C1879 1.391 . S
C1879 H1867 0.950 . S
C1879 C1875 1.393 . S
C1879 C1878 1.391 . S
H1880 C1888 0.950 . S
H1881 C1893 0.950 . S
H1882 C1890 0.950 . S
H1883 C1892 0.950 . S
H1884 C1894 0.950 . S
H1885 C1896 0.950 . S
H1886 C1898 0.950 . S
H1887 C1899 0.950 . S
C1888 H1880 0.950 . S
C1888 C1889 1.386 . S
C1888 C1890 1.391 . S
C1889 C1888 1.386 . S
C1889 C1893 1.393 . S
C1890 H1882 0.950 . S
C1890 C1888 1.391 . S
C1890 C1891 1.400 . S
C1891 C1890 1.400 . S
C1891 C1892 1.398 . S
C1891 C1897 1.491 . S
C1892 H1883 0.950 . S
C1892 C1891 1.398 . S
C1892 C1893 1.391 . S
C1893 H1881 0.950 . S
C1893 C1889 1.393 . S
C1893 C1892 1.391 . S
C1894 H1884 0.950 . S
C1894 C1895 1.386 . S
C1894 C1896 1.391 . S
C1895 C1894 1.386 . S
C1895 C1899 1.393 . S
C1896 H1885 0.950 . S
C1896 C1894 1.391 . S
C1896 C1897 1.400 . S
C1897 C1891 1.491 . S
C1897 C1896 1.400 . S
C1897 C1898 1.398 . S
C1898 H1886 0.950 . S
C1898 C1897 1.398 . S
C1898 C1899 1.391 . S
C1899 H1887 0.950 . S
C1899 C1895 1.393 . S
C1899 C1898 1.391 . S
H1900 C1908 0.950 . S
H1901 C1913 0.950 . S
H1902 C1910 0.979 . S
H1903 C1912 0.950 . S
H1904 C1914 0.950 . S
H1905 C1916 0.975 . S
H1906 C1918 0.950 . S
H1907 C1919 0.950 . S
C1908 H1900 0.950 . S
C1908 C1909 1.386 . S
C1908 C1910 1.391 . S
C1909 C1908 1.386 . S
C1909 C1913 1.393 . S
C1910 H1902 0.979 . S
C1910 C1908 1.391 . S
C1910 C1911 1.400 . S
C1911 C1910 1.400 . S
C1911 C1912 1.398 . S
C1911 C1917 1.491 1_545 S
C1912 H1903 0.950 . S
C1912 C1911 1.398 . S
C1912 C1913 1.391 . S
C1913 H1901 0.950 . S
C1913 C1909 1.393 . S
C1913 C1912 1.391 . S
C1914 H1904 0.950 . S
C1914 C1915 1.386 . S
C1914 C1916 1.391 . S
C1915 C1914 1.386 . S
C1915 C1919 1.393 . S
C1916 H1905 0.975 . S
C1916 C1914 1.391 . S
C1916 C1917 1.400 . S
C1917 C1911 1.491 1_565 S
C1917 C1916 1.400 . S
C1917 C1918 1.398 . S
C1918 H1906 0.950 . S
C1918 C1917 1.398 . S
C1918 C1919 1.391 . S
C1919 H1907 0.950 . S
C1919 C1915 1.393 . S
C1919 C1918 1.391 . S
H1920 C1928 0.950 . S
H1921 C1933 0.950 . S
H1922 C1930 0.950 . S
H1923 C1932 0.950 . S
H1924 C1934 0.950 . S
H1925 C1936 0.950 . S
H1926 C1938 0.950 . S
H1927 C1939 0.950 . S
C1928 H1920 0.950 . S
C1928 C1929 1.386 . S
C1928 C1930 1.391 . S
C1929 C1928 1.386 . S
C1929 C1933 1.393 . S
C1930 H1922 0.950 . S
C1930 C1928 1.391 . S
C1930 C1931 1.400 . S
C1931 C1930 1.400 . S
C1931 C1932 1.398 . S
C1931 C1937 1.491 . S
C1932 H1923 0.950 . S
C1932 C1931 1.398 . S
C1932 C1933 1.391 . S
C1933 H1921 0.950 . S
C1933 C1929 1.393 . S
C1933 C1932 1.391 . S
C1934 H1924 0.950 . S
C1934 C1935 1.386 . S
C1934 C1936 1.391 . S
C1935 C1934 1.386 . S
C1935 C1939 1.393 . S
C1936 H1925 0.950 . S
C1936 C1934 1.391 . S
C1936 C1937 1.400 . S
C1937 C1931 1.491 . S
C1937 C1936 1.400 . S
C1937 C1938 1.398 . S
C1938 H1926 0.950 . S
C1938 C1937 1.398 . S
C1938 C1939 1.391 . S
C1939 H1927 0.950 . S
C1939 C1935 1.393 . S
C1939 C1938 1.391 . S
H1940 C1948 0.950 . S
H1941 C1953 0.950 . S
H1942 C1950 0.950 . S
H1943 C1952 0.950 . S
H1944 C1954 0.950 . S
H1945 C1956 0.950 . S
H1946 C1958 0.950 . S
H1947 C1959 0.950 . S
C1948 H1940 0.950 . S
C1948 C1949 1.386 . S
C1948 C1950 1.391 . S
C1949 C1948 1.386 . S
C1949 C1953 1.393 . S
C1950 H1942 0.950 . S
C1950 C1948 1.391 . S
C1950 C1951 1.400 . S
C1951 C1950 1.400 . S
C1951 C1952 1.398 . S
C1951 C1957 1.491 . S
C1952 H1943 0.950 . S
C1952 C1951 1.398 . S
C1952 C1953 1.391 . S
C1953 H1941 0.950 . S
C1953 C1949 1.393 . S
C1953 C1952 1.391 . S
C1954 H1944 0.950 . S
C1954 C1955 1.386 . S
C1954 C1956 1.391 . S
C1955 C1954 1.386 . S
C1955 C1959 1.393 . S
C1956 H1945 0.950 . S
C1956 C1954 1.391 . S
C1956 C1957 1.400 . S
C1957 C1951 1.491 . S
C1957 C1956 1.400 . S
C1957 C1958 1.398 . S
C1958 H1946 0.950 . S
C1958 C1957 1.398 . S
C1958 C1959 1.391 . S
C1959 H1947 0.950 . S
C1959 C1955 1.393 . S
C1959 C1958 1.391 . S
H1960 C1968 0.950 . S
H1961 C1973 0.950 . S
H1962 C1970 0.950 . S
H1963 C1972 0.950 . S
H1964 C1974 0.950 . S
H1965 C1976 0.950 . S
H1966 C1978 0.950 . S
H1967 C1979 0.950 . S
C1968 H1960 0.950 . S
C1968 C1969 1.386 . S
C1968 C1970 1.391 . S
C1969 C1968 1.386 . S
C1969 C1973 1.393 . S
C1970 H1962 0.950 . S
C1970 C1968 1.391 . S
C1970 C1971 1.400 . S
C1971 C1970 1.400 . S
C1971 C1972 1.398 . S
C1971 C1977 1.491 . S
C1972 H1963 0.950 . S
C1972 C1971 1.398 . S
C1972 C1973 1.391 . S
C1973 H1961 0.950 . S
C1973 C1969 1.393 . S
C1973 C1972 1.391 . S
C1974 H1964 0.950 . S
C1974 C1975 1.386 . S
C1974 C1976 1.391 . S
C1975 C1974 1.386 . S
C1975 C1979 1.393 . S
C1976 H1965 0.950 . S
C1976 C1974 1.391 . S
C1976 C1977 1.400 . S
C1977 C1971 1.491 . S
C1977 C1976 1.400 . S
C1977 C1978 1.398 . S
C1978 H1966 0.950 . S
C1978 C1977 1.398 . S
C1978 C1979 1.391 . S
C1979 H1967 0.950 . S
C1979 C1975 1.393 . S
C1979 C1978 1.391 . S
H1980 C1988 0.950 . S
H1981 C1993 0.950 . S
H1982 C1990 0.950 . S
H1983 C1992 0.950 . S
H1984 C1994 0.950 . S
H1985 C1996 0.950 . S
H1986 C1998 0.950 . S
H1987 C1999 0.950 . S
C1988 H1980 0.950 . S
C1988 C1989 1.386 . S
C1988 C1990 1.391 . S
C1989 C1988 1.386 . S
C1989 C1993 1.393 . S
C1990 H1982 0.950 . S
C1990 C1988 1.391 . S
C1990 C1991 1.400 . S
C1991 C1990 1.400 . S
C1991 C1992 1.398 . S
C1991 C1997 1.491 . S
C1992 H1983 0.950 . S
C1992 C1991 1.398 . S
C1992 C1993 1.391 . S
C1993 H1981 0.950 . S
C1993 C1989 1.393 . S
C1993 C1992 1.391 . S
C1994 H1984 0.950 . S
C1994 C1995 1.386 . S
C1994 C1996 1.391 . S
C1995 C1994 1.386 . S
C1995 C1999 1.393 . S
C1996 H1985 0.950 . S
C1996 C1994 1.391 . S
C1996 C1997 1.400 . S
C1997 C1991 1.491 . S
C1997 C1996 1.400 . S
C1997 C1998 1.398 . S
C1998 H1986 0.950 . S
C1998 C1997 1.398 . S
C1998 C1999 1.391 . S
C1999 H1987 0.950 . S
C1999 C1995 1.393 . S
C1999 C1998 1.391 . S
H2000 C2008 0.950 . S
H2001 C2013 0.950 . S
H2002 C2010 0.950 . S
H2003 C2012 0.950 . S
H2004 C2014 0.950 . S
H2005 C2016 0.950 . S
H2006 C2018 0.950 . S
H2007 C2019 0.950 . S
C2008 H2000 0.950 . S
C2008 C2009 1.386 . S
C2008 C2010 1.391 . S
C2009 C2008 1.386 . S
C2009 C2013 1.393 . S
C2010 H2002 0.950 . S
C2010 C2008 1.391 . S
C2010 C2011 1.400 . S
C2011 C2010 1.400 . S
C2011 C2012 1.398 . S
C2011 C2017 1.491 . S
C2012 H2003 0.950 . S
C2012 C2011 1.398 . S
C2012 C2013 1.391 . S
C2013 H2001 0.950 . S
C2013 C2009 1.393 . S
C2013 C2012 1.391 . S
C2014 H2004 0.950 . S
C2014 C2015 1.386 . S
C2014 C2016 1.391 . S
C2015 C2014 1.386 . S
C2015 C2019 1.393 . S
C2016 H2005 0.950 . S
C2016 C2014 1.391 . S
C2016 C2017 1.400 . S
C2017 C2011 1.491 . S
C2017 C2016 1.400 . S
C2017 C2018 1.398 . S
C2018 H2006 0.950 . S
C2018 C2017 1.398 . S
C2018 C2019 1.391 . S
C2019 H2007 0.950 . S
C2019 C2015 1.393 . S
C2019 C2018 1.391 . S
H2020 C2028 0.950 . S
H2021 C2033 0.950 . S
H2022 C2030 0.950 . S
H2023 C2032 0.950 . S
H2024 C2034 0.950 . S
H2025 C2036 0.950 . S
H2026 C2038 0.950 . S
H2027 C2039 0.950 . S
C2028 H2020 0.950 . S
C2028 C2029 1.386 . S
C2028 C2030 1.391 . S
C2029 C2028 1.386 . S
C2029 C2033 1.393 . S
C2030 H2022 0.950 . S
C2030 C2028 1.391 . S
C2030 C2031 1.400 . S
C2031 C2030 1.400 . S
C2031 C2032 1.398 . S
C2031 C2037 1.491 . S
C2032 H2023 0.950 . S
C2032 C2031 1.398 . S
C2032 C2033 1.391 . S
C2033 H2021 0.950 . S
C2033 C2029 1.393 . S
C2033 C2032 1.391 . S
C2034 H2024 0.950 . S
C2034 C2035 1.386 . S
C2034 C2036 1.391 . S
C2035 C2034 1.386 . S
C2035 C2039 1.393 . S
C2036 H2025 0.950 . S
C2036 C2034 1.391 . S
C2036 C2037 1.400 . S
C2037 C2031 1.491 . S
C2037 C2036 1.400 . S
C2037 C2038 1.398 . S
C2038 H2026 0.950 . S
C2038 C2037 1.398 . S
C2038 C2039 1.391 . S
C2039 H2027 0.950 . S
C2039 C2035 1.393 . S
C2039 C2038 1.391 . S
H2040 C2048 0.950 . S
H2041 C2053 0.950 . S
H2042 C2050 0.950 . S
H2043 C2052 0.950 . S
H2044 C2054 0.950 . S
H2045 C2056 0.950 . S
H2046 C2058 0.950 . S
H2047 C2059 0.950 . S
C2048 H2040 0.950 . S
C2048 C2049 1.386 . S
C2048 C2050 1.391 . S
C2049 C2048 1.386 . S
C2049 C2053 1.393 . S
C2050 H2042 0.950 . S
C2050 C2048 1.391 . S
C2050 C2051 1.400 . S
C2051 C2050 1.400 . S
C2051 C2052 1.398 . S
C2051 C2057 1.491 . S
C2052 H2043 0.950 . S
C2052 C2051 1.398 . S
C2052 C2053 1.391 . S
C2053 H2041 0.950 . S
C2053 C2049 1.393 . S
C2053 C2052 1.391 . S
C2054 H2044 0.950 . S
C2054 C2055 1.386 . S
C2054 C2056 1.391 . S
C2055 C2054 1.386 . S
C2055 C2059 1.393 . S
C2056 H2045 0.950 . S
C2056 C2054 1.391 . S
C2056 C2057 1.400 . S
C2057 C2051 1.491 . S
C2057 C2056 1.400 . S
C2057 C2058 1.398 . S
C2058 H2046 0.950 . S
C2058 C2057 1.398 . S
C2058 C2059 1.391 . S
C2059 H2047 0.950 . S
C2059 C2055 1.393 . S
C2059 C2058 1.391 . S
H2060 C2068 0.950 . S
H2061 C2073 0.950 . S
H2062 C2070 0.950 . S
H2063 C2072 0.950 . S
H2064 C2074 0.950 . S
H2065 C2076 0.950 . S
H2066 C2078 0.950 . S
H2067 C2079 0.950 . S
C2068 H2060 0.950 . S
C2068 C2069 1.386 . S
C2068 C2070 1.391 . S
C2069 C2068 1.386 . S
C2069 C2073 1.393 . S
C2070 H2062 0.950 . S
C2070 C2068 1.391 . S
C2070 C2071 1.400 . S
C2071 C2070 1.400 . S
C2071 C2072 1.398 . S
C2071 C2077 1.491 . S
C2072 H2063 0.950 . S
C2072 C2071 1.398 . S
C2072 C2073 1.391 . S
C2073 H2061 0.950 . S
C2073 C2069 1.393 . S
C2073 C2072 1.391 . S
C2074 H2064 0.950 . S
C2074 C2075 1.386 . S
C2074 C2076 1.391 . S
C2075 C2074 1.386 . S
C2075 C2079 1.393 . S
C2076 H2065 0.950 . S
C2076 C2074 1.391 . S
C2076 C2077 1.400 . S
C2077 C2071 1.491 . S
C2077 C2076 1.400 . S
C2077 C2078 1.398 . S
C2078 H2066 0.950 . S
C2078 C2077 1.398 . S
C2078 C2079 1.391 . S
C2079 H2067 0.950 . S
C2079 C2075 1.393 . S
C2079 C2078 1.391 . S
H2080 C2088 0.950 . S
H2081 C2093 0.950 . S
H2082 C2090 0.950 . S
H2083 C2092 0.950 . S
H2084 C2094 0.950 . S
H2085 C2096 0.950 . S
H2086 C2098 0.950 . S
H2087 C2099 0.950 . S
C2088 H2080 0.950 . S
C2088 C2089 1.386 . S
C2088 C2090 1.391 . S
C2089 C2088 1.386 . S
C2089 C2093 1.393 . S
C2090 H2082 0.950 . S
C2090 C2088 1.391 . S
C2090 C2091 1.400 . S
C2091 C2090 1.400 . S
C2091 C2092 1.398 . S
C2091 C2097 1.491 . S
C2092 H2083 0.950 . S
C2092 C2091 1.398 . S
C2092 C2093 1.391 . S
C2093 H2081 0.950 . S
C2093 C2089 1.393 . S
C2093 C2092 1.391 . S
C2094 H2084 0.950 . S
C2094 C2095 1.386 . S
C2094 C2096 1.391 . S
C2095 C2094 1.386 . S
C2095 C2099 1.393 . S
C2096 H2085 0.950 . S
C2096 C2094 1.391 . S
C2096 C2097 1.400 . S
C2097 C2091 1.491 . S
C2097 C2096 1.400 . S
C2097 C2098 1.398 . S
C2098 H2086 0.950 . S
C2098 C2097 1.398 . S
C2098 C2099 1.391 . S
C2099 H2087 0.950 . S
C2099 C2095 1.393 . S
C2099 C2098 1.391 . S
H2100 C2108 0.950 . S
H2101 C2113 0.950 . S
H2102 C2110 0.950 . S
H2103 C2112 0.950 . S
H2104 C2114 0.950 . S
H2105 C2116 0.950 . S
H2106 C2118 0.950 . S
H2107 C2119 0.950 . S
C2108 H2100 0.950 . S
C2108 C2109 1.386 . S
C2108 C2110 1.391 . S
C2109 C2108 1.386 . S
C2109 C2113 1.393 . S
C2110 H2102 0.950 . S
C2110 C2108 1.391 . S
C2110 C2111 1.400 . S
C2111 C2110 1.400 . S
C2111 C2112 1.398 . S
C2111 C2117 1.491 1_556 S
C2112 H2103 0.950 . S
C2112 C2111 1.398 . S
C2112 C2113 1.391 . S
C2113 H2101 0.950 . S
C2113 C2109 1.393 . S
C2113 C2112 1.391 . S
C2114 H2104 0.950 . S
C2114 C2115 1.386 . S
C2114 C2116 1.391 . S
C2115 C2114 1.386 . S
C2115 C2119 1.393 . S
C2116 H2105 0.950 . S
C2116 C2114 1.391 . S
C2116 C2117 1.400 . S
C2117 C2111 1.491 1_554 S
C2117 C2116 1.400 . S
C2117 C2118 1.398 . S
C2118 H2106 0.950 . S
C2118 C2117 1.398 . S
C2118 C2119 1.391 . S
C2119 H2107 0.950 . S
C2119 C2115 1.393 . S
C2119 C2118 1.391 . S
H2120 C2128 0.950 . S
H2121 C2133 0.950 . S
H2122 C2130 0.950 . S
H2123 C2132 0.950 . S
H2124 C2134 0.950 . S
H2125 C2136 0.950 . S
H2126 C2138 0.950 1_556 S
H2127 C2139 0.950 . S
C2128 H2120 0.950 . S
C2128 C2129 1.386 . S
C2128 C2130 1.391 . S
C2129 C2128 1.386 . S
C2129 C2133 1.393 . S
C2130 H2122 0.950 . S
C2130 C2128 1.391 . S
C2130 C2131 1.400 . S
C2131 C2130 1.400 . S
C2131 C2132 1.398 . S
C2131 C2137 1.491 1_556 S
C2132 H2123 0.950 . S
C2132 C2131 1.398 . S
C2132 C2133 1.391 . S
C2133 H2121 0.950 . S
C2133 C2129 1.393 . S
C2133 C2132 1.391 . S
C2134 H2124 0.950 . S
C2134 C2135 1.386 . S
C2134 C2136 1.391 . S
C2135 C2134 1.386 . S
C2135 C2139 1.393 . S
C2136 H2125 0.950 . S
C2136 C2134 1.391 . S
C2136 C2137 1.400 . S
C2137 C2131 1.491 1_554 S
C2137 C2136 1.400 . S
C2137 C2138 1.398 . S
C2138 H2126 0.950 1_554 S
C2138 C2137 1.398 . S
C2138 C2139 1.391 . S
C2139 H2127 0.950 . S
C2139 C2135 1.393 . S
C2139 C2138 1.391 . S
H2140 C2148 0.950 . S
H2141 C2153 0.950 . S
H2142 C2150 0.950 . S
H2143 C2152 0.950 . S
H2144 C2154 0.950 . S
H2145 C2156 0.950 1_556 S
H2146 C2158 0.950 . S
H2147 C2159 0.950 . S
C2148 H2140 0.950 . S
C2148 C2149 1.386 . S
C2148 C2150 1.391 . S
C2149 C2148 1.386 . S
C2149 C2153 1.393 . S
C2150 H2142 0.950 . S
C2150 C2148 1.391 . S
C2150 C2151 1.400 . S
C2151 C2150 1.400 . S
C2151 C2152 1.398 . S
C2151 C2157 1.491 1_556 S
C2152 H2143 0.950 . S
C2152 C2151 1.398 . S
C2152 C2153 1.391 . S
C2153 H2141 0.950 . S
C2153 C2149 1.393 . S
C2153 C2152 1.391 . S
C2154 H2144 0.950 . S
C2154 C2155 1.386 . S
C2154 C2156 1.391 . S
C2155 C2154 1.386 . S
C2155 C2159 1.393 . S
C2156 H2145 0.950 1_554 S
C2156 C2154 1.391 . S
C2156 C2157 1.400 . S
C2157 C2151 1.491 1_554 S
C2157 C2156 1.400 . S
C2157 C2158 1.398 . S
C2158 H2146 0.950 . S
C2158 C2157 1.398 . S
C2158 C2159 1.391 . S
C2159 H2147 0.950 . S
C2159 C2155 1.393 . S
C2159 C2158 1.391 . S
H2160 C2168 0.950 . S
H2161 C2173 0.950 . S
H2162 C2170 0.950 . S
H2163 C2172 0.950 . S
H2164 C2174 0.950 . S
H2165 C2176 0.950 . S
H2166 C2178 0.950 . S
H2167 C2179 0.950 . S
C2168 H2160 0.950 . S
C2168 C2169 1.386 . S
C2168 C2170 1.391 . S
C2169 C2168 1.386 . S
C2169 C2173 1.393 . S
C2170 H2162 0.950 . S
C2170 C2168 1.391 . S
C2170 C2171 1.400 . S
C2171 C2170 1.400 . S
C2171 C2172 1.398 . S
C2171 C2177 1.491 . S
C2172 H2163 0.950 . S
C2172 C2171 1.398 . S
C2172 C2173 1.391 . S
C2173 H2161 0.950 . S
C2173 C2169 1.393 . S
C2173 C2172 1.391 . S
C2174 H2164 0.950 . S
C2174 C2175 1.386 . S
C2174 C2176 1.391 . S
C2175 C2174 1.386 . S
C2175 C2179 1.393 . S
C2176 H2165 0.950 . S
C2176 C2174 1.391 . S
C2176 C2177 1.400 . S
C2177 C2171 1.491 . S
C2177 C2176 1.400 . S
C2177 C2178 1.398 . S
C2178 H2166 0.950 . S
C2178 C2177 1.398 . S
C2178 C2179 1.391 . S
C2179 H2167 0.950 . S
C2179 C2175 1.393 . S
C2179 C2178 1.391 . S
H2180 C2188 0.950 . S
H2181 C2193 0.950 . S
H2182 C2190 0.950 . S
H2183 C2192 0.950 . S
H2184 C2194 0.950 . S
H2185 C2196 0.950 . S
H2186 C2198 0.950 . S
H2187 C2199 0.950 . S
C2188 H2180 0.950 . S
C2188 C2189 1.386 . S
C2188 C2190 1.391 . S
C2189 C2188 1.386 . S
C2189 C2193 1.393 . S
C2190 H2182 0.950 . S
C2190 C2188 1.391 . S
C2190 C2191 1.400 . S
C2191 C2190 1.400 . S
C2191 C2192 1.398 . S
C2191 C2197 1.491 . S
C2192 H2183 0.950 . S
C2192 C2191 1.398 . S
C2192 C2193 1.391 . S
C2193 H2181 0.950 . S
C2193 C2189 1.393 . S
C2193 C2192 1.391 . S
C2194 H2184 0.950 . S
C2194 C2195 1.386 . S
C2194 C2196 1.391 . S
C2195 C2194 1.386 . S
C2195 C2199 1.393 . S
C2196 H2185 0.950 . S
C2196 C2194 1.391 . S
C2196 C2197 1.400 . S
C2197 C2191 1.491 . S
C2197 C2196 1.400 . S
C2197 C2198 1.398 . S
C2198 H2186 0.950 . S
C2198 C2197 1.398 . S
C2198 C2199 1.391 . S
C2199 H2187 0.950 . S
C2199 C2195 1.393 . S
C2199 C2198 1.391 . S
H2200 C2208 0.950 . S
H2201 C2213 0.950 . S
H2202 C2210 0.950 . S
H2203 C2212 0.950 . S
H2204 C2214 0.950 . S
H2205 C2216 0.950 . S
H2206 C2218 0.950 . S
H2207 C2219 0.950 . S
C2208 H2200 0.950 . S
C2208 C2209 1.386 . S
C2208 C2210 1.391 . S
C2209 C2208 1.386 . S
C2209 C2213 1.393 . S
C2210 H2202 0.950 . S
C2210 C2208 1.391 . S
C2210 C2211 1.400 . S
C2211 C2210 1.400 . S
C2211 C2212 1.398 . S
C2211 C2217 1.491 . S
C2212 H2203 0.950 . S
C2212 C2211 1.398 . S
C2212 C2213 1.391 . S
C2213 H2201 0.950 . S
C2213 C2209 1.393 . S
C2213 C2212 1.391 . S
C2214 H2204 0.950 . S
C2214 C2215 1.386 . S
C2214 C2216 1.391 . S
C2215 C2214 1.386 . S
C2215 C2219 1.393 . S
C2216 H2205 0.950 . S
C2216 C2214 1.391 . S
C2216 C2217 1.400 . S
C2217 C2211 1.491 . S
C2217 C2216 1.400 . S
C2217 C2218 1.398 . S
C2218 H2206 0.950 . S
C2218 C2217 1.398 . S
C2218 C2219 1.391 . S
C2219 H2207 0.950 . S
C2219 C2215 1.393 . S
C2219 C2218 1.391 . S
H2220 C2228 0.950 . S
H2221 C2233 0.950 . S
H2222 C2230 0.950 . S
H2223 C2232 0.950 . S
H2224 C2234 0.950 . S
H2225 C2236 0.950 . S
H2226 C2238 0.950 . S
H2227 C2239 0.950 . S
C2228 H2220 0.950 . S
C2228 C2229 1.386 . S
C2228 C2230 1.391 . S
C2229 C2228 1.386 . S
C2229 C2233 1.393 . S
C2230 H2222 0.950 . S
C2230 C2228 1.391 . S
C2230 C2231 1.400 . S
C2231 C2230 1.400 . S
C2231 C2232 1.398 . S
C2231 C2237 1.491 . S
C2232 H2223 0.950 . S
C2232 C2231 1.398 . S
C2232 C2233 1.391 . S
C2233 H2221 0.950 . S
C2233 C2229 1.393 . S
C2233 C2232 1.391 . S
C2234 H2224 0.950 . S
C2234 C2235 1.386 . S
C2234 C2236 1.391 1_554 S
C2235 C2234 1.386 . S
C2235 C2239 1.393 . S
C2236 H2225 0.950 . S
C2236 C2234 1.391 1_556 S
C2236 C2237 1.400 . S
C2237 C2231 1.491 . S
C2237 C2236 1.400 . S
C2237 C2238 1.398 . S
C2238 H2226 0.950 . S
C2238 C2237 1.398 . S
C2238 C2239 1.391 1_556 S
C2239 H2227 0.950 . S
C2239 C2235 1.393 . S
C2239 C2238 1.391 1_554 S
H2240 C2248 0.950 . S
H2241 C2253 0.950 . S
H2242 C2250 0.950 . S
H2243 C2252 0.950 . S
H2244 C2254 0.950 . S
H2245 C2256 0.950 . S
H2246 C2258 0.950 . S
H2247 C2259 0.950 . S
C2248 H2240 0.950 . S
C2248 C2249 1.386 . S
C2248 C2250 1.391 . S
C2249 C2248 1.386 . S
C2249 C2253 1.393 . S
C2250 H2242 0.950 . S
C2250 C2248 1.391 . S
C2250 C2251 1.400 . S
C2251 C2250 1.400 . S
C2251 C2252 1.398 . S
C2251 C2257 1.491 . S
C2252 H2243 0.950 . S
C2252 C2251 1.398 . S
C2252 C2253 1.391 . S
C2253 H2241 0.950 . S
C2253 C2249 1.393 . S
C2253 C2252 1.391 . S
C2254 H2244 0.950 . S
C2254 C2255 1.386 . S
C2254 C2256 1.391 1_554 S
C2255 C2254 1.386 . S
C2255 C2259 1.393 . S
C2256 H2245 0.950 . S
C2256 C2254 1.391 1_556 S
C2256 C2257 1.400 . S
C2257 C2251 1.491 . S
C2257 C2256 1.400 . S
C2257 C2258 1.398 . S
C2258 H2246 0.950 . S
C2258 C2257 1.398 . S
C2258 C2259 1.391 1_556 S
C2259 H2247 0.950 . S
C2259 C2255 1.393 . S
C2259 C2258 1.391 1_554 S
H2260 C2268 0.950 . S
H2261 C2273 0.950 . S
H2262 C2270 0.955 . S
H2263 C2272 0.950 . S
H2264 C2274 0.950 . S
H2265 C2276 0.950 . S
H2266 C2278 0.950 . S
H2267 C2279 0.950 . S
C2268 H2260 0.950 . S
C2268 C2269 1.386 . S
C2268 C2270 1.367 1_554 S
C2269 C2268 1.386 . S
C2269 C2273 1.393 . S
C2270 H2262 0.955 . S
C2270 C2268 1.367 1_556 S
C2270 C2271 1.420 . S
C2271 C2270 1.420 . S
C2271 C2272 1.398 . S
C2271 C2277 1.491 . S
C2272 H2263 0.950 . S
C2272 C2271 1.398 . S
C2272 C2273 1.391 1_556 S
C2273 H2261 0.950 . S
C2273 C2269 1.393 . S
C2273 C2272 1.391 1_554 S
C2274 H2264 0.950 . S
C2274 C2275 1.386 . S
C2274 C2276 1.391 . S
C2275 C2274 1.386 . S
C2275 C2279 1.393 . S
C2276 H2265 0.950 . S
C2276 C2274 1.391 . S
C2276 C2277 1.400 . S
C2277 C2271 1.491 . S
C2277 C2276 1.400 . S
C2277 C2278 1.398 . S
C2278 H2266 0.950 . S
C2278 C2277 1.398 . S
C2278 C2279 1.391 . S
C2279 H2267 0.950 . S
C2279 C2275 1.393 . S
C2279 C2278 1.391 . S
H2280 C2288 0.950 . S
H2281 C2293 0.950 . S
H2282 C2290 0.950 . S
H2283 C2292 0.950 . S
H2284 C2294 0.950 . S
H2285 C2296 0.950 . S
H2286 C2298 0.950 . S
H2287 C2299 0.950 . S
C2288 H2280 0.950 . S
C2288 C2289 1.386 . S
C2288 C2290 1.391 . S
C2289 C2288 1.386 . S
C2289 C2293 1.393 . S
C2290 H2282 0.950 . S
C2290 C2288 1.391 . S
C2290 C2291 1.400 . S
C2291 C2290 1.400 . S
C2291 C2292 1.398 . S
C2291 C2297 1.491 . S
C2292 H2283 0.950 . S
C2292 C2291 1.398 . S
C2292 C2293 1.391 . S
C2293 H2281 0.950 . S
C2293 C2289 1.393 . S
C2293 C2292 1.391 . S
C2294 H2284 0.950 . S
C2294 C2295 1.386 . S
C2294 C2296 1.391 . S
C2295 C2294 1.386 . S
C2295 C2299 1.393 . S
C2296 H2285 0.950 . S
C2296 C2294 1.391 . S
C2296 C2297 1.400 . S
C2297 C2291 1.491 . S
C2297 C2296 1.400 . S
C2297 C2298 1.398 . S
C2298 H2286 0.950 . S
C2298 C2297 1.398 . S
C2298 C2299 1.391 . S
C2299 H2287 0.950 . S
C2299 C2295 1.393 . S
C2299 C2298 1.391 . S
H2300 C2308 0.950 . S
H2301 C2313 0.950 . S
H2302 C2310 0.950 . S
H2303 C2312 0.950 . S
H2304 C2314 0.950 . S
H2305 C2316 0.950 . S
H2306 C2318 0.950 . S
H2307 C2319 0.950 . S
C2308 H2300 0.950 . S
C2308 C2309 1.386 . S
C2308 C2310 1.391 . S
C2309 C2308 1.386 . S
C2309 C2313 1.393 . S
C2310 H2302 0.950 . S
C2310 C2308 1.391 . S
C2310 C2311 1.400 . S
C2311 C2310 1.400 . S
C2311 C2312 1.398 . S
C2311 C2317 1.491 . S
C2312 H2303 0.950 . S
C2312 C2311 1.398 . S
C2312 C2313 1.391 . S
C2313 H2301 0.950 . S
C2313 C2309 1.393 . S
C2313 C2312 1.391 . S
C2314 H2304 0.950 . S
C2314 C2315 1.386 . S
C2314 C2316 1.391 . S
C2315 C2314 1.386 . S
C2315 C2319 1.393 . S
C2316 H2305 0.950 . S
C2316 C2314 1.391 . S
C2316 C2317 1.400 . S
C2317 C2311 1.491 . S
C2317 C2316 1.400 . S
C2317 C2318 1.398 . S
C2318 H2306 0.950 . S
C2318 C2317 1.398 . S
C2318 C2319 1.391 . S
C2319 H2307 0.950 . S
C2319 C2315 1.393 . S
C2319 C2318 1.391 . S
H2320 C2328 0.950 . S
H2321 C2333 0.950 . S
H2322 C2330 0.950 . S
H2323 C2332 0.950 . S
H2324 C2334 0.950 . S
H2325 C2336 0.950 . S
H2326 C2338 0.950 . S
H2327 C2339 0.950 . S
C2328 H2320 0.950 . S
C2328 C2329 1.386 . S
C2328 C2330 1.391 . S
C2329 C2328 1.386 . S
C2329 C2333 1.393 . S
C2330 H2322 0.950 . S
C2330 C2328 1.391 . S
C2330 C2331 1.400 . S
C2331 C2330 1.400 . S
C2331 C2332 1.398 . S
C2331 C2337 1.491 . S
C2332 H2323 0.950 . S
C2332 C2331 1.398 . S
C2332 C2333 1.391 . S
C2333 H2321 0.950 . S
C2333 C2329 1.393 . S
C2333 C2332 1.391 . S
C2334 H2324 0.950 . S
C2334 C2335 1.386 . S
C2334 C2336 1.391 . S
C2335 C2334 1.386 . S
C2335 C2339 1.393 . S
C2336 H2325 0.950 . S
C2336 C2334 1.391 . S
C2336 C2337 1.400 . S
C2337 C2331 1.491 . S
C2337 C2336 1.400 . S
C2337 C2338 1.398 . S
C2338 H2326 0.950 . S
C2338 C2337 1.398 . S
C2338 C2339 1.391 . S
C2339 H2327 0.950 . S
C2339 C2335 1.393 . S
C2339 C2338 1.391 . S
H2340 C2348 0.950 . S
H2341 C2353 0.950 . S
H2342 C2350 0.950 . S
H2343 C2352 0.950 . S
H2344 C2354 0.950 . S
H2345 C2356 0.950 . S
H2346 C2358 0.950 . S
H2347 C2359 0.950 . S
C2348 H2340 0.950 . S
C2348 C2349 1.386 . S
C2348 C2350 1.391 . S
C2349 C2348 1.386 . S
C2349 C2353 1.393 . S
C2350 H2342 0.950 . S
C2350 C2348 1.391 . S
C2350 C2351 1.400 . S
C2351 C2350 1.400 . S
C2351 C2352 1.398 . S
C2351 C2357 1.491 . S
C2352 H2343 0.950 . S
C2352 C2351 1.398 . S
C2352 C2353 1.391 . S
C2353 H2341 0.950 . S
C2353 C2349 1.393 . S
C2353 C2352 1.391 . S
C2354 H2344 0.950 . S
C2354 C2355 1.386 . S
C2354 C2356 1.391 . S
C2355 C2354 1.386 . S
C2355 C2359 1.393 . S
C2356 H2345 0.950 . S
C2356 C2354 1.391 . S
C2356 C2357 1.400 . S
C2357 C2351 1.491 . S
C2357 C2356 1.400 . S
C2357 C2358 1.398 . S
C2358 H2346 0.950 . S
C2358 C2357 1.398 . S
C2358 C2359 1.391 . S
C2359 H2347 0.950 . S
C2359 C2355 1.393 . S
C2359 C2358 1.391 . S
H2360 C2368 0.950 . S
H2361 C2373 0.950 . S
H2362 C2370 0.950 . S
H2363 C2372 0.950 . S
H2364 C2374 0.950 . S
H2365 C2376 0.950 . S
H2366 C2378 0.950 . S
H2367 C2379 0.950 . S
C2368 H2360 0.950 . S
C2368 C2369 1.386 . S
C2368 C2370 1.391 . S
C2369 C2368 1.386 . S
C2369 C2373 1.393 . S
C2370 H2362 0.950 . S
C2370 C2368 1.391 . S
C2370 C2371 1.400 . S
C2371 C2370 1.400 . S
C2371 C2372 1.398 . S
C2371 C2377 1.491 . S
C2372 H2363 0.950 . S
C2372 C2371 1.398 . S
C2372 C2373 1.391 . S
C2373 H2361 0.950 . S
C2373 C2369 1.393 . S
C2373 C2372 1.391 . S
C2374 H2364 0.950 . S
C2374 C2375 1.386 . S
C2374 C2376 1.391 . S
C2375 C2374 1.386 . S
C2375 C2379 1.393 . S
C2376 H2365 0.950 . S
C2376 C2374 1.391 . S
C2376 C2377 1.400 . S
C2377 C2371 1.491 . S
C2377 C2376 1.400 . S
C2377 C2378 1.398 . S
C2378 H2366 0.950 . S
C2378 C2377 1.398 . S
C2378 C2379 1.391 . S
C2379 H2367 0.950 . S
C2379 C2375 1.393 . S
C2379 C2378 1.391 . S
H2380 C2388 0.950 . S
H2381 C2393 0.950 . S
H2382 C2390 0.950 . S
H2383 C2392 0.950 . S
H2384 C2394 0.950 . S
H2385 C2396 0.950 . S
H2386 C2398 0.950 . S
H2387 C2399 0.950 . S
C2388 H2380 0.950 . S
C2388 C2389 1.386 . S
C2388 C2390 1.391 . S
C2389 C2388 1.386 . S
C2389 C2393 1.393 . S
C2390 H2382 0.950 . S
C2390 C2388 1.391 . S
C2390 C2391 1.400 . S
C2391 C2390 1.400 . S
C2391 C2392 1.398 . S
C2391 C2397 1.491 . S
C2392 H2383 0.950 . S
C2392 C2391 1.398 . S
C2392 C2393 1.391 . S
C2393 H2381 0.950 . S
C2393 C2389 1.393 . S
C2393 C2392 1.391 . S
C2394 H2384 0.950 . S
C2394 C2395 1.386 . S
C2394 C2396 1.391 . S
C2395 C2394 1.386 . S
C2395 C2399 1.393 . S
C2396 H2385 0.950 . S
C2396 C2394 1.391 . S
C2396 C2397 1.400 . S
C2397 C2391 1.491 . S
C2397 C2396 1.400 . S
C2397 C2398 1.398 . S
C2398 H2386 0.950 . S
C2398 C2397 1.398 . S
C2398 C2399 1.391 . S
C2399 H2387 0.950 . S
C2399 C2395 1.393 . S
C2399 C2398 1.391 . S
H2400 C2408 0.950 . S
H2401 C2413 0.950 . S
H2402 C2410 0.950 . S
H2403 C2412 0.955 . S
H2404 C2414 0.950 . S
H2405 C2416 0.950 . S
H2406 C2418 0.950 . S
H2407 C2419 0.950 . S
C2408 H2400 0.950 . S
C2408 C2409 1.386 . S
C2408 C2410 1.391 . S
C2409 C2408 1.386 . S
C2409 C2413 1.393 . S
C2410 H2402 0.950 . S
C2410 C2408 1.391 . S
C2410 C2411 1.400 1_556 S
C2411 C2410 1.400 1_554 S
C2411 C2412 1.399 . S
C2411 C2417 1.491 . S
C2412 H2403 0.955 . S
C2412 C2411 1.399 . S
C2412 C2413 1.386 1_554 S
C2413 H2401 0.950 . S
C2413 C2409 1.393 . S
C2413 C2412 1.386 1_556 S
C2414 H2404 0.950 . S
C2414 C2415 1.386 . S
C2414 C2416 1.391 . S
C2415 C2414 1.386 . S
C2415 C2419 1.393 . S
C2416 H2405 0.950 . S
C2416 C2414 1.391 . S
C2416 C2417 1.400 . S
C2417 C2411 1.491 . S
C2417 C2416 1.400 . S
C2417 C2418 1.398 . S
C2418 H2406 0.950 . S
C2418 C2417 1.398 . S
C2418 C2419 1.391 . S
C2419 H2407 0.950 . S
C2419 C2415 1.393 . S
C2419 C2418 1.391 . S
H2420 C2428 0.950 . S
H2421 C2433 0.950 . S
H2422 C2430 0.950 . S
H2423 C2432 0.933 1_554 S
H2424 C2434 0.950 . S
H2425 C2436 0.950 . S
H2426 C2438 0.950 . S
H2427 C2439 0.950 . S
C2428 H2420 0.950 . S
C2428 C2429 1.386 . S
C2428 C2430 1.391 . S
C2429 C2428 1.386 . S
C2429 C2433 1.393 . S
C2430 H2422 0.950 . S
C2430 C2428 1.391 . S
C2430 C2431 1.400 1_556 S
C2431 C2430 1.400 1_554 S
C2431 C2432 1.396 1_554 S
C2431 C2437 1.491 . S
C2432 H2423 0.933 1_556 S
C2432 C2431 1.396 1_556 S
C2432 C2433 1.410 . S
C2433 H2421 0.950 . S
C2433 C2429 1.393 . S
C2433 C2432 1.410 . S
C2434 H2424 0.950 . S
C2434 C2435 1.386 . S
C2434 C2436 1.391 . S
C2435 C2434 1.386 . S
C2435 C2439 1.393 . S
C2436 H2425 0.950 . S
C2436 C2434 1.391 . S
C2436 C2437 1.400 . S
C2437 C2431 1.491 . S
C2437 C2436 1.400 . S
C2437 C2438 1.398 . S
C2438 H2426 0.950 . S
C2438 C2437 1.398 . S
C2438 C2439 1.391 . S
C2439 H2427 0.950 . S
C2439 C2435 1.393 . S
C2439 C2438 1.391 . S
H2440 C2448 0.950 . S
H2441 C2453 0.950 . S
H2442 C2450 0.950 . S
H2443 C2452 0.967 . S
H2444 C2454 0.950 . S
H2445 C2456 0.950 . S
H2446 C2458 0.950 . S
H2447 C2459 0.950 . S
C2448 H2440 0.950 . S
C2448 C2449 1.386 . S
C2448 C2450 1.391 . S
C2449 C2448 1.386 . S
C2449 C2453 1.393 . S
C2450 H2442 0.950 . S
C2450 C2448 1.391 . S
C2450 C2451 1.400 1_556 S
C2451 C2450 1.400 1_554 S
C2451 C2452 1.400 . S
C2451 C2457 1.491 . S
C2452 H2443 0.967 . S
C2452 C2451 1.400 . S
C2452 C2453 1.372 1_554 S
C2453 H2441 0.950 . S
C2453 C2449 1.393 . S
C2453 C2452 1.372 1_556 S
C2454 H2444 0.950 . S
C2454 C2455 1.386 . S
C2454 C2456 1.391 . S
C2455 C2454 1.386 . S
C2455 C2459 1.393 . S
C2456 H2445 0.950 . S
C2456 C2454 1.391 . S
C2456 C2457 1.400 . S
C2457 C2451 1.491 . S
C2457 C2456 1.400 . S
C2457 C2458 1.398 . S
C2458 H2446 0.950 . S
C2458 C2457 1.398 . S
C2458 C2459 1.391 . S
C2459 H2447 0.950 . S
C2459 C2455 1.393 . S
C2459 C2458 1.391 . S
H2460 C2468 0.950 . S
H2461 C2473 0.950 . S
H2462 C2470 0.950 . S
H2463 C2472 0.950 . S
H2464 C2474 0.950 . S
H2465 C2476 0.950 . S
H2466 C2478 0.950 . S
H2467 C2479 0.950 . S
C2468 H2460 0.950 . S
C2468 C2469 1.386 . S
C2468 C2470 1.391 . S
C2469 C2468 1.386 . S
C2469 C2473 1.393 . S
C2470 H2462 0.950 . S
C2470 C2468 1.391 . S
C2470 C2471 1.400 . S
C2471 C2470 1.400 . S
C2471 C2472 1.398 . S
C2471 C2477 1.491 . S
C2472 H2463 0.950 . S
C2472 C2471 1.398 . S
C2472 C2473 1.391 . S
C2473 H2461 0.950 . S
C2473 C2469 1.393 . S
C2473 C2472 1.391 . S
C2474 H2464 0.950 . S
C2474 C2475 1.386 . S
C2474 C2476 1.391 . S
C2475 C2474 1.386 . S
C2475 C2479 1.393 . S
C2476 H2465 0.950 . S
C2476 C2474 1.391 . S
C2476 C2477 1.400 . S
C2477 C2471 1.491 . S
C2477 C2476 1.400 . S
C2477 C2478 1.398 . S
C2478 H2466 0.950 . S
C2478 C2477 1.398 . S
C2478 C2479 1.391 . S
C2479 H2467 0.950 . S
C2479 C2475 1.393 . S
C2479 C2478 1.391 . S
H2480 C2488 0.950 . S
H2481 C2493 0.950 . S
H2482 C2490 0.950 . S
H2483 C2492 0.950 . S
H2484 C2494 0.950 . S
H2485 C2496 0.950 . S
H2486 C2498 0.950 . S
H2487 C2499 0.950 . S
C2488 H2480 0.950 . S
C2488 C2489 1.386 . S
C2488 C2490 1.391 . S
C2489 C2488 1.386 . S
C2489 C2493 1.393 . S
C2490 H2482 0.950 . S
C2490 C2488 1.391 . S
C2490 C2491 1.400 . S
C2491 C2490 1.400 . S
C2491 C2492 1.398 . S
C2491 C2497 1.491 . S
C2492 H2483 0.950 . S
C2492 C2491 1.398 . S
C2492 C2493 1.391 . S
C2493 H2481 0.950 . S
C2493 C2489 1.393 . S
C2493 C2492 1.391 . S
C2494 H2484 0.950 . S
C2494 C2495 1.386 . S
C2494 C2496 1.391 . S
C2495 C2494 1.386 . S
C2495 C2499 1.393 . S
C2496 H2485 0.950 . S
C2496 C2494 1.391 . S
C2496 C2497 1.400 . S
C2497 C2491 1.491 . S
C2497 C2496 1.400 . S
C2497 C2498 1.398 . S
C2498 H2486 0.950 . S
C2498 C2497 1.398 . S
C2498 C2499 1.391 . S
C2499 H2487 0.950 . S
C2499 C2495 1.393 . S
C2499 C2498 1.391 . S
H2500 C2508 0.950 . S
H2501 C2513 0.950 . S
H2502 C2510 0.950 . S
H2503 C2512 0.950 . S
H2504 C2514 0.950 . S
H2505 C2516 0.950 . S
H2506 C2518 0.950 . S
H2507 C2519 0.950 . S
C2508 H2500 0.950 . S
C2508 C2509 1.386 . S
C2508 C2510 1.391 . S
C2509 C2508 1.386 . S
C2509 C2513 1.393 . S
C2510 H2502 0.950 . S
C2510 C2508 1.391 . S
C2510 C2511 1.400 . S
C2511 C2510 1.400 . S
C2511 C2512 1.398 . S
C2511 C2517 1.491 . S
C2512 H2503 0.950 . S
C2512 C2511 1.398 . S
C2512 C2513 1.391 . S
C2513 H2501 0.950 . S
C2513 C2509 1.393 . S
C2513 C2512 1.391 . S
C2514 H2504 0.950 . S
C2514 C2515 1.386 . S
C2514 C2516 1.391 . S
C2515 C2514 1.386 . S
C2515 C2519 1.393 . S
C2516 H2505 0.950 . S
C2516 C2514 1.391 . S
C2516 C2517 1.400 . S
C2517 C2511 1.491 . S
C2517 C2516 1.400 . S
C2517 C2518 1.398 . S
C2518 H2506 0.950 . S
C2518 C2517 1.398 . S
C2518 C2519 1.391 . S
C2519 H2507 0.950 . S
C2519 C2515 1.393 . S
C2519 C2518 1.391 . S
H2520 C2528 0.950 . S
H2521 C2533 0.950 . S
H2522 C2530 0.950 . S
H2523 C2532 0.950 . S
H2524 C2534 0.950 . S
H2525 C2536 0.950 . S
H2526 C2538 0.950 . S
H2527 C2539 0.950 . S
C2528 H2520 0.950 . S
C2528 C2529 1.386 . S
C2528 C2530 1.391 . S
C2529 C2528 1.386 . S
C2529 C2533 1.393 . S
C2530 H2522 0.950 . S
C2530 C2528 1.391 . S
C2530 C2531 1.400 . S
C2531 C2530 1.400 . S
C2531 C2532 1.398 . S
C2531 C2537 1.491 . S
C2532 H2523 0.950 . S
C2532 C2531 1.398 . S
C2532 C2533 1.391 . S
C2533 H2521 0.950 . S
C2533 C2529 1.393 . S
C2533 C2532 1.391 . S
C2534 H2524 0.950 . S
C2534 C2535 1.386 . S
C2534 C2536 1.391 . S
C2535 C2534 1.386 . S
C2535 C2539 1.393 . S
C2536 H2525 0.950 . S
C2536 C2534 1.391 . S
C2536 C2537 1.400 . S
C2537 C2531 1.491 . S
C2537 C2536 1.400 . S
C2537 C2538 1.398 . S
C2538 H2526 0.950 . S
C2538 C2537 1.398 . S
C2538 C2539 1.391 . S
C2539 H2527 0.950 . S
C2539 C2535 1.393 . S
C2539 C2538 1.391 . S
H2540 C2548 0.950 . S
H2541 C2553 0.950 . S
H2542 C2550 0.950 . S
H2543 C2552 0.950 . S
H2544 C2554 0.950 . S
H2545 C2556 0.950 . S
H2546 C2558 0.950 . S
H2547 C2559 0.950 . S
C2548 H2540 0.950 . S
C2548 C2549 1.386 . S
C2548 C2550 1.391 . S
C2549 C2548 1.386 . S
C2549 C2553 1.393 . S
C2550 H2542 0.950 . S
C2550 C2548 1.391 . S
C2550 C2551 1.400 . S
C2551 C2550 1.400 . S
C2551 C2552 1.398 . S
C2551 C2557 1.491 . S
C2552 H2543 0.950 . S
C2552 C2551 1.398 . S
C2552 C2553 1.391 . S
C2553 H2541 0.950 . S
C2553 C2549 1.393 . S
C2553 C2552 1.391 . S
C2554 H2544 0.950 . S
C2554 C2555 1.386 . S
C2554 C2556 1.391 . S
C2555 C2554 1.386 . S
C2555 C2559 1.393 . S
C2556 H2545 0.950 . S
C2556 C2554 1.391 . S
C2556 C2557 1.400 . S
C2557 C2551 1.491 . S
C2557 C2556 1.400 . S
C2557 C2558 1.398 . S
C2558 H2546 0.950 . S
C2558 C2557 1.398 . S
C2558 C2559 1.391 . S
C2559 H2547 0.950 . S
C2559 C2555 1.393 . S
C2559 C2558 1.391 . S
H2560 C2568 0.950 . S
H2561 C2573 0.950 . S
H2562 C2570 0.950 . S
H2563 C2572 0.950 . S
H2564 C2574 0.950 . S
H2565 C2576 0.950 . S
H2566 C2578 0.950 . S
H2567 C2579 0.950 . S
C2568 H2560 0.950 . S
C2568 C2569 1.386 . S
C2568 C2570 1.391 . S
C2569 C2568 1.386 . S
C2569 C2573 1.393 . S
C2570 H2562 0.950 . S
C2570 C2568 1.391 . S
C2570 C2571 1.400 . S
C2571 C2570 1.400 . S
C2571 C2572 1.398 . S
C2571 C2577 1.491 . S
C2572 H2563 0.950 . S
C2572 C2571 1.398 . S
C2572 C2573 1.391 . S
C2573 H2561 0.950 . S
C2573 C2569 1.393 . S
C2573 C2572 1.391 . S
C2574 H2564 0.950 . S
C2574 C2575 1.386 . S
C2574 C2576 1.391 . S
C2575 C2574 1.386 . S
C2575 C2579 1.393 . S
C2576 H2565 0.950 . S
C2576 C2574 1.391 . S
C2576 C2577 1.400 . S
C2577 C2571 1.491 . S
C2577 C2576 1.400 . S
C2577 C2578 1.398 . S
C2578 H2566 0.950 . S
C2578 C2577 1.398 . S
C2578 C2579 1.391 . S
C2579 H2567 0.950 . S
C2579 C2575 1.393 . S
C2579 C2578 1.391 . S
H2580 C2588 0.950 . S
H2581 C2593 0.950 . S
H2582 C2590 0.950 . S
H2583 C2592 0.950 . S
H2584 C2594 0.950 . S
H2585 C2596 0.950 . S
H2586 C2598 0.950 . S
H2587 C2599 0.950 . S
C2588 H2580 0.950 . S
C2588 C2589 1.386 . S
C2588 C2590 1.391 . S
C2589 C2588 1.386 . S
C2589 C2593 1.393 . S
C2590 H2582 0.950 . S
C2590 C2588 1.391 . S
C2590 C2591 1.400 . S
C2591 C2590 1.400 . S
C2591 C2592 1.398 . S
C2591 C2597 1.491 . S
C2592 H2583 0.950 . S
C2592 C2591 1.398 . S
C2592 C2593 1.391 . S
C2593 H2581 0.950 . S
C2593 C2589 1.393 . S
C2593 C2592 1.391 . S
C2594 H2584 0.950 . S
C2594 C2595 1.386 . S
C2594 C2596 1.391 . S
C2595 C2594 1.386 . S
C2595 C2599 1.393 . S
C2596 H2585 0.950 . S
C2596 C2594 1.391 . S
C2596 C2597 1.400 . S
C2597 C2591 1.491 . S
C2597 C2596 1.400 . S
C2597 C2598 1.398 . S
C2598 H2586 0.950 . S
C2598 C2597 1.398 . S
C2598 C2599 1.391 . S
C2599 H2587 0.950 . S
C2599 C2595 1.393 . S
C2599 C2598 1.391 . S
H2600 C2608 0.950 . S
H2601 C2613 0.950 . S
H2602 C2610 0.950 . S
H2603 C2612 0.950 . S
H2604 C2614 0.950 . S
H2605 C2616 0.950 . S
H2606 C2618 0.950 . S
H2607 C2619 0.950 . S
C2608 H2600 0.950 . S
C2608 C2609 1.386 . S
C2608 C2610 1.391 . S
C2609 C2608 1.386 . S
C2609 C2613 1.393 . S
C2610 H2602 0.950 . S
C2610 C2608 1.391 . S
C2610 C2611 1.400 . S
C2611 C2610 1.400 . S
C2611 C2612 1.398 . S
C2611 C2617 1.491 . S
C2612 H2603 0.950 . S
C2612 C2611 1.398 . S
C2612 C2613 1.391 . S
C2613 H2601 0.950 . S
C2613 C2609 1.393 . S
C2613 C2612 1.391 . S
C2614 H2604 0.950 . S
C2614 C2615 1.386 . S
C2614 C2616 1.391 . S
C2615 C2614 1.386 . S
C2615 C2619 1.393 . S
C2616 H2605 0.950 . S
C2616 C2614 1.391 . S
C2616 C2617 1.400 . S
C2617 C2611 1.491 . S
C2617 C2616 1.400 . S
C2617 C2618 1.398 . S
C2618 H2606 0.950 . S
C2618 C2617 1.398 . S
C2618 C2619 1.391 . S
C2619 H2607 0.950 . S
C2619 C2615 1.393 . S
C2619 C2618 1.391 . S
H2620 C2628 0.950 . S
H2621 C2633 0.950 . S
H2622 C2630 0.950 . S
H2623 C2632 0.950 . S
H2624 C2634 0.950 . S
H2625 C2636 0.950 . S
H2626 C2638 0.950 . S
H2627 C2639 0.950 . S
C2628 H2620 0.950 . S
C2628 C2629 1.386 . S
C2628 C2630 1.391 . S
C2629 C2628 1.386 . S
C2629 C2633 1.393 . S
C2630 H2622 0.950 . S
C2630 C2628 1.391 . S
C2630 C2631 1.400 . S
C2631 C2630 1.400 . S
C2631 C2632 1.398 . S
C2631 C2637 1.491 . S
C2632 H2623 0.950 . S
C2632 C2631 1.398 . S
C2632 C2633 1.391 . S
C2633 H2621 0.950 . S
C2633 C2629 1.393 . S
C2633 C2632 1.391 . S
C2634 H2624 0.950 . S
C2634 C2635 1.386 . S
C2634 C2636 1.391 . S
C2635 C2634 1.386 . S
C2635 C2639 1.393 . S
C2636 H2625 0.950 . S
C2636 C2634 1.391 . S
C2636 C2637 1.400 . S
C2637 C2631 1.491 . S
C2637 C2636 1.400 . S
C2637 C2638 1.398 . S
C2638 H2626 0.950 . S
C2638 C2637 1.398 . S
C2638 C2639 1.391 . S
C2639 H2627 0.950 . S
C2639 C2635 1.393 . S
C2639 C2638 1.391 . S
H2640 C2648 0.950 . S
H2641 C2653 0.950 . S
H2642 C2650 0.950 . S
H2643 C2652 0.950 . S
H2644 C2654 0.950 . S
H2645 C2656 0.950 . S
H2646 C2658 0.950 . S
H2647 C2659 0.950 . S
C2648 H2640 0.950 . S
C2648 C2649 1.386 . S
C2648 C2650 1.391 . S
C2649 C2648 1.386 . S
C2649 C2653 1.393 . S
C2650 H2642 0.950 . S
C2650 C2648 1.391 . S
C2650 C2651 1.400 . S
C2651 C2650 1.400 . S
C2651 C2652 1.398 . S
C2651 C2657 1.491 . S
C2652 H2643 0.950 . S
C2652 C2651 1.398 . S
C2652 C2653 1.391 . S
C2653 H2641 0.950 . S
C2653 C2649 1.393 . S
C2653 C2652 1.391 . S
C2654 H2644 0.950 . S
C2654 C2655 1.386 . S
C2654 C2656 1.391 . S
C2655 C2654 1.386 . S
C2655 C2659 1.393 . S
C2656 H2645 0.950 . S
C2656 C2654 1.391 . S
C2656 C2657 1.400 . S
C2657 C2651 1.491 . S
C2657 C2656 1.400 . S
C2657 C2658 1.398 . S
C2658 H2646 0.950 . S
C2658 C2657 1.398 . S
C2658 C2659 1.391 . S
C2659 H2647 0.950 . S
C2659 C2655 1.393 . S
C2659 C2658 1.391 . S
H2660 C2668 0.950 . S
H2661 C2673 0.950 . S
H2662 C2670 0.950 . S
H2663 C2672 0.950 . S
H2664 C2674 0.950 . S
H2665 C2676 0.950 . S
H2666 C2678 0.950 . S
H2667 C2679 0.950 . S
C2668 H2660 0.950 . S
C2668 C2669 1.386 . S
C2668 C2670 1.391 . S
C2669 C2668 1.386 . S
C2669 C2673 1.393 . S
C2670 H2662 0.950 . S
C2670 C2668 1.391 . S
C2670 C2671 1.400 . S
C2671 C2670 1.400 . S
C2671 C2672 1.398 . S
C2671 C2677 1.491 . S
C2672 H2663 0.950 . S
C2672 C2671 1.398 . S
C2672 C2673 1.391 . S
C2673 H2661 0.950 . S
C2673 C2669 1.393 . S
C2673 C2672 1.391 . S
C2674 H2664 0.950 . S
C2674 C2675 1.386 . S
C2674 C2676 1.391 . S
C2675 C2674 1.386 . S
C2675 C2679 1.393 . S
C2676 H2665 0.950 . S
C2676 C2674 1.391 . S
C2676 C2677 1.400 . S
C2677 C2671 1.491 . S
C2677 C2676 1.400 . S
C2677 C2678 1.398 . S
C2678 H2666 0.950 . S
C2678 C2677 1.398 . S
C2678 C2679 1.391 . S
C2679 H2667 0.950 . S
C2679 C2675 1.393 . S
C2679 C2678 1.391 . S
H2680 C2688 0.950 . S
H2681 C2693 0.950 . S
H2682 C2690 0.950 . S
H2683 C2692 0.950 . S
H2684 C2694 0.950 . S
H2685 C2696 0.950 . S
H2686 C2698 0.950 . S
H2687 C2699 0.950 . S
C2688 H2680 0.950 . S
C2688 C2689 1.386 . S
C2688 C2690 1.391 . S
C2689 C2688 1.386 . S
C2689 C2693 1.393 . S
C2690 H2682 0.950 . S
C2690 C2688 1.391 . S
C2690 C2691 1.400 . S
C2691 C2690 1.400 . S
C2691 C2692 1.398 . S
C2691 C2697 1.491 . S
C2692 H2683 0.950 . S
C2692 C2691 1.398 . S
C2692 C2693 1.391 . S
C2693 H2681 0.950 . S
C2693 C2689 1.393 . S
C2693 C2692 1.391 . S
C2694 H2684 0.950 . S
C2694 C2695 1.386 . S
C2694 C2696 1.391 . S
C2695 C2694 1.386 . S
C2695 C2699 1.393 . S
C2696 H2685 0.950 . S
C2696 C2694 1.391 . S
C2696 C2697 1.400 . S
C2697 C2691 1.491 . S
C2697 C2696 1.400 . S
C2697 C2698 1.398 . S
C2698 H2686 0.950 . S
C2698 C2697 1.398 . S
C2698 C2699 1.391 . S
C2699 H2687 0.950 . S
C2699 C2695 1.393 . S
C2699 C2698 1.391 . S
H2700 C2708 0.950 . S
H2701 C2713 0.950 . S
H2702 C2710 0.950 . S
H2703 C2712 0.950 . S
H2704 C2714 0.950 . S
H2705 C2716 0.950 . S
H2706 C2718 0.950 . S
H2707 C2719 0.950 . S
C2708 H2700 0.950 . S
C2708 C2709 1.386 . S
C2708 C2710 1.391 . S
C2709 C2708 1.386 . S
C2709 C2713 1.393 . S
C2710 H2702 0.950 . S
C2710 C2708 1.391 . S
C2710 C2711 1.400 . S
C2711 C2710 1.400 . S
C2711 C2712 1.398 . S
C2711 C2717 1.491 . S
C2712 H2703 0.950 . S
C2712 C2711 1.398 . S
C2712 C2713 1.391 . S
C2713 H2701 0.950 . S
C2713 C2709 1.393 . S
C2713 C2712 1.391 . S
C2714 H2704 0.950 . S
C2714 C2715 1.386 . S
C2714 C2716 1.391 . S
C2715 C2714 1.386 . S
C2715 C2719 1.393 . S
C2716 H2705 0.950 . S
C2716 C2714 1.391 . S
C2716 C2717 1.400 . S
C2717 C2711 1.491 . S
C2717 C2716 1.400 . S
C2717 C2718 1.398 . S
C2718 H2706 0.950 . S
C2718 C2717 1.398 . S
C2718 C2719 1.391 . S
C2719 H2707 0.950 . S
C2719 C2715 1.393 . S
C2719 C2718 1.391 . S
H2720 C2728 0.950 . S
H2721 C2733 0.950 . S
H2722 C2730 0.950 . S
H2723 C2732 0.950 . S
H2724 C2734 0.950 . S
H2725 C2736 0.950 . S
H2726 C2738 0.950 . S
H2727 C2739 0.950 . S
C2728 H2720 0.950 . S
C2728 C2729 1.386 . S
C2728 C2730 1.391 . S
C2729 C2728 1.386 . S
C2729 C2733 1.393 . S
C2730 H2722 0.950 . S
C2730 C2728 1.391 . S
C2730 C2731 1.400 . S
C2731 C2730 1.400 . S
C2731 C2732 1.398 . S
C2731 C2737 1.491 . S
C2732 H2723 0.950 . S
C2732 C2731 1.398 . S
C2732 C2733 1.391 . S
C2733 H2721 0.950 . S
C2733 C2729 1.393 . S
C2733 C2732 1.391 . S
C2734 H2724 0.950 . S
C2734 C2735 1.386 . S
C2734 C2736 1.391 . S
C2735 C2734 1.386 . S
C2735 C2739 1.393 . S
C2736 H2725 0.950 . S
C2736 C2734 1.391 . S
C2736 C2737 1.400 . S
C2737 C2731 1.491 . S
C2737 C2736 1.400 . S
C2737 C2738 1.398 . S
C2738 H2726 0.950 . S
C2738 C2737 1.398 . S
C2738 C2739 1.391 . S
C2739 H2727 0.950 . S
C2739 C2735 1.393 . S
C2739 C2738 1.391 . S
H2740 C2748 0.950 . S
H2741 C2753 0.950 . S
H2742 C2750 0.950 . S
H2743 C2752 0.950 . S
H2744 C2754 0.950 . S
H2745 C2756 0.950 . S
H2746 C2758 0.950 . S
H2747 C2759 0.950 . S
C2748 H2740 0.950 . S
C2748 C2749 1.386 . S
C2748 C2750 1.391 . S
C2749 C2748 1.386 . S
C2749 C2753 1.393 . S
C2750 H2742 0.950 . S
C2750 C2748 1.391 . S
C2750 C2751 1.400 . S
C2751 C2750 1.400 . S
C2751 C2752 1.398 . S
C2751 C2757 1.491 . S
C2752 H2743 0.950 . S
C2752 C2751 1.398 . S
C2752 C2753 1.391 . S
C2753 H2741 0.950 . S
C2753 C2749 1.393 . S
C2753 C2752 1.391 . S
C2754 H2744 0.950 . S
C2754 C2755 1.386 . S
C2754 C2756 1.391 . S
C2755 C2754 1.386 . S
C2755 C2759 1.393 . S
C2756 H2745 0.950 . S
C2756 C2754 1.391 . S
C2756 C2757 1.400 . S
C2757 C2751 1.491 . S
C2757 C2756 1.400 . S
C2757 C2758 1.398 . S
C2758 H2746 0.950 . S
C2758 C2757 1.398 . S
C2758 C2759 1.391 . S
C2759 H2747 0.950 . S
C2759 C2755 1.393 . S
C2759 C2758 1.391 . S
H2760 C2768 0.950 . S
H2761 C2773 0.950 . S
H2762 C2770 0.950 . S
H2763 C2772 0.950 . S
H2764 C2774 0.950 . S
H2765 C2776 0.950 . S
H2766 C2778 0.950 . S
H2767 C2779 0.950 . S
C2768 H2760 0.950 . S
C2768 C2769 1.386 . S
C2768 C2770 1.391 . S
C2769 C2768 1.386 . S
C2769 C2773 1.393 . S
C2770 H2762 0.950 . S
C2770 C2768 1.391 . S
C2770 C2771 1.400 . S
C2771 C2770 1.400 . S
C2771 C2772 1.398 . S
C2771 C2777 1.491 . S
C2772 H2763 0.950 . S
C2772 C2771 1.398 . S
C2772 C2773 1.391 . S
C2773 H2761 0.950 . S
C2773 C2769 1.393 . S
C2773 C2772 1.391 . S
C2774 H2764 0.950 . S
C2774 C2775 1.386 . S
C2774 C2776 1.391 . S
C2775 C2774 1.386 . S
C2775 C2779 1.393 . S
C2776 H2765 0.950 . S
C2776 C2774 1.391 . S
C2776 C2777 1.400 . S
C2777 C2771 1.491 . S
C2777 C2776 1.400 . S
C2777 C2778 1.398 . S
C2778 H2766 0.950 . S
C2778 C2777 1.398 . S
C2778 C2779 1.391 . S
C2779 H2767 0.950 . S
C2779 C2775 1.393 . S
C2779 C2778 1.391 . S
H2780 C2788 0.950 . S
H2781 C2793 0.950 . S
H2782 C2790 0.950 . S
H2783 C2792 0.950 . S
H2784 C2794 0.950 . S
H2785 C2796 0.950 . S
H2786 C2798 0.950 . S
H2787 C2799 0.950 . S
C2788 H2780 0.950 . S
C2788 C2789 1.386 . S
C2788 C2790 1.391 . S
C2789 C2788 1.386 . S
C2789 C2793 1.393 . S
C2790 H2782 0.950 . S
C2790 C2788 1.391 . S
C2790 C2791 1.400 . S
C2791 C2790 1.400 . S
C2791 C2792 1.398 . S
C2791 C2797 1.491 . S
C2792 H2783 0.950 . S
C2792 C2791 1.398 . S
C2792 C2793 1.391 . S
C2793 H2781 0.950 . S
C2793 C2789 1.393 . S
C2793 C2792 1.391 . S
C2794 H2784 0.950 . S
C2794 C2795 1.386 . S
C2794 C2796 1.391 . S
C2795 C2794 1.386 . S
C2795 C2799 1.393 . S
C2796 H2785 0.950 . S
C2796 C2794 1.391 . S
C2796 C2797 1.400 . S
C2797 C2791 1.491 . S
C2797 C2796 1.400 . S
C2797 C2798 1.398 . S
C2798 H2786 0.950 . S
C2798 C2797 1.398 . S
C2798 C2799 1.391 . S
C2799 H2787 0.950 . S
C2799 C2795 1.393 . S
C2799 C2798 1.391 . S
H2800 C2808 0.950 . S
H2801 C2813 0.950 . S
H2802 C2810 0.950 . S
H2803 C2812 0.950 . S
H2804 C2814 0.950 . S
H2805 C2816 0.950 . S
H2806 C2818 0.950 . S
H2807 C2819 0.950 . S
C2808 H2800 0.950 . S
C2808 C2809 1.386 . S
C2808 C2810 1.391 . S
C2809 C2808 1.386 . S
C2809 C2813 1.393 . S
C2810 H2802 0.950 . S
C2810 C2808 1.391 . S
C2810 C2811 1.400 . S
C2811 C2810 1.400 . S
C2811 C2812 1.398 . S
C2811 C2817 1.491 . S
C2812 H2803 0.950 . S
C2812 C2811 1.398 . S
C2812 C2813 1.391 . S
C2813 H2801 0.950 . S
C2813 C2809 1.393 . S
C2813 C2812 1.391 . S
C2814 H2804 0.950 . S
C2814 C2815 1.386 . S
C2814 C2816 1.391 . S
C2815 C2814 1.386 . S
C2815 C2819 1.393 . S
C2816 H2805 0.950 . S
C2816 C2814 1.391 . S
C2816 C2817 1.400 . S
C2817 C2811 1.491 . S
C2817 C2816 1.400 . S
C2817 C2818 1.398 . S
C2818 H2806 0.950 . S
C2818 C2817 1.398 . S
C2818 C2819 1.391 . S
C2819 H2807 0.950 . S
C2819 C2815 1.393 . S
C2819 C2818 1.391 . S
H2820 C2828 0.950 . S
H2821 C2833 0.950 . S
H2822 C2830 0.950 . S
H2823 C2832 0.950 . S
H2824 C2834 0.950 . S
H2825 C2836 0.950 . S
H2826 C2838 0.950 . S
H2827 C2839 0.950 . S
C2828 H2820 0.950 . S
C2828 C2829 1.386 . S
C2828 C2830 1.391 . S
C2829 C2828 1.386 . S
C2829 C2833 1.393 . S
C2830 H2822 0.950 . S
C2830 C2828 1.391 . S
C2830 C2831 1.400 . S
C2831 C2830 1.400 . S
C2831 C2832 1.398 . S
C2831 C2837 1.491 . S
C2832 H2823 0.950 . S
C2832 C2831 1.398 . S
C2832 C2833 1.391 . S
C2833 H2821 0.950 . S
C2833 C2829 1.393 . S
C2833 C2832 1.391 . S
C2834 H2824 0.950 . S
C2834 C2835 1.386 . S
C2834 C2836 1.391 . S
C2835 C2834 1.386 . S
C2835 C2839 1.393 . S
C2836 H2825 0.950 . S
C2836 C2834 1.391 . S
C2836 C2837 1.400 . S
C2837 C2831 1.491 . S
C2837 C2836 1.400 . S
C2837 C2838 1.398 . S
C2838 H2826 0.950 . S
C2838 C2837 1.398 . S
C2838 C2839 1.391 . S
C2839 H2827 0.950 . S
C2839 C2835 1.393 . S
C2839 C2838 1.391 . S
H2840 C2848 0.950 . S
H2841 C2853 0.950 . S
H2842 C2850 0.950 . S
H2843 C2852 0.950 . S
H2844 C2854 0.950 . S
H2845 C2856 0.950 . S
H2846 C2858 0.950 . S
H2847 C2859 0.950 . S
C2848 H2840 0.950 . S
C2848 C2849 1.386 . S
C2848 C2850 1.391 . S
C2849 C2848 1.386 . S
C2849 C2853 1.393 . S
C2850 H2842 0.950 . S
C2850 C2848 1.391 . S
C2850 C2851 1.400 . S
C2851 C2850 1.400 . S
C2851 C2852 1.398 . S
C2851 C2857 1.491 . S
C2852 H2843 0.950 . S
C2852 C2851 1.398 . S
C2852 C2853 1.391 . S
C2853 H2841 0.950 . S
C2853 C2849 1.393 . S
C2853 C2852 1.391 . S
C2854 H2844 0.950 . S
C2854 C2855 1.386 . S
C2854 C2856 1.391 . S
C2855 C2854 1.386 . S
C2855 C2859 1.393 . S
C2856 H2845 0.950 . S
C2856 C2854 1.391 . S
C2856 C2857 1.400 . S
C2857 C2851 1.491 . S
C2857 C2856 1.400 . S
C2857 C2858 1.398 . S
C2858 H2846 0.950 . S
C2858 C2857 1.398 . S
C2858 C2859 1.391 . S
C2859 H2847 0.950 . S
C2859 C2855 1.393 . S
C2859 C2858 1.391 . S
H2860 C2868 0.950 . S
H2861 C2873 0.950 . S
H2862 C2870 0.950 . S
H2863 C2872 0.950 . S
H2864 C2874 0.950 . S
H2865 C2876 0.950 . S
H2866 C2878 0.950 . S
H2867 C2879 0.950 . S
C2868 H2860 0.950 . S
C2868 C2869 1.386 . S
C2868 C2870 1.391 . S
C2869 C2868 1.386 . S
C2869 C2873 1.393 . S
C2870 H2862 0.950 . S
C2870 C2868 1.391 . S
C2870 C2871 1.400 . S
C2871 C2870 1.400 . S
C2871 C2872 1.398 . S
C2871 C2877 1.491 . S
C2872 H2863 0.950 . S
C2872 C2871 1.398 . S
C2872 C2873 1.391 . S
C2873 H2861 0.950 . S
C2873 C2869 1.393 . S
C2873 C2872 1.391 . S
C2874 H2864 0.950 . S
C2874 C2875 1.386 . S
C2874 C2876 1.391 . S
C2875 C2874 1.386 . S
C2875 C2879 1.393 . S
C2876 H2865 0.950 . S
C2876 C2874 1.391 . S
C2876 C2877 1.400 . S
C2877 C2871 1.491 . S
C2877 C2876 1.400 . S
C2877 C2878 1.398 . S
C2878 H2866 0.950 . S
C2878 C2877 1.398 . S
C2878 C2879 1.391 . S
C2879 H2867 0.950 . S
C2879 C2875 1.393 . S
C2879 C2878 1.391 . S
H2880 C2888 0.950 . S
H2881 C2893 0.950 1_655 S
H2882 C2890 0.950 . S
H2883 C2892 0.950 . S
H2884 C2894 0.950 . S
H2885 C2896 0.950 . S
H2886 C2898 0.950 . S
H2887 C2899 0.950 1_455 S
C2888 H2880 0.950 . S
C2888 C2889 1.386 . S
C2888 C2890 1.391 . S
C2889 C2888 1.386 . S
C2889 C2893 1.393 . S
C2890 H2882 0.950 . S
C2890 C2888 1.391 . S
C2890 C2891 1.400 . S
C2891 C2890 1.400 . S
C2891 C2892 1.398 1_455 S
C2891 C2897 1.491 1_455 S
C2892 H2883 0.950 . S
C2892 C2891 1.398 1_655 S
C2892 C2893 1.391 1_655 S
C2893 H2881 0.950 1_455 S
C2893 C2889 1.393 . S
C2893 C2892 1.391 1_455 S
C2894 H2884 0.950 . S
C2894 C2895 1.386 . S
C2894 C2896 1.391 . S
C2895 C2894 1.386 . S
C2895 C2899 1.393 . S
C2896 H2885 0.950 . S
C2896 C2894 1.391 . S
C2896 C2897 1.400 . S
C2897 C2891 1.491 1_655 S
C2897 C2896 1.400 . S
C2897 C2898 1.398 1_655 S
C2898 H2886 0.950 . S
C2898 C2897 1.398 1_455 S
C2898 C2899 1.391 1_455 S
C2899 H2887 0.950 1_655 S
C2899 C2895 1.393 . S
C2899 C2898 1.391 1_655 S
H2900 C2908 0.950 . S
H2901 C2913 0.950 . S
H2902 C2910 0.950 . S
H2903 C2912 0.950 . S
H2904 C2914 0.950 . S
H2905 C2916 0.950 . S
H2906 C2918 0.950 . S
H2907 C2919 0.950 . S
C2908 H2900 0.950 . S
C2908 C2909 1.386 . S
C2908 C2910 1.391 . S
C2909 C2908 1.386 . S
C2909 C2913 1.393 . S
C2910 H2902 0.950 . S
C2910 C2908 1.391 . S
C2910 C2911 1.400 . S
C2911 C2910 1.400 . S
C2911 C2912 1.398 . S
C2911 C2917 1.491 . S
C2912 H2903 0.950 . S
C2912 C2911 1.398 . S
C2912 C2913 1.391 . S
C2913 H2901 0.950 . S
C2913 C2909 1.393 . S
C2913 C2912 1.391 . S
C2914 H2904 0.950 . S
C2914 C2915 1.386 . S
C2914 C2916 1.391 . S
C2915 C2914 1.386 . S
C2915 C2919 1.393 . S
C2916 H2905 0.950 . S
C2916 C2914 1.391 . S
C2916 C2917 1.400 . S
C2917 C2911 1.491 . S
C2917 C2916 1.400 . S
C2917 C2918 1.398 . S
C2918 H2906 0.950 . S
C2918 C2917 1.398 . S
C2918 C2919 1.391 . S
C2919 H2907 0.950 . S
C2919 C2915 1.393 . S
C2919 C2918 1.391 . S
H2920 C2928 0.950 . S
H2921 C2933 0.950 . S
H2922 C2930 0.950 . S
H2923 C2932 0.950 1_545 S
H2924 C2934 0.950 . S
H2925 C2936 0.950 . S
H2926 C2938 0.950 1_565 S
H2927 C2939 0.950 . S
C2928 H2920 0.950 . S
C2928 C2929 1.386 . S
C2928 C2930 1.391 . S
C2929 C2928 1.386 . S
C2929 C2933 1.393 . S
C2930 H2922 0.950 . S
C2930 C2928 1.391 . S
C2930 C2931 1.400 . S
C2931 C2930 1.400 . S
C2931 C2932 1.398 . S
C2931 C2937 1.491 1_565 S
C2932 H2923 0.950 1_565 S
C2932 C2931 1.398 . S
C2932 C2933 1.391 . S
C2933 H2921 0.950 . S
C2933 C2929 1.393 . S
C2933 C2932 1.391 . S
C2934 H2924 0.950 . S
C2934 C2935 1.386 . S
C2934 C2936 1.391 . S
C2935 C2934 1.386 . S
C2935 C2939 1.393 . S
C2936 H2925 0.950 . S
C2936 C2934 1.391 . S
C2936 C2937 1.400 . S
C2937 C2931 1.491 1_545 S
C2937 C2936 1.400 . S
C2937 C2938 1.398 . S
C2938 H2926 0.950 1_545 S
C2938 C2937 1.398 . S
C2938 C2939 1.391 . S
C2939 H2927 0.950 . S
C2939 C2935 1.393 . S
C2939 C2938 1.391 . S
H2940 C2948 0.950 . S
H2941 C2953 0.950 . S
H2942 C2950 0.951 . S
H2943 C2952 0.950 . S
H2944 C2954 0.950 . S
H2945 C2956 0.950 . S
H2946 C2958 0.950 . S
H2947 C2959 0.950 . S
C2948 H2940 0.950 . S
C2948 C2949 1.386 . S
C2948 C2950 1.388 1_655 S
C2949 C2948 1.386 . S
C2949 C2953 1.393 . S
C2950 H2942 0.951 . S
C2950 C2948 1.388 1_455 S
C2950 C2951 1.403 1_455 S
C2951 C2950 1.403 1_655 S
C2951 C2952 1.398 . S
C2951 C2957 1.491 1_655 S
C2952 H2943 0.950 . S
C2952 C2951 1.398 . S
C2952 C2953 1.391 . S
C2953 H2941 0.950 . S
C2953 C2949 1.393 . S
C2953 C2952 1.391 . S
C2954 H2944 0.950 . S
C2954 C2955 1.386 . S
C2954 C2956 1.388 1_455 S
C2955 C2954 1.386 . S
C2955 C2959 1.393 . S
C2956 H2945 0.950 . S
C2956 C2954 1.388 1_655 S
C2956 C2957 1.403 1_655 S
C2957 C2951 1.491 1_455 S
C2957 C2956 1.403 1_455 S
C2957 C2958 1.398 . S
C2958 H2946 0.950 . S
C2958 C2957 1.398 . S
C2958 C2959 1.391 . S
C2959 H2947 0.950 . S
C2959 C2955 1.393 . S
C2959 C2958 1.391 . S
H2960 C2968 0.950 . S
H2961 C2973 0.950 . S
H2962 C2970 0.950 . S
H2963 C2972 0.950 . S
H2964 C2974 0.950 . S
H2965 C2976 0.950 . S
H2966 C2978 0.950 . S
H2967 C2979 0.950 . S
C2968 H2960 0.950 . S
C2968 C2969 1.386 . S
C2968 C2970 1.391 . S
C2969 C2968 1.386 . S
C2969 C2973 1.393 . S
C2970 H2962 0.950 . S
C2970 C2968 1.391 . S
C2970 C2971 1.400 . S
C2971 C2970 1.400 . S
C2971 C2972 1.398 . S
C2971 C2977 1.491 . S
C2972 H2963 0.950 . S
C2972 C2971 1.398 . S
C2972 C2973 1.391 . S
C2973 H2961 0.950 . S
C2973 C2969 1.393 . S
C2973 C2972 1.391 . S
C2974 H2964 0.950 . S
C2974 C2975 1.386 . S
C2974 C2976 1.391 . S
C2975 C2974 1.386 . S
C2975 C2979 1.393 . S
C2976 H2965 0.950 . S
C2976 C2974 1.391 . S
C2976 C2977 1.400 . S
C2977 C2971 1.491 . S
C2977 C2976 1.400 . S
C2977 C2978 1.398 . S
C2978 H2966 0.950 . S
C2978 C2977 1.398 . S
C2978 C2979 1.391 . S
C2979 H2967 0.950 . S
C2979 C2975 1.393 . S
C2979 C2978 1.391 . S
H2980 C2988 0.950 . S
H2981 C2993 0.950 . S
H2982 C2990 0.950 1_565 S
H2983 C2992 0.950 . S
H2984 C2994 0.950 . S
H2985 C2996 0.950 1_545 S
H2986 C2998 0.950 . S
H2987 C2999 0.950 . S
C2988 H2980 0.950 . S
C2988 C2989 1.386 . S
C2988 C2990 1.391 . S
C2989 C2988 1.386 . S
C2989 C2993 1.393 . S
C2990 H2982 0.950 1_545 S
C2990 C2988 1.391 . S
C2990 C2991 1.400 . S
C2991 C2990 1.400 . S
C2991 C2992 1.398 . S
C2991 C2997 1.491 1_545 S
C2992 H2983 0.950 . S
C2992 C2991 1.398 . S
C2992 C2993 1.391 . S
C2993 H2981 0.950 . S
C2993 C2989 1.393 . S
C2993 C2992 1.391 . S
C2994 H2984 0.950 . S
C2994 C2995 1.386 . S
C2994 C2996 1.391 . S
C2995 C2994 1.386 . S
C2995 C2999 1.393 . S
C2996 H2985 0.950 1_565 S
C2996 C2994 1.391 . S
C2996 C2997 1.400 . S
C2997 C2991 1.491 1_565 S
C2997 C2996 1.400 . S
C2997 C2998 1.398 . S
C2998 H2986 0.950 . S
C2998 C2997 1.398 . S
C2998 C2999 1.391 . S
C2999 H2987 0.950 . S
C2999 C2995 1.393 . S
C2999 C2998 1.391 . S
H3000 C3008 0.950 . S
H3001 C3013 0.950 . S
H3002 C3010 0.950 . S
H3003 C3012 0.950 . S
H3004 C3014 0.950 . S
H3005 C3016 0.950 . S
H3006 C3018 0.950 . S
H3007 C3019 0.950 . S
C3008 H3000 0.950 . S
C3008 C3009 1.386 . S
C3008 C3010 1.391 . S
C3009 C3008 1.386 . S
C3009 C3013 1.393 . S
C3010 H3002 0.950 . S
C3010 C3008 1.391 . S
C3010 C3011 1.400 . S
C3011 C3010 1.400 . S
C3011 C3012 1.398 . S
C3011 C3017 1.491 . S
C3012 H3003 0.950 . S
C3012 C3011 1.398 . S
C3012 C3013 1.391 . S
C3013 H3001 0.950 . S
C3013 C3009 1.393 . S
C3013 C3012 1.391 . S
C3014 H3004 0.950 . S
C3014 C3015 1.386 . S
C3014 C3016 1.391 . S
C3015 C3014 1.386 . S
C3015 C3019 1.393 . S
C3016 H3005 0.950 . S
C3016 C3014 1.391 . S
C3016 C3017 1.400 . S
C3017 C3011 1.491 . S
C3017 C3016 1.400 . S
C3017 C3018 1.398 . S
C3018 H3006 0.950 . S
C3018 C3017 1.398 . S
C3018 C3019 1.391 . S
C3019 H3007 0.950 . S
C3019 C3015 1.393 . S
C3019 C3018 1.391 . S
H3020 C3028 0.950 . S
H3021 C3033 0.950 . S
H3022 C3030 0.950 . S
H3023 C3032 0.950 . S
H3024 C3034 0.950 . S
H3025 C3036 0.950 . S
H3026 C3038 0.950 . S
H3027 C3039 0.950 . S
C3028 H3020 0.950 . S
C3028 C3029 1.386 . S
C3028 C3030 1.391 . S
C3029 C3028 1.386 . S
C3029 C3033 1.393 . S
C3030 H3022 0.950 . S
C3030 C3028 1.391 . S
C3030 C3031 1.400 . S
C3031 C3030 1.400 . S
C3031 C3032 1.398 . S
C3031 C3037 1.491 . S
C3032 H3023 0.950 . S
C3032 C3031 1.398 . S
C3032 C3033 1.391 . S
C3033 H3021 0.950 . S
C3033 C3029 1.393 . S
C3033 C3032 1.391 . S
C3034 H3024 0.950 . S
C3034 C3035 1.386 . S
C3034 C3036 1.391 . S
C3035 C3034 1.386 . S
C3035 C3039 1.393 . S
C3036 H3025 0.950 . S
C3036 C3034 1.391 . S
C3036 C3037 1.400 . S
C3037 C3031 1.491 . S
C3037 C3036 1.400 . S
C3037 C3038 1.398 . S
C3038 H3026 0.950 . S
C3038 C3037 1.398 . S
C3038 C3039 1.391 . S
C3039 H3027 0.950 . S
C3039 C3035 1.393 . S
C3039 C3038 1.391 . S
H3040 C3048 0.950 . S
H3041 C3053 0.950 . S
H3042 C3050 0.950 . S
H3043 C3052 0.950 . S
H3044 C3054 0.950 . S
H3045 C3056 0.950 . S
H3046 C3058 0.950 . S
H3047 C3059 0.950 . S
C3048 H3040 0.950 . S
C3048 C3049 1.386 . S
C3048 C3050 1.391 . S
C3049 C3048 1.386 . S
C3049 C3053 1.393 . S
C3050 H3042 0.950 . S
C3050 C3048 1.391 . S
C3050 C3051 1.400 . S
C3051 C3050 1.400 . S
C3051 C3052 1.398 . S
C3051 C3057 1.491 . S
C3052 H3043 0.950 . S
C3052 C3051 1.398 . S
C3052 C3053 1.391 . S
C3053 H3041 0.950 . S
C3053 C3049 1.393 . S
C3053 C3052 1.391 . S
C3054 H3044 0.950 . S
C3054 C3055 1.386 . S
C3054 C3056 1.391 . S
C3055 C3054 1.386 . S
C3055 C3059 1.393 . S
C3056 H3045 0.950 . S
C3056 C3054 1.391 . S
C3056 C3057 1.400 . S
C3057 C3051 1.491 . S
C3057 C3056 1.400 . S
C3057 C3058 1.398 . S
C3058 H3046 0.950 . S
C3058 C3057 1.398 . S
C3058 C3059 1.391 . S
C3059 H3047 0.950 . S
C3059 C3055 1.393 . S
C3059 C3058 1.391 . S
H3060 C3068 0.950 . S
H3061 C3073 0.950 . S
H3062 C3070 0.950 . S
H3063 C3072 0.950 . S
H3064 C3074 0.950 . S
H3065 C3076 0.950 . S
H3066 C3078 0.950 . S
H3067 C3079 0.950 . S
C3068 H3060 0.950 . S
C3068 C3069 1.386 . S
C3068 C3070 1.391 . S
C3069 C3068 1.386 . S
C3069 C3073 1.393 . S
C3070 H3062 0.950 . S
C3070 C3068 1.391 . S
C3070 C3071 1.400 . S
C3071 C3070 1.400 . S
C3071 C3072 1.398 . S
C3071 C3077 1.491 . S
C3072 H3063 0.950 . S
C3072 C3071 1.398 . S
C3072 C3073 1.391 . S
C3073 H3061 0.950 . S
C3073 C3069 1.393 . S
C3073 C3072 1.391 . S
C3074 H3064 0.950 . S
C3074 C3075 1.386 . S
C3074 C3076 1.391 . S
C3075 C3074 1.386 . S
C3075 C3079 1.393 . S
C3076 H3065 0.950 . S
C3076 C3074 1.391 . S
C3076 C3077 1.400 . S
C3077 C3071 1.491 . S
C3077 C3076 1.400 . S
C3077 C3078 1.398 . S
C3078 H3066 0.950 . S
C3078 C3077 1.398 . S
C3078 C3079 1.391 . S
C3079 H3067 0.950 . S
C3079 C3075 1.393 . S
C3079 C3078 1.391 . S
H3080 C3088 0.950 . S
H3081 C3093 0.950 . S
H3082 C3090 0.950 . S
H3083 C3092 0.950 . S
H3084 C3094 0.950 . S
H3085 C3096 0.950 . S
H3086 C3098 0.950 . S
H3087 C3099 0.950 . S
C3088 H3080 0.950 . S
C3088 C3089 1.386 . S
C3088 C3090 1.391 . S
C3089 C3088 1.386 . S
C3089 C3093 1.393 . S
C3090 H3082 0.950 . S
C3090 C3088 1.391 . S
C3090 C3091 1.400 . S
C3091 C3090 1.400 . S
C3091 C3092 1.398 . S
C3091 C3097 1.491 . S
C3092 H3083 0.950 . S
C3092 C3091 1.398 . S
C3092 C3093 1.391 . S
C3093 H3081 0.950 . S
C3093 C3089 1.393 . S
C3093 C3092 1.391 . S
C3094 H3084 0.950 . S
C3094 C3095 1.386 . S
C3094 C3096 1.391 . S
C3095 C3094 1.386 . S
C3095 C3099 1.393 . S
C3096 H3085 0.950 . S
C3096 C3094 1.391 . S
C3096 C3097 1.400 . S
C3097 C3091 1.491 . S
C3097 C3096 1.400 . S
C3097 C3098 1.398 . S
C3098 H3086 0.950 . S
C3098 C3097 1.398 . S
C3098 C3099 1.391 . S
C3099 H3087 0.950 . S
C3099 C3095 1.393 . S
C3099 C3098 1.391 . S
H3100 C3108 0.950 . S
H3101 C3113 0.950 . S
H3102 C3110 0.950 . S
H3103 C3112 0.950 . S
H3104 C3114 0.950 . S
H3105 C3116 0.950 . S
H3106 C3118 0.950 . S
H3107 C3119 0.950 . S
C3108 H3100 0.950 . S
C3108 C3109 1.386 . S
C3108 C3110 1.391 . S
C3109 C3108 1.386 . S
C3109 C3113 1.393 . S
C3110 H3102 0.950 . S
C3110 C3108 1.391 . S
C3110 C3111 1.400 . S
C3111 C3110 1.400 . S
C3111 C3112 1.398 . S
C3111 C3117 1.491 . S
C3112 H3103 0.950 . S
C3112 C3111 1.398 . S
C3112 C3113 1.391 . S
C3113 H3101 0.950 . S
C3113 C3109 1.393 . S
C3113 C3112 1.391 . S
C3114 H3104 0.950 . S
C3114 C3115 1.386 . S
C3114 C3116 1.391 . S
C3115 C3114 1.386 . S
C3115 C3119 1.393 . S
C3116 H3105 0.950 . S
C3116 C3114 1.391 . S
C3116 C3117 1.400 . S
C3117 C3111 1.491 . S
C3117 C3116 1.400 . S
C3117 C3118 1.398 . S
C3118 H3106 0.950 . S
C3118 C3117 1.398 . S
C3118 C3119 1.391 . S
C3119 H3107 0.950 . S
C3119 C3115 1.393 . S
C3119 C3118 1.391 . S
H3120 C3128 0.950 . S
H3121 C3133 0.950 . S
H3122 C3130 0.950 1_556 S
H3123 C3132 0.950 . S
H3124 C3134 0.950 . S
H3125 C3136 0.950 . S
H3126 C3138 0.950 . S
H3127 C3139 0.950 . S
C3128 H3120 0.950 . S
C3128 C3129 1.386 . S
C3128 C3130 1.391 . S
C3129 C3128 1.386 . S
C3129 C3133 1.393 . S
C3130 H3122 0.950 1_554 S
C3130 C3128 1.391 . S
C3130 C3131 1.400 . S
C3131 C3130 1.400 . S
C3131 C3132 1.398 . S
C3131 C3137 1.491 1_554 S
C3132 H3123 0.950 . S
C3132 C3131 1.398 . S
C3132 C3133 1.391 . S
C3133 H3121 0.950 . S
C3133 C3129 1.393 . S
C3133 C3132 1.391 . S
C3134 H3124 0.950 . S
C3134 C3135 1.386 . S
C3134 C3136 1.391 . S
C3135 C3134 1.386 . S
C3135 C3139 1.393 . S
C3136 H3125 0.950 . S
C3136 C3134 1.391 . S
C3136 C3137 1.400 . S
C3137 C3131 1.491 1_556 S
C3137 C3136 1.400 . S
C3137 C3138 1.398 . S
C3138 H3126 0.950 . S
C3138 C3137 1.398 . S
C3138 C3139 1.391 . S
C3139 H3127 0.950 . S
C3139 C3135 1.393 . S
C3139 C3138 1.391 . S
H3140 C3148 0.950 . S
H3141 C3153 0.950 . S
H3142 C3150 0.950 . S
H3143 C3152 0.950 . S
H3144 C3154 0.950 . S
H3145 C3156 0.950 . S
H3146 C3158 0.950 . S
H3147 C3159 0.950 . S
C3148 H3140 0.950 . S
C3148 C3149 1.386 . S
C3148 C3150 1.391 . S
C3149 C3148 1.386 . S
C3149 C3153 1.393 . S
C3150 H3142 0.950 . S
C3150 C3148 1.391 . S
C3150 C3151 1.400 . S
C3151 C3150 1.400 . S
C3151 C3152 1.398 . S
C3151 C3157 1.491 1_556 S
C3152 H3143 0.950 . S
C3152 C3151 1.398 . S
C3152 C3153 1.391 . S
C3153 H3141 0.950 . S
C3153 C3149 1.393 . S
C3153 C3152 1.391 . S
C3154 H3144 0.950 . S
C3154 C3155 1.386 . S
C3154 C3156 1.391 . S
C3155 C3154 1.386 . S
C3155 C3159 1.393 . S
C3156 H3145 0.950 . S
C3156 C3154 1.391 . S
C3156 C3157 1.400 . S
C3157 C3151 1.491 1_554 S
C3157 C3156 1.400 . S
C3157 C3158 1.398 . S
C3158 H3146 0.950 . S
C3158 C3157 1.398 . S
C3158 C3159 1.391 . S
C3159 H3147 0.950 . S
C3159 C3155 1.393 . S
C3159 C3158 1.391 . S
H3160 C3168 0.950 . S
H3161 C3173 0.950 . S
H3162 C3170 0.950 . S
H3163 C3172 0.950 . S
H3164 C3174 0.950 . S
H3165 C3176 0.949 1_556 S
H3166 C3178 0.950 . S
H3167 C3179 0.950 . S
C3168 H3160 0.950 . S
C3168 C3169 1.386 . S
C3168 C3170 1.391 . S
C3169 C3168 1.386 . S
C3169 C3173 1.393 . S
C3170 H3162 0.950 . S
C3170 C3168 1.391 . S
C3170 C3171 1.400 . S
C3171 C3170 1.400 . S
C3171 C3172 1.398 . S
C3171 C3177 1.491 1_556 S
C3172 H3163 0.950 . S
C3172 C3171 1.398 . S
C3172 C3173 1.391 . S
C3173 H3161 0.950 . S
C3173 C3169 1.393 . S
C3173 C3172 1.391 . S
C3174 H3164 0.950 . S
C3174 C3175 1.386 . S
C3174 C3176 1.391 . S
C3175 C3174 1.386 . S
C3175 C3179 1.393 . S
C3176 H3165 0.949 1_554 S
C3176 C3174 1.391 . S
C3176 C3177 1.400 . S
C3177 C3171 1.491 1_554 S
C3177 C3176 1.400 . S
C3177 C3178 1.398 . S
C3178 H3166 0.950 . S
C3178 C3177 1.398 . S
C3178 C3179 1.391 . S
C3179 H3167 0.950 . S
C3179 C3175 1.393 . S
C3179 C3178 1.391 . S
H3180 C3188 0.950 . S
H3181 C3193 0.950 . S
H3182 C3190 0.950 . S
H3183 C3192 0.950 . S
H3184 C3194 0.950 . S
H3185 C3196 0.950 . S
H3186 C3198 0.950 . S
H3187 C3199 0.950 . S
C3188 H3180 0.950 . S
C3188 C3189 1.386 . S
C3188 C3190 1.391 . S
C3189 C3188 1.386 . S
C3189 C3193 1.393 . S
C3190 H3182 0.950 . S
C3190 C3188 1.391 . S
C3190 C3191 1.400 . S
C3191 C3190 1.400 . S
C3191 C3192 1.398 . S
C3191 C3197 1.491 . S
C3192 H3183 0.950 . S
C3192 C3191 1.398 . S
C3192 C3193 1.391 . S
C3193 H3181 0.950 . S
C3193 C3189 1.393 . S
C3193 C3192 1.391 . S
C3194 H3184 0.950 . S
C3194 C3195 1.386 . S
C3194 C3196 1.391 . S
C3195 C3194 1.386 . S
C3195 C3199 1.393 . S
C3196 H3185 0.950 . S
C3196 C3194 1.391 . S
C3196 C3197 1.400 . S
C3197 C3191 1.491 . S
C3197 C3196 1.400 . S
C3197 C3198 1.398 . S
C3198 H3186 0.950 . S
C3198 C3197 1.398 . S
C3198 C3199 1.391 . S
C3199 H3187 0.950 . S
C3199 C3195 1.393 . S
C3199 C3198 1.391 . S
H3200 C3208 0.950 . S
H3201 C3213 0.950 . S
H3202 C3210 0.950 . S
H3203 C3212 0.950 . S
H3204 C3214 0.950 . S
H3205 C3216 0.950 . S
H3206 C3218 0.950 . S
H3207 C3219 0.950 . S
C3208 H3200 0.950 . S
C3208 C3209 1.386 . S
C3208 C3210 1.391 . S
C3209 C3208 1.386 . S
C3209 C3213 1.393 . S
C3210 H3202 0.950 . S
C3210 C3208 1.391 . S
C3210 C3211 1.400 . S
C3211 C3210 1.400 . S
C3211 C3212 1.398 . S
C3211 C3217 1.491 . S
C3212 H3203 0.950 . S
C3212 C3211 1.398 . S
C3212 C3213 1.391 . S
C3213 H3201 0.950 . S
C3213 C3209 1.393 . S
C3213 C3212 1.391 . S
C3214 H3204 0.950 . S
C3214 C3215 1.386 . S
C3214 C3216 1.391 . S
C3215 C3214 1.386 . S
C3215 C3219 1.393 . S
C3216 H3205 0.950 . S
C3216 C3214 1.391 . S
C3216 C3217 1.400 . S
C3217 C3211 1.491 . S
C3217 C3216 1.400 . S
C3217 C3218 1.398 . S
C3218 H3206 0.950 . S
C3218 C3217 1.398 . S
C3218 C3219 1.391 . S
C3219 H3207 0.950 . S
C3219 C3215 1.393 . S
C3219 C3218 1.391 . S
H3220 C3228 0.950 . S
H3221 C3233 0.950 . S
H3222 C3230 0.950 . S
H3223 C3232 0.950 . S
H3224 C3234 0.950 . S
H3225 C3236 0.950 . S
H3226 C3238 0.950 . S
H3227 C3239 0.950 . S
C3228 H3220 0.950 . S
C3228 C3229 1.386 . S
C3228 C3230 1.391 . S
C3229 C3228 1.386 . S
C3229 C3233 1.393 . S
C3230 H3222 0.950 . S
C3230 C3228 1.391 . S
C3230 C3231 1.400 . S
C3231 C3230 1.400 . S
C3231 C3232 1.398 . S
C3231 C3237 1.491 . S
C3232 H3223 0.950 . S
C3232 C3231 1.398 . S
C3232 C3233 1.391 . S
C3233 H3221 0.950 . S
C3233 C3229 1.393 . S
C3233 C3232 1.391 . S
C3234 H3224 0.950 . S
C3234 C3235 1.386 . S
C3234 C3236 1.391 . S
C3235 C3234 1.386 . S
C3235 C3239 1.393 . S
C3236 H3225 0.950 . S
C3236 C3234 1.391 . S
C3236 C3237 1.400 . S
C3237 C3231 1.491 . S
C3237 C3236 1.400 . S
C3237 C3238 1.398 . S
C3238 H3226 0.950 . S
C3238 C3237 1.398 . S
C3238 C3239 1.391 . S
C3239 H3227 0.950 . S
C3239 C3235 1.393 . S
C3239 C3238 1.391 . S
H3240 C3248 0.950 1_556 S
H3241 C3253 0.950 . S
H3242 C3250 0.950 . S
H3243 C3252 0.958 . S
H3244 C3254 0.950 . S
H3245 C3256 0.950 . S
H3246 C3258 0.958 . S
H3247 C3259 0.950 . S
C3248 H3240 0.950 1_554 S
C3248 C3249 1.386 . S
C3248 C3250 1.391 . S
C3249 C3248 1.386 . S
C3249 C3253 1.393 . S
C3250 H3242 0.950 . S
C3250 C3248 1.391 . S
C3250 C3251 1.400 . S
C3251 C3250 1.400 . S
C3251 C3252 1.398 . S
C3251 C3257 1.491 1_455 S
C3252 H3243 0.958 . S
C3252 C3251 1.398 . S
C3252 C3253 1.391 . S
C3253 H3241 0.950 . S
C3253 C3249 1.393 . S
C3253 C3252 1.391 . S
C3254 H3244 0.950 . S
C3254 C3255 1.386 . S
C3254 C3256 1.391 . S
C3255 C3254 1.386 . S
C3255 C3259 1.393 . S
C3256 H3245 0.950 . S
C3256 C3254 1.391 . S
C3256 C3257 1.400 . S
C3257 C3251 1.491 1_655 S
C3257 C3256 1.400 . S
C3257 C3258 1.398 . S
C3258 H3246 0.958 . S
C3258 C3257 1.398 . S
C3258 C3259 1.391 . S
C3259 H3247 0.950 . S
C3259 C3255 1.393 . S
C3259 C3258 1.391 . S
H3260 C3268 0.950 . S
H3261 C3273 0.950 . S
H3262 C3270 0.950 . S
H3263 C3272 0.950 . S
H3264 C3274 0.950 . S
H3265 C3276 0.950 . S
H3266 C3278 0.950 . S
H3267 C3279 0.950 . S
C3268 H3260 0.950 . S
C3268 C3269 1.386 . S
C3268 C3270 1.391 . S
C3269 C3268 1.386 . S
C3269 C3273 1.393 . S
C3270 H3262 0.950 . S
C3270 C3268 1.391 . S
C3270 C3271 1.400 . S
C3271 C3270 1.400 . S
C3271 C3272 1.398 . S
C3271 C3277 1.491 . S
C3272 H3263 0.950 . S
C3272 C3271 1.398 . S
C3272 C3273 1.391 . S
C3273 H3261 0.950 . S
C3273 C3269 1.393 . S
C3273 C3272 1.391 . S
C3274 H3264 0.950 . S
C3274 C3275 1.386 . S
C3274 C3276 1.391 . S
C3275 C3274 1.386 . S
C3275 C3279 1.393 . S
C3276 H3265 0.950 . S
C3276 C3274 1.391 . S
C3276 C3277 1.400 . S
C3277 C3271 1.491 . S
C3277 C3276 1.400 . S
C3277 C3278 1.398 . S
C3278 H3266 0.950 . S
C3278 C3277 1.398 . S
C3278 C3279 1.391 . S
C3279 H3267 0.950 . S
C3279 C3275 1.393 . S
C3279 C3278 1.391 . S
H3280 C3288 0.950 . S
H3281 C3293 0.950 . S
H3282 C3290 0.950 . S
H3283 C3292 0.900 1_565 S
H3284 C3294 0.950 . S
H3285 C3296 0.950 . S
H3286 C3298 0.904 1_545 S
H3287 C3299 0.950 1_556 S
C3288 H3280 0.950 . S
C3288 C3289 1.386 . S
C3288 C3290 1.391 . S
C3289 C3288 1.386 . S
C3289 C3293 1.393 . S
C3290 H3282 0.950 . S
C3290 C3288 1.391 . S
C3290 C3291 1.400 . S
C3291 C3290 1.400 . S
C3291 C3292 1.427 . S
C3291 C3297 1.491 1_545 S
C3292 H3283 0.900 1_545 S
C3292 C3291 1.427 . S
C3292 C3293 1.414 . S
C3293 H3281 0.950 . S
C3293 C3289 1.393 . S
C3293 C3292 1.414 . S
C3294 H3284 0.950 . S
C3294 C3295 1.386 . S
C3294 C3296 1.391 . S
C3295 C3294 1.386 . S
C3295 C3299 1.393 . S
C3296 H3285 0.950 . S
C3296 C3294 1.391 . S
C3296 C3297 1.400 . S
C3297 C3291 1.491 1_565 S
C3297 C3296 1.400 . S
C3297 C3298 1.424 . S
C3298 H3286 0.904 1_565 S
C3298 C3297 1.424 . S
C3298 C3299 1.412 . S
C3299 H3287 0.950 1_554 S
C3299 C3295 1.393 . S
C3299 C3298 1.412 . S
H3300 C3308 0.950 . S
H3301 C3313 0.950 . S
H3302 C3310 0.950 . S
H3303 C3312 0.950 1_545 S
H3304 C3314 0.950 . S
H3305 C3316 0.950 . S
H3306 C3318 0.950 1_565 S
H3307 C3319 0.950 . S
C3308 H3300 0.950 . S
C3308 C3309 1.386 . S
C3308 C3310 1.391 . S
C3309 C3308 1.386 . S
C3309 C3313 1.393 . S
C3310 H3302 0.950 . S
C3310 C3308 1.391 . S
C3310 C3311 1.400 . S
C3311 C3310 1.400 . S
C3311 C3312 1.398 . S
C3311 C3317 1.491 1_565 S
C3312 H3303 0.950 1_565 S
C3312 C3311 1.398 . S
C3312 C3313 1.391 . S
C3313 H3301 0.950 . S
C3313 C3309 1.393 . S
C3313 C3312 1.391 . S
C3314 H3304 0.950 . S
C3314 C3315 1.386 . S
C3314 C3316 1.391 . S
C3315 C3314 1.386 . S
C3315 C3319 1.393 . S
C3316 H3305 0.950 . S
C3316 C3314 1.391 . S
C3316 C3317 1.400 . S
C3317 C3311 1.491 1_545 S
C3317 C3316 1.400 . S
C3317 C3318 1.398 . S
C3318 H3306 0.950 1_545 S
C3318 C3317 1.398 . S
C3318 C3319 1.391 . S
C3319 H3307 0.950 . S
C3319 C3315 1.393 . S
C3319 C3318 1.391 . S
H3320 C3328 0.950 . S
H3321 C3333 0.950 . S
H3322 C3330 0.950 . S
H3323 C3332 0.950 . S
H3324 C3334 0.950 . S
H3325 C3336 0.950 . S
H3326 C3338 0.950 . S
H3327 C3339 0.950 . S
C3328 H3320 0.950 . S
C3328 C3329 1.386 . S
C3328 C3330 1.391 . S
C3329 C3328 1.386 . S
C3329 C3333 1.393 . S
C3330 H3322 0.950 . S
C3330 C3328 1.391 . S
C3330 C3331 1.400 . S
C3331 C3330 1.400 . S
C3331 C3332 1.398 . S
C3331 C3337 1.491 1_655 S
C3332 H3323 0.950 . S
C3332 C3331 1.398 . S
C3332 C3333 1.391 . S
C3333 H3321 0.950 . S
C3333 C3329 1.393 . S
C3333 C3332 1.391 . S
C3334 H3324 0.950 . S
C3334 C3335 1.386 . S
C3334 C3336 1.391 . S
C3335 C3334 1.386 . S
C3335 C3339 1.393 . S
C3336 H3325 0.950 . S
C3336 C3334 1.391 . S
C3336 C3337 1.400 . S
C3337 C3331 1.491 1_455 S
C3337 C3336 1.400 . S
C3337 C3338 1.398 . S
C3338 H3326 0.950 . S
C3338 C3337 1.398 . S
C3338 C3339 1.391 . S
C3339 H3327 0.950 . S
C3339 C3335 1.393 . S
C3339 C3338 1.391 . S
H3340 C3348 0.950 . S
H3341 C3353 0.950 . S
H3342 C3350 0.950 . S
H3343 C3352 0.950 . S
H3344 C3354 0.950 . S
H3345 C3356 0.950 . S
H3346 C3358 0.950 . S
H3347 C3359 0.950 . S
C3348 H3340 0.950 . S
C3348 C3349 1.386 . S
C3348 C3350 1.391 . S
C3349 C3348 1.386 . S
C3349 C3353 1.393 . S
C3350 H3342 0.950 . S
C3350 C3348 1.391 . S
C3350 C3351 1.400 . S
C3351 C3350 1.400 . S
C3351 C3352 1.398 . S
C3351 C3357 1.491 . S
C3352 H3343 0.950 . S
C3352 C3351 1.398 . S
C3352 C3353 1.391 . S
C3353 H3341 0.950 . S
C3353 C3349 1.393 . S
C3353 C3352 1.391 . S
C3354 H3344 0.950 . S
C3354 C3355 1.386 . S
C3354 C3356 1.391 . S
C3355 C3354 1.386 . S
C3355 C3359 1.393 . S
C3356 H3345 0.950 . S
C3356 C3354 1.391 . S
C3356 C3357 1.400 . S
C3357 C3351 1.491 . S
C3357 C3356 1.400 . S
C3357 C3358 1.398 . S
C3358 H3346 0.950 . S
C3358 C3357 1.398 . S
C3358 C3359 1.391 . S
C3359 H3347 0.950 . S
C3359 C3355 1.393 . S
C3359 C3358 1.391 . S
H3360 C3368 0.950 . S
H3361 C3373 0.950 . S
H3362 C3370 0.950 . S
H3363 C3372 0.950 . S
H3364 C3374 0.950 . S
H3365 C3376 0.950 . S
H3366 C3378 0.950 . S
H3367 C3379 0.950 . S
C3368 H3360 0.950 . S
C3368 C3369 1.386 . S
C3368 C3370 1.391 . S
C3369 C3368 1.386 . S
C3369 C3373 1.393 . S
C3370 H3362 0.950 . S
C3370 C3368 1.391 . S
C3370 C3371 1.400 . S
C3371 C3370 1.400 . S
C3371 C3372 1.398 . S
C3371 C3377 1.491 . S
C3372 H3363 0.950 . S
C3372 C3371 1.398 . S
C3372 C3373 1.391 . S
C3373 H3361 0.950 . S
C3373 C3369 1.393 . S
C3373 C3372 1.391 . S
C3374 H3364 0.950 . S
C3374 C3375 1.386 . S
C3374 C3376 1.391 . S
C3375 C3374 1.386 . S
C3375 C3379 1.393 . S
C3376 H3365 0.950 . S
C3376 C3374 1.391 . S
C3376 C3377 1.400 . S
C3377 C3371 1.491 . S
C3377 C3376 1.400 . S
C3377 C3378 1.398 . S
C3378 H3366 0.950 . S
C3378 C3377 1.398 . S
C3378 C3379 1.391 . S
C3379 H3367 0.950 . S
C3379 C3375 1.393 . S
C3379 C3378 1.391 . S
H3380 C3388 0.950 . S
H3381 C3393 0.950 . S
H3382 C3390 0.950 . S
H3383 C3392 0.950 . S
H3384 C3394 0.950 . S
H3385 C3396 0.950 . S
H3386 C3398 0.950 . S
H3387 C3399 0.950 . S
C3388 H3380 0.950 . S
C3388 C3389 1.386 . S
C3388 C3390 1.391 . S
C3389 C3388 1.386 . S
C3389 C3393 1.393 . S
C3390 H3382 0.950 . S
C3390 C3388 1.391 . S
C3390 C3391 1.400 . S
C3391 C3390 1.400 . S
C3391 C3392 1.398 . S
C3391 C3397 1.491 . S
C3392 H3383 0.950 . S
C3392 C3391 1.398 . S
C3392 C3393 1.391 . S
C3393 H3381 0.950 . S
C3393 C3389 1.393 . S
C3393 C3392 1.391 . S
C3394 H3384 0.950 . S
C3394 C3395 1.386 . S
C3394 C3396 1.391 . S
C3395 C3394 1.386 . S
C3395 C3399 1.393 . S
C3396 H3385 0.950 . S
C3396 C3394 1.391 . S
C3396 C3397 1.400 . S
C3397 C3391 1.491 . S
C3397 C3396 1.400 . S
C3397 C3398 1.398 . S
C3398 H3386 0.950 . S
C3398 C3397 1.398 . S
C3398 C3399 1.391 . S
C3399 H3387 0.950 . S
C3399 C3395 1.393 . S
C3399 C3398 1.391 . S
H3400 C3408 0.950 . S
H3401 C3413 0.950 . S
H3402 C3410 0.950 . S
H3403 C3412 0.950 . S
H3404 C3414 0.950 . S
H3405 C3416 0.950 . S
H3406 C3418 0.950 . S
H3407 C3419 0.950 . S
C3408 H3400 0.950 . S
C3408 C3409 1.386 . S
C3408 C3410 1.391 . S
C3409 C3408 1.386 . S
C3409 C3413 1.393 . S
C3410 H3402 0.950 . S
C3410 C3408 1.391 . S
C3410 C3411 1.400 . S
C3411 C3410 1.400 . S
C3411 C3412 1.398 . S
C3411 C3417 1.491 . S
C3412 H3403 0.950 . S
C3412 C3411 1.398 . S
C3412 C3413 1.391 . S
C3413 H3401 0.950 . S
C3413 C3409 1.393 . S
C3413 C3412 1.391 . S
C3414 H3404 0.950 . S
C3414 C3415 1.386 . S
C3414 C3416 1.391 . S
C3415 C3414 1.386 . S
C3415 C3419 1.393 . S
C3416 H3405 0.950 . S
C3416 C3414 1.391 . S
C3416 C3417 1.400 . S
C3417 C3411 1.491 . S
C3417 C3416 1.400 . S
C3417 C3418 1.398 . S
C3418 H3406 0.950 . S
C3418 C3417 1.398 . S
C3418 C3419 1.391 . S
C3419 H3407 0.950 . S
C3419 C3415 1.393 . S
C3419 C3418 1.391 . S
H3420 C3428 0.950 . S
H3421 C3433 0.950 . S
H3422 C3430 0.950 . S
H3423 C3432 0.950 . S
H3424 C3434 0.950 . S
H3425 C3436 0.950 . S
H3426 C3438 0.950 . S
H3427 C3439 0.973 . S
C3428 H3420 0.950 . S
C3428 C3429 1.386 . S
C3428 C3430 1.391 . S
C3429 C3428 1.386 . S
C3429 C3433 1.393 . S
C3430 H3422 0.950 . S
C3430 C3428 1.391 . S
C3430 C3431 1.400 . S
C3431 C3430 1.400 . S
C3431 C3432 1.398 . S
C3431 C3437 1.491 . S
C3432 H3423 0.950 . S
C3432 C3431 1.398 . S
C3432 C3433 1.391 . S
C3433 H3421 0.950 . S
C3433 C3429 1.393 . S
C3433 C3432 1.391 . S
C3434 H3424 0.950 . S
C3434 C3435 1.386 . S
C3434 C3436 1.391 . S
C3435 C3434 1.386 . S
C3435 C3439 1.393 . S
C3436 H3425 0.950 . S
C3436 C3434 1.391 . S
C3436 C3437 1.400 . S
C3437 C3431 1.491 . S
C3437 C3436 1.400 . S
C3437 C3438 1.398 . S
C3438 H3426 0.950 . S
C3438 C3437 1.398 . S
C3438 C3439 1.391 . S
C3439 H3427 0.973 . S
C3439 C3435 1.393 . S
C3439 C3438 1.391 . S
H3440 C3448 0.950 . S
H3441 C3453 0.950 . S
H3442 C3450 0.950 . S
H3443 C3452 0.950 . S
H3444 C3454 0.950 . S
H3445 C3456 0.950 . S
H3446 C3458 0.950 . S
H3447 C3459 0.950 . S
C3448 H3440 0.950 . S
C3448 C3449 1.386 . S
C3448 C3450 1.391 . S
C3449 C3448 1.386 . S
C3449 C3453 1.393 . S
C3450 H3442 0.950 . S
C3450 C3448 1.391 . S
C3450 C3451 1.400 . S
C3451 C3450 1.400 . S
C3451 C3452 1.398 . S
C3451 C3457 1.491 . S
C3452 H3443 0.950 . S
C3452 C3451 1.398 . S
C3452 C3453 1.391 . S
C3453 H3441 0.950 . S
C3453 C3449 1.393 . S
C3453 C3452 1.391 . S
C3454 H3444 0.950 . S
C3454 C3455 1.386 . S
C3454 C3456 1.391 . S
C3455 C3454 1.386 . S
C3455 C3459 1.393 . S
C3456 H3445 0.950 . S
C3456 C3454 1.391 . S
C3456 C3457 1.400 . S
C3457 C3451 1.491 . S
C3457 C3456 1.400 . S
C3457 C3458 1.398 . S
C3458 H3446 0.950 . S
C3458 C3457 1.398 . S
C3458 C3459 1.391 . S
C3459 H3447 0.950 . S
C3459 C3455 1.393 . S
C3459 C3458 1.391 . S
H3460 C3468 0.950 . S
H3461 C3473 0.950 . S
H3462 C3470 0.950 . S
H3463 C3472 0.950 . S
H3464 C3474 0.950 . S
H3465 C3476 0.950 . S
H3466 C3478 0.950 . S
H3467 C3479 0.950 . S
C3468 H3460 0.950 . S
C3468 C3469 1.386 . S
C3468 C3470 1.391 . S
C3469 C3468 1.386 . S
C3469 C3473 1.393 . S
C3470 H3462 0.950 . S
C3470 C3468 1.391 . S
C3470 C3471 1.400 . S
C3471 C3470 1.400 . S
C3471 C3472 1.398 . S
C3471 C3477 1.491 . S
C3472 H3463 0.950 . S
C3472 C3471 1.398 . S
C3472 C3473 1.391 . S
C3473 H3461 0.950 . S
C3473 C3469 1.393 . S
C3473 C3472 1.391 . S
C3474 H3464 0.950 . S
C3474 C3475 1.386 . S
C3474 C3476 1.391 . S
C3475 C3474 1.386 . S
C3475 C3479 1.393 . S
C3476 H3465 0.950 . S
C3476 C3474 1.391 . S
C3476 C3477 1.400 . S
C3477 C3471 1.491 . S
C3477 C3476 1.400 . S
C3477 C3478 1.398 . S
C3478 H3466 0.950 . S
C3478 C3477 1.398 . S
C3478 C3479 1.391 . S
C3479 H3467 0.950 . S
C3479 C3475 1.393 . S
C3479 C3478 1.391 . S
H3480 C3488 0.950 . S
H3481 C3493 0.950 . S
H3482 C3490 0.950 . S
H3483 C3492 0.950 . S
H3484 C3494 0.950 . S
H3485 C3496 0.950 . S
H3486 C3498 0.950 . S
H3487 C3499 0.950 . S
C3488 H3480 0.950 . S
C3488 C3489 1.386 . S
C3488 C3490 1.391 . S
C3489 C3488 1.386 . S
C3489 C3493 1.393 . S
C3490 H3482 0.950 . S
C3490 C3488 1.391 . S
C3490 C3491 1.400 . S
C3491 C3490 1.400 . S
C3491 C3492 1.398 . S
C3491 C3497 1.491 . S
C3492 H3483 0.950 . S
C3492 C3491 1.398 . S
C3492 C3493 1.391 . S
C3493 H3481 0.950 . S
C3493 C3489 1.393 . S
C3493 C3492 1.391 . S
C3494 H3484 0.950 . S
C3494 C3495 1.386 . S
C3494 C3496 1.391 . S
C3495 C3494 1.386 . S
C3495 C3499 1.393 . S
C3496 H3485 0.950 . S
C3496 C3494 1.391 . S
C3496 C3497 1.400 . S
C3497 C3491 1.491 . S
C3497 C3496 1.400 . S
C3497 C3498 1.398 . S
C3498 H3486 0.950 . S
C3498 C3497 1.398 . S
C3498 C3499 1.391 . S
C3499 H3487 0.950 . S
C3499 C3495 1.393 . S
C3499 C3498 1.391 . S
H3500 C3508 0.950 . S
H3501 C3513 0.950 . S
H3502 C3510 0.950 . S
H3503 C3512 0.950 . S
H3504 C3514 0.950 . S
H3505 C3516 0.950 . S
H3506 C3518 0.950 . S
H3507 C3519 0.950 . S
C3508 H3500 0.950 . S
C3508 C3509 1.386 . S
C3508 C3510 1.391 . S
C3509 C3508 1.386 . S
C3509 C3513 1.393 . S
C3510 H3502 0.950 . S
C3510 C3508 1.391 . S
C3510 C3511 1.400 . S
C3511 C3510 1.400 . S
C3511 C3512 1.398 . S
C3511 C3517 1.491 . S
C3512 H3503 0.950 . S
C3512 C3511 1.398 . S
C3512 C3513 1.391 . S
C3513 H3501 0.950 . S
C3513 C3509 1.393 . S
C3513 C3512 1.391 . S
C3514 H3504 0.950 . S
C3514 C3515 1.386 . S
C3514 C3516 1.391 . S
C3515 C3514 1.386 . S
C3515 C3519 1.393 . S
C3516 H3505 0.950 . S
C3516 C3514 1.391 . S
C3516 C3517 1.400 . S
C3517 C3511 1.491 . S
C3517 C3516 1.400 . S
C3517 C3518 1.398 . S
C3518 H3506 0.950 . S
C3518 C3517 1.398 . S
C3518 C3519 1.391 . S
C3519 H3507 0.950 . S
C3519 C3515 1.393 . S
C3519 C3518 1.391 . S
H3520 C3528 0.950 . S
H3521 C3533 0.950 . S
H3522 C3530 0.950 . S
H3523 C3532 0.950 . S
H3524 C3534 0.950 . S
H3525 C3536 0.950 . S
H3526 C3538 0.950 . S
H3527 C3539 0.950 . S
C3528 H3520 0.950 . S
C3528 C3529 1.386 . S
C3528 C3530 1.391 . S
C3529 C3528 1.386 . S
C3529 C3533 1.393 . S
C3530 H3522 0.950 . S
C3530 C3528 1.391 . S
C3530 C3531 1.400 . S
C3531 C3530 1.400 . S
C3531 C3532 1.398 . S
C3531 C3537 1.491 . S
C3532 H3523 0.950 . S
C3532 C3531 1.398 . S
C3532 C3533 1.391 . S
C3533 H3521 0.950 . S
C3533 C3529 1.393 . S
C3533 C3532 1.391 . S
C3534 H3524 0.950 . S
C3534 C3535 1.386 . S
C3534 C3536 1.391 . S
C3535 C3534 1.386 . S
C3535 C3539 1.393 . S
C3536 H3525 0.950 . S
C3536 C3534 1.391 . S
C3536 C3537 1.400 . S
C3537 C3531 1.491 . S
C3537 C3536 1.400 . S
C3537 C3538 1.398 . S
C3538 H3526 0.950 . S
C3538 C3537 1.398 . S
C3538 C3539 1.391 . S
C3539 H3527 0.950 . S
C3539 C3535 1.393 . S
C3539 C3538 1.391 . S
H3540 C3548 0.950 . S
H3541 C3553 0.950 . S
H3542 C3550 0.950 . S
H3543 C3552 0.950 . S
H3544 C3554 0.950 . S
H3545 C3556 0.950 . S
H3546 C3558 0.950 . S
H3547 C3559 0.950 . S
C3548 H3540 0.950 . S
C3548 C3549 1.386 . S
C3548 C3550 1.391 . S
C3549 C3548 1.386 . S
C3549 C3553 1.393 . S
C3550 H3542 0.950 . S
C3550 C3548 1.391 . S
C3550 C3551 1.400 . S
C3551 C3550 1.400 . S
C3551 C3552 1.398 . S
C3551 C3557 1.491 . S
C3552 H3543 0.950 . S
C3552 C3551 1.398 . S
C3552 C3553 1.391 . S
C3553 H3541 0.950 . S
C3553 C3549 1.393 . S
C3553 C3552 1.391 . S
C3554 H3544 0.950 . S
C3554 C3555 1.386 . S
C3554 C3556 1.391 . S
C3555 C3554 1.386 . S
C3555 C3559 1.393 . S
C3556 H3545 0.950 . S
C3556 C3554 1.391 . S
C3556 C3557 1.400 . S
C3557 C3551 1.491 . S
C3557 C3556 1.400 . S
C3557 C3558 1.398 . S
C3558 H3546 0.950 . S
C3558 C3557 1.398 . S
C3558 C3559 1.391 . S
C3559 H3547 0.950 . S
C3559 C3555 1.393 . S
C3559 C3558 1.391 . S
H3560 C3568 0.950 . S
H3561 C3573 0.950 . S
H3562 C3570 0.950 . S
H3563 C3572 0.950 . S
H3564 C3574 0.950 . S
H3565 C3576 0.950 . S
H3566 C3578 0.950 . S
H3567 C3579 0.950 . S
C3568 H3560 0.950 . S
C3568 C3569 1.386 . S
C3568 C3570 1.391 . S
C3569 C3568 1.386 . S
C3569 C3573 1.393 . S
C3570 H3562 0.950 . S
C3570 C3568 1.391 . S
C3570 C3571 1.400 . S
C3571 C3570 1.400 . S
C3571 C3572 1.398 . S
C3571 C3577 1.491 . S
C3572 H3563 0.950 . S
C3572 C3571 1.398 . S
C3572 C3573 1.391 . S
C3573 H3561 0.950 . S
C3573 C3569 1.393 . S
C3573 C3572 1.391 . S
C3574 H3564 0.950 . S
C3574 C3575 1.386 . S
C3574 C3576 1.391 . S
C3575 C3574 1.386 . S
C3575 C3579 1.393 . S
C3576 H3565 0.950 . S
C3576 C3574 1.391 . S
C3576 C3577 1.400 . S
C3577 C3571 1.491 . S
C3577 C3576 1.400 . S
C3577 C3578 1.398 . S
C3578 H3566 0.950 . S
C3578 C3577 1.398 . S
C3578 C3579 1.391 . S
C3579 H3567 0.950 . S
C3579 C3575 1.393 . S
C3579 C3578 1.391 . S
H3580 C3588 0.950 . S
H3581 C3593 0.950 . S
H3582 C3590 0.950 . S
H3583 C3592 0.950 . S
H3584 C3594 0.950 . S
H3585 C3596 0.950 . S
H3586 C3598 0.950 . S
H3587 C3599 0.950 . S
C3588 H3580 0.950 . S
C3588 C3589 1.386 . S
C3588 C3590 1.391 . S
C3589 C3588 1.386 . S
C3589 C3593 1.393 . S
C3590 H3582 0.950 . S
C3590 C3588 1.391 . S
C3590 C3591 1.400 . S
C3591 C3590 1.400 . S
C3591 C3592 1.398 . S
C3591 C3597 1.491 . S
C3592 H3583 0.950 . S
C3592 C3591 1.398 . S
C3592 C3593 1.391 . S
C3593 H3581 0.950 . S
C3593 C3589 1.393 . S
C3593 C3592 1.391 . S
C3594 H3584 0.950 . S
C3594 C3595 1.386 . S
C3594 C3596 1.391 . S
C3595 C3594 1.386 . S
C3595 C3599 1.393 . S
C3596 H3585 0.950 . S
C3596 C3594 1.391 . S
C3596 C3597 1.400 . S
C3597 C3591 1.491 . S
C3597 C3596 1.400 . S
C3597 C3598 1.398 . S
C3598 H3586 0.950 . S
C3598 C3597 1.398 . S
C3598 C3599 1.391 . S
C3599 H3587 0.950 . S
C3599 C3595 1.393 . S
C3599 C3598 1.391 . S
C1449 C609 0.990 . S
C1455 C9 1.022 1_556 S
C1469 C649 1.003 . S
C1475 C49 1.034 1_556 S
C1489 C89 0.988 1_556 S
C1495 C689 1.023 . S
C1509 C129 0.994 . S
C1515 C969 1.003 . S
C1529 C169 1.029 . S
C1535 C1009 0.991 . S
C1549 C209 1.034 . S
C1555 C1049 1.001 . S
C1569 C1338 0.995 . S
C1575 C258 1.001 . S
C1589 C1378 0.988 . S
C1595 C298 1.023 . S
C1609 C338 1.034 . S
C1615 C1418 1.003 . S
C1629 C738 1.027 . S
C1635 C378 1.028 . S
C1649 C418 1.031 . S
C1655 C778 1.018 . S
C1669 C458 1.030 . S
C1675 C818 0.993 . S
C1689 C1089 1.031 . S
C1695 C489 0.993 . S
C1709 C529 0.998 . S
C1715 C1129 0.996 . S
C1729 C1169 1.023 . S
C1735 C569 1.027 . S
C1749 C1218 1.013 . S
C1755 C858 0.990 . S
C1769 C1258 1.022 . S
C1775 C898 0.987 . S
C1789 C938 0.993 . S
C1795 C1298 1.001 . S
C1809 C19 2.055 . S
C1815 C179 2.052 . S
C1829 C59 2.054 . S
C1835 C219 2.066 . S
C1849 C99 2.066 . S
C1855 C139 2.058 . S
C1869 C250 2.064 . S
C1875 C410 2.064 . S
C1889 C290 2.067 . S
C1895 C450 2.057 . S
C1909 C330 2.065 . S
C1915 C370 2.063 . S
C1929 C499 2.051 . S
C1935 C659 2.063 . S
C1949 C699 2.052 . S
C1955 C539 2.064 . S
C1969 C579 2.056 . S
C1975 C619 2.051 . S
C1989 C730 2.066 . S
C1995 C890 2.055 . S
C2009 C770 2.066 . S
C2015 C930 2.063 . S
C2029 C850 2.052 . S
C2035 C810 2.063 . S
C2049 C979 2.065 . S
C2055 C1139 2.053 . S
C2069 C1179 2.050 . S
C2075 C1019 2.058 . S
C2089 C1059 2.058 . S
C2095 C1099 2.051 . S
C2109 C1210 2.054 . S
C2115 C1370 2.053 . S
C2129 C1250 2.062 . S
C2135 C1410 2.051 . S
C2149 C1290 2.051 . S
C2155 C1330 2.058 . S
C2169 C419 1.566 . S
C2175 C15 1.539 . S
C2189 C55 1.526 . S
C2195 C459 1.570 . S
C2209 C95 1.530 . S
C2215 C379 1.570 . S
C2229 C135 1.528 . S
C2235 C339 1.567 . S
C2249 C175 1.532 . S
C2255 C259 1.567 . S
C2269 C299 1.569 . S
C2275 C215 1.525 . S
C2289 C246 1.525 . S
C2295 C170 1.569 . S
C2309 C210 1.570 . S
C2315 C286 1.532 . S
C2329 C326 1.526 . S
C2335 C130 1.570 . S
C2349 C366 1.532 . S
C2355 C90 1.571 . S
C2369 C10 1.566 . S
C2375 C406 1.538 . S
C2389 C50 1.570 . S
C2395 C446 1.533 . S
C2409 C899 1.571 . S
C2415 C495 1.531 . S
C2429 C939 1.570 . S
C2435 C535 1.533 . S
C2449 C859 1.570 . S
C2455 C575 1.529 . S
C2469 C819 1.566 . S
C2475 C615 1.534 . S
C2489 C655 1.541 . S
C2495 C739 1.569 . S
C2509 C779 1.569 . S
C2515 C695 1.526 . S
C2529 C650 1.570 . S
C2535 C726 1.536 . S
C2549 C766 1.543 . S
C2555 C690 1.569 . S
C2569 C806 1.532 . S
C2575 C610 1.570 . S
C2589 C570 1.566 . S
C2595 C846 1.543 . S
C2609 C886 1.539 . S
C2615 C490 1.566 . S
C2629 C926 1.530 . S
C2635 C530 1.566 . S
C2649 C975 1.525 . S
C2655 C1379 1.568 . S
C2669 C1015 1.536 . S
C2675 C1419 1.566 . S
C2689 C1339 1.569 . S
C2695 C1055 1.525 . S
C2709 C1299 1.566 . S
C2715 C1095 1.534 . S
C2729 C1135 1.544 . S
C2735 C1219 1.569 . S
C2749 C1259 1.569 . S
C2755 C1175 1.543 . S
C2769 C1206 1.537 . S
C2775 C1130 1.570 . S
C2789 C1170 1.569 . S
C2795 C1246 1.543 . S
C2809 C1286 1.529 . S
C2815 C1090 1.570 . S
C2829 C1326 1.527 . S
C2835 C1050 1.568 . S
C2849 C970 1.566 . S
C2855 C1366 1.539 . S
C2869 C1010 1.566 . S
C2875 C1406 1.530 . S
C2889 C6 1.112 . S
C2895 C166 1.121 . S
C2909 C206 1.111 . S
C2915 C46 1.125 . S
C2929 C86 1.115 . S
C2935 C126 1.117 . S
C2949 C255 1.112 . S
C2955 C415 1.120 . S
C2969 C455 1.112 . S
C2975 C295 1.127 . S
C2989 C335 1.120 . S
C2995 C375 1.124 . S
C3009 C646 1.111 . S
C3015 C486 1.125 . S
C3029 C686 1.111 . S
C3035 C526 1.127 . S
C3049 C606 1.127 . S
C3055 C566 1.116 . S
C3069 C895 1.126 . S
C3075 C735 1.111 . S
C3089 C775 1.125 . S
C3095 C935 1.111 . S
C3109 C855 1.122 . S
C3115 C815 1.122 . S
C3129 C1126 1.111 . S
C3135 C966 1.127 . S
C3149 C1006 1.118 . S
C3155 C1166 1.126 . S
C3169 C1046 1.115 . S
C3175 C1086 1.127 . S
C3189 C1375 1.127 . S
C3195 C1215 1.116 . S
C3209 C1255 1.121 . S
C3215 C1415 1.123 . S
C3229 C1295 1.127 . S
C3235 C1335 1.111 . S
C3249 C18 0.288 . S
C3255 C249 0.288 . S
C3269 C58 0.224 . S
C3275 C289 0.224 . S
C3289 C329 0.255 . S
C3295 C98 0.255 . S
C3309 C369 0.225 . S
C3315 C138 0.225 . S
C3329 C178 0.214 . S
C3335 C409 0.214 . S
C3349 C218 0.285 . S
C3355 C449 0.285 . S
C3369 C729 0.237 . S
C3375 C498 0.237 . S
C3389 C538 0.226 . S
C3395 C769 0.226 . S
C3409 C809 0.281 . S
C3415 C578 0.281 . S
C3429 C849 0.270 . S
C3435 C618 0.270 . S
C3449 C889 0.253 . S
C3455 C658 0.253 . S
C3469 C929 0.211 . S
C3475 C698 0.211 . S
C3489 C1209 0.251 . S
C3495 C978 0.251 . S
C3509 C1018 0.286 . S
C3515 C1249 0.286 . S
C3529 C1289 0.268 . S
C3535 C1058 0.268 . S
C3549 C1329 0.212 . S
C3555 C1098 0.212 . S
C3569 C1369 0.221 . S
C3575 C1138 0.221 . S
C3589 C1178 0.266 . S
C3595 C1409 0.266 . S
