# Generated by pormake.
# Topology wlj, (5)-cn, num edge types: 1
# Building blocks:
#     Node 0, Type 0, BuildingBlock: BEQFEK_clean_sbu_0, # of connection points: 5
#     Node 1, Type 0, BuildingBlock: BEQFEK_clean_sbu_0, # of connection points: 5
#     Node 2, Type 0, BuildingBlock: BEQFEK_clean_sbu_0, # of connection points: 5
#     Node 3, Type 0, BuildingBlock: BEQFEK_clean_sbu_0, # of connection points: 5
#     Node 4, Type 0, BuildingBlock: BEQFEK_clean_sbu_0, # of connection points: 5
#     Node 5, Type 0, BuildingBlock: BEQFEK_clean_sbu_0, # of connection points: 5
#     Edge 6, Type (0, 0), BuildingBlock: XIVTED_clean_linker_0, # of connection points: 2
#     Edge 7, Type (0, 0), BuildingBlock: XIVTED_clean_linker_0, # of connection points: 2
#     Edge 8, Type (0, 0), BuildingBlock: XIVTED_clean_linker_0, # of connection points: 2
#     Edge 9, Type (0, 0), BuildingBlock: XIVTED_clean_linker_0, # of connection points: 2
#     Edge 10, Type (0, 0), BuildingBlock: XIVTED_clean_linker_0, # of connection points: 2
#     Edge 11, Type (0, 0), BuildingBlock: XIVTED_clean_linker_0, # of connection points: 2
#     Edge 12, Type (0, 0), BuildingBlock: XIVTED_clean_linker_0, # of connection points: 2
#     Edge 13, Type (0, 0), BuildingBlock: XIVTED_clean_linker_0, # of connection points: 2
#     Edge 14, Type (0, 0), BuildingBlock: XIVTED_clean_linker_0, # of connection points: 2
#     Edge 15, Type (0, 0), BuildingBlock: XIVTED_clean_linker_0, # of connection points: 2
#     Edge 16, Type (0, 0), BuildingBlock: XIVTED_clean_linker_0, # of connection points: 2
#     Edge 17, Type (0, 0), BuildingBlock: XIVTED_clean_linker_0, # of connection points: 2
#     Edge 18, Type (0, 0), BuildingBlock: XIVTED_clean_linker_0, # of connection points: 2
#     Edge 19, Type (0, 0), BuildingBlock: XIVTED_clean_linker_0, # of connection points: 2
#     Edge 20, Type (0, 0), BuildingBlock: XIVTED_clean_linker_0, # of connection points: 2
# Relax obj value: 0.046
# Max RMSD: 0.094
# Mean RMSD: 0.094
data_MOF--net-wlj--node1-BEQFEK_clean_sbu_0--edge1-XIVTED_clean_linker_0
_symmetry_space_group_name_H-M    P1
_symmetry_Int_Tables_number       1
_symmetry_cell_setting            triclinic
loop_
_symmetry_equiv_pos_as_xyz
'x, y, z'
_cell_length_a     24.066962
_cell_length_b     24.073032
_cell_length_c     68.883509
_cell_angle_alpha  90.00011
_cell_angle_beta   90.032586
_cell_angle_gamma 120.03221
loop_
_atom_site_label
_atom_site_type_symbol
_atom_site_fract_x
_atom_site_fract_y
_atom_site_fract_z
_atom_type_partial_charge
Co0 Co 0.48001 0.33246 0.22059 0.0
Co1 Co 0.53937 0.26664 0.24576 0.0
C2 C 0.43991 0.19361 0.21537 0.0
O3 O 0.43721 0.24332 0.21063 0.0
O4 O 0.47617 0.19504 0.22909 0.0
C5 C 0.38281 0.35545 0.20401 0.0
O6 O 0.34161 0.29726 0.21 0.0
C7 C 0.54336 0.18007 0.2753 0.0
C8 C 0.64639 0.23079 0.28287 0.0
C9 C 0.58805 0.1773 0.28759 0.0
N10 N 0.57417 0.2329 0.26418 0.0
N11 N 0.6358 0.26249 0.26861 0.0
C12 C 0.47201 0.13716 0.27503 0.0
H13 H 0.44871 0.16115 0.26763 0.0
H14 H 0.45311 0.12405 0.29004 0.0
H15 H 0.45986 0.09266 0.26693 0.0
C16 C 0.45676 0.36907 0.25951 0.0
N17 N 0.47579 0.33653 0.24797 0.0
N18 N 0.5012 0.30968 0.25871 0.0
C19 C 0.49888 0.32424 0.27752 0.0
C20 C 0.47054 0.3623 0.27866 0.0
C21 C 0.43267 0.41158 0.25203 0.0
H22 H 0.46292 0.44057 0.23971 0.0
H23 H 0.38287 0.38134 0.24664 0.0
H24 H 0.43325 0.44447 0.2634 0.0
O25 O 0.56999 0.37688 0.21249 0.0
O26 O 0.6128 0.32905 0.22935 0.0
H27 H 0.57489 0.31816 0.29168 0.0
H28 H 0.51744 0.31999 0.30825 0.0
C29 C 0.52347 0.30215 0.29404 0.0
H30 H 0.49648 0.24915 0.29457 0.0
H31 H 0.67043 0.30526 0.26223 0.0
O32 O 0.44216 0.37867 0.2075 0.0
C33 C 0.61776 0.37054 0.21693 0.0
Co34 Co 0.65963 0.14594 0.88709 0.0
Co35 Co 0.72844 0.27127 0.91228 0.0
C36 C 0.79747 0.24344 0.88066 0.0
O37 O 0.74741 0.19085 0.87627 0.0
O38 O 0.79725 0.27855 0.89446 0.0
C39 C 0.63434 0.02656 0.86973 0.0
O40 O 0.6936 0.04434 0.87477 0.0
C41 C 0.81882 0.35796 0.94206 0.0
C42 C 0.77771 0.41985 0.94867 0.0
C43 C 0.82689 0.40856 0.95372 0.0
N44 N 0.7666 0.33956 0.93086 0.0
N45 N 0.7426 0.37711 0.93481 0.0
C46 C 0.86179 0.32968 0.94091 0.0
H47 H 0.85225 0.30074 0.92754 0.0
H48 H 0.85333 0.29794 0.95355 0.0
H49 H 0.91282 0.36842 0.94132 0.0
C50 C 0.62627 0.08594 0.92597 0.0
N51 N 0.65834 0.1376 0.91443 0.0
N52 N 0.68532 0.18988 0.92517 0.0
C53 C 0.67064 0.17295 0.94398 0.0
C54 C 0.63304 0.10647 0.94511 0.0
C55 C 0.58388 0.01926 0.9185 0.0
H56 H 0.55226 0.02 0.90692 0.0
H57 H 0.61414 0.00126 0.91208 0.0
H58 H 0.55355 0.98596 0.93011 0.0
O59 O 0.61581 0.19296 0.87991 0.0
O60 O 0.66495 0.28359 0.89682 0.0
H61 H 0.67748 0.25661 0.95727 0.0
H62 H 0.66973 0.19621 0.97446 0.0
C63 C 0.69098 0.21973 0.96044 0.0
H64 H 0.74371 0.24406 0.96197 0.0
H65 H 0.70181 0.37319 0.92815 0.0
O66 O 0.61102 0.06198 0.87407 0.0
C67 C 0.62249 0.24705 0.88459 0.0
Co68 Co 0.84692 0.51286 0.5534 0.0
Co69 Co 0.72176 0.45626 0.5786 0.0
C70 C 0.74977 0.55381 0.5472 0.0
O71 O 0.80227 0.55626 0.54279 0.0
O72 O 0.71459 0.51824 0.56096 0.0
C73 C 0.96632 0.60801 0.53654 0.0
O74 O 0.94845 0.64888 0.54214 0.0
C75 C 0.63514 0.45936 0.60844 0.0
C76 C 0.57286 0.35617 0.61478 0.0
C77 C 0.58436 0.41658 0.61999 0.0
N78 N 0.65344 0.42572 0.59714 0.0
N79 N 0.61567 0.36406 0.60094 0.0
C80 C 0.66372 0.53069 0.60748 0.0
H81 H 0.69299 0.55045 0.59419 0.0
H82 H 0.69521 0.55352 0.62021 0.0
H83 H 0.6251 0.54311 0.60787 0.0
C84 C 0.90695 0.5376 0.5923 0.0
N85 N 0.85538 0.51902 0.58077 0.0
N86 N 0.80312 0.4939 0.5915 0.0
C87 C 0.81995 0.49529 0.61029 0.0
C88 C 0.88637 0.52336 0.61143 0.0
C89 C 0.97348 0.56119 0.58482 0.0
H90 H 0.97208 0.52934 0.57297 0.0
H91 H 0.99248 0.61007 0.57875 0.0
H92 H 0.00634 0.56261 0.59634 0.0
O93 O 0.79947 0.42222 0.5459 0.0
O94 O 0.70921 0.38078 0.56297 0.0
H95 H 0.73623 0.41824 0.6235 0.0
H96 H 0.79656 0.47083 0.64075 0.0
C97 C 0.77309 0.46863 0.62672 0.0
H98 H 0.74871 0.49696 0.62825 0.0
H99 H 0.61946 0.32729 0.59418 0.0
O100 O 0.93088 0.54882 0.54037 0.0
C101 C 0.7453 0.37487 0.55058 0.0
Co102 Co 0.33025 0.47993 0.79217 0.0
Co103 Co 0.26371 0.53966 0.76744 0.0
C104 C 0.19209 0.43994 0.79805 0.0
O105 O 0.2419 0.43711 0.80258 0.0
O106 O 0.19309 0.47619 0.7844 0.0
C107 C 0.35356 0.38698 0.81144 0.0
O108 O 0.29187 0.34739 0.80893 0.0
C109 C 0.17846 0.54072 0.73695 0.0
C110 C 0.21935 0.6447 0.73213 0.0
C111 C 0.17182 0.58509 0.72561 0.0
N112 N 0.22766 0.57299 0.74932 0.0
N113 N 0.25141 0.63506 0.7465 0.0
C114 C 0.14264 0.46913 0.73533 0.0
H115 H 0.16973 0.44869 0.74251 0.0
H116 H 0.13412 0.4542 0.71987 0.0
H117 H 0.09559 0.44976 0.74272 0.0
C118 C 0.36369 0.45501 0.75312 0.0
N119 N 0.33229 0.47496 0.76479 0.0
N120 N 0.3066 0.50191 0.75422 0.0
C121 C 0.32168 0.50052 0.7354 0.0
C122 C 0.35798 0.47043 0.7341 0.0
C123 C 0.39986 0.42345 0.76025 0.0
H124 H 0.36873 0.38333 0.77008 0.0
H125 H 0.41591 0.40456 0.74812 0.0
H126 H 0.44222 0.45867 0.7687 0.0
O127 O 0.37453 0.57017 0.80018 0.0
O128 O 0.32645 0.61333 0.78362 0.0
H129 H 0.34202 0.54434 0.70692 0.0
H130 H 0.25905 0.50372 0.71402 0.0
C131 C 0.30885 0.53438 0.7193 0.0
H132 H 0.3144 0.58032 0.7246 0.0
H133 H 0.29048 0.67091 0.75409 0.0
O134 O 0.37881 0.44373 0.80483 0.0
C135 C 0.36821 0.61807 0.79591 0.0
Co136 Co 0.51117 0.84898 0.4592 0.0
Co137 Co 0.45366 0.72405 0.43393 0.0
C138 C 0.55231 0.75103 0.46459 0.0
O139 O 0.55422 0.80312 0.46927 0.0
O140 O 0.51677 0.71605 0.45077 0.0
C141 C 0.60743 0.96839 0.47622 0.0
O142 O 0.64847 0.95084 0.47053 0.0
C143 C 0.45031 0.63365 0.40437 0.0
C144 C 0.34734 0.58124 0.39673 0.0
C145 C 0.40573 0.58617 0.39205 0.0
N146 N 0.41938 0.65562 0.41546 0.0
N147 N 0.35779 0.6235 0.41098 0.0
C148 C 0.52164 0.6621 0.40473 0.0
H149 H 0.54486 0.70926 0.41222 0.0
H150 H 0.54076 0.66818 0.38974 0.0
H151 H 0.53364 0.62957 0.41279 0.0
C152 C 0.53512 0.90919 0.42033 0.0
N153 N 0.51611 0.85754 0.43183 0.0
N154 N 0.49155 0.8054 0.42104 0.0
C155 C 0.49439 0.82245 0.40223 0.0
C156 C 0.5222 0.88884 0.40115 0.0
C157 C 0.55848 0.97563 0.42786 0.0
H158 H 0.52763 0.97392 0.44005 0.0
H159 H 0.60809 0.99544 0.43345 0.0
H160 H 0.55813 0.00798 0.41646 0.0
O161 O 0.42109 0.8026 0.46713 0.0
O162 O 0.37968 0.71222 0.45018 0.0
H163 H 0.41938 0.74021 0.38782 0.0
H164 H 0.47734 0.79996 0.37145 0.0
C165 C 0.47084 0.77596 0.38566 0.0
H166 H 0.49815 0.75027 0.38529 0.0
H167 H 0.32308 0.63157 0.41733 0.0
O168 O 0.54825 0.93287 0.47237 0.0
C169 C 0.37386 0.74822 0.4626 0.0
Co170 Co 0.14592 0.66286 0.12596 0.0
Co171 Co 0.2718 0.7294 0.10112 0.0
C172 C 0.24376 0.80116 0.13172 0.0
O173 O 0.1912 0.7514 0.13634 0.0
O174 O 0.27885 0.79994 0.11805 0.0
C175 C 0.02837 0.63907 0.14446 0.0
O176 O 0.04925 0.70018 0.14124 0.0
C177 C 0.35785 0.81559 0.07085 0.0
C178 C 0.42129 0.77533 0.06568 0.0
C179 C 0.40905 0.82302 0.05947 0.0
N180 N 0.341 0.76586 0.08298 0.0
N181 N 0.37949 0.74244 0.07994 0.0
C182 C 0.32183 0.8512 0.06952 0.0
H183 H 0.27412 0.82344 0.07655 0.0
H184 H 0.31572 0.86069 0.05413 0.0
H185 H 0.34917 0.89774 0.07722 0.0
C186 C 0.08708 0.62872 0.08689 0.0
N187 N 0.13852 0.66038 0.09855 0.0
N188 N 0.19108 0.68631 0.08794 0.0
C189 C 0.17451 0.67128 0.06913 0.0
C190 C 0.10809 0.63463 0.06785 0.0
C191 C 0.01935 0.59224 0.09403 0.0
H192 H 0.00977 0.62381 0.10347 0.0
H193 H 0.98432 0.57465 0.0819 0.0
H194 H 0.0129 0.55095 0.10291 0.0
O195 O 0.1923 0.61896 0.13401 0.0
O196 O 0.28312 0.6669 0.11724 0.0
H197 H 0.19795 0.65209 0.04048 0.0
H198 H 0.24048 0.73476 0.04793 0.0
C199 C 0.22119 0.68472 0.05298 0.0
H200 H 0.26156 0.67891 0.05817 0.0
H201 H 0.37638 0.70312 0.08733 0.0
O202 O 0.06118 0.61433 0.1386 0.0
C203 C 0.24649 0.62534 0.12963 0.0
H204 H 0.39678 0.06919 0.22647 0.0
H205 H 0.32473 0.92567 0.12068 0.0
H206 H 0.40252 0.18391 0.17754 0.0
H207 H 0.21615 0.81045 0.16958 0.0
H208 H 0.36734 0.0217 0.14129 0.0
H209 H 0.3433 0.97301 0.2059 0.0
C210 C 0.38651 0.07405 0.21145 0.0
C211 C 0.40392 0.1345 0.20369 0.0
C212 C 0.33379 0.97534 0.1474 0.0
C213 C 0.34441 0.02541 0.18012 0.0
C214 C 0.30967 0.92066 0.13571 0.0
C215 C 0.26677 0.86013 0.14344 0.0
C216 C 0.31627 0.96907 0.16706 0.0
C217 C 0.24879 0.85628 0.16301 0.0
C218 C 0.35592 0.0193 0.19978 0.0
C219 C 0.38951 0.13816 0.18413 0.0
N220 N 0.27432 0.90992 0.17424 0.0
N221 N 0.36138 0.08447 0.17293 0.0
H222 H 0.18402 0.40201 0.83576 0.0
H223 H 0.80417 0.21517 0.84267 0.0
H224 H 0.06712 0.3974 0.78755 0.0
H225 H 0.92284 0.32395 0.89106 0.0
H226 H 0.90017 0.25888 0.82215 0.0
H227 H 0.08775 0.35007 0.85612 0.0
C228 C 0.138 0.38936 0.82939 0.0
C229 C 0.13349 0.40416 0.80994 0.0
C230 C 0.90501 0.27277 0.83729 0.0
C231 C 0.02356 0.34425 0.8331 0.0
C232 C 0.8505 0.24766 0.84903 0.0
C233 C 0.85564 0.26615 0.86858 0.0
C234 C 0.96518 0.31536 0.84528 0.0
C235 C 0.91679 0.30876 0.87603 0.0
C236 C 0.08333 0.36016 0.84106 0.0
C237 C 0.07269 0.3871 0.8025 0.0
N238 N 0.96936 0.33167 0.86439 0.0
N239 N 0.0199 0.35765 0.81407 0.0
H240 H 0.58924 0.78014 0.50241 0.0
H241 H 0.77862 0.58977 0.5093 0.0
H242 H 0.59628 0.66987 0.45403 0.0
H243 H 0.66876 0.59798 0.55759 0.0
H244 H 0.73473 0.64191 0.4888 0.0
H245 H 0.64152 0.73621 0.52279 0.0
C246 C 0.6025 0.74731 0.496 0.0
C247 C 0.58828 0.72845 0.4765 0.0
C248 C 0.72065 0.63254 0.50391 0.0
C249 C 0.64858 0.67886 0.49969 0.0
C250 C 0.74587 0.60323 0.51565 0.0
C251 C 0.72712 0.58942 0.53517 0.0
C252 C 0.67766 0.64957 0.51187 0.0
C253 C 0.68417 0.60749 0.5426 0.0
C254 C 0.63189 0.72205 0.50768 0.0
C255 C 0.60611 0.68538 0.46902 0.0
N256 N 0.66113 0.63704 0.53095 0.0
N257 N 0.63573 0.66225 0.48061 0.0
H258 H 0.36573 0.63623 0.12956 0.0
H259 H 0.25944 0.32825 0.19701 0.0
H260 H 0.17397 0.52022 0.15229 0.0
H261 H 0.45713 0.4695 0.18541 0.0
H262 H 0.22569 0.39233 0.17809 0.0
H263 H 0.39865 0.56922 0.14724 0.0
C264 C 0.3305 0.59657 0.13818 0.0
C265 C 0.26709 0.58407 0.13951 0.0
C266 C 0.27645 0.40925 0.17972 0.0
C267 C 0.30437 0.50724 0.15973 0.0
C268 C 0.29572 0.37267 0.19049 0.0
C269 C 0.36117 0.3936 0.19284 0.0
C270 C 0.32296 0.46685 0.17109 0.0
C271 C 0.40612 0.45159 0.18406 0.0
C272 C 0.34937 0.55849 0.14832 0.0
C273 C 0.22349 0.53197 0.15092 0.0
N274 N 0.38618 0.48608 0.17354 0.0
N275 N 0.24294 0.4955 0.16057 0.0
H276 H 0.47539 0.6511 0.81758 0.0
H277 H 0.51739 0.98545 0.85279 0.0
H278 H 0.35572 0.72544 0.79705 0.0
H279 H 0.66211 0.93177 0.86127 0.0
H280 H 0.45388 0.88745 0.83405 0.0
H281 H 0.54104 0.75094 0.83517 0.0
C282 C 0.46293 0.68848 0.81673 0.0
C283 C 0.40974 0.67975 0.80586 0.0
C284 C 0.49959 0.89719 0.83997 0.0
C285 C 0.48476 0.79423 0.8261 0.0
C286 C 0.5358 0.95299 0.85075 0.0
C287 C 0.59521 0.96682 0.85863 0.0
C288 C 0.52257 0.85451 0.83718 0.0
C289 C 0.61666 0.92308 0.85545 0.0
C290 C 0.50061 0.74557 0.82675 0.0
C291 C 0.39626 0.73009 0.80523 0.0
N292 N 0.58022 0.86873 0.84503 0.0
N293 N 0.43332 0.78507 0.81533 0.0
H294 H 0.06084 0.73149 0.52903 0.0
H295 H 0.26683 0.62789 0.46266 0.0
H296 H 0.00786 0.53415 0.51857 0.0
H297 H 0.33918 0.81984 0.48482 0.0
H298 H 0.16637 0.59368 0.48024 0.0
H299 H 0.1588 0.7659 0.51016 0.0
C300 C 0.06979 0.69542 0.52277 0.0
C301 C 0.0262 0.62989 0.52542 0.0
C302 C 0.20431 0.64328 0.48121 0.0
C303 C 0.13783 0.66885 0.50372 0.0
C304 C 0.26152 0.66287 0.47113 0.0
C305 C 0.31163 0.72673 0.47234 0.0
C306 C 0.19702 0.68802 0.49242 0.0
C307 C 0.30207 0.77001 0.48355 0.0
C308 C 0.12571 0.71507 0.51202 0.0
C309 C 0.04025 0.58522 0.51697 0.0
N310 N 0.24594 0.74986 0.49313 0.0
N311 N 0.09477 0.60553 0.50646 0.0
H312 H 0.51 0.17165 0.86551 0.0
H313 H 0.47613 0.46266 0.82476 0.0
H314 H 0.63905 0.36845 0.88198 0.0
H315 H 0.3213 0.26603 0.82351 0.0
H316 H 0.54031 0.42926 0.84366 0.0
H317 H 0.44366 0.2056 0.84825 0.0
C318 C 0.52435 0.22208 0.86555 0.0
C319 C 0.58038 0.26738 0.87515 0.0
C320 C 0.49224 0.3935 0.83929 0.0
C321 C 0.50462 0.30655 0.85524 0.0
C322 C 0.45566 0.4124 0.8284 0.0
C323 C 0.39322 0.36698 0.82251 0.0
C324 C 0.46655 0.3286 0.84414 0.0
C325 C 0.36914 0.30263 0.82775 0.0
C326 C 0.48627 0.24135 0.85572 0.0
C327 C 0.59623 0.33195 0.8748 0.0
N328 N 0.40598 0.28531 0.83819 0.0
N329 N 0.55878 0.34973 0.86484 0.0
H330 H 0.62513 0.26744 0.55045 0.0
H331 H 0.73076 0.06302 0.48401 0.0
H332 H 0.81765 0.34019 0.52875 0.0
H333 H 0.53308 0.00903 0.49435 0.0
H334 H 0.76462 0.16042 0.50314 0.0
H335 H 0.59153 0.16701 0.53289 0.0
C336 C 0.66037 0.26221 0.5421 0.0
C337 C 0.72419 0.31246 0.54098 0.0
C338 C 0.71383 0.12722 0.5012 0.0
C339 C 0.68618 0.19792 0.52092 0.0
C340 C 0.6945 0.07162 0.49029 0.0
C341 C 0.62903 0.02793 0.48753 0.0
C342 C 0.66736 0.13893 0.50952 0.0
C343 C 0.58411 0.04153 0.49603 0.0
C344 C 0.64113 0.20503 0.53202 0.0
C345 C 0.76781 0.30299 0.52992 0.0
N346 N 0.6041 0.09575 0.50668 0.0
N347 N 0.748 0.24693 0.52034 0.0
H348 H 0.98315 0.51823 0.15893 0.0
H349 H 0.65245 0.47965 0.19617 0.0
H350 H 0.93677 0.66943 0.15477 0.0
H351 H 0.72395 0.35608 0.21521 0.0
H352 H 0.75281 0.54571 0.17887 0.0
H353 H 0.88452 0.4538 0.17733 0.0
C354 C 0.95215 0.53786 0.16184 0.0
C355 C 0.96821 0.59936 0.15529 0.0
C356 C 0.74669 0.50433 0.1869 0.0
C357 C 0.85524 0.52571 0.17632 0.0
C358 C 0.68931 0.4664 0.19674 0.0
C359 C 0.67967 0.41205 0.20712 0.0
C360 C 0.79467 0.48751 0.18721 0.0
C361 C 0.72936 0.39756 0.20742 0.0
C362 C 0.89603 0.50112 0.17243 0.0
C363 C 0.92633 0.62235 0.15956 0.0
N364 N 0.78462 0.43486 0.19748 0.0
N365 N 0.87158 0.58537 0.16974 0.0
H366 H 0.4336 0.8723 0.37345 0.0
H367 H 0.66235 0.20275 0.31981 0.0
H368 H 0.63107 0.99693 0.38978 0.0
H369 H 0.49375 0.04937 0.29244 0.0
H370 H 0.64737 0.1317 0.34695 0.0
H371 H 0.44984 0.94031 0.34507 0.0
C372 C 0.48057 0.91363 0.3709 0.0
C373 C 0.53137 0.92876 0.38377 0.0
C374 C 0.61348 0.11371 0.33503 0.0
C375 C 0.54981 0.00752 0.35175 0.0
C376 C 0.62195 0.15424 0.31947 0.0
C377 C 0.57832 0.13286 0.30391 0.0
C378 C 0.56082 0.05111 0.33516 0.0
C379 C 0.52715 0.06925 0.30436 0.0
C380 C 0.48972 0.95252 0.35479 0.0
C381 C 0.59076 0.98374 0.38016 0.0
N382 N 0.51957 0.03077 0.3198 0.0
N383 N 0.59832 0.02133 0.36452 0.0
H384 H 0.86559 0.35561 0.98213 0.0
H385 H 0.10331 0.68982 0.03381 0.0
H386 H 0.89218 0.53658 0.96165 0.0
H387 H 0.02654 0.50674 0.06236 0.0
H388 H 0.03844 0.63534 1.00499 0.0
H389 H 0.93773 0.4112 0.00928 0.0
C390 C 0.88785 0.40725 0.98307 0.0
C391 C 0.87402 0.4418 0.96941 0.0
C392 C 0.03573 0.60713 0.01757 0.0
C393 C 0.95528 0.50552 1.00072 0.0
C394 C 0.07269 0.63812 0.03393 0.0
C395 C 0.06941 0.60255 0.05042 0.0
C396 C 0.99613 0.54005 0.01766 0.0
C397 C 0.02952 0.53575 0.04996 0.0
C398 C 0.92829 0.43885 0.99874 0.0
C399 C 0.90204 0.50835 0.97184 0.0
N400 N 0.99449 0.50657 0.03381 0.0
N401 N 0.94157 0.53816 0.98717 0.0
H402 H 0.30306 0.41191 0.69985 0.0
H403 H 0.63747 0.50714 0.64869 0.0
H404 H 0.48576 0.51565 0.72885 0.0
H405 H 0.45619 0.35433 0.62769 0.0
H406 H 0.58183 0.52337 0.67586 0.0
H407 H 0.35766 0.4018 0.67105 0.0
C408 C 0.35469 0.43248 0.70008 0.0
C409 C 0.39012 0.46398 0.71669 0.0
C410 C 0.55413 0.4867 0.6652 0.0
C411 C 0.45275 0.4535 0.68396 0.0
C412 C 0.58577 0.47806 0.64953 0.0
C413 C 0.55114 0.43022 0.63571 0.0
C414 C 0.48734 0.44736 0.66703 0.0
C415 C 0.48448 0.39201 0.638 0.0
C416 C 0.38575 0.42666 0.68373 0.0
C417 C 0.45685 0.49024 0.71636 0.0
N418 N 0.45463 0.40153 0.65333 0.0
N419 N 0.4861 0.48456 0.70022 0.0
H420 H 0.19461 0.66536 0.6951 0.0
H421 H 0.87237 0.4317 0.63761 0.0
H422 H 0.04912 0.48337 0.71821 0.0
H423 H 0.99182 0.63231 0.62405 0.0
H424 H 0.9403 0.44598 0.66589 0.0
H425 H 0.12471 0.65074 0.66764 0.0
C426 C 0.14811 0.62208 0.6944 0.0
C427 C 0.12862 0.57488 0.70889 0.0
C428 C 0.95142 0.48697 0.6568 0.0
C429 C 0.04809 0.55783 0.6773 0.0
C430 C 0.91254 0.47891 0.64076 0.0
C431 C 0.92617 0.53119 0.62872 0.0
C432 C 0.00486 0.54757 0.66063 0.0
C433 C 0.97973 0.59092 0.63305 0.0
C434 C 0.10821 0.61382 0.67867 0.0
C435 C 0.06759 0.52 0.70714 0.0
N436 N 0.01725 0.5975 0.64863 0.0
N437 N 0.02963 0.51286 0.69159 0.0
H438 H 0.55984 0.43573 0.30604 0.0
H439 H 0.33109 0.53657 0.35994 0.0
H440 H 0.36153 0.36057 0.29033 0.0
H441 H 0.50046 0.55314 0.38714 0.0
H442 H 0.3459 0.48023 0.33286 0.0
H443 H 0.54398 0.48789 0.3344 0.0
C444 C 0.51277 0.42965 0.30872 0.0
C445 C 0.46163 0.39323 0.29603 0.0
C446 C 0.37999 0.49648 0.34473 0.0
C447 C 0.44361 0.45399 0.32802 0.0
C448 C 0.37164 0.52872 0.36025 0.0
C449 C 0.41549 0.5514 0.37576 0.0
C450 C 0.4328 0.48682 0.34457 0.0
C451 C 0.46684 0.53926 0.37527 0.0
C452 C 0.50384 0.45961 0.32482 0.0
C453 C 0.40211 0.38829 0.29981 0.0
N454 N 0.47432 0.50819 0.35986 0.0
N455 N 0.39476 0.41854 0.31542 0.0
H456 H 0.63973 0.00259 0.95739 0.0
H457 H 0.42978 0.94598 0.05298 0.0
H458 H 0.55527 0.11846 0.97174 0.0
H459 H 0.46763 0.80279 0.02874 0.0
H460 H 0.48388 0.01523 0.02525 0.0
H461 H 0.5859 0.93425 0.98552 0.0
C462 C 0.61002 0.01367 0.96657 0.0
C463 C 0.60233 0.0664 0.96244 0.0
C464 C 0.47983 0.9684 0.02597 0.0
C465 C 0.54084 0.98894 0.9946 0.0
C466 C 0.44814 0.92832 0.04172 0.0
C467 C 0.44225 0.86737 0.04302 0.0
C468 C 0.50688 0.94794 0.01156 0.0
C469 C 0.47051 0.84912 0.02835 0.0
C470 C 0.57931 0.97477 0.98258 0.0
C471 C 0.56332 0.07887 0.9747 0.0
N472 N 0.50148 0.88911 0.01327 0.0
N473 N 0.53412 0.04051 0.99028 0.0
loop_
_geom_bond_atom_site_label_1
_geom_bond_atom_site_label_2
_geom_bond_distance
_geom_bond_site_symmetry_2
_ccdc_geom_bond_type
Co0 O3 1.970 . S
Co0 N17 1.989 . S
Co0 O25 1.967 . S
Co0 O32 1.920 . S
Co1 O4 1.966 . S
Co1 N10 2.022 . S
Co1 N18 1.993 . S
Co1 O26 1.941 . S
C2 O3 1.258 . S
C2 O4 1.263 . S
O3 Co0 1.970 . S
O3 C2 1.258 . S
O4 Co1 1.966 . S
O4 C2 1.263 . S
C5 O6 1.235 . S
C5 O32 1.289 . S
O6 C5 1.235 . S
C7 C9 1.400 . S
C7 N10 1.351 . S
C7 C12 1.501 . S
C8 C9 1.387 . S
C8 N11 1.341 . S
C9 C7 1.400 . S
C9 C8 1.387 . S
N10 Co1 2.022 . S
N10 C7 1.351 . S
N10 N11 1.365 . S
N11 C8 1.341 . S
N11 N10 1.365 . S
N11 H31 0.862 . S
C12 C7 1.501 . S
C12 H13 0.961 . S
C12 H14 0.961 . S
C12 H15 0.960 . S
H13 C12 0.961 . S
H14 C12 0.961 . S
H15 C12 0.960 . S
C16 N17 1.342 . S
C16 C20 1.401 . S
C16 C21 1.499 . S
N17 Co0 1.989 . S
N17 C16 1.342 . S
N17 N18 1.388 . S
N18 Co1 1.993 . S
N18 N17 1.388 . S
N18 C19 1.346 . S
C19 N18 1.346 . S
C19 C20 1.396 . S
C19 C29 1.510 . S
C20 C16 1.401 . S
C20 C19 1.396 . S
C21 C16 1.499 . S
C21 H22 0.959 . S
C21 H23 0.960 . S
C21 H24 0.961 . S
H22 C21 0.959 . S
H23 C21 0.960 . S
H24 C21 0.961 . S
O25 Co0 1.967 . S
O25 C33 1.258 . S
O26 Co1 1.941 . S
O26 C33 1.266 . S
H27 C29 0.959 . S
H28 C29 0.961 . S
C29 C19 1.510 . S
C29 H27 0.959 . S
C29 H28 0.961 . S
C29 H30 0.960 . S
H30 C29 0.960 . S
H31 N11 0.862 . S
O32 Co0 1.920 . S
O32 C5 1.289 . S
C33 O25 1.258 . S
C33 O26 1.266 . S
Co34 O37 1.970 . S
Co34 N51 1.989 . S
Co34 O59 1.967 . S
Co34 O66 1.920 . S
Co35 O38 1.966 . S
Co35 N44 2.022 . S
Co35 N52 1.993 . S
Co35 O60 1.941 . S
C36 O37 1.258 . S
C36 O38 1.263 . S
O37 Co34 1.970 . S
O37 C36 1.258 . S
O38 Co35 1.966 . S
O38 C36 1.263 . S
C39 O40 1.235 1_545 S
C39 O66 1.289 . S
O40 C39 1.235 1_565 S
C41 C43 1.400 . S
C41 N44 1.351 . S
C41 C46 1.501 . S
C42 C43 1.387 . S
C42 N45 1.341 . S
C43 C41 1.400 . S
C43 C42 1.387 . S
N44 Co35 2.022 . S
N44 C41 1.351 . S
N44 N45 1.365 . S
N45 C42 1.341 . S
N45 N44 1.365 . S
N45 H65 0.862 . S
C46 C41 1.501 . S
C46 H47 0.961 . S
C46 H48 0.961 . S
C46 H49 0.960 . S
H47 C46 0.961 . S
H48 C46 0.961 . S
H49 C46 0.960 . S
C50 N51 1.342 . S
C50 C54 1.401 . S
C50 C55 1.499 1_545 S
N51 Co34 1.989 . S
N51 C50 1.342 . S
N51 N52 1.388 . S
N52 Co35 1.993 . S
N52 N51 1.388 . S
N52 C53 1.346 . S
C53 N52 1.346 . S
C53 C54 1.396 . S
C53 C63 1.510 . S
C54 C50 1.401 . S
C54 C53 1.396 . S
C55 C50 1.499 1_565 S
C55 H56 0.959 . S
C55 H57 0.960 . S
C55 H58 0.961 . S
H56 C55 0.959 . S
H57 C55 0.960 . S
H58 C55 0.961 . S
O59 Co34 1.967 . S
O59 C67 1.258 . S
O60 Co35 1.941 . S
O60 C67 1.266 . S
H61 C63 0.959 . S
H62 C63 0.961 . S
C63 C53 1.510 . S
C63 H61 0.959 . S
C63 H62 0.961 . S
C63 H64 0.960 . S
H64 C63 0.960 . S
H65 N45 0.862 . S
O66 Co34 1.920 . S
O66 C39 1.289 . S
C67 O59 1.258 . S
C67 O60 1.266 . S
Co68 O71 1.970 . S
Co68 N85 1.989 . S
Co68 O93 1.967 . S
Co68 O100 1.920 . S
Co69 O72 1.966 . S
Co69 N78 2.022 . S
Co69 N86 1.993 . S
Co69 O94 1.941 . S
C70 O71 1.258 . S
C70 O72 1.263 . S
O71 Co68 1.970 . S
O71 C70 1.258 . S
O72 Co69 1.966 . S
O72 C70 1.263 . S
C73 O74 1.235 1_655 S
C73 O100 1.289 . S
O74 C73 1.235 1_455 S
C75 C77 1.400 . S
C75 N78 1.351 . S
C75 C80 1.501 . S
C76 C77 1.387 . S
C76 N79 1.341 . S
C77 C75 1.400 . S
C77 C76 1.387 . S
N78 Co69 2.022 . S
N78 C75 1.351 . S
N78 N79 1.365 . S
N79 C76 1.341 . S
N79 N78 1.365 . S
N79 H99 0.862 . S
C80 C75 1.501 . S
C80 H81 0.961 . S
C80 H82 0.961 . S
C80 H83 0.960 . S
H81 C80 0.961 . S
H82 C80 0.961 . S
H83 C80 0.960 . S
C84 N85 1.342 . S
C84 C88 1.401 . S
C84 C89 1.499 1_655 S
N85 Co68 1.989 . S
N85 C84 1.342 . S
N85 N86 1.388 . S
N86 Co69 1.993 . S
N86 N85 1.388 . S
N86 C87 1.346 . S
C87 N86 1.346 . S
C87 C88 1.396 . S
C87 C97 1.510 . S
C88 C84 1.401 . S
C88 C87 1.396 . S
C89 C84 1.499 1_455 S
C89 H90 0.959 . S
C89 H91 0.960 . S
C89 H92 0.961 . S
H90 C89 0.959 . S
H91 C89 0.960 . S
H92 C89 0.961 . S
O93 Co68 1.967 . S
O93 C101 1.258 . S
O94 Co69 1.941 . S
O94 C101 1.266 . S
H95 C97 0.959 . S
H96 C97 0.961 . S
C97 C87 1.510 . S
C97 H95 0.959 . S
C97 H96 0.961 . S
C97 H98 0.960 . S
H98 C97 0.960 . S
H99 N79 0.862 . S
O100 Co68 1.920 . S
O100 C73 1.289 . S
C101 O93 1.258 . S
C101 O94 1.266 . S
Co102 O105 1.970 . S
Co102 N119 1.989 . S
Co102 O127 1.967 . S
Co102 O134 1.920 . S
Co103 O106 1.966 . S
Co103 N112 2.022 . S
Co103 N120 1.993 . S
Co103 O128 1.941 . S
C104 O105 1.258 . S
C104 O106 1.263 . S
O105 Co102 1.970 . S
O105 C104 1.258 . S
O106 Co103 1.966 . S
O106 C104 1.263 . S
C107 O108 1.235 . S
C107 O134 1.289 . S
O108 C107 1.235 . S
C109 C111 1.400 . S
C109 N112 1.351 . S
C109 C114 1.501 . S
C110 C111 1.387 . S
C110 N113 1.341 . S
C111 C109 1.400 . S
C111 C110 1.387 . S
N112 Co103 2.022 . S
N112 C109 1.351 . S
N112 N113 1.365 . S
N113 C110 1.341 . S
N113 N112 1.365 . S
N113 H133 0.862 . S
C114 C109 1.501 . S
C114 H115 0.961 . S
C114 H116 0.961 . S
C114 H117 0.960 . S
H115 C114 0.961 . S
H116 C114 0.961 . S
H117 C114 0.960 . S
C118 N119 1.342 . S
C118 C122 1.401 . S
C118 C123 1.499 . S
N119 Co102 1.989 . S
N119 C118 1.342 . S
N119 N120 1.388 . S
N120 Co103 1.993 . S
N120 N119 1.388 . S
N120 C121 1.346 . S
C121 N120 1.346 . S
C121 C122 1.396 . S
C121 C131 1.510 . S
C122 C118 1.401 . S
C122 C121 1.396 . S
C123 C118 1.499 . S
C123 H124 0.959 . S
C123 H125 0.960 . S
C123 H126 0.961 . S
H124 C123 0.959 . S
H125 C123 0.960 . S
H126 C123 0.961 . S
O127 Co102 1.967 . S
O127 C135 1.258 . S
O128 Co103 1.941 . S
O128 C135 1.266 . S
H129 C131 0.959 . S
H130 C131 0.961 . S
C131 C121 1.510 . S
C131 H129 0.959 . S
C131 H130 0.961 . S
C131 H132 0.960 . S
H132 C131 0.960 . S
H133 N113 0.862 . S
O134 Co102 1.920 . S
O134 C107 1.289 . S
C135 O127 1.258 . S
C135 O128 1.266 . S
Co136 O139 1.970 . S
Co136 N153 1.989 . S
Co136 O161 1.967 . S
Co136 O168 1.920 . S
Co137 O140 1.966 . S
Co137 N146 2.022 . S
Co137 N154 1.993 . S
Co137 O162 1.941 . S
C138 O139 1.258 . S
C138 O140 1.263 . S
O139 Co136 1.970 . S
O139 C138 1.258 . S
O140 Co137 1.966 . S
O140 C138 1.263 . S
C141 O142 1.235 1_565 S
C141 O168 1.289 . S
O142 C141 1.235 1_545 S
C143 C145 1.400 . S
C143 N146 1.351 . S
C143 C148 1.501 . S
C144 C145 1.387 . S
C144 N147 1.341 . S
C145 C143 1.400 . S
C145 C144 1.387 . S
N146 Co137 2.022 . S
N146 C143 1.351 . S
N146 N147 1.365 . S
N147 C144 1.341 . S
N147 N146 1.365 . S
N147 H167 0.862 . S
C148 C143 1.501 . S
C148 H149 0.961 . S
C148 H150 0.961 . S
C148 H151 0.960 . S
H149 C148 0.961 . S
H150 C148 0.961 . S
H151 C148 0.960 . S
C152 N153 1.342 . S
C152 C156 1.401 . S
C152 C157 1.499 1_565 S
N153 Co136 1.989 . S
N153 C152 1.342 . S
N153 N154 1.388 . S
N154 Co137 1.993 . S
N154 N153 1.388 . S
N154 C155 1.346 . S
C155 N154 1.346 . S
C155 C156 1.396 . S
C155 C165 1.510 . S
C156 C152 1.401 . S
C156 C155 1.396 . S
C157 C152 1.499 1_545 S
C157 H158 0.959 . S
C157 H159 0.960 . S
C157 H160 0.961 . S
H158 C157 0.959 . S
H159 C157 0.960 . S
H160 C157 0.961 . S
O161 Co136 1.967 . S
O161 C169 1.258 . S
O162 Co137 1.941 . S
O162 C169 1.266 . S
H163 C165 0.959 . S
H164 C165 0.961 . S
C165 C155 1.510 . S
C165 H163 0.959 . S
C165 H164 0.961 . S
C165 H166 0.960 . S
H166 C165 0.960 . S
H167 N147 0.862 . S
O168 Co136 1.920 . S
O168 C141 1.289 . S
C169 O161 1.258 . S
C169 O162 1.266 . S
Co170 O173 1.970 . S
Co170 N187 1.989 . S
Co170 O195 1.967 . S
Co170 O202 1.920 . S
Co171 O174 1.966 . S
Co171 N180 2.022 . S
Co171 N188 1.993 . S
Co171 O196 1.941 . S
C172 O173 1.258 . S
C172 O174 1.263 . S
O173 Co170 1.970 . S
O173 C172 1.258 . S
O174 Co171 1.966 . S
O174 C172 1.263 . S
C175 O176 1.235 1_455 S
C175 O202 1.289 . S
O176 C175 1.235 1_655 S
C177 C179 1.400 . S
C177 N180 1.351 . S
C177 C182 1.501 . S
C178 C179 1.387 . S
C178 N181 1.341 . S
C179 C177 1.400 . S
C179 C178 1.387 . S
N180 Co171 2.022 . S
N180 C177 1.351 . S
N180 N181 1.365 . S
N181 C178 1.341 . S
N181 N180 1.365 . S
N181 H201 0.862 . S
C182 C177 1.501 . S
C182 H183 0.961 . S
C182 H184 0.961 . S
C182 H185 0.960 . S
H183 C182 0.961 . S
H184 C182 0.961 . S
H185 C182 0.960 . S
C186 N187 1.342 . S
C186 C190 1.401 . S
C186 C191 1.499 1_455 S
N187 Co170 1.989 . S
N187 C186 1.342 . S
N187 N188 1.388 . S
N188 Co171 1.993 . S
N188 N187 1.388 . S
N188 C189 1.346 . S
C189 N188 1.346 . S
C189 C190 1.396 . S
C189 C199 1.510 . S
C190 C186 1.401 . S
C190 C189 1.396 . S
C191 C186 1.499 1_655 S
C191 H192 0.959 . S
C191 H193 0.960 . S
C191 H194 0.961 . S
H192 C191 0.959 . S
H193 C191 0.960 . S
H194 C191 0.961 . S
O195 Co170 1.967 . S
O195 C203 1.258 . S
O196 Co171 1.941 . S
O196 C203 1.266 . S
H197 C199 0.959 . S
H198 C199 0.961 . S
C199 C189 1.510 . S
C199 H197 0.959 . S
C199 H198 0.961 . S
C199 H200 0.960 . S
H200 C199 0.960 . S
H201 N181 0.862 . S
O202 Co170 1.920 . S
O202 C175 1.289 . S
C203 O195 1.258 . S
C203 O196 1.266 . S
H204 C210 0.930 . S
H205 C214 0.930 . S
H206 C219 0.929 . S
H207 C217 0.929 . S
H208 C212 0.929 1_545 S
H209 C218 0.929 1_565 S
C210 H204 0.930 . S
C210 C211 1.367 . S
C210 C218 1.378 . S
C211 C210 1.367 . S
C211 C219 1.433 . S
C212 H208 0.929 1_565 S
C212 C214 1.378 . S
C212 C216 1.350 . S
C213 C216 1.463 1_545 S
C213 C218 1.350 . S
C213 N221 1.427 . S
C214 H205 0.930 . S
C214 C212 1.378 . S
C214 C215 1.367 . S
C215 C214 1.367 . S
C215 C217 1.433 . S
C216 C212 1.350 . S
C216 C213 1.463 1_565 S
C216 N220 1.427 . S
C217 H207 0.929 . S
C217 C215 1.433 . S
C217 N220 1.384 . S
C218 H209 0.929 1_545 S
C218 C210 1.378 . S
C218 C213 1.350 . S
C219 H206 0.929 . S
C219 C211 1.433 . S
C219 N221 1.384 . S
N220 C216 1.427 . S
N220 C217 1.384 . S
N221 C213 1.427 . S
N221 C219 1.384 . S
H222 C228 0.930 . S
H223 C232 0.930 . S
H224 C237 0.929 . S
H225 C235 0.929 . S
H226 C230 0.929 . S
H227 C236 0.929 . S
C228 H222 0.930 . S
C228 C229 1.367 . S
C228 C236 1.378 . S
C229 C228 1.367 . S
C229 C237 1.433 . S
C230 H226 0.929 . S
C230 C232 1.378 . S
C230 C234 1.350 . S
C231 C234 1.463 1_455 S
C231 C236 1.350 . S
C231 N239 1.427 . S
C232 H223 0.930 . S
C232 C230 1.378 . S
C232 C233 1.367 . S
C233 C232 1.367 . S
C233 C235 1.433 . S
C234 C230 1.350 . S
C234 C231 1.463 1_655 S
C234 N238 1.427 . S
C235 H225 0.929 . S
C235 C233 1.433 . S
C235 N238 1.384 . S
C236 H227 0.929 . S
C236 C228 1.378 . S
C236 C231 1.350 . S
C237 H224 0.929 . S
C237 C229 1.433 . S
C237 N239 1.384 . S
N238 C234 1.427 . S
N238 C235 1.384 . S
N239 C231 1.427 . S
N239 C237 1.384 . S
H240 C246 0.930 . S
H241 C250 0.930 . S
H242 C255 0.929 . S
H243 C253 0.929 . S
H244 C248 0.929 . S
H245 C254 0.929 . S
C246 H240 0.930 . S
C246 C247 1.367 . S
C246 C254 1.378 . S
C247 C246 1.367 . S
C247 C255 1.433 . S
C248 H244 0.929 . S
C248 C250 1.378 . S
C248 C252 1.350 . S
C249 C252 1.463 . S
C249 C254 1.350 . S
C249 N257 1.427 . S
C250 H241 0.930 . S
C250 C248 1.378 . S
C250 C251 1.367 . S
C251 C250 1.367 . S
C251 C253 1.433 . S
C252 C248 1.350 . S
C252 C249 1.463 . S
C252 N256 1.427 . S
C253 H243 0.929 . S
C253 C251 1.433 . S
C253 N256 1.384 . S
C254 H245 0.929 . S
C254 C246 1.378 . S
C254 C249 1.350 . S
C255 H242 0.929 . S
C255 C247 1.433 . S
C255 N257 1.384 . S
N256 C252 1.427 . S
N256 C253 1.384 . S
N257 C249 1.427 . S
N257 C255 1.384 . S
H258 C264 0.930 . S
H259 C268 0.930 . S
H260 C273 0.929 . S
H261 C271 0.929 . S
H262 C266 0.929 . S
H263 C272 0.929 . S
C264 H258 0.930 . S
C264 C265 1.367 . S
C264 C272 1.378 . S
C265 C264 1.367 . S
C265 C273 1.433 . S
C266 H262 0.929 . S
C266 C268 1.378 . S
C266 C270 1.350 . S
C267 C270 1.463 . S
C267 C272 1.350 . S
C267 N275 1.427 . S
C268 H259 0.930 . S
C268 C266 1.378 . S
C268 C269 1.367 . S
C269 C268 1.367 . S
C269 C271 1.433 . S
C270 C266 1.350 . S
C270 C267 1.463 . S
C270 N274 1.427 . S
C271 H261 0.929 . S
C271 C269 1.433 . S
C271 N274 1.384 . S
C272 H263 0.929 . S
C272 C264 1.378 . S
C272 C267 1.350 . S
C273 H260 0.929 . S
C273 C265 1.433 . S
C273 N275 1.384 . S
N274 C270 1.427 . S
N274 C271 1.384 . S
N275 C267 1.427 . S
N275 C273 1.384 . S
H276 C282 0.930 . S
H277 C286 0.930 . S
H278 C291 0.929 . S
H279 C289 0.929 . S
H280 C284 0.929 . S
H281 C290 0.929 . S
C282 H276 0.930 . S
C282 C283 1.367 . S
C282 C290 1.378 . S
C283 C282 1.367 . S
C283 C291 1.433 . S
C284 H280 0.929 . S
C284 C286 1.378 . S
C284 C288 1.350 . S
C285 C288 1.463 . S
C285 C290 1.350 . S
C285 N293 1.427 . S
C286 H277 0.930 . S
C286 C284 1.378 . S
C286 C287 1.367 . S
C287 C286 1.367 . S
C287 C289 1.433 . S
C288 C284 1.350 . S
C288 C285 1.463 . S
C288 N292 1.427 . S
C289 H279 0.929 . S
C289 C287 1.433 . S
C289 N292 1.384 . S
C290 H281 0.929 . S
C290 C282 1.378 . S
C290 C285 1.350 . S
C291 H278 0.929 . S
C291 C283 1.433 . S
C291 N293 1.384 . S
N292 C288 1.427 . S
N292 C289 1.384 . S
N293 C285 1.427 . S
N293 C291 1.384 . S
H294 C300 0.930 . S
H295 C304 0.930 . S
H296 C309 0.929 . S
H297 C307 0.929 . S
H298 C302 0.929 . S
H299 C308 0.929 . S
C300 H294 0.930 . S
C300 C301 1.367 . S
C300 C308 1.378 . S
C301 C300 1.367 . S
C301 C309 1.433 . S
C302 H298 0.929 . S
C302 C304 1.378 . S
C302 C306 1.350 . S
C303 C306 1.463 . S
C303 C308 1.350 . S
C303 N311 1.427 . S
C304 H295 0.930 . S
C304 C302 1.378 . S
C304 C305 1.367 . S
C305 C304 1.367 . S
C305 C307 1.433 . S
C306 C302 1.350 . S
C306 C303 1.463 . S
C306 N310 1.427 . S
C307 H297 0.929 . S
C307 C305 1.433 . S
C307 N310 1.384 . S
C308 H299 0.929 . S
C308 C300 1.378 . S
C308 C303 1.350 . S
C309 H296 0.929 . S
C309 C301 1.433 . S
C309 N311 1.384 . S
N310 C306 1.427 . S
N310 C307 1.384 . S
N311 C303 1.427 . S
N311 C309 1.384 . S
H312 C318 0.930 . S
H313 C322 0.930 . S
H314 C327 0.929 . S
H315 C325 0.929 . S
H316 C320 0.929 . S
H317 C326 0.929 . S
C318 H312 0.930 . S
C318 C319 1.367 . S
C318 C326 1.378 . S
C319 C318 1.367 . S
C319 C327 1.433 . S
C320 H316 0.929 . S
C320 C322 1.378 . S
C320 C324 1.350 . S
C321 C324 1.463 . S
C321 C326 1.350 . S
C321 N329 1.427 . S
C322 H313 0.930 . S
C322 C320 1.378 . S
C322 C323 1.367 . S
C323 C322 1.367 . S
C323 C325 1.433 . S
C324 C320 1.350 . S
C324 C321 1.463 . S
C324 N328 1.427 . S
C325 H315 0.929 . S
C325 C323 1.433 . S
C325 N328 1.384 . S
C326 H317 0.929 . S
C326 C318 1.378 . S
C326 C321 1.350 . S
C327 H314 0.929 . S
C327 C319 1.433 . S
C327 N329 1.384 . S
N328 C324 1.427 . S
N328 C325 1.384 . S
N329 C321 1.427 . S
N329 C327 1.384 . S
H330 C336 0.930 . S
H331 C340 0.930 . S
H332 C345 0.929 . S
H333 C343 0.929 . S
H334 C338 0.929 . S
H335 C344 0.929 . S
C336 H330 0.930 . S
C336 C337 1.367 . S
C336 C344 1.378 . S
C337 C336 1.367 . S
C337 C345 1.433 . S
C338 H334 0.929 . S
C338 C340 1.378 . S
C338 C342 1.350 . S
C339 C342 1.463 . S
C339 C344 1.350 . S
C339 N347 1.427 . S
C340 H331 0.930 . S
C340 C338 1.378 . S
C340 C341 1.367 . S
C341 C340 1.367 . S
C341 C343 1.433 . S
C342 C338 1.350 . S
C342 C339 1.463 . S
C342 N346 1.427 . S
C343 H333 0.929 . S
C343 C341 1.433 . S
C343 N346 1.384 . S
C344 H335 0.929 . S
C344 C336 1.378 . S
C344 C339 1.350 . S
C345 H332 0.929 . S
C345 C337 1.433 . S
C345 N347 1.384 . S
N346 C342 1.427 . S
N346 C343 1.384 . S
N347 C339 1.427 . S
N347 C345 1.384 . S
H348 C354 0.930 . S
H349 C358 0.930 . S
H350 C363 0.929 . S
H351 C361 0.929 . S
H352 C356 0.929 . S
H353 C362 0.929 . S
C354 H348 0.930 . S
C354 C355 1.367 . S
C354 C362 1.378 . S
C355 C354 1.367 . S
C355 C363 1.433 . S
C356 H352 0.929 . S
C356 C358 1.378 . S
C356 C360 1.350 . S
C357 C360 1.463 . S
C357 C362 1.350 . S
C357 N365 1.427 . S
C358 H349 0.930 . S
C358 C356 1.378 . S
C358 C359 1.367 . S
C359 C358 1.367 . S
C359 C361 1.433 . S
C360 C356 1.350 . S
C360 C357 1.463 . S
C360 N364 1.427 . S
C361 H351 0.929 . S
C361 C359 1.433 . S
C361 N364 1.384 . S
C362 H353 0.929 . S
C362 C354 1.378 . S
C362 C357 1.350 . S
C363 H350 0.929 . S
C363 C355 1.433 . S
C363 N365 1.384 . S
N364 C360 1.427 . S
N364 C361 1.384 . S
N365 C357 1.427 . S
N365 C363 1.384 . S
H366 C372 0.930 . S
H367 C376 0.930 . S
H368 C381 0.929 . S
H369 C379 0.929 . S
H370 C374 0.929 . S
H371 C380 0.929 . S
C372 H366 0.930 . S
C372 C373 1.367 . S
C372 C380 1.378 . S
C373 C372 1.367 . S
C373 C381 1.433 1_565 S
C374 H370 0.929 . S
C374 C376 1.378 . S
C374 C378 1.350 . S
C375 C378 1.463 . S
C375 C380 1.350 1_545 S
C375 N383 1.427 . S
C376 H367 0.930 . S
C376 C374 1.378 . S
C376 C377 1.367 . S
C377 C376 1.367 . S
C377 C379 1.433 . S
C378 C374 1.350 . S
C378 C375 1.463 . S
C378 N382 1.427 . S
C379 H369 0.929 . S
C379 C377 1.433 . S
C379 N382 1.384 . S
C380 H371 0.929 . S
C380 C372 1.378 . S
C380 C375 1.350 1_565 S
C381 H368 0.929 . S
C381 C373 1.433 1_545 S
C381 N383 1.384 . S
N382 C378 1.427 . S
N382 C379 1.384 . S
N383 C375 1.427 . S
N383 C381 1.384 . S
H384 C390 0.930 . S
H385 C394 0.930 . S
H386 C399 0.929 . S
H387 C397 0.929 . S
H388 C392 0.957 . S
H389 C398 0.929 . S
C390 H384 0.930 . S
C390 C391 1.367 . S
C390 C398 1.378 1_556 S
C391 C390 1.367 . S
C391 C399 1.433 . S
C392 H388 0.957 . S
C392 C394 1.378 . S
C392 C396 1.350 1_455 S
C393 C396 1.433 1_556 S
C393 C398 1.345 1_556 S
C393 N401 1.463 . S
C394 H385 0.930 . S
C394 C392 1.378 . S
C394 C395 1.367 . S
C395 C394 1.367 . S
C395 C397 1.433 1_455 S
C396 C392 1.350 1_655 S
C396 C393 1.433 1_554 S
C396 N400 1.427 . S
C397 H387 0.929 . S
C397 C395 1.433 1_655 S
C397 N400 1.384 . S
C398 H389 0.929 . S
C398 C390 1.378 1_554 S
C398 C393 1.345 1_554 S
C399 H386 0.929 . S
C399 C391 1.433 . S
C399 N401 1.384 . S
N400 C396 1.427 . S
N400 C397 1.384 . S
N401 C393 1.463 . S
N401 C399 1.384 . S
H402 C408 0.930 . S
H403 C412 0.930 . S
H404 C417 0.929 . S
H405 C415 0.929 . S
H406 C410 0.929 . S
H407 C416 0.929 . S
C408 H402 0.930 . S
C408 C409 1.367 . S
C408 C416 1.378 . S
C409 C408 1.367 . S
C409 C417 1.433 . S
C410 H406 0.929 . S
C410 C412 1.378 . S
C410 C414 1.350 . S
C411 C414 1.463 . S
C411 C416 1.350 . S
C411 N419 1.427 . S
C412 H403 0.930 . S
C412 C410 1.378 . S
C412 C413 1.367 . S
C413 C412 1.367 . S
C413 C415 1.433 . S
C414 C410 1.350 . S
C414 C411 1.463 . S
C414 N418 1.427 . S
C415 H405 0.929 . S
C415 C413 1.433 . S
C415 N418 1.384 . S
C416 H407 0.929 . S
C416 C408 1.378 . S
C416 C411 1.350 . S
C417 H404 0.929 . S
C417 C409 1.433 . S
C417 N419 1.384 . S
N418 C414 1.427 . S
N418 C415 1.384 . S
N419 C411 1.427 . S
N419 C417 1.384 . S
H420 C426 0.930 . S
H421 C430 0.930 . S
H422 C435 0.929 . S
H423 C433 0.929 . S
H424 C428 0.929 . S
H425 C434 0.929 . S
C426 H420 0.930 . S
C426 C427 1.367 . S
C426 C434 1.378 . S
C427 C426 1.367 . S
C427 C435 1.433 . S
C428 H424 0.929 . S
C428 C430 1.378 . S
C428 C432 1.350 1_655 S
C429 C432 1.463 . S
C429 C434 1.350 . S
C429 N437 1.427 . S
C430 H421 0.930 . S
C430 C428 1.378 . S
C430 C431 1.367 . S
C431 C430 1.367 . S
C431 C433 1.433 1_655 S
C432 C428 1.350 1_455 S
C432 C429 1.463 . S
C432 N436 1.427 . S
C433 H423 0.929 . S
C433 C431 1.433 1_455 S
C433 N436 1.384 . S
C434 H425 0.929 . S
C434 C426 1.378 . S
C434 C429 1.350 . S
C435 H422 0.929 . S
C435 C427 1.433 . S
C435 N437 1.384 . S
N436 C432 1.427 . S
N436 C433 1.384 . S
N437 C429 1.427 . S
N437 C435 1.384 . S
H438 C444 0.930 . S
H439 C448 0.930 . S
H440 C453 0.929 . S
H441 C451 0.929 . S
H442 C446 0.929 . S
H443 C452 0.929 . S
C444 H438 0.930 . S
C444 C445 1.367 . S
C444 C452 1.378 . S
C445 C444 1.367 . S
C445 C453 1.433 . S
C446 H442 0.929 . S
C446 C448 1.378 . S
C446 C450 1.350 . S
C447 C450 1.463 . S
C447 C452 1.350 . S
C447 N455 1.427 . S
C448 H439 0.930 . S
C448 C446 1.378 . S
C448 C449 1.367 . S
C449 C448 1.367 . S
C449 C451 1.433 . S
C450 C446 1.350 . S
C450 C447 1.463 . S
C450 N454 1.427 . S
C451 H441 0.929 . S
C451 C449 1.433 . S
C451 N454 1.384 . S
C452 H443 0.929 . S
C452 C444 1.378 . S
C452 C447 1.350 . S
C453 H440 0.929 . S
C453 C445 1.433 . S
C453 N455 1.384 . S
N454 C450 1.427 . S
N454 C451 1.384 . S
N455 C447 1.427 . S
N455 C453 1.384 . S
H456 C462 0.930 . S
H457 C466 0.930 . S
H458 C471 0.929 . S
H459 C469 0.929 . S
H460 C464 0.929 1_545 S
H461 C470 0.929 . S
C462 H456 0.930 . S
C462 C463 1.367 1_565 S
C462 C470 1.378 . S
C463 C462 1.367 1_545 S
C463 C471 1.433 . S
C464 H460 0.929 1_565 S
C464 C466 1.378 . S
C464 C468 1.350 . S
C465 C468 1.463 1_556 S
C465 C470 1.350 . S
C465 N473 1.427 1_565 S
C466 H457 0.930 . S
C466 C464 1.378 . S
C466 C467 1.367 . S
C467 C466 1.367 . S
C467 C469 1.433 . S
C468 C464 1.350 . S
C468 C465 1.463 1_554 S
C468 N472 1.427 . S
C469 H459 0.929 . S
C469 C467 1.433 . S
C469 N472 1.384 . S
C470 H461 0.929 . S
C470 C462 1.378 . S
C470 C465 1.350 . S
C471 H458 0.929 . S
C471 C463 1.433 . S
C471 N473 1.384 . S
N472 C468 1.427 . S
N472 C469 1.384 . S
N473 C465 1.427 1_545 S
N473 C471 1.384 . S
C211 C2 1.962 . S
C215 C172 1.961 . S
C229 C104 1.959 . S
C233 C36 1.959 . S
C247 C138 1.960 . S
C251 C70 1.959 . S
C265 C203 1.514 . S
C269 C5 1.499 . S
C283 C135 1.513 . S
C287 C39 1.503 1_565 S
C301 C73 1.500 1_455 S
C305 C169 1.514 . S
C319 C67 1.513 . S
C323 C107 1.503 . S
C337 C101 1.513 . S
C341 C141 1.497 1_545 S
C355 C175 1.502 1_655 S
C359 C33 1.514 . S
C373 C156 1.303 . S
C377 C9 1.260 . S
C391 C43 1.264 . S
C395 C190 1.303 . S
C409 C122 1.303 . S
C413 C77 1.264 . S
C427 C111 1.258 . S
C431 C88 1.303 . S
C445 C20 1.303 . S
C449 C145 1.261 . S
C463 C54 1.304 . S
C467 C179 1.273 . S
