# Generated by pormake.
# Topology qtz-x, (6)-cn, num edge types: 1
# Building blocks:
#     Node 0, Type 0, BuildingBlock: KUMJIN_clean_sbu_0, # of connection points: 6
#     Node 1, Type 0, BuildingBlock: KUMJIN_clean_sbu_0, # of connection points: 6
#     Node 2, Type 0, BuildingBlock: KUMJIN_clean_sbu_0, # of connection points: 6
#     Edge 3, Type (0, 0), BuildingBlock: KIFKEQ_clean_linker_1, # of connection points: 2
#     Edge 4, Type (0, 0), BuildingBlock: KIFKEQ_clean_linker_1, # of connection points: 2
#     Edge 5, Type (0, 0), BuildingBlock: KIFKEQ_clean_linker_1, # of connection points: 2
#     Edge 6, Type (0, 0), BuildingBlock: KIFKEQ_clean_linker_1, # of connection points: 2
#     Edge 7, Type (0, 0), BuildingBlock: KIFKEQ_clean_linker_1, # of connection points: 2
#     Edge 8, Type (0, 0), BuildingBlock: KIFKEQ_clean_linker_1, # of connection points: 2
#     Edge 9, Type (0, 0), BuildingBlock: KIFKEQ_clean_linker_1, # of connection points: 2
#     Edge 10, Type (0, 0), BuildingBlock: KIFKEQ_clean_linker_1, # of connection points: 2
#     Edge 11, Type (0, 0), BuildingBlock: KIFKEQ_clean_linker_1, # of connection points: 2
# Relax obj value: 0.165
# Max RMSD: 0.279
# Mean RMSD: 0.279
data_MOF--net-qtz-x--node1-KUMJIN_clean_sbu_0--edge1-KIFKEQ_clean_linker_1
_symmetry_space_group_name_H-M    P1
_symmetry_Int_Tables_number       1
_symmetry_cell_setting            triclinic
loop_
_symmetry_equiv_pos_as_xyz
'x, y, z'
_cell_length_a     15.474394
_cell_length_b     15.470444
_cell_length_c     51.386234
_cell_angle_alpha  89.950971
_cell_angle_beta   90.008769
_cell_angle_gamma 120.00936
loop_
_atom_site_label
_atom_site_type_symbol
_atom_site_fract_x
_atom_site_fract_y
_atom_site_fract_z
_atom_type_partial_charge
Eu0 Eu 0.25332 0.50198 0.20367 0.0
C1 C 0.80936 0.3809 0.16503 0.0
C2 C 0.69827 0.24357 0.19289 0.0
C3 C 0.63458 0.33453 0.16859 0.0
C4 C 0.79387 0.30559 0.18212 0.0
C5 C 0.7297 0.39588 0.15791 0.0
C6 C 0.61907 0.2591 0.18623 0.0
C7 C 0.842 0.52615 0.1287 0.0
N8 N 0.90114 0.43638 0.15434 0.0
C9 C 0.91793 0.507 0.13595 0.0
C10 C 0.74737 0.4703 0.13972 0.0
Eu11 Eu 0.02261 0.39117 0.16445 0.0
N12 N 0.87075 0.28945 0.18711 0.0
C13 C 0.85537 0.20939 0.20183 0.0
C14 C 0.68413 0.1653 0.20926 0.0
C15 C 0.76301 0.14783 0.21362 0.0
H16 H -0.00989 0.54927 0.12685 0.0
H17 H 0.75238 0.08601 0.22574 0.0
H18 H 0.54508 0.21191 0.19419 0.0
H19 H 0.85621 0.58308 0.11438 0.0
H20 H 0.91439 0.19292 0.20493 0.0
H21 H 0.51682 0.8259 0.1465 0.0
H22 H 0.61206 0.11636 0.21801 0.0
H23 H 0.29054 0.33629 0.23573 0.0
H24 H 0.35962 0.71702 0.16943 0.0
H25 H 0.42468 0.29579 0.24238 0.0
H26 H 0.57227 0.3442 0.16315 0.0
H27 H 0.65144 0.78403 0.14596 0.0
H28 H 0.71731 0.67531 0.1623 0.0
H29 H 0.6882 0.4842 0.13378 0.0
H30 H 0.69445 0.53525 0.18971 0.0
N31 N 0.40052 0.60922 0.18012 0.0
C32 C 0.41644 0.69616 0.16893 0.0
C33 C 0.58144 0.73444 0.15558 0.0
C34 C 0.5676 0.64916 0.1687 0.0
C35 C 0.50585 0.75857 0.15594 0.0
C36 C 0.47472 0.58659 0.18076 0.0
H37 H 0.58598 0.39367 0.21963 0.0
N38 N 0.3728 0.45051 0.20802 0.0
C39 C 0.43563 0.35453 0.22902 0.0
C40 C 0.46098 0.50566 0.19549 0.0
C41 C 0.35985 0.37731 0.22514 0.0
C42 C 0.52637 0.40957 0.216 0.0
C43 C 0.54032 0.48665 0.19914 0.0
O44 O 0.26957 0.5079 0.24599 0.0
O45 O 0.08762 0.43284 0.20436 0.0
O46 O 0.03745 0.53298 0.18108 0.0
O47 O 0.20643 0.61611 0.19307 0.0
O48 O 0.14923 0.38086 0.23147 0.0
O49 O 0.3316 0.64526 0.22392 0.0
O50 O 0.01667 0.375 0.12212 0.0
O51 O 0.18912 0.46516 0.16381 0.0
O52 O 0.23606 0.36209 0.18507 0.0
O53 O 0.06377 0.27719 0.17894 0.0
O54 O 0.12415 0.51585 0.13736 0.0
O55 O 0.9556 0.24354 0.14652 0.0
C56 C 0.06749 0.37563 0.22371 0.0
C57 C 0.41786 0.643 0.26196 0.0
C58 C 0.5005 0.6731 0.30424 0.0
C59 C 0.41366 0.64306 0.28932 0.0
C60 C 0.59146 0.70313 0.29137 0.0
C61 C 0.50983 0.6749 0.24959 0.0
C62 C 0.59592 0.70432 0.26425 0.0
C63 C 0.1213 0.61436 0.18802 0.0
C64 C 0.32526 0.60465 0.24666 0.0
C65 C 0.63222 0.54775 0.18682 0.0
C66 C 0.64538 0.62789 0.17132 0.0
C67 C 0.2074 0.52534 0.14524 0.0
C68 C 0.88111 0.22754 0.10471 0.0
C69 C 0.89169 0.26119 0.07881 0.0
C70 C 0.81368 0.21181 0.06072 0.0
C71 C 0.72464 0.12755 0.06884 0.0
C72 C 0.79094 0.1437 0.11245 0.0
C73 C 0.71342 0.09417 0.09456 0.0
C74 C 0.14997 0.27916 0.18136 0.0
C75 C 0.96652 0.27792 0.12283 0.0
H76 H 0.34277 0.61845 0.29896 0.0
H77 H 0.65973 0.7279 0.3023 0.0
H78 H 0.51532 0.677 0.22864 0.0
H79 H 0.66648 0.72851 0.25455 0.0
H80 H 0.96138 0.32516 0.0726 0.0
H81 H 0.66304 0.08859 0.05541 0.0
H82 H 0.78039 0.11585 0.13222 0.0
H83 H 0.64426 0.02959 0.10067 0.0
Eu84 Eu 0.61815 0.91543 0.53569 0.0
C85 C 0.94182 0.35975 0.49717 0.0
C86 C 0.91367 0.47125 0.52425 0.0
C87 C 0.06969 0.53482 0.50061 0.0
C88 C 0.88099 0.37539 0.51379 0.0
C89 C 0.0367 0.43945 0.49021 0.0
C90 C 0.00867 0.55053 0.51778 0.0
C91 C 0.05666 0.32655 0.46177 0.0
N92 N 0.90629 0.2677 0.48675 0.0
C93 C 0.96134 0.25056 0.46885 0.0
C94 C 0.09452 0.42155 0.47247 0.0
Eu95 Eu 0.73908 0.146 0.49637 0.0
N96 N 0.78787 0.29832 0.51862 0.0
C97 C 0.72222 0.3138 0.53282 0.0
C98 C 0.84844 0.48554 0.5401 0.0
C99 C 0.75199 0.40648 0.54426 0.0
H100 H 0.93217 0.17803 0.46002 0.0
H101 H 0.69994 0.41719 0.55596 0.0
H102 H 0.03484 0.6247 0.52552 0.0
H103 H 0.10029 0.31209 0.44782 0.0
H104 H 0.64669 0.25464 0.53572 0.0
H105 H 0.67902 0.65085 0.47928 0.0
H106 H 0.8708 0.55783 0.54858 0.0
H107 H 0.41468 0.87867 0.56737 0.0
H108 H 0.72709 0.80857 0.50183 0.0
H109 H 0.24 0.74469 0.57398 0.0
H110 H 0.14187 0.59715 0.4953 0.0
H111 H 0.50265 0.51587 0.47889 0.0
H112 H 0.32797 0.45009 0.49513 0.0
H113 H 0.16777 0.48076 0.46665 0.0
H114 H 0.21046 0.47351 0.5222 0.0
N115 N 0.57836 0.7676 0.51248 0.0
C116 C 0.64945 0.75161 0.50141 0.0
C117 C 0.52293 0.58608 0.48835 0.0
C118 C 0.45142 0.60007 0.50133 0.0
C119 C 0.62259 0.66189 0.48863 0.0
C120 C 0.48159 0.69323 0.51318 0.0
H121 H 0.17687 0.58278 0.55161 0.0
N122 N 0.44716 0.79574 0.54004 0.0
C123 C 0.288 0.73339 0.5608 0.0
C124 C 0.41427 0.70724 0.52773 0.0
C125 C 0.38663 0.80911 0.55694 0.0
C126 C 0.25248 0.64229 0.54801 0.0
C127 C 0.31586 0.62793 0.53138 0.0
O128 O 0.60839 0.90131 0.57807 0.0
O129 O 0.71458 0.08152 0.53642 0.0
O130 O 0.86512 0.13115 0.51378 0.0
O131 O 0.77904 0.96171 0.52525 0.0
O132 O 0.59843 0.01915 0.56284 0.0
O133 O 0.68286 0.83769 0.5564 0.0
O134 O 0.73682 0.15899 0.45397 0.0
O135 O 0.64697 0.97957 0.4958 0.0
O136 O 0.49568 0.93207 0.51665 0.0
O137 O 0.58297 0.10437 0.51021 0.0
O138 O 0.76242 0.04444 0.46935 0.0
O139 O 0.65271 0.20561 0.47802 0.0
C140 C 0.67525 0.10116 0.55534 0.0
C141 C 0.5951 0.75386 0.59477 0.0
C142 C 0.54392 0.67372 0.63741 0.0
C143 C 0.60072 0.75958 0.62211 0.0
C144 C 0.48174 0.5822 0.62494 0.0
C145 C 0.53371 0.66136 0.58281 0.0
C146 C 0.47714 0.57622 0.59784 0.0
C147 C 0.86259 0.04706 0.52053 0.0
C148 C 0.64923 0.84551 0.57907 0.0
C149 C 0.28522 0.53571 0.5193 0.0
C150 C 0.35237 0.52223 0.50399 0.0
C151 C 0.68885 0.96117 0.47729 0.0
C152 C 0.71507 0.29042 0.43758 0.0
C153 C 0.73669 0.2852 0.4112 0.0
C154 C 0.76161 0.3658 0.39409 0.0
C155 C 0.76416 0.45193 0.40401 0.0
C156 C 0.7199 0.37797 0.44699 0.0
C157 C 0.74416 0.45795 0.43024 0.0
C158 C 0.49873 0.01805 0.51272 0.0
C159 C 0.68307 0.20219 0.45455 0.0
H160 H 0.64797 0.83089 0.63144 0.0
H161 H 0.43818 0.51465 0.63617 0.0
H162 H 0.52917 0.65475 0.56187 0.0
H163 H 0.42976 0.50524 0.58845 0.0
H164 H 0.73476 0.21827 0.40415 0.0
H165 H 0.78062 0.51463 0.39149 0.0
H166 H 0.70397 0.38445 0.46719 0.0
H167 H 0.74665 0.52474 0.43758 0.0
Eu168 Eu 0.6643 0.56226 0.87072 0.0
C169 C 0.78564 0.2397 0.83612 0.0
C170 C 0.92946 0.27524 0.86247 0.0
C171 C 0.83329 0.11298 0.84193 0.0
C172 C 0.86496 0.30517 0.85143 0.0
C173 C 0.76956 0.14321 0.83092 0.0
C174 C 0.91231 0.17839 0.85794 0.0
C175 C 0.63209 0.1154 0.80312 0.0
N176 N 0.72716 0.27202 0.8252 0.0
C177 C 0.65192 0.21214 0.80855 0.0
C178 C 0.69155 0.08094 0.81423 0.0
Eu179 Eu 0.77419 0.44122 0.83171 0.0
N180 N 0.88224 0.39968 0.8544 0.0
C181 C 0.96569 0.46922 0.86718 0.0
C182 C 0.01159 0.34475 0.8769 0.0
C183 C 0.03013 0.4424 0.8791 0.0
H184 H 0.60716 0.23916 0.79937 0.0
H185 H 0.0948 0.49749 0.88969 0.0
H186 H 0.96125 0.15422 0.86616 0.0
H187 H 0.57204 0.06809 0.79003 0.0
H188 H 0.98275 0.54563 0.86864 0.0
H189 H 0.35398 0.52592 0.81177 0.0
H190 H 0.06261 0.32459 0.88577 0.0
H191 H 0.82664 0.75438 0.90695 0.0
H192 H 0.4585 0.46931 0.83347 0.0
H193 H 0.86772 0.9264 0.91734 0.0
H194 H 0.82279 0.03957 0.83795 0.0
H195 H 0.39528 0.70173 0.81585 0.0
H196 H 0.49997 0.86883 0.83678 0.0
H197 H 0.67751 0.00679 0.8095 0.0
H198 H 0.63604 0.97569 0.8666 0.0
N199 N 0.56419 0.61297 0.84766 0.0
C200 C 0.47944 0.54673 0.83479 0.0
C201 C 0.44324 0.67779 0.82481 0.0
C202 C 0.52584 0.74378 0.83968 0.0
C203 C 0.41946 0.5785 0.82255 0.0
C204 C 0.5864 0.70903 0.85078 0.0
H205 H 0.77514 -0.00097 0.8961 0.0
N206 N 0.71682 0.73208 0.87871 0.0
C207 C 0.81062 0.88345 0.90309 0.0
C208 C 0.66436 0.77011 0.86709 0.0
C209 C 0.78745 0.78608 0.89705 0.0
C210 C 0.75842 0.92427 0.89101 0.0
C211 C 0.68321 0.86704 0.87308 0.0
O212 O 0.65073 0.55852 0.91314 0.0
O213 O 0.73507 0.46701 0.87144 0.0
O214 O 0.63431 0.31757 0.85025 0.0
O215 O 0.54911 0.40442 0.85795 0.0
O216 O 0.78712 0.58128 0.89816 0.0
O217 O 0.51773 0.49343 0.88939 0.0
O218 O 0.78345 0.43532 0.78934 0.0
O219 O 0.70135 0.53475 0.83067 0.0
O220 O 0.80453 0.68733 0.85288 0.0
O221 O 0.88825 0.60024 0.84362 0.0
O222 O 0.65007 0.41781 0.80447 0.0
O223 O 0.91832 0.51992 0.81199 0.0
C224 C 0.79415 0.50602 0.8903 0.0
C225 C 0.51601 0.57326 0.92873 0.0
C226 C 0.48829 0.6242 0.97151 0.0
C227 C 0.51777 0.56818 0.95607 0.0
C228 C 0.45685 0.68505 0.95921 0.0
C229 C 0.48256 0.63317 0.91695 0.0
C230 C 0.45367 0.689 0.93214 0.0
C231 C 0.55146 0.32048 0.85467 0.0
C232 C 0.55438 0.52045 0.91278 0.0
C233 C 0.62382 0.90217 0.86188 0.0
C234 C 0.54608 0.84115 0.84497 0.0
C235 C 0.64185 0.49282 0.81195 0.0
C236 C 0.93167 0.4496 0.77184 0.0
C237 C 0.90223 0.42847 0.74563 0.0
C238 C 0.95208 0.39752 0.72837 0.0
C239 C 0.03263 0.38848 0.73765 0.0
C240 C 0.01152 0.43871 0.7808 0.0
C241 C 0.06165 0.40851 0.76373 0.0
C242 C 0.88639 0.68427 0.84707 0.0
C243 C 0.88057 0.48671 0.78897 0.0
H244 H 0.54346 0.52201 0.96528 0.0
H245 H 0.43253 0.72797 0.97057 0.0
H246 H 0.47893 0.63723 0.89603 0.0
H247 H 0.4284 0.7353 0.92287 0.0
H248 H 0.8411 0.43742 0.73858 0.0
H249 H 0.07185 0.36402 0.72486 0.0
H250 H 0.03569 0.45407 0.80089 0.0
H251 H 0.12325 0.40049 0.77074 0.0
H252 H 0.27377 0.7947 0.20426 0.0
H253 H 0.97317 0.65289 0.17378 0.0
H254 H 0.28114 0.95494 0.20336 0.0
H255 H 0.98313 0.8139 0.17105 0.0
H256 H 0.98965 0.09782 0.19221 0.0
H257 H 0.98318 0.93901 0.19558 0.0
H258 H 0.29629 0.08123 0.17533 0.0
H259 H 0.30375 0.24243 0.17348 0.0
C260 C 0.20937 0.7976 0.19715 0.0
C261 C 0.12317 0.71074 0.18875 0.0
C262 C 0.21412 0.88998 0.19637 0.0
C263 C 0.13328 0.89801 0.18687 0.0
C264 C 0.04659 0.8108 0.1788 0.0
C265 C 0.04117 0.71816 0.18005 0.0
C266 C 0.05724 0.09551 0.18846 0.0
C267 C 0.1472 0.18268 0.18251 0.0
C268 C 0.05335 0.00391 0.19021 0.0
C269 C 0.13889 -0.00338 0.18552 0.0
C270 C 0.22914 0.08406 0.17945 0.0
C271 C 0.23342 0.17639 0.17819 0.0
H272 H 0.47774 0.17809 0.52386 0.0
H273 H 0.30797 0.86443 0.50476 0.0
H274 H 0.32566 0.18447 0.52765 0.0
H275 H 0.15427 0.87186 0.50691 0.0
H276 H 0.88991 0.89321 0.53592 0.0
H277 H 0.04258 0.88559 0.53473 0.0
H278 H 0.20063 0.18624 0.50395 0.0
H279 H 0.04995 0.19641 0.50714 0.0
C280 C 0.40781 0.11058 0.52008 0.0
C281 C 0.40497 0.02079 0.51393 0.0
C282 C 0.32015 0.11442 0.52208 0.0
C283 C 0.22717 0.02904 0.51737 0.0
C284 C 0.22429 0.93893 0.51106 0.0
C285 C 0.31234 0.93467 0.5096 0.0
C286 C 0.95744 0.95814 0.52911 0.0
C287 C 0.95711 0.04511 0.52124 0.0
C288 C 0.04499 0.95326 0.52815 0.0
C289 C 0.13416 0.03472 0.51896 0.0
C290 C 0.13394 0.12219 0.51145 0.0
C291 C 0.04686 0.12775 0.51293 0.0
H292 H 0.06911 0.70895 0.83469 0.0
H293 H 0.92332 0.87387 0.85713 0.0
H294 H 0.22926 0.86153 0.83557 0.0
H295 H 0.08402 0.0248 0.86035 0.0
H296 H 0.51314 0.13085 0.86492 0.0
H297 H 0.35187 0.9771 0.86291 0.0
H298 H 0.21417 0.14635 0.83698 0.0
H299 H 0.37264 0.29862 0.84074 0.0
C300 C 0.07108 0.77755 0.84011 0.0
C301 C 0.98307 0.77858 0.84633 0.0
C302 C 0.16348 0.86515 0.84092 0.0
C303 C 0.17047 0.95582 0.84837 0.0
C304 C 0.08208 0.95692 0.85422 0.0
C305 C 0.98947 0.8697 0.8528 0.0
C306 C 0.4479 0.13466 0.859 0.0
C307 C 0.45515 0.22676 0.85334 0.0
C308 C 0.35554 0.04659 0.8576 0.0
C309 C 0.26921 0.04889 0.84991 0.0
C310 C 0.27781 0.14135 0.84372 0.0
C311 C 0.36926 0.22909 0.84572 0.0
H312 H 0.40821 0.45572 1.00156 0.0
H313 H 0.56173 0.7771 1.00659 0.0
H314 H 0.37432 0.44388 0.04823 0.0
H315 H 0.53018 0.76575 0.05335 0.0
H316 H 0.27419 0.68355 0.11365 0.0
H317 H 0.37464 0.71643 0.07475 0.0
H318 H 0.42413 0.47272 0.09429 0.0
H319 H 0.32167 0.43964 0.13358 0.0
C320 C 0.43746 0.52384 1.01282 0.0
C321 C 0.48587 0.61726 1.00038 0.0
C322 C 0.41852 0.51717 0.03962 0.0
C323 C 0.44821 0.6039 0.05453 0.0
C324 C 0.50441 0.69744 0.04238 0.0
C325 C 0.5225 0.70401 1.0156 0.0
C326 C 0.30925 0.63909 0.11005 0.0
C327 C 0.29009 0.55905 0.12647 0.0
C328 C 0.36738 0.65812 0.08778 0.0
C329 C 0.40684 0.59657 0.08116 0.0
C330 C 0.39379 0.52074 0.09868 0.0
C331 C 0.33603 0.50231 0.12127 0.0
H332 H 0.89858 0.51795 0.36314 0.0
H333 H 0.68149 0.20243 0.36132 0.0
H334 H 0.94424 0.50905 0.31838 0.0
H335 H 0.7316 0.19348 0.31679 0.0
H336 H -0.00502 0.2297 0.25987 0.0
H337 H 0.89919 0.21933 0.2987 0.0
H338 H 0.87323 0.46912 0.2712 0.0
H339 H 0.96767 0.47807 0.23198 0.0
C340 C 0.85916 0.44693 0.35319 0.0
C341 C 0.78633 0.36085 0.36616 0.0
C342 C 0.88559 0.442 0.32744 0.0
C343 C 0.84116 0.35068 0.31406 0.0
C344 C 0.76724 0.26484 0.32669 0.0
C345 C 0.73945 0.26999 0.35234 0.0
C346 C 0.96583 0.28016 0.26175 0.0
C347 C 0.98882 0.35475 0.24304 0.0
C348 C 0.91096 0.2742 0.28394 0.0
C349 C 0.87982 0.34417 0.2881 0.0
C350 C 0.8971 0.41476 0.26853 0.0
C351 C 0.95042 0.41942 0.24602 0.0
H352 H 0.4838 0.40114 0.78041 0.0
H353 H 0.7292 0.69249 0.79959 0.0
H354 H 0.45176 0.46768 0.74117 0.0
H355 H 0.69697 0.76088 0.75994 0.0
H356 H 0.71279 0.76036 0.6673 0.0
H357 H 0.72498 0.73834 0.71395 0.0
H358 H 0.40322 0.57375 0.71942 0.0
H359 H 0.39149 0.59396 0.67267 0.0
C360 C 0.52884 0.48047 0.77655 0.0
C361 C 0.60904 0.5416 0.79286 0.0
C362 C 0.5103 0.51899 0.75408 0.0
C363 C 0.57242 0.61965 0.74717 0.0
C364 C 0.64851 0.68275 0.76455 0.0
C365 C 0.66645 0.64403 0.78735 0.0
C366 C 0.64478 0.72171 0.67861 0.0
C367 C 0.55125 0.67723 0.66628 0.0
C368 C 0.65166 0.70946 0.70541 0.0
C369 C 0.56505 0.65298 0.72043 0.0
C370 C 0.47145 0.61587 0.70836 0.0
C371 C 0.46466 0.62736 0.68159 0.0
H372 H 0.68938 0.30654 0.90201 0.0
H373 H 0.95211 0.58326 0.92266 0.0
H374 H 0.70487 0.23001 0.94196 0.0
H375 H 0.9724 0.50592 0.9617 0.0
H376 H 0.88268 0.40367 0.04533 0.0
H377 H 0.89192 0.46659 1.00156 0.0
H378 H 0.77998 0.16916 0.97076 0.0
H379 H 0.76718 0.10589 1.01506 0.0
C380 C 0.75287 0.34962 0.91458 0.0
C381 C 0.81919 0.45092 0.90945 0.0
C382 C 0.76194 0.30589 0.93758 0.0
C383 C 0.8384 0.36246 0.95562 0.0
C384 C 0.91033 0.46094 0.94889 0.0
C385 C 0.89979 0.50505 0.92632 0.0
C386 C 0.86116 0.35196 0.02918 0.0
C387 C 0.82421 0.24993 0.03365 0.0
C388 C 0.86707 0.38805 1.00394 0.0
C389 C 0.83759 0.32336 0.98232 0.0
C390 C 0.8023 0.22123 0.98682 0.0
C391 C 0.79513 0.18489 1.0122 0.0
H392 H 0.4134 0.75386 0.33445 0.0
H393 H 0.58435 0.60352 0.3392 0.0
H394 H 0.4378 0.78973 0.38096 0.0
H395 H 0.60705 0.63719 0.38584 0.0
H396 H 0.78061 0.8949 0.44569 0.0
H397 H 0.7126 0.79321 0.40702 0.0
H398 H 0.41895 0.74123 0.427 0.0
H399 H 0.48877 0.84508 0.46601 0.0
C400 C 0.45356 0.7258 0.34561 0.0
C401 C 0.49859 0.67761 0.33312 0.0
C402 C 0.4672 0.74588 0.37233 0.0
C403 C 0.52565 0.71759 0.38713 0.0
C404 C 0.56338 0.66187 0.37495 0.0
C405 C 0.55048 0.64262 0.34824 0.0
C406 C 0.70095 0.85909 0.44223 0.0
C407 C 0.64003 0.87799 0.45867 0.0
C408 C 0.66159 0.80024 0.4201 0.0
C409 C 0.56028 0.75973 0.41366 0.0
C410 C 0.49755 0.77245 0.43123 0.0
C411 C 0.53714 0.831 0.45367 0.0
H412 H 0.76194 0.28056 0.71114 0.0
H413 H 0.06523 0.45529 0.68382 0.0
H414 H 0.7047 0.23099 0.66683 0.0
H415 H 0.00783 0.40908 0.63893 0.0
H416 H 0.8726 0.18784 0.5687 0.0
H417 H 0.94607 0.27514 0.60942 0.0
H418 H 0.6741 0.27834 0.62675 0.0
H419 H 0.59943 0.18507 0.58702 0.0
C420 C 0.81618 0.30997 0.69552 0.0
C421 C 0.91796 0.37183 0.70097 0.0
C422 C 0.7834 0.28219 0.66996 0.0
C423 C 0.85128 0.31674 0.64899 0.0
C424 C 0.9533 0.38003 0.65447 0.0
C425 C 0.98629 0.40675 0.68019 0.0
C426 C 0.82995 0.20991 0.58093 0.0
C427 C 0.73028 0.17941 0.57491 0.0
C428 C 0.87187 0.25992 0.60436 0.0
C429 C 0.81517 0.28153 0.62193 0.0
C430 C 0.7189 0.2597 0.61433 0.0
C431 C 0.67643 0.20764 0.59135 0.0
loop_
_geom_bond_atom_site_label_1
_geom_bond_atom_site_label_2
_geom_bond_distance
_geom_bond_site_symmetry_2
_ccdc_geom_bond_type
Eu0 N31 2.657 . S
Eu0 N38 2.609 . S
Eu0 O44 2.558 . S
Eu0 O45 2.612 1_455 S
Eu0 O47 2.339 . S
Eu0 O48 2.564 . S
Eu0 O49 2.419 . S
Eu0 O51 2.380 . S
Eu0 O52 2.432 . S
Eu0 C64 2.848 . S
C1 C4 1.429 . S
C1 C5 1.411 . S
C1 N8 1.377 . S
C2 C4 1.420 . S
C2 C6 1.423 . S
C2 C14 1.392 . S
C3 C5 1.420 . S
C3 C6 1.351 . S
C3 H26 0.931 . S
C4 C1 1.429 . S
C4 C2 1.420 . S
C4 N12 1.362 . S
C5 C1 1.411 . S
C5 C3 1.420 . S
C5 C10 1.395 . S
C6 C2 1.423 . S
C6 C3 1.351 . S
C6 H18 0.930 . S
C7 C9 1.400 . S
C7 C10 1.386 . S
C7 H19 0.930 . S
N8 C1 1.377 . S
N8 C9 1.321 . S
N8 Eu11 2.609 . S
C9 C7 1.400 . S
C9 N8 1.321 . S
C9 H16 0.930 . S
C10 C5 1.395 . S
C10 C7 1.386 . S
C10 H29 0.930 . S
Eu11 N8 2.609 . S
Eu11 N12 2.657 . S
Eu11 O45 2.380 . S
Eu11 O46 2.432 . S
Eu11 O50 2.558 . S
Eu11 O51 2.612 1_655 S
Eu11 O53 2.339 . S
Eu11 O54 2.564 1_655 S
Eu11 O55 2.419 . S
Eu11 C75 2.848 . S
N12 C4 1.362 . S
N12 Eu11 2.657 . S
N12 C13 1.334 . S
C13 N12 1.334 . S
C13 C15 1.413 . S
C13 H20 0.929 . S
C14 C2 1.392 . S
C14 C15 1.367 . S
C14 H22 0.930 . S
C15 C13 1.413 . S
C15 C14 1.367 . S
C15 H17 0.930 . S
H16 C9 0.930 . S
H17 C15 0.930 . S
H18 C6 0.930 . S
H19 C7 0.930 . S
H20 C13 0.929 . S
H21 C35 0.930 . S
H22 C14 0.930 . S
H23 C41 0.930 . S
H24 C32 0.929 . S
H25 C39 0.930 . S
H26 C3 0.931 . S
H27 C33 0.930 . S
H28 C66 0.930 . S
H29 C10 0.930 . S
H30 C65 0.931 . S
N31 Eu0 2.657 . S
N31 C32 1.334 . S
N31 C36 1.362 . S
C32 H24 0.929 . S
C32 N31 1.334 . S
C32 C35 1.413 . S
C33 H27 0.930 . S
C33 C34 1.392 . S
C33 C35 1.367 . S
C34 C33 1.392 . S
C34 C36 1.420 . S
C34 C66 1.423 . S
C35 H21 0.930 . S
C35 C32 1.413 . S
C35 C33 1.367 . S
C36 N31 1.362 . S
C36 C34 1.420 . S
C36 C40 1.429 . S
H37 C42 0.930 . S
N38 Eu0 2.609 . S
N38 C40 1.377 . S
N38 C41 1.321 . S
C39 H25 0.930 . S
C39 C41 1.400 . S
C39 C42 1.386 . S
C40 C36 1.429 . S
C40 N38 1.377 . S
C40 C43 1.411 . S
C41 H23 0.930 . S
C41 N38 1.321 . S
C41 C39 1.400 . S
C42 H37 0.930 . S
C42 C39 1.386 . S
C42 C43 1.395 . S
C43 C40 1.411 . S
C43 C42 1.395 . S
C43 C65 1.420 . S
O44 Eu0 2.558 . S
O44 C64 1.257 . S
O45 Eu0 2.612 1_655 S
O45 Eu11 2.380 . S
O45 C56 1.276 . S
O46 Eu11 2.432 . S
O46 C63 1.264 1_655 S
O47 Eu0 2.339 . S
O47 C63 1.254 . S
O48 Eu0 2.564 . S
O48 C56 1.234 1_455 S
O49 Eu0 2.419 . S
O49 C64 1.249 . S
O50 Eu11 2.558 . S
O50 C75 1.257 . S
O51 Eu0 2.380 . S
O51 Eu11 2.612 1_455 S
O51 C67 1.276 . S
O52 Eu0 2.432 . S
O52 C74 1.264 1_455 S
O53 Eu11 2.339 . S
O53 C74 1.254 . S
O54 Eu11 2.564 1_455 S
O54 C67 1.234 . S
O55 Eu11 2.419 . S
O55 C75 1.249 . S
C56 O45 1.276 . S
C56 O48 1.234 1_655 S
C57 C59 1.393 . S
C57 C61 1.395 . S
C57 C64 1.492 . S
C58 C59 1.392 . S
C58 C60 1.386 . S
C59 C57 1.393 . S
C59 C58 1.392 . S
C59 H76 0.930 . S
C60 C58 1.386 . S
C60 C62 1.395 . S
C60 H77 0.930 . S
C61 C57 1.395 . S
C61 C62 1.379 . S
C61 H78 0.930 . S
C62 C60 1.395 . S
C62 C61 1.379 . S
C62 H79 0.930 . S
C63 O46 1.264 1_455 S
C63 O47 1.254 . S
C64 Eu0 2.848 . S
C64 O44 1.257 . S
C64 O49 1.249 . S
C64 C57 1.492 . S
C65 H30 0.931 . S
C65 C43 1.420 . S
C65 C66 1.351 . S
C66 H28 0.930 . S
C66 C34 1.423 . S
C66 C65 1.351 . S
C67 O51 1.276 . S
C67 O54 1.234 . S
C68 C69 1.393 . S
C68 C72 1.395 . S
C68 C75 1.492 . S
C69 C68 1.393 . S
C69 C70 1.392 . S
C69 H80 0.930 . S
C70 C69 1.392 . S
C70 C71 1.386 . S
C71 C70 1.386 . S
C71 C73 1.395 . S
C71 H81 0.930 . S
C72 C68 1.395 . S
C72 C73 1.379 . S
C72 H82 0.930 . S
C73 C71 1.395 . S
C73 C72 1.379 . S
C73 H83 0.930 . S
C74 O52 1.264 1_655 S
C74 O53 1.254 . S
C75 Eu11 2.848 . S
C75 O50 1.257 . S
C75 O55 1.249 . S
C75 C68 1.492 . S
H76 C59 0.930 . S
H77 C60 0.930 . S
H78 C61 0.930 . S
H79 C62 0.930 . S
H80 C69 0.930 . S
H81 C71 0.930 . S
H82 C72 0.930 . S
H83 C73 0.930 . S
Eu84 N115 2.657 1_545 S
Eu84 N122 2.609 1_545 S
Eu84 O128 2.558 1_545 S
Eu84 O129 2.612 . S
Eu84 O131 2.339 . S
Eu84 O132 2.563 . S
Eu84 O133 2.419 1_545 S
Eu84 O135 2.380 . S
Eu84 O136 2.432 . S
Eu84 C148 2.848 1_545 S
C85 C88 1.429 1_455 S
C85 C89 1.411 . S
C85 N92 1.377 . S
C86 C88 1.420 . S
C86 C90 1.423 1_655 S
C86 C98 1.392 . S
C87 C89 1.420 . S
C87 C90 1.351 . S
C87 H110 0.931 . S
C88 C85 1.429 1_655 S
C88 C86 1.420 . S
C88 N96 1.362 . S
C89 C85 1.411 . S
C89 C87 1.420 . S
C89 C94 1.395 . S
C90 C86 1.423 1_455 S
C90 C87 1.351 . S
C90 H102 0.930 . S
C91 C93 1.400 . S
C91 C94 1.386 . S
C91 H103 0.930 . S
N92 C85 1.377 . S
N92 C93 1.321 . S
N92 Eu95 2.609 1_455 S
C93 C91 1.400 . S
C93 N92 1.321 . S
C93 H100 0.930 . S
C94 C89 1.395 . S
C94 C91 1.386 . S
C94 H113 0.930 . S
Eu95 N92 2.609 1_655 S
Eu95 N96 2.657 . S
Eu95 O129 2.380 . S
Eu95 O130 2.432 . S
Eu95 O134 2.558 . S
Eu95 O135 2.612 . S
Eu95 O137 2.339 . S
Eu95 O138 2.563 . S
Eu95 O139 2.419 . S
Eu95 C159 2.848 . S
N96 C88 1.362 . S
N96 Eu95 2.657 . S
N96 C97 1.334 . S
C97 N96 1.334 . S
C97 C99 1.413 . S
C97 H104 0.929 . S
C98 C86 1.392 . S
C98 C99 1.367 . S
C98 H106 0.930 . S
C99 C97 1.413 . S
C99 C98 1.367 . S
C99 H101 0.930 . S
H100 C93 0.930 . S
H101 C99 0.930 . S
H102 C90 0.930 . S
H103 C91 0.930 . S
H104 C97 0.929 . S
H105 C119 0.930 . S
H106 C98 0.930 . S
H107 C125 0.930 . S
H108 C116 0.929 . S
H109 C123 0.930 . S
H110 C87 0.931 . S
H111 C117 0.930 . S
H112 C150 0.930 . S
H113 C94 0.930 . S
H114 C149 0.931 . S
N115 Eu84 2.657 1_565 S
N115 C116 1.334 . S
N115 C120 1.362 . S
C116 H108 0.929 . S
C116 N115 1.334 . S
C116 C119 1.413 . S
C117 H111 0.930 . S
C117 C118 1.392 . S
C117 C119 1.367 . S
C118 C117 1.392 . S
C118 C120 1.420 . S
C118 C150 1.423 . S
C119 H105 0.930 . S
C119 C116 1.413 . S
C119 C117 1.367 . S
C120 N115 1.362 . S
C120 C118 1.420 . S
C120 C124 1.429 . S
H121 C126 0.930 . S
N122 Eu84 2.609 1_565 S
N122 C124 1.377 . S
N122 C125 1.321 . S
C123 H109 0.930 . S
C123 C125 1.400 . S
C123 C126 1.386 . S
C124 C120 1.429 . S
C124 N122 1.377 . S
C124 C127 1.411 . S
C125 H107 0.930 . S
C125 N122 1.321 . S
C125 C123 1.400 . S
C126 H121 0.930 . S
C126 C123 1.386 . S
C126 C127 1.395 . S
C127 C124 1.411 . S
C127 C126 1.395 . S
C127 C149 1.420 . S
O128 Eu84 2.558 1_565 S
O128 C148 1.257 . S
O129 Eu84 2.612 . S
O129 Eu95 2.380 . S
O129 C140 1.276 . S
O130 Eu95 2.432 . S
O130 C147 1.264 . S
O131 Eu84 2.339 . S
O131 C147 1.254 . S
O132 Eu84 2.563 . S
O132 C140 1.235 . S
O133 Eu84 2.419 1_565 S
O133 C148 1.249 . S
O134 Eu95 2.558 . S
O134 C159 1.257 . S
O135 Eu84 2.380 . S
O135 Eu95 2.612 . S
O135 C151 1.276 . S
O136 Eu84 2.432 . S
O136 C158 1.264 . S
O137 Eu95 2.339 . S
O137 C158 1.254 . S
O138 Eu95 2.563 . S
O138 C151 1.235 . S
O139 Eu95 2.419 . S
O139 C159 1.249 . S
C140 O129 1.276 . S
C140 O132 1.235 . S
C141 C143 1.393 . S
C141 C145 1.395 . S
C141 C148 1.492 . S
C142 C143 1.392 . S
C142 C144 1.386 . S
C143 C141 1.393 . S
C143 C142 1.392 . S
C143 H160 0.930 . S
C144 C142 1.386 . S
C144 C146 1.395 . S
C144 H161 0.930 . S
C145 C141 1.395 . S
C145 C146 1.379 . S
C145 H162 0.930 . S
C146 C144 1.395 . S
C146 C145 1.379 . S
C146 H163 0.930 . S
C147 O130 1.264 . S
C147 O131 1.254 . S
C148 Eu84 2.848 1_565 S
C148 O128 1.257 . S
C148 O133 1.249 . S
C148 C141 1.492 . S
C149 H114 0.931 . S
C149 C127 1.420 . S
C149 C150 1.351 . S
C150 H112 0.930 . S
C150 C118 1.423 . S
C150 C149 1.351 . S
C151 O135 1.276 . S
C151 O138 1.235 . S
C152 C153 1.393 . S
C152 C156 1.395 1_655 S
C152 C159 1.492 . S
C153 C152 1.393 . S
C153 C154 1.392 . S
C153 H164 0.930 . S
C154 C153 1.392 . S
C154 C155 1.386 . S
C155 C154 1.386 . S
C155 C157 1.395 1_655 S
C155 H165 0.930 . S
C156 C152 1.395 1_455 S
C156 C157 1.379 . S
C156 H166 0.930 . S
C157 C155 1.395 1_455 S
C157 C156 1.379 . S
C157 H167 0.930 . S
C158 O136 1.264 . S
C158 O137 1.254 . S
C159 Eu95 2.848 . S
C159 O134 1.257 . S
C159 O139 1.249 . S
C159 C152 1.492 . S
H160 C143 0.930 . S
H161 C144 0.930 . S
H162 C145 0.930 . S
H163 C146 0.930 . S
H164 C153 0.930 . S
H165 C155 0.930 . S
H166 C156 0.930 . S
H167 C157 0.930 . S
Eu168 N199 2.657 . S
Eu168 N206 2.609 . S
Eu168 O212 2.558 . S
Eu168 O213 2.612 . S
Eu168 O215 2.339 . S
Eu168 O216 2.563 . S
Eu168 O217 2.419 . S
Eu168 O219 2.380 . S
Eu168 O220 2.432 . S
Eu168 C232 2.848 . S
C169 C172 1.429 . S
C169 C173 1.411 . S
C169 N176 1.377 . S
C170 C172 1.420 1_455 S
C170 C174 1.423 . S
C170 C182 1.392 . S
C171 C173 1.420 . S
C171 C174 1.351 1_655 S
C171 H194 0.931 1_545 S
C172 C169 1.429 . S
C172 C170 1.420 1_655 S
C172 N180 1.362 . S
C173 C169 1.411 . S
C173 C171 1.420 . S
C173 C178 1.395 1_545 S
C174 C170 1.423 . S
C174 C171 1.351 1_455 S
C174 H186 0.930 . S
C175 C177 1.400 1_565 S
C175 C178 1.386 . S
C175 H187 0.930 . S
N176 C169 1.377 . S
N176 C177 1.321 . S
N176 Eu179 2.609 . S
C177 C175 1.400 1_545 S
C177 N176 1.321 . S
C177 H184 0.930 . S
C178 C173 1.395 1_565 S
C178 C175 1.386 . S
C178 H197 0.930 . S
Eu179 N176 2.609 . S
Eu179 N180 2.657 . S
Eu179 O213 2.380 . S
Eu179 O214 2.432 . S
Eu179 O218 2.558 . S
Eu179 O219 2.612 . S
Eu179 O221 2.339 . S
Eu179 O222 2.563 . S
Eu179 O223 2.419 . S
Eu179 C243 2.848 . S
N180 C172 1.362 . S
N180 Eu179 2.657 . S
N180 C181 1.334 1_655 S
C181 N180 1.334 1_455 S
C181 C183 1.413 . S
C181 H188 0.929 . S
C182 C170 1.392 . S
C182 C183 1.367 . S
C182 H190 0.930 . S
C183 C181 1.413 . S
C183 C182 1.367 . S
C183 H185 0.930 . S
H184 C177 0.930 . S
H185 C183 0.930 . S
H186 C174 0.930 . S
H187 C175 0.930 . S
H188 C181 0.929 . S
H189 C203 0.930 . S
H190 C182 0.930 . S
H191 C209 0.930 . S
H192 C200 0.929 . S
H193 C207 0.930 . S
H194 C171 0.931 1_565 S
H195 C201 0.930 . S
H196 C234 0.930 . S
H197 C178 0.930 . S
H198 C233 0.931 . S
N199 Eu168 2.657 . S
N199 C200 1.334 . S
N199 C204 1.362 . S
C200 H192 0.929 . S
C200 N199 1.334 . S
C200 C203 1.413 . S
C201 H195 0.930 . S
C201 C202 1.392 . S
C201 C203 1.367 . S
C202 C201 1.392 . S
C202 C204 1.420 . S
C202 C234 1.423 . S
C203 H189 0.930 . S
C203 C200 1.413 . S
C203 C201 1.367 . S
C204 N199 1.362 . S
C204 C202 1.420 . S
C204 C208 1.429 . S
H205 C210 0.930 . S
N206 Eu168 2.609 . S
N206 C208 1.377 . S
N206 C209 1.321 . S
C207 H193 0.930 . S
C207 C209 1.400 . S
C207 C210 1.386 . S
C208 C204 1.429 . S
C208 N206 1.377 . S
C208 C211 1.411 . S
C209 H191 0.930 . S
C209 N206 1.321 . S
C209 C207 1.400 . S
C210 H205 0.930 . S
C210 C207 1.386 . S
C210 C211 1.395 . S
C211 C208 1.411 . S
C211 C210 1.395 . S
C211 C233 1.420 . S
O212 Eu168 2.558 . S
O212 C232 1.257 . S
O213 Eu168 2.612 . S
O213 Eu179 2.380 . S
O213 C224 1.276 . S
O214 Eu179 2.432 . S
O214 C231 1.264 . S
O215 Eu168 2.339 . S
O215 C231 1.254 . S
O216 Eu168 2.563 . S
O216 C224 1.235 . S
O217 Eu168 2.419 . S
O217 C232 1.249 . S
O218 Eu179 2.558 . S
O218 C243 1.257 . S
O219 Eu168 2.380 . S
O219 Eu179 2.612 . S
O219 C235 1.276 . S
O220 Eu168 2.432 . S
O220 C242 1.264 . S
O221 Eu179 2.339 . S
O221 C242 1.254 . S
O222 Eu179 2.563 . S
O222 C235 1.235 . S
O223 Eu179 2.419 . S
O223 C243 1.249 . S
C224 O213 1.276 . S
C224 O216 1.235 . S
C225 C227 1.393 . S
C225 C229 1.395 . S
C225 C232 1.492 . S
C226 C227 1.392 . S
C226 C228 1.386 . S
C227 C225 1.393 . S
C227 C226 1.392 . S
C227 H244 0.930 . S
C228 C226 1.386 . S
C228 C230 1.395 . S
C228 H245 0.930 . S
C229 C225 1.395 . S
C229 C230 1.379 . S
C229 H246 0.930 . S
C230 C228 1.395 . S
C230 C229 1.379 . S
C230 H247 0.930 . S
C231 O214 1.264 . S
C231 O215 1.254 . S
C232 Eu168 2.848 . S
C232 O212 1.257 . S
C232 O217 1.249 . S
C232 C225 1.492 . S
C233 H198 0.931 . S
C233 C211 1.420 . S
C233 C234 1.351 . S
C234 H196 0.930 . S
C234 C202 1.423 . S
C234 C233 1.351 . S
C235 O219 1.276 . S
C235 O222 1.235 . S
C236 C237 1.393 1_655 S
C236 C240 1.395 . S
C236 C243 1.492 . S
C237 C236 1.393 1_455 S
C237 C238 1.392 . S
C237 H248 0.930 . S
C238 C237 1.392 . S
C238 C239 1.386 . S
C239 C238 1.386 . S
C239 C241 1.395 1_455 S
C239 H249 0.930 . S
C240 C236 1.395 . S
C240 C241 1.379 . S
C240 H250 0.930 . S
C241 C239 1.395 1_655 S
C241 C240 1.379 . S
C241 H251 0.930 . S
C242 O220 1.264 . S
C242 O221 1.254 . S
C243 Eu179 2.848 . S
C243 O218 1.257 . S
C243 O223 1.249 . S
C243 C236 1.492 . S
H244 C227 0.930 . S
H245 C228 0.930 . S
H246 C229 0.930 . S
H247 C230 0.930 . S
H248 C237 0.930 . S
H249 C239 0.930 . S
H250 C240 0.930 . S
H251 C241 0.930 . S
H252 C260 0.950 . S
H253 C265 0.950 . S
H254 C262 0.950 . S
H255 C264 0.950 . S
H256 C266 0.950 . S
H257 C268 0.950 . S
H258 C270 0.950 . S
H259 C271 0.950 . S
C260 H252 0.950 . S
C260 C261 1.386 . S
C260 C262 1.391 . S
C261 C260 1.386 . S
C261 C265 1.393 1_455 S
C262 H254 0.950 . S
C262 C260 1.391 . S
C262 C263 1.400 . S
C263 C262 1.400 . S
C263 C264 1.398 1_455 S
C263 C269 1.491 1_455 S
C264 H255 0.950 . S
C264 C263 1.398 1_655 S
C264 C265 1.391 . S
C265 H253 0.950 . S
C265 C261 1.393 1_655 S
C265 C264 1.391 . S
C266 H256 0.950 . S
C266 C267 1.386 . S
C266 C268 1.391 1_545 S
C267 C266 1.386 . S
C267 C271 1.393 1_655 S
C268 H257 0.950 . S
C268 C266 1.391 1_565 S
C268 C269 1.400 . S
C269 C263 1.491 1_655 S
C269 C268 1.400 . S
C269 C270 1.398 1_665 S
C270 H258 0.950 . S
C270 C269 1.398 1_445 S
C270 C271 1.391 . S
C271 H259 0.950 . S
C271 C267 1.393 1_455 S
C271 C270 1.391 . S
H272 C280 0.950 . S
H273 C285 0.950 . S
H274 C282 0.950 . S
H275 C284 0.950 . S
H276 C286 0.950 . S
H277 C288 0.950 . S
H278 C290 0.950 . S
H279 C291 0.950 . S
C280 H272 0.950 . S
C280 C281 1.386 . S
C280 C282 1.391 . S
C281 C280 1.386 . S
C281 C285 1.393 . S
C282 H274 0.950 . S
C282 C280 1.391 . S
C282 C283 1.400 . S
C283 C282 1.400 . S
C283 C284 1.398 . S
C283 C289 1.491 . S
C284 H275 0.950 . S
C284 C283 1.398 . S
C284 C285 1.391 . S
C285 H273 0.950 . S
C285 C281 1.393 . S
C285 C284 1.391 . S
C286 H276 0.950 . S
C286 C287 1.386 . S
C286 C288 1.391 . S
C287 C286 1.386 . S
C287 C291 1.393 . S
C288 H277 0.950 . S
C288 C286 1.391 . S
C288 C289 1.400 . S
C289 C283 1.491 . S
C289 C288 1.400 . S
C289 C290 1.398 . S
C290 H278 0.950 . S
C290 C289 1.398 . S
C290 C291 1.391 . S
C291 H279 0.950 . S
C291 C287 1.393 . S
C291 C290 1.391 . S
H292 C300 0.950 . S
H293 C305 0.950 . S
H294 C302 0.950 . S
H295 C304 0.950 . S
H296 C306 0.950 . S
H297 C308 0.950 . S
H298 C310 0.950 . S
H299 C311 0.950 . S
C300 H292 0.950 . S
C300 C301 1.386 . S
C300 C302 1.391 . S
C301 C300 1.386 . S
C301 C305 1.393 . S
C302 H294 0.950 . S
C302 C300 1.391 . S
C302 C303 1.400 . S
C303 C302 1.400 . S
C303 C304 1.398 . S
C303 C309 1.491 . S
C304 H295 0.950 . S
C304 C303 1.398 . S
C304 C305 1.391 . S
C305 H293 0.950 . S
C305 C301 1.393 . S
C305 C304 1.391 . S
C306 H296 0.950 . S
C306 C307 1.386 . S
C306 C308 1.391 1_545 S
C307 C306 1.386 . S
C307 C311 1.393 . S
C308 H297 0.950 . S
C308 C306 1.391 1_565 S
C308 C309 1.400 . S
C309 C303 1.491 . S
C309 C308 1.400 . S
C309 C310 1.398 1_565 S
C310 H298 0.950 . S
C310 C309 1.398 1_545 S
C310 C311 1.391 . S
C311 H299 0.950 . S
C311 C307 1.393 . S
C311 C310 1.391 . S
H312 C320 0.950 . S
H313 C325 0.958 . S
H314 C322 0.950 . S
H315 C324 0.950 . S
H316 C326 0.950 . S
H317 C328 0.950 . S
H318 C330 0.950 . S
H319 C331 0.950 . S
C320 H312 0.950 . S
C320 C321 1.386 . S
C320 C322 1.391 1_556 S
C321 C320 1.386 . S
C321 C325 1.404 . S
C322 H314 0.950 . S
C322 C320 1.391 1_554 S
C322 C323 1.400 . S
C323 C322 1.400 . S
C323 C324 1.398 . S
C323 C329 1.491 . S
C324 H315 0.950 . S
C324 C323 1.398 . S
C324 C325 1.372 1_554 S
C325 H313 0.958 . S
C325 C321 1.404 . S
C325 C324 1.372 1_556 S
C326 H316 0.950 . S
C326 C327 1.386 . S
C326 C328 1.391 . S
C327 C326 1.386 . S
C327 C331 1.393 . S
C328 H317 0.950 . S
C328 C326 1.391 . S
C328 C329 1.400 . S
C329 C323 1.491 . S
C329 C328 1.400 . S
C329 C330 1.398 . S
C330 H318 0.950 . S
C330 C329 1.398 . S
C330 C331 1.391 . S
C331 H319 0.950 . S
C331 C327 1.393 . S
C331 C330 1.391 . S
H332 C340 0.950 . S
H333 C345 0.950 . S
H334 C342 0.950 . S
H335 C344 0.950 . S
H336 C346 0.950 . S
H337 C348 0.950 . S
H338 C350 0.950 . S
H339 C351 0.950 1_455 S
C340 H332 0.950 . S
C340 C341 1.386 . S
C340 C342 1.391 . S
C341 C340 1.386 . S
C341 C345 1.393 . S
C342 H334 0.950 . S
C342 C340 1.391 . S
C342 C343 1.400 . S
C343 C342 1.400 . S
C343 C344 1.398 . S
C343 C349 1.491 . S
C344 H335 0.950 . S
C344 C343 1.398 . S
C344 C345 1.391 . S
C345 H333 0.950 . S
C345 C341 1.393 . S
C345 C344 1.391 . S
C346 H336 0.950 . S
C346 C347 1.386 . S
C346 C348 1.391 . S
C347 C346 1.386 . S
C347 C351 1.393 . S
C348 H337 0.950 . S
C348 C346 1.391 . S
C348 C349 1.400 . S
C349 C343 1.491 . S
C349 C348 1.400 . S
C349 C350 1.398 . S
C350 H338 0.950 . S
C350 C349 1.398 . S
C350 C351 1.391 . S
C351 H339 0.950 1_655 S
C351 C347 1.393 . S
C351 C350 1.391 . S
H352 C360 0.950 . S
H353 C365 0.950 . S
H354 C362 0.950 . S
H355 C364 0.950 . S
H356 C366 0.950 . S
H357 C368 0.950 . S
H358 C370 0.950 . S
H359 C371 0.950 . S
C360 H352 0.950 . S
C360 C361 1.386 . S
C360 C362 1.391 . S
C361 C360 1.386 . S
C361 C365 1.393 . S
C362 H354 0.950 . S
C362 C360 1.391 . S
C362 C363 1.400 . S
C363 C362 1.400 . S
C363 C364 1.398 . S
C363 C369 1.491 . S
C364 H355 0.950 . S
C364 C363 1.398 . S
C364 C365 1.391 . S
C365 H353 0.950 . S
C365 C361 1.393 . S
C365 C364 1.391 . S
C366 H356 0.950 . S
C366 C367 1.386 . S
C366 C368 1.391 . S
C367 C366 1.386 . S
C367 C371 1.393 . S
C368 H357 0.950 . S
C368 C366 1.391 . S
C368 C369 1.400 . S
C369 C363 1.491 . S
C369 C368 1.400 . S
C369 C370 1.398 . S
C370 H358 0.950 . S
C370 C369 1.398 . S
C370 C371 1.391 . S
C371 H359 0.950 . S
C371 C367 1.393 . S
C371 C370 1.391 . S
H372 C380 0.950 . S
H373 C385 0.950 . S
H374 C382 0.950 . S
H375 C384 0.950 . S
H376 C386 0.950 . S
H377 C388 0.950 . S
H378 C390 0.950 . S
H379 C391 0.950 . S
C380 H372 0.950 . S
C380 C381 1.386 . S
C380 C382 1.391 . S
C381 C380 1.386 . S
C381 C385 1.393 . S
C382 H374 0.950 . S
C382 C380 1.391 . S
C382 C383 1.400 . S
C383 C382 1.400 . S
C383 C384 1.398 . S
C383 C389 1.491 . S
C384 H375 0.950 . S
C384 C383 1.398 . S
C384 C385 1.391 . S
C385 H373 0.950 . S
C385 C381 1.393 . S
C385 C384 1.391 . S
C386 H376 0.950 . S
C386 C387 1.386 . S
C386 C388 1.391 1_554 S
C387 C386 1.386 . S
C387 C391 1.393 . S
C388 H377 0.950 . S
C388 C386 1.391 1_556 S
C388 C389 1.400 . S
C389 C383 1.491 . S
C389 C388 1.400 . S
C389 C390 1.398 . S
C390 H378 0.950 . S
C390 C389 1.398 . S
C390 C391 1.391 1_556 S
C391 H379 0.950 . S
C391 C387 1.393 . S
C391 C390 1.391 1_554 S
H392 C400 0.950 . S
H393 C405 0.950 . S
H394 C402 0.950 . S
H395 C404 0.950 . S
H396 C406 0.950 . S
H397 C408 0.950 . S
H398 C410 0.950 . S
H399 C411 0.950 . S
C400 H392 0.950 . S
C400 C401 1.386 . S
C400 C402 1.391 . S
C401 C400 1.386 . S
C401 C405 1.393 . S
C402 H394 0.950 . S
C402 C400 1.391 . S
C402 C403 1.400 . S
C403 C402 1.400 . S
C403 C404 1.398 . S
C403 C409 1.491 . S
C404 H395 0.950 . S
C404 C403 1.398 . S
C404 C405 1.391 . S
C405 H393 0.950 . S
C405 C401 1.393 . S
C405 C404 1.391 . S
C406 H396 0.950 . S
C406 C407 1.386 1_565 S
C406 C408 1.391 . S
C407 C406 1.386 1_545 S
C407 C411 1.393 . S
C408 H397 0.950 . S
C408 C406 1.391 . S
C408 C409 1.400 . S
C409 C403 1.491 . S
C409 C408 1.400 . S
C409 C410 1.398 1_565 S
C410 H398 0.950 . S
C410 C409 1.398 1_545 S
C410 C411 1.391 . S
C411 H399 0.950 . S
C411 C407 1.393 . S
C411 C410 1.391 . S
H412 C420 0.950 . S
H413 C425 0.950 . S
H414 C422 0.950 1_655 S
H415 C424 0.950 . S
H416 C426 0.950 . S
H417 C428 0.950 . S
H418 C430 0.950 . S
H419 C431 0.950 . S
C420 H412 0.950 . S
C420 C421 1.386 . S
C420 C422 1.391 . S
C421 C420 1.386 . S
C421 C425 1.393 . S
C422 H414 0.950 1_455 S
C422 C420 1.391 . S
C422 C423 1.398 . S
C423 C422 1.398 . S
C423 C424 1.404 . S
C423 C429 1.488 1_455 S
C424 H415 0.950 . S
C424 C423 1.404 . S
C424 C425 1.391 . S
C425 H413 0.950 . S
C425 C421 1.393 . S
C425 C424 1.391 . S
C426 H416 0.950 . S
C426 C427 1.386 . S
C426 C428 1.391 . S
C427 C426 1.386 . S
C427 C431 1.393 . S
C428 H417 0.950 . S
C428 C426 1.391 . S
C428 C429 1.400 . S
C429 C423 1.488 1_655 S
C429 C428 1.400 . S
C429 C430 1.398 . S
C430 H418 0.950 . S
C430 C429 1.398 . S
C430 C431 1.391 . S
C431 H419 0.950 . S
C431 C427 1.393 . S
C431 C430 1.391 . S
C261 C63 1.423 . S
C267 C74 1.423 . S
C281 C158 1.436 . S
C287 C147 1.436 1_455 S
C301 C242 1.429 1_455 S
C307 C231 1.429 . S
C321 C226 1.782 . S
C327 C67 1.922 . S
C341 C154 1.072 . S
C347 C56 1.223 . S
C361 C235 1.937 . S
C367 C142 1.772 . S
C381 C224 1.235 . S
C387 C70 1.058 . S
C401 C58 1.784 . S
C407 C151 1.922 . S
C421 C238 1.115 . S
C427 C140 1.201 . S
