# Generated by pormake.
# Topology fcg, (5)-cn, num edge types: 1
# Building blocks:
#     Node 0, Type 0, BuildingBlock: XOMCOT_clean_sbu_1, # of connection points: 5
#     Node 1, Type 0, BuildingBlock: XOMCOT_clean_sbu_1, # of connection points: 5
#     Node 2, Type 0, BuildingBlock: XOMCOT_clean_sbu_1, # of connection points: 5
#     Node 3, Type 0, BuildingBlock: XOMCOT_clean_sbu_1, # of connection points: 5
#     Node 4, Type 0, BuildingBlock: XOMCOT_clean_sbu_1, # of connection points: 5
#     Node 5, Type 0, BuildingBlock: XOMCOT_clean_sbu_1, # of connection points: 5
#     Node 6, Type 0, BuildingBlock: XOMCOT_clean_sbu_1, # of connection points: 5
#     Node 7, Type 0, BuildingBlock: XOMCOT_clean_sbu_1, # of connection points: 5
#     Node 8, Type 0, BuildingBlock: XOMCOT_clean_sbu_1, # of connection points: 5
#     Node 9, Type 0, BuildingBlock: XOMCOT_clean_sbu_1, # of connection points: 5
#     Node 10, Type 0, BuildingBlock: XOMCOT_clean_sbu_1, # of connection points: 5
#     Node 11, Type 0, BuildingBlock: XOMCOT_clean_sbu_1, # of connection points: 5
#     Node 12, Type 0, BuildingBlock: XOMCOT_clean_sbu_1, # of connection points: 5
#     Node 13, Type 0, BuildingBlock: XOMCOT_clean_sbu_1, # of connection points: 5
#     Node 14, Type 0, BuildingBlock: XOMCOT_clean_sbu_1, # of connection points: 5
#     Node 15, Type 0, BuildingBlock: XOMCOT_clean_sbu_1, # of connection points: 5
#     Node 16, Type 0, BuildingBlock: XOMCOT_clean_sbu_1, # of connection points: 5
#     Node 17, Type 0, BuildingBlock: XOMCOT_clean_sbu_1, # of connection points: 5
#     Node 18, Type 0, BuildingBlock: XOMCOT_clean_sbu_1, # of connection points: 5
#     Node 19, Type 0, BuildingBlock: XOMCOT_clean_sbu_1, # of connection points: 5
#     Node 20, Type 0, BuildingBlock: XOMCOT_clean_sbu_1, # of connection points: 5
#     Node 21, Type 0, BuildingBlock: XOMCOT_clean_sbu_1, # of connection points: 5
#     Node 22, Type 0, BuildingBlock: XOMCOT_clean_sbu_1, # of connection points: 5
#     Node 23, Type 0, BuildingBlock: XOMCOT_clean_sbu_1, # of connection points: 5
#     Node 24, Type 0, BuildingBlock: XOMCOT_clean_sbu_1, # of connection points: 5
#     Node 25, Type 0, BuildingBlock: XOMCOT_clean_sbu_1, # of connection points: 5
#     Node 26, Type 0, BuildingBlock: XOMCOT_clean_sbu_1, # of connection points: 5
#     Node 27, Type 0, BuildingBlock: XOMCOT_clean_sbu_1, # of connection points: 5
#     Node 28, Type 0, BuildingBlock: XOMCOT_clean_sbu_1, # of connection points: 5
#     Node 29, Type 0, BuildingBlock: XOMCOT_clean_sbu_1, # of connection points: 5
#     Node 30, Type 0, BuildingBlock: XOMCOT_clean_sbu_1, # of connection points: 5
#     Node 31, Type 0, BuildingBlock: XOMCOT_clean_sbu_1, # of connection points: 5
#     Node 32, Type 0, BuildingBlock: XOMCOT_clean_sbu_1, # of connection points: 5
#     Node 33, Type 0, BuildingBlock: XOMCOT_clean_sbu_1, # of connection points: 5
#     Node 34, Type 0, BuildingBlock: XOMCOT_clean_sbu_1, # of connection points: 5
#     Node 35, Type 0, BuildingBlock: XOMCOT_clean_sbu_1, # of connection points: 5
#     Node 36, Type 0, BuildingBlock: XOMCOT_clean_sbu_1, # of connection points: 5
#     Node 37, Type 0, BuildingBlock: XOMCOT_clean_sbu_1, # of connection points: 5
#     Node 38, Type 0, BuildingBlock: XOMCOT_clean_sbu_1, # of connection points: 5
#     Node 39, Type 0, BuildingBlock: XOMCOT_clean_sbu_1, # of connection points: 5
#     Node 40, Type 0, BuildingBlock: XOMCOT_clean_sbu_1, # of connection points: 5
#     Node 41, Type 0, BuildingBlock: XOMCOT_clean_sbu_1, # of connection points: 5
#     Node 42, Type 0, BuildingBlock: XOMCOT_clean_sbu_1, # of connection points: 5
#     Node 43, Type 0, BuildingBlock: XOMCOT_clean_sbu_1, # of connection points: 5
#     Node 44, Type 0, BuildingBlock: XOMCOT_clean_sbu_1, # of connection points: 5
#     Node 45, Type 0, BuildingBlock: XOMCOT_clean_sbu_1, # of connection points: 5
#     Node 46, Type 0, BuildingBlock: XOMCOT_clean_sbu_1, # of connection points: 5
#     Node 47, Type 0, BuildingBlock: XOMCOT_clean_sbu_1, # of connection points: 5
#     Edge 48, Type (0, 0), BuildingBlock: AJUNOK_clean_linker_0, # of connection points: 2
#     Edge 49, Type (0, 0), BuildingBlock: AJUNOK_clean_linker_0, # of connection points: 2
#     Edge 50, Type (0, 0), BuildingBlock: AJUNOK_clean_linker_0, # of connection points: 2
#     Edge 51, Type (0, 0), BuildingBlock: AJUNOK_clean_linker_0, # of connection points: 2
#     Edge 52, Type (0, 0), BuildingBlock: AJUNOK_clean_linker_0, # of connection points: 2
#     Edge 53, Type (0, 0), BuildingBlock: AJUNOK_clean_linker_0, # of connection points: 2
#     Edge 54, Type (0, 0), BuildingBlock: AJUNOK_clean_linker_0, # of connection points: 2
#     Edge 55, Type (0, 0), BuildingBlock: AJUNOK_clean_linker_0, # of connection points: 2
#     Edge 56, Type (0, 0), BuildingBlock: AJUNOK_clean_linker_0, # of connection points: 2
#     Edge 57, Type (0, 0), BuildingBlock: AJUNOK_clean_linker_0, # of connection points: 2
#     Edge 58, Type (0, 0), BuildingBlock: AJUNOK_clean_linker_0, # of connection points: 2
#     Edge 59, Type (0, 0), BuildingBlock: AJUNOK_clean_linker_0, # of connection points: 2
#     Edge 60, Type (0, 0), BuildingBlock: AJUNOK_clean_linker_0, # of connection points: 2
#     Edge 61, Type (0, 0), BuildingBlock: AJUNOK_clean_linker_0, # of connection points: 2
#     Edge 62, Type (0, 0), BuildingBlock: AJUNOK_clean_linker_0, # of connection points: 2
#     Edge 63, Type (0, 0), BuildingBlock: AJUNOK_clean_linker_0, # of connection points: 2
#     Edge 64, Type (0, 0), BuildingBlock: AJUNOK_clean_linker_0, # of connection points: 2
#     Edge 65, Type (0, 0), BuildingBlock: AJUNOK_clean_linker_0, # of connection points: 2
#     Edge 66, Type (0, 0), BuildingBlock: AJUNOK_clean_linker_0, # of connection points: 2
#     Edge 67, Type (0, 0), BuildingBlock: AJUNOK_clean_linker_0, # of connection points: 2
#     Edge 68, Type (0, 0), BuildingBlock: AJUNOK_clean_linker_0, # of connection points: 2
#     Edge 69, Type (0, 0), BuildingBlock: AJUNOK_clean_linker_0, # of connection points: 2
#     Edge 70, Type (0, 0), BuildingBlock: AJUNOK_clean_linker_0, # of connection points: 2
#     Edge 71, Type (0, 0), BuildingBlock: AJUNOK_clean_linker_0, # of connection points: 2
#     Edge 72, Type (0, 0), BuildingBlock: AJUNOK_clean_linker_0, # of connection points: 2
#     Edge 73, Type (0, 0), BuildingBlock: AJUNOK_clean_linker_0, # of connection points: 2
#     Edge 74, Type (0, 0), BuildingBlock: AJUNOK_clean_linker_0, # of connection points: 2
#     Edge 75, Type (0, 0), BuildingBlock: AJUNOK_clean_linker_0, # of connection points: 2
#     Edge 76, Type (0, 0), BuildingBlock: AJUNOK_clean_linker_0, # of connection points: 2
#     Edge 77, Type (0, 0), BuildingBlock: AJUNOK_clean_linker_0, # of connection points: 2
#     Edge 78, Type (0, 0), BuildingBlock: AJUNOK_clean_linker_0, # of connection points: 2
#     Edge 79, Type (0, 0), BuildingBlock: AJUNOK_clean_linker_0, # of connection points: 2
#     Edge 80, Type (0, 0), BuildingBlock: AJUNOK_clean_linker_0, # of connection points: 2
#     Edge 81, Type (0, 0), BuildingBlock: AJUNOK_clean_linker_0, # of connection points: 2
#     Edge 82, Type (0, 0), BuildingBlock: AJUNOK_clean_linker_0, # of connection points: 2
#     Edge 83, Type (0, 0), BuildingBlock: AJUNOK_clean_linker_0, # of connection points: 2
#     Edge 84, Type (0, 0), BuildingBlock: AJUNOK_clean_linker_0, # of connection points: 2
#     Edge 85, Type (0, 0), BuildingBlock: AJUNOK_clean_linker_0, # of connection points: 2
#     Edge 86, Type (0, 0), BuildingBlock: AJUNOK_clean_linker_0, # of connection points: 2
#     Edge 87, Type (0, 0), BuildingBlock: AJUNOK_clean_linker_0, # of connection points: 2
#     Edge 88, Type (0, 0), BuildingBlock: AJUNOK_clean_linker_0, # of connection points: 2
#     Edge 89, Type (0, 0), BuildingBlock: AJUNOK_clean_linker_0, # of connection points: 2
#     Edge 90, Type (0, 0), BuildingBlock: AJUNOK_clean_linker_0, # of connection points: 2
#     Edge 91, Type (0, 0), BuildingBlock: AJUNOK_clean_linker_0, # of connection points: 2
#     Edge 92, Type (0, 0), BuildingBlock: AJUNOK_clean_linker_0, # of connection points: 2
#     Edge 93, Type (0, 0), BuildingBlock: AJUNOK_clean_linker_0, # of connection points: 2
#     Edge 94, Type (0, 0), BuildingBlock: AJUNOK_clean_linker_0, # of connection points: 2
#     Edge 95, Type (0, 0), BuildingBlock: AJUNOK_clean_linker_0, # of connection points: 2
#     Edge 96, Type (0, 0), BuildingBlock: AJUNOK_clean_linker_0, # of connection points: 2
#     Edge 97, Type (0, 0), BuildingBlock: AJUNOK_clean_linker_0, # of connection points: 2
#     Edge 98, Type (0, 0), BuildingBlock: AJUNOK_clean_linker_0, # of connection points: 2
#     Edge 99, Type (0, 0), BuildingBlock: AJUNOK_clean_linker_0, # of connection points: 2
#     Edge 100, Type (0, 0), BuildingBlock: AJUNOK_clean_linker_0, # of connection points: 2
#     Edge 101, Type (0, 0), BuildingBlock: AJUNOK_clean_linker_0, # of connection points: 2
#     Edge 102, Type (0, 0), BuildingBlock: AJUNOK_clean_linker_0, # of connection points: 2
#     Edge 103, Type (0, 0), BuildingBlock: AJUNOK_clean_linker_0, # of connection points: 2
#     Edge 104, Type (0, 0), BuildingBlock: AJUNOK_clean_linker_0, # of connection points: 2
#     Edge 105, Type (0, 0), BuildingBlock: AJUNOK_clean_linker_0, # of connection points: 2
#     Edge 106, Type (0, 0), BuildingBlock: AJUNOK_clean_linker_0, # of connection points: 2
#     Edge 107, Type (0, 0), BuildingBlock: AJUNOK_clean_linker_0, # of connection points: 2
#     Edge 108, Type (0, 0), BuildingBlock: AJUNOK_clean_linker_0, # of connection points: 2
#     Edge 109, Type (0, 0), BuildingBlock: AJUNOK_clean_linker_0, # of connection points: 2
#     Edge 110, Type (0, 0), BuildingBlock: AJUNOK_clean_linker_0, # of connection points: 2
#     Edge 111, Type (0, 0), BuildingBlock: AJUNOK_clean_linker_0, # of connection points: 2
#     Edge 112, Type (0, 0), BuildingBlock: AJUNOK_clean_linker_0, # of connection points: 2
#     Edge 113, Type (0, 0), BuildingBlock: AJUNOK_clean_linker_0, # of connection points: 2
#     Edge 114, Type (0, 0), BuildingBlock: AJUNOK_clean_linker_0, # of connection points: 2
#     Edge 115, Type (0, 0), BuildingBlock: AJUNOK_clean_linker_0, # of connection points: 2
#     Edge 116, Type (0, 0), BuildingBlock: AJUNOK_clean_linker_0, # of connection points: 2
#     Edge 117, Type (0, 0), BuildingBlock: AJUNOK_clean_linker_0, # of connection points: 2
#     Edge 118, Type (0, 0), BuildingBlock: AJUNOK_clean_linker_0, # of connection points: 2
#     Edge 119, Type (0, 0), BuildingBlock: AJUNOK_clean_linker_0, # of connection points: 2
#     Edge 120, Type (0, 0), BuildingBlock: AJUNOK_clean_linker_0, # of connection points: 2
#     Edge 121, Type (0, 0), BuildingBlock: AJUNOK_clean_linker_0, # of connection points: 2
#     Edge 122, Type (0, 0), BuildingBlock: AJUNOK_clean_linker_0, # of connection points: 2
#     Edge 123, Type (0, 0), BuildingBlock: AJUNOK_clean_linker_0, # of connection points: 2
#     Edge 124, Type (0, 0), BuildingBlock: AJUNOK_clean_linker_0, # of connection points: 2
#     Edge 125, Type (0, 0), BuildingBlock: AJUNOK_clean_linker_0, # of connection points: 2
#     Edge 126, Type (0, 0), BuildingBlock: AJUNOK_clean_linker_0, # of connection points: 2
#     Edge 127, Type (0, 0), BuildingBlock: AJUNOK_clean_linker_0, # of connection points: 2
#     Edge 128, Type (0, 0), BuildingBlock: AJUNOK_clean_linker_0, # of connection points: 2
#     Edge 129, Type (0, 0), BuildingBlock: AJUNOK_clean_linker_0, # of connection points: 2
#     Edge 130, Type (0, 0), BuildingBlock: AJUNOK_clean_linker_0, # of connection points: 2
#     Edge 131, Type (0, 0), BuildingBlock: AJUNOK_clean_linker_0, # of connection points: 2
#     Edge 132, Type (0, 0), BuildingBlock: AJUNOK_clean_linker_0, # of connection points: 2
#     Edge 133, Type (0, 0), BuildingBlock: AJUNOK_clean_linker_0, # of connection points: 2
#     Edge 134, Type (0, 0), BuildingBlock: AJUNOK_clean_linker_0, # of connection points: 2
#     Edge 135, Type (0, 0), BuildingBlock: AJUNOK_clean_linker_0, # of connection points: 2
#     Edge 136, Type (0, 0), BuildingBlock: AJUNOK_clean_linker_0, # of connection points: 2
#     Edge 137, Type (0, 0), BuildingBlock: AJUNOK_clean_linker_0, # of connection points: 2
#     Edge 138, Type (0, 0), BuildingBlock: AJUNOK_clean_linker_0, # of connection points: 2
#     Edge 139, Type (0, 0), BuildingBlock: AJUNOK_clean_linker_0, # of connection points: 2
#     Edge 140, Type (0, 0), BuildingBlock: AJUNOK_clean_linker_0, # of connection points: 2
#     Edge 141, Type (0, 0), BuildingBlock: AJUNOK_clean_linker_0, # of connection points: 2
#     Edge 142, Type (0, 0), BuildingBlock: AJUNOK_clean_linker_0, # of connection points: 2
#     Edge 143, Type (0, 0), BuildingBlock: AJUNOK_clean_linker_0, # of connection points: 2
#     Edge 144, Type (0, 0), BuildingBlock: AJUNOK_clean_linker_0, # of connection points: 2
#     Edge 145, Type (0, 0), BuildingBlock: AJUNOK_clean_linker_0, # of connection points: 2
#     Edge 146, Type (0, 0), BuildingBlock: AJUNOK_clean_linker_0, # of connection points: 2
#     Edge 147, Type (0, 0), BuildingBlock: AJUNOK_clean_linker_0, # of connection points: 2
#     Edge 148, Type (0, 0), BuildingBlock: AJUNOK_clean_linker_0, # of connection points: 2
#     Edge 149, Type (0, 0), BuildingBlock: AJUNOK_clean_linker_0, # of connection points: 2
#     Edge 150, Type (0, 0), BuildingBlock: AJUNOK_clean_linker_0, # of connection points: 2
#     Edge 151, Type (0, 0), BuildingBlock: AJUNOK_clean_linker_0, # of connection points: 2
#     Edge 152, Type (0, 0), BuildingBlock: AJUNOK_clean_linker_0, # of connection points: 2
#     Edge 153, Type (0, 0), BuildingBlock: AJUNOK_clean_linker_0, # of connection points: 2
#     Edge 154, Type (0, 0), BuildingBlock: AJUNOK_clean_linker_0, # of connection points: 2
#     Edge 155, Type (0, 0), BuildingBlock: AJUNOK_clean_linker_0, # of connection points: 2
#     Edge 156, Type (0, 0), BuildingBlock: AJUNOK_clean_linker_0, # of connection points: 2
#     Edge 157, Type (0, 0), BuildingBlock: AJUNOK_clean_linker_0, # of connection points: 2
#     Edge 158, Type (0, 0), BuildingBlock: AJUNOK_clean_linker_0, # of connection points: 2
#     Edge 159, Type (0, 0), BuildingBlock: AJUNOK_clean_linker_0, # of connection points: 2
#     Edge 160, Type (0, 0), BuildingBlock: AJUNOK_clean_linker_0, # of connection points: 2
#     Edge 161, Type (0, 0), BuildingBlock: AJUNOK_clean_linker_0, # of connection points: 2
#     Edge 162, Type (0, 0), BuildingBlock: AJUNOK_clean_linker_0, # of connection points: 2
#     Edge 163, Type (0, 0), BuildingBlock: AJUNOK_clean_linker_0, # of connection points: 2
#     Edge 164, Type (0, 0), BuildingBlock: AJUNOK_clean_linker_0, # of connection points: 2
#     Edge 165, Type (0, 0), BuildingBlock: AJUNOK_clean_linker_0, # of connection points: 2
#     Edge 166, Type (0, 0), BuildingBlock: AJUNOK_clean_linker_0, # of connection points: 2
#     Edge 167, Type (0, 0), BuildingBlock: AJUNOK_clean_linker_0, # of connection points: 2
# Relax obj value: 0.361
# Max RMSD: 0.246
# Mean RMSD: 0.246
data_MOF--net-fcg--node1-XOMCOT_clean_sbu_1--edge1-AJUNOK_clean_linker_0
_symmetry_space_group_name_H-M    P1
_symmetry_Int_Tables_number       1
_symmetry_cell_setting            triclinic
loop_
_symmetry_equiv_pos_as_xyz
'x, y, z'
_cell_length_a     51.320924
_cell_length_b     51.323652
_cell_length_c     51.311358
_cell_angle_alpha  89.996425
_cell_angle_beta   89.989084
_cell_angle_gamma 89.975237
loop_
_atom_site_label
_atom_site_type_symbol
_atom_site_fract_x
_atom_site_fract_y
_atom_site_fract_z
_atom_type_partial_charge
C0 C 0.15369 0.27985 0.12948 0.0
C1 C 0.17502 0.26518 0.12188 0.0
N2 N 0.16619 0.24242 0.11229 0.0
N3 N 0.13186 0.2658 0.1253 0.0
C4 C 0.14024 0.24328 0.11469 0.0
H5 H 0.15415 0.29885 0.1386 0.0
Co6 Co 0.09689 0.27103 0.13307 0.0
C7 C 0.08115 0.2178 0.15196 0.0
O8 O 0.05769 0.21776 0.14174 0.0
N9 N 0.06115 0.27504 0.14065 0.0
C10 C 0.0226 0.27206 0.16043 0.0
C11 C 0.04921 0.27159 0.16391 0.0
C12 C 0.04134 0.27793 0.12353 0.0
N13 N 0.01781 0.27608 0.13498 0.0
O14 O 0.08898 0.25845 0.09891 0.0
H15 H 0.05915 0.26748 0.18204 0.0
H16 H 0.04381 0.2798 0.10275 0.0
O17 O 0.09632 0.237 0.14847 0.0
C18 C 0.09078 0.27854 0.08439 0.0
O19 O 0.09369 0.30141 0.09556 0.0
N20 N 0.10582 0.28547 0.16546 0.0
C21 C 0.12104 0.31137 0.2108 0.0
C22 C 0.12841 0.2854 0.20636 0.0
C23 C 0.12064 0.27278 0.18356 0.0
C24 C 0.0985 0.31071 0.16933 0.0
C25 C 0.10553 0.32391 0.19208 0.0
H26 H 0.12741 0.25315 0.1801 0.0
H27 H 0.08718 0.32066 0.1546 0.0
H28 H 0.1276 0.22705 0.11003 0.0
H29 H 0.19535 0.27028 0.12425 0.0
H30 H 0.00794 0.26903 0.1753 0.0
H31 H 0.14075 0.27511 0.22005 0.0
H32 H 0.09897 0.34376 0.19487 0.0
C33 C 0.71022 0.15894 0.12423 0.0
C34 C 0.72482 0.17936 0.11476 0.0
N35 N 0.74959 0.17112 0.11201 0.0
N36 N 0.72582 0.13807 0.1275 0.0
C37 C 0.74976 0.14615 0.12009 0.0
H38 H 0.68929 0.15873 0.12674 0.0
Co39 Co 0.7147 0.10406 0.13123 0.0
C40 C 0.75199 0.0789 0.16699 0.0
O41 O 0.73266 0.06449 0.17555 0.0
N42 N 0.70343 0.06899 0.13339 0.0
C43 C 0.68003 0.03249 0.13439 0.0
C44 C 0.68016 0.05859 0.14017 0.0
C45 C 0.71701 0.04857 0.1235 0.0
N46 N 0.70321 0.02629 0.12398 0.0
O47 O 0.72784 0.09749 0.09729 0.0
H48 H 0.66355 0.06901 0.14756 0.0
H49 H 0.7362 0.05026 0.11492 0.0
O50 O 0.74798 0.09477 0.14807 0.0
C51 C 0.70888 0.09863 0.08132 0.0
O52 O 0.68508 0.10017 0.09067 0.0
N53 N 0.69978 0.11288 0.1636 0.0
C54 C 0.67396 0.13028 0.20817 0.0
C55 C 0.70123 0.1299 0.20714 0.0
C56 C 0.71375 0.1217 0.18449 0.0
C57 C 0.67336 0.11558 0.16344 0.0
C58 C 0.65996 0.12349 0.18575 0.0
H59 H 0.7346 0.12381 0.18349 0.0
H60 H 0.66263 0.11216 0.14564 0.0
H61 H 0.76645 0.13336 0.11838 0.0
H62 H 0.71763 0.1984 0.10922 0.0
H63 H 0.66378 0.01923 0.1367 0.0
H64 H 0.71283 0.13696 0.2233 0.0
H65 H 0.63889 0.1247 0.18528 0.0
C66 C 0.84366 0.71167 0.09543 0.0
C67 C 0.82285 0.7253 0.08522 0.0
N68 N 0.82373 0.75001 0.09424 0.0
N69 N 0.85752 0.72766 0.11092 0.0
C70 C 0.84464 0.75063 0.1101 0.0
H71 H 0.84941 0.69205 0.09033 0.0
Co72 Co 0.89185 0.72329 0.12211 0.0
C73 C 0.90199 0.7758 0.14477 0.0
O74 O 0.92126 0.78135 0.12887 0.0
N75 N 0.92693 0.72032 0.13287 0.0
C76 C 0.96309 0.72633 0.1562 0.0
C77 C 0.93634 0.72439 0.15717 0.0
C78 C 0.94845 0.71934 0.11767 0.0
N79 N 0.97051 0.72339 0.13124 0.0
O80 O 0.90203 0.74096 0.09119 0.0
H81 H 0.92441 0.72732 0.1743 0.0
H82 H 0.94822 0.71731 0.09676 0.0
O83 O 0.88971 0.75445 0.14235 0.0
C84 C 0.90386 0.72319 0.07392 0.0
O85 O 0.90309 0.69872 0.08149 0.0
N86 N 0.88052 0.70428 0.15125 0.0
C87 C 0.8641 0.6759 0.19458 0.0
C88 C 0.85217 0.69956 0.18807 0.0
C89 C 0.86055 0.71336 0.1663 0.0
C90 C 0.8916 0.6807 0.15649 0.0
C91 C 0.88397 0.66633 0.17838 0.0
H92 H 0.85085 0.73141 0.16153 0.0
H93 H 0.90679 0.67321 0.14393 0.0
H94 H 0.85093 0.76774 0.12046 0.0
H95 H 0.80902 0.71791 0.07113 0.0
H96 H 0.97599 0.73017 0.17244 0.0
H97 H 0.83634 0.70735 0.19967 0.0
H98 H 0.89382 0.6482 0.18278 0.0
C99 C 0.28265 0.83918 0.12081 0.0
C100 C 0.26645 0.81918 0.11283 0.0
N101 N 0.24363 0.82976 0.10541 0.0
N102 N 0.26947 0.86189 0.11915 0.0
C103 C 0.24594 0.85541 0.10949 0.0
H104 H 0.30213 0.83714 0.12857 0.0
Co105 Co 0.27722 0.89568 0.12939 0.0
C106 C 0.22191 0.90677 0.14763 0.0
O107 O 0.21365 0.92025 0.12751 0.0
N108 N 0.2834 0.93042 0.1398 0.0
C109 C 0.28473 0.96628 0.16431 0.0
C110 C 0.28442 0.93949 0.16456 0.0
C111 C 0.28268 0.95225 0.12497 0.0
N112 N 0.28324 0.97414 0.13939 0.0
O113 O 0.26296 0.90722 0.09692 0.0
H114 H 0.28366 0.92751 0.18187 0.0
H115 H 0.28112 0.95246 0.10401 0.0
O116 O 0.24489 0.89756 0.14792 0.0
C117 C 0.2828 0.90668 0.08192 0.0
O118 O 0.30582 0.90251 0.09238 0.0
N119 N 0.29354 0.88292 0.15957 0.0
C120 C 0.32129 0.8622 0.20137 0.0
C121 C 0.29467 0.85702 0.19847 0.0
C122 C 0.28121 0.8672 0.17717 0.0
C123 C 0.31954 0.88784 0.16184 0.0
C124 C 0.33382 0.87777 0.18275 0.0
H125 H 0.2611 0.86169 0.17439 0.0
H126 H 0.32925 0.89957 0.14726 0.0
H127 H 0.23015 0.86912 0.10674 0.0
H128 H 0.27064 0.79852 0.11344 0.0
H129 H 0.28496 0.97901 0.18113 0.0
H130 H 0.28452 0.84455 0.21215 0.0
H131 H 0.35441 0.88212 0.18436 0.0
C132 C 0.16743 0.70965 0.88318 0.0
C133 C 0.18773 0.72454 0.89269 0.0
N134 N 0.18033 0.74977 0.89253 0.0
N135 N 0.14746 0.72554 0.87704 0.0
C136 C 0.15587 0.74973 0.88302 0.0
H137 H 0.16684 0.68863 0.88182 0.0
Co138 Co 0.11325 0.71767 0.86829 0.0
C139 C 0.09562 0.76756 0.84445 0.0
O140 O 0.07729 0.77135 0.8619 0.0
N141 N 0.07794 0.71107 0.85985 0.0
C142 C 0.04052 0.71176 0.83776 0.0
C143 C 0.06723 0.71075 0.83575 0.0
C144 C 0.05715 0.71189 0.87609 0.0
N145 N 0.03432 0.71255 0.86319 0.0
O146 O 0.10322 0.73528 0.89953 0.0
H147 H 0.0781 0.71144 0.81774 0.0
H148 H 0.05845 0.71406 0.89694 0.0
O149 O 0.11127 0.74845 0.84673 0.0
C150 C 0.10424 0.71795 0.91733 0.0
O151 O 0.10757 0.69351 0.91042 0.0
N152 N 0.12471 0.69867 0.83904 0.0
C153 C 0.14035 0.67098 0.79497 0.0
C154 C 0.15039 0.69582 0.80014 0.0
C155 C 0.14247 0.70926 0.82232 0.0
C156 C 0.11613 0.67376 0.83541 0.0
C157 C 0.1234 0.65965 0.81319 0.0
H158 H 0.15034 0.72848 0.8258 0.0
H159 H 0.10294 0.66509 0.84938 0.0
H160 H 0.14353 0.7668 0.8821 0.0
H161 H 0.20626 0.71732 0.89971 0.0
H162 H 0.02677 0.71281 0.8218 0.0
H163 H 0.16411 0.70496 0.78695 0.0
H164 H 0.11537 0.6404 0.81 0.0
C165 C 0.28925 0.15528 0.89061 0.0
C166 C 0.27512 0.17593 0.90044 0.0
N167 N 0.24962 0.16988 0.8989 0.0
N168 N 0.27261 0.13652 0.88286 0.0
C169 C 0.24864 0.14605 0.88806 0.0
H170 H 0.31024 0.15353 0.8902 0.0
Co171 Co 0.28083 0.10262 0.8738 0.0
C172 C 0.22584 0.09192 0.85447 0.0
O173 O 0.21471 0.08426 0.8762 0.0
N174 N 0.28822 0.06756 0.8647 0.0
C175 C 0.29633 0.0315 0.84181 0.0
C176 C 0.29488 0.05819 0.84093 0.0
C177 C 0.28501 0.04584 0.87943 0.0
N178 N 0.28985 0.02386 0.86596 0.0
O179 O 0.26517 0.09213 0.90582 0.0
H180 H 0.29791 0.06976 0.82361 0.0
H181 H 0.27917 0.04578 0.89964 0.0
O182 O 0.24948 0.09905 0.8543 0.0
C183 C 0.28312 0.09188 0.92302 0.0
O184 O 0.30746 0.09334 0.91518 0.0
N185 N 0.2978 0.115 0.84386 0.0
C186 C 0.32523 0.13355 0.80093 0.0
C187 C 0.29827 0.13711 0.80272 0.0
C188 C 0.28495 0.12811 0.82456 0.0
C189 C 0.32424 0.11242 0.84305 0.0
C190 C 0.33842 0.12151 0.82159 0.0
H191 H 0.26435 0.13213 0.82596 0.0
H192 H 0.33427 0.10297 0.859 0.0
H193 H 0.23081 0.13514 0.88562 0.0
H194 H 0.28296 0.19376 0.90852 0.0
H195 H 0.30135 0.01862 0.82586 0.0
H196 H 0.28763 0.14724 0.78755 0.0
H197 H 0.35936 0.11895 0.82102 0.0
C198 C 0.84618 0.28342 0.87891 0.0
C199 C 0.82639 0.26709 0.88673 0.0
N200 N 0.83497 0.24225 0.88536 0.0
N201 N 0.86701 0.26892 0.87236 0.0
C202 C 0.8596 0.24403 0.87636 0.0
H203 H 0.84599 0.30448 0.87951 0.0
Co204 Co 0.90063 0.28066 0.8679 0.0
C205 C 0.9251 0.24456 0.83009 0.0
O206 O 0.93964 0.26396 0.82189 0.0
N207 N 0.93541 0.29237 0.86485 0.0
C208 C 0.97172 0.31603 0.86323 0.0
C209 C 0.94559 0.31551 0.85736 0.0
C210 C 0.95595 0.27918 0.87494 0.0
N211 N 0.97805 0.29318 0.87429 0.0
O212 O 0.90838 0.26675 0.9016 0.0
H213 H 0.93493 0.33174 0.84944 0.0
H214 H 0.95445 0.26018 0.88398 0.0
O215 O 0.90984 0.24807 0.84959 0.0
C216 C 0.90679 0.28616 0.91706 0.0
O217 O 0.90411 0.30953 0.9069 0.0
N218 N 0.89043 0.29666 0.83646 0.0
C219 C 0.86786 0.3246 0.79558 0.0
C220 C 0.87074 0.29751 0.79398 0.0
C221 C 0.88138 0.2838 0.81494 0.0
C222 C 0.88654 0.32283 0.83876 0.0
C223 C 0.8759 0.33731 0.81834 0.0
H224 H 0.88074 0.26284 0.81426 0.0
H225 H 0.89105 0.33248 0.85694 0.0
H226 H 0.87246 0.22768 0.87365 0.0
H227 H 0.80758 0.27317 0.89407 0.0
H228 H 0.98482 0.33238 0.86074 0.0
H229 H 0.86365 0.28687 0.77718 0.0
H230 H 0.87357 0.35816 0.82055 0.0
C231 C 0.7282 0.84275 0.86525 0.0
C232 C 0.74566 0.82295 0.87034 0.0
N233 N 0.7676 0.83379 0.87972 0.0
N234 N 0.73961 0.86579 0.8708 0.0
C235 C 0.76344 0.85957 0.8799 0.0
H236 H 0.70886 0.8405 0.8572 0.0
Co237 Co 0.72816 0.89966 0.86627 0.0
C238 C 0.76821 0.92379 0.83205 0.0
O239 O 0.75091 0.94091 0.82413 0.0
N240 N 0.71696 0.93476 0.86275 0.0
C241 C 0.69394 0.97123 0.85784 0.0
C242 C 0.69524 0.94518 0.85198 0.0
C243 C 0.72862 0.95525 0.87476 0.0
N244 N 0.71494 0.97746 0.87211 0.0
O245 O 0.73966 0.90707 0.90101 0.0
H246 H 0.68039 0.93487 0.84142 0.0
H247 H 0.74619 0.95369 0.88631 0.0
O248 O 0.76223 0.90811 0.85054 0.0
C249 C 0.71922 0.90619 0.9151 0.0
O250 O 0.69663 0.90261 0.90358 0.0
N251 N 0.71436 0.89019 0.8335 0.0
C252 C 0.6889 0.86946 0.79003 0.0
C253 C 0.71617 0.87123 0.79071 0.0
C254 C 0.72855 0.88126 0.81278 0.0
C255 C 0.68802 0.8868 0.83383 0.0
C256 C 0.67482 0.87723 0.8121 0.0
H257 H 0.74946 0.88 0.81369 0.0
H258 H 0.67717 0.89119 0.85137 0.0
H259 H 0.77795 0.87378 0.8856 0.0
H260 H 0.7428 0.80235 0.86683 0.0
H261 H 0.67825 0.98444 0.85286 0.0
H262 H 0.72796 0.86375 0.77488 0.0
H263 H 0.65381 0.87548 0.81279 0.0
C264 C 0.12354 0.15557 0.28495 0.0
C265 C 0.11576 0.17476 0.26778 0.0
N266 N 0.11604 0.16462 0.24359 0.0
N267 N 0.12859 0.13361 0.27145 0.0
C268 C 0.12389 0.13979 0.24632 0.0
H269 H 0.12361 0.15693 0.30598 0.0
Co270 Co 0.13132 0.1002 0.28448 0.0
C271 C 0.16899 0.07352 0.24984 0.0
O272 O 0.17645 0.05916 0.26969 0.0
N273 N 0.13256 0.06569 0.29733 0.0
C274 C 0.13111 0.03029 0.32236 0.0
C275 C 0.13788 0.05617 0.32134 0.0
C276 C 0.12273 0.04499 0.28417 0.0
N277 N 0.12148 0.02343 0.29902 0.0
O278 O 0.09793 0.0933 0.26975 0.0
H279 H 0.14481 0.06717 0.33778 0.0
H280 H 0.11522 0.04607 0.26449 0.0
O281 O 0.14982 0.0893 0.25266 0.0
C282 C 0.08064 0.09445 0.28754 0.0
O283 O 0.08824 0.09639 0.31192 0.0
N284 N 0.16297 0.10948 0.30078 0.0
C285 C 0.2061 0.12799 0.32825 0.0
C286 C 0.20685 0.12573 0.30107 0.0
C287 C 0.18484 0.1172 0.28765 0.0
C288 C 0.16126 0.11364 0.32697 0.0
C289 C 0.18276 0.12235 0.34121 0.0
H290 H 0.18515 0.11824 0.26669 0.0
H291 H 0.14284 0.11083 0.3368 0.0
H292 H 0.12365 0.12575 0.23062 0.0
H293 H 0.10917 0.19418 0.27275 0.0
H294 H 0.1322 0.01771 0.33927 0.0
H295 H 0.22391 0.13172 0.29016 0.0
H296 H 0.18101 0.12507 0.36207 0.0
C297 C 0.84406 0.11482 0.28401 0.0
C298 C 0.82205 0.10564 0.27152 0.0
N299 N 0.82695 0.10519 0.24574 0.0
N300 N 0.86249 0.12004 0.26602 0.0
C301 C 0.85144 0.11395 0.24296 0.0
H302 H 0.84678 0.11676 0.30482 0.0
Co303 Co 0.89723 0.12844 0.27108 0.0
C304 C 0.91484 0.14679 0.21849 0.0
O305 O 0.93851 0.13724 0.22021 0.0
N306 N 0.93283 0.13671 0.27566 0.0
C307 C 0.97081 0.15775 0.27438 0.0
C308 C 0.94412 0.16043 0.27345 0.0
C309 C 0.95313 0.12008 0.2783 0.0
N310 N 0.97632 0.13233 0.27747 0.0
O311 O 0.90565 0.09435 0.259 0.0
H312 H 0.93373 0.17843 0.26996 0.0
H313 H 0.95132 0.09918 0.27938 0.0
O314 O 0.89846 0.14333 0.23675 0.0
C315 C 0.9044 0.0803 0.27947 0.0
O316 O 0.90183 0.09203 0.30211 0.0
N317 N 0.88737 0.1606 0.28503 0.0
C318 C 0.86918 0.20463 0.31102 0.0
C319 C 0.86449 0.20134 0.2843 0.0
C320 C 0.87359 0.17904 0.27165 0.0
C321 C 0.89206 0.16343 0.311 0.0
C322 C 0.88319 0.18538 0.3244 0.0
H323 H 0.86865 0.17627 0.25138 0.0
H324 H 0.90232 0.14826 0.32144 0.0
H325 H 0.86153 0.11459 0.22447 0.0
H326 H 0.80399 0.09963 0.2806 0.0
H327 H 0.98506 0.17318 0.27243 0.0
H328 H 0.85305 0.21539 0.27347 0.0
H329 H 0.88699 0.18716 0.34509 0.0
C330 C 0.8692 0.84188 0.28029 0.0
C331 C 0.87591 0.82215 0.26334 0.0
N332 N 0.8812 0.83276 0.23983 0.0
N333 N 0.86988 0.86467 0.26733 0.0
C334 C 0.87748 0.85851 0.24298 0.0
H335 H 0.86445 0.83979 0.30072 0.0
Co336 Co 0.86521 0.89827 0.27898 0.0
C337 C 0.83159 0.92339 0.23875 0.0
O338 O 0.82275 0.93949 0.25659 0.0
N339 N 0.86178 0.93299 0.2905 0.0
C340 C 0.8586 0.96928 0.31405 0.0
C341 C 0.85285 0.94313 0.31315 0.0
C342 C 0.87274 0.95351 0.27802 0.0
N343 N 0.87109 0.97562 0.29194 0.0
O344 O 0.90013 0.90562 0.26793 0.0
H345 H 0.84385 0.93241 0.32878 0.0
H346 H 0.88284 0.95204 0.25956 0.0
O347 O 0.84982 0.90742 0.2448 0.0
C348 C 0.91397 0.90334 0.28847 0.0
O349 O 0.90194 0.89977 0.31081 0.0
N350 N 0.83233 0.88869 0.29245 0.0
C351 C 0.78977 0.86564 0.31741 0.0
C352 C 0.78946 0.86985 0.29045 0.0
C353 C 0.81123 0.88076 0.27821 0.0
C354 C 0.83306 0.88407 0.31861 0.0
C355 C 0.81186 0.87305 0.33157 0.0
H356 H 0.81153 0.881 0.25724 0.0
H357 H 0.85073 0.88802 0.32938 0.0
H358 H 0.88026 0.87287 0.22792 0.0
H359 H 0.87705 0.80163 0.26804 0.0
H360 H 0.85476 0.98245 0.33008 0.0
H361 H 0.77313 0.8634 0.27873 0.0
H362 H 0.81303 0.86971 0.35238 0.0
C363 C 0.15165 0.88252 0.28295 0.0
C364 C 0.17097 0.88959 0.26578 0.0
N365 N 0.16219 0.88594 0.24124 0.0
N366 N 0.13086 0.87422 0.26936 0.0
C367 C 0.13783 0.87637 0.24407 0.0
H368 H 0.15213 0.88468 0.30391 0.0
Co369 Co 0.09804 0.86939 0.28314 0.0
C370 C 0.07247 0.83041 0.2498 0.0
O371 O 0.05991 0.82242 0.27063 0.0
N372 N 0.0639 0.86605 0.29711 0.0
C373 C 0.02888 0.86365 0.32263 0.0
C374 C 0.0551 0.85858 0.32082 0.0
C375 C 0.04239 0.87548 0.28495 0.0
N376 N 0.02096 0.87433 0.30007 0.0
O377 O 0.08893 0.9029 0.26964 0.0
H378 H 0.06665 0.85093 0.33654 0.0
H379 H 0.04272 0.88422 0.26576 0.0
O380 O 0.087 0.85071 0.25127 0.0
C381 C 0.09044 0.9184 0.28901 0.0
O382 O 0.09502 0.90857 0.31221 0.0
N383 N 0.10965 0.83797 0.29842 0.0
C384 C 0.13144 0.79526 0.3242 0.0
C385 C 0.1292 0.79544 0.29701 0.0
C386 C 0.11902 0.81729 0.28445 0.0
C387 C 0.11381 0.83896 0.32464 0.0
C388 C 0.12385 0.81752 0.33808 0.0
H389 H 0.11986 0.81787 0.26347 0.0
H390 H 0.1097 0.85672 0.3352 0.0
H391 H 0.12496 0.87164 0.22812 0.0
H392 H 0.1896 0.89795 0.27102 0.0
H393 H 0.01668 0.8604 0.33954 0.0
H394 H 0.13619 0.77921 0.28544 0.0
H395 H 0.12583 0.8185 0.35906 0.0
C396 C 0.11315 0.8472 0.71264 0.0
C397 C 0.1043 0.82568 0.72621 0.0
N398 N 0.10594 0.83085 0.75197 0.0
N399 N 0.1204 0.86562 0.72985 0.0
C400 C 0.11548 0.85517 0.75346 0.0
H401 H 0.11372 0.84951 0.69169 0.0
Co402 Co 0.1311 0.89976 0.72482 0.0
C403 C 0.15261 0.91265 0.77815 0.0
O404 O 0.14162 0.93564 0.78047 0.0
N405 N 0.14176 0.93474 0.72104 0.0
C406 C 0.16611 0.97057 0.72344 0.0
C407 C 0.16638 0.94379 0.72354 0.0
C408 C 0.12694 0.95652 0.7195 0.0
N409 N 0.14124 0.9785 0.72092 0.0
O410 O 0.0983 0.91025 0.73903 0.0
H411 H 0.18337 0.93172 0.72666 0.0
H412 H 0.10596 0.95657 0.71803 0.0
O413 O 0.14849 0.89891 0.75795 0.0
C414 C 0.08364 0.91053 0.7189 0.0
O415 O 0.09473 0.90872 0.69586 0.0
N416 N 0.16171 0.88796 0.70855 0.0
C417 C 0.20468 0.86898 0.68122 0.0
C418 C 0.20018 0.86145 0.70706 0.0
C419 C 0.17845 0.87093 0.72029 0.0
C420 C 0.16536 0.895 0.68318 0.0
C421 C 0.18684 0.88577 0.66911 0.0
H422 H 0.17469 0.86388 0.73968 0.0
H423 H 0.15144 0.90774 0.67378 0.0
H424 H 0.11863 0.8653 0.77165 0.0
H425 H 0.09671 0.80797 0.71769 0.0
H426 H 0.18278 0.98317 0.72624 0.0
H427 H 0.21301 0.84776 0.71676 0.0
H428 H 0.1895 0.8917 0.64903 0.0
C429 C 0.15896 0.13238 0.72139 0.0
C430 C 0.17974 0.12596 0.73732 0.0
N431 N 0.17028 0.11557 0.75959 0.0
N432 N 0.13663 0.1263 0.73379 0.0
C433 C 0.14425 0.11591 0.75669 0.0
H434 H 0.16006 0.1418 0.70256 0.0
Co435 Co 0.10157 0.13174 0.72622 0.0
C436 C 0.08114 0.14931 0.77849 0.0
O437 O 0.05779 0.13903 0.77663 0.0
N438 N 0.06579 0.13733 0.72005 0.0
C439 C 0.02689 0.15655 0.7214 0.0
C440 C 0.05332 0.16056 0.72104 0.0
C441 C 0.04633 0.11953 0.7194 0.0
N442 N 0.0226 0.13075 0.72049 0.0
O443 O 0.09514 0.09685 0.73766 0.0
H444 H 0.06268 0.17927 0.72342 0.0
H445 H 0.0493 0.0987 0.72012 0.0
O446 O 0.09775 0.14623 0.76039 0.0
C447 C 0.10069 0.08322 0.71761 0.0
O448 O 0.10295 0.09526 0.69511 0.0
N449 N 0.10946 0.16463 0.71263 0.0
C450 C 0.12378 0.21003 0.68668 0.0
C451 C 0.12579 0.20838 0.71387 0.0
C452 C 0.11879 0.18534 0.72654 0.0
C453 C 0.10727 0.16597 0.68621 0.0
C454 C 0.11437 0.18851 0.67279 0.0
H455 H 0.12166 0.18404 0.74733 0.0
H456 H 0.10038 0.14918 0.67549 0.0
H457 H 0.13069 0.10912 0.77134 0.0
H458 H 0.20004 0.12988 0.73325 0.0
H459 H 0.01197 0.17135 0.7233 0.0
H460 H 0.13371 0.22439 0.72512 0.0
H461 H 0.11285 0.18903 0.65174 0.0
C462 C 0.87504 0.15626 0.71507 0.0
C463 C 0.88381 0.17791 0.72838 0.0
N464 N 0.89042 0.17066 0.7528 0.0
N465 N 0.87603 0.13552 0.73109 0.0
C466 C 0.88555 0.14487 0.75378 0.0
H467 H 0.86868 0.15562 0.69498 0.0
Co468 Co 0.86875 0.10063 0.72476 0.0
C469 C 0.84552 0.08229 0.77523 0.0
O470 O 0.85496 0.05853 0.7742 0.0
N471 N 0.86149 0.06496 0.7192 0.0
C472 C 0.84098 0.02667 0.71828 0.0
C473 C 0.83783 0.05331 0.71871 0.0
C474 C 0.87858 0.04489 0.7187 0.0
N475 N 0.86666 0.02155 0.71826 0.0
O476 O 0.90197 0.09257 0.73921 0.0
H477 H 0.81938 0.06338 0.72011 0.0
H478 H 0.89944 0.04695 0.72017 0.0
O479 O 0.85148 0.09892 0.75786 0.0
C480 C 0.91827 0.09363 0.72048 0.0
O481 O 0.9093 0.09566 0.69657 0.0
N482 N 0.83735 0.10996 0.70866 0.0
C483 C 0.79349 0.12514 0.68069 0.0
C484 C 0.79487 0.12932 0.70761 0.0
C485 C 0.81715 0.12193 0.72122 0.0
C486 C 0.83645 0.10596 0.68241 0.0
C487 C 0.81464 0.1135 0.66796 0.0
H488 H 0.81826 0.12658 0.74167 0.0
H489 H 0.85293 0.09713 0.67265 0.0
H490 H 0.88985 0.13257 0.77034 0.0
H491 H 0.88523 0.19747 0.72063 0.0
H492 H 0.82564 0.01219 0.71853 0.0
H493 H 0.77919 0.13906 0.71788 0.0
H494 H 0.81432 0.1104 0.64708 0.0
C495 C 0.84598 0.86864 0.71302 0.0
C496 C 0.82565 0.87616 0.7288 0.0
N497 N 0.83515 0.88131 0.75274 0.0
N498 N 0.86819 0.86891 0.72699 0.0
C499 C 0.86096 0.87656 0.75117 0.0
H500 H 0.84489 0.86499 0.69229 0.0
Co501 Co 0.90189 0.86781 0.71389 0.0
C502 C 0.92926 0.82827 0.74454 0.0
O503 O 0.94147 0.82196 0.72293 0.0
N504 N 0.93658 0.86832 0.70114 0.0
C505 C 0.97243 0.87274 0.67711 0.0
C506 C 0.94657 0.86581 0.67687 0.0
C507 C 0.95698 0.8768 0.71567 0.0
N508 N 0.97889 0.87964 0.70154 0.0
O509 O 0.90794 0.90063 0.73009 0.0
H510 H 0.9359 0.86078 0.65955 0.0
H511 H 0.9554 0.8822 0.73601 0.0
O512 O 0.9135 0.84774 0.74465 0.0
C513 C 0.90613 0.91799 0.71243 0.0
O514 O 0.90382 0.91054 0.68804 0.0
N515 N 0.89345 0.83675 0.6959 0.0
C516 C 0.87503 0.79457 0.66696 0.0
C517 C 0.87623 0.79327 0.69417 0.0
C518 C 0.88467 0.81484 0.70829 0.0
C519 C 0.89038 0.839 0.66959 0.0
C520 C 0.88171 0.81797 0.65463 0.0
H521 H 0.88278 0.81425 0.72921 0.0
H522 H 0.89339 0.85762 0.66027 0.0
H523 H 0.8747 0.8809 0.76658 0.0
H524 H 0.80563 0.87901 0.72277 0.0
H525 H 0.98531 0.87355 0.66042 0.0
H526 H 0.86945 0.77616 0.70452 0.0
H527 H 0.87965 0.82017 0.63374 0.0
C528 C 0.28533 0.12377 0.16313 0.0
C529 C 0.27199 0.11508 0.18485 0.0
N530 N 0.24798 0.10736 0.17739 0.0
N531 N 0.26969 0.12155 0.14217 0.0
C532 C 0.24731 0.11131 0.15145 0.0
H533 H 0.30508 0.1311 0.16262 0.0
Co534 Co 0.27514 0.12852 0.10694 0.0
C535 C 0.22227 0.14807 0.0903 0.0
O536 O 0.22215 0.13714 0.06716 0.0
N537 N 0.27931 0.13541 0.07101 0.0
C538 C 0.27655 0.15534 0.03252 0.0
C539 C 0.27713 0.15883 0.0591 0.0
C540 C 0.28033 0.11808 0.05114 0.0
N541 N 0.27851 0.12967 0.02761 0.0
O542 O 0.26275 0.09417 0.09973 0.0
H543 H 0.27448 0.17721 0.06905 0.0
H544 H 0.28074 0.09719 0.05372 0.0
O545 O 0.2412 0.14419 0.10578 0.0
C546 C 0.28319 0.08056 0.10384 0.0
O547 O 0.30557 0.09284 0.10608 0.0
N548 N 0.28979 0.16084 0.11545 0.0
C549 C 0.31613 0.20551 0.13132 0.0
C550 C 0.28965 0.20226 0.13702 0.0
C551 C 0.27688 0.17968 0.12911 0.0
C552 C 0.31561 0.16357 0.10986 0.0
C553 C 0.32921 0.18585 0.1176 0.0
H554 H 0.25696 0.17699 0.13501 0.0
H555 H 0.32578 0.14811 0.09974 0.0
H556 H 0.2311 0.10606 0.13907 0.0
H557 H 0.27935 0.11464 0.20461 0.0
H558 H 0.27419 0.17042 0.01795 0.0
H559 H 0.27913 0.2166 0.1484 0.0
H560 H 0.34977 0.18758 0.11315 0.0
C561 C 0.28165 0.86059 0.84269 0.0
C562 C 0.26375 0.86598 0.82332 0.0
N563 N 0.24334 0.87824 0.83432 0.0
N564 N 0.27206 0.86895 0.86573 0.0
C565 C 0.24878 0.87969 0.85984 0.0
H566 H 0.30025 0.85102 0.84014 0.0
Co567 Co 0.28498 0.86769 0.89959 0.0
C568 C 0.24732 0.83321 0.92652 0.0
O569 O 0.26593 0.82585 0.94249 0.0
N570 N 0.29704 0.86773 0.93437 0.0
C571 C 0.32062 0.86948 0.97075 0.0
C572 C 0.32056 0.86226 0.94496 0.0
C573 C 0.28326 0.87832 0.95429 0.0
N574 N 0.29717 0.87963 0.97645 0.0
O575 O 0.27285 0.90265 0.9045 0.0
H576 H 0.33727 0.85463 0.93484 0.0
H577 H 0.26368 0.88594 0.9523 0.0
O578 O 0.25184 0.85168 0.91033 0.0
C579 C 0.29256 0.9162 0.89769 0.0
O580 O 0.31439 0.90375 0.89263 0.0
N581 N 0.2998 0.83473 0.89256 0.0
C582 C 0.32698 0.79104 0.87458 0.0
C583 C 0.29973 0.79066 0.87665 0.0
C584 C 0.28647 0.81286 0.88521 0.0
C585 C 0.32611 0.83582 0.88908 0.0
C586 C 0.34015 0.81408 0.88086 0.0
H587 H 0.26554 0.81289 0.88389 0.0
H588 H 0.3362 0.85412 0.8916 0.0
H589 H 0.23573 0.88808 0.87415 0.0
H590 H 0.26561 0.86145 0.80279 0.0
H591 H 0.33685 0.86804 0.98414 0.0
H592 H 0.2886 0.77391 0.87027 0.0
H593 H 0.36109 0.81559 0.87864 0.0
C594 C 0.11854 0.27957 0.84842 0.0
C595 C 0.10979 0.26317 0.82901 0.0
N596 N 0.11181 0.23854 0.83775 0.0
N597 N 0.12596 0.26514 0.86909 0.0
C598 C 0.1217 0.24021 0.86194 0.0
H599 H 0.11778 0.30063 0.84823 0.0
Co600 Co 0.13078 0.27713 0.90258 0.0
C601 C 0.16818 0.24095 0.92728 0.0
O602 O 0.17672 0.2606 0.94125 0.0
N603 N 0.13411 0.28915 0.93733 0.0
C604 C 0.13558 0.31313 0.97346 0.0
C605 C 0.14146 0.31241 0.94734 0.0
C606 C 0.1241 0.27608 0.958 0.0
N607 N 0.1246 0.29029 0.97998 0.0
O608 O 0.09708 0.26369 0.91068 0.0
H609 H 0.14928 0.32862 0.93661 0.0
H610 H 0.1152 0.25701 0.95665 0.0
O611 O 0.14872 0.24438 0.91195 0.0
C612 C 0.08178 0.28324 0.90991 0.0
O613 O 0.09192 0.30657 0.90695 0.0
N614 N 0.16237 0.29252 0.89209 0.0
C615 C 0.2042 0.31935 0.86993 0.0
C616 C 0.20466 0.29214 0.87202 0.0
C617 C 0.1833 0.27905 0.88258 0.0
C618 C 0.16098 0.31881 0.88864 0.0
C619 C 0.18198 0.33274 0.87846 0.0
H620 H 0.18319 0.25809 0.88161 0.0
H621 H 0.14313 0.32902 0.89326 0.0
H622 H 0.12357 0.22371 0.87493 0.0
H623 H 0.10162 0.26887 0.81042 0.0
H624 H 0.1381 0.32956 0.98646 0.0
H625 H 0.22093 0.28096 0.86454 0.0
H626 H 0.18061 0.35374 0.87694 0.0
C627 C 0.7113 0.10966 0.84613 0.0
C628 C 0.72625 0.10081 0.82548 0.0
N629 N 0.75124 0.10696 0.83048 0.0
N630 N 0.72707 0.12101 0.86387 0.0
C631 C 0.75118 0.11884 0.85373 0.0
H632 H 0.69059 0.10674 0.84873 0.0
Co633 Co 0.72031 0.13061 0.89814 0.0
C634 C 0.77449 0.15047 0.91053 0.0
O635 O 0.78176 0.13176 0.92641 0.0
N636 N 0.71473 0.13998 0.9331 0.0
C637 C 0.71778 0.16197 0.97041 0.0
C638 C 0.71852 0.16383 0.94366 0.0
C639 C 0.71138 0.12411 0.95384 0.0
N640 N 0.71328 0.13693 0.97665 0.0
O641 O 0.73593 0.0984 0.90836 0.0
H642 H 0.72309 0.18122 0.93266 0.0
H643 H 0.70937 0.10323 0.95258 0.0
O644 O 0.75225 0.14979 0.89972 0.0
C645 C 0.71718 0.08213 0.90714 0.0
O646 O 0.69343 0.09134 0.90421 0.0
N647 N 0.70336 0.16083 0.88664 0.0
C648 C 0.67686 0.20484 0.86932 0.0
C649 C 0.70241 0.19997 0.86118 0.0
C650 C 0.71517 0.17761 0.86969 0.0
C651 C 0.67822 0.16485 0.89424 0.0
C652 C 0.66456 0.18691 0.88586 0.0
H653 H 0.73453 0.17369 0.86241 0.0
H654 H 0.66877 0.15092 0.90694 0.0
H655 H 0.76885 0.12422 0.86381 0.0
H656 H 0.71948 0.09024 0.80853 0.0
H657 H 0.7211 0.17759 0.9842 0.0
H658 H 0.71225 0.21309 0.84789 0.0
H659 H 0.6447 0.19001 0.89232 0.0
C660 C 0.90013 0.70865 0.83772 0.0
C661 C 0.91068 0.72084 0.81615 0.0
N662 N 0.90786 0.74686 0.819 0.0
N663 N 0.89043 0.72692 0.85384 0.0
C664 C 0.8953 0.74977 0.84184 0.0
H665 H 0.90079 0.68803 0.84204 0.0
Co666 Co 0.88046 0.72411 0.88849 0.0
C667 C 0.86214 0.77817 0.90009 0.0
O668 O 0.87545 0.78041 0.92184 0.0
N669 N 0.8707 0.72242 0.92386 0.0
C670 C 0.84781 0.72742 0.96042 0.0
C671 C 0.84644 0.72549 0.93371 0.0
C672 C 0.88636 0.72251 0.94503 0.0
N673 N 0.87298 0.72554 0.96742 0.0
O674 O 0.91346 0.73862 0.89714 0.0
H675 H 0.82893 0.72758 0.92217 0.0
H676 H 0.90734 0.72201 0.94422 0.0
O677 O 0.86376 0.75747 0.88661 0.0
C678 C 0.9292 0.71944 0.89871 0.0
O679 O 0.91953 0.69573 0.89915 0.0
N680 N 0.84936 0.70787 0.87861 0.0
C681 C 0.80442 0.68109 0.86447 0.0
C682 C 0.8087 0.70656 0.85571 0.0
C683 C 0.83148 0.7195 0.86272 0.0
C684 C 0.8459 0.68281 0.88673 0.0
C685 C 0.82345 0.66899 0.87986 0.0
H686 H 0.83488 0.73865 0.85489 0.0
H687 H 0.86065 0.67357 0.89863 0.0
H688 H 0.89044 0.76833 0.85022 0.0
H689 H 0.92057 0.71129 0.80015 0.0
H690 H 0.83163 0.73045 0.97362 0.0
H691 H 0.79483 0.71615 0.84301 0.0
H692 H 0.82092 0.64913 0.88657 0.0
C693 C 0.71483 0.87577 0.15429 0.0
C694 C 0.72995 0.88366 0.17493 0.0
N695 N 0.75443 0.88746 0.16627 0.0
N696 N 0.72976 0.87448 0.13273 0.0
C697 C 0.75384 0.88167 0.14062 0.0
H698 H 0.69398 0.87274 0.15463 0.0
Co699 Co 0.71734 0.87163 0.09898 0.0
C700 C 0.7499 0.83262 0.07311 0.0
O701 O 0.72887 0.82593 0.06016 0.0
N702 N 0.70479 0.87043 0.06411 0.0
C703 C 0.68066 0.8711 0.02803 0.0
C704 C 0.68101 0.86497 0.05408 0.0
C705 C 0.71847 0.87978 0.04348 0.0
N706 N 0.70416 0.88055 0.02152 0.0
O707 O 0.73206 0.90507 0.09191 0.0
H708 H 0.66432 0.85805 0.06464 0.0
H709 H 0.73823 0.88701 0.04481 0.0
O710 O 0.74914 0.85243 0.08844 0.0
C711 C 0.7129 0.92073 0.09423 0.0
O712 O 0.68957 0.91095 0.09825 0.0
N713 N 0.70073 0.84012 0.10842 0.0
C714 C 0.67341 0.79769 0.12881 0.0
C715 C 0.70067 0.79749 0.12776 0.0
C716 C 0.71396 0.81912 0.11817 0.0
C717 C 0.67435 0.84138 0.1112 0.0
C718 C 0.66018 0.82006 0.12042 0.0
H719 H 0.73489 0.81939 0.12002 0.0
H720 H 0.66425 0.85942 0.10722 0.0
H721 H 0.77004 0.88465 0.12743 0.0
H722 H 0.72324 0.88742 0.19458 0.0
H723 H 0.66415 0.86943 0.015 0.0
H724 H 0.71172 0.78117 0.13535 0.0
H725 H 0.63915 0.82135 0.1214 0.0
C726 C 0.10136 0.71368 0.15266 0.0
C727 C 0.09145 0.72633 0.17416 0.0
N728 N 0.0993 0.75145 0.1736 0.0
N729 N 0.11542 0.73066 0.13852 0.0
C730 C 0.11421 0.75329 0.15197 0.0
H731 H 0.09688 0.69399 0.14665 0.0
Co732 Co 0.12492 0.72649 0.10374 0.0
C733 C 0.14562 0.77853 0.08891 0.0
O734 O 0.13182 0.78009 0.06741 0.0
N735 N 0.13424 0.72312 0.06822 0.0
C736 C 0.15728 0.72615 0.03151 0.0
C737 C 0.15857 0.72518 0.05826 0.0
C738 C 0.11858 0.7227 0.04698 0.0
N739 N 0.13209 0.72461 0.02451 0.0
O740 O 0.09233 0.74184 0.09491 0.0
H741 H 0.17613 0.72729 0.06971 0.0
H742 H 0.09758 0.72257 0.04777 0.0
O743 O 0.14267 0.75926 0.10417 0.0
C744 C 0.07574 0.72335 0.09408 0.0
O745 O 0.08449 0.69927 0.09333 0.0
N746 N 0.15567 0.70966 0.11395 0.0
C747 C 0.20028 0.68253 0.12856 0.0
C748 C 0.19642 0.70826 0.13671 0.0
C749 C 0.17379 0.72138 0.12951 0.0
C750 C 0.15867 0.68433 0.10652 0.0
C751 C 0.18096 0.67032 0.11363 0.0
H752 H 0.17072 0.74079 0.13689 0.0
H753 H 0.14374 0.67503 0.09492 0.0
H754 H 0.12337 0.77098 0.14543 0.0
H755 H 0.07816 0.71793 0.1882 0.0
H756 H 0.17354 0.72831 0.01825 0.0
H757 H 0.21054 0.71796 0.14904 0.0
H758 H 0.18316 0.65027 0.10742 0.0
C759 C 0.87391 0.27949 0.15471 0.0
C760 C 0.88194 0.26244 0.17394 0.0
N761 N 0.8823 0.23825 0.16376 0.0
N762 N 0.86935 0.26592 0.13268 0.0
C763 C 0.87476 0.24095 0.13882 0.0
H764 H 0.87297 0.30049 0.15623 0.0
Co765 Co 0.86495 0.27817 0.09915 0.0
C766 C 0.82855 0.24039 0.07407 0.0
O767 O 0.82048 0.25859 0.058 0.0
N768 N 0.86182 0.2903 0.06449 0.0
C769 C 0.85938 0.31502 0.02893 0.0
C770 C 0.85358 0.31348 0.05502 0.0
C771 C 0.87232 0.27808 0.04353 0.0
N772 N 0.87115 0.29274 0.02182 0.0
O773 O 0.89839 0.26422 0.09133 0.0
H774 H 0.84513 0.3291 0.06617 0.0
H775 H 0.88198 0.25935 0.04446 0.0
O776 O 0.84712 0.24552 0.08994 0.0
C777 C 0.91511 0.28255 0.09209 0.0
O778 O 0.90669 0.3067 0.09334 0.0
N779 N 0.83342 0.29396 0.10934 0.0
C780 C 0.79199 0.32175 0.13103 0.0
C781 C 0.79006 0.29485 0.12694 0.0
C782 C 0.81125 0.28118 0.11674 0.0
C783 C 0.83597 0.31992 0.11438 0.0
C784 C 0.81532 0.33434 0.12465 0.0
H785 H 0.81007 0.26027 0.11639 0.0
H786 H 0.85442 0.32944 0.11075 0.0
H787 H 0.87531 0.2253 0.12471 0.0
H788 H 0.88784 0.26749 0.19355 0.0
H789 H 0.8562 0.33166 0.01636 0.0
H790 H 0.77275 0.28426 0.13277 0.0
H791 H 0.81775 0.35504 0.12794 0.0
C792 C 0.65734 0.78122 0.62067 0.0
C793 C 0.67712 0.76489 0.6126 0.0
N794 N 0.66768 0.74045 0.61214 0.0
N795 N 0.63572 0.76693 0.62504 0.0
C796 C 0.64271 0.74216 0.61973 0.0
H797 H 0.65814 0.80226 0.62166 0.0
Co798 Co 0.602 0.77888 0.62909 0.0
C799 C 0.57714 0.74147 0.66539 0.0
O800 O 0.5616 0.76014 0.67347 0.0
N801 N 0.56709 0.79088 0.63191 0.0
C802 C 0.53094 0.81425 0.63745 0.0
C803 C 0.55713 0.81285 0.64258 0.0
C804 C 0.54621 0.77924 0.62054 0.0
N805 N 0.52411 0.79313 0.62359 0.0
O806 O 0.5949 0.76584 0.59495 0.0
H807 H 0.56776 0.82753 0.65307 0.0
H808 H 0.54733 0.7613 0.60951 0.0
O809 O 0.59256 0.74583 0.64623 0.0
C810 C 0.60081 0.78486 0.58008 0.0
O811 O 0.6037 0.80798 0.59071 0.0
N812 N 0.61192 0.79388 0.66114 0.0
C813 C 0.63589 0.81992 0.70258 0.0
C814 C 0.6328 0.79279 0.70307 0.0
C815 C 0.62135 0.78009 0.68192 0.0
C816 C 0.61605 0.82009 0.65984 0.0
C817 C 0.62713 0.83363 0.68065 0.0
H818 H 0.62194 0.75912 0.68167 0.0
H819 H 0.61119 0.83054 0.64218 0.0
H820 H 0.62928 0.72594 0.61935 0.0
H821 H 0.69654 0.77056 0.60662 0.0
H822 H 0.51792 0.82987 0.6431 0.0
H823 H 0.64036 0.78131 0.7191 0.0
H824 H 0.62922 0.85457 0.6793 0.0
C825 C 0.21552 0.65656 0.61202 0.0
C826 C 0.22741 0.67755 0.59997 0.0
N827 N 0.25219 0.67084 0.59446 0.0
N828 N 0.23303 0.6371 0.6146 0.0
C829 C 0.25479 0.64626 0.603 0.0
H830 H 0.19547 0.65555 0.61844 0.0
Co831 Co 0.2293 0.60246 0.62588 0.0
C832 C 0.27837 0.61915 0.65635 0.0
O833 O 0.279 0.64372 0.64946 0.0
N834 N 0.22665 0.56708 0.63587 0.0
C835 C 0.23414 0.52995 0.65722 0.0
C836 C 0.23293 0.55665 0.65925 0.0
C837 C 0.22353 0.54614 0.62015 0.0
N838 N 0.22851 0.52353 0.63249 0.0
O839 O 0.24674 0.59225 0.59429 0.0
H840 H 0.23742 0.56771 0.67648 0.0
H841 H 0.21908 0.54719 0.59962 0.0
O842 O 0.26122 0.60361 0.64716 0.0
C843 C 0.22808 0.592 0.57781 0.0
O844 O 0.20418 0.59491 0.58661 0.0
N845 N 0.20994 0.61313 0.65561 0.0
C846 C 0.18136 0.62807 0.69937 0.0
C847 C 0.20316 0.64232 0.69154 0.0
C848 C 0.21715 0.63455 0.66967 0.0
C849 C 0.18783 0.59981 0.66224 0.0
C850 C 0.17352 0.60663 0.68448 0.0
H851 H 0.23367 0.6461 0.66406 0.0
H852 H 0.1813 0.58365 0.65041 0.0
H853 H 0.27256 0.63505 0.60104 0.0
H854 H 0.21875 0.6964 0.59619 0.0
H855 H 0.23915 0.51638 0.67258 0.0
H856 H 0.20953 0.65923 0.70246 0.0
H857 H 0.15635 0.59555 0.68976 0.0
C858 C 0.34748 0.21408 0.61493 0.0
C859 C 0.32652 0.2285 0.60612 0.0
N860 N 0.33008 0.25353 0.61333 0.0
N861 N 0.36413 0.23003 0.62747 0.0
C862 C 0.35279 0.25373 0.62639 0.0
H863 H 0.35143 0.19387 0.61046 0.0
Co864 Co 0.39895 0.22375 0.63502 0.0
C865 C 0.41815 0.27582 0.65315 0.0
O866 O 0.44092 0.27451 0.64155 0.0
N867 N 0.43448 0.2182 0.64247 0.0
C868 C 0.47249 0.21958 0.66341 0.0
C869 C 0.44586 0.21923 0.66625 0.0
C870 C 0.45473 0.21756 0.6256 0.0
N871 N 0.47791 0.21856 0.63781 0.0
O872 O 0.40682 0.23716 0.60128 0.0
H873 H 0.43556 0.22148 0.68449 0.0
H874 H 0.45281 0.21833 0.60468 0.0
O875 O 0.40176 0.2574 0.65101 0.0
C876 C 0.40577 0.21825 0.58517 0.0
O877 O 0.40536 0.19438 0.59447 0.0
N878 N 0.38946 0.2088 0.6668 0.0
C879 C 0.37303 0.18169 0.71077 0.0
C880 C 0.3702 0.2088 0.70937 0.0
C881 C 0.37821 0.22203 0.687 0.0
C882 C 0.39252 0.18246 0.66791 0.0
C883 C 0.38448 0.16846 0.68981 0.0
H884 H 0.37471 0.24274 0.68581 0.0
H885 H 0.40096 0.17228 0.65149 0.0
H886 H 0.36172 0.27134 0.63348 0.0
H887 H 0.3111 0.22139 0.59365 0.0
H888 H 0.48674 0.22139 0.67886 0.0
H889 H 0.36101 0.21954 0.72505 0.0
H890 H 0.38693 0.1475 0.69026 0.0
C891 C 0.78312 0.34344 0.63244 0.0
C892 C 0.76797 0.32207 0.62618 0.0
N893 N 0.74609 0.33079 0.61463 0.0
N894 N 0.77025 0.36529 0.62541 0.0
C895 C 0.74791 0.3568 0.61452 0.0
H896 H 0.80157 0.3431 0.64261 0.0
Co897 Co 0.77626 0.40044 0.63143 0.0
C898 C 0.72297 0.41842 0.64803 0.0
O899 O 0.72363 0.44133 0.63665 0.0
N900 N 0.78095 0.43618 0.63764 0.0
C901 C 0.77667 0.47492 0.65672 0.0
C902 C 0.77756 0.44847 0.66074 0.0
C903 C 0.78266 0.45568 0.62 0.0
N904 N 0.7796 0.47926 0.63107 0.0
O905 O 0.76446 0.40716 0.59659 0.0
H906 H 0.77398 0.43884 0.67914 0.0
H907 H 0.78429 0.4528 0.5992 0.0
O908 O 0.74194 0.4027 0.6458 0.0
C909 C 0.784 0.40268 0.58189 0.0
O910 O 0.80683 0.39901 0.59289 0.0
N911 N 0.78986 0.3925 0.66435 0.0
C912 C 0.81563 0.37575 0.70907 0.0
C913 C 0.78867 0.37219 0.70642 0.0
C914 C 0.77612 0.3806 0.68382 0.0
C915 C 0.81599 0.39644 0.66672 0.0
C916 C 0.8293 0.38825 0.68899 0.0
H917 H 0.75566 0.37628 0.68157 0.0
H918 H 0.82666 0.40532 0.65085 0.0
H919 H 0.73246 0.36956 0.60789 0.0
H920 H 0.77221 0.30187 0.63052 0.0
H921 H 0.77321 0.48975 0.67132 0.0
H922 H 0.77758 0.3619 0.72113 0.0
H923 H 0.85016 0.39117 0.69028 0.0
C924 C 0.65568 0.21717 0.37653 0.0
C925 C 0.67701 0.23167 0.38377 0.0
N926 N 0.66913 0.2563 0.38837 0.0
N927 N 0.63446 0.23262 0.37644 0.0
C928 C 0.64325 0.25638 0.38369 0.0
H929 H 0.6554 0.19639 0.37305 0.0
Co930 Co 0.60016 0.22147 0.37445 0.0
C931 C 0.57468 0.25577 0.33647 0.0
O932 O 0.56033 0.23567 0.32978 0.0
N933 N 0.56487 0.21042 0.37403 0.0
C934 C 0.52786 0.18783 0.37579 0.0
C935 C 0.55382 0.18692 0.36939 0.0
C936 C 0.54497 0.22518 0.3833 0.0
N937 N 0.52244 0.21187 0.38451 0.0
O938 O 0.59463 0.23633 0.40799 0.0
H939 H 0.56368 0.16957 0.36303 0.0
H940 H 0.54722 0.24501 0.39012 0.0
O941 O 0.59044 0.25374 0.35584 0.0
C942 C 0.59528 0.21779 0.4245 0.0
O943 O 0.59634 0.1937 0.41588 0.0
N944 N 0.60801 0.20478 0.34259 0.0
C945 C 0.62639 0.17719 0.29945 0.0
C946 C 0.6262 0.20446 0.29945 0.0
C947 C 0.61764 0.21786 0.32144 0.0
C948 C 0.60984 0.1783 0.34353 0.0
C949 C 0.6181 0.16403 0.32189 0.0
H950 H 0.62034 0.23868 0.32186 0.0
H951 H 0.60607 0.16819 0.36161 0.0
H952 H 0.63059 0.27283 0.38747 0.0
H953 H 0.69664 0.22443 0.3865 0.0
H954 H 0.51415 0.17182 0.37498 0.0
H955 H 0.63381 0.21538 0.28306 0.0
H956 H 0.61857 0.14297 0.32299 0.0
C957 C 0.78738 0.65069 0.38345 0.0
C958 C 0.77129 0.67026 0.39254 0.0
N959 N 0.74665 0.6641 0.38611 0.0
N960 N 0.77289 0.6325 0.37114 0.0
C961 C 0.74816 0.64133 0.37333 0.0
H962 H 0.80792 0.64879 0.38769 0.0
Co963 Co 0.78232 0.59808 0.36389 0.0
C964 C 0.72786 0.58247 0.34226 0.0
O965 O 0.72046 0.56266 0.35667 0.0
N966 N 0.79142 0.56334 0.35775 0.0
C967 C 0.81562 0.52825 0.35042 0.0
C968 C 0.81352 0.55462 0.34647 0.0
C969 C 0.78038 0.54185 0.36834 0.0
N970 N 0.79487 0.5203 0.36436 0.0
O971 O 0.76829 0.58934 0.39687 0.0
H972 H 0.82817 0.56681 0.33752 0.0
H973 H 0.76333 0.54235 0.38073 0.0
O974 O 0.74973 0.59328 0.34638 0.0
C975 C 0.78673 0.5881 0.41341 0.0
O976 O 0.81082 0.5876 0.40472 0.0
N977 N 0.79774 0.60805 0.33222 0.0
C978 C 0.82342 0.62564 0.28767 0.0
C979 C 0.8011 0.61002 0.28562 0.0
C980 C 0.78885 0.60095 0.30814 0.0
C981 C 0.82003 0.62225 0.33458 0.0
C982 C 0.83311 0.63138 0.31257 0.0
H983 H 0.77221 0.58829 0.30601 0.0
H984 H 0.82784 0.62637 0.35367 0.0
H985 H 0.73107 0.63022 0.36814 0.0
H986 H 0.77708 0.68695 0.40405 0.0
H987 H 0.83194 0.51611 0.34482 0.0
H988 H 0.79277 0.60528 0.26683 0.0
H989 H 0.85061 0.64291 0.31502 0.0
C990 C 0.3443 0.77844 0.37121 0.0
C991 C 0.32322 0.76343 0.37845 0.0
N992 N 0.33155 0.73877 0.38154 0.0
N993 N 0.36561 0.76312 0.36987 0.0
C994 C 0.35721 0.73908 0.37641 0.0
H995 H 0.34437 0.79932 0.36843 0.0
Co996 Co 0.3999 0.77343 0.36652 0.0
C997 C 0.42492 0.73314 0.33333 0.0
O998 O 0.4422 0.75045 0.3258 0.0
N999 N 0.43521 0.78376 0.36449 0.0
C1000 C 0.47245 0.80592 0.36226 0.0
C1001 C 0.44644 0.80599 0.35582 0.0
C1002 C 0.45497 0.77059 0.37609 0.0
N1003 N 0.47764 0.78361 0.3749 0.0
O1004 O 0.40572 0.76165 0.40138 0.0
H1005 H 0.43659 0.82199 0.34649 0.0
H1006 H 0.45258 0.7522 0.38614 0.0
O1007 O 0.40841 0.73926 0.35106 0.0
C1008 C 0.40476 0.78215 0.41538 0.0
O1009 O 0.40181 0.80476 0.40371 0.0
N1010 N 0.39197 0.78753 0.33348 0.0
C1011 C 0.37285 0.81332 0.28951 0.0
C1012 C 0.37526 0.78614 0.28972 0.0
C1013 C 0.38418 0.77356 0.31215 0.0
C1014 C 0.38851 0.81387 0.33391 0.0
C1015 C 0.37939 0.82722 0.31203 0.0
H1016 H 0.38303 0.75264 0.31269 0.0
H1017 H 0.39206 0.82454 0.35173 0.0
H1018 H 0.36992 0.72253 0.37927 0.0
H1019 H 0.30356 0.77018 0.38206 0.0
H1020 H 0.48631 0.82144 0.3588 0.0
H1021 H 0.36892 0.7746 0.27322 0.0
H1022 H 0.3769 0.84817 0.31293 0.0
C1023 C 0.2027 0.33658 0.39412 0.0
C1024 C 0.21791 0.31625 0.40354 0.0
N1025 N 0.24303 0.32352 0.40169 0.0
N1026 N 0.21852 0.3561 0.38626 0.0
C1027 C 0.24277 0.34751 0.39154 0.0
H1028 H 0.18165 0.33721 0.3933 0.0
Co1029 Co 0.2134 0.39018 0.37441 0.0
C1030 C 0.26677 0.40023 0.35187 0.0
O1031 O 0.27123 0.42072 0.36654 0.0
N1032 N 0.21031 0.42509 0.3631 0.0
C1033 C 0.2162 0.46092 0.33926 0.0
C1034 C 0.21445 0.43416 0.3387 0.0
C1035 C 0.2094 0.4468 0.37803 0.0
N1036 N 0.21333 0.46873 0.36412 0.0
O1037 O 0.22967 0.40109 0.40625 0.0
H1038 H 0.21749 0.422 0.32174 0.0
H1039 H 0.20759 0.4467 0.399 0.0
O1040 O 0.24546 0.38775 0.35439 0.0
C1041 C 0.21005 0.40015 0.42163 0.0
O1042 O 0.18668 0.4 0.41106 0.0
N1043 N 0.19484 0.37805 0.34488 0.0
C1044 C 0.16636 0.35913 0.30266 0.0
C1045 C 0.18898 0.34644 0.31089 0.0
C1046 C 0.20285 0.35615 0.33206 0.0
C1047 C 0.17205 0.38994 0.33786 0.0
C1048 C 0.15776 0.38111 0.31634 0.0
H1049 H 0.21957 0.34544 0.3387 0.0
H1050 H 0.1649 0.40641 0.3489 0.0
H1051 H 0.26027 0.35886 0.38859 0.0
H1052 H 0.21114 0.29765 0.41081 0.0
H1053 H 0.21987 0.47355 0.32277 0.0
H1054 H 0.19587 0.32909 0.30101 0.0
H1055 H 0.14001 0.39106 0.3107 0.0
C1056 C 0.63674 0.65985 0.78015 0.0
C1057 C 0.62753 0.68056 0.76577 0.0
N1058 N 0.6192 0.6716 0.7425 0.0
N1059 N 0.63444 0.6379 0.76595 0.0
C1060 C 0.62372 0.6457 0.74314 0.0
H1061 H 0.64358 0.66067 0.80005 0.0
Co1062 Co 0.63892 0.60342 0.7764 0.0
C1063 C 0.67475 0.58037 0.73719 0.0
O1064 O 0.68204 0.56265 0.75415 0.0
N1065 N 0.64211 0.56795 0.78657 0.0
C1066 C 0.6467 0.53071 0.80844 0.0
C1067 C 0.65251 0.55684 0.80812 0.0
C1068 C 0.63032 0.54784 0.77405 0.0
N1069 N 0.63282 0.52518 0.78698 0.0
O1070 O 0.60521 0.59633 0.76271 0.0
H1071 H 0.66274 0.56678 0.82348 0.0
H1072 H 0.61903 0.54992 0.75637 0.0
O1073 O 0.65629 0.59614 0.74306 0.0
C1074 C 0.58902 0.59632 0.78154 0.0
O1075 O 0.59813 0.59735 0.80545 0.0
N1076 N 0.67089 0.61253 0.79225 0.0
C1077 C 0.71357 0.63149 0.82003 0.0
C1078 C 0.71448 0.62951 0.79287 0.0
C1079 C 0.69266 0.62074 0.77929 0.0
C1080 C 0.66932 0.61558 0.81862 0.0
C1081 C 0.69059 0.62461 0.833 0.0
H1082 H 0.69307 0.62215 0.75843 0.0
H1083 H 0.65121 0.61128 0.82852 0.0
H1084 H 0.61783 0.63228 0.728 0.0
H1085 H 0.62643 0.70061 0.77223 0.0
H1086 H 0.65121 0.51703 0.82386 0.0
H1087 H 0.73148 0.63594 0.78212 0.0
H1088 H 0.68896 0.62655 0.85395 0.0
C1089 C 0.3484 0.63123 0.78879 0.0
C1090 C 0.32667 0.62558 0.77393 0.0
N1091 N 0.33438 0.61245 0.75247 0.0
N1092 N 0.36971 0.62201 0.77647 0.0
C1093 C 0.36032 0.61 0.75508 0.0
H1094 H 0.34872 0.64367 0.80579 0.0
Co1095 Co 0.40517 0.6302 0.77839 0.0
C1096 C 0.41153 0.6464 0.72153 0.0
O1097 O 0.43299 0.63361 0.71595 0.0
N1098 N 0.44069 0.63846 0.77869 0.0
C1099 C 0.47823 0.65853 0.77047 0.0
C1100 C 0.4516 0.66137 0.77168 0.0
C1101 C 0.46111 0.62214 0.78184 0.0
N1102 N 0.4841 0.6338 0.77686 0.0
O1103 O 0.41266 0.59605 0.76526 0.0
H1104 H 0.44087 0.67873 0.76647 0.0
H1105 H 0.45927 0.60167 0.78623 0.0
O1106 O 0.40183 0.64502 0.74426 0.0
C1107 C 0.4125 0.58128 0.78524 0.0
O1108 O 0.41119 0.59226 0.80836 0.0
N1109 N 0.39727 0.66242 0.79389 0.0
C1110 C 0.3792 0.70461 0.82295 0.0
C1111 C 0.37881 0.7053 0.79565 0.0
C1112 C 0.38798 0.68405 0.78145 0.0
C1113 C 0.3991 0.66193 0.82037 0.0
C1114 C 0.39019 0.68287 0.83534 0.0
H1115 H 0.38692 0.68508 0.76059 0.0
H1116 H 0.40658 0.6447 0.82994 0.0
H1117 H 0.37273 0.60208 0.74002 0.0
H1118 H 0.30732 0.63324 0.77728 0.0
H1119 H 0.49215 0.67333 0.7648 0.0
H1120 H 0.37058 0.72176 0.7853 0.0
H1121 H 0.39147 0.68184 0.85638 0.0
C1122 C 0.37823 0.34504 0.78318 0.0
C1123 C 0.38684 0.32537 0.76701 0.0
N1124 N 0.38766 0.33477 0.74252 0.0
N1125 N 0.37361 0.3665 0.76875 0.0
C1126 C 0.37944 0.35959 0.74407 0.0
H1127 H 0.37689 0.34425 0.8042 0.0
Co1128 Co 0.36903 0.40001 0.78075 0.0
C1129 C 0.33279 0.42517 0.74372 0.0
O1130 O 0.32434 0.43954 0.76313 0.0
N1131 N 0.36593 0.43478 0.79286 0.0
C1132 C 0.36391 0.47083 0.81696 0.0
C1133 C 0.35769 0.44482 0.81583 0.0
C1134 C 0.37682 0.45537 0.78036 0.0
N1135 N 0.37602 0.47729 0.79468 0.0
O1136 O 0.40323 0.40771 0.76823 0.0
H1137 H 0.34893 0.43418 0.83161 0.0
H1138 H 0.38652 0.454 0.76167 0.0
O1139 O 0.35206 0.40968 0.74751 0.0
C1140 C 0.41804 0.40575 0.78808 0.0
O1141 O 0.40719 0.40207 0.811 0.0
N1142 N 0.3368 0.38996 0.79521 0.0
C1143 C 0.29313 0.36937 0.82035 0.0
C1144 C 0.29421 0.37068 0.79309 0.0
C1145 C 0.3164 0.38054 0.78091 0.0
C1146 C 0.33696 0.38662 0.82156 0.0
C1147 C 0.31508 0.37712 0.83463 0.0
H1148 H 0.31758 0.37907 0.76002 0.0
H1149 H 0.35446 0.39082 0.83251 0.0
H1150 H 0.3796 0.37302 0.72781 0.0
H1151 H 0.39273 0.30597 0.77285 0.0
H1152 H 0.36082 0.48377 0.83334 0.0
H1153 H 0.27853 0.36307 0.7812 0.0
H1154 H 0.31553 0.37543 0.85566 0.0
C1155 C 0.65745 0.38065 0.7804 0.0
C1156 C 0.6766 0.38856 0.76324 0.0
N1157 N 0.66617 0.38902 0.7392 0.0
N1158 N 0.6353 0.37619 0.76699 0.0
C1159 C 0.64125 0.38157 0.74196 0.0
H1160 H 0.65913 0.37963 0.80138 0.0
Co1161 Co 0.60215 0.3719 0.78016 0.0
C1162 C 0.5762 0.33386 0.74497 0.0
O1163 O 0.56115 0.32679 0.76443 0.0
N1164 N 0.56786 0.36901 0.79347 0.0
C1165 C 0.53286 0.36671 0.81898 0.0
C1166 C 0.55904 0.36158 0.81718 0.0
C1167 C 0.54642 0.37859 0.7813 0.0
N1168 N 0.525 0.37741 0.79642 0.0
O1169 O 0.59374 0.40539 0.76605 0.0
H1170 H 0.5706 0.35402 0.83293 0.0
H1171 H 0.54676 0.38738 0.76213 0.0
O1172 O 0.59177 0.35321 0.748 0.0
C1173 C 0.59452 0.42195 0.78455 0.0
O1174 O 0.59726 0.41332 0.80851 0.0
N1175 N 0.61286 0.34036 0.79588 0.0
C1176 C 0.63128 0.29685 0.82268 0.0
C1177 C 0.62887 0.2964 0.79553 0.0
C1178 C 0.62047 0.31865 0.78242 0.0
C1179 C 0.61756 0.34187 0.82199 0.0
C1180 C 0.62628 0.32016 0.83593 0.0
H1181 H 0.62132 0.31855 0.76146 0.0
H1182 H 0.6146 0.36014 0.83207 0.0
H1183 H 0.62714 0.38206 0.72635 0.0
H1184 H 0.69632 0.39428 0.76805 0.0
H1185 H 0.52064 0.36361 0.83591 0.0
H1186 H 0.63438 0.27929 0.78444 0.0
H1187 H 0.62917 0.3216 0.85679 0.0
C1188 C 0.62276 0.339 0.21678 0.0
C1189 C 0.61424 0.31766 0.23081 0.0
N1190 N 0.60554 0.32593 0.25424 0.0
N1191 N 0.61946 0.36053 0.23142 0.0
C1192 C 0.60862 0.35195 0.2538 0.0
H1193 H 0.63135 0.33875 0.19753 0.0
Co1194 Co 0.6282 0.3953 0.22629 0.0
C1195 C 0.64693 0.40832 0.28052 0.0
O1196 O 0.63531 0.43102 0.2828 0.0
N1197 N 0.637 0.43062 0.22248 0.0
C1198 C 0.65804 0.46834 0.22645 0.0
C1199 C 0.66038 0.44164 0.22755 0.0
C1200 C 0.62096 0.45101 0.21795 0.0
N1201 N 0.6332 0.47408 0.22039 0.0
O1202 O 0.59474 0.40449 0.23978 0.0
H1203 H 0.67773 0.431 0.233 0.0
H1204 H 0.60032 0.44929 0.21435 0.0
O1205 O 0.64422 0.39499 0.25987 0.0
C1206 C 0.57978 0.40336 0.21999 0.0
O1207 O 0.59033 0.39943 0.19696 0.0
N1208 N 0.65986 0.38549 0.21083 0.0
C1209 C 0.70414 0.3697 0.18369 0.0
C1210 C 0.70098 0.36334 0.21004 0.0
C1211 C 0.67862 0.37128 0.22322 0.0
C1212 C 0.66246 0.39168 0.18513 0.0
C1213 C 0.68453 0.38396 0.17113 0.0
H1214 H 0.67614 0.36518 0.24307 0.0
H1215 H 0.64714 0.4024 0.17539 0.0
H1216 H 0.60298 0.36485 0.26945 0.0
H1217 H 0.61506 0.29755 0.2245 0.0
H1218 H 0.67323 0.48245 0.23036 0.0
H1219 H 0.71527 0.35156 0.22018 0.0
H1220 H 0.68618 0.38896 0.15068 0.0
C1221 C 0.6555 0.63004 0.21472 0.0
C1222 C 0.6762 0.62451 0.23089 0.0
N1223 N 0.66663 0.61732 0.25426 0.0
N1224 N 0.63311 0.62667 0.22805 0.0
C1225 C 0.64054 0.61866 0.25199 0.0
H1226 H 0.6567 0.63567 0.19445 0.0
Co1227 Co 0.5992 0.62916 0.21601 0.0
C1228 C 0.57259 0.66358 0.25385 0.0
O1229 O 0.55784 0.67221 0.2348 0.0
N1230 N 0.56435 0.63035 0.20398 0.0
C1231 C 0.5285 0.63066 0.17955 0.0
C1232 C 0.55453 0.63662 0.18032 0.0
C1233 C 0.54364 0.62046 0.21714 0.0
N1234 N 0.52174 0.62056 0.20271 0.0
O1235 O 0.59332 0.59493 0.22887 0.0
H1236 H 0.56531 0.64384 0.16388 0.0
H1237 H 0.54488 0.61229 0.23655 0.0
O1238 O 0.58887 0.64518 0.24929 0.0
C1239 C 0.59471 0.57845 0.21037 0.0
O1240 O 0.59629 0.58712 0.18632 0.0
N1241 N 0.60721 0.66204 0.20152 0.0
C1242 C 0.62503 0.70693 0.1764 0.0
C1243 C 0.62353 0.70585 0.20365 0.0
C1244 C 0.61506 0.6831 0.21583 0.0
C1245 C 0.61074 0.66206 0.17519 0.0
C1246 C 0.61882 0.68449 0.16213 0.0
H1247 H 0.61653 0.68209 0.23673 0.0
H1248 H 0.60818 0.64422 0.1643 0.0
H1249 H 0.62706 0.61366 0.26743 0.0
H1250 H 0.69664 0.62507 0.22572 0.0
H1251 H 0.51564 0.63279 0.16296 0.0
H1252 H 0.63009 0.72199 0.21556 0.0
H1253 H 0.62082 0.68404 0.14113 0.0
C1254 C 0.37122 0.65709 0.21319 0.0
C1255 C 0.3801 0.67696 0.22883 0.0
N1256 N 0.38435 0.66729 0.25288 0.0
N1257 N 0.3698 0.63508 0.22742 0.0
C1258 C 0.37785 0.64189 0.25152 0.0
H1259 H 0.36756 0.65824 0.19247 0.0
Co1260 Co 0.36564 0.60162 0.21505 0.0
C1261 C 0.32704 0.5766 0.2497 0.0
O1262 O 0.32081 0.5611 0.23034 0.0
N1263 N 0.36296 0.56697 0.20251 0.0
C1264 C 0.36129 0.53104 0.17825 0.0
C1265 C 0.35587 0.55722 0.17905 0.0
C1266 C 0.37258 0.54606 0.21554 0.0
N1267 N 0.37178 0.52412 0.20121 0.0
O1268 O 0.39901 0.59335 0.22947 0.0
H1269 H 0.34828 0.56807 0.16283 0.0
H1270 H 0.38106 0.54712 0.23482 0.0
O1271 O 0.34654 0.5921 0.24734 0.0
C1272 C 0.41494 0.59476 0.21047 0.0
O1273 O 0.40557 0.59877 0.18696 0.0
N1274 N 0.33426 0.6121 0.1988 0.0
C1275 C 0.29161 0.63272 0.17211 0.0
C1276 C 0.2916 0.63139 0.19932 0.0
C1277 C 0.31345 0.62184 0.21231 0.0
C1278 C 0.33538 0.61537 0.17244 0.0
C1279 C 0.31401 0.62501 0.15857 0.0
H1280 H 0.314 0.62365 0.23322 0.0
H1281 H 0.35327 0.61117 0.16214 0.0
H1282 H 0.38097 0.62802 0.2671 0.0
H1283 H 0.38416 0.69674 0.22273 0.0
H1284 H 0.35848 0.51818 0.16176 0.0
H1285 H 0.27525 0.63873 0.2105 0.0
H1286 H 0.31515 0.62683 0.13757 0.0
C1287 C 0.33968 0.36893 0.2199 0.0
C1288 C 0.31909 0.37343 0.23652 0.0
N1289 N 0.32878 0.38017 0.25996 0.0
N1290 N 0.36215 0.3724 0.23307 0.0
C1291 C 0.35483 0.37972 0.25726 0.0
H1292 H 0.33832 0.36331 0.19964 0.0
Co1293 Co 0.39612 0.36914 0.22137 0.0
C1294 C 0.42153 0.33398 0.25958 0.0
O1295 O 0.43718 0.32583 0.24102 0.0
N1296 N 0.43108 0.36708 0.20983 0.0
C1297 C 0.46743 0.36554 0.18619 0.0
C1298 C 0.44138 0.35947 0.18676 0.0
C1299 C 0.45148 0.37764 0.22289 0.0
N1300 N 0.47361 0.377 0.20887 0.0
O1301 O 0.40264 0.40355 0.23396 0.0
H1302 H 0.43093 0.3511 0.17065 0.0
H1303 H 0.4499 0.38665 0.2419 0.0
O1304 O 0.40553 0.35256 0.25474 0.0
C1305 C 0.40049 0.41785 0.21375 0.0
O1306 O 0.39697 0.40643 0.19109 0.0
N1307 N 0.38752 0.33667 0.20644 0.0
C1308 C 0.36723 0.29409 0.1794 0.0
C1309 C 0.37026 0.29316 0.20651 0.0
C1310 C 0.37976 0.31493 0.21977 0.0
C1311 C 0.3836 0.33814 0.1802 0.0
C1312 C 0.3741 0.31692 0.16619 0.0
H1313 H 0.37912 0.31466 0.24074 0.0
H1314 H 0.38704 0.35634 0.17015 0.0
H1315 H 0.36837 0.38431 0.27275 0.0
H1316 H 0.29859 0.37176 0.23181 0.0
H1317 H 0.48069 0.3625 0.17005 0.0
H1318 H 0.364 0.27625 0.2175 0.0
H1319 H 0.37154 0.31859 0.14531 0.0
C1320 C 0.79404 0.61756 0.64692 0.0
C1321 C 0.78195 0.60897 0.66943 0.0
N1322 N 0.75604 0.61114 0.66601 0.0
N1323 N 0.77564 0.62483 0.62961 0.0
C1324 C 0.7528 0.62055 0.64183 0.0
H1325 H 0.81473 0.61726 0.64292 0.0
Co1326 Co 0.77905 0.63208 0.59441 0.0
C1327 C 0.72586 0.65113 0.57961 0.0
O1328 O 0.72517 0.63934 0.55691 0.0
N1329 N 0.78194 0.63905 0.55862 0.0
C1330 C 0.77836 0.6582 0.51983 0.0
C1331 C 0.77848 0.66215 0.54638 0.0
C1332 C 0.78438 0.62158 0.5391 0.0
N1333 N 0.78214 0.63265 0.51545 0.0
O1334 O 0.76445 0.59869 0.58777 0.0
H1335 H 0.77483 0.68048 0.55613 0.0
H1336 H 0.78631 0.60085 0.54192 0.0
O1337 O 0.74543 0.6486 0.59457 0.0
C1338 C 0.78288 0.58209 0.58906 0.0
O1339 O 0.807 0.59071 0.5895 0.0
N1340 N 0.79504 0.66374 0.60236 0.0
C1341 C 0.82353 0.70722 0.61763 0.0
C1342 C 0.79703 0.70514 0.62382 0.0
C1343 C 0.78315 0.68306 0.61629 0.0
C1344 C 0.82071 0.66555 0.59585 0.0
C1345 C 0.83537 0.68726 0.60322 0.0
H1346 H 0.76316 0.68119 0.62257 0.0
H1347 H 0.82995 0.64977 0.58536 0.0
H1348 H 0.73395 0.62244 0.63261 0.0
H1349 H 0.79135 0.60123 0.68666 0.0
H1350 H 0.77518 0.67282 0.50495 0.0
H1351 H 0.78739 0.71998 0.63536 0.0
H1352 H 0.85581 0.68825 0.59808 0.0
C1353 C 0.78005 0.36483 0.34153 0.0
C1354 C 0.7621 0.37058 0.32235 0.0
N1355 N 0.7409 0.38074 0.33396 0.0
N1356 N 0.7697 0.37082 0.36498 0.0
C1357 C 0.74596 0.38072 0.35959 0.0
H1358 H 0.79907 0.35628 0.33855 0.0
Co1359 Co 0.7823 0.36661 0.39858 0.0
C1360 C 0.74312 0.3324 0.42415 0.0
O1361 O 0.76131 0.32354 0.43982 0.0
N1362 N 0.79445 0.36336 0.43326 0.0
C1363 C 0.81572 0.35458 0.47003 0.0
C1364 C 0.81559 0.35135 0.44346 0.0
C1365 C 0.7824 0.37415 0.45418 0.0
N1366 N 0.79473 0.36876 0.47669 0.0
O1367 O 0.77077 0.40126 0.40603 0.0
H1368 H 0.83021 0.34077 0.43278 0.0
H1369 H 0.76442 0.38512 0.45302 0.0
O1370 O 0.74863 0.35086 0.40827 0.0
C1371 C 0.79087 0.41545 0.40264 0.0
O1372 O 0.81337 0.4037 0.39913 0.0
N1373 N 0.79615 0.33393 0.38891 0.0
C1374 C 0.82145 0.2918 0.36552 0.0
C1375 C 0.79453 0.29114 0.36992 0.0
C1376 C 0.78211 0.31268 0.38102 0.0
C1377 C 0.82225 0.33504 0.38406 0.0
C1378 C 0.8354 0.31403 0.37291 0.0
H1379 H 0.76115 0.31274 0.3814 0.0
H1380 H 0.83286 0.35276 0.38826 0.0
H1381 H 0.73224 0.38713 0.37428 0.0
H1382 H 0.76421 0.36723 0.30163 0.0
H1383 H 0.83029 0.34727 0.48343 0.0
H1384 H 0.78297 0.27469 0.36351 0.0
H1385 H 0.85619 0.31541 0.36955 0.0
C1386 C 0.61097 0.77988 0.34544 0.0
C1387 C 0.60018 0.76715 0.32435 0.0
N1388 N 0.60084 0.74134 0.32915 0.0
N1389 N 0.61843 0.76206 0.36322 0.0
C1390 C 0.61204 0.73881 0.3527 0.0
H1391 H 0.61252 0.80074 0.34805 0.0
Co1392 Co 0.62964 0.76753 0.39707 0.0
C1393 C 0.65134 0.71624 0.41324 0.0
O1394 O 0.64066 0.71683 0.43649 0.0
N1395 N 0.64083 0.77239 0.43185 0.0
C1396 C 0.66571 0.77183 0.46743 0.0
C1397 C 0.66562 0.77072 0.44066 0.0
C1398 C 0.6263 0.77466 0.45377 0.0
N1399 N 0.64092 0.77432 0.4756 0.0
O1400 O 0.59713 0.75352 0.40838 0.0
H1401 H 0.68253 0.76746 0.4285 0.0
H1402 H 0.60532 0.776 0.45406 0.0
O1403 O 0.64659 0.73417 0.39683 0.0
C1404 C 0.58172 0.77303 0.40896 0.0
O1405 O 0.59177 0.79647 0.40654 0.0
N1406 N 0.66014 0.78321 0.38448 0.0
C1407 C 0.70276 0.81037 0.3646 0.0
C1408 C 0.69937 0.78384 0.35907 0.0
C1409 C 0.67777 0.77064 0.36898 0.0
C1410 C 0.66281 0.80912 0.38964 0.0
C1411 C 0.68406 0.82311 0.37992 0.0
H1412 H 0.67501 0.75049 0.36358 0.0
H1413 H 0.64825 0.81898 0.40127 0.0
H1414 H 0.61437 0.72035 0.36263 0.0
H1415 H 0.59239 0.77613 0.30692 0.0
H1416 H 0.68261 0.76984 0.4799 0.0
H1417 H 0.71297 0.77354 0.34663 0.0
H1418 H 0.68591 0.84366 0.38436 0.0
C1419 C 0.20813 0.61081 0.34288 0.0
C1420 C 0.22006 0.60239 0.3205 0.0
N1421 N 0.2459 0.60728 0.32222 0.0
N1422 N 0.22622 0.62063 0.35899 0.0
C1423 C 0.24901 0.61824 0.34603 0.0
H1424 H 0.18795 0.60773 0.34814 0.0
Co1425 Co 0.21961 0.62514 0.39394 0.0
C1426 C 0.26075 0.6595 0.41478 0.0
O1427 O 0.24335 0.66856 0.43122 0.0
N1428 N 0.21245 0.62798 0.42998 0.0
C1429 C 0.19332 0.63132 0.46877 0.0
C1430 C 0.19105 0.63673 0.44267 0.0
C1431 C 0.22737 0.61729 0.44902 0.0
N1432 N 0.21617 0.61922 0.47264 0.0
O1433 O 0.2325 0.59076 0.39928 0.0
H1434 H 0.17411 0.64541 0.43393 0.0
H1435 H 0.2456 0.60727 0.44548 0.0
O1436 O 0.25441 0.6409 0.39927 0.0
C1437 C 0.21368 0.57462 0.4005 0.0
O1438 O 0.18985 0.58377 0.40262 0.0
N1439 N 0.2049 0.65804 0.3863 0.0
C1440 C 0.17937 0.7032 0.36971 0.0
C1441 C 0.20652 0.70115 0.36809 0.0
C1442 C 0.21883 0.67823 0.37586 0.0
C1443 C 0.17835 0.65891 0.38586 0.0
C1444 C 0.16516 0.68152 0.37829 0.0
H1445 H 0.23935 0.67642 0.37195 0.0
H1446 H 0.16728 0.64169 0.39083 0.0
H1447 H 0.26765 0.62274 0.35464 0.0
H1448 H 0.21039 0.59143 0.30538 0.0
H1449 H 0.17884 0.63505 0.48367 0.0
H1450 H 0.21811 0.71668 0.35971 0.0
H1451 H 0.14407 0.68186 0.37872 0.0
C1452 C 0.37848 0.21637 0.34787 0.0
C1453 C 0.38709 0.23017 0.32647 0.0
N1454 N 0.38965 0.25542 0.33331 0.0
N1455 N 0.37562 0.23292 0.36803 0.0
C1456 C 0.38264 0.25647 0.35861 0.0
H1457 H 0.3752 0.19558 0.3489 0.0
Co1458 Co 0.36801 0.22554 0.40264 0.0
C1459 C 0.34166 0.27425 0.42182 0.0
O1460 O 0.35216 0.274 0.44516 0.0
N1461 N 0.36051 0.21878 0.43807 0.0
C1462 C 0.33952 0.21808 0.47612 0.0
C1463 C 0.3367 0.21841 0.44945 0.0
C1464 C 0.37739 0.21791 0.45833 0.0
N1465 N 0.36514 0.2179 0.48148 0.0
O1466 O 0.4003 0.24174 0.41171 0.0
H1467 H 0.31841 0.22019 0.43912 0.0
H1468 H 0.3983 0.21901 0.45657 0.0
O1469 O 0.34841 0.25745 0.40487 0.0
C1470 C 0.41685 0.22329 0.40981 0.0
O1471 O 0.40827 0.19953 0.40561 0.0
N1472 N 0.33773 0.20783 0.39236 0.0
C1473 C 0.29507 0.17875 0.37569 0.0
C1474 C 0.2969 0.20533 0.36983 0.0
C1475 C 0.31854 0.21945 0.37804 0.0
C1476 C 0.3365 0.18189 0.39797 0.0
C1477 C 0.31518 0.16695 0.38994 0.0
H1478 H 0.32015 0.23951 0.37214 0.0
H1479 H 0.3522 0.17277 0.40867 0.0
H1480 H 0.38388 0.27382 0.37053 0.0
H1481 H 0.39144 0.22219 0.30742 0.0
H1482 H 0.32406 0.21889 0.49046 0.0
H1483 H 0.28205 0.21495 0.3583 0.0
H1484 H 0.31443 0.14642 0.39479 0.0
C1485 C 0.21113 0.38709 0.65918 0.0
C1486 C 0.22534 0.39687 0.67978 0.0
N1487 N 0.25086 0.39493 0.67384 0.0
N1488 N 0.22771 0.37895 0.64054 0.0
C1489 C 0.25174 0.38378 0.65012 0.0
H1490 H 0.19013 0.38705 0.65734 0.0
Co1491 Co 0.21999 0.36985 0.60648 0.0
C1492 C 0.27147 0.34685 0.59147 0.0
O1493 O 0.27833 0.36506 0.57486 0.0
N1494 N 0.21333 0.36079 0.57126 0.0
C1495 C 0.20733 0.33782 0.53485 0.0
C1496 C 0.2078 0.33688 0.56161 0.0
C1497 C 0.21664 0.37575 0.54969 0.0
N1498 N 0.21322 0.36223 0.52746 0.0
O1499 O 0.23733 0.40092 0.59609 0.0
H1500 H 0.20485 0.31951 0.57312 0.0
H1501 H 0.22155 0.39619 0.54996 0.0
O1502 O 0.25052 0.3488 0.60443 0.0
C1503 C 0.21975 0.4185 0.59652 0.0
O1504 O 0.19528 0.41106 0.59806 0.0
N1505 N 0.20128 0.34088 0.6187 0.0
C1506 C 0.17195 0.29968 0.63822 0.0
C1507 C 0.19855 0.30153 0.64371 0.0
C1508 C 0.21277 0.32256 0.63424 0.0
C1509 C 0.17513 0.33998 0.61398 0.0
C1510 C 0.16002 0.31935 0.62348 0.0
H1511 H 0.23302 0.32417 0.63975 0.0
H1512 H 0.16605 0.35526 0.60264 0.0
H1513 H 0.26953 0.3809 0.63917 0.0
H1514 H 0.21752 0.40528 0.69748 0.0
H1515 H 0.20337 0.32174 0.52178 0.0
H1516 H 0.20819 0.28703 0.65566 0.0
H1517 H 0.13937 0.31863 0.61922 0.0
C1518 C 0.62282 0.21169 0.66351 0.0
C1519 C 0.61434 0.22592 0.68479 0.0
N1520 N 0.61027 0.25075 0.67712 0.0
N1521 N 0.62399 0.22761 0.64267 0.0
C1522 C 0.61609 0.25105 0.65157 0.0
H1523 H 0.62739 0.19112 0.66314 0.0
Co1524 Co 0.63147 0.22165 0.60777 0.0
C1525 C 0.6527 0.27353 0.59177 0.0
O1526 O 0.63948 0.27513 0.56991 0.0
N1527 N 0.63898 0.21697 0.57209 0.0
C1528 C 0.65979 0.21905 0.53402 0.0
C1529 C 0.66271 0.21832 0.56068 0.0
C1530 C 0.62207 0.21664 0.55187 0.0
N1531 N 0.63418 0.21801 0.52862 0.0
O1532 O 0.59878 0.2371 0.59974 0.0
H1533 H 0.68094 0.2203 0.57104 0.0
H1534 H 0.60117 0.21719 0.55388 0.0
O1535 O 0.64958 0.25413 0.6068 0.0
C1536 C 0.58238 0.21848 0.6007 0.0
O1537 O 0.59121 0.19449 0.60241 0.0
N1538 N 0.66226 0.20445 0.61699 0.0
C1539 C 0.705 0.17492 0.63238 0.0
C1540 C 0.70395 0.20162 0.63779 0.0
C1541 C 0.68219 0.216 0.6303 0.0
C1542 C 0.66293 0.17846 0.61156 0.0
C1543 C 0.68421 0.16323 0.61912 0.0
H1544 H 0.68113 0.23616 0.63598 0.0
H1545 H 0.64666 0.16948 0.60162 0.0
H1546 H 0.61344 0.26781 0.63907 0.0
H1547 H 0.6113 0.21855 0.70432 0.0
H1548 H 0.67522 0.22096 0.51976 0.0
H1549 H 0.71943 0.21109 0.64858 0.0
H1550 H 0.68437 0.14257 0.61484 0.0
C1551 C 0.36194 0.77408 0.65427 0.0
C1552 C 0.36595 0.75554 0.67327 0.0
N1553 N 0.37479 0.73372 0.66168 0.0
N1554 N 0.36792 0.76375 0.63084 0.0
C1555 C 0.37596 0.73923 0.63607 0.0
H1556 H 0.35535 0.79384 0.65741 0.0
Co1557 Co 0.36719 0.77891 0.59801 0.0
C1558 C 0.3317 0.74497 0.56779 0.0
O1559 O 0.32424 0.76552 0.55448 0.0
N1560 N 0.36765 0.79361 0.56425 0.0
C1561 C 0.36992 0.81979 0.52973 0.0
C1562 C 0.36306 0.81808 0.55558 0.0
C1563 C 0.37739 0.78097 0.54319 0.0
N1564 N 0.37898 0.79644 0.52211 0.0
O1565 O 0.4018 0.76582 0.59204 0.0
H1566 H 0.3562 0.83421 0.5671 0.0
H1567 H 0.38407 0.76096 0.54357 0.0
O1568 O 0.35016 0.74733 0.58449 0.0
C1569 C 0.41644 0.78522 0.59734 0.0
O1570 O 0.40526 0.80738 0.60369 0.0
N1571 N 0.33463 0.79428 0.6062 0.0
C1572 C 0.2921 0.82092 0.62743 0.0
C1573 C 0.29051 0.7942 0.6221 0.0
C1574 C 0.31224 0.78108 0.61218 0.0
C1575 C 0.3366 0.82011 0.6121 0.0
C1576 C 0.31546 0.83393 0.62216 0.0
H1577 H 0.31141 0.76015 0.61122 0.0
H1578 H 0.3552 0.8298 0.61034 0.0
H1579 H 0.38261 0.72564 0.62136 0.0
H1580 H 0.36321 0.75805 0.69404 0.0
H1581 H 0.36876 0.83699 0.51756 0.0
H1582 H 0.27315 0.78326 0.62704 0.0
H1583 H 0.31767 0.85445 0.62659 0.0
C1584 C 0.12039 0.26271 0.01913 0.0
C1585 C 0.11221 0.28421 0.00426 0.0
C1586 C 0.11127 0.25915 0.04474 0.0
C1587 C 0.09367 0.27698 0.05591 0.0
H1588 H 0.13509 0.24963 0.01149 0.0
H1589 H 0.11955 0.24365 0.05644 0.0
S1590 S 0.06266 0.33321 0.02283 0.0
N1591 N 0.08291 0.32111 0.00091 0.0
N1592 N 0.06569 0.31454 0.04888 0.0
C1593 C 0.0837 0.29711 0.04028 0.0
C1594 C 0.09303 0.30074 0.01445 0.0
C1595 C 0.73173 0.12305 0.04617 0.0
C1596 C 0.71292 0.10457 0.05358 0.0
C1597 C 0.73185 0.13351 0.02091 0.0
C1598 C 0.71343 0.12552 0.00223 0.0
H1599 H 0.74549 0.13054 0.06033 0.0
H1600 H 0.74623 0.14815 0.01601 0.0
S1601 S 0.66118 0.0766 0.0117 0.0
N1602 N 0.67618 0.07796 0.04014 0.0
N1603 N 0.67663 0.09739 0.99261 0.0
C1604 C 0.69527 0.10628 0.00916 0.0
C1605 C 0.69496 0.09588 0.03487 0.0
C1606 C 0.88109 0.74549 0.03746 0.0
C1607 C 0.90089 0.7286 0.04598 0.0
C1608 C 0.87248 0.7449 0.01151 0.0
C1609 C 0.8836 0.72764 0.99329 0.0
H1610 H 0.87093 0.75783 0.05128 0.0
H1611 H 0.85655 0.75751 0.00582 0.0
S1612 S 0.93768 0.68128 0.0057 0.0
N1613 N 0.93266 0.69565 0.03405 0.0
N1614 N 0.91654 0.69449 0.98537 0.0
C1615 C 0.90449 0.71185 0.00132 0.0
C1616 C 0.91312 0.71237 0.02768 0.0
C1617 C 0.26798 0.88177 0.01466 0.0
C1618 C 0.28963 0.89123 0.00075 0.0
C1619 C 0.26371 0.88925 0.04072 0.0
C1620 C 0.28095 0.90647 0.0533 0.0
H1621 H 0.25553 0.8671 0.006 0.0
H1622 H 0.24832 0.8798 0.05165 0.0
S1623 S 0.33716 0.94048 0.02333 0.0
N1624 N 0.32591 0.92142 -3e-05 0.0
N1625 N 0.31795 0.93561 0.0487 0.0
C1626 C 0.30101 0.91791 0.03863 0.0
C1627 C 0.30539 0.91021 0.01238 0.0
C1628 C 0.13304 0.74272 0.97988 0.0
C1629 C 0.1218 0.72589 0.99843 0.0
C1630 C 0.12523 0.74213 0.95366 0.0
C1631 C 0.10618 0.72442 0.94517 0.0
H1632 H 0.14855 0.75585 0.98556 0.0
H1633 H 0.13548 0.75421 0.93971 0.0
S1634 S 0.06934 0.67778 0.98614 0.0
N1635 N 0.08937 0.69238 0.00666 0.0
N1636 N 0.07498 0.69107 0.95738 0.0
C1637 C 0.09382 0.70856 0.96372 0.0
C1638 C 0.10154 0.70935 0.99038 0.0
C1639 C 0.25991 0.11636 0.95793 0.0
C1640 C 0.27764 0.09672 0.9508 0.0
C1641 C 0.2598 0.1266 0.98332 0.0
C1642 C 0.27709 0.11723 0.00247 0.0
H1643 H 0.24732 0.12512 0.94343 0.0
H1644 H 0.24658 0.14242 0.98782 0.0
S1645 S 0.32559 0.06437 0.99406 0.0
N1646 N 0.31167 0.06716 0.96517 0.0
N1647 N 0.31115 0.08607 0.01293 0.0
C1648 C 0.29373 0.09651 0.99595 0.0
C1649 C 0.29408 0.08636 0.97008 0.0
C1650 C 0.90025 0.30698 0.98675 0.0
C1651 C 0.88375 0.28794 0.9973 0.0
C1652 C 0.90981 0.30472 0.96135 0.0
C1653 C 0.90302 0.28345 0.94545 0.0
H1654 H 0.90497 0.32424 0.99793 0.0
H1655 H 0.92139 0.32058 0.95358 0.0
S1656 S 0.86181 0.22738 0.96489 0.0
N1657 N 0.86247 0.24623 0.991 0.0
N1658 N 0.88009 0.24205 0.94278 0.0
C1659 C 0.8879 0.26336 0.95638 0.0
C1660 C 0.87829 0.26563 0.98246 0.0
C1661 C 0.73323 0.882 0.98313 0.0
C1662 C 0.71132 0.89135 0.99671 0.0
C1663 C 0.73749 0.88893 0.95691 0.0
C1664 C 0.71996 0.90547 0.9438 0.0
H1665 H 0.74604 0.86795 0.99228 0.0
H1666 H 0.7533 0.87973 0.94635 0.0
S1667 S 0.66285 0.93904 0.9726 0.0
N1668 N 0.67437 0.9208 0.99649 0.0
N1669 N 0.68225 0.93385 0.94744 0.0
C1670 C 0.69945 0.91669 0.95801 0.0
C1671 C 0.69512 0.9096 0.98445 0.0
C1672 C 0.04673 0.11858 0.26257 0.0
C1673 C 0.05313 0.09983 0.2815 0.0
C1674 C 0.02143 0.12886 0.26106 0.0
C1675 C 0.00169 0.12041 0.27812 0.0
H1676 H 0.0617 0.1265 0.24995 0.0
H1677 H 0.01732 0.14383 0.24677 0.0
S1678 S 0.00814 0.07005 0.32951 0.0
N1679 N 0.03752 0.07209 0.31651 0.0
N1680 N 0.9899 0.09111 0.31339 0.0
C1681 C 0.00756 0.10065 0.29612 0.0
C1682 C 0.03332 0.09046 0.29788 0.0
C1683 C 0.87592 0.01441 0.26396 0.0
C1684 C 0.88322 9e-05 0.28615 0.0
C1685 C 0.88489 0.04005 0.26028 0.0
C1686 C 0.90152 0.05178 0.27866 0.0
H1687 H 0.86202 0.00628 0.25032 0.0
H1688 H 0.87726 0.0513 0.24412 0.0
S1689 S 0.92982 0.02036 0.33725 0.0
N1690 N 0.91045 0.99797 0.32466 0.0
N1691 N 0.92758 0.04589 0.31778 0.0
C1692 C 0.91057 0.03673 0.29966 0.0
C1693 C 0.90131 0.0109 0.30344 0.0
C1694 C 0.98227 0.89856 0.31446 0.0
C1695 C 0.99555 0.88496 0.29479 0.0
C1696 C 0.95641 0.90638 0.31115 0.0
C1697 C 0.94268 0.90082 0.28807 0.0
H1698 H 0.99178 0.90253 0.33288 0.0
H1699 H 0.94669 0.91583 0.32735 0.0
S1700 S 0.96938 0.86733 0.22988 0.0
N1701 N 0.99386 0.86772 0.25078 0.0
N1702 N 0.94489 0.88232 0.2445 0.0
C1703 C 0.9562 0.88865 0.26757 0.0
C1704 C 0.98273 0.88071 0.27096 0.0
C1705 C 0.10998 0.95797 0.2686 0.0
C1706 C 0.09204 0.94688 0.28614 0.0
C1707 C 0.11844 0.98387 0.2718 0.0
C1708 C 0.10928 0.99909 0.29267 0.0
H1709 H 0.11914 0.946 0.2538 0.0
H1710 H 0.13352 0.99142 0.25912 0.0
S1711 S 0.05861 0.98061 0.34054 0.0
N1712 N 0.06277 0.95421 0.32259 0.0
N1713 N 0.07868 0.00269 0.32849 0.0
C1714 C 0.08969 0.98893 0.30873 0.0
C1715 C 0.08104 0.96282 0.30545 0.0
C1716 C 0.01516 0.90988 0.69402 0.0
C1717 C 0.00322 0.89091 0.70967 0.0
C1718 C 0.04053 0.91835 0.69913 0.0
C1719 C 0.05501 0.90807 0.72002 0.0
H1720 H 0.00515 0.9174 0.67703 0.0
H1721 H 0.04951 0.93181 0.68556 0.0
S1722 S 0.03169 0.85949 0.76811 0.0
N1723 N 0.00678 0.86353 0.74809 0.0
N1724 N 0.05484 0.87928 0.75764 0.0
C1725 C 0.04264 0.89049 0.737 0.0
C1726 C 0.01662 0.8819 0.7318 0.0
C1727 C 0.09878 0.0371 0.73404 0.0
C1728 C 0.11161 0.05673 0.71998 0.0
C1729 C 0.10854 0.01146 0.73429 0.0
C1730 C 0.13168 0.00489 0.72095 0.0
H1731 H 0.08081 0.04141 0.74425 0.0
H1732 H 0.09801 0.99669 0.74505 0.0
S1733 S 0.17325 0.04986 0.6827 0.0
N1734 N 0.14917 0.06827 0.69345 0.0
N1735 N 0.16732 0.02034 0.69398 0.0
C1736 C 0.14496 0.02461 0.7075 0.0
C1737 C 0.13496 0.05048 0.707 0.0
C1738 C 0.9797 0.12706 0.74175 0.0
C1739 C 0.99785 0.11799 0.72329 0.0
C1740 C 0.95433 0.11699 0.74269 0.0
C1741 C 0.94625 0.09791 0.72482 0.0
H1742 H 0.98496 0.14264 0.75498 0.0
H1743 H 0.94051 0.12557 0.75615 0.0
S1744 S 0.98705 0.06597 0.67449 0.0
N1745 N 0.00673 0.0873 0.68843 0.0
N1746 N 0.9588 0.06877 0.68969 0.0
C1747 C 0.96464 0.08762 0.70734 0.0
C1748 C 0.99056 0.09756 0.7067 0.0
C1749 C 0.86886 0.97663 0.73534 0.0
C1750 C 0.87898 0.99642 0.71927 0.0
C1751 C 0.8796 0.95148 0.73513 0.0
C1752 C 0.90051 0.94535 0.71854 0.0
H1753 H 0.85218 0.98051 0.74766 0.0
H1754 H 0.87036 0.93638 0.74665 0.0
S1755 S 0.93493 0.99047 0.67395 0.0
N1756 N 0.91199 0.00851 0.68755 0.0
N1757 N 0.93182 0.96113 0.68681 0.0
C1758 C 0.91148 0.9652 0.70329 0.0
C1759 C 0.90081 0.99081 0.70375 0.0
C1760 C 0.29996 0.0445 0.13117 0.0
C1761 C 0.28194 0.0531 0.11231 0.0
C1762 C 0.29996 0.01881 0.1401 0.0
C1763 C 0.2823 0.00055 0.13018 0.0
H1764 H 0.3141 0.05782 0.13942 0.0
H1765 H 0.31417 0.01301 0.15459 0.0
S1766 S 0.23062 0.01307 0.08123 0.0
N1767 N 0.24538 0.04149 0.08461 0.0
N1768 N 0.24576 0.9927 0.10107 0.0
C1769 C 0.26403 0.00876 0.11143 0.0
C1770 C 0.26371 0.0352 0.10263 0.0
C1771 C 0.31233 0.98232 0.87191 0.0
C1772 C 0.2901 0.99764 0.87561 0.0
C1773 C 0.31297 0.95639 0.88005 0.0
C1774 C 0.29115 0.94447 0.8918 0.0
H1775 H 0.32937 0.99054 0.86255 0.0
H1776 H 0.33069 0.94551 0.87644 0.0
S1777 S 0.22793 0.97668 0.90569 0.0
N1778 N 0.24579 0.99972 0.892 0.0
N1779 N 0.24656 0.95042 0.90686 0.0
C1780 C 0.26874 0.95975 0.89584 0.0
C1781 C 0.26831 0.98648 0.88787 0.0
C1782 C 0.04326 0.26322 0.88807 0.0
C1783 C 0.05344 0.28062 0.90668 0.0
C1784 C 0.01779 0.26644 0.87845 0.0
C1785 C 0.00211 0.28716 0.88712 0.0
H1786 H 0.05565 0.24849 0.8794 0.0
H1787 H 0.01091 0.25381 0.86301 0.0
S1788 S 0.0181 0.3348 0.93879 0.0
N1789 N 0.04469 0.31688 0.93582 0.0
N1790 N 0.99702 0.32286 0.91761 0.0
C1791 C 0.01132 0.30317 0.90718 0.0
C1792 C 0.03699 0.29987 0.91704 0.0
C1793 C 0.69875 0.01187 0.90081 0.0
C1794 C 0.7189 0.00168 0.88545 0.0
C1795 C 0.69985 0.03738 0.9102 0.0
C1796 C 0.72102 0.05377 0.90428 0.0
H1797 H 0.68146 0.00036 0.90452 0.0
H1798 H 0.68314 0.04486 0.92074 0.0
S1799 S 0.78016 0.03504 0.86723 0.0
N1800 N 0.76181 0.00858 0.86688 0.0
N1801 N 0.76382 0.05707 0.88413 0.0
C1802 C 0.7423 0.04312 0.89066 0.0
C1803 C 0.74122 0.0169 0.88125 0.0
C1804 C 0.9912 0.73396 0.86258 0.0
C1805 C 0.0089 0.7166 0.87433 0.0
C1806 C 0.96581 0.73694 0.8723 0.0
C1807 C 0.95727 0.72232 0.89383 0.0
H1808 H 0.99688 0.7449 0.84546 0.0
H1809 H 0.95233 0.7494 0.86186 0.0
S1810 S 0.99653 0.67575 0.93261 0.0
N1811 N 0.01659 0.68597 0.90961 0.0
N1812 N 0.96875 0.69122 0.92758 0.0
C1813 C 0.97512 0.70587 0.90644 0.0
C1814 C 0.00099 0.70309 0.89678 0.0
C1815 C 0.6956 0.96475 0.08626 0.0
C1816 C 0.71588 0.94917 0.09609 0.0
C1817 C 0.69258 0.99058 0.09427 0.0
C1818 C 0.70979 0.00178 0.11229 0.0
H1819 H 0.6809 0.95637 0.07362 0.0
H1820 H 0.67589 0.00153 0.0874 0.0
S1821 S 0.76726 0.97015 0.14226 0.0
N1822 N 0.75451 0.94732 0.12345 0.0
N1823 N 0.74888 0.99632 0.13831 0.0
C1824 C 0.73131 0.98718 0.12077 0.0
C1825 C 0.73438 0.9607 0.11266 0.0
C1826 C 0.02989 0.70849 0.09147 0.0
C1827 C 0.04788 0.72736 0.09995 0.0
C1828 C 0.0045 0.70775 0.10135 0.0
C1829 C 0.99628 0.72553 0.12045 0.0
H1830 H 0.0358 0.69352 0.0778 0.0
H1831 H 0.99148 0.69249 0.09481 0.0
S1832 S 0.03477 0.78046 0.1472 0.0
N1833 N 0.05497 0.76566 0.12696 0.0
N1834 N 0.00715 0.76402 0.14576 0.0
C1835 C 0.01359 0.74527 0.12823 0.0
C1836 C 0.0394 0.74631 0.11783 0.0
C1837 C 0.9734 0.25835 0.1296 0.0
C1838 C 0.9929 0.2761 0.12211 0.0
C1839 C 0.94864 0.2589 0.11801 0.0
C1840 C 0.94253 0.27751 0.09884 0.0
H1841 H 0.97722 0.24421 0.1448 0.0
H1842 H 0.93379 0.24575 0.12523 0.0
S1843 S 0.98708 0.3273 0.07145 0.0
N1844 N 0.00478 0.31189 0.09347 0.0
N1845 N 0.9582 0.31313 0.07192 0.0
C1846 C 0.96214 0.29466 0.09051 0.0
C1847 C 0.98736 0.29391 0.10208 0.0
C1848 C 0.59884 0.76511 0.53524 0.0
C1849 C 0.61171 0.78055 0.55379 0.0
C1850 C 0.60854 0.763 0.50965 0.0
C1851 C 0.63169 0.77577 0.50208 0.0
H1852 H 0.58087 0.75528 0.54029 0.0
H1853 H 0.59791 0.7513 0.49569 0.0
S1854 S 0.67351 0.81694 0.54413 0.0
N1855 N 0.64938 0.80773 0.56326 0.0
N1856 N 0.66751 0.80354 0.51553 0.0
C1857 C 0.64509 0.79047 0.52079 0.0
C1858 C 0.63511 0.79292 0.54656 0.0
C1859 C 0.20814 0.58856 0.50814 0.0
C1860 C 0.22427 0.60725 0.49652 0.0
C1861 C 0.2119 0.58103 0.53403 0.0
C1862 C 0.23177 0.59216 0.54929 0.0
H1863 H 0.19147 0.58105 0.49761 0.0
H1864 H 0.19775 0.56805 0.54283 0.0
S1865 S 0.28133 0.6395 0.52646 0.0
N1866 N 0.26246 0.63468 0.5008 0.0
N1867 N 0.26974 0.62051 0.54977 0.0
C1868 C 0.24963 0.60899 0.53707 0.0
C1869 C 0.24574 0.61665 0.51055 0.0
C1870 C 0.39623 0.20202 0.51421 0.0
C1871 C 0.37728 0.22014 0.50654 0.0
C1872 C 0.40685 0.20273 0.53936 0.0
C1873 C 0.39938 0.22204 0.55738 0.0
H1874 H 0.40195 0.18654 0.50105 0.0
H1875 H 0.42027 0.18746 0.54507 0.0
S1876 S 0.35314 0.27618 0.54496 0.0
N1877 N 0.35323 0.25927 0.51759 0.0
N1878 N 0.37367 0.26121 0.56475 0.0
C1879 C 0.38181 0.2414 0.54919 0.0
C1880 C 0.37057 0.24026 0.52378 0.0
C1881 C 0.77758 0.41091 0.53419 0.0
C1882 C 0.78069 0.39339 0.55499 0.0
C1883 C 0.78073 0.40248 0.50825 0.0
C1884 C 0.78734 0.37642 0.50261 0.0
H1885 H 0.77421 0.43139 0.53803 0.0
H1886 H 0.77953 0.41663 0.49265 0.0
S1887 S 0.79417 0.32259 0.55018 0.0
N1888 N 0.78843 0.34863 0.56817 0.0
N1889 N 0.79378 0.33281 0.51967 0.0
C1890 C 0.78875 0.35857 0.52322 0.0
C1891 C 0.78561 0.36708 0.54939 0.0
C1892 C 0.63219 0.23744 0.48461 0.0
C1893 C 0.62203 0.22027 0.50345 0.0
C1894 C 0.62165 0.23856 0.45939 0.0
C1895 C 0.60085 0.22228 0.45221 0.0
H1896 H 0.64875 0.24965 0.48925 0.0
H1897 H 0.63095 0.25092 0.44501 0.0
S1898 S 0.56615 0.17533 0.49467 0.0
N1899 N 0.58899 0.18787 0.51354 0.0
N1900 N 0.56944 0.18978 0.4661 0.0
C1901 C 0.58977 0.20598 0.47117 0.0
C1902 C 0.60029 0.20502 0.49683 0.0
C1903 C 0.76347 0.61411 0.44718 0.0
C1904 C 0.78239 0.5953 0.44085 0.0
C1905 C 0.76329 0.62607 0.47175 0.0
C1906 C 0.78179 0.61937 0.49081 0.0
H1907 H 0.74968 0.62076 0.43263 0.0
H1908 H 0.74885 0.64088 0.47581 0.0
S1909 S 0.83398 0.56983 0.48454 0.0
N1910 N 0.819 0.56941 0.45606 0.0
N1911 N 0.81854 0.59183 0.50225 0.0
C1912 C 0.79991 0.59967 0.48515 0.0
C1913 C 0.80023 0.58766 0.46014 0.0
C1914 C 0.37977 0.76822 0.48312 0.0
C1915 C 0.3893 0.78991 0.49693 0.0
C1916 C 0.38674 0.7641 0.45691 0.0
C1917 C 0.40353 0.78152 0.44403 0.0
H1918 H 0.36566 0.75539 0.49214 0.0
H1919 H 0.37748 0.74842 0.44622 0.0
S1920 S 0.4375 0.8381 0.47337 0.0
N1921 N 0.41902 0.82662 0.49709 0.0
N1922 N 0.43222 0.81895 0.44804 0.0
C1923 C 0.4148 0.80189 0.45841 0.0
C1924 C 0.40763 0.80611 0.48484 0.0
C1925 C 0.19301 0.36568 0.4844 0.0
C1926 C 0.21348 0.37209 0.50123 0.0
C1927 C 0.1923 0.37518 0.45894 0.0
C1928 C 0.21229 0.3912 0.44898 0.0
H1929 H 0.17718 0.35347 0.49116 0.0
H1930 H 0.17594 0.36953 0.44685 0.0
S1931 S 0.27109 0.41254 0.48494 0.0
N1932 N 0.25469 0.39486 0.50631 0.0
N1933 N 0.25369 0.41234 0.45782 0.0
C1934 C 0.23327 0.39735 0.46542 0.0
C1935 C 0.23373 0.38798 0.49173 0.0
C1936 C 0.52775 0.62874 0.75724 0.0
C1937 C 0.50945 0.6218 0.77647 0.0
C1938 C 0.55312 0.61858 0.75757 0.0
C1939 C 0.56109 0.60141 0.77737 0.0
H1940 H 0.52254 0.64251 0.74212 0.0
H1941 H 0.56695 0.62544 0.74317 0.0
S1942 S 0.52015 0.57559 0.83102 0.0
N1943 N 0.50068 0.59549 0.81488 0.0
N1944 N 0.54832 0.57641 0.8155 0.0
C1945 C 0.54264 0.59335 0.79593 0.0
C1946 C 0.51682 0.60354 0.7955 0.0
C1947 C 0.39204 0.54202 0.76472 0.0
C1948 C 0.40885 0.55282 0.78353 0.0
C1949 C 0.38233 0.51655 0.76761 0.0
C1950 C 0.38911 0.5014 0.78941 0.0
H1951 H 0.38487 0.55387 0.7488 0.0
H1952 H 0.36826 0.50923 0.7537 0.0
S1953 S 0.43635 0.51874 0.84103 0.0
N1954 N 0.43479 0.54493 0.82239 0.0
N1955 N 0.41635 0.49731 0.82776 0.0
C1956 C 0.40754 0.51116 0.80698 0.0
C1957 C 0.4175 0.53684 0.80402 0.0
C1958 C 0.48747 0.40328 0.81064 0.0
C1959 C 0.49971 0.38827 0.79134 0.0
C1960 C 0.46147 0.41089 0.80811 0.0
C1961 C 0.44664 0.40367 0.78623 0.0
H1962 H 0.49787 0.40834 0.82829 0.0
H1963 H 0.4525 0.42136 0.82412 0.0
S1964 S 0.47033 0.36606 0.72926 0.0
N1965 N 0.49588 0.36796 0.74878 0.0
N1966 N 0.4466 0.38209 0.74403 0.0
C1967 C 0.4591 0.39011 0.76593 0.0
C1968 C 0.48578 0.38241 0.76851 0.0
C1969 C 0.61715 0.45849 0.76172 0.0
C1970 C 0.59843 0.45002 0.77993 0.0
C1971 C 0.62734 0.48393 0.76293 0.0
C1972 C 0.61897 0.50141 0.78228 0.0
H1973 H 0.6255 0.44484 0.74795 0.0
H1974 H 0.64296 0.48944 0.74987 0.0
S1975 S 0.5675 0.49013 0.83143 0.0
N1976 N 0.5698 0.46217 0.81564 0.0
N1977 N 0.58892 0.50982 0.81767 0.0
C1978 C 0.59882 0.49385 0.79903 0.0
C1979 C 0.58851 0.46815 0.79787 0.0
C1980 C 0.53883 0.38659 0.24018 0.0
C1981 C 0.5512 0.40295 0.22198 0.0
C1982 C 0.51257 0.37943 0.23689 0.0
C1983 C 0.49826 0.38841 0.21532 0.0
H1984 H 0.54999 0.37758 0.25568 0.0
H1985 H 0.50397 0.36541 0.2501 0.0
S1986 S 0.52032 0.43551 0.16539 0.0
N1987 N 0.54612 0.43085 0.18407 0.0
N1988 N 0.49697 0.41724 0.17794 0.0
C1989 C 0.50976 0.40654 0.1985 0.0
C1990 C 0.53624 0.4139 0.20186 0.0
C1991 C 0.62815 0.51878 0.23738 0.0
C1992 C 0.62151 0.49951 0.21905 0.0
C1993 C 0.61771 0.54399 0.23572 0.0
C1994 C 0.60066 0.55082 0.21539 0.0
H1995 H 0.64173 0.51438 0.25291 0.0
H1996 H 0.62413 0.55855 0.24959 0.0
S1997 S 0.57614 0.50711 0.16336 0.0
N1998 N 0.59588 0.4886 0.18079 0.0
N1999 N 0.57653 0.53605 0.17742 0.0
C2000 C 0.59319 0.53149 0.1975 0.0
C2001 C 0.60354 0.50579 0.19939 0.0
C2002 C 0.45896 0.58529 0.19378 0.0
C2003 C 0.44342 0.5956 0.21385 0.0
C2004 C 0.48517 0.59218 0.19136 0.0
C2005 C 0.49681 0.60956 0.20895 0.0
H2006 H 0.45035 0.57314 0.17881 0.0
H2007 H 0.49612 0.58502 0.1748 0.0
S2008 S 0.46534 0.64033 0.26613 0.0
N2009 N 0.44201 0.6226 0.25276 0.0
N2010 N 0.49166 0.63545 0.24818 0.0
C2011 C 0.48216 0.61846 0.23027 0.0
C2012 C 0.4553 0.61145 0.23276 0.0
C2013 C 0.39839 0.48644 0.18895 0.0
C2014 C 0.38276 0.49915 0.20742 0.0
C2015 C 0.40616 0.46062 0.19258 0.0
C2016 C 0.39844 0.44648 0.21476 0.0
H2017 H 0.4038 0.49628 0.17108 0.0
H2018 H 0.4171 0.4512 0.17716 0.0
S2019 S 0.35918 0.47172 0.26987 0.0
N2020 N 0.3614 0.49662 0.24956 0.0
N2021 N 0.3758 0.44765 0.25637 0.0
C2022 C 0.3843 0.45949 0.23428 0.0
C2023 C 0.37646 0.48598 0.23058 0.0
C2024 C 0.79731 0.51105 0.60006 0.0
C2025 C 0.7779 0.50382 0.61786 0.0
C2026 C 0.79763 0.53607 0.5892 0.0
C2027 C 0.77822 0.55446 0.59538 0.0
H2028 H 0.81305 0.49772 0.5956 0.0
H2029 H 0.81383 0.54142 0.57676 0.0
S2030 S 0.72081 0.54328 0.63783 0.0
N2031 N 0.73728 0.51564 0.63906 0.0
N2032 N 0.7375 0.56265 0.61827 0.0
C2033 C 0.75756 0.54671 0.6116 0.0
C2034 C 0.75754 0.52137 0.62303 0.0
C2035 C 0.81289 0.45809 0.39785 0.0
C2036 C 0.78946 0.44384 0.39765 0.0
C2037 C 0.81422 0.48327 0.38765 0.0
C2038 C 0.79215 0.49541 0.37701 0.0
H2039 H 0.83075 0.44933 0.40493 0.0
H2040 H 0.83286 0.49314 0.3876 0.0
S2041 S 0.72537 0.4681 0.37458 0.0
N2042 N 0.74304 0.44472 0.38794 0.0
N2043 N 0.74562 0.49249 0.36895 0.0
C2044 C 0.76816 0.48226 0.3783 0.0
C2045 C 0.76678 0.45637 0.38861 0.0
C2046 C 0.54278 0.75322 0.38766 0.0
C2047 C 0.55328 0.7704 0.40631 0.0
C2048 C 0.51717 0.75655 0.37846 0.0
C2049 C 0.50159 0.77711 0.38766 0.0
H2050 H 0.55503 0.73863 0.37856 0.0
H2051 H 0.51011 0.74419 0.36288 0.0
S2052 S 0.51839 0.82433 0.43939 0.0
N2053 N 0.54493 0.80643 0.4359 0.0
N2054 N 0.49697 0.81254 0.41846 0.0
C2055 C 0.51111 0.7929 0.40772 0.0
C2056 C 0.53695 0.78952 0.41713 0.0
C2057 C 0.19814 0.50305 0.39397 0.0
C2058 C 0.21539 0.49476 0.37439 0.0
C2059 C 0.19879 0.52865 0.4034 0.0
C2060 C 0.21706 0.54678 0.39399 0.0
H2061 H 0.18339 0.4899 0.40134 0.0
H2062 H 0.18434 0.53451 0.41765 0.0
S2063 S 0.26806 0.53413 0.34433 0.0
N2064 N 0.25243 0.50613 0.3471 0.0
N2065 N 0.25377 0.55429 0.36496 0.0
C2066 C 0.23528 0.53841 0.37531 0.0
C2067 C 0.23436 0.5124 0.36541 0.0
C2068 C 0.48279 0.23892 0.38275 0.0
C2069 C 0.49816 0.22018 0.39552 0.0
C2070 C 0.4565 0.24252 0.38969 0.0
C2071 C 0.44515 0.22747 0.40961 0.0
H2072 H 0.49055 0.24923 0.36605 0.0
H2073 H 0.44448 0.25524 0.37787 0.0
S2074 S 0.47877 0.17942 0.4517 0.0
N2075 N 0.50141 0.18923 0.43101 0.0
N2076 N 0.45213 0.19583 0.44408 0.0
C2077 C 0.46112 0.21057 0.42399 0.0
C2078 C 0.48766 0.20692 0.41692 0.0
C2079 C 0.20804 0.49038 0.60473 0.0
C2080 C 0.2286 0.49799 0.62103 0.0
C2081 C 0.20649 0.46492 0.59515 0.0
C2082 C 0.2257 0.44626 0.60114 0.0
H2083 H 0.19241 0.50389 0.60041 0.0
H2084 H 0.18949 0.45949 0.58387 0.0
S2085 S 0.28584 0.45795 0.63946 0.0
N2086 N 0.27013 0.48604 0.64036 0.0
N2087 N 0.26751 0.43811 0.62196 0.0
C2088 C 0.24743 0.45422 0.61579 0.0
C2089 C 0.24876 0.4801 0.62594 0.0
C2090 C 0.54677 0.23991 0.62543 0.0
C2091 C 0.55454 0.22291 0.60542 0.0
C2092 C 0.52145 0.23878 0.63563 0.0
C2093 C 0.50308 0.22095 0.6258 0.0
H2094 H 0.56077 0.25285 0.63447 0.0
H2095 H 0.51634 0.25146 0.6517 0.0
S2096 S 0.51329 0.17425 0.57168 0.0
N2097 N 0.54162 0.18914 0.57492 0.0
N2098 N 0.49386 0.18738 0.59375 0.0
C2099 C 0.51019 0.2051 0.60468 0.0
C2100 C 0.536 0.206 0.59458 0.0
C2101 C 0.48544 0.80921 0.60066 0.0
C2102 C 0.49879 0.78848 0.61247 0.0
C2103 C 0.45923 0.80693 0.59373 0.0
C2104 C 0.4452 0.78385 0.59844 0.0
H2105 H 0.49511 0.82773 0.59776 0.0
H2106 H 0.44949 0.82393 0.58583 0.0
S2107 S 0.47194 0.72302 0.62672 0.0
N2108 N 0.49688 0.74341 0.62672 0.0
N2109 N 0.44719 0.73908 0.61379 0.0
C2110 C 0.45876 0.76228 0.60854 0.0
C2111 C 0.48569 0.76462 0.61557 0.0
C2112 C 0.14091 0.32393 0.28104 0.0
C2113 C 0.15198 0.34891 0.27994 0.0
C2114 C 0.13007 0.31238 0.25881 0.0
C2115 C 0.13026 0.32525 0.23455 0.0
H2116 H 0.14112 0.31304 0.29914 0.0
H2117 H 0.12189 0.293 0.26054 0.0
S2118 S 0.15766 0.39099 0.22165 0.0
N2119 N 0.16243 0.38637 0.25314 0.0
N2120 N 0.14286 0.36448 0.21098 0.0
C2121 C 0.14094 0.35053 0.23341 0.0
C2122 C 0.15165 0.36238 0.25619 0.0
C2123 C 0.62926 0.17024 0.25136 0.0
C2124 C 0.63701 0.16299 0.27664 0.0
C2125 C 0.64072 0.15896 0.22933 0.0
C2126 C 0.66039 0.14002 0.23174 0.0
H2127 H 0.61453 0.18511 0.24859 0.0
H2128 H 0.63473 0.16581 0.21027 0.0
S2129 S 0.68678 0.11328 0.29351 0.0
N2130 N 0.66519 0.13525 0.30282 0.0
N2131 N 0.68607 0.11338 0.26135 0.0
C2132 C 0.66771 0.13195 0.25689 0.0
C2133 C 0.65614 0.14354 0.27935 0.0
C2134 C 0.852 0.67587 0.2417 0.0
C2135 C 0.85572 0.66184 0.21844 0.0
C2136 C 0.84216 0.66382 0.26407 0.0
C2137 C 0.8357 0.63719 0.26415 0.0
H2138 H 0.85643 0.69649 0.24256 0.0
H2139 H 0.83889 0.67568 0.28123 0.0
S2140 S 0.84333 0.59128 0.20878 0.0
N2141 N 0.85291 0.61966 0.19702 0.0
N2142 N 0.83527 0.59672 0.23946 0.0
C2143 C 0.84014 0.62268 0.24129 0.0
C2144 C 0.85003 0.63504 0.21839 0.0
C2145 C 0.33932 0.84303 0.27041 0.0
C2146 C 0.36113 0.8268 0.26681 0.0
C2147 C 0.32677 0.85468 0.24914 0.0
C2148 C 0.33581 0.85083 0.22356 0.0
H2149 H 0.33147 0.84618 0.28976 0.0
H2150 H 0.30977 0.86668 0.2527 0.0
S2151 S 0.39258 0.81073 0.20379 0.0
N2152 N 0.39157 0.80792 0.23584 0.0
N2153 N 0.36804 0.82998 0.1958 0.0
C2154 C 0.35791 0.8351 0.21973 0.0
C2155 C 0.37051 0.823 0.24137 0.0
C2156 C 0.14627 0.67185 0.74674 0.0
C2157 C 0.14742 0.65774 0.77024 0.0
C2158 C 0.156 0.66145 0.72352 0.0
C2159 C 0.16699 0.63642 0.72285 0.0
H2160 H 0.1385 0.69146 0.74645 0.0
H2161 H 0.15576 0.67341 0.70611 0.0
S2162 S 0.17376 0.59093 0.77845 0.0
N2163 N 0.15972 0.617 0.79113 0.0
N2164 N 0.17768 0.59727 0.74712 0.0
C2165 C 0.16717 0.62153 0.74579 0.0
C2166 C 0.1574 0.63221 0.76959 0.0
C2167 C 0.37032 0.17416 0.75888 0.0
C2168 C 0.36262 0.16729 0.73348 0.0
C2169 C 0.35902 0.16223 0.78073 0.0
C2170 C 0.33935 0.1434 0.77783 0.0
H2171 H 0.38488 0.18914 0.76185 0.0
H2172 H 0.36495 0.16849 0.8 0.0
S2173 S 0.31287 0.11807 0.7156 0.0
N2174 N 0.33474 0.13994 0.7067 0.0
N2175 N 0.31336 0.11769 0.74778 0.0
C2176 C 0.33195 0.13593 0.75256 0.0
C2177 C 0.34364 0.14782 0.73036 0.0
C2178 C 0.85135 0.34823 0.72749 0.0
C2179 C 0.82969 0.36453 0.73168 0.0
C2180 C 0.86377 0.33566 0.74831 0.0
C2181 C 0.85517 0.33915 0.77409 0.0
H2182 H 0.85829 0.34456 0.70789 0.0
H2183 H 0.88015 0.32298 0.74419 0.0
S2184 S 0.79978 0.38041 0.79552 0.0
N2185 N 0.80064 0.38409 0.76356 0.0
N2186 N 0.82381 0.36025 0.80271 0.0
C2187 C 0.83385 0.35579 0.77861 0.0
C2188 C 0.82113 0.36849 0.75739 0.0
C2189 C 0.6555 0.83916 0.77132 0.0
C2190 C 0.67528 0.85773 0.7673 0.0
C2191 C 0.64276 0.82728 0.75031 0.0
C2192 C 0.64927 0.83346 0.72441 0.0
H2193 H 0.65007 0.83338 0.79088 0.0
H2194 H 0.62764 0.81313 0.75441 0.0
S2195 S 0.69975 0.88078 0.70326 0.0
N2196 N 0.70042 0.88214 0.73539 0.0
N2197 N 0.67724 0.85902 0.69589 0.0
C2198 C 0.66902 0.852 0.72007 0.0
C2199 C 0.68187 0.86426 0.74149 0.0
C2200 C 0.22556 0.16044 0.35887 0.0
C2201 C 0.22879 0.1387 0.3425 0.0
C2202 C 0.24709 0.17275 0.37026 0.0
C2203 C 0.27256 0.16359 0.36591 0.0
H2204 H 0.20637 0.16862 0.36208 0.0
H2205 H 0.24384 0.18991 0.38212 0.0
S2206 S 0.29126 0.10635 0.32598 0.0
N2207 N 0.25919 0.10767 0.32362 0.0
N2208 N 0.29972 0.13092 0.34496 0.0
C2209 C 0.27597 0.14128 0.35042 0.0
C2210 C 0.25406 0.12885 0.33867 0.0
C2211 C 0.83139 0.2443 0.36077 0.0
C2212 C 0.83457 0.27 0.35184 0.0
C2213 C 0.84313 0.22333 0.34776 0.0
C2214 C 0.85817 0.22729 0.32517 0.0
H2215 H 0.81976 0.2404 0.37795 0.0
H2216 H 0.83995 0.20381 0.35513 0.0
S2217 S 0.87234 0.29082 0.2938 0.0
N2218 N 0.85374 0.29827 0.31899 0.0
N2219 N 0.87593 0.25885 0.29465 0.0
C2220 C 0.86158 0.2529 0.31611 0.0
C2221 C 0.84978 0.27426 0.32944 0.0
C2222 C 0.72126 0.84765 0.33906 0.0
C2223 C 0.72529 0.82479 0.35367 0.0
C2224 C 0.74221 0.86081 0.32741 0.0
C2225 C 0.76793 0.85181 0.33034 0.0
H2226 H 0.70171 0.85508 0.33615 0.0
H2227 H 0.73829 0.87818 0.31606 0.0
S2228 S 0.78887 0.79317 0.36708 0.0
N2229 N 0.75691 0.79397 0.37077 0.0
N2230 N 0.79626 0.81867 0.34889 0.0
C2231 C 0.77223 0.82918 0.34518 0.0
C2232 C 0.75092 0.81567 0.35681 0.0
C2233 C 0.1453 0.7249 0.34235 0.0
C2234 C 0.16601 0.72702 0.36017 0.0
C2235 C 0.13393 0.7471 0.33123 0.0
C2236 C 0.14276 0.77226 0.33761 0.0
H2237 H 0.13834 0.70592 0.3363 0.0
H2238 H 0.11828 0.74454 0.31731 0.0
S2239 S 0.19577 0.78841 0.38405 0.0
N2240 N 0.19413 0.75629 0.38459 0.0
N2241 N 0.17321 0.79801 0.36321 0.0
C2242 C 0.16305 0.77469 0.35586 0.0
C2243 C 0.1746 0.75208 0.36721 0.0
C2244 C 0.24493 0.83341 0.63022 0.0
C2245 C 0.27027 0.83453 0.64062 0.0
C2246 C 0.22389 0.84536 0.64301 0.0
C2247 C 0.22744 0.85844 0.66685 0.0
H2248 H 0.24137 0.82315 0.61212 0.0
H2249 H 0.20461 0.84372 0.63458 0.0
S2250 S 0.28988 0.86702 0.70216 0.0
N2251 N 0.29771 0.84989 0.67606 0.0
N2252 N 0.25822 0.87234 0.70001 0.0
C2253 C 0.2527 0.85992 0.67728 0.0
C2254 C 0.27411 0.84798 0.66419 0.0
C2255 C 0.15323 0.23016 0.65372 0.0
C2256 C 0.13369 0.23321 0.67269 0.0
C2257 C 0.16489 0.25185 0.64197 0.0
C2258 C 0.15707 0.27729 0.64847 0.0
H2259 H 0.16026 0.21091 0.64865 0.0
H2260 H 0.18052 0.24876 0.62811 0.0
S2261 S 0.10568 0.29567 0.69572 0.0
N2262 N 0.10626 0.26349 0.69663 0.0
N2263 N 0.12802 0.30436 0.67421 0.0
C2264 C 0.13689 0.2806 0.66663 0.0
C2265 C 0.12526 0.25851 0.67888 0.0
C2266 C 0.77423 0.15395 0.64666 0.0
C2267 C 0.77076 0.13481 0.66593 0.0
C2268 C 0.75275 0.16623 0.63509 0.0
C2269 C 0.72717 0.15938 0.64211 0.0
H2270 H 0.79366 0.16034 0.6414 0.0
H2271 H 0.75614 0.18165 0.62108 0.0
S2272 S 0.70781 0.10917 0.69025 0.0
N2273 N 0.73999 0.10867 0.69063 0.0
N2274 N 0.69955 0.13149 0.66857 0.0
C2275 C 0.72347 0.13943 0.66046 0.0
C2276 C 0.74531 0.12722 0.67249 0.0
C2277 C 0.83007 0.75508 0.62377 0.0
C2278 C 0.83885 0.72943 0.62777 0.0
C2279 C 0.84266 0.77625 0.63555 0.0
C2280 C 0.86423 0.77241 0.65201 0.0
H2281 H 0.81301 0.75873 0.61188 0.0
H2282 H 0.8348 0.79562 0.63263 0.0
S2283 S 0.89543 0.70923 0.66794 0.0
N2284 N 0.87092 0.70145 0.6486 0.0
N2285 N 0.8946 0.74128 0.67074 0.0
C2286 C 0.87367 0.74695 0.65553 0.0
C2287 C 0.86099 0.72544 0.64338 0.0
C2288 C 0.36478 0.24661 0.16871 0.0
C2289 C 0.35508 0.27201 0.16537 0.0
C2290 C 0.35267 0.22525 0.15674 0.0
C2291 C 0.33025 0.22857 0.14133 0.0
H2292 H 0.38171 0.24321 0.18086 0.0
H2293 H 0.36038 0.20592 0.1603 0.0
S2294 S 0.29749 0.29113 0.12606 0.0
N2295 N 0.322 0.29934 0.14522 0.0
N2296 N 0.29937 0.25919 0.1226 0.0
C2297 C 0.32067 0.25392 0.13743 0.0
C2298 C 0.33307 0.27565 0.14946 0.0
C2299 C 0.35991 0.77296 0.84346 0.0
C2300 C 0.34136 0.76861 0.8632 0.0
C2301 C 0.3726 0.75219 0.83115 0.0
C2302 C 0.36728 0.72622 0.83805 0.0
H2303 H 0.36415 0.79256 0.83689 0.0
H2304 H 0.38646 0.75651 0.81581 0.0
S2305 S 0.32103 0.70429 0.88917 0.0
N2306 N 0.31912 0.7364 0.8899 0.0
N2307 N 0.34241 0.69726 0.86617 0.0
C2308 C 0.34918 0.72156 0.85814 0.0
C2309 C 0.3363 0.74276 0.87077 0.0
C2310 C 0.27349 0.33916 0.85327 0.0
C2311 C 0.27008 0.358 0.83363 0.0
C2312 C 0.25208 0.32708 0.86511 0.0
C2313 C 0.22642 0.33335 0.85779 0.0
H2314 H 0.29288 0.33323 0.85914 0.0
H2315 H 0.25567 0.3126 0.88005 0.0
S2316 S 0.2069 0.38175 0.80768 0.0
N2317 N 0.23903 0.38303 0.80802 0.0
N2318 N 0.1988 0.35959 0.82955 0.0
C2319 C 0.2227 0.35235 0.83837 0.0
C2320 C 0.24451 0.36479 0.82643 0.0
C2321 C 0.6635 0.27532 0.85211 0.0
C2322 C 0.64096 0.27358 0.83666 0.0
C2323 C 0.67458 0.25301 0.86329 0.0
C2324 C 0.66322 0.22833 0.85976 0.0
H2325 H 0.67319 0.29389 0.85473 0.0
H2326 H 0.69243 0.25498 0.87439 0.0
S2327 S 0.60326 0.21368 0.82231 0.0
N2328 N 0.60702 0.24551 0.81931 0.0
N2329 N 0.62776 0.20355 0.84058 0.0
C2330 C 0.64015 0.22648 0.84519 0.0
C2331 C 0.62906 0.24913 0.83353 0.0
C2332 C 0.78298 0.64367 0.84201 0.0
C2333 C 0.78073 0.66698 0.8562 0.0
C2334 C 0.76098 0.6318 0.83101 0.0
C2335 C 0.73601 0.64263 0.83425 0.0
H2336 H 0.80198 0.63518 0.83846 0.0
H2337 H 0.76356 0.61434 0.81943 0.0
S2338 S 0.71966 0.70258 0.87109 0.0
N2339 N 0.7516 0.69982 0.87395 0.0
N2340 N 0.71018 0.67739 0.85343 0.0
C2341 C 0.7334 0.66535 0.84929 0.0
C2342 C 0.7558 0.67757 0.86021 0.0
C2343 C 0.66639 0.74965 0.13244 0.0
C2344 C 0.65928 0.77504 0.13993 0.0
C2345 C 0.65476 0.72779 0.14385 0.0
C2346 C 0.63549 0.73044 0.16319 0.0
H2347 H 0.68133 0.74663 0.11783 0.0
H2348 H 0.6615 0.70866 0.13799 0.0
S2349 S 0.60916 0.79262 0.18908 0.0
N2350 N 0.63154 0.8016 0.16778 0.0
N2351 N 0.60888 0.76046 0.18844 0.0
C2352 C 0.62767 0.75572 0.17037 0.0
C2353 C 0.63968 0.77801 0.1589 0.0
C2354 C 0.24387 0.63373 0.16269 0.0
C2355 C 0.26892 0.644 0.15838 0.0
C2356 C 0.22175 0.64559 0.15188 0.0
C2357 C 0.22397 0.66836 0.13683 0.0
H2358 H 0.24136 0.61667 0.17488 0.0
H2359 H 0.20273 0.63753 0.1562 0.0
S2360 S 0.28513 0.70247 0.11919 0.0
N2361 N 0.29471 0.67771 0.1374 0.0
N2362 N 0.25308 0.70015 0.11729 0.0
C2363 C 0.24893 0.67843 0.13186 0.0
C2364 C 0.27144 0.66619 0.14257 0.0
C2365 C 0.74476 0.33352 0.13368 0.0
C2366 C 0.77022 0.33608 0.14348 0.0
C2367 C 0.72358 0.34538 0.14621 0.0
C2368 C 0.7271 0.35993 0.16916 0.0
H2369 H 0.74117 0.32198 0.11636 0.0
H2370 H 0.7042 0.34236 0.1384 0.0
S2371 S 0.78991 0.3732 0.2023 0.0
N2372 N 0.79784 0.35474 0.17716 0.0
N2373 N 0.75803 0.3772 0.20058 0.0
C2374 C 0.75252 0.36316 0.17881 0.0
C2375 C 0.77409 0.35122 0.16598 0.0
C2376 C 0.12235 0.17804 0.19804 0.0
C2377 C 0.10626 0.17617 0.22008 0.0
C2378 C 0.1135 0.19025 0.17524 0.0
C2379 C 0.08795 0.2001 0.1735 0.0
H2380 H 0.14219 0.17089 0.19886 0.0
H2381 H 0.12694 0.19271 0.15913 0.0
S2382 S 0.03781 0.19832 0.22549 0.0
N2383 N 0.06352 0.18408 0.23865 0.0
N2384 N 0.04647 0.20635 0.19553 0.0
C2385 C 0.07132 0.19722 0.19507 0.0
C2386 C 0.0806 0.18542 0.21847 0.0
C2387 C 0.80636 0.11315 0.20323 0.0
C2388 C 0.81 0.09705 0.22504 0.0
C2389 C 0.78903 0.10622 0.18329 0.0
C2390 C 0.77464 0.08287 0.18456 0.0
H2391 H 0.81619 0.13175 0.20225 0.0
H2392 H 0.78587 0.11996 0.16758 0.0
S2393 S 0.78082 0.03203 0.2358 0.0
N2394 N 0.80049 0.05558 0.24548 0.0
N2395 N 0.76788 0.04217 0.20812 0.0
C2396 C 0.77952 0.06582 0.20558 0.0
C2397 C 0.79709 0.07304 0.22588 0.0
C2398 C 0.88197 0.78066 0.18877 0.0
C2399 C 0.8968 0.79162 0.16841 0.0
C2400 C 0.87727 0.79411 0.21189 0.0
C2401 C 0.88719 0.81923 0.21591 0.0
H2402 H 0.87409 0.76124 0.1872 0.0
H2403 H 0.8654 0.78479 0.22663 0.0
S2404 S 0.92765 0.85689 0.16901 0.0
N2405 N 0.9215 0.82924 0.15379 0.0
N2406 N 0.91311 0.8546 0.19761 0.0
C2407 C 0.90218 0.83059 0.1958 0.0
C2408 C 0.90692 0.81676 0.17204 0.0
C2409 C 0.2178 0.89646 0.19488 0.0
C2410 C 0.20552 0.90271 0.17115 0.0
C2411 C 0.2035 0.89087 0.21733 0.0
C2412 C 0.17614 0.89178 0.21742 0.0
H2413 H 0.2388 0.896 0.19633 0.0
H2414 H 0.21411 0.88553 0.23475 0.0
S2415 S 0.13434 0.90976 0.16097 0.0
N2416 N 0.16431 0.91073 0.14929 0.0
N2417 N 0.13721 0.90152 0.19195 0.0
C2418 C 0.16346 0.89894 0.19404 0.0
C2419 C 0.17818 0.90427 0.17089 0.0
C2420 C 0.08997 0.80981 0.82052 0.0
C2421 C 0.09629 0.78321 0.82016 0.0
C2422 C 0.09216 0.82506 0.79788 0.0
C2423 C 0.10051 0.81421 0.774 0.0
H2424 H 0.08403 0.81908 0.83854 0.0
H2425 H 0.08764 0.84561 0.79921 0.0
S2426 S 0.11608 0.74474 0.76208 0.0
N2427 N 0.10844 0.74612 0.79327 0.0
N2428 N 0.11338 0.77484 0.75119 0.0
C2429 C 0.10562 0.78739 0.77317 0.0
C2430 C 0.10337 0.77191 0.79614 0.0
C2431 C 0.17207 0.1107 0.80761 0.0
C2432 C 0.18409 0.10806 0.78297 0.0
C2433 C 0.18516 0.10422 0.8307 0.0
C2434 C 0.21087 0.09502 0.83007 0.0
H2435 H 0.15259 0.11852 0.80926 0.0
H2436 H 0.17546 0.10746 0.84918 0.0
S2437 S 0.25025 0.08158 0.77085 0.0
N2438 N 0.22251 0.09329 0.75952 0.0
N2439 N 0.24725 0.08148 0.80288 0.0
C2440 C 0.22284 0.09137 0.80563 0.0
C2441 C 0.20947 0.09784 0.78211 0.0
C2442 C 0.91693 0.20848 0.76622 0.0
C2443 C 0.90139 0.18698 0.77302 0.0
C2444 C 0.92609 0.22589 0.78512 0.0
C2445 C 0.91988 0.22277 0.81171 0.0
H2446 H 0.92175 0.21216 0.74602 0.0
H2447 H 0.93707 0.24265 0.77852 0.0
S2448 S 0.8825 0.16801 0.84038 0.0
N2449 N 0.88216 0.1623 0.80872 0.0
N2450 N 0.89949 0.19504 0.84416 0.0
C2451 C 0.90567 0.20055 0.81901 0.0
C2452 C 0.89641 0.18267 0.79973 0.0
C2453 C 0.7879 0.92492 0.78756 0.0
C2454 C 0.78943 0.91637 0.81364 0.0
C2455 C 0.80333 0.9138 0.76803 0.0
C2456 C 0.82131 0.89396 0.77369 0.0
H2457 H 0.77362 0.93933 0.78173 0.0
H2458 H 0.8008 0.92045 0.74816 0.0
S2459 S 0.83622 0.86745 0.8392 0.0
N2460 N 0.81265 0.88876 0.84443 0.0
N2461 N 0.84196 0.86812 0.80752 0.0
C2462 C 0.82458 0.88654 0.79985 0.0
C2463 C 0.80858 0.89767 0.81984 0.0
C2464 C 0.23389 0.08167 0.21558 0.0
C2465 C 0.22753 0.09672 0.19361 0.0
C2466 C 0.21457 0.07255 0.23259 0.0
C2467 C 0.18801 0.07836 0.22853 0.0
H2468 H 0.25405 0.0772 0.2199 0.0
H2469 H 0.22076 0.06195 0.24976 0.0
S2470 S 0.16062 0.11515 0.1727 0.0
N2471 N 0.1924 0.11555 0.16782 0.0
N2472 N 0.15622 0.09835 0.19976 0.0
C2473 C 0.18124 0.09229 0.20597 0.0
C2474 C 0.20092 0.10148 0.18853 0.0
C2475 C 0.91435 0.21461 0.19077 0.0
C2476 C 0.89143 0.21465 0.17577 0.0
C2477 C 0.9232 0.19171 0.20284 0.0
C2478 C 0.90919 0.16828 0.20049 0.0
H2479 H 0.92534 0.23244 0.19332 0.0
H2480 H 0.9403 0.19265 0.21518 0.0
S2481 S 0.84868 0.15799 0.16266 0.0
N2482 N 0.85553 0.18914 0.15854 0.0
N2483 N 0.87193 0.14625 0.18157 0.0
C2484 C 0.88666 0.16795 0.18509 0.0
C2485 C 0.87786 0.19111 0.17258 0.0
C2486 C 0.77036 0.91967 0.19796 0.0
C2487 C 0.77546 0.89892 0.18088 0.0
C2488 C 0.78954 0.92906 0.21491 0.0
C2489 C 0.81458 0.91776 0.21584 0.0
H2490 H 0.75109 0.92824 0.19874 0.0
H2491 H 0.78404 0.9443 0.22843 0.0
S2492 S 0.83878 0.86537 0.17205 0.0
N2493 N 0.80795 0.86923 0.16361 0.0
N2494 N 0.84423 0.88679 0.19544 0.0
C2495 C 0.8205 0.89831 0.19732 0.0
C2496 C 0.80088 0.88888 0.17988 0.0
C2497 C 0.07619 0.78439 0.23494 0.0
C2498 C 0.07715 0.81111 0.2288 0.0
C2499 C 0.08351 0.76535 0.21689 0.0
C2500 C 0.09175 0.77196 0.19159 0.0
H2501 H 0.07072 0.77799 0.2543 0.0
H2502 H 0.08325 0.74524 0.22319 0.0
S2503 S 0.09519 0.83948 0.16497 0.0
N2504 N 0.08588 0.84343 0.19551 0.0
N2505 N 0.09831 0.80774 0.1608 0.0
C2506 C 0.09195 0.79875 0.18485 0.0
C2507 C 0.08496 0.81824 0.20361 0.0
C2508 C 0.18198 0.87775 0.795 0.0
C2509 C 0.17377 0.90399 0.79591 0.0
C2510 C 0.20488 0.86955 0.80731 0.0
C2511 C 0.21989 0.88701 0.82191 0.0
H2512 H 0.17091 0.86342 0.78421 0.0
H2513 H 0.21085 0.84938 0.80561 0.0
S2514 S 0.20614 0.95696 0.83305 0.0
N2515 N 0.18213 0.94707 0.81399 0.0
N2516 N 0.22451 0.93106 0.83835 0.0
C2517 C 0.21127 0.91284 0.82446 0.0
C2518 C 0.18827 0.92146 0.81131 0.0
C2519 C 0.11265 0.17253 0.8069 0.0
C2520 C 0.08692 0.1698 0.79777 0.0
C2521 C 0.12042 0.19472 0.82075 0.0
C2522 C 0.10295 0.21524 0.82519 0.0
H2523 H 0.12711 0.15783 0.80246 0.0
H2524 H 0.14049 0.1964 0.82708 0.0
S2525 S 0.03323 0.21733 0.8068 0.0
N2526 N 0.04364 0.18902 0.79551 0.0
N2527 N 0.05861 0.23109 0.82104 0.0
C2528 C 0.07702 0.21251 0.81699 0.0
C2529 C 0.06889 0.18964 0.80342 0.0
C2530 C 0.8039 0.06883 0.79691 0.0
C2531 C 0.82257 0.08825 0.79159 0.0
C2532 C 0.77996 0.07511 0.80868 0.0
C2533 C 0.77425 0.10089 0.81585 0.0
H2534 H 0.80741 0.04882 0.79118 0.0
H2535 H 0.76603 0.05977 0.81259 0.0
S2536 S 0.81605 0.1588 0.80612 0.0
N2537 N 0.83327 0.13434 0.79425 0.0
N2538 N 0.78864 0.14581 0.8168 0.0
C2539 C 0.79272 0.12033 0.81087 0.0
C2540 C 0.81682 0.11409 0.79868 0.0
C2541 C 0.92346 0.78177 0.75656 0.0
C2542 C 0.92647 0.80783 0.76455 0.0
C2543 C 0.91803 0.76199 0.7745 0.0
C2544 C 0.91591 0.7673 0.80129 0.0
H2545 H 0.92415 0.77672 0.73606 0.0
H2546 H 0.91458 0.74255 0.76712 0.0
S2547 S 0.92663 0.83208 0.83236 0.0
N2548 N 0.92905 0.83786 0.8008 0.0
N2549 N 0.921 0.80053 0.83509 0.0
C2550 C 0.92055 0.79321 0.80967 0.0
C2551 C 0.92526 0.8135 0.79116 0.0
C2552 C 0.18335 0.2103 0.08114 0.0
C2553 C 0.18061 0.2192 0.10686 0.0
C2554 C 0.1956 0.18639 0.07581 0.0
C2555 C 0.20507 0.17053 0.09614 0.0
H2556 H 0.17614 0.22204 0.06515 0.0
H2557 H 0.19842 0.18075 0.05566 0.0
S2558 S 0.19877 0.18403 0.16701 0.0
N2559 N 0.1858 0.2098 0.15274 0.0
N2560 N 0.20829 0.16466 0.14313 0.0
C2561 C 0.20107 0.17887 0.122 0.0
C2562 C 0.18898 0.20327 0.12728 0.0
C2563 C 0.22591 0.78992 0.93353 0.0
C2564 C 0.22599 0.81429 0.92079 0.0
C2565 C 0.21065 0.76915 0.92447 0.0
C2566 C 0.19459 0.77189 0.90248 0.0
H2567 H 0.2387 0.78632 0.94992 0.0
H2568 H 0.21176 0.75065 0.93454 0.0
S2569 S 0.18525 0.83221 0.86367 0.0
N2570 N 0.20652 0.84047 0.88633 0.0
N2571 N 0.17823 0.80131 0.86916 0.0
C2572 C 0.19319 0.7965 0.89047 0.0
C2573 C 0.20871 0.81773 0.89971 0.0
C2574 C 0.2055 0.18771 0.89224 0.0
C2575 C 0.22779 0.18496 0.90793 0.0
C2576 C 0.18503 0.20428 0.89963 0.0
C2577 C 0.18613 0.21861 0.92304 0.0
H2578 H 0.2045 0.17795 0.87356 0.0
H2579 H 0.16907 0.20703 0.88611 0.0
S2580 S 0.23777 0.21331 0.97352 0.0
N2581 N 0.248 0.1944 0.94958 0.0
N2582 N 0.20963 0.22548 0.96372 0.0
C2583 C 0.20737 0.21413 0.93989 0.0
C2584 C 0.22822 0.1974 0.93224 0.0
C2585 C 0.77896 0.19684 0.89714 0.0
C2586 C 0.79098 0.17368 0.90562 0.0
C2587 C 0.79346 0.21889 0.89064 0.0
C2588 C 0.82074 0.21905 0.89264 0.0
H2589 H 0.758 0.19815 0.89557 0.0
H2590 H 0.78312 0.23587 0.88362 0.0
S2591 S 0.86174 0.16405 0.91623 0.0
N2592 N 0.83173 0.15249 0.91692 0.0
N2593 N 0.85924 0.19432 0.90562 0.0
C2594 C 0.83312 0.19625 0.90194 0.0
C2595 C 0.81818 0.17356 0.90836 0.0
C2596 C 0.80303 0.8213 0.90947 0.0
C2597 C 0.79203 0.82128 0.88443 0.0
C2598 C 0.82683 0.80868 0.91429 0.0
C2599 C 0.84046 0.79616 0.89403 0.0
H2600 H 0.79271 0.83041 0.92547 0.0
H2601 H 0.83394 0.80774 0.93414 0.0
S2602 S 0.82175 0.79557 0.82407 0.0
N2603 N 0.79741 0.81062 0.83881 0.0
N2604 N 0.84279 0.78819 0.84727 0.0
C2605 C 0.83038 0.7979 0.86854 0.0
C2606 C 0.80594 0.8101 0.86388 0.0
C2607 C 0.78075 0.76597 0.07986 0.0
C2608 C 0.80644 0.77134 0.08761 0.0
C2609 C 0.76314 0.78599 0.0743 0.0
C2610 C 0.77023 0.81241 0.0766 0.0
H2611 H 0.77385 0.74608 0.07872 0.0
H2612 H 0.74342 0.78056 0.06909 0.0
S2613 S 0.83558 0.83758 0.09375 0.0
N2614 N 0.83876 0.80558 0.09481 0.0
N2615 N 0.80486 0.84309 0.08594 0.0
C2616 C 0.79587 0.81828 0.08386 0.0
C2617 C 0.81416 0.79782 0.08896 0.0
C2618 C 0.18092 0.79521 0.11768 0.0
C2619 C 0.16924 0.79464 0.0928 0.0
C2620 C 0.20567 0.80593 0.12146 0.0
C2621 C 0.21946 0.81682 0.10061 0.0
H2622 H 0.17103 0.78693 0.13438 0.0
H2623 H 0.21404 0.80605 0.14084 0.0
S2624 S 0.19745 0.82245 0.03224 0.0
N2625 N 0.17336 0.80713 0.04715 0.0
N2626 N 0.21963 0.82825 0.05484 0.0
C2627 C 0.2078 0.81757 0.07596 0.0
C2628 C 0.18269 0.80631 0.07191 0.0
C2629 C 0.79473 0.18734 0.11295 0.0
C2630 C 0.77072 0.18512 0.10011 0.0
C2631 C 0.81438 0.20366 0.10317 0.0
C2632 C 0.81074 0.21825 0.08014 0.0
H2633 H 0.79774 0.17749 0.13137 0.0
H2634 H 0.83191 0.20599 0.11459 0.0
S2635 S 0.75317 0.21406 0.03639 0.0
N2636 N 0.74569 0.19519 0.06135 0.0
N2637 N 0.78253 0.22566 0.04263 0.0
C2638 C 0.78758 0.21412 0.06593 0.0
C2639 C 0.76755 0.19768 0.07605 0.0
C2640 C 0.57911 0.72408 0.71079 0.0
C2641 C 0.58373 0.72024 0.68399 0.0
C2642 C 0.59013 0.70769 0.72961 0.0
C2643 C 0.60594 0.68646 0.72253 0.0
H2644 H 0.56811 0.74079 0.71753 0.0
H2645 H 0.58664 0.71202 0.74995 0.0
S2646 S 0.62073 0.66544 0.65484 0.0
N2647 N 0.60296 0.69202 0.65122 0.0
N2648 N 0.62315 0.66075 0.68659 0.0
C2649 C 0.60909 0.68117 0.69576 0.0
C2650 C 0.59815 0.69818 0.67652 0.0
C2651 C 0.33337 0.61313 0.70419 0.0
C2652 C 0.32034 0.60959 0.72824 0.0
C2653 C 0.31971 0.6147 0.68069 0.0
C2654 C 0.29262 0.61195 0.68012 0.0
H2655 H 0.35415 0.6164 0.70343 0.0
H2656 H 0.33031 0.61911 0.66296 0.0
S2657 S 0.24932 0.6 0.73684 0.0
N2658 N 0.27887 0.6014 0.74948 0.0
N2659 N 0.25315 0.60444 0.70521 0.0
C2660 C 0.27941 0.60697 0.70364 0.0
C2661 C 0.2933 0.60569 0.7277 0.0
C2662 C 0.39006 0.30904 0.67424 0.0
C2663 C 0.41341 0.29472 0.67408 0.0
C2664 C 0.38219 0.32278 0.69648 0.0
C2665 C 0.39698 0.32191 0.71949 0.0
H2666 H 0.37745 0.309 0.65732 0.0
H2667 H 0.36388 0.33328 0.6961 0.0
S2668 S 0.46018 0.28822 0.72867 0.0
N2669 N 0.45186 0.2815 0.6983 0.0
N2670 N 0.43667 0.30683 0.74041 0.0
C2671 C 0.42071 0.30828 0.71935 0.0
C2672 C 0.42904 0.29481 0.69652 0.0
C2673 C 0.69626 0.38671 0.67291 0.0
C2674 C 0.70418 0.41269 0.66898 0.0
C2675 C 0.6833 0.37924 0.69573 0.0
C2676 C 0.67829 0.39737 0.71552 0.0
H2677 H 0.70103 0.37186 0.65865 0.0
H2678 H 0.67807 0.359 0.69848 0.0
S2679 S 0.69407 0.46769 0.71476 0.0
N2680 N 0.70517 0.45671 0.68658 0.0
N2681 N 0.68103 0.44232 0.72971 0.0
C2682 C 0.68535 0.42345 0.71167 0.0
C2683 C 0.69819 0.43123 0.68825 0.0
C2684 C 0.57447 0.27018 0.29005 0.0
C2685 C 0.57931 0.27609 0.31645 0.0
C2686 C 0.58266 0.28676 0.27002 0.0
C2687 C 0.59572 0.31017 0.27545 0.0
H2688 H 0.56532 0.25197 0.28457 0.0
H2689 H 0.57899 0.28102 0.25006 0.0
S2690 S 0.61033 0.33612 0.34158 0.0
N2691 N 0.59615 0.30781 0.34711 0.0
N2692 N 0.61124 0.33938 0.30961 0.0
C2693 C 0.59943 0.31702 0.30188 0.0
C2694 C 0.59134 0.29988 0.32231 0.0
C2695 C 0.68935 0.57828 0.31207 0.0
C2696 C 0.71133 0.5924 0.32053 0.0
C2697 C 0.67448 0.58673 0.29065 0.0
C2698 C 0.68124 0.6094 0.2768 0.0
H2699 H 0.68383 0.56036 0.32173 0.0
H2700 H 0.65798 0.57515 0.28444 0.0
S2701 S 0.73479 0.65506 0.29232 0.0
N2702 N 0.73742 0.63172 0.31426 0.0
N2703 N 0.70975 0.64683 0.27394 0.0
C2704 C 0.70254 0.62406 0.28538 0.0
C2705 C 0.71748 0.61577 0.30727 0.0
C2706 C 0.42804 0.71308 0.28919 0.0
C2707 C 0.41842 0.71174 0.31491 0.0
C2708 C 0.41729 0.69797 0.26925 0.0
C2709 C 0.39682 0.68054 0.27421 0.0
H2710 H 0.44292 0.72708 0.2839 0.0
H2711 H 0.42464 0.70039 0.24962 0.0
S2712 S 0.36781 0.66591 0.33872 0.0
N2713 N 0.38956 0.68884 0.34475 0.0
N2714 N 0.36938 0.66035 0.30705 0.0
C2715 C 0.38849 0.67727 0.30009 0.0
C2716 C 0.39932 0.69286 0.32048 0.0
C2717 C 0.30456 0.41072 0.32216 0.0
C2718 C 0.28452 0.39352 0.3298 0.0
C2719 C 0.31944 0.40605 0.29958 0.0
C2720 C 0.31445 0.38432 0.28365 0.0
H2721 H 0.30836 0.42826 0.33326 0.0
H2722 H 0.33438 0.41987 0.29407 0.0
S2723 S 0.267 0.33165 0.29625 0.0
N2724 N 0.26307 0.3522 0.32066 0.0
N2725 N 0.29014 0.34439 0.27798 0.0
C2726 C 0.2954 0.36654 0.2915 0.0
C2727 C 0.2807 0.37089 0.31463 0.0
C2728 C 0.71481 0.57074 0.71096 0.0
C2729 C 0.69338 0.58727 0.71602 0.0
C2730 C 0.73553 0.57872 0.69499 0.0
C2731 C 0.73542 0.60339 0.68325 0.0
H2732 H 0.71601 0.5517 0.71999 0.0
H2733 H 0.75163 0.5655 0.69161 0.0
S2734 S 0.68514 0.65451 0.6903 0.0
N2735 N 0.67392 0.62983 0.70761 0.0
N2736 N 0.713 0.64448 0.67783 0.0
C2737 C 0.71415 0.61991 0.68762 0.0
C2738 C 0.69304 0.61191 0.70382 0.0
C2739 C 0.41599 0.67728 0.6837 0.0
C2740 C 0.40042 0.66598 0.70328 0.0
C2741 C 0.4071 0.69887 0.66934 0.0
C2742 C 0.38252 0.70995 0.67427 0.0
H2743 H 0.43558 0.67022 0.68025 0.0
H2744 H 0.41993 0.70772 0.65514 0.0
S2745 S 0.33253 0.68528 0.71997 0.0
N2746 N 0.3577 0.6657 0.72414 0.0
N2747 N 0.34164 0.70645 0.69752 0.0
C2748 C 0.36622 0.69797 0.69252 0.0
C2749 C 0.375 0.67589 0.70688 0.0
C2750 C 0.31605 0.39711 0.70722 0.0
C2751 C 0.31469 0.42053 0.72153 0.0
C2752 C 0.29544 0.38922 0.69104 0.0
C2753 C 0.27272 0.40437 0.68867 0.0
H2754 H 0.33238 0.38397 0.7097 0.0
H2755 H 0.29672 0.37056 0.68128 0.0
S2756 S 0.26188 0.46989 0.71696 0.0
N2757 N 0.29046 0.46075 0.72859 0.0
N2758 N 0.25179 0.44562 0.69843 0.0
C2759 C 0.27198 0.42869 0.70111 0.0
C2760 C 0.29301 0.43689 0.71735 0.0
C2761 C 0.58195 0.26789 0.71206 0.0
C2762 C 0.60046 0.27226 0.69239 0.0
C2763 C 0.57272 0.28837 0.72761 0.0
C2764 C 0.58181 0.31414 0.72436 0.0
H2765 H 0.57469 0.24841 0.71561 0.0
H2766 H 0.55916 0.28361 0.74306 0.0
S2767 S 0.62881 0.33626 0.67402 0.0
N2768 N 0.62669 0.3045 0.66958 0.0
N2769 N 0.60885 0.34303 0.69833 0.0
C2770 C 0.59938 0.31895 0.70387 0.0
C2771 C 0.60886 0.29804 0.68806 0.0
C2772 C 0.70739 0.41305 0.32253 0.0
C2773 C 0.71652 0.38727 0.32218 0.0
C2774 C 0.6837 0.41972 0.31054 0.0
C2775 C 0.66836 0.40061 0.29821 0.0
H2776 H 0.71915 0.42818 0.33131 0.0
H2777 H 0.67807 0.44005 0.30982 0.0
S2778 S 0.68218 0.32954 0.29631 0.0
N2779 N 0.70774 0.34231 0.3111 0.0
N2780 N 0.66266 0.35425 0.28969 0.0
C2781 C 0.67664 0.37444 0.29954 0.0
C2782 C 0.70094 0.3679 0.31115 0.0
C2783 C 0.5997 0.67853 0.29167 0.0
C2784 C 0.57665 0.68072 0.27687 0.0
C2785 C 0.60706 0.69805 0.30932 0.0
C2786 C 0.59174 0.7205 0.31276 0.0
H2787 H 0.61295 0.66239 0.28859 0.0
H2788 H 0.62548 0.69618 0.31945 0.0
S2789 S 0.52718 0.73326 0.28316 0.0
N2790 N 0.53669 0.70545 0.27002 0.0
N2791 N 0.55083 0.74208 0.30312 0.0
C2792 C 0.56781 0.72206 0.29969 0.0
C2793 C 0.56015 0.70213 0.28185 0.0
C2794 C 0.29233 0.5967 0.31219 0.0
C2795 C 0.26614 0.59957 0.30399 0.0
C2796 C 0.31208 0.58904 0.29477 0.0
C2797 C 0.30628 0.583 0.26874 0.0
H2798 H 0.29778 0.60024 0.33222 0.0
H2799 H 0.33195 0.5876 0.30175 0.0
S2800 S 0.24183 0.58952 0.23641 0.0
N2801 N 0.23659 0.59831 0.26685 0.0
N2802 N 0.27286 0.58136 0.23518 0.0
C2803 C 0.28031 0.58562 0.26027 0.0
C2804 C 0.26049 0.59453 0.27759 0.0
C2805 C 0.42774 0.29107 0.28192 0.0
C2806 C 0.4164 0.31612 0.28192 0.0
C2807 C 0.41929 0.27161 0.2991 0.0
C2808 C 0.39942 0.2764 0.31731 0.0
H2809 H 0.44245 0.28589 0.2677 0.0
H2810 H 0.42811 0.25248 0.29784 0.0
S2811 S 0.36521 0.33933 0.3275 0.0
N2812 N 0.38569 0.34516 0.3034 0.0
N2813 N 0.3699 0.30857 0.33566 0.0
C2814 C 0.389 0.30174 0.31869 0.0
C2815 C 0.39749 0.32158 0.30104 0.0
C2816 C 0.6978 0.67408 0.61165 0.0
C2817 C 0.70729 0.67202 0.58601 0.0
C2818 C 0.68421 0.69629 0.61989 0.0
C2819 C 0.68046 0.71741 0.60297 0.0
H2820 H 0.70146 0.65868 0.62558 0.0
H2821 H 0.67738 0.69741 0.63983 0.0
S2822 S 0.70028 0.72143 0.53374 0.0
N2823 N 0.71084 0.69257 0.54343 0.0
N2824 N 0.68581 0.73466 0.5593 0.0
C2825 C 0.68917 0.71541 0.57715 0.0
C2826 C 0.70247 0.69257 0.56855 0.0
C2827 C 0.70289 0.27083 0.41919 0.0
C2828 C 0.68469 0.2768 0.39964 0.0
C2829 C 0.72022 0.28966 0.42861 0.0
C2830 C 0.72037 0.31524 0.41858 0.0
H2831 H 0.70416 0.25121 0.42685 0.0
H2832 H 0.73453 0.28356 0.44286 0.0
S2833 S 0.6741 0.34164 0.3697 0.0
N2834 N 0.66593 0.31062 0.37241 0.0
N2835 N 0.69859 0.34619 0.39004 0.0
C2836 C 0.70103 0.32191 0.40027 0.0
C2837 C 0.68319 0.30267 0.39081 0.0
C2838 C 0.70267 0.67963 0.3754 0.0
C2839 C 0.72279 0.67665 0.39373 0.0
C2840 C 0.67898 0.6913 0.38228 0.0
C2841 C 0.67429 0.69976 0.40792 0.0
H2842 H 0.70556 0.67339 0.35544 0.0
H2843 H 0.66439 0.69422 0.36728 0.0
S2844 S 0.72027 0.69506 0.46352 0.0
N2845 N 0.7363 0.68217 0.43875 0.0
N2846 N 0.69156 0.70381 0.4519 0.0
C2847 C 0.69396 0.69612 0.42667 0.0
C2848 C 0.71831 0.68468 0.4195 0.0
C2849 C 0.31134 0.69585 0.37519 0.0
C2850 C 0.31687 0.71717 0.39133 0.0
C2851 C 0.2949 0.67573 0.38372 0.0
C2852 C 0.28341 0.67644 0.40869 0.0
H2853 H 0.31876 0.69545 0.35544 0.0
H2854 H 0.2899 0.66052 0.37003 0.0
S2855 S 0.29617 0.72621 0.45975 0.0
N2856 N 0.31275 0.7365 0.43415 0.0
N2857 N 0.28206 0.69876 0.45064 0.0
C2858 C 0.29068 0.69681 0.42566 0.0
C2859 C 0.30726 0.71726 0.41682 0.0
C2860 C 0.27441 0.30378 0.43233 0.0
C2861 C 0.2664 0.30906 0.40671 0.0
C2862 C 0.29942 0.29364 0.43739 0.0
C2863 C 0.31711 0.28864 0.41692 0.0
H2864 H 0.2615 0.30807 0.44847 0.0
H2865 H 0.30469 0.28919 0.45734 0.0
S2866 S 0.30509 0.30008 0.34656 0.0
N2867 N 0.27772 0.30892 0.36095 0.0
N2868 N 0.32473 0.29062 0.3702 0.0
C2869 C 0.30917 0.29426 0.39131 0.0
C2870 C 0.28382 0.30425 0.38627 0.0
C2871 C 0.32785 0.30054 0.60232 0.0
C2872 C 0.31527 0.27629 0.60591 0.0
C2873 C 0.31378 0.32323 0.59642 0.0
C2874 C 0.2866 0.32254 0.59419 0.0
H2875 H 0.3488 0.30211 0.60402 0.0
H2876 H 0.32414 0.34151 0.59449 0.0
S2877 S 0.24437 0.26404 0.5996 0.0
N2878 N 0.27402 0.25311 0.60558 0.0
N2879 N 0.24773 0.29547 0.59375 0.0
C2880 C 0.27387 0.29835 0.59667 0.0
C2881 C 0.28815 0.2753 0.6027 0.0
C2882 C 0.70919 0.30375 0.62808 0.0
C2883 C 0.72301 0.31652 0.60835 0.0
C2884 C 0.68551 0.2914 0.6227 0.0
C2885 C 0.67511 0.29084 0.59725 0.0
H2886 H 0.71659 0.30373 0.64784 0.0
H2887 H 0.67546 0.28188 0.63863 0.0
S2888 S 0.70388 0.32291 0.53912 0.0
N2889 N 0.72442 0.32957 0.563 0.0
N2890 N 0.68037 0.30527 0.55231 0.0
C2891 C 0.68856 0.30427 0.57747 0.0
C2892 C 0.71246 0.31729 0.58316 0.0
C2893 C 0.29747 0.68662 0.59718 0.0
C2894 C 0.27293 0.68718 0.58497 0.0
C2895 C 0.31723 0.70404 0.59007 0.0
C2896 C 0.31331 0.72266 0.57029 0.0
H2897 H 0.30104 0.67344 0.61323 0.0
H2898 H 0.33518 0.70376 0.60118 0.0
S2899 S 0.25421 0.72815 0.52866 0.0
N2900 N 0.24695 0.70504 0.54985 0.0
N2901 N 0.28408 0.73769 0.53592 0.0
C2902 C 0.28953 0.72184 0.55642 0.0
C2903 C 0.26931 0.70423 0.56397 0.0
loop_
_geom_bond_atom_site_label_1
_geom_bond_atom_site_label_2
_geom_bond_distance
_geom_bond_site_symmetry_2
_ccdc_geom_bond_type
C0 C1 1.351 . S
C0 N3 1.368 . S
C0 H5 0.931 . S
C1 C0 1.351 . S
C1 N2 1.373 . S
C1 H29 0.930 . S
N2 C1 1.373 . S
N2 C4 1.340 . S
N3 C0 1.368 . S
N3 C4 1.321 . S
N3 Co6 2.135 . S
C4 N2 1.340 . S
C4 N3 1.321 . S
C4 H28 0.930 . S
H5 C0 0.931 . S
Co6 N3 2.135 . S
Co6 N9 2.121 . S
Co6 O14 2.055 . S
Co6 O17 2.039 . S
Co6 N20 2.140 . S
C7 O8 1.227 . S
C7 O17 1.265 . S
O8 C7 1.227 . S
N9 Co6 2.121 . S
N9 C11 1.375 . S
N9 C12 1.313 . S
C10 C11 1.338 . S
C10 N13 1.377 . S
C10 H30 0.930 . S
C11 N9 1.375 . S
C11 C10 1.338 . S
C11 H15 0.931 . S
C12 N9 1.313 . S
C12 N13 1.344 . S
C12 H16 0.930 . S
N13 C10 1.377 . S
N13 C12 1.344 . S
O14 Co6 2.055 . S
O14 C18 1.253 . S
H15 C11 0.931 . S
H16 C12 0.930 . S
O17 Co6 2.039 . S
O17 C7 1.265 . S
C18 O14 1.253 . S
C18 O19 1.227 . S
O19 C18 1.227 . S
N20 Co6 2.140 . S
N20 C23 1.346 . S
N20 C24 1.345 . S
C21 C22 1.387 . S
C21 C25 1.391 . S
C22 C21 1.387 . S
C22 C23 1.369 . S
C22 H31 0.929 . S
C23 N20 1.346 . S
C23 C22 1.369 . S
C23 H26 0.928 . S
C24 N20 1.345 . S
C24 C25 1.371 . S
C24 H27 0.931 . S
C25 C21 1.391 . S
C25 C24 1.371 . S
C25 H32 0.930 . S
H26 C23 0.928 . S
H27 C24 0.931 . S
H28 C4 0.930 . S
H29 C1 0.930 . S
H30 C10 0.930 . S
H31 C22 0.929 . S
H32 C25 0.930 . S
C33 C34 1.351 . S
C33 N36 1.368 . S
C33 H38 0.931 . S
C34 C33 1.351 . S
C34 N35 1.373 . S
C34 H62 0.930 . S
N35 C34 1.373 . S
N35 C37 1.340 . S
N36 C33 1.368 . S
N36 C37 1.321 . S
N36 Co39 2.135 . S
C37 N35 1.340 . S
C37 N36 1.321 . S
C37 H61 0.930 . S
H38 C33 0.931 . S
Co39 N36 2.135 . S
Co39 N42 2.121 . S
Co39 O47 2.055 . S
Co39 O50 2.039 . S
Co39 N53 2.140 . S
C40 O41 1.227 . S
C40 O50 1.265 . S
O41 C40 1.227 . S
N42 Co39 2.121 . S
N42 C44 1.375 . S
N42 C45 1.313 . S
C43 C44 1.338 . S
C43 N46 1.377 . S
C43 H63 0.930 . S
C44 N42 1.375 . S
C44 C43 1.338 . S
C44 H48 0.931 . S
C45 N42 1.313 . S
C45 N46 1.344 . S
C45 H49 0.930 . S
N46 C43 1.377 . S
N46 C45 1.344 . S
O47 Co39 2.055 . S
O47 C51 1.253 . S
H48 C44 0.931 . S
H49 C45 0.930 . S
O50 Co39 2.039 . S
O50 C40 1.265 . S
C51 O47 1.253 . S
C51 O52 1.227 . S
O52 C51 1.227 . S
N53 Co39 2.140 . S
N53 C56 1.346 . S
N53 C57 1.345 . S
C54 C55 1.387 . S
C54 C58 1.391 . S
C55 C54 1.387 . S
C55 C56 1.369 . S
C55 H64 0.929 . S
C56 N53 1.346 . S
C56 C55 1.369 . S
C56 H59 0.928 . S
C57 N53 1.345 . S
C57 C58 1.371 . S
C57 H60 0.931 . S
C58 C54 1.391 . S
C58 C57 1.371 . S
C58 H65 0.930 . S
H59 C56 0.928 . S
H60 C57 0.931 . S
H61 C37 0.930 . S
H62 C34 0.930 . S
H63 C43 0.930 . S
H64 C55 0.929 . S
H65 C58 0.930 . S
C66 C67 1.351 . S
C66 N69 1.368 . S
C66 H71 0.931 . S
C67 C66 1.351 . S
C67 N68 1.373 . S
C67 H95 0.930 . S
N68 C67 1.373 . S
N68 C70 1.340 . S
N69 C66 1.368 . S
N69 C70 1.321 . S
N69 Co72 2.135 . S
C70 N68 1.340 . S
C70 N69 1.321 . S
C70 H94 0.930 . S
H71 C66 0.931 . S
Co72 N69 2.135 . S
Co72 N75 2.121 . S
Co72 O80 2.055 . S
Co72 O83 2.039 . S
Co72 N86 2.140 . S
C73 O74 1.227 . S
C73 O83 1.265 . S
O74 C73 1.227 . S
N75 Co72 2.121 . S
N75 C77 1.375 . S
N75 C78 1.313 . S
C76 C77 1.338 . S
C76 N79 1.377 . S
C76 H96 0.930 . S
C77 N75 1.375 . S
C77 C76 1.338 . S
C77 H81 0.931 . S
C78 N75 1.313 . S
C78 N79 1.344 . S
C78 H82 0.930 . S
N79 C76 1.377 . S
N79 C78 1.344 . S
O80 Co72 2.055 . S
O80 C84 1.253 . S
H81 C77 0.931 . S
H82 C78 0.930 . S
O83 Co72 2.039 . S
O83 C73 1.265 . S
C84 O80 1.253 . S
C84 O85 1.227 . S
O85 C84 1.227 . S
N86 Co72 2.140 . S
N86 C89 1.346 . S
N86 C90 1.345 . S
C87 C88 1.387 . S
C87 C91 1.391 . S
C88 C87 1.387 . S
C88 C89 1.369 . S
C88 H97 0.929 . S
C89 N86 1.346 . S
C89 C88 1.369 . S
C89 H92 0.928 . S
C90 N86 1.345 . S
C90 C91 1.371 . S
C90 H93 0.931 . S
C91 C87 1.391 . S
C91 C90 1.371 . S
C91 H98 0.930 . S
H92 C89 0.928 . S
H93 C90 0.931 . S
H94 C70 0.930 . S
H95 C67 0.930 . S
H96 C76 0.930 . S
H97 C88 0.929 . S
H98 C91 0.930 . S
C99 C100 1.351 . S
C99 N102 1.368 . S
C99 H104 0.931 . S
C100 C99 1.351 . S
C100 N101 1.373 . S
C100 H128 0.930 . S
N101 C100 1.373 . S
N101 C103 1.340 . S
N102 C99 1.368 . S
N102 C103 1.321 . S
N102 Co105 2.135 . S
C103 N101 1.340 . S
C103 N102 1.321 . S
C103 H127 0.930 . S
H104 C99 0.931 . S
Co105 N102 2.135 . S
Co105 N108 2.121 . S
Co105 O113 2.055 . S
Co105 O116 2.039 . S
Co105 N119 2.140 . S
C106 O107 1.227 . S
C106 O116 1.265 . S
O107 C106 1.227 . S
N108 Co105 2.121 . S
N108 C110 1.375 . S
N108 C111 1.313 . S
C109 C110 1.338 . S
C109 N112 1.377 . S
C109 H129 0.930 . S
C110 N108 1.375 . S
C110 C109 1.338 . S
C110 H114 0.931 . S
C111 N108 1.313 . S
C111 N112 1.344 . S
C111 H115 0.930 . S
N112 C109 1.377 . S
N112 C111 1.344 . S
O113 Co105 2.055 . S
O113 C117 1.253 . S
H114 C110 0.931 . S
H115 C111 0.930 . S
O116 Co105 2.039 . S
O116 C106 1.265 . S
C117 O113 1.253 . S
C117 O118 1.227 . S
O118 C117 1.227 . S
N119 Co105 2.140 . S
N119 C122 1.346 . S
N119 C123 1.345 . S
C120 C121 1.387 . S
C120 C124 1.391 . S
C121 C120 1.387 . S
C121 C122 1.369 . S
C121 H130 0.929 . S
C122 N119 1.346 . S
C122 C121 1.369 . S
C122 H125 0.928 . S
C123 N119 1.345 . S
C123 C124 1.371 . S
C123 H126 0.931 . S
C124 C120 1.391 . S
C124 C123 1.371 . S
C124 H131 0.930 . S
H125 C122 0.928 . S
H126 C123 0.931 . S
H127 C103 0.930 . S
H128 C100 0.930 . S
H129 C109 0.930 . S
H130 C121 0.929 . S
H131 C124 0.930 . S
C132 C133 1.351 . S
C132 N135 1.368 . S
C132 H137 0.931 . S
C133 C132 1.351 . S
C133 N134 1.373 . S
C133 H161 0.930 . S
N134 C133 1.373 . S
N134 C136 1.340 . S
N135 C132 1.368 . S
N135 C136 1.321 . S
N135 Co138 2.135 . S
C136 N134 1.340 . S
C136 N135 1.321 . S
C136 H160 0.930 . S
H137 C132 0.931 . S
Co138 N135 2.135 . S
Co138 N141 2.121 . S
Co138 O146 2.055 . S
Co138 O149 2.039 . S
Co138 N152 2.140 . S
C139 O140 1.227 . S
C139 O149 1.265 . S
O140 C139 1.227 . S
N141 Co138 2.121 . S
N141 C143 1.375 . S
N141 C144 1.313 . S
C142 C143 1.338 . S
C142 N145 1.377 . S
C142 H162 0.930 . S
C143 N141 1.375 . S
C143 C142 1.338 . S
C143 H147 0.931 . S
C144 N141 1.313 . S
C144 N145 1.344 . S
C144 H148 0.930 . S
N145 C142 1.377 . S
N145 C144 1.344 . S
O146 Co138 2.055 . S
O146 C150 1.253 . S
H147 C143 0.931 . S
H148 C144 0.930 . S
O149 Co138 2.039 . S
O149 C139 1.265 . S
C150 O146 1.253 . S
C150 O151 1.227 . S
O151 C150 1.227 . S
N152 Co138 2.140 . S
N152 C155 1.346 . S
N152 C156 1.345 . S
C153 C154 1.387 . S
C153 C157 1.391 . S
C154 C153 1.387 . S
C154 C155 1.369 . S
C154 H163 0.929 . S
C155 N152 1.346 . S
C155 C154 1.369 . S
C155 H158 0.928 . S
C156 N152 1.345 . S
C156 C157 1.371 . S
C156 H159 0.931 . S
C157 C153 1.391 . S
C157 C156 1.371 . S
C157 H164 0.930 . S
H158 C155 0.928 . S
H159 C156 0.931 . S
H160 C136 0.930 . S
H161 C133 0.930 . S
H162 C142 0.930 . S
H163 C154 0.929 . S
H164 C157 0.930 . S
C165 C166 1.351 . S
C165 N168 1.368 . S
C165 H170 0.931 . S
C166 C165 1.351 . S
C166 N167 1.373 . S
C166 H194 0.930 . S
N167 C166 1.373 . S
N167 C169 1.340 . S
N168 C165 1.368 . S
N168 C169 1.321 . S
N168 Co171 2.135 . S
C169 N167 1.340 . S
C169 N168 1.321 . S
C169 H193 0.930 . S
H170 C165 0.931 . S
Co171 N168 2.135 . S
Co171 N174 2.121 . S
Co171 O179 2.055 . S
Co171 O182 2.039 . S
Co171 N185 2.140 . S
C172 O173 1.227 . S
C172 O182 1.265 . S
O173 C172 1.227 . S
N174 Co171 2.121 . S
N174 C176 1.375 . S
N174 C177 1.313 . S
C175 C176 1.338 . S
C175 N178 1.377 . S
C175 H195 0.930 . S
C176 N174 1.375 . S
C176 C175 1.338 . S
C176 H180 0.931 . S
C177 N174 1.313 . S
C177 N178 1.344 . S
C177 H181 0.930 . S
N178 C175 1.377 . S
N178 C177 1.344 . S
O179 Co171 2.055 . S
O179 C183 1.253 . S
H180 C176 0.931 . S
H181 C177 0.930 . S
O182 Co171 2.039 . S
O182 C172 1.265 . S
C183 O179 1.253 . S
C183 O184 1.227 . S
O184 C183 1.227 . S
N185 Co171 2.140 . S
N185 C188 1.346 . S
N185 C189 1.345 . S
C186 C187 1.387 . S
C186 C190 1.391 . S
C187 C186 1.387 . S
C187 C188 1.369 . S
C187 H196 0.929 . S
C188 N185 1.346 . S
C188 C187 1.369 . S
C188 H191 0.928 . S
C189 N185 1.345 . S
C189 C190 1.371 . S
C189 H192 0.931 . S
C190 C186 1.391 . S
C190 C189 1.371 . S
C190 H197 0.930 . S
H191 C188 0.928 . S
H192 C189 0.931 . S
H193 C169 0.930 . S
H194 C166 0.930 . S
H195 C175 0.930 . S
H196 C187 0.929 . S
H197 C190 0.930 . S
C198 C199 1.351 . S
C198 N201 1.368 . S
C198 H203 0.931 . S
C199 C198 1.351 . S
C199 N200 1.373 . S
C199 H227 0.930 . S
N200 C199 1.373 . S
N200 C202 1.340 . S
N201 C198 1.368 . S
N201 C202 1.321 . S
N201 Co204 2.135 . S
C202 N200 1.340 . S
C202 N201 1.321 . S
C202 H226 0.930 . S
H203 C198 0.931 . S
Co204 N201 2.135 . S
Co204 N207 2.121 . S
Co204 O212 2.055 . S
Co204 O215 2.039 . S
Co204 N218 2.140 . S
C205 O206 1.227 . S
C205 O215 1.265 . S
O206 C205 1.227 . S
N207 Co204 2.121 . S
N207 C209 1.375 . S
N207 C210 1.313 . S
C208 C209 1.338 . S
C208 N211 1.377 . S
C208 H228 0.930 . S
C209 N207 1.375 . S
C209 C208 1.338 . S
C209 H213 0.931 . S
C210 N207 1.313 . S
C210 N211 1.344 . S
C210 H214 0.930 . S
N211 C208 1.377 . S
N211 C210 1.344 . S
O212 Co204 2.055 . S
O212 C216 1.253 . S
H213 C209 0.931 . S
H214 C210 0.930 . S
O215 Co204 2.039 . S
O215 C205 1.265 . S
C216 O212 1.253 . S
C216 O217 1.227 . S
O217 C216 1.227 . S
N218 Co204 2.140 . S
N218 C221 1.346 . S
N218 C222 1.345 . S
C219 C220 1.387 . S
C219 C223 1.391 . S
C220 C219 1.387 . S
C220 C221 1.369 . S
C220 H229 0.929 . S
C221 N218 1.346 . S
C221 C220 1.369 . S
C221 H224 0.928 . S
C222 N218 1.345 . S
C222 C223 1.371 . S
C222 H225 0.931 . S
C223 C219 1.391 . S
C223 C222 1.371 . S
C223 H230 0.930 . S
H224 C221 0.928 . S
H225 C222 0.931 . S
H226 C202 0.930 . S
H227 C199 0.930 . S
H228 C208 0.930 . S
H229 C220 0.929 . S
H230 C223 0.930 . S
C231 C232 1.351 . S
C231 N234 1.368 . S
C231 H236 0.931 . S
C232 C231 1.351 . S
C232 N233 1.373 . S
C232 H260 0.930 . S
N233 C232 1.373 . S
N233 C235 1.340 . S
N234 C231 1.368 . S
N234 C235 1.321 . S
N234 Co237 2.135 . S
C235 N233 1.340 . S
C235 N234 1.321 . S
C235 H259 0.930 . S
H236 C231 0.931 . S
Co237 N234 2.135 . S
Co237 N240 2.121 . S
Co237 O245 2.055 . S
Co237 O248 2.039 . S
Co237 N251 2.140 . S
C238 O239 1.227 . S
C238 O248 1.265 . S
O239 C238 1.227 . S
N240 Co237 2.121 . S
N240 C242 1.375 . S
N240 C243 1.313 . S
C241 C242 1.338 . S
C241 N244 1.377 . S
C241 H261 0.930 . S
C242 N240 1.375 . S
C242 C241 1.338 . S
C242 H246 0.931 . S
C243 N240 1.313 . S
C243 N244 1.344 . S
C243 H247 0.930 . S
N244 C241 1.377 . S
N244 C243 1.344 . S
O245 Co237 2.055 . S
O245 C249 1.253 . S
H246 C242 0.931 . S
H247 C243 0.930 . S
O248 Co237 2.039 . S
O248 C238 1.265 . S
C249 O245 1.253 . S
C249 O250 1.227 . S
O250 C249 1.227 . S
N251 Co237 2.140 . S
N251 C254 1.346 . S
N251 C255 1.345 . S
C252 C253 1.387 . S
C252 C256 1.391 . S
C253 C252 1.387 . S
C253 C254 1.369 . S
C253 H262 0.929 . S
C254 N251 1.346 . S
C254 C253 1.369 . S
C254 H257 0.928 . S
C255 N251 1.345 . S
C255 C256 1.371 . S
C255 H258 0.931 . S
C256 C252 1.391 . S
C256 C255 1.371 . S
C256 H263 0.930 . S
H257 C254 0.928 . S
H258 C255 0.931 . S
H259 C235 0.930 . S
H260 C232 0.930 . S
H261 C241 0.930 . S
H262 C253 0.929 . S
H263 C256 0.930 . S
C264 C265 1.351 . S
C264 N267 1.368 . S
C264 H269 0.931 . S
C265 C264 1.351 . S
C265 N266 1.373 . S
C265 H293 0.930 . S
N266 C265 1.373 . S
N266 C268 1.340 . S
N267 C264 1.368 . S
N267 C268 1.321 . S
N267 Co270 2.135 . S
C268 N266 1.340 . S
C268 N267 1.321 . S
C268 H292 0.930 . S
H269 C264 0.931 . S
Co270 N267 2.135 . S
Co270 N273 2.121 . S
Co270 O278 2.055 . S
Co270 O281 2.039 . S
Co270 N284 2.140 . S
C271 O272 1.227 . S
C271 O281 1.265 . S
O272 C271 1.227 . S
N273 Co270 2.121 . S
N273 C275 1.375 . S
N273 C276 1.313 . S
C274 C275 1.338 . S
C274 N277 1.377 . S
C274 H294 0.930 . S
C275 N273 1.375 . S
C275 C274 1.338 . S
C275 H279 0.931 . S
C276 N273 1.313 . S
C276 N277 1.344 . S
C276 H280 0.930 . S
N277 C274 1.377 . S
N277 C276 1.344 . S
O278 Co270 2.055 . S
O278 C282 1.253 . S
H279 C275 0.931 . S
H280 C276 0.930 . S
O281 Co270 2.039 . S
O281 C271 1.265 . S
C282 O278 1.253 . S
C282 O283 1.227 . S
O283 C282 1.227 . S
N284 Co270 2.140 . S
N284 C287 1.346 . S
N284 C288 1.345 . S
C285 C286 1.387 . S
C285 C289 1.391 . S
C286 C285 1.387 . S
C286 C287 1.369 . S
C286 H295 0.929 . S
C287 N284 1.346 . S
C287 C286 1.369 . S
C287 H290 0.928 . S
C288 N284 1.345 . S
C288 C289 1.371 . S
C288 H291 0.931 . S
C289 C285 1.391 . S
C289 C288 1.371 . S
C289 H296 0.930 . S
H290 C287 0.928 . S
H291 C288 0.931 . S
H292 C268 0.930 . S
H293 C265 0.930 . S
H294 C274 0.930 . S
H295 C286 0.929 . S
H296 C289 0.930 . S
C297 C298 1.351 . S
C297 N300 1.368 . S
C297 H302 0.931 . S
C298 C297 1.351 . S
C298 N299 1.373 . S
C298 H326 0.930 . S
N299 C298 1.373 . S
N299 C301 1.340 . S
N300 C297 1.368 . S
N300 C301 1.321 . S
N300 Co303 2.135 . S
C301 N299 1.340 . S
C301 N300 1.321 . S
C301 H325 0.930 . S
H302 C297 0.931 . S
Co303 N300 2.135 . S
Co303 N306 2.121 . S
Co303 O311 2.055 . S
Co303 O314 2.039 . S
Co303 N317 2.140 . S
C304 O305 1.227 . S
C304 O314 1.265 . S
O305 C304 1.227 . S
N306 Co303 2.121 . S
N306 C308 1.375 . S
N306 C309 1.313 . S
C307 C308 1.338 . S
C307 N310 1.377 . S
C307 H327 0.930 . S
C308 N306 1.375 . S
C308 C307 1.338 . S
C308 H312 0.931 . S
C309 N306 1.313 . S
C309 N310 1.344 . S
C309 H313 0.930 . S
N310 C307 1.377 . S
N310 C309 1.344 . S
O311 Co303 2.055 . S
O311 C315 1.253 . S
H312 C308 0.931 . S
H313 C309 0.930 . S
O314 Co303 2.039 . S
O314 C304 1.265 . S
C315 O311 1.253 . S
C315 O316 1.227 . S
O316 C315 1.227 . S
N317 Co303 2.140 . S
N317 C320 1.346 . S
N317 C321 1.345 . S
C318 C319 1.387 . S
C318 C322 1.391 . S
C319 C318 1.387 . S
C319 C320 1.369 . S
C319 H328 0.929 . S
C320 N317 1.346 . S
C320 C319 1.369 . S
C320 H323 0.928 . S
C321 N317 1.345 . S
C321 C322 1.371 . S
C321 H324 0.931 . S
C322 C318 1.391 . S
C322 C321 1.371 . S
C322 H329 0.930 . S
H323 C320 0.928 . S
H324 C321 0.931 . S
H325 C301 0.930 . S
H326 C298 0.930 . S
H327 C307 0.930 . S
H328 C319 0.929 . S
H329 C322 0.930 . S
C330 C331 1.351 . S
C330 N333 1.368 . S
C330 H335 0.931 . S
C331 C330 1.351 . S
C331 N332 1.373 . S
C331 H359 0.930 . S
N332 C331 1.373 . S
N332 C334 1.340 . S
N333 C330 1.368 . S
N333 C334 1.321 . S
N333 Co336 2.135 . S
C334 N332 1.340 . S
C334 N333 1.321 . S
C334 H358 0.930 . S
H335 C330 0.931 . S
Co336 N333 2.135 . S
Co336 N339 2.121 . S
Co336 O344 2.055 . S
Co336 O347 2.039 . S
Co336 N350 2.140 . S
C337 O338 1.227 . S
C337 O347 1.265 . S
O338 C337 1.227 . S
N339 Co336 2.121 . S
N339 C341 1.375 . S
N339 C342 1.313 . S
C340 C341 1.338 . S
C340 N343 1.377 . S
C340 H360 0.930 . S
C341 N339 1.375 . S
C341 C340 1.338 . S
C341 H345 0.931 . S
C342 N339 1.313 . S
C342 N343 1.344 . S
C342 H346 0.930 . S
N343 C340 1.377 . S
N343 C342 1.344 . S
O344 Co336 2.055 . S
O344 C348 1.253 . S
H345 C341 0.931 . S
H346 C342 0.930 . S
O347 Co336 2.039 . S
O347 C337 1.265 . S
C348 O344 1.253 . S
C348 O349 1.227 . S
O349 C348 1.227 . S
N350 Co336 2.140 . S
N350 C353 1.346 . S
N350 C354 1.345 . S
C351 C352 1.387 . S
C351 C355 1.391 . S
C352 C351 1.387 . S
C352 C353 1.369 . S
C352 H361 0.929 . S
C353 N350 1.346 . S
C353 C352 1.369 . S
C353 H356 0.928 . S
C354 N350 1.345 . S
C354 C355 1.371 . S
C354 H357 0.931 . S
C355 C351 1.391 . S
C355 C354 1.371 . S
C355 H362 0.930 . S
H356 C353 0.928 . S
H357 C354 0.931 . S
H358 C334 0.930 . S
H359 C331 0.930 . S
H360 C340 0.930 . S
H361 C352 0.929 . S
H362 C355 0.930 . S
C363 C364 1.351 . S
C363 N366 1.368 . S
C363 H368 0.931 . S
C364 C363 1.351 . S
C364 N365 1.373 . S
C364 H392 0.930 . S
N365 C364 1.373 . S
N365 C367 1.340 . S
N366 C363 1.368 . S
N366 C367 1.321 . S
N366 Co369 2.135 . S
C367 N365 1.340 . S
C367 N366 1.321 . S
C367 H391 0.930 . S
H368 C363 0.931 . S
Co369 N366 2.135 . S
Co369 N372 2.121 . S
Co369 O377 2.055 . S
Co369 O380 2.039 . S
Co369 N383 2.140 . S
C370 O371 1.227 . S
C370 O380 1.265 . S
O371 C370 1.227 . S
N372 Co369 2.121 . S
N372 C374 1.375 . S
N372 C375 1.313 . S
C373 C374 1.338 . S
C373 N376 1.377 . S
C373 H393 0.930 . S
C374 N372 1.375 . S
C374 C373 1.338 . S
C374 H378 0.931 . S
C375 N372 1.313 . S
C375 N376 1.344 . S
C375 H379 0.930 . S
N376 C373 1.377 . S
N376 C375 1.344 . S
O377 Co369 2.055 . S
O377 C381 1.253 . S
H378 C374 0.931 . S
H379 C375 0.930 . S
O380 Co369 2.039 . S
O380 C370 1.265 . S
C381 O377 1.253 . S
C381 O382 1.227 . S
O382 C381 1.227 . S
N383 Co369 2.140 . S
N383 C386 1.346 . S
N383 C387 1.345 . S
C384 C385 1.387 . S
C384 C388 1.391 . S
C385 C384 1.387 . S
C385 C386 1.369 . S
C385 H394 0.929 . S
C386 N383 1.346 . S
C386 C385 1.369 . S
C386 H389 0.928 . S
C387 N383 1.345 . S
C387 C388 1.371 . S
C387 H390 0.931 . S
C388 C384 1.391 . S
C388 C387 1.371 . S
C388 H395 0.930 . S
H389 C386 0.928 . S
H390 C387 0.931 . S
H391 C367 0.930 . S
H392 C364 0.930 . S
H393 C373 0.930 . S
H394 C385 0.929 . S
H395 C388 0.930 . S
C396 C397 1.351 . S
C396 N399 1.368 . S
C396 H401 0.931 . S
C397 C396 1.351 . S
C397 N398 1.373 . S
C397 H425 0.930 . S
N398 C397 1.373 . S
N398 C400 1.340 . S
N399 C396 1.368 . S
N399 C400 1.321 . S
N399 Co402 2.135 . S
C400 N398 1.340 . S
C400 N399 1.321 . S
C400 H424 0.930 . S
H401 C396 0.931 . S
Co402 N399 2.135 . S
Co402 N405 2.121 . S
Co402 O410 2.055 . S
Co402 O413 2.039 . S
Co402 N416 2.140 . S
C403 O404 1.227 . S
C403 O413 1.265 . S
O404 C403 1.227 . S
N405 Co402 2.121 . S
N405 C407 1.375 . S
N405 C408 1.313 . S
C406 C407 1.338 . S
C406 N409 1.377 . S
C406 H426 0.930 . S
C407 N405 1.375 . S
C407 C406 1.338 . S
C407 H411 0.931 . S
C408 N405 1.313 . S
C408 N409 1.344 . S
C408 H412 0.930 . S
N409 C406 1.377 . S
N409 C408 1.344 . S
O410 Co402 2.055 . S
O410 C414 1.253 . S
H411 C407 0.931 . S
H412 C408 0.930 . S
O413 Co402 2.039 . S
O413 C403 1.265 . S
C414 O410 1.253 . S
C414 O415 1.227 . S
O415 C414 1.227 . S
N416 Co402 2.140 . S
N416 C419 1.346 . S
N416 C420 1.345 . S
C417 C418 1.387 . S
C417 C421 1.391 . S
C418 C417 1.387 . S
C418 C419 1.369 . S
C418 H427 0.929 . S
C419 N416 1.346 . S
C419 C418 1.369 . S
C419 H422 0.928 . S
C420 N416 1.345 . S
C420 C421 1.371 . S
C420 H423 0.931 . S
C421 C417 1.391 . S
C421 C420 1.371 . S
C421 H428 0.930 . S
H422 C419 0.928 . S
H423 C420 0.931 . S
H424 C400 0.930 . S
H425 C397 0.930 . S
H426 C406 0.930 . S
H427 C418 0.929 . S
H428 C421 0.930 . S
C429 C430 1.351 . S
C429 N432 1.368 . S
C429 H434 0.931 . S
C430 C429 1.351 . S
C430 N431 1.373 . S
C430 H458 0.930 . S
N431 C430 1.373 . S
N431 C433 1.340 . S
N432 C429 1.368 . S
N432 C433 1.321 . S
N432 Co435 2.135 . S
C433 N431 1.340 . S
C433 N432 1.321 . S
C433 H457 0.930 . S
H434 C429 0.931 . S
Co435 N432 2.135 . S
Co435 N438 2.121 . S
Co435 O443 2.055 . S
Co435 O446 2.039 . S
Co435 N449 2.140 . S
C436 O437 1.227 . S
C436 O446 1.265 . S
O437 C436 1.227 . S
N438 Co435 2.121 . S
N438 C440 1.375 . S
N438 C441 1.313 . S
C439 C440 1.338 . S
C439 N442 1.377 . S
C439 H459 0.930 . S
C440 N438 1.375 . S
C440 C439 1.338 . S
C440 H444 0.931 . S
C441 N438 1.313 . S
C441 N442 1.344 . S
C441 H445 0.930 . S
N442 C439 1.377 . S
N442 C441 1.344 . S
O443 Co435 2.055 . S
O443 C447 1.253 . S
H444 C440 0.931 . S
H445 C441 0.930 . S
O446 Co435 2.039 . S
O446 C436 1.265 . S
C447 O443 1.253 . S
C447 O448 1.227 . S
O448 C447 1.227 . S
N449 Co435 2.140 . S
N449 C452 1.346 . S
N449 C453 1.345 . S
C450 C451 1.387 . S
C450 C454 1.391 . S
C451 C450 1.387 . S
C451 C452 1.369 . S
C451 H460 0.929 . S
C452 N449 1.346 . S
C452 C451 1.369 . S
C452 H455 0.928 . S
C453 N449 1.345 . S
C453 C454 1.371 . S
C453 H456 0.931 . S
C454 C450 1.391 . S
C454 C453 1.371 . S
C454 H461 0.930 . S
H455 C452 0.928 . S
H456 C453 0.931 . S
H457 C433 0.930 . S
H458 C430 0.930 . S
H459 C439 0.930 . S
H460 C451 0.929 . S
H461 C454 0.930 . S
C462 C463 1.351 . S
C462 N465 1.368 . S
C462 H467 0.931 . S
C463 C462 1.351 . S
C463 N464 1.373 . S
C463 H491 0.930 . S
N464 C463 1.373 . S
N464 C466 1.340 . S
N465 C462 1.368 . S
N465 C466 1.321 . S
N465 Co468 2.135 . S
C466 N464 1.340 . S
C466 N465 1.321 . S
C466 H490 0.930 . S
H467 C462 0.931 . S
Co468 N465 2.135 . S
Co468 N471 2.121 . S
Co468 O476 2.055 . S
Co468 O479 2.039 . S
Co468 N482 2.140 . S
C469 O470 1.227 . S
C469 O479 1.265 . S
O470 C469 1.227 . S
N471 Co468 2.121 . S
N471 C473 1.375 . S
N471 C474 1.313 . S
C472 C473 1.338 . S
C472 N475 1.377 . S
C472 H492 0.930 . S
C473 N471 1.375 . S
C473 C472 1.338 . S
C473 H477 0.931 . S
C474 N471 1.313 . S
C474 N475 1.344 . S
C474 H478 0.930 . S
N475 C472 1.377 . S
N475 C474 1.344 . S
O476 Co468 2.055 . S
O476 C480 1.253 . S
H477 C473 0.931 . S
H478 C474 0.930 . S
O479 Co468 2.039 . S
O479 C469 1.265 . S
C480 O476 1.253 . S
C480 O481 1.227 . S
O481 C480 1.227 . S
N482 Co468 2.140 . S
N482 C485 1.346 . S
N482 C486 1.345 . S
C483 C484 1.387 . S
C483 C487 1.391 . S
C484 C483 1.387 . S
C484 C485 1.369 . S
C484 H493 0.929 . S
C485 N482 1.346 . S
C485 C484 1.369 . S
C485 H488 0.928 . S
C486 N482 1.345 . S
C486 C487 1.371 . S
C486 H489 0.931 . S
C487 C483 1.391 . S
C487 C486 1.371 . S
C487 H494 0.930 . S
H488 C485 0.928 . S
H489 C486 0.931 . S
H490 C466 0.930 . S
H491 C463 0.930 . S
H492 C472 0.930 . S
H493 C484 0.929 . S
H494 C487 0.930 . S
C495 C496 1.351 . S
C495 N498 1.368 . S
C495 H500 0.931 . S
C496 C495 1.351 . S
C496 N497 1.373 . S
C496 H524 0.930 . S
N497 C496 1.373 . S
N497 C499 1.340 . S
N498 C495 1.368 . S
N498 C499 1.321 . S
N498 Co501 2.135 . S
C499 N497 1.340 . S
C499 N498 1.321 . S
C499 H523 0.930 . S
H500 C495 0.931 . S
Co501 N498 2.135 . S
Co501 N504 2.121 . S
Co501 O509 2.055 . S
Co501 O512 2.039 . S
Co501 N515 2.140 . S
C502 O503 1.227 . S
C502 O512 1.265 . S
O503 C502 1.227 . S
N504 Co501 2.121 . S
N504 C506 1.375 . S
N504 C507 1.313 . S
C505 C506 1.338 . S
C505 N508 1.377 . S
C505 H525 0.930 . S
C506 N504 1.375 . S
C506 C505 1.338 . S
C506 H510 0.931 . S
C507 N504 1.313 . S
C507 N508 1.344 . S
C507 H511 0.930 . S
N508 C505 1.377 . S
N508 C507 1.344 . S
O509 Co501 2.055 . S
O509 C513 1.253 . S
H510 C506 0.931 . S
H511 C507 0.930 . S
O512 Co501 2.039 . S
O512 C502 1.265 . S
C513 O509 1.253 . S
C513 O514 1.227 . S
O514 C513 1.227 . S
N515 Co501 2.140 . S
N515 C518 1.346 . S
N515 C519 1.345 . S
C516 C517 1.387 . S
C516 C520 1.391 . S
C517 C516 1.387 . S
C517 C518 1.369 . S
C517 H526 0.929 . S
C518 N515 1.346 . S
C518 C517 1.369 . S
C518 H521 0.928 . S
C519 N515 1.345 . S
C519 C520 1.371 . S
C519 H522 0.931 . S
C520 C516 1.391 . S
C520 C519 1.371 . S
C520 H527 0.930 . S
H521 C518 0.928 . S
H522 C519 0.931 . S
H523 C499 0.930 . S
H524 C496 0.930 . S
H525 C505 0.930 . S
H526 C517 0.929 . S
H527 C520 0.930 . S
C528 C529 1.351 . S
C528 N531 1.368 . S
C528 H533 0.931 . S
C529 C528 1.351 . S
C529 N530 1.373 . S
C529 H557 0.930 . S
N530 C529 1.373 . S
N530 C532 1.340 . S
N531 C528 1.368 . S
N531 C532 1.321 . S
N531 Co534 2.135 . S
C532 N530 1.340 . S
C532 N531 1.321 . S
C532 H556 0.930 . S
H533 C528 0.931 . S
Co534 N531 2.135 . S
Co534 N537 2.121 . S
Co534 O542 2.055 . S
Co534 O545 2.039 . S
Co534 N548 2.140 . S
C535 O536 1.227 . S
C535 O545 1.265 . S
O536 C535 1.227 . S
N537 Co534 2.121 . S
N537 C539 1.375 . S
N537 C540 1.313 . S
C538 C539 1.338 . S
C538 N541 1.377 . S
C538 H558 0.930 . S
C539 N537 1.375 . S
C539 C538 1.338 . S
C539 H543 0.931 . S
C540 N537 1.313 . S
C540 N541 1.344 . S
C540 H544 0.930 . S
N541 C538 1.377 . S
N541 C540 1.344 . S
O542 Co534 2.055 . S
O542 C546 1.253 . S
H543 C539 0.931 . S
H544 C540 0.930 . S
O545 Co534 2.039 . S
O545 C535 1.265 . S
C546 O542 1.253 . S
C546 O547 1.227 . S
O547 C546 1.227 . S
N548 Co534 2.140 . S
N548 C551 1.346 . S
N548 C552 1.345 . S
C549 C550 1.387 . S
C549 C553 1.391 . S
C550 C549 1.387 . S
C550 C551 1.369 . S
C550 H559 0.929 . S
C551 N548 1.346 . S
C551 C550 1.369 . S
C551 H554 0.928 . S
C552 N548 1.345 . S
C552 C553 1.371 . S
C552 H555 0.931 . S
C553 C549 1.391 . S
C553 C552 1.371 . S
C553 H560 0.930 . S
H554 C551 0.928 . S
H555 C552 0.931 . S
H556 C532 0.930 . S
H557 C529 0.930 . S
H558 C538 0.930 . S
H559 C550 0.929 . S
H560 C553 0.930 . S
C561 C562 1.351 . S
C561 N564 1.368 . S
C561 H566 0.931 . S
C562 C561 1.351 . S
C562 N563 1.373 . S
C562 H590 0.930 . S
N563 C562 1.373 . S
N563 C565 1.340 . S
N564 C561 1.368 . S
N564 C565 1.321 . S
N564 Co567 2.135 . S
C565 N563 1.340 . S
C565 N564 1.321 . S
C565 H589 0.930 . S
H566 C561 0.931 . S
Co567 N564 2.135 . S
Co567 N570 2.121 . S
Co567 O575 2.055 . S
Co567 O578 2.039 . S
Co567 N581 2.140 . S
C568 O569 1.227 . S
C568 O578 1.265 . S
O569 C568 1.227 . S
N570 Co567 2.121 . S
N570 C572 1.375 . S
N570 C573 1.313 . S
C571 C572 1.338 . S
C571 N574 1.377 . S
C571 H591 0.930 . S
C572 N570 1.375 . S
C572 C571 1.338 . S
C572 H576 0.931 . S
C573 N570 1.313 . S
C573 N574 1.344 . S
C573 H577 0.930 . S
N574 C571 1.377 . S
N574 C573 1.344 . S
O575 Co567 2.055 . S
O575 C579 1.253 . S
H576 C572 0.931 . S
H577 C573 0.930 . S
O578 Co567 2.039 . S
O578 C568 1.265 . S
C579 O575 1.253 . S
C579 O580 1.227 . S
O580 C579 1.227 . S
N581 Co567 2.140 . S
N581 C584 1.346 . S
N581 C585 1.345 . S
C582 C583 1.387 . S
C582 C586 1.391 . S
C583 C582 1.387 . S
C583 C584 1.369 . S
C583 H592 0.929 . S
C584 N581 1.346 . S
C584 C583 1.369 . S
C584 H587 0.928 . S
C585 N581 1.345 . S
C585 C586 1.371 . S
C585 H588 0.931 . S
C586 C582 1.391 . S
C586 C585 1.371 . S
C586 H593 0.930 . S
H587 C584 0.928 . S
H588 C585 0.931 . S
H589 C565 0.930 . S
H590 C562 0.930 . S
H591 C571 0.930 . S
H592 C583 0.929 . S
H593 C586 0.930 . S
C594 C595 1.351 . S
C594 N597 1.368 . S
C594 H599 0.931 . S
C595 C594 1.351 . S
C595 N596 1.373 . S
C595 H623 0.930 . S
N596 C595 1.373 . S
N596 C598 1.340 . S
N597 C594 1.368 . S
N597 C598 1.321 . S
N597 Co600 2.135 . S
C598 N596 1.340 . S
C598 N597 1.321 . S
C598 H622 0.930 . S
H599 C594 0.931 . S
Co600 N597 2.135 . S
Co600 N603 2.121 . S
Co600 O608 2.055 . S
Co600 O611 2.039 . S
Co600 N614 2.140 . S
C601 O602 1.227 . S
C601 O611 1.265 . S
O602 C601 1.227 . S
N603 Co600 2.121 . S
N603 C605 1.375 . S
N603 C606 1.313 . S
C604 C605 1.338 . S
C604 N607 1.377 . S
C604 H624 0.930 . S
C605 N603 1.375 . S
C605 C604 1.338 . S
C605 H609 0.931 . S
C606 N603 1.313 . S
C606 N607 1.344 . S
C606 H610 0.930 . S
N607 C604 1.377 . S
N607 C606 1.344 . S
O608 Co600 2.055 . S
O608 C612 1.253 . S
H609 C605 0.931 . S
H610 C606 0.930 . S
O611 Co600 2.039 . S
O611 C601 1.265 . S
C612 O608 1.253 . S
C612 O613 1.227 . S
O613 C612 1.227 . S
N614 Co600 2.140 . S
N614 C617 1.346 . S
N614 C618 1.345 . S
C615 C616 1.387 . S
C615 C619 1.391 . S
C616 C615 1.387 . S
C616 C617 1.369 . S
C616 H625 0.929 . S
C617 N614 1.346 . S
C617 C616 1.369 . S
C617 H620 0.928 . S
C618 N614 1.345 . S
C618 C619 1.371 . S
C618 H621 0.931 . S
C619 C615 1.391 . S
C619 C618 1.371 . S
C619 H626 0.930 . S
H620 C617 0.928 . S
H621 C618 0.931 . S
H622 C598 0.930 . S
H623 C595 0.930 . S
H624 C604 0.930 . S
H625 C616 0.929 . S
H626 C619 0.930 . S
C627 C628 1.351 . S
C627 N630 1.368 . S
C627 H632 0.931 . S
C628 C627 1.351 . S
C628 N629 1.373 . S
C628 H656 0.930 . S
N629 C628 1.373 . S
N629 C631 1.340 . S
N630 C627 1.368 . S
N630 C631 1.321 . S
N630 Co633 2.135 . S
C631 N629 1.340 . S
C631 N630 1.321 . S
C631 H655 0.930 . S
H632 C627 0.931 . S
Co633 N630 2.135 . S
Co633 N636 2.121 . S
Co633 O641 2.055 . S
Co633 O644 2.039 . S
Co633 N647 2.140 . S
C634 O635 1.227 . S
C634 O644 1.265 . S
O635 C634 1.227 . S
N636 Co633 2.121 . S
N636 C638 1.375 . S
N636 C639 1.313 . S
C637 C638 1.338 . S
C637 N640 1.377 . S
C637 H657 0.930 . S
C638 N636 1.375 . S
C638 C637 1.338 . S
C638 H642 0.931 . S
C639 N636 1.313 . S
C639 N640 1.344 . S
C639 H643 0.930 . S
N640 C637 1.377 . S
N640 C639 1.344 . S
O641 Co633 2.055 . S
O641 C645 1.253 . S
H642 C638 0.931 . S
H643 C639 0.930 . S
O644 Co633 2.039 . S
O644 C634 1.265 . S
C645 O641 1.253 . S
C645 O646 1.227 . S
O646 C645 1.227 . S
N647 Co633 2.140 . S
N647 C650 1.346 . S
N647 C651 1.345 . S
C648 C649 1.387 . S
C648 C652 1.391 . S
C649 C648 1.387 . S
C649 C650 1.369 . S
C649 H658 0.929 . S
C650 N647 1.346 . S
C650 C649 1.369 . S
C650 H653 0.928 . S
C651 N647 1.345 . S
C651 C652 1.371 . S
C651 H654 0.931 . S
C652 C648 1.391 . S
C652 C651 1.371 . S
C652 H659 0.930 . S
H653 C650 0.928 . S
H654 C651 0.931 . S
H655 C631 0.930 . S
H656 C628 0.930 . S
H657 C637 0.930 . S
H658 C649 0.929 . S
H659 C652 0.930 . S
C660 C661 1.351 . S
C660 N663 1.368 . S
C660 H665 0.931 . S
C661 C660 1.351 . S
C661 N662 1.373 . S
C661 H689 0.930 . S
N662 C661 1.373 . S
N662 C664 1.340 . S
N663 C660 1.368 . S
N663 C664 1.321 . S
N663 Co666 2.135 . S
C664 N662 1.340 . S
C664 N663 1.321 . S
C664 H688 0.930 . S
H665 C660 0.931 . S
Co666 N663 2.135 . S
Co666 N669 2.121 . S
Co666 O674 2.055 . S
Co666 O677 2.039 . S
Co666 N680 2.140 . S
C667 O668 1.227 . S
C667 O677 1.265 . S
O668 C667 1.227 . S
N669 Co666 2.121 . S
N669 C671 1.375 . S
N669 C672 1.313 . S
C670 C671 1.338 . S
C670 N673 1.377 . S
C670 H690 0.930 . S
C671 N669 1.375 . S
C671 C670 1.338 . S
C671 H675 0.931 . S
C672 N669 1.313 . S
C672 N673 1.344 . S
C672 H676 0.930 . S
N673 C670 1.377 . S
N673 C672 1.344 . S
O674 Co666 2.055 . S
O674 C678 1.253 . S
H675 C671 0.931 . S
H676 C672 0.930 . S
O677 Co666 2.039 . S
O677 C667 1.265 . S
C678 O674 1.253 . S
C678 O679 1.227 . S
O679 C678 1.227 . S
N680 Co666 2.140 . S
N680 C683 1.346 . S
N680 C684 1.345 . S
C681 C682 1.387 . S
C681 C685 1.391 . S
C682 C681 1.387 . S
C682 C683 1.369 . S
C682 H691 0.929 . S
C683 N680 1.346 . S
C683 C682 1.369 . S
C683 H686 0.928 . S
C684 N680 1.345 . S
C684 C685 1.371 . S
C684 H687 0.931 . S
C685 C681 1.391 . S
C685 C684 1.371 . S
C685 H692 0.930 . S
H686 C683 0.928 . S
H687 C684 0.931 . S
H688 C664 0.930 . S
H689 C661 0.930 . S
H690 C670 0.930 . S
H691 C682 0.929 . S
H692 C685 0.930 . S
C693 C694 1.351 . S
C693 N696 1.368 . S
C693 H698 0.931 . S
C694 C693 1.351 . S
C694 N695 1.373 . S
C694 H722 0.930 . S
N695 C694 1.373 . S
N695 C697 1.340 . S
N696 C693 1.368 . S
N696 C697 1.321 . S
N696 Co699 2.135 . S
C697 N695 1.340 . S
C697 N696 1.321 . S
C697 H721 0.930 . S
H698 C693 0.931 . S
Co699 N696 2.135 . S
Co699 N702 2.121 . S
Co699 O707 2.055 . S
Co699 O710 2.039 . S
Co699 N713 2.140 . S
C700 O701 1.227 . S
C700 O710 1.265 . S
O701 C700 1.227 . S
N702 Co699 2.121 . S
N702 C704 1.375 . S
N702 C705 1.313 . S
C703 C704 1.338 . S
C703 N706 1.377 . S
C703 H723 0.930 . S
C704 N702 1.375 . S
C704 C703 1.338 . S
C704 H708 0.931 . S
C705 N702 1.313 . S
C705 N706 1.344 . S
C705 H709 0.930 . S
N706 C703 1.377 . S
N706 C705 1.344 . S
O707 Co699 2.055 . S
O707 C711 1.253 . S
H708 C704 0.931 . S
H709 C705 0.930 . S
O710 Co699 2.039 . S
O710 C700 1.265 . S
C711 O707 1.253 . S
C711 O712 1.227 . S
O712 C711 1.227 . S
N713 Co699 2.140 . S
N713 C716 1.346 . S
N713 C717 1.345 . S
C714 C715 1.387 . S
C714 C718 1.391 . S
C715 C714 1.387 . S
C715 C716 1.369 . S
C715 H724 0.929 . S
C716 N713 1.346 . S
C716 C715 1.369 . S
C716 H719 0.928 . S
C717 N713 1.345 . S
C717 C718 1.371 . S
C717 H720 0.931 . S
C718 C714 1.391 . S
C718 C717 1.371 . S
C718 H725 0.930 . S
H719 C716 0.928 . S
H720 C717 0.931 . S
H721 C697 0.930 . S
H722 C694 0.930 . S
H723 C703 0.930 . S
H724 C715 0.929 . S
H725 C718 0.930 . S
C726 C727 1.351 . S
C726 N729 1.368 . S
C726 H731 0.931 . S
C727 C726 1.351 . S
C727 N728 1.373 . S
C727 H755 0.930 . S
N728 C727 1.373 . S
N728 C730 1.340 . S
N729 C726 1.368 . S
N729 C730 1.321 . S
N729 Co732 2.135 . S
C730 N728 1.340 . S
C730 N729 1.321 . S
C730 H754 0.930 . S
H731 C726 0.931 . S
Co732 N729 2.135 . S
Co732 N735 2.121 . S
Co732 O740 2.055 . S
Co732 O743 2.039 . S
Co732 N746 2.140 . S
C733 O734 1.227 . S
C733 O743 1.265 . S
O734 C733 1.227 . S
N735 Co732 2.121 . S
N735 C737 1.375 . S
N735 C738 1.313 . S
C736 C737 1.338 . S
C736 N739 1.377 . S
C736 H756 0.930 . S
C737 N735 1.375 . S
C737 C736 1.338 . S
C737 H741 0.931 . S
C738 N735 1.313 . S
C738 N739 1.344 . S
C738 H742 0.930 . S
N739 C736 1.377 . S
N739 C738 1.344 . S
O740 Co732 2.055 . S
O740 C744 1.253 . S
H741 C737 0.931 . S
H742 C738 0.930 . S
O743 Co732 2.039 . S
O743 C733 1.265 . S
C744 O740 1.253 . S
C744 O745 1.227 . S
O745 C744 1.227 . S
N746 Co732 2.140 . S
N746 C749 1.346 . S
N746 C750 1.345 . S
C747 C748 1.387 . S
C747 C751 1.391 . S
C748 C747 1.387 . S
C748 C749 1.369 . S
C748 H757 0.929 . S
C749 N746 1.346 . S
C749 C748 1.369 . S
C749 H752 0.928 . S
C750 N746 1.345 . S
C750 C751 1.371 . S
C750 H753 0.931 . S
C751 C747 1.391 . S
C751 C750 1.371 . S
C751 H758 0.930 . S
H752 C749 0.928 . S
H753 C750 0.931 . S
H754 C730 0.930 . S
H755 C727 0.930 . S
H756 C736 0.930 . S
H757 C748 0.929 . S
H758 C751 0.930 . S
C759 C760 1.351 . S
C759 N762 1.368 . S
C759 H764 0.931 . S
C760 C759 1.351 . S
C760 N761 1.373 . S
C760 H788 0.930 . S
N761 C760 1.373 . S
N761 C763 1.340 . S
N762 C759 1.368 . S
N762 C763 1.321 . S
N762 Co765 2.135 . S
C763 N761 1.340 . S
C763 N762 1.321 . S
C763 H787 0.930 . S
H764 C759 0.931 . S
Co765 N762 2.135 . S
Co765 N768 2.121 . S
Co765 O773 2.055 . S
Co765 O776 2.039 . S
Co765 N779 2.140 . S
C766 O767 1.227 . S
C766 O776 1.265 . S
O767 C766 1.227 . S
N768 Co765 2.121 . S
N768 C770 1.375 . S
N768 C771 1.313 . S
C769 C770 1.338 . S
C769 N772 1.377 . S
C769 H789 0.930 . S
C770 N768 1.375 . S
C770 C769 1.338 . S
C770 H774 0.931 . S
C771 N768 1.313 . S
C771 N772 1.344 . S
C771 H775 0.930 . S
N772 C769 1.377 . S
N772 C771 1.344 . S
O773 Co765 2.055 . S
O773 C777 1.253 . S
H774 C770 0.931 . S
H775 C771 0.930 . S
O776 Co765 2.039 . S
O776 C766 1.265 . S
C777 O773 1.253 . S
C777 O778 1.227 . S
O778 C777 1.227 . S
N779 Co765 2.140 . S
N779 C782 1.346 . S
N779 C783 1.345 . S
C780 C781 1.387 . S
C780 C784 1.391 . S
C781 C780 1.387 . S
C781 C782 1.369 . S
C781 H790 0.929 . S
C782 N779 1.346 . S
C782 C781 1.369 . S
C782 H785 0.928 . S
C783 N779 1.345 . S
C783 C784 1.371 . S
C783 H786 0.931 . S
C784 C780 1.391 . S
C784 C783 1.371 . S
C784 H791 0.930 . S
H785 C782 0.928 . S
H786 C783 0.931 . S
H787 C763 0.930 . S
H788 C760 0.930 . S
H789 C769 0.930 . S
H790 C781 0.929 . S
H791 C784 0.930 . S
C792 C793 1.351 . S
C792 N795 1.368 . S
C792 H797 0.931 . S
C793 C792 1.351 . S
C793 N794 1.373 . S
C793 H821 0.930 . S
N794 C793 1.373 . S
N794 C796 1.340 . S
N795 C792 1.368 . S
N795 C796 1.321 . S
N795 Co798 2.135 . S
C796 N794 1.340 . S
C796 N795 1.321 . S
C796 H820 0.930 . S
H797 C792 0.931 . S
Co798 N795 2.135 . S
Co798 N801 2.121 . S
Co798 O806 2.055 . S
Co798 O809 2.039 . S
Co798 N812 2.140 . S
C799 O800 1.227 . S
C799 O809 1.265 . S
O800 C799 1.227 . S
N801 Co798 2.121 . S
N801 C803 1.375 . S
N801 C804 1.313 . S
C802 C803 1.338 . S
C802 N805 1.377 . S
C802 H822 0.930 . S
C803 N801 1.375 . S
C803 C802 1.338 . S
C803 H807 0.931 . S
C804 N801 1.313 . S
C804 N805 1.344 . S
C804 H808 0.930 . S
N805 C802 1.377 . S
N805 C804 1.344 . S
O806 Co798 2.055 . S
O806 C810 1.253 . S
H807 C803 0.931 . S
H808 C804 0.930 . S
O809 Co798 2.039 . S
O809 C799 1.265 . S
C810 O806 1.253 . S
C810 O811 1.227 . S
O811 C810 1.227 . S
N812 Co798 2.140 . S
N812 C815 1.346 . S
N812 C816 1.345 . S
C813 C814 1.387 . S
C813 C817 1.391 . S
C814 C813 1.387 . S
C814 C815 1.369 . S
C814 H823 0.929 . S
C815 N812 1.346 . S
C815 C814 1.369 . S
C815 H818 0.928 . S
C816 N812 1.345 . S
C816 C817 1.371 . S
C816 H819 0.931 . S
C817 C813 1.391 . S
C817 C816 1.371 . S
C817 H824 0.930 . S
H818 C815 0.928 . S
H819 C816 0.931 . S
H820 C796 0.930 . S
H821 C793 0.930 . S
H822 C802 0.930 . S
H823 C814 0.929 . S
H824 C817 0.930 . S
C825 C826 1.351 . S
C825 N828 1.368 . S
C825 H830 0.931 . S
C826 C825 1.351 . S
C826 N827 1.373 . S
C826 H854 0.930 . S
N827 C826 1.373 . S
N827 C829 1.340 . S
N828 C825 1.368 . S
N828 C829 1.321 . S
N828 Co831 2.135 . S
C829 N827 1.340 . S
C829 N828 1.321 . S
C829 H853 0.930 . S
H830 C825 0.931 . S
Co831 N828 2.135 . S
Co831 N834 2.121 . S
Co831 O839 2.055 . S
Co831 O842 2.039 . S
Co831 N845 2.140 . S
C832 O833 1.227 . S
C832 O842 1.265 . S
O833 C832 1.227 . S
N834 Co831 2.121 . S
N834 C836 1.375 . S
N834 C837 1.313 . S
C835 C836 1.338 . S
C835 N838 1.377 . S
C835 H855 0.930 . S
C836 N834 1.375 . S
C836 C835 1.338 . S
C836 H840 0.931 . S
C837 N834 1.313 . S
C837 N838 1.344 . S
C837 H841 0.930 . S
N838 C835 1.377 . S
N838 C837 1.344 . S
O839 Co831 2.055 . S
O839 C843 1.253 . S
H840 C836 0.931 . S
H841 C837 0.930 . S
O842 Co831 2.039 . S
O842 C832 1.265 . S
C843 O839 1.253 . S
C843 O844 1.227 . S
O844 C843 1.227 . S
N845 Co831 2.140 . S
N845 C848 1.346 . S
N845 C849 1.345 . S
C846 C847 1.387 . S
C846 C850 1.391 . S
C847 C846 1.387 . S
C847 C848 1.369 . S
C847 H856 0.929 . S
C848 N845 1.346 . S
C848 C847 1.369 . S
C848 H851 0.928 . S
C849 N845 1.345 . S
C849 C850 1.371 . S
C849 H852 0.931 . S
C850 C846 1.391 . S
C850 C849 1.371 . S
C850 H857 0.930 . S
H851 C848 0.928 . S
H852 C849 0.931 . S
H853 C829 0.930 . S
H854 C826 0.930 . S
H855 C835 0.930 . S
H856 C847 0.929 . S
H857 C850 0.930 . S
C858 C859 1.351 . S
C858 N861 1.368 . S
C858 H863 0.931 . S
C859 C858 1.351 . S
C859 N860 1.373 . S
C859 H887 0.930 . S
N860 C859 1.373 . S
N860 C862 1.340 . S
N861 C858 1.368 . S
N861 C862 1.321 . S
N861 Co864 2.135 . S
C862 N860 1.340 . S
C862 N861 1.321 . S
C862 H886 0.930 . S
H863 C858 0.931 . S
Co864 N861 2.135 . S
Co864 N867 2.121 . S
Co864 O872 2.055 . S
Co864 O875 2.039 . S
Co864 N878 2.140 . S
C865 O866 1.227 . S
C865 O875 1.265 . S
O866 C865 1.227 . S
N867 Co864 2.121 . S
N867 C869 1.375 . S
N867 C870 1.313 . S
C868 C869 1.338 . S
C868 N871 1.377 . S
C868 H888 0.930 . S
C869 N867 1.375 . S
C869 C868 1.338 . S
C869 H873 0.931 . S
C870 N867 1.313 . S
C870 N871 1.344 . S
C870 H874 0.930 . S
N871 C868 1.377 . S
N871 C870 1.344 . S
O872 Co864 2.055 . S
O872 C876 1.253 . S
H873 C869 0.931 . S
H874 C870 0.930 . S
O875 Co864 2.039 . S
O875 C865 1.265 . S
C876 O872 1.253 . S
C876 O877 1.227 . S
O877 C876 1.227 . S
N878 Co864 2.140 . S
N878 C881 1.346 . S
N878 C882 1.345 . S
C879 C880 1.387 . S
C879 C883 1.391 . S
C880 C879 1.387 . S
C880 C881 1.369 . S
C880 H889 0.929 . S
C881 N878 1.346 . S
C881 C880 1.369 . S
C881 H884 0.928 . S
C882 N878 1.345 . S
C882 C883 1.371 . S
C882 H885 0.931 . S
C883 C879 1.391 . S
C883 C882 1.371 . S
C883 H890 0.930 . S
H884 C881 0.928 . S
H885 C882 0.931 . S
H886 C862 0.930 . S
H887 C859 0.930 . S
H888 C868 0.930 . S
H889 C880 0.929 . S
H890 C883 0.930 . S
C891 C892 1.351 . S
C891 N894 1.368 . S
C891 H896 0.931 . S
C892 C891 1.351 . S
C892 N893 1.373 . S
C892 H920 0.930 . S
N893 C892 1.373 . S
N893 C895 1.340 . S
N894 C891 1.368 . S
N894 C895 1.321 . S
N894 Co897 2.135 . S
C895 N893 1.340 . S
C895 N894 1.321 . S
C895 H919 0.930 . S
H896 C891 0.931 . S
Co897 N894 2.135 . S
Co897 N900 2.121 . S
Co897 O905 2.055 . S
Co897 O908 2.039 . S
Co897 N911 2.140 . S
C898 O899 1.227 . S
C898 O908 1.265 . S
O899 C898 1.227 . S
N900 Co897 2.121 . S
N900 C902 1.375 . S
N900 C903 1.313 . S
C901 C902 1.338 . S
C901 N904 1.377 . S
C901 H921 0.930 . S
C902 N900 1.375 . S
C902 C901 1.338 . S
C902 H906 0.931 . S
C903 N900 1.313 . S
C903 N904 1.344 . S
C903 H907 0.930 . S
N904 C901 1.377 . S
N904 C903 1.344 . S
O905 Co897 2.055 . S
O905 C909 1.253 . S
H906 C902 0.931 . S
H907 C903 0.930 . S
O908 Co897 2.039 . S
O908 C898 1.265 . S
C909 O905 1.253 . S
C909 O910 1.227 . S
O910 C909 1.227 . S
N911 Co897 2.140 . S
N911 C914 1.346 . S
N911 C915 1.345 . S
C912 C913 1.387 . S
C912 C916 1.391 . S
C913 C912 1.387 . S
C913 C914 1.369 . S
C913 H922 0.929 . S
C914 N911 1.346 . S
C914 C913 1.369 . S
C914 H917 0.928 . S
C915 N911 1.345 . S
C915 C916 1.371 . S
C915 H918 0.931 . S
C916 C912 1.391 . S
C916 C915 1.371 . S
C916 H923 0.930 . S
H917 C914 0.928 . S
H918 C915 0.931 . S
H919 C895 0.930 . S
H920 C892 0.930 . S
H921 C901 0.930 . S
H922 C913 0.929 . S
H923 C916 0.930 . S
C924 C925 1.351 . S
C924 N927 1.368 . S
C924 H929 0.931 . S
C925 C924 1.351 . S
C925 N926 1.373 . S
C925 H953 0.930 . S
N926 C925 1.373 . S
N926 C928 1.340 . S
N927 C924 1.368 . S
N927 C928 1.321 . S
N927 Co930 2.135 . S
C928 N926 1.340 . S
C928 N927 1.321 . S
C928 H952 0.930 . S
H929 C924 0.931 . S
Co930 N927 2.135 . S
Co930 N933 2.121 . S
Co930 O938 2.055 . S
Co930 O941 2.039 . S
Co930 N944 2.140 . S
C931 O932 1.227 . S
C931 O941 1.265 . S
O932 C931 1.227 . S
N933 Co930 2.121 . S
N933 C935 1.375 . S
N933 C936 1.313 . S
C934 C935 1.338 . S
C934 N937 1.377 . S
C934 H954 0.930 . S
C935 N933 1.375 . S
C935 C934 1.338 . S
C935 H939 0.931 . S
C936 N933 1.313 . S
C936 N937 1.344 . S
C936 H940 0.930 . S
N937 C934 1.377 . S
N937 C936 1.344 . S
O938 Co930 2.055 . S
O938 C942 1.253 . S
H939 C935 0.931 . S
H940 C936 0.930 . S
O941 Co930 2.039 . S
O941 C931 1.265 . S
C942 O938 1.253 . S
C942 O943 1.227 . S
O943 C942 1.227 . S
N944 Co930 2.140 . S
N944 C947 1.346 . S
N944 C948 1.345 . S
C945 C946 1.387 . S
C945 C949 1.391 . S
C946 C945 1.387 . S
C946 C947 1.369 . S
C946 H955 0.929 . S
C947 N944 1.346 . S
C947 C946 1.369 . S
C947 H950 0.928 . S
C948 N944 1.345 . S
C948 C949 1.371 . S
C948 H951 0.931 . S
C949 C945 1.391 . S
C949 C948 1.371 . S
C949 H956 0.930 . S
H950 C947 0.928 . S
H951 C948 0.931 . S
H952 C928 0.930 . S
H953 C925 0.930 . S
H954 C934 0.930 . S
H955 C946 0.929 . S
H956 C949 0.930 . S
C957 C958 1.351 . S
C957 N960 1.368 . S
C957 H962 0.931 . S
C958 C957 1.351 . S
C958 N959 1.373 . S
C958 H986 0.930 . S
N959 C958 1.373 . S
N959 C961 1.340 . S
N960 C957 1.368 . S
N960 C961 1.321 . S
N960 Co963 2.135 . S
C961 N959 1.340 . S
C961 N960 1.321 . S
C961 H985 0.930 . S
H962 C957 0.931 . S
Co963 N960 2.135 . S
Co963 N966 2.121 . S
Co963 O971 2.055 . S
Co963 O974 2.039 . S
Co963 N977 2.140 . S
C964 O965 1.227 . S
C964 O974 1.265 . S
O965 C964 1.227 . S
N966 Co963 2.121 . S
N966 C968 1.375 . S
N966 C969 1.313 . S
C967 C968 1.338 . S
C967 N970 1.377 . S
C967 H987 0.930 . S
C968 N966 1.375 . S
C968 C967 1.338 . S
C968 H972 0.931 . S
C969 N966 1.313 . S
C969 N970 1.344 . S
C969 H973 0.930 . S
N970 C967 1.377 . S
N970 C969 1.344 . S
O971 Co963 2.055 . S
O971 C975 1.253 . S
H972 C968 0.931 . S
H973 C969 0.930 . S
O974 Co963 2.039 . S
O974 C964 1.265 . S
C975 O971 1.253 . S
C975 O976 1.227 . S
O976 C975 1.227 . S
N977 Co963 2.140 . S
N977 C980 1.346 . S
N977 C981 1.345 . S
C978 C979 1.387 . S
C978 C982 1.391 . S
C979 C978 1.387 . S
C979 C980 1.369 . S
C979 H988 0.929 . S
C980 N977 1.346 . S
C980 C979 1.369 . S
C980 H983 0.928 . S
C981 N977 1.345 . S
C981 C982 1.371 . S
C981 H984 0.931 . S
C982 C978 1.391 . S
C982 C981 1.371 . S
C982 H989 0.930 . S
H983 C980 0.928 . S
H984 C981 0.931 . S
H985 C961 0.930 . S
H986 C958 0.930 . S
H987 C967 0.930 . S
H988 C979 0.929 . S
H989 C982 0.930 . S
C990 C991 1.351 . S
C990 N993 1.368 . S
C990 H995 0.931 . S
C991 C990 1.351 . S
C991 N992 1.373 . S
C991 H1019 0.930 . S
N992 C991 1.373 . S
N992 C994 1.340 . S
N993 C990 1.368 . S
N993 C994 1.321 . S
N993 Co996 2.135 . S
C994 N992 1.340 . S
C994 N993 1.321 . S
C994 H1018 0.930 . S
H995 C990 0.931 . S
Co996 N993 2.135 . S
Co996 N999 2.121 . S
Co996 O1004 2.055 . S
Co996 O1007 2.039 . S
Co996 N1010 2.140 . S
C997 O998 1.227 . S
C997 O1007 1.265 . S
O998 C997 1.227 . S
N999 Co996 2.121 . S
N999 C1001 1.375 . S
N999 C1002 1.313 . S
C1000 C1001 1.338 . S
C1000 N1003 1.377 . S
C1000 H1020 0.930 . S
C1001 N999 1.375 . S
C1001 C1000 1.338 . S
C1001 H1005 0.931 . S
C1002 N999 1.313 . S
C1002 N1003 1.344 . S
C1002 H1006 0.930 . S
N1003 C1000 1.377 . S
N1003 C1002 1.344 . S
O1004 Co996 2.055 . S
O1004 C1008 1.253 . S
H1005 C1001 0.931 . S
H1006 C1002 0.930 . S
O1007 Co996 2.039 . S
O1007 C997 1.265 . S
C1008 O1004 1.253 . S
C1008 O1009 1.227 . S
O1009 C1008 1.227 . S
N1010 Co996 2.140 . S
N1010 C1013 1.346 . S
N1010 C1014 1.345 . S
C1011 C1012 1.387 . S
C1011 C1015 1.391 . S
C1012 C1011 1.387 . S
C1012 C1013 1.369 . S
C1012 H1021 0.929 . S
C1013 N1010 1.346 . S
C1013 C1012 1.369 . S
C1013 H1016 0.928 . S
C1014 N1010 1.345 . S
C1014 C1015 1.371 . S
C1014 H1017 0.931 . S
C1015 C1011 1.391 . S
C1015 C1014 1.371 . S
C1015 H1022 0.930 . S
H1016 C1013 0.928 . S
H1017 C1014 0.931 . S
H1018 C994 0.930 . S
H1019 C991 0.930 . S
H1020 C1000 0.930 . S
H1021 C1012 0.929 . S
H1022 C1015 0.930 . S
C1023 C1024 1.351 . S
C1023 N1026 1.368 . S
C1023 H1028 0.931 . S
C1024 C1023 1.351 . S
C1024 N1025 1.373 . S
C1024 H1052 0.930 . S
N1025 C1024 1.373 . S
N1025 C1027 1.340 . S
N1026 C1023 1.368 . S
N1026 C1027 1.321 . S
N1026 Co1029 2.135 . S
C1027 N1025 1.340 . S
C1027 N1026 1.321 . S
C1027 H1051 0.930 . S
H1028 C1023 0.931 . S
Co1029 N1026 2.135 . S
Co1029 N1032 2.121 . S
Co1029 O1037 2.055 . S
Co1029 O1040 2.039 . S
Co1029 N1043 2.140 . S
C1030 O1031 1.227 . S
C1030 O1040 1.265 . S
O1031 C1030 1.227 . S
N1032 Co1029 2.121 . S
N1032 C1034 1.375 . S
N1032 C1035 1.313 . S
C1033 C1034 1.338 . S
C1033 N1036 1.377 . S
C1033 H1053 0.930 . S
C1034 N1032 1.375 . S
C1034 C1033 1.338 . S
C1034 H1038 0.931 . S
C1035 N1032 1.313 . S
C1035 N1036 1.344 . S
C1035 H1039 0.930 . S
N1036 C1033 1.377 . S
N1036 C1035 1.344 . S
O1037 Co1029 2.055 . S
O1037 C1041 1.253 . S
H1038 C1034 0.931 . S
H1039 C1035 0.930 . S
O1040 Co1029 2.039 . S
O1040 C1030 1.265 . S
C1041 O1037 1.253 . S
C1041 O1042 1.227 . S
O1042 C1041 1.227 . S
N1043 Co1029 2.140 . S
N1043 C1046 1.346 . S
N1043 C1047 1.345 . S
C1044 C1045 1.387 . S
C1044 C1048 1.391 . S
C1045 C1044 1.387 . S
C1045 C1046 1.369 . S
C1045 H1054 0.929 . S
C1046 N1043 1.346 . S
C1046 C1045 1.369 . S
C1046 H1049 0.928 . S
C1047 N1043 1.345 . S
C1047 C1048 1.371 . S
C1047 H1050 0.931 . S
C1048 C1044 1.391 . S
C1048 C1047 1.371 . S
C1048 H1055 0.930 . S
H1049 C1046 0.928 . S
H1050 C1047 0.931 . S
H1051 C1027 0.930 . S
H1052 C1024 0.930 . S
H1053 C1033 0.930 . S
H1054 C1045 0.929 . S
H1055 C1048 0.930 . S
C1056 C1057 1.351 . S
C1056 N1059 1.368 . S
C1056 H1061 0.931 . S
C1057 C1056 1.351 . S
C1057 N1058 1.373 . S
C1057 H1085 0.930 . S
N1058 C1057 1.373 . S
N1058 C1060 1.340 . S
N1059 C1056 1.368 . S
N1059 C1060 1.321 . S
N1059 Co1062 2.135 . S
C1060 N1058 1.340 . S
C1060 N1059 1.321 . S
C1060 H1084 0.930 . S
H1061 C1056 0.931 . S
Co1062 N1059 2.135 . S
Co1062 N1065 2.121 . S
Co1062 O1070 2.055 . S
Co1062 O1073 2.039 . S
Co1062 N1076 2.140 . S
C1063 O1064 1.227 . S
C1063 O1073 1.265 . S
O1064 C1063 1.227 . S
N1065 Co1062 2.121 . S
N1065 C1067 1.375 . S
N1065 C1068 1.313 . S
C1066 C1067 1.338 . S
C1066 N1069 1.377 . S
C1066 H1086 0.930 . S
C1067 N1065 1.375 . S
C1067 C1066 1.338 . S
C1067 H1071 0.931 . S
C1068 N1065 1.313 . S
C1068 N1069 1.344 . S
C1068 H1072 0.930 . S
N1069 C1066 1.377 . S
N1069 C1068 1.344 . S
O1070 Co1062 2.055 . S
O1070 C1074 1.253 . S
H1071 C1067 0.931 . S
H1072 C1068 0.930 . S
O1073 Co1062 2.039 . S
O1073 C1063 1.265 . S
C1074 O1070 1.253 . S
C1074 O1075 1.227 . S
O1075 C1074 1.227 . S
N1076 Co1062 2.140 . S
N1076 C1079 1.346 . S
N1076 C1080 1.345 . S
C1077 C1078 1.387 . S
C1077 C1081 1.391 . S
C1078 C1077 1.387 . S
C1078 C1079 1.369 . S
C1078 H1087 0.929 . S
C1079 N1076 1.346 . S
C1079 C1078 1.369 . S
C1079 H1082 0.928 . S
C1080 N1076 1.345 . S
C1080 C1081 1.371 . S
C1080 H1083 0.931 . S
C1081 C1077 1.391 . S
C1081 C1080 1.371 . S
C1081 H1088 0.930 . S
H1082 C1079 0.928 . S
H1083 C1080 0.931 . S
H1084 C1060 0.930 . S
H1085 C1057 0.930 . S
H1086 C1066 0.930 . S
H1087 C1078 0.929 . S
H1088 C1081 0.930 . S
C1089 C1090 1.351 . S
C1089 N1092 1.368 . S
C1089 H1094 0.931 . S
C1090 C1089 1.351 . S
C1090 N1091 1.373 . S
C1090 H1118 0.930 . S
N1091 C1090 1.373 . S
N1091 C1093 1.340 . S
N1092 C1089 1.368 . S
N1092 C1093 1.321 . S
N1092 Co1095 2.135 . S
C1093 N1091 1.340 . S
C1093 N1092 1.321 . S
C1093 H1117 0.930 . S
H1094 C1089 0.931 . S
Co1095 N1092 2.135 . S
Co1095 N1098 2.121 . S
Co1095 O1103 2.055 . S
Co1095 O1106 2.039 . S
Co1095 N1109 2.140 . S
C1096 O1097 1.227 . S
C1096 O1106 1.265 . S
O1097 C1096 1.227 . S
N1098 Co1095 2.121 . S
N1098 C1100 1.375 . S
N1098 C1101 1.313 . S
C1099 C1100 1.338 . S
C1099 N1102 1.377 . S
C1099 H1119 0.930 . S
C1100 N1098 1.375 . S
C1100 C1099 1.338 . S
C1100 H1104 0.931 . S
C1101 N1098 1.313 . S
C1101 N1102 1.344 . S
C1101 H1105 0.930 . S
N1102 C1099 1.377 . S
N1102 C1101 1.344 . S
O1103 Co1095 2.055 . S
O1103 C1107 1.253 . S
H1104 C1100 0.931 . S
H1105 C1101 0.930 . S
O1106 Co1095 2.039 . S
O1106 C1096 1.265 . S
C1107 O1103 1.253 . S
C1107 O1108 1.227 . S
O1108 C1107 1.227 . S
N1109 Co1095 2.140 . S
N1109 C1112 1.346 . S
N1109 C1113 1.345 . S
C1110 C1111 1.387 . S
C1110 C1114 1.391 . S
C1111 C1110 1.387 . S
C1111 C1112 1.369 . S
C1111 H1120 0.929 . S
C1112 N1109 1.346 . S
C1112 C1111 1.369 . S
C1112 H1115 0.928 . S
C1113 N1109 1.345 . S
C1113 C1114 1.371 . S
C1113 H1116 0.931 . S
C1114 C1110 1.391 . S
C1114 C1113 1.371 . S
C1114 H1121 0.930 . S
H1115 C1112 0.928 . S
H1116 C1113 0.931 . S
H1117 C1093 0.930 . S
H1118 C1090 0.930 . S
H1119 C1099 0.930 . S
H1120 C1111 0.929 . S
H1121 C1114 0.930 . S
C1122 C1123 1.351 . S
C1122 N1125 1.368 . S
C1122 H1127 0.931 . S
C1123 C1122 1.351 . S
C1123 N1124 1.373 . S
C1123 H1151 0.930 . S
N1124 C1123 1.373 . S
N1124 C1126 1.340 . S
N1125 C1122 1.368 . S
N1125 C1126 1.321 . S
N1125 Co1128 2.135 . S
C1126 N1124 1.340 . S
C1126 N1125 1.321 . S
C1126 H1150 0.930 . S
H1127 C1122 0.931 . S
Co1128 N1125 2.135 . S
Co1128 N1131 2.121 . S
Co1128 O1136 2.055 . S
Co1128 O1139 2.039 . S
Co1128 N1142 2.140 . S
C1129 O1130 1.227 . S
C1129 O1139 1.265 . S
O1130 C1129 1.227 . S
N1131 Co1128 2.121 . S
N1131 C1133 1.375 . S
N1131 C1134 1.313 . S
C1132 C1133 1.338 . S
C1132 N1135 1.377 . S
C1132 H1152 0.930 . S
C1133 N1131 1.375 . S
C1133 C1132 1.338 . S
C1133 H1137 0.931 . S
C1134 N1131 1.313 . S
C1134 N1135 1.344 . S
C1134 H1138 0.930 . S
N1135 C1132 1.377 . S
N1135 C1134 1.344 . S
O1136 Co1128 2.055 . S
O1136 C1140 1.253 . S
H1137 C1133 0.931 . S
H1138 C1134 0.930 . S
O1139 Co1128 2.039 . S
O1139 C1129 1.265 . S
C1140 O1136 1.253 . S
C1140 O1141 1.227 . S
O1141 C1140 1.227 . S
N1142 Co1128 2.140 . S
N1142 C1145 1.346 . S
N1142 C1146 1.345 . S
C1143 C1144 1.387 . S
C1143 C1147 1.391 . S
C1144 C1143 1.387 . S
C1144 C1145 1.369 . S
C1144 H1153 0.929 . S
C1145 N1142 1.346 . S
C1145 C1144 1.369 . S
C1145 H1148 0.928 . S
C1146 N1142 1.345 . S
C1146 C1147 1.371 . S
C1146 H1149 0.931 . S
C1147 C1143 1.391 . S
C1147 C1146 1.371 . S
C1147 H1154 0.930 . S
H1148 C1145 0.928 . S
H1149 C1146 0.931 . S
H1150 C1126 0.930 . S
H1151 C1123 0.930 . S
H1152 C1132 0.930 . S
H1153 C1144 0.929 . S
H1154 C1147 0.930 . S
C1155 C1156 1.351 . S
C1155 N1158 1.368 . S
C1155 H1160 0.931 . S
C1156 C1155 1.351 . S
C1156 N1157 1.373 . S
C1156 H1184 0.930 . S
N1157 C1156 1.373 . S
N1157 C1159 1.340 . S
N1158 C1155 1.368 . S
N1158 C1159 1.321 . S
N1158 Co1161 2.135 . S
C1159 N1157 1.340 . S
C1159 N1158 1.321 . S
C1159 H1183 0.930 . S
H1160 C1155 0.931 . S
Co1161 N1158 2.135 . S
Co1161 N1164 2.121 . S
Co1161 O1169 2.055 . S
Co1161 O1172 2.039 . S
Co1161 N1175 2.140 . S
C1162 O1163 1.227 . S
C1162 O1172 1.265 . S
O1163 C1162 1.227 . S
N1164 Co1161 2.121 . S
N1164 C1166 1.375 . S
N1164 C1167 1.313 . S
C1165 C1166 1.338 . S
C1165 N1168 1.377 . S
C1165 H1185 0.930 . S
C1166 N1164 1.375 . S
C1166 C1165 1.338 . S
C1166 H1170 0.931 . S
C1167 N1164 1.313 . S
C1167 N1168 1.344 . S
C1167 H1171 0.930 . S
N1168 C1165 1.377 . S
N1168 C1167 1.344 . S
O1169 Co1161 2.055 . S
O1169 C1173 1.253 . S
H1170 C1166 0.931 . S
H1171 C1167 0.930 . S
O1172 Co1161 2.039 . S
O1172 C1162 1.265 . S
C1173 O1169 1.253 . S
C1173 O1174 1.227 . S
O1174 C1173 1.227 . S
N1175 Co1161 2.140 . S
N1175 C1178 1.346 . S
N1175 C1179 1.345 . S
C1176 C1177 1.387 . S
C1176 C1180 1.391 . S
C1177 C1176 1.387 . S
C1177 C1178 1.369 . S
C1177 H1186 0.929 . S
C1178 N1175 1.346 . S
C1178 C1177 1.369 . S
C1178 H1181 0.928 . S
C1179 N1175 1.345 . S
C1179 C1180 1.371 . S
C1179 H1182 0.931 . S
C1180 C1176 1.391 . S
C1180 C1179 1.371 . S
C1180 H1187 0.930 . S
H1181 C1178 0.928 . S
H1182 C1179 0.931 . S
H1183 C1159 0.930 . S
H1184 C1156 0.930 . S
H1185 C1165 0.930 . S
H1186 C1177 0.929 . S
H1187 C1180 0.930 . S
C1188 C1189 1.351 . S
C1188 N1191 1.368 . S
C1188 H1193 0.931 . S
C1189 C1188 1.351 . S
C1189 N1190 1.373 . S
C1189 H1217 0.930 . S
N1190 C1189 1.373 . S
N1190 C1192 1.340 . S
N1191 C1188 1.368 . S
N1191 C1192 1.321 . S
N1191 Co1194 2.135 . S
C1192 N1190 1.340 . S
C1192 N1191 1.321 . S
C1192 H1216 0.930 . S
H1193 C1188 0.931 . S
Co1194 N1191 2.135 . S
Co1194 N1197 2.121 . S
Co1194 O1202 2.055 . S
Co1194 O1205 2.039 . S
Co1194 N1208 2.140 . S
C1195 O1196 1.227 . S
C1195 O1205 1.265 . S
O1196 C1195 1.227 . S
N1197 Co1194 2.121 . S
N1197 C1199 1.375 . S
N1197 C1200 1.313 . S
C1198 C1199 1.338 . S
C1198 N1201 1.377 . S
C1198 H1218 0.930 . S
C1199 N1197 1.375 . S
C1199 C1198 1.338 . S
C1199 H1203 0.931 . S
C1200 N1197 1.313 . S
C1200 N1201 1.344 . S
C1200 H1204 0.930 . S
N1201 C1198 1.377 . S
N1201 C1200 1.344 . S
O1202 Co1194 2.055 . S
O1202 C1206 1.253 . S
H1203 C1199 0.931 . S
H1204 C1200 0.930 . S
O1205 Co1194 2.039 . S
O1205 C1195 1.265 . S
C1206 O1202 1.253 . S
C1206 O1207 1.227 . S
O1207 C1206 1.227 . S
N1208 Co1194 2.140 . S
N1208 C1211 1.346 . S
N1208 C1212 1.345 . S
C1209 C1210 1.387 . S
C1209 C1213 1.391 . S
C1210 C1209 1.387 . S
C1210 C1211 1.369 . S
C1210 H1219 0.929 . S
C1211 N1208 1.346 . S
C1211 C1210 1.369 . S
C1211 H1214 0.928 . S
C1212 N1208 1.345 . S
C1212 C1213 1.371 . S
C1212 H1215 0.931 . S
C1213 C1209 1.391 . S
C1213 C1212 1.371 . S
C1213 H1220 0.930 . S
H1214 C1211 0.928 . S
H1215 C1212 0.931 . S
H1216 C1192 0.930 . S
H1217 C1189 0.930 . S
H1218 C1198 0.930 . S
H1219 C1210 0.929 . S
H1220 C1213 0.930 . S
C1221 C1222 1.351 . S
C1221 N1224 1.368 . S
C1221 H1226 0.931 . S
C1222 C1221 1.351 . S
C1222 N1223 1.373 . S
C1222 H1250 0.930 . S
N1223 C1222 1.373 . S
N1223 C1225 1.340 . S
N1224 C1221 1.368 . S
N1224 C1225 1.321 . S
N1224 Co1227 2.135 . S
C1225 N1223 1.340 . S
C1225 N1224 1.321 . S
C1225 H1249 0.930 . S
H1226 C1221 0.931 . S
Co1227 N1224 2.135 . S
Co1227 N1230 2.121 . S
Co1227 O1235 2.055 . S
Co1227 O1238 2.039 . S
Co1227 N1241 2.140 . S
C1228 O1229 1.227 . S
C1228 O1238 1.265 . S
O1229 C1228 1.227 . S
N1230 Co1227 2.121 . S
N1230 C1232 1.375 . S
N1230 C1233 1.313 . S
C1231 C1232 1.338 . S
C1231 N1234 1.377 . S
C1231 H1251 0.930 . S
C1232 N1230 1.375 . S
C1232 C1231 1.338 . S
C1232 H1236 0.931 . S
C1233 N1230 1.313 . S
C1233 N1234 1.344 . S
C1233 H1237 0.930 . S
N1234 C1231 1.377 . S
N1234 C1233 1.344 . S
O1235 Co1227 2.055 . S
O1235 C1239 1.253 . S
H1236 C1232 0.931 . S
H1237 C1233 0.930 . S
O1238 Co1227 2.039 . S
O1238 C1228 1.265 . S
C1239 O1235 1.253 . S
C1239 O1240 1.227 . S
O1240 C1239 1.227 . S
N1241 Co1227 2.140 . S
N1241 C1244 1.346 . S
N1241 C1245 1.345 . S
C1242 C1243 1.387 . S
C1242 C1246 1.391 . S
C1243 C1242 1.387 . S
C1243 C1244 1.369 . S
C1243 H1252 0.929 . S
C1244 N1241 1.346 . S
C1244 C1243 1.369 . S
C1244 H1247 0.928 . S
C1245 N1241 1.345 . S
C1245 C1246 1.371 . S
C1245 H1248 0.931 . S
C1246 C1242 1.391 . S
C1246 C1245 1.371 . S
C1246 H1253 0.930 . S
H1247 C1244 0.928 . S
H1248 C1245 0.931 . S
H1249 C1225 0.930 . S
H1250 C1222 0.930 . S
H1251 C1231 0.930 . S
H1252 C1243 0.929 . S
H1253 C1246 0.930 . S
C1254 C1255 1.351 . S
C1254 N1257 1.368 . S
C1254 H1259 0.931 . S
C1255 C1254 1.351 . S
C1255 N1256 1.373 . S
C1255 H1283 0.930 . S
N1256 C1255 1.373 . S
N1256 C1258 1.340 . S
N1257 C1254 1.368 . S
N1257 C1258 1.321 . S
N1257 Co1260 2.135 . S
C1258 N1256 1.340 . S
C1258 N1257 1.321 . S
C1258 H1282 0.930 . S
H1259 C1254 0.931 . S
Co1260 N1257 2.135 . S
Co1260 N1263 2.121 . S
Co1260 O1268 2.055 . S
Co1260 O1271 2.039 . S
Co1260 N1274 2.140 . S
C1261 O1262 1.227 . S
C1261 O1271 1.265 . S
O1262 C1261 1.227 . S
N1263 Co1260 2.121 . S
N1263 C1265 1.375 . S
N1263 C1266 1.313 . S
C1264 C1265 1.338 . S
C1264 N1267 1.377 . S
C1264 H1284 0.930 . S
C1265 N1263 1.375 . S
C1265 C1264 1.338 . S
C1265 H1269 0.931 . S
C1266 N1263 1.313 . S
C1266 N1267 1.344 . S
C1266 H1270 0.930 . S
N1267 C1264 1.377 . S
N1267 C1266 1.344 . S
O1268 Co1260 2.055 . S
O1268 C1272 1.253 . S
H1269 C1265 0.931 . S
H1270 C1266 0.930 . S
O1271 Co1260 2.039 . S
O1271 C1261 1.265 . S
C1272 O1268 1.253 . S
C1272 O1273 1.227 . S
O1273 C1272 1.227 . S
N1274 Co1260 2.140 . S
N1274 C1277 1.346 . S
N1274 C1278 1.345 . S
C1275 C1276 1.387 . S
C1275 C1279 1.391 . S
C1276 C1275 1.387 . S
C1276 C1277 1.369 . S
C1276 H1285 0.929 . S
C1277 N1274 1.346 . S
C1277 C1276 1.369 . S
C1277 H1280 0.928 . S
C1278 N1274 1.345 . S
C1278 C1279 1.371 . S
C1278 H1281 0.931 . S
C1279 C1275 1.391 . S
C1279 C1278 1.371 . S
C1279 H1286 0.930 . S
H1280 C1277 0.928 . S
H1281 C1278 0.931 . S
H1282 C1258 0.930 . S
H1283 C1255 0.930 . S
H1284 C1264 0.930 . S
H1285 C1276 0.929 . S
H1286 C1279 0.930 . S
C1287 C1288 1.351 . S
C1287 N1290 1.368 . S
C1287 H1292 0.931 . S
C1288 C1287 1.351 . S
C1288 N1289 1.373 . S
C1288 H1316 0.930 . S
N1289 C1288 1.373 . S
N1289 C1291 1.340 . S
N1290 C1287 1.368 . S
N1290 C1291 1.321 . S
N1290 Co1293 2.135 . S
C1291 N1289 1.340 . S
C1291 N1290 1.321 . S
C1291 H1315 0.930 . S
H1292 C1287 0.931 . S
Co1293 N1290 2.135 . S
Co1293 N1296 2.121 . S
Co1293 O1301 2.055 . S
Co1293 O1304 2.039 . S
Co1293 N1307 2.140 . S
C1294 O1295 1.227 . S
C1294 O1304 1.265 . S
O1295 C1294 1.227 . S
N1296 Co1293 2.121 . S
N1296 C1298 1.375 . S
N1296 C1299 1.313 . S
C1297 C1298 1.338 . S
C1297 N1300 1.377 . S
C1297 H1317 0.930 . S
C1298 N1296 1.375 . S
C1298 C1297 1.338 . S
C1298 H1302 0.931 . S
C1299 N1296 1.313 . S
C1299 N1300 1.344 . S
C1299 H1303 0.930 . S
N1300 C1297 1.377 . S
N1300 C1299 1.344 . S
O1301 Co1293 2.055 . S
O1301 C1305 1.253 . S
H1302 C1298 0.931 . S
H1303 C1299 0.930 . S
O1304 Co1293 2.039 . S
O1304 C1294 1.265 . S
C1305 O1301 1.253 . S
C1305 O1306 1.227 . S
O1306 C1305 1.227 . S
N1307 Co1293 2.140 . S
N1307 C1310 1.346 . S
N1307 C1311 1.345 . S
C1308 C1309 1.387 . S
C1308 C1312 1.391 . S
C1309 C1308 1.387 . S
C1309 C1310 1.369 . S
C1309 H1318 0.929 . S
C1310 N1307 1.346 . S
C1310 C1309 1.369 . S
C1310 H1313 0.928 . S
C1311 N1307 1.345 . S
C1311 C1312 1.371 . S
C1311 H1314 0.931 . S
C1312 C1308 1.391 . S
C1312 C1311 1.371 . S
C1312 H1319 0.930 . S
H1313 C1310 0.928 . S
H1314 C1311 0.931 . S
H1315 C1291 0.930 . S
H1316 C1288 0.930 . S
H1317 C1297 0.930 . S
H1318 C1309 0.929 . S
H1319 C1312 0.930 . S
C1320 C1321 1.351 . S
C1320 N1323 1.368 . S
C1320 H1325 0.931 . S
C1321 C1320 1.351 . S
C1321 N1322 1.373 . S
C1321 H1349 0.930 . S
N1322 C1321 1.373 . S
N1322 C1324 1.340 . S
N1323 C1320 1.368 . S
N1323 C1324 1.321 . S
N1323 Co1326 2.135 . S
C1324 N1322 1.340 . S
C1324 N1323 1.321 . S
C1324 H1348 0.930 . S
H1325 C1320 0.931 . S
Co1326 N1323 2.135 . S
Co1326 N1329 2.121 . S
Co1326 O1334 2.055 . S
Co1326 O1337 2.039 . S
Co1326 N1340 2.140 . S
C1327 O1328 1.227 . S
C1327 O1337 1.265 . S
O1328 C1327 1.227 . S
N1329 Co1326 2.121 . S
N1329 C1331 1.375 . S
N1329 C1332 1.313 . S
C1330 C1331 1.338 . S
C1330 N1333 1.377 . S
C1330 H1350 0.930 . S
C1331 N1329 1.375 . S
C1331 C1330 1.338 . S
C1331 H1335 0.931 . S
C1332 N1329 1.313 . S
C1332 N1333 1.344 . S
C1332 H1336 0.930 . S
N1333 C1330 1.377 . S
N1333 C1332 1.344 . S
O1334 Co1326 2.055 . S
O1334 C1338 1.253 . S
H1335 C1331 0.931 . S
H1336 C1332 0.930 . S
O1337 Co1326 2.039 . S
O1337 C1327 1.265 . S
C1338 O1334 1.253 . S
C1338 O1339 1.227 . S
O1339 C1338 1.227 . S
N1340 Co1326 2.140 . S
N1340 C1343 1.346 . S
N1340 C1344 1.345 . S
C1341 C1342 1.387 . S
C1341 C1345 1.391 . S
C1342 C1341 1.387 . S
C1342 C1343 1.369 . S
C1342 H1351 0.929 . S
C1343 N1340 1.346 . S
C1343 C1342 1.369 . S
C1343 H1346 0.928 . S
C1344 N1340 1.345 . S
C1344 C1345 1.371 . S
C1344 H1347 0.931 . S
C1345 C1341 1.391 . S
C1345 C1344 1.371 . S
C1345 H1352 0.930 . S
H1346 C1343 0.928 . S
H1347 C1344 0.931 . S
H1348 C1324 0.930 . S
H1349 C1321 0.930 . S
H1350 C1330 0.930 . S
H1351 C1342 0.929 . S
H1352 C1345 0.930 . S
C1353 C1354 1.351 . S
C1353 N1356 1.368 . S
C1353 H1358 0.931 . S
C1354 C1353 1.351 . S
C1354 N1355 1.373 . S
C1354 H1382 0.930 . S
N1355 C1354 1.373 . S
N1355 C1357 1.340 . S
N1356 C1353 1.368 . S
N1356 C1357 1.321 . S
N1356 Co1359 2.135 . S
C1357 N1355 1.340 . S
C1357 N1356 1.321 . S
C1357 H1381 0.930 . S
H1358 C1353 0.931 . S
Co1359 N1356 2.135 . S
Co1359 N1362 2.121 . S
Co1359 O1367 2.055 . S
Co1359 O1370 2.039 . S
Co1359 N1373 2.140 . S
C1360 O1361 1.227 . S
C1360 O1370 1.265 . S
O1361 C1360 1.227 . S
N1362 Co1359 2.121 . S
N1362 C1364 1.375 . S
N1362 C1365 1.313 . S
C1363 C1364 1.338 . S
C1363 N1366 1.377 . S
C1363 H1383 0.930 . S
C1364 N1362 1.375 . S
C1364 C1363 1.338 . S
C1364 H1368 0.931 . S
C1365 N1362 1.313 . S
C1365 N1366 1.344 . S
C1365 H1369 0.930 . S
N1366 C1363 1.377 . S
N1366 C1365 1.344 . S
O1367 Co1359 2.055 . S
O1367 C1371 1.253 . S
H1368 C1364 0.931 . S
H1369 C1365 0.930 . S
O1370 Co1359 2.039 . S
O1370 C1360 1.265 . S
C1371 O1367 1.253 . S
C1371 O1372 1.227 . S
O1372 C1371 1.227 . S
N1373 Co1359 2.140 . S
N1373 C1376 1.346 . S
N1373 C1377 1.345 . S
C1374 C1375 1.387 . S
C1374 C1378 1.391 . S
C1375 C1374 1.387 . S
C1375 C1376 1.369 . S
C1375 H1384 0.929 . S
C1376 N1373 1.346 . S
C1376 C1375 1.369 . S
C1376 H1379 0.928 . S
C1377 N1373 1.345 . S
C1377 C1378 1.371 . S
C1377 H1380 0.931 . S
C1378 C1374 1.391 . S
C1378 C1377 1.371 . S
C1378 H1385 0.930 . S
H1379 C1376 0.928 . S
H1380 C1377 0.931 . S
H1381 C1357 0.930 . S
H1382 C1354 0.930 . S
H1383 C1363 0.930 . S
H1384 C1375 0.929 . S
H1385 C1378 0.930 . S
C1386 C1387 1.351 . S
C1386 N1389 1.368 . S
C1386 H1391 0.931 . S
C1387 C1386 1.351 . S
C1387 N1388 1.373 . S
C1387 H1415 0.930 . S
N1388 C1387 1.373 . S
N1388 C1390 1.340 . S
N1389 C1386 1.368 . S
N1389 C1390 1.321 . S
N1389 Co1392 2.135 . S
C1390 N1388 1.340 . S
C1390 N1389 1.321 . S
C1390 H1414 0.930 . S
H1391 C1386 0.931 . S
Co1392 N1389 2.135 . S
Co1392 N1395 2.121 . S
Co1392 O1400 2.055 . S
Co1392 O1403 2.039 . S
Co1392 N1406 2.140 . S
C1393 O1394 1.227 . S
C1393 O1403 1.265 . S
O1394 C1393 1.227 . S
N1395 Co1392 2.121 . S
N1395 C1397 1.375 . S
N1395 C1398 1.313 . S
C1396 C1397 1.338 . S
C1396 N1399 1.377 . S
C1396 H1416 0.930 . S
C1397 N1395 1.375 . S
C1397 C1396 1.338 . S
C1397 H1401 0.931 . S
C1398 N1395 1.313 . S
C1398 N1399 1.344 . S
C1398 H1402 0.930 . S
N1399 C1396 1.377 . S
N1399 C1398 1.344 . S
O1400 Co1392 2.055 . S
O1400 C1404 1.253 . S
H1401 C1397 0.931 . S
H1402 C1398 0.930 . S
O1403 Co1392 2.039 . S
O1403 C1393 1.265 . S
C1404 O1400 1.253 . S
C1404 O1405 1.227 . S
O1405 C1404 1.227 . S
N1406 Co1392 2.140 . S
N1406 C1409 1.346 . S
N1406 C1410 1.345 . S
C1407 C1408 1.387 . S
C1407 C1411 1.391 . S
C1408 C1407 1.387 . S
C1408 C1409 1.369 . S
C1408 H1417 0.929 . S
C1409 N1406 1.346 . S
C1409 C1408 1.369 . S
C1409 H1412 0.928 . S
C1410 N1406 1.345 . S
C1410 C1411 1.371 . S
C1410 H1413 0.931 . S
C1411 C1407 1.391 . S
C1411 C1410 1.371 . S
C1411 H1418 0.930 . S
H1412 C1409 0.928 . S
H1413 C1410 0.931 . S
H1414 C1390 0.930 . S
H1415 C1387 0.930 . S
H1416 C1396 0.930 . S
H1417 C1408 0.929 . S
H1418 C1411 0.930 . S
C1419 C1420 1.351 . S
C1419 N1422 1.368 . S
C1419 H1424 0.931 . S
C1420 C1419 1.351 . S
C1420 N1421 1.373 . S
C1420 H1448 0.930 . S
N1421 C1420 1.373 . S
N1421 C1423 1.340 . S
N1422 C1419 1.368 . S
N1422 C1423 1.321 . S
N1422 Co1425 2.135 . S
C1423 N1421 1.340 . S
C1423 N1422 1.321 . S
C1423 H1447 0.930 . S
H1424 C1419 0.931 . S
Co1425 N1422 2.135 . S
Co1425 N1428 2.121 . S
Co1425 O1433 2.055 . S
Co1425 O1436 2.039 . S
Co1425 N1439 2.140 . S
C1426 O1427 1.227 . S
C1426 O1436 1.265 . S
O1427 C1426 1.227 . S
N1428 Co1425 2.121 . S
N1428 C1430 1.375 . S
N1428 C1431 1.313 . S
C1429 C1430 1.338 . S
C1429 N1432 1.377 . S
C1429 H1449 0.930 . S
C1430 N1428 1.375 . S
C1430 C1429 1.338 . S
C1430 H1434 0.931 . S
C1431 N1428 1.313 . S
C1431 N1432 1.344 . S
C1431 H1435 0.930 . S
N1432 C1429 1.377 . S
N1432 C1431 1.344 . S
O1433 Co1425 2.055 . S
O1433 C1437 1.253 . S
H1434 C1430 0.931 . S
H1435 C1431 0.930 . S
O1436 Co1425 2.039 . S
O1436 C1426 1.265 . S
C1437 O1433 1.253 . S
C1437 O1438 1.227 . S
O1438 C1437 1.227 . S
N1439 Co1425 2.140 . S
N1439 C1442 1.346 . S
N1439 C1443 1.345 . S
C1440 C1441 1.387 . S
C1440 C1444 1.391 . S
C1441 C1440 1.387 . S
C1441 C1442 1.369 . S
C1441 H1450 0.929 . S
C1442 N1439 1.346 . S
C1442 C1441 1.369 . S
C1442 H1445 0.928 . S
C1443 N1439 1.345 . S
C1443 C1444 1.371 . S
C1443 H1446 0.931 . S
C1444 C1440 1.391 . S
C1444 C1443 1.371 . S
C1444 H1451 0.930 . S
H1445 C1442 0.928 . S
H1446 C1443 0.931 . S
H1447 C1423 0.930 . S
H1448 C1420 0.930 . S
H1449 C1429 0.930 . S
H1450 C1441 0.929 . S
H1451 C1444 0.930 . S
C1452 C1453 1.351 . S
C1452 N1455 1.368 . S
C1452 H1457 0.931 . S
C1453 C1452 1.351 . S
C1453 N1454 1.373 . S
C1453 H1481 0.930 . S
N1454 C1453 1.373 . S
N1454 C1456 1.340 . S
N1455 C1452 1.368 . S
N1455 C1456 1.321 . S
N1455 Co1458 2.135 . S
C1456 N1454 1.340 . S
C1456 N1455 1.321 . S
C1456 H1480 0.930 . S
H1457 C1452 0.931 . S
Co1458 N1455 2.135 . S
Co1458 N1461 2.121 . S
Co1458 O1466 2.055 . S
Co1458 O1469 2.039 . S
Co1458 N1472 2.140 . S
C1459 O1460 1.227 . S
C1459 O1469 1.265 . S
O1460 C1459 1.227 . S
N1461 Co1458 2.121 . S
N1461 C1463 1.375 . S
N1461 C1464 1.313 . S
C1462 C1463 1.338 . S
C1462 N1465 1.377 . S
C1462 H1482 0.930 . S
C1463 N1461 1.375 . S
C1463 C1462 1.338 . S
C1463 H1467 0.931 . S
C1464 N1461 1.313 . S
C1464 N1465 1.344 . S
C1464 H1468 0.930 . S
N1465 C1462 1.377 . S
N1465 C1464 1.344 . S
O1466 Co1458 2.055 . S
O1466 C1470 1.253 . S
H1467 C1463 0.931 . S
H1468 C1464 0.930 . S
O1469 Co1458 2.039 . S
O1469 C1459 1.265 . S
C1470 O1466 1.253 . S
C1470 O1471 1.227 . S
O1471 C1470 1.227 . S
N1472 Co1458 2.140 . S
N1472 C1475 1.346 . S
N1472 C1476 1.345 . S
C1473 C1474 1.387 . S
C1473 C1477 1.391 . S
C1474 C1473 1.387 . S
C1474 C1475 1.369 . S
C1474 H1483 0.929 . S
C1475 N1472 1.346 . S
C1475 C1474 1.369 . S
C1475 H1478 0.928 . S
C1476 N1472 1.345 . S
C1476 C1477 1.371 . S
C1476 H1479 0.931 . S
C1477 C1473 1.391 . S
C1477 C1476 1.371 . S
C1477 H1484 0.930 . S
H1478 C1475 0.928 . S
H1479 C1476 0.931 . S
H1480 C1456 0.930 . S
H1481 C1453 0.930 . S
H1482 C1462 0.930 . S
H1483 C1474 0.929 . S
H1484 C1477 0.930 . S
C1485 C1486 1.351 . S
C1485 N1488 1.368 . S
C1485 H1490 0.931 . S
C1486 C1485 1.351 . S
C1486 N1487 1.373 . S
C1486 H1514 0.930 . S
N1487 C1486 1.373 . S
N1487 C1489 1.340 . S
N1488 C1485 1.368 . S
N1488 C1489 1.321 . S
N1488 Co1491 2.135 . S
C1489 N1487 1.340 . S
C1489 N1488 1.321 . S
C1489 H1513 0.930 . S
H1490 C1485 0.931 . S
Co1491 N1488 2.135 . S
Co1491 N1494 2.121 . S
Co1491 O1499 2.055 . S
Co1491 O1502 2.039 . S
Co1491 N1505 2.140 . S
C1492 O1493 1.227 . S
C1492 O1502 1.265 . S
O1493 C1492 1.227 . S
N1494 Co1491 2.121 . S
N1494 C1496 1.375 . S
N1494 C1497 1.313 . S
C1495 C1496 1.338 . S
C1495 N1498 1.377 . S
C1495 H1515 0.930 . S
C1496 N1494 1.375 . S
C1496 C1495 1.338 . S
C1496 H1500 0.931 . S
C1497 N1494 1.313 . S
C1497 N1498 1.344 . S
C1497 H1501 0.930 . S
N1498 C1495 1.377 . S
N1498 C1497 1.344 . S
O1499 Co1491 2.055 . S
O1499 C1503 1.253 . S
H1500 C1496 0.931 . S
H1501 C1497 0.930 . S
O1502 Co1491 2.039 . S
O1502 C1492 1.265 . S
C1503 O1499 1.253 . S
C1503 O1504 1.227 . S
O1504 C1503 1.227 . S
N1505 Co1491 2.140 . S
N1505 C1508 1.346 . S
N1505 C1509 1.345 . S
C1506 C1507 1.387 . S
C1506 C1510 1.391 . S
C1507 C1506 1.387 . S
C1507 C1508 1.369 . S
C1507 H1516 0.929 . S
C1508 N1505 1.346 . S
C1508 C1507 1.369 . S
C1508 H1511 0.928 . S
C1509 N1505 1.345 . S
C1509 C1510 1.371 . S
C1509 H1512 0.931 . S
C1510 C1506 1.391 . S
C1510 C1509 1.371 . S
C1510 H1517 0.930 . S
H1511 C1508 0.928 . S
H1512 C1509 0.931 . S
H1513 C1489 0.930 . S
H1514 C1486 0.930 . S
H1515 C1495 0.930 . S
H1516 C1507 0.929 . S
H1517 C1510 0.930 . S
C1518 C1519 1.351 . S
C1518 N1521 1.368 . S
C1518 H1523 0.931 . S
C1519 C1518 1.351 . S
C1519 N1520 1.373 . S
C1519 H1547 0.930 . S
N1520 C1519 1.373 . S
N1520 C1522 1.340 . S
N1521 C1518 1.368 . S
N1521 C1522 1.321 . S
N1521 Co1524 2.135 . S
C1522 N1520 1.340 . S
C1522 N1521 1.321 . S
C1522 H1546 0.930 . S
H1523 C1518 0.931 . S
Co1524 N1521 2.135 . S
Co1524 N1527 2.121 . S
Co1524 O1532 2.055 . S
Co1524 O1535 2.039 . S
Co1524 N1538 2.140 . S
C1525 O1526 1.227 . S
C1525 O1535 1.265 . S
O1526 C1525 1.227 . S
N1527 Co1524 2.121 . S
N1527 C1529 1.375 . S
N1527 C1530 1.313 . S
C1528 C1529 1.338 . S
C1528 N1531 1.377 . S
C1528 H1548 0.930 . S
C1529 N1527 1.375 . S
C1529 C1528 1.338 . S
C1529 H1533 0.931 . S
C1530 N1527 1.313 . S
C1530 N1531 1.344 . S
C1530 H1534 0.930 . S
N1531 C1528 1.377 . S
N1531 C1530 1.344 . S
O1532 Co1524 2.055 . S
O1532 C1536 1.253 . S
H1533 C1529 0.931 . S
H1534 C1530 0.930 . S
O1535 Co1524 2.039 . S
O1535 C1525 1.265 . S
C1536 O1532 1.253 . S
C1536 O1537 1.227 . S
O1537 C1536 1.227 . S
N1538 Co1524 2.140 . S
N1538 C1541 1.346 . S
N1538 C1542 1.345 . S
C1539 C1540 1.387 . S
C1539 C1543 1.391 . S
C1540 C1539 1.387 . S
C1540 C1541 1.369 . S
C1540 H1549 0.929 . S
C1541 N1538 1.346 . S
C1541 C1540 1.369 . S
C1541 H1544 0.928 . S
C1542 N1538 1.345 . S
C1542 C1543 1.371 . S
C1542 H1545 0.931 . S
C1543 C1539 1.391 . S
C1543 C1542 1.371 . S
C1543 H1550 0.930 . S
H1544 C1541 0.928 . S
H1545 C1542 0.931 . S
H1546 C1522 0.930 . S
H1547 C1519 0.930 . S
H1548 C1528 0.930 . S
H1549 C1540 0.929 . S
H1550 C1543 0.930 . S
C1551 C1552 1.351 . S
C1551 N1554 1.368 . S
C1551 H1556 0.931 . S
C1552 C1551 1.351 . S
C1552 N1553 1.373 . S
C1552 H1580 0.930 . S
N1553 C1552 1.373 . S
N1553 C1555 1.340 . S
N1554 C1551 1.368 . S
N1554 C1555 1.321 . S
N1554 Co1557 2.135 . S
C1555 N1553 1.340 . S
C1555 N1554 1.321 . S
C1555 H1579 0.930 . S
H1556 C1551 0.931 . S
Co1557 N1554 2.135 . S
Co1557 N1560 2.121 . S
Co1557 O1565 2.055 . S
Co1557 O1568 2.039 . S
Co1557 N1571 2.140 . S
C1558 O1559 1.227 . S
C1558 O1568 1.265 . S
O1559 C1558 1.227 . S
N1560 Co1557 2.121 . S
N1560 C1562 1.375 . S
N1560 C1563 1.313 . S
C1561 C1562 1.338 . S
C1561 N1564 1.377 . S
C1561 H1581 0.930 . S
C1562 N1560 1.375 . S
C1562 C1561 1.338 . S
C1562 H1566 0.931 . S
C1563 N1560 1.313 . S
C1563 N1564 1.344 . S
C1563 H1567 0.930 . S
N1564 C1561 1.377 . S
N1564 C1563 1.344 . S
O1565 Co1557 2.055 . S
O1565 C1569 1.253 . S
H1566 C1562 0.931 . S
H1567 C1563 0.930 . S
O1568 Co1557 2.039 . S
O1568 C1558 1.265 . S
C1569 O1565 1.253 . S
C1569 O1570 1.227 . S
O1570 C1569 1.227 . S
N1571 Co1557 2.140 . S
N1571 C1574 1.346 . S
N1571 C1575 1.345 . S
C1572 C1573 1.387 . S
C1572 C1576 1.391 . S
C1573 C1572 1.387 . S
C1573 C1574 1.369 . S
C1573 H1582 0.929 . S
C1574 N1571 1.346 . S
C1574 C1573 1.369 . S
C1574 H1577 0.928 . S
C1575 N1571 1.345 . S
C1575 C1576 1.371 . S
C1575 H1578 0.931 . S
C1576 C1572 1.391 . S
C1576 C1575 1.371 . S
C1576 H1583 0.930 . S
H1577 C1574 0.928 . S
H1578 C1575 0.931 . S
H1579 C1555 0.930 . S
H1580 C1552 0.930 . S
H1581 C1561 0.930 . S
H1582 C1573 0.929 . S
H1583 C1576 0.930 . S
C1584 C1585 1.369 . S
C1584 C1586 1.419 . S
C1584 H1588 0.930 . S
C1585 C1584 1.369 . S
C1585 C1594 1.429 . S
C1586 C1584 1.419 . S
C1586 C1587 1.363 . S
C1586 H1589 0.929 . S
C1587 C1586 1.363 . S
C1587 C1593 1.428 . S
H1588 C1584 0.930 . S
H1589 C1586 0.929 . S
S1590 N1591 1.590 1_554 S
S1590 N1592 1.610 . S
N1591 S1590 1.590 1_556 S
N1591 C1594 1.333 1_556 S
N1592 S1590 1.610 . S
N1592 C1593 1.351 . S
C1593 C1587 1.428 . S
C1593 N1592 1.351 . S
C1593 C1594 1.434 . S
C1594 C1585 1.429 . S
C1594 N1591 1.333 1_554 S
C1594 C1593 1.434 . S
C1595 C1596 1.369 . S
C1595 C1597 1.419 . S
C1595 H1599 0.930 . S
C1596 C1595 1.369 . S
C1596 C1605 1.429 . S
C1597 C1595 1.419 . S
C1597 C1598 1.363 . S
C1597 H1600 0.929 1_554 S
C1598 C1597 1.363 . S
C1598 C1604 1.428 . S
H1599 C1595 0.930 . S
H1600 C1597 0.929 1_556 S
S1601 N1602 1.613 . S
S1601 N1603 1.610 . S
N1602 S1601 1.613 . S
N1602 C1605 1.350 . S
N1603 S1601 1.610 . S
N1603 C1604 1.351 . S
C1604 C1598 1.428 . S
C1604 N1603 1.351 . S
C1604 C1605 1.434 . S
C1605 C1596 1.429 . S
C1605 N1602 1.350 . S
C1605 C1604 1.434 . S
C1606 C1607 1.369 . S
C1606 C1608 1.419 . S
C1606 H1610 0.930 . S
C1607 C1606 1.369 . S
C1607 C1616 1.429 . S
C1608 C1606 1.419 . S
C1608 C1609 1.363 . S
C1608 H1611 0.911 1_554 S
C1609 C1608 1.363 . S
C1609 C1615 1.428 . S
H1610 C1606 0.930 . S
H1611 C1608 0.911 1_556 S
S1612 N1613 1.613 . S
S1612 N1614 1.610 . S
N1613 S1612 1.613 . S
N1613 C1616 1.350 . S
N1614 S1612 1.610 . S
N1614 C1615 1.351 . S
C1615 C1609 1.428 . S
C1615 N1614 1.351 . S
C1615 C1616 1.434 . S
C1616 C1607 1.429 . S
C1616 N1613 1.350 . S
C1616 C1615 1.434 . S
C1617 C1618 1.369 . S
C1617 C1619 1.419 . S
C1617 H1621 0.930 1_554 S
C1618 C1617 1.369 . S
C1618 C1627 1.429 . S
C1619 C1617 1.419 . S
C1619 C1620 1.363 . S
C1619 H1622 0.929 . S
C1620 C1619 1.363 . S
C1620 C1626 1.428 . S
H1621 C1617 0.930 1_556 S
H1622 C1619 0.929 . S
S1623 N1624 1.613 . S
S1623 N1625 1.610 . S
N1624 S1623 1.613 . S
N1624 C1627 1.350 . S
N1625 S1623 1.610 . S
N1625 C1626 1.351 . S
C1626 C1620 1.428 . S
C1626 N1625 1.351 . S
C1626 C1627 1.434 . S
C1627 C1618 1.429 . S
C1627 N1624 1.350 . S
C1627 C1626 1.434 . S
C1628 C1629 1.369 . S
C1628 C1630 1.419 . S
C1628 H1632 0.930 . S
C1629 C1628 1.369 . S
C1629 C1638 1.429 . S
C1630 C1628 1.419 . S
C1630 C1631 1.363 . S
C1630 H1633 0.929 . S
C1631 C1630 1.363 . S
C1631 C1637 1.428 . S
H1632 C1628 0.930 . S
H1633 C1630 0.929 . S
S1634 N1635 1.613 . S
S1634 N1636 1.610 . S
N1635 S1634 1.613 . S
N1635 C1638 1.350 . S
N1636 S1634 1.610 . S
N1636 C1637 1.351 . S
C1637 C1631 1.428 . S
C1637 N1636 1.351 . S
C1637 C1638 1.434 . S
C1638 C1629 1.429 . S
C1638 N1635 1.350 . S
C1638 C1637 1.434 . S
C1639 C1640 1.369 . S
C1639 C1641 1.419 . S
C1639 H1643 0.930 . S
C1640 C1639 1.369 . S
C1640 C1649 1.429 . S
C1641 C1639 1.419 . S
C1641 C1642 1.363 . S
C1641 H1644 0.929 . S
C1642 C1641 1.363 . S
C1642 C1648 1.428 . S
H1643 C1639 0.930 . S
H1644 C1641 0.929 . S
S1645 N1646 1.613 . S
S1645 N1647 1.610 . S
N1646 S1645 1.613 . S
N1646 C1649 1.350 . S
N1647 S1645 1.610 . S
N1647 C1648 1.351 . S
C1648 C1642 1.428 . S
C1648 N1647 1.351 . S
C1648 C1649 1.434 . S
C1649 C1640 1.429 . S
C1649 N1646 1.350 . S
C1649 C1648 1.434 . S
C1650 C1651 1.369 . S
C1650 C1652 1.419 . S
C1650 H1654 0.930 . S
C1651 C1650 1.369 . S
C1651 C1660 1.429 . S
C1652 C1650 1.419 . S
C1652 C1653 1.363 . S
C1652 H1655 0.929 . S
C1653 C1652 1.363 . S
C1653 C1659 1.428 . S
H1654 C1650 0.930 . S
H1655 C1652 0.929 . S
S1656 N1657 1.613 . S
S1656 N1658 1.610 . S
N1657 S1656 1.613 . S
N1657 C1660 1.350 . S
N1658 S1656 1.610 . S
N1658 C1659 1.351 . S
C1659 C1653 1.428 . S
C1659 N1658 1.351 . S
C1659 C1660 1.434 . S
C1660 C1651 1.429 . S
C1660 N1657 1.350 . S
C1660 C1659 1.434 . S
C1661 C1662 1.369 . S
C1661 C1663 1.419 . S
C1661 H1665 0.930 1_556 S
C1662 C1661 1.369 . S
C1662 C1671 1.429 . S
C1663 C1661 1.419 . S
C1663 C1664 1.363 . S
C1663 H1666 0.929 . S
C1664 C1663 1.363 . S
C1664 C1670 1.428 . S
H1665 C1661 0.930 1_554 S
H1666 C1663 0.929 . S
S1667 N1668 1.613 . S
S1667 N1669 1.610 . S
N1668 S1667 1.613 . S
N1668 C1671 1.350 . S
N1669 S1667 1.610 . S
N1669 C1670 1.351 . S
C1670 C1664 1.428 . S
C1670 N1669 1.351 . S
C1670 C1671 1.434 . S
C1671 C1662 1.429 . S
C1671 N1668 1.350 . S
C1671 C1670 1.434 . S
C1672 C1673 1.369 . S
C1672 C1674 1.419 . S
C1672 H1676 0.930 . S
C1673 C1672 1.369 . S
C1673 C1682 1.429 . S
C1674 C1672 1.419 . S
C1674 C1675 1.363 . S
C1674 H1677 0.929 1_455 S
C1675 C1674 1.363 . S
C1675 C1681 1.428 . S
H1676 C1672 0.930 . S
H1677 C1674 0.929 1_655 S
S1678 N1679 1.613 . S
S1678 N1680 1.610 . S
N1679 S1678 1.613 . S
N1679 C1682 1.350 . S
N1680 S1678 1.610 . S
N1680 C1681 1.351 . S
C1681 C1675 1.428 . S
C1681 N1680 1.351 . S
C1681 C1682 1.434 . S
C1682 C1673 1.429 . S
C1682 N1679 1.350 . S
C1682 C1681 1.434 . S
C1683 C1684 1.369 . S
C1683 C1685 1.419 . S
C1683 H1687 0.930 1_545 S
C1684 C1683 1.369 . S
C1684 C1693 1.429 . S
C1685 C1683 1.419 . S
C1685 C1686 1.363 . S
C1685 H1688 0.929 . S
C1686 C1685 1.363 . S
C1686 C1692 1.428 . S
H1687 C1683 0.930 1_565 S
H1688 C1685 0.929 . S
S1689 N1690 1.613 . S
S1689 N1691 1.610 . S
N1690 S1689 1.613 . S
N1690 C1693 1.350 . S
N1691 S1689 1.610 . S
N1691 C1692 1.351 . S
C1692 C1686 1.428 . S
C1692 N1691 1.351 . S
C1692 C1693 1.434 . S
C1693 C1684 1.429 . S
C1693 N1690 1.350 . S
C1693 C1692 1.434 . S
C1694 C1695 1.369 . S
C1694 C1696 1.419 . S
C1694 H1698 0.930 1_655 S
C1695 C1694 1.369 . S
C1695 C1704 1.429 . S
C1696 C1694 1.419 . S
C1696 C1697 1.363 . S
C1696 H1699 0.929 . S
C1697 C1696 1.363 . S
C1697 C1703 1.428 . S
H1698 C1694 0.930 1_455 S
H1699 C1696 0.929 . S
S1700 N1701 1.613 . S
S1700 N1702 1.610 . S
N1701 S1700 1.613 . S
N1701 C1704 1.350 . S
N1702 S1700 1.610 . S
N1702 C1703 1.351 . S
C1703 C1697 1.428 . S
C1703 N1702 1.351 . S
C1703 C1704 1.434 . S
C1704 C1695 1.429 . S
C1704 N1701 1.350 . S
C1704 C1703 1.434 . S
C1705 C1706 1.369 . S
C1705 C1707 1.419 . S
C1705 H1709 0.930 . S
C1706 C1705 1.369 . S
C1706 C1715 1.429 . S
C1707 C1705 1.419 . S
C1707 C1708 1.363 . S
C1707 H1710 0.929 1_565 S
C1708 C1707 1.363 . S
C1708 C1714 1.428 . S
H1709 C1705 0.930 . S
H1710 C1707 0.929 1_545 S
S1711 N1712 1.613 . S
S1711 N1713 1.610 . S
N1712 S1711 1.613 . S
N1712 C1715 1.350 . S
N1713 S1711 1.610 . S
N1713 C1714 1.351 . S
C1714 C1708 1.428 . S
C1714 N1713 1.351 . S
C1714 C1715 1.434 . S
C1715 C1706 1.429 . S
C1715 N1712 1.350 . S
C1715 C1714 1.434 . S
C1716 C1717 1.369 . S
C1716 C1718 1.419 . S
C1716 H1720 0.930 . S
C1717 C1716 1.369 . S
C1717 C1726 1.429 . S
C1718 C1716 1.419 . S
C1718 C1719 1.363 . S
C1718 H1721 0.929 . S
C1719 C1718 1.363 . S
C1719 C1725 1.428 . S
H1720 C1716 0.930 . S
H1721 C1718 0.929 . S
S1722 N1723 1.613 1_455 S
S1722 N1724 1.610 . S
N1723 S1722 1.613 1_655 S
N1723 C1726 1.350 1_655 S
N1724 S1722 1.610 . S
N1724 C1725 1.351 . S
C1725 C1719 1.428 . S
C1725 N1724 1.351 . S
C1725 C1726 1.434 . S
C1726 C1717 1.429 . S
C1726 N1723 1.350 1_455 S
C1726 C1725 1.434 . S
C1727 C1728 1.369 . S
C1727 C1729 1.419 . S
C1727 H1731 0.930 . S
C1728 C1727 1.369 . S
C1728 C1737 1.429 . S
C1729 C1727 1.419 . S
C1729 C1730 1.363 . S
C1729 H1732 0.929 1_545 S
C1730 C1729 1.363 . S
C1730 C1736 1.428 . S
H1731 C1727 0.930 . S
H1732 C1729 0.929 1_565 S
S1733 N1734 1.613 . S
S1733 N1735 1.610 . S
N1734 S1733 1.613 . S
N1734 C1737 1.350 . S
N1735 S1733 1.610 . S
N1735 C1736 1.351 . S
C1736 C1730 1.428 . S
C1736 N1735 1.351 . S
C1736 C1737 1.434 . S
C1737 C1728 1.429 . S
C1737 N1734 1.350 . S
C1737 C1736 1.434 . S
C1738 C1739 1.369 . S
C1738 C1740 1.419 . S
C1738 H1742 0.930 . S
C1739 C1738 1.369 . S
C1739 C1748 1.429 . S
C1740 C1738 1.419 . S
C1740 C1741 1.363 . S
C1740 H1743 0.929 . S
C1741 C1740 1.363 . S
C1741 C1747 1.428 . S
H1742 C1738 0.930 . S
H1743 C1740 0.929 . S
S1744 N1745 1.613 1_655 S
S1744 N1746 1.610 . S
N1745 S1744 1.613 1_455 S
N1745 C1748 1.350 1_455 S
N1746 S1744 1.610 . S
N1746 C1747 1.351 . S
C1747 C1741 1.428 . S
C1747 N1746 1.351 . S
C1747 C1748 1.434 . S
C1748 C1739 1.429 . S
C1748 N1745 1.350 1_655 S
C1748 C1747 1.434 . S
C1749 C1750 1.369 . S
C1749 C1751 1.419 . S
C1749 H1753 0.930 . S
C1750 C1749 1.369 . S
C1750 C1759 1.429 . S
C1751 C1749 1.419 . S
C1751 C1752 1.363 . S
C1751 H1754 0.929 . S
C1752 C1751 1.363 . S
C1752 C1758 1.428 . S
H1753 C1749 0.930 . S
H1754 C1751 0.929 . S
S1755 N1756 1.600 1_565 S
S1755 N1757 1.638 . S
N1756 S1755 1.600 1_545 S
N1756 C1759 1.350 1_545 S
N1757 S1755 1.638 . S
N1757 C1758 1.351 . S
C1758 C1752 1.428 . S
C1758 N1757 1.351 . S
C1758 C1759 1.434 . S
C1759 C1750 1.429 . S
C1759 N1756 1.350 1_565 S
C1759 C1758 1.434 . S
C1760 C1761 1.369 . S
C1760 C1762 1.419 . S
C1760 H1764 0.930 . S
C1761 C1760 1.369 . S
C1761 C1770 1.429 . S
C1762 C1760 1.419 . S
C1762 C1763 1.363 . S
C1762 H1765 0.929 . S
C1763 C1762 1.363 . S
C1763 C1769 1.428 . S
H1764 C1760 0.930 . S
H1765 C1762 0.929 . S
S1766 N1767 1.645 . S
S1766 N1768 1.596 1_545 S
N1767 S1766 1.645 . S
N1767 C1770 1.350 . S
N1768 S1766 1.596 1_565 S
N1768 C1769 1.351 1_565 S
C1769 C1763 1.428 . S
C1769 N1768 1.351 1_545 S
C1769 C1770 1.434 . S
C1770 C1761 1.429 . S
C1770 N1767 1.350 . S
C1770 C1769 1.434 . S
C1771 C1772 1.369 . S
C1771 C1773 1.419 . S
C1771 H1775 0.930 . S
C1772 C1771 1.369 . S
C1772 C1781 1.429 . S
C1773 C1771 1.419 . S
C1773 C1774 1.363 . S
C1773 H1776 0.929 . S
C1774 C1773 1.363 . S
C1774 C1780 1.428 . S
H1775 C1771 0.930 . S
H1776 C1773 0.929 . S
S1777 N1778 1.613 1_565 S
S1777 N1779 1.610 . S
N1778 S1777 1.613 1_545 S
N1778 C1781 1.350 1_545 S
N1779 S1777 1.610 . S
N1779 C1780 1.351 . S
C1780 C1774 1.428 . S
C1780 N1779 1.351 . S
C1780 C1781 1.434 . S
C1781 C1772 1.429 . S
C1781 N1778 1.350 1_565 S
C1781 C1780 1.434 . S
C1782 C1783 1.369 . S
C1782 C1784 1.419 . S
C1782 H1786 0.930 . S
C1783 C1782 1.369 . S
C1783 C1792 1.429 . S
C1784 C1782 1.419 . S
C1784 C1785 1.363 . S
C1784 H1787 0.929 . S
C1785 C1784 1.363 . S
C1785 C1791 1.428 . S
H1786 C1782 0.930 . S
H1787 C1784 0.929 . S
S1788 N1789 1.613 . S
S1788 N1790 1.610 . S
N1789 S1788 1.613 . S
N1789 C1792 1.350 . S
N1790 S1788 1.610 . S
N1790 C1791 1.351 . S
C1791 C1785 1.428 . S
C1791 N1790 1.351 . S
C1791 C1792 1.434 . S
C1792 C1783 1.429 . S
C1792 N1789 1.350 . S
C1792 C1791 1.434 . S
C1793 C1794 1.369 . S
C1793 C1795 1.419 . S
C1793 H1797 0.930 1_545 S
C1794 C1793 1.369 . S
C1794 C1803 1.429 . S
C1795 C1793 1.419 . S
C1795 C1796 1.363 . S
C1795 H1798 0.929 . S
C1796 C1795 1.363 . S
C1796 C1802 1.428 . S
H1797 C1793 0.930 1_565 S
H1798 C1795 0.929 . S
S1799 N1800 1.613 . S
S1799 N1801 1.610 . S
N1800 S1799 1.613 . S
N1800 C1803 1.350 . S
N1801 S1799 1.610 . S
N1801 C1802 1.351 . S
C1802 C1796 1.428 . S
C1802 N1801 1.351 . S
C1802 C1803 1.434 . S
C1803 C1794 1.429 . S
C1803 N1800 1.350 . S
C1803 C1802 1.434 . S
C1804 C1805 1.369 . S
C1804 C1806 1.419 . S
C1804 H1808 0.930 . S
C1805 C1804 1.369 . S
C1805 C1814 1.429 . S
C1806 C1804 1.419 . S
C1806 C1807 1.363 . S
C1806 H1809 0.929 . S
C1807 C1806 1.363 . S
C1807 C1813 1.428 . S
H1808 C1804 0.930 . S
H1809 C1806 0.929 . S
S1810 N1811 1.613 1_655 S
S1810 N1812 1.610 . S
N1811 S1810 1.613 1_455 S
N1811 C1814 1.350 1_455 S
N1812 S1810 1.610 . S
N1812 C1813 1.351 . S
C1813 C1807 1.428 . S
C1813 N1812 1.351 . S
C1813 C1814 1.434 . S
C1814 C1805 1.429 . S
C1814 N1811 1.350 1_655 S
C1814 C1813 1.434 . S
C1815 C1816 1.369 . S
C1815 C1817 1.419 . S
C1815 H1819 0.930 . S
C1816 C1815 1.369 . S
C1816 C1825 1.429 . S
C1817 C1815 1.419 . S
C1817 C1818 1.363 . S
C1817 H1820 0.929 1_565 S
C1818 C1817 1.363 . S
C1818 C1824 1.428 . S
H1819 C1815 0.930 . S
H1820 C1817 0.929 1_545 S
S1821 N1822 1.613 . S
S1821 N1823 1.610 . S
N1822 S1821 1.613 . S
N1822 C1825 1.350 . S
N1823 S1821 1.610 . S
N1823 C1824 1.351 . S
C1824 C1818 1.428 . S
C1824 N1823 1.351 . S
C1824 C1825 1.434 . S
C1825 C1816 1.429 . S
C1825 N1822 1.350 . S
C1825 C1824 1.434 . S
C1826 C1827 1.369 . S
C1826 C1828 1.419 . S
C1826 H1830 0.930 . S
C1827 C1826 1.369 . S
C1827 C1836 1.429 . S
C1828 C1826 1.419 . S
C1828 C1829 1.363 . S
C1828 H1831 0.929 1_455 S
C1829 C1828 1.363 . S
C1829 C1835 1.428 . S
H1830 C1826 0.930 . S
H1831 C1828 0.929 1_655 S
S1832 N1833 1.613 . S
S1832 N1834 1.610 . S
N1833 S1832 1.613 . S
N1833 C1836 1.350 . S
N1834 S1832 1.610 . S
N1834 C1835 1.351 . S
C1835 C1829 1.428 . S
C1835 N1834 1.351 . S
C1835 C1836 1.434 . S
C1836 C1827 1.429 . S
C1836 N1833 1.350 . S
C1836 C1835 1.434 . S
C1837 C1838 1.369 . S
C1837 C1839 1.419 . S
C1837 H1841 0.930 . S
C1838 C1837 1.369 . S
C1838 C1847 1.429 . S
C1839 C1837 1.419 . S
C1839 C1840 1.363 . S
C1839 H1842 0.929 . S
C1840 C1839 1.363 . S
C1840 C1846 1.428 . S
H1841 C1837 0.930 . S
H1842 C1839 0.929 . S
S1843 N1844 1.599 1_655 S
S1843 N1845 1.640 . S
N1844 S1843 1.599 1_455 S
N1844 C1847 1.350 1_455 S
N1845 S1843 1.640 . S
N1845 C1846 1.351 . S
C1846 C1840 1.428 . S
C1846 N1845 1.351 . S
C1846 C1847 1.434 . S
C1847 C1838 1.429 . S
C1847 N1844 1.350 1_655 S
C1847 C1846 1.434 . S
C1848 C1849 1.369 . S
C1848 C1850 1.419 . S
C1848 H1852 0.930 . S
C1849 C1848 1.369 . S
C1849 C1858 1.429 . S
C1850 C1848 1.419 . S
C1850 C1851 1.363 . S
C1850 H1853 0.929 . S
C1851 C1850 1.363 . S
C1851 C1857 1.428 . S
H1852 C1848 0.930 . S
H1853 C1850 0.929 . S
S1854 N1855 1.613 . S
S1854 N1856 1.610 . S
N1855 S1854 1.613 . S
N1855 C1858 1.350 . S
N1856 S1854 1.610 . S
N1856 C1857 1.351 . S
C1857 C1851 1.428 . S
C1857 N1856 1.351 . S
C1857 C1858 1.434 . S
C1858 C1849 1.429 . S
C1858 N1855 1.350 . S
C1858 C1857 1.434 . S
C1859 C1860 1.369 . S
C1859 C1861 1.419 . S
C1859 H1863 0.930 . S
C1860 C1859 1.369 . S
C1860 C1869 1.429 . S
C1861 C1859 1.419 . S
C1861 C1862 1.363 . S
C1861 H1864 0.929 . S
C1862 C1861 1.363 . S
C1862 C1868 1.428 . S
H1863 C1859 0.930 . S
H1864 C1861 0.929 . S
S1865 N1866 1.613 . S
S1865 N1867 1.610 . S
N1866 S1865 1.613 . S
N1866 C1869 1.350 . S
N1867 S1865 1.610 . S
N1867 C1868 1.351 . S
C1868 C1862 1.428 . S
C1868 N1867 1.351 . S
C1868 C1869 1.434 . S
C1869 C1860 1.429 . S
C1869 N1866 1.350 . S
C1869 C1868 1.434 . S
C1870 C1871 1.369 . S
C1870 C1872 1.419 . S
C1870 H1874 0.930 . S
C1871 C1870 1.369 . S
C1871 C1880 1.429 . S
C1872 C1870 1.419 . S
C1872 C1873 1.363 . S
C1872 H1875 0.929 . S
C1873 C1872 1.363 . S
C1873 C1879 1.428 . S
H1874 C1870 0.930 . S
H1875 C1872 0.929 . S
S1876 N1877 1.613 . S
S1876 N1878 1.610 . S
N1877 S1876 1.613 . S
N1877 C1880 1.350 . S
N1878 S1876 1.610 . S
N1878 C1879 1.351 . S
C1879 C1873 1.428 . S
C1879 N1878 1.351 . S
C1879 C1880 1.434 . S
C1880 C1871 1.429 . S
C1880 N1877 1.350 . S
C1880 C1879 1.434 . S
C1881 C1882 1.369 . S
C1881 C1883 1.419 . S
C1881 H1885 0.930 . S
C1882 C1881 1.369 . S
C1882 C1891 1.429 . S
C1883 C1881 1.419 . S
C1883 C1884 1.363 . S
C1883 H1886 0.929 . S
C1884 C1883 1.363 . S
C1884 C1890 1.428 . S
H1885 C1881 0.930 . S
H1886 C1883 0.929 . S
S1887 N1888 1.613 . S
S1887 N1889 1.610 . S
N1888 S1887 1.613 . S
N1888 C1891 1.350 . S
N1889 S1887 1.610 . S
N1889 C1890 1.351 . S
C1890 C1884 1.428 . S
C1890 N1889 1.351 . S
C1890 C1891 1.434 . S
C1891 C1882 1.429 . S
C1891 N1888 1.350 . S
C1891 C1890 1.434 . S
C1892 C1893 1.369 . S
C1892 C1894 1.419 . S
C1892 H1896 0.930 . S
C1893 C1892 1.369 . S
C1893 C1902 1.429 . S
C1894 C1892 1.419 . S
C1894 C1895 1.363 . S
C1894 H1897 0.929 . S
C1895 C1894 1.363 . S
C1895 C1901 1.428 . S
H1896 C1892 0.930 . S
H1897 C1894 0.929 . S
S1898 N1899 1.613 . S
S1898 N1900 1.610 . S
N1899 S1898 1.613 . S
N1899 C1902 1.350 . S
N1900 S1898 1.610 . S
N1900 C1901 1.351 . S
C1901 C1895 1.428 . S
C1901 N1900 1.351 . S
C1901 C1902 1.434 . S
C1902 C1893 1.429 . S
C1902 N1899 1.350 . S
C1902 C1901 1.434 . S
C1903 C1904 1.369 . S
C1903 C1905 1.419 . S
C1903 H1907 0.930 . S
C1904 C1903 1.369 . S
C1904 C1913 1.429 . S
C1905 C1903 1.419 . S
C1905 C1906 1.363 . S
C1905 H1908 0.929 . S
C1906 C1905 1.363 . S
C1906 C1912 1.428 . S
H1907 C1903 0.930 . S
H1908 C1905 0.929 . S
S1909 N1910 1.613 . S
S1909 N1911 1.610 . S
N1910 S1909 1.613 . S
N1910 C1913 1.350 . S
N1911 S1909 1.610 . S
N1911 C1912 1.351 . S
C1912 C1906 1.428 . S
C1912 N1911 1.351 . S
C1912 C1913 1.434 . S
C1913 C1904 1.429 . S
C1913 N1910 1.350 . S
C1913 C1912 1.434 . S
C1914 C1915 1.369 . S
C1914 C1916 1.419 . S
C1914 H1918 0.930 . S
C1915 C1914 1.369 . S
C1915 C1924 1.429 . S
C1916 C1914 1.419 . S
C1916 C1917 1.363 . S
C1916 H1919 0.929 . S
C1917 C1916 1.363 . S
C1917 C1923 1.428 . S
H1918 C1914 0.930 . S
H1919 C1916 0.929 . S
S1920 N1921 1.613 . S
S1920 N1922 1.610 . S
N1921 S1920 1.613 . S
N1921 C1924 1.350 . S
N1922 S1920 1.610 . S
N1922 C1923 1.351 . S
C1923 C1917 1.428 . S
C1923 N1922 1.351 . S
C1923 C1924 1.434 . S
C1924 C1915 1.429 . S
C1924 N1921 1.350 . S
C1924 C1923 1.434 . S
C1925 C1926 1.369 . S
C1925 C1927 1.419 . S
C1925 H1929 0.930 . S
C1926 C1925 1.369 . S
C1926 C1935 1.429 . S
C1927 C1925 1.419 . S
C1927 C1928 1.363 . S
C1927 H1930 0.929 . S
C1928 C1927 1.363 . S
C1928 C1934 1.428 . S
H1929 C1925 0.930 . S
H1930 C1927 0.929 . S
S1931 N1932 1.613 . S
S1931 N1933 1.610 . S
N1932 S1931 1.613 . S
N1932 C1935 1.350 . S
N1933 S1931 1.610 . S
N1933 C1934 1.351 . S
C1934 C1928 1.428 . S
C1934 N1933 1.351 . S
C1934 C1935 1.434 . S
C1935 C1926 1.429 . S
C1935 N1932 1.350 . S
C1935 C1934 1.434 . S
C1936 C1937 1.369 . S
C1936 C1938 1.419 . S
C1936 H1940 0.930 . S
C1937 C1936 1.369 . S
C1937 C1946 1.429 . S
C1938 C1936 1.419 . S
C1938 C1939 1.363 . S
C1938 H1941 0.929 . S
C1939 C1938 1.363 . S
C1939 C1945 1.428 . S
H1940 C1936 0.930 . S
H1941 C1938 0.929 . S
S1942 N1943 1.613 . S
S1942 N1944 1.610 . S
N1943 S1942 1.613 . S
N1943 C1946 1.350 . S
N1944 S1942 1.610 . S
N1944 C1945 1.351 . S
C1945 C1939 1.428 . S
C1945 N1944 1.351 . S
C1945 C1946 1.434 . S
C1946 C1937 1.429 . S
C1946 N1943 1.350 . S
C1946 C1945 1.434 . S
C1947 C1948 1.369 . S
C1947 C1949 1.419 . S
C1947 H1951 0.930 . S
C1948 C1947 1.369 . S
C1948 C1957 1.429 . S
C1949 C1947 1.419 . S
C1949 C1950 1.363 . S
C1949 H1952 0.929 . S
C1950 C1949 1.363 . S
C1950 C1956 1.428 . S
H1951 C1947 0.930 . S
H1952 C1949 0.929 . S
S1953 N1954 1.613 . S
S1953 N1955 1.610 . S
N1954 S1953 1.613 . S
N1954 C1957 1.350 . S
N1955 S1953 1.610 . S
N1955 C1956 1.351 . S
C1956 C1950 1.428 . S
C1956 N1955 1.351 . S
C1956 C1957 1.434 . S
C1957 C1948 1.429 . S
C1957 N1954 1.350 . S
C1957 C1956 1.434 . S
C1958 C1959 1.369 . S
C1958 C1960 1.419 . S
C1958 H1962 0.930 . S
C1959 C1958 1.369 . S
C1959 C1968 1.429 . S
C1960 C1958 1.419 . S
C1960 C1961 1.363 . S
C1960 H1963 0.929 . S
C1961 C1960 1.363 . S
C1961 C1967 1.428 . S
H1962 C1958 0.930 . S
H1963 C1960 0.929 . S
S1964 N1965 1.613 . S
S1964 N1966 1.610 . S
N1965 S1964 1.613 . S
N1965 C1968 1.350 . S
N1966 S1964 1.610 . S
N1966 C1967 1.351 . S
C1967 C1961 1.428 . S
C1967 N1966 1.351 . S
C1967 C1968 1.434 . S
C1968 C1959 1.429 . S
C1968 N1965 1.350 . S
C1968 C1967 1.434 . S
C1969 C1970 1.369 . S
C1969 C1971 1.419 . S
C1969 H1973 0.930 . S
C1970 C1969 1.369 . S
C1970 C1979 1.429 . S
C1971 C1969 1.419 . S
C1971 C1972 1.363 . S
C1971 H1974 0.929 . S
C1972 C1971 1.363 . S
C1972 C1978 1.428 . S
H1973 C1969 0.930 . S
H1974 C1971 0.929 . S
S1975 N1976 1.613 . S
S1975 N1977 1.610 . S
N1976 S1975 1.613 . S
N1976 C1979 1.350 . S
N1977 S1975 1.610 . S
N1977 C1978 1.351 . S
C1978 C1972 1.428 . S
C1978 N1977 1.351 . S
C1978 C1979 1.434 . S
C1979 C1970 1.429 . S
C1979 N1976 1.350 . S
C1979 C1978 1.434 . S
C1980 C1981 1.369 . S
C1980 C1982 1.419 . S
C1980 H1984 0.930 . S
C1981 C1980 1.369 . S
C1981 C1990 1.429 . S
C1982 C1980 1.419 . S
C1982 C1983 1.363 . S
C1982 H1985 0.929 . S
C1983 C1982 1.363 . S
C1983 C1989 1.428 . S
H1984 C1980 0.930 . S
H1985 C1982 0.929 . S
S1986 N1987 1.613 . S
S1986 N1988 1.610 . S
N1987 S1986 1.613 . S
N1987 C1990 1.350 . S
N1988 S1986 1.610 . S
N1988 C1989 1.351 . S
C1989 C1983 1.428 . S
C1989 N1988 1.351 . S
C1989 C1990 1.434 . S
C1990 C1981 1.429 . S
C1990 N1987 1.350 . S
C1990 C1989 1.434 . S
C1991 C1992 1.369 . S
C1991 C1993 1.419 . S
C1991 H1995 0.930 . S
C1992 C1991 1.369 . S
C1992 C2001 1.429 . S
C1993 C1991 1.419 . S
C1993 C1994 1.363 . S
C1993 H1996 0.929 . S
C1994 C1993 1.363 . S
C1994 C2000 1.428 . S
H1995 C1991 0.930 . S
H1996 C1993 0.929 . S
S1997 N1998 1.613 . S
S1997 N1999 1.610 . S
N1998 S1997 1.613 . S
N1998 C2001 1.350 . S
N1999 S1997 1.610 . S
N1999 C2000 1.351 . S
C2000 C1994 1.428 . S
C2000 N1999 1.351 . S
C2000 C2001 1.434 . S
C2001 C1992 1.429 . S
C2001 N1998 1.350 . S
C2001 C2000 1.434 . S
C2002 C2003 1.369 . S
C2002 C2004 1.419 . S
C2002 H2006 0.930 . S
C2003 C2002 1.369 . S
C2003 C2012 1.429 . S
C2004 C2002 1.419 . S
C2004 C2005 1.363 . S
C2004 H2007 0.929 . S
C2005 C2004 1.363 . S
C2005 C2011 1.428 . S
H2006 C2002 0.930 . S
H2007 C2004 0.929 . S
S2008 N2009 1.613 . S
S2008 N2010 1.610 . S
N2009 S2008 1.613 . S
N2009 C2012 1.350 . S
N2010 S2008 1.610 . S
N2010 C2011 1.351 . S
C2011 C2005 1.428 . S
C2011 N2010 1.351 . S
C2011 C2012 1.434 . S
C2012 C2003 1.429 . S
C2012 N2009 1.350 . S
C2012 C2011 1.434 . S
C2013 C2014 1.369 . S
C2013 C2015 1.419 . S
C2013 H2017 0.930 . S
C2014 C2013 1.369 . S
C2014 C2023 1.429 . S
C2015 C2013 1.419 . S
C2015 C2016 1.363 . S
C2015 H2018 0.929 . S
C2016 C2015 1.363 . S
C2016 C2022 1.428 . S
H2017 C2013 0.930 . S
H2018 C2015 0.929 . S
S2019 N2020 1.613 . S
S2019 N2021 1.610 . S
N2020 S2019 1.613 . S
N2020 C2023 1.350 . S
N2021 S2019 1.610 . S
N2021 C2022 1.351 . S
C2022 C2016 1.428 . S
C2022 N2021 1.351 . S
C2022 C2023 1.434 . S
C2023 C2014 1.429 . S
C2023 N2020 1.350 . S
C2023 C2022 1.434 . S
C2024 C2025 1.369 . S
C2024 C2026 1.419 . S
C2024 H2028 0.930 . S
C2025 C2024 1.369 . S
C2025 C2034 1.429 . S
C2026 C2024 1.419 . S
C2026 C2027 1.363 . S
C2026 H2029 0.929 . S
C2027 C2026 1.363 . S
C2027 C2033 1.428 . S
H2028 C2024 0.930 . S
H2029 C2026 0.929 . S
S2030 N2031 1.613 . S
S2030 N2032 1.610 . S
N2031 S2030 1.613 . S
N2031 C2034 1.350 . S
N2032 S2030 1.610 . S
N2032 C2033 1.351 . S
C2033 C2027 1.428 . S
C2033 N2032 1.351 . S
C2033 C2034 1.434 . S
C2034 C2025 1.429 . S
C2034 N2031 1.350 . S
C2034 C2033 1.434 . S
C2035 C2036 1.369 . S
C2035 C2037 1.419 . S
C2035 H2039 0.930 . S
C2036 C2035 1.369 . S
C2036 C2045 1.429 . S
C2037 C2035 1.419 . S
C2037 C2038 1.363 . S
C2037 H2040 0.929 . S
C2038 C2037 1.363 . S
C2038 C2044 1.428 . S
H2039 C2035 0.930 . S
H2040 C2037 0.929 . S
S2041 N2042 1.613 . S
S2041 N2043 1.610 . S
N2042 S2041 1.613 . S
N2042 C2045 1.350 . S
N2043 S2041 1.610 . S
N2043 C2044 1.351 . S
C2044 C2038 1.428 . S
C2044 N2043 1.351 . S
C2044 C2045 1.434 . S
C2045 C2036 1.429 . S
C2045 N2042 1.350 . S
C2045 C2044 1.434 . S
C2046 C2047 1.369 . S
C2046 C2048 1.419 . S
C2046 H2050 0.930 . S
C2047 C2046 1.369 . S
C2047 C2056 1.429 . S
C2048 C2046 1.419 . S
C2048 C2049 1.363 . S
C2048 H2051 0.929 . S
C2049 C2048 1.363 . S
C2049 C2055 1.428 . S
H2050 C2046 0.930 . S
H2051 C2048 0.929 . S
S2052 N2053 1.613 . S
S2052 N2054 1.610 . S
N2053 S2052 1.613 . S
N2053 C2056 1.350 . S
N2054 S2052 1.610 . S
N2054 C2055 1.351 . S
C2055 C2049 1.428 . S
C2055 N2054 1.351 . S
C2055 C2056 1.434 . S
C2056 C2047 1.429 . S
C2056 N2053 1.350 . S
C2056 C2055 1.434 . S
C2057 C2058 1.369 . S
C2057 C2059 1.419 . S
C2057 H2061 0.930 . S
C2058 C2057 1.369 . S
C2058 C2067 1.429 . S
C2059 C2057 1.419 . S
C2059 C2060 1.363 . S
C2059 H2062 0.929 . S
C2060 C2059 1.363 . S
C2060 C2066 1.428 . S
H2061 C2057 0.930 . S
H2062 C2059 0.929 . S
S2063 N2064 1.613 . S
S2063 N2065 1.610 . S
N2064 S2063 1.613 . S
N2064 C2067 1.350 . S
N2065 S2063 1.610 . S
N2065 C2066 1.351 . S
C2066 C2060 1.428 . S
C2066 N2065 1.351 . S
C2066 C2067 1.434 . S
C2067 C2058 1.429 . S
C2067 N2064 1.350 . S
C2067 C2066 1.434 . S
C2068 C2069 1.369 . S
C2068 C2070 1.419 . S
C2068 H2072 0.930 . S
C2069 C2068 1.369 . S
C2069 C2078 1.429 . S
C2070 C2068 1.419 . S
C2070 C2071 1.363 . S
C2070 H2073 0.929 . S
C2071 C2070 1.363 . S
C2071 C2077 1.428 . S
H2072 C2068 0.930 . S
H2073 C2070 0.929 . S
S2074 N2075 1.613 . S
S2074 N2076 1.610 . S
N2075 S2074 1.613 . S
N2075 C2078 1.350 . S
N2076 S2074 1.610 . S
N2076 C2077 1.351 . S
C2077 C2071 1.428 . S
C2077 N2076 1.351 . S
C2077 C2078 1.434 . S
C2078 C2069 1.429 . S
C2078 N2075 1.350 . S
C2078 C2077 1.434 . S
C2079 C2080 1.369 . S
C2079 C2081 1.419 . S
C2079 H2083 0.930 . S
C2080 C2079 1.369 . S
C2080 C2089 1.429 . S
C2081 C2079 1.419 . S
C2081 C2082 1.363 . S
C2081 H2084 0.929 . S
C2082 C2081 1.363 . S
C2082 C2088 1.428 . S
H2083 C2079 0.930 . S
H2084 C2081 0.929 . S
S2085 N2086 1.613 . S
S2085 N2087 1.610 . S
N2086 S2085 1.613 . S
N2086 C2089 1.350 . S
N2087 S2085 1.610 . S
N2087 C2088 1.351 . S
C2088 C2082 1.428 . S
C2088 N2087 1.351 . S
C2088 C2089 1.434 . S
C2089 C2080 1.429 . S
C2089 N2086 1.350 . S
C2089 C2088 1.434 . S
C2090 C2091 1.369 . S
C2090 C2092 1.419 . S
C2090 H2094 0.930 . S
C2091 C2090 1.369 . S
C2091 C2100 1.429 . S
C2092 C2090 1.419 . S
C2092 C2093 1.363 . S
C2092 H2095 0.929 . S
C2093 C2092 1.363 . S
C2093 C2099 1.428 . S
H2094 C2090 0.930 . S
H2095 C2092 0.929 . S
S2096 N2097 1.613 . S
S2096 N2098 1.610 . S
N2097 S2096 1.613 . S
N2097 C2100 1.350 . S
N2098 S2096 1.610 . S
N2098 C2099 1.351 . S
C2099 C2093 1.428 . S
C2099 N2098 1.351 . S
C2099 C2100 1.434 . S
C2100 C2091 1.429 . S
C2100 N2097 1.350 . S
C2100 C2099 1.434 . S
C2101 C2102 1.369 . S
C2101 C2103 1.419 . S
C2101 H2105 0.930 . S
C2102 C2101 1.369 . S
C2102 C2111 1.429 . S
C2103 C2101 1.419 . S
C2103 C2104 1.363 . S
C2103 H2106 0.929 . S
C2104 C2103 1.363 . S
C2104 C2110 1.428 . S
H2105 C2101 0.930 . S
H2106 C2103 0.929 . S
S2107 N2108 1.613 . S
S2107 N2109 1.610 . S
N2108 S2107 1.613 . S
N2108 C2111 1.350 . S
N2109 S2107 1.610 . S
N2109 C2110 1.351 . S
C2110 C2104 1.428 . S
C2110 N2109 1.351 . S
C2110 C2111 1.434 . S
C2111 C2102 1.429 . S
C2111 N2108 1.350 . S
C2111 C2110 1.434 . S
C2112 C2113 1.369 . S
C2112 C2114 1.419 . S
C2112 H2116 0.930 . S
C2113 C2112 1.369 . S
C2113 C2122 1.429 . S
C2114 C2112 1.419 . S
C2114 C2115 1.363 . S
C2114 H2117 0.929 . S
C2115 C2114 1.363 . S
C2115 C2121 1.428 . S
H2116 C2112 0.930 . S
H2117 C2114 0.929 . S
S2118 N2119 1.613 . S
S2118 N2120 1.610 . S
N2119 S2118 1.613 . S
N2119 C2122 1.350 . S
N2120 S2118 1.610 . S
N2120 C2121 1.351 . S
C2121 C2115 1.428 . S
C2121 N2120 1.351 . S
C2121 C2122 1.434 . S
C2122 C2113 1.429 . S
C2122 N2119 1.350 . S
C2122 C2121 1.434 . S
C2123 C2124 1.369 . S
C2123 C2125 1.419 . S
C2123 H2127 0.930 . S
C2124 C2123 1.369 . S
C2124 C2133 1.429 . S
C2125 C2123 1.419 . S
C2125 C2126 1.363 . S
C2125 H2128 0.929 . S
C2126 C2125 1.363 . S
C2126 C2132 1.428 . S
H2127 C2123 0.930 . S
H2128 C2125 0.929 . S
S2129 N2130 1.613 . S
S2129 N2131 1.610 . S
N2130 S2129 1.613 . S
N2130 C2133 1.350 . S
N2131 S2129 1.610 . S
N2131 C2132 1.351 . S
C2132 C2126 1.428 . S
C2132 N2131 1.351 . S
C2132 C2133 1.434 . S
C2133 C2124 1.429 . S
C2133 N2130 1.350 . S
C2133 C2132 1.434 . S
C2134 C2135 1.369 . S
C2134 C2136 1.419 . S
C2134 H2138 0.930 . S
C2135 C2134 1.369 . S
C2135 C2144 1.429 . S
C2136 C2134 1.419 . S
C2136 C2137 1.363 . S
C2136 H2139 0.929 . S
C2137 C2136 1.363 . S
C2137 C2143 1.428 . S
H2138 C2134 0.930 . S
H2139 C2136 0.929 . S
S2140 N2141 1.613 . S
S2140 N2142 1.610 . S
N2141 S2140 1.613 . S
N2141 C2144 1.350 . S
N2142 S2140 1.610 . S
N2142 C2143 1.351 . S
C2143 C2137 1.428 . S
C2143 N2142 1.351 . S
C2143 C2144 1.434 . S
C2144 C2135 1.429 . S
C2144 N2141 1.350 . S
C2144 C2143 1.434 . S
C2145 C2146 1.369 . S
C2145 C2147 1.419 . S
C2145 H2149 0.930 . S
C2146 C2145 1.369 . S
C2146 C2155 1.429 . S
C2147 C2145 1.419 . S
C2147 C2148 1.363 . S
C2147 H2150 0.929 . S
C2148 C2147 1.363 . S
C2148 C2154 1.428 . S
H2149 C2145 0.930 . S
H2150 C2147 0.929 . S
S2151 N2152 1.613 . S
S2151 N2153 1.610 . S
N2152 S2151 1.613 . S
N2152 C2155 1.350 . S
N2153 S2151 1.610 . S
N2153 C2154 1.351 . S
C2154 C2148 1.428 . S
C2154 N2153 1.351 . S
C2154 C2155 1.434 . S
C2155 C2146 1.429 . S
C2155 N2152 1.350 . S
C2155 C2154 1.434 . S
C2156 C2157 1.369 . S
C2156 C2158 1.419 . S
C2156 H2160 0.930 . S
C2157 C2156 1.369 . S
C2157 C2166 1.429 . S
C2158 C2156 1.419 . S
C2158 C2159 1.363 . S
C2158 H2161 0.929 . S
C2159 C2158 1.363 . S
C2159 C2165 1.428 . S
H2160 C2156 0.930 . S
H2161 C2158 0.929 . S
S2162 N2163 1.613 . S
S2162 N2164 1.610 . S
N2163 S2162 1.613 . S
N2163 C2166 1.350 . S
N2164 S2162 1.610 . S
N2164 C2165 1.351 . S
C2165 C2159 1.428 . S
C2165 N2164 1.351 . S
C2165 C2166 1.434 . S
C2166 C2157 1.429 . S
C2166 N2163 1.350 . S
C2166 C2165 1.434 . S
C2167 C2168 1.369 . S
C2167 C2169 1.419 . S
C2167 H2171 0.930 . S
C2168 C2167 1.369 . S
C2168 C2177 1.429 . S
C2169 C2167 1.419 . S
C2169 C2170 1.363 . S
C2169 H2172 0.929 . S
C2170 C2169 1.363 . S
C2170 C2176 1.428 . S
H2171 C2167 0.930 . S
H2172 C2169 0.929 . S
S2173 N2174 1.613 . S
S2173 N2175 1.610 . S
N2174 S2173 1.613 . S
N2174 C2177 1.350 . S
N2175 S2173 1.610 . S
N2175 C2176 1.351 . S
C2176 C2170 1.428 . S
C2176 N2175 1.351 . S
C2176 C2177 1.434 . S
C2177 C2168 1.429 . S
C2177 N2174 1.350 . S
C2177 C2176 1.434 . S
C2178 C2179 1.369 . S
C2178 C2180 1.419 . S
C2178 H2182 0.930 . S
C2179 C2178 1.369 . S
C2179 C2188 1.429 . S
C2180 C2178 1.419 . S
C2180 C2181 1.363 . S
C2180 H2183 0.929 . S
C2181 C2180 1.363 . S
C2181 C2187 1.428 . S
H2182 C2178 0.930 . S
H2183 C2180 0.929 . S
S2184 N2185 1.613 . S
S2184 N2186 1.610 . S
N2185 S2184 1.613 . S
N2185 C2188 1.350 . S
N2186 S2184 1.610 . S
N2186 C2187 1.351 . S
C2187 C2181 1.428 . S
C2187 N2186 1.351 . S
C2187 C2188 1.434 . S
C2188 C2179 1.429 . S
C2188 N2185 1.350 . S
C2188 C2187 1.434 . S
C2189 C2190 1.369 . S
C2189 C2191 1.419 . S
C2189 H2193 0.930 . S
C2190 C2189 1.369 . S
C2190 C2199 1.429 . S
C2191 C2189 1.419 . S
C2191 C2192 1.363 . S
C2191 H2194 0.929 . S
C2192 C2191 1.363 . S
C2192 C2198 1.428 . S
H2193 C2189 0.930 . S
H2194 C2191 0.929 . S
S2195 N2196 1.613 . S
S2195 N2197 1.610 . S
N2196 S2195 1.613 . S
N2196 C2199 1.350 . S
N2197 S2195 1.610 . S
N2197 C2198 1.351 . S
C2198 C2192 1.428 . S
C2198 N2197 1.351 . S
C2198 C2199 1.434 . S
C2199 C2190 1.429 . S
C2199 N2196 1.350 . S
C2199 C2198 1.434 . S
C2200 C2201 1.369 . S
C2200 C2202 1.419 . S
C2200 H2204 0.930 . S
C2201 C2200 1.369 . S
C2201 C2210 1.429 . S
C2202 C2200 1.419 . S
C2202 C2203 1.363 . S
C2202 H2205 0.929 . S
C2203 C2202 1.363 . S
C2203 C2209 1.428 . S
H2204 C2200 0.930 . S
H2205 C2202 0.929 . S
S2206 N2207 1.613 . S
S2206 N2208 1.610 . S
N2207 S2206 1.613 . S
N2207 C2210 1.350 . S
N2208 S2206 1.610 . S
N2208 C2209 1.351 . S
C2209 C2203 1.428 . S
C2209 N2208 1.351 . S
C2209 C2210 1.434 . S
C2210 C2201 1.429 . S
C2210 N2207 1.350 . S
C2210 C2209 1.434 . S
C2211 C2212 1.369 . S
C2211 C2213 1.419 . S
C2211 H2215 0.930 . S
C2212 C2211 1.369 . S
C2212 C2221 1.429 . S
C2213 C2211 1.419 . S
C2213 C2214 1.363 . S
C2213 H2216 0.929 . S
C2214 C2213 1.363 . S
C2214 C2220 1.428 . S
H2215 C2211 0.930 . S
H2216 C2213 0.929 . S
S2217 N2218 1.613 . S
S2217 N2219 1.610 . S
N2218 S2217 1.613 . S
N2218 C2221 1.350 . S
N2219 S2217 1.610 . S
N2219 C2220 1.351 . S
C2220 C2214 1.428 . S
C2220 N2219 1.351 . S
C2220 C2221 1.434 . S
C2221 C2212 1.429 . S
C2221 N2218 1.350 . S
C2221 C2220 1.434 . S
C2222 C2223 1.369 . S
C2222 C2224 1.419 . S
C2222 H2226 0.930 . S
C2223 C2222 1.369 . S
C2223 C2232 1.429 . S
C2224 C2222 1.419 . S
C2224 C2225 1.363 . S
C2224 H2227 0.929 . S
C2225 C2224 1.363 . S
C2225 C2231 1.428 . S
H2226 C2222 0.930 . S
H2227 C2224 0.929 . S
S2228 N2229 1.613 . S
S2228 N2230 1.610 . S
N2229 S2228 1.613 . S
N2229 C2232 1.350 . S
N2230 S2228 1.610 . S
N2230 C2231 1.351 . S
C2231 C2225 1.428 . S
C2231 N2230 1.351 . S
C2231 C2232 1.434 . S
C2232 C2223 1.429 . S
C2232 N2229 1.350 . S
C2232 C2231 1.434 . S
C2233 C2234 1.369 . S
C2233 C2235 1.419 . S
C2233 H2237 0.930 . S
C2234 C2233 1.369 . S
C2234 C2243 1.429 . S
C2235 C2233 1.419 . S
C2235 C2236 1.363 . S
C2235 H2238 0.929 . S
C2236 C2235 1.363 . S
C2236 C2242 1.428 . S
H2237 C2233 0.930 . S
H2238 C2235 0.929 . S
S2239 N2240 1.613 . S
S2239 N2241 1.610 . S
N2240 S2239 1.613 . S
N2240 C2243 1.350 . S
N2241 S2239 1.610 . S
N2241 C2242 1.351 . S
C2242 C2236 1.428 . S
C2242 N2241 1.351 . S
C2242 C2243 1.434 . S
C2243 C2234 1.429 . S
C2243 N2240 1.350 . S
C2243 C2242 1.434 . S
C2244 C2245 1.369 . S
C2244 C2246 1.419 . S
C2244 H2248 0.930 . S
C2245 C2244 1.369 . S
C2245 C2254 1.429 . S
C2246 C2244 1.419 . S
C2246 C2247 1.363 . S
C2246 H2249 0.929 . S
C2247 C2246 1.363 . S
C2247 C2253 1.428 . S
H2248 C2244 0.930 . S
H2249 C2246 0.929 . S
S2250 N2251 1.613 . S
S2250 N2252 1.610 . S
N2251 S2250 1.613 . S
N2251 C2254 1.350 . S
N2252 S2250 1.610 . S
N2252 C2253 1.351 . S
C2253 C2247 1.428 . S
C2253 N2252 1.351 . S
C2253 C2254 1.434 . S
C2254 C2245 1.429 . S
C2254 N2251 1.350 . S
C2254 C2253 1.434 . S
C2255 C2256 1.369 . S
C2255 C2257 1.419 . S
C2255 H2259 0.930 . S
C2256 C2255 1.369 . S
C2256 C2265 1.429 . S
C2257 C2255 1.419 . S
C2257 C2258 1.363 . S
C2257 H2260 0.929 . S
C2258 C2257 1.363 . S
C2258 C2264 1.428 . S
H2259 C2255 0.930 . S
H2260 C2257 0.929 . S
S2261 N2262 1.613 . S
S2261 N2263 1.610 . S
N2262 S2261 1.613 . S
N2262 C2265 1.350 . S
N2263 S2261 1.610 . S
N2263 C2264 1.351 . S
C2264 C2258 1.428 . S
C2264 N2263 1.351 . S
C2264 C2265 1.434 . S
C2265 C2256 1.429 . S
C2265 N2262 1.350 . S
C2265 C2264 1.434 . S
C2266 C2267 1.369 . S
C2266 C2268 1.419 . S
C2266 H2270 0.930 . S
C2267 C2266 1.369 . S
C2267 C2276 1.429 . S
C2268 C2266 1.419 . S
C2268 C2269 1.363 . S
C2268 H2271 0.929 . S
C2269 C2268 1.363 . S
C2269 C2275 1.428 . S
H2270 C2266 0.930 . S
H2271 C2268 0.929 . S
S2272 N2273 1.613 . S
S2272 N2274 1.610 . S
N2273 S2272 1.613 . S
N2273 C2276 1.350 . S
N2274 S2272 1.610 . S
N2274 C2275 1.351 . S
C2275 C2269 1.428 . S
C2275 N2274 1.351 . S
C2275 C2276 1.434 . S
C2276 C2267 1.429 . S
C2276 N2273 1.350 . S
C2276 C2275 1.434 . S
C2277 C2278 1.369 . S
C2277 C2279 1.419 . S
C2277 H2281 0.930 . S
C2278 C2277 1.369 . S
C2278 C2287 1.429 . S
C2279 C2277 1.419 . S
C2279 C2280 1.363 . S
C2279 H2282 0.929 . S
C2280 C2279 1.363 . S
C2280 C2286 1.428 . S
H2281 C2277 0.930 . S
H2282 C2279 0.929 . S
S2283 N2284 1.613 . S
S2283 N2285 1.610 . S
N2284 S2283 1.613 . S
N2284 C2287 1.350 . S
N2285 S2283 1.610 . S
N2285 C2286 1.351 . S
C2286 C2280 1.428 . S
C2286 N2285 1.351 . S
C2286 C2287 1.434 . S
C2287 C2278 1.429 . S
C2287 N2284 1.350 . S
C2287 C2286 1.434 . S
C2288 C2289 1.369 . S
C2288 C2290 1.419 . S
C2288 H2292 0.930 . S
C2289 C2288 1.369 . S
C2289 C2298 1.429 . S
C2290 C2288 1.419 . S
C2290 C2291 1.363 . S
C2290 H2293 0.929 . S
C2291 C2290 1.363 . S
C2291 C2297 1.428 . S
H2292 C2288 0.930 . S
H2293 C2290 0.929 . S
S2294 N2295 1.613 . S
S2294 N2296 1.610 . S
N2295 S2294 1.613 . S
N2295 C2298 1.350 . S
N2296 S2294 1.610 . S
N2296 C2297 1.351 . S
C2297 C2291 1.428 . S
C2297 N2296 1.351 . S
C2297 C2298 1.434 . S
C2298 C2289 1.429 . S
C2298 N2295 1.350 . S
C2298 C2297 1.434 . S
C2299 C2300 1.369 . S
C2299 C2301 1.419 . S
C2299 H2303 0.930 . S
C2300 C2299 1.369 . S
C2300 C2309 1.429 . S
C2301 C2299 1.419 . S
C2301 C2302 1.363 . S
C2301 H2304 0.929 . S
C2302 C2301 1.363 . S
C2302 C2308 1.428 . S
H2303 C2299 0.930 . S
H2304 C2301 0.929 . S
S2305 N2306 1.613 . S
S2305 N2307 1.610 . S
N2306 S2305 1.613 . S
N2306 C2309 1.350 . S
N2307 S2305 1.610 . S
N2307 C2308 1.351 . S
C2308 C2302 1.428 . S
C2308 N2307 1.351 . S
C2308 C2309 1.434 . S
C2309 C2300 1.429 . S
C2309 N2306 1.350 . S
C2309 C2308 1.434 . S
C2310 C2311 1.369 . S
C2310 C2312 1.419 . S
C2310 H2314 0.930 . S
C2311 C2310 1.369 . S
C2311 C2320 1.429 . S
C2312 C2310 1.419 . S
C2312 C2313 1.363 . S
C2312 H2315 0.929 . S
C2313 C2312 1.363 . S
C2313 C2319 1.428 . S
H2314 C2310 0.930 . S
H2315 C2312 0.929 . S
S2316 N2317 1.613 . S
S2316 N2318 1.610 . S
N2317 S2316 1.613 . S
N2317 C2320 1.350 . S
N2318 S2316 1.610 . S
N2318 C2319 1.351 . S
C2319 C2313 1.428 . S
C2319 N2318 1.351 . S
C2319 C2320 1.434 . S
C2320 C2311 1.429 . S
C2320 N2317 1.350 . S
C2320 C2319 1.434 . S
C2321 C2322 1.369 . S
C2321 C2323 1.419 . S
C2321 H2325 0.930 . S
C2322 C2321 1.369 . S
C2322 C2331 1.429 . S
C2323 C2321 1.419 . S
C2323 C2324 1.363 . S
C2323 H2326 0.929 . S
C2324 C2323 1.363 . S
C2324 C2330 1.428 . S
H2325 C2321 0.930 . S
H2326 C2323 0.929 . S
S2327 N2328 1.613 . S
S2327 N2329 1.610 . S
N2328 S2327 1.613 . S
N2328 C2331 1.350 . S
N2329 S2327 1.610 . S
N2329 C2330 1.351 . S
C2330 C2324 1.428 . S
C2330 N2329 1.351 . S
C2330 C2331 1.434 . S
C2331 C2322 1.429 . S
C2331 N2328 1.350 . S
C2331 C2330 1.434 . S
C2332 C2333 1.369 . S
C2332 C2334 1.419 . S
C2332 H2336 0.930 . S
C2333 C2332 1.369 . S
C2333 C2342 1.429 . S
C2334 C2332 1.419 . S
C2334 C2335 1.363 . S
C2334 H2337 0.929 . S
C2335 C2334 1.363 . S
C2335 C2341 1.428 . S
H2336 C2332 0.930 . S
H2337 C2334 0.929 . S
S2338 N2339 1.613 . S
S2338 N2340 1.610 . S
N2339 S2338 1.613 . S
N2339 C2342 1.350 . S
N2340 S2338 1.610 . S
N2340 C2341 1.351 . S
C2341 C2335 1.428 . S
C2341 N2340 1.351 . S
C2341 C2342 1.434 . S
C2342 C2333 1.429 . S
C2342 N2339 1.350 . S
C2342 C2341 1.434 . S
C2343 C2344 1.369 . S
C2343 C2345 1.419 . S
C2343 H2347 0.930 . S
C2344 C2343 1.369 . S
C2344 C2353 1.429 . S
C2345 C2343 1.419 . S
C2345 C2346 1.363 . S
C2345 H2348 0.929 . S
C2346 C2345 1.363 . S
C2346 C2352 1.428 . S
H2347 C2343 0.930 . S
H2348 C2345 0.929 . S
S2349 N2350 1.613 . S
S2349 N2351 1.610 . S
N2350 S2349 1.613 . S
N2350 C2353 1.350 . S
N2351 S2349 1.610 . S
N2351 C2352 1.351 . S
C2352 C2346 1.428 . S
C2352 N2351 1.351 . S
C2352 C2353 1.434 . S
C2353 C2344 1.429 . S
C2353 N2350 1.350 . S
C2353 C2352 1.434 . S
C2354 C2355 1.369 . S
C2354 C2356 1.419 . S
C2354 H2358 0.930 . S
C2355 C2354 1.369 . S
C2355 C2364 1.429 . S
C2356 C2354 1.419 . S
C2356 C2357 1.363 . S
C2356 H2359 0.929 . S
C2357 C2356 1.363 . S
C2357 C2363 1.428 . S
H2358 C2354 0.930 . S
H2359 C2356 0.929 . S
S2360 N2361 1.613 . S
S2360 N2362 1.610 . S
N2361 S2360 1.613 . S
N2361 C2364 1.350 . S
N2362 S2360 1.610 . S
N2362 C2363 1.351 . S
C2363 C2357 1.428 . S
C2363 N2362 1.351 . S
C2363 C2364 1.434 . S
C2364 C2355 1.429 . S
C2364 N2361 1.350 . S
C2364 C2363 1.434 . S
C2365 C2366 1.369 . S
C2365 C2367 1.419 . S
C2365 H2369 0.930 . S
C2366 C2365 1.369 . S
C2366 C2375 1.429 . S
C2367 C2365 1.419 . S
C2367 C2368 1.363 . S
C2367 H2370 0.929 . S
C2368 C2367 1.363 . S
C2368 C2374 1.428 . S
H2369 C2365 0.930 . S
H2370 C2367 0.929 . S
S2371 N2372 1.613 . S
S2371 N2373 1.610 . S
N2372 S2371 1.613 . S
N2372 C2375 1.350 . S
N2373 S2371 1.610 . S
N2373 C2374 1.351 . S
C2374 C2368 1.428 . S
C2374 N2373 1.351 . S
C2374 C2375 1.434 . S
C2375 C2366 1.429 . S
C2375 N2372 1.350 . S
C2375 C2374 1.434 . S
C2376 C2377 1.369 . S
C2376 C2378 1.419 . S
C2376 H2380 0.930 . S
C2377 C2376 1.369 . S
C2377 C2386 1.429 . S
C2378 C2376 1.419 . S
C2378 C2379 1.363 . S
C2378 H2381 0.929 . S
C2379 C2378 1.363 . S
C2379 C2385 1.428 . S
H2380 C2376 0.930 . S
H2381 C2378 0.929 . S
S2382 N2383 1.613 . S
S2382 N2384 1.610 . S
N2383 S2382 1.613 . S
N2383 C2386 1.350 . S
N2384 S2382 1.610 . S
N2384 C2385 1.351 . S
C2385 C2379 1.428 . S
C2385 N2384 1.351 . S
C2385 C2386 1.434 . S
C2386 C2377 1.429 . S
C2386 N2383 1.350 . S
C2386 C2385 1.434 . S
C2387 C2388 1.369 . S
C2387 C2389 1.419 . S
C2387 H2391 0.930 . S
C2388 C2387 1.369 . S
C2388 C2397 1.429 . S
C2389 C2387 1.419 . S
C2389 C2390 1.363 . S
C2389 H2392 0.929 . S
C2390 C2389 1.363 . S
C2390 C2396 1.428 . S
H2391 C2387 0.930 . S
H2392 C2389 0.929 . S
S2393 N2394 1.613 . S
S2393 N2395 1.610 . S
N2394 S2393 1.613 . S
N2394 C2397 1.350 . S
N2395 S2393 1.610 . S
N2395 C2396 1.351 . S
C2396 C2390 1.428 . S
C2396 N2395 1.351 . S
C2396 C2397 1.434 . S
C2397 C2388 1.429 . S
C2397 N2394 1.350 . S
C2397 C2396 1.434 . S
C2398 C2399 1.369 . S
C2398 C2400 1.419 . S
C2398 H2402 0.930 . S
C2399 C2398 1.369 . S
C2399 C2408 1.429 . S
C2400 C2398 1.419 . S
C2400 C2401 1.363 . S
C2400 H2403 0.929 . S
C2401 C2400 1.363 . S
C2401 C2407 1.428 . S
H2402 C2398 0.930 . S
H2403 C2400 0.929 . S
S2404 N2405 1.613 . S
S2404 N2406 1.610 . S
N2405 S2404 1.613 . S
N2405 C2408 1.350 . S
N2406 S2404 1.610 . S
N2406 C2407 1.351 . S
C2407 C2401 1.428 . S
C2407 N2406 1.351 . S
C2407 C2408 1.434 . S
C2408 C2399 1.429 . S
C2408 N2405 1.350 . S
C2408 C2407 1.434 . S
C2409 C2410 1.369 . S
C2409 C2411 1.419 . S
C2409 H2413 0.930 . S
C2410 C2409 1.369 . S
C2410 C2419 1.429 . S
C2411 C2409 1.419 . S
C2411 C2412 1.363 . S
C2411 H2414 0.929 . S
C2412 C2411 1.363 . S
C2412 C2418 1.428 . S
H2413 C2409 0.930 . S
H2414 C2411 0.929 . S
S2415 N2416 1.613 . S
S2415 N2417 1.610 . S
N2416 S2415 1.613 . S
N2416 C2419 1.350 . S
N2417 S2415 1.610 . S
N2417 C2418 1.351 . S
C2418 C2412 1.428 . S
C2418 N2417 1.351 . S
C2418 C2419 1.434 . S
C2419 C2410 1.429 . S
C2419 N2416 1.350 . S
C2419 C2418 1.434 . S
C2420 C2421 1.369 . S
C2420 C2422 1.419 . S
C2420 H2424 0.930 . S
C2421 C2420 1.369 . S
C2421 C2430 1.429 . S
C2422 C2420 1.419 . S
C2422 C2423 1.363 . S
C2422 H2425 0.929 . S
C2423 C2422 1.363 . S
C2423 C2429 1.428 . S
H2424 C2420 0.930 . S
H2425 C2422 0.929 . S
S2426 N2427 1.613 . S
S2426 N2428 1.610 . S
N2427 S2426 1.613 . S
N2427 C2430 1.350 . S
N2428 S2426 1.610 . S
N2428 C2429 1.351 . S
C2429 C2423 1.428 . S
C2429 N2428 1.351 . S
C2429 C2430 1.434 . S
C2430 C2421 1.429 . S
C2430 N2427 1.350 . S
C2430 C2429 1.434 . S
C2431 C2432 1.369 . S
C2431 C2433 1.419 . S
C2431 H2435 0.930 . S
C2432 C2431 1.369 . S
C2432 C2441 1.429 . S
C2433 C2431 1.419 . S
C2433 C2434 1.363 . S
C2433 H2436 0.929 . S
C2434 C2433 1.363 . S
C2434 C2440 1.428 . S
H2435 C2431 0.930 . S
H2436 C2433 0.929 . S
S2437 N2438 1.613 . S
S2437 N2439 1.610 . S
N2438 S2437 1.613 . S
N2438 C2441 1.350 . S
N2439 S2437 1.610 . S
N2439 C2440 1.351 . S
C2440 C2434 1.428 . S
C2440 N2439 1.351 . S
C2440 C2441 1.434 . S
C2441 C2432 1.429 . S
C2441 N2438 1.350 . S
C2441 C2440 1.434 . S
C2442 C2443 1.369 . S
C2442 C2444 1.419 . S
C2442 H2446 0.930 . S
C2443 C2442 1.369 . S
C2443 C2452 1.429 . S
C2444 C2442 1.419 . S
C2444 C2445 1.363 . S
C2444 H2447 0.929 . S
C2445 C2444 1.363 . S
C2445 C2451 1.428 . S
H2446 C2442 0.930 . S
H2447 C2444 0.929 . S
S2448 N2449 1.613 . S
S2448 N2450 1.610 . S
N2449 S2448 1.613 . S
N2449 C2452 1.350 . S
N2450 S2448 1.610 . S
N2450 C2451 1.351 . S
C2451 C2445 1.428 . S
C2451 N2450 1.351 . S
C2451 C2452 1.434 . S
C2452 C2443 1.429 . S
C2452 N2449 1.350 . S
C2452 C2451 1.434 . S
C2453 C2454 1.369 . S
C2453 C2455 1.419 . S
C2453 H2457 0.930 . S
C2454 C2453 1.369 . S
C2454 C2463 1.429 . S
C2455 C2453 1.419 . S
C2455 C2456 1.363 . S
C2455 H2458 0.929 . S
C2456 C2455 1.363 . S
C2456 C2462 1.428 . S
H2457 C2453 0.930 . S
H2458 C2455 0.929 . S
S2459 N2460 1.613 . S
S2459 N2461 1.610 . S
N2460 S2459 1.613 . S
N2460 C2463 1.350 . S
N2461 S2459 1.610 . S
N2461 C2462 1.351 . S
C2462 C2456 1.428 . S
C2462 N2461 1.351 . S
C2462 C2463 1.434 . S
C2463 C2454 1.429 . S
C2463 N2460 1.350 . S
C2463 C2462 1.434 . S
C2464 C2465 1.369 . S
C2464 C2466 1.419 . S
C2464 H2468 0.930 . S
C2465 C2464 1.369 . S
C2465 C2474 1.429 . S
C2466 C2464 1.419 . S
C2466 C2467 1.363 . S
C2466 H2469 0.929 . S
C2467 C2466 1.363 . S
C2467 C2473 1.428 . S
H2468 C2464 0.930 . S
H2469 C2466 0.929 . S
S2470 N2471 1.613 . S
S2470 N2472 1.610 . S
N2471 S2470 1.613 . S
N2471 C2474 1.350 . S
N2472 S2470 1.610 . S
N2472 C2473 1.351 . S
C2473 C2467 1.428 . S
C2473 N2472 1.351 . S
C2473 C2474 1.434 . S
C2474 C2465 1.429 . S
C2474 N2471 1.350 . S
C2474 C2473 1.434 . S
C2475 C2476 1.369 . S
C2475 C2477 1.419 . S
C2475 H2479 0.930 . S
C2476 C2475 1.369 . S
C2476 C2485 1.429 . S
C2477 C2475 1.419 . S
C2477 C2478 1.363 . S
C2477 H2480 0.929 . S
C2478 C2477 1.363 . S
C2478 C2484 1.428 . S
H2479 C2475 0.930 . S
H2480 C2477 0.929 . S
S2481 N2482 1.613 . S
S2481 N2483 1.610 . S
N2482 S2481 1.613 . S
N2482 C2485 1.350 . S
N2483 S2481 1.610 . S
N2483 C2484 1.351 . S
C2484 C2478 1.428 . S
C2484 N2483 1.351 . S
C2484 C2485 1.434 . S
C2485 C2476 1.429 . S
C2485 N2482 1.350 . S
C2485 C2484 1.434 . S
C2486 C2487 1.369 . S
C2486 C2488 1.419 . S
C2486 H2490 0.930 . S
C2487 C2486 1.369 . S
C2487 C2496 1.429 . S
C2488 C2486 1.419 . S
C2488 C2489 1.363 . S
C2488 H2491 0.929 . S
C2489 C2488 1.363 . S
C2489 C2495 1.428 . S
H2490 C2486 0.930 . S
H2491 C2488 0.929 . S
S2492 N2493 1.613 . S
S2492 N2494 1.610 . S
N2493 S2492 1.613 . S
N2493 C2496 1.350 . S
N2494 S2492 1.610 . S
N2494 C2495 1.351 . S
C2495 C2489 1.428 . S
C2495 N2494 1.351 . S
C2495 C2496 1.434 . S
C2496 C2487 1.429 . S
C2496 N2493 1.350 . S
C2496 C2495 1.434 . S
C2497 C2498 1.369 . S
C2497 C2499 1.419 . S
C2497 H2501 0.930 . S
C2498 C2497 1.369 . S
C2498 C2507 1.429 . S
C2499 C2497 1.419 . S
C2499 C2500 1.363 . S
C2499 H2502 0.929 . S
C2500 C2499 1.363 . S
C2500 C2506 1.428 . S
H2501 C2497 0.930 . S
H2502 C2499 0.929 . S
S2503 N2504 1.613 . S
S2503 N2505 1.610 . S
N2504 S2503 1.613 . S
N2504 C2507 1.350 . S
N2505 S2503 1.610 . S
N2505 C2506 1.351 . S
C2506 C2500 1.428 . S
C2506 N2505 1.351 . S
C2506 C2507 1.434 . S
C2507 C2498 1.429 . S
C2507 N2504 1.350 . S
C2507 C2506 1.434 . S
C2508 C2509 1.369 . S
C2508 C2510 1.419 . S
C2508 H2512 0.930 . S
C2509 C2508 1.369 . S
C2509 C2518 1.429 . S
C2510 C2508 1.419 . S
C2510 C2511 1.363 . S
C2510 H2513 0.929 . S
C2511 C2510 1.363 . S
C2511 C2517 1.428 . S
H2512 C2508 0.930 . S
H2513 C2510 0.929 . S
S2514 N2515 1.613 . S
S2514 N2516 1.610 . S
N2515 S2514 1.613 . S
N2515 C2518 1.350 . S
N2516 S2514 1.610 . S
N2516 C2517 1.351 . S
C2517 C2511 1.428 . S
C2517 N2516 1.351 . S
C2517 C2518 1.434 . S
C2518 C2509 1.429 . S
C2518 N2515 1.350 . S
C2518 C2517 1.434 . S
C2519 C2520 1.369 . S
C2519 C2521 1.419 . S
C2519 H2523 0.930 . S
C2520 C2519 1.369 . S
C2520 C2529 1.429 . S
C2521 C2519 1.419 . S
C2521 C2522 1.363 . S
C2521 H2524 0.929 . S
C2522 C2521 1.363 . S
C2522 C2528 1.428 . S
H2523 C2519 0.930 . S
H2524 C2521 0.929 . S
S2525 N2526 1.613 . S
S2525 N2527 1.610 . S
N2526 S2525 1.613 . S
N2526 C2529 1.350 . S
N2527 S2525 1.610 . S
N2527 C2528 1.351 . S
C2528 C2522 1.428 . S
C2528 N2527 1.351 . S
C2528 C2529 1.434 . S
C2529 C2520 1.429 . S
C2529 N2526 1.350 . S
C2529 C2528 1.434 . S
C2530 C2531 1.369 . S
C2530 C2532 1.419 . S
C2530 H2534 0.930 . S
C2531 C2530 1.369 . S
C2531 C2540 1.429 . S
C2532 C2530 1.419 . S
C2532 C2533 1.363 . S
C2532 H2535 0.929 . S
C2533 C2532 1.363 . S
C2533 C2539 1.428 . S
H2534 C2530 0.930 . S
H2535 C2532 0.929 . S
S2536 N2537 1.613 . S
S2536 N2538 1.610 . S
N2537 S2536 1.613 . S
N2537 C2540 1.350 . S
N2538 S2536 1.610 . S
N2538 C2539 1.351 . S
C2539 C2533 1.428 . S
C2539 N2538 1.351 . S
C2539 C2540 1.434 . S
C2540 C2531 1.429 . S
C2540 N2537 1.350 . S
C2540 C2539 1.434 . S
C2541 C2542 1.369 . S
C2541 C2543 1.419 . S
C2541 H2545 0.930 . S
C2542 C2541 1.369 . S
C2542 C2551 1.429 . S
C2543 C2541 1.419 . S
C2543 C2544 1.363 . S
C2543 H2546 0.929 . S
C2544 C2543 1.363 . S
C2544 C2550 1.428 . S
H2545 C2541 0.930 . S
H2546 C2543 0.929 . S
S2547 N2548 1.613 . S
S2547 N2549 1.610 . S
N2548 S2547 1.613 . S
N2548 C2551 1.350 . S
N2549 S2547 1.610 . S
N2549 C2550 1.351 . S
C2550 C2544 1.428 . S
C2550 N2549 1.351 . S
C2550 C2551 1.434 . S
C2551 C2542 1.429 . S
C2551 N2548 1.350 . S
C2551 C2550 1.434 . S
C2552 C2553 1.369 . S
C2552 C2554 1.419 . S
C2552 H2556 0.930 . S
C2553 C2552 1.369 . S
C2553 C2562 1.429 . S
C2554 C2552 1.419 . S
C2554 C2555 1.363 . S
C2554 H2557 0.929 . S
C2555 C2554 1.363 . S
C2555 C2561 1.428 . S
H2556 C2552 0.930 . S
H2557 C2554 0.929 . S
S2558 N2559 1.613 . S
S2558 N2560 1.610 . S
N2559 S2558 1.613 . S
N2559 C2562 1.350 . S
N2560 S2558 1.610 . S
N2560 C2561 1.351 . S
C2561 C2555 1.428 . S
C2561 N2560 1.351 . S
C2561 C2562 1.434 . S
C2562 C2553 1.429 . S
C2562 N2559 1.350 . S
C2562 C2561 1.434 . S
C2563 C2564 1.369 . S
C2563 C2565 1.419 . S
C2563 H2567 0.930 . S
C2564 C2563 1.369 . S
C2564 C2573 1.429 . S
C2565 C2563 1.419 . S
C2565 C2566 1.363 . S
C2565 H2568 0.929 . S
C2566 C2565 1.363 . S
C2566 C2572 1.428 . S
H2567 C2563 0.930 . S
H2568 C2565 0.929 . S
S2569 N2570 1.613 . S
S2569 N2571 1.610 . S
N2570 S2569 1.613 . S
N2570 C2573 1.350 . S
N2571 S2569 1.610 . S
N2571 C2572 1.351 . S
C2572 C2566 1.428 . S
C2572 N2571 1.351 . S
C2572 C2573 1.434 . S
C2573 C2564 1.429 . S
C2573 N2570 1.350 . S
C2573 C2572 1.434 . S
C2574 C2575 1.369 . S
C2574 C2576 1.419 . S
C2574 H2578 0.930 . S
C2575 C2574 1.369 . S
C2575 C2584 1.429 . S
C2576 C2574 1.419 . S
C2576 C2577 1.363 . S
C2576 H2579 0.929 . S
C2577 C2576 1.363 . S
C2577 C2583 1.428 . S
H2578 C2574 0.930 . S
H2579 C2576 0.929 . S
S2580 N2581 1.613 . S
S2580 N2582 1.610 . S
N2581 S2580 1.613 . S
N2581 C2584 1.350 . S
N2582 S2580 1.610 . S
N2582 C2583 1.351 . S
C2583 C2577 1.428 . S
C2583 N2582 1.351 . S
C2583 C2584 1.434 . S
C2584 C2575 1.429 . S
C2584 N2581 1.350 . S
C2584 C2583 1.434 . S
C2585 C2586 1.369 . S
C2585 C2587 1.419 . S
C2585 H2589 0.930 . S
C2586 C2585 1.369 . S
C2586 C2595 1.429 . S
C2587 C2585 1.419 . S
C2587 C2588 1.363 . S
C2587 H2590 0.929 . S
C2588 C2587 1.363 . S
C2588 C2594 1.428 . S
H2589 C2585 0.930 . S
H2590 C2587 0.929 . S
S2591 N2592 1.613 . S
S2591 N2593 1.610 . S
N2592 S2591 1.613 . S
N2592 C2595 1.350 . S
N2593 S2591 1.610 . S
N2593 C2594 1.351 . S
C2594 C2588 1.428 . S
C2594 N2593 1.351 . S
C2594 C2595 1.434 . S
C2595 C2586 1.429 . S
C2595 N2592 1.350 . S
C2595 C2594 1.434 . S
C2596 C2597 1.369 . S
C2596 C2598 1.419 . S
C2596 H2600 0.930 . S
C2597 C2596 1.369 . S
C2597 C2606 1.429 . S
C2598 C2596 1.419 . S
C2598 C2599 1.363 . S
C2598 H2601 0.929 . S
C2599 C2598 1.363 . S
C2599 C2605 1.428 . S
H2600 C2596 0.930 . S
H2601 C2598 0.929 . S
S2602 N2603 1.613 . S
S2602 N2604 1.610 . S
N2603 S2602 1.613 . S
N2603 C2606 1.350 . S
N2604 S2602 1.610 . S
N2604 C2605 1.351 . S
C2605 C2599 1.428 . S
C2605 N2604 1.351 . S
C2605 C2606 1.434 . S
C2606 C2597 1.429 . S
C2606 N2603 1.350 . S
C2606 C2605 1.434 . S
C2607 C2608 1.369 . S
C2607 C2609 1.419 . S
C2607 H2611 0.930 . S
C2608 C2607 1.369 . S
C2608 C2617 1.429 . S
C2609 C2607 1.419 . S
C2609 C2610 1.363 . S
C2609 H2612 0.929 . S
C2610 C2609 1.363 . S
C2610 C2616 1.428 . S
H2611 C2607 0.930 . S
H2612 C2609 0.929 . S
S2613 N2614 1.613 . S
S2613 N2615 1.610 . S
N2614 S2613 1.613 . S
N2614 C2617 1.350 . S
N2615 S2613 1.610 . S
N2615 C2616 1.351 . S
C2616 C2610 1.428 . S
C2616 N2615 1.351 . S
C2616 C2617 1.434 . S
C2617 C2608 1.429 . S
C2617 N2614 1.350 . S
C2617 C2616 1.434 . S
C2618 C2619 1.369 . S
C2618 C2620 1.419 . S
C2618 H2622 0.930 . S
C2619 C2618 1.369 . S
C2619 C2628 1.429 . S
C2620 C2618 1.419 . S
C2620 C2621 1.363 . S
C2620 H2623 0.929 . S
C2621 C2620 1.363 . S
C2621 C2627 1.428 . S
H2622 C2618 0.930 . S
H2623 C2620 0.929 . S
S2624 N2625 1.613 . S
S2624 N2626 1.610 . S
N2625 S2624 1.613 . S
N2625 C2628 1.350 . S
N2626 S2624 1.610 . S
N2626 C2627 1.351 . S
C2627 C2621 1.428 . S
C2627 N2626 1.351 . S
C2627 C2628 1.434 . S
C2628 C2619 1.429 . S
C2628 N2625 1.350 . S
C2628 C2627 1.434 . S
C2629 C2630 1.369 . S
C2629 C2631 1.419 . S
C2629 H2633 0.930 . S
C2630 C2629 1.369 . S
C2630 C2639 1.429 . S
C2631 C2629 1.419 . S
C2631 C2632 1.363 . S
C2631 H2634 0.929 . S
C2632 C2631 1.363 . S
C2632 C2638 1.428 . S
H2633 C2629 0.930 . S
H2634 C2631 0.929 . S
S2635 N2636 1.613 . S
S2635 N2637 1.610 . S
N2636 S2635 1.613 . S
N2636 C2639 1.350 . S
N2637 S2635 1.610 . S
N2637 C2638 1.351 . S
C2638 C2632 1.428 . S
C2638 N2637 1.351 . S
C2638 C2639 1.434 . S
C2639 C2630 1.429 . S
C2639 N2636 1.350 . S
C2639 C2638 1.434 . S
C2640 C2641 1.369 . S
C2640 C2642 1.419 . S
C2640 H2644 0.930 . S
C2641 C2640 1.369 . S
C2641 C2650 1.429 . S
C2642 C2640 1.419 . S
C2642 C2643 1.363 . S
C2642 H2645 0.929 . S
C2643 C2642 1.363 . S
C2643 C2649 1.428 . S
H2644 C2640 0.930 . S
H2645 C2642 0.929 . S
S2646 N2647 1.613 . S
S2646 N2648 1.610 . S
N2647 S2646 1.613 . S
N2647 C2650 1.350 . S
N2648 S2646 1.610 . S
N2648 C2649 1.351 . S
C2649 C2643 1.428 . S
C2649 N2648 1.351 . S
C2649 C2650 1.434 . S
C2650 C2641 1.429 . S
C2650 N2647 1.350 . S
C2650 C2649 1.434 . S
C2651 C2652 1.369 . S
C2651 C2653 1.419 . S
C2651 H2655 0.930 . S
C2652 C2651 1.369 . S
C2652 C2661 1.429 . S
C2653 C2651 1.419 . S
C2653 C2654 1.363 . S
C2653 H2656 0.929 . S
C2654 C2653 1.363 . S
C2654 C2660 1.428 . S
H2655 C2651 0.930 . S
H2656 C2653 0.929 . S
S2657 N2658 1.613 . S
S2657 N2659 1.610 . S
N2658 S2657 1.613 . S
N2658 C2661 1.350 . S
N2659 S2657 1.610 . S
N2659 C2660 1.351 . S
C2660 C2654 1.428 . S
C2660 N2659 1.351 . S
C2660 C2661 1.434 . S
C2661 C2652 1.429 . S
C2661 N2658 1.350 . S
C2661 C2660 1.434 . S
C2662 C2663 1.369 . S
C2662 C2664 1.419 . S
C2662 H2666 0.930 . S
C2663 C2662 1.369 . S
C2663 C2672 1.429 . S
C2664 C2662 1.419 . S
C2664 C2665 1.363 . S
C2664 H2667 0.929 . S
C2665 C2664 1.363 . S
C2665 C2671 1.428 . S
H2666 C2662 0.930 . S
H2667 C2664 0.929 . S
S2668 N2669 1.613 . S
S2668 N2670 1.610 . S
N2669 S2668 1.613 . S
N2669 C2672 1.350 . S
N2670 S2668 1.610 . S
N2670 C2671 1.351 . S
C2671 C2665 1.428 . S
C2671 N2670 1.351 . S
C2671 C2672 1.434 . S
C2672 C2663 1.429 . S
C2672 N2669 1.350 . S
C2672 C2671 1.434 . S
C2673 C2674 1.369 . S
C2673 C2675 1.419 . S
C2673 H2677 0.930 . S
C2674 C2673 1.369 . S
C2674 C2683 1.429 . S
C2675 C2673 1.419 . S
C2675 C2676 1.363 . S
C2675 H2678 0.929 . S
C2676 C2675 1.363 . S
C2676 C2682 1.428 . S
H2677 C2673 0.930 . S
H2678 C2675 0.929 . S
S2679 N2680 1.613 . S
S2679 N2681 1.610 . S
N2680 S2679 1.613 . S
N2680 C2683 1.350 . S
N2681 S2679 1.610 . S
N2681 C2682 1.351 . S
C2682 C2676 1.428 . S
C2682 N2681 1.351 . S
C2682 C2683 1.434 . S
C2683 C2674 1.429 . S
C2683 N2680 1.350 . S
C2683 C2682 1.434 . S
C2684 C2685 1.369 . S
C2684 C2686 1.419 . S
C2684 H2688 0.930 . S
C2685 C2684 1.369 . S
C2685 C2694 1.429 . S
C2686 C2684 1.419 . S
C2686 C2687 1.363 . S
C2686 H2689 0.929 . S
C2687 C2686 1.363 . S
C2687 C2693 1.428 . S
H2688 C2684 0.930 . S
H2689 C2686 0.929 . S
S2690 N2691 1.613 . S
S2690 N2692 1.610 . S
N2691 S2690 1.613 . S
N2691 C2694 1.350 . S
N2692 S2690 1.610 . S
N2692 C2693 1.351 . S
C2693 C2687 1.428 . S
C2693 N2692 1.351 . S
C2693 C2694 1.434 . S
C2694 C2685 1.429 . S
C2694 N2691 1.350 . S
C2694 C2693 1.434 . S
C2695 C2696 1.369 . S
C2695 C2697 1.419 . S
C2695 H2699 0.930 . S
C2696 C2695 1.369 . S
C2696 C2705 1.429 . S
C2697 C2695 1.419 . S
C2697 C2698 1.363 . S
C2697 H2700 0.929 . S
C2698 C2697 1.363 . S
C2698 C2704 1.428 . S
H2699 C2695 0.930 . S
H2700 C2697 0.929 . S
S2701 N2702 1.613 . S
S2701 N2703 1.610 . S
N2702 S2701 1.613 . S
N2702 C2705 1.350 . S
N2703 S2701 1.610 . S
N2703 C2704 1.351 . S
C2704 C2698 1.428 . S
C2704 N2703 1.351 . S
C2704 C2705 1.434 . S
C2705 C2696 1.429 . S
C2705 N2702 1.350 . S
C2705 C2704 1.434 . S
C2706 C2707 1.369 . S
C2706 C2708 1.419 . S
C2706 H2710 0.930 . S
C2707 C2706 1.369 . S
C2707 C2716 1.429 . S
C2708 C2706 1.419 . S
C2708 C2709 1.363 . S
C2708 H2711 0.929 . S
C2709 C2708 1.363 . S
C2709 C2715 1.428 . S
H2710 C2706 0.930 . S
H2711 C2708 0.929 . S
S2712 N2713 1.613 . S
S2712 N2714 1.610 . S
N2713 S2712 1.613 . S
N2713 C2716 1.350 . S
N2714 S2712 1.610 . S
N2714 C2715 1.351 . S
C2715 C2709 1.428 . S
C2715 N2714 1.351 . S
C2715 C2716 1.434 . S
C2716 C2707 1.429 . S
C2716 N2713 1.350 . S
C2716 C2715 1.434 . S
C2717 C2718 1.369 . S
C2717 C2719 1.419 . S
C2717 H2721 0.930 . S
C2718 C2717 1.369 . S
C2718 C2727 1.429 . S
C2719 C2717 1.419 . S
C2719 C2720 1.363 . S
C2719 H2722 0.929 . S
C2720 C2719 1.363 . S
C2720 C2726 1.428 . S
H2721 C2717 0.930 . S
H2722 C2719 0.929 . S
S2723 N2724 1.613 . S
S2723 N2725 1.610 . S
N2724 S2723 1.613 . S
N2724 C2727 1.350 . S
N2725 S2723 1.610 . S
N2725 C2726 1.351 . S
C2726 C2720 1.428 . S
C2726 N2725 1.351 . S
C2726 C2727 1.434 . S
C2727 C2718 1.429 . S
C2727 N2724 1.350 . S
C2727 C2726 1.434 . S
C2728 C2729 1.369 . S
C2728 C2730 1.419 . S
C2728 H2732 0.930 . S
C2729 C2728 1.369 . S
C2729 C2738 1.429 . S
C2730 C2728 1.419 . S
C2730 C2731 1.363 . S
C2730 H2733 0.929 . S
C2731 C2730 1.363 . S
C2731 C2737 1.428 . S
H2732 C2728 0.930 . S
H2733 C2730 0.929 . S
S2734 N2735 1.613 . S
S2734 N2736 1.610 . S
N2735 S2734 1.613 . S
N2735 C2738 1.350 . S
N2736 S2734 1.610 . S
N2736 C2737 1.351 . S
C2737 C2731 1.428 . S
C2737 N2736 1.351 . S
C2737 C2738 1.434 . S
C2738 C2729 1.429 . S
C2738 N2735 1.350 . S
C2738 C2737 1.434 . S
C2739 C2740 1.369 . S
C2739 C2741 1.419 . S
C2739 H2743 0.930 . S
C2740 C2739 1.369 . S
C2740 C2749 1.429 . S
C2741 C2739 1.419 . S
C2741 C2742 1.363 . S
C2741 H2744 0.929 . S
C2742 C2741 1.363 . S
C2742 C2748 1.428 . S
H2743 C2739 0.930 . S
H2744 C2741 0.929 . S
S2745 N2746 1.613 . S
S2745 N2747 1.610 . S
N2746 S2745 1.613 . S
N2746 C2749 1.350 . S
N2747 S2745 1.610 . S
N2747 C2748 1.351 . S
C2748 C2742 1.428 . S
C2748 N2747 1.351 . S
C2748 C2749 1.434 . S
C2749 C2740 1.429 . S
C2749 N2746 1.350 . S
C2749 C2748 1.434 . S
C2750 C2751 1.369 . S
C2750 C2752 1.419 . S
C2750 H2754 0.930 . S
C2751 C2750 1.369 . S
C2751 C2760 1.429 . S
C2752 C2750 1.419 . S
C2752 C2753 1.363 . S
C2752 H2755 0.929 . S
C2753 C2752 1.363 . S
C2753 C2759 1.428 . S
H2754 C2750 0.930 . S
H2755 C2752 0.929 . S
S2756 N2757 1.613 . S
S2756 N2758 1.610 . S
N2757 S2756 1.613 . S
N2757 C2760 1.350 . S
N2758 S2756 1.610 . S
N2758 C2759 1.351 . S
C2759 C2753 1.428 . S
C2759 N2758 1.351 . S
C2759 C2760 1.434 . S
C2760 C2751 1.429 . S
C2760 N2757 1.350 . S
C2760 C2759 1.434 . S
C2761 C2762 1.369 . S
C2761 C2763 1.419 . S
C2761 H2765 0.930 . S
C2762 C2761 1.369 . S
C2762 C2771 1.429 . S
C2763 C2761 1.419 . S
C2763 C2764 1.363 . S
C2763 H2766 0.929 . S
C2764 C2763 1.363 . S
C2764 C2770 1.428 . S
H2765 C2761 0.930 . S
H2766 C2763 0.929 . S
S2767 N2768 1.613 . S
S2767 N2769 1.610 . S
N2768 S2767 1.613 . S
N2768 C2771 1.350 . S
N2769 S2767 1.610 . S
N2769 C2770 1.351 . S
C2770 C2764 1.428 . S
C2770 N2769 1.351 . S
C2770 C2771 1.434 . S
C2771 C2762 1.429 . S
C2771 N2768 1.350 . S
C2771 C2770 1.434 . S
C2772 C2773 1.369 . S
C2772 C2774 1.419 . S
C2772 H2776 0.930 . S
C2773 C2772 1.369 . S
C2773 C2782 1.429 . S
C2774 C2772 1.419 . S
C2774 C2775 1.363 . S
C2774 H2777 0.929 . S
C2775 C2774 1.363 . S
C2775 C2781 1.428 . S
H2776 C2772 0.930 . S
H2777 C2774 0.929 . S
S2778 N2779 1.613 . S
S2778 N2780 1.610 . S
N2779 S2778 1.613 . S
N2779 C2782 1.350 . S
N2780 S2778 1.610 . S
N2780 C2781 1.351 . S
C2781 C2775 1.428 . S
C2781 N2780 1.351 . S
C2781 C2782 1.434 . S
C2782 C2773 1.429 . S
C2782 N2779 1.350 . S
C2782 C2781 1.434 . S
C2783 C2784 1.369 . S
C2783 C2785 1.419 . S
C2783 H2787 0.930 . S
C2784 C2783 1.369 . S
C2784 C2793 1.429 . S
C2785 C2783 1.419 . S
C2785 C2786 1.363 . S
C2785 H2788 0.929 . S
C2786 C2785 1.363 . S
C2786 C2792 1.428 . S
H2787 C2783 0.930 . S
H2788 C2785 0.929 . S
S2789 N2790 1.613 . S
S2789 N2791 1.610 . S
N2790 S2789 1.613 . S
N2790 C2793 1.350 . S
N2791 S2789 1.610 . S
N2791 C2792 1.351 . S
C2792 C2786 1.428 . S
C2792 N2791 1.351 . S
C2792 C2793 1.434 . S
C2793 C2784 1.429 . S
C2793 N2790 1.350 . S
C2793 C2792 1.434 . S
C2794 C2795 1.369 . S
C2794 C2796 1.419 . S
C2794 H2798 0.930 . S
C2795 C2794 1.369 . S
C2795 C2804 1.429 . S
C2796 C2794 1.419 . S
C2796 C2797 1.363 . S
C2796 H2799 0.929 . S
C2797 C2796 1.363 . S
C2797 C2803 1.428 . S
H2798 C2794 0.930 . S
H2799 C2796 0.929 . S
S2800 N2801 1.613 . S
S2800 N2802 1.610 . S
N2801 S2800 1.613 . S
N2801 C2804 1.350 . S
N2802 S2800 1.610 . S
N2802 C2803 1.351 . S
C2803 C2797 1.428 . S
C2803 N2802 1.351 . S
C2803 C2804 1.434 . S
C2804 C2795 1.429 . S
C2804 N2801 1.350 . S
C2804 C2803 1.434 . S
C2805 C2806 1.369 . S
C2805 C2807 1.419 . S
C2805 H2809 0.930 . S
C2806 C2805 1.369 . S
C2806 C2815 1.429 . S
C2807 C2805 1.419 . S
C2807 C2808 1.363 . S
C2807 H2810 0.929 . S
C2808 C2807 1.363 . S
C2808 C2814 1.428 . S
H2809 C2805 0.930 . S
H2810 C2807 0.929 . S
S2811 N2812 1.613 . S
S2811 N2813 1.610 . S
N2812 S2811 1.613 . S
N2812 C2815 1.350 . S
N2813 S2811 1.610 . S
N2813 C2814 1.351 . S
C2814 C2808 1.428 . S
C2814 N2813 1.351 . S
C2814 C2815 1.434 . S
C2815 C2806 1.429 . S
C2815 N2812 1.350 . S
C2815 C2814 1.434 . S
C2816 C2817 1.369 . S
C2816 C2818 1.419 . S
C2816 H2820 0.930 . S
C2817 C2816 1.369 . S
C2817 C2826 1.429 . S
C2818 C2816 1.419 . S
C2818 C2819 1.363 . S
C2818 H2821 0.929 . S
C2819 C2818 1.363 . S
C2819 C2825 1.428 . S
H2820 C2816 0.930 . S
H2821 C2818 0.929 . S
S2822 N2823 1.613 . S
S2822 N2824 1.610 . S
N2823 S2822 1.613 . S
N2823 C2826 1.350 . S
N2824 S2822 1.610 . S
N2824 C2825 1.351 . S
C2825 C2819 1.428 . S
C2825 N2824 1.351 . S
C2825 C2826 1.434 . S
C2826 C2817 1.429 . S
C2826 N2823 1.350 . S
C2826 C2825 1.434 . S
C2827 C2828 1.369 . S
C2827 C2829 1.419 . S
C2827 H2831 0.930 . S
C2828 C2827 1.369 . S
C2828 C2837 1.429 . S
C2829 C2827 1.419 . S
C2829 C2830 1.363 . S
C2829 H2832 0.929 . S
C2830 C2829 1.363 . S
C2830 C2836 1.428 . S
H2831 C2827 0.930 . S
H2832 C2829 0.929 . S
S2833 N2834 1.613 . S
S2833 N2835 1.610 . S
N2834 S2833 1.613 . S
N2834 C2837 1.350 . S
N2835 S2833 1.610 . S
N2835 C2836 1.351 . S
C2836 C2830 1.428 . S
C2836 N2835 1.351 . S
C2836 C2837 1.434 . S
C2837 C2828 1.429 . S
C2837 N2834 1.350 . S
C2837 C2836 1.434 . S
C2838 C2839 1.369 . S
C2838 C2840 1.419 . S
C2838 H2842 0.930 . S
C2839 C2838 1.369 . S
C2839 C2848 1.429 . S
C2840 C2838 1.419 . S
C2840 C2841 1.363 . S
C2840 H2843 0.929 . S
C2841 C2840 1.363 . S
C2841 C2847 1.428 . S
H2842 C2838 0.930 . S
H2843 C2840 0.929 . S
S2844 N2845 1.613 . S
S2844 N2846 1.610 . S
N2845 S2844 1.613 . S
N2845 C2848 1.350 . S
N2846 S2844 1.610 . S
N2846 C2847 1.351 . S
C2847 C2841 1.428 . S
C2847 N2846 1.351 . S
C2847 C2848 1.434 . S
C2848 C2839 1.429 . S
C2848 N2845 1.350 . S
C2848 C2847 1.434 . S
C2849 C2850 1.369 . S
C2849 C2851 1.419 . S
C2849 H2853 0.930 . S
C2850 C2849 1.369 . S
C2850 C2859 1.429 . S
C2851 C2849 1.419 . S
C2851 C2852 1.363 . S
C2851 H2854 0.929 . S
C2852 C2851 1.363 . S
C2852 C2858 1.428 . S
H2853 C2849 0.930 . S
H2854 C2851 0.929 . S
S2855 N2856 1.613 . S
S2855 N2857 1.610 . S
N2856 S2855 1.613 . S
N2856 C2859 1.350 . S
N2857 S2855 1.610 . S
N2857 C2858 1.351 . S
C2858 C2852 1.428 . S
C2858 N2857 1.351 . S
C2858 C2859 1.434 . S
C2859 C2850 1.429 . S
C2859 N2856 1.350 . S
C2859 C2858 1.434 . S
C2860 C2861 1.369 . S
C2860 C2862 1.419 . S
C2860 H2864 0.930 . S
C2861 C2860 1.369 . S
C2861 C2870 1.429 . S
C2862 C2860 1.419 . S
C2862 C2863 1.363 . S
C2862 H2865 0.929 . S
C2863 C2862 1.363 . S
C2863 C2869 1.428 . S
H2864 C2860 0.930 . S
H2865 C2862 0.929 . S
S2866 N2867 1.613 . S
S2866 N2868 1.610 . S
N2867 S2866 1.613 . S
N2867 C2870 1.350 . S
N2868 S2866 1.610 . S
N2868 C2869 1.351 . S
C2869 C2863 1.428 . S
C2869 N2868 1.351 . S
C2869 C2870 1.434 . S
C2870 C2861 1.429 . S
C2870 N2867 1.350 . S
C2870 C2869 1.434 . S
C2871 C2872 1.369 . S
C2871 C2873 1.419 . S
C2871 H2875 0.930 . S
C2872 C2871 1.369 . S
C2872 C2881 1.429 . S
C2873 C2871 1.419 . S
C2873 C2874 1.363 . S
C2873 H2876 0.929 . S
C2874 C2873 1.363 . S
C2874 C2880 1.428 . S
H2875 C2871 0.930 . S
H2876 C2873 0.929 . S
S2877 N2878 1.613 . S
S2877 N2879 1.610 . S
N2878 S2877 1.613 . S
N2878 C2881 1.350 . S
N2879 S2877 1.610 . S
N2879 C2880 1.351 . S
C2880 C2874 1.428 . S
C2880 N2879 1.351 . S
C2880 C2881 1.434 . S
C2881 C2872 1.429 . S
C2881 N2878 1.350 . S
C2881 C2880 1.434 . S
C2882 C2883 1.369 . S
C2882 C2884 1.419 . S
C2882 H2886 0.930 . S
C2883 C2882 1.369 . S
C2883 C2892 1.429 . S
C2884 C2882 1.419 . S
C2884 C2885 1.363 . S
C2884 H2887 0.929 . S
C2885 C2884 1.363 . S
C2885 C2891 1.428 . S
H2886 C2882 0.930 . S
H2887 C2884 0.929 . S
S2888 N2889 1.613 . S
S2888 N2890 1.610 . S
N2889 S2888 1.613 . S
N2889 C2892 1.350 . S
N2890 S2888 1.610 . S
N2890 C2891 1.351 . S
C2891 C2885 1.428 . S
C2891 N2890 1.351 . S
C2891 C2892 1.434 . S
C2892 C2883 1.429 . S
C2892 N2889 1.350 . S
C2892 C2891 1.434 . S
C2893 C2894 1.369 . S
C2893 C2895 1.419 . S
C2893 H2897 0.930 . S
C2894 C2893 1.369 . S
C2894 C2903 1.429 . S
C2895 C2893 1.419 . S
C2895 C2896 1.363 . S
C2895 H2898 0.929 . S
C2896 C2895 1.363 . S
C2896 C2902 1.428 . S
H2897 C2893 0.930 . S
H2898 C2895 0.929 . S
S2899 N2900 1.613 . S
S2899 N2901 1.610 . S
N2900 S2899 1.613 . S
N2900 C2903 1.350 . S
N2901 S2899 1.610 . S
N2901 C2902 1.351 . S
C2902 C2896 1.428 . S
C2902 N2901 1.351 . S
C2902 C2903 1.434 . S
C2903 C2894 1.429 . S
C2903 N2900 1.350 . S
C2903 C2902 1.434 . S
C1585 N607 1.553 1_554 S
C1587 C18 1.581 . S
C1596 C51 1.577 . S
C1598 N640 1.549 1_554 S
C1607 C84 1.581 . S
C1609 N673 1.552 1_554 S
C1618 N574 1.547 1_554 S
C1620 C117 1.577 . S
C1629 N739 1.552 1_556 S
C1631 C150 1.580 . S
C1640 C183 1.583 . S
C1642 N541 1.551 1_556 S
C1651 N772 1.543 1_556 S
C1653 C216 1.579 . S
C1662 N706 1.551 1_556 S
C1664 C249 1.578 . S
C1673 C282 1.580 . S
C1675 N310 1.552 1_455 S
C1684 N343 1.547 1_545 S
C1686 C315 1.577 . S
C1695 N376 1.544 1_655 S
C1697 C348 1.578 . S
C1706 C381 1.578 . S
C1708 N277 1.551 1_565 S
C1717 N508 1.544 1_455 S
C1719 C414 1.581 . S
C1728 C447 1.579 . S
C1730 N409 1.551 1_545 S
C1739 N442 1.552 1_655 S
C1741 C480 1.582 . S
C1750 N475 1.548 1_565 S
C1752 C513 1.583 . S
C1761 C546 1.583 . S
C1763 N112 1.546 1_545 S
C1772 N178 1.546 1_565 S
C1774 C579 1.583 . S
C1783 C612 1.582 . S
C1785 N211 1.551 1_455 S
C1794 N244 1.544 1_545 S
C1796 C645 1.578 . S
C1805 N145 1.553 1_655 S
C1807 C678 1.581 . S
C1816 C711 1.577 . S
C1818 N46 1.547 1_565 S
C1827 C744 1.577 . S
C1829 N79 1.548 1_455 S
C1838 N13 1.549 1_655 S
C1840 C777 1.583 . S
C1849 C810 1.577 . S
C1851 N1399 1.549 . S
C1860 N1432 1.545 . S
C1862 C843 1.582 . S
C1871 N1465 1.543 . S
C1873 C876 1.581 . S
C1882 C909 1.577 . S
C1884 N1366 1.548 . S
C1893 N1531 1.549 . S
C1895 C942 1.583 . S
C1904 C975 1.583 . S
C1906 N1333 1.550 . S
C1915 N1564 1.552 . S
C1917 C1008 1.582 . S
C1926 N1498 1.549 . S
C1928 C1041 1.583 . S
C1937 N1102 1.550 . S
C1939 C1074 1.583 . S
C1948 C1107 1.578 . S
C1950 N1135 1.551 . S
C1959 N1168 1.543 . S
C1961 C1140 1.580 . S
C1970 C1173 1.582 . S
C1972 N1069 1.551 . S
C1981 C1206 1.584 . S
C1983 N1300 1.548 . S
C1992 N1201 1.550 . S
C1994 C1239 1.583 . S
C2003 C1272 1.577 . S
C2005 N1234 1.548 . S
C2014 N1267 1.545 . S
C2016 C1305 1.578 . S
C2025 N904 1.544 . S
C2027 C1338 1.578 . S
C2036 C1371 1.577 . S
C2038 N970 1.546 . S
C2047 C1404 1.582 . S
C2049 N1003 1.551 . S
C2058 N1036 1.544 . S
C2060 C1437 1.579 . S
C2069 N937 1.549 . S
C2071 C1470 1.583 . S
C2080 N838 1.544 . S
C2082 C1503 1.578 . S
C2091 C1536 1.583 . S
C2093 N871 1.551 . S
C2102 N805 1.546 . S
C2104 C1569 1.583 . S
C2113 C1044 1.682 . S
C2115 C21 1.687 . S
C2124 C945 1.687 . S
C2126 C54 1.683 . S
C2135 C87 1.688 . S
C2137 C978 1.682 . S
C2146 C1011 1.677 . S
C2148 C120 1.687 . S
C2157 C153 1.688 . S
C2159 C846 1.682 . S
C2168 C879 1.688 . S
C2170 C186 1.683 . S
C2179 C912 1.678 . S
C2181 C219 1.687 . S
C2190 C252 1.682 . S
C2192 C813 1.687 . S
C2201 C285 1.678 . S
C2203 C1473 1.687 . S
C2212 C1374 1.689 . S
C2214 C318 1.679 . S
C2223 C1407 1.681 . S
C2225 C351 1.687 . S
C2234 C1440 1.676 . S
C2236 C384 1.685 . S
C2245 C1572 1.684 . S
C2247 C417 1.678 . S
C2256 C450 1.682 . S
C2258 C1506 1.687 . S
C2267 C483 1.681 . S
C2269 C1539 1.687 . S
C2278 C1341 1.688 . S
C2280 C516 1.678 . S
C2289 C1308 1.680 . S
C2291 C549 1.680 . S
C2300 C582 1.679 . S
C2302 C1110 1.687 . S
C2311 C1143 1.677 . S
C2313 C615 1.686 . S
C2322 C1176 1.678 . S
C2324 C648 1.687 . S
C2333 C681 1.678 . S
C2335 C1077 1.687 . S
C2344 C714 1.681 . S
C2346 C1242 1.680 . S
C2355 C1275 1.682 . S
C2357 C747 1.679 . S
C2366 C780 1.681 . S
C2368 C1209 1.680 . S
C2377 N266 1.331 . S
C2379 C7 1.338 . S
C2388 N299 1.335 . S
C2390 C40 1.334 . S
C2399 C73 1.339 . S
C2401 N332 1.335 . S
C2410 C106 1.339 . S
C2412 N365 1.335 . S
C2421 C139 1.325 . S
C2423 N398 1.343 . S
C2432 N431 1.338 . S
C2434 C172 1.331 . S
C2443 N464 1.339 . S
C2445 C205 1.333 . S
C2454 C238 1.334 . S
C2456 N497 1.339 . S
C2465 N530 1.335 . S
C2467 C271 1.336 . S
C2476 N761 1.343 . S
C2478 C304 1.330 . S
C2487 N695 1.332 . S
C2489 C337 1.338 . S
C2498 C370 1.340 . S
C2500 N728 1.333 . S
C2509 C403 1.338 . S
C2511 N563 1.334 . S
C2520 C436 1.333 . S
C2522 N596 1.337 . S
C2531 C469 1.332 . S
C2533 N629 1.340 . S
C2542 C502 1.340 . S
C2544 N662 1.333 . S
C2553 N2 1.348 . S
C2555 C535 1.325 . S
C2564 C568 1.323 . S
C2566 N134 1.346 . S
C2575 N167 1.334 . S
C2577 C601 1.334 . S
C2586 C634 1.338 . S
C2588 N200 1.336 . S
C2597 N233 1.348 . S
C2599 C667 1.325 . S
C2608 N68 1.332 . S
C2610 C700 1.338 . S
C2619 C733 1.339 . S
C2621 N101 1.333 . S
C2630 N35 1.331 . S
C2632 C766 1.337 . S
C2641 C799 1.337 . S
C2643 N1058 1.336 . S
C2652 N1091 1.344 . S
C2654 C832 1.327 . S
C2663 C865 1.329 . S
C2665 N1124 1.340 . S
C2674 C898 1.338 . S
C2676 N1157 1.334 . S
C2685 C931 1.331 . S
C2687 N1190 1.342 . S
C2696 C964 1.329 . S
C2698 N1223 1.343 . S
C2707 C997 1.340 . S
C2709 N1256 1.333 . S
C2718 C1030 1.324 . S
C2720 N1289 1.346 . S
C2729 C1063 1.330 . S
C2731 N1322 1.342 . S
C2740 C1096 1.324 . S
C2742 N1553 1.346 . S
C2751 C1129 1.327 . S
C2753 N1487 1.342 . S
C2762 N1520 1.348 . S
C2764 C1162 1.325 . S
C2773 N1355 1.348 . S
C2775 C1195 1.326 . S
C2784 C1228 1.329 . S
C2786 N1388 1.340 . S
C2795 N1421 1.345 . S
C2797 C1261 1.326 . S
C2806 C1294 1.337 . S
C2808 N1454 1.336 . S
C2817 C1327 1.335 . S
C2819 N794 1.335 . S
C2828 N926 1.348 . S
C2830 C1360 1.326 . S
C2839 N959 1.335 . S
C2841 C1393 1.334 . S
C2850 N992 1.337 . S
C2852 C1426 1.332 . S
C2861 N1025 1.348 . S
C2863 C1459 1.325 . S
C2872 N860 1.342 . S
C2874 C1492 1.329 . S
C2883 N893 1.331 . S
C2885 C1525 1.338 . S
C2894 N827 1.337 . S
C2896 C1558 1.332 . S
