# Generated by pormake.
# Topology zfd, (5)-cn, num edge types: 1
# Building blocks:
#     Node 0, Type 0, BuildingBlock: XOMCOT_clean_sbu_1, # of connection points: 5
#     Node 1, Type 0, BuildingBlock: XOMCOT_clean_sbu_1, # of connection points: 5
#     Node 2, Type 0, BuildingBlock: XOMCOT_clean_sbu_1, # of connection points: 5
#     Node 3, Type 0, BuildingBlock: XOMCOT_clean_sbu_1, # of connection points: 5
#     Node 4, Type 0, BuildingBlock: XOMCOT_clean_sbu_1, # of connection points: 5
#     Node 5, Type 0, BuildingBlock: XOMCOT_clean_sbu_1, # of connection points: 5
#     Node 6, Type 0, BuildingBlock: XOMCOT_clean_sbu_1, # of connection points: 5
#     Node 7, Type 0, BuildingBlock: XOMCOT_clean_sbu_1, # of connection points: 5
#     Node 8, Type 0, BuildingBlock: XOMCOT_clean_sbu_1, # of connection points: 5
#     Node 9, Type 0, BuildingBlock: XOMCOT_clean_sbu_1, # of connection points: 5
#     Node 10, Type 0, BuildingBlock: XOMCOT_clean_sbu_1, # of connection points: 5
#     Node 11, Type 0, BuildingBlock: XOMCOT_clean_sbu_1, # of connection points: 5
#     Node 12, Type 0, BuildingBlock: XOMCOT_clean_sbu_1, # of connection points: 5
#     Node 13, Type 0, BuildingBlock: XOMCOT_clean_sbu_1, # of connection points: 5
#     Node 14, Type 0, BuildingBlock: XOMCOT_clean_sbu_1, # of connection points: 5
#     Node 15, Type 0, BuildingBlock: XOMCOT_clean_sbu_1, # of connection points: 5
#     Edge 16, Type (0, 0), BuildingBlock: OJICUG_clean_linker_0, # of connection points: 2
#     Edge 17, Type (0, 0), BuildingBlock: OJICUG_clean_linker_0, # of connection points: 2
#     Edge 18, Type (0, 0), BuildingBlock: OJICUG_clean_linker_0, # of connection points: 2
#     Edge 19, Type (0, 0), BuildingBlock: OJICUG_clean_linker_0, # of connection points: 2
#     Edge 20, Type (0, 0), BuildingBlock: OJICUG_clean_linker_0, # of connection points: 2
#     Edge 21, Type (0, 0), BuildingBlock: OJICUG_clean_linker_0, # of connection points: 2
#     Edge 22, Type (0, 0), BuildingBlock: OJICUG_clean_linker_0, # of connection points: 2
#     Edge 23, Type (0, 0), BuildingBlock: OJICUG_clean_linker_0, # of connection points: 2
#     Edge 24, Type (0, 0), BuildingBlock: OJICUG_clean_linker_0, # of connection points: 2
#     Edge 25, Type (0, 0), BuildingBlock: OJICUG_clean_linker_0, # of connection points: 2
#     Edge 26, Type (0, 0), BuildingBlock: OJICUG_clean_linker_0, # of connection points: 2
#     Edge 27, Type (0, 0), BuildingBlock: OJICUG_clean_linker_0, # of connection points: 2
#     Edge 28, Type (0, 0), BuildingBlock: OJICUG_clean_linker_0, # of connection points: 2
#     Edge 29, Type (0, 0), BuildingBlock: OJICUG_clean_linker_0, # of connection points: 2
#     Edge 30, Type (0, 0), BuildingBlock: OJICUG_clean_linker_0, # of connection points: 2
#     Edge 31, Type (0, 0), BuildingBlock: OJICUG_clean_linker_0, # of connection points: 2
#     Edge 32, Type (0, 0), BuildingBlock: OJICUG_clean_linker_0, # of connection points: 2
#     Edge 33, Type (0, 0), BuildingBlock: OJICUG_clean_linker_0, # of connection points: 2
#     Edge 34, Type (0, 0), BuildingBlock: OJICUG_clean_linker_0, # of connection points: 2
#     Edge 35, Type (0, 0), BuildingBlock: OJICUG_clean_linker_0, # of connection points: 2
#     Edge 36, Type (0, 0), BuildingBlock: OJICUG_clean_linker_0, # of connection points: 2
#     Edge 37, Type (0, 0), BuildingBlock: OJICUG_clean_linker_0, # of connection points: 2
#     Edge 38, Type (0, 0), BuildingBlock: OJICUG_clean_linker_0, # of connection points: 2
#     Edge 39, Type (0, 0), BuildingBlock: OJICUG_clean_linker_0, # of connection points: 2
#     Edge 40, Type (0, 0), BuildingBlock: OJICUG_clean_linker_0, # of connection points: 2
#     Edge 41, Type (0, 0), BuildingBlock: OJICUG_clean_linker_0, # of connection points: 2
#     Edge 42, Type (0, 0), BuildingBlock: OJICUG_clean_linker_0, # of connection points: 2
#     Edge 43, Type (0, 0), BuildingBlock: OJICUG_clean_linker_0, # of connection points: 2
#     Edge 44, Type (0, 0), BuildingBlock: OJICUG_clean_linker_0, # of connection points: 2
#     Edge 45, Type (0, 0), BuildingBlock: OJICUG_clean_linker_0, # of connection points: 2
#     Edge 46, Type (0, 0), BuildingBlock: OJICUG_clean_linker_0, # of connection points: 2
#     Edge 47, Type (0, 0), BuildingBlock: OJICUG_clean_linker_0, # of connection points: 2
#     Edge 48, Type (0, 0), BuildingBlock: OJICUG_clean_linker_0, # of connection points: 2
#     Edge 49, Type (0, 0), BuildingBlock: OJICUG_clean_linker_0, # of connection points: 2
#     Edge 50, Type (0, 0), BuildingBlock: OJICUG_clean_linker_0, # of connection points: 2
#     Edge 51, Type (0, 0), BuildingBlock: OJICUG_clean_linker_0, # of connection points: 2
#     Edge 52, Type (0, 0), BuildingBlock: OJICUG_clean_linker_0, # of connection points: 2
#     Edge 53, Type (0, 0), BuildingBlock: OJICUG_clean_linker_0, # of connection points: 2
#     Edge 54, Type (0, 0), BuildingBlock: OJICUG_clean_linker_0, # of connection points: 2
#     Edge 55, Type (0, 0), BuildingBlock: OJICUG_clean_linker_0, # of connection points: 2
# Relax obj value: 0.256
# Max RMSD: 0.191
# Mean RMSD: 0.191
data_MOF--net-zfd--node1-XOMCOT_clean_sbu_1--edge1-OJICUG_clean_linker_0
_symmetry_space_group_name_H-M    P1
_symmetry_Int_Tables_number       1
_symmetry_cell_setting            triclinic
loop_
_symmetry_equiv_pos_as_xyz
'x, y, z'
_cell_length_a     51.057173
_cell_length_b     51.621364
_cell_length_c     14.339818
_cell_angle_alpha  89.828387
_cell_angle_beta   89.769362
_cell_angle_gamma 89.991136
loop_
_atom_site_label
_atom_site_type_symbol
_atom_site_fract_x
_atom_site_fract_y
_atom_site_fract_z
_atom_type_partial_charge
C0 C 0.11186 0.23805 0.29111 0.0
C1 C 0.127 0.24444 0.36655 0.0
N2 N 0.15022 0.23266 0.35569 0.0
N3 N 0.12519 0.22147 0.23563 0.0
C4 C 0.14849 0.21859 0.27679 0.0
H5 H 0.09269 0.24581 0.2764 0.0
Co6 Co 0.11525 0.21319 0.11726 0.0
C7 C 0.13659 0.16151 1.05009 0.0
O8 O 0.1122 0.15447 1.03607 0.0
N9 N 0.10509 0.20652 0.99644 0.0
C10 C 0.10522 0.20138 0.84252 0.0
C11 C 0.12038 0.2064 0.91897 0.0
C12 C 0.08101 0.2011 0.96552 0.0
N13 N 0.08057 0.19788 0.87273 0.0
O14 O 0.08502 0.19225 0.17545 0.0
H15 H 0.14117 0.21015 0.91729 0.0
H16 H 0.06364 0.20123 1.00858 0.0
O17 O 0.14071 0.18202 0.10032 0.0
C18 C 0.06362 0.20494 0.19422 0.0
O19 O 0.06099 0.22814 0.15759 0.0
N20 N 0.14158 0.23636 0.07358 0.0
C21 C 0.17783 0.27713 0.06561 0.0
C22 C 0.18611 0.25129 1.05787 0.0
C23 C 0.16773 0.23112 1.06325 0.0
C24 C 0.13309 0.2614 0.07473 0.0
C25 C 0.15086 0.28205 0.07179 0.0
H26 H 0.17492 0.21148 0.06404 0.0
H27 H 0.11247 0.26533 0.08503 0.0
H28 H 0.16392 0.20633 0.24965 0.0
H29 H 0.12142 0.25645 0.4251 0.0
H30 H 0.1114 0.20188 0.77022 0.0
H31 H 0.20677 0.24663 1.05331 0.0
H32 H 0.14359 0.30171 0.07711 0.0
C33 C 0.79124 0.11541 0.25744 0.0
C34 C 0.78974 0.13914 0.29974 0.0
N35 N 0.80653 0.15499 0.25548 0.0
N36 N 0.80923 0.11629 0.18801 0.0
C37 C 0.81877 0.14047 0.19071 0.0
H38 H 0.77722 0.10007 0.26807 0.0
Co39 Co 0.80507 0.09724 0.08218 0.0
C40 C 0.85168 0.1096 0.94329 0.0
O41 O 0.85189 0.08574 0.91181 0.0
N42 N 0.79844 0.07821 0.97767 0.0
C43 C 0.78699 0.06578 0.83579 0.0
C44 C 0.79529 0.08628 0.88877 0.0
C45 C 0.79124 0.05324 0.97778 0.0
N46 N 0.78442 0.04505 0.8924 0.0
O47 O 0.82632 0.06742 0.14175 0.0
H48 H 0.79867 0.10582 0.8641 0.0
H49 H 0.79034 0.04138 1.03973 0.0
O50 O 0.83679 0.11499 1.01433 0.0
C51 C 0.81387 0.05318 0.20257 0.0
O52 O 0.78873 0.05736 0.21386 0.0
N53 N 0.78239 0.12406 1.0379 0.0
C54 C 0.74795 0.16656 1.03806 0.0
C55 C 0.77317 0.16859 0.99909 0.0
C56 C 0.79006 0.14717 0.99935 0.0
C57 C 0.75725 0.12108 0.0685 0.0
C58 C 0.73978 0.14204 0.06971 0.0
H59 H 0.80978 0.1501 0.97466 0.0
H60 H 0.75133 0.10282 0.09922 0.0
H61 H 0.83265 0.14798 0.14041 0.0
H62 H 0.77608 0.14478 0.35389 0.0
H63 H 0.78371 0.066 0.76128 0.0
H64 H 0.78051 0.187 0.9738 0.0
H65 H 0.72033 0.13922 0.09832 0.0
C66 C 0.91829 0.84415 0.23915 0.0
C67 C 0.91488 0.86983 0.26155 0.0
N68 N 0.92598 0.88461 0.19409 0.0
N69 N 0.93113 0.84299 0.15735 0.0
C70 C 0.93598 0.86774 0.13301 0.0
H71 H 0.91132 0.82753 0.27808 0.0
Co72 Co 0.94391 0.81585 0.09126 0.0
C73 C 0.9267 0.83161 0.88844 0.0
O74 O 0.92405 0.80703 0.86776 0.0
N75 N 0.95838 0.78814 1.02155 0.0
C76 C 0.96669 0.75355 0.93241 0.0
C77 C 0.94748 0.76759 0.97733 0.0
C78 C 0.98416 0.78572 1.00294 0.0
N79 N 0.98972 0.76497 0.95023 0.0
O80 O 0.98036 0.82917 0.12427 0.0
H81 H 0.92677 0.76352 0.9732 0.0
H82 H 0.99886 0.79967 1.02237 0.0
O83 O 0.93666 0.83751 0.96899 0.0
C84 C 0.98552 0.82312 0.21055 0.0
O85 O 0.9672 0.81095 0.25798 0.0
N86 N 0.90997 0.80068 0.08481 0.0
C87 C 0.86555 0.76872 0.08671 0.0
C88 C 0.86516 0.79279 1.04031 0.0
C89 C 0.8876 0.80876 1.04119 0.0
C90 C 0.9094 0.77889 0.13886 0.0
C91 C 0.88776 0.76239 0.139 0.0
H92 H 0.88696 0.82727 1.0061 0.0
H93 H 0.92665 0.77346 0.17791 0.0
H94 H 0.94558 0.8736 0.06898 0.0
H95 H 0.90283 0.87708 0.31807 0.0
H96 H 0.96391 0.73688 0.88795 0.0
H97 H 0.84806 0.79879 1.00138 0.0
H98 H 0.88864 0.74443 0.17819 0.0
C99 C 0.18182 0.90501 0.28692 0.0
C100 C 0.15521 0.90304 0.29998 0.0
N101 N 0.14283 0.91242 0.22356 0.0
N102 N 0.18616 0.91547 0.2025 0.0
C103 C 0.16223 0.9206 0.16752 0.0
H104 H 0.19694 0.89847 0.33404 0.0
Co105 Co 0.21669 0.92456 0.14484 0.0
C106 C 0.20497 0.90884 0.93726 0.0
O107 O 0.22995 0.90372 0.92493 0.0
N108 N 0.24706 0.9352 0.08553 0.0
C109 C 0.28707 0.94788 1.04362 0.0
C110 C 0.27283 0.93307 0.10577 0.0
C111 C 0.24616 0.95168 1.01313 0.0
N112 N 0.27007 0.9593 0.98516 0.0
O113 O 0.2072 0.962 0.16832 0.0
H114 H 0.28098 0.9228 0.16449 0.0
H115 H 0.22805 0.95919 0.98478 0.0
O116 O 0.19773 0.91899 1.01613 0.0
C117 C 0.21279 0.96676 0.25496 0.0
O118 O 0.22257 0.94763 0.30436 0.0
N119 N 0.22858 0.88939 0.14439 0.0
C120 C 0.26004 0.84455 0.14968 0.0
C121 C 0.23808 0.84619 0.09031 0.0
C122 C 0.22226 0.86861 0.09002 0.0
C123 C 0.24716 0.88648 0.21148 0.0
C124 C 0.26353 0.86482 0.21371 0.0
H125 H 0.20542 0.86918 1.04498 0.0
H126 H 0.25062 0.90213 0.25984 0.0
H127 H 0.15875 0.92865 0.09907 0.0
H128 H 0.14582 0.89285 0.35704 0.0
H129 H 0.30806 0.95082 1.04369 0.0
H130 H 0.2333 0.83052 1.04341 0.0
H131 H 0.27963 0.86491 0.26244 0.0
C132 C 0.13956 0.79939 0.36483 0.0
C133 C 0.13083 0.81042 0.28298 0.0
N134 N 0.12219 0.83436 0.30319 0.0
N135 N 0.13654 0.81657 0.43497 0.0
C136 C 0.12758 0.83814 0.39399 0.0
H137 H 0.14361 0.77901 0.37479 0.0
Co138 Co 0.1243 0.80689 0.5501 0.0
C139 C 0.13186 0.85375 0.68255 0.0
O140 O 0.10746 0.85135 0.71071 0.0
N141 N 0.11173 0.79592 0.66445 0.0
C142 C 0.10985 0.78217 0.81082 0.0
C143 C 0.12534 0.79376 0.74452 0.0
C144 C 0.08815 0.7855 0.68338 0.0
N145 N 0.08637 0.77697 0.77236 0.0
O146 O 0.08876 0.82297 0.51409 0.0
H147 H 0.14544 0.79983 0.75368 0.0
H148 H 0.07257 0.78447 0.63277 0.0
O149 O 0.13983 0.83932 0.61434 0.0
C150 C 0.07678 0.80937 0.45107 0.0
O151 O 0.08612 0.78615 0.4338 0.0
N152 N 0.15606 0.78883 0.57195 0.0
C153 C 0.20041 0.75669 0.5806 0.0
C154 C 0.20294 0.78384 0.58053 0.0
C155 C 0.1805 0.7996 0.57507 0.0
C156 C 0.15325 0.76257 0.57324 0.0
C157 C 0.17503 0.74623 0.57818 0.0
H158 H 0.18289 0.82033 0.56969 0.0
H159 H 0.13388 0.75422 0.56821 0.0
H160 H 0.12129 0.8549 0.43334 0.0
H161 H 0.12857 0.8008 0.21652 0.0
H162 H 0.11562 0.77792 0.8817 0.0
H163 H 0.22211 0.79281 0.58069 0.0
H164 H 0.17195 0.72547 0.57891 0.0
C165 C 0.2175 0.12142 0.4316 0.0
C166 C 0.2095 0.14551 0.40306 0.0
N167 N 0.20458 0.15964 0.4798 0.0
N168 N 0.21747 0.12072 0.52568 0.0
C169 C 0.20867 0.14409 0.55285 0.0
H170 H 0.22554 0.10668 0.38663 0.0
Co171 Co 0.23823 0.10045 0.59843 0.0
C172 C 0.21643 0.11182 0.8015 0.0
O173 O 0.23909 0.10576 0.83878 0.0
N174 N 0.26021 0.08018 0.66998 0.0
C175 C 0.29608 0.06207 0.7286 0.0
C176 C 0.28654 0.08232 0.67695 0.0
C177 C 0.25424 0.05833 0.71663 0.0
N178 N 0.27573 0.04696 0.75264 0.0
O179 O 0.2183 0.06866 0.55579 0.0
H180 H 0.29842 0.09709 0.64433 0.0
H181 H 0.23454 0.05077 0.72314 0.0
O182 O 0.21364 0.109 0.71208 0.0
C183 C 0.22948 0.05916 0.48199 0.0
O184 O 0.2517 0.06974 0.45535 0.0
N185 N 0.26016 0.12988 0.61828 0.0
C186 C 0.2966 0.17035 0.60018 0.0
C187 C 0.28175 0.16733 0.68241 0.0
C188 C 0.26326 0.14711 0.68971 0.0
C189 C 0.27467 0.13266 0.53866 0.0
C190 C 0.29269 0.1527 0.52787 0.0
H191 H 0.25155 0.14583 0.75189 0.0
H192 H 0.27228 0.11891 0.48264 0.0
H193 H 0.2085 0.15076 0.62432 0.0
H194 H 0.20873 0.15259 0.33196 0.0
H195 H 0.31643 0.05823 0.74432 0.0
H196 H 0.28403 0.18077 0.73966 0.0
H197 H 0.30386 0.15409 0.46363 0.0
C198 C 0.91682 0.2294 0.37062 0.0
C199 C 0.89469 0.23204 0.31757 0.0
N200 N 0.87474 0.22094 0.3645 0.0
N201 N 0.91075 0.21648 0.4496 0.0
C202 C 0.88524 0.21093 0.44284 0.0
H203 H 0.9354 0.23879 0.35743 0.0
Co204 Co 0.92918 0.22302 0.55359 0.0
C205 C 0.90673 0.19165 0.72034 0.0
O206 O 0.91198 0.21261 0.76848 0.0
N207 N 0.94877 0.23153 0.65421 0.0
C208 C 0.9757 0.25325 0.74549 0.0
C209 C 0.9544 0.25525 0.6881 0.0
C210 C 0.96619 0.21546 0.69312 0.0
N211 N 0.98298 0.22824 0.74742 0.0
O212 O 0.95954 0.20142 0.49886 0.0
H213 H 0.94559 0.2732 0.66592 0.0
H214 H 0.96849 0.19535 0.67331 0.0
O215 O 0.91225 0.19187 0.63112 0.0
C216 C 0.97969 0.21365 0.46488 0.0
O217 O 0.98089 0.2388 0.4776 0.0
N218 N 0.90167 0.24664 0.59066 0.0
C219 C 0.86151 0.28431 0.58904 0.0
C220 C 0.85768 0.26003 0.63142 0.0
C221 C 0.87773 0.24134 0.63002 0.0
C222 C 0.90572 0.27035 0.55048 0.0
C223 C 0.88614 0.28937 0.54928 0.0
H224 H 0.87282 0.22219 0.6539 0.0
H225 H 0.92405 0.27412 0.51481 0.0
H226 H 0.87431 0.20123 0.49741 0.0
H227 H 0.8932 0.2423 0.25189 0.0
H228 H 0.98655 0.26914 0.77577 0.0
H229 H 0.83877 0.25489 0.66056 0.0
H230 H 0.89017 0.30775 0.51562 0.0
C231 C 0.81084 0.90019 0.33108 0.0
C232 C 0.82372 0.90872 0.25225 0.0
N233 N 0.84773 0.91666 0.27795 0.0
N234 N 0.82696 0.90245 0.40502 0.0
C235 C 0.84955 0.91134 0.36971 0.0
H236 H 0.79011 0.89615 0.3357 0.0
Co237 Co 0.81605 0.91195 0.52106 0.0
C238 C 0.86353 0.90415 0.65399 0.0
O239 O 0.8598 0.92768 0.68611 0.0
N240 N 0.80391 0.92164 0.63597 0.0
C241 C 0.79107 0.92216 0.78381 0.0
C242 C 0.80258 0.90749 0.71524 0.0
C243 C 0.79265 0.94434 0.65682 0.0
N244 N 0.78482 0.94529 0.74644 0.0
O245 O 0.83135 0.94832 0.49371 0.0
H246 H 0.80993 0.88797 0.72318 0.0
H247 H 0.7913 0.96035 0.60829 0.0
O248 O 0.8493 0.89656 0.58448 0.0
C249 C 0.81756 0.96139 0.43349 0.0
O250 O 0.79484 0.95165 0.40922 0.0
N251 N 0.7982 0.87992 0.53489 0.0
C252 C 0.76453 0.83696 0.54043 0.0
C253 C 0.7913 0.83427 0.56136 0.0
C254 C 0.80799 0.856 0.55676 0.0
C255 C 0.77221 0.88282 0.51611 0.0
C256 C 0.75515 0.86166 0.51754 0.0
H257 H 0.82861 0.85347 0.5703 0.0
H258 H 0.76474 0.90181 0.49843 0.0
H259 H 0.86597 0.91665 0.41311 0.0
H260 H 0.81546 0.91071 0.18323 0.0
H261 H 0.78834 0.91661 0.85605 0.0
H262 H 0.79932 0.81546 0.57892 0.0
H263 H 0.73465 0.86465 0.50144 0.0
C264 C 0.60883 0.66833 0.68282 0.0
C265 C 0.62057 0.64437 0.68017 0.0
N266 N 0.63522 0.64279 0.60171 0.0
N267 N 0.6162 0.68189 0.60674 0.0
C268 C 0.63223 0.66585 0.55965 0.0
H269 H 0.59589 0.67517 0.73707 0.0
Co270 Co 0.60371 0.71256 0.55822 0.0
C271 C 0.61412 0.70083 0.3455 0.0
O272 O 0.61715 0.72556 0.32639 0.0
N273 N 0.59033 0.7427 0.50825 0.0
C274 C 0.5707 0.78104 0.49634 0.0
C275 C 0.58899 0.76674 0.54501 0.0
C276 C 0.57288 0.74282 0.43856 0.0
N277 N 0.56099 0.76585 0.4288 0.0
O278 O 0.56652 0.70176 0.59201 0.0
H279 H 0.59858 0.77276 0.60836 0.0
H280 H 0.56671 0.72549 0.40248 0.0
O281 O 0.60585 0.69441 0.42806 0.0
C282 C 0.56052 0.7101 0.67491 0.0
O283 O 0.57865 0.72278 0.72073 0.0
N284 N 0.63887 0.72601 0.54641 0.0
C285 C 0.68466 0.75649 0.55053 0.0
C286 C 0.68054 0.73835 0.47935 0.0
C287 C 0.6579 0.72286 0.47974 0.0
C288 C 0.64377 0.74197 0.62011 0.0
C289 C 0.66633 0.75743 0.62345 0.0
H290 H 0.65625 0.70861 0.42597 0.0
H291 H 0.62945 0.74348 0.67557 0.0
H292 H 0.64198 0.67106 0.49567 0.0
H293 H 0.61964 0.62994 0.73498 0.0
H294 H 0.56363 0.80021 0.51359 0.0
H295 H 0.69469 0.73621 0.42341 0.0
H296 H 0.66877 0.77083 0.68072 0.0
C297 C 0.38782 0.60879 0.68523 0.0
C298 C 0.41142 0.62015 0.66364 0.0
N299 N 0.40727 0.63909 0.60028 0.0
N300 N 0.36866 0.62057 0.63635 0.0
C301 C 0.38116 0.63907 0.58686 0.0
H302 H 0.38542 0.59215 0.73008 0.0
Co303 Co 0.33643 0.60783 0.59923 0.0
C304 C 0.34967 0.60758 0.37903 0.0
O305 O 0.32682 0.60004 0.34721 0.0
N306 N 0.30526 0.5945 0.55882 0.0
C307 C 0.26392 0.58312 0.53341 0.0
C308 C 0.28006 0.60137 0.57382 0.0
C309 C 0.30408 0.57223 0.51162 0.0
N310 N 0.27936 0.56474 0.496 0.0
O311 O 0.347 0.57164 0.63943 0.0
H312 H 0.27383 0.61823 0.61267 0.0
H313 H 0.32123 0.5616 0.48885 0.0
O314 O 0.35329 0.60821 0.46811 0.0
C315 C 0.33993 0.56818 0.72562 0.0
O316 O 0.33021 0.58828 0.76988 0.0
N317 N 0.3231 0.64206 0.57907 0.0
C318 C 0.2891 0.68499 0.57614 0.0
C319 C 0.29664 0.6725 0.49344 0.0
C320 C 0.31333 0.65103 0.49641 0.0
C321 C 0.3177 0.65518 0.65946 0.0
C322 C 0.30081 0.67671 0.65963 0.0
H323 H 0.31624 0.64062 0.4329 0.0
H324 H 0.32485 0.64768 0.72511 0.0
H325 H 0.37127 0.65161 0.53788 0.0
H326 H 0.4301 0.61501 0.69387 0.0
H327 H 0.24272 0.583 0.53329 0.0
H328 H 0.28851 0.67834 0.42697 0.0
H329 H 0.29556 0.68553 0.7255 0.0
C330 C 0.42842 0.29197 0.76625 0.0
C331 C 0.40943 0.28638 0.83103 0.0
N332 N 0.38775 0.29944 0.80677 0.0
N333 N 0.41887 0.30894 0.70323 0.0
C334 C 0.3941 0.31323 0.72969 0.0
H335 H 0.44778 0.28352 0.76322 0.0
Co336 Co 0.43678 0.31404 0.59574 0.0
C337 C 0.4085 0.34989 0.4583 0.0
O338 O 0.4158 0.33212 0.3983 0.0
N339 N 0.45665 0.3172 0.49027 0.0
C340 C 0.48193 0.31021 0.36761 0.0
C341 C 0.46303 0.29967 0.42443 0.0
C342 C 0.47152 0.33808 0.47171 0.0
N343 N 0.48717 0.33427 0.3982 0.0
O344 O 0.4632 0.33565 0.66895 0.0
H345 H 0.45592 0.28001 0.42134 0.0
H346 H 0.47255 0.35502 0.51578 0.0
O347 O 0.4142 0.34617 0.54656 0.0
C348 C 0.48499 0.32442 0.69144 0.0
O349 O 0.48963 0.30139 0.65647 0.0
N350 N 0.41293 0.29012 0.53951 0.0
C351 C 0.37608 0.24961 0.54096 0.0
C352 C 0.36846 0.27508 0.52125 0.0
C353 C 0.38695 0.29507 0.52301 0.0
C354 C 0.42087 0.2651 0.55279 0.0
C355 C 0.40281 0.24461 0.55437 0.0
H356 H 0.37933 0.31447 0.52222 0.0
H357 H 0.44099 0.26128 0.57187 0.0
H358 H 0.381 0.32633 0.69361 0.0
H359 H 0.4115 0.27426 0.89232 0.0
H360 H 0.49304 0.30002 0.31469 0.0
H361 H 0.34794 0.27991 0.51297 0.0
H362 H 0.40955 0.22521 0.57032 0.0
C363 C 0.68046 0.42751 0.67787 0.0
C364 C 0.65918 0.4112 0.67694 0.0
N365 N 0.6622 0.39451 0.60566 0.0
N366 N 0.69684 0.42086 0.60787 0.0
C367 C 0.68515 0.40062 0.56599 0.0
H368 H 0.68348 0.44312 0.72649 0.0
Co369 Co 0.72576 0.43723 0.5586 0.0
C370 C 0.71301 0.42769 0.34458 0.0
O371 O 0.73783 0.42795 0.3199 0.0
N372 N 0.75413 0.4539 0.50777 0.0
C373 C 0.7913 0.47594 0.49223 0.0
C374 C 0.77858 0.45671 0.54186 0.0
C375 C 0.75236 0.47138 0.43882 0.0
N376 N 0.77468 0.48469 0.42682 0.0
O377 O 0.7105 0.47245 0.59227 0.0
H378 H 0.78595 0.44704 0.60334 0.0
H379 H 0.73419 0.47612 0.40403 0.0
O380 O 0.70696 0.43322 0.43016 0.0
C381 C 0.71807 0.47924 0.67518 0.0
O382 O 0.73227 0.46254 0.72228 0.0
N383 N 0.74366 0.40455 0.54708 0.0
C384 C 0.77869 0.36245 0.56254 0.0
C385 C 0.76319 0.36588 0.48258 0.0
C386 C 0.74559 0.3868 0.4766 0.0
C387 C 0.75755 0.40062 0.62704 0.0
C388 C 0.77511 0.37992 0.63622 0.0
H389 H 0.73361 0.38807 0.41561 0.0
H390 H 0.75565 0.41433 0.68352 0.0
H391 H 0.69316 0.39044 0.50669 0.0
H392 H 0.64339 0.41076 0.72757 0.0
H393 H 0.81044 0.48397 0.50662 0.0
H394 H 0.76458 0.35243 0.42494 0.0
H395 H 0.7865 0.37823 0.6995 0.0
C396 C 0.63125 0.28926 0.8843 0.0
C397 C 0.6311 0.29026 0.78839 0.0
N398 N 0.62643 0.31491 0.76368 0.0
N399 N 0.6279 0.3134 0.91893 0.0
C400 C 0.62513 0.32856 0.84355 0.0
H401 H 0.63266 0.27182 0.92586 0.0
Co402 Co 0.61891 0.32137 1.04012 0.0
C403 C 0.6373 0.37477 0.09381 0.0
O404 O 0.61251 0.38116 0.10256 0.0
N405 N 0.60943 0.32832 0.16213 0.0
C406 C 0.6103 0.34141 0.31 0.0
C407 C 0.6249 0.33122 0.23793 0.0
C408 C 0.58573 0.33627 0.19007 0.0
N409 N 0.58588 0.34511 0.278 0.0
O410 O 0.58746 0.34094 0.98717 0.0
H411 H 0.64575 0.3275 0.23937 0.0
H412 H 0.56851 0.33588 0.14672 0.0
O413 O 0.64287 0.35332 1.05133 0.0
C414 C 0.56841 0.32571 0.96399 0.0
O415 O 0.57038 0.30127 0.98891 0.0
N416 N 0.64666 0.29992 0.08174 0.0
C417 C 0.68218 0.25845 0.08789 0.0
C418 C 0.69001 0.28306 1.05588 0.0
C419 C 0.67197 0.30354 1.05319 0.0
C420 C 0.63916 0.27679 0.11953 0.0
C421 C 0.65662 0.25585 0.12362 0.0
H422 H 0.67779 0.32149 1.0202 0.0
H423 H 0.61889 0.27386 0.13909 0.0
H424 H 0.62169 0.34925 0.84712 0.0
H425 H 0.6339 0.27428 0.74066 0.0
H426 H 0.61708 0.34614 0.37934 0.0
H427 H 0.7096 0.28619 1.0289 0.0
H428 H 0.64947 0.2373 0.14826 0.0
C429 C 0.7488 0.63602 0.84568 0.0
C430 C 0.74272 0.63158 0.75366 0.0
N431 N 0.71773 0.62352 0.75094 0.0
N432 N 0.72748 0.63116 0.89923 0.0
C433 C 0.70861 0.62479 0.839 0.0
H434 H 0.76832 0.63911 0.87245 0.0
Co435 Co 0.72982 0.61744 1.01665 0.0
C436 C 0.67733 0.62721 0.11781 0.0
O437 O 0.67673 0.60258 0.14116 0.0
N438 N 0.73396 0.60314 0.13301 0.0
C439 C 0.74115 0.59732 0.28398 0.0
C440 C 0.73115 0.61396 0.21807 0.0
C441 C 0.74597 0.58041 0.1483 0.0
N442 N 0.7506 0.57631 0.23954 0.0
O443 O 0.71259 0.58404 0.96683 0.0
H444 H 0.72333 0.6331 0.23094 0.0
H445 H 0.75231 0.56771 0.0928 0.0
O446 O 0.69562 0.63497 1.06151 0.0
C447 C 0.7272 0.57121 0.90853 0.0
O448 O 0.75148 0.57909 0.89757 0.0
N449 N 0.74905 0.6472 1.05458 0.0
C450 C 0.78469 0.68853 0.07304 0.0
C451 C 0.75824 0.69305 1.05042 0.0
C452 C 0.74072 0.67213 1.04162 0.0
C453 C 0.77433 0.64251 0.07971 0.0
C454 C 0.7922 0.66277 0.091 0.0
H455 H 0.72096 0.67588 1.01837 0.0
H456 H 0.78111 0.62277 0.08715 0.0
H457 H 0.68942 0.61813 0.86079 0.0
H458 H 0.75605 0.63215 0.6948 0.0
H459 H 0.74147 0.6005 0.35852 0.0
H460 H 0.75134 0.7124 1.0348 0.0
H461 H 0.81203 0.65801 0.11119 0.0
C462 C 0.40038 0.74267 0.86765 0.0
C463 C 0.40455 0.73813 0.77431 0.0
N464 N 0.41515 0.71443 0.76656 0.0
N465 N 0.408 0.72171 0.91745 0.0
C466 C 0.41573 0.70441 0.85341 0.0
H467 H 0.39572 0.76132 0.89755 0.0
Co468 Co 0.42285 0.72511 1.03332 0.0
C469 C 0.4178 0.67361 0.13921 0.0
O470 O 0.44272 0.67532 0.16077 0.0
N471 N 0.43819 0.73054 0.14772 0.0
C472 C 0.44545 0.73778 0.29779 0.0
C473 C 0.42807 0.7278 0.23435 0.0
C474 C 0.46125 0.74257 0.15978 0.0
N475 N 0.46627 0.74717 0.25044 0.0
O476 O 0.45726 0.71014 0.9789 0.0
H477 H 0.40904 0.71965 0.25012 0.0
H478 H 0.47373 0.74858 0.10259 0.0
O479 O 0.40828 0.69025 0.08089 0.0
C480 C 0.46907 0.72485 0.91819 0.0
O481 O 0.45985 0.74842 0.90711 0.0
N482 N 0.39151 0.74158 0.07628 0.0
C483 C 0.34619 0.77092 0.11112 0.0
C484 C 0.34439 0.74516 0.08085 0.0
C485 C 0.36729 0.73072 0.06471 0.0
C486 C 0.39355 0.76662 0.10589 0.0
C487 C 0.37118 0.78143 0.12538 0.0
H488 H 0.36551 0.71124 1.03798 0.0
H489 H 0.41266 0.77551 0.11162 0.0
H490 H 0.42484 0.68614 0.87129 0.0
H491 H 0.40242 0.75196 0.71797 0.0
H492 H 0.44304 0.73783 0.37281 0.0
H493 H 0.32545 0.73641 0.0684 0.0
H494 H 0.3734 0.80136 0.14753 0.0
C495 C 0.32868 0.41666 0.89699 0.0
C496 C 0.3343 0.3928 0.86058 0.0
N497 N 0.33717 0.37618 0.93219 0.0
N498 N 0.32813 0.41479 0.9909 0.0
C499 C 0.33449 0.39008 1.01016 0.0
H500 H 0.3224 0.43319 0.85678 0.0
Co501 Co 0.30838 0.43463 0.06907 0.0
C502 C 0.33485 0.42197 0.2683 0.0
O503 O 0.31543 0.43137 0.31803 0.0
N504 N 0.28719 0.45453 0.14353 0.0
C505 C 0.25067 0.47325 0.19469 0.0
C506 C 0.26096 0.45585 0.13241 0.0
C507 C 0.29259 0.47179 0.2106 0.0
N508 N 0.27063 0.48295 0.2442 0.0
O509 O 0.32895 0.46631 1.02872 0.0
H510 H 0.24998 0.44509 0.08119 0.0
H511 H 0.31224 0.47648 0.2331 0.0
O512 O 0.33375 0.42371 0.17781 0.0
C513 C 0.318 0.47737 0.95756 0.0
O514 O 0.29517 0.46832 0.93094 0.0
N515 N 0.286 0.40539 0.09124 0.0
C516 C 0.25175 0.36279 0.0891 0.0
C517 C 0.26472 0.37 0.17135 0.0
C518 C 0.28191 0.39132 0.17092 0.0
C519 C 0.27258 0.39919 1.01214 0.0
C520 C 0.25584 0.37783 1.00902 0.0
H521 H 0.29165 0.39628 0.23457 0.0
H522 H 0.27512 0.4109 0.95009 0.0
H523 H 0.33355 0.38162 0.07925 0.0
H524 H 0.33474 0.38773 0.78737 0.0
H525 H 0.23023 0.47833 0.20321 0.0
H526 H 0.26191 0.35902 0.23508 0.0
H527 H 0.24582 0.37338 0.94459 0.0
C528 C 0.21789 0.30106 1.00815 0.0
C529 C 0.19719 0.29872 0.07254 0.0
H530 H 0.2512 0.32321 0.96261 0.0
C531 C 0.19517 0.3171 0.14461 0.0
H532 H 0.21999 0.28721 0.952 0.0
C533 C 0.21332 0.33741 0.15178 0.0
C534 C 0.23361 0.34013 0.08597 0.0
H535 H 0.17962 0.31564 0.19596 0.0
H536 H 0.21109 0.35138 0.20748 0.0
C537 C 0.23571 0.32168 1.01417 0.0
C538 C 0.71515 0.23218 0.99607 0.0
C539 C 0.69964 0.23526 0.07682 0.0
H540 H 0.74186 0.20822 0.91938 0.0
C541 C 0.7001 0.2154 0.14431 0.0
H542 H 0.71494 0.24671 0.94144 0.0
C543 C 0.71555 0.19319 0.1314 0.0
C544 C 0.73095 0.19006 1.05042 0.0
H545 H 0.6887 0.21712 0.20782 0.0
H546 H 0.71572 0.17864 0.18593 0.0
C547 C 0.73056 0.20996 0.98311 0.0
C548 C 0.7985 0.7356 0.09895 0.0
C549 C 0.8048 0.70995 0.073 0.0
H550 H 0.81258 0.77443 0.12284 0.0
C551 C 0.83088 0.70472 1.04638 0.0
H552 H 0.77877 0.74056 0.1202 0.0
C553 C 0.85015 0.72395 1.04957 0.0
C554 C 0.84402 0.74929 0.07759 0.0
H555 H 0.83662 0.68568 1.02245 0.0
H556 H 0.87003 0.71896 1.02998 0.0
C557 C 0.81787 0.75508 0.10064 0.0
C558 C 0.31668 0.7987 0.20981 0.0
C559 C 0.32236 0.78733 0.12334 0.0
H560 H 0.2919 0.82394 0.28804 0.0
C561 C 0.30606 0.79306 1.04728 0.0
H562 H 0.32876 0.79441 0.26987 0.0
C563 C 0.28532 0.81082 1.05639 0.0
C564 C 0.27999 0.82301 0.14243 0.0
H565 H 0.31008 0.78465 0.97959 0.0
H566 H 0.27423 0.81574 0.99467 0.0
C567 C 0.29559 0.81592 0.21965 0.0
C568 C 0.22386 0.71723 0.52027 0.0
C569 C 0.22382 0.73917 0.57825 0.0
H570 H 0.24392 0.6832 0.47489 0.0
C571 C 0.24599 0.74372 0.63408 0.0
H572 H 0.20736 0.71322 0.47531 0.0
C573 C 0.26732 0.72641 0.63334 0.0
C574 C 0.26716 0.70433 0.57571 0.0
H575 H 0.24662 0.76035 0.67984 0.0
H576 H 0.28395 0.73034 0.67772 0.0
C577 C 0.24511 0.70014 0.51906 0.0
C578 C 0.33548 0.22567 0.49155 0.0
C579 C 0.35588 0.22908 0.55588 0.0
H580 H 0.30084 0.20451 0.45532 0.0
C581 C 0.35604 0.21368 0.63712 0.0
H582 H 0.33473 0.23732 0.42865 0.0
C583 C 0.3363 0.19525 0.65342 0.0
C584 C 0.31623 0.19149 0.58802 0.0
H585 H 0.37125 0.21615 0.68877 0.0
H586 H 0.33706 0.18349 0.71606 0.0
C587 C 0.31607 0.20694 0.50696 0.0
C588 C 0.81537 0.33601 0.49157 0.0
C589 C 0.79902 0.34147 0.56832 0.0
H590 H 0.84766 0.31398 0.4378 0.0
C591 C 0.80306 0.32745 0.65157 0.0
H592 H 0.81305 0.34649 0.42659 0.0
C593 C 0.82299 0.30873 0.65805 0.0
C594 C 0.83971 0.30374 0.58191 0.0
H595 H 0.79076 0.33093 0.71194 0.0
H596 H 0.82564 0.29854 0.72344 0.0
C597 C 0.83547 0.31754 0.4984 0.0
C598 C 0.7421 0.79958 0.62214 0.0
C599 C 0.74615 0.81445 0.54103 0.0
H600 H 0.71933 0.76977 0.68934 0.0
C601 C 0.73094 0.80901 0.46191 0.0
H602 H 0.75339 0.80347 0.68434 0.0
C603 C 0.71183 0.7895 0.46415 0.0
C604 C 0.70698 0.77528 0.54627 0.0
H605 H 0.73359 0.82017 0.39846 0.0
H606 H 0.7001 0.78624 0.4025 0.0
C607 C 0.72252 0.78042 0.62509 0.0
C608 C 0.02737 0.20271 0.42873 0.0
C609 C 1.0007 0.20186 0.40218 0.0
H610 H 0.06801 0.20286 0.38593 0.0
C611 C 0.9957 0.19739 0.3068 0.0
H612 H 0.0323 0.20721 0.50029 0.0
C613 C 1.01637 0.1954 0.24039 0.0
C614 C 0.04304 0.19718 0.26637 0.0
H615 H 0.9757 0.19777 0.28195 0.0
H616 H 1.01138 0.19433 0.16715 0.0
C617 C 0.04805 0.20012 0.36259 0.0
C618 C 0.82785 0.98368 0.27974 0.0
C619 C 0.82659 0.98511 0.3784 0.0
H620 H 0.82628 1.00357 0.14717 0.0
C621 C 0.82591 1.01022 0.41682 0.0
H622 H 0.82694 0.96499 0.24619 0.0
C623 C 0.82506 0.03267 0.35888 0.0
C624 C 0.82527 0.03109 0.26009 0.0
H625 H 0.82366 1.01251 0.49147 0.0
H626 H 0.82215 0.05134 0.39166 0.0
C627 C 0.82744 1.00607 0.22202 0.0
C628 C 0.05608 0.81147 0.29019 0.0
C629 C 0.05551 0.81918 0.38524 0.0
H630 H 0.03558 0.8077 0.15938 0.0
C631 C 0.03292 0.83235 0.41555 0.0
H632 H 0.07291 0.80107 0.2634 0.0
C633 C 1.01115 0.83582 0.3551 0.0
C634 C 1.01133 0.82702 0.26125 0.0
H635 H 0.03124 0.83828 0.48769 0.0
H636 H 0.9934 0.84417 0.38371 0.0
C637 C 0.03464 0.81553 0.2293 0.0
C638 C 0.20743 1.0149 0.45798 0.0
C639 C 0.21893 0.03747 0.42122 0.0
H640 H 0.19621 0.97529 0.43388 0.0
C641 C 0.22443 0.03764 0.32398 0.0
H642 H 0.20322 1.01361 0.53193 0.0
C643 C 0.22 1.01573 0.26675 0.0
C644 C 0.21025 0.99255 0.30487 0.0
H645 H 0.2334 0.05456 0.29241 0.0
H646 H 0.22609 1.01638 0.19434 0.0
C647 C 0.20343 0.99283 0.40105 0.0
C648 C 0.04116 0.75955 0.76822 0.0
C649 C 0.06324 0.76755 0.81931 0.0
H650 H 0.99984 0.75212 0.77123 0.0
C651 C 0.06136 0.76879 0.91703 0.0
H652 H 0.04204 0.75744 0.69328 0.0
C653 C 0.03738 0.76508 0.96126 0.0
C654 C 1.0148 0.76021 0.90893 0.0
H655 H 0.07779 0.77454 0.95943 0.0
H656 H 0.03601 0.76804 1.03587 0.0
C657 C 1.01705 0.75598 0.81281 0.0
C658 C 0.29406 0.99798 0.93268 0.0
C659 C 0.27494 0.979 0.91709 0.0
H660 H 0.30897 0.0351 0.89216 0.0
C661 C 0.25809 0.98139 0.84049 0.0
H662 H 0.30711 0.9966 0.99178 0.0
C663 C 0.25892 1.00338 0.78457 0.0
C664 C 0.27679 0.02321 0.80395 0.0
H665 H 0.24354 0.96667 0.82629 0.0
H666 H 0.24523 1.00514 0.72744 0.0
C667 C 0.29499 0.02 0.87623 0.0
C668 C 0.03043 0.23143 0.73721 0.0
C669 C 1.0081 0.21865 0.77058 0.0
H670 H 0.07211 0.2336 0.74119 0.0
C671 C 1.01039 0.19562 0.8213 0.0
H672 H 0.02873 0.24872 0.69468 0.0
C673 C 0.03503 0.18679 0.84663 0.0
C674 C 0.05735 0.20083 0.82002 0.0
H675 H 0.99309 0.18531 0.8448 0.0
H676 H 0.0367 0.17022 0.89274 0.0
C677 C 0.05505 0.2224 0.76122 0.0
C678 C 0.76567 1.01367 0.78257 0.0
C679 C 0.77892 0.01889 0.8659 0.0
H680 H 0.75641 0.98522 0.67988 0.0
C681 C 0.78914 0.9982 0.91839 0.0
H682 H 0.75687 0.02913 0.74229 0.0
C683 C 0.78864 0.97318 0.88321 0.0
C684 C 0.77808 0.96852 0.79485 0.0
H685 H 0.79946 1.00147 0.98299 0.0
H686 H 0.79874 0.95806 0.9212 0.0
C687 C 0.76522 0.9886 0.74731 0.0
C688 C 0.51313 0.72338 0.69858 0.0
C689 C 0.53422 0.70735 0.7238 0.0
H690 H 0.47682 0.74125 0.73877 0.0
C691 C 0.53255 0.69509 0.81244 0.0
H692 H 0.51386 0.73401 0.63336 0.0
C693 C 0.51092 0.69903 0.87388 0.0
C694 C 0.49057 0.71627 0.85046 0.0
H695 H 0.54879 0.68337 0.83648 0.0
H696 H 0.51102 0.68988 0.9419 0.0
C697 C 0.49197 0.72789 0.76065 0.0
C698 C 0.32665 0.49777 0.7992 0.0
C699 C 0.33006 0.49852 0.89736 0.0
H700 H 0.32789 0.51825 0.66755 0.0
C701 C 0.34056 0.52138 0.93483 0.0
H702 H 0.31838 0.48065 0.76725 0.0
C703 C 0.34563 0.54319 0.87709 0.0
C704 C 0.341 0.54284 0.77952 0.0
H705 H 0.34308 0.52311 1.0095 0.0
H706 H 0.35204 0.56095 0.90993 0.0
C707 C 0.33227 0.51937 0.74125 0.0
C708 C 0.54657 0.34749 0.82192 0.0
C709 C 0.54471 0.33308 0.90558 0.0
H710 H 0.52933 0.35622 0.68753 0.0
C711 C 0.52068 0.32033 0.9229 0.0
H712 H 0.56462 0.35748 0.8055 0.0
C713 C 0.50014 0.32038 0.85725 0.0
C714 C 0.50265 0.33295 0.7704 0.0
H715 H 0.5183 0.30878 0.98557 0.0
H716 H 0.48295 0.30871 0.87167 0.0
C717 C 0.52609 0.34699 0.75451 0.0
C718 C 0.72699 0.54982 0.74926 0.0
C719 C 0.71802 0.54983 0.84311 0.0
H720 H 0.7329 0.52857 0.62131 0.0
C721 C 0.70501 0.52735 0.8742 0.0
H722 H 0.73749 0.56649 0.72235 0.0
C723 C 0.70275 0.50524 0.8157 0.0
C724 C 0.71265 0.50495 0.72299 0.0
H725 H 0.69837 0.52606 0.94588 0.0
H726 H 0.69456 0.48766 0.84515 0.0
C727 C 0.72412 0.52803 0.6902 0.0
C728 C 0.54243 0.36449 0.27675 0.0
C729 C 0.56299 0.35307 0.32735 0.0
H730 H 0.50079 0.36622 0.25956 0.0
C731 C 0.55812 0.34294 0.41637 0.0
H732 H 0.54606 0.37318 0.20909 0.0
C733 C 0.53236 0.33967 0.44589 0.0
C734 C 0.51176 0.34654 0.38623 0.0
H735 H 0.57373 0.33434 0.45691 0.0
H736 H 0.52845 0.32893 0.50945 0.0
C737 C 0.5167 0.36062 0.30509 0.0
C738 C 0.77341 0.55447 0.36963 0.0
C739 C 0.76204 0.55357 0.2805 0.0
H740 H 0.78724 0.53242 0.48656 0.0
C741 C 0.76016 0.52965 0.23451 0.0
H742 H 0.77564 0.57268 0.40592 0.0
C743 C 0.76722 0.50692 0.27997 0.0
C744 C 0.77633 0.50767 0.37181 0.0
H745 H 0.75144 0.52817 0.16613 0.0
H746 H 0.76358 0.48849 0.24643 0.0
C747 C 0.78058 0.53159 0.41503 0.0
C748 C 0.51387 0.77421 0.42222 0.0
C749 C 0.53758 0.76918 0.37613 0.0
H750 H 0.47211 0.77115 0.41745 0.0
C751 C 0.5373 0.76084 0.28336 0.0
H752 H 0.51379 0.7803 0.49442 0.0
C753 C 0.5137 0.7552 0.23983 0.0
C754 C 0.48994 0.75771 0.28876 0.0
H755 H 0.55552 0.7566 0.24752 0.0
H756 H 0.51436 0.74694 0.17063 0.0
C757 C 0.49014 0.76846 0.37879 0.0
C758 C 0.28753 0.51953 0.45755 0.0
C759 C 0.27233 0.54194 0.44604 0.0
H760 H 0.29889 0.48301 0.4008 0.0
C761 C 0.25368 0.54307 0.37475 0.0
H762 H 0.30171 0.51819 0.51331 0.0
C763 C 0.25203 0.52288 0.31042 0.0
C764 C 0.26913 0.50164 0.31716 0.0
H765 H 0.24192 0.56031 0.36477 0.0
H766 H 0.23873 0.52465 0.25215 0.0
C767 C 0.28608 0.4996 0.39324 0.0
C768 C 0.17599 0.19412 0.53489 0.0
C769 C 0.19788 0.18634 0.48294 0.0
H770 H 0.14258 0.21883 0.53462 0.0
C771 C 0.20934 0.2035 0.419 0.0
H772 H 0.16748 0.18136 0.58688 0.0
C773 C 0.19554 0.22538 0.39163 0.0
C774 C 0.16984 0.22863 0.42424 0.0
H775 H 0.22698 0.19817 0.38144 0.0
H776 H 0.20223 0.23596 0.33067 0.0
C777 C 0.16202 0.21584 0.50615 0.0
C778 C 0.81144 0.18983 0.36847 0.0
C779 C 0.81202 0.18149 0.27567 0.0
H780 H 0.83146 0.21191 0.47111 0.0
C781 C 0.82506 0.19666 0.20862 0.0
H782 H 0.80034 0.17945 0.42104 0.0
C783 C 0.84373 0.21437 0.23767 0.0
C784 C 0.84848 0.21707 0.33335 0.0
H785 H 0.82405 0.19189 0.13523 0.0
H786 H 0.85699 0.22233 0.18602 0.0
C787 C 0.82954 0.20819 0.3972 0.0
C788 C 0.87127 0.91747 0.13006 0.0
C789 C 0.86828 0.92708 0.22071 0.0
H790 H 0.89723 0.89668 1.0424 0.0
C791 C 0.89047 0.93756 0.26472 0.0
H792 H 0.85452 0.91103 0.09036 0.0
C793 C 0.91501 0.92815 0.23914 0.0
C794 C 0.91622 0.90953 0.16861 0.0
H795 H 0.88861 0.94775 0.3303 0.0
H796 H 0.93109 0.93027 0.28754 0.0
C797 C 0.89608 0.90943 0.10197 0.0
C798 C 0.09901 0.89786 0.25586 0.0
C799 C 0.1188 0.9017 0.18938 0.0
H800 H 0.08415 0.86944 0.35048 0.0
C801 C 0.12208 0.8819 0.1229 0.0
H802 H 0.09347 0.9135 0.30208 0.0
C803 C 0.1188 0.85643 0.15347 0.0
C804 C 0.109 0.85242 0.24366 0.0
H805 H 0.13467 0.88494 1.06313 0.0
H806 H 0.12863 0.84102 0.11606 0.0
C807 C 0.09426 0.87248 0.28486 0.0
C808 C 0.911 0.87786 0.84435 0.0
C809 C 0.91311 0.85125 0.82399 0.0
H810 H 0.89433 0.91492 0.8086 0.0
C811 C 0.89992 0.84268 0.74257 0.0
H812 H 0.92081 0.8856 0.90492 0.0
C813 C 0.88472 0.85958 0.6862 0.0
C814 C 0.88187 0.88602 0.70822 0.0
H815 H 0.90076 0.82247 0.72288 0.0
H816 H 0.87474 0.8517 0.62623 0.0
C817 C 0.8957 0.8948 0.78803 0.0
C818 C 0.14109 0.88543 0.81666 0.0
C819 C 0.15049 0.87036 0.7408 0.0
H820 H 0.15 0.90975 0.93496 0.0
C821 C 0.17784 0.86998 0.72748 0.0
H822 H 0.12026 0.88652 0.83039 0.0
C823 C 0.19497 0.8832 0.7888 0.0
C824 C 0.18567 0.89755 0.86656 0.0
H825 H 0.18622 0.85882 0.671 0.0
H826 H 0.21582 0.88152 0.77617 0.0
C827 C 0.15826 0.8988 0.87776 0.0
C828 C 0.20309 0.13664 0.94969 0.0
C829 C 0.19585 0.12483 0.86405 0.0
H830 H 0.19118 0.15767 0.07349 0.0
C831 C 0.16907 0.12579 0.84121 0.0
H832 H 0.22345 0.13674 0.97057 0.0
C833 C 0.15042 0.13733 0.90205 0.0
C834 C 0.15761 0.14912 0.98774 0.0
H835 H 0.16237 0.11724 0.77669 0.0
H836 H 0.13009 0.13728 0.88079 0.0
C837 C 0.1845 0.14883 1.00947 0.0
C838 C 0.87715 0.12499 0.79728 0.0
C839 C 0.86616 0.13048 0.88655 0.0
H840 H 0.89785 0.13901 0.67456 0.0
C841 C 0.86835 0.15623 0.91731 0.0
H842 H 0.87586 0.10558 0.76937 0.0
C843 C 0.88114 0.17538 0.86258 0.0
C844 C 0.89221 0.17003 0.77339 0.0
H845 H 0.86022 0.1617 0.98428 0.0
H846 H 0.88223 0.19475 0.89103 0.0
C847 C 0.88975 0.14433 0.74172 0.0
C848 C 0.70336 0.63043 0.59162 0.0
C849 C 0.70298 0.61518 0.67223 0.0
H850 H 0.67962 0.65023 0.494 0.0
C851 C 0.68185 0.59816 0.68676 0.0
H852 H 0.72008 0.64255 0.5753 0.0
C853 C 0.65831 0.60303 0.64178 0.0
C854 C 0.6565 0.62514 0.58531 0.0
H855 H 0.68184 0.58477 0.74497 0.0
H856 H 0.64082 0.59334 0.66676 0.0
C857 C 0.67984 0.63495 0.54568 0.0
C858 C 0.41336 0.68273 0.54038 0.0
C859 C 0.42488 0.65984 0.57496 0.0
H860 H 0.39785 0.71901 0.58786 0.0
C861 C 0.44665 0.66322 0.63272 0.0
H862 H 0.39963 0.68198 0.48312 0.0
C863 C 0.44591 0.68404 0.69388 0.0
C864 C 0.42582 0.70254 0.68491 0.0
H865 H 0.45921 0.64701 0.64991 0.0
H866 H 0.45813 0.68334 0.75513 0.0
C867 C 0.4122 0.70396 0.60034 0.0
C868 C 0.3589 0.33682 0.98518 0.0
C869 C 0.34075 0.34891 0.92646 0.0
H870 H 0.38855 0.30796 0.99203 0.0
C871 C 0.33035 0.33529 0.8508 0.0
H872 H 0.36639 0.34666 1.0461 0.0
C873 C 0.34266 0.31279 0.82123 0.0
C874 C 0.36591 0.30518 0.86507 0.0
H875 H 0.3152 0.34377 0.80779 0.0
H876 H 0.33752 0.30489 0.75381 0.0
C877 C 0.3713 0.31439 0.9549 0.0
C878 C 0.66275 0.34753 0.5882 0.0
C879 C 0.64838 0.37071 0.59403 0.0
H880 H 0.66554 0.30887 0.64014 0.0
C881 C 0.62165 0.36965 0.61562 0.0
H882 H 0.68326 0.34769 0.56877 0.0
C883 C 0.61135 0.34699 0.65334 0.0
C884 C 0.62824 0.32632 0.67336 0.0
H885 H 0.60997 0.38716 0.61662 0.0
H886 H 0.59196 0.3475 0.6836 0.0
C887 C 0.65251 0.32509 0.62803 0.0
C888 C 0.3547 0.40227 0.41791 0.0
C889 C 0.35569 0.40601 0.3194 0.0
H890 H 0.37 0.38245 0.53989 0.0
C891 C 0.37576 0.39295 0.27151 0.0
H892 H 0.33963 0.41181 0.45856 0.0
C893 C 0.39334 0.37634 0.31886 0.0
C894 C 0.39182 0.37168 0.41661 0.0
H895 H 0.37754 0.39499 0.19656 0.0
H896 H 0.40794 0.3664 0.27725 0.0
C897 C 0.37235 0.38545 0.46556 0.0
C898 C 0.66613 0.41671 0.2922 0.0
C899 C 0.69339 0.41533 0.27792 0.0
H900 H 0.62769 0.40584 0.24611 0.0
C901 C 0.70208 0.40056 0.20026 0.0
H902 H 0.65839 0.42745 0.35093 0.0
C903 C 0.68437 0.3875 0.14044 0.0
C904 C 0.6571 0.38918 0.15415 0.0
H905 H 0.72284 0.39852 0.18652 0.0
H906 H 0.69209 0.3761 0.08334 0.0
C907 C 0.64843 0.4042 0.23115 0.0
C908 C 0.65845 0.67268 0.14997 0.0
C909 C 0.65924 0.64594 0.16979 0.0
H910 H 0.64361 0.7103 0.18652 0.0
C911 C 0.64345 0.63723 0.24536 0.0
H912 H 0.67019 0.68048 0.09344 0.0
C913 C 0.62818 0.65448 0.30006 0.0
C914 C 0.62774 0.6813 0.2813 0.0
H915 H 0.64338 0.61692 0.26438 0.0
H916 H 0.61714 0.64679 0.35852 0.0
C917 C 0.64296 0.6899 0.20403 0.0
C918 C 0.35865 0.63315 0.22855 0.0
C919 C 0.36787 0.62263 0.31385 0.0
H920 H 0.36631 0.65736 0.10813 0.0
C921 C 0.39389 0.62854 0.33828 0.0
H922 H 0.3387 0.62953 0.20685 0.0
C923 C 0.4099 0.64427 0.28043 0.0
C924 C 0.40053 0.65527 0.19615 0.0
H925 H 0.40193 0.62111 0.40277 0.0
H926 H 0.42963 0.64836 0.30351 0.0
C927 C 0.37452 0.64934 0.17145 0.0
loop_
_geom_bond_atom_site_label_1
_geom_bond_atom_site_label_2
_geom_bond_distance
_geom_bond_site_symmetry_2
_ccdc_geom_bond_type
C0 C1 1.351 . S
C0 N3 1.368 . S
C0 H5 0.931 . S
C1 C0 1.351 . S
C1 N2 1.373 . S
C1 H29 0.930 . S
N2 C1 1.373 . S
N2 C4 1.340 . S
N3 C0 1.368 . S
N3 C4 1.321 . S
N3 Co6 2.135 . S
C4 N2 1.340 . S
C4 N3 1.321 . S
C4 H28 0.930 . S
H5 C0 0.931 . S
Co6 N3 2.135 . S
Co6 N9 2.121 1_554 S
Co6 O14 2.055 . S
Co6 O17 2.039 1_554 S
Co6 N20 2.140 . S
C7 O8 1.227 . S
C7 O17 1.265 . S
O8 C7 1.227 . S
N9 Co6 2.121 1_556 S
N9 C11 1.375 . S
N9 C12 1.313 . S
C10 C11 1.338 . S
C10 N13 1.377 . S
C10 H30 0.930 . S
C11 N9 1.375 . S
C11 C10 1.338 . S
C11 H15 0.931 . S
C12 N9 1.313 . S
C12 N13 1.344 . S
C12 H16 0.930 . S
N13 C10 1.377 . S
N13 C12 1.344 . S
O14 Co6 2.055 . S
O14 C18 1.253 . S
H15 C11 0.931 . S
H16 C12 0.930 . S
O17 Co6 2.039 1_556 S
O17 C7 1.265 . S
C18 O14 1.253 . S
C18 O19 1.227 . S
O19 C18 1.227 . S
N20 Co6 2.140 . S
N20 C23 1.346 . S
N20 C24 1.345 1_554 S
C21 C22 1.386 1_556 S
C21 C25 1.392 . S
C22 C21 1.386 1_554 S
C22 C23 1.369 . S
C22 H31 0.929 . S
C23 N20 1.346 . S
C23 C22 1.369 . S
C23 H26 0.928 . S
C24 N20 1.345 1_556 S
C24 C25 1.371 . S
C24 H27 0.931 . S
C25 C21 1.392 . S
C25 C24 1.371 . S
C25 H32 0.930 . S
H26 C23 0.928 . S
H27 C24 0.931 . S
H28 C4 0.930 . S
H29 C1 0.930 . S
H30 C10 0.930 . S
H31 C22 0.929 . S
H32 C25 0.930 . S
C33 C34 1.351 . S
C33 N36 1.368 . S
C33 H38 0.931 . S
C34 C33 1.351 . S
C34 N35 1.373 . S
C34 H62 0.930 . S
N35 C34 1.373 . S
N35 C37 1.340 . S
N36 C33 1.368 . S
N36 C37 1.321 . S
N36 Co39 2.135 . S
C37 N35 1.340 . S
C37 N36 1.321 . S
C37 H61 0.930 . S
H38 C33 0.931 . S
Co39 N36 2.135 . S
Co39 N42 2.121 1_554 S
Co39 O47 2.055 . S
Co39 O50 2.039 1_554 S
Co39 N53 2.140 . S
C40 O41 1.227 . S
C40 O50 1.265 . S
O41 C40 1.227 . S
N42 Co39 2.121 1_556 S
N42 C44 1.375 . S
N42 C45 1.313 . S
C43 C44 1.338 . S
C43 N46 1.377 . S
C43 H63 0.930 . S
C44 N42 1.375 . S
C44 C43 1.338 . S
C44 H48 0.931 . S
C45 N42 1.313 . S
C45 N46 1.344 . S
C45 H49 0.930 . S
N46 C43 1.377 . S
N46 C45 1.344 . S
O47 Co39 2.055 . S
O47 C51 1.253 . S
H48 C44 0.931 . S
H49 C45 0.930 . S
O50 Co39 2.039 1_556 S
O50 C40 1.265 . S
C51 O47 1.253 . S
C51 O52 1.227 . S
O52 C51 1.227 . S
N53 Co39 2.140 . S
N53 C56 1.346 . S
N53 C57 1.345 1_554 S
C54 C55 1.386 1_556 S
C54 C58 1.392 . S
C55 C54 1.386 1_554 S
C55 C56 1.369 . S
C55 H64 0.929 . S
C56 N53 1.346 . S
C56 C55 1.369 . S
C56 H59 0.928 . S
C57 N53 1.345 1_556 S
C57 C58 1.371 . S
C57 H60 0.931 . S
C58 C54 1.392 . S
C58 C57 1.371 . S
C58 H65 0.930 . S
H59 C56 0.928 . S
H60 C57 0.931 . S
H61 C37 0.930 . S
H62 C34 0.930 . S
H63 C43 0.930 . S
H64 C55 0.929 . S
H65 C58 0.930 . S
C66 C67 1.351 . S
C66 N69 1.368 . S
C66 H71 0.931 . S
C67 C66 1.351 . S
C67 N68 1.373 . S
C67 H95 0.930 . S
N68 C67 1.373 . S
N68 C70 1.340 . S
N69 C66 1.368 . S
N69 C70 1.321 . S
N69 Co72 2.135 . S
C70 N68 1.340 . S
C70 N69 1.321 . S
C70 H94 0.930 . S
H71 C66 0.931 . S
Co72 N69 2.135 . S
Co72 N75 2.121 1_554 S
Co72 O80 2.055 . S
Co72 O83 2.039 1_554 S
Co72 N86 2.140 . S
C73 O74 1.227 . S
C73 O83 1.265 . S
O74 C73 1.227 . S
N75 Co72 2.121 1_556 S
N75 C77 1.375 . S
N75 C78 1.313 . S
C76 C77 1.338 . S
C76 N79 1.377 . S
C76 H96 0.930 . S
C77 N75 1.375 . S
C77 C76 1.338 . S
C77 H81 0.931 . S
C78 N75 1.313 . S
C78 N79 1.344 . S
C78 H82 0.930 . S
N79 C76 1.377 . S
N79 C78 1.344 . S
O80 Co72 2.055 . S
O80 C84 1.253 . S
H81 C77 0.931 . S
H82 C78 0.930 . S
O83 Co72 2.039 1_556 S
O83 C73 1.265 . S
C84 O80 1.253 . S
C84 O85 1.227 . S
O85 C84 1.227 . S
N86 Co72 2.140 . S
N86 C89 1.346 . S
N86 C90 1.345 1_554 S
C87 C88 1.386 1_556 S
C87 C91 1.392 . S
C88 C87 1.386 1_554 S
C88 C89 1.369 . S
C88 H97 0.929 . S
C89 N86 1.346 . S
C89 C88 1.369 . S
C89 H92 0.928 . S
C90 N86 1.345 1_556 S
C90 C91 1.371 . S
C90 H93 0.931 . S
C91 C87 1.392 . S
C91 C90 1.371 . S
C91 H98 0.930 . S
H92 C89 0.928 . S
H93 C90 0.931 . S
H94 C70 0.930 . S
H95 C67 0.930 . S
H96 C76 0.930 . S
H97 C88 0.929 . S
H98 C91 0.930 . S
C99 C100 1.351 . S
C99 N102 1.368 . S
C99 H104 0.931 . S
C100 C99 1.351 . S
C100 N101 1.373 . S
C100 H128 0.930 . S
N101 C100 1.373 . S
N101 C103 1.340 . S
N102 C99 1.368 . S
N102 C103 1.321 . S
N102 Co105 2.135 . S
C103 N101 1.340 . S
C103 N102 1.321 . S
C103 H127 0.930 . S
H104 C99 0.931 . S
Co105 N102 2.135 . S
Co105 N108 2.121 1_554 S
Co105 O113 2.055 . S
Co105 O116 2.039 1_554 S
Co105 N119 2.140 . S
C106 O107 1.227 . S
C106 O116 1.265 . S
O107 C106 1.227 . S
N108 Co105 2.121 1_556 S
N108 C110 1.375 . S
N108 C111 1.313 . S
C109 C110 1.338 . S
C109 N112 1.377 . S
C109 H129 0.930 . S
C110 N108 1.375 . S
C110 C109 1.338 . S
C110 H114 0.931 . S
C111 N108 1.313 . S
C111 N112 1.344 . S
C111 H115 0.930 . S
N112 C109 1.377 . S
N112 C111 1.344 . S
O113 Co105 2.055 . S
O113 C117 1.253 . S
H114 C110 0.931 . S
H115 C111 0.930 . S
O116 Co105 2.039 1_556 S
O116 C106 1.265 . S
C117 O113 1.253 . S
C117 O118 1.227 . S
O118 C117 1.227 . S
N119 Co105 2.140 . S
N119 C122 1.346 . S
N119 C123 1.345 1_554 S
C120 C121 1.386 1_556 S
C120 C124 1.392 . S
C121 C120 1.386 1_554 S
C121 C122 1.369 . S
C121 H130 0.929 . S
C122 N119 1.346 . S
C122 C121 1.369 . S
C122 H125 0.928 . S
C123 N119 1.345 1_556 S
C123 C124 1.371 . S
C123 H126 0.931 . S
C124 C120 1.392 . S
C124 C123 1.371 . S
C124 H131 0.930 . S
H125 C122 0.928 . S
H126 C123 0.931 . S
H127 C103 0.930 . S
H128 C100 0.930 . S
H129 C109 0.930 . S
H130 C121 0.929 . S
H131 C124 0.930 . S
C132 C133 1.351 . S
C132 N135 1.368 . S
C132 H137 0.931 . S
C133 C132 1.351 . S
C133 N134 1.373 . S
C133 H161 0.930 . S
N134 C133 1.373 . S
N134 C136 1.340 . S
N135 C132 1.368 . S
N135 C136 1.321 . S
N135 Co138 2.135 . S
C136 N134 1.340 . S
C136 N135 1.321 . S
C136 H160 0.930 . S
H137 C132 0.931 . S
Co138 N135 2.135 . S
Co138 N141 2.121 . S
Co138 O146 2.055 . S
Co138 O149 2.039 . S
Co138 N152 2.140 . S
C139 O140 1.227 . S
C139 O149 1.265 . S
O140 C139 1.227 . S
N141 Co138 2.121 . S
N141 C143 1.375 . S
N141 C144 1.313 . S
C142 C143 1.338 . S
C142 N145 1.377 . S
C142 H162 0.930 . S
C143 N141 1.375 . S
C143 C142 1.338 . S
C143 H147 0.931 . S
C144 N141 1.313 . S
C144 N145 1.344 . S
C144 H148 0.930 . S
N145 C142 1.377 . S
N145 C144 1.344 . S
O146 Co138 2.055 . S
O146 C150 1.253 . S
H147 C143 0.931 . S
H148 C144 0.930 . S
O149 Co138 2.039 . S
O149 C139 1.265 . S
C150 O146 1.253 . S
C150 O151 1.227 . S
O151 C150 1.227 . S
N152 Co138 2.140 . S
N152 C155 1.346 . S
N152 C156 1.345 . S
C153 C154 1.387 . S
C153 C157 1.391 . S
C154 C153 1.387 . S
C154 C155 1.369 . S
C154 H163 0.929 . S
C155 N152 1.346 . S
C155 C154 1.369 . S
C155 H158 0.928 . S
C156 N152 1.345 . S
C156 C157 1.371 . S
C156 H159 0.931 . S
C157 C153 1.391 . S
C157 C156 1.371 . S
C157 H164 0.930 . S
H158 C155 0.928 . S
H159 C156 0.931 . S
H160 C136 0.930 . S
H161 C133 0.930 . S
H162 C142 0.930 . S
H163 C154 0.929 . S
H164 C157 0.930 . S
C165 C166 1.351 . S
C165 N168 1.368 . S
C165 H170 0.931 . S
C166 C165 1.351 . S
C166 N167 1.373 . S
C166 H194 0.930 . S
N167 C166 1.373 . S
N167 C169 1.340 . S
N168 C165 1.368 . S
N168 C169 1.321 . S
N168 Co171 2.135 . S
C169 N167 1.340 . S
C169 N168 1.321 . S
C169 H193 0.930 . S
H170 C165 0.931 . S
Co171 N168 2.135 . S
Co171 N174 2.121 . S
Co171 O179 2.055 . S
Co171 O182 2.039 . S
Co171 N185 2.140 . S
C172 O173 1.227 . S
C172 O182 1.265 . S
O173 C172 1.227 . S
N174 Co171 2.121 . S
N174 C176 1.375 . S
N174 C177 1.313 . S
C175 C176 1.338 . S
C175 N178 1.377 . S
C175 H195 0.930 . S
C176 N174 1.375 . S
C176 C175 1.338 . S
C176 H180 0.931 . S
C177 N174 1.313 . S
C177 N178 1.344 . S
C177 H181 0.930 . S
N178 C175 1.377 . S
N178 C177 1.344 . S
O179 Co171 2.055 . S
O179 C183 1.253 . S
H180 C176 0.931 . S
H181 C177 0.930 . S
O182 Co171 2.039 . S
O182 C172 1.265 . S
C183 O179 1.253 . S
C183 O184 1.227 . S
O184 C183 1.227 . S
N185 Co171 2.140 . S
N185 C188 1.346 . S
N185 C189 1.345 . S
C186 C187 1.387 . S
C186 C190 1.391 . S
C187 C186 1.387 . S
C187 C188 1.369 . S
C187 H196 0.929 . S
C188 N185 1.346 . S
C188 C187 1.369 . S
C188 H191 0.928 . S
C189 N185 1.345 . S
C189 C190 1.371 . S
C189 H192 0.931 . S
C190 C186 1.391 . S
C190 C189 1.371 . S
C190 H197 0.930 . S
H191 C188 0.928 . S
H192 C189 0.931 . S
H193 C169 0.930 . S
H194 C166 0.930 . S
H195 C175 0.930 . S
H196 C187 0.929 . S
H197 C190 0.930 . S
C198 C199 1.351 . S
C198 N201 1.368 . S
C198 H203 0.931 . S
C199 C198 1.351 . S
C199 N200 1.373 . S
C199 H227 0.930 . S
N200 C199 1.373 . S
N200 C202 1.340 . S
N201 C198 1.368 . S
N201 C202 1.321 . S
N201 Co204 2.135 . S
C202 N200 1.340 . S
C202 N201 1.321 . S
C202 H226 0.930 . S
H203 C198 0.931 . S
Co204 N201 2.135 . S
Co204 N207 2.121 . S
Co204 O212 2.055 . S
Co204 O215 2.039 . S
Co204 N218 2.140 . S
C205 O206 1.227 . S
C205 O215 1.265 . S
O206 C205 1.227 . S
N207 Co204 2.121 . S
N207 C209 1.375 . S
N207 C210 1.313 . S
C208 C209 1.338 . S
C208 N211 1.377 . S
C208 H228 0.930 . S
C209 N207 1.375 . S
C209 C208 1.338 . S
C209 H213 0.931 . S
C210 N207 1.313 . S
C210 N211 1.344 . S
C210 H214 0.930 . S
N211 C208 1.377 . S
N211 C210 1.344 . S
O212 Co204 2.055 . S
O212 C216 1.253 . S
H213 C209 0.931 . S
H214 C210 0.930 . S
O215 Co204 2.039 . S
O215 C205 1.265 . S
C216 O212 1.253 . S
C216 O217 1.227 . S
O217 C216 1.227 . S
N218 Co204 2.140 . S
N218 C221 1.346 . S
N218 C222 1.345 . S
C219 C220 1.387 . S
C219 C223 1.391 . S
C220 C219 1.387 . S
C220 C221 1.369 . S
C220 H229 0.929 . S
C221 N218 1.346 . S
C221 C220 1.369 . S
C221 H224 0.928 . S
C222 N218 1.345 . S
C222 C223 1.371 . S
C222 H225 0.931 . S
C223 C219 1.391 . S
C223 C222 1.371 . S
C223 H230 0.930 . S
H224 C221 0.928 . S
H225 C222 0.931 . S
H226 C202 0.930 . S
H227 C199 0.930 . S
H228 C208 0.930 . S
H229 C220 0.929 . S
H230 C223 0.930 . S
C231 C232 1.351 . S
C231 N234 1.368 . S
C231 H236 0.931 . S
C232 C231 1.351 . S
C232 N233 1.373 . S
C232 H260 0.930 . S
N233 C232 1.373 . S
N233 C235 1.340 . S
N234 C231 1.368 . S
N234 C235 1.321 . S
N234 Co237 2.135 . S
C235 N233 1.340 . S
C235 N234 1.321 . S
C235 H259 0.930 . S
H236 C231 0.931 . S
Co237 N234 2.135 . S
Co237 N240 2.121 . S
Co237 O245 2.055 . S
Co237 O248 2.039 . S
Co237 N251 2.140 . S
C238 O239 1.227 . S
C238 O248 1.265 . S
O239 C238 1.227 . S
N240 Co237 2.121 . S
N240 C242 1.375 . S
N240 C243 1.313 . S
C241 C242 1.338 . S
C241 N244 1.377 . S
C241 H261 0.930 . S
C242 N240 1.375 . S
C242 C241 1.338 . S
C242 H246 0.931 . S
C243 N240 1.313 . S
C243 N244 1.344 . S
C243 H247 0.930 . S
N244 C241 1.377 . S
N244 C243 1.344 . S
O245 Co237 2.055 . S
O245 C249 1.253 . S
H246 C242 0.931 . S
H247 C243 0.930 . S
O248 Co237 2.039 . S
O248 C238 1.265 . S
C249 O245 1.253 . S
C249 O250 1.227 . S
O250 C249 1.227 . S
N251 Co237 2.140 . S
N251 C254 1.346 . S
N251 C255 1.345 . S
C252 C253 1.387 . S
C252 C256 1.391 . S
C253 C252 1.387 . S
C253 C254 1.369 . S
C253 H262 0.929 . S
C254 N251 1.346 . S
C254 C253 1.369 . S
C254 H257 0.928 . S
C255 N251 1.345 . S
C255 C256 1.371 . S
C255 H258 0.931 . S
C256 C252 1.391 . S
C256 C255 1.371 . S
C256 H263 0.930 . S
H257 C254 0.928 . S
H258 C255 0.931 . S
H259 C235 0.930 . S
H260 C232 0.930 . S
H261 C241 0.930 . S
H262 C253 0.929 . S
H263 C256 0.930 . S
C264 C265 1.351 . S
C264 N267 1.368 . S
C264 H269 0.931 . S
C265 C264 1.351 . S
C265 N266 1.373 . S
C265 H293 0.930 . S
N266 C265 1.373 . S
N266 C268 1.340 . S
N267 C264 1.368 . S
N267 C268 1.321 . S
N267 Co270 2.135 . S
C268 N266 1.340 . S
C268 N267 1.321 . S
C268 H292 0.930 . S
H269 C264 0.931 . S
Co270 N267 2.135 . S
Co270 N273 2.121 . S
Co270 O278 2.055 . S
Co270 O281 2.039 . S
Co270 N284 2.140 . S
C271 O272 1.227 . S
C271 O281 1.265 . S
O272 C271 1.227 . S
N273 Co270 2.121 . S
N273 C275 1.375 . S
N273 C276 1.313 . S
C274 C275 1.338 . S
C274 N277 1.377 . S
C274 H294 0.930 . S
C275 N273 1.375 . S
C275 C274 1.338 . S
C275 H279 0.931 . S
C276 N273 1.313 . S
C276 N277 1.344 . S
C276 H280 0.930 . S
N277 C274 1.377 . S
N277 C276 1.344 . S
O278 Co270 2.055 . S
O278 C282 1.253 . S
H279 C275 0.931 . S
H280 C276 0.930 . S
O281 Co270 2.039 . S
O281 C271 1.265 . S
C282 O278 1.253 . S
C282 O283 1.227 . S
O283 C282 1.227 . S
N284 Co270 2.140 . S
N284 C287 1.346 . S
N284 C288 1.345 . S
C285 C286 1.387 . S
C285 C289 1.391 . S
C286 C285 1.387 . S
C286 C287 1.369 . S
C286 H295 0.929 . S
C287 N284 1.346 . S
C287 C286 1.369 . S
C287 H290 0.928 . S
C288 N284 1.345 . S
C288 C289 1.371 . S
C288 H291 0.931 . S
C289 C285 1.391 . S
C289 C288 1.371 . S
C289 H296 0.930 . S
H290 C287 0.928 . S
H291 C288 0.931 . S
H292 C268 0.930 . S
H293 C265 0.930 . S
H294 C274 0.930 . S
H295 C286 0.929 . S
H296 C289 0.930 . S
C297 C298 1.351 . S
C297 N300 1.368 . S
C297 H302 0.931 . S
C298 C297 1.351 . S
C298 N299 1.373 . S
C298 H326 0.930 . S
N299 C298 1.373 . S
N299 C301 1.340 . S
N300 C297 1.368 . S
N300 C301 1.321 . S
N300 Co303 2.135 . S
C301 N299 1.340 . S
C301 N300 1.321 . S
C301 H325 0.930 . S
H302 C297 0.931 . S
Co303 N300 2.135 . S
Co303 N306 2.121 . S
Co303 O311 2.055 . S
Co303 O314 2.039 . S
Co303 N317 2.140 . S
C304 O305 1.227 . S
C304 O314 1.265 . S
O305 C304 1.227 . S
N306 Co303 2.121 . S
N306 C308 1.375 . S
N306 C309 1.313 . S
C307 C308 1.338 . S
C307 N310 1.377 . S
C307 H327 0.930 . S
C308 N306 1.375 . S
C308 C307 1.338 . S
C308 H312 0.931 . S
C309 N306 1.313 . S
C309 N310 1.344 . S
C309 H313 0.930 . S
N310 C307 1.377 . S
N310 C309 1.344 . S
O311 Co303 2.055 . S
O311 C315 1.253 . S
H312 C308 0.931 . S
H313 C309 0.930 . S
O314 Co303 2.039 . S
O314 C304 1.265 . S
C315 O311 1.253 . S
C315 O316 1.227 . S
O316 C315 1.227 . S
N317 Co303 2.140 . S
N317 C320 1.346 . S
N317 C321 1.345 . S
C318 C319 1.387 . S
C318 C322 1.391 . S
C319 C318 1.387 . S
C319 C320 1.369 . S
C319 H328 0.929 . S
C320 N317 1.346 . S
C320 C319 1.369 . S
C320 H323 0.928 . S
C321 N317 1.345 . S
C321 C322 1.371 . S
C321 H324 0.931 . S
C322 C318 1.391 . S
C322 C321 1.371 . S
C322 H329 0.930 . S
H323 C320 0.928 . S
H324 C321 0.931 . S
H325 C301 0.930 . S
H326 C298 0.930 . S
H327 C307 0.930 . S
H328 C319 0.929 . S
H329 C322 0.930 . S
C330 C331 1.351 . S
C330 N333 1.368 . S
C330 H335 0.931 . S
C331 C330 1.351 . S
C331 N332 1.373 . S
C331 H359 0.930 . S
N332 C331 1.373 . S
N332 C334 1.340 . S
N333 C330 1.368 . S
N333 C334 1.321 . S
N333 Co336 2.135 . S
C334 N332 1.340 . S
C334 N333 1.321 . S
C334 H358 0.930 . S
H335 C330 0.931 . S
Co336 N333 2.135 . S
Co336 N339 2.121 . S
Co336 O344 2.055 . S
Co336 O347 2.039 . S
Co336 N350 2.140 . S
C337 O338 1.227 . S
C337 O347 1.265 . S
O338 C337 1.227 . S
N339 Co336 2.121 . S
N339 C341 1.375 . S
N339 C342 1.313 . S
C340 C341 1.338 . S
C340 N343 1.377 . S
C340 H360 0.930 . S
C341 N339 1.375 . S
C341 C340 1.338 . S
C341 H345 0.931 . S
C342 N339 1.313 . S
C342 N343 1.344 . S
C342 H346 0.930 . S
N343 C340 1.377 . S
N343 C342 1.344 . S
O344 Co336 2.055 . S
O344 C348 1.253 . S
H345 C341 0.931 . S
H346 C342 0.930 . S
O347 Co336 2.039 . S
O347 C337 1.265 . S
C348 O344 1.253 . S
C348 O349 1.227 . S
O349 C348 1.227 . S
N350 Co336 2.140 . S
N350 C353 1.346 . S
N350 C354 1.345 . S
C351 C352 1.387 . S
C351 C355 1.391 . S
C352 C351 1.387 . S
C352 C353 1.369 . S
C352 H361 0.929 . S
C353 N350 1.346 . S
C353 C352 1.369 . S
C353 H356 0.928 . S
C354 N350 1.345 . S
C354 C355 1.371 . S
C354 H357 0.931 . S
C355 C351 1.391 . S
C355 C354 1.371 . S
C355 H362 0.930 . S
H356 C353 0.928 . S
H357 C354 0.931 . S
H358 C334 0.930 . S
H359 C331 0.930 . S
H360 C340 0.930 . S
H361 C352 0.929 . S
H362 C355 0.930 . S
C363 C364 1.351 . S
C363 N366 1.368 . S
C363 H368 0.931 . S
C364 C363 1.351 . S
C364 N365 1.373 . S
C364 H392 0.930 . S
N365 C364 1.373 . S
N365 C367 1.340 . S
N366 C363 1.368 . S
N366 C367 1.321 . S
N366 Co369 2.135 . S
C367 N365 1.340 . S
C367 N366 1.321 . S
C367 H391 0.930 . S
H368 C363 0.931 . S
Co369 N366 2.135 . S
Co369 N372 2.121 . S
Co369 O377 2.055 . S
Co369 O380 2.039 . S
Co369 N383 2.140 . S
C370 O371 1.227 . S
C370 O380 1.265 . S
O371 C370 1.227 . S
N372 Co369 2.121 . S
N372 C374 1.375 . S
N372 C375 1.313 . S
C373 C374 1.338 . S
C373 N376 1.377 . S
C373 H393 0.930 . S
C374 N372 1.375 . S
C374 C373 1.338 . S
C374 H378 0.931 . S
C375 N372 1.313 . S
C375 N376 1.344 . S
C375 H379 0.930 . S
N376 C373 1.377 . S
N376 C375 1.344 . S
O377 Co369 2.055 . S
O377 C381 1.253 . S
H378 C374 0.931 . S
H379 C375 0.930 . S
O380 Co369 2.039 . S
O380 C370 1.265 . S
C381 O377 1.253 . S
C381 O382 1.227 . S
O382 C381 1.227 . S
N383 Co369 2.140 . S
N383 C386 1.346 . S
N383 C387 1.345 . S
C384 C385 1.387 . S
C384 C388 1.391 . S
C385 C384 1.387 . S
C385 C386 1.369 . S
C385 H394 0.929 . S
C386 N383 1.346 . S
C386 C385 1.369 . S
C386 H389 0.928 . S
C387 N383 1.345 . S
C387 C388 1.371 . S
C387 H390 0.931 . S
C388 C384 1.391 . S
C388 C387 1.371 . S
C388 H395 0.930 . S
H389 C386 0.928 . S
H390 C387 0.931 . S
H391 C367 0.930 . S
H392 C364 0.930 . S
H393 C373 0.930 . S
H394 C385 0.929 . S
H395 C388 0.930 . S
C396 C397 1.351 . S
C396 N399 1.368 . S
C396 H401 0.931 . S
C397 C396 1.351 . S
C397 N398 1.373 . S
C397 H425 0.930 . S
N398 C397 1.373 . S
N398 C400 1.340 . S
N399 C396 1.368 . S
N399 C400 1.321 . S
N399 Co402 2.135 . S
C400 N398 1.340 . S
C400 N399 1.321 . S
C400 H424 0.930 . S
H401 C396 0.931 . S
Co402 N399 2.135 . S
Co402 N405 2.121 1_556 S
Co402 O410 2.055 . S
Co402 O413 2.039 1_556 S
Co402 N416 2.140 . S
C403 O404 1.227 . S
C403 O413 1.265 . S
O404 C403 1.227 . S
N405 Co402 2.121 1_554 S
N405 C407 1.375 . S
N405 C408 1.313 . S
C406 C407 1.338 . S
C406 N409 1.377 . S
C406 H426 0.930 . S
C407 N405 1.375 . S
C407 C406 1.338 . S
C407 H411 0.931 . S
C408 N405 1.313 . S
C408 N409 1.344 . S
C408 H412 0.930 . S
N409 C406 1.377 . S
N409 C408 1.344 . S
O410 Co402 2.055 . S
O410 C414 1.253 . S
H411 C407 0.931 . S
H412 C408 0.930 . S
O413 Co402 2.039 1_554 S
O413 C403 1.265 . S
C414 O410 1.253 . S
C414 O415 1.227 . S
O415 C414 1.227 . S
N416 Co402 2.140 . S
N416 C419 1.346 . S
N416 C420 1.345 1_556 S
C417 C418 1.387 1_554 S
C417 C421 1.391 . S
C418 C417 1.387 1_556 S
C418 C419 1.369 . S
C418 H427 0.929 . S
C419 N416 1.346 . S
C419 C418 1.369 . S
C419 H422 0.928 . S
C420 N416 1.345 1_554 S
C420 C421 1.371 . S
C420 H423 0.931 . S
C421 C417 1.391 . S
C421 C420 1.371 . S
C421 H428 0.930 . S
H422 C419 0.928 . S
H423 C420 0.931 . S
H424 C400 0.930 . S
H425 C397 0.930 . S
H426 C406 0.930 . S
H427 C418 0.929 . S
H428 C421 0.930 . S
C429 C430 1.351 . S
C429 N432 1.368 . S
C429 H434 0.931 . S
C430 C429 1.351 . S
C430 N431 1.373 . S
C430 H458 0.930 . S
N431 C430 1.373 . S
N431 C433 1.340 . S
N432 C429 1.368 . S
N432 C433 1.321 . S
N432 Co435 2.135 . S
C433 N431 1.340 . S
C433 N432 1.321 . S
C433 H457 0.930 . S
H434 C429 0.931 . S
Co435 N432 2.135 . S
Co435 N438 2.121 1_556 S
Co435 O443 2.055 . S
Co435 O446 2.039 1_556 S
Co435 N449 2.140 . S
C436 O437 1.227 . S
C436 O446 1.265 . S
O437 C436 1.227 . S
N438 Co435 2.121 1_554 S
N438 C440 1.375 . S
N438 C441 1.313 . S
C439 C440 1.338 . S
C439 N442 1.377 . S
C439 H459 0.930 . S
C440 N438 1.375 . S
C440 C439 1.338 . S
C440 H444 0.931 . S
C441 N438 1.313 . S
C441 N442 1.344 . S
C441 H445 0.930 . S
N442 C439 1.377 . S
N442 C441 1.344 . S
O443 Co435 2.055 . S
O443 C447 1.253 . S
H444 C440 0.931 . S
H445 C441 0.930 . S
O446 Co435 2.039 1_554 S
O446 C436 1.265 . S
C447 O443 1.253 . S
C447 O448 1.227 . S
O448 C447 1.227 . S
N449 Co435 2.140 . S
N449 C452 1.346 . S
N449 C453 1.345 1_556 S
C450 C451 1.387 1_554 S
C450 C454 1.391 . S
C451 C450 1.387 1_556 S
C451 C452 1.369 . S
C451 H460 0.929 . S
C452 N449 1.346 . S
C452 C451 1.369 . S
C452 H455 0.928 . S
C453 N449 1.345 1_554 S
C453 C454 1.371 . S
C453 H456 0.931 . S
C454 C450 1.391 . S
C454 C453 1.371 . S
C454 H461 0.930 . S
H455 C452 0.928 . S
H456 C453 0.931 . S
H457 C433 0.930 . S
H458 C430 0.930 . S
H459 C439 0.930 . S
H460 C451 0.929 . S
H461 C454 0.930 . S
C462 C463 1.351 . S
C462 N465 1.368 . S
C462 H467 0.931 . S
C463 C462 1.351 . S
C463 N464 1.373 . S
C463 H491 0.930 . S
N464 C463 1.373 . S
N464 C466 1.340 . S
N465 C462 1.368 . S
N465 C466 1.321 . S
N465 Co468 2.135 . S
C466 N464 1.340 . S
C466 N465 1.321 . S
C466 H490 0.930 . S
H467 C462 0.931 . S
Co468 N465 2.135 . S
Co468 N471 2.121 1_556 S
Co468 O476 2.055 . S
Co468 O479 2.039 1_556 S
Co468 N482 2.140 . S
C469 O470 1.227 . S
C469 O479 1.265 . S
O470 C469 1.227 . S
N471 Co468 2.121 1_554 S
N471 C473 1.375 . S
N471 C474 1.313 . S
C472 C473 1.338 . S
C472 N475 1.377 . S
C472 H492 0.930 . S
C473 N471 1.375 . S
C473 C472 1.338 . S
C473 H477 0.931 . S
C474 N471 1.313 . S
C474 N475 1.344 . S
C474 H478 0.930 . S
N475 C472 1.377 . S
N475 C474 1.344 . S
O476 Co468 2.055 . S
O476 C480 1.253 . S
H477 C473 0.931 . S
H478 C474 0.930 . S
O479 Co468 2.039 1_554 S
O479 C469 1.265 . S
C480 O476 1.253 . S
C480 O481 1.227 . S
O481 C480 1.227 . S
N482 Co468 2.140 . S
N482 C485 1.346 . S
N482 C486 1.345 1_556 S
C483 C484 1.387 1_554 S
C483 C487 1.391 . S
C484 C483 1.387 1_556 S
C484 C485 1.369 . S
C484 H493 0.929 . S
C485 N482 1.346 . S
C485 C484 1.369 . S
C485 H488 0.928 . S
C486 N482 1.345 1_554 S
C486 C487 1.371 . S
C486 H489 0.931 . S
C487 C483 1.391 . S
C487 C486 1.371 . S
C487 H494 0.930 . S
H488 C485 0.928 . S
H489 C486 0.931 . S
H490 C466 0.930 . S
H491 C463 0.930 . S
H492 C472 0.930 . S
H493 C484 0.929 . S
H494 C487 0.930 . S
C495 C496 1.351 . S
C495 N498 1.368 . S
C495 H500 0.931 . S
C496 C495 1.351 . S
C496 N497 1.373 . S
C496 H524 0.930 . S
N497 C496 1.373 . S
N497 C499 1.340 . S
N498 C495 1.368 . S
N498 C499 1.321 . S
N498 Co501 2.135 . S
C499 N497 1.340 . S
C499 N498 1.321 . S
C499 H523 0.930 . S
H500 C495 0.931 . S
Co501 N498 2.135 . S
Co501 N504 2.121 1_556 S
Co501 O509 2.055 . S
Co501 O512 2.039 1_556 S
Co501 N515 2.140 . S
C502 O503 1.227 . S
C502 O512 1.265 . S
O503 C502 1.227 . S
N504 Co501 2.121 1_554 S
N504 C506 1.375 . S
N504 C507 1.313 . S
C505 C506 1.338 . S
C505 N508 1.377 . S
C505 H525 0.930 . S
C506 N504 1.375 . S
C506 C505 1.338 . S
C506 H510 0.931 . S
C507 N504 1.313 . S
C507 N508 1.344 . S
C507 H511 0.930 . S
N508 C505 1.377 . S
N508 C507 1.344 . S
O509 Co501 2.055 . S
O509 C513 1.253 . S
H510 C506 0.931 . S
H511 C507 0.930 . S
O512 Co501 2.039 1_554 S
O512 C502 1.265 . S
C513 O509 1.253 . S
C513 O514 1.227 . S
O514 C513 1.227 . S
N515 Co501 2.140 . S
N515 C518 1.346 . S
N515 C519 1.345 1_556 S
C516 C517 1.387 1_554 S
C516 C520 1.391 . S
C517 C516 1.387 1_556 S
C517 C518 1.369 . S
C517 H526 0.929 . S
C518 N515 1.346 . S
C518 C517 1.369 . S
C518 H521 0.928 . S
C519 N515 1.345 1_554 S
C519 C520 1.371 . S
C519 H522 0.931 . S
C520 C516 1.391 . S
C520 C519 1.371 . S
C520 H527 0.930 . S
H521 C518 0.928 . S
H522 C519 0.931 . S
H523 C499 0.930 . S
H524 C496 0.930 . S
H525 C505 0.930 . S
H526 C517 0.929 . S
H527 C520 0.930 . S
C528 C529 1.393 . S
C528 H532 0.950 . S
C528 C537 1.390 . S
C529 C528 1.393 . S
C529 C531 1.382 1_556 S
H530 C537 0.950 . S
C531 C529 1.382 1_554 S
C531 C533 1.390 . S
C531 H535 0.950 . S
H532 C528 0.950 . S
C533 C531 1.390 . S
C533 C534 1.387 . S
C533 H536 0.950 . S
C534 C533 1.387 . S
C534 C537 1.387 1_554 S
H535 C531 0.950 . S
H536 C533 0.950 . S
C537 C528 1.390 . S
C537 H530 0.950 . S
C537 C534 1.387 1_556 S
C538 C539 1.387 1_556 S
C538 H542 0.950 . S
C538 C547 1.390 . S
C539 C538 1.387 1_554 S
C539 C541 1.387 . S
H540 C547 0.950 . S
C541 C539 1.387 . S
C541 C543 1.390 . S
C541 H545 0.950 . S
H542 C538 0.950 . S
C543 C541 1.390 . S
C543 C544 1.382 1_554 S
C543 H546 0.950 . S
C544 C543 1.382 1_556 S
C544 C547 1.393 . S
H545 C541 0.950 . S
H546 C543 0.950 . S
C547 C538 1.390 . S
C547 H540 0.950 . S
C547 C544 1.393 . S
C548 C549 1.387 . S
C548 H552 0.950 . S
C548 C557 1.390 . S
C549 C548 1.387 . S
C549 C551 1.387 1_554 S
H550 C557 0.950 . S
C551 C549 1.387 1_556 S
C551 C553 1.390 . S
C551 H555 0.950 . S
H552 C548 0.950 . S
C553 C551 1.390 . S
C553 C554 1.393 . S
C553 H556 0.950 . S
C554 C553 1.393 . S
C554 C557 1.382 1_556 S
H555 C551 0.950 . S
H556 C553 0.950 . S
C557 C548 1.390 . S
C557 H550 0.950 . S
C557 C554 1.382 1_554 S
C558 C559 1.387 . S
C558 H562 0.950 . S
C558 C567 1.390 . S
C559 C558 1.387 . S
C559 C561 1.387 1_554 S
H560 C567 0.950 . S
C561 C559 1.387 1_556 S
C561 C563 1.390 . S
C561 H565 0.950 . S
H562 C558 0.950 . S
C563 C561 1.390 . S
C563 C564 1.393 . S
C563 H566 0.950 . S
C564 C563 1.393 . S
C564 C567 1.382 1_556 S
H565 C561 0.950 . S
H566 C563 0.950 . S
C567 C558 1.390 . S
C567 H560 0.950 . S
C567 C564 1.382 1_554 S
C568 C569 1.387 . S
C568 H572 0.950 . S
C568 C577 1.390 . S
C569 C568 1.387 . S
C569 C571 1.387 . S
H570 C577 0.950 . S
C571 C569 1.387 . S
C571 C573 1.390 . S
C571 H575 0.950 . S
H572 C568 0.950 . S
C573 C571 1.390 . S
C573 C574 1.387 . S
C573 H576 0.950 . S
C574 C573 1.387 . S
C574 C577 1.387 . S
H575 C571 0.950 . S
H576 C573 0.950 . S
C577 C568 1.390 . S
C577 H570 0.950 . S
C577 C574 1.387 . S
C578 C579 1.387 . S
C578 H582 0.950 . S
C578 C587 1.390 . S
C579 C578 1.387 . S
C579 C581 1.387 . S
H580 C587 0.950 . S
C581 C579 1.387 . S
C581 C583 1.390 . S
C581 H585 0.950 . S
H582 C578 0.950 . S
C583 C581 1.390 . S
C583 C584 1.387 . S
C583 H586 0.950 . S
C584 C583 1.387 . S
C584 C587 1.387 . S
H585 C581 0.950 . S
H586 C583 0.950 . S
C587 C578 1.390 . S
C587 H580 0.950 . S
C587 C584 1.387 . S
C588 C589 1.387 . S
C588 H592 0.950 . S
C588 C597 1.390 . S
C589 C588 1.387 . S
C589 C591 1.387 . S
H590 C597 0.950 . S
C591 C589 1.387 . S
C591 C593 1.390 . S
C591 H595 0.950 . S
H592 C588 0.950 . S
C593 C591 1.390 . S
C593 C594 1.387 . S
C593 H596 0.950 . S
C594 C593 1.387 . S
C594 C597 1.387 . S
H595 C591 0.950 . S
H596 C593 0.950 . S
C597 C588 1.390 . S
C597 H590 0.950 . S
C597 C594 1.387 . S
C598 C599 1.387 . S
C598 H602 0.950 . S
C598 C607 1.390 . S
C599 C598 1.387 . S
C599 C601 1.387 . S
H600 C607 0.950 . S
C601 C599 1.387 . S
C601 C603 1.390 . S
C601 H605 0.950 . S
H602 C598 0.950 . S
C603 C601 1.390 . S
C603 C604 1.387 . S
C603 H606 0.950 . S
C604 C603 1.387 . S
C604 C607 1.387 . S
H605 C601 0.950 . S
H606 C603 0.950 . S
C607 C598 1.390 . S
C607 H600 0.950 . S
C607 C604 1.387 . S
C608 C609 1.387 . S
C608 H612 0.950 . S
C608 C617 1.390 1_655 S
C609 C608 1.387 . S
C609 C611 1.387 . S
H610 C617 0.950 . S
C611 C609 1.387 . S
C611 C613 1.390 1_655 S
C611 H615 0.950 . S
H612 C608 0.950 . S
C613 C611 1.390 1_455 S
C613 C614 1.387 . S
C613 H616 0.950 . S
C614 C613 1.387 . S
C614 C617 1.387 . S
H615 C611 0.950 . S
H616 C613 0.950 . S
C617 C608 1.390 1_455 S
C617 H610 0.950 . S
C617 C614 1.387 . S
C618 C619 1.387 . S
C618 H622 0.950 . S
C618 C627 1.390 1_565 S
C619 C618 1.387 . S
C619 C621 1.387 . S
H620 C627 0.950 . S
C621 C619 1.387 . S
C621 C623 1.390 1_565 S
C621 H625 0.950 . S
H622 C618 0.950 . S
C623 C621 1.390 1_545 S
C623 C624 1.387 . S
C623 H626 0.950 . S
C624 C623 1.387 . S
C624 C627 1.387 . S
H625 C621 0.950 . S
H626 C623 0.950 . S
C627 C618 1.390 1_545 S
C627 H620 0.950 . S
C627 C624 1.387 . S
C628 C629 1.387 . S
C628 H632 0.950 . S
C628 C637 1.390 1_455 S
C629 C628 1.387 . S
C629 C631 1.387 . S
H630 C637 0.950 . S
C631 C629 1.387 . S
C631 C633 1.390 1_455 S
C631 H635 0.950 . S
H632 C628 0.950 . S
C633 C631 1.390 1_655 S
C633 C634 1.387 . S
C633 H636 0.950 . S
C634 C633 1.387 . S
C634 C637 1.387 . S
H635 C631 0.950 . S
H636 C633 0.950 . S
C637 C628 1.390 1_655 S
C637 H630 0.950 . S
C637 C634 1.387 . S
C638 C639 1.387 . S
C638 H642 0.950 . S
C638 C647 1.390 1_545 S
C639 C638 1.387 . S
C639 C641 1.387 . S
H640 C647 0.950 . S
C641 C639 1.387 . S
C641 C643 1.390 1_545 S
C641 H645 0.950 . S
H642 C638 0.950 . S
C643 C641 1.390 1_565 S
C643 C644 1.387 . S
C643 H646 0.950 . S
C644 C643 1.387 . S
C644 C647 1.387 . S
H645 C641 0.950 . S
H646 C643 0.950 . S
C647 C638 1.390 1_565 S
C647 H640 0.950 . S
C647 C644 1.387 . S
C648 C649 1.387 . S
C648 H652 0.950 . S
C648 C657 1.390 1_455 S
C649 C648 1.387 . S
C649 C651 1.387 . S
H650 C657 0.950 . S
C651 C649 1.387 . S
C651 C653 1.390 1_455 S
C651 H655 0.950 . S
H652 C648 0.950 . S
C653 C651 1.390 1_655 S
C653 C654 1.387 . S
C653 H656 0.950 . S
C654 C653 1.387 . S
C654 C657 1.387 . S
H655 C651 0.950 . S
H656 C653 0.950 . S
C657 C648 1.390 1_655 S
C657 H650 0.950 . S
C657 C654 1.387 . S
C658 C659 1.387 . S
C658 H662 0.950 . S
C658 C667 1.390 1_565 S
C659 C658 1.387 . S
C659 C661 1.387 . S
H660 C667 0.950 . S
C661 C659 1.387 . S
C661 C663 1.390 1_565 S
C661 H665 0.950 . S
H662 C658 0.950 . S
C663 C661 1.390 1_545 S
C663 C664 1.387 . S
C663 H666 0.950 . S
C664 C663 1.387 . S
C664 C667 1.387 . S
H665 C661 0.950 . S
H666 C663 0.950 . S
C667 C658 1.390 1_545 S
C667 H660 0.950 . S
C667 C664 1.387 . S
C668 C669 1.387 . S
C668 H672 0.950 . S
C668 C677 1.390 1_655 S
C669 C668 1.387 . S
C669 C671 1.387 . S
H670 C677 0.950 . S
C671 C669 1.387 . S
C671 C673 1.390 1_655 S
C671 H675 0.950 . S
H672 C668 0.950 . S
C673 C671 1.390 1_455 S
C673 C674 1.387 . S
C673 H676 0.950 . S
C674 C673 1.387 . S
C674 C677 1.387 . S
H675 C671 0.950 . S
H676 C673 0.950 . S
C677 C668 1.390 1_455 S
C677 H670 0.950 . S
C677 C674 1.387 . S
C678 C679 1.387 . S
C678 H682 0.950 . S
C678 C687 1.390 1_545 S
C679 C678 1.387 . S
C679 C681 1.387 . S
H680 C687 0.950 . S
C681 C679 1.387 . S
C681 C683 1.390 1_545 S
C681 H685 0.950 . S
H682 C678 0.950 . S
C683 C681 1.390 1_565 S
C683 C684 1.387 . S
C683 H686 0.950 . S
C684 C683 1.387 . S
C684 C687 1.387 . S
H685 C681 0.950 . S
H686 C683 0.950 . S
C687 C678 1.390 1_565 S
C687 H680 0.950 . S
C687 C684 1.387 . S
C688 C689 1.387 . S
C688 H692 0.950 . S
C688 C697 1.390 . S
C689 C688 1.387 . S
C689 C691 1.387 . S
H690 C697 0.950 . S
C691 C689 1.387 . S
C691 C693 1.390 . S
C691 H695 0.950 . S
H692 C688 0.950 . S
C693 C691 1.390 . S
C693 C694 1.387 . S
C693 H696 0.950 . S
C694 C693 1.387 . S
C694 C697 1.387 . S
H695 C691 0.950 . S
H696 C693 0.950 . S
C697 C688 1.390 . S
C697 H690 0.950 . S
C697 C694 1.387 . S
C698 C699 1.387 . S
C698 H702 0.950 . S
C698 C707 1.390 . S
C699 C698 1.387 . S
C699 C701 1.387 . S
H700 C707 0.950 . S
C701 C699 1.387 . S
C701 C703 1.390 . S
C701 H705 0.950 . S
H702 C698 0.950 . S
C703 C701 1.390 . S
C703 C704 1.387 . S
C703 H706 0.950 . S
C704 C703 1.387 . S
C704 C707 1.387 . S
H705 C701 0.950 . S
H706 C703 0.950 . S
C707 C698 1.390 . S
C707 H700 0.950 . S
C707 C704 1.387 . S
C708 C709 1.387 . S
C708 H712 0.950 . S
C708 C717 1.390 . S
C709 C708 1.387 . S
C709 C711 1.387 . S
H710 C717 0.950 . S
C711 C709 1.387 . S
C711 C713 1.390 . S
C711 H715 0.950 . S
H712 C708 0.950 . S
C713 C711 1.390 . S
C713 C714 1.387 . S
C713 H716 0.950 . S
C714 C713 1.387 . S
C714 C717 1.387 . S
H715 C711 0.950 . S
H716 C713 0.950 . S
C717 C708 1.390 . S
C717 H710 0.950 . S
C717 C714 1.387 . S
C718 C719 1.387 . S
C718 H722 0.950 . S
C718 C727 1.390 . S
C719 C718 1.387 . S
C719 C721 1.387 . S
H720 C727 0.950 . S
C721 C719 1.387 . S
C721 C723 1.390 . S
C721 H725 0.950 . S
H722 C718 0.950 . S
C723 C721 1.390 . S
C723 C724 1.387 . S
C723 H726 0.950 . S
C724 C723 1.387 . S
C724 C727 1.387 . S
H725 C721 0.950 . S
H726 C723 0.950 . S
C727 C718 1.390 . S
C727 H720 0.950 . S
C727 C724 1.387 . S
C728 C729 1.387 . S
C728 H732 0.950 . S
C728 C737 1.390 . S
C729 C728 1.387 . S
C729 C731 1.387 . S
H730 C737 0.950 . S
C731 C729 1.387 . S
C731 C733 1.390 . S
C731 H735 0.950 . S
H732 C728 0.950 . S
C733 C731 1.390 . S
C733 C734 1.387 . S
C733 H736 0.950 . S
C734 C733 1.387 . S
C734 C737 1.387 . S
H735 C731 0.950 . S
H736 C733 0.950 . S
C737 C728 1.390 . S
C737 H730 0.950 . S
C737 C734 1.387 . S
C738 C739 1.387 . S
C738 H742 0.950 . S
C738 C747 1.390 . S
C739 C738 1.387 . S
C739 C741 1.387 . S
H740 C747 0.950 . S
C741 C739 1.387 . S
C741 C743 1.390 . S
C741 H745 0.950 . S
H742 C738 0.950 . S
C743 C741 1.390 . S
C743 C744 1.387 . S
C743 H746 0.950 . S
C744 C743 1.387 . S
C744 C747 1.387 . S
H745 C741 0.950 . S
H746 C743 0.950 . S
C747 C738 1.390 . S
C747 H740 0.950 . S
C747 C744 1.387 . S
C748 C749 1.387 . S
C748 H752 0.950 . S
C748 C757 1.390 . S
C749 C748 1.387 . S
C749 C751 1.387 . S
H750 C757 0.950 . S
C751 C749 1.387 . S
C751 C753 1.390 . S
C751 H755 0.950 . S
H752 C748 0.950 . S
C753 C751 1.390 . S
C753 C754 1.387 . S
C753 H756 0.950 . S
C754 C753 1.387 . S
C754 C757 1.387 . S
H755 C751 0.950 . S
H756 C753 0.950 . S
C757 C748 1.390 . S
C757 H750 0.950 . S
C757 C754 1.387 . S
C758 C759 1.387 . S
C758 H762 0.950 . S
C758 C767 1.390 . S
C759 C758 1.387 . S
C759 C761 1.387 . S
H760 C767 0.950 . S
C761 C759 1.387 . S
C761 C763 1.390 . S
C761 H765 0.950 . S
H762 C758 0.950 . S
C763 C761 1.390 . S
C763 C764 1.387 . S
C763 H766 0.950 . S
C764 C763 1.387 . S
C764 C767 1.387 . S
H765 C761 0.950 . S
H766 C763 0.950 . S
C767 C758 1.390 . S
C767 H760 0.950 . S
C767 C764 1.387 . S
C768 C769 1.387 . S
C768 H772 0.950 . S
C768 C777 1.390 . S
C769 C768 1.387 . S
C769 C771 1.387 . S
H770 C777 0.950 . S
C771 C769 1.387 . S
C771 C773 1.390 . S
C771 H775 0.950 . S
H772 C768 0.950 . S
C773 C771 1.390 . S
C773 C774 1.387 . S
C773 H776 0.950 . S
C774 C773 1.387 . S
C774 C777 1.387 . S
H775 C771 0.950 . S
H776 C773 0.950 . S
C777 C768 1.390 . S
C777 H770 0.950 . S
C777 C774 1.387 . S
C778 C779 1.387 . S
C778 H782 0.950 . S
C778 C787 1.390 . S
C779 C778 1.387 . S
C779 C781 1.387 . S
H780 C787 0.950 . S
C781 C779 1.387 . S
C781 C783 1.390 . S
C781 H785 0.950 . S
H782 C778 0.950 . S
C783 C781 1.390 . S
C783 C784 1.387 . S
C783 H786 0.950 . S
C784 C783 1.387 . S
C784 C787 1.387 . S
H785 C781 0.950 . S
H786 C783 0.950 . S
C787 C778 1.390 . S
C787 H780 0.950 . S
C787 C784 1.387 . S
C788 C789 1.387 . S
C788 H792 0.950 . S
C788 C797 1.390 . S
C789 C788 1.387 . S
C789 C791 1.387 . S
H790 C797 0.950 . S
C791 C789 1.387 . S
C791 C793 1.390 . S
C791 H795 0.950 . S
H792 C788 0.950 . S
C793 C791 1.390 . S
C793 C794 1.387 . S
C793 H796 0.950 . S
C794 C793 1.387 . S
C794 C797 1.387 . S
H795 C791 0.950 . S
H796 C793 0.950 . S
C797 C788 1.390 . S
C797 H790 0.950 . S
C797 C794 1.387 . S
C798 C799 1.387 . S
C798 H802 0.950 . S
C798 C807 1.390 . S
C799 C798 1.387 . S
C799 C801 1.387 . S
H800 C807 0.950 . S
C801 C799 1.387 . S
C801 C803 1.390 . S
C801 H805 0.950 . S
H802 C798 0.950 . S
C803 C801 1.390 . S
C803 C804 1.387 . S
C803 H806 0.950 . S
C804 C803 1.387 . S
C804 C807 1.387 . S
H805 C801 0.950 . S
H806 C803 0.950 . S
C807 C798 1.390 . S
C807 H800 0.950 . S
C807 C804 1.387 . S
C808 C809 1.387 . S
C808 H812 0.950 . S
C808 C817 1.390 . S
C809 C808 1.387 . S
C809 C811 1.387 . S
H810 C817 0.950 . S
C811 C809 1.387 . S
C811 C813 1.390 . S
C811 H815 0.950 . S
H812 C808 0.950 . S
C813 C811 1.390 . S
C813 C814 1.387 . S
C813 H816 0.950 . S
C814 C813 1.387 . S
C814 C817 1.387 . S
H815 C811 0.950 . S
H816 C813 0.950 . S
C817 C808 1.390 . S
C817 H810 0.950 . S
C817 C814 1.387 . S
C818 C819 1.387 . S
C818 H822 0.950 . S
C818 C827 1.390 . S
C819 C818 1.387 . S
C819 C821 1.387 . S
H820 C827 0.950 . S
C821 C819 1.387 . S
C821 C823 1.390 . S
C821 H825 0.950 . S
H822 C818 0.950 . S
C823 C821 1.390 . S
C823 C824 1.387 . S
C823 H826 0.950 . S
C824 C823 1.387 . S
C824 C827 1.387 . S
H825 C821 0.950 . S
H826 C823 0.950 . S
C827 C818 1.390 . S
C827 H820 0.950 . S
C827 C824 1.387 . S
C828 C829 1.387 . S
C828 H832 0.950 . S
C828 C837 1.390 . S
C829 C828 1.387 . S
C829 C831 1.387 . S
H830 C837 0.950 . S
C831 C829 1.387 . S
C831 C833 1.390 . S
C831 H835 0.950 . S
H832 C828 0.950 . S
C833 C831 1.390 . S
C833 C834 1.387 . S
C833 H836 0.950 . S
C834 C833 1.387 . S
C834 C837 1.387 . S
H835 C831 0.950 . S
H836 C833 0.950 . S
C837 C828 1.390 . S
C837 H830 0.950 . S
C837 C834 1.387 . S
C838 C839 1.387 . S
C838 H842 0.950 . S
C838 C847 1.390 . S
C839 C838 1.387 . S
C839 C841 1.387 . S
H840 C847 0.950 . S
C841 C839 1.387 . S
C841 C843 1.390 . S
C841 H845 0.950 . S
H842 C838 0.950 . S
C843 C841 1.390 . S
C843 C844 1.387 . S
C843 H846 0.950 . S
C844 C843 1.387 . S
C844 C847 1.387 . S
H845 C841 0.950 . S
H846 C843 0.950 . S
C847 C838 1.390 . S
C847 H840 0.950 . S
C847 C844 1.387 . S
C848 C849 1.387 . S
C848 H852 0.950 . S
C848 C857 1.390 . S
C849 C848 1.387 . S
C849 C851 1.387 . S
H850 C857 0.950 . S
C851 C849 1.387 . S
C851 C853 1.390 . S
C851 H855 0.950 . S
H852 C848 0.950 . S
C853 C851 1.390 . S
C853 C854 1.387 . S
C853 H856 0.950 . S
C854 C853 1.387 . S
C854 C857 1.387 . S
H855 C851 0.950 . S
H856 C853 0.950 . S
C857 C848 1.390 . S
C857 H850 0.950 . S
C857 C854 1.387 . S
C858 C859 1.387 . S
C858 H862 0.950 . S
C858 C867 1.390 . S
C859 C858 1.387 . S
C859 C861 1.387 . S
H860 C867 0.950 . S
C861 C859 1.387 . S
C861 C863 1.390 . S
C861 H865 0.950 . S
H862 C858 0.950 . S
C863 C861 1.390 . S
C863 C864 1.387 . S
C863 H866 0.950 . S
C864 C863 1.387 . S
C864 C867 1.387 . S
H865 C861 0.950 . S
H866 C863 0.950 . S
C867 C858 1.390 . S
C867 H860 0.950 . S
C867 C864 1.387 . S
C868 C869 1.387 . S
C868 H872 0.950 . S
C868 C877 1.390 . S
C869 C868 1.387 . S
C869 C871 1.387 . S
H870 C877 0.950 . S
C871 C869 1.387 . S
C871 C873 1.390 . S
C871 H875 0.950 . S
H872 C868 0.950 . S
C873 C871 1.390 . S
C873 C874 1.387 . S
C873 H876 0.950 . S
C874 C873 1.387 . S
C874 C877 1.387 . S
H875 C871 0.950 . S
H876 C873 0.950 . S
C877 C868 1.390 . S
C877 H870 0.950 . S
C877 C874 1.387 . S
C878 C879 1.387 . S
C878 H882 0.950 . S
C878 C887 1.390 . S
C879 C878 1.387 . S
C879 C881 1.387 . S
H880 C887 0.950 . S
C881 C879 1.387 . S
C881 C883 1.390 . S
C881 H885 0.950 . S
H882 C878 0.950 . S
C883 C881 1.390 . S
C883 C884 1.387 . S
C883 H886 0.950 . S
C884 C883 1.387 . S
C884 C887 1.387 . S
H885 C881 0.950 . S
H886 C883 0.950 . S
C887 C878 1.390 . S
C887 H880 0.950 . S
C887 C884 1.387 . S
C888 C889 1.387 . S
C888 H892 0.950 . S
C888 C897 1.390 . S
C889 C888 1.387 . S
C889 C891 1.387 . S
H890 C897 0.950 . S
C891 C889 1.387 . S
C891 C893 1.390 . S
C891 H895 0.950 . S
H892 C888 0.950 . S
C893 C891 1.390 . S
C893 C894 1.387 . S
C893 H896 0.950 . S
C894 C893 1.387 . S
C894 C897 1.387 . S
H895 C891 0.950 . S
H896 C893 0.950 . S
C897 C888 1.390 . S
C897 H890 0.950 . S
C897 C894 1.387 . S
C898 C899 1.387 . S
C898 H902 0.950 . S
C898 C907 1.390 . S
C899 C898 1.387 . S
C899 C901 1.387 . S
H900 C907 0.950 . S
C901 C899 1.387 . S
C901 C903 1.390 . S
C901 H905 0.950 . S
H902 C898 0.950 . S
C903 C901 1.390 . S
C903 C904 1.387 . S
C903 H906 0.950 . S
C904 C903 1.387 . S
C904 C907 1.387 . S
H905 C901 0.950 . S
H906 C903 0.950 . S
C907 C898 1.390 . S
C907 H900 0.950 . S
C907 C904 1.387 . S
C908 C909 1.387 . S
C908 H912 0.950 . S
C908 C917 1.390 . S
C909 C908 1.387 . S
C909 C911 1.387 . S
H910 C917 0.950 . S
C911 C909 1.387 . S
C911 C913 1.390 . S
C911 H915 0.950 . S
H912 C908 0.950 . S
C913 C911 1.390 . S
C913 C914 1.387 . S
C913 H916 0.950 . S
C914 C913 1.387 . S
C914 C917 1.387 . S
H915 C911 0.950 . S
H916 C913 0.950 . S
C917 C908 1.390 . S
C917 H910 0.950 . S
C917 C914 1.387 . S
C918 C919 1.387 . S
C918 H922 0.950 . S
C918 C927 1.390 . S
C919 C918 1.387 . S
C919 C921 1.387 . S
H920 C927 0.950 . S
C921 C919 1.387 . S
C921 C923 1.390 . S
C921 H925 0.950 . S
H922 C918 0.950 . S
C923 C921 1.390 . S
C923 C924 1.387 . S
C923 H926 0.950 . S
C924 C923 1.387 . S
C924 C927 1.387 . S
H925 C921 0.950 . S
H926 C923 0.950 . S
C927 C918 1.390 . S
C927 H920 0.950 . S
C927 C924 1.387 . S
C529 C21 1.312 . S
C534 C516 1.314 . S
C539 C417 1.314 . S
C544 C54 1.312 . S
C549 C450 1.312 . S
C554 C87 1.314 . S
C559 C483 1.312 . S
C564 C120 1.314 . S
C569 C153 1.314 . S
C574 C318 1.312 . S
C579 C351 1.312 . S
C584 C186 1.314 . S
C589 C384 1.312 . S
C594 C219 1.314 . S
C599 C252 1.312 . S
C604 C285 1.314 . S
C609 C216 2.022 . S
C614 C18 2.022 . S
C619 C249 2.023 . S
C624 C51 2.023 . S
C629 C150 2.022 . S
C634 C84 2.022 . S
C639 C183 2.023 . S
C644 C117 2.023 . S
C649 N145 0.896 . S
C654 N79 0.896 . S
C659 N112 0.896 . S
C664 N178 0.896 . S
C669 N211 0.896 . S
C674 N13 0.896 . S
C679 N46 0.896 . S
C684 N244 0.896 . S
C689 C282 2.023 . S
C694 C480 2.023 . S
C699 C513 2.022 . S
C704 C315 2.022 . S
C709 C414 2.022 . S
C714 C348 2.022 . S
C719 C447 2.022 . S
C724 C381 2.022 . S
C729 N409 0.893 . S
C734 N343 0.893 . S
C739 N442 0.896 . S
C744 N376 0.896 . S
C749 N277 0.896 . S
C754 N475 0.896 . S
C759 N310 0.893 . S
C764 N508 0.893 . S
C769 N167 0.889 . S
C774 N2 0.892 . S
C779 N35 0.891 . S
C784 N200 0.888 . S
C789 N233 0.892 . S
C794 N68 0.892 . S
C799 N101 0.892 . S
C804 N134 0.892 . S
C809 C73 2.240 . S
C814 C238 2.242 . S
C819 C139 2.242 . S
C824 C106 2.241 . S
C829 C172 2.242 . S
C834 C7 2.240 . S
C839 C40 2.241 . S
C844 C205 2.240 . S
C849 N431 0.889 . S
C854 N266 0.892 . S
C859 N299 0.892 . S
C864 N464 0.889 . S
C869 N497 0.889 . S
C874 N332 0.892 . S
C879 N365 0.892 . S
C884 N398 0.889 . S
C889 C502 2.241 . S
C894 C337 2.241 . S
C899 C370 2.241 . S
C904 C403 2.241 . S
C909 C436 2.240 . S
C914 C271 2.242 . S
C919 C304 2.241 . S
C924 C469 2.241 . S
