# Generated by pormake.
# Topology svc, (7)-cn, num edge types: 1
# Building blocks:
#     Node 0, Type 0, BuildingBlock: HICVOG_clean_sbu_0, # of connection points: 7
#     Node 1, Type 0, BuildingBlock: HICVOG_clean_sbu_0, # of connection points: 7
#     Node 2, Type 0, BuildingBlock: HICVOG_clean_sbu_0, # of connection points: 7
#     Node 3, Type 0, BuildingBlock: HICVOG_clean_sbu_0, # of connection points: 7
#     Node 4, Type 0, BuildingBlock: HICVOG_clean_sbu_0, # of connection points: 7
#     Node 5, Type 0, BuildingBlock: HICVOG_clean_sbu_0, # of connection points: 7
#     Node 6, Type 0, BuildingBlock: HICVOG_clean_sbu_0, # of connection points: 7
#     Node 7, Type 0, BuildingBlock: HICVOG_clean_sbu_0, # of connection points: 7
#     Node 8, Type 0, BuildingBlock: HICVOG_clean_sbu_0, # of connection points: 7
#     Node 9, Type 0, BuildingBlock: HICVOG_clean_sbu_0, # of connection points: 7
#     Node 10, Type 0, BuildingBlock: HICVOG_clean_sbu_0, # of connection points: 7
#     Node 11, Type 0, BuildingBlock: HICVOG_clean_sbu_0, # of connection points: 7
#     Node 12, Type 0, BuildingBlock: HICVOG_clean_sbu_0, # of connection points: 7
#     Node 13, Type 0, BuildingBlock: HICVOG_clean_sbu_0, # of connection points: 7
#     Node 14, Type 0, BuildingBlock: HICVOG_clean_sbu_0, # of connection points: 7
#     Node 15, Type 0, BuildingBlock: HICVOG_clean_sbu_0, # of connection points: 7
#     Edge 16, Type (0, 0), BuildingBlock: OJICUG_clean_linker_0, # of connection points: 2
#     Edge 17, Type (0, 0), BuildingBlock: OJICUG_clean_linker_0, # of connection points: 2
#     Edge 18, Type (0, 0), BuildingBlock: OJICUG_clean_linker_0, # of connection points: 2
#     Edge 19, Type (0, 0), BuildingBlock: OJICUG_clean_linker_0, # of connection points: 2
#     Edge 20, Type (0, 0), BuildingBlock: OJICUG_clean_linker_0, # of connection points: 2
#     Edge 21, Type (0, 0), BuildingBlock: OJICUG_clean_linker_0, # of connection points: 2
#     Edge 22, Type (0, 0), BuildingBlock: OJICUG_clean_linker_0, # of connection points: 2
#     Edge 23, Type (0, 0), BuildingBlock: OJICUG_clean_linker_0, # of connection points: 2
#     Edge 24, Type (0, 0), BuildingBlock: OJICUG_clean_linker_0, # of connection points: 2
#     Edge 25, Type (0, 0), BuildingBlock: OJICUG_clean_linker_0, # of connection points: 2
#     Edge 26, Type (0, 0), BuildingBlock: OJICUG_clean_linker_0, # of connection points: 2
#     Edge 27, Type (0, 0), BuildingBlock: OJICUG_clean_linker_0, # of connection points: 2
#     Edge 28, Type (0, 0), BuildingBlock: OJICUG_clean_linker_0, # of connection points: 2
#     Edge 29, Type (0, 0), BuildingBlock: OJICUG_clean_linker_0, # of connection points: 2
#     Edge 30, Type (0, 0), BuildingBlock: OJICUG_clean_linker_0, # of connection points: 2
#     Edge 31, Type (0, 0), BuildingBlock: OJICUG_clean_linker_0, # of connection points: 2
#     Edge 32, Type (0, 0), BuildingBlock: OJICUG_clean_linker_0, # of connection points: 2
#     Edge 33, Type (0, 0), BuildingBlock: OJICUG_clean_linker_0, # of connection points: 2
#     Edge 34, Type (0, 0), BuildingBlock: OJICUG_clean_linker_0, # of connection points: 2
#     Edge 35, Type (0, 0), BuildingBlock: OJICUG_clean_linker_0, # of connection points: 2
#     Edge 36, Type (0, 0), BuildingBlock: OJICUG_clean_linker_0, # of connection points: 2
#     Edge 37, Type (0, 0), BuildingBlock: OJICUG_clean_linker_0, # of connection points: 2
#     Edge 38, Type (0, 0), BuildingBlock: OJICUG_clean_linker_0, # of connection points: 2
#     Edge 39, Type (0, 0), BuildingBlock: OJICUG_clean_linker_0, # of connection points: 2
#     Edge 40, Type (0, 0), BuildingBlock: OJICUG_clean_linker_0, # of connection points: 2
#     Edge 41, Type (0, 0), BuildingBlock: OJICUG_clean_linker_0, # of connection points: 2
#     Edge 42, Type (0, 0), BuildingBlock: OJICUG_clean_linker_0, # of connection points: 2
#     Edge 43, Type (0, 0), BuildingBlock: OJICUG_clean_linker_0, # of connection points: 2
#     Edge 44, Type (0, 0), BuildingBlock: OJICUG_clean_linker_0, # of connection points: 2
#     Edge 45, Type (0, 0), BuildingBlock: OJICUG_clean_linker_0, # of connection points: 2
#     Edge 46, Type (0, 0), BuildingBlock: OJICUG_clean_linker_0, # of connection points: 2
#     Edge 47, Type (0, 0), BuildingBlock: OJICUG_clean_linker_0, # of connection points: 2
#     Edge 48, Type (0, 0), BuildingBlock: OJICUG_clean_linker_0, # of connection points: 2
#     Edge 49, Type (0, 0), BuildingBlock: OJICUG_clean_linker_0, # of connection points: 2
#     Edge 50, Type (0, 0), BuildingBlock: OJICUG_clean_linker_0, # of connection points: 2
#     Edge 51, Type (0, 0), BuildingBlock: OJICUG_clean_linker_0, # of connection points: 2
#     Edge 52, Type (0, 0), BuildingBlock: OJICUG_clean_linker_0, # of connection points: 2
#     Edge 53, Type (0, 0), BuildingBlock: OJICUG_clean_linker_0, # of connection points: 2
#     Edge 54, Type (0, 0), BuildingBlock: OJICUG_clean_linker_0, # of connection points: 2
#     Edge 55, Type (0, 0), BuildingBlock: OJICUG_clean_linker_0, # of connection points: 2
#     Edge 56, Type (0, 0), BuildingBlock: OJICUG_clean_linker_0, # of connection points: 2
#     Edge 57, Type (0, 0), BuildingBlock: OJICUG_clean_linker_0, # of connection points: 2
#     Edge 58, Type (0, 0), BuildingBlock: OJICUG_clean_linker_0, # of connection points: 2
#     Edge 59, Type (0, 0), BuildingBlock: OJICUG_clean_linker_0, # of connection points: 2
#     Edge 60, Type (0, 0), BuildingBlock: OJICUG_clean_linker_0, # of connection points: 2
#     Edge 61, Type (0, 0), BuildingBlock: OJICUG_clean_linker_0, # of connection points: 2
#     Edge 62, Type (0, 0), BuildingBlock: OJICUG_clean_linker_0, # of connection points: 2
#     Edge 63, Type (0, 0), BuildingBlock: OJICUG_clean_linker_0, # of connection points: 2
#     Edge 64, Type (0, 0), BuildingBlock: OJICUG_clean_linker_0, # of connection points: 2
#     Edge 65, Type (0, 0), BuildingBlock: OJICUG_clean_linker_0, # of connection points: 2
#     Edge 66, Type (0, 0), BuildingBlock: OJICUG_clean_linker_0, # of connection points: 2
#     Edge 67, Type (0, 0), BuildingBlock: OJICUG_clean_linker_0, # of connection points: 2
#     Edge 68, Type (0, 0), BuildingBlock: OJICUG_clean_linker_0, # of connection points: 2
#     Edge 69, Type (0, 0), BuildingBlock: OJICUG_clean_linker_0, # of connection points: 2
#     Edge 70, Type (0, 0), BuildingBlock: OJICUG_clean_linker_0, # of connection points: 2
#     Edge 71, Type (0, 0), BuildingBlock: OJICUG_clean_linker_0, # of connection points: 2
# Relax obj value: 0.190
# Max RMSD: 0.255
# Mean RMSD: 0.218
data_MOF--net-svc--node1-HICVOG_clean_sbu_0--edge1-OJICUG_clean_linker_0
_symmetry_space_group_name_H-M    P1
_symmetry_Int_Tables_number       1
_symmetry_cell_setting            triclinic
loop_
_symmetry_equiv_pos_as_xyz
'x, y, z'
_cell_length_a     23.596391
_cell_length_b     20.678793
_cell_length_c     63.207112
_cell_angle_alpha  98.986639
_cell_angle_beta   93.960862
_cell_angle_gamma 89.912703
loop_
_atom_site_label
_atom_site_type_symbol
_atom_site_fract_x
_atom_site_fract_y
_atom_site_fract_z
_atom_type_partial_charge
Zn0 Zn 0.2327 0.39543 0.11086 0.0
C1 C 0.10328 0.31471 0.12701 0.0
N2 N 0.12756 0.25939 0.11791 0.0
C3 C 0.18241 0.27661 0.118 0.0
N4 N 0.1908 0.34051 0.12635 0.0
N5 N 0.14183 0.36339 0.13318 0.0
C6 C 0.03482 0.48184 0.13645 0.0
O7 O 0.06653 0.4764 0.11998 0.0
O8 O 0.31516 0.38452 0.11598 0.0
Zn9 Zn 0.13627 0.44239 0.15443 0.0
N10 N 0.21152 0.37485 0.08033 0.0
C11 C 0.1447 0.3345 0.05138 0.0
C12 C 0.16011 0.34702 0.07331 0.0
C13 C 0.24761 0.39238 0.06628 0.0
N14 N 0.18053 0.35226 0.03736 0.0
C15 C 0.23163 0.38169 0.0441 0.0
O16 O 0.17617 0.52543 0.14814 0.0
C17 C 0.20489 0.53924 0.13302 0.0
O18 O 0.22317 0.49407 0.11913 0.0
H19 H 0.13093 0.33535 0.0846 0.0
H20 H 0.28804 0.41458 0.0725 0.0
C21 C 0.14226 0.45626 0.20144 0.0
C22 C 0.15808 0.43604 0.22142 0.0
C23 C 0.2069 0.34604 0.20293 0.0
C24 C 0.19192 0.3668 0.18341 0.0
N25 N 0.1598 0.42123 0.18292 0.0
N26 N 0.18989 0.38099 0.22133 0.0
H27 H 0.11578 0.49853 0.20044 0.0
C28 C 0.33327 0.4124 0.13451 0.0
O29 O 0.2967 0.42622 0.14931 0.0
O30 O 0.05567 0.4675 0.15414 0.0
H31 H 0.20528 0.33904 0.16872 0.0
H32 H 0.10412 0.31188 0.04555 0.0
H33 H 0.23211 0.30252 0.20347 0.0
Zn34 Zn 0.89589 1.03872 0.36767 0.0
C35 C 0.97783 0.92956 0.4057 0.0
N36 N 1.02318 0.96831 0.40479 0.0
C37 C 1.0019 1.01501 0.39411 0.0
N38 N 0.94614 1.00544 0.38857 0.0
N39 N 0.93021 0.95512 0.39721 0.0
C40 C 0.7826 0.89651 0.39612 0.0
O41 O 0.79417 0.92498 0.37978 0.0
O42 O 0.92053 0.12769 0.36448 0.0
Zn43 Zn 0.8692 0.97834 0.41593 0.0
N44 N 0.89635 0.97833 0.34104 0.0
C45 C 0.88861 0.86841 0.32302 0.0
C46 C 0.88918 0.91363 0.34184 0.0
C47 C 0.90241 0.99994 0.32209 0.0
N48 N 0.89448 0.88984 0.30405 0.0
C49 C 0.90155 0.95454 0.30295 0.0
O50 O 0.81641 0.05442 0.41058 0.0
C51 C 0.78968 0.06463 0.39317 0.0
O52 O 0.81288 0.05212 0.37535 0.0
H53 H 0.88354 0.89737 0.35698 0.0
H54 H 0.90609 0.05201 0.32205 0.0
C55 C 0.87346 0.96497 0.45994 0.0
C56 C 0.89402 0.97509 0.48162 0.0
C57 C 0.96634 0.04461 0.4731 0.0
C58 C 0.94576 1.034 0.45158 0.0
N59 N 0.89981 0.9943 0.44546 0.0
N60 N 0.93998 1.01523 0.48759 0.0
H61 H 0.83596 0.93537 0.45457 0.0
C62 C 0.9201 0.16452 0.38251 0.0
O63 O 0.92628 0.13734 0.39996 0.0
O64 O 0.81496 0.90583 0.41315 0.0
H65 H 0.96594 0.05739 0.43989 0.0
H66 H 0.88298 0.81673 0.32343 0.0
H67 H 1.00282 0.07619 0.47827 0.0
Zn68 Zn 0.34304 0.64021 0.62344 0.0
C69 C 0.47629 0.57054 0.65541 0.0
N70 N 0.49791 0.63107 0.6569 0.0
C71 C 0.45464 0.66497 0.64918 0.0
N72 N 0.4084 0.62631 0.64274 0.0
N73 N 0.42171 0.56755 0.64732 0.0
C74 C 0.37105 0.40581 0.62563 0.0
O75 O 0.36306 0.45544 0.61516 0.0
O76 O 0.32597 0.73633 0.62591 0.0
Zn77 Zn 0.36904 0.51154 0.65797 0.0
N78 N 0.36382 0.60819 0.59416 0.0
C79 C 0.42349 0.53962 0.57151 0.0
C80 C 0.40576 0.56295 0.59181 0.0
C81 C 0.34026 0.63288 0.57683 0.0
N82 N 0.39998 0.56397 0.55427 0.0
C83 C 0.35916 0.61067 0.55622 0.0
O84 O 0.28413 0.52517 0.65143 0.0
C85 C 0.24939 0.55659 0.6406 0.0
O86 O 0.26735 0.59802 0.6295 0.0
H87 H 0.42595 0.54547 0.60561 0.0
H88 H 0.30745 0.66938 0.57919 0.0
C89 C 0.38691 0.48825 0.70294 0.0
C90 C 0.39879 0.51169 0.72498 0.0
C91 C 0.39953 0.62062 0.71751 0.0
C92 C 0.387 0.59752 0.69587 0.0
N93 N 0.38202 0.53201 0.68889 0.0
N94 N 0.40516 0.57735 0.7315 0.0
H95 H 0.3823 0.43637 0.69704 0.0
C96 C 0.31414 0.76975 0.64368 0.0
O97 O 0.31809 0.74224 0.6611 0.0
O98 O 0.3824 0.41802 0.64585 0.0
H99 H 0.38168 0.63171 0.68461 0.0
H100 H 0.45641 0.50314 0.56949 0.0
H101 H 0.40439 0.67257 0.72319 0.0
Zn102 Zn 0.65845 0.11808 0.86888 0.0
C103 C 0.73004 0.29886 0.8852 0.0
N104 N 0.67889 0.31529 0.87718 0.0
C105 C 0.64863 0.25962 0.87532 0.0
N106 N 0.67942 0.21042 0.88185 0.0
N107 N 0.73073 0.23538 0.8887 0.0
C108 C 0.87881 0.16038 0.88216 0.0
O109 O 0.83602 0.13314 0.86954 0.0
O110 O 0.57039 0.0994 0.86896 0.0
Zn111 Zn 0.78407 0.1927 0.90729 0.0
N112 N 0.68213 0.1119 0.83912 0.0
C113 C 0.74647 0.15933 0.8182 0.0
C114 C 0.72681 0.15246 0.83789 0.0
C115 C 0.65762 0.07512 0.82087 0.0
N116 N 0.72169 0.12406 0.80018 0.0
C117 C 0.67807 0.08165 0.80073 0.0
O118 O 0.76916 0.09549 0.90533 0.0
C119 C 0.74107 0.04409 0.89711 0.0
O120 O 0.69997 0.04628 0.88303 0.0
H121 H 0.74729 0.1802 0.85208 0.0
H122 H 0.62256 1.04239 0.82194 0.0
C123 C 0.79776 0.20513 0.95415 0.0
C124 C 0.78287 0.22955 0.97522 0.0
C125 C 0.71948 0.30366 0.96093 0.0
C126 C 0.73261 0.27761 0.94025 0.0
N127 N 0.77245 0.23012 0.93714 0.0
N128 N 0.74452 0.27892 0.97781 0.0
H129 H 0.82817 0.16619 0.95114 0.0
C130 C 0.54978 0.06636 0.88224 0.0
O131 O 0.58512 1.04239 0.89595 0.0
O132 O 0.86776 0.19564 0.89982 0.0
H133 H 0.70974 0.29402 0.9268 0.0
H134 H 0.78146 0.19223 0.81722 0.0
H135 H 0.68832 0.342 0.96353 0.0
Zn136 Zn 0.14393 0.6169 0.37378 0.0
C137 C 0.21768 0.79227 0.39188 0.0
N138 N 0.16455 0.81168 0.38736 0.0
C139 C 0.13296 0.75704 0.3863 0.0
N140 N 0.16516 0.70539 0.38997 0.0
N141 N 0.21823 0.72784 0.39436 0.0
C142 C 0.36075 0.65607 0.38368 0.0
O143 O 0.31612 0.63429 0.37101 0.0
O144 O 0.05561 0.60413 0.37382 0.0
Zn145 Zn 0.27176 0.68158 0.41138 0.0
N146 N 0.16481 0.61909 0.34368 0.0
C147 C 0.2188 0.67845 0.32231 0.0
C148 C 0.20302 0.66719 0.34213 0.0
C149 C 0.14349 0.5792 0.32545 0.0
N150 N 0.19705 0.64002 0.30438 0.0
C151 C 0.16012 0.59019 0.3051 0.0
O152 O 0.25708 0.58267 0.40762 0.0
C153 C 0.22846 0.53237 0.39851 0.0
O154 O 0.1858 0.53809 0.38525 0.0
H155 H 0.22175 0.69738 0.35609 0.0
H156 H 0.11375 0.54041 0.32668 0.0
C157 C 0.2892 0.69055 0.45838 0.0
C158 C 0.27792 0.71651 0.47978 0.0
C159 C 0.21766 0.79545 0.46656 0.0
C160 C 0.2278 0.76878 0.44564 0.0
N161 N 0.26394 0.7176 0.44177 0.0
N162 N 0.24264 0.76872 0.48301 0.0
H163 H 0.31718 0.64943 0.45485 0.0
C164 C 0.03083 0.59393 0.39039 0.0
O165 O 0.06225 0.59087 0.40819 0.0
O166 O 0.35271 0.68622 0.40242 0.0
H167 H 0.20574 0.7884 0.43267 0.0
H168 H 0.24861 0.71724 0.32116 0.0
H169 H 0.18924 0.8364 0.46972 0.0
Zn170 Zn 0.74768 0.88525 0.60921 0.0
C171 C 0.61254 0.80513 0.62455 0.0
N172 N 0.63675 0.74939 0.61574 0.0
C173 C 0.6913 0.7669 0.61512 0.0
N174 N 0.69968 0.83118 0.62281 0.0
N175 N 0.65096 0.85448 0.62976 0.0
C176 C 0.54373 0.97255 0.63354 0.0
O177 O 0.57399 0.96634 0.61666 0.0
O178 O 0.82916 0.87594 0.61765 0.0
Zn179 Zn 0.64642 0.93395 0.65071 0.0
N180 N 0.73544 0.86273 0.5783 0.0
C181 C 0.67833 0.81529 0.54729 0.0
C182 C 0.68732 0.83018 0.56951 0.0
C183 C 0.77411 0.88312 0.56568 0.0
N184 N 0.71683 0.83556 0.53471 0.0
C185 C 0.76448 0.86988 0.54318 0.0
O186 O 0.68545 1.01667 0.64395 0.0
C187 C 0.71573 1.02949 0.62914 0.0
O188 O 0.73609 0.98363 0.61606 0.0
H189 H 0.65573 0.81653 0.57959 0.0
H190 H 0.81163 0.90948 0.57322 0.0
C191 C 0.65405 0.94881 0.69744 0.0
C192 C 0.66979 0.92888 0.71742 0.0
C193 C 0.71847 0.83851 0.69913 0.0
C194 C 0.70353 0.85896 0.67957 0.0
N195 N 0.67144 0.9134 0.679 0.0
N196 N 0.70148 0.8738 0.71749 0.0
H197 H 0.62762 0.99112 0.69641 0.0
C198 C 0.84441 0.90843 0.63588 0.0
O199 O 0.80538 0.92615 0.64944 0.0
O200 O 0.56601 0.95896 0.65112 0.0
H201 H 0.7167 0.83085 0.66491 0.0
H202 H 0.64053 0.78883 0.54007 0.0
H203 H 0.74359 0.79495 0.69976 0.0
Zn204 Zn 0.34359 0.48615 0.91421 0.0
C205 C 0.42116 0.32939 0.88907 0.0
N206 N 0.39021 0.30123 0.90236 0.0
C207 C 0.3521 0.34749 0.90851 0.0
N208 N 0.36016 0.40129 0.89969 0.0
N209 N 0.40168 0.38964 0.88674 0.0
C210 C 0.5118 0.50611 0.88394 0.0
O211 O 0.48734 0.49687 0.90127 0.0
O212 O 0.26073 0.50361 0.91293 0.0
Zn213 Zn 0.41103 0.44327 0.86434 0.0
N214 N 0.37197 0.49297 0.94388 0.0
C215 C 0.44339 0.52943 0.97155 0.0
C216 C 0.42252 0.52378 0.95018 0.0
C217 C 0.34123 0.46745 0.95809 0.0
N218 N 0.41272 0.5042 0.98578 0.0
C219 C 0.36203 0.47295 0.97973 0.0
O220 O 0.36008 0.52366 0.86671 0.0
C221 C 0.35889 0.56711 0.88334 0.0
O222 O 0.38088 0.55541 0.90119 0.0
H223 H 0.4462 0.54419 0.93872 0.0
H224 H 0.30059 0.4446 0.95254 0.0
C225 C 0.40273 0.41575 0.81854 0.0
C226 C 0.38815 0.37936 0.79812 0.0
C227 C 0.35174 0.29477 0.81495 0.0
C228 C 0.36611 0.33122 0.83508 0.0
N229 N 0.3916 0.39081 0.83648 0.0
N230 N 0.36277 0.3197 0.797 0.0
H231 H 0.42114 0.46431 0.8204 0.0
C232 C 0.23317 0.50004 0.89484 0.0
O233 O 0.25844 0.47872 0.87726 0.0
O234 O 0.48907 0.48174 0.86568 0.0
H235 H 0.35658 0.3123 0.84944 0.0
H236 H 0.48351 0.55397 0.97684 0.0
H237 H 0.3314 0.2473 0.81358 0.0
Zn238 Zn 0.83446 0.1451 0.11884 0.0
C239 C 0.96638 0.07531 0.15156 0.0
N240 N 0.9871 0.13652 0.15413 0.0
C241 C 0.94397 0.17031 0.14624 0.0
N242 N 0.89902 0.13095 0.13856 0.0
N243 N 0.9126 0.07183 0.14266 0.0
C244 C 0.86877 0.90874 0.12603 0.0
O245 O 0.86595 0.95507 0.114 0.0
O246 O 0.81719 0.24081 0.12171 0.0
Zn247 Zn 0.85991 1.0206 0.15487 0.0
N248 N 0.85682 0.11494 0.08965 0.0
C249 C 0.91669 0.04575 0.0673 0.0
C250 C 0.89737 0.06807 0.08742 0.0
C251 C 0.83592 0.142 0.07239 0.0
N252 N 0.89585 0.0724 0.05014 0.0
C253 C 0.85626 0.12054 0.05195 0.0
O254 O 0.77595 1.0306 0.14652 0.0
C255 C 0.7409 0.0604 0.13532 0.0
O256 O 0.75832 0.10209 0.1242 0.0
H257 H 0.91539 0.04864 0.10119 0.0
H258 H 0.80402 0.17957 0.07467 0.0
C259 C 0.88151 1.02026 0.20174 0.0
C260 C 0.8877 0.05486 0.22287 0.0
C261 C 0.86675 0.15404 0.20959 0.0
C262 C 0.8598 0.11976 0.18888 0.0
N263 N 0.86807 0.05401 0.18524 0.0
N264 N 0.88045 0.12091 0.22604 0.0
H265 H 0.88781 0.96792 0.19841 0.0
C266 C 0.80132 0.271 0.13937 0.0
O267 O 0.8012 0.24007 0.15601 0.0
O268 O 0.87534 0.92557 0.14631 0.0
H269 H 0.84826 0.14546 0.17564 0.0
H270 H 0.94864 1.00812 0.06538 0.0
H271 H 0.86095 0.20649 0.21263 0.0
Zn272 Zn 0.90723 0.64622 0.87192 0.0
C273 C 0.8609 0.81081 0.90871 0.0
N274 N 0.91586 0.82801 0.9091 0.0
C275 C 0.94029 0.77306 0.8998 0.0
N276 N 0.90166 0.72461 0.8933 0.0
N277 N 0.85245 0.74723 0.89996 0.0
C278 C 0.70886 0.67323 0.89114 0.0
O279 O 0.74543 0.65939 0.87635 0.0
O280 O 0.9876 0.62066 0.87214 0.0
Zn281 Zn 0.80988 0.69161 0.91497 0.0
N282 N 0.88442 0.66863 0.84366 0.0
C283 C 0.84368 0.74734 0.82352 0.0
C284 C 0.85699 0.72628 0.84311 0.0
C285 C 0.89877 0.63072 0.82518 0.0
N286 N 0.85759 0.70954 0.80513 0.0
C287 C 0.88462 0.65132 0.80518 0.0
O288 O 0.81979 0.59329 0.90657 0.0
C289 C 0.83824 0.54843 0.89263 0.0
O290 O 0.86717 0.56268 0.87764 0.0
H291 H 0.84628 0.7564 0.85779 0.0
H292 H 0.92163 0.58583 0.82621 0.0
C293 C 0.79446 0.69669 0.95962 0.0
C294 C 0.81108 0.70635 0.98174 0.0
C295 C 0.90014 0.74756 0.97415 0.0
C296 C 0.88409 0.73583 0.95227 0.0
N297 N 0.83135 0.7115 0.94544 0.0
N298 N 0.86356 0.73231 0.9883 0.0
H299 H 0.753 0.67721 0.95352 0.0
C300 C 1.00839 0.6054 0.88971 0.0
O301 O 0.97685 0.61062 0.90622 0.0
O302 O 0.72694 0.70143 0.90966 0.0
H303 H 0.9138 0.74525 0.94087 0.0
H304 H 0.82226 0.79338 0.82291 0.0
H305 H 0.9418 0.76742 0.97984 0.0
Zn306 Zn 0.20688 0.09108 0.61177 0.0
C307 C 0.13308 0.25062 0.63628 0.0
N308 N 0.16408 0.27707 0.62264 0.0
C309 C 0.20191 0.23016 0.61683 0.0
N310 N 0.19348 0.17738 0.62617 0.0
N311 N 0.15234 0.19076 0.63922 0.0
C312 C 0.0409 0.07603 0.64258 0.0
O313 O 0.06497 0.08506 0.62515 0.0
O314 O 0.28934 0.0718 0.61205 0.0
Zn315 Zn 0.14227 0.13824 0.66197 0.0
N316 N 0.17583 0.08239 0.58233 0.0
C317 C 0.10359 1.04309 0.5553 0.0
C318 C 0.12566 0.05018 0.57656 0.0
C319 C 0.20516 0.10748 0.56767 0.0
N320 N 0.1331 0.06751 0.54057 0.0
C321 C 0.18381 0.09928 0.54601 0.0
O322 O 0.19313 0.05758 0.65997 0.0
C323 C 0.19329 1.01306 0.64359 0.0
O324 O 0.1701 1.02367 0.6258 0.0
H325 H 0.10315 1.02989 0.58836 0.0
H326 H 0.24441 0.13368 0.57306 0.0
C327 C 0.16045 0.15905 0.70726 0.0
C328 C 0.17572 0.19311 0.72792 0.0
C329 C 0.19087 0.28903 0.71274 0.0
C330 C 0.17702 0.25447 0.69224 0.0
N331 N 0.16147 0.1903 0.68993 0.0
N332 N 0.18998 0.25768 0.73008 0.0
H333 H 0.14766 0.10806 0.70481 0.0
C334 C 0.31823 0.07633 0.6299 0.0
O335 O 0.29442 0.09914 0.64768 0.0
O336 O 0.06416 0.10018 0.66076 0.0
H337 H 0.17868 0.27874 0.67836 0.0
H338 H 0.06355 1.01783 0.55046 0.0
H339 H 0.20283 0.34024 0.71484 0.0
Zn340 Zn 0.69579 0.4636 0.40756 0.0
C341 C 0.56195 0.50766 0.37092 0.0
N342 N 0.54463 0.44575 0.37055 0.0
C343 C 0.58956 0.41853 0.37998 0.0
N344 N 0.63169 0.46266 0.38667 0.0
N345 N 0.61552 0.51708 0.37976 0.0
C346 C 0.64275 0.67878 0.38539 0.0
O347 O 0.65052 0.64341 0.40088 0.0
O348 O 0.72822 0.37626 0.40452 0.0
Zn349 Zn 0.6667 0.5592 0.36401 0.0
N350 N 0.6712 0.48827 0.43649 0.0
C351 C 0.61223 0.55418 0.46003 0.0
C352 C 0.63146 0.53568 0.43963 0.0
C353 C 0.69251 0.45818 0.453 0.0
N354 N 0.63367 0.52463 0.47653 0.0
C355 C 0.67366 0.47699 0.47382 0.0
O356 O 0.75178 0.56193 0.37354 0.0
C357 C 0.78484 0.54817 0.389 0.0
O358 O 0.76628 0.51765 0.40322 0.0
H359 H 0.61466 0.55861 0.42634 0.0
H360 H 0.72293 0.41949 0.44965 0.0
C361 C 0.66013 0.55698 0.31888 0.0
C362 C 0.65357 0.52829 0.29715 0.0
C363 C 0.64442 0.42391 0.30796 0.0
C364 C 0.65079 0.45278 0.32943 0.0
N365 N 0.65819 0.51866 0.33441 0.0
N366 N 0.646 0.46215 0.2924 0.0
H367 H 0.66784 0.60888 0.32361 0.0
C368 C 0.7523 0.36253 0.38707 0.0
O369 O 0.74274 0.39898 0.37195 0.0
O370 O 0.64268 0.65021 0.36615 0.0
H371 H 0.65006 0.42295 0.34199 0.0
H372 H 0.58046 0.59178 0.46274 0.0
H373 H 0.63843 0.37153 0.30368 0.0
Zn374 Zn 0.38904 0.96692 0.15517 0.0
C375 C 0.31351 0.78782 0.1395 0.0
N376 N 0.3643 0.77047 0.14759 0.0
C377 C 0.39549 0.82536 0.14924 0.0
N378 N 0.36567 0.87498 0.14253 0.0
N379 N 0.31393 0.85112 0.13581 0.0
C380 C 0.16622 0.92488 0.1416 0.0
O381 O 0.20873 0.95079 0.15464 0.0
O382 O 0.47649 0.98462 0.15371 0.0
Zn383 Zn 0.26176 0.89433 0.11695 0.0
N384 N 0.37067 0.97162 0.18543 0.0
C385 C 0.30714 0.92595 0.20701 0.0
C386 C 0.32331 0.93579 0.18707 0.0
C387 C 0.4017 1.00076 0.20353 0.0
N388 N 0.33818 0.95369 0.22488 0.0
C389 C 0.38489 0.99128 0.22394 0.0
O390 O 0.2765 0.99171 0.1197 0.0
C391 C 0.3043 1.04303 0.12821 0.0
O392 O 0.34583 1.04023 0.1421 0.0
H393 H 0.2986 0.91348 0.17292 0.0
H394 H 0.43912 1.02952 0.2021 0.0
C395 C 0.25065 0.8836 0.06993 0.0
C396 C 0.26638 0.85925 0.04894 0.0
C397 C 0.32842 0.78438 0.06355 0.0
C398 C 0.31426 0.8101 0.08414 0.0
N399 N 0.27482 0.85807 0.08705 0.0
N400 N 0.3045 0.8096 0.04657 0.0
H401 H 0.22034 0.92271 0.07279 0.0
C402 C 0.49639 1.01757 0.14028 0.0
O403 O 0.46048 1.04232 0.12695 0.0
O404 O 0.17772 0.89088 0.12379 0.0
H405 H 0.33591 0.79285 0.0977 0.0
H406 H 0.27002 0.89656 0.20832 0.0
H407 H 0.35934 0.74573 0.0611 0.0
Zn408 Zn 0.89346 0.45979 0.65407 0.0
C409 C 0.82377 0.27843 0.6359 0.0
N410 N 0.87482 0.2622 0.64404 0.0
C411 C 0.90429 0.31853 0.64665 0.0
N412 N 0.87322 0.36792 0.64038 0.0
N413 N 0.82234 0.34248 0.63303 0.0
C414 C 0.67521 0.42189 0.64278 0.0
O415 O 0.71898 0.45073 0.65441 0.0
O416 O 0.98173 0.47865 0.65507 0.0
Zn417 Zn 0.76645 0.38718 0.61582 0.0
N418 N 0.86832 0.46429 0.68356 0.0
C419 C 0.80455 0.41471 0.70414 0.0
C420 C 0.82468 0.42208 0.68457 0.0
C421 C 0.89157 0.5017 0.7019 0.0
N422 N 0.82802 0.45077 0.72226 0.0
C423 C 0.87079 0.49451 0.72193 0.0
O424 O 0.78307 0.48375 0.61789 0.0
C425 C 0.81181 0.5348 0.62591 0.0
O426 O 0.85305 0.53233 0.63992 0.0
H427 H 0.80537 0.39346 0.6703 0.0
H428 H 0.92604 0.5354 0.70099 0.0
C429 C 0.74649 0.38139 0.56926 0.0
C430 C 0.75746 0.35819 0.54766 0.0
C431 C 0.8167 0.27611 0.55952 0.0
C432 C 0.80725 0.30055 0.58072 0.0
N433 N 0.77161 0.35172 0.58532 0.0
N434 N 0.79209 0.30564 0.5436 0.0
H435 H 0.72072 0.4242 0.57339 0.0
C436 C 1.00359 0.51334 0.64253 0.0
O437 O 0.96938 0.53897 0.62885 0.0
O438 O 0.68439 0.38539 0.62515 0.0
H439 H 0.83001 0.28028 0.59341 0.0
H440 H 0.77028 0.38066 0.70495 0.0
H441 H 0.8448 0.23517 0.55575 0.0
Zn442 Zn 0.42465 0.12593 0.37648 0.0
C443 C 0.35745 0.29869 0.40368 0.0
N444 N 0.41115 0.31985 0.40381 0.0
C445 C 0.44018 0.26453 0.39829 0.0
N446 N 0.40604 0.21102 0.39432 0.0
N447 N 0.35413 0.23223 0.3987 0.0
C448 C 0.1986 0.16099 0.38777 0.0
O449 O 0.23198 0.13493 0.37299 0.0
O450 O 0.5128 0.11249 0.3774 0.0
Zn451 Zn 0.30502 0.17889 0.41242 0.0
N452 N 0.39815 0.13665 0.34684 0.0
C453 C 0.33606 0.19702 0.32594 0.0
C454 C 0.35483 0.17974 0.34558 0.0
C455 C 0.42172 0.10735 0.32859 0.0
N456 N 0.35979 0.16877 0.30795 0.0
C457 C 0.40178 0.1238 0.30845 0.0
O458 O 0.317 0.08075 0.40496 0.0
C459 C 0.34365 1.03235 0.39538 0.0
O460 O 0.38501 1.04179 0.38406 0.0
H461 H 0.33476 0.20129 0.3597 0.0
H462 H 0.45554 0.07243 0.32973 0.0
C463 C 0.28948 0.17911 0.45758 0.0
C464 C 0.30568 0.19249 0.47975 0.0
C465 C 0.38711 0.24963 0.47211 0.0
C466 C 0.37155 0.23523 0.45027 0.0
N467 N 0.32284 0.20091 0.44334 0.0
N468 N 0.35417 0.22772 0.48626 0.0
H469 H 0.25214 0.14988 0.45156 0.0
C470 C 0.54529 0.11491 0.39456 0.0
O471 O 0.52237 0.1259 0.41314 0.0
O472 O 0.22124 0.19082 0.40548 0.0
H473 H 0.39904 0.2504 0.43904 0.0
H474 H 0.30229 0.23206 0.32495 0.0
H475 H 0.42568 0.27701 0.47779 0.0
Zn476 Zn 0.69918 0.59958 0.11123 0.0
C477 C 0.62462 0.7559 0.13784 0.0
N478 N 0.65693 0.78476 0.12514 0.0
C479 C 0.69454 0.73805 0.11887 0.0
N480 N 0.68503 0.68349 0.12706 0.0
N481 N 0.64301 0.69498 0.13977 0.0
C482 C 0.5294 0.57995 0.14112 0.0
O483 O 0.55419 0.58878 0.12383 0.0
O484 O 0.78174 0.58052 0.11208 0.0
Zn485 Zn 0.63114 0.63845 0.16102 0.0
N486 N 0.66965 0.59746 0.08187 0.0
C487 C 0.59555 0.56756 0.05467 0.0
C488 C 0.61774 0.56977 0.07576 0.0
C489 C 0.7006 0.62291 0.06772 0.0
N490 N 0.62644 0.59262 0.04048 0.0
C491 C 0.67857 0.62054 0.04633 0.0
O492 O 0.68027 0.55701 0.15772 0.0
C493 C 0.6817 0.51492 0.14079 0.0
O494 O 0.6609 0.52857 0.12303 0.0
H495 H 0.59401 0.54904 0.08712 0.0
H496 H 0.74232 0.6431 0.07309 0.0
C497 C 0.64731 0.64847 0.20571 0.0
C498 C 0.6621 0.67723 0.22698 0.0
C499 C 0.68226 0.77706 0.21475 0.0
C500 C 0.6686 0.74771 0.1936 0.0
N501 N 0.65084 0.6842 0.18958 0.0
N502 N 0.67871 0.74128 0.23092 0.0
H503 H 0.63264 0.5982 0.20183 0.0
C504 C 0.80867 0.58328 0.13027 0.0
O505 O 0.78268 0.6038 0.14774 0.0
O506 O 0.55254 0.60315 0.15939 0.0
H507 H 0.67198 0.77537 0.18058 0.0
H508 H 0.55429 0.5456 0.04954 0.0
H509 H 0.69596 0.82773 0.21829 0.0
Zn510 Zn 0.21145 0.9403 0.90441 0.0
C511 C 0.07804 1.00999 0.87231 0.0
N512 N 0.05632 0.94957 0.87096 0.0
C513 C 0.0997 0.91582 0.87867 0.0
N514 N 0.14593 0.95444 0.88509 0.0
N515 N 0.13269 1.01298 0.88031 0.0
C516 C 0.18095 0.17362 0.89989 0.0
O517 O 0.18647 0.12462 0.91077 0.0
O518 O 0.22811 0.84433 0.90159 0.0
Zn519 Zn 0.18533 0.06637 0.86862 0.0
N520 N 0.19032 0.97074 0.93384 0.0
C521 C 0.12978 1.03873 0.95627 0.0
C522 C 0.14867 1.01633 0.93609 0.0
C523 C 0.21254 0.9448 0.95117 0.0
N524 N 0.15193 1.01325 0.97348 0.0
C525 C 0.19251 0.96623 0.97169 0.0
O526 O 0.26972 0.05353 0.87582 0.0
C527 C 0.30488 1.02341 0.8869 0.0
O528 O 0.28745 0.98263 0.89836 0.0
H529 H 0.1294 1.03459 0.92229 0.0
H530 H 0.2451 0.90799 0.94888 0.0
C531 C 0.17706 0.08173 0.82265 0.0
C532 C 0.17156 0.05455 0.80064 0.0
C533 C 0.16033 0.94888 0.8102 0.0
C534 C 0.16704 0.97555 0.83176 0.0
N535 N 0.17445 1.04126 0.83767 0.0
N536 N 0.16296 0.98875 0.79526 0.0
H537 H 0.18509 0.13344 0.82783 0.0
C538 C 0.24022 0.81164 0.88374 0.0
O539 O 0.23707 0.8401 0.86651 0.0
O540 O 0.1718 0.16052 0.87958 0.0
H541 H 0.16722 0.94366 0.84373 0.0
H542 H 0.097 0.07541 0.9582 0.0
H543 H 0.15405 0.89672 0.80534 0.0
C544 C 0.03093 0.3167 0.15353 0.0
C545 C 0.04345 0.31393 0.1321 0.0
H546 H 0.98287 0.27315 0.17514 0.0
C547 C 1.00405 0.28403 0.11578 0.0
H548 H 0.0607 0.33908 0.1664 0.0
C549 C 0.95957 0.24568 0.12076 0.0
C550 C 0.95484 0.237 0.14209 0.0
H551 H 1.01289 0.28161 0.09907 0.0
H552 H 0.9361 0.21424 0.1078 0.0
C553 C 0.98611 0.2788 0.1585 0.0
C554 C 1.02078 0.8317 0.41806 0.0
C555 C 0.98939 0.85861 0.40195 0.0
H556 H 0.0909 0.77109 0.42519 0.0
C557 C 0.99247 0.82868 0.38046 0.0
H558 H 1.01982 0.85425 0.4347 0.0
C559 C 0.03465 0.78264 0.37493 0.0
C560 C 0.0728 0.76451 0.3909 0.0
H561 H 0.9697 0.84904 0.36765 0.0
H562 H 0.04274 0.76915 0.35815 0.0
C563 C 0.06163 0.78386 0.41254 0.0
C564 C 0.46894 0.73524 0.62192 0.0
C565 C 0.46648 0.72996 0.64365 0.0
H566 H 0.51934 0.76709 0.59856 0.0
C567 C 0.49998 0.77298 0.65901 0.0
H568 H 0.44391 0.70273 0.60975 0.0
C569 C 0.54393 0.80938 0.65263 0.0
C570 C 0.55366 0.80386 0.63084 0.0
H571 H 0.49873 0.76983 0.67593 0.0
H572 H 0.575 0.8331 0.66476 0.0
C573 C 0.51265 0.77194 0.61553 0.0
C574 C 0.50283 0.32398 0.86525 0.0
C575 C 0.47432 0.30004 0.88119 0.0
H576 H 0.58112 0.32741 0.85014 0.0
C577 C 0.50069 0.25216 0.89194 0.0
H578 H 0.48357 0.3597 0.85643 0.0
C579 C 0.55656 0.23414 0.88852 0.0
C580 C 0.58638 0.26142 0.87363 0.0
H581 H 0.48007 0.23252 0.90438 0.0
H582 H 0.57785 0.20328 0.89889 0.0
C583 C 0.55849 0.30475 0.86146 0.0
C584 C 0.03946 0.80597 0.91055 0.0
C585 C 0.99998 0.77463 0.89451 0.0
H586 H 0.10754 0.87582 0.91778 0.0
C587 C 1.01225 0.77008 0.87298 0.0
H588 H 0.03083 0.80986 0.92732 0.0
C589 C 0.05706 0.80716 0.86756 0.0
C590 C 0.08865 0.85 0.88359 0.0
H591 H 0.98244 0.74672 0.86031 0.0
H592 H 0.06017 0.81121 0.85078 0.0
C593 C 0.08393 0.84348 0.9051 0.0
C594 C 0.0496 0.25694 0.65924 0.0
C595 C 0.07952 0.28049 0.64359 0.0
H596 H 0.96963 0.25299 0.67317 0.0
C597 C 0.05407 0.32793 0.63239 0.0
H598 H 0.06827 0.22181 0.66846 0.0
C599 C 0.99773 0.34549 0.63497 0.0
C600 C 0.96646 0.31814 0.64943 0.0
H601 H 0.07585 0.34744 0.6202 0.0
H602 H 0.97731 0.37595 0.62426 0.0
C603 C 0.99337 0.27561 0.66215 0.0
C604 C 0.51685 0.26308 0.37382 0.0
C605 C 0.50089 0.26809 0.39491 0.0
H606 H 0.56435 0.30801 0.35239 0.0
C607 C 0.53556 0.30446 0.41159 0.0
H608 H 0.49072 0.2356 0.3607 0.0
C609 C 0.57739 0.34677 0.40683 0.0
C610 C 0.58427 0.35242 0.38539 0.0
H611 H 0.52394 0.30873 0.42804 0.0
H612 H 0.59624 0.38273 0.41968 0.0
C613 C 0.55917 0.30478 0.3691 0.0
C614 C 0.48832 0.84881 0.13632 0.0
C615 C 0.45767 0.82252 0.15118 0.0
H616 H 0.56593 0.85031 0.12119 0.0
C617 C 0.4848 0.77983 0.16379 0.0
H618 H 0.46755 0.8788 0.12554 0.0
C619 C 0.54086 0.76085 0.16064 0.0
C620 C 0.57049 0.78452 0.14492 0.0
H621 H 0.46144 0.75775 0.17504 0.0
H622 H 0.55977 0.72575 0.16983 0.0
C623 C 0.54454 0.83123 0.13357 0.0
C624 C 0.24305 0.10852 0.10545 0.0
C625 C 0.28366 0.10744 0.1228 0.0
H626 H 0.18077 0.16394 0.08993 0.0
C627 C 0.2992 0.16745 0.1358 0.0
H628 H 0.23048 0.06378 0.09483 0.0
C629 C 0.27085 0.22573 0.13269 0.0
C630 C 0.22651 0.22494 0.11655 0.0
H631 H 0.33046 0.1687 0.14923 0.0
H632 H 0.28018 0.26987 0.14408 0.0
C633 C 0.21488 0.16628 0.10243 0.0
C634 C 0.06608 0.0589 0.37012 0.0
C635 C 0.03816 0.06758 0.3892 0.0
H636 H 0.13897 0.08328 0.35444 0.0
C637 C 0.05746 0.11634 0.40613 0.0
H638 H 0.05249 1.0205 0.35706 0.0
C639 C 0.10671 0.15236 0.40473 0.0
C640 C 0.13839 0.13902 0.38653 0.0
H641 H 0.03712 0.12283 0.42116 0.0
H642 H 0.12253 0.18635 0.41869 0.0
C643 C 0.11581 0.09458 0.36875 0.0
C644 C 0.27494 0.8733 0.66354 0.0
C645 C 0.28833 0.83525 0.64408 0.0
H646 H 0.23448 0.95978 0.67872 0.0
C647 C 0.2728 0.85809 0.62472 0.0
H648 H 0.28655 0.85717 0.67874 0.0
C649 C 0.24239 0.91596 0.62472 0.0
C650 C 0.22731 0.95301 0.64409 0.0
H651 H 0.28258 0.83028 0.60944 0.0
H652 H 0.23036 0.9314 0.60944 0.0
C653 C 0.24501 0.93193 0.66355 0.0
C654 C 0.44638 0.08763 0.87102 0.0
C655 C 0.4869 0.05582 0.88308 0.0
H656 H 0.35803 0.10317 0.86287 0.0
C657 C 0.46672 1.01386 0.89656 0.0
H658 H 0.45995 0.12058 0.86058 0.0
C659 C 0.40822 1.00364 0.89788 0.0
C660 C 0.36758 1.03528 0.88584 0.0
H661 H 0.49628 0.98838 0.90616 0.0
H662 H 0.39492 0.97068 0.90836 0.0
C663 C 0.38769 0.07767 0.87243 0.0
C664 C 0.33392 0.90861 0.38196 0.0
C665 C 0.32249 0.96441 0.39698 0.0
H666 H 0.31082 0.80841 0.3689 0.0
C667 C 0.28491 0.95635 0.4128 0.0
H668 H 0.36229 0.91256 0.36946 0.0
C669 C 0.25633 0.89681 0.41262 0.0
C670 C 0.26448 0.84232 0.39682 0.0
H671 H 0.27491 0.99743 0.42477 0.0
H672 H 0.22415 0.8952 0.42395 0.0
C673 C 0.30497 0.84841 0.38181 0.0
C674 C 0.45937 1.00934 0.61279 0.0
C675 C 0.48579 0.99828 0.63247 0.0
H676 H 0.38531 1.04323 0.59655 0.0
C677 C 0.45695 1.01368 0.65128 0.0
H678 H 0.48066 0.99786 0.59803 0.0
C679 C 0.40277 1.04019 0.65046 0.0
C680 C 0.37633 0.05121 0.6308 0.0
H681 H 0.47632 1.0057 0.66669 0.0
H682 H 0.38139 0.05125 0.66521 0.0
C683 C 0.40492 1.0354 0.61195 0.0
C684 C 0.24824 0.23957 0.92669 0.0
C685 C 0.2075 0.23702 0.9092 0.0
H686 H 0.32859 0.2797 0.94045 0.0
C687 C 0.20526 0.28845 0.89714 0.0
H688 H 0.25037 0.20127 0.93661 0.0
C689 C 0.24961 0.3339 0.89969 0.0
C690 C 0.29622 0.32837 0.91432 0.0
H691 H 0.17384 0.28823 0.88379 0.0
H692 H 0.25169 0.36562 0.88773 0.0
C693 C 0.29305 0.28467 0.92903 0.0
C694 C 0.06292 0.93994 0.12974 0.0
C695 C 0.10742 0.94733 0.14598 0.0
H696 H 0.98157 0.97417 0.11902 0.0
C697 C 0.09781 0.98587 0.16581 0.0
H698 H 0.06877 0.9108 0.11427 0.0
C699 C 0.04787 1.02188 0.16852 0.0
C700 C 1.00578 1.01949 0.15163 0.0
H701 H 0.13073 0.99228 0.17881 0.0
H702 H 0.04418 0.05576 0.18327 0.0
C703 C 1.0125 0.97574 0.13256 0.0
C704 C 0.773 0.86152 0.89365 0.0
C705 C 0.81701 0.86263 0.90992 0.0
H706 H 0.71422 0.91821 0.87666 0.0
C707 C 0.82865 0.9216 0.92389 0.0
H708 H 0.76365 0.81711 0.88239 0.0
C709 C 0.801 0.97937 0.92052 0.0
C710 C 0.76089 0.98003 0.903 0.0
H711 H 0.86248 0.92414 0.9365 0.0
H712 H 0.81364 1.02438 0.93099 0.0
C713 C 0.74515 0.91975 0.89022 0.0
C714 C 0.96115 1.02813 0.6593 0.0
C715 C 0.99177 1.03143 0.6412 0.0
H716 H 0.89084 0.98535 0.67192 0.0
C717 C 0.9768 0.98937 0.62198 0.0
H718 H 0.97218 0.05958 0.67439 0.0
C719 C 0.93113 0.94595 0.62069 0.0
C720 C 0.89898 0.9444 0.63853 0.0
H721 H 1.00025 0.99003 0.60787 0.0
H722 H 0.91973 0.91554 0.60543 0.0
C723 C 0.91498 0.98519 0.65794 0.0
C724 C 0.81965 0.29082 0.36584 0.0
C725 C 0.79895 0.31585 0.38571 0.0
H726 H 0.87644 0.2237 0.34916 0.0
C727 C 0.8254 0.299 0.40462 0.0
H728 H 0.80066 0.30447 0.35109 0.0
C729 C 0.86967 0.25468 0.40361 0.0
C730 C 0.88731 0.22512 0.38364 0.0
H731 H 0.81149 0.31941 0.42024 0.0
H732 H 0.88753 0.24062 0.41847 0.0
C733 C 0.86352 0.24548 0.36478 0.0
C734 C 0.6376 0.07921 0.12403 0.0
C735 C 0.67829 0.04789 0.13615 0.0
H736 H 0.54945 0.09437 0.1158 0.0
C737 C 0.65832 1.00573 0.14965 0.0
H738 H 0.65085 0.112 0.11348 0.0
C739 C 0.59972 0.99592 0.15115 0.0
C740 C 0.55914 1.02756 0.13908 0.0
H741 H 0.68803 0.98054 0.15928 0.0
H742 H 0.58628 0.96338 0.16175 0.0
C743 C 0.57912 0.06906 0.12542 0.0
C744 C 0.79397 0.17362 0.61352 0.0
C745 C 0.78016 0.2262 0.62921 0.0
H746 H 0.78431 0.07198 0.60094 0.0
C747 C 0.73918 0.21527 0.64345 0.0
H748 H 0.82763 0.17872 0.60308 0.0
C749 C 0.71548 0.15227 0.64283 0.0
C750 C 0.73243 0.09879 0.62795 0.0
H751 H 0.72942 0.25384 0.65632 0.0
H752 H 0.68656 0.14477 0.65482 0.0
C753 C 0.77001 0.11136 0.6127 0.0
C754 C 0.69405 0.0842 0.37419 0.0
C755 C 0.72805 0.08315 0.39341 0.0
H756 H 0.61034 0.09468 0.35934 0.0
C757 C 0.70137 0.09515 0.41288 0.0
H758 H 0.71273 0.07502 0.35885 0.0
C759 C 0.64266 0.10627 0.41313 0.0
C760 C 0.60835 0.10557 0.39394 0.0
H761 H 0.72569 0.09477 0.42803 0.0
H762 H 0.62403 0.11445 0.4285 0.0
C763 C 0.63508 0.09518 0.37445 0.0
C764 C 0.80086 0.84153 0.0999 0.0
C765 C 0.8411 0.84534 0.11759 0.0
H766 H 0.72016 0.80199 0.08631 0.0
C767 C 0.84177 0.79609 0.13051 0.0
H768 H 0.79983 0.87818 0.08937 0.0
C769 C 0.79671 0.75163 0.12836 0.0
C770 C 0.75085 0.75621 0.1133 0.0
H771 H 0.8727 0.79742 0.14408 0.0
H772 H 0.79366 0.7214 0.14072 0.0
C773 C 0.75521 0.79775 0.09801 0.0
C774 C 0.03329 0.11127 0.8907 0.0
C775 C 0.03943 0.06638 0.87183 0.0
H776 H 0.97736 0.17686 0.90894 0.0
C777 C 0.99673 0.0629 0.85511 0.0
H778 H 0.06478 0.11372 0.9041 0.0
C779 C 0.94672 0.09876 0.85786 0.0
C780 C 0.93763 0.13826 0.87758 0.0
H781 H 0.99993 1.02807 0.84054 0.0
H782 H 0.91333 0.09137 0.84505 0.0
C783 C 0.98276 0.14691 0.89357 0.0
C784 C 0.75176 0.59939 0.60257 0.0
C785 C 0.79236 0.59881 0.61994 0.0
H786 H 0.68937 0.65446 0.58696 0.0
C787 C 0.80857 0.65909 0.63261 0.0
H788 H 0.73878 0.55436 0.59219 0.0
C789 C 0.78048 0.71724 0.62929 0.0
C790 C 0.73576 0.71593 0.61329 0.0
H791 H 0.8399 0.66065 0.64603 0.0
H792 H 0.79004 0.76164 0.64053 0.0
C793 C 0.7238 0.65707 0.59935 0.0
C794 C 0.63606 0.60025 0.86882 0.0
C795 C 0.6541 0.63764 0.88864 0.0
H796 H 0.57732 0.52852 0.85183 0.0
C797 C 0.62382 0.63288 0.90673 0.0
H798 H 0.65868 0.60262 0.85461 0.0
C799 C 0.57793 0.58961 0.90522 0.0
C800 C 0.56101 0.55078 0.88554 0.0
H801 H 0.63683 0.66065 0.92229 0.0
H802 H 0.55596 0.58641 0.91952 0.0
C803 C 0.58984 0.55733 0.86727 0.0
C804 C 0.73309 0.4205 0.12153 0.0
C805 C 0.7149 0.45435 0.1409 0.0
H806 H 0.77573 0.3371 0.10595 0.0
C807 C 0.72912 0.42996 0.16008 0.0
H808 H 0.72373 0.43865 0.10651 0.0
C809 C 0.75887 0.37123 0.15974 0.0
C810 C 0.77554 0.33645 0.14025 0.0
H811 H 0.71609 0.45538 0.17526 0.0
H812 H 0.76785 0.35251 0.17468 0.0
C813 C 0.76337 0.36249 0.12123 0.0
C814 C 0.87174 0.58581 0.37226 0.0
C815 C 0.84737 0.56355 0.38964 0.0
H816 H 0.94799 0.6124 0.35865 0.0
C817 C 0.88409 0.55283 0.40726 0.0
H818 H 0.84517 0.59447 0.35833 0.0
C819 C 0.94297 0.56339 0.40745 0.0
C820 C 0.96754 0.58443 0.38995 0.0
H821 H 0.86742 0.53566 0.42095 0.0
H822 H 0.9694 0.55408 0.42133 0.0
C823 C 0.93093 0.59584 0.37237 0.0
C824 C 0.7866 0.4644 0.90919 0.0
C825 C 0.8214 0.47874 0.89326 0.0
H826 H 0.73144 0.39553 0.91938 0.0
C827 C 0.8358 0.42665 0.87738 0.0
H828 H 0.77438 0.50266 0.92174 0.0
C829 C 0.81227 0.36349 0.87654 0.0
C830 C 0.77411 0.35078 0.8916 0.0
H831 H 0.86254 0.43547 0.86486 0.0
H832 H 0.81991 0.32621 0.863 0.0
C833 C 0.76292 0.40184 0.90821 0.0
C834 C 0.89758 0.54461 0.11343 0.0
C835 C 0.86694 0.55876 0.13184 0.0
H836 H 0.97503 0.50894 0.10047 0.0
C837 C 0.89156 0.54676 0.15168 0.0
H838 H 0.87944 0.55322 0.09791 0.0
C839 C 0.94593 0.5209 0.15311 0.0
C840 C 0.97677 0.5071 0.13474 0.0
H841 H 0.86864 0.55658 0.16609 0.0
H842 H 0.96385 0.51212 0.16864 0.0
C843 C 0.95219 0.51917 0.11489 0.0
C844 C 0.71911 0.82663 0.41272 0.0
C845 C 0.73344 0.85298 0.39463 0.0
H846 H 0.67476 0.75088 0.42413 0.0
C847 C 0.70253 0.83421 0.37488 0.0
H848 H 0.74061 0.84256 0.42838 0.0
C849 C 0.66423 0.78222 0.37251 0.0
C850 C 0.65751 0.7484 0.38981 0.0
H851 H 0.71123 0.85583 0.36088 0.0
H852 H 0.64526 0.76395 0.35659 0.0
C853 C 0.68073 0.77481 0.41036 0.0
C854 C 0.5701 0.43369 0.63303 0.0
C855 C 0.61686 0.44329 0.64832 0.0
H856 H 0.48675 0.46576 0.62367 0.0
C857 C 0.60958 0.48306 0.66814 0.0
H858 H 0.57409 0.40343 0.61761 0.0
C859 C 0.55956 0.51838 0.67161 0.0
C860 C 0.51517 0.51423 0.65549 0.0
H861 H 0.64428 0.49107 0.68043 0.0
H862 H 0.55762 0.55348 0.68619 0.0
C863 C 0.51962 0.46887 0.63661 0.0
C864 C 0.31876 0.40345 0.42165 0.0
C865 C 0.31025 0.34725 0.40604 0.0
H866 H 0.29972 0.50432 0.43173 0.0
C867 C 0.26761 0.34944 0.3894 0.0
H868 H 0.35179 0.40407 0.43448 0.0
C869 C 0.23767 0.40809 0.38759 0.0
C870 C 0.24997 0.46598 0.40232 0.0
H871 H 0.26099 0.30782 0.37674 0.0
H872 H 0.20792 0.40926 0.37383 0.0
C873 C 0.28921 0.46153 0.41987 0.0
C874 C 0.41808 0.45231 0.11876 0.0
C875 C 0.38772 0.44832 0.13689 0.0
H876 H 0.48579 0.49841 0.10577 0.0
C877 C 0.40525 0.48686 0.15656 0.0
H878 H 0.40544 0.4236 0.10331 0.0
C879 C 0.45109 0.5301 0.1579 0.0
C880 C 0.48006 0.53575 0.13958 0.0
H881 H 0.38252 0.48512 0.17078 0.0
H882 H 0.4633 0.55975 0.17323 0.0
C883 C 0.46361 0.49591 0.12007 0.0
C884 C 0.28 0.70892 0.86365 0.0
C885 C 0.26539 0.74583 0.88312 0.0
H886 H 0.32101 0.62301 0.84837 0.0
C887 C 0.27908 0.72151 0.90236 0.0
H888 H 0.2698 0.72622 0.84854 0.0
C889 C 0.30895 0.66329 0.90227 0.0
C890 C 0.32534 0.62743 0.88292 0.0
H891 H 0.26826 0.74842 0.91764 0.0
H892 H 0.31956 0.64668 0.91747 0.0
C893 C 0.30943 0.64996 0.86354 0.0
C894 C 0.08807 0.56745 0.62977 0.0
C895 C 0.06668 0.52408 0.64252 0.0
H896 H 0.16096 0.61176 0.61915 0.0
C897 C 0.10625 0.49115 0.65463 0.0
H898 H 0.05931 0.59386 0.62016 0.0
C899 C 0.16521 0.50128 0.65393 0.0
C900 C 0.18649 0.54496 0.64119 0.0
H901 H 0.09174 0.45715 0.66455 0.0
H902 H 0.19415 0.47482 0.66345 0.0
C903 C 0.14677 0.57781 0.62915 0.0
C904 C 0.23181 0.72405 0.14885 0.0
C905 C 0.26859 0.73677 0.13334 0.0
H906 H 0.18278 0.65221 0.16112 0.0
C907 C 0.27821 0.68585 0.11648 0.0
H908 H 0.2254 0.7612 0.16256 0.0
C909 C 0.25467 0.62328 0.11576 0.0
C910 C 0.22144 0.60891 0.13215 0.0
H911 H 0.30851 0.69224 0.10488 0.0
H912 H 0.26577 0.58502 0.10301 0.0
C913 C 0.20832 0.66099 0.14824 0.0
C914 C 0.14513 0.53979 0.91207 0.0
C915 C 0.17507 0.52508 0.8935 0.0
H916 H 0.06859 0.577 0.92542 0.0
C917 C 0.15011 0.5375 0.87376 0.0
H918 H 0.16356 0.53086 0.92751 0.0
C919 C 0.09614 0.56448 0.87261 0.0
C920 C 0.06603 0.57894 0.89114 0.0
H921 H 0.17254 0.5273 0.85924 0.0
H922 H 0.07796 0.57363 0.85715 0.0
C923 C 0.09089 0.5663 0.91088 0.0
C924 C 0.34819 0.29038 0.62836 0.0
C925 C 0.34543 0.34182 0.61628 0.0
H926 H 0.30263 0.21235 0.63768 0.0
C927 C 0.30514 0.33825 0.59862 0.0
H928 H 0.37939 0.29119 0.64181 0.0
C929 C 0.26105 0.29215 0.59612 0.0
C930 C 0.25796 0.24868 0.61093 0.0
H931 H 0.30269 0.37641 0.58865 0.0
H932 H 0.22566 0.2964 0.58456 0.0
C933 C 0.30448 0.24401 0.62569 0.0
C934 C 0.47432 0.5542 0.35518 0.0
C935 C 0.51923 0.56018 0.37111 0.0
H936 H 0.38947 0.58142 0.34637 0.0
C937 C 0.51474 0.606 0.38984 0.0
H938 H 0.4762 0.51835 0.34079 0.0
C939 C 0.46485 0.64182 0.39324 0.0
C940 C 0.41808 0.63196 0.37804 0.0
H941 H 0.54737 0.60965 0.40284 0.0
H942 H 0.46146 0.67331 0.40848 0.0
C943 C 0.42447 0.59012 0.35851 0.0
C944 C 0.33633 0.47828 0.01772 0.0
C945 C 0.32974 0.44783 0.99618 0.0
H946 H 0.31028 0.48311 0.04957 0.0
C947 C 0.29249 0.39383 0.99079 0.0
H948 H 0.36443 0.52019 0.02245 0.0
C949 C 0.26169 0.37194 1.00647 0.0
C950 C 0.26755 0.40309 0.02796 0.0
H951 H 0.28729 0.3679 0.97452 0.0
H952 H 0.23319 0.33041 1.0017 0.0
C953 C 0.30545 0.45651 0.03339 0.0
C954 C 0.93034 0.05704 0.26005 0.0
C955 C 0.89937 1.02266 0.242 0.0
H956 H 0.95711 0.062 0.29319 0.0
C957 C 0.87404 0.96237 0.24359 0.0
H958 H 0.951 0.10325 0.25921 0.0
C959 C 0.87677 0.93909 0.26326 0.0
C960 C 0.90466 0.97574 0.28168 0.0
H961 H 0.84933 0.93507 0.23004 0.0
H962 H 0.85461 0.89394 0.26425 0.0
C963 C 0.93328 1.03372 0.27962 0.0
C964 C 0.32017 0.70282 0.53796 0.0
C965 C 0.33757 0.63748 0.53672 0.0
H966 H 0.28937 0.77881 0.5211 0.0
C967 C 0.33732 0.59838 0.51635 0.0
H968 H 0.32134 0.73512 0.55322 0.0
C969 C 0.3191 0.62358 0.49773 0.0
C970 C 0.30126 0.68893 0.49899 0.0
H971 H 0.35057 0.54778 0.51481 0.0
H972 H 0.31787 0.59113 0.48252 0.0
C973 C 0.30231 0.72809 0.51939 0.0
C974 C 0.65611 0.93672 0.75686 0.0
C975 C 0.65661 0.96753 0.73845 0.0
H976 H 0.66072 0.94889 0.79133 0.0
C977 C 0.65229 1.03607 0.74105 0.0
H978 H 0.65891 0.88396 0.75545 0.0
C979 C 0.65289 0.07292 0.76159 0.0
C980 C 0.6575 1.04234 0.78001 0.0
H981 H 0.65315 0.06197 0.72747 0.0
H982 H 0.65408 0.12584 0.76313 0.0
C983 C 0.65635 0.97376 0.77745 0.0
C984 C 0.78231 0.71691 0.01954 0.0
C985 C 0.77445 0.68693 0.99796 0.0
H986 H 0.75789 0.72105 0.05166 0.0
C987 C 0.73396 0.63613 0.99251 0.0
H988 H 0.81287 0.75642 0.02433 0.0
C989 C 0.70255 0.61568 1.00823 0.0
C990 C 0.7112 0.64478 0.02985 0.0
H991 H 0.7275 0.61037 0.97626 0.0
H992 H 0.67246 0.57566 1.00348 0.0
C993 C 0.751 0.69625 0.03529 0.0
C994 C 0.19406 0.09403 0.74547 0.0
C995 C 0.17748 0.1597 0.74707 0.0
H996 H 0.20612 1.01055 0.76108 0.0
C997 C 0.16275 0.1929 0.76708 0.0
H998 H 0.20771 0.06753 0.73055 0.0
C999 C 0.16195 0.15997 0.78487 0.0
C1000 C 0.17649 0.09338 0.78295 0.0
H1001 H 0.15019 0.24376 0.76882 0.0
H1002 H 0.14816 0.18616 0.79979 0.0
C1003 C 0.19348 0.06141 0.76311 0.0
C1004 C 0.76734 0.38618 0.51098 0.0
C1005 C 0.73579 0.39057 0.52925 0.0
H1006 H 0.77452 0.41066 0.47978 0.0
C1007 C 0.68393 0.42405 0.52918 0.0
H1008 H 0.8079 0.36156 0.51051 0.0
C1009 C 0.66403 0.45169 0.51119 0.0
C1010 C 0.69541 0.44671 0.49278 0.0
H1011 H 0.65798 0.42777 0.54278 0.0
H1012 H 0.62353 0.4764 0.51165 0.0
C1013 C 0.74775 0.4141 0.49311 0.0
C1014 C 0.42029 0.12524 0.27007 0.0
C1015 C 0.41962 0.09011 0.28747 0.0
H1016 H 0.41172 0.12096 0.23585 0.0
C1017 C 0.42216 1.02155 0.28329 0.0
H1018 H 0.41841 0.17822 0.27282 0.0
C1019 C 0.41798 0.98886 0.26207 0.0
C1020 C 0.41203 1.02407 0.24469 0.0
H1021 H 0.42107 0.993 0.29624 0.0
H1022 H 0.4141 0.93596 0.25929 0.0
C1023 C 0.41689 0.09251 0.24885 0.0
C1024 C 0.86488 0.9781 0.5192 0.0
C1025 C 0.86529 0.9452 0.49799 0.0
H1026 H 0.83232 0.98131 0.55008 0.0
C1027 C 0.83649 0.88478 0.49248 0.0
H1028 H 0.88671 1.02468 0.52398 0.0
C1029 C 0.80554 0.8597 0.50746 0.0
C1030 C 0.803 0.89388 0.5284 0.0
H1031 H 0.83737 0.85677 0.47654 0.0
H1032 H 0.7829 0.8137 0.50249 0.0
C1033 C 0.83389 0.95291 0.53424 0.0
C1034 C 0.36287 0.41807 0.74147 0.0
C1035 C 0.40257 0.46866 0.7416 0.0
H1036 H 0.32693 0.35056 0.75942 0.0
C1037 C 0.4416 0.4845 0.75946 0.0
H1038 H 0.3319 0.40526 0.728 0.0
C1039 C 0.43898 0.45326 0.77738 0.0
C1040 C 0.39648 0.40618 0.77805 0.0
H1041 H 0.47316 0.52275 0.75984 0.0
H1042 H 0.46959 0.46736 0.79086 0.0
C1043 C 0.35986 0.38709 0.75955 0.0
C1044 C 0.83936 0.11081 1.01196 0.0
C1045 C 0.83708 0.14881 0.03242 0.0
H1046 H 0.82376 0.10505 0.97802 0.0
C1047 C 0.81918 0.21405 0.03372 0.0
H1048 H 0.85291 0.06031 1.01032 0.0
C1049 C 0.8032 0.24014 0.01509 0.0
C1050 C 0.80479 0.20196 0.99461 0.0
H1051 H 0.81833 0.24558 0.04906 0.0
H1052 H 0.78952 0.2906 0.01678 0.0
C1053 C 0.8232 0.13684 0.99331 0.0
C1054 C 0.14633 0.48027 0.28176 0.0
C1055 C 0.14274 0.54872 0.28429 0.0
H1056 H 0.15343 0.39099 0.25984 0.0
C1057 C 0.13515 0.57869 0.26577 0.0
H1058 H 0.15297 0.45576 0.29566 0.0
C1059 C 0.13606 0.54198 0.24524 0.0
C1060 C 0.14466 0.47399 0.24263 0.0
H1061 H 0.13241 0.63149 0.2672 0.0
H1062 H 0.13424 0.56803 0.23164 0.0
C1063 C 0.14738 0.44336 0.26116 0.0
C1064 C 0.18555 0.13559 0.50992 0.0
C1065 C 0.21499 0.12336 0.52903 0.0
H1066 H 0.19028 0.16767 0.47945 0.0
C1067 C 0.27427 0.1325 0.53133 0.0
H1068 H 0.13989 0.12904 0.50754 0.0
C1069 C 0.30302 0.15457 0.51523 0.0
C1070 C 0.27365 0.16733 0.49623 0.0
H1071 H 0.29913 0.12159 0.54534 0.0
H1072 H 0.34871 0.16085 0.51762 0.0
C1073 C 0.2145 0.15739 0.4937 0.0
C1074 C 0.64518 0.67013 0.26518 0.0
C1075 C 0.66007 0.63933 0.24496 0.0
H1076 H 0.62921 0.65972 0.29728 0.0
C1077 C 0.67336 0.57239 0.24216 0.0
H1078 H 0.63441 0.72158 0.26778 0.0
C1079 C 0.67119 0.53692 0.25914 0.0
C1080 C 0.65595 0.56742 0.27939 0.0
H1081 H 0.68638 0.54738 0.22694 0.0
H1082 H 0.68214 0.48554 0.25641 0.0
C1083 C 0.64265 0.63454 0.28217 0.0
C1084 C 0.2256 0.9513 0.0305 0.0
C1085 C 0.24515 0.88665 0.02938 0.0
H1086 H 0.19474 1.02691 0.01328 0.0
C1087 C 0.24804 0.84857 1.00893 0.0
H1088 H 0.22397 0.98308 0.04576 0.0
C1089 C 0.232 0.87416 0.99019 0.0
C1090 C 0.21265 0.93882 0.99133 0.0
H1091 H 0.26262 0.79846 1.00733 0.0
H1092 H 0.23373 0.84258 0.9749 0.0
C1093 C 0.20937 0.97682 1.01175 0.0
C1094 C 0.89533 0.60236 0.74507 0.0
C1095 C 0.89056 0.53399 0.74277 0.0
H1096 H 0.8976 0.69311 0.76675 0.0
C1097 C 0.89274 0.50421 0.76136 0.0
H1098 H 0.89302 0.62677 0.73107 0.0
C1099 C 0.89491 0.5419 0.78178 0.0
C1100 C 0.89477 0.61062 0.78414 0.0
H1101 H 0.88899 0.45148 0.76006 0.0
H1102 H 0.89237 0.51682 0.79548 0.0
C1103 C 0.89722 0.64029 0.76556 0.0
loop_
_geom_bond_atom_site_label_1
_geom_bond_atom_site_label_2
_geom_bond_distance
_geom_bond_site_symmetry_2
_ccdc_geom_bond_type
Zn0 N4 2.020 . S
Zn0 O8 2.019 . S
Zn0 N10 2.119 . S
Zn0 O18 1.975 . S
C1 N2 1.334 . S
C1 N5 1.336 . S
N2 C1 1.334 . S
N2 C3 1.334 . S
C3 N2 1.334 . S
C3 N4 1.336 . S
N4 Zn0 2.020 . S
N4 C3 1.336 . S
N4 N5 1.354 . S
N5 C1 1.336 . S
N5 N4 1.354 . S
N5 Zn9 2.020 . S
C6 O7 1.244 . S
C6 O30 1.257 1_655 S
O7 C6 1.244 . S
O8 Zn0 2.019 . S
O8 C28 1.257 . S
Zn9 N5 2.020 . S
Zn9 O16 1.975 . S
Zn9 N25 2.119 . S
Zn9 O30 2.019 . S
N10 Zn0 2.119 . S
N10 C12 1.334 . S
N10 C13 1.328 . S
C11 C12 1.391 . S
C11 N14 1.329 . S
C11 H32 0.930 . S
C12 N10 1.334 . S
C12 C11 1.391 . S
C12 H19 0.930 . S
C13 N10 1.328 . S
C13 C15 1.392 . S
C13 H20 0.930 . S
N14 C11 1.329 . S
N14 C15 1.331 . S
C15 C13 1.392 . S
C15 N14 1.331 . S
O16 Zn9 1.975 . S
O16 C17 1.252 . S
C17 O16 1.252 . S
C17 O18 1.252 . S
O18 Zn0 1.975 . S
O18 C17 1.252 . S
H19 C12 0.930 . S
H20 C13 0.930 . S
C21 C22 1.392 . S
C21 N25 1.328 . S
C21 H27 0.930 . S
C22 C21 1.392 . S
C22 N26 1.331 . S
C23 C24 1.391 . S
C23 N26 1.329 . S
C23 H33 0.930 . S
C24 C23 1.391 . S
C24 N25 1.334 . S
C24 H31 0.930 . S
N25 Zn9 2.119 . S
N25 C21 1.328 . S
N25 C24 1.334 . S
N26 C22 1.331 . S
N26 C23 1.329 . S
H27 C21 0.930 . S
C28 O8 1.257 . S
C28 O29 1.244 . S
O29 C28 1.244 . S
O30 C6 1.257 1_455 S
O30 Zn9 2.019 . S
H31 C24 0.930 . S
H32 C11 0.930 . S
H33 C23 0.930 . S
Zn34 N38 2.020 1_545 S
Zn34 O42 2.019 . S
Zn34 N44 2.119 1_545 S
Zn34 O52 1.975 1_545 S
C35 N36 1.334 . S
C35 N39 1.336 . S
N36 C35 1.334 . S
N36 C37 1.334 . S
C37 N36 1.334 . S
C37 N38 1.336 . S
N38 Zn34 2.020 1_565 S
N38 C37 1.336 . S
N38 N39 1.354 . S
N39 C35 1.336 . S
N39 N38 1.354 . S
N39 Zn43 2.020 . S
C40 O41 1.244 . S
C40 O64 1.257 . S
O41 C40 1.244 . S
O42 Zn34 2.019 . S
O42 C62 1.257 . S
Zn43 N39 2.020 . S
Zn43 O50 1.975 . S
Zn43 N59 2.119 . S
Zn43 O64 2.019 . S
N44 Zn34 2.119 1_565 S
N44 C46 1.334 . S
N44 C47 1.328 1_565 S
C45 C46 1.391 . S
C45 N48 1.329 . S
C45 H66 0.930 . S
C46 N44 1.334 . S
C46 C45 1.391 . S
C46 H53 0.930 . S
C47 N44 1.328 1_545 S
C47 C49 1.392 1_545 S
C47 H54 0.930 . S
N48 C45 1.329 . S
N48 C49 1.331 . S
C49 C47 1.392 1_565 S
C49 N48 1.331 . S
O50 Zn43 1.975 . S
O50 C51 1.252 . S
C51 O50 1.252 . S
C51 O52 1.252 . S
O52 Zn34 1.975 1_565 S
O52 C51 1.252 . S
H53 C46 0.930 . S
H54 C47 0.930 . S
C55 C56 1.392 . S
C55 N59 1.328 . S
C55 H61 0.930 . S
C56 C55 1.392 . S
C56 N60 1.331 . S
C57 C58 1.391 . S
C57 N60 1.329 . S
C57 H67 0.930 1_565 S
C58 C57 1.391 . S
C58 N59 1.334 . S
C58 H65 0.930 . S
N59 Zn43 2.119 . S
N59 C55 1.328 . S
N59 C58 1.334 . S
N60 C56 1.331 . S
N60 C57 1.329 . S
H61 C55 0.930 . S
C62 O42 1.257 . S
C62 O63 1.244 . S
O63 C62 1.244 . S
O64 C40 1.257 . S
O64 Zn43 2.019 . S
H65 C58 0.930 . S
H66 C45 0.930 . S
H67 C57 0.930 1_545 S
Zn68 N72 2.020 . S
Zn68 O76 2.019 . S
Zn68 N78 2.119 . S
Zn68 O86 1.975 . S
C69 N70 1.334 . S
C69 N73 1.336 . S
N70 C69 1.334 . S
N70 C71 1.334 . S
C71 N70 1.334 . S
C71 N72 1.336 . S
N72 Zn68 2.020 . S
N72 C71 1.336 . S
N72 N73 1.354 . S
N73 C69 1.336 . S
N73 N72 1.354 . S
N73 Zn77 2.020 . S
C74 O75 1.244 . S
C74 O98 1.257 . S
O75 C74 1.244 . S
O76 Zn68 2.019 . S
O76 C96 1.257 . S
Zn77 N73 2.020 . S
Zn77 O84 1.975 . S
Zn77 N93 2.119 . S
Zn77 O98 2.019 . S
N78 Zn68 2.119 . S
N78 C80 1.334 . S
N78 C81 1.328 . S
C79 C80 1.391 . S
C79 N82 1.329 . S
C79 H100 0.930 . S
C80 N78 1.334 . S
C80 C79 1.391 . S
C80 H87 0.930 . S
C81 N78 1.328 . S
C81 C83 1.392 . S
C81 H88 0.930 . S
N82 C79 1.329 . S
N82 C83 1.331 . S
C83 C81 1.392 . S
C83 N82 1.331 . S
O84 Zn77 1.975 . S
O84 C85 1.252 . S
C85 O84 1.252 . S
C85 O86 1.252 . S
O86 Zn68 1.975 . S
O86 C85 1.252 . S
H87 C80 0.930 . S
H88 C81 0.930 . S
C89 C90 1.392 . S
C89 N93 1.328 . S
C89 H95 0.930 . S
C90 C89 1.392 . S
C90 N94 1.331 . S
C91 C92 1.391 . S
C91 N94 1.329 . S
C91 H101 0.930 . S
C92 C91 1.391 . S
C92 N93 1.334 . S
C92 H99 0.930 . S
N93 Zn77 2.119 . S
N93 C89 1.328 . S
N93 C92 1.334 . S
N94 C90 1.331 . S
N94 C91 1.329 . S
H95 C89 0.930 . S
C96 O76 1.257 . S
C96 O97 1.244 . S
O97 C96 1.244 . S
O98 C74 1.257 . S
O98 Zn77 2.019 . S
H99 C92 0.930 . S
H100 C79 0.930 . S
H101 C91 0.930 . S
Zn102 N106 2.020 . S
Zn102 O110 2.019 . S
Zn102 N112 2.119 . S
Zn102 O120 1.975 1_545 S
C103 N104 1.334 . S
C103 N107 1.336 . S
N104 C103 1.334 . S
N104 C105 1.334 . S
C105 N104 1.334 . S
C105 N106 1.336 . S
N106 Zn102 2.020 . S
N106 C105 1.336 . S
N106 N107 1.354 . S
N107 C103 1.336 . S
N107 N106 1.354 . S
N107 Zn111 2.020 . S
C108 O109 1.244 . S
C108 O132 1.257 . S
O109 C108 1.244 . S
O110 Zn102 2.019 . S
O110 C130 1.257 . S
Zn111 N107 2.020 . S
Zn111 O118 1.975 . S
Zn111 N127 2.119 . S
Zn111 O132 2.019 . S
N112 Zn102 2.119 . S
N112 C114 1.334 . S
N112 C115 1.328 . S
C113 C114 1.391 . S
C113 N116 1.329 . S
C113 H134 0.930 . S
C114 N112 1.334 . S
C114 C113 1.391 . S
C114 H121 0.930 . S
C115 N112 1.328 . S
C115 C117 1.392 . S
C115 H122 0.930 . S
N116 C113 1.329 . S
N116 C117 1.331 . S
C117 C115 1.392 . S
C117 N116 1.331 . S
O118 Zn111 1.975 . S
O118 C119 1.252 1_545 S
C119 O118 1.252 1_565 S
C119 O120 1.252 . S
O120 Zn102 1.975 1_565 S
O120 C119 1.252 . S
H121 C114 0.930 . S
H122 C115 0.930 . S
C123 C124 1.392 . S
C123 N127 1.328 . S
C123 H129 0.930 . S
C124 C123 1.392 . S
C124 N128 1.331 . S
C125 C126 1.391 . S
C125 N128 1.329 . S
C125 H135 0.930 . S
C126 C125 1.391 . S
C126 N127 1.334 . S
C126 H133 0.930 . S
N127 Zn111 2.119 . S
N127 C123 1.328 . S
N127 C126 1.334 . S
N128 C124 1.331 . S
N128 C125 1.329 . S
H129 C123 0.930 . S
C130 O110 1.257 . S
C130 O131 1.244 . S
O131 C130 1.244 . S
O132 C108 1.257 . S
O132 Zn111 2.019 . S
H133 C126 0.930 . S
H134 C113 0.930 . S
H135 C125 0.930 . S
Zn136 N140 2.020 . S
Zn136 O144 2.019 . S
Zn136 N146 2.119 . S
Zn136 O154 1.975 . S
C137 N138 1.334 . S
C137 N141 1.336 . S
N138 C137 1.334 . S
N138 C139 1.334 . S
C139 N138 1.334 . S
C139 N140 1.336 . S
N140 Zn136 2.020 . S
N140 C139 1.336 . S
N140 N141 1.354 . S
N141 C137 1.336 . S
N141 N140 1.354 . S
N141 Zn145 2.020 . S
C142 O143 1.244 . S
C142 O166 1.257 . S
O143 C142 1.244 . S
O144 Zn136 2.019 . S
O144 C164 1.257 1_455 S
Zn145 N141 2.020 . S
Zn145 O152 1.975 . S
Zn145 N161 2.119 . S
Zn145 O166 2.019 . S
N146 Zn136 2.119 . S
N146 C148 1.334 . S
N146 C149 1.328 . S
C147 C148 1.391 . S
C147 N150 1.329 . S
C147 H168 0.930 . S
C148 N146 1.334 . S
C148 C147 1.391 . S
C148 H155 0.930 . S
C149 N146 1.328 . S
C149 C151 1.392 . S
C149 H156 0.930 . S
N150 C147 1.329 . S
N150 C151 1.331 . S
C151 C149 1.392 . S
C151 N150 1.331 . S
O152 Zn145 1.975 . S
O152 C153 1.252 . S
C153 O152 1.252 . S
C153 O154 1.252 . S
O154 Zn136 1.975 . S
O154 C153 1.252 . S
H155 C148 0.930 . S
H156 C149 0.930 . S
C157 C158 1.392 . S
C157 N161 1.328 . S
C157 H163 0.930 . S
C158 C157 1.392 . S
C158 N162 1.331 . S
C159 C160 1.391 . S
C159 N162 1.329 . S
C159 H169 0.930 . S
C160 C159 1.391 . S
C160 N161 1.334 . S
C160 H167 0.930 . S
N161 Zn145 2.119 . S
N161 C157 1.328 . S
N161 C160 1.334 . S
N162 C158 1.331 . S
N162 C159 1.329 . S
H163 C157 0.930 . S
C164 O144 1.257 1_655 S
C164 O165 1.244 1_655 S
O165 C164 1.244 1_455 S
O166 C142 1.257 . S
O166 Zn145 2.019 . S
H167 C160 0.930 . S
H168 C147 0.930 . S
H169 C159 0.930 . S
Zn170 N174 2.020 . S
Zn170 O178 2.019 . S
Zn170 N180 2.119 . S
Zn170 O188 1.975 . S
C171 N172 1.334 . S
C171 N175 1.336 . S
N172 C171 1.334 . S
N172 C173 1.334 . S
C173 N172 1.334 . S
C173 N174 1.336 . S
N174 Zn170 2.020 . S
N174 C173 1.336 . S
N174 N175 1.354 . S
N175 C171 1.336 . S
N175 N174 1.354 . S
N175 Zn179 2.020 . S
C176 O177 1.244 . S
C176 O200 1.257 . S
O177 C176 1.244 . S
O178 Zn170 2.019 . S
O178 C198 1.257 . S
Zn179 N175 2.020 . S
Zn179 O186 1.975 . S
Zn179 N195 2.119 . S
Zn179 O200 2.019 . S
N180 Zn170 2.119 . S
N180 C182 1.334 . S
N180 C183 1.328 . S
C181 C182 1.391 . S
C181 N184 1.329 . S
C181 H202 0.930 . S
C182 N180 1.334 . S
C182 C181 1.391 . S
C182 H189 0.930 . S
C183 N180 1.328 . S
C183 C185 1.392 . S
C183 H190 0.930 . S
N184 C181 1.329 . S
N184 C185 1.331 . S
C185 C183 1.392 . S
C185 N184 1.331 . S
O186 Zn179 1.975 . S
O186 C187 1.252 . S
C187 O186 1.252 . S
C187 O188 1.252 . S
O188 Zn170 1.975 . S
O188 C187 1.252 . S
H189 C182 0.930 . S
H190 C183 0.930 . S
C191 C192 1.392 . S
C191 N195 1.328 . S
C191 H197 0.930 . S
C192 C191 1.392 . S
C192 N196 1.331 . S
C193 C194 1.391 . S
C193 N196 1.329 . S
C193 H203 0.930 . S
C194 C193 1.391 . S
C194 N195 1.334 . S
C194 H201 0.930 . S
N195 Zn179 2.119 . S
N195 C191 1.328 . S
N195 C194 1.334 . S
N196 C192 1.331 . S
N196 C193 1.329 . S
H197 C191 0.930 . S
C198 O178 1.257 . S
C198 O199 1.244 . S
O199 C198 1.244 . S
O200 C176 1.257 . S
O200 Zn179 2.019 . S
H201 C194 0.930 . S
H202 C181 0.930 . S
H203 C193 0.930 . S
Zn204 N208 2.020 . S
Zn204 O212 2.019 . S
Zn204 N214 2.119 . S
Zn204 O222 1.975 . S
C205 N206 1.334 . S
C205 N209 1.336 . S
N206 C205 1.334 . S
N206 C207 1.334 . S
C207 N206 1.334 . S
C207 N208 1.336 . S
N208 Zn204 2.020 . S
N208 C207 1.336 . S
N208 N209 1.354 . S
N209 C205 1.336 . S
N209 N208 1.354 . S
N209 Zn213 2.020 . S
C210 O211 1.244 . S
C210 O234 1.257 . S
O211 C210 1.244 . S
O212 Zn204 2.019 . S
O212 C232 1.257 . S
Zn213 N209 2.020 . S
Zn213 O220 1.975 . S
Zn213 N229 2.119 . S
Zn213 O234 2.019 . S
N214 Zn204 2.119 . S
N214 C216 1.334 . S
N214 C217 1.328 . S
C215 C216 1.391 . S
C215 N218 1.329 . S
C215 H236 0.930 . S
C216 N214 1.334 . S
C216 C215 1.391 . S
C216 H223 0.930 . S
C217 N214 1.328 . S
C217 C219 1.392 . S
C217 H224 0.930 . S
N218 C215 1.329 . S
N218 C219 1.331 . S
C219 C217 1.392 . S
C219 N218 1.331 . S
O220 Zn213 1.975 . S
O220 C221 1.252 . S
C221 O220 1.252 . S
C221 O222 1.252 . S
O222 Zn204 1.975 . S
O222 C221 1.252 . S
H223 C216 0.930 . S
H224 C217 0.930 . S
C225 C226 1.392 . S
C225 N229 1.328 . S
C225 H231 0.930 . S
C226 C225 1.392 . S
C226 N230 1.331 . S
C227 C228 1.391 . S
C227 N230 1.329 . S
C227 H237 0.930 . S
C228 C227 1.391 . S
C228 N229 1.334 . S
C228 H235 0.930 . S
N229 Zn213 2.119 . S
N229 C225 1.328 . S
N229 C228 1.334 . S
N230 C226 1.331 . S
N230 C227 1.329 . S
H231 C225 0.930 . S
C232 O212 1.257 . S
C232 O233 1.244 . S
O233 C232 1.244 . S
O234 C210 1.257 . S
O234 Zn213 2.019 . S
H235 C228 0.930 . S
H236 C215 0.930 . S
H237 C227 0.930 . S
Zn238 N242 2.020 . S
Zn238 O246 2.019 . S
Zn238 N248 2.119 . S
Zn238 O256 1.975 . S
C239 N240 1.334 . S
C239 N243 1.336 . S
N240 C239 1.334 . S
N240 C241 1.334 . S
C241 N240 1.334 . S
C241 N242 1.336 . S
N242 Zn238 2.020 . S
N242 C241 1.336 . S
N242 N243 1.354 . S
N243 C239 1.336 . S
N243 N242 1.354 . S
N243 Zn247 2.020 . S
C244 O245 1.244 . S
C244 O268 1.257 . S
O245 C244 1.244 . S
O246 Zn238 2.019 . S
O246 C266 1.257 . S
Zn247 N243 2.020 . S
Zn247 O254 1.975 . S
Zn247 N263 2.119 . S
Zn247 O268 2.019 1_545 S
N248 Zn238 2.119 . S
N248 C250 1.334 . S
N248 C251 1.328 . S
C249 C250 1.391 . S
C249 N252 1.329 . S
C249 H270 0.930 1_545 S
C250 N248 1.334 . S
C250 C249 1.391 . S
C250 H257 0.930 . S
C251 N248 1.328 . S
C251 C253 1.392 . S
C251 H258 0.930 . S
N252 C249 1.329 . S
N252 C253 1.331 . S
C253 C251 1.392 . S
C253 N252 1.331 . S
O254 Zn247 1.975 . S
O254 C255 1.252 . S
C255 O254 1.252 . S
C255 O256 1.252 . S
O256 Zn238 1.975 . S
O256 C255 1.252 . S
H257 C250 0.930 . S
H258 C251 0.930 . S
C259 C260 1.392 . S
C259 N263 1.328 . S
C259 H265 0.930 1_545 S
C260 C259 1.392 . S
C260 N264 1.331 . S
C261 C262 1.391 . S
C261 N264 1.329 . S
C261 H271 0.930 . S
C262 C261 1.391 . S
C262 N263 1.334 . S
C262 H269 0.930 . S
N263 Zn247 2.119 . S
N263 C259 1.328 . S
N263 C262 1.334 . S
N264 C260 1.331 . S
N264 C261 1.329 . S
H265 C259 0.930 1_565 S
C266 O246 1.257 . S
C266 O267 1.244 . S
O267 C266 1.244 . S
O268 C244 1.257 . S
O268 Zn247 2.019 1_565 S
H269 C262 0.930 . S
H270 C249 0.930 1_565 S
H271 C261 0.930 . S
Zn272 N276 2.020 . S
Zn272 O280 2.019 . S
Zn272 N282 2.119 . S
Zn272 O290 1.975 . S
C273 N274 1.334 . S
C273 N277 1.336 . S
N274 C273 1.334 . S
N274 C275 1.334 . S
C275 N274 1.334 . S
C275 N276 1.336 . S
N276 Zn272 2.020 . S
N276 C275 1.336 . S
N276 N277 1.354 . S
N277 C273 1.336 . S
N277 N276 1.354 . S
N277 Zn281 2.020 . S
C278 O279 1.244 . S
C278 O302 1.257 . S
O279 C278 1.244 . S
O280 Zn272 2.019 . S
O280 C300 1.257 1_655 S
Zn281 N277 2.020 . S
Zn281 O288 1.975 . S
Zn281 N297 2.119 . S
Zn281 O302 2.019 . S
N282 Zn272 2.119 . S
N282 C284 1.334 . S
N282 C285 1.328 . S
C283 C284 1.391 . S
C283 N286 1.329 . S
C283 H304 0.930 . S
C284 N282 1.334 . S
C284 C283 1.391 . S
C284 H291 0.930 . S
C285 N282 1.328 . S
C285 C287 1.392 . S
C285 H292 0.930 . S
N286 C283 1.329 . S
N286 C287 1.331 . S
C287 C285 1.392 . S
C287 N286 1.331 . S
O288 Zn281 1.975 . S
O288 C289 1.252 . S
C289 O288 1.252 . S
C289 O290 1.252 . S
O290 Zn272 1.975 . S
O290 C289 1.252 . S
H291 C284 0.930 . S
H292 C285 0.930 . S
C293 C294 1.392 . S
C293 N297 1.328 . S
C293 H299 0.930 . S
C294 C293 1.392 . S
C294 N298 1.331 . S
C295 C296 1.391 . S
C295 N298 1.329 . S
C295 H305 0.930 . S
C296 C295 1.391 . S
C296 N297 1.334 . S
C296 H303 0.930 . S
N297 Zn281 2.119 . S
N297 C293 1.328 . S
N297 C296 1.334 . S
N298 C294 1.331 . S
N298 C295 1.329 . S
H299 C293 0.930 . S
C300 O280 1.257 1_455 S
C300 O301 1.244 1_455 S
O301 C300 1.244 1_655 S
O302 C278 1.257 . S
O302 Zn281 2.019 . S
H303 C296 0.930 . S
H304 C283 0.930 . S
H305 C295 0.930 . S
Zn306 N310 2.020 . S
Zn306 O314 2.019 . S
Zn306 N316 2.119 . S
Zn306 O324 1.975 1_545 S
C307 N308 1.334 . S
C307 N311 1.336 . S
N308 C307 1.334 . S
N308 C309 1.334 . S
C309 N308 1.334 . S
C309 N310 1.336 . S
N310 Zn306 2.020 . S
N310 C309 1.336 . S
N310 N311 1.354 . S
N311 C307 1.336 . S
N311 N310 1.354 . S
N311 Zn315 2.020 . S
C312 O313 1.243 1_565 S
C312 O336 1.257 . S
O313 C312 1.243 1_545 S
O314 Zn306 2.019 . S
O314 C334 1.257 . S
Zn315 N311 2.020 . S
Zn315 O322 1.975 1_545 S
Zn315 N331 2.119 . S
Zn315 O336 2.019 1_545 S
N316 Zn306 2.119 . S
N316 C318 1.334 . S
N316 C319 1.328 . S
C317 C318 1.391 . S
C317 N320 1.329 . S
C317 H338 0.930 1_545 S
C318 N316 1.334 . S
C318 C317 1.391 . S
C318 H325 0.930 . S
C319 N316 1.328 . S
C319 C321 1.392 . S
C319 H326 0.930 . S
N320 C317 1.329 . S
N320 C321 1.331 . S
C321 C319 1.392 . S
C321 N320 1.331 . S
O322 Zn315 1.975 1_565 S
O322 C323 1.252 . S
C323 O322 1.252 . S
C323 O324 1.252 . S
O324 Zn306 1.975 1_565 S
O324 C323 1.252 . S
H325 C318 0.930 . S
H326 C319 0.930 . S
C327 C328 1.392 . S
C327 N331 1.328 . S
C327 H333 0.930 . S
C328 C327 1.392 . S
C328 N332 1.331 . S
C329 C330 1.391 . S
C329 N332 1.329 . S
C329 H339 0.930 . S
C330 C329 1.391 . S
C330 N331 1.334 . S
C330 H337 0.930 . S
N331 Zn315 2.119 . S
N331 C327 1.328 . S
N331 C330 1.334 . S
N332 C328 1.331 . S
N332 C329 1.329 . S
H333 C327 0.930 . S
C334 O314 1.257 . S
C334 O335 1.244 . S
O335 C334 1.244 . S
O336 C312 1.257 . S
O336 Zn315 2.019 1_565 S
H337 C330 0.930 . S
H338 C317 0.930 1_565 S
H339 C329 0.930 . S
Zn340 N344 2.020 . S
Zn340 O348 2.019 . S
Zn340 N350 2.119 . S
Zn340 O358 1.975 . S
C341 N342 1.334 . S
C341 N345 1.336 . S
N342 C341 1.334 . S
N342 C343 1.334 . S
C343 N342 1.334 . S
C343 N344 1.336 . S
N344 Zn340 2.020 . S
N344 C343 1.336 . S
N344 N345 1.354 . S
N345 C341 1.336 . S
N345 N344 1.354 . S
N345 Zn349 2.020 . S
C346 O347 1.244 . S
C346 O370 1.257 . S
O347 C346 1.244 . S
O348 Zn340 2.019 . S
O348 C368 1.257 . S
Zn349 N345 2.020 . S
Zn349 O356 1.975 . S
Zn349 N365 2.119 . S
Zn349 O370 2.019 . S
N350 Zn340 2.119 . S
N350 C352 1.334 . S
N350 C353 1.328 . S
C351 C352 1.391 . S
C351 N354 1.329 . S
C351 H372 0.930 . S
C352 N350 1.334 . S
C352 C351 1.391 . S
C352 H359 0.930 . S
C353 N350 1.328 . S
C353 C355 1.392 . S
C353 H360 0.930 . S
N354 C351 1.329 . S
N354 C355 1.331 . S
C355 C353 1.392 . S
C355 N354 1.331 . S
O356 Zn349 1.975 . S
O356 C357 1.252 . S
C357 O356 1.252 . S
C357 O358 1.252 . S
O358 Zn340 1.975 . S
O358 C357 1.252 . S
H359 C352 0.930 . S
H360 C353 0.930 . S
C361 C362 1.392 . S
C361 N365 1.328 . S
C361 H367 0.930 . S
C362 C361 1.392 . S
C362 N366 1.331 . S
C363 C364 1.391 . S
C363 N366 1.329 . S
C363 H373 0.930 . S
C364 C363 1.391 . S
C364 N365 1.334 . S
C364 H371 0.930 . S
N365 Zn349 2.119 . S
N365 C361 1.328 . S
N365 C364 1.334 . S
N366 C362 1.331 . S
N366 C363 1.329 . S
H367 C361 0.930 . S
C368 O348 1.257 . S
C368 O369 1.244 . S
O369 C368 1.244 . S
O370 C346 1.257 . S
O370 Zn349 2.019 . S
H371 C364 0.930 . S
H372 C351 0.930 . S
H373 C363 0.930 . S
Zn374 N378 2.020 . S
Zn374 O382 2.028 . S
Zn374 N384 2.119 . S
Zn374 O392 1.975 1_565 S
C375 N376 1.334 . S
C375 N379 1.336 . S
N376 C375 1.334 . S
N376 C377 1.334 . S
C377 N376 1.334 . S
C377 N378 1.336 . S
N378 Zn374 2.020 . S
N378 C377 1.336 . S
N378 N379 1.354 . S
N379 C375 1.336 . S
N379 N378 1.354 . S
N379 Zn383 2.020 . S
C380 O381 1.244 . S
C380 O404 1.257 . S
O381 C380 1.244 . S
O382 Zn374 2.028 . S
O382 C402 1.260 . S
Zn383 N379 2.020 . S
Zn383 O390 1.982 . S
Zn383 N399 2.119 . S
Zn383 O404 2.019 . S
N384 Zn374 2.119 . S
N384 C386 1.334 . S
N384 C387 1.328 . S
C385 C386 1.391 . S
C385 N388 1.329 . S
C385 H406 0.930 . S
C386 N384 1.334 . S
C386 C385 1.391 . S
C386 H393 0.930 . S
C387 N384 1.328 . S
C387 C389 1.391 1_565 S
C387 H394 0.930 . S
N388 C385 1.329 . S
N388 C389 1.330 1_565 S
C389 C387 1.391 1_545 S
C389 N388 1.330 1_545 S
O390 Zn383 1.982 . S
O390 C391 1.247 1_565 S
C391 O390 1.247 1_545 S
C391 O392 1.252 . S
O392 Zn374 1.975 1_545 S
O392 C391 1.252 . S
H393 C386 0.930 . S
H394 C387 0.930 . S
C395 C396 1.392 . S
C395 N399 1.328 . S
C395 H401 0.930 . S
C396 C395 1.392 . S
C396 N400 1.331 . S
C397 C398 1.391 . S
C397 N400 1.329 . S
C397 H407 0.930 . S
C398 C397 1.391 . S
C398 N399 1.334 . S
C398 H405 0.930 . S
N399 Zn383 2.119 . S
N399 C395 1.328 . S
N399 C398 1.334 . S
N400 C396 1.331 . S
N400 C397 1.329 . S
H401 C395 0.930 . S
C402 O382 1.260 . S
C402 O403 1.244 . S
O403 C402 1.244 . S
O404 C380 1.257 . S
O404 Zn383 2.019 . S
H405 C398 0.930 . S
H406 C385 0.930 . S
H407 C397 0.930 . S
Zn408 N412 2.020 . S
Zn408 O416 2.019 . S
Zn408 N418 2.119 . S
Zn408 O426 1.975 . S
C409 N410 1.334 . S
C409 N413 1.336 . S
N410 C409 1.334 . S
N410 C411 1.334 . S
C411 N410 1.334 . S
C411 N412 1.336 . S
N412 Zn408 2.020 . S
N412 C411 1.336 . S
N412 N413 1.354 . S
N413 C409 1.336 . S
N413 N412 1.354 . S
N413 Zn417 2.020 . S
C414 O415 1.244 . S
C414 O438 1.257 . S
O415 C414 1.244 . S
O416 Zn408 2.019 . S
O416 C436 1.257 1_655 S
Zn417 N413 2.020 . S
Zn417 O424 1.975 . S
Zn417 N433 2.119 . S
Zn417 O438 2.019 . S
N418 Zn408 2.119 . S
N418 C420 1.334 . S
N418 C421 1.328 . S
C419 C420 1.391 . S
C419 N422 1.329 . S
C419 H440 0.930 . S
C420 N418 1.334 . S
C420 C419 1.391 . S
C420 H427 0.930 . S
C421 N418 1.328 . S
C421 C423 1.392 . S
C421 H428 0.930 . S
N422 C419 1.329 . S
N422 C423 1.331 . S
C423 C421 1.392 . S
C423 N422 1.331 . S
O424 Zn417 1.975 . S
O424 C425 1.252 . S
C425 O424 1.252 . S
C425 O426 1.252 . S
O426 Zn408 1.975 . S
O426 C425 1.252 . S
H427 C420 0.930 . S
H428 C421 0.930 . S
C429 C430 1.392 . S
C429 N433 1.328 . S
C429 H435 0.930 . S
C430 C429 1.392 . S
C430 N434 1.331 . S
C431 C432 1.391 . S
C431 N434 1.329 . S
C431 H441 0.930 . S
C432 C431 1.391 . S
C432 N433 1.334 . S
C432 H439 0.930 . S
N433 Zn417 2.119 . S
N433 C429 1.328 . S
N433 C432 1.334 . S
N434 C430 1.331 . S
N434 C431 1.329 . S
H435 C429 0.930 . S
C436 O416 1.257 1_455 S
C436 O437 1.244 1_455 S
O437 C436 1.244 1_655 S
O438 C414 1.257 . S
O438 Zn417 2.019 . S
H439 C432 0.930 . S
H440 C419 0.930 . S
H441 C431 0.930 . S
Zn442 N446 2.020 . S
Zn442 O450 2.019 . S
Zn442 N452 2.119 . S
Zn442 O460 1.975 1_545 S
C443 N444 1.334 . S
C443 N447 1.336 . S
N444 C443 1.334 . S
N444 C445 1.334 . S
C445 N444 1.334 . S
C445 N446 1.336 . S
N446 Zn442 2.020 . S
N446 C445 1.336 . S
N446 N447 1.354 . S
N447 C443 1.336 . S
N447 N446 1.354 . S
N447 Zn451 2.020 . S
C448 O449 1.244 . S
C448 O472 1.257 . S
O449 C448 1.244 . S
O450 Zn442 2.019 . S
O450 C470 1.257 . S
Zn451 N447 2.020 . S
Zn451 O458 1.975 . S
Zn451 N467 2.119 . S
Zn451 O472 2.019 . S
N452 Zn442 2.119 . S
N452 C454 1.334 . S
N452 C455 1.328 . S
C453 C454 1.391 . S
C453 N456 1.329 . S
C453 H474 0.930 . S
C454 N452 1.334 . S
C454 C453 1.391 . S
C454 H461 0.930 . S
C455 N452 1.328 . S
C455 C457 1.392 . S
C455 H462 0.930 . S
N456 C453 1.329 . S
N456 C457 1.331 . S
C457 C455 1.392 . S
C457 N456 1.331 . S
O458 Zn451 1.975 . S
O458 C459 1.252 1_545 S
C459 O458 1.252 1_565 S
C459 O460 1.252 . S
O460 Zn442 1.975 1_565 S
O460 C459 1.252 . S
H461 C454 0.930 . S
H462 C455 0.930 . S
C463 C464 1.392 . S
C463 N467 1.328 . S
C463 H469 0.930 . S
C464 C463 1.392 . S
C464 N468 1.331 . S
C465 C466 1.391 . S
C465 N468 1.329 . S
C465 H475 0.930 . S
C466 C465 1.391 . S
C466 N467 1.334 . S
C466 H473 0.930 . S
N467 Zn451 2.119 . S
N467 C463 1.328 . S
N467 C466 1.334 . S
N468 C464 1.331 . S
N468 C465 1.329 . S
H469 C463 0.930 . S
C470 O450 1.257 . S
C470 O471 1.244 . S
O471 C470 1.244 . S
O472 C448 1.257 . S
O472 Zn451 2.019 . S
H473 C466 0.930 . S
H474 C453 0.930 . S
H475 C465 0.930 . S
Zn476 N480 2.020 . S
Zn476 O484 2.019 . S
Zn476 N486 2.119 . S
Zn476 O494 1.975 . S
C477 N478 1.334 . S
C477 N481 1.336 . S
N478 C477 1.334 . S
N478 C479 1.334 . S
C479 N478 1.334 . S
C479 N480 1.336 . S
N480 Zn476 2.020 . S
N480 C479 1.336 . S
N480 N481 1.354 . S
N481 C477 1.336 . S
N481 N480 1.354 . S
N481 Zn485 2.020 . S
C482 O483 1.244 . S
C482 O506 1.257 . S
O483 C482 1.244 . S
O484 Zn476 2.019 . S
O484 C504 1.257 . S
Zn485 N481 2.020 . S
Zn485 O492 1.975 . S
Zn485 N501 2.119 . S
Zn485 O506 2.019 . S
N486 Zn476 2.119 . S
N486 C488 1.334 . S
N486 C489 1.328 . S
C487 C488 1.391 . S
C487 N490 1.329 . S
C487 H508 0.930 . S
C488 N486 1.334 . S
C488 C487 1.391 . S
C488 H495 0.930 . S
C489 N486 1.328 . S
C489 C491 1.392 . S
C489 H496 0.930 . S
N490 C487 1.329 . S
N490 C491 1.331 . S
C491 C489 1.392 . S
C491 N490 1.331 . S
O492 Zn485 1.975 . S
O492 C493 1.252 . S
C493 O492 1.252 . S
C493 O494 1.252 . S
O494 Zn476 1.975 . S
O494 C493 1.252 . S
H495 C488 0.930 . S
H496 C489 0.930 . S
C497 C498 1.392 . S
C497 N501 1.328 . S
C497 H503 0.930 . S
C498 C497 1.392 . S
C498 N502 1.331 . S
C499 C500 1.391 . S
C499 N502 1.329 . S
C499 H509 0.930 . S
C500 C499 1.391 . S
C500 N501 1.334 . S
C500 H507 0.930 . S
N501 Zn485 2.119 . S
N501 C497 1.328 . S
N501 C500 1.334 . S
N502 C498 1.331 . S
N502 C499 1.329 . S
H503 C497 0.930 . S
C504 O484 1.257 . S
C504 O505 1.244 . S
O505 C504 1.244 . S
O506 C482 1.257 . S
O506 Zn485 2.019 . S
H507 C500 0.930 . S
H508 C487 0.930 . S
H509 C499 0.930 . S
Zn510 N514 2.020 . S
Zn510 O518 2.019 . S
Zn510 N520 2.119 . S
Zn510 O528 1.975 . S
C511 N512 1.334 . S
C511 N515 1.336 . S
N512 C511 1.334 . S
N512 C513 1.334 . S
C513 N512 1.334 . S
C513 N514 1.336 . S
N514 Zn510 2.020 . S
N514 C513 1.336 . S
N514 N515 1.354 . S
N515 C511 1.336 . S
N515 N514 1.354 . S
N515 Zn519 2.020 1_565 S
C516 O517 1.244 . S
C516 O540 1.257 . S
O517 C516 1.244 . S
O518 Zn510 2.019 . S
O518 C538 1.257 . S
Zn519 N515 2.020 1_545 S
Zn519 O526 1.975 1_545 S
Zn519 N535 2.119 1_545 S
Zn519 O540 2.019 . S
N520 Zn510 2.119 . S
N520 C522 1.334 . S
N520 C523 1.328 . S
C521 C522 1.391 . S
C521 N524 1.329 . S
C521 H542 0.930 1_565 S
C522 N520 1.334 . S
C522 C521 1.391 . S
C522 H529 0.930 . S
C523 N520 1.328 . S
C523 C525 1.392 . S
C523 H530 0.930 . S
N524 C521 1.329 . S
N524 C525 1.331 . S
C525 C523 1.392 . S
C525 N524 1.331 . S
O526 Zn519 1.975 1_565 S
O526 C527 1.252 . S
C527 O526 1.252 . S
C527 O528 1.252 . S
O528 Zn510 1.975 . S
O528 C527 1.252 . S
H529 C522 0.930 . S
H530 C523 0.930 . S
C531 C532 1.392 1_545 S
C531 N535 1.328 1_545 S
C531 H537 0.930 . S
C532 C531 1.392 1_565 S
C532 N536 1.331 . S
C533 C534 1.391 . S
C533 N536 1.329 . S
C533 H543 0.930 . S
C534 C533 1.391 . S
C534 N535 1.334 . S
C534 H541 0.930 . S
N535 Zn519 2.119 1_565 S
N535 C531 1.328 1_565 S
N535 C534 1.334 . S
N536 C532 1.331 . S
N536 C533 1.329 . S
H537 C531 0.930 . S
C538 O518 1.257 . S
C538 O539 1.244 . S
O539 C538 1.244 . S
O540 C516 1.257 . S
O540 Zn519 2.019 . S
H541 C534 0.930 . S
H542 C521 0.930 1_545 S
H543 C533 0.930 . S
C544 C545 1.387 . S
C544 H548 0.950 . S
C544 C553 1.390 1_455 S
C545 C544 1.387 . S
C545 C547 1.387 . S
H546 C553 0.950 . S
C547 C545 1.387 . S
C547 C549 1.390 1_455 S
C547 H551 0.950 . S
H548 C544 0.950 . S
C549 C547 1.390 1_655 S
C549 C550 1.387 . S
C549 H552 0.950 . S
C550 C549 1.387 . S
C550 C553 1.387 . S
H551 C547 0.950 . S
H552 C549 0.950 . S
C553 C544 1.390 1_655 S
C553 H546 0.950 . S
C553 C550 1.387 . S
C554 C555 1.387 . S
C554 H558 0.950 . S
C554 C563 1.390 1_655 S
C555 C554 1.387 . S
C555 C557 1.387 . S
H556 C563 0.950 . S
C557 C555 1.387 . S
C557 C559 1.390 1_655 S
C557 H561 0.950 . S
H558 C554 0.950 . S
C559 C557 1.390 1_455 S
C559 C560 1.387 . S
C559 H562 0.950 . S
C560 C559 1.387 . S
C560 C563 1.387 . S
H561 C557 0.950 . S
H562 C559 0.950 . S
C563 C554 1.390 1_455 S
C563 H556 0.950 . S
C563 C560 1.387 . S
C564 C565 1.387 . S
C564 H568 0.950 . S
C564 C573 1.390 . S
C565 C564 1.387 . S
C565 C567 1.387 . S
H566 C573 0.950 . S
C567 C565 1.387 . S
C567 C569 1.390 . S
C567 H571 0.950 . S
H568 C564 0.950 . S
C569 C567 1.390 . S
C569 C570 1.387 . S
C569 H572 0.950 . S
C570 C569 1.387 . S
C570 C573 1.387 . S
H571 C567 0.950 . S
H572 C569 0.950 . S
C573 C564 1.390 . S
C573 H566 0.950 . S
C573 C570 1.387 . S
C574 C575 1.387 . S
C574 H578 0.950 . S
C574 C583 1.390 . S
C575 C574 1.387 . S
C575 C577 1.387 . S
H576 C583 0.950 . S
C577 C575 1.387 . S
C577 C579 1.390 . S
C577 H581 0.950 . S
H578 C574 0.950 . S
C579 C577 1.390 . S
C579 C580 1.387 . S
C579 H582 0.950 . S
C580 C579 1.387 . S
C580 C583 1.387 . S
H581 C577 0.950 . S
H582 C579 0.950 . S
C583 C574 1.390 . S
C583 H576 0.950 . S
C583 C580 1.387 . S
C584 C585 1.387 . S
C584 H588 0.950 . S
C584 C593 1.390 1_655 S
C585 C584 1.387 . S
C585 C587 1.387 . S
H586 C593 0.950 . S
C587 C585 1.387 . S
C587 C589 1.390 . S
C587 H591 0.950 . S
H588 C584 0.950 . S
C589 C587 1.390 . S
C589 C590 1.387 1_655 S
C589 H592 0.950 1_655 S
C590 C589 1.387 1_455 S
C590 C593 1.387 . S
H591 C587 0.950 . S
H592 C589 0.950 1_455 S
C593 C584 1.390 1_455 S
C593 H586 0.950 . S
C593 C590 1.387 . S
C594 C595 1.387 . S
C594 H598 0.950 . S
C594 C603 1.382 1_455 S
C595 C594 1.387 . S
C595 C597 1.387 . S
H596 C603 0.954 . S
C597 C595 1.387 . S
C597 C599 1.390 1_455 S
C597 H601 0.950 . S
H598 C594 0.950 . S
C599 C597 1.390 1_655 S
C599 C600 1.387 . S
C599 H602 0.950 . S
C600 C599 1.387 . S
C600 C603 1.391 . S
H601 C597 0.950 . S
H602 C599 0.950 . S
C603 C594 1.382 1_655 S
C603 H596 0.954 . S
C603 C600 1.391 . S
C604 C605 1.387 . S
C604 H608 0.950 . S
C604 C613 1.390 . S
C605 C604 1.387 . S
C605 C607 1.387 . S
H606 C613 0.950 . S
C607 C605 1.387 . S
C607 C609 1.390 . S
C607 H611 0.950 . S
H608 C604 0.950 . S
C609 C607 1.390 . S
C609 C610 1.387 . S
C609 H612 0.950 . S
C610 C609 1.387 . S
C610 C613 1.387 . S
H611 C607 0.950 . S
H612 C609 0.950 . S
C613 C604 1.390 . S
C613 H606 0.950 . S
C613 C610 1.387 . S
C614 C615 1.387 . S
C614 H618 0.950 . S
C614 C623 1.390 . S
C615 C614 1.387 . S
C615 C617 1.387 . S
H616 C623 0.950 . S
C617 C615 1.387 . S
C617 C619 1.390 . S
C617 H621 0.950 . S
H618 C614 0.950 . S
C619 C617 1.390 . S
C619 C620 1.387 . S
C619 H622 0.950 . S
C620 C619 1.387 . S
C620 C623 1.387 . S
H621 C617 0.950 . S
H622 C619 0.950 . S
C623 C614 1.390 . S
C623 H616 0.950 . S
C623 C620 1.387 . S
C624 C625 1.387 . S
C624 H628 0.950 . S
C624 C633 1.390 . S
C625 C624 1.387 . S
C625 C627 1.387 . S
H626 C633 0.950 . S
C627 C625 1.387 . S
C627 C629 1.390 . S
C627 H631 0.950 . S
H628 C624 0.950 . S
C629 C627 1.390 . S
C629 C630 1.387 . S
C629 H632 0.950 . S
C630 C629 1.387 . S
C630 C633 1.387 . S
H631 C627 0.950 . S
H632 C629 0.950 . S
C633 C624 1.390 . S
C633 H626 0.950 . S
C633 C630 1.387 . S
C634 C635 1.387 . S
C634 H638 0.950 1_455 S
C634 C643 1.390 . S
C635 C634 1.387 . S
C635 C637 1.387 1_545 S
H636 C643 0.950 . S
C637 C635 1.387 1_565 S
C637 C639 1.390 1_565 S
C637 H641 0.950 . S
H638 C634 0.950 1_655 S
C639 C637 1.390 1_545 S
C639 C640 1.387 . S
C639 H642 0.950 . S
C640 C639 1.387 . S
C640 C643 1.387 . S
H641 C637 0.950 . S
H642 C639 0.950 . S
C643 C634 1.390 . S
C643 H636 0.950 . S
C643 C640 1.387 . S
C644 C645 1.387 . S
C644 H648 0.950 . S
C644 C653 1.390 . S
C645 C644 1.387 . S
C645 C647 1.387 . S
H646 C653 0.950 . S
C647 C645 1.387 . S
C647 C649 1.390 . S
C647 H651 0.950 . S
H648 C644 0.950 . S
C649 C647 1.390 . S
C649 C650 1.387 . S
C649 H652 0.950 . S
C650 C649 1.387 . S
C650 C653 1.387 . S
H651 C647 0.950 . S
H652 C649 0.950 . S
C653 C644 1.390 . S
C653 H646 0.950 . S
C653 C650 1.387 . S
C654 C655 1.387 1_565 S
C654 H658 0.950 . S
C654 C663 1.390 . S
C655 C654 1.387 1_545 S
C655 C657 1.387 . S
H656 C663 0.950 . S
C657 C655 1.387 . S
C657 C659 1.390 . S
C657 H661 0.950 . S
H658 C654 0.950 . S
C659 C657 1.390 . S
C659 C660 1.387 1_545 S
C659 H662 0.950 . S
C660 C659 1.387 1_565 S
C660 C663 1.387 . S
H661 C657 0.950 . S
H662 C659 0.950 . S
C663 C654 1.390 . S
C663 H656 0.950 . S
C663 C660 1.387 . S
C664 C665 1.387 . S
C664 H668 0.950 . S
C664 C673 1.390 . S
C665 C664 1.387 . S
C665 C667 1.387 . S
H666 C673 0.950 . S
C667 C665 1.387 . S
C667 C669 1.390 . S
C667 H671 0.950 . S
H668 C664 0.950 . S
C669 C667 1.390 . S
C669 C670 1.387 . S
C669 H672 0.950 . S
C670 C669 1.387 . S
C670 C673 1.387 . S
H671 C667 0.950 . S
H672 C669 0.950 . S
C673 C664 1.390 . S
C673 H666 0.950 . S
C673 C670 1.387 . S
C674 C675 1.387 . S
C674 H678 0.950 . S
C674 C683 1.390 1_565 S
C675 C674 1.387 . S
C675 C677 1.387 . S
H676 C683 0.950 . S
C677 C675 1.387 . S
C677 C679 1.390 1_565 S
C677 H681 0.950 . S
H678 C674 0.950 . S
C679 C677 1.390 1_545 S
C679 C680 1.387 . S
C679 H682 0.950 . S
C680 C679 1.387 . S
C680 C683 1.387 . S
H681 C677 0.950 . S
H682 C679 0.950 . S
C683 C674 1.390 1_545 S
C683 H676 0.950 . S
C683 C680 1.387 . S
C684 C685 1.387 . S
C684 H688 0.950 . S
C684 C693 1.390 . S
C685 C684 1.387 . S
C685 C687 1.387 . S
H686 C693 0.950 . S
C687 C685 1.387 . S
C687 C689 1.390 . S
C687 H691 0.950 . S
H688 C684 0.950 . S
C689 C687 1.390 . S
C689 C690 1.387 . S
C689 H692 0.950 . S
C690 C689 1.387 . S
C690 C693 1.387 . S
H691 C687 0.950 . S
H692 C689 0.950 . S
C693 C684 1.390 . S
C693 H686 0.950 . S
C693 C690 1.387 . S
C694 C695 1.387 . S
C694 H698 0.950 . S
C694 C703 1.390 1_565 S
C695 C694 1.387 . S
C695 C697 1.387 . S
H696 C703 0.950 1_655 S
C697 C695 1.387 . S
C697 C699 1.390 . S
C697 H701 0.950 . S
H698 C694 0.950 . S
C699 C697 1.390 . S
C699 C700 1.387 1_465 S
C699 H702 0.950 . S
C700 C699 1.387 1_645 S
C700 C703 1.387 1_655 S
H701 C697 0.950 . S
H702 C699 0.950 . S
C703 C694 1.390 1_545 S
C703 H696 0.950 1_455 S
C703 C700 1.387 1_455 S
C704 C705 1.387 . S
C704 H708 0.950 . S
C704 C713 1.390 . S
C705 C704 1.387 . S
C705 C707 1.387 . S
H706 C713 0.950 . S
C707 C705 1.387 . S
C707 C709 1.390 . S
C707 H711 0.950 . S
H708 C704 0.950 . S
C709 C707 1.390 . S
C709 C710 1.387 . S
C709 H712 0.950 . S
C710 C709 1.387 . S
C710 C713 1.387 . S
H711 C707 0.950 . S
H712 C709 0.950 . S
C713 C704 1.390 . S
C713 H706 0.950 . S
C713 C710 1.387 . S
C714 C715 1.387 . S
C714 H718 0.950 1_565 S
C714 C723 1.390 . S
C715 C714 1.387 . S
C715 C717 1.387 . S
H716 C723 0.950 . S
C717 C715 1.387 . S
C717 C719 1.390 . S
C717 H721 0.950 1_655 S
H718 C714 0.950 1_545 S
C719 C717 1.390 . S
C719 C720 1.387 . S
C719 H722 0.950 . S
C720 C719 1.387 . S
C720 C723 1.387 . S
H721 C717 0.950 1_455 S
H722 C719 0.950 . S
C723 C714 1.390 . S
C723 H716 0.950 . S
C723 C720 1.387 . S
C724 C725 1.387 . S
C724 H728 0.950 . S
C724 C733 1.390 . S
C725 C724 1.387 . S
C725 C727 1.387 . S
H726 C733 0.950 . S
C727 C725 1.387 . S
C727 C729 1.390 . S
C727 H731 0.950 . S
H728 C724 0.950 . S
C729 C727 1.390 . S
C729 C730 1.387 . S
C729 H732 0.950 . S
C730 C729 1.387 . S
C730 C733 1.387 . S
H731 C727 0.950 . S
H732 C729 0.950 . S
C733 C724 1.390 . S
C733 H726 0.950 . S
C733 C730 1.387 . S
C734 C735 1.387 . S
C734 H738 0.950 . S
C734 C743 1.390 . S
C735 C734 1.387 . S
C735 C737 1.387 . S
H736 C743 0.950 . S
C737 C735 1.387 . S
C737 C739 1.390 1_545 S
C737 H741 0.950 1_545 S
H738 C734 0.950 . S
C739 C737 1.390 1_565 S
C739 C740 1.387 1_565 S
C739 H742 0.950 . S
C740 C739 1.387 1_545 S
C740 C743 1.387 . S
H741 C737 0.950 1_565 S
H742 C739 0.950 . S
C743 C734 1.390 . S
C743 H736 0.950 . S
C743 C740 1.387 . S
C744 C745 1.387 . S
C744 H748 0.950 . S
C744 C753 1.390 . S
C745 C744 1.387 . S
C745 C747 1.387 . S
H746 C753 0.950 . S
C747 C745 1.387 . S
C747 C749 1.390 . S
C747 H751 0.950 . S
H748 C744 0.950 . S
C749 C747 1.390 . S
C749 C750 1.387 . S
C749 H752 0.950 . S
C750 C749 1.387 . S
C750 C753 1.387 . S
H751 C747 0.950 . S
H752 C749 0.950 . S
C753 C744 1.390 . S
C753 H746 0.950 . S
C753 C750 1.387 . S
C754 C755 1.387 . S
C754 H758 0.950 . S
C754 C763 1.390 1_565 S
C755 C754 1.387 . S
C755 C757 1.387 . S
H756 C763 0.950 . S
C757 C755 1.387 . S
C757 C759 1.390 . S
C757 H761 0.950 . S
H758 C754 0.950 . S
C759 C757 1.390 . S
C759 C760 1.387 1_565 S
C759 H762 0.950 . S
C760 C759 1.387 1_545 S
C760 C763 1.387 . S
H761 C757 0.950 . S
H762 C759 0.950 . S
C763 C754 1.390 1_545 S
C763 H756 0.950 . S
C763 C760 1.387 . S
C764 C765 1.387 . S
C764 H768 0.950 . S
C764 C773 1.390 . S
C765 C764 1.387 . S
C765 C767 1.387 . S
H766 C773 0.950 . S
C767 C765 1.387 . S
C767 C769 1.390 . S
C767 H771 0.950 . S
H768 C764 0.950 . S
C769 C767 1.390 . S
C769 C770 1.387 . S
C769 H772 0.950 . S
C770 C769 1.387 . S
C770 C773 1.387 . S
H771 C767 0.950 . S
H772 C769 0.950 . S
C773 C764 1.390 . S
C773 H766 0.950 . S
C773 C770 1.387 . S
C774 C775 1.387 1_565 S
C774 H778 0.950 . S
C774 C783 1.390 1_565 S
C775 C774 1.387 1_545 S
C775 C777 1.387 . S
H776 C783 0.950 . S
C777 C775 1.387 . S
C777 C779 1.390 . S
C777 H781 0.950 . S
H778 C774 0.950 . S
C779 C777 1.390 . S
C779 C780 1.387 . S
C779 H782 0.950 . S
C780 C779 1.387 . S
C780 C783 1.387 . S
H781 C777 0.950 . S
H782 C779 0.950 . S
C783 C774 1.390 1_545 S
C783 H776 0.950 . S
C783 C780 1.387 . S
C784 C785 1.387 . S
C784 H788 0.950 . S
C784 C793 1.390 . S
C785 C784 1.387 . S
C785 C787 1.387 . S
H786 C793 0.950 . S
C787 C785 1.387 . S
C787 C789 1.390 . S
C787 H791 0.950 . S
H788 C784 0.950 . S
C789 C787 1.390 . S
C789 C790 1.387 . S
C789 H792 0.950 . S
C790 C789 1.387 . S
C790 C793 1.387 . S
H791 C787 0.950 . S
H792 C789 0.950 . S
C793 C784 1.390 . S
C793 H786 0.950 . S
C793 C790 1.387 . S
C794 C795 1.387 . S
C794 H798 0.950 . S
C794 C803 1.390 . S
C795 C794 1.387 . S
C795 C797 1.387 . S
H796 C803 0.950 . S
C797 C795 1.387 . S
C797 C799 1.390 . S
C797 H801 0.950 . S
H798 C794 0.950 . S
C799 C797 1.390 . S
C799 C800 1.387 . S
C799 H802 0.950 . S
C800 C799 1.387 . S
C800 C803 1.387 . S
H801 C797 0.950 . S
H802 C799 0.950 . S
C803 C794 1.390 . S
C803 H796 0.950 . S
C803 C800 1.387 . S
C804 C805 1.387 . S
C804 H808 0.950 . S
C804 C813 1.390 . S
C805 C804 1.387 . S
C805 C807 1.387 . S
H806 C813 0.950 . S
C807 C805 1.387 . S
C807 C809 1.390 . S
C807 H811 0.950 . S
H808 C804 0.950 . S
C809 C807 1.390 . S
C809 C810 1.387 . S
C809 H812 0.950 . S
C810 C809 1.387 . S
C810 C813 1.387 . S
H811 C807 0.950 . S
H812 C809 0.950 . S
C813 C804 1.390 . S
C813 H806 0.950 . S
C813 C810 1.387 . S
C814 C815 1.387 . S
C814 H818 0.950 . S
C814 C823 1.390 . S
C815 C814 1.387 . S
C815 C817 1.387 . S
H816 C823 0.950 . S
C817 C815 1.387 . S
C817 C819 1.390 . S
C817 H821 0.950 . S
H818 C814 0.950 . S
C819 C817 1.390 . S
C819 C820 1.387 . S
C819 H822 0.950 . S
C820 C819 1.387 . S
C820 C823 1.387 . S
H821 C817 0.950 . S
H822 C819 0.950 . S
C823 C814 1.390 . S
C823 H816 0.950 . S
C823 C820 1.387 . S
C824 C825 1.387 . S
C824 H828 0.950 . S
C824 C833 1.390 . S
C825 C824 1.387 . S
C825 C827 1.387 . S
H826 C833 0.950 . S
C827 C825 1.387 . S
C827 C829 1.390 . S
C827 H831 0.950 . S
H828 C824 0.950 . S
C829 C827 1.390 . S
C829 C830 1.387 . S
C829 H832 0.950 . S
C830 C829 1.387 . S
C830 C833 1.387 . S
H831 C827 0.950 . S
H832 C829 0.950 . S
C833 C824 1.390 . S
C833 H826 0.950 . S
C833 C830 1.387 . S
C834 C835 1.387 . S
C834 H838 0.950 . S
C834 C843 1.390 . S
C835 C834 1.387 . S
C835 C837 1.387 . S
H836 C843 0.950 . S
C837 C835 1.387 . S
C837 C839 1.390 . S
C837 H841 0.950 . S
H838 C834 0.950 . S
C839 C837 1.390 . S
C839 C840 1.387 . S
C839 H842 0.950 . S
C840 C839 1.387 . S
C840 C843 1.387 . S
H841 C837 0.950 . S
H842 C839 0.950 . S
C843 C834 1.390 . S
C843 H836 0.950 . S
C843 C840 1.387 . S
C844 C845 1.387 . S
C844 H848 0.950 . S
C844 C853 1.390 . S
C845 C844 1.387 . S
C845 C847 1.387 . S
H846 C853 0.950 . S
C847 C845 1.387 . S
C847 C849 1.390 . S
C847 H851 0.950 . S
H848 C844 0.950 . S
C849 C847 1.390 . S
C849 C850 1.387 . S
C849 H852 0.950 . S
C850 C849 1.387 . S
C850 C853 1.387 . S
H851 C847 0.950 . S
H852 C849 0.950 . S
C853 C844 1.390 . S
C853 H846 0.950 . S
C853 C850 1.387 . S
C854 C855 1.387 . S
C854 H858 0.950 . S
C854 C863 1.390 . S
C855 C854 1.387 . S
C855 C857 1.387 . S
H856 C863 0.950 . S
C857 C855 1.387 . S
C857 C859 1.390 . S
C857 H861 0.950 . S
H858 C854 0.950 . S
C859 C857 1.390 . S
C859 C860 1.387 . S
C859 H862 0.950 . S
C860 C859 1.387 . S
C860 C863 1.387 . S
H861 C857 0.950 . S
H862 C859 0.950 . S
C863 C854 1.390 . S
C863 H856 0.950 . S
C863 C860 1.387 . S
C864 C865 1.387 . S
C864 H868 0.950 . S
C864 C873 1.390 . S
C865 C864 1.387 . S
C865 C867 1.387 . S
H866 C873 0.950 . S
C867 C865 1.387 . S
C867 C869 1.390 . S
C867 H871 0.950 . S
H868 C864 0.950 . S
C869 C867 1.390 . S
C869 C870 1.387 . S
C869 H872 0.950 . S
C870 C869 1.387 . S
C870 C873 1.387 . S
H871 C867 0.950 . S
H872 C869 0.950 . S
C873 C864 1.390 . S
C873 H866 0.950 . S
C873 C870 1.387 . S
C874 C875 1.387 . S
C874 H878 0.950 . S
C874 C883 1.390 . S
C875 C874 1.387 . S
C875 C877 1.387 . S
H876 C883 0.950 . S
C877 C875 1.387 . S
C877 C879 1.390 . S
C877 H881 0.950 . S
H878 C874 0.950 . S
C879 C877 1.390 . S
C879 C880 1.387 . S
C879 H882 0.950 . S
C880 C879 1.387 . S
C880 C883 1.387 . S
H881 C877 0.950 . S
H882 C879 0.950 . S
C883 C874 1.390 . S
C883 H876 0.950 . S
C883 C880 1.387 . S
C884 C885 1.387 . S
C884 H888 0.950 . S
C884 C893 1.390 . S
C885 C884 1.387 . S
C885 C887 1.387 . S
H886 C893 0.950 . S
C887 C885 1.387 . S
C887 C889 1.390 . S
C887 H891 0.950 . S
H888 C884 0.950 . S
C889 C887 1.390 . S
C889 C890 1.387 . S
C889 H892 0.950 . S
C890 C889 1.387 . S
C890 C893 1.387 . S
H891 C887 0.950 . S
H892 C889 0.950 . S
C893 C884 1.390 . S
C893 H886 0.950 . S
C893 C890 1.387 . S
C894 C895 1.387 . S
C894 H898 0.950 . S
C894 C903 1.390 . S
C895 C894 1.387 . S
C895 C897 1.387 . S
H896 C903 0.950 . S
C897 C895 1.387 . S
C897 C899 1.390 . S
C897 H901 0.950 . S
H898 C894 0.950 . S
C899 C897 1.390 . S
C899 C900 1.387 . S
C899 H902 0.950 . S
C900 C899 1.387 . S
C900 C903 1.387 . S
H901 C897 0.950 . S
H902 C899 0.950 . S
C903 C894 1.390 . S
C903 H896 0.950 . S
C903 C900 1.387 . S
C904 C905 1.387 . S
C904 H908 0.950 . S
C904 C913 1.390 . S
C905 C904 1.387 . S
C905 C907 1.387 . S
H906 C913 0.950 . S
C907 C905 1.387 . S
C907 C909 1.390 . S
C907 H911 0.950 . S
H908 C904 0.950 . S
C909 C907 1.390 . S
C909 C910 1.387 . S
C909 H912 0.950 . S
C910 C909 1.387 . S
C910 C913 1.387 . S
H911 C907 0.950 . S
H912 C909 0.950 . S
C913 C904 1.390 . S
C913 H906 0.950 . S
C913 C910 1.387 . S
C914 C915 1.387 . S
C914 H918 0.950 . S
C914 C923 1.390 . S
C915 C914 1.387 . S
C915 C917 1.387 . S
H916 C923 0.950 . S
C917 C915 1.387 . S
C917 C919 1.390 . S
C917 H921 0.950 . S
H918 C914 0.950 . S
C919 C917 1.390 . S
C919 C920 1.387 . S
C919 H922 0.950 . S
C920 C919 1.387 . S
C920 C923 1.387 . S
H921 C917 0.950 . S
H922 C919 0.950 . S
C923 C914 1.390 . S
C923 H916 0.950 . S
C923 C920 1.387 . S
C924 C925 1.387 . S
C924 H928 0.950 . S
C924 C933 1.390 . S
C925 C924 1.387 . S
C925 C927 1.387 . S
H926 C933 0.950 . S
C927 C925 1.387 . S
C927 C929 1.390 . S
C927 H931 0.950 . S
H928 C924 0.950 . S
C929 C927 1.390 . S
C929 C930 1.387 . S
C929 H932 0.950 . S
C930 C929 1.387 . S
C930 C933 1.387 . S
H931 C927 0.950 . S
H932 C929 0.950 . S
C933 C924 1.390 . S
C933 H926 0.950 . S
C933 C930 1.387 . S
C934 C935 1.387 . S
C934 H938 0.950 . S
C934 C943 1.390 . S
C935 C934 1.387 . S
C935 C937 1.387 . S
H936 C943 0.950 . S
C937 C935 1.387 . S
C937 C939 1.390 . S
C937 H941 0.950 . S
H938 C934 0.950 . S
C939 C937 1.390 . S
C939 C940 1.387 . S
C939 H942 0.950 . S
C940 C939 1.387 . S
C940 C943 1.387 . S
H941 C937 0.950 . S
H942 C939 0.950 . S
C943 C934 1.390 . S
C943 H936 0.950 . S
C943 C940 1.387 . S
C944 C945 1.387 . S
C944 H948 0.950 . S
C944 C953 1.390 1_556 S
C945 C944 1.387 . S
C945 C947 1.387 . S
H946 C953 0.950 . S
C947 C945 1.387 . S
C947 C949 1.390 . S
C947 H951 0.950 . S
H948 C944 0.950 . S
C949 C947 1.390 . S
C949 C950 1.387 1_556 S
C949 H952 0.950 . S
C950 C949 1.387 1_554 S
C950 C953 1.387 . S
H951 C947 0.950 . S
H952 C949 0.950 . S
C953 C944 1.390 1_554 S
C953 H946 0.950 . S
C953 C950 1.387 . S
C954 C955 1.387 . S
C954 H958 0.950 . S
C954 C963 1.390 . S
C955 C954 1.387 . S
C955 C957 1.387 1_545 S
H956 C963 0.950 . S
C957 C955 1.387 1_565 S
C957 C959 1.390 . S
C957 H961 0.950 . S
H958 C954 0.950 . S
C959 C957 1.390 . S
C959 C960 1.387 1_565 S
C959 H962 0.950 . S
C960 C959 1.387 1_545 S
C960 C963 1.387 . S
H961 C957 0.950 . S
H962 C959 0.950 . S
C963 C954 1.390 . S
C963 H956 0.950 . S
C963 C960 1.387 . S
C964 C965 1.387 . S
C964 H968 0.950 . S
C964 C973 1.390 . S
C965 C964 1.387 . S
C965 C967 1.387 . S
H966 C973 0.950 . S
C967 C965 1.387 . S
C967 C969 1.390 . S
C967 H971 0.950 . S
H968 C964 0.950 . S
C969 C967 1.390 . S
C969 C970 1.387 . S
C969 H972 0.950 . S
C970 C969 1.387 . S
C970 C973 1.387 . S
H971 C967 0.950 . S
H972 C969 0.950 . S
C973 C964 1.390 . S
C973 H966 0.950 . S
C973 C970 1.387 . S
C974 C975 1.387 . S
C974 H978 0.950 . S
C974 C983 1.390 . S
C975 C974 1.387 . S
C975 C977 1.387 1_565 S
H976 C983 0.950 . S
C977 C975 1.387 1_545 S
C977 C979 1.390 . S
C977 H981 0.950 . S
H978 C974 0.950 . S
C979 C977 1.390 . S
C979 C980 1.387 1_545 S
C979 H982 0.950 . S
C980 C979 1.387 1_565 S
C980 C983 1.387 . S
H981 C977 0.950 . S
H982 C979 0.950 . S
C983 C974 1.390 . S
C983 H976 0.950 . S
C983 C980 1.387 . S
C984 C985 1.387 . S
C984 H988 0.950 . S
C984 C993 1.390 1_556 S
C985 C984 1.387 . S
C985 C987 1.387 . S
H986 C993 0.950 . S
C987 C985 1.387 . S
C987 C989 1.390 1_556 S
C987 H991 0.950 . S
H988 C984 0.950 . S
C989 C987 1.390 1_554 S
C989 C990 1.387 . S
C989 H992 0.950 . S
C990 C989 1.387 . S
C990 C993 1.387 . S
H991 C987 0.950 . S
H992 C989 0.950 . S
C993 C984 1.390 1_554 S
C993 H986 0.950 . S
C993 C990 1.387 . S
C994 C995 1.387 1_565 S
C994 H998 0.950 . S
C994 C1003 1.390 . S
C995 C994 1.387 1_545 S
C995 C997 1.387 . S
H996 C1003 0.950 . S
C997 C995 1.387 . S
C997 C999 1.390 . S
C997 H1001 0.950 . S
H998 C994 0.950 . S
C999 C997 1.390 . S
C999 C1000 1.387 . S
C999 H1002 0.950 . S
C1000 C999 1.387 . S
C1000 C1003 1.387 1_545 S
H1001 C997 0.950 . S
H1002 C999 0.950 . S
C1003 C994 1.390 . S
C1003 H996 0.950 . S
C1003 C1000 1.387 1_565 S
C1004 C1005 1.387 . S
C1004 H1008 0.950 . S
C1004 C1013 1.390 . S
C1005 C1004 1.387 . S
C1005 C1007 1.387 . S
H1006 C1013 0.950 . S
C1007 C1005 1.387 . S
C1007 C1009 1.390 . S
C1007 H1011 0.950 . S
H1008 C1004 0.950 . S
C1009 C1007 1.390 . S
C1009 C1010 1.387 . S
C1009 H1012 0.950 . S
C1010 C1009 1.387 . S
C1010 C1013 1.387 . S
H1011 C1007 0.950 . S
H1012 C1009 0.950 . S
C1013 C1004 1.390 . S
C1013 H1006 0.950 . S
C1013 C1010 1.387 . S
C1014 C1015 1.387 . S
C1014 H1018 0.950 . S
C1014 C1023 1.390 . S
C1015 C1014 1.387 . S
C1015 C1017 1.387 1_545 S
H1016 C1023 0.950 . S
C1017 C1015 1.387 1_565 S
C1017 C1019 1.390 . S
C1017 H1021 0.950 . S
H1018 C1014 0.950 . S
C1019 C1017 1.390 . S
C1019 C1020 1.387 1_565 S
C1019 H1022 0.950 . S
C1020 C1019 1.387 1_545 S
C1020 C1023 1.387 . S
H1021 C1017 0.950 . S
H1022 C1019 0.950 . S
C1023 C1014 1.390 . S
C1023 H1016 0.950 . S
C1023 C1020 1.387 . S
C1024 C1025 1.387 . S
C1024 H1028 0.950 . S
C1024 C1033 1.390 . S
C1025 C1024 1.387 . S
C1025 C1027 1.387 . S
H1026 C1033 0.950 . S
C1027 C1025 1.387 . S
C1027 C1029 1.390 . S
C1027 H1031 0.950 . S
H1028 C1024 0.950 . S
C1029 C1027 1.390 . S
C1029 C1030 1.387 . S
C1029 H1032 0.950 . S
C1030 C1029 1.387 . S
C1030 C1033 1.387 . S
H1031 C1027 0.950 . S
H1032 C1029 0.950 . S
C1033 C1024 1.390 . S
C1033 H1026 0.950 . S
C1033 C1030 1.387 . S
C1034 C1035 1.387 . S
C1034 H1038 0.950 . S
C1034 C1043 1.390 . S
C1035 C1034 1.387 . S
C1035 C1037 1.387 . S
H1036 C1043 0.950 . S
C1037 C1035 1.387 . S
C1037 C1039 1.390 . S
C1037 H1041 0.950 . S
H1038 C1034 0.950 . S
C1039 C1037 1.390 . S
C1039 C1040 1.387 . S
C1039 H1042 0.950 . S
C1040 C1039 1.387 . S
C1040 C1043 1.387 . S
H1041 C1037 0.950 . S
H1042 C1039 0.950 . S
C1043 C1034 1.390 . S
C1043 H1036 0.950 . S
C1043 C1040 1.387 . S
C1044 C1045 1.387 . S
C1044 H1048 0.950 . S
C1044 C1053 1.390 1_554 S
C1045 C1044 1.387 . S
C1045 C1047 1.387 . S
H1046 C1053 0.950 . S
C1047 C1045 1.387 . S
C1047 C1049 1.390 1_554 S
C1047 H1051 0.950 . S
H1048 C1044 0.950 . S
C1049 C1047 1.390 1_556 S
C1049 C1050 1.387 . S
C1049 H1052 0.950 . S
C1050 C1049 1.387 . S
C1050 C1053 1.387 . S
H1051 C1047 0.950 . S
H1052 C1049 0.950 . S
C1053 C1044 1.390 1_556 S
C1053 H1046 0.950 . S
C1053 C1050 1.387 . S
C1054 C1055 1.387 . S
C1054 H1058 0.950 . S
C1054 C1063 1.390 . S
C1055 C1054 1.387 . S
C1055 C1057 1.387 . S
H1056 C1063 0.950 . S
C1057 C1055 1.387 . S
C1057 C1059 1.390 . S
C1057 H1061 0.950 . S
H1058 C1054 0.950 . S
C1059 C1057 1.390 . S
C1059 C1060 1.387 . S
C1059 H1062 0.950 . S
C1060 C1059 1.387 . S
C1060 C1063 1.387 . S
H1061 C1057 0.950 . S
H1062 C1059 0.950 . S
C1063 C1054 1.390 . S
C1063 H1056 0.950 . S
C1063 C1060 1.387 . S
C1064 C1065 1.387 . S
C1064 H1068 0.950 . S
C1064 C1073 1.390 . S
C1065 C1064 1.387 . S
C1065 C1067 1.387 . S
H1066 C1073 0.950 . S
C1067 C1065 1.387 . S
C1067 C1069 1.390 . S
C1067 H1071 0.950 . S
H1068 C1064 0.950 . S
C1069 C1067 1.390 . S
C1069 C1070 1.387 . S
C1069 H1072 0.950 . S
C1070 C1069 1.387 . S
C1070 C1073 1.387 . S
H1071 C1067 0.950 . S
H1072 C1069 0.950 . S
C1073 C1064 1.390 . S
C1073 H1066 0.950 . S
C1073 C1070 1.387 . S
C1074 C1075 1.387 . S
C1074 H1078 0.950 . S
C1074 C1083 1.390 . S
C1075 C1074 1.387 . S
C1075 C1077 1.387 . S
H1076 C1083 0.950 . S
C1077 C1075 1.387 . S
C1077 C1079 1.390 . S
C1077 H1081 0.950 . S
H1078 C1074 0.950 . S
C1079 C1077 1.390 . S
C1079 C1080 1.387 . S
C1079 H1082 0.950 . S
C1080 C1079 1.387 . S
C1080 C1083 1.387 . S
H1081 C1077 0.950 . S
H1082 C1079 0.950 . S
C1083 C1074 1.390 . S
C1083 H1076 0.950 . S
C1083 C1080 1.387 . S
C1084 C1085 1.387 . S
C1084 H1088 0.950 . S
C1084 C1093 1.390 1_554 S
C1085 C1084 1.387 . S
C1085 C1087 1.387 . S
H1086 C1093 0.950 . S
C1087 C1085 1.387 . S
C1087 C1089 1.390 1_554 S
C1087 H1091 0.950 . S
H1088 C1084 0.950 . S
C1089 C1087 1.390 1_556 S
C1089 C1090 1.387 . S
C1089 H1092 0.950 . S
C1090 C1089 1.387 . S
C1090 C1093 1.387 . S
H1091 C1087 0.950 . S
H1092 C1089 0.950 . S
C1093 C1084 1.390 1_556 S
C1093 H1086 0.950 . S
C1093 C1090 1.387 . S
C1094 C1095 1.387 . S
C1094 H1098 0.950 . S
C1094 C1103 1.390 . S
C1095 C1094 1.387 . S
C1095 C1097 1.387 . S
H1096 C1103 0.950 . S
C1097 C1095 1.387 . S
C1097 C1099 1.390 . S
C1097 H1101 0.950 1_655 S
H1098 C1094 0.950 . S
C1099 C1097 1.390 . S
C1099 C1100 1.387 . S
C1099 H1102 0.950 . S
C1100 C1099 1.387 . S
C1100 C1103 1.387 . S
H1101 C1097 0.950 1_455 S
H1102 C1099 0.950 . S
C1103 C1094 1.390 . S
C1103 H1096 0.950 . S
C1103 C1100 1.387 . S
C545 C1 1.595 . S
C550 C241 1.587 . S
C555 C35 1.532 . S
C560 C139 1.596 . S
C565 C71 1.492 . S
C570 C171 1.508 . S
C575 C205 1.700 . S
C580 C105 1.697 . S
C585 C275 1.541 . S
C590 C513 1.587 . S
C595 C307 1.702 . S
C600 C411 1.723 . S
C605 C445 1.536 . S
C610 C343 1.559 . S
C615 C377 1.737 . S
C620 C477 1.713 . S
C625 C391 2.465 . S
C630 C3 2.286 . S
C635 C37 1.870 1_445 S
C640 C448 1.967 . S
C645 C96 1.431 . S
C650 C323 1.421 . S
C655 C130 1.876 . S
C660 C527 1.876 . S
C665 C459 2.103 . S
C670 C137 1.988 . S
C675 C176 1.102 . S
C680 C334 1.034 . S
C685 C516 1.430 . S
C690 C207 1.563 . S
C695 C380 1.885 . S
C700 C239 1.842 . S
C705 C273 2.321 . S
C710 C119 2.494 . S
C715 C312 1.224 1_655 S
C720 C198 1.162 . S
C725 C368 1.073 . S
C730 C62 0.991 . S
C735 C255 1.772 . S
C740 C402 1.778 1_545 S
C745 C409 1.982 . S
C750 C187 2.099 1_545 S
C755 C51 1.527 . S
C760 C470 1.534 . S
C765 C244 1.383 . S
C770 C479 1.481 . S
C775 C511 1.645 1_645 S
C780 C108 1.707 . S
C785 C425 2.302 . S
C790 C173 2.116 . S
C795 C278 1.133 . S
C800 C210 1.177 . S
C805 C493 1.260 . S
C810 C266 1.267 . S
C815 C357 1.785 . S
C820 C164 1.790 . S
C825 C289 2.022 . S
C830 C103 1.947 . S
C835 C504 0.889 . S
C840 C6 0.929 . S
C845 C40 0.943 . S
C850 C346 0.876 . S
C855 C414 1.731 . S
C860 C69 1.684 . S
C865 C443 2.260 . S
C870 C153 2.415 . S
C875 C28 1.161 . S
C880 C482 1.212 . S
C885 C538 1.473 . S
C890 C221 1.461 . S
C895 C436 1.889 . S
C900 C85 1.885 . S
C905 C375 1.888 . S
C910 C17 1.987 . S
C915 C232 0.865 . S
C920 C300 0.894 . S
C925 C74 1.389 . S
C930 C309 1.511 . S
C935 C341 1.704 . S
C940 C142 1.777 . S
C945 C219 1.579 . S
C950 C15 1.564 . S
C955 C260 1.574 . S
C960 C49 1.583 1_545 S
C965 C83 1.450 . S
C970 C158 1.446 . S
C975 C192 1.850 . S
C980 C117 1.675 1_565 S
C985 C294 1.541 . S
C990 C491 1.560 . S
C995 C328 1.547 . S
C1000 C532 1.610 1_545 S
C1005 C430 1.666 . S
C1010 C355 1.678 . S
C1015 C457 1.648 . S
C1020 C389 1.601 . S
C1025 C56 1.499 . S
C1030 C185 1.533 . S
C1035 C90 1.620 . S
C1040 C226 1.551 . S
C1045 C253 1.576 . S
C1050 C124 1.612 . S
C1055 C151 1.850 . S
C1060 C22 1.913 . S
C1065 C321 1.671 . S
C1070 C464 1.642 . S
C1075 C498 1.549 . S
C1080 C362 1.703 . S
C1085 C396 1.557 . S
C1090 C525 1.538 . S
C1095 C423 1.724 . S
C1100 C287 1.858 . S
