# Generated by pormake.
# Topology wli, (5)-cn, num edge types: 1
# Building blocks:
#     Node 0, Type 0, BuildingBlock: BEQFEK_clean_sbu_0, # of connection points: 5
#     Node 1, Type 0, BuildingBlock: BEQFEK_clean_sbu_0, # of connection points: 5
#     Node 2, Type 0, BuildingBlock: BEQFEK_clean_sbu_0, # of connection points: 5
#     Node 3, Type 0, BuildingBlock: BEQFEK_clean_sbu_0, # of connection points: 5
#     Node 4, Type 0, BuildingBlock: BEQFEK_clean_sbu_0, # of connection points: 5
#     Node 5, Type 0, BuildingBlock: BEQFEK_clean_sbu_0, # of connection points: 5
#     Edge 6, Type (0, 0), BuildingBlock: XUDNAN_clean_linker_2, # of connection points: 2
#     Edge 7, Type (0, 0), BuildingBlock: XUDNAN_clean_linker_2, # of connection points: 2
#     Edge 8, Type (0, 0), BuildingBlock: XUDNAN_clean_linker_2, # of connection points: 2
#     Edge 9, Type (0, 0), BuildingBlock: XUDNAN_clean_linker_2, # of connection points: 2
#     Edge 10, Type (0, 0), BuildingBlock: XUDNAN_clean_linker_2, # of connection points: 2
#     Edge 11, Type (0, 0), BuildingBlock: XUDNAN_clean_linker_2, # of connection points: 2
#     Edge 12, Type (0, 0), BuildingBlock: XUDNAN_clean_linker_2, # of connection points: 2
#     Edge 13, Type (0, 0), BuildingBlock: XUDNAN_clean_linker_2, # of connection points: 2
#     Edge 14, Type (0, 0), BuildingBlock: XUDNAN_clean_linker_2, # of connection points: 2
#     Edge 15, Type (0, 0), BuildingBlock: XUDNAN_clean_linker_2, # of connection points: 2
#     Edge 16, Type (0, 0), BuildingBlock: XUDNAN_clean_linker_2, # of connection points: 2
#     Edge 17, Type (0, 0), BuildingBlock: XUDNAN_clean_linker_2, # of connection points: 2
#     Edge 18, Type (0, 0), BuildingBlock: XUDNAN_clean_linker_2, # of connection points: 2
#     Edge 19, Type (0, 0), BuildingBlock: XUDNAN_clean_linker_2, # of connection points: 2
#     Edge 20, Type (0, 0), BuildingBlock: XUDNAN_clean_linker_2, # of connection points: 2
# Relax obj value: 0.167
# Max RMSD: 0.120
# Mean RMSD: 0.120
data_MOF--net-wli--node1-BEQFEK_clean_sbu_0--edge1-XUDNAN_clean_linker_2
_symmetry_space_group_name_H-M    P1
_symmetry_Int_Tables_number       1
_symmetry_cell_setting            triclinic
loop_
_symmetry_equiv_pos_as_xyz
'x, y, z'
_cell_length_a     36.485759
_cell_length_b     36.607099
_cell_length_c     28.16203
_cell_angle_alpha  89.930875
_cell_angle_beta   90.107274
_cell_angle_gamma 120.00341
loop_
_atom_site_label
_atom_site_type_symbol
_atom_site_fract_x
_atom_site_fract_y
_atom_site_fract_z
_atom_type_partial_charge
Co0 Co 0.21458 0.44104 0.9978 0.0
Co1 Co 0.13885 0.37699 0.06179 0.0
C2 C 0.20614 0.35896 0.02427 0.0
O3 O 0.22736 0.39502 0.00485 0.0
O4 O 0.17165 0.34821 0.0462 0.0
C5 C 0.29936 0.50048 0.96125 0.0
O6 O 0.31446 0.48586 0.99387 0.0
C7 C 0.10724 0.33711 0.15402 0.0
C8 C 0.03976 0.31893 0.15061 0.0
C9 C 0.07064 0.32129 0.18131 0.0
N10 N 0.09861 0.34507 0.11009 0.0
N11 N 0.05796 0.33315 0.1079 0.0
C12 C 0.14999 0.34483 0.16887 0.0
H13 H 0.1648 0.3369 0.13929 0.0
H14 H 0.17091 0.37873 0.17711 0.0
H15 H 0.14768 0.3257 0.20052 0.0
C16 C 0.22825 0.49757 0.07986 0.0
N17 N 0.20749 0.4599 0.05775 0.0
N18 N 0.17435 0.43385 0.08325 0.0
C19 C 0.17217 0.45479 0.12156 0.0
C20 C 0.20668 0.4954 0.12129 0.0
C21 C 0.26831 0.53432 0.06186 0.0
H22 H 0.26229 0.5442 0.0268 0.0
H23 H 0.29226 0.52453 0.05687 0.0
H24 H 0.28128 0.5614 0.08673 0.0
O25 O 0.16194 0.42096 0.95961 0.0
O26 O 0.10778 0.37686 0.00459 0.0
H27 H 0.13158 0.46524 0.16847 0.0
H28 H 0.13931 0.42224 0.18458 0.0
C29 C 0.13486 0.43879 0.15415 0.0
H30 H 0.10539 0.4169 0.13505 0.0
H31 H 0.04316 0.33689 0.07801 0.0
O32 O 0.25976 0.48671 0.95898 0.0
C33 C 0.12233 0.39649 0.96567 0.0
Co34 Co 0.59181 0.79454 0.65241 0.0
Co35 Co 0.64996 0.76894 0.71042 0.0
C36 C 0.67489 0.85952 0.69377 0.0
O37 O 0.64046 0.84847 0.67184 0.0
O38 O 0.68348 0.83233 0.71067 0.0
C39 C 0.55696 0.84324 0.61325 0.0
O40 O 0.5944 0.8749 0.62437 0.0
C41 C 0.69161 0.75755 0.79516 0.0
C42 C 0.70585 0.70906 0.76934 0.0
C43 C 0.7096 0.73329 0.80886 0.0
N44 N 0.6778 0.74762 0.75006 0.0
N45 N 0.68655 0.7187 0.73491 0.0
C46 C 0.68892 0.79087 0.8231 0.0
H47 H 0.68424 0.81227 0.7992 0.0
H48 H 0.66135 0.77572 0.84737 0.0
H49 H 0.71803 0.80932 0.8446 0.0
C50 C 0.52923 0.7385 0.72284 0.0
N51 N 0.56897 0.75882 0.70584 0.0
N52 N 0.59214 0.7464 0.7291 0.0
C53 C 0.56713 0.71612 0.76038 0.0
C54 C 0.52631 0.71016 0.75765 0.0
C55 C 0.49513 0.74689 0.70615 0.0
H56 H 0.50839 0.78129 0.70119 0.0
H57 H 0.4687 0.73522 0.73196 0.0
H58 H 0.48291 0.73123 0.67136 0.0
O59 O 0.61107 0.76834 0.60369 0.0
O60 O 0.65131 0.7501 0.6452 0.0
H61 H 0.55325 0.65883 0.79788 0.0
H62 H 0.59806 0.70668 0.81972 0.0
C63 C 0.58067 0.68955 0.78732 0.0
H64 H 0.60203 0.68337 0.76517 0.0
H65 H 0.67922 0.70542 0.70101 0.0
O66 O 0.54871 0.80574 0.62196 0.0
C67 C 0.6348 0.75204 0.60609 0.0
Co68 Co 0.24931 0.81117 0.32327 0.0
Co69 Co 0.24207 0.88112 0.38081 0.0
C70 C 0.16514 0.80053 0.35273 0.0
O71 O 0.18852 0.78768 0.33455 0.0
O72 O 0.18092 0.83693 0.37168 0.0
C73 C 0.24047 0.73034 0.31812 0.0
O74 O 0.22486 0.72783 0.36079 0.0
C75 C 0.22364 0.92199 0.46087 0.0
C76 C 0.28307 0.98318 0.46377 0.0
C77 C 0.24606 0.95814 0.48885 0.0
N78 N 0.24754 0.92495 0.42306 0.0
N79 N 0.28233 0.96225 0.42424 0.0
C80 C 0.18016 0.88532 0.46883 0.0
H81 H 0.16382 0.87345 0.43439 0.0
H82 H 0.1825 0.85944 0.48648 0.0
H83 H 0.16083 0.89454 0.4907 0.0
C84 C 0.31021 0.82413 0.39975 0.0
N85 N 0.28022 0.83065 0.38015 0.0
N86 N 0.27504 0.85749 0.40638 0.0
C87 C 0.30064 0.86748 0.44473 0.0
C88 C 0.32408 0.84712 0.44151 0.0
C89 C 0.32927 0.8011 0.37567 0.0
H90 H 0.32678 0.80267 0.33658 0.0
H91 H 0.31205 0.76757 0.38692 0.0
H92 H 0.36308 0.81468 0.38551 0.0
O93 O 0.26928 0.85765 0.27778 0.0
O94 O 0.26618 0.90838 0.31779 0.0
H95 H 0.32167 0.92888 0.4732 0.0
H96 H 0.31723 0.89073 0.51659 0.0
C97 C 0.30253 0.8955 0.4844 0.0
H98 H 0.27017 0.88851 0.49351 0.0
H99 H 0.30696 0.97222 0.39974 0.0
O100 O 0.25451 0.76452 0.29489 0.0
C101 C 0.27483 0.8948 0.28012 0.0
Co102 Co 0.42821 0.19848 1.00133 0.0
Co103 Co 0.36681 0.13142 0.92657 0.0
C104 C 0.35113 0.19892 0.964 0.0
O105 O 0.38463 0.21479 0.98927 0.0
O106 O 0.34027 0.1666 0.93796 0.0
C107 C 0.48255 0.28012 0.04615 0.0
O108 O 0.45792 0.29228 0.02598 0.0
C109 C 0.32014 0.08983 0.83683 0.0
C110 C 0.30537 0.02456 0.85151 0.0
C111 C 0.30023 0.04922 0.81785 0.0
N112 N 0.33632 0.08885 0.87961 0.0
N113 N 0.32725 0.04968 0.88793 0.0
C114 C 0.32257 0.12849 0.81575 0.0
H115 H 0.32832 0.152 0.84382 0.0
H116 H 0.34931 0.1429 0.7903 0.0
H117 H 0.29298 0.12024 0.7962 0.0
C118 C 0.49116 0.20417 0.93134 0.0
N119 N 0.45077 0.19118 0.94353 0.0
N120 N 0.42524 0.16373 0.91189 0.0
C121 C 0.44869 0.15817 0.87886 0.0
C122 C 0.49122 0.18357 0.89002 0.0
C123 C 0.52832 0.23029 0.96285 0.0
H124 H 0.52329 0.21453 0.99785 0.0
H125 H 0.53082 0.26141 0.96879 0.0
H126 H 0.55835 0.23519 0.94722 0.0
O127 O 0.40288 0.14534 0.03943 0.0
O128 O 0.36144 0.09954 0.9848 0.0
H129 H 0.41418 0.09343 0.85776 0.0
H130 H 0.45584 0.1271 0.81705 0.0
C131 C 0.43078 0.12509 0.841 0.0
H132 H 0.40752 0.12911 0.81967 0.0
H133 H 0.33608 0.03999 0.9186 0.0
O134 O 0.47491 0.24253 0.04016 0.0
C135 C 0.37661 0.10778 0.02661 0.0
Co136 Co 0.81413 0.23528 0.69134 0.0
Co137 Co 0.88746 0.25338 0.61942 0.0
C138 C 0.82642 0.16578 0.65266 0.0
O139 O 0.80716 0.17951 0.67804 0.0
O140 O 0.85826 0.19055 0.6274 0.0
C141 C 0.74415 0.19412 0.75458 0.0
O142 O 0.75842 0.16767 0.75875 0.0
C143 C 0.9351 0.26589 0.52835 0.0
C144 C 1.00026 0.30229 0.55625 0.0
C145 C 0.97767 0.2863 0.51446 0.0
N146 N 0.93347 0.27061 0.57568 0.0
N147 N 0.9726 0.292 0.59192 0.0
C148 C 0.89644 0.24344 0.49796 0.0
H149 H 0.86768 0.23626 0.51854 0.0
H150 H 0.89914 0.26296 0.46655 0.0
H151 H 0.89325 0.21325 0.48544 0.0
C152 C 0.79712 0.28374 0.62009 0.0
N153 N 0.81822 0.26407 0.63358 0.0
N154 N 0.85001 0.27416 0.60427 0.0
C155 C 0.85146 0.30273 0.57272 0.0
C156 C 0.81773 0.30948 0.58144 0.0
C157 C 0.75826 0.27818 0.6446 0.0
H158 H 0.73688 0.24432 0.65268 0.0
H159 H 0.74086 0.28951 0.62229 0.0
H160 H 0.76743 0.29581 0.67864 0.0
O161 O 0.86532 0.2691 0.73179 0.0
O162 O 0.9151 0.28051 0.67908 0.0
H163 H 0.89367 0.36128 0.53727 0.0
H164 H 0.88175 0.31434 0.5051 0.0
C165 C 0.88837 0.3288 0.54092 0.0
H166 H 0.91754 0.33067 0.55519 0.0
H167 H 0.9806 0.30006 0.62748 0.0
O168 O 0.76372 0.22623 0.72793 0.0
C169 C 0.90413 0.2853 0.7203 0.0
Co170 Co 0.77306 0.57993 0.34926 0.0
Co171 Co 0.77887 0.63796 0.26345 0.0
C172 C 0.85672 0.64581 0.30653 0.0
O173 O 0.83359 0.61616 0.33501 0.0
O174 O 0.84073 0.6593 0.27559 0.0
C175 C 0.78784 0.51644 0.3874 0.0
O176 O 0.80665 0.52097 0.3463 0.0
C177 C 0.7896 0.67792 0.16749 0.0
C178 C 0.72998 0.67963 0.16427 0.0
C179 C 0.76519 0.68789 0.13759 0.0
N180 N 0.76886 0.66345 0.20898 0.0
N181 N 0.73367 0.6653 0.20688 0.0
C182 C 0.83205 0.68263 0.15773 0.0
H183 H 0.82784 0.65333 0.14107 0.0
H184 H 0.85064 0.70961 0.13348 0.0
H185 H 0.84988 0.68773 0.19125 0.0
C186 C 0.71703 0.5131 0.28163 0.0
N187 N 0.74327 0.55384 0.29296 0.0
N188 N 0.74756 0.57773 0.25598 0.0
C189 C 0.72468 0.5526 0.21957 0.0
C190 C 0.70457 0.51087 0.23468 0.0
C191 C 0.70147 0.4773 0.31616 0.0
H192 H 0.7001 0.48829 0.35243 0.0
H193 H 0.72348 0.46467 0.31627 0.0
H194 H 0.66956 0.45141 0.30598 0.0
O195 O 0.75014 0.61328 0.37835 0.0
O196 O 0.75462 0.65396 0.31755 0.0
H197 H 0.70361 0.58313 0.17099 0.0
H198 H 0.71033 0.54199 0.14444 0.0
C199 C 0.72346 0.56805 0.17072 0.0
H200 H 0.7559 0.59179 0.15967 0.0
H201 H 0.71135 0.65537 0.23412 0.0
O202 O 0.77004 0.53799 0.39606 0.0
C203 C 0.74461 0.64211 0.36045 0.0
H204 H 0.24581 0.71505 0.22386 0.0
H205 H 0.23374 0.66184 0.36465 0.0
H206 H 0.22931 0.59804 0.32928 0.0
H207 H 0.17069 0.62027 0.16917 0.0
H208 H 0.19849 0.63056 0.11353 0.0
H209 H 0.20511 0.67382 0.14994 0.0
H210 H 0.2863 0.7042 0.15056 0.0
H211 H 0.27991 0.66094 0.11412 0.0
H212 H 0.30738 0.67145 0.17011 0.0
H213 H 0.2223 0.53878 0.27892 0.0
H214 H 0.21086 0.48673 0.21643 0.0
H215 H 0.22442 0.57701 0.10827 0.0
C216 C 0.24301 0.69028 0.24727 0.0
C217 C 0.24043 0.69343 0.29702 0.0
C218 C 0.23584 0.66003 0.32644 0.0
C219 C 0.23346 0.62378 0.30671 0.0
C220 C 0.23553 0.62139 0.2575 0.0
C221 C 0.24007 0.65365 0.22811 0.0
C222 C 0.23841 0.64187 0.17626 0.0
C223 C 0.20094 0.64161 0.15075 0.0
C224 C 0.28051 0.67138 0.1513 0.0
C225 C 0.23168 0.59773 0.18112 0.0
C226 C 0.23059 0.58675 0.2283 0.0
C227 C 0.22339 0.5471 0.24186 0.0
C228 C 0.21679 0.51777 0.20624 0.0
C229 C 0.21716 0.52815 0.15777 0.0
C230 C 0.22494 0.5687 0.14508 0.0
H231 H 0.51575 0.68482 0.85126 0.0
H232 H 0.44916 0.65962 0.71678 0.0
H233 H 0.38361 0.60593 0.75536 0.0
H234 H 0.46508 0.57495 0.88619 0.0
H235 H 0.46369 0.58577 0.94839 0.0
H236 H 0.50484 0.6245 0.91101 0.0
H237 H 0.48417 0.67985 0.93624 0.0
H238 H 0.44281 0.64124 0.97351 0.0
H239 H 0.43036 0.66829 0.92834 0.0
H240 H 0.32497 0.5567 0.80846 0.0
H241 H 0.27822 0.50897 0.87097 0.0
H242 H 0.38396 0.55962 0.9695 0.0
C243 C 0.48739 0.66785 0.82995 0.0
C244 C 0.48732 0.67716 0.78122 0.0
C245 C 0.44964 0.65413 0.75449 0.0
C246 C 0.41231 0.62329 0.77599 0.0
C247 C 0.41335 0.6151 0.8241 0.0
C248 C 0.45001 0.63613 0.85065 0.0
C249 C 0.44289 0.61947 0.90114 0.0
C250 C 0.47078 0.60001 0.91233 0.0
C251 C 0.45051 0.65429 0.93691 0.0
C252 C 0.39644 0.58598 0.89879 0.0
C253 C 0.37997 0.58451 0.85414 0.0
C254 C 0.33753 0.55725 0.84346 0.0
C255 C 0.31121 0.53041 0.87925 0.0
C256 C 0.32756 0.53047 0.92491 0.0
C257 C 0.37076 0.55865 0.93473 0.0
H258 H 0.34178 0.78808 0.47814 0.0
H259 H 0.39023 0.92284 0.469 0.0
H260 H 0.45352 0.93605 0.51462 0.0
H261 H 0.38059 0.78738 0.59737 0.0
H262 H 0.39419 0.74756 0.58348 0.0
H263 H 0.35147 0.74849 0.55234 0.0
H264 H 0.38755 0.75196 0.47198 0.0
H265 H 0.43037 0.75107 0.50285 0.0
H266 H 0.44133 0.79329 0.46203 0.0
H267 H 0.51257 0.93498 0.55783 0.0
H268 H 0.56401 0.91996 0.59693 0.0
H269 H 0.47829 0.7856 0.57782 0.0
C270 C 0.36566 0.8203 0.48612 0.0
C271 C 0.36093 0.85447 0.47077 0.0
C272 C 0.39282 0.89623 0.48146 0.0
C273 C 0.42898 0.90403 0.50705 0.0
C274 C 0.43281 0.86971 0.52156 0.0
C275 C 0.40206 0.82865 0.51161 0.0
C276 C 0.41471 0.7976 0.53018 0.0
C277 C 0.38337 0.76855 0.5681 0.0
C278 C 0.41873 0.77198 0.48932 0.0
C279 C 0.45751 0.82769 0.55178 0.0
C280 C 0.46721 0.8691 0.54642 0.0
C281 C 0.50528 0.90268 0.56248 0.0
C282 C 0.53434 0.89377 0.5846 0.0
C283 C 0.52523 0.85159 0.59053 0.0
C284 C 0.48613 0.81816 0.57402 0.0
H285 H 0.56273 0.24061 0.84265 0.0
H286 H 0.49809 0.11375 0.89988 0.0
H287 H 0.5566 0.10314 0.87282 0.0
H288 H 0.6026 0.21596 0.73759 0.0
H289 H 0.65239 0.26481 0.7379 0.0
H290 H 0.60597 0.26281 0.76276 0.0
H291 H 0.64553 0.2919 0.84249 0.0
H292 H 0.69207 0.29396 0.81788 0.0
H293 H 0.66918 0.26493 0.87184 0.0
H294 H 0.62176 0.10647 0.84038 0.0
H295 H 0.68854 0.12216 0.80146 0.0
H296 H 0.71057 0.24646 0.76278 0.0
C297 C 0.56115 0.21071 0.84932 0.0
C298 C 0.5262 0.17784 0.87303 0.0
C299 C 0.52474 0.13905 0.88141 0.0
C300 C 0.55777 0.13285 0.86634 0.0
C301 C 0.59188 0.16577 0.84285 0.0
C302 C 0.59378 0.20388 0.8341 0.0
C303 C 0.63371 0.23367 0.80722 0.0
C304 C 0.62301 0.24496 0.75847 0.0
C305 C 0.66178 0.27347 0.83662 0.0
C306 C 0.65382 0.20631 0.80219 0.0
C307 C 0.62927 0.16741 0.82332 0.0
C308 C 0.64127 0.13679 0.82364 0.0
C309 C 0.67932 0.14606 0.80151 0.0
C310 C 0.70479 0.18551 0.77906 0.0
C311 C 0.69177 0.21599 0.77956 0.0
H312 H 0.80454 0.45193 0.37413 0.0
H313 H 0.77218 0.51536 0.48236 0.0
H314 H 0.77585 0.46892 0.54355 0.0
H315 H 0.74332 0.34694 0.42456 0.0
H316 H 0.78145 0.33154 0.40833 0.0
H317 H 0.77623 0.36973 0.37297 0.0
H318 H 0.85623 0.42279 0.38394 0.0
H319 H 0.86166 0.38485 0.41954 0.0
H320 H 0.87794 0.43654 0.44306 0.0
H321 H 0.78758 0.41903 0.59339 0.0
H322 H 0.80079 0.36484 0.62813 0.0
H323 H 0.81987 0.32967 0.48717 0.0
C324 C 0.79815 0.45598 0.41069 0.0
C325 C 0.78826 0.48737 0.42357 0.0
C326 C 0.77972 0.49146 0.47171 0.0
C327 C 0.78185 0.46533 0.50672 0.0
C328 C 0.79201 0.43494 0.4929 0.0
C329 C 0.79952 0.42975 0.44602 0.0
C330 C 0.80917 0.3942 0.44066 0.0
C331 C 0.77553 0.35849 0.40981 0.0
C332 C 0.85391 0.41059 0.42062 0.0
C333 C 0.80637 0.38056 0.49195 0.0
C334 C 0.79673 0.40469 0.52149 0.0
C335 C 0.79427 0.39934 0.57054 0.0
C336 C 0.80145 0.36821 0.58991 0.0
C337 C 0.81022 0.34229 0.56026 0.0
C338 C 0.81289 0.34879 0.51065 0.0
H339 H 0.50563 0.36139 0.07186 0.0
H340 H 0.54275 0.26616 0.08639 0.0
H341 H 0.6039 0.31518 0.13519 0.0
H342 H 0.6112 0.45108 0.0633 0.0
H343 H 0.59909 0.48536 0.09734 0.0
H344 H 0.55822 0.44298 0.06309 0.0
H345 H 0.51192 0.41391 0.13858 0.0
H346 H 0.55258 0.45625 0.17302 0.0
H347 H 0.5333 0.40228 0.19045 0.0
H348 H 0.66067 0.37405 0.18297 0.0
H349 H 0.70929 0.43925 0.22665 0.0
H350 H 0.63524 0.49599 0.18192 0.0
C351 C 0.52665 0.35085 0.08519 0.0
C352 C 0.51931 0.30986 0.07529 0.0
C353 C 0.54758 0.29733 0.09357 0.0
C354 C 0.58248 0.32497 0.12128 0.0
C355 C 0.58874 0.36507 0.13045 0.0
C356 C 0.56166 0.37804 0.11301 0.0
C357 C 0.5754 0.42271 0.12857 0.0
C358 C 0.58665 0.45227 0.0855 0.0
C359 C 0.54127 0.42383 0.1595 0.0
C360 C 0.6144 0.43276 0.15745 0.0
C361 C 0.62153 0.39907 0.15805 0.0
C362 C 0.65543 0.40065 0.18274 0.0
C363 C 0.68273 0.43765 0.20755 0.0
C364 C 0.67595 0.47246 0.20742 0.0
C365 C 0.64137 0.46993 0.18202 0.0
H366 H 0.90738 0.27486 0.81692 0.0
H367 H 0.97806 0.35487 0.69839 0.0
H368 H 0.03909 0.39633 0.75086 0.0
H369 H 0.95332 0.3578 0.91091 0.0
H370 H 0.95537 0.32224 0.95377 0.0
H371 H 0.91474 0.30232 0.90875 0.0
H372 H 0.93778 0.24911 0.88197 0.0
H373 H 0.97854 0.26898 0.92665 0.0
H374 H 0.99208 0.2683 0.86526 0.0
H375 H 0.09427 0.42473 0.8126 0.0
H376 H 0.14156 0.43833 0.88086 0.0
H377 H 0.03689 0.33937 0.96033 0.0
C378 C 0.93535 0.30183 0.80255 0.0
C379 C 0.93805 0.31199 0.75384 0.0
C380 C 0.97547 0.34669 0.73571 0.0
C381 C 0.01021 0.37054 0.76522 0.0
C382 C 0.00712 0.35919 0.81279 0.0
C383 C 0.97076 0.32575 0.83154 0.0
C384 C 0.97752 0.31804 0.88291 0.0
C385 C 0.94851 0.32556 0.91604 0.0
C386 C 0.97111 0.27347 0.88956 0.0
C387 C 0.02354 0.35167 0.88949 0.0
C388 C 0.03971 0.37533 0.84871 0.0
C389 C 0.08193 0.40681 0.84501 0.0
C390 C 0.10859 0.41418 0.88397 0.0
C391 C 0.093 0.39001 0.92605 0.0
C392 C 0.04972 0.35868 0.92887 0.0
H393 H 0.73623 0.63965 0.45732 0.0
H394 H 0.70932 0.68867 0.32961 0.0
H395 H 0.67562 0.71985 0.37823 0.0
H396 H 0.64059 0.61385 0.52046 0.0
H397 H 0.6666 0.63024 0.5773 0.0
H398 H 0.68758 0.61082 0.53233 0.0
H399 H 0.76019 0.67971 0.53783 0.0
H400 H 0.73949 0.69922 0.58296 0.0
H401 H 0.76279 0.72984 0.53003 0.0
H402 H 0.64409 0.74504 0.44103 0.0
H403 H 0.62193 0.76673 0.51358 0.0
H404 H 0.67171 0.70295 0.59982 0.0
C405 C 0.72312 0.6568 0.43951 0.0
C406 C 0.72524 0.66156 0.38964 0.0
C407 C 0.70813 0.68467 0.36779 0.0
C408 C 0.68876 0.70234 0.39507 0.0
C409 C 0.68705 0.69689 0.44414 0.0
C410 C 0.70411 0.675 0.46619 0.0
C411 C 0.69951 0.67493 0.51958 0.0
C412 C 0.67192 0.62977 0.53851 0.0
C413 C 0.74309 0.69727 0.54402 0.0
C414 C 0.67719 0.70019 0.52414 0.0
C415 C 0.66992 0.71226 0.48026 0.0
C416 C 0.64968 0.73583 0.47561 0.0
C417 C 0.63707 0.74787 0.51701 0.0
C418 C 0.64516 0.73665 0.5624 0.0
C419 C 0.66518 0.71219 0.56571 0.0
H420 H 0.36838 0.1067 0.12425 0.0
H421 H 0.35585 0.02816 0.00291 0.0
H422 H 0.33109 0.96655 0.05539 0.0
H423 H 0.4025 0.05415 0.21009 0.0
H424 H 0.37213 0.05807 0.25819 0.0
H425 H 0.39191 0.09725 0.2118 0.0
H426 H 0.31585 0.08271 0.19572 0.0
H427 H 0.29582 0.04338 0.24189 0.0
H428 H 0.27446 0.0297 0.18263 0.0
H429 H 0.30639 0.91351 0.11878 0.0
H430 H 0.28051 0.87006 0.19069 0.0
H431 H 0.30551 0.98078 0.27267 0.0
C432 C 0.36095 0.07661 0.10902 0.0
C433 C 0.3641 0.07213 0.05957 0.0
C434 C 0.35344 0.0322 0.04066 0.0
C435 C 0.33952 0.99705 0.07017 0.0
C436 C 0.33609 0.00222 0.11854 0.0
C437 C 0.34629 0.04079 0.13805 0.0
C438 C 0.33744 0.0367 0.19105 0.0
C439 C 0.37845 0.06311 0.21946 0.0
C440 C 0.30389 0.04884 0.20354 0.0
C441 C 0.32048 0.9898 0.19793 0.0
C442 C 0.32046 0.97082 0.15556 0.0
C443 C 0.30629 0.92792 0.15228 0.0
C444 C 0.29166 0.90352 0.19345 0.0
C445 C 0.29092 0.92193 0.23745 0.0
C446 C 0.30555 0.96574 0.23959 0.0
H447 H 0.37237 0.28094 0.98066 0.0
H448 H 0.26507 0.1555 0.95844 0.0
H449 H 0.21625 0.18247 0.97433 0.0
H450 H 0.32914 0.31312 0.07374 0.0
H451 H 0.35075 0.36652 0.05278 0.0
H452 H 0.37747 0.33755 0.03979 0.0
H453 H 0.37457 0.35068 0.94978 0.0
H454 H 0.34831 0.38013 0.96252 0.0
H455 H 0.32436 0.33592 0.92235 0.0
H456 H 0.17942 0.22197 0.99881 0.0
H457 H 0.15652 0.27356 0.01723 0.0
H458 H 0.28751 0.37442 0.01641 0.0
C459 C 0.33858 0.25929 0.9788 0.0
C460 C 0.32238 0.21614 0.96853 0.0
C461 C 0.27805 0.18874 0.96599 0.0
C462 C 0.25012 0.20369 0.9753 0.0
C463 C 0.26708 0.24626 0.98614 0.0
C464 C 0.31025 0.2739 0.98682 0.0
C465 C 0.32019 0.31848 0.99752 0.0
C466 C 0.3459 0.33486 0.04371 0.0
C467 C 0.34321 0.34804 0.95553 0.0
C468 C 0.27587 0.31148 0.00337 0.0
C469 C 0.24573 0.26948 0.99744 0.0
C470 C 0.20267 0.25503 0.00296 0.0
C471 C 0.19 0.28447 0.01374 0.0
C472 C 0.22025 0.32789 0.01795 0.0
C473 C 0.26372 0.34142 0.01299 0.0
H474 H 0.7464 0.10183 0.66913 0.0
H475 H 0.87411 0.12722 0.64281 0.0
H476 H 0.85046 0.05164 0.65648 0.0
H477 H 0.71937 0.02587 0.76082 0.0
H478 H 0.6656 0.99296 0.74088 0.0
H479 H 0.69274 0.04883 0.72929 0.0
H480 H 0.67816 0.03461 0.63909 0.0
H481 H 0.65033 0.97875 0.65053 0.0
H482 H 0.69387 1.00107 0.60927 0.0
H483 H 0.81237 0.97298 0.67718 0.0
H484 H 0.76143 0.89695 0.68995 0.0
H485 H 0.659 0.92441 0.69853 0.0
C486 C 0.76939 0.09146 0.66596 0.0
C487 C 0.81211 0.12028 0.65515 0.0
C488 C 0.84116 0.10551 0.65082 0.0
C489 C 0.82808 0.06278 0.65895 0.0
C490 C 0.7858 0.03534 0.67067 0.0
C491 C 0.75677 0.04905 0.67312 0.0
C492 C 0.71283 0.01325 0.68421 0.0
C493 C 0.69671 0.02069 0.73162 0.0
C494 C 0.68199 0.00652 0.64334 0.0
C495 C 0.72155 0.97711 0.68785 0.0
C496 C 0.76387 0.9904 0.6807 0.0
C497 C 0.77915 0.96225 0.6826 0.0
C498 C 0.75013 0.91924 0.6903 0.0
C499 C 0.7064 0.90496 0.69519 0.0
C500 C 0.69229 0.9345 0.69488 0.0
H501 H 0.10204 0.82058 0.33945 0.0
H502 H 0.12417 0.71558 0.35941 0.0
H503 H 0.04823 0.6656 0.34783 0.0
H504 H 0.9981 0.77233 0.39683 0.0
H505 H 0.97651 0.79361 0.35461 0.0
H506 H 0.0324 0.82162 0.36739 0.0
H507 H 0.04831 0.82157 0.27781 0.0
H508 H 0.99245 0.79304 0.26483 0.0
H509 H 0.02561 0.77218 0.2462 0.0
H510 H 0.97144 0.62693 0.33396 0.0
H511 H 0.89576 0.60067 0.31931 0.0
H512 H 0.92124 0.72919 0.30299 0.0
C513 C 0.0906 0.78708 0.3422 0.0
C514 C 0.11886 0.77186 0.3507 0.0
C515 C 0.10302 0.72783 0.35303 0.0
C516 C 0.05997 0.6992 0.34644 0.0
C517 C 0.03309 0.71501 0.33696 0.0
C518 C 0.0475 0.7578 0.33483 0.0
C519 C 0.01156 0.76586 0.32243 0.0
C520 C 0.00421 0.78977 0.36272 0.0
C521 C 0.02 0.78957 0.275 0.0
C522 C 0.97486 0.7209 0.31815 0.0
C523 C 0.98827 0.69227 0.32694 0.0
C524 C 0.96051 0.64896 0.32677 0.0
C525 C 0.91764 0.63437 0.31833 0.0
C526 C 0.90285 0.66288 0.30955 0.0
C527 C 0.93194 0.70675 0.3087 0.0
H528 H 0.94522 0.24482 0.42687 0.0
H529 H 0.05809 0.3464 0.49323 0.0
H530 H 0.09486 0.3621 0.41705 0.0
H531 H 0.9983 0.2114 0.34454 0.0
H532 H 0.96193 0.202 0.29647 0.0
H533 H 0.94408 0.19625 0.35708 0.0
H534 H 0.91836 0.24966 0.34216 0.0
H535 H 0.93575 0.25525 0.28142 0.0
H536 H 0.95488 0.30117 0.31881 0.0
H537 H 0.11928 0.36988 0.33443 0.0
H538 H 0.12895 0.37098 0.24835 0.0
H539 H 1.00085 0.26587 0.23268 0.0
C540 C 0.97728 0.27078 0.42575 0.0
C541 C 0.99818 0.29447 0.46683 0.0
C542 C 0.04097 0.32737 0.46284 0.0
C543 C 0.06238 0.33673 0.41954 0.0
C544 C 0.04081 0.31307 0.38002 0.0
C545 C 0.99921 0.28097 0.38241 0.0
C546 C 0.9832 0.26176 0.33369 0.0
C547 C 0.97117 0.21508 0.33292 0.0
C548 C 0.94584 0.26731 0.3181 0.0
C549 C 0.02227 0.28851 0.30379 0.0
C550 C 0.05518 0.31755 0.33155 0.0
C551 C 0.09406 0.34679 0.31231 0.0
C552 C 0.09945 0.34674 0.26317 0.0
C553 C 0.06624 0.31747 0.23366 0.0
C554 C 0.02713 0.288 0.25444 0.0
H555 H 0.69211 0.74939 0.90024 0.0
H556 H 0.76874 0.70968 0.82223 0.0
H557 H 0.79656 0.69942 0.89778 0.0
H558 H 0.77164 0.80689 0.99495 0.0
H559 H 0.73127 0.79095 0.03977 0.0
H560 H 0.72001 0.79838 0.97931 0.0
H561 H 0.65583 0.72234 0.97836 0.0
H562 H 0.66701 0.71455 0.03855 0.0
H563 H 0.66372 0.67873 0.99268 0.0
H564 H 0.80941 0.68543 0.98172 0.0
H565 H 0.80834 0.67145 0.06705 0.0
H566 H 0.7293 0.72735 0.09069 0.0
C567 C 0.716 0.7403 0.89852 0.0
C568 C 0.7288 0.73132 0.85478 0.0
C569 C 0.7585 0.71704 0.85512 0.0
C570 C 0.7747 0.71128 0.89789 0.0
C571 C 0.7613 0.72032 0.94025 0.0
C572 C 0.73298 0.73497 0.94089 0.0
C573 C 0.72207 0.74033 0.99133 0.0
C574 C 0.73716 0.78691 0.00196 0.0
C575 C 0.67434 0.71231 1.00076 0.0
C576 C 0.74767 0.72516 0.01884 0.0
C577 C 0.77019 0.7139 0.98877 0.0
C578 C 0.79309 0.69549 0.00579 0.0
C579 C 0.79278 0.68819 0.05479 0.0
C580 C 0.77024 0.69987 0.08647 0.0
C581 C 0.74775 0.71892 0.06783 0.0
H582 H 0.32027 0.08799 0.72951 0.0
H583 H 0.23243 0.97208 0.80182 0.0
H584 H 0.2023 0.93867 0.72489 0.0
H585 H 0.2457 0.07761 0.62986 0.0
H586 H 0.28811 0.09907 0.58712 0.0
H587 H 0.2985 0.11625 0.64813 0.0
H588 H 0.35672 0.09556 0.65212 0.0
H589 H 0.34629 0.07796 0.59146 0.0
H590 H 0.34349 0.04239 0.63748 0.0
H591 H 0.19179 0.91385 0.64219 0.0
H592 H 0.19678 0.9004 0.55862 0.0
H593 H 0.28502 0.03371 0.53606 0.0
C594 C 0.29346 0.05629 0.72932 0.0
C595 C 0.27827 0.03288 0.77184 0.0
C596 C 0.24444 0.99069 0.76974 0.0
C597 C 0.22697 0.97144 0.7262 0.0
C598 C 0.24335 0.99488 0.68488 0.0
C599 C 0.27537 0.03657 0.68591 0.0
C600 C 0.28953 0.05324 0.63593 0.0
C601 C 0.27987 0.08864 0.62459 0.0
C602 C 0.3368 0.06815 0.62886 0.0
C603 C 0.26168 0.01391 0.607 0.0
C604 C 0.23521 0.98075 0.63606 0.0
C605 C 0.2107 0.93997 0.61863 0.0
C606 C 0.2132 0.93274 0.57025 0.0
C607 C 0.23914 0.9663 0.53908 0.0
C608 C 0.26349 0.0075 0.55818 0.0
loop_
_geom_bond_atom_site_label_1
_geom_bond_atom_site_label_2
_geom_bond_distance
_geom_bond_site_symmetry_2
_ccdc_geom_bond_type
Co0 O3 1.970 . S
Co0 N17 1.989 1_556 S
Co0 O25 1.967 . S
Co0 O32 1.920 . S
Co1 O4 1.966 . S
Co1 N10 2.022 . S
Co1 N18 1.993 . S
Co1 O26 1.941 1_554 S
C2 O3 1.258 1_554 S
C2 O4 1.263 . S
O3 Co0 1.970 . S
O3 C2 1.258 1_556 S
O4 Co1 1.966 . S
O4 C2 1.263 . S
C5 O6 1.235 . S
C5 O32 1.289 . S
O6 C5 1.235 . S
C7 C9 1.400 . S
C7 N10 1.351 . S
C7 C12 1.501 . S
C8 C9 1.387 . S
C8 N11 1.341 . S
C9 C7 1.400 . S
C9 C8 1.387 . S
N10 Co1 2.022 . S
N10 C7 1.351 . S
N10 N11 1.365 . S
N11 C8 1.341 . S
N11 N10 1.365 . S
N11 H31 0.862 . S
C12 C7 1.501 . S
C12 H13 0.961 . S
C12 H14 0.961 . S
C12 H15 0.960 . S
H13 C12 0.961 . S
H14 C12 0.961 . S
H15 C12 0.960 . S
C16 N17 1.342 . S
C16 C20 1.401 . S
C16 C21 1.499 . S
N17 Co0 1.989 1_554 S
N17 C16 1.342 . S
N17 N18 1.388 . S
N18 Co1 1.993 . S
N18 N17 1.388 . S
N18 C19 1.346 . S
C19 N18 1.346 . S
C19 C20 1.396 . S
C19 C29 1.510 . S
C20 C16 1.401 . S
C20 C19 1.396 . S
C21 C16 1.499 . S
C21 H22 0.959 1_554 S
C21 H23 0.960 . S
C21 H24 0.961 1_554 S
H22 C21 0.959 1_556 S
H23 C21 0.960 . S
H24 C21 0.961 1_556 S
O25 Co0 1.967 . S
O25 C33 1.258 . S
O26 Co1 1.941 1_556 S
O26 C33 1.266 . S
H27 C29 0.959 . S
H28 C29 0.961 . S
C29 C19 1.510 . S
C29 H27 0.959 . S
C29 H28 0.961 . S
C29 H30 0.960 . S
H30 C29 0.960 . S
H31 N11 0.862 . S
O32 Co0 1.920 . S
O32 C5 1.289 . S
C33 O25 1.258 . S
C33 O26 1.266 . S
Co34 O37 1.970 . S
Co34 N51 1.989 . S
Co34 O59 1.967 . S
Co34 O66 1.920 . S
Co35 O38 1.966 . S
Co35 N44 2.022 . S
Co35 N52 1.993 . S
Co35 O60 1.941 . S
C36 O37 1.258 . S
C36 O38 1.263 . S
O37 Co34 1.970 . S
O37 C36 1.258 . S
O38 Co35 1.966 . S
O38 C36 1.263 . S
C39 O40 1.235 . S
C39 O66 1.289 . S
O40 C39 1.235 . S
C41 C43 1.400 . S
C41 N44 1.351 . S
C41 C46 1.501 . S
C42 C43 1.387 . S
C42 N45 1.341 . S
C43 C41 1.400 . S
C43 C42 1.387 . S
N44 Co35 2.022 . S
N44 C41 1.351 . S
N44 N45 1.365 . S
N45 C42 1.341 . S
N45 N44 1.365 . S
N45 H65 0.862 . S
C46 C41 1.501 . S
C46 H47 0.961 . S
C46 H48 0.961 . S
C46 H49 0.960 . S
H47 C46 0.961 . S
H48 C46 0.961 . S
H49 C46 0.960 . S
C50 N51 1.342 . S
C50 C54 1.401 . S
C50 C55 1.499 . S
N51 Co34 1.989 . S
N51 C50 1.342 . S
N51 N52 1.388 . S
N52 Co35 1.993 . S
N52 N51 1.388 . S
N52 C53 1.346 . S
C53 N52 1.346 . S
C53 C54 1.396 . S
C53 C63 1.510 . S
C54 C50 1.401 . S
C54 C53 1.396 . S
C55 C50 1.499 . S
C55 H56 0.959 . S
C55 H57 0.960 . S
C55 H58 0.961 . S
H56 C55 0.959 . S
H57 C55 0.960 . S
H58 C55 0.961 . S
O59 Co34 1.967 . S
O59 C67 1.258 . S
O60 Co35 1.941 . S
O60 C67 1.266 . S
H61 C63 0.959 . S
H62 C63 0.961 . S
C63 C53 1.510 . S
C63 H61 0.959 . S
C63 H62 0.961 . S
C63 H64 0.960 . S
H64 C63 0.960 . S
H65 N45 0.862 . S
O66 Co34 1.920 . S
O66 C39 1.289 . S
C67 O59 1.258 . S
C67 O60 1.266 . S
Co68 O71 1.970 . S
Co68 N85 1.989 . S
Co68 O93 1.967 . S
Co68 O100 1.920 . S
Co69 O72 1.966 . S
Co69 N78 2.022 . S
Co69 N86 1.993 . S
Co69 O94 1.941 . S
C70 O71 1.258 . S
C70 O72 1.263 . S
O71 Co68 1.970 . S
O71 C70 1.258 . S
O72 Co69 1.966 . S
O72 C70 1.263 . S
C73 O74 1.235 . S
C73 O100 1.289 . S
O74 C73 1.235 . S
C75 C77 1.400 . S
C75 N78 1.351 . S
C75 C80 1.501 . S
C76 C77 1.387 . S
C76 N79 1.341 . S
C77 C75 1.400 . S
C77 C76 1.387 . S
N78 Co69 2.022 . S
N78 C75 1.351 . S
N78 N79 1.365 . S
N79 C76 1.341 . S
N79 N78 1.365 . S
N79 H99 0.862 . S
C80 C75 1.501 . S
C80 H81 0.961 . S
C80 H82 0.961 . S
C80 H83 0.960 . S
H81 C80 0.961 . S
H82 C80 0.961 . S
H83 C80 0.960 . S
C84 N85 1.342 . S
C84 C88 1.401 . S
C84 C89 1.499 . S
N85 Co68 1.989 . S
N85 C84 1.342 . S
N85 N86 1.388 . S
N86 Co69 1.993 . S
N86 N85 1.388 . S
N86 C87 1.346 . S
C87 N86 1.346 . S
C87 C88 1.396 . S
C87 C97 1.510 . S
C88 C84 1.401 . S
C88 C87 1.396 . S
C89 C84 1.499 . S
C89 H90 0.959 . S
C89 H91 0.960 . S
C89 H92 0.961 . S
H90 C89 0.959 . S
H91 C89 0.960 . S
H92 C89 0.961 . S
O93 Co68 1.967 . S
O93 C101 1.258 . S
O94 Co69 1.941 . S
O94 C101 1.266 . S
H95 C97 0.959 . S
H96 C97 0.961 . S
C97 C87 1.510 . S
C97 H95 0.959 . S
C97 H96 0.961 . S
C97 H98 0.960 . S
H98 C97 0.960 . S
H99 N79 0.862 . S
O100 Co68 1.920 . S
O100 C73 1.289 . S
C101 O93 1.258 . S
C101 O94 1.266 . S
Co102 O105 1.970 . S
Co102 N119 1.989 1_554 S
Co102 O127 1.967 . S
Co102 O134 1.920 . S
Co103 O106 1.966 . S
Co103 N112 2.022 . S
Co103 N120 1.993 . S
Co103 O128 1.941 1_556 S
C104 O105 1.258 1_556 S
C104 O106 1.263 . S
O105 Co102 1.970 . S
O105 C104 1.258 1_554 S
O106 Co103 1.966 . S
O106 C104 1.263 . S
C107 O108 1.235 . S
C107 O134 1.289 . S
O108 C107 1.235 . S
C109 C111 1.400 . S
C109 N112 1.351 . S
C109 C114 1.501 . S
C110 C111 1.387 . S
C110 N113 1.341 . S
C111 C109 1.400 . S
C111 C110 1.387 . S
N112 Co103 2.022 . S
N112 C109 1.351 . S
N112 N113 1.365 . S
N113 C110 1.341 . S
N113 N112 1.365 . S
N113 H133 0.862 . S
C114 C109 1.501 . S
C114 H115 0.961 . S
C114 H116 0.961 . S
C114 H117 0.960 . S
H115 C114 0.961 . S
H116 C114 0.961 . S
H117 C114 0.960 . S
C118 N119 1.342 . S
C118 C122 1.401 . S
C118 C123 1.499 . S
N119 Co102 1.989 1_556 S
N119 C118 1.342 . S
N119 N120 1.388 . S
N120 Co103 1.993 . S
N120 N119 1.388 . S
N120 C121 1.346 . S
C121 N120 1.346 . S
C121 C122 1.396 . S
C121 C131 1.510 . S
C122 C118 1.401 . S
C122 C121 1.396 . S
C123 C118 1.499 . S
C123 H124 0.959 1_556 S
C123 H125 0.960 . S
C123 H126 0.961 1_556 S
H124 C123 0.959 1_554 S
H125 C123 0.960 . S
H126 C123 0.961 1_554 S
O127 Co102 1.967 . S
O127 C135 1.258 . S
O128 Co103 1.941 1_554 S
O128 C135 1.266 . S
H129 C131 0.959 . S
H130 C131 0.961 . S
C131 C121 1.510 . S
C131 H129 0.959 . S
C131 H130 0.961 . S
C131 H132 0.960 . S
H132 C131 0.960 . S
H133 N113 0.862 . S
O134 Co102 1.920 . S
O134 C107 1.289 . S
C135 O127 1.258 . S
C135 O128 1.266 . S
Co136 O139 1.970 . S
Co136 N153 1.989 . S
Co136 O161 1.967 . S
Co136 O168 1.920 . S
Co137 O140 1.966 . S
Co137 N146 2.022 . S
Co137 N154 1.993 . S
Co137 O162 1.941 . S
C138 O139 1.258 . S
C138 O140 1.263 . S
O139 Co136 1.970 . S
O139 C138 1.258 . S
O140 Co137 1.966 . S
O140 C138 1.263 . S
C141 O142 1.235 . S
C141 O168 1.289 . S
O142 C141 1.235 . S
C143 C145 1.400 . S
C143 N146 1.351 . S
C143 C148 1.501 . S
C144 C145 1.387 . S
C144 N147 1.341 . S
C145 C143 1.400 . S
C145 C144 1.387 . S
N146 Co137 2.022 . S
N146 C143 1.351 . S
N146 N147 1.365 . S
N147 C144 1.341 . S
N147 N146 1.365 . S
N147 H167 0.862 . S
C148 C143 1.501 . S
C148 H149 0.961 . S
C148 H150 0.961 . S
C148 H151 0.960 . S
H149 C148 0.961 . S
H150 C148 0.961 . S
H151 C148 0.960 . S
C152 N153 1.342 . S
C152 C156 1.401 . S
C152 C157 1.499 . S
N153 Co136 1.989 . S
N153 C152 1.342 . S
N153 N154 1.388 . S
N154 Co137 1.993 . S
N154 N153 1.388 . S
N154 C155 1.346 . S
C155 N154 1.346 . S
C155 C156 1.396 . S
C155 C165 1.510 . S
C156 C152 1.401 . S
C156 C155 1.396 . S
C157 C152 1.499 . S
C157 H158 0.959 . S
C157 H159 0.960 . S
C157 H160 0.961 . S
H158 C157 0.959 . S
H159 C157 0.960 . S
H160 C157 0.961 . S
O161 Co136 1.967 . S
O161 C169 1.258 . S
O162 Co137 1.941 . S
O162 C169 1.266 . S
H163 C165 0.959 . S
H164 C165 0.961 . S
C165 C155 1.510 . S
C165 H163 0.959 . S
C165 H164 0.961 . S
C165 H166 0.960 . S
H166 C165 0.960 . S
H167 N147 0.862 . S
O168 Co136 1.920 . S
O168 C141 1.289 . S
C169 O161 1.258 . S
C169 O162 1.266 . S
Co170 O173 1.970 . S
Co170 N187 1.989 . S
Co170 O195 1.967 . S
Co170 O202 1.920 . S
Co171 O174 1.966 . S
Co171 N180 2.022 . S
Co171 N188 1.993 . S
Co171 O196 1.941 . S
C172 O173 1.258 . S
C172 O174 1.263 . S
O173 Co170 1.970 . S
O173 C172 1.258 . S
O174 Co171 1.966 . S
O174 C172 1.263 . S
C175 O176 1.235 . S
C175 O202 1.289 . S
O176 C175 1.235 . S
C177 C179 1.400 . S
C177 N180 1.351 . S
C177 C182 1.501 . S
C178 C179 1.387 . S
C178 N181 1.341 . S
C179 C177 1.400 . S
C179 C178 1.387 . S
N180 Co171 2.022 . S
N180 C177 1.351 . S
N180 N181 1.365 . S
N181 C178 1.341 . S
N181 N180 1.365 . S
N181 H201 0.862 . S
C182 C177 1.501 . S
C182 H183 0.961 . S
C182 H184 0.961 . S
C182 H185 0.960 . S
H183 C182 0.961 . S
H184 C182 0.961 . S
H185 C182 0.960 . S
C186 N187 1.342 . S
C186 C190 1.401 . S
C186 C191 1.499 . S
N187 Co170 1.989 . S
N187 C186 1.342 . S
N187 N188 1.388 . S
N188 Co171 1.993 . S
N188 N187 1.388 . S
N188 C189 1.346 . S
C189 N188 1.346 . S
C189 C190 1.396 . S
C189 C199 1.510 . S
C190 C186 1.401 . S
C190 C189 1.396 . S
C191 C186 1.499 . S
C191 H192 0.959 . S
C191 H193 0.960 . S
C191 H194 0.961 . S
H192 C191 0.959 . S
H193 C191 0.960 . S
H194 C191 0.961 . S
O195 Co170 1.967 . S
O195 C203 1.258 . S
O196 Co171 1.941 . S
O196 C203 1.266 . S
H197 C199 0.959 . S
H198 C199 0.961 . S
C199 C189 1.510 . S
C199 H197 0.959 . S
C199 H198 0.961 . S
C199 H200 0.960 . S
H200 C199 0.960 . S
H201 N181 0.862 . S
O202 Co170 1.920 . S
O202 C175 1.289 . S
C203 O195 1.258 . S
C203 O196 1.266 . S
H204 C216 0.930 . S
H205 C218 0.930 . S
H206 C219 0.930 . S
H207 C223 0.959 . S
H208 C223 0.959 . S
H209 C223 0.961 . S
H210 C224 0.960 . S
H211 C224 0.961 . S
H212 C224 0.959 . S
H213 C227 0.929 . S
H214 C228 0.931 . S
H215 C230 0.930 . S
C216 H204 0.930 . S
C216 C217 1.399 . S
C216 C221 1.399 . S
C217 C216 1.399 . S
C217 C218 1.376 . S
C218 H205 0.930 . S
C218 C217 1.376 . S
C218 C219 1.388 . S
C219 H206 0.930 . S
C219 C218 1.388 . S
C219 C220 1.390 . S
C220 C219 1.390 . S
C220 C221 1.394 . S
C220 C226 1.465 . S
C221 C216 1.399 . S
C221 C220 1.394 . S
C221 C222 1.516 . S
C222 C221 1.516 . S
C222 C223 1.502 . S
C222 C224 1.561 . S
C222 C225 1.526 . S
C223 H207 0.959 . S
C223 H208 0.959 . S
C223 H209 0.961 . S
C223 C222 1.502 . S
C224 H210 0.960 . S
C224 H211 0.961 . S
C224 H212 0.959 . S
C224 C222 1.561 . S
C225 C222 1.526 . S
C225 C226 1.396 . S
C225 C230 1.390 . S
C226 C220 1.465 . S
C226 C225 1.396 . S
C226 C227 1.399 . S
C227 H213 0.929 . S
C227 C226 1.399 . S
C227 C228 1.385 . S
C228 H214 0.931 . S
C228 C227 1.385 . S
C228 C229 1.389 . S
C229 C228 1.389 . S
C229 C230 1.387 . S
C230 H215 0.930 . S
C230 C225 1.390 . S
C230 C229 1.387 . S
H231 C243 0.930 . S
H232 C245 0.930 . S
H233 C246 0.930 . S
H234 C250 0.959 . S
H235 C250 0.959 . S
H236 C250 0.961 . S
H237 C251 0.960 . S
H238 C251 0.961 . S
H239 C251 0.959 . S
H240 C254 0.929 . S
H241 C255 0.931 . S
H242 C257 0.930 . S
C243 H231 0.930 . S
C243 C244 1.399 . S
C243 C248 1.399 . S
C244 C243 1.399 . S
C244 C245 1.376 . S
C245 H232 0.930 . S
C245 C244 1.376 . S
C245 C246 1.388 . S
C246 H233 0.930 . S
C246 C245 1.388 . S
C246 C247 1.390 . S
C247 C246 1.390 . S
C247 C248 1.394 . S
C247 C253 1.465 . S
C248 C243 1.399 . S
C248 C247 1.394 . S
C248 C249 1.516 . S
C249 C248 1.516 . S
C249 C250 1.502 . S
C249 C251 1.561 . S
C249 C252 1.526 . S
C250 H234 0.959 . S
C250 H235 0.959 . S
C250 H236 0.961 . S
C250 C249 1.502 . S
C251 H237 0.960 . S
C251 H238 0.961 . S
C251 H239 0.959 . S
C251 C249 1.561 . S
C252 C249 1.526 . S
C252 C253 1.396 . S
C252 C257 1.390 . S
C253 C247 1.465 . S
C253 C252 1.396 . S
C253 C254 1.399 . S
C254 H240 0.929 . S
C254 C253 1.399 . S
C254 C255 1.385 . S
C255 H241 0.931 . S
C255 C254 1.385 . S
C255 C256 1.389 . S
C256 C255 1.389 . S
C256 C257 1.387 . S
C257 H242 0.930 . S
C257 C252 1.390 . S
C257 C256 1.387 . S
H258 C270 0.930 . S
H259 C272 0.930 . S
H260 C273 0.930 . S
H261 C277 0.959 . S
H262 C277 0.959 . S
H263 C277 0.961 . S
H264 C278 0.960 . S
H265 C278 0.961 . S
H266 C278 0.959 . S
H267 C281 0.929 . S
H268 C282 0.931 . S
H269 C284 0.930 . S
C270 H258 0.930 . S
C270 C271 1.399 . S
C270 C275 1.399 . S
C271 C270 1.399 . S
C271 C272 1.376 . S
C272 H259 0.930 . S
C272 C271 1.376 . S
C272 C273 1.388 . S
C273 H260 0.930 . S
C273 C272 1.388 . S
C273 C274 1.390 . S
C274 C273 1.390 . S
C274 C275 1.394 . S
C274 C280 1.465 . S
C275 C270 1.399 . S
C275 C274 1.394 . S
C275 C276 1.516 . S
C276 C275 1.516 . S
C276 C277 1.502 . S
C276 C278 1.561 . S
C276 C279 1.526 . S
C277 H261 0.959 . S
C277 H262 0.959 . S
C277 H263 0.961 . S
C277 C276 1.502 . S
C278 H264 0.960 . S
C278 H265 0.961 . S
C278 H266 0.959 . S
C278 C276 1.561 . S
C279 C276 1.526 . S
C279 C280 1.396 . S
C279 C284 1.390 . S
C280 C274 1.465 . S
C280 C279 1.396 . S
C280 C281 1.399 . S
C281 H267 0.929 . S
C281 C280 1.399 . S
C281 C282 1.385 . S
C282 H268 0.931 . S
C282 C281 1.385 . S
C282 C283 1.389 . S
C283 C282 1.389 . S
C283 C284 1.387 . S
C284 H269 0.930 . S
C284 C279 1.390 . S
C284 C283 1.387 . S
H285 C297 0.930 . S
H286 C299 0.930 . S
H287 C300 0.930 . S
H288 C304 0.959 . S
H289 C304 0.959 . S
H290 C304 0.961 . S
H291 C305 0.960 . S
H292 C305 0.961 . S
H293 C305 0.959 . S
H294 C308 0.929 . S
H295 C309 0.931 . S
H296 C311 0.930 . S
C297 H285 0.930 . S
C297 C298 1.399 . S
C297 C302 1.399 . S
C298 C297 1.399 . S
C298 C299 1.376 . S
C299 H286 0.930 . S
C299 C298 1.376 . S
C299 C300 1.388 . S
C300 H287 0.930 . S
C300 C299 1.388 . S
C300 C301 1.390 . S
C301 C300 1.390 . S
C301 C302 1.394 . S
C301 C307 1.465 . S
C302 C297 1.399 . S
C302 C301 1.394 . S
C302 C303 1.516 . S
C303 C302 1.516 . S
C303 C304 1.502 . S
C303 C305 1.561 . S
C303 C306 1.526 . S
C304 H288 0.959 . S
C304 H289 0.959 . S
C304 H290 0.961 . S
C304 C303 1.502 . S
C305 H291 0.960 . S
C305 H292 0.961 . S
C305 H293 0.959 . S
C305 C303 1.561 . S
C306 C303 1.526 . S
C306 C307 1.396 . S
C306 C311 1.390 . S
C307 C301 1.465 . S
C307 C306 1.396 . S
C307 C308 1.399 . S
C308 H294 0.929 . S
C308 C307 1.399 . S
C308 C309 1.385 . S
C309 H295 0.931 . S
C309 C308 1.385 . S
C309 C310 1.389 . S
C310 C309 1.389 . S
C310 C311 1.387 . S
C311 H296 0.930 . S
C311 C306 1.390 . S
C311 C310 1.387 . S
H312 C324 0.930 . S
H313 C326 0.930 . S
H314 C327 0.930 . S
H315 C331 0.959 . S
H316 C331 0.959 . S
H317 C331 0.961 . S
H318 C332 0.960 . S
H319 C332 0.961 . S
H320 C332 0.959 . S
H321 C335 0.929 . S
H322 C336 0.931 . S
H323 C338 0.930 . S
C324 H312 0.930 . S
C324 C325 1.399 . S
C324 C329 1.399 . S
C325 C324 1.399 . S
C325 C326 1.376 . S
C326 H313 0.930 . S
C326 C325 1.376 . S
C326 C327 1.388 . S
C327 H314 0.930 . S
C327 C326 1.388 . S
C327 C328 1.390 . S
C328 C327 1.390 . S
C328 C329 1.394 . S
C328 C334 1.465 . S
C329 C324 1.399 . S
C329 C328 1.394 . S
C329 C330 1.516 . S
C330 C329 1.516 . S
C330 C331 1.502 . S
C330 C332 1.561 . S
C330 C333 1.526 . S
C331 H315 0.959 . S
C331 H316 0.959 . S
C331 H317 0.961 . S
C331 C330 1.502 . S
C332 H318 0.960 . S
C332 H319 0.961 . S
C332 H320 0.959 . S
C332 C330 1.561 . S
C333 C330 1.526 . S
C333 C334 1.396 . S
C333 C338 1.390 . S
C334 C328 1.465 . S
C334 C333 1.396 . S
C334 C335 1.399 . S
C335 H321 0.929 . S
C335 C334 1.399 . S
C335 C336 1.385 . S
C336 H322 0.931 . S
C336 C335 1.385 . S
C336 C337 1.389 . S
C337 C336 1.389 . S
C337 C338 1.387 . S
C338 H323 0.930 . S
C338 C333 1.390 . S
C338 C337 1.387 . S
H339 C351 0.930 . S
H340 C353 0.930 . S
H341 C354 0.930 . S
H342 C358 0.959 . S
H343 C358 0.959 . S
H344 C358 0.961 . S
H345 C359 0.960 . S
H346 C359 0.961 . S
H347 C359 0.959 . S
H348 C362 0.929 . S
H349 C363 0.931 . S
H350 C365 0.930 . S
C351 H339 0.930 . S
C351 C352 1.399 . S
C351 C356 1.399 . S
C352 C351 1.399 . S
C352 C353 1.376 . S
C353 H340 0.930 . S
C353 C352 1.376 . S
C353 C354 1.388 . S
C354 H341 0.930 . S
C354 C353 1.388 . S
C354 C355 1.390 . S
C355 C354 1.390 . S
C355 C356 1.394 . S
C355 C361 1.465 . S
C356 C351 1.399 . S
C356 C355 1.394 . S
C356 C357 1.516 . S
C357 C356 1.516 . S
C357 C358 1.502 . S
C357 C359 1.561 . S
C357 C360 1.526 . S
C358 H342 0.959 . S
C358 H343 0.959 . S
C358 H344 0.961 . S
C358 C357 1.502 . S
C359 H345 0.960 . S
C359 H346 0.961 . S
C359 H347 0.959 . S
C359 C357 1.561 . S
C360 C357 1.526 . S
C360 C361 1.396 . S
C360 C365 1.390 . S
C361 C355 1.465 . S
C361 C360 1.396 . S
C361 C362 1.399 . S
C362 H348 0.929 . S
C362 C361 1.399 . S
C362 C363 1.385 . S
C363 H349 0.931 . S
C363 C362 1.385 . S
C363 C364 1.389 . S
C364 C363 1.389 . S
C364 C365 1.387 . S
C365 H350 0.930 . S
C365 C360 1.390 . S
C365 C364 1.387 . S
H366 C378 0.930 . S
H367 C380 0.930 . S
H368 C381 0.930 . S
H369 C385 0.959 . S
H370 C385 0.959 . S
H371 C385 0.961 . S
H372 C386 0.960 . S
H373 C386 0.961 . S
H374 C386 0.959 . S
H375 C389 0.929 . S
H376 C390 0.931 . S
H377 C392 0.930 . S
C378 H366 0.930 . S
C378 C379 1.399 . S
C378 C383 1.399 . S
C379 C378 1.399 . S
C379 C380 1.376 . S
C380 H367 0.930 . S
C380 C379 1.376 . S
C380 C381 1.388 1_655 S
C381 H368 0.930 . S
C381 C380 1.388 1_455 S
C381 C382 1.390 . S
C382 C381 1.390 . S
C382 C383 1.394 1_455 S
C382 C388 1.465 . S
C383 C378 1.399 . S
C383 C382 1.394 1_655 S
C383 C384 1.516 . S
C384 C383 1.516 . S
C384 C385 1.502 . S
C384 C386 1.561 . S
C384 C387 1.526 1_655 S
C385 H369 0.959 . S
C385 H370 0.959 . S
C385 H371 0.961 . S
C385 C384 1.502 . S
C386 H372 0.960 . S
C386 H373 0.961 . S
C386 H374 0.959 . S
C386 C384 1.561 . S
C387 C384 1.526 1_455 S
C387 C388 1.396 . S
C387 C392 1.390 . S
C388 C382 1.465 . S
C388 C387 1.396 . S
C388 C389 1.399 . S
C389 H375 0.929 . S
C389 C388 1.399 . S
C389 C390 1.385 . S
C390 H376 0.931 . S
C390 C389 1.385 . S
C390 C391 1.389 . S
C391 C390 1.389 . S
C391 C392 1.387 . S
C392 H377 0.930 . S
C392 C387 1.390 . S
C392 C391 1.387 . S
H393 C405 0.930 . S
H394 C407 0.930 . S
H395 C408 0.930 . S
H396 C412 0.959 . S
H397 C412 0.959 . S
H398 C412 0.961 . S
H399 C413 0.960 . S
H400 C413 0.961 . S
H401 C413 0.959 . S
H402 C416 0.929 . S
H403 C417 0.931 . S
H404 C419 0.930 . S
C405 H393 0.930 . S
C405 C406 1.399 . S
C405 C410 1.399 . S
C406 C405 1.399 . S
C406 C407 1.376 . S
C407 H394 0.930 . S
C407 C406 1.376 . S
C407 C408 1.388 . S
C408 H395 0.930 . S
C408 C407 1.388 . S
C408 C409 1.390 . S
C409 C408 1.390 . S
C409 C410 1.394 . S
C409 C415 1.465 . S
C410 C405 1.399 . S
C410 C409 1.394 . S
C410 C411 1.516 . S
C411 C410 1.516 . S
C411 C412 1.502 . S
C411 C413 1.561 . S
C411 C414 1.526 . S
C412 H396 0.959 . S
C412 H397 0.959 . S
C412 H398 0.961 . S
C412 C411 1.502 . S
C413 H399 0.960 . S
C413 H400 0.961 . S
C413 H401 0.959 . S
C413 C411 1.561 . S
C414 C411 1.526 . S
C414 C415 1.396 . S
C414 C419 1.390 . S
C415 C409 1.465 . S
C415 C414 1.396 . S
C415 C416 1.399 . S
C416 H402 0.929 . S
C416 C415 1.399 . S
C416 C417 1.385 . S
C417 H403 0.931 . S
C417 C416 1.385 . S
C417 C418 1.389 . S
C418 C417 1.389 . S
C418 C419 1.387 . S
C419 H404 0.930 . S
C419 C414 1.390 . S
C419 C418 1.387 . S
H420 C432 0.930 . S
H421 C434 0.930 . S
H422 C435 0.930 . S
H423 C439 0.959 . S
H424 C439 0.959 . S
H425 C439 0.961 1_545 S
H426 C440 0.960 . S
H427 C440 0.961 . S
H428 C440 0.959 . S
H429 C443 0.929 . S
H430 C444 0.931 . S
H431 C446 0.930 . S
C432 H420 0.930 . S
C432 C433 1.399 . S
C432 C437 1.399 . S
C433 C432 1.399 . S
C433 C434 1.376 . S
C434 H421 0.930 . S
C434 C433 1.376 . S
C434 C435 1.388 . S
C435 H422 0.930 . S
C435 C434 1.388 . S
C435 C436 1.390 . S
C436 C435 1.390 . S
C436 C437 1.394 . S
C436 C442 1.465 1_545 S
C437 C432 1.399 . S
C437 C436 1.394 . S
C437 C438 1.516 . S
C438 C437 1.516 . S
C438 C439 1.502 1_545 S
C438 C440 1.561 . S
C438 C441 1.526 1_545 S
C439 H423 0.959 . S
C439 H424 0.959 . S
C439 H425 0.961 1_565 S
C439 C438 1.502 1_565 S
C440 H426 0.960 . S
C440 H427 0.961 . S
C440 H428 0.959 . S
C440 C438 1.561 . S
C441 C438 1.526 1_565 S
C441 C442 1.396 . S
C441 C446 1.390 . S
C442 C436 1.465 1_565 S
C442 C441 1.396 . S
C442 C443 1.399 . S
C443 H429 0.929 . S
C443 C442 1.399 . S
C443 C444 1.385 . S
C444 H430 0.931 . S
C444 C443 1.385 . S
C444 C445 1.389 . S
C445 C444 1.389 . S
C445 C446 1.387 . S
C446 H431 0.930 . S
C446 C441 1.390 . S
C446 C445 1.387 . S
H447 C459 0.930 . S
H448 C461 0.930 . S
H449 C462 0.930 . S
H450 C466 0.959 . S
H451 C466 0.959 . S
H452 C466 0.961 . S
H453 C467 0.960 . S
H454 C467 0.961 . S
H455 C467 0.959 . S
H456 C470 0.929 . S
H457 C471 0.931 . S
H458 C473 0.930 . S
C459 H447 0.930 . S
C459 C460 1.399 . S
C459 C464 1.399 . S
C460 C459 1.399 . S
C460 C461 1.376 1_556 S
C461 H448 0.930 . S
C461 C460 1.376 1_554 S
C461 C462 1.388 . S
C462 H449 0.930 . S
C462 C461 1.388 . S
C462 C463 1.390 . S
C463 C462 1.390 . S
C463 C464 1.394 1_554 S
C463 C469 1.465 . S
C464 C459 1.399 . S
C464 C463 1.394 1_556 S
C464 C465 1.516 . S
C465 C464 1.516 . S
C465 C466 1.502 . S
C465 C467 1.561 . S
C465 C468 1.526 . S
C466 H450 0.959 . S
C466 H451 0.959 . S
C466 H452 0.961 . S
C466 C465 1.502 . S
C467 H453 0.960 . S
C467 H454 0.961 . S
C467 H455 0.959 . S
C467 C465 1.561 . S
C468 C465 1.526 . S
C468 C469 1.396 1_556 S
C468 C473 1.390 . S
C469 C463 1.465 . S
C469 C468 1.396 1_554 S
C469 C470 1.399 . S
C470 H456 0.929 . S
C470 C469 1.399 . S
C470 C471 1.385 . S
C471 H457 0.931 . S
C471 C470 1.385 . S
C471 C472 1.389 . S
C472 C471 1.389 . S
C472 C473 1.387 1_554 S
C473 H458 0.930 . S
C473 C468 1.390 . S
C473 C472 1.387 1_556 S
H474 C486 0.930 . S
H475 C488 0.930 . S
H476 C489 0.930 . S
H477 C493 0.959 . S
H478 C493 0.959 1_565 S
H479 C493 0.961 . S
H480 C494 0.960 . S
H481 C494 0.961 1_565 S
H482 C494 0.959 1_565 S
H483 C497 0.929 . S
H484 C498 0.931 . S
H485 C500 0.930 . S
C486 H474 0.930 . S
C486 C487 1.399 . S
C486 C491 1.399 . S
C487 C486 1.399 . S
C487 C488 1.376 . S
C488 H475 0.930 . S
C488 C487 1.376 . S
C488 C489 1.388 . S
C489 H476 0.930 . S
C489 C488 1.388 . S
C489 C490 1.390 . S
C490 C489 1.390 . S
C490 C491 1.394 . S
C490 C496 1.465 1_545 S
C491 C486 1.399 . S
C491 C490 1.394 . S
C491 C492 1.516 . S
C492 C491 1.516 . S
C492 C493 1.502 . S
C492 C494 1.561 . S
C492 C495 1.526 1_545 S
C493 H477 0.959 . S
C493 H478 0.959 1_545 S
C493 H479 0.961 . S
C493 C492 1.502 . S
C494 H480 0.960 . S
C494 H481 0.961 1_545 S
C494 H482 0.959 1_545 S
C494 C492 1.561 . S
C495 C492 1.526 1_565 S
C495 C496 1.396 . S
C495 C500 1.390 . S
C496 C490 1.465 1_565 S
C496 C495 1.396 . S
C496 C497 1.399 . S
C497 H483 0.929 . S
C497 C496 1.399 . S
C497 C498 1.385 . S
C498 H484 0.931 . S
C498 C497 1.385 . S
C498 C499 1.389 . S
C499 C498 1.389 . S
C499 C500 1.387 . S
C500 H485 0.930 . S
C500 C495 1.390 . S
C500 C499 1.387 . S
H501 C513 0.930 . S
H502 C515 0.930 . S
H503 C516 0.930 . S
H504 C520 0.959 . S
H505 C520 0.959 1_655 S
H506 C520 0.961 . S
H507 C521 0.960 . S
H508 C521 0.961 1_655 S
H509 C521 0.959 . S
H510 C524 0.929 . S
H511 C525 0.931 . S
H512 C527 0.930 . S
C513 H501 0.930 . S
C513 C514 1.399 . S
C513 C518 1.399 . S
C514 C513 1.399 . S
C514 C515 1.376 . S
C515 H502 0.930 . S
C515 C514 1.376 . S
C515 C516 1.388 . S
C516 H503 0.930 . S
C516 C515 1.388 . S
C516 C517 1.390 . S
C517 C516 1.390 . S
C517 C518 1.394 . S
C517 C523 1.465 1_455 S
C518 C513 1.399 . S
C518 C517 1.394 . S
C518 C519 1.516 . S
C519 C518 1.516 . S
C519 C520 1.502 . S
C519 C521 1.561 . S
C519 C522 1.526 1_455 S
C520 H504 0.959 . S
C520 H505 0.959 1_455 S
C520 H506 0.961 . S
C520 C519 1.502 . S
C521 H507 0.960 . S
C521 H508 0.961 1_455 S
C521 H509 0.959 . S
C521 C519 1.561 . S
C522 C519 1.526 1_655 S
C522 C523 1.396 . S
C522 C527 1.390 . S
C523 C517 1.465 1_655 S
C523 C522 1.396 . S
C523 C524 1.399 . S
C524 H510 0.929 . S
C524 C523 1.399 . S
C524 C525 1.385 . S
C525 H511 0.931 . S
C525 C524 1.385 . S
C525 C526 1.389 . S
C526 C525 1.389 . S
C526 C527 1.387 . S
C527 H512 0.930 . S
C527 C522 1.390 . S
C527 C526 1.387 . S
H528 C540 0.930 . S
H529 C542 0.929 . S
H530 C543 0.930 . S
H531 C547 0.959 1_455 S
H532 C547 0.959 . S
H533 C547 0.961 . S
H534 C548 0.960 . S
H535 C548 0.961 . S
H536 C548 0.959 . S
H537 C551 0.929 . S
H538 C552 0.931 . S
H539 C554 0.930 . S
C540 H528 0.930 . S
C540 C541 1.399 . S
C540 C545 1.399 . S
C541 C540 1.399 . S
C541 C542 1.376 . S
C542 H529 0.929 . S
C542 C541 1.376 . S
C542 C543 1.388 1_655 S
C543 H530 0.930 . S
C543 C542 1.388 1_455 S
C543 C544 1.390 . S
C544 C543 1.390 . S
C544 C545 1.394 1_455 S
C544 C550 1.465 . S
C545 C540 1.399 . S
C545 C544 1.394 1_655 S
C545 C546 1.516 . S
C546 C545 1.516 . S
C546 C547 1.502 . S
C546 C548 1.561 . S
C546 C549 1.526 1_655 S
C547 H531 0.959 1_655 S
C547 H532 0.959 . S
C547 H533 0.961 . S
C547 C546 1.502 . S
C548 H534 0.960 . S
C548 H535 0.961 . S
C548 H536 0.959 . S
C548 C546 1.561 . S
C549 C546 1.526 1_455 S
C549 C550 1.396 . S
C549 C554 1.390 . S
C550 C544 1.465 . S
C550 C549 1.396 . S
C550 C551 1.399 . S
C551 H537 0.929 . S
C551 C550 1.399 . S
C551 C552 1.385 . S
C552 H538 0.931 . S
C552 C551 1.385 . S
C552 C553 1.389 . S
C553 C552 1.389 . S
C553 C554 1.387 . S
C554 H539 0.930 . S
C554 C549 1.390 . S
C554 C553 1.387 . S
H555 C567 0.930 . S
H556 C569 0.930 . S
H557 C570 0.930 . S
H558 C574 0.959 . S
H559 C574 0.959 1_554 S
H560 C574 0.961 . S
H561 C575 0.960 . S
H562 C575 0.961 . S
H563 C575 0.959 . S
H564 C578 0.929 . S
H565 C579 0.931 . S
H566 C581 0.930 . S
C567 H555 0.930 . S
C567 C568 1.399 . S
C567 C572 1.399 . S
C568 C567 1.399 . S
C568 C569 1.376 . S
C569 H556 0.930 . S
C569 C568 1.376 . S
C569 C570 1.388 . S
C570 H557 0.930 . S
C570 C569 1.388 . S
C570 C571 1.390 . S
C571 C570 1.390 . S
C571 C572 1.394 . S
C571 C577 1.465 1_556 S
C572 C567 1.399 . S
C572 C571 1.394 . S
C572 C573 1.516 1_556 S
C573 C572 1.516 1_554 S
C573 C574 1.502 1_554 S
C573 C575 1.561 . S
C573 C576 1.526 . S
C574 H558 0.959 . S
C574 H559 0.959 1_556 S
C574 H560 0.961 . S
C574 C573 1.502 1_556 S
C575 H561 0.960 . S
C575 H562 0.961 . S
C575 H563 0.959 . S
C575 C573 1.561 . S
C576 C573 1.526 . S
C576 C577 1.396 . S
C576 C581 1.390 . S
C577 C571 1.465 1_554 S
C577 C576 1.396 . S
C577 C578 1.399 . S
C578 H564 0.929 . S
C578 C577 1.399 . S
C578 C579 1.385 . S
C579 H565 0.931 . S
C579 C578 1.385 . S
C579 C580 1.389 . S
C580 C579 1.389 . S
C580 C581 1.387 . S
C581 H566 0.930 . S
C581 C576 1.390 . S
C581 C580 1.387 . S
H582 C594 0.930 . S
H583 C596 0.922 1_565 S
H584 C597 0.930 . S
H585 C601 0.959 . S
H586 C601 0.959 . S
H587 C601 0.961 . S
H588 C602 0.960 . S
H589 C602 0.961 . S
H590 C602 0.959 . S
H591 C605 0.929 . S
H592 C606 0.931 . S
H593 C608 0.948 . S
C594 H582 0.930 . S
C594 C595 1.399 . S
C594 C599 1.399 . S
C595 C594 1.399 . S
C595 C596 1.376 . S
C596 H583 0.922 1_545 S
C596 C595 1.376 . S
C596 C597 1.388 1_545 S
C597 H584 0.930 . S
C597 C596 1.388 1_565 S
C597 C598 1.376 1_565 S
C598 C597 1.376 1_545 S
C598 C599 1.425 . S
C598 C604 1.454 1_545 S
C599 C594 1.399 . S
C599 C598 1.425 . S
C599 C600 1.516 . S
C600 C599 1.516 . S
C600 C601 1.502 . S
C600 C602 1.561 . S
C600 C603 1.526 . S
C601 H585 0.959 . S
C601 H586 0.959 . S
C601 H587 0.961 . S
C601 C600 1.502 . S
C602 H588 0.960 . S
C602 H589 0.961 . S
C602 H590 0.959 . S
C602 C600 1.561 . S
C603 C600 1.526 . S
C603 C604 1.396 1_545 S
C603 C608 1.394 . S
C604 C598 1.454 1_565 S
C604 C603 1.396 1_565 S
C604 C605 1.399 . S
C605 H591 0.929 . S
C605 C604 1.399 . S
C605 C606 1.385 . S
C606 H592 0.931 . S
C606 C605 1.385 . S
C606 C607 1.389 . S
C607 C606 1.389 . S
C607 C608 1.364 1_565 S
C608 H593 0.948 . S
C608 C603 1.394 . S
C608 C607 1.364 1_545 S
C217 C73 1.543 . S
C229 C20 1.583 . S
C244 C54 1.590 . S
C256 C5 1.587 . S
C271 C88 1.595 . S
C283 C39 1.563 . S
C298 C122 1.595 . S
C310 C141 1.564 . S
C325 C175 1.583 . S
C337 C156 1.593 . S
C352 C107 1.572 . S
C364 C190 1.584 . S
C379 C169 1.156 . S
C391 C33 1.180 . S
C406 C203 1.171 . S
C418 C67 1.170 . S
C433 C135 1.172 . S
C445 C101 1.168 . S
C460 C104 1.505 . S
C472 C2 1.516 . S
C487 C138 1.521 . S
C499 C36 1.520 . S
C514 C70 1.490 . S
C526 C172 1.485 . S
C541 C145 1.344 . S
C553 C9 1.376 . S
C568 C43 1.360 . S
C580 C179 1.354 . S
C595 C111 1.341 . S
C607 C77 1.399 . S
