# Generated by pormake.
# Topology vbn, (6)-cn, num edge types: 1
# Building blocks:
#     Node 0, Type 0, BuildingBlock: VOLQOD_clean_sbu_1, # of connection points: 6
#     Node 1, Type 0, BuildingBlock: VOLQOD_clean_sbu_1, # of connection points: 6
#     Node 2, Type 0, BuildingBlock: VOLQOD_clean_sbu_1, # of connection points: 6
#     Node 3, Type 0, BuildingBlock: VOLQOD_clean_sbu_1, # of connection points: 6
#     Node 4, Type 0, BuildingBlock: VOLQOD_clean_sbu_1, # of connection points: 6
#     Node 5, Type 0, BuildingBlock: VOLQOD_clean_sbu_1, # of connection points: 6
#     Node 6, Type 0, BuildingBlock: VOLQOD_clean_sbu_1, # of connection points: 6
#     Node 7, Type 0, BuildingBlock: VOLQOD_clean_sbu_1, # of connection points: 6
#     Edge 8, Type (0, 0), BuildingBlock: TEMPAE_clean_linker_10, # of connection points: 2
#     Edge 9, Type (0, 0), BuildingBlock: TEMPAE_clean_linker_10, # of connection points: 2
#     Edge 10, Type (0, 0), BuildingBlock: TEMPAE_clean_linker_10, # of connection points: 2
#     Edge 11, Type (0, 0), BuildingBlock: TEMPAE_clean_linker_10, # of connection points: 2
#     Edge 12, Type (0, 0), BuildingBlock: TEMPAE_clean_linker_10, # of connection points: 2
#     Edge 13, Type (0, 0), BuildingBlock: TEMPAE_clean_linker_10, # of connection points: 2
#     Edge 14, Type (0, 0), BuildingBlock: TEMPAE_clean_linker_10, # of connection points: 2
#     Edge 15, Type (0, 0), BuildingBlock: TEMPAE_clean_linker_10, # of connection points: 2
#     Edge 16, Type (0, 0), BuildingBlock: TEMPAE_clean_linker_10, # of connection points: 2
#     Edge 17, Type (0, 0), BuildingBlock: TEMPAE_clean_linker_10, # of connection points: 2
#     Edge 18, Type (0, 0), BuildingBlock: TEMPAE_clean_linker_10, # of connection points: 2
#     Edge 19, Type (0, 0), BuildingBlock: TEMPAE_clean_linker_10, # of connection points: 2
#     Edge 20, Type (0, 0), BuildingBlock: TEMPAE_clean_linker_10, # of connection points: 2
#     Edge 21, Type (0, 0), BuildingBlock: TEMPAE_clean_linker_10, # of connection points: 2
#     Edge 22, Type (0, 0), BuildingBlock: TEMPAE_clean_linker_10, # of connection points: 2
#     Edge 23, Type (0, 0), BuildingBlock: TEMPAE_clean_linker_10, # of connection points: 2
#     Edge 24, Type (0, 0), BuildingBlock: TEMPAE_clean_linker_10, # of connection points: 2
#     Edge 25, Type (0, 0), BuildingBlock: TEMPAE_clean_linker_10, # of connection points: 2
#     Edge 26, Type (0, 0), BuildingBlock: TEMPAE_clean_linker_10, # of connection points: 2
#     Edge 27, Type (0, 0), BuildingBlock: TEMPAE_clean_linker_10, # of connection points: 2
#     Edge 28, Type (0, 0), BuildingBlock: TEMPAE_clean_linker_10, # of connection points: 2
#     Edge 29, Type (0, 0), BuildingBlock: TEMPAE_clean_linker_10, # of connection points: 2
#     Edge 30, Type (0, 0), BuildingBlock: TEMPAE_clean_linker_10, # of connection points: 2
#     Edge 31, Type (0, 0), BuildingBlock: TEMPAE_clean_linker_10, # of connection points: 2
# Relax obj value: 0.302
# Max RMSD: 0.245
# Mean RMSD: 0.245
data_MOF--net-vbn--node1-VOLQOD_clean_sbu_1--edge1-TEMPAE_clean_linker_10
_symmetry_space_group_name_H-M    P1
_symmetry_Int_Tables_number       1
_symmetry_cell_setting            triclinic
loop_
_symmetry_equiv_pos_as_xyz
'x, y, z'
_cell_length_a     27.64797
_cell_length_b     29.589971
_cell_length_c     49.910453
_cell_angle_alpha  89.947786
_cell_angle_beta   89.977009
_cell_angle_gamma 90.111939
loop_
_atom_site_label
_atom_site_type_symbol
_atom_site_fract_x
_atom_site_fract_y
_atom_site_fract_z
_atom_type_partial_charge
O0 O 0.38566 0.37471 0.44027 0.0
Zn1 Zn 0.36221 0.3124 0.43249 0.0
O2 O 0.35582 0.30294 0.39425 0.0
Zn3 Zn 0.28954 0.28516 0.38547 0.0
Zn4 Zn 0.37233 0.35887 0.37636 0.0
Zn5 Zn 0.40147 0.25718 0.38249 0.0
O6 O 0.28872 0.22183 0.36906 0.0
O7 O 0.36553 0.20009 0.37361 0.0
O8 O 0.29898 0.3034 0.45206 0.0
O9 O 0.25058 0.28015 0.41924 0.0
O10 O 0.25481 0.33556 0.36442 0.0
O11 O 0.31298 0.38762 0.36323 0.0
O12 O 0.41171 0.34762 0.34385 0.0
O13 O 0.41594 0.2747 0.4474 0.0
O14 O 0.43421 0.27601 0.34805 0.0
O15 O 0.45159 0.24565 0.41134 0.0
C16 C 0.4037 0.40623 0.42612 0.0
C17 C 0.32167 0.19162 0.36749 0.0
C18 C 0.26988 0.37523 0.35855 0.0
C19 C 0.25797 0.28964 0.44375 0.0
C20 C 0.43367 0.31303 0.33503 0.0
C21 C 0.45086 0.25354 0.43647 0.0
O22 O 0.40435 0.40416 0.40066 0.0
O23 O 0.1114 0.13474 0.94424 0.0
Zn24 Zn 0.13091 0.1973 0.93327 0.0
O25 O 0.13291 0.20205 0.89463 0.0
Zn26 Zn 0.19873 0.21343 0.88288 0.0
Zn27 Zn 0.10979 0.14617 0.87991 0.0
Zn28 Zn 0.08935 0.24894 0.88259 0.0
O29 O 0.20338 0.27708 0.86709 0.0
O30 O 0.12812 0.30304 0.87213 0.0
O31 O 0.19526 0.2102 0.95071 0.0
O32 O 0.2427 0.21176 0.91474 0.0
O33 O 0.22428 0.1619 0.85969 0.0
O34 O 0.16519 0.11163 0.86579 0.0
O35 O 0.06829 0.1563 0.84815 0.0
O36 O 0.07733 0.23536 0.94788 0.0
O37 O 0.05365 0.22994 0.84928 0.0
O38 O 0.04165 0.26428 0.91179 0.0
C39 C 0.08553 0.10528 0.93242 0.0
C40 C 0.1722 0.3089 0.86552 0.0
C41 C 0.20687 0.12214 0.85705 0.0
C42 C 0.23704 0.21182 0.94002 0.0
C43 C 0.04943 0.19151 0.8381 0.0
C44 C 0.04292 0.25729 0.93699 0.0
O45 O 0.07639 0.10793 0.90747 0.0
O46 O 0.88659 0.15745 0.53632 0.0
Zn47 Zn 0.86389 0.21695 0.5507 0.0
O48 O 0.8606 0.21306 0.5894 0.0
Zn49 Zn 0.79511 0.22047 0.60218 0.0
Zn50 Zn 0.88719 0.15697 0.60145 0.0
Zn51 Zn 0.90127 0.25893 0.60383 0.0
O52 O 0.78849 0.28223 0.6206 0.0
O53 O 0.8609 0.31228 0.61203 0.0
O54 O 0.79818 0.22955 0.53432 0.0
O55 O 0.75097 0.22185 0.57019 0.0
O56 O 0.77321 0.16496 0.62356 0.0
O57 O 0.83406 0.11803 0.61439 0.0
O58 O 0.92792 0.16462 0.63413 0.0
O59 O 0.91701 0.25994 0.53862 0.0
O60 O 0.9318 0.23917 0.63812 0.0
O61 O 0.95323 0.27372 0.57754 0.0
C62 C 0.91329 0.12694 0.54653 0.0
C63 C 0.81746 0.31608 0.62022 0.0
C64 C 0.79257 0.12577 0.62431 0.0
C65 C 0.75633 0.22693 0.54501 0.0
C66 C 0.94046 0.19976 0.64699 0.0
C67 C 0.95304 0.27463 0.55204 0.0
O68 O 0.92175 0.12515 0.57161 0.0
O69 O 0.60037 0.3436 0.03641 0.0
Zn70 Zn 0.62867 0.28562 0.04935 0.0
O71 O 0.63222 0.28628 0.08811 0.0
Zn72 Zn 0.69783 0.27386 0.09986 0.0
Zn73 Zn 0.61205 0.34425 0.10158 0.0
Zn74 Zn 0.58776 0.24127 0.1015 0.0
O75 O 0.70138 0.20968 0.11512 0.0
O76 O 0.62489 0.18611 0.11181 0.0
O77 O 0.6941 0.27816 0.03197 0.0
O78 O 0.7415 0.27606 0.06794 0.0
O79 O 0.7248 0.32471 0.12332 0.0
O80 O 0.66891 0.37718 0.11536 0.0
O81 O 0.56968 0.337 0.13365 0.0
O82 O 0.58002 0.24097 0.03608 0.0
O83 O 0.55446 0.26331 0.13475 0.0
O84 O 0.53833 0.22606 0.07316 0.0
C85 C 0.5813 0.37775 0.04762 0.0
C86 C 0.66916 0.17876 0.11737 0.0
C87 C 0.70948 0.36532 0.12496 0.0
C88 C 0.73591 0.27711 0.04265 0.0
C89 C 0.55079 0.30262 0.14485 0.0
C90 C 0.54241 0.22562 0.04772 0.0
O91 O 0.581 0.38247 0.07298 0.0
O92 O 0.58903 0.67558 0.52874 0.0
Zn93 Zn 0.61751 0.731 0.54603 0.0
O94 O 0.61876 0.7225 0.58434 0.0
Zn95 Zn 0.68368 0.72029 0.59808 0.0
Zn96 Zn 0.58324 0.66897 0.59317 0.0
Zn97 Zn 0.58488 0.77015 0.60099 0.0
O98 O 0.69859 0.77888 0.61862 0.0
O99 O 0.63055 0.81793 0.61202 0.0
O100 O 0.68529 0.73952 0.53099 0.0
O101 O 0.729 0.72 0.56664 0.0
O102 O 0.69543 0.66002 0.61742 0.0
O103 O 0.63169 0.62207 0.60169 0.0
O104 O 0.54368 0.67549 0.62697 0.0
O105 O 0.56907 0.77961 0.53611 0.0
O106 O 0.55516 0.74845 0.63477 0.0
O107 O 0.53425 0.79195 0.57565 0.0
C108 C 0.55592 0.64909 0.53711 0.0
C109 C 0.67391 0.81533 0.62041 0.0
C110 C 0.67275 0.62294 0.6132 0.0
C111 C 0.72581 0.72988 0.54185 0.0
C112 C 0.53959 0.70995 0.64202 0.0
C113 C 0.53433 0.79525 0.55019 0.0
O114 O 0.54432 0.64706 0.5618 0.0
O115 O 0.90677 0.83682 0.03625 0.0
Zn116 Zn 0.87605 0.77954 0.0488 0.0
O117 O 0.86359 0.7837 0.08699 0.0
Zn118 Zn 0.7964 0.77007 0.09512 0.0
Zn119 Zn 0.88231 0.84255 0.1005 0.0
Zn120 Zn 0.90459 0.74064 0.10419 0.0
O121 O 0.79128 0.70848 0.11353 0.0
O122 O 0.8677 0.68447 0.11251 0.0
O123 O 0.81388 0.7713 0.02785 0.0
O124 O 0.75976 0.76396 0.06066 0.0
O125 O 0.76434 0.82363 0.11438 0.0
O126 O 0.8233 0.87504 0.11162 0.0
O127 O 0.92193 0.83862 0.13415 0.0
O128 O 0.92765 0.73321 0.04029 0.0
O129 O 0.92694 0.76424 0.13937 0.0
O130 O 0.96184 0.72836 0.08048 0.0
C131 C 0.92189 0.87268 0.04751 0.0
C132 C 0.82301 0.67767 0.11724 0.0
C133 C 0.78028 0.86384 0.11769 0.0
C134 C 0.77054 0.76552 0.0359 0.0
C135 C 0.93373 0.80417 0.14786 0.0
C136 C 0.96371 0.72344 0.05514 0.0
O137 O 0.91619 0.87965 0.07248 0.0
O138 O 0.0936 0.86482 0.44316 0.0
Zn139 Zn 0.12292 0.80582 0.43396 0.0
O140 O 0.12901 0.80003 0.39551 0.0
Zn141 Zn 0.1955 0.78452 0.38598 0.0
Zn142 Zn 0.10924 0.85624 0.37866 0.0
Zn143 Zn 0.08504 0.7535 0.38381 0.0
O144 O 0.19792 0.72109 0.36925 0.0
O145 O 0.12174 0.69775 0.37467 0.0
O146 O 0.18741 0.80234 0.45252 0.0
O147 O 0.23627 0.78174 0.41929 0.0
O148 O 0.22689 0.8367 0.36475 0.0
O149 O 0.16742 0.88748 0.36496 0.0
O150 O 0.06675 0.84545 0.34693 0.0
O151 O 0.07352 0.7631 0.44907 0.0
O152 O 0.05259 0.77176 0.34969 0.0
O153 O 0.03486 0.74083 0.41233 0.0
C154 C 0.07503 0.8971 0.42996 0.0
C155 C 0.16542 0.69026 0.36793 0.0
C156 C 0.21066 0.87623 0.35958 0.0
C157 C 0.22902 0.79135 0.4438 0.0
C158 C 0.04817 0.80941 0.33764 0.0
C159 C 0.03715 0.74476 0.43774 0.0
O160 O 0.07639 0.89837 0.4045 0.0
O161 O 0.39542 0.63975 0.94449 0.0
Zn162 Zn 0.37308 0.70151 0.93407 0.0
O163 O 0.36367 0.70413 0.89565 0.0
Zn164 Zn 0.2964 0.7164 0.88722 0.0
Zn165 Zn 0.38674 0.64849 0.87968 0.0
Zn166 Zn 0.40345 0.75082 0.88096 0.0
O167 O 0.29018 0.7778 0.86872 0.0
O168 O 0.3646 0.80587 0.87379 0.0
O169 O 0.31101 0.7127 0.95449 0.0
O170 O 0.25818 0.72193 0.92132 0.0
O171 O 0.26701 0.66215 0.86757 0.0
O172 O 0.32926 0.61419 0.86748 0.0
O173 O 0.42571 0.65817 0.84612 0.0
O174 O 0.42883 0.74195 0.94524 0.0
O175 O 0.42791 0.73299 0.84501 0.0
O176 O 0.4591 0.76285 0.90576 0.0
C177 C 0.41798 0.60903 0.93183 0.0
C178 C 0.32048 0.81041 0.86705 0.0
C179 C 0.28525 0.6234 0.86254 0.0
C180 C 0.26809 0.71968 0.94618 0.0
C181 C 0.43589 0.69492 0.83419 0.0
C182 C 0.4625 0.75959 0.93115 0.0
O183 O 0.42261 0.61004 0.90643 0.0
C184 C 0.23067 0.94179 0.33073 0.0
C185 C 0.24341 0.91336 0.35203 0.0
C186 C 0.24927 0.9859 0.32894 0.0
C187 C 0.27968 0.0024 0.34957 0.0
C188 C 0.29561 0.97252 0.36997 0.0
C189 C 0.27772 0.92804 0.37072 0.0
C190 C 0.23291 0.01596 0.30626 0.0
C191 C 0.32728 0.98878 0.39264 0.0
C192 C 0.34189 0.11725 0.34653 0.0
C193 C 0.30874 0.14463 0.36027 0.0
C194 C 0.33213 0.07128 0.34184 0.0
C195 C 0.28903 0.0519 0.35202 0.0
C196 C 0.25512 0.07966 0.36556 0.0
C197 C 0.26505 0.12585 0.36912 0.0
C198 C 0.36829 0.04332 0.32645 0.0
C199 C 0.2091 0.06025 0.37721 0.0
H200 H 0.20357 0.93058 0.31649 0.0
H201 H 0.28662 0.90638 0.38755 0.0
H202 H 0.20452 0.03932 0.31359 0.0
H203 H 0.26338 0.03683 0.29868 0.0
H204 H 0.21768 0.99605 0.28938 0.0
H205 H 0.34101 0.96039 0.40506 0.0
H206 H 0.35856 0.00827 0.38486 0.0
H207 H 0.30609 0.01174 0.40571 0.0
H208 H 0.37564 0.13179 0.33954 0.0
H209 H 0.23963 0.14682 0.38 0.0
H210 H 0.34986 0.02428 0.31024 0.0
H211 H 0.38519 0.01816 0.33998 0.0
H212 H 0.39737 0.0644 0.31745 0.0
H213 H 0.18697 0.04468 0.36115 0.0
H214 H 0.18689 0.08623 0.38751 0.0
H215 H 0.21798 0.03321 0.39182 0.0
C216 C 0.1558 0.38305 0.84365 0.0
C217 C 0.18747 0.35492 0.85791 0.0
C218 C 0.16676 0.42884 0.83942 0.0
C219 C 0.20952 0.44716 0.85058 0.0
C220 C 0.2423 0.4185 0.86432 0.0
C221 C 0.23121 0.37249 0.86743 0.0
C222 C 0.13189 0.45785 0.82377 0.0
C223 C 0.28795 0.43685 0.87693 0.0
C224 C 0.26876 0.55841 0.83277 0.0
C225 C 0.25448 0.58538 0.8544 0.0
C226 C 0.25061 0.51441 0.82973 0.0
C227 C 0.21908 0.49661 0.84945 0.0
C228 C 0.20182 0.52501 0.87022 0.0
C229 C 0.21933 0.56945 0.87222 0.0
C230 C 0.26834 0.48589 0.80669 0.0
C231 C 0.1688 0.50719 0.89191 0.0
H232 H 0.12202 0.36934 0.83616 0.0
H233 H 0.25542 0.35083 0.87869 0.0
H234 H 0.11335 0.4816 0.83752 0.0
H235 H 0.15161 0.47844 0.8087 0.0
H236 H 0.10398 0.43732 0.81334 0.0
H237 H 0.30968 0.41003 0.8868 0.0
H238 H 0.31073 0.45358 0.86155 0.0
H239 H 0.27855 0.46276 0.89213 0.0
H240 H 0.29639 0.57077 0.81916 0.0
H241 H 0.20916 0.59013 0.88924 0.0
H242 H 0.23835 0.46555 0.79812 0.0
H243 H 0.29631 0.46204 0.81399 0.0
H244 H 0.28454 0.50691 0.79054 0.0
H245 H 0.13763 0.48893 0.88307 0.0
H246 H 0.15489 0.5346 0.905 0.0
H247 H 0.18895 0.48273 0.90454 0.0
C248 C 0.72503 0.57277 0.64177 0.0
C249 C 0.69533 0.57904 0.61935 0.0
C250 C 0.74517 0.53007 0.64728 0.0
C251 C 0.73659 0.49371 0.62939 0.0
C252 C 0.70666 0.5002 0.60674 0.0
C253 C 0.68598 0.54253 0.60224 0.0
C254 C 0.77578 0.52388 0.67202 0.0
C255 C 0.69761 0.46283 0.58669 0.0
C256 C 0.82565 0.3997 0.61754 0.0
C257 C 0.79978 0.36193 0.62685 0.0
C258 C 0.80694 0.44338 0.61994 0.0
C259 C 0.76169 0.44972 0.63259 0.0
C260 C 0.73724 0.41224 0.64404 0.0
C261 C 0.75624 0.36856 0.64068 0.0
C262 C 0.83365 0.48211 0.60679 0.0
C263 C 0.68963 0.41794 0.65842 0.0
H264 H 0.73182 0.60091 0.65515 0.0
H265 H 0.66331 0.5474 0.58474 0.0
H266 H 0.76317 0.49396 0.68351 0.0
H267 H 0.81386 0.5175 0.6662 0.0
H268 H 0.77479 0.55398 0.68529 0.0
H269 H 0.67338 0.4736 0.57013 0.0
H270 H 0.73242 0.45154 0.5779 0.0
H271 H 0.68101 0.43322 0.59679 0.0
H272 H 0.85942 0.39503 0.60686 0.0
H273 H 0.73643 0.33961 0.64828 0.0
H274 H 0.83652 0.51128 0.62061 0.0
H275 H 0.81318 0.49356 0.58891 0.0
H276 H 0.87063 0.47239 0.6003 0.0
H277 H 0.69059 0.44808 0.67163 0.0
H278 H 0.68035 0.38776 0.67066 0.0
H279 H 0.66039 0.42321 0.64353 0.0
C280 C 0.72762 0.11466 0.11562 0.0
C281 C 0.68327 0.13204 0.12433 0.0
C282 C 0.73805 0.06842 0.11817 0.0
C283 C 0.70381 0.03917 0.1304 0.0
C284 C 0.66022 0.05711 0.14069 0.0
C285 C 0.65014 0.10323 0.13715 0.0
C286 C 0.78473 0.05055 0.10659 0.0
C287 C 0.62361 0.0274 0.15465 0.0
C288 C 0.71533 0.91787 0.10697 0.0
C289 C 0.74811 0.9008 0.12573 0.0
C290 C 0.69786 0.96226 0.10918 0.0
C291 C 0.71295 0.98958 0.13097 0.0
C292 C 0.74206 0.97063 0.15141 0.0
C293 C 0.76006 0.92664 0.14828 0.0
C294 C 0.66738 0.98125 0.08676 0.0
C295 C 0.75761 0.99801 0.17542 0.0
H296 H 0.75308 0.13674 0.10548 0.0
H297 H 0.61587 0.11668 0.14406 0.0
H298 H 0.80574 0.03275 0.1223 0.0
H299 H 0.77666 0.02562 0.09059 0.0
H300 H 0.80768 0.07779 0.09799 0.0
H301 H 0.59452 0.04741 0.16437 0.0
H302 H 0.60674 0.00414 0.13995 0.0
H303 H 0.64155 0.00627 0.17009 0.0
H304 H 0.70713 0.89816 0.08922 0.0
H305 H 0.78611 0.91353 0.16254 0.0
H306 H 0.68911 0.00604 0.07515 0.0
H307 H 0.63556 0.99941 0.09488 0.0
H308 H 0.65452 0.9545 0.07285 0.0
H309 H 0.7864 0.02211 0.16937 0.0
H310 H 0.77204 0.9762 0.19168 0.0
H311 H 0.72693 0.01803 0.1834 0.0
C312 C 0.78687 0.05857 0.65357 0.0
C313 C 0.76565 0.08641 0.63416 0.0
C314 C 0.77079 0.01402 0.65734 0.0
C315 C 0.73405 0.99666 0.6405 0.0
C316 C 0.71032 0.02577 0.62214 0.0
C317 C 0.72611 0.07065 0.61944 0.0
C318 C 0.79565 0.9847 0.67788 0.0
C319 C 0.67138 0.00847 0.60356 0.0
C320 C 0.7376 0.87431 0.61809 0.0
C321 C 0.69605 0.85719 0.63043 0.0
C322 C 0.75173 0.91938 0.62216 0.0
C323 C 0.7243 0.94724 0.6396 0.0
C324 C 0.68486 0.92865 0.65393 0.0
C325 C 0.67057 0.884 0.64873 0.0
C326 C 0.79367 0.93808 0.6062 0.0
C327 C 0.656 0.95658 0.6735 0.0
H328 H 0.8179 0.07085 0.66471 0.0
H329 H 0.71055 0.09206 0.60405 0.0
H330 H 0.76901 0.9633 0.68868 0.0
H331 H 0.8215 0.96183 0.66767 0.0
H332 H 0.81604 0.00521 0.69272 0.0
H333 H 0.65426 0.03609 0.59185 0.0
H334 H 0.68733 0.98381 0.58934 0.0
H335 H 0.64287 0.99056 0.61504 0.0
H336 H 0.75674 0.85362 0.60364 0.0
H337 H 0.6383 0.87054 0.65821 0.0
H338 H 0.82019 0.9546 0.61968 0.0
H339 H 0.78034 0.96423 0.59207 0.0
H340 H 0.81259 0.91149 0.59453 0.0
H341 H 0.68035 0.97696 0.68641 0.0
H342 H 0.63263 0.93518 0.68646 0.0
H343 H 0.63252 0.98042 0.66235 0.0
C344 C 0.76566 0.61274 0.11505 0.0
C345 C 0.80798 0.63184 0.12545 0.0
C346 C 0.75483 0.56693 0.11933 0.0
C347 C 0.78635 0.54009 0.13513 0.0
C348 C 0.82761 0.56002 0.14702 0.0
C349 C 0.83844 0.60551 0.14162 0.0
C350 C 0.71083 0.54681 0.10589 0.0
C351 C 0.86101 0.53305 0.16479 0.0
C352 C 0.72494 0.43068 0.15447 0.0
C353 C 0.74114 0.40198 0.13409 0.0
C354 C 0.74328 0.47473 0.1569 0.0
C355 C 0.77704 0.49073 0.13776 0.0
C356 C 0.79644 0.46048 0.11855 0.0
C357 C 0.77858 0.4161 0.11718 0.0
C358 C 0.72313 0.50529 0.17834 0.0
C359 C 0.83191 0.47625 0.09751 0.0
H360 H 0.74239 0.63298 0.10235 0.0
H361 H 0.87109 0.62043 0.14981 0.0
H362 H 0.72207 0.51932 0.09212 0.0
H363 H 0.68642 0.53167 0.12109 0.0
H364 H 0.69013 0.57227 0.09424 0.0
H365 H 0.88765 0.5549 0.17529 0.0
H366 H 0.8399 0.51391 0.17995 0.0
H367 H 0.8811 0.50806 0.15256 0.0
H368 H 0.69541 0.41978 0.16727 0.0
H369 H 0.79017 0.39411 0.10104 0.0
H370 H 0.69575 0.52813 0.1694 0.0
H371 H 0.75207 0.52669 0.18711 0.0
H372 H 0.70548 0.48571 0.19465 0.0
H373 H 0.81313 0.49895 0.08319 0.0
H374 H 0.84765 0.44758 0.0861 0.0
H375 H 0.86176 0.49586 0.10673 0.0
C376 C 0.20354 0.42717 0.36994 0.0
C377 C 0.23642 0.41145 0.35079 0.0
C378 C 0.18704 0.47204 0.3692 0.0
C379 C 0.20303 0.50124 0.34845 0.0
C380 C 0.23156 0.48369 0.32734 0.0
C381 C 0.24861 0.43912 0.32901 0.0
C382 C 0.15697 0.48939 0.39224 0.0
C383 C 0.24794 0.51308 0.30433 0.0
C384 C 0.14407 0.61712 0.3461 0.0
C385 C 0.17811 0.64374 0.35978 0.0
C386 C 0.15257 0.57112 0.34112 0.0
C387 C 0.19546 0.55095 0.35081 0.0
C388 C 0.2306 0.57801 0.36399 0.0
C389 C 0.22177 0.6243 0.36797 0.0
C390 C 0.11505 0.5439 0.32618 0.0
C391 C 0.27661 0.5577 0.37496 0.0
H392 H 0.19509 0.40609 0.38711 0.0
H393 H 0.27467 0.4271 0.31443 0.0
H394 H 0.1795 0.51196 0.4049 0.0
H395 H 0.12601 0.50957 0.38481 0.0
H396 H 0.14288 0.46151 0.40499 0.0
H397 H 0.26149 0.4926 0.28726 0.0
H398 H 0.21798 0.53487 0.29718 0.0
H399 H 0.27764 0.53556 0.31115 0.0
H400 H 0.11034 0.63222 0.33959 0.0
H401 H 0.24789 0.64472 0.37876 0.0
H402 H 0.09748 0.51961 0.34006 0.0
H403 H 0.13235 0.52393 0.31 0.0
H404 H 0.0866 0.56564 0.31722 0.0
H405 H 0.26765 0.53131 0.39 0.0
H406 H 0.3003 0.58335 0.38458 0.0
H407 H 0.29721 0.54108 0.35865 0.0
C408 C 0.21987 0.05529 0.82835 0.0
C409 C 0.23734 0.08461 0.84812 0.0
C410 C 0.23781 0.01115 0.82613 0.0
C411 C 0.27242 0.99572 0.84489 0.0
C412 C 0.29297 0.02651 0.86345 0.0
C413 C 0.27556 0.07098 0.86456 0.0
C414 C 0.21652 0.97999 0.8053 0.0
C415 C 0.32936 0.01132 0.88412 0.0
C416 C 0.2624 0.8744 0.869 0.0
C417 C 0.30447 0.85547 0.85832 0.0
C418 C 0.25111 0.91995 0.86433 0.0
C419 C 0.28183 0.94651 0.84781 0.0
C420 C 0.32268 0.92655 0.83558 0.0
C421 C 0.33408 0.88143 0.84144 0.0
C422 C 0.20766 0.94019 0.87817 0.0
C423 C 0.35512 0.95316 0.817 0.0
H424 H 0.18985 0.06589 0.81586 0.0
H425 H 0.2882 0.0935 0.88022 0.0
H426 H 0.24495 0.95835 0.79632 0.0
H427 H 0.18949 0.95741 0.81487 0.0
H428 H 0.19817 0.99912 0.78907 0.0
H429 H 0.34547 0.04025 0.89517 0.0
H430 H 0.31127 0.98869 0.8988 0.0
H431 H 0.35889 0.99178 0.8746 0.0
H432 H 0.23988 0.85433 0.88226 0.0
H433 H 0.36655 0.86652 0.83308 0.0
H434 H 0.18256 0.9548 0.86318 0.0
H435 H 0.21943 0.96809 0.89153 0.0
H436 H 0.18753 0.91492 0.89034 0.0
H437 H 0.33323 0.97199 0.80209 0.0
H438 H 0.38105 0.93108 0.80619 0.0
H439 H 0.37602 0.97838 0.82867 0.0
C440 C 0.45029 0.43746 0.46419 0.0
C441 C 0.42608 0.44479 0.43995 0.0
C442 C 0.47129 0.47336 0.47821 0.0
C443 C 0.46676 0.51783 0.46807 0.0
C444 C 0.44217 0.52552 0.44359 0.0
C445 C 0.42268 0.48863 0.42954 0.0
C446 C 0.4982 0.46363 0.50392 0.0
C447 C 0.43571 0.57265 0.43258 0.0
C448 C 0.48335 0.60621 0.52197 0.0
C449 C 0.5316 0.61895 0.51791 0.0
C450 C 0.46069 0.5754 0.50473 0.0
C451 C 0.48751 0.55599 0.4835 0.0
C452 C 0.53583 0.5698 0.47886 0.0
C453 C 0.55714 0.60167 0.49597 0.0
C454 C 0.40866 0.56239 0.50984 0.0
C455 C 0.56588 0.5491 0.4568 0.0
H456 H 0.4533 0.4034 0.47207 0.0
H457 H 0.40361 0.49417 0.41085 0.0
H458 H 0.53544 0.47758 0.50279 0.0
H459 H 0.47978 0.48039 0.52097 0.0
H460 H 0.50054 0.42686 0.50826 0.0
H461 H 0.4151 0.57288 0.41347 0.0
H462 H 0.4163 0.59389 0.4474 0.0
H463 H 0.47149 0.58861 0.42909 0.0
H464 H 0.46341 0.62017 0.53874 0.0
H465 H 0.59453 0.61151 0.49288 0.0
H466 H 0.40693 0.52703 0.51719 0.0
H467 H 0.3875 0.56402 0.49098 0.0
H468 H 0.39126 0.58462 0.52494 0.0
H469 H 0.57207 0.51281 0.46125 0.0
H470 H 0.60156 0.56602 0.45456 0.0
H471 H 0.54644 0.55094 0.4374 0.0
C472 C 0.94261 0.95242 0.0363 0.0
C473 C 0.94767 0.90621 0.03113 0.0
C474 C 0.9656 0.98452 0.01998 0.0
C475 C -0.00468 0.96972 -0.0014 0.0
C476 C 0.00154 0.92299 -0.0062 0.0
C477 C 0.97704 0.89174 0.00994 0.0
C478 C 0.95741 0.03416 0.02528 0.0
C479 C 0.03412 0.906 0.9717 0.0
C480 C 0.01927 0.05006 0.94099 0.0
C481 C 0.06386 0.06873 0.94843 0.0
C482 C -0.00357 0.01779 0.95722 0.0
C483 C 0.01945 0.00319 0.98102 0.0
C484 C 0.06518 0.02094 0.98819 0.0
C485 C 0.08659 0.054 0.97195 0.0
C486 C 0.9472 1.00013 0.94925 0.0
C487 C 0.09127 0.00527 0.0131 0.0
H488 H 0.91965 0.96345 0.05264 0.0
H489 H 0.98136 0.85587 0.00621 0.0
H490 H 0.99236 0.0512 0.02946 0.0
H491 H 0.94174 0.05047 0.00724 0.0
H492 H 0.93271 0.03997 0.0425 0.0
H493 H 0.03557 0.86851 0.97095 0.0
H494 H 0.02127 0.91864 0.95202 0.0
H495 H 0.07135 0.91915 0.97463 0.0
H496 H 0.00147 0.06178 0.92293 0.0
H497 H 0.12127 0.06827 0.97761 0.0
H498 H 0.92054 0.00774 0.96525 0.0
H499 H 0.94837 0.96287 0.94697 0.0
H500 H 0.93418 0.01516 0.93017 0.0
H501 H 0.06976 0.01395 0.03113 0.0
H502 H 0.1277 0.02082 0.01507 0.0
H503 H 0.0953 0.96797 0.01281 0.0
C504 C 0.91271 0.08071 0.50496 0.0
C505 C 0.93606 0.09386 0.52861 0.0
C506 C 0.93412 0.04948 0.48756 0.0
C507 C 0.98044 0.03214 0.49371 0.0
C508 C 0.0046 0.04607 0.51731 0.0
C509 C 0.98174 0.07635 0.53472 0.0
C510 C 0.9068 0.03434 0.46294 0.0
C511 C 0.0545 0.02891 0.52419 0.0
C512 C 0.01983 0.91905 0.46655 0.0
C513 C 0.04895 0.93198 0.44489 0.0
C514 C -0.00402 0.95138 0.48204 0.0
C515 C 0.00277 0.99773 0.47617 0.0
C516 C 0.03191 0.011 0.45415 0.0
C517 C 0.05415 0.97771 0.43841 0.0
C518 C 0.9641 0.9359 0.50489 0.0
C519 C 0.04075 0.06022 0.44778 0.0
H520 H 0.87725 0.0942 0.50032 0.0
H521 H 2e-05 0.08705 0.55287 0.0
H522 H 0.92845 0.04126 0.44468 0.0
H523 H 0.90062 0.9973 0.46382 0.0
H524 H 0.87126 0.05146 0.46094 0.0
H525 H 0.06947 0.04527 0.54242 0.0
H526 H 0.05325 0.99188 0.52757 0.0
H527 H 0.07962 0.03514 0.50722 0.0
H528 H 0.01553 0.88347 0.47127 0.0
H529 H 0.077 0.98742 0.42169 0.0
H530 H 0.92776 0.9515 0.50321 0.0
H531 H 0.97985 0.94699 0.52424 0.0
H532 H 0.95976 0.89857 0.5054 0.0
H533 H 0.00589 0.07781 0.44444 0.0
H534 H 0.06382 0.0648 0.42974 0.0
H535 H 0.05866 0.07689 0.46505 0.0
C536 C 0.48591 0.5556 0.93994 0.0
C537 C 0.44065 0.5726 0.94738 0.0
C538 C 0.50972 0.52386 0.95609 0.0
C539 C 0.48688 0.50795 0.9797 0.0
C540 C 0.44042 0.52396 0.98677 0.0
C541 C 0.41817 0.55668 0.97071 0.0
C542 C 0.55976 0.50826 0.94831 0.0
C543 C 0.41433 0.50673 0.01135 0.0
C544 C 0.53009 0.39676 0.00849 0.0
C545 C 0.55714 0.4113 0.03059 0.0
C546 C 0.50651 0.42788 -0.00809 0.0
C547 C 0.51157 0.47464 -0.00287 0.0
C548 C 0.5395 0.48952 0.01924 0.0
C549 C 0.56132 0.4575 0.03606 0.0
C550 C 0.47575 0.41073 0.96906 0.0
C551 C 0.54663 0.5392 0.02497 0.0
H552 H 0.50345 0.56839 0.92203 0.0
H553 H 0.38298 0.56976 0.97633 0.0
H554 H 0.58573 0.5165 0.96455 0.0
H555 H 0.56013 0.47104 0.94574 0.0
H556 H 0.57258 0.52421 0.92944 0.0
H557 H 0.37732 0.52094 0.01322 0.0
H558 H 0.41162 0.46932 0.01067 0.0
H559 H 0.43509 0.51564 0.02961 0.0
H560 H 0.52656 0.36087 0.0045 0.0
H561 H 0.58261 0.46854 0.05309 0.0
H562 H 0.49005 0.42351 0.94972 0.0
H563 H 0.43825 0.42359 0.97113 0.0
H564 H 0.47451 0.37324 0.96825 0.0
H565 H 0.56195 0.55635 0.00708 0.0
H566 H 0.57114 0.54511 0.04225 0.0
H567 H 0.51128 0.55528 0.0293 0.0
C568 C 0.49505 0.27733 0.18125 0.0
C569 C 0.53021 0.30757 0.17188 0.0
C570 C 0.47886 0.27934 0.20785 0.0
C571 C 0.49956 0.31139 0.22554 0.0
C572 C 0.5349 0.34213 0.2161 0.0
C573 C 0.54929 0.34027 0.18924 0.0
C574 C 0.44 0.24696 0.21709 0.0
C575 C 0.55856 0.37606 0.23455 0.0
C576 C 0.43217 0.34326 0.28866 0.0
C577 C 0.45344 0.31453 0.30764 0.0
C578 C 0.44665 0.34234 0.26181 0.0
C579 C 0.48422 0.31286 0.25395 0.0
C580 C 0.50692 0.28476 0.27317 0.0
C581 C 0.49069 0.28542 0.29981 0.0
C582 C 0.42083 0.37198 0.24174 0.0
C583 C 0.54807 0.25384 0.26556 0.0
H584 H 0.48035 0.25206 0.16779 0.0
H585 H 0.5771 0.36323 0.18213 0.0
H586 H 0.45458 0.22435 0.23287 0.0
H587 H 0.40946 0.26597 0.22606 0.0
H588 H 0.42586 0.22578 0.20046 0.0
H589 H 0.58581 0.39729 0.22405 0.0
H590 H 0.53085 0.39855 0.24345 0.0
H591 H 0.57664 0.35817 0.25132 0.0
H592 H 0.40281 0.36535 0.29458 0.0
H593 H 0.50713 0.26324 0.3145 0.0
H594 H 0.40432 0.35071 0.22587 0.0
H595 H 0.44696 0.39501 0.2318 0.0
H596 H 0.39196 0.39267 0.25114 0.0
H597 H 0.53531 0.22831 0.25091 0.0
H598 H 0.56344 0.23593 0.28317 0.0
H599 H 0.57731 0.27354 0.25572 0.0
C600 C 0.99239 0.21801 0.80268 0.0
C601 C 0.02907 0.18866 0.81097 0.0
C602 C 0.97642 0.2179 0.77601 0.0
C603 C -0.00089 0.189 0.75722 0.0
C604 C 0.03591 0.15908 0.76561 0.0
C605 C 0.04988 0.15876 0.79252 0.0
C606 C 0.93589 0.24913 0.76784 0.0
C607 C 0.06191 0.12877 0.74599 0.0
C608 C 0.93821 0.1622 0.69127 0.0
C609 C 0.95886 0.19477 0.67438 0.0
C610 C 0.95045 0.16036 0.71845 0.0
C611 C 0.98539 0.19081 0.7286 0.0
C612 C 0.00762 0.22275 0.71136 0.0
C613 C 0.9933 0.22495 0.68446 0.0
C614 C 0.92498 0.12681 0.73643 0.0
C615 C 0.04628 0.25468 0.72135 0.0
H616 H 0.97637 0.24107 0.81702 0.0
H617 H 0.07886 0.13653 0.79886 0.0
H618 H 0.94973 0.27504 0.7537 0.0
H619 H 0.90723 0.22984 0.75726 0.0
H620 H 0.91946 0.26661 0.7853 0.0
H621 H 0.08964 0.10734 0.75587 0.0
H622 H 0.03572 0.10642 0.7356 0.0
H623 H 0.07993 0.14965 0.73041 0.0
H624 H 0.91081 0.13945 0.68348 0.0
H625 H 0.00903 0.25016 0.67128 0.0
H626 H 0.90619 0.14498 0.75285 0.0
H627 H 0.95165 0.10384 0.74587 0.0
H628 H 0.89801 0.10607 0.72541 0.0
H629 H 0.031 0.27746 0.7368 0.0
H630 H 0.06179 0.27569 0.70499 0.0
H631 H 0.07594 0.23529 0.73092 0.0
C632 C 0.48208 0.65997 0.7965 0.0
C633 C 0.45129 0.69384 0.80602 0.0
C634 C 0.49609 0.65913 0.76945 0.0
C635 C 0.4773 0.69195 0.7516 0.0
C636 C 0.4448 0.72517 0.76105 0.0
C637 C 0.43286 0.72616 0.78826 0.0
C638 C 0.53204 0.62415 0.76018 0.0
C639 C 0.42305 0.76001 0.74249 0.0
C640 C 0.54628 0.72876 0.69007 0.0
C641 C 0.52287 0.70446 0.66977 0.0
C642 C 0.53305 0.7234 0.7169 0.0
C643 C 0.49434 0.69414 0.72349 0.0
C644 C 0.47042 0.66947 0.70307 0.0
C645 C 0.48565 0.67431 0.67636 0.0
C646 C 0.56029 0.74939 0.73816 0.0
C647 C 0.42802 0.63905 0.70936 0.0
H648 H 0.49608 0.63492 0.81032 0.0
H649 H 0.4082 0.75181 0.79558 0.0
H650 H 0.51716 0.6048 0.74304 0.0
H651 H 0.56545 0.6412 0.75306 0.0
H652 H 0.54187 0.60007 0.77637 0.0
H653 H 0.39489 0.78069 0.75255 0.0
H654 H 0.45177 0.78301 0.73501 0.0
H655 H 0.40665 0.74324 0.7248 0.0
H656 H 0.57579 0.75142 0.68499 0.0
H657 H 0.46777 0.65547 0.66058 0.0
H658 H 0.57287 0.72609 0.75413 0.0
H659 H 0.53596 0.77444 0.74769 0.0
H660 H 0.59212 0.76764 0.72988 0.0
H661 H 0.43843 0.61346 0.72453 0.0
H662 H 0.41422 0.62133 0.69129 0.0
H663 H 0.39821 0.65934 0.71809 0.0
C664 C 0.91643 0.79687 0.19595 0.0
C665 C 0.94836 0.81016 0.17569 0.0
C666 C 0.9297 0.80013 0.2229 0.0
C667 C 0.97655 0.81583 0.22949 0.0
C668 C 0.00868 0.83006 0.20899 0.0
C669 C -0.00616 0.82757 0.18215 0.0
C670 C 0.89411 0.78568 0.24424 0.0
C671 C 0.05926 0.84609 0.21533 0.0
C672 C 0.00558 0.85024 0.30083 0.0
C673 C 0.02601 0.81037 0.31086 0.0
C674 C 0.98833 0.85235 0.27444 0.0
C675 C 0.99305 0.81409 0.25767 0.0
C676 C 0.01339 0.7737 0.26779 0.0
C677 C 0.02902 0.77215 0.29442 0.0
C678 C 0.96543 0.89548 0.26447 0.0
C679 C 0.01977 0.73246 0.2503 0.0
H680 H 0.88105 0.78373 0.19062 0.0
H681 H 0.01823 0.83771 0.16621 0.0
H682 H 0.90737 0.75469 0.25434 0.0
H683 H 0.89076 0.81232 0.25976 0.0
H684 H 0.85766 0.77858 0.23585 0.0
H685 H 0.07894 0.85773 0.19717 0.0
H686 H 0.05811 0.8742 0.22999 0.0
H687 H 0.08004 0.81817 0.22468 0.0
H688 H 0.0032 0.87977 0.3136 0.0
H689 H 0.04543 0.74147 0.30204 0.0
H690 H 0.92871 0.88834 0.25653 0.0
H691 H 0.98708 0.90966 0.24774 0.0
H692 H 0.9625 0.92143 0.28046 0.0
H693 H 0.98415 0.72075 0.24279 0.0
H694 H 0.03731 0.70408 0.26115 0.0
H695 H 0.04218 0.74115 0.23257 0.0
C696 C 0.52762 0.21082 0.44537 0.0
C697 C 0.4944 0.24428 0.45279 0.0
C698 C 0.57092 0.20493 0.45974 0.0
C699 C 0.58173 0.2341 0.48145 0.0
C700 C 0.54824 0.26788 0.48897 0.0
C701 C 0.50477 0.27213 0.4748 0.0
C702 C 0.60521 0.16774 0.45162 0.0
C703 C 0.55877 0.30032 0.51161 0.0
C704 C 0.67133 0.20354 0.53596 0.0
C705 C 0.71268 0.22754 0.52793 0.0
C706 C 0.62918 0.20373 0.52036 0.0
C707 C 0.62789 0.22957 0.49651 0.0
C708 C 0.66971 0.25352 0.48813 0.0
C709 C 0.71192 0.2517 0.50379 0.0
C710 C 0.58578 0.17688 0.52966 0.0
C711 C 0.66933 0.28232 0.46315 0.0
H712 H 0.51977 0.18932 0.42834 0.0
H713 H 0.47966 0.29861 0.48038 0.0
H714 H 0.64015 0.18251 0.44503 0.0
H715 H 0.61295 0.14561 0.46906 0.0
H716 H 0.59049 0.14666 0.43511 0.0
H717 H 0.52954 0.32561 0.51438 0.0
H718 H 0.56338 0.28142 0.53063 0.0
H719 H 0.59315 0.31857 0.50767 0.0
H720 H 0.67205 0.18421 0.55442 0.0
H721 H 0.74384 0.27027 0.49756 0.0
H722 H 0.57232 0.15499 0.51322 0.0
H723 H 0.55603 0.20019 0.53515 0.0
H724 H 0.59413 0.15532 0.54729 0.0
H725 H 0.65814 0.26183 0.44561 0.0
H726 H 0.70526 0.2976 0.4589 0.0
H727 H 0.64248 0.30989 0.46542 0.0
C728 C 0.98985 0.2417 0.97609 0.0
C729 C 6e-05 0.26813 0.95343 0.0
C730 C 0.94608 0.24623 0.98988 0.0
C731 C 0.91219 0.27893 0.9813 0.0
C732 C 0.92316 0.30726 0.95921 0.0
C733 C 0.96677 0.30103 0.94523 0.0
C734 C 0.93537 0.21476 0.01302 0.0
C735 C 0.88847 0.34344 0.95007 0.0
C736 C 0.78211 0.25613 0.00153 0.0
C737 C 0.77932 0.27989 0.0257 0.0
C738 C 0.82491 0.25646 0.98638 0.0
C739 C 0.86497 0.28241 -0.00472 0.0
C740 C 0.8612 0.30841 0.01895 0.0
C741 C 0.81866 0.3062 0.03413 0.0
C742 C 0.82805 0.2274 0.9616 0.0
C743 C 0.90255 0.33752 0.02866 0.0
H744 H 0.01511 0.21576 0.98233 0.0
H745 H 0.97458 0.32152 0.92774 0.0
H746 H 0.92847 0.2345 0.0315 0.0
H747 H 0.90218 0.19489 0.00872 0.0
H748 H 0.96548 0.19087 0.01699 0.0
H749 H 0.90416 0.36508 0.93407 0.0
H750 H 0.8549 0.32759 0.94231 0.0
H751 H 0.87803 0.36518 0.96722 0.0
H752 H 0.75156 0.23584 -0.00491 0.0
H753 H 0.81607 0.32522 0.05264 0.0
H754 H 0.85569 0.20072 0.96462 0.0
H755 H 0.8397 0.24797 0.94416 0.0
H756 H 0.79301 0.21092 0.95672 0.0
H757 H 0.9327 0.31574 0.03554 0.0
H758 H 0.89167 0.35984 0.0455 0.0
H759 H 0.91658 0.35883 0.01207 0.0
C760 C 0.04276 0.27408 0.55012 0.0
C761 C -0.00138 0.2852 0.53793 0.0
C762 C 0.08632 0.27648 0.53585 0.0
C763 C 0.08594 0.29184 0.50901 0.0
C764 C 0.04185 0.30561 0.49707 0.0
C765 C -0.00154 0.3013 0.51154 0.0
C766 C 0.13226 0.26009 0.54902 0.0
C767 C 0.04031 0.32359 0.46878 0.0
C768 C 0.20678 0.32558 0.47866 0.0
C769 C 0.21649 0.28843 0.46217 0.0
C770 C 0.16397 0.32755 0.49374 0.0
C771 C 0.13122 0.29072 0.49298 0.0
C772 C 0.14187 0.2524 0.47704 0.0
C773 C 0.18397 0.25216 0.46136 0.0
C774 C 0.15308 0.36953 0.50981 0.0
C775 C 0.10873 0.21176 0.47643 0.0
H776 H 0.04299 0.26093 0.5704 0.0
H777 H 0.96438 0.30991 0.50211 0.0
H778 H 0.14597 0.22998 0.53818 0.0
H779 H 0.16076 0.28643 0.54789 0.0
H780 H 0.12669 0.25084 0.57038 0.0
H781 H 0.00431 0.33773 0.46359 0.0
H782 H 0.06809 0.35032 0.46601 0.0
H783 H 0.04873 0.29603 0.45448 0.0
H784 H 0.23163 0.35398 0.4788 0.0
H785 H 0.19161 0.22356 0.44848 0.0
H786 H 0.14847 0.36082 0.53127 0.0
H787 H 0.11852 0.38454 0.50287 0.0
H788 H 0.18208 0.39539 0.50802 0.0
H789 H 0.10229 0.19924 0.4971 0.0
H790 H 0.12374 0.18369 0.46424 0.0
H791 H 0.07312 0.2214 0.46798 0.0
C792 C 0.49254 0.24017 0.00738 0.0
C793 C 0.49947 0.21578 0.03117 0.0
C794 C 0.44901 0.23734 -0.0068 0.0
C795 C 0.41194 0.20838 0.00262 0.0
C796 C 0.41948 0.18206 0.02597 0.0
C797 C 0.46297 0.18669 0.0403 0.0
C798 C 0.44199 0.26691 0.9688 0.0
C799 C 0.38133 0.14968 0.03605 0.0
C800 C 0.28433 0.23643 0.98005 0.0
C801 C 0.28033 0.20974 0.95705 0.0
C802 C 0.32685 0.23583 -0.00456 0.0
C803 C 0.36516 0.20654 0.98809 0.0
C804 C 0.36012 0.17798 0.96554 0.0
C805 C 0.31808 0.18057 0.94999 0.0
C806 C 0.33153 0.26775 0.01888 0.0
C807 C 0.39955 0.14543 0.95751 0.0
H808 H 0.52026 0.26344 0.00052 0.0
H809 H 0.46825 0.16795 0.05874 0.0
H810 H 0.43119 0.24619 0.95129 0.0
H811 H 0.4124 0.29136 0.97262 0.0
H812 H 0.47522 0.28609 0.96349 0.0
H813 H 0.39434 0.12907 0.0532 0.0
H814 H 0.34888 0.16875 0.04251 0.0
H815 H 0.36988 0.12663 0.01969 0.0
H816 H 0.25497 0.25893 0.98539 0.0
H817 H 0.31448 0.1594 0.93237 0.0
H818 H 0.36166 0.2918 0.01515 0.0
H819 H 0.34045 0.24873 0.03737 0.0
H820 H 0.29792 0.28738 0.02241 0.0
H821 H 0.43171 0.16452 0.95049 0.0
H822 H 0.38782 0.12227 0.94123 0.0
H823 H 0.41095 0.12491 0.97501 0.0
C824 C 0.48876 0.82063 0.50954 0.0
C825 C 0.48883 0.80769 0.53655 0.0
C826 C 0.4453 0.82304 0.49504 0.0
C827 C 0.40132 0.8107 0.50769 0.0
C828 C 0.40097 0.79976 0.53527 0.0
C829 C 0.44463 0.79915 0.54947 0.0
C830 C 0.44679 0.83653 0.46588 0.0
C831 C 0.35507 0.78528 0.54934 0.0
C832 C 0.27978 0.83512 0.47547 0.0
C833 C 0.2711 0.79481 0.46161 0.0
C834 C 0.32258 0.84124 0.49012 0.0
C835 C 0.35638 0.80548 0.49168 0.0
C836 C 0.34696 0.76415 0.47828 0.0
C837 C 0.3048 0.75971 0.46287 0.0
C838 C 0.33223 0.88627 0.5033 0.0
C839 C 0.38135 0.72466 0.48021 0.0
H840 H 0.52281 0.82735 0.4995 0.0
H841 H 0.44439 0.78861 0.57028 0.0
H842 H 0.4403 0.80639 0.45317 0.0
H843 H 0.41784 0.86132 0.46139 0.0
H844 H 0.48224 0.85146 0.46019 0.0
H845 H 0.36036 0.78088 0.57125 0.0
H846 H 0.32594 0.81037 0.54606 0.0
H847 H 0.34241 0.75269 0.54083 0.0
H848 H 0.25395 0.86255 0.47393 0.0
H849 H 0.29795 0.7287 0.45192 0.0
H850 H 0.36649 0.90078 0.49548 0.0
H851 H 0.33679 0.88181 0.52522 0.0
H852 H 0.30261 0.91088 0.49975 0.0
H853 H 0.41679 0.73391 0.47133 0.0
H854 H 0.36741 0.69418 0.46974 0.0
H855 H 0.38781 0.71594 0.50154 0.0
C856 C 0.01381 0.6937 0.01732 0.0
C857 C 0.01098 0.71499 0.04232 0.0
C858 C 0.05783 0.69173 0.00329 0.0
C859 C 0.09939 0.71311 0.0141 0.0
C860 C 0.09691 0.73369 0.03964 0.0
C861 C 0.05291 0.7337 0.05363 0.0
C862 C 0.05944 0.66813 0.9765 0.0
C863 C 0.13989 0.75813 0.05147 0.0
C864 C 0.2234 0.68721 0.98497 0.0
C865 C 0.22777 0.72099 0.96544 0.0
C866 C 0.18171 0.68407 0.00096 0.0
C867 C 0.1445 0.7165 -0.00206 0.0
C868 C 0.1499 0.75193 0.97903 0.0
C869 C 0.19107 0.75315 0.96258 0.0
C870 C 0.17661 0.64504 0.02027 0.0
C871 C 0.11189 0.78817 0.97588 0.0
H872 H 0.9814 0.67929 0.00854 0.0
H873 H 0.05068 0.7509 0.07276 0.0
H874 H 0.06436 0.69343 0.96031 0.0
H875 H 0.09068 0.64469 0.97566 0.0
H876 H 0.0258 0.64873 0.97243 0.0
H877 H 0.1328 0.7702 0.07218 0.0
H878 H 0.17202 0.73578 0.05181 0.0
H879 H 0.14909 0.78772 0.03876 0.0
H880 H 0.25153 0.6619 0.98679 0.0
H881 H 0.19457 0.77919 0.9474 0.0
H882 H 0.14489 0.62413 0.01457 0.0
H883 H 0.16996 0.65771 0.04085 0.0
H884 H 0.20922 0.62316 0.02057 0.0
H885 H 0.07791 0.77304 0.96818 0.0
H886 H 0.12347 0.81534 0.96188 0.0
H887 H 0.10355 0.80359 -0.00439 0.0
C888 C 0.98553 0.76061 0.47748 0.0
C889 C 0.99352 0.73552 0.45404 0.0
C890 C 0.94141 0.75805 0.49122 0.0
C891 C 0.9047 0.72879 0.48171 0.0
C892 C 0.9132 0.70193 0.4587 0.0
C893 C 0.95733 0.70609 0.44489 0.0
C894 C 0.93349 0.78796 0.51534 0.0
C895 C 0.87536 0.66948 0.44841 0.0
C896 C 0.80817 0.69943 0.53286 0.0
C897 C 0.77036 0.72844 0.52546 0.0
C898 C 0.85132 0.6979 0.51814 0.0
C899 C 0.85733 0.7269 0.49584 0.0
C900 C 0.81909 0.75596 0.48807 0.0
C901 C 0.77572 0.75594 0.50279 0.0
C902 C 0.89078 0.66578 0.52674 0.0
C903 C 0.82459 0.78807 0.46474 0.0
H904 H 0.01296 0.78406 0.48443 0.0
H905 H 0.96329 0.68676 0.42675 0.0
H906 H 0.90286 0.81126 0.51148 0.0
H907 H 0.92376 0.76719 0.53305 0.0
H908 H 0.96598 0.80844 0.52033 0.0
H909 H 0.88876 0.64893 0.43134 0.0
H910 H 0.86363 0.64636 0.4647 0.0
H911 H 0.84298 0.6885 0.44176 0.0
H912 H 0.80391 0.67761 0.55017 0.0
H913 H 0.7466 0.77844 0.49706 0.0
H914 H 0.9227 0.68522 0.53374 0.0
H915 H 0.90267 0.64492 0.50949 0.0
H916 H 0.87891 0.64292 0.54315 0.0
H917 H 0.85443 0.81222 0.46883 0.0
H918 H 0.79102 0.80755 0.46081 0.0
H919 H 0.83436 0.76916 0.44634 0.0
C920 C 0.72098 0.80351 0.00121 0.0
C921 C 0.73068 0.76492 0.0165 0.0
C922 C 0.67837 0.80664 0.98602 0.0
C923 C 0.64575 0.76968 0.98556 0.0
C924 C 0.65676 0.72979 7e-05 0.0
C925 C 0.69869 0.7283 0.01587 0.0
C926 C 0.66715 0.85021 0.97155 0.0
C927 C 0.62373 0.68908 -0.00059 0.0
C928 C 0.51176 0.78258 0.9709 0.0
C929 C 0.50947 0.76925 0.94402 0.0
C930 C 0.55637 0.78542 0.98426 0.0
C931 C 0.59932 0.77294 0.97066 0.0
C932 C 0.59726 0.76064 0.94329 0.0
C933 C 0.55241 0.75966 0.93019 0.0
C934 C 0.55731 0.80022 0.0132 0.0
C935 C 0.64195 0.7458 0.9283 0.0
H936 H 0.74546 0.83213 0.00228 0.0
H937 H 0.70627 0.6987 0.02798 0.0
H938 H 0.65984 0.8436 0.95007 0.0
H939 H 0.63396 0.86546 0.98016 0.0
H940 H 0.69712 0.87513 0.9731 0.0
H941 H 0.63968 0.65945 0.00984 0.0
H942 H 0.58882 0.69738 0.00917 0.0
H943 H 0.61572 0.6795 0.97838 0.0
H944 H 0.47859 0.79005 0.9816 0.0
H945 H 0.55069 0.74866 0.90949 0.0
H946 H 0.58549 0.82646 0.01626 0.0
H947 H 0.56664 0.77106 0.02618 0.0
H948 H 0.52189 0.81391 0.01984 0.0
H949 H 0.67102 0.77147 0.93018 0.0
H950 H 0.63471 0.73993 0.90669 0.0
H951 H 0.6558 0.71397 0.9372 0.0
loop_
_geom_bond_atom_site_label_1
_geom_bond_atom_site_label_2
_geom_bond_distance
_geom_bond_site_symmetry_2
_ccdc_geom_bond_type
O0 Zn1 1.953 . S
O0 C16 1.225 . S
Zn1 O0 1.953 . S
Zn1 O2 1.949 . S
Zn1 O8 1.919 . S
Zn1 O13 1.924 . S
O2 Zn1 1.949 . S
O2 Zn3 1.923 . S
O2 Zn4 1.950 . S
O2 Zn5 1.945 . S
Zn3 O2 1.923 . S
Zn3 O6 1.933 . S
Zn3 O9 1.941 . S
Zn3 O10 1.965 . S
Zn4 O2 1.950 . S
Zn4 O11 1.938 . S
Zn4 O12 1.906 . S
Zn4 O22 1.953 . S
Zn5 O2 1.945 . S
Zn5 O7 1.932 . S
Zn5 O14 1.977 . S
Zn5 O15 1.910 . S
O6 Zn3 1.933 . S
O6 C17 1.226 . S
O7 Zn5 1.932 . S
O7 C17 1.307 . S
O8 Zn1 1.919 . S
O8 C19 1.253 . S
O9 Zn3 1.941 . S
O9 C19 1.283 . S
O10 Zn3 1.965 . S
O10 C18 1.303 . S
O11 Zn4 1.938 . S
O11 C18 1.247 . S
O12 Zn4 1.906 . S
O12 C20 1.304 . S
O13 Zn1 1.924 . S
O13 C21 1.311 . S
O14 Zn5 1.977 . S
O14 C20 1.272 . S
O15 Zn5 1.910 . S
O15 C21 1.231 . S
C16 O0 1.225 . S
C16 O22 1.298 . S
C17 O6 1.226 . S
C17 O7 1.307 . S
C18 O10 1.303 . S
C18 O11 1.247 . S
C19 O8 1.253 . S
C19 O9 1.283 . S
C20 O12 1.304 . S
C20 O14 1.272 . S
C21 O13 1.311 . S
C21 O15 1.231 . S
O22 Zn4 1.953 . S
O22 C16 1.298 . S
O23 Zn24 1.953 . S
O23 C39 1.225 . S
Zn24 O23 1.953 . S
Zn24 O25 1.949 . S
Zn24 O31 1.919 . S
Zn24 O36 1.924 . S
O25 Zn24 1.949 . S
O25 Zn26 1.923 . S
O25 Zn27 1.950 . S
O25 Zn28 1.945 . S
Zn26 O25 1.923 . S
Zn26 O29 1.933 . S
Zn26 O32 1.941 . S
Zn26 O33 1.965 . S
Zn27 O25 1.950 . S
Zn27 O34 1.938 . S
Zn27 O35 1.906 . S
Zn27 O45 1.953 . S
Zn28 O25 1.945 . S
Zn28 O30 1.932 . S
Zn28 O37 1.977 . S
Zn28 O38 1.910 . S
O29 Zn26 1.933 . S
O29 C40 1.226 . S
O30 Zn28 1.932 . S
O30 C40 1.307 . S
O31 Zn24 1.919 . S
O31 C42 1.253 . S
O32 Zn26 1.941 . S
O32 C42 1.283 . S
O33 Zn26 1.965 . S
O33 C41 1.303 . S
O34 Zn27 1.938 . S
O34 C41 1.247 . S
O35 Zn27 1.906 . S
O35 C43 1.304 . S
O36 Zn24 1.924 . S
O36 C44 1.311 . S
O37 Zn28 1.977 . S
O37 C43 1.272 . S
O38 Zn28 1.910 . S
O38 C44 1.231 . S
C39 O23 1.225 . S
C39 O45 1.298 . S
C40 O29 1.226 . S
C40 O30 1.307 . S
C41 O33 1.303 . S
C41 O34 1.247 . S
C42 O31 1.253 . S
C42 O32 1.283 . S
C43 O35 1.304 . S
C43 O37 1.272 . S
C44 O36 1.311 . S
C44 O38 1.231 . S
O45 Zn27 1.953 . S
O45 C39 1.298 . S
O46 Zn47 1.953 . S
O46 C62 1.225 . S
Zn47 O46 1.953 . S
Zn47 O48 1.949 . S
Zn47 O54 1.919 . S
Zn47 O59 1.924 . S
O48 Zn47 1.949 . S
O48 Zn49 1.923 . S
O48 Zn50 1.950 . S
O48 Zn51 1.945 . S
Zn49 O48 1.923 . S
Zn49 O52 1.933 . S
Zn49 O55 1.941 . S
Zn49 O56 1.965 . S
Zn50 O48 1.950 . S
Zn50 O57 1.938 . S
Zn50 O58 1.906 . S
Zn50 O68 1.953 . S
Zn51 O48 1.945 . S
Zn51 O53 1.932 . S
Zn51 O60 1.977 . S
Zn51 O61 1.910 . S
O52 Zn49 1.933 . S
O52 C63 1.226 . S
O53 Zn51 1.932 . S
O53 C63 1.307 . S
O54 Zn47 1.919 . S
O54 C65 1.253 . S
O55 Zn49 1.941 . S
O55 C65 1.283 . S
O56 Zn49 1.965 . S
O56 C64 1.303 . S
O57 Zn50 1.938 . S
O57 C64 1.247 . S
O58 Zn50 1.906 . S
O58 C66 1.304 . S
O59 Zn47 1.924 . S
O59 C67 1.311 . S
O60 Zn51 1.977 . S
O60 C66 1.272 . S
O61 Zn51 1.910 . S
O61 C67 1.231 . S
C62 O46 1.225 . S
C62 O68 1.298 . S
C63 O52 1.226 . S
C63 O53 1.307 . S
C64 O56 1.303 . S
C64 O57 1.247 . S
C65 O54 1.253 . S
C65 O55 1.283 . S
C66 O58 1.304 . S
C66 O60 1.272 . S
C67 O59 1.311 . S
C67 O61 1.231 . S
O68 Zn50 1.953 . S
O68 C62 1.298 . S
O69 Zn70 1.953 . S
O69 C85 1.225 . S
Zn70 O69 1.953 . S
Zn70 O71 1.949 . S
Zn70 O77 1.919 . S
Zn70 O82 1.924 . S
O71 Zn70 1.949 . S
O71 Zn72 1.923 . S
O71 Zn73 1.950 . S
O71 Zn74 1.945 . S
Zn72 O71 1.923 . S
Zn72 O75 1.933 . S
Zn72 O78 1.941 . S
Zn72 O79 1.965 . S
Zn73 O71 1.950 . S
Zn73 O80 1.938 . S
Zn73 O81 1.906 . S
Zn73 O91 1.953 . S
Zn74 O71 1.945 . S
Zn74 O76 1.932 . S
Zn74 O83 1.977 . S
Zn74 O84 1.910 . S
O75 Zn72 1.933 . S
O75 C86 1.226 . S
O76 Zn74 1.932 . S
O76 C86 1.307 . S
O77 Zn70 1.919 . S
O77 C88 1.253 . S
O78 Zn72 1.941 . S
O78 C88 1.283 . S
O79 Zn72 1.965 . S
O79 C87 1.303 . S
O80 Zn73 1.938 . S
O80 C87 1.247 . S
O81 Zn73 1.906 . S
O81 C89 1.304 . S
O82 Zn70 1.924 . S
O82 C90 1.311 . S
O83 Zn74 1.977 . S
O83 C89 1.272 . S
O84 Zn74 1.910 . S
O84 C90 1.231 . S
C85 O69 1.225 . S
C85 O91 1.298 . S
C86 O75 1.226 . S
C86 O76 1.307 . S
C87 O79 1.303 . S
C87 O80 1.247 . S
C88 O77 1.253 . S
C88 O78 1.283 . S
C89 O81 1.304 . S
C89 O83 1.272 . S
C90 O82 1.311 . S
C90 O84 1.231 . S
O91 Zn73 1.953 . S
O91 C85 1.298 . S
O92 Zn93 1.953 . S
O92 C108 1.225 . S
Zn93 O92 1.953 . S
Zn93 O94 1.949 . S
Zn93 O100 1.919 . S
Zn93 O105 1.924 . S
O94 Zn93 1.949 . S
O94 Zn95 1.923 . S
O94 Zn96 1.950 . S
O94 Zn97 1.945 . S
Zn95 O94 1.923 . S
Zn95 O98 1.933 . S
Zn95 O101 1.941 . S
Zn95 O102 1.965 . S
Zn96 O94 1.950 . S
Zn96 O103 1.938 . S
Zn96 O104 1.906 . S
Zn96 O114 1.953 . S
Zn97 O94 1.945 . S
Zn97 O99 1.932 . S
Zn97 O106 1.977 . S
Zn97 O107 1.910 . S
O98 Zn95 1.933 . S
O98 C109 1.226 . S
O99 Zn97 1.932 . S
O99 C109 1.307 . S
O100 Zn93 1.919 . S
O100 C111 1.253 . S
O101 Zn95 1.941 . S
O101 C111 1.283 . S
O102 Zn95 1.965 . S
O102 C110 1.303 . S
O103 Zn96 1.938 . S
O103 C110 1.247 . S
O104 Zn96 1.906 . S
O104 C112 1.304 . S
O105 Zn93 1.924 . S
O105 C113 1.311 . S
O106 Zn97 1.977 . S
O106 C112 1.272 . S
O107 Zn97 1.910 . S
O107 C113 1.231 . S
C108 O92 1.225 . S
C108 O114 1.298 . S
C109 O98 1.226 . S
C109 O99 1.307 . S
C110 O102 1.303 . S
C110 O103 1.247 . S
C111 O100 1.253 . S
C111 O101 1.283 . S
C112 O104 1.304 . S
C112 O106 1.272 . S
C113 O105 1.311 . S
C113 O107 1.231 . S
O114 Zn96 1.953 . S
O114 C108 1.298 . S
O115 Zn116 1.953 . S
O115 C131 1.225 . S
Zn116 O115 1.953 . S
Zn116 O117 1.949 . S
Zn116 O123 1.919 . S
Zn116 O128 1.924 . S
O117 Zn116 1.949 . S
O117 Zn118 1.923 . S
O117 Zn119 1.950 . S
O117 Zn120 1.945 . S
Zn118 O117 1.923 . S
Zn118 O121 1.933 . S
Zn118 O124 1.941 . S
Zn118 O125 1.965 . S
Zn119 O117 1.950 . S
Zn119 O126 1.938 . S
Zn119 O127 1.906 . S
Zn119 O137 1.953 . S
Zn120 O117 1.945 . S
Zn120 O122 1.932 . S
Zn120 O129 1.977 . S
Zn120 O130 1.910 . S
O121 Zn118 1.933 . S
O121 C132 1.226 . S
O122 Zn120 1.932 . S
O122 C132 1.307 . S
O123 Zn116 1.919 . S
O123 C134 1.253 . S
O124 Zn118 1.941 . S
O124 C134 1.283 . S
O125 Zn118 1.965 . S
O125 C133 1.303 . S
O126 Zn119 1.938 . S
O126 C133 1.247 . S
O127 Zn119 1.906 . S
O127 C135 1.304 . S
O128 Zn116 1.924 . S
O128 C136 1.311 . S
O129 Zn120 1.977 . S
O129 C135 1.272 . S
O130 Zn120 1.910 . S
O130 C136 1.231 . S
C131 O115 1.225 . S
C131 O137 1.298 . S
C132 O121 1.226 . S
C132 O122 1.307 . S
C133 O125 1.303 . S
C133 O126 1.247 . S
C134 O123 1.253 . S
C134 O124 1.283 . S
C135 O127 1.304 . S
C135 O129 1.272 . S
C136 O128 1.311 . S
C136 O130 1.231 . S
O137 Zn119 1.953 . S
O137 C131 1.298 . S
O138 Zn139 1.953 . S
O138 C154 1.225 . S
Zn139 O138 1.953 . S
Zn139 O140 1.949 . S
Zn139 O146 1.919 . S
Zn139 O151 1.924 . S
O140 Zn139 1.949 . S
O140 Zn141 1.923 . S
O140 Zn142 1.950 . S
O140 Zn143 1.945 . S
Zn141 O140 1.923 . S
Zn141 O144 1.933 . S
Zn141 O147 1.941 . S
Zn141 O148 1.965 . S
Zn142 O140 1.950 . S
Zn142 O149 1.938 . S
Zn142 O150 1.906 . S
Zn142 O160 1.953 . S
Zn143 O140 1.945 . S
Zn143 O145 1.932 . S
Zn143 O152 1.977 . S
Zn143 O153 1.910 . S
O144 Zn141 1.933 . S
O144 C155 1.226 . S
O145 Zn143 1.932 . S
O145 C155 1.307 . S
O146 Zn139 1.919 . S
O146 C157 1.253 . S
O147 Zn141 1.941 . S
O147 C157 1.283 . S
O148 Zn141 1.965 . S
O148 C156 1.303 . S
O149 Zn142 1.938 . S
O149 C156 1.247 . S
O150 Zn142 1.906 . S
O150 C158 1.304 . S
O151 Zn139 1.924 . S
O151 C159 1.311 . S
O152 Zn143 1.977 . S
O152 C158 1.272 . S
O153 Zn143 1.910 . S
O153 C159 1.231 . S
C154 O138 1.225 . S
C154 O160 1.298 . S
C155 O144 1.226 . S
C155 O145 1.307 . S
C156 O148 1.303 . S
C156 O149 1.247 . S
C157 O146 1.253 . S
C157 O147 1.283 . S
C158 O150 1.304 . S
C158 O152 1.272 . S
C159 O151 1.311 . S
C159 O153 1.231 . S
O160 Zn142 1.953 . S
O160 C154 1.298 . S
O161 Zn162 1.953 . S
O161 C177 1.225 . S
Zn162 O161 1.953 . S
Zn162 O163 1.949 . S
Zn162 O169 1.919 . S
Zn162 O174 1.924 . S
O163 Zn162 1.949 . S
O163 Zn164 1.923 . S
O163 Zn165 1.950 . S
O163 Zn166 1.945 . S
Zn164 O163 1.923 . S
Zn164 O167 1.933 . S
Zn164 O170 1.941 . S
Zn164 O171 1.965 . S
Zn165 O163 1.950 . S
Zn165 O172 1.938 . S
Zn165 O173 1.906 . S
Zn165 O183 1.953 . S
Zn166 O163 1.945 . S
Zn166 O168 1.932 . S
Zn166 O175 1.977 . S
Zn166 O176 1.910 . S
O167 Zn164 1.933 . S
O167 C178 1.226 . S
O168 Zn166 1.932 . S
O168 C178 1.307 . S
O169 Zn162 1.919 . S
O169 C180 1.253 . S
O170 Zn164 1.941 . S
O170 C180 1.283 . S
O171 Zn164 1.965 . S
O171 C179 1.303 . S
O172 Zn165 1.938 . S
O172 C179 1.247 . S
O173 Zn165 1.906 . S
O173 C181 1.304 . S
O174 Zn162 1.924 . S
O174 C182 1.311 . S
O175 Zn166 1.977 . S
O175 C181 1.272 . S
O176 Zn166 1.910 . S
O176 C182 1.231 . S
C177 O161 1.225 . S
C177 O183 1.298 . S
C178 O167 1.226 . S
C178 O168 1.307 . S
C179 O171 1.303 . S
C179 O172 1.247 . S
C180 O169 1.253 . S
C180 O170 1.283 . S
C181 O173 1.304 . S
C181 O175 1.272 . S
C182 O174 1.311 . S
C182 O176 1.231 . S
O183 Zn165 1.953 . S
O183 C177 1.298 . S
C184 C185 1.391 . S
C184 C186 1.394 1_565 S
C184 H200 0.931 . S
C185 C184 1.391 . S
C185 C189 1.376 . S
C186 C184 1.394 1_545 S
C186 C187 1.369 . S
C186 C190 1.531 . S
C187 C186 1.369 . S
C187 C188 1.410 . S
C187 C195 1.503 . S
C188 C187 1.410 . S
C188 C189 1.392 1_545 S
C188 C191 1.511 . S
C189 C185 1.376 . S
C189 C188 1.392 1_565 S
C189 H201 0.929 . S
C190 C186 1.531 . S
C190 H202 0.960 . S
C190 H203 0.962 . S
C190 H204 0.960 . S
C191 C188 1.511 . S
C191 H205 0.961 . S
C191 H206 0.961 . S
C191 H207 0.961 . S
C192 C193 1.370 . S
C192 C194 1.363 . S
C192 H208 0.931 . S
C193 C192 1.370 . S
C193 C197 1.408 . S
C194 C192 1.363 . S
C194 C195 1.370 . S
C194 C198 1.524 . S
C195 C187 1.503 . S
C195 C194 1.370 . S
C195 C196 1.403 . S
C196 C195 1.403 . S
C196 C197 1.404 . S
C196 C199 1.539 . S
C197 C193 1.408 . S
C197 C196 1.404 . S
C197 H209 0.930 . S
C198 C194 1.524 . S
C198 H210 0.956 . S
C198 H211 0.961 . S
C198 H212 0.961 . S
C199 C196 1.539 . S
C199 H213 0.958 . S
C199 H214 0.961 . S
C199 H215 0.960 . S
H200 C184 0.931 . S
H201 C189 0.929 . S
H202 C190 0.960 . S
H203 C190 0.962 . S
H204 C190 0.960 . S
H205 C191 0.961 . S
H206 C191 0.961 . S
H207 C191 0.961 . S
H208 C192 0.931 . S
H209 C197 0.930 . S
H210 C198 0.956 . S
H211 C198 0.961 . S
H212 C198 0.961 . S
H213 C199 0.958 . S
H214 C199 0.961 . S
H215 C199 0.960 . S
C216 C217 1.391 . S
C216 C218 1.394 . S
C216 H232 0.931 . S
C217 C216 1.391 . S
C217 C221 1.376 . S
C218 C216 1.394 . S
C218 C219 1.369 . S
C218 C222 1.531 . S
C219 C218 1.369 . S
C219 C220 1.410 . S
C219 C227 1.503 . S
C220 C219 1.410 . S
C220 C221 1.392 . S
C220 C223 1.511 . S
C221 C217 1.376 . S
C221 C220 1.392 . S
C221 H233 0.929 . S
C222 C218 1.531 . S
C222 H234 0.960 . S
C222 H235 0.962 . S
C222 H236 0.960 . S
C223 C220 1.511 . S
C223 H237 0.961 . S
C223 H238 0.961 . S
C223 H239 0.961 . S
C224 C225 1.370 . S
C224 C226 1.363 . S
C224 H240 0.931 . S
C225 C224 1.370 . S
C225 C229 1.408 . S
C226 C224 1.363 . S
C226 C227 1.370 . S
C226 C230 1.524 . S
C227 C219 1.503 . S
C227 C226 1.370 . S
C227 C228 1.403 . S
C228 C227 1.403 . S
C228 C229 1.404 . S
C228 C231 1.539 . S
C229 C225 1.408 . S
C229 C228 1.404 . S
C229 H241 0.930 . S
C230 C226 1.524 . S
C230 H242 0.956 . S
C230 H243 0.961 . S
C230 H244 0.961 . S
C231 C228 1.539 . S
C231 H245 0.958 . S
C231 H246 0.961 . S
C231 H247 0.960 . S
H232 C216 0.931 . S
H233 C221 0.929 . S
H234 C222 0.960 . S
H235 C222 0.962 . S
H236 C222 0.960 . S
H237 C223 0.961 . S
H238 C223 0.961 . S
H239 C223 0.961 . S
H240 C224 0.931 . S
H241 C229 0.930 . S
H242 C230 0.956 . S
H243 C230 0.961 . S
H244 C230 0.961 . S
H245 C231 0.958 . S
H246 C231 0.961 . S
H247 C231 0.960 . S
C248 C249 1.391 . S
C248 C250 1.394 . S
C248 H264 0.931 . S
C249 C248 1.391 . S
C249 C253 1.376 . S
C250 C248 1.394 . S
C250 C251 1.369 . S
C250 C254 1.531 . S
C251 C250 1.369 . S
C251 C252 1.410 . S
C251 C259 1.503 . S
C252 C251 1.410 . S
C252 C253 1.392 . S
C252 C255 1.511 . S
C253 C249 1.376 . S
C253 C252 1.392 . S
C253 H265 0.929 . S
C254 C250 1.531 . S
C254 H266 0.960 . S
C254 H267 0.962 . S
C254 H268 0.960 . S
C255 C252 1.511 . S
C255 H269 0.961 . S
C255 H270 0.961 . S
C255 H271 0.961 . S
C256 C257 1.370 . S
C256 C258 1.363 . S
C256 H272 0.931 . S
C257 C256 1.370 . S
C257 C261 1.408 . S
C258 C256 1.363 . S
C258 C259 1.370 . S
C258 C262 1.524 . S
C259 C251 1.503 . S
C259 C258 1.370 . S
C259 C260 1.403 . S
C260 C259 1.403 . S
C260 C261 1.404 . S
C260 C263 1.539 . S
C261 C257 1.408 . S
C261 C260 1.404 . S
C261 H273 0.930 . S
C262 C258 1.524 . S
C262 H274 0.956 . S
C262 H275 0.961 . S
C262 H276 0.961 . S
C263 C260 1.539 . S
C263 H277 0.958 . S
C263 H278 0.961 . S
C263 H279 0.960 . S
H264 C248 0.931 . S
H265 C253 0.929 . S
H266 C254 0.960 . S
H267 C254 0.962 . S
H268 C254 0.960 . S
H269 C255 0.961 . S
H270 C255 0.961 . S
H271 C255 0.961 . S
H272 C256 0.931 . S
H273 C261 0.930 . S
H274 C262 0.956 . S
H275 C262 0.961 . S
H276 C262 0.961 . S
H277 C263 0.958 . S
H278 C263 0.961 . S
H279 C263 0.960 . S
C280 C281 1.391 . S
C280 C282 1.394 . S
C280 H296 0.931 . S
C281 C280 1.391 . S
C281 C285 1.376 . S
C282 C280 1.394 . S
C282 C283 1.369 . S
C282 C286 1.531 . S
C283 C282 1.369 . S
C283 C284 1.410 . S
C283 C291 1.503 . S
C284 C283 1.410 . S
C284 C285 1.392 . S
C284 C287 1.511 . S
C285 C281 1.376 . S
C285 C284 1.392 . S
C285 H297 0.929 . S
C286 C282 1.531 . S
C286 H298 0.960 . S
C286 H299 0.962 . S
C286 H300 0.960 . S
C287 C284 1.511 . S
C287 H301 0.961 . S
C287 H302 0.961 . S
C287 H303 0.961 . S
C288 C289 1.370 . S
C288 C290 1.363 1_565 S
C288 H304 0.931 . S
C289 C288 1.370 . S
C289 C293 1.408 . S
C290 C288 1.363 1_545 S
C290 C291 1.370 . S
C290 C294 1.524 . S
C291 C283 1.503 . S
C291 C290 1.370 . S
C291 C292 1.403 . S
C292 C291 1.403 . S
C292 C293 1.404 1_545 S
C292 C295 1.539 . S
C293 C289 1.408 . S
C293 C292 1.404 1_565 S
C293 H305 0.930 . S
C294 C290 1.524 . S
C294 H306 0.956 . S
C294 H307 0.961 . S
C294 H308 0.961 . S
C295 C292 1.539 . S
C295 H309 0.958 . S
C295 H310 0.961 1_545 S
C295 H311 0.960 . S
H296 C280 0.931 . S
H297 C285 0.929 . S
H298 C286 0.960 . S
H299 C286 0.962 . S
H300 C286 0.960 . S
H301 C287 0.961 . S
H302 C287 0.961 . S
H303 C287 0.961 . S
H304 C288 0.931 . S
H305 C293 0.930 . S
H306 C294 0.956 . S
H307 C294 0.961 . S
H308 C294 0.961 . S
H309 C295 0.958 . S
H310 C295 0.961 1_565 S
H311 C295 0.960 . S
C312 C313 1.391 . S
C312 C314 1.394 1_545 S
C312 H328 0.931 . S
C313 C312 1.391 . S
C313 C317 1.376 . S
C314 C312 1.394 1_565 S
C314 C315 1.369 . S
C314 C318 1.531 . S
C315 C314 1.369 . S
C315 C316 1.410 . S
C315 C323 1.503 . S
C316 C315 1.410 . S
C316 C317 1.392 1_565 S
C316 C319 1.511 . S
C317 C313 1.376 . S
C317 C316 1.392 1_545 S
C317 H329 0.929 . S
C318 C314 1.531 . S
C318 H330 0.960 . S
C318 H331 0.962 . S
C318 H332 0.960 . S
C319 C316 1.511 . S
C319 H333 0.961 . S
C319 H334 0.961 . S
C319 H335 0.961 . S
C320 C321 1.370 . S
C320 C322 1.363 . S
C320 H336 0.931 . S
C321 C320 1.370 . S
C321 C325 1.408 . S
C322 C320 1.363 . S
C322 C323 1.370 . S
C322 C326 1.524 . S
C323 C315 1.503 . S
C323 C322 1.370 . S
C323 C324 1.403 . S
C324 C323 1.403 . S
C324 C325 1.404 . S
C324 C327 1.539 . S
C325 C321 1.408 . S
C325 C324 1.404 . S
C325 H337 0.930 . S
C326 C322 1.524 . S
C326 H338 0.956 . S
C326 H339 0.961 . S
C326 H340 0.961 . S
C327 C324 1.539 . S
C327 H341 0.958 . S
C327 H342 0.961 . S
C327 H343 0.960 . S
H328 C312 0.931 . S
H329 C317 0.929 . S
H330 C318 0.960 . S
H331 C318 0.962 . S
H332 C318 0.960 . S
H333 C319 0.961 . S
H334 C319 0.961 . S
H335 C319 0.961 . S
H336 C320 0.931 . S
H337 C325 0.930 . S
H338 C326 0.956 . S
H339 C326 0.961 . S
H340 C326 0.961 . S
H341 C327 0.958 . S
H342 C327 0.961 . S
H343 C327 0.960 . S
C344 C345 1.391 . S
C344 C346 1.394 . S
C344 H360 0.931 . S
C345 C344 1.391 . S
C345 C349 1.376 . S
C346 C344 1.394 . S
C346 C347 1.369 . S
C346 C350 1.531 . S
C347 C346 1.369 . S
C347 C348 1.410 . S
C347 C355 1.503 . S
C348 C347 1.410 . S
C348 C349 1.392 . S
C348 C351 1.511 . S
C349 C345 1.376 . S
C349 C348 1.392 . S
C349 H361 0.929 . S
C350 C346 1.531 . S
C350 H362 0.960 . S
C350 H363 0.962 . S
C350 H364 0.960 . S
C351 C348 1.511 . S
C351 H365 0.961 . S
C351 H366 0.961 . S
C351 H367 0.961 . S
C352 C353 1.370 . S
C352 C354 1.363 . S
C352 H368 0.931 . S
C353 C352 1.370 . S
C353 C357 1.408 . S
C354 C352 1.363 . S
C354 C355 1.370 . S
C354 C358 1.524 . S
C355 C347 1.503 . S
C355 C354 1.370 . S
C355 C356 1.403 . S
C356 C355 1.403 . S
C356 C357 1.404 . S
C356 C359 1.539 . S
C357 C353 1.408 . S
C357 C356 1.404 . S
C357 H369 0.930 . S
C358 C354 1.524 . S
C358 H370 0.956 . S
C358 H371 0.961 . S
C358 H372 0.961 . S
C359 C356 1.539 . S
C359 H373 0.958 . S
C359 H374 0.961 . S
C359 H375 0.960 . S
H360 C344 0.931 . S
H361 C349 0.929 . S
H362 C350 0.960 . S
H363 C350 0.962 . S
H364 C350 0.960 . S
H365 C351 0.961 . S
H366 C351 0.961 . S
H367 C351 0.961 . S
H368 C352 0.931 . S
H369 C357 0.930 . S
H370 C358 0.956 . S
H371 C358 0.961 . S
H372 C358 0.961 . S
H373 C359 0.958 . S
H374 C359 0.961 . S
H375 C359 0.960 . S
C376 C377 1.391 . S
C376 C378 1.394 . S
C376 H392 0.931 . S
C377 C376 1.391 . S
C377 C381 1.376 . S
C378 C376 1.394 . S
C378 C379 1.369 . S
C378 C382 1.531 . S
C379 C378 1.369 . S
C379 C380 1.410 . S
C379 C387 1.503 . S
C380 C379 1.410 . S
C380 C381 1.392 . S
C380 C383 1.511 . S
C381 C377 1.376 . S
C381 C380 1.392 . S
C381 H393 0.929 . S
C382 C378 1.531 . S
C382 H394 0.960 . S
C382 H395 0.962 . S
C382 H396 0.960 . S
C383 C380 1.511 . S
C383 H397 0.961 . S
C383 H398 0.961 . S
C383 H399 0.961 . S
C384 C385 1.370 . S
C384 C386 1.363 . S
C384 H400 0.931 . S
C385 C384 1.370 . S
C385 C389 1.408 . S
C386 C384 1.363 . S
C386 C387 1.370 . S
C386 C390 1.524 . S
C387 C379 1.503 . S
C387 C386 1.370 . S
C387 C388 1.403 . S
C388 C387 1.403 . S
C388 C389 1.404 . S
C388 C391 1.539 . S
C389 C385 1.408 . S
C389 C388 1.404 . S
C389 H401 0.930 . S
C390 C386 1.524 . S
C390 H402 0.956 . S
C390 H403 0.961 . S
C390 H404 0.961 . S
C391 C388 1.539 . S
C391 H405 0.958 . S
C391 H406 0.961 . S
C391 H407 0.960 . S
H392 C376 0.931 . S
H393 C381 0.929 . S
H394 C382 0.960 . S
H395 C382 0.962 . S
H396 C382 0.960 . S
H397 C383 0.961 . S
H398 C383 0.961 . S
H399 C383 0.961 . S
H400 C384 0.931 . S
H401 C389 0.930 . S
H402 C390 0.956 . S
H403 C390 0.961 . S
H404 C390 0.961 . S
H405 C391 0.958 . S
H406 C391 0.961 . S
H407 C391 0.960 . S
C408 C409 1.391 . S
C408 C410 1.394 1_545 S
C408 H424 0.931 . S
C409 C408 1.391 . S
C409 C413 1.376 . S
C410 C408 1.394 1_565 S
C410 C411 1.369 . S
C410 C414 1.531 . S
C411 C410 1.369 . S
C411 C412 1.410 . S
C411 C419 1.503 . S
C412 C411 1.410 . S
C412 C413 1.392 1_565 S
C412 C415 1.511 . S
C413 C409 1.376 . S
C413 C412 1.392 1_545 S
C413 H425 0.929 . S
C414 C410 1.531 . S
C414 H426 0.960 . S
C414 H427 0.962 . S
C414 H428 0.960 . S
C415 C412 1.511 . S
C415 H429 0.961 . S
C415 H430 0.961 . S
C415 H431 0.961 . S
C416 C417 1.370 . S
C416 C418 1.363 . S
C416 H432 0.931 . S
C417 C416 1.370 . S
C417 C421 1.408 . S
C418 C416 1.363 . S
C418 C419 1.370 . S
C418 C422 1.524 . S
C419 C411 1.503 . S
C419 C418 1.370 . S
C419 C420 1.403 . S
C420 C419 1.403 . S
C420 C421 1.404 . S
C420 C423 1.539 . S
C421 C417 1.408 . S
C421 C420 1.404 . S
C421 H433 0.930 . S
C422 C418 1.524 . S
C422 H434 0.956 . S
C422 H435 0.961 . S
C422 H436 0.961 . S
C423 C420 1.539 . S
C423 H437 0.958 . S
C423 H438 0.961 . S
C423 H439 0.960 . S
H424 C408 0.931 . S
H425 C413 0.929 . S
H426 C414 0.960 . S
H427 C414 0.962 . S
H428 C414 0.960 . S
H429 C415 0.961 . S
H430 C415 0.961 . S
H431 C415 0.961 . S
H432 C416 0.931 . S
H433 C421 0.930 . S
H434 C422 0.956 . S
H435 C422 0.961 . S
H436 C422 0.961 . S
H437 C423 0.958 . S
H438 C423 0.961 . S
H439 C423 0.960 . S
C440 C441 1.391 . S
C440 C442 1.394 . S
C440 H456 0.931 . S
C441 C440 1.391 . S
C441 C445 1.376 . S
C442 C440 1.394 . S
C442 C443 1.369 . S
C442 C446 1.531 . S
C443 C442 1.369 . S
C443 C444 1.410 . S
C443 C451 1.503 . S
C444 C443 1.410 . S
C444 C445 1.392 . S
C444 C447 1.511 . S
C445 C441 1.376 . S
C445 C444 1.392 . S
C445 H457 0.929 . S
C446 C442 1.531 . S
C446 H458 0.960 . S
C446 H459 0.962 . S
C446 H460 0.960 . S
C447 C444 1.511 . S
C447 H461 0.961 . S
C447 H462 0.961 . S
C447 H463 0.961 . S
C448 C449 1.370 . S
C448 C450 1.363 . S
C448 H464 0.931 . S
C449 C448 1.370 . S
C449 C453 1.408 . S
C450 C448 1.363 . S
C450 C451 1.370 . S
C450 C454 1.524 . S
C451 C443 1.503 . S
C451 C450 1.370 . S
C451 C452 1.403 . S
C452 C451 1.403 . S
C452 C453 1.404 . S
C452 C455 1.539 . S
C453 C449 1.408 . S
C453 C452 1.404 . S
C453 H465 0.930 . S
C454 C450 1.524 . S
C454 H466 0.956 . S
C454 H467 0.961 . S
C454 H468 0.961 . S
C455 C452 1.539 . S
C455 H469 0.958 . S
C455 H470 0.961 . S
C455 H471 0.960 . S
H456 C440 0.931 . S
H457 C445 0.929 . S
H458 C446 0.960 . S
H459 C446 0.962 . S
H460 C446 0.960 . S
H461 C447 0.961 . S
H462 C447 0.961 . S
H463 C447 0.961 . S
H464 C448 0.931 . S
H465 C453 0.930 . S
H466 C454 0.956 . S
H467 C454 0.961 . S
H468 C454 0.961 . S
H469 C455 0.958 . S
H470 C455 0.961 . S
H471 C455 0.960 . S
C472 C473 1.391 . S
C472 C474 1.394 1_565 S
C472 H488 0.931 . S
C473 C472 1.391 . S
C473 C477 1.375 . S
C474 C472 1.394 1_545 S
C474 C475 1.369 1_545 S
C474 C478 1.531 . S
C475 C474 1.369 1_565 S
C475 C476 1.410 1_655 S
C475 C483 1.503 1_664 S
C476 C475 1.410 1_455 S
C476 C477 1.393 1_455 S
C476 C479 1.511 . S
C477 C473 1.375 . S
C477 C476 1.393 1_655 S
C477 H489 0.929 1_655 S
C478 C474 1.531 . S
C478 H490 0.960 . S
C478 H491 0.962 . S
C478 H492 0.960 . S
C479 C476 1.511 . S
C479 H493 0.961 . S
C479 H494 0.961 1_554 S
C479 H495 0.961 . S
C480 C481 1.370 . S
C480 C482 1.363 1_455 S
C480 H496 0.931 1_455 S
C481 C480 1.370 . S
C481 C485 1.408 . S
C482 C480 1.363 1_655 S
C482 C483 1.370 1_655 S
C482 C486 1.524 1_545 S
C483 C475 1.503 1_446 S
C483 C482 1.370 1_455 S
C483 C484 1.403 . S
C484 C483 1.403 . S
C484 C485 1.404 . S
C484 C487 1.539 1_556 S
C485 C481 1.408 . S
C485 C484 1.404 . S
C485 H497 0.930 . S
C486 C482 1.524 1_565 S
C486 H498 0.956 . S
C486 H499 0.961 . S
C486 H500 0.961 . S
C487 C484 1.539 1_554 S
C487 H501 0.958 . S
C487 H502 0.961 . S
C487 H503 0.960 . S
H488 C472 0.931 . S
H489 C477 0.929 1_455 S
H490 C478 0.960 . S
H491 C478 0.962 . S
H492 C478 0.960 . S
H493 C479 0.961 . S
H494 C479 0.961 1_556 S
H495 C479 0.961 . S
H496 C480 0.931 1_655 S
H497 C485 0.930 . S
H498 C486 0.956 . S
H499 C486 0.961 . S
H500 C486 0.961 . S
H501 C487 0.958 . S
H502 C487 0.961 . S
H503 C487 0.960 . S
C504 C505 1.391 . S
C504 C506 1.394 . S
C504 H520 0.931 . S
C505 C504 1.391 . S
C505 C509 1.376 1_655 S
C506 C504 1.394 . S
C506 C507 1.369 . S
C506 C510 1.531 . S
C507 C506 1.369 . S
C507 C508 1.410 1_655 S
C507 C515 1.503 1_645 S
C508 C507 1.410 1_455 S
C508 C509 1.392 . S
C508 C511 1.511 . S
C509 C505 1.376 1_455 S
C509 C508 1.392 . S
C509 H521 0.929 . S
C510 C506 1.531 . S
C510 H522 0.960 . S
C510 H523 0.962 . S
C510 H524 0.960 . S
C511 C508 1.511 . S
C511 H525 0.961 1_545 S
C511 H526 0.961 1_545 S
C511 H527 0.961 . S
C512 C513 1.370 . S
C512 C514 1.357 1_455 S
C512 H528 0.931 . S
C513 C512 1.370 . S
C513 C517 1.408 . S
C514 C512 1.357 1_655 S
C514 C515 1.365 1_655 S
C514 C518 1.536 . S
C515 C507 1.503 1_465 S
C515 C514 1.365 1_455 S
C515 C516 1.403 1_565 S
C516 C515 1.403 1_545 S
C516 C517 1.404 1_545 S
C516 C519 1.539 . S
C517 C513 1.408 . S
C517 C516 1.404 1_565 S
C517 H529 0.930 . S
C518 C514 1.536 . S
C518 H530 0.956 . S
C518 H531 0.961 . S
C518 H532 0.961 . S
C519 C516 1.539 . S
C519 H533 0.958 . S
C519 H534 0.961 . S
C519 H535 0.960 . S
H520 C504 0.931 . S
H521 C509 0.929 . S
H522 C510 0.960 . S
H523 C510 0.962 . S
H524 C510 0.960 . S
H525 C511 0.961 1_565 S
H526 C511 0.961 1_565 S
H527 C511 0.961 . S
H528 C512 0.931 . S
H529 C517 0.930 . S
H530 C518 0.956 . S
H531 C518 0.961 . S
H532 C518 0.961 . S
H533 C519 0.958 . S
H534 C519 0.961 . S
H535 C519 0.960 . S
C536 C537 1.391 . S
C536 C538 1.394 . S
C536 H552 0.931 . S
C537 C536 1.391 . S
C537 C541 1.376 . S
C538 C536 1.394 . S
C538 C539 1.369 . S
C538 C542 1.531 . S
C539 C538 1.369 . S
C539 C540 1.410 . S
C539 C547 1.503 1_556 S
C540 C539 1.410 . S
C540 C541 1.392 . S
C540 C543 1.511 1_556 S
C541 C537 1.376 . S
C541 C540 1.392 . S
C541 H553 0.929 . S
C542 C538 1.531 . S
C542 H554 0.960 . S
C542 H555 0.962 . S
C542 H556 0.960 . S
C543 C540 1.511 1_554 S
C543 H557 0.961 . S
C543 H558 0.961 . S
C543 H559 0.961 . S
C544 C545 1.370 . S
C544 C546 1.363 . S
C544 H560 0.931 . S
C545 C544 1.370 . S
C545 C549 1.408 . S
C546 C544 1.363 . S
C546 C547 1.370 . S
C546 C550 1.524 1_554 S
C547 C539 1.503 1_554 S
C547 C546 1.370 . S
C547 C548 1.403 . S
C548 C547 1.403 . S
C548 C549 1.404 . S
C548 C551 1.539 . S
C549 C545 1.408 . S
C549 C548 1.404 . S
C549 H561 0.930 . S
C550 C546 1.524 1_556 S
C550 H562 0.956 . S
C550 H563 0.961 . S
C550 H564 0.961 . S
C551 C548 1.539 . S
C551 H565 0.958 . S
C551 H566 0.961 . S
C551 H567 0.960 . S
H552 C536 0.931 . S
H553 C541 0.929 . S
H554 C542 0.960 . S
H555 C542 0.962 . S
H556 C542 0.960 . S
H557 C543 0.961 . S
H558 C543 0.961 . S
H559 C543 0.961 . S
H560 C544 0.931 . S
H561 C549 0.930 . S
H562 C550 0.956 . S
H563 C550 0.961 . S
H564 C550 0.961 . S
H565 C551 0.958 . S
H566 C551 0.961 . S
H567 C551 0.960 . S
C568 C569 1.391 . S
C568 C570 1.394 . S
C568 H584 0.931 . S
C569 C568 1.391 . S
C569 C573 1.376 . S
C570 C568 1.394 . S
C570 C571 1.369 . S
C570 C574 1.531 . S
C571 C570 1.369 . S
C571 C572 1.410 . S
C571 C579 1.503 . S
C572 C571 1.410 . S
C572 C573 1.392 . S
C572 C575 1.511 . S
C573 C569 1.376 . S
C573 C572 1.392 . S
C573 H585 0.929 . S
C574 C570 1.531 . S
C574 H586 0.960 . S
C574 H587 0.962 . S
C574 H588 0.960 . S
C575 C572 1.511 . S
C575 H589 0.961 . S
C575 H590 0.961 . S
C575 H591 0.961 . S
C576 C577 1.370 . S
C576 C578 1.363 . S
C576 H592 0.931 . S
C577 C576 1.370 . S
C577 C581 1.408 . S
C578 C576 1.363 . S
C578 C579 1.370 . S
C578 C582 1.524 . S
C579 C571 1.503 . S
C579 C578 1.370 . S
C579 C580 1.403 . S
C580 C579 1.403 . S
C580 C581 1.404 . S
C580 C583 1.539 . S
C581 C577 1.408 . S
C581 C580 1.404 . S
C581 H593 0.930 . S
C582 C578 1.524 . S
C582 H594 0.956 . S
C582 H595 0.961 . S
C582 H596 0.961 . S
C583 C580 1.539 . S
C583 H597 0.958 . S
C583 H598 0.961 . S
C583 H599 0.960 . S
H584 C568 0.931 . S
H585 C573 0.929 . S
H586 C574 0.960 . S
H587 C574 0.962 . S
H588 C574 0.960 . S
H589 C575 0.961 . S
H590 C575 0.961 . S
H591 C575 0.961 . S
H592 C576 0.931 . S
H593 C581 0.930 . S
H594 C582 0.956 . S
H595 C582 0.961 . S
H596 C582 0.961 . S
H597 C583 0.958 . S
H598 C583 0.961 . S
H599 C583 0.960 . S
C600 C601 1.391 1_655 S
C600 C602 1.394 . S
C600 H616 0.931 . S
C601 C600 1.391 1_455 S
C601 C605 1.376 . S
C602 C600 1.394 . S
C602 C603 1.369 1_655 S
C602 C606 1.531 . S
C603 C602 1.369 1_455 S
C603 C604 1.410 . S
C603 C611 1.503 1_455 S
C604 C603 1.410 . S
C604 C605 1.392 . S
C604 C607 1.511 . S
C605 C601 1.376 . S
C605 C604 1.392 . S
C605 H617 0.929 . S
C606 C602 1.531 . S
C606 H618 0.960 . S
C606 H619 0.962 . S
C606 H620 0.960 . S
C607 C604 1.511 . S
C607 H621 0.961 . S
C607 H622 0.961 . S
C607 H623 0.961 . S
C608 C609 1.370 . S
C608 C610 1.363 . S
C608 H624 0.931 . S
C609 C608 1.370 . S
C609 C613 1.408 . S
C610 C608 1.363 . S
C610 C611 1.370 . S
C610 C614 1.524 . S
C611 C603 1.503 1_655 S
C611 C610 1.370 . S
C611 C612 1.403 . S
C612 C611 1.403 . S
C612 C613 1.404 . S
C612 C615 1.539 1_655 S
C613 C609 1.408 . S
C613 C612 1.404 . S
C613 H625 0.930 . S
C614 C610 1.524 . S
C614 H626 0.956 . S
C614 H627 0.961 1_655 S
C614 H628 0.961 . S
C615 C612 1.539 1_455 S
C615 H629 0.958 1_455 S
C615 H630 0.961 . S
C615 H631 0.960 . S
H616 C600 0.931 . S
H617 C605 0.929 . S
H618 C606 0.960 . S
H619 C606 0.962 . S
H620 C606 0.960 . S
H621 C607 0.961 . S
H622 C607 0.961 . S
H623 C607 0.961 . S
H624 C608 0.931 . S
H625 C613 0.930 . S
H626 C614 0.956 . S
H627 C614 0.961 1_455 S
H628 C614 0.961 . S
H629 C615 0.958 1_655 S
H630 C615 0.961 . S
H631 C615 0.960 . S
C632 C633 1.391 . S
C632 C634 1.394 . S
C632 H648 0.931 . S
C633 C632 1.391 . S
C633 C637 1.376 . S
C634 C632 1.394 . S
C634 C635 1.369 . S
C634 C638 1.531 . S
C635 C634 1.369 . S
C635 C636 1.410 . S
C635 C643 1.503 . S
C636 C635 1.410 . S
C636 C637 1.392 . S
C636 C639 1.511 . S
C637 C633 1.376 . S
C637 C636 1.392 . S
C637 H649 0.929 . S
C638 C634 1.531 . S
C638 H650 0.960 . S
C638 H651 0.962 . S
C638 H652 0.960 . S
C639 C636 1.511 . S
C639 H653 0.961 . S
C639 H654 0.961 . S
C639 H655 0.961 . S
C640 C641 1.370 . S
C640 C642 1.363 . S
C640 H656 0.931 . S
C641 C640 1.370 . S
C641 C645 1.408 . S
C642 C640 1.363 . S
C642 C643 1.370 . S
C642 C646 1.524 . S
C643 C635 1.503 . S
C643 C642 1.370 . S
C643 C644 1.403 . S
C644 C643 1.403 . S
C644 C645 1.404 . S
C644 C647 1.539 . S
C645 C641 1.408 . S
C645 C644 1.404 . S
C645 H657 0.930 . S
C646 C642 1.524 . S
C646 H658 0.956 . S
C646 H659 0.961 . S
C646 H660 0.961 . S
C647 C644 1.539 . S
C647 H661 0.958 . S
C647 H662 0.961 . S
C647 H663 0.960 . S
H648 C632 0.931 . S
H649 C637 0.929 . S
H650 C638 0.960 . S
H651 C638 0.962 . S
H652 C638 0.960 . S
H653 C639 0.961 . S
H654 C639 0.961 . S
H655 C639 0.961 . S
H656 C640 0.931 . S
H657 C645 0.930 . S
H658 C646 0.956 . S
H659 C646 0.961 . S
H660 C646 0.961 . S
H661 C647 0.958 . S
H662 C647 0.961 . S
H663 C647 0.960 . S
C664 C665 1.391 . S
C664 C666 1.394 . S
C664 H680 0.931 . S
C665 C664 1.391 . S
C665 C669 1.376 1_655 S
C666 C664 1.394 . S
C666 C667 1.369 . S
C666 C670 1.531 . S
C667 C666 1.369 . S
C667 C668 1.410 1_655 S
C667 C675 1.503 1_655 S
C668 C667 1.410 1_455 S
C668 C669 1.392 . S
C668 C671 1.511 . S
C669 C665 1.376 1_455 S
C669 C668 1.392 . S
C669 H681 0.929 . S
C670 C666 1.531 . S
C670 H682 0.960 . S
C670 H683 0.962 . S
C670 H684 0.960 . S
C671 C668 1.511 . S
C671 H685 0.961 . S
C671 H686 0.961 . S
C671 H687 0.961 . S
C672 C673 1.370 . S
C672 C674 1.363 1_455 S
C672 H688 0.931 1_455 S
C673 C672 1.370 . S
C673 C677 1.408 . S
C674 C672 1.363 1_655 S
C674 C675 1.370 1_655 S
C674 C678 1.524 . S
C675 C667 1.503 1_455 S
C675 C674 1.370 1_455 S
C675 C676 1.403 . S
C676 C675 1.403 . S
C676 C677 1.404 . S
C676 C679 1.539 . S
C677 C673 1.408 . S
C677 C676 1.404 . S
C677 H689 0.930 . S
C678 C674 1.524 . S
C678 H690 0.956 . S
C678 H691 0.961 . S
C678 H692 0.961 . S
C679 C676 1.539 . S
C679 H693 0.958 . S
C679 H694 0.961 . S
C679 H695 0.960 . S
H680 C664 0.931 . S
H681 C669 0.929 . S
H682 C670 0.960 . S
H683 C670 0.962 . S
H684 C670 0.960 . S
H685 C671 0.961 . S
H686 C671 0.961 . S
H687 C671 0.961 . S
H688 C672 0.931 1_655 S
H689 C677 0.930 . S
H690 C678 0.956 . S
H691 C678 0.961 . S
H692 C678 0.961 . S
H693 C679 0.958 . S
H694 C679 0.961 . S
H695 C679 0.960 . S
C696 C697 1.391 . S
C696 C698 1.394 . S
C696 H712 0.931 . S
C697 C696 1.391 . S
C697 C701 1.376 . S
C698 C696 1.394 . S
C698 C699 1.369 . S
C698 C702 1.531 . S
C699 C698 1.369 . S
C699 C700 1.410 . S
C699 C707 1.503 . S
C700 C699 1.410 . S
C700 C701 1.392 . S
C700 C703 1.511 . S
C701 C697 1.376 . S
C701 C700 1.392 . S
C701 H713 0.929 . S
C702 C698 1.531 . S
C702 H714 0.960 . S
C702 H715 0.962 . S
C702 H716 0.960 . S
C703 C700 1.511 . S
C703 H717 0.961 . S
C703 H718 0.961 . S
C703 H719 0.961 . S
C704 C705 1.370 . S
C704 C706 1.363 . S
C704 H720 0.931 . S
C705 C704 1.370 . S
C705 C709 1.408 . S
C706 C704 1.363 . S
C706 C707 1.370 . S
C706 C710 1.524 . S
C707 C699 1.503 . S
C707 C706 1.370 . S
C707 C708 1.403 . S
C708 C707 1.403 . S
C708 C709 1.404 . S
C708 C711 1.539 . S
C709 C705 1.408 . S
C709 C708 1.404 . S
C709 H721 0.930 . S
C710 C706 1.524 . S
C710 H722 0.956 . S
C710 H723 0.961 . S
C710 H724 0.961 . S
C711 C708 1.539 . S
C711 H725 0.958 . S
C711 H726 0.961 . S
C711 H727 0.960 . S
H712 C696 0.931 . S
H713 C701 0.929 . S
H714 C702 0.960 . S
H715 C702 0.962 . S
H716 C702 0.960 . S
H717 C703 0.961 . S
H718 C703 0.961 . S
H719 C703 0.961 . S
H720 C704 0.931 . S
H721 C709 0.930 . S
H722 C710 0.956 . S
H723 C710 0.961 . S
H724 C710 0.961 . S
H725 C711 0.958 . S
H726 C711 0.961 . S
H727 C711 0.960 . S
C728 C729 1.391 . S
C728 C730 1.394 . S
C728 H744 0.931 . S
C729 C728 1.391 . S
C729 C733 1.376 . S
C730 C728 1.394 . S
C730 C731 1.369 . S
C730 C734 1.531 1_556 S
C731 C730 1.369 . S
C731 C732 1.410 . S
C731 C739 1.503 . S
C732 C731 1.410 . S
C732 C733 1.392 . S
C732 C735 1.511 . S
C733 C729 1.376 . S
C733 C732 1.392 . S
C733 H745 0.929 . S
C734 C730 1.531 1_554 S
C734 H746 0.960 . S
C734 H747 0.962 . S
C734 H748 0.960 . S
C735 C732 1.511 . S
C735 H749 0.961 . S
C735 H750 0.961 . S
C735 H751 0.961 . S
C736 C737 1.370 . S
C736 C738 1.363 1_554 S
C736 H752 0.931 . S
C737 C736 1.370 . S
C737 C741 1.408 . S
C738 C736 1.363 1_556 S
C738 C739 1.370 . S
C738 C742 1.524 . S
C739 C731 1.503 . S
C739 C738 1.370 . S
C739 C740 1.403 1_556 S
C740 C739 1.403 1_554 S
C740 C741 1.404 . S
C740 C743 1.539 . S
C741 C737 1.408 . S
C741 C740 1.404 . S
C741 H753 0.930 . S
C742 C738 1.524 . S
C742 H754 0.956 . S
C742 H755 0.961 . S
C742 H756 0.961 . S
C743 C740 1.539 . S
C743 H757 0.958 . S
C743 H758 0.961 . S
C743 H759 0.960 1_554 S
H744 C728 0.931 . S
H745 C733 0.929 . S
H746 C734 0.960 . S
H747 C734 0.962 . S
H748 C734 0.960 . S
H749 C735 0.961 . S
H750 C735 0.961 . S
H751 C735 0.961 . S
H752 C736 0.931 . S
H753 C741 0.930 . S
H754 C742 0.956 . S
H755 C742 0.961 . S
H756 C742 0.961 . S
H757 C743 0.958 . S
H758 C743 0.961 . S
H759 C743 0.960 1_556 S
C760 C761 1.391 . S
C760 C762 1.394 . S
C760 H776 0.931 . S
C761 C760 1.391 . S
C761 C765 1.376 . S
C762 C760 1.394 . S
C762 C763 1.369 . S
C762 C766 1.531 . S
C763 C762 1.369 . S
C763 C764 1.410 . S
C763 C771 1.503 . S
C764 C763 1.410 . S
C764 C765 1.392 . S
C764 C767 1.511 . S
C765 C761 1.376 . S
C765 C764 1.392 . S
C765 H777 0.929 . S
C766 C762 1.531 . S
C766 H778 0.960 . S
C766 H779 0.962 . S
C766 H780 0.960 . S
C767 C764 1.511 . S
C767 H781 0.961 . S
C767 H782 0.961 . S
C767 H783 0.961 . S
C768 C769 1.370 . S
C768 C770 1.363 . S
C768 H784 0.931 . S
C769 C768 1.370 . S
C769 C773 1.408 . S
C770 C768 1.363 . S
C770 C771 1.370 . S
C770 C774 1.524 . S
C771 C763 1.503 . S
C771 C770 1.370 . S
C771 C772 1.403 . S
C772 C771 1.403 . S
C772 C773 1.404 . S
C772 C775 1.539 . S
C773 C769 1.408 . S
C773 C772 1.404 . S
C773 H785 0.930 . S
C774 C770 1.524 . S
C774 H786 0.956 . S
C774 H787 0.961 . S
C774 H788 0.961 . S
C775 C772 1.539 . S
C775 H789 0.958 . S
C775 H790 0.961 . S
C775 H791 0.960 . S
H776 C760 0.931 . S
H777 C765 0.929 . S
H778 C766 0.960 . S
H779 C766 0.962 . S
H780 C766 0.960 . S
H781 C767 0.961 . S
H782 C767 0.961 . S
H783 C767 0.961 . S
H784 C768 0.931 . S
H785 C773 0.930 . S
H786 C774 0.956 . S
H787 C774 0.961 . S
H788 C774 0.961 . S
H789 C775 0.958 . S
H790 C775 0.961 . S
H791 C775 0.960 . S
C792 C793 1.391 . S
C792 C794 1.394 . S
C792 H808 0.931 . S
C793 C792 1.391 . S
C793 C797 1.376 . S
C794 C792 1.394 . S
C794 C795 1.369 . S
C794 C798 1.531 1_554 S
C795 C794 1.369 . S
C795 C796 1.410 . S
C795 C803 1.503 . S
C796 C795 1.410 . S
C796 C797 1.392 . S
C796 C799 1.511 . S
C797 C793 1.376 . S
C797 C796 1.392 . S
C797 H809 0.929 . S
C798 C794 1.531 1_556 S
C798 H810 0.960 . S
C798 H811 0.962 . S
C798 H812 0.960 . S
C799 C796 1.511 . S
C799 H813 0.961 . S
C799 H814 0.961 . S
C799 H815 0.961 . S
C800 C801 1.370 . S
C800 C802 1.363 . S
C800 H816 0.931 . S
C801 C800 1.370 . S
C801 C805 1.408 . S
C802 C800 1.363 . S
C802 C803 1.370 1_556 S
C802 C806 1.524 1_556 S
C803 C795 1.503 . S
C803 C802 1.370 1_554 S
C803 C804 1.403 1_554 S
C804 C803 1.403 1_556 S
C804 C805 1.404 . S
C804 C807 1.539 1_556 S
C805 C801 1.408 . S
C805 C804 1.404 . S
C805 H817 0.930 . S
C806 C802 1.524 1_554 S
C806 H818 0.956 1_554 S
C806 H819 0.961 . S
C806 H820 0.961 . S
C807 C804 1.539 1_554 S
C807 H821 0.958 1_554 S
C807 H822 0.961 . S
C807 H823 0.960 . S
H808 C792 0.931 . S
H809 C797 0.929 . S
H810 C798 0.960 . S
H811 C798 0.962 . S
H812 C798 0.960 . S
H813 C799 0.961 . S
H814 C799 0.961 . S
H815 C799 0.961 . S
H816 C800 0.931 . S
H817 C805 0.930 . S
H818 C806 0.956 1_556 S
H819 C806 0.961 . S
H820 C806 0.961 . S
H821 C807 0.958 1_556 S
H822 C807 0.961 . S
H823 C807 0.960 . S
C824 C825 1.391 . S
C824 C826 1.394 . S
C824 H840 0.931 . S
C825 C824 1.391 . S
C825 C829 1.376 . S
C826 C824 1.394 . S
C826 C827 1.369 . S
C826 C830 1.531 . S
C827 C826 1.369 . S
C827 C828 1.410 . S
C827 C835 1.503 . S
C828 C827 1.410 . S
C828 C829 1.392 . S
C828 C831 1.511 . S
C829 C825 1.376 . S
C829 C828 1.392 . S
C829 H841 0.929 . S
C830 C826 1.531 . S
C830 H842 0.960 . S
C830 H843 0.962 . S
C830 H844 0.960 . S
C831 C828 1.511 . S
C831 H845 0.961 . S
C831 H846 0.961 . S
C831 H847 0.961 . S
C832 C833 1.370 . S
C832 C834 1.363 . S
C832 H848 0.931 . S
C833 C832 1.370 . S
C833 C837 1.408 . S
C834 C832 1.363 . S
C834 C835 1.370 . S
C834 C838 1.524 . S
C835 C827 1.503 . S
C835 C834 1.370 . S
C835 C836 1.403 . S
C836 C835 1.403 . S
C836 C837 1.404 . S
C836 C839 1.539 . S
C837 C833 1.408 . S
C837 C836 1.404 . S
C837 H849 0.930 . S
C838 C834 1.524 . S
C838 H850 0.956 . S
C838 H851 0.961 . S
C838 H852 0.961 . S
C839 C836 1.539 . S
C839 H853 0.958 . S
C839 H854 0.961 . S
C839 H855 0.960 . S
H840 C824 0.931 . S
H841 C829 0.929 . S
H842 C830 0.960 . S
H843 C830 0.962 . S
H844 C830 0.960 . S
H845 C831 0.961 . S
H846 C831 0.961 . S
H847 C831 0.961 . S
H848 C832 0.931 . S
H849 C837 0.930 . S
H850 C838 0.956 . S
H851 C838 0.961 . S
H852 C838 0.961 . S
H853 C839 0.958 . S
H854 C839 0.961 . S
H855 C839 0.960 . S
C856 C857 1.391 . S
C856 C858 1.394 . S
C856 H872 0.931 . S
C857 C856 1.391 . S
C857 C861 1.376 . S
C858 C856 1.394 . S
C858 C859 1.369 . S
C858 C862 1.531 1_554 S
C859 C858 1.369 . S
C859 C860 1.410 . S
C859 C867 1.503 . S
C860 C859 1.410 . S
C860 C861 1.392 . S
C860 C863 1.511 . S
C861 C857 1.376 . S
C861 C860 1.392 . S
C861 H873 0.929 . S
C862 C858 1.531 1_556 S
C862 H874 0.960 . S
C862 H875 0.962 . S
C862 H876 0.960 . S
C863 C860 1.511 . S
C863 H877 0.961 . S
C863 H878 0.961 . S
C863 H879 0.961 . S
C864 C865 1.370 . S
C864 C866 1.363 1_556 S
C864 H880 0.931 1_556 S
C865 C864 1.370 . S
C865 C869 1.408 . S
C866 C864 1.363 1_554 S
C866 C867 1.370 . S
C866 C870 1.524 . S
C867 C859 1.503 . S
C867 C866 1.370 . S
C867 C868 1.403 1_554 S
C868 C867 1.403 1_556 S
C868 C869 1.404 . S
C868 C871 1.539 . S
C869 C865 1.408 . S
C869 C868 1.404 . S
C869 H881 0.930 . S
C870 C866 1.524 . S
C870 H882 0.956 . S
C870 H883 0.961 . S
C870 H884 0.961 . S
C871 C868 1.539 . S
C871 H885 0.958 . S
C871 H886 0.961 . S
C871 H887 0.960 . S
H872 C856 0.931 . S
H873 C861 0.929 . S
H874 C862 0.960 . S
H875 C862 0.962 . S
H876 C862 0.960 . S
H877 C863 0.961 . S
H878 C863 0.961 . S
H879 C863 0.961 . S
H880 C864 0.931 1_554 S
H881 C869 0.930 . S
H882 C870 0.956 . S
H883 C870 0.961 . S
H884 C870 0.961 . S
H885 C871 0.958 . S
H886 C871 0.961 . S
H887 C871 0.960 . S
C888 C889 1.391 . S
C888 C890 1.394 . S
C888 H904 0.931 . S
C889 C888 1.391 . S
C889 C893 1.376 . S
C890 C888 1.394 . S
C890 C891 1.369 . S
C890 C894 1.531 . S
C891 C890 1.369 . S
C891 C892 1.410 . S
C891 C899 1.503 . S
C892 C891 1.410 . S
C892 C893 1.392 . S
C892 C895 1.511 . S
C893 C889 1.376 . S
C893 C892 1.392 . S
C893 H905 0.929 . S
C894 C890 1.531 . S
C894 H906 0.960 . S
C894 H907 0.962 . S
C894 H908 0.960 . S
C895 C892 1.511 . S
C895 H909 0.961 . S
C895 H910 0.961 . S
C895 H911 0.961 . S
C896 C897 1.370 . S
C896 C898 1.363 . S
C896 H912 0.931 . S
C897 C896 1.370 . S
C897 C901 1.408 . S
C898 C896 1.363 . S
C898 C899 1.370 . S
C898 C902 1.524 . S
C899 C891 1.503 . S
C899 C898 1.370 . S
C899 C900 1.403 . S
C900 C899 1.403 . S
C900 C901 1.404 . S
C900 C903 1.539 . S
C901 C897 1.408 . S
C901 C900 1.404 . S
C901 H913 0.930 . S
C902 C898 1.524 . S
C902 H914 0.956 . S
C902 H915 0.961 . S
C902 H916 0.961 . S
C903 C900 1.539 . S
C903 H917 0.958 . S
C903 H918 0.961 . S
C903 H919 0.960 . S
H904 C888 0.931 . S
H905 C893 0.929 . S
H906 C894 0.960 . S
H907 C894 0.962 . S
H908 C894 0.960 . S
H909 C895 0.961 . S
H910 C895 0.961 . S
H911 C895 0.961 . S
H912 C896 0.931 . S
H913 C901 0.930 . S
H914 C902 0.956 . S
H915 C902 0.961 . S
H916 C902 0.961 . S
H917 C903 0.958 . S
H918 C903 0.961 . S
H919 C903 0.960 . S
C920 C921 1.395 1_556 S
C920 C922 1.391 . S
C920 H936 0.930 . S
C921 C920 1.395 1_554 S
C921 C925 1.376 . S
C922 C920 1.391 . S
C922 C923 1.369 . S
C922 C926 1.531 . S
C923 C922 1.369 . S
C923 C924 1.410 1_556 S
C923 C931 1.503 . S
C924 C923 1.410 1_554 S
C924 C925 1.392 . S
C924 C927 1.511 . S
C925 C921 1.376 . S
C925 C924 1.392 . S
C925 H937 0.929 . S
C926 C922 1.531 . S
C926 H938 0.960 . S
C926 H939 0.962 . S
C926 H940 0.960 . S
C927 C924 1.511 . S
C927 H941 0.961 . S
C927 H942 0.961 . S
C927 H943 0.961 . S
C928 C929 1.370 . S
C928 C930 1.363 . S
C928 H944 0.931 . S
C929 C928 1.370 . S
C929 C933 1.408 . S
C930 C928 1.363 . S
C930 C931 1.370 . S
C930 C934 1.524 1_556 S
C931 C923 1.503 . S
C931 C930 1.370 . S
C931 C932 1.403 . S
C932 C931 1.403 . S
C932 C933 1.404 . S
C932 C935 1.539 . S
C933 C929 1.408 . S
C933 C932 1.404 . S
C933 H945 0.930 . S
C934 C930 1.524 1_554 S
C934 H946 0.956 . S
C934 H947 0.961 . S
C934 H948 0.961 . S
C935 C932 1.539 . S
C935 H949 0.958 . S
C935 H950 0.961 . S
C935 H951 0.960 . S
H936 C920 0.930 . S
H937 C925 0.929 . S
H938 C926 0.960 . S
H939 C926 0.962 . S
H940 C926 0.960 . S
H941 C927 0.961 . S
H942 C927 0.961 . S
H943 C927 0.961 . S
H944 C928 0.931 . S
H945 C933 0.930 . S
H946 C934 0.956 . S
H947 C934 0.961 . S
H948 C934 0.961 . S
H949 C935 0.958 . S
H950 C935 0.961 . S
H951 C935 0.960 . S
C185 C156 1.572 . S
C193 C17 1.587 . S
C217 C40 1.566 . S
C225 C179 1.603 . S
C249 C110 1.576 . S
C257 C63 1.589 . S
C281 C86 1.595 . S
C289 C133 1.596 . S
C313 C64 1.606 . S
C321 C109 1.578 . S
C345 C132 1.550 . S
C353 C87 1.602 . S
C377 C18 1.572 . S
C385 C155 1.588 . S
C409 C41 1.600 . S
C417 C178 1.582 . S
C441 C16 0.857 . S
C449 C108 0.841 . S
C473 C131 0.891 . S
C481 C39 0.831 . S
C505 C62 0.819 . S
C513 C154 0.857 . S
C537 C177 0.806 . S
C545 C85 0.867 . S
C569 C89 1.325 . S
C577 C20 1.324 . S
C601 C43 1.325 . S
C609 C66 1.324 . S
C633 C181 1.317 . S
C641 C112 1.321 . S
C665 C135 1.322 . S
C673 C158 1.325 . S
C697 C21 1.660 . S
C705 C65 1.622 . S
C729 C44 1.660 1_655 S
C737 C88 1.603 . S
C761 C67 1.651 1_455 S
C769 C19 1.617 . S
C793 C90 1.661 . S
C801 C42 1.604 . S
C825 C113 1.651 . S
C833 C157 1.617 . S
C857 C136 1.651 1_455 S
C865 C180 1.620 . S
C889 C159 1.652 1_655 S
C897 C111 1.622 . S
C921 C134 1.633 . S
C929 C182 1.661 . S
