# Generated by pormake.
# Topology wmi, (6)-cn, num edge types: 1
# Building blocks:
#     Node 0, Type 0, BuildingBlock: CUKXOW_clean_sbu_0, # of connection points: 6
#     Node 1, Type 0, BuildingBlock: CUKXOW_clean_sbu_0, # of connection points: 6
#     Node 2, Type 0, BuildingBlock: CUKXOW_clean_sbu_0, # of connection points: 6
#     Node 3, Type 0, BuildingBlock: CUKXOW_clean_sbu_0, # of connection points: 6
#     Node 4, Type 0, BuildingBlock: CUKXOW_clean_sbu_0, # of connection points: 6
#     Node 5, Type 0, BuildingBlock: CUKXOW_clean_sbu_0, # of connection points: 6
#     Node 6, Type 0, BuildingBlock: CUKXOW_clean_sbu_0, # of connection points: 6
#     Node 7, Type 0, BuildingBlock: CUKXOW_clean_sbu_0, # of connection points: 6
#     Node 8, Type 0, BuildingBlock: CUKXOW_clean_sbu_0, # of connection points: 6
#     Node 9, Type 0, BuildingBlock: CUKXOW_clean_sbu_0, # of connection points: 6
#     Node 10, Type 0, BuildingBlock: CUKXOW_clean_sbu_0, # of connection points: 6
#     Node 11, Type 0, BuildingBlock: CUKXOW_clean_sbu_0, # of connection points: 6
#     Node 12, Type 0, BuildingBlock: CUKXOW_clean_sbu_0, # of connection points: 6
#     Node 13, Type 0, BuildingBlock: CUKXOW_clean_sbu_0, # of connection points: 6
#     Node 14, Type 0, BuildingBlock: CUKXOW_clean_sbu_0, # of connection points: 6
#     Node 15, Type 0, BuildingBlock: CUKXOW_clean_sbu_0, # of connection points: 6
#     Node 16, Type 0, BuildingBlock: CUKXOW_clean_sbu_0, # of connection points: 6
#     Node 17, Type 0, BuildingBlock: CUKXOW_clean_sbu_0, # of connection points: 6
#     Edge 18, Type (0, 0), BuildingBlock: EZIPEK_clean_linker_0, # of connection points: 2
#     Edge 19, Type (0, 0), BuildingBlock: EZIPEK_clean_linker_0, # of connection points: 2
#     Edge 20, Type (0, 0), BuildingBlock: EZIPEK_clean_linker_0, # of connection points: 2
#     Edge 21, Type (0, 0), BuildingBlock: EZIPEK_clean_linker_0, # of connection points: 2
#     Edge 22, Type (0, 0), BuildingBlock: EZIPEK_clean_linker_0, # of connection points: 2
#     Edge 23, Type (0, 0), BuildingBlock: EZIPEK_clean_linker_0, # of connection points: 2
#     Edge 24, Type (0, 0), BuildingBlock: EZIPEK_clean_linker_0, # of connection points: 2
#     Edge 25, Type (0, 0), BuildingBlock: EZIPEK_clean_linker_0, # of connection points: 2
#     Edge 26, Type (0, 0), BuildingBlock: EZIPEK_clean_linker_0, # of connection points: 2
#     Edge 27, Type (0, 0), BuildingBlock: EZIPEK_clean_linker_0, # of connection points: 2
#     Edge 28, Type (0, 0), BuildingBlock: EZIPEK_clean_linker_0, # of connection points: 2
#     Edge 29, Type (0, 0), BuildingBlock: EZIPEK_clean_linker_0, # of connection points: 2
#     Edge 30, Type (0, 0), BuildingBlock: EZIPEK_clean_linker_0, # of connection points: 2
#     Edge 31, Type (0, 0), BuildingBlock: EZIPEK_clean_linker_0, # of connection points: 2
#     Edge 32, Type (0, 0), BuildingBlock: EZIPEK_clean_linker_0, # of connection points: 2
#     Edge 33, Type (0, 0), BuildingBlock: EZIPEK_clean_linker_0, # of connection points: 2
#     Edge 34, Type (0, 0), BuildingBlock: EZIPEK_clean_linker_0, # of connection points: 2
#     Edge 35, Type (0, 0), BuildingBlock: EZIPEK_clean_linker_0, # of connection points: 2
#     Edge 36, Type (0, 0), BuildingBlock: EZIPEK_clean_linker_0, # of connection points: 2
#     Edge 37, Type (0, 0), BuildingBlock: EZIPEK_clean_linker_0, # of connection points: 2
#     Edge 38, Type (0, 0), BuildingBlock: EZIPEK_clean_linker_0, # of connection points: 2
#     Edge 39, Type (0, 0), BuildingBlock: EZIPEK_clean_linker_0, # of connection points: 2
#     Edge 40, Type (0, 0), BuildingBlock: EZIPEK_clean_linker_0, # of connection points: 2
#     Edge 41, Type (0, 0), BuildingBlock: EZIPEK_clean_linker_0, # of connection points: 2
#     Edge 42, Type (0, 0), BuildingBlock: EZIPEK_clean_linker_0, # of connection points: 2
#     Edge 43, Type (0, 0), BuildingBlock: EZIPEK_clean_linker_0, # of connection points: 2
#     Edge 44, Type (0, 0), BuildingBlock: EZIPEK_clean_linker_0, # of connection points: 2
#     Edge 45, Type (0, 0), BuildingBlock: EZIPEK_clean_linker_0, # of connection points: 2
#     Edge 46, Type (0, 0), BuildingBlock: EZIPEK_clean_linker_0, # of connection points: 2
#     Edge 47, Type (0, 0), BuildingBlock: EZIPEK_clean_linker_0, # of connection points: 2
#     Edge 48, Type (0, 0), BuildingBlock: EZIPEK_clean_linker_0, # of connection points: 2
#     Edge 49, Type (0, 0), BuildingBlock: EZIPEK_clean_linker_0, # of connection points: 2
#     Edge 50, Type (0, 0), BuildingBlock: EZIPEK_clean_linker_0, # of connection points: 2
#     Edge 51, Type (0, 0), BuildingBlock: EZIPEK_clean_linker_0, # of connection points: 2
#     Edge 52, Type (0, 0), BuildingBlock: EZIPEK_clean_linker_0, # of connection points: 2
#     Edge 53, Type (0, 0), BuildingBlock: EZIPEK_clean_linker_0, # of connection points: 2
#     Edge 54, Type (0, 0), BuildingBlock: EZIPEK_clean_linker_0, # of connection points: 2
#     Edge 55, Type (0, 0), BuildingBlock: EZIPEK_clean_linker_0, # of connection points: 2
#     Edge 56, Type (0, 0), BuildingBlock: EZIPEK_clean_linker_0, # of connection points: 2
#     Edge 57, Type (0, 0), BuildingBlock: EZIPEK_clean_linker_0, # of connection points: 2
#     Edge 58, Type (0, 0), BuildingBlock: EZIPEK_clean_linker_0, # of connection points: 2
#     Edge 59, Type (0, 0), BuildingBlock: EZIPEK_clean_linker_0, # of connection points: 2
#     Edge 60, Type (0, 0), BuildingBlock: EZIPEK_clean_linker_0, # of connection points: 2
#     Edge 61, Type (0, 0), BuildingBlock: EZIPEK_clean_linker_0, # of connection points: 2
#     Edge 62, Type (0, 0), BuildingBlock: EZIPEK_clean_linker_0, # of connection points: 2
#     Edge 63, Type (0, 0), BuildingBlock: EZIPEK_clean_linker_0, # of connection points: 2
#     Edge 64, Type (0, 0), BuildingBlock: EZIPEK_clean_linker_0, # of connection points: 2
#     Edge 65, Type (0, 0), BuildingBlock: EZIPEK_clean_linker_0, # of connection points: 2
#     Edge 66, Type (0, 0), BuildingBlock: EZIPEK_clean_linker_0, # of connection points: 2
#     Edge 67, Type (0, 0), BuildingBlock: EZIPEK_clean_linker_0, # of connection points: 2
#     Edge 68, Type (0, 0), BuildingBlock: EZIPEK_clean_linker_0, # of connection points: 2
#     Edge 69, Type (0, 0), BuildingBlock: EZIPEK_clean_linker_0, # of connection points: 2
#     Edge 70, Type (0, 0), BuildingBlock: EZIPEK_clean_linker_0, # of connection points: 2
#     Edge 71, Type (0, 0), BuildingBlock: EZIPEK_clean_linker_0, # of connection points: 2
# Relax obj value: 0.054
# Max RMSD: 0.155
# Mean RMSD: 0.155
data_MOF--net-wmi--node1-CUKXOW_clean_sbu_0--edge1-EZIPEK_clean_linker_0
_symmetry_space_group_name_H-M    P1
_symmetry_Int_Tables_number       1
_symmetry_cell_setting            triclinic
loop_
_symmetry_equiv_pos_as_xyz
'x, y, z'
_cell_length_a     24.099868
_cell_length_b     24.026559
_cell_length_c     62.194101
_cell_angle_alpha  90.019561
_cell_angle_beta   89.740408
_cell_angle_gamma 120.06449
loop_
_atom_site_label
_atom_site_type_symbol
_atom_site_fract_x
_atom_site_fract_y
_atom_site_fract_z
_atom_type_partial_charge
Tb0 Tb 0.49802 0.07924 0.1003 0.0
C1 C 0.46587 0.99935 0.14337 0.0
Tb2 Tb 0.53044 0.97305 0.10257 0.0
O3 O 0.39515 0.01488 0.10523 0.0
O4 O 0.45056 0.97993 0.0915 0.0
O5 O 0.47967 0.05494 0.13435 0.0
C6 C 0.54408 0.86923 0.1004 0.0
O7 O 0.47821 0.95808 0.13315 0.0
C8 C 0.63141 0.09057 0.10252 0.0
C9 C 0.53578 0.0345 0.05774 0.0
O10 O 0.54905 0.90116 0.11789 0.0
O11 O 0.52955 0.89446 0.08465 0.0
O12 O 0.63252 0.03959 0.09672 0.0
O13 O 0.57743 0.07237 0.11099 0.0
O14 O 0.51892 0.98022 0.06814 0.0
O15 O 0.53721 0.08349 0.06808 0.0
C16 C 0.50531 0.19427 0.09882 0.0
O17 O 0.4794 0.14951 0.08435 0.0
O18 O 0.52774 0.1742 0.114 0.0
C19 C 0.39589 0.96332 0.09939 0.0
Tb20 Tb 0.98547 0.44682 0.10164 0.0
C21 C 0.0628 0.4935 0.14488 0.0
Tb22 Tb 0.07698 0.59071 0.10675 0.0
O23 O 0.06045 0.42113 0.10395 0.0
O24 O 0.08218 0.51224 0.09337 0.0
O25 O 1.01255 0.44706 0.1348 0.0
C26 C 0.17005 0.71388 0.1091 0.0
O27 O 0.09702 0.55182 0.13618 0.0
C28 C 0.9549 0.55575 0.1065 0.0
C29 C 0.0304 0.53658 0.05996 0.0
O30 O 0.1343 0.68013 0.12517 0.0
O31 O 0.15462 0.67807 0.09217 0.0
O32 O 1.00071 0.61242 0.10146 0.0
O33 O 0.97932 0.52513 0.11461 0.0
O34 O 0.07308 0.58492 0.07177 0.0
O35 O 0.98746 0.48073 0.0687 0.0
C36 C 0.87241 0.3352 0.10053 0.0
O37 O 0.91412 0.35904 0.08494 0.0
O38 O 0.89537 0.37428 0.11665 0.0
C39 C 0.10661 0.47912 0.09935 0.0
Tb40 Tb 0.62062 0.57036 0.09644 0.0
C41 C 0.57051 0.60558 0.13957 0.0
Tb42 Tb 0.47553 0.53033 0.10036 0.0
O43 O 0.64755 0.6631 0.08089 0.0
O44 O 0.56554 0.61503 0.09914 0.0
O45 O 0.61849 0.60438 0.12914 0.0
C46 C 0.36296 0.52216 0.09852 0.0
O47 O 0.51132 0.57958 0.13151 0.0
C48 C 0.49102 0.42849 0.10308 0.0
C49 C 0.53528 0.52653 0.05526 0.0
O50 O 0.384 0.5053 0.11501 0.0
O51 O 0.40598 0.54612 0.0834 0.0
O52 O 0.43611 0.42571 0.10452 0.0
O53 O 0.53192 0.48697 0.10111 0.0
O54 O 0.49262 0.53652 0.06557 0.0
O55 O 0.58209 0.52362 0.06553 0.0
C56 C 0.72399 0.56229 0.1042 0.0
O57 O 0.71498 0.58676 0.08684 0.0
O58 O 0.67539 0.54261 0.11704 0.0
C59 C 0.59426 0.66117 0.08633 0.0
Tb60 Tb 0.0823 0.4826 0.9261 0.0
C61 C 0.99865 0.44738 0.88274 0.0
Tb62 Tb 0.98367 0.53302 0.92012 0.0
O63 O 1.01032 0.39239 0.94164 0.0
O64 O 0.98339 0.44517 0.92282 0.0
O65 O 0.04596 0.4467 0.89369 0.0
C66 C 0.88185 0.54873 0.91904 0.0
O67 O 0.96871 0.47816 0.88987 0.0
C68 C 0.10556 0.62631 0.91593 0.0
C69 C 0.04149 0.53269 0.9665 0.0
O70 O 0.92071 0.55933 0.90301 0.0
O71 O 0.89952 0.52796 0.93542 0.0
O72 O 0.05678 0.63457 0.91336 0.0
O73 O 0.08204 0.5681 0.9205 0.0
O74 O 0.99455 0.53284 0.95527 0.0
O75 O 0.08683 0.52387 0.95773 0.0
C76 C 0.1943 0.48722 0.91911 0.0
O77 O 0.15842 0.46351 0.93618 0.0
O78 O 0.16622 0.50706 0.90596 0.0
C79 C 0.96148 0.39799 0.93543 0.0
Tb80 Tb 0.5743 0.61682 0.91966 0.0
C81 C 0.59873 0.56942 0.87407 0.0
Tb82 Tb 0.53053 0.47621 0.91405 0.0
O83 O 0.66665 0.63963 0.93387 0.0
O84 O 0.61864 0.56207 0.91349 0.0
O85 O 0.59243 0.61383 0.88495 0.0
C86 C 0.50572 0.3552 0.91599 0.0
O87 O 0.58313 0.51337 0.88346 0.0
C88 C 0.4431 0.50846 0.90658 0.0
C89 C 0.53575 0.53273 0.96137 0.0
O90 O 0.46706 0.37304 0.90853 0.0
O91 O 0.55883 0.4053 0.92179 0.0
O92 O 0.44868 0.46515 0.89592 0.0
O93 O 0.48474 0.5298 0.92126 0.0
O94 O 0.52908 0.4837 0.94946 0.0
O95 O 0.54698 0.58807 0.95292 0.0
C96 C 0.56584 0.7231 0.9166 0.0
O97 O 0.52438 0.66703 0.90932 0.0
O98 O 0.61263 0.71966 0.9256 0.0
C99 C 0.66438 0.58775 0.92645 0.0
Tb100 Tb 0.44688 0.98006 0.92012 0.0
C101 C 0.50334 0.05993 0.87763 0.0
Tb102 Tb 0.58843 0.08096 0.91946 0.0
O103 O 0.41615 0.05023 0.9143 0.0
O104 O 0.50289 0.07793 0.9299 0.0
O105 O 0.45977 1.00396 0.88604 0.0
C106 C 0.70706 0.18079 0.9226 0.0
O107 O 0.55542 0.10011 0.8887 0.0
C108 C 0.56535 0.96241 0.91723 0.0
C109 C 0.51897 0.02335 0.96452 0.0
O110 O 0.67932 0.15378 0.9046 0.0
O111 O 0.66791 0.15264 0.93839 0.0
O112 O 0.61895 1.01017 0.92359 0.0
O113 O 0.53235 0.98459 0.9094 0.0
O114 O 0.56826 0.0707 0.95408 0.0
O115 O 0.46691 0.97953 0.95441 0.0
C116 C 0.34365 0.86322 0.91901 0.0
O117 O 0.34276 0.91632 0.92195 0.0
O118 O 0.40232 0.87579 0.91698 0.0
C119 C 0.4689 0.09875 0.92156 0.0
Tb120 Tb 0.15215 0.41304 0.43251 0.0
C121 C 0.11937 0.32232 0.47366 0.0
Tb122 Tb 0.19793 0.31443 0.43352 0.0
O123 O 0.04923 0.34327 0.43224 0.0
O124 O 0.1164 0.31767 0.42334 0.0
O125 O 0.12216 0.37449 0.46505 0.0
C126 C 0.22491 0.22027 0.43257 0.0
O127 O 0.14562 0.29126 0.46423 0.0
C128 C 0.2889 0.43666 0.43344 0.0
C129 C 0.19286 0.37293 0.38895 0.0
O130 O 0.25062 0.26873 0.44567 0.0
O131 O 0.18181 0.22291 0.42093 0.0
O132 O 0.29506 0.39018 0.42566 0.0
O133 O 0.23557 0.41254 0.44307 0.0
O134 O 0.19339 0.32458 0.39899 0.0
O135 O 0.18476 0.41709 0.39912 0.0
C136 C 0.16016 0.52783 0.43588 0.0
O137 O 0.13982 0.49059 0.41912 0.0
O138 O 0.17506 0.49975 0.45068 0.0
C139 C 0.05817 0.29494 0.42839 0.0
Tb140 Tb 0.64945 0.77361 0.43523 0.0
C141 C 0.7304 0.82205 0.47773 0.0
Tb142 Tb 0.76071 0.91054 0.43632 0.0
O143 O 0.71249 0.73257 0.43944 0.0
O144 O 0.74683 0.82178 0.42512 0.0
O145 O 0.67319 0.78276 0.46938 0.0
C146 C 0.8675 0.02497 0.4379 0.0
O147 O 0.77511 0.87092 0.46627 0.0
C148 C 0.64587 0.90028 0.4372 0.0
C149 C 0.69841 0.85164 0.39163 0.0
O150 O 0.82786 0.99752 0.45377 0.0
O151 O 0.84839 0.98661 0.42153 0.0
O152 O 0.69762 0.94968 0.43014 0.0
O153 O 0.66219 0.86311 0.44592 0.0
O154 O 0.7519 0.89311 0.40167 0.0
O155 O 0.64821 0.80561 0.4022 0.0
C156 C 0.53146 0.67158 0.43581 0.0
O157 O 0.58204 0.67206 0.42833 0.0
O158 O 0.54697 0.72839 0.4427 0.0
C159 C 0.76359 0.7835 0.43239 0.0
Tb160 Tb 0.29544 0.9122 0.43175 0.0
C161 C 0.24555 0.93609 0.47625 0.0
Tb162 Tb 0.15266 0.86817 0.43608 0.0
O163 O 0.31776 1.00648 0.41795 0.0
O164 O 0.23872 0.95574 0.43659 0.0
O165 O 0.29045 0.92856 0.46638 0.0
C166 C 0.02997 0.84218 0.43322 0.0
O167 O 0.19035 0.92123 0.4667 0.0
C168 C 0.18304 0.77857 0.44389 0.0
C169 C 0.21418 0.87335 0.39 0.0
O170 O 0.07565 0.87631 0.41968 0.0
O171 O 0.05387 0.8232 0.44823 0.0
O172 O 0.13495 0.78047 0.45228 0.0
O173 O 0.20769 0.8226 0.43001 0.0
O174 O 0.16855 0.87717 0.40092 0.0
O175 O 0.26169 0.87139 0.39996 0.0
C176 C 0.40609 0.90885 0.43473 0.0
O177 O 0.38922 0.93276 0.41896 0.0
O178 O 0.36052 0.88815 0.44904 0.0
C179 C 0.26379 1.00239 0.42386 0.0
Tb180 Tb 0.74689 0.81165 0.25496 0.0
C181 C 0.66834 0.78257 0.21216 0.0
Tb182 Tb 0.64525 0.85226 0.25254 0.0
O183 O 0.68204 0.72103 0.27216 0.0
O184 O 0.64574 0.76508 0.25344 0.0
O185 O 0.72373 0.79456 0.22074 0.0
C186 C 0.55114 0.8775 0.24774 0.0
O187 O 0.62915 0.79891 0.22205 0.0
C188 C 0.76569 0.94675 0.25422 0.0
C189 C 0.69947 0.84494 0.29776 0.0
O190 O 0.60251 0.90173 0.23588 0.0
O191 O 0.55138 0.83721 0.2616 0.0
O192 O 0.71723 0.94983 0.26166 0.0
O193 O 0.74423 0.89392 0.24456 0.0
O194 O 0.64945 0.83983 0.28717 0.0
O195 O 0.74887 0.84641 0.28768 0.0
C196 C 0.86314 0.825 0.252 0.0
O197 O 0.85011 0.86651 0.26042 0.0
O198 O 0.81044 0.77459 0.24575 0.0
C199 C 0.62944 0.72022 0.26679 0.0
Tb200 Tb 0.24519 0.95212 0.25187 0.0
C201 C 0.26759 0.89581 0.20938 0.0
Tb202 Tb 0.20229 0.8108 0.25167 0.0
O203 O 0.34546 0.98145 0.2448 0.0
O204 O 0.28702 0.89572 0.26111 0.0
O205 O 0.25869 0.94138 0.21791 0.0
C206 C 0.17916 0.68933 0.2511 0.0
O207 O 0.25296 0.84275 0.22044 0.0
C208 C 0.10781 0.83598 0.25246 0.0
C209 C 0.2167 0.87759 0.29611 0.0
O210 O 0.1823 0.7228 0.23426 0.0
O211 O 0.18964 0.72438 0.26803 0.0
O212 O 0.10394 0.78416 0.25989 0.0
O213 O 0.16033 0.86706 0.24249 0.0
O214 O 0.22207 0.83214 0.28582 0.0
O215 O 0.21723 0.92621 0.28569 0.0
C216 C 0.23942 0.0605 0.25075 0.0
O217 O 0.28132 0.05268 0.26144 0.0
O218 O 0.20093 1.00739 0.24094 0.0
C219 C 0.3412 0.92867 0.25215 0.0
Tb220 Tb 0.10873 0.3091 0.25265 0.0
C221 C 0.16181 0.39419 0.21033 0.0
Tb222 Tb 0.24924 0.41676 0.25126 0.0
O223 O 0.06819 0.37278 0.25044 0.0
O224 O 0.16068 0.40638 0.26132 0.0
O225 O 0.1183 0.33831 0.21892 0.0
C226 C 0.36707 0.52001 0.25194 0.0
O227 O 0.21415 0.43503 0.22111 0.0
C228 C 0.23011 0.29759 0.25198 0.0
C229 C 0.18859 0.35851 0.29609 0.0
O230 O 0.34628 0.47431 0.2377 0.0
O231 O 0.32033 0.50903 0.2649 0.0
O232 O 0.2803 0.34784 0.25929 0.0
O233 O 0.19654 0.31662 0.24238 0.0
O234 O 0.23418 0.40915 0.28581 0.0
O235 O 0.13965 0.31024 0.28602 0.0
C236 C 1.0029 0.19159 0.25321 0.0
O237 O 0.02455 0.23194 0.26909 0.0
O238 O 0.04114 0.21792 0.23695 0.0
C239 C 0.12238 0.42418 0.25492 0.0
Tb240 Tb 0.83926 0.7521 0.76885 0.0
C241 C 0.80236 0.66436 0.81001 0.0
Tb242 Tb 0.87457 0.64668 0.76948 0.0
O243 O 0.73674 0.6844 0.77242 0.0
O244 O 0.79615 0.65524 0.75783 0.0
O245 O 0.81703 0.72171 0.80222 0.0
C246 C 0.89387 0.54584 0.76799 0.0
O247 O 0.81566 0.62489 0.79892 0.0
C248 C 0.9726 0.76498 0.77319 0.0
C249 C 0.87826 0.71221 0.72544 0.0
O250 O 0.87908 0.56656 0.78519 0.0
O251 O 0.89636 0.58094 0.75187 0.0
O252 O 0.97742 0.71673 0.76662 0.0
O253 O 0.91658 0.74314 0.78034 0.0
O254 O 0.86304 0.65698 0.73508 0.0
O255 O 0.87815 0.75934 0.73649 0.0
C256 C 0.84939 0.86789 0.76946 0.0
O257 O 0.80847 0.81921 0.75811 0.0
O258 O 0.88493 0.85159 0.78029 0.0
C259 C 0.73981 0.63551 0.76481 0.0
Tb260 Tb 0.32513 0.11516 0.77076 0.0
C261 C 0.40968 0.16577 0.8124 0.0
Tb262 Tb 0.4282 0.2572 0.77244 0.0
O263 O 0.39479 0.08339 0.77515 0.0
O264 O 0.42239 0.1714 0.7604 0.0
O265 O 0.35286 0.12341 0.80437 0.0
C266 C 0.52563 0.37805 0.77435 0.0
O267 O 0.45001 0.21829 0.80129 0.0
C268 C 0.31018 0.23534 0.77553 0.0
C269 C 0.36904 0.19418 0.72698 0.0
O270 O 0.49735 0.34179 0.79092 0.0
O271 O 0.50079 0.34579 0.75695 0.0
O272 O 0.35848 0.28954 0.76979 0.0
O273 O 0.33159 0.20059 0.78247 0.0
O274 O 0.41654 0.24291 0.73752 0.0
O275 O 0.32485 0.14165 0.73707 0.0
C276 C 0.20809 1.01057 0.7716 0.0
O277 O 0.25932 0.01329 0.76357 0.0
O278 O 0.22258 0.0669 0.77877 0.0
C279 C 0.44322 0.13566 0.76732 0.0
Tb280 Tb 0.96402 0.23915 0.76989 0.0
C281 C 0.91025 0.25824 0.81421 0.0
Tb282 Tb 0.82192 0.20303 0.77211 0.0
O283 O 0.9939 0.3333 0.75486 0.0
O284 O 0.91167 0.28729 0.77317 0.0
O285 O 0.95515 0.2511 0.8042 0.0
C286 C 0.7048 0.18684 0.77547 0.0
O287 O 0.85652 0.24657 0.8041 0.0
C288 C 0.84442 0.10639 0.76916 0.0
C289 C 0.88666 0.21501 0.72697 0.0
O290 O 0.72694 0.15773 0.78728 0.0
O291 O 0.7495 0.22703 0.76253 0.0
O292 O 0.79346 0.10472 0.76193 0.0
O293 O 0.87647 0.15824 0.77917 0.0
O294 O 0.84292 0.22214 0.73777 0.0
O295 O 0.93298 0.21024 0.73677 0.0
C296 C 0.06649 0.22527 0.77305 0.0
O297 O 1.01074 0.18163 0.76615 0.0
O298 O 0.06523 0.27745 0.77764 0.0
C299 C 0.94182 0.33344 0.76046 0.0
Tb300 Tb 0.4182 0.15379 0.592 0.0
C301 C 0.32424 0.09968 0.55219 0.0
Tb302 Tb 0.31133 0.19262 0.58683 0.0
O303 O 0.35166 0.05164 0.60062 0.0
O304 O 0.32095 0.11603 0.59808 0.0
O305 O 0.37915 0.11037 0.56082 0.0
C306 C 0.21403 0.21457 0.5843 0.0
O307 O 0.28936 0.1246 0.55988 0.0
C308 C 0.43018 0.29001 0.58453 0.0
C309 C 0.37187 0.1966 0.63285 0.0
O310 O 0.24209 0.20571 0.56781 0.0
O311 O 0.23909 0.20893 0.60195 0.0
O312 O 0.38009 0.29553 0.58706 0.0
O313 O 0.41039 0.23211 0.57938 0.0
O314 O 0.32152 0.1903 0.62189 0.0
O315 O 0.4209 0.1953 0.6234 0.0
C316 C 0.53506 0.16924 0.58704 0.0
O317 O 0.49928 0.14587 0.60413 0.0
O318 O 0.50529 0.18426 0.57297 0.0
C319 C 0.30035 0.05722 0.60172 0.0
Tb320 Tb 0.91454 0.29341 0.58995 0.0
C321 C 0.94805 0.245 0.54848 0.0
Tb322 Tb 0.87016 0.15127 0.58746 0.0
O323 O 1.01627 0.32441 0.5877 0.0
O324 O 0.95162 0.23382 0.59974 0.0
O325 O 0.92763 0.28347 0.55573 0.0
C326 C 0.84041 0.02833 0.58402 0.0
O327 O 0.9346 0.19133 0.55912 0.0
C328 C 0.7783 0.18026 0.58615 0.0
C329 C 0.88135 0.21363 0.6335 0.0
O330 O 0.84926 0.06641 0.56793 0.0
O331 O 0.84986 0.05974 0.60176 0.0
O332 O 0.77065 0.12631 0.59292 0.0
O333 O 0.83296 0.21113 0.57751 0.0
O334 O 0.87793 0.16442 0.62253 0.0
O335 O 0.89346 0.26833 0.62408 0.0
C336 C 0.9034 0.39815 0.59007 0.0
O337 O 0.95728 0.39817 0.58986 0.0
O338 O 0.85618 0.33946 0.59074 0.0
C339 C 1.00912 0.2694 0.59375 0.0
Tb340 Tb 0.77701 0.65135 0.58991 0.0
C341 C 0.8287 0.73397 0.5473 0.0
Tb342 Tb 0.91878 0.75217 0.58742 0.0
O343 O 0.7432 0.71983 0.58558 0.0
O344 O 0.83362 0.75005 0.59838 0.0
O345 O 0.78379 0.6796 0.55628 0.0
C346 C 0.04203 0.84727 0.58693 0.0
O347 O 0.88334 0.77217 0.55747 0.0
C348 C 0.8922 0.63114 0.58851 0.0
C349 C 0.85862 0.70202 0.63275 0.0
O350 O 1.00883 0.81764 0.56999 0.0
O351 O 1.00548 0.82489 0.6037 0.0
O352 O 0.94519 0.67954 0.59485 0.0
O353 O 0.86107 0.65279 0.57902 0.0
O354 O 0.90184 0.75245 0.62173 0.0
O355 O 0.80878 0.65291 0.6233 0.0
C356 C 0.67016 0.53367 0.58994 0.0
O357 O 0.68755 0.57672 0.60503 0.0
O358 O 0.71309 0.55774 0.57482 0.0
C359 C 0.79745 0.76978 0.59117 0.0
C360 C 0.61505 0.82108 0.10561 0.0
C361 C 0.55735 0.81571 0.09772 0.0
C362 C 0.53525 0.71866 0.07793 0.0
C363 C 0.58752 0.71886 0.08818 0.0
N364 N 0.672 0.76537 0.1147 0.0
N365 N 0.45585 0.75173 0.0798 0.0
C366 C 0.62626 0.76881 0.10279 0.0
C367 C 0.51551 0.7623 0.08483 0.0
N368 N 0.6607 0.87691 0.11488 0.0
N369 N 0.50578 0.67816 0.06108 0.0
H370 H 0.43845 0.78122 0.08518 0.0
H371 H 0.42123 0.70993 0.0723 0.0
H372 H 0.52231 0.64887 0.05479 0.0
H373 H 0.47054 0.67948 0.05181 0.0
H374 H 0.7063 0.88541 0.11878 0.0
H375 H 0.65576 0.91726 0.11681 0.0
H376 H 0.69552 0.79616 0.1275 0.0
H377 H 0.68277 0.72867 0.11312 0.0
C378 C 0.33916 0.8469 0.11116 0.0
C379 C 0.3378 0.89737 0.09979 0.0
C380 C 0.22119 0.82734 0.09569 0.0
C381 C 0.22327 0.78123 0.10942 0.0
N382 N 0.28224 0.75642 0.1351 0.0
N383 N 0.27581 0.93589 0.08119 0.0
C384 C 0.28149 0.79446 0.11895 0.0
C385 C 0.27804 0.88785 0.09219 0.0
N386 N 0.39466 0.84582 0.11297 0.0
N387 N 0.16508 0.81265 0.0857 0.0
H388 H 0.31688 0.97726 0.0759 0.0
H389 H 0.23336 0.93537 0.07767 0.0
H390 H 0.12189 0.77076 0.08911 0.0
H391 H 0.16166 0.84043 0.07351 0.0
H392 H 0.39768 0.80795 0.11991 0.0
H393 H 0.4348 0.87798 0.10435 0.0
H394 H 0.32378 0.76719 0.14349 0.0
H395 H 0.24046 0.71824 0.14154 0.0
C396 C 0.18864 0.45501 0.08357 0.0
C397 C 0.17448 0.49642 0.09576 0.0
C398 C 0.2845 0.55457 0.10919 0.0
C399 C 0.29876 0.51383 0.09705 0.0
N400 N 0.26965 0.43131 0.07025 0.0
N401 N 0.21643 0.59983 0.11273 0.0
C402 C 0.25244 0.46594 0.08338 0.0
C403 C 0.22451 0.55031 0.10643 0.0
N404 N 0.14127 0.40593 0.072 0.0
N405 N 0.32815 0.59755 0.12341 0.0
H406 H 0.1756 0.60105 0.10888 0.0
H407 H 0.25343 0.64318 0.11852 0.0
H408 H 0.37453 0.60523 0.12504 0.0
H409 H 0.31667 0.62227 0.13472 0.0
H410 H 0.14559 0.36886 0.06506 0.0
H411 H 0.09667 0.4019 0.06943 0.0
H412 H 0.24035 0.40013 0.05836 0.0
H413 H 0.31512 0.43611 0.07046 0.0
C414 C 0.83086 0.61683 0.91192 0.0
C415 C 0.82564 0.55819 0.91904 0.0
C416 C 0.71845 0.52347 0.93315 0.0
C417 C 0.72104 0.57927 0.9245 0.0
N418 N 0.77391 0.67102 0.90069 0.0
N419 N 0.75625 0.44804 0.92981 0.0
C420 C 0.77552 0.62368 0.91237 0.0
C421 C 0.76707 0.50926 0.92775 0.0
N422 N 0.88884 0.66706 0.90567 0.0
N423 N 0.67084 0.4848 0.94711 0.0
H424 H 0.78943 0.43483 0.92483 0.0
H425 H 0.71134 0.4093 0.93376 0.0
H426 H 0.63472 0.49392 0.95172 0.0
H427 H 0.67076 0.44723 0.95553 0.0
H428 H 0.89617 0.71286 0.9025 0.0
H429 H 0.93094 0.66489 0.90555 0.0
H430 H 0.80972 0.70004 0.88975 0.0
H431 H 0.73411 0.67726 0.9003 0.0
C432 C 0.53659 0.2173 0.91323 0.0
C433 C 0.4807 0.16609 0.92278 0.0
C434 C 0.44089 0.24108 0.9293 0.0
C435 C 0.4931 0.2886 0.91707 0.0
N436 N 0.58169 0.31618 0.89293 0.0
N437 N 0.37822 0.1291 0.94012 0.0
C438 C 0.53804 0.27482 0.90761 0.0
C439 C 0.43203 0.17782 0.93072 0.0
N440 N 0.59019 0.21301 0.91076 0.0
N441 N 0.40192 0.25718 0.94044 0.0
H442 H 0.37373 0.08483 0.94405 0.0
H443 H 0.33742 0.13201 0.94355 0.0
H444 H 0.40708 0.30291 0.93987 0.0
H445 H 0.36746 0.22685 0.95151 0.0
H446 H 0.63355 0.25011 0.90483 0.0
H447 H 0.59348 0.17648 0.91821 0.0
H448 H 0.61129 0.30486 0.88394 0.0
H449 H 0.58337 0.35851 0.888 0.0
C450 C 0.82575 0.2346 0.91713 0.0
C451 C 0.77183 0.23684 0.92517 0.0
C452 C 0.84207 0.34252 0.94113 0.0
C453 C 0.8962 0.34173 0.93234 0.0
N454 N 0.93839 0.2929 0.90805 0.0
N455 N 0.7265 0.29313 0.9438 0.0
C456 C 0.88782 0.28928 0.91933 0.0
C457 C 0.77943 0.29067 0.93705 0.0
N458 N 0.81815 0.17894 0.90839 0.0
N459 N 0.8507 0.39346 0.95327 0.0
H460 H 0.67967 0.25739 0.94072 0.0
H461 H 0.72756 0.33149 0.95184 0.0
H462 H 0.89442 0.43543 0.9541 0.0
H463 H 0.81594 0.39448 0.96293 0.0
H464 H 0.85629 0.17175 0.9047 0.0
H465 H 0.77364 0.13747 0.90656 0.0
H466 H 0.93321 0.26049 0.89602 0.0
H467 H 0.98502 0.33134 0.90905 0.0
C468 C 0.20913 0.05967 0.44018 0.0
C469 C 0.24976 0.05703 0.42395 0.0
C470 C 0.27366 0.16489 0.41223 0.0
C471 C 0.24156 0.1693 0.43081 0.0
N472 N 0.19142 0.12605 0.46505 0.0
N473 N 0.31662 0.10707 0.39274 0.0
C474 C 0.21468 0.1189 0.44581 0.0
C475 C 0.28136 0.10998 0.40949 0.0
N476 N 0.15926 1.00507 0.44838 0.0
N477 N 0.29538 0.21249 0.39706 0.0
H478 H 0.31407 0.06439 0.38789 0.0
H479 H 0.34808 0.1468 0.38356 0.0
H480 H 0.29344 0.25457 0.3992 0.0
H481 H 0.31271 0.20938 0.38202 0.0
H482 H 0.12573 1.00464 0.45914 0.0
H483 H 0.14507 0.96116 0.44136 0.0
H484 H 0.1764 0.09152 0.47722 0.0
H485 H 0.19298 0.16861 0.4696 0.0
C486 C 0.95536 0.20642 0.4451 0.0
C487 C 1.00891 0.22568 0.43103 0.0
C488 C 0.97497 0.11227 0.42521 0.0
C489 C 0.91741 0.09369 0.43668 0.0
N490 N 0.84488 0.12659 0.45138 0.0
N491 N 0.05381 0.19357 0.40191 0.0
C492 C 0.9051 0.14158 0.4449 0.0
C493 C 1.01467 0.17775 0.41948 0.0
N494 N 0.95258 0.24823 0.45938 0.0
N495 N 0.99219 0.06787 0.41982 0.0
H496 H 0.07639 0.23942 0.39518 0.0
H497 H 0.05593 0.15924 0.39222 0.0
H498 H 0.96522 0.01959 0.42429 0.0
H499 H 0.03663 0.08069 0.41299 0.0
H500 H 0.91648 0.2335 0.47097 0.0
H501 H 0.98978 0.29473 0.46205 0.0
H502 H 0.83318 0.16156 0.4555 0.0
H503 H 0.80484 0.0809 0.45002 0.0
C504 C 0.92643 0.81595 0.45167 0.0
C505 C 0.96196 0.82786 0.4323 0.0
C506 C 0.86739 0.81328 0.41244 0.0
C507 C 0.83023 0.79357 0.43172 0.0
N508 N 0.82259 0.7537 0.46801 0.0
N509 N 0.9585 0.82016 0.39342 0.0
C510 C 0.85892 0.78752 0.45078 0.0
C511 C 0.93059 0.82209 0.41238 0.0
N512 N 0.95678 0.83482 0.47103 0.0
N513 N 0.84201 0.82135 0.39393 0.0
H514 H 1.00191 0.82075 0.39251 0.0
H515 H 0.93491 0.80996 0.37871 0.0
H516 H 0.79406 0.80827 0.39247 0.0
H517 H 0.86959 0.84365 0.38029 0.0
H518 H 0.9322 0.83061 0.48532 0.0
H519 H 1.00641 0.86262 0.4725 0.0
H520 H 0.8423 0.74368 0.48133 0.0
H521 H 0.77282 0.72867 0.4679 0.0
C522 C 0.45806 0.96399 0.25872 0.0
C523 C 0.39561 0.91506 0.2525 0.0
C524 C 0.44082 0.85013 0.23882 0.0
C525 C 0.50117 0.89548 0.24684 0.0
N526 N 0.56839 0.99314 0.26625 0.0
N527 N 0.32783 0.80322 0.24346 0.0
C528 C 0.51043 0.9522 0.25714 0.0
C529 C 0.38707 0.85592 0.24433 0.0
N530 N 0.46704 0.02079 0.26682 0.0
N531 N 0.43466 0.8009 0.22611 0.0
H532 H 0.2899 0.80307 0.25115 0.0
H533 H 0.31875 0.75791 0.23863 0.0
H534 H 0.47352 0.79519 0.22192 0.0
H535 H 0.39261 0.76998 0.21796 0.0
H536 H 0.51199 0.06141 0.26884 0.0
H537 H 0.42927 0.02785 0.27127 0.0
H538 H 0.57652 0.03133 0.27619 0.0
H539 H 0.60804 0.98682 0.26482 0.0
C540 C 0.20077 0.60416 0.26513 0.0
C541 C 0.16547 0.62194 0.25135 0.0
C542 C 0.10468 0.51096 0.23842 0.0
C543 C 0.13506 0.49174 0.25405 0.0
N544 N 0.1955 0.51935 0.28715 0.0
N545 N 0.07213 0.58806 0.22905 0.0
C546 C 0.17871 0.53812 0.26875 0.0
C547 C 0.11418 0.57427 0.23911 0.0
N548 N 0.25602 0.64992 0.27457 0.0
N549 N 0.06805 0.47017 0.22247 0.0
H550 H 0.07535 0.6329 0.22978 0.0
H551 H 0.02976 0.55303 0.222 0.0
H552 H 0.0592 0.42351 0.22074 0.0
H553 H 0.05116 0.48497 0.20956 0.0
H554 H 0.28634 0.63863 0.28305 0.0
H555 H 0.27513 0.69904 0.27209 0.0
H556 H 0.22341 0.55152 0.29911 0.0
H557 H 0.17382 0.47154 0.29198 0.0
C558 C 0.54914 0.60087 0.25971 0.0
C559 C 0.56301 0.66266 0.26714 0.0
C560 C 0.45027 0.63166 0.2626 0.0
C561 C 0.43526 0.56931 0.25596 0.0
N562 N 0.46791 0.48897 0.25519 0.0
N563 N 0.51904 0.71927 0.28577 0.0
C564 C 0.48393 0.55212 0.25642 0.0
C565 C 0.51136 0.67323 0.27143 0.0
N566 N 0.59724 0.58793 0.25568 0.0
N567 N 0.40678 0.65188 0.26036 0.0
H568 H 0.55925 0.74087 0.29559 0.0
H569 H 0.4817 0.72672 0.29053 0.0
H570 H 0.36208 0.62373 0.25324 0.0
H571 H 0.41816 0.69907 0.26355 0.0
H572 H 0.58995 0.54701 0.24747 0.0
H573 H 0.64498 0.61887 0.25947 0.0
H574 H 0.50053 0.4733 0.25784 0.0
H575 H 0.42094 0.45113 0.25399 0.0
C576 C 0.88009 0.44727 0.74911 0.0
C577 C 0.90654 0.49142 0.76646 0.0
C578 C 0.95913 0.43303 0.77961 0.0
C579 C 0.9362 0.39206 0.7614 0.0
N580 N 0.88964 0.37109 0.72613 0.0
N581 N 0.98292 0.53464 0.79552 0.0
C582 C 0.90126 0.4026 0.74531 0.0
C583 C 0.94908 0.48649 0.78108 0.0
N584 N 0.83247 0.44572 0.73681 0.0
N585 N 0.99056 0.42094 0.79553 0.0
H586 H 0.97906 0.57581 0.79668 0.0
H587 H 0.01959 0.53698 0.80497 0.0
H588 H 1.00365 0.38576 0.79427 0.0
H589 H 1.00075 0.44366 0.81043 0.0
H590 H 0.80696 0.41004 0.72547 0.0
H591 H 0.81352 0.47575 0.7394 0.0
H592 H 0.86938 0.38109 0.71299 0.0
H593 H 0.90726 0.34043 0.72258 0.0
C594 C 0.69241 0.51646 0.77173 0.0
C595 C 0.68422 0.56798 0.76472 0.0
C596 C 0.56752 0.49356 0.76462 0.0
C597 C 0.57737 0.44598 0.77451 0.0
N598 N 0.64865 0.41923 0.79281 0.0
N599 N 0.61223 0.60474 0.75338 0.0
C600 C 0.63957 0.46013 0.78007 0.0
C601 C 0.62102 0.5564 0.76101 0.0
N602 N 0.74881 0.51801 0.76843 0.0
N603 N 0.50715 0.47819 0.75839 0.0
H604 H 0.6497 0.64775 0.74734 0.0
H605 H 0.56796 0.60249 0.75315 0.0
H606 H 0.46663 0.43429 0.76223 0.0
H607 H 0.49726 0.50764 0.74881 0.0
H608 H 0.75537 0.47931 0.77203 0.0
H609 H 0.78372 0.55243 0.75851 0.0
H610 H 0.69369 0.43052 0.79855 0.0
H611 H 0.61071 0.37749 0.79939 0.0
C612 C 0.56422 0.21238 0.76803 0.0
C613 C 0.51132 0.14864 0.76653 0.0
C614 C 0.58745 0.10839 0.76934 0.0
C615 C 0.63713 0.17146 0.7745 0.0
N616 N 0.66985 0.28138 0.78262 0.0
N617 N 0.4746 0.03502 0.76319 0.0
C618 C 0.62437 0.22261 0.77514 0.0
C619 C 0.52349 0.09626 0.76669 0.0
N620 N 0.55939 0.26321 0.76085 0.0
N621 N 0.60196 0.06109 0.76534 0.0
H622 H 0.43146 0.02489 0.7561 0.0
H623 H 0.47728 0.99424 0.76703 0.0
H624 H 0.64802 0.06789 0.76662 0.0
H625 H 0.56954 0.01623 0.75907 0.0
H626 H 0.59815 0.31002 0.76018 0.0
H627 H 0.52074 0.25688 0.75184 0.0
H628 H 0.66074 0.31879 0.78521 0.0
H629 H 0.71428 0.29056 0.78837 0.0
C630 C 0.05034 0.19248 0.58801 0.0
C631 C 0.0622 0.25426 0.59412 0.0
C632 C 0.17795 0.29284 0.59289 0.0
C633 C 0.16436 0.2331 0.58385 0.0
N634 N 0.08838 0.13252 0.56773 0.0
N635 N 0.13837 0.36265 0.60502 0.0
C636 C 0.10081 0.18534 0.57954 0.0
C637 C 0.12656 0.30461 0.59718 0.0
N638 N 0.99291 0.13945 0.59237 0.0
N639 N 0.23992 0.33755 0.59773 0.0
H640 H 0.10286 0.36916 0.61221 0.0
H641 H 0.18321 0.40414 0.60471 0.0
H642 H 0.27877 0.33215 0.59329 0.0
H643 H 0.25313 0.37906 0.60658 0.0
H644 H 0.98388 0.09282 0.5897 0.0
H645 H 0.96018 0.14213 0.60252 0.0
H646 H 0.04227 0.09858 0.56287 0.0
H647 H 0.12475 0.12693 0.56079 0.0
C648 C 0.75965 0.84989 0.59716 0.0
C649 C 0.80969 0.83755 0.59129 0.0
C650 C 0.87046 0.94569 0.57567 0.0
C651 C 0.82388 0.96019 0.5831 0.0
N652 N 0.72488 0.92842 0.60189 0.0
N653 N 0.9225 0.88555 0.5833 0.0
C654 C 0.76845 0.91276 0.59408 0.0
C655 C 0.86779 0.88856 0.58281 0.0
N656 N 0.70469 0.80228 0.60639 0.0
N657 N 0.91824 0.98681 0.56211 0.0
H658 H 0.92448 0.84871 0.59109 0.0
H659 H 0.96724 0.92462 0.57953 0.0
H660 H 0.92169 0.02915 0.55636 0.0
H661 H 0.95041 0.97537 0.55491 0.0
H662 H 0.66296 0.80462 0.60821 0.0
H663 H 0.70069 0.75983 0.6123 0.0
H664 H 0.68746 0.89939 0.61228 0.0
H665 H 0.72742 0.97214 0.59843 0.0
C666 C 0.18367 1.01223 0.59182 0.0
C667 C 0.23196 1.002 0.60054 0.0
C668 C 0.15409 0.8853 0.59991 0.0
C669 C 0.11098 0.89737 0.588 0.0
N670 N 0.09351 0.97254 0.56783 0.0
N671 N 0.25973 0.92648 0.61557 0.0
C672 C 0.12904 0.96082 0.58217 0.0
C673 C 0.21629 0.93761 0.60528 0.0
N674 N 0.18548 0.06882 0.59524 0.0
N675 N 0.13479 0.82392 0.60648 0.0
H676 H 0.2995 0.96254 0.6235 0.0
H677 H 0.25593 0.88146 0.61656 0.0
H678 H 0.09168 0.78445 0.60151 0.0
H679 H 0.16005 0.81203 0.61729 0.0
H680 H 0.14811 0.0764 0.59086 0.0
H681 H 0.21739 0.1014 0.60627 0.0
H682 H 0.10782 0.01869 0.5622 0.0
H683 H 0.0545 0.93562 0.55981 0.0
C684 C 0.53628 0.98166 0.02232 0.0
C685 C 0.54409 0.03666 0.03357 0.0
C686 C 0.53602 0.08292 0.99928 0.0
C687 C 0.52111 0.02487 0.98852 0.0
N688 N 0.49508 0.91388 0.99097 0.0
N689 N 0.58603 0.15093 0.0301 0.0
C690 C 0.51744 0.97263 1.00037 0.0
C691 C 0.5536 0.09077 0.02137 0.0
N692 N 0.55468 0.94213 0.03173 0.0
N693 N 0.53009 0.12951 0.98868 0.0
H694 H 0.6098 0.16001 0.04476 0.0
H695 H 0.59873 0.19275 0.02143 0.0
H696 H 0.51446 0.12446 0.97281 0.0
H697 H 0.53357 0.16975 0.9963 0.0
H698 H 0.5548 0.90406 0.02375 0.0
H699 H 0.58032 0.95413 0.04607 0.0
H700 H 0.48496 0.87272 0.99964 0.0
H701 H 0.4807 0.9045 0.975 0.0
C702 C 0.09477 0.58213 1.00202 0.0
C703 C 0.04015 0.53721 0.99039 0.0
C704 C 0.97812 0.50639 0.02369 0.0
C705 C 0.03454 0.54207 0.03596 0.0
N706 N 0.15149 0.59942 0.0354 0.0
N707 N 0.93974 0.43762 0.99294 0.0
C708 C 0.09461 0.57662 0.02484 0.0
C709 C 0.98411 0.49412 1.0019 0.0
N710 N 0.14663 0.62976 0.99148 0.0
N711 N 0.91885 0.4843 0.03254 0.0
H712 H 0.94994 0.42119 0.97881 0.0
H713 H 0.89946 0.40328 1.00133 0.0
H714 H 0.91248 0.49768 0.04788 0.0
H715 H 0.87701 0.46016 0.02348 0.0
H716 H 0.1856 0.6666 0.99954 0.0
H717 H 0.14737 0.63599 0.97487 0.0
H718 H 0.19547 0.62044 0.02737 0.0
H719 H 0.15496 0.58957 0.05147 0.0
C720 C 0.4759 0.4931 0.99667 0.0
C721 C 0.53468 0.52738 0.98528 0.0
C722 C 0.59227 0.56469 0.01944 0.0
C723 C 0.53457 0.52532 0.0311 0.0
N724 N 0.42185 0.44502 0.0303 0.0
N725 N 0.65025 0.58571 0.986 0.0
C726 C 0.47638 0.4876 0.01956 0.0
C727 C 0.59314 0.55984 0.99674 0.0
N728 N 0.41944 0.46765 0.98568 0.0
N729 N 0.64572 0.61055 0.02972 0.0
H730 H 0.65338 0.5854 0.96939 0.0
H731 H 0.69412 0.60213 0.99365 0.0
H732 H 0.64773 0.61864 0.04613 0.0
H733 H 0.68615 0.64573 0.02166 0.0
H734 H 0.37478 0.44851 0.99312 0.0
H735 H 0.41763 0.47036 0.96899 0.0
H736 H 0.38017 0.41107 0.02265 0.0
H737 H 0.4195 0.43993 0.04692 0.0
C738 C 0.24665 0.37756 0.35386 0.0
C739 C 0.19291 0.37211 0.36516 0.0
C740 C 0.13741 0.36057 0.33109 0.0
C741 C 0.1887 0.36008 0.31991 0.0
N742 N 0.28738 0.35752 0.32077 0.0
N743 N 0.08202 0.34556 0.36498 0.0
C744 C 0.24215 0.36577 0.33133 0.0
C745 C 0.13687 0.36016 0.35392 0.0
N746 N 0.30259 0.39586 0.36457 0.0
N747 N 0.09045 0.36426 0.32 0.0
H748 H 0.07909 0.34462 0.38171 0.0
H749 H 0.03775 0.32872 0.35759 0.0
H750 H 0.08851 0.3648 0.30328 0.0
H751 H 0.05649 0.3727 0.32739 0.0
H752 H 0.34547 0.40707 0.35691 0.0
H753 H 0.30763 0.40547 0.38102 0.0
H754 H 0.32398 0.35453 0.32854 0.0
H755 H 0.28496 0.34767 0.30436 0.0
C756 C 0.69399 0.79611 0.35682 0.0
C757 C 0.6987 0.85034 0.36766 0.0
C758 C 0.69613 0.89726 0.33284 0.0
C759 C 0.69911 0.84684 0.32185 0.0
N760 N 0.71374 0.75422 0.3243 0.0
N761 N 0.72229 0.96053 0.36535 0.0
C762 C 0.7019 0.79811 0.3341 0.0
C763 C 0.70528 0.90337 0.35551 0.0
N764 N 0.68253 0.74243 0.36808 0.0
N765 N 0.68411 0.93934 0.32188 0.0
H766 H 0.73149 0.96816 0.38174 0.0
H767 H 0.73397 1.00242 0.35685 0.0
H768 H 0.67835 0.9383 0.30529 0.0
H769 H 0.67449 0.97217 0.32957 0.0
H770 H 0.66933 0.69856 0.36073 0.0
H771 H 0.68219 0.73985 0.38479 0.0
H772 H 0.72459 0.72341 0.33271 0.0
H773 H 0.71883 0.75213 0.30786 0.0
C774 C 0.26806 0.92514 0.33156 0.0
C775 C 0.21536 0.8766 0.32005 0.0
C776 C 0.1598 0.82783 0.3542 0.0
C777 C 0.21413 0.87428 0.36585 0.0
N778 N 0.32333 0.96386 0.36532 0.0
N779 N 0.11485 0.77652 0.32 0.0
C780 C 0.26915 0.92191 0.35442 0.0
C781 C 0.16233 0.82649 0.33126 0.0
N782 N 0.31734 0.97492 0.3206 0.0
N783 N 0.10546 0.78485 0.36498 0.0
H784 H 0.11325 0.77485 0.30327 0.0
H785 H 0.07915 0.73444 0.3271 0.0
H786 H 0.10282 0.78002 0.38161 0.0
H787 H 0.06152 0.75611 0.35755 0.0
H788 H 0.35222 0.01691 0.32788 0.0
H789 H 0.32196 0.97627 0.3039 0.0
H790 H 0.36774 0.9924 0.358 0.0
H791 H 0.32558 0.96846 0.3819 0.0
C792 C 0.89399 0.67023 0.68974 0.0
C793 C 0.88749 0.71771 0.70136 0.0
C794 C 0.86462 0.75556 0.66779 0.0
C795 C 0.86465 0.7043 0.6565 0.0
N796 N 0.87847 0.61164 0.65637 0.0
N797 N 0.90568 0.82599 0.69838 0.0
C798 C 0.87901 0.66115 0.66739 0.0
C799 C 0.88387 0.76651 0.68962 0.0
N800 N 0.92179 0.6394 0.69952 0.0
N801 N 0.84422 0.79283 0.65786 0.0
H802 H 0.93259 0.84048 0.71244 0.0
H803 H 0.90773 0.86442 0.68993 0.0
H804 H 0.82831 0.78561 0.64198 0.0
H805 H 0.83679 0.8264 0.66606 0.0
H806 H 0.932 0.60711 0.69181 0.0
H807 H 0.94329 0.65323 0.71457 0.0
H808 H 0.88038 0.57376 0.66375 0.0
H809 H 0.87233 0.60625 0.63978 0.0
C810 C 0.31233 0.1597 0.66852 0.0
C811 C 0.37044 0.19849 0.65694 0.0
C812 C 0.42796 0.22436 0.69118 0.0
C813 C 0.36904 0.196 0.70285 0.0
N814 N 0.2535 0.14908 0.70117 0.0
N815 N 0.48255 0.28091 0.65883 0.0
C816 C 0.31067 0.16769 0.69112 0.0
C817 C 0.42792 0.23519 0.66874 0.0
N818 N 0.25977 0.1116 0.65851 0.0
N819 N 0.48356 0.2364 0.70091 0.0
H820 H 0.48464 0.29267 0.64262 0.0
H821 H 0.52377 0.31205 0.66737 0.0
H822 H 0.48488 0.22105 0.71645 0.0
H823 H 0.52646 0.25268 0.69247 0.0
H824 H 0.21845 0.07917 0.66688 0.0
H825 H 0.26031 0.09801 0.64266 0.0
H826 H 0.21099 0.13355 0.69271 0.0
H827 H 0.24932 0.15569 0.71751 0.0
C828 C 0.94098 0.24882 0.66816 0.0
C829 C 0.88219 0.2116 0.6573 0.0
C830 C 0.82693 0.17105 0.69193 0.0
C831 C 0.88469 0.2137 0.70292 0.0
N832 N 0.99382 0.30265 0.70084 0.0
N833 N 0.7677 0.14188 0.65837 0.0
C834 C 0.94101 0.25492 0.69085 0.0
C835 C 0.8247 0.17392 0.66905 0.0
N836 N 0.99738 0.27709 0.65684 0.0
N837 N 0.77499 0.12572 0.70318 0.0
H838 H 0.76465 0.14058 0.64164 0.0
H839 H 0.72322 0.12026 0.66604 0.0
H840 H 0.77419 0.1212 0.71984 0.0
H841 H 0.7344 0.08872 0.69592 0.0
H842 H 0.04224 0.29824 0.6641 0.0
H843 H 0.99958 0.27413 0.64017 0.0
H844 H 0.03304 0.3388 0.69258 0.0
H845 H 0.99609 0.31048 0.71727 0.0
C846 C 0.34385 0.88152 0.18396 0.0
C847 C 0.30935 0.91345 0.18936 0.0
C848 C 0.38807 1.00809 0.16903 0.0
C849 C 0.42219 0.9764 0.163 0.0
N850 N 0.44519 0.89271 0.17229 0.0
N851 N 0.28415 0.99382 0.17769 0.0
C852 C 0.40347 0.91553 0.17254 0.0
C853 C 0.32707 0.97267 0.17901 0.0
N854 N 0.3173 0.8173 0.18801 0.0
N855 N 0.41601 0.0733 0.16725 0.0
H856 H 0.2366 0.96556 0.18275 0.0
H857 H 0.29326 0.03452 0.1689 0.0
H858 H 0.46476 0.10274 0.16401 0.0
H859 H 0.39393 0.09852 0.17271 0.0
H860 H 0.33828 0.79044 0.18329 0.0
H861 H 0.26975 0.78878 0.19289 0.0
H862 H 0.437 0.8515 0.18051 0.0
H863 H 0.49207 0.92013 0.16656 0.0
C864 C 0.15162 0.51167 0.17164 0.0
C865 C 0.08744 0.4737 0.16415 0.0
C866 C 0.08145 0.37907 0.18157 0.0
C867 C 0.14382 0.41693 0.19014 0.0
N868 N 0.24663 0.5121 0.18459 0.0
N869 N 0.98519 0.37917 0.17174 0.0
C870 C 0.1815 0.48144 0.18273 0.0
C871 C 0.05057 0.40954 0.17187 0.0
N872 N 0.18218 0.57714 0.17014 0.0
N873 N 0.05279 0.31363 0.18143 0.0
H874 H 0.96057 0.40317 0.16778 0.0
H875 H 0.95642 0.33402 0.17868 0.0
H876 H 0.07751 0.28989 0.18558 0.0
H877 H 1.00875 0.28432 0.17405 0.0
H878 H 0.22716 0.60729 0.17674 0.0
H879 H 0.15863 0.60167 0.16566 0.0
H880 H 0.27719 0.557 0.17781 0.0
H881 H 0.27033 0.48837 0.18987 0.0
C882 C 0.61408 0.7503 0.1759 0.0
C883 C 0.64268 0.73698 0.19354 0.0
C884 C 0.62032 0.63531 0.17622 0.0
C885 C 0.58795 0.64661 0.15929 0.0
N886 N 0.54339 0.71021 0.14528 0.0
N887 N 0.65862 0.6583 0.21273 0.0
C888 C 0.58103 0.70229 0.15992 0.0
C889 C 0.64221 0.67733 0.19427 0.0
N890 N 0.62169 0.81037 0.1737 0.0
N891 N 0.62957 0.58363 0.17525 0.0
H892 H 0.6709 0.68455 0.22691 0.0
H893 H 0.65357 0.61302 0.21481 0.0
H894 H 0.60774 0.54723 0.16383 0.0
H895 H 0.66145 0.57842 0.18514 0.0
H896 H 0.60858 0.82568 0.15995 0.0
H897 H 0.64717 0.8473 0.18467 0.0
H898 H 0.5301 0.74513 0.14683 0.0
H899 H 0.52166 0.67995 0.13228 0.0
C900 C 1.01511 0.392 0.85158 0.0
C901 C 0.97135 0.40041 0.86449 0.0
C902 C 0.88268 0.30404 0.8472 0.0
C903 C 0.92809 0.29523 0.83516 0.0
N904 N 0.03578 0.31175 0.83691 0.0
N905 N 0.86173 0.35273 0.87795 0.0
C906 C 0.99389 0.33333 0.8406 0.0
C907 C 0.90436 0.35363 0.86316 0.0
N908 N 0.07743 0.44011 0.84971 0.0
N909 N 0.81868 0.26289 0.84428 0.0
H910 H 0.87375 0.38519 0.89048 0.0
H911 H 0.81437 0.31563 0.87919 0.0
H912 H 0.80114 0.21831 0.83685 0.0
H913 H 0.78327 0.27275 0.8494 0.0
H914 H 0.10972 0.43718 0.8392 0.0
H915 H 0.09431 0.48524 0.85672 0.0
H916 H 0.08362 0.33741 0.84169 0.0
H917 H 0.02041 0.26418 0.83275 0.0
C918 C 0.65976 0.54786 0.84468 0.0
C919 C 0.64245 0.59053 0.8545 0.0
C920 C 0.74022 0.68182 0.83957 0.0
C921 C 0.75722 0.63972 0.82924 0.0
N922 N 0.74581 0.53401 0.8306 0.0
N923 N 0.65261 0.69548 0.85152 0.0
C924 C 0.72042 0.57284 0.83408 0.0
C925 C 0.67871 0.65685 0.84915 0.0
N926 N 0.6162 0.48362 0.84401 0.0
N927 N 0.78456 0.7455 0.8417 0.0
H928 H 0.60417 0.67698 0.85511 0.0
H929 H 0.67597 0.74334 0.84649 0.0
H930 H 0.83259 0.76395 0.83745 0.0
H931 H 0.77582 0.77722 0.85055 0.0
H932 H 0.62393 0.45063 0.83558 0.0
H933 H 0.56892 0.46504 0.8492 0.0
H934 H 0.72321 0.48609 0.83549 0.0
H935 H 0.79361 0.55207 0.82626 0.0
C936 C 0.49839 0.18009 0.83852 0.0
C937 C 0.43313 0.14525 0.83184 0.0
C938 C 0.4212 0.04952 0.85022 0.0
C939 C 0.48519 0.08411 0.85782 0.0
N940 N 0.59059 0.17479 0.8514 0.0
N941 N 0.32838 0.0577 0.84173 0.0
C942 C 0.52563 0.14759 0.84984 0.0
C943 C 0.39325 0.08314 0.84074 0.0
N944 N 0.53268 0.24529 0.83595 0.0
N945 N 0.38814 0.98389 0.85044 0.0
H946 H 0.30668 0.08475 0.83809 0.0
H947 H 0.29801 0.01409 0.84938 0.0
H948 H 0.41023 0.95708 0.85385 0.0
H949 H 0.34249 0.95694 0.84383 0.0
H950 H 0.57878 0.27401 0.84193 0.0
H951 H 0.51151 0.27173 0.83098 0.0
H952 H 0.62296 0.21858 0.84431 0.0
H953 H 0.61203 0.1491 0.85693 0.0
C954 C 0.04843 0.3282 0.528 0.0
C955 C 0.99253 0.26542 0.52916 0.0
C956 C 0.03142 0.23399 0.49707 0.0
C957 C 0.08316 0.29842 0.49463 0.0
N958 N 0.14556 0.40484 0.50911 0.0
N959 N 0.92571 0.16329 0.51211 0.0
C960 C 0.09312 0.34441 0.51069 0.0
C961 C 0.9832 0.21945 0.5131 0.0
N962 N 0.06037 0.37275 0.54361 0.0
N963 N 0.02764 0.18605 0.48423 0.0
H964 H 0.88799 0.1522 0.52276 0.0
H965 H 0.91245 0.1311 0.49935 0.0
H966 H 0.05952 0.19317 0.47183 0.0
H967 H 0.99561 0.13749 0.48705 0.0
H968 H 0.10563 0.4118 0.54669 0.0
H969 H 0.02534 0.3724 0.55337 0.0
H970 H 0.15109 0.44455 0.51764 0.0
H971 H 0.18389 0.41571 0.49875 0.0
C972 C 0.71679 0.73912 0.50592 0.0
C973 C 0.74968 0.80387 0.49863 0.0
C974 C 0.84205 0.82331 0.52113 0.0
C975 C 0.80995 0.75714 0.52735 0.0
N976 N 0.7298 0.65008 0.51659 0.0
N977 N 0.8319 0.91186 0.50682 0.0
C978 C 0.75095 0.71446 0.51716 0.0
C979 C 0.80913 0.84729 0.50842 0.0
N980 N 0.65202 0.70179 0.50353 0.0
N981 N 0.9058 0.86204 0.5253 0.0
H982 H 0.80561 0.93026 0.49946 0.0
H983 H 0.87156 0.94622 0.51527 0.0
H984 H 0.93474 0.84431 0.53074 0.0
H985 H 0.93252 0.9092 0.51978 0.0
H986 H 0.62601 0.65527 0.50975 0.0
H987 H 0.62329 0.7207 0.49892 0.0
H988 H 0.68959 0.61769 0.50787 0.0
H989 H 0.75781 0.63102 0.52198 0.0
C990 C 0.29706 0.04542 0.49377 0.0
C991 C 0.26422 0.97719 0.49585 0.0
C992 C 0.27519 0.98914 0.53489 0.0
C993 C 0.30075 0.0569 0.53292 0.0
N994 N 0.32545 0.14775 0.51016 0.0
N995 N 0.21206 0.88381 0.51862 0.0
C996 C 0.30762 0.08431 0.51225 0.0
C997 C 0.24972 0.94896 0.51651 0.0
N998 N 0.32196 0.07357 0.47437 0.0
N999 N 0.27807 0.96318 0.55402 0.0
H1000 H 0.19446 0.85297 0.50544 0.0
H1001 H 0.19409 0.86114 0.53337 0.0
H1002 H 0.30027 0.99125 0.56734 0.0
H1003 H 0.26532 0.91515 0.55597 0.0
H1004 H 0.35084 0.12304 0.47224 0.0
H1005 H 0.32058 0.04719 0.46098 0.0
H1006 H 0.32405 0.16826 0.49556 0.0
H1007 H 0.33658 0.17863 0.52326 0.0
C1008 C 0.45503 0.31887 0.08801 0.0
C1009 C 0.49952 0.37153 0.10066 0.0
C1010 C 0.55514 0.31214 0.10855 0.0
C1011 C 0.50435 0.25588 0.09898 0.0
N1012 N 0.39574 0.20356 0.08519 0.0
N1013 N 0.58223 0.41031 0.12757 0.0
C1014 C 0.45145 0.2585 0.09017 0.0
C1015 C 0.54725 0.36626 0.11218 0.0
N1016 N 0.41672 0.32629 0.07358 0.0
N1017 N 0.61162 0.31514 0.11357 0.0
H1018 H 0.57406 0.44759 0.13181 0.0
H1019 H 0.61395 0.40539 0.13766 0.0
H1020 H 0.62135 0.27864 0.10976 0.0
H1021 H 0.65132 0.35709 0.11912 0.0
H1022 H 0.38781 0.29054 0.06268 0.0
H1023 H 0.41953 0.37028 0.07079 0.0
H1024 H 0.35445 0.20387 0.08045 0.0
H1025 H 0.38747 0.15757 0.08855 0.0
C1026 C 0.70186 0.2057 0.11649 0.0
C1027 C 0.68828 0.15715 0.10093 0.0
C1028 C 0.7968 0.22322 0.08614 0.0
C1029 C 0.80813 0.27478 0.10002 0.0
N1030 N 0.76002 0.31998 0.12344 0.0
N1031 N 0.71648 0.1334 0.06604 0.0
C1032 C 0.75726 0.26766 0.11371 0.0
C1033 C 0.73364 0.1703 0.08418 0.0
N1034 N 0.66436 0.19297 0.1344 0.0
N1035 N 0.84611 0.22189 0.0757 0.0
H1036 H 0.66969 0.09691 0.06312 0.0
H1037 H 0.74691 0.14477 0.05277 0.0
H1038 H 0.89416 0.25566 0.07812 0.0
H1039 H 0.83957 0.18222 0.06682 0.0
H1040 H 0.67679 0.22537 0.14709 0.0
H1041 H 0.62472 0.14833 0.13781 0.0
H1042 H 0.72251 0.31728 0.13262 0.0
H1043 H 0.79556 0.36703 0.12012 0.0
C1044 C 0.78019 0.50107 0.09755 0.0
C1045 C 0.77839 0.55246 0.10801 0.0
C1046 C 0.8822 0.58638 0.12449 0.0
C1047 C 0.88945 0.54341 0.11077 0.0
N1048 N 0.84519 0.45638 0.0854 0.0
N1049 N 0.82469 0.64306 0.13212 0.0
C1050 C 0.83783 0.49877 0.09794 0.0
C1051 C 0.82808 0.59429 0.122 0.0
N1052 N 0.72665 0.45443 0.08747 0.0
N1053 N 0.92705 0.61894 0.13997 0.0
H1054 H 0.78486 0.64915 0.13103 0.0
H1055 H 0.86253 0.67959 0.14061 0.0
H1056 H 0.96625 0.61236 0.14234 0.0
H1057 H 0.92244 0.64732 0.15169 0.0
H1058 H 0.72269 0.4123 0.08133 0.0
H1059 H 0.68376 0.45518 0.08682 0.0
H1060 H 0.81278 0.42753 0.0737 0.0
H1061 H 0.88567 0.45179 0.0864 0.0
C1062 C 0.33119 0.45086 0.92161 0.0
C1063 C 0.37933 0.50257 0.90939 0.0
C1064 C 0.30846 0.54711 0.9049 0.0
C1065 C 0.25785 0.4922 0.9154 0.0
N1066 N 0.21753 0.38349 0.92822 0.0
N1067 N 0.40721 0.58932 0.88444 0.0
C1068 C 0.2682 0.44173 0.9223 0.0
C1069 C 0.36597 0.54746 0.89949 0.0
N1070 N 0.34539 0.41036 0.93262 0.0
N1071 N 0.3036 0.60048 0.90103 0.0
H1072 H 0.4489 0.58953 0.87967 0.0
H1073 H 0.39677 0.61911 0.87522 0.0
H1074 H 0.26412 0.60445 0.90547 0.0
H1075 H 0.34195 0.64368 0.89549 0.0
H1076 H 0.31408 0.37655 0.9437 0.0
H1077 H 0.39036 0.41404 0.93214 0.0
H1078 H 0.22191 0.34329 0.93139 0.0
H1079 H 0.17 0.37273 0.92744 0.0
C1080 C 0.56616 0.87191 0.93679 0.0
C1081 C 0.55145 0.8947 0.91773 0.0
C1082 C 0.54296 0.80243 0.89783 0.0
C1083 C 0.55693 0.77979 0.917 0.0
N1084 N 0.56055 0.7813 0.95573 0.0
N1085 N 0.51001 0.87267 0.88143 0.0
C1086 C 0.56225 0.81107 0.93678 0.0
C1087 C 0.53403 0.85676 0.89873 0.0
N1088 N 0.5851 0.90881 0.95496 0.0
N1089 N 0.54228 0.77473 0.87855 0.0
H1090 H 0.50422 0.9127 0.88097 0.0
H1091 H 0.49006 0.84273 0.86818 0.0
H1092 H 0.54971 0.73573 0.87709 0.0
H1093 H 0.53998 0.79377 0.86376 0.0
H1094 H 0.60536 0.89893 0.96813 0.0
H1095 H 0.58319 0.95092 0.95666 0.0
H1096 H 0.55725 0.79878 0.97073 0.0
H1097 H 0.55512 0.73547 0.95648 0.0
C1098 C 0.24415 0.78693 0.89906 0.0
C1099 C 0.28669 0.79871 0.91642 0.0
C1100 C 0.22116 0.68696 0.92845 0.0
C1101 C 0.17383 0.67799 0.91319 0.0
N1102 N 0.14924 0.70951 0.87955 0.0
N1103 N 0.31538 0.76227 0.94839 0.0
C1104 C 0.18803 0.72536 0.89717 0.0
C1105 C 0.27571 0.74908 0.93113 0.0
N1106 N 0.25718 0.83495 0.88459 0.0
N1107 N 0.21559 0.63571 0.93964 0.0
H1108 H 0.35599 0.80708 0.95094 0.0
H1109 H 0.30548 0.73057 0.96115 0.0
H1110 H 0.18 0.58921 0.93625 0.0
H1111 H 0.25076 0.63772 0.94979 0.0
H1112 H 0.22526 0.83268 0.87297 0.0
H1113 H 0.30003 0.87884 0.88451 0.0
H1114 H 0.1577 0.73959 0.86644 0.0
H1115 H 0.11095 0.66306 0.87709 0.0
C1116 C 0.13282 0.66928 0.42726 0.0
C1117 C 0.17956 0.7159 0.44115 0.0
C1118 C 0.21827 0.64212 0.44971 0.0
C1119 C 0.16695 0.59271 0.4377 0.0
N1120 N 0.06507 0.55606 0.42005 0.0
N1121 N 0.25518 0.74076 0.46979 0.0
C1122 C 0.12149 0.60537 0.4277 0.0
C1123 C 0.21877 0.70055 0.45368 0.0
N1124 N 0.0985 0.68561 0.41384 0.0
N1125 N 0.26841 0.63524 0.45643 0.0
H1126 H 0.25752 0.78456 0.47294 0.0
H1127 H 0.2789 0.72808 0.48104 0.0
H1128 H 0.27326 0.59569 0.45272 0.0
H1129 H 0.30912 0.67229 0.46364 0.0
H1130 H 0.06943 0.65559 0.40162 0.0
H1131 H 0.10281 0.73097 0.41379 0.0
H1132 H 0.0279 0.56241 0.41449 0.0
H1133 H 0.05162 0.50778 0.42172 0.0
C1134 C 0.4555 0.56369 0.45158 0.0
C1135 C 0.46668 0.61437 0.43732 0.0
C1136 C 0.35453 0.55519 0.42587 0.0
C1137 C 0.34564 0.50093 0.43778 0.0
N1138 N 0.38577 0.45284 0.46268 0.0
N1139 N 0.42897 0.65922 0.41031 0.0
C1140 C 0.39556 0.50523 0.45099 0.0
C1141 C 0.41652 0.61078 0.42451 0.0
N1142 N 0.50159 0.57242 0.46614 0.0
N1143 N 0.30339 0.55352 0.41599 0.0
H1144 H 0.47355 0.70105 0.40906 0.0
H1145 H 0.39672 0.65654 0.39872 0.0
H1146 H 0.25772 0.51397 0.41733 0.0
H1147 H 0.30444 0.59294 0.40863 0.0
H1148 H 0.49459 0.54015 0.47843 0.0
H1149 H 0.54587 0.61473 0.46703 0.0
H1150 H 0.42214 0.44932 0.47039 0.0
H1151 H 0.34089 0.41145 0.46416 0.0
C1152 C 0.56965 0.92955 0.41991 0.0
C1153 C 0.58072 0.89494 0.43626 0.0
C1154 C 0.47089 0.85805 0.44905 0.0
C1155 C 0.46638 0.90414 0.43571 0.0
N1156 N 0.52557 0.99791 0.41285 0.0
N1157 N 0.54215 0.83519 0.46964 0.0
C1158 C 0.51988 0.9442 0.42245 0.0
C1159 C 0.53156 0.86174 0.45185 0.0
N1160 N 0.60444 0.94598 0.40132 0.0
N1161 N 0.41735 0.80814 0.458 0.0
H1162 H 0.58582 0.8382 0.47294 0.0
H1163 H 0.50904 0.81575 0.48221 0.0
H1164 H 0.37143 0.79834 0.45421 0.0
H1165 H 0.41834 0.77127 0.46651 0.0
H1166 H 0.59516 0.96793 0.38845 0.0
H1167 H 0.63493 0.92837 0.39766 0.0
H1168 H 0.56632 0.02979 0.4041 0.0
H1169 H 0.49491 0.01566 0.41611 0.0
C1170 C 0.96161 0.84269 0.232 0.0
C1171 C 0.92774 0.83216 0.25168 0.0
C1172 C 0.02023 0.84324 0.27139 0.0
C1173 C 0.05111 0.8451 0.25165 0.0
N1174 N 0.048 0.83987 0.21283 0.0
N1175 N 0.92099 0.81478 0.28999 0.0
C1176 C 0.02138 0.84381 0.2318 0.0
C1177 C 0.95617 0.83079 0.27136 0.0
N1178 N 0.93723 0.85287 0.21358 0.0
N1179 N 0.05282 0.85486 0.29027 0.0
H1180 H 0.87379 0.80533 0.29071 0.0
H1181 H 0.93646 0.80531 0.30442 0.0
H1182 H 0.09988 0.86476 0.29088 0.0
H1183 H 0.03578 0.86117 0.30495 0.0
H1184 H 0.9628 0.86789 0.19918 0.0
H1185 H 0.89322 0.85138 0.21313 0.0
H1186 H 0.02459 0.83087 0.19812 0.0
H1187 H 0.09172 0.84109 0.21182 0.0
C1188 C 0.28716 0.17795 0.24145 0.0
C1189 C 0.23525 0.12019 0.24987 0.0
C1190 C 0.17603 0.17665 0.25747 0.0
C1191 C 0.22736 0.23435 0.24876 0.0
N1192 N 0.32384 0.28521 0.22737 0.0
N1193 N 0.12583 0.06146 0.26273 0.0
C1194 C 0.28079 0.23363 0.23933 0.0
C1195 C 0.17815 0.11852 0.25671 0.0
N1196 N 0.34259 0.17968 0.23537 0.0
N1197 N 0.12664 0.17807 0.26762 0.0
H1198 H 0.1267 0.01881 0.26458 0.0
H1199 H 0.08022 0.0554 0.26482 0.0
H1200 H 0.12189 0.21841 0.2672 0.0
H1201 H 0.09237 0.14087 0.27709 0.0
H1202 H 0.38489 0.22202 0.23175 0.0
H1203 H 0.34766 0.13907 0.23505 0.0
H1204 H 0.36059 0.28578 0.21835 0.0
H1205 H 0.31875 0.32523 0.22457 0.0
C1206 C 0.84664 0.04751 0.2719 0.0
C1207 C 0.83315 1.00195 0.25538 0.0
C1208 C 0.94079 0.07478 0.24084 0.0
C1209 C 0.94527 0.12567 0.25396 0.0
N1210 N 0.89031 0.1599 0.27888 0.0
N1211 N 0.87002 0.97505 0.22266 0.0
C1212 C 0.89492 0.112 0.26869 0.0
C1213 C 0.88097 0.01596 0.23941 0.0
N1214 N 0.81465 0.02891 0.29103 0.0
N1215 N 0.99381 0.08057 0.23069 0.0
H1216 H 0.82901 0.93033 0.22112 0.0
H1217 H 0.9009 0.98764 0.20947 0.0
H1218 H 0.03953 0.1201 0.23258 0.0
H1219 H 0.99377 0.04244 0.22267 0.0
H1220 H 0.82567 0.06016 0.30402 0.0
H1221 H 0.78457 0.98053 0.2947 0.0
H1222 H 0.85132 0.15057 0.28868 0.0
H1223 H 0.91971 0.20848 0.27531 0.0
C1224 C 0.85113 0.95988 0.78949 0.0
C1225 C 0.85483 0.93218 0.76976 0.0
C1226 C 0.85488 0.02013 0.74984 0.0
C1227 C 0.85397 0.04972 0.76957 0.0
N1228 N 0.86216 0.05294 0.80842 0.0
N1229 N 0.87657 0.94372 0.73169 0.0
C1230 C 0.85636 0.02167 0.78946 0.0
C1231 C 0.86136 0.96454 0.75008 0.0
N1232 N 0.83795 0.92525 0.80816 0.0
N1233 N 0.84878 0.0446 0.73075 0.0
H1234 H 0.88346 0.9042 0.73134 0.0
H1235 H 0.88882 0.96921 0.71726 0.0
H1236 H 0.8483 0.08745 0.72961 0.0
H1237 H 0.84033 0.02043 0.71616 0.0
H1238 H 0.82683 0.93933 0.82262 0.0
H1239 H 0.83228 0.87936 0.80893 0.0
H1240 H 0.87295 0.03902 0.82294 0.0
H1241 H 0.86042 0.09519 0.80968 0.0
C1242 C 0.11713 0.91959 0.75225 0.0
C1243 C 0.14294 0.95263 0.77175 0.0
C1244 C 0.04624 0.87212 0.79102 0.0
C1245 C 0.026 0.83332 0.7722 0.0
N1246 N 0.0447 0.81977 0.73471 0.0
N1247 N 0.13502 0.95856 0.81027 0.0
C1248 C 0.06208 0.8571 0.75276 0.0
C1249 C 0.10782 0.9291 0.79126 0.0
N1250 N 0.14379 0.9491 0.73309 0.0
N1251 N 1.00763 0.85432 0.80882 0.0
H1252 H 0.18013 0.99968 0.81127 0.0
H1253 H 0.11541 0.93937 0.82527 0.0
H1254 H 0.96381 0.81181 0.8099 0.0
H1255 H 1.01655 0.88438 0.82199 0.0
H1256 H 0.12298 0.93054 0.71823 0.0
H1257 H 0.18313 0.99558 0.73207 0.0
H1258 H 0.07399 0.83083 0.72117 0.0
H1259 H 1.00263 0.77579 0.73352 0.0
C1260 C 0.19681 0.18972 0.79039 0.0
C1261 C 0.24249 0.22048 0.77357 0.0
C1262 C 0.17056 0.25127 0.75604 0.0
C1263 C 0.12486 0.21981 0.77257 0.0
N1264 N 0.08666 0.14617 0.80251 0.0
N1265 N 0.26391 0.26336 0.73736 0.0
C1266 C 0.13531 0.18441 0.7887 0.0
C1267 C 0.22656 0.24602 0.75548 0.0
N1268 N 0.21314 0.16962 0.80861 0.0
N1269 N 0.16092 0.28695 0.74094 0.0
H1270 H 0.30417 0.25833 0.73583 0.0
H1271 H 0.25112 0.27573 0.72292 0.0
H1272 H 0.11865 0.28874 0.73988 0.0
H1273 H 0.1964 0.31805 0.73027 0.0
H1274 H 0.1844 0.15395 0.82234 0.0
H1275 H 0.25741 0.17284 0.81081 0.0
H1276 H 0.08894 0.11377 0.81308 0.0
H1277 H 0.04183 0.14288 0.80213 0.0
C1278 C 0.61938 0.15642 0.56697 0.0
C1279 C 0.60155 0.18172 0.58466 0.0
C1280 C 0.70509 0.21675 0.60153 0.0
C1281 C 0.72379 0.19226 0.58383 0.0
N1282 N 0.70515 0.15245 0.54754 0.0
N1283 N 0.63506 0.25431 0.61478 0.0
C1284 C 0.6831 0.16704 0.56574 0.0
C1285 C 0.64686 0.21771 0.60068 0.0
N1286 N 0.57456 0.11892 0.55208 0.0
N1287 N 0.74135 0.23638 0.61967 0.0
H1288 H 0.5935 0.25756 0.61425 0.0
H1289 H 0.66936 0.28677 0.62539 0.0
H1290 H 0.78475 0.23761 0.62071 0.0
H1291 H 0.7262 0.24694 0.63403 0.0
H1292 H 0.5827 0.09327 0.5402 0.0
H1293 H 0.5273 0.10921 0.55254 0.0
H1294 H 0.68015 0.13947 0.5331 0.0
H1295 H 0.75129 0.15911 0.54635 0.0
C1296 C 0.92918 0.50126 0.57154 0.0
C1297 C 0.89622 0.45554 0.58812 0.0
C1298 C 0.84385 0.51568 0.59921 0.0
C1299 C 0.88497 0.56668 0.58534 0.0
N1300 N 0.9676 0.60932 0.55811 0.0
N1301 N 0.82749 0.42287 0.61952 0.0
C1302 C 0.92781 0.55974 0.57138 0.0
C1303 C 0.85437 0.46326 0.60231 0.0
N1304 N 0.9591 0.48754 0.55538 0.0
N1305 N 0.79433 0.5171 0.60929 0.0
H1306 H 0.83573 0.38517 0.62296 0.0
H1307 H 0.80208 0.43052 0.63163 0.0
H1308 H 0.78488 0.5541 0.60661 0.0
H1309 H 0.75879 0.47864 0.61802 0.0
H1310 H 0.97854 0.51625 0.54178 0.0
H1311 H 0.95898 0.44417 0.55439 0.0
H1312 H 1.00575 0.61072 0.54971 0.0
H1313 H 0.96406 0.65059 0.55622 0.0
C1314 C 0.50351 0.39262 0.60342 0.0
C1315 C 0.49654 0.34536 0.58819 0.0
C1316 C 0.60963 0.4158 0.57826 0.0
C1317 C 0.61125 0.46791 0.58991 0.0
N1318 N 0.54924 0.50612 0.60932 0.0
N1319 N 0.54259 0.31874 0.55809 0.0
C1320 C 0.5555 0.45642 0.60145 0.0
C1321 C 0.54962 0.35839 0.57483 0.0
N1322 N 0.4605 0.37698 0.6199 0.0
N1323 N 0.66499 0.41953 0.57106 0.0
H1324 H 0.49905 0.27816 0.55433 0.0
H1325 H 0.57866 0.32989 0.54673 0.0
H1326 H 0.71027 0.45813 0.57443 0.0
H1327 H 0.66603 0.38055 0.56412 0.0
H1328 H 0.46696 0.40883 0.63232 0.0
H1329 H 0.42321 0.33022 0.62265 0.0
H1330 H 0.50679 0.49927 0.61626 0.0
H1331 H 0.58215 0.55429 0.60632 0.0
loop_
_geom_bond_atom_site_label_1
_geom_bond_atom_site_label_2
_geom_bond_distance
_geom_bond_site_symmetry_2
_ccdc_geom_bond_type
Tb0 O3 2.453 1_545 S
Tb0 O4 2.596 1_545 S
Tb0 O5 2.374 . S
Tb0 O13 2.343 . S
Tb0 O15 2.353 . S
Tb0 O17 2.427 . S
Tb0 O18 2.513 . S
C1 O5 1.251 1_565 S
C1 O7 1.263 . S
Tb2 O4 2.343 . S
Tb2 O7 2.353 . S
Tb2 O10 2.427 . S
Tb2 O11 2.513 . S
Tb2 O12 2.453 1_565 S
Tb2 O13 2.596 1_565 S
Tb2 O14 2.374 . S
O3 Tb0 2.453 1_565 S
O3 C19 1.245 . S
O4 Tb0 2.596 1_565 S
O4 Tb2 2.343 . S
O4 C19 1.259 . S
O5 Tb0 2.374 . S
O5 C1 1.251 1_545 S
C6 O10 1.275 . S
C6 O11 1.246 . S
O7 C1 1.263 . S
O7 Tb2 2.353 . S
C8 O12 1.245 . S
C8 O13 1.259 . S
C9 O14 1.250 1_545 S
C9 O15 1.263 . S
O10 Tb2 2.427 . S
O10 C6 1.275 . S
O11 Tb2 2.513 . S
O11 C6 1.246 . S
O12 Tb2 2.453 1_545 S
O12 C8 1.245 . S
O13 Tb0 2.343 . S
O13 Tb2 2.596 1_545 S
O13 C8 1.259 . S
O14 Tb2 2.374 . S
O14 C9 1.250 1_565 S
O15 Tb0 2.353 . S
O15 C9 1.263 . S
C16 O17 1.275 . S
C16 O18 1.246 . S
O17 Tb0 2.427 . S
O17 C16 1.275 . S
O18 Tb0 2.513 . S
O18 C16 1.246 . S
C19 O3 1.245 . S
C19 O4 1.259 . S
Tb20 O23 2.453 1_655 S
Tb20 O24 2.596 1_655 S
Tb20 O25 2.374 1_655 S
Tb20 O33 2.343 . S
Tb20 O35 2.353 1_655 S
Tb20 O37 2.427 . S
Tb20 O38 2.513 . S
C21 O25 1.251 . S
C21 O27 1.263 . S
Tb22 O24 2.343 . S
Tb22 O27 2.353 . S
Tb22 O30 2.427 . S
Tb22 O31 2.513 . S
Tb22 O32 2.453 1_455 S
Tb22 O33 2.596 1_455 S
Tb22 O34 2.374 . S
O23 Tb20 2.453 1_455 S
O23 C39 1.245 . S
O24 Tb20 2.596 1_455 S
O24 Tb22 2.343 . S
O24 C39 1.259 . S
O25 Tb20 2.374 1_455 S
O25 C21 1.251 . S
C26 O30 1.275 . S
C26 O31 1.246 . S
O27 C21 1.263 . S
O27 Tb22 2.353 . S
C28 O32 1.245 . S
C28 O33 1.259 . S
C29 O34 1.250 . S
C29 O35 1.263 . S
O30 Tb22 2.427 . S
O30 C26 1.275 . S
O31 Tb22 2.513 . S
O31 C26 1.246 . S
O32 Tb22 2.453 1_655 S
O32 C28 1.245 . S
O33 Tb20 2.343 . S
O33 Tb22 2.596 1_655 S
O33 C28 1.259 . S
O34 Tb22 2.374 . S
O34 C29 1.250 . S
O35 Tb20 2.353 1_455 S
O35 C29 1.263 . S
C36 O37 1.275 . S
C36 O38 1.246 . S
O37 Tb20 2.427 . S
O37 C36 1.275 . S
O38 Tb20 2.513 . S
O38 C36 1.246 . S
C39 O23 1.245 . S
C39 O24 1.259 . S
Tb40 O43 2.453 . S
Tb40 O44 2.596 . S
Tb40 O45 2.374 . S
Tb40 O53 2.343 . S
Tb40 O55 2.353 . S
Tb40 O57 2.427 . S
Tb40 O58 2.513 . S
C41 O45 1.251 . S
C41 O47 1.263 . S
Tb42 O44 2.343 . S
Tb42 O47 2.353 . S
Tb42 O50 2.427 . S
Tb42 O51 2.513 . S
Tb42 O52 2.453 . S
Tb42 O53 2.596 . S
Tb42 O54 2.374 . S
O43 Tb40 2.453 . S
O43 C59 1.245 . S
O44 Tb40 2.596 . S
O44 Tb42 2.343 . S
O44 C59 1.259 . S
O45 Tb40 2.374 . S
O45 C41 1.251 . S
C46 O50 1.275 . S
C46 O51 1.246 . S
O47 C41 1.263 . S
O47 Tb42 2.353 . S
C48 O52 1.245 . S
C48 O53 1.259 . S
C49 O54 1.250 . S
C49 O55 1.263 . S
O50 Tb42 2.427 . S
O50 C46 1.275 . S
O51 Tb42 2.513 . S
O51 C46 1.246 . S
O52 Tb42 2.453 . S
O52 C48 1.245 . S
O53 Tb40 2.343 . S
O53 Tb42 2.596 . S
O53 C48 1.259 . S
O54 Tb42 2.374 . S
O54 C49 1.250 . S
O55 Tb40 2.353 . S
O55 C49 1.263 . S
C56 O57 1.275 . S
C56 O58 1.246 . S
O57 Tb40 2.427 . S
O57 C56 1.275 . S
O58 Tb40 2.513 . S
O58 C56 1.246 . S
C59 O43 1.245 . S
C59 O44 1.259 . S
Tb60 O63 2.453 1_455 S
Tb60 O64 2.596 1_455 S
Tb60 O65 2.374 . S
Tb60 O73 2.343 . S
Tb60 O75 2.353 . S
Tb60 O77 2.427 . S
Tb60 O78 2.513 . S
C61 O65 1.251 1_655 S
C61 O67 1.263 . S
Tb62 O64 2.343 . S
Tb62 O67 2.353 . S
Tb62 O70 2.427 . S
Tb62 O71 2.513 . S
Tb62 O72 2.453 1_655 S
Tb62 O73 2.596 1_655 S
Tb62 O74 2.374 . S
O63 Tb60 2.453 1_655 S
O63 C79 1.245 . S
O64 Tb60 2.596 1_655 S
O64 Tb62 2.343 . S
O64 C79 1.259 . S
O65 Tb60 2.374 . S
O65 C61 1.251 1_455 S
C66 O70 1.275 . S
C66 O71 1.246 . S
O67 C61 1.263 . S
O67 Tb62 2.353 . S
C68 O72 1.245 . S
C68 O73 1.259 . S
C69 O74 1.250 1_455 S
C69 O75 1.263 . S
O70 Tb62 2.427 . S
O70 C66 1.275 . S
O71 Tb62 2.513 . S
O71 C66 1.246 . S
O72 Tb62 2.453 1_455 S
O72 C68 1.245 . S
O73 Tb60 2.343 . S
O73 Tb62 2.596 1_455 S
O73 C68 1.259 . S
O74 Tb62 2.374 . S
O74 C69 1.250 1_655 S
O75 Tb60 2.353 . S
O75 C69 1.263 . S
C76 O77 1.275 . S
C76 O78 1.246 . S
O77 Tb60 2.427 . S
O77 C76 1.275 . S
O78 Tb60 2.513 . S
O78 C76 1.246 . S
C79 O63 1.245 . S
C79 O64 1.259 . S
Tb80 O83 2.453 . S
Tb80 O84 2.596 . S
Tb80 O85 2.374 . S
Tb80 O93 2.343 . S
Tb80 O95 2.353 . S
Tb80 O97 2.427 . S
Tb80 O98 2.513 . S
C81 O85 1.251 . S
C81 O87 1.263 . S
Tb82 O84 2.343 . S
Tb82 O87 2.353 . S
Tb82 O90 2.427 . S
Tb82 O91 2.513 . S
Tb82 O92 2.453 . S
Tb82 O93 2.596 . S
Tb82 O94 2.374 . S
O83 Tb80 2.453 . S
O83 C99 1.245 . S
O84 Tb80 2.596 . S
O84 Tb82 2.343 . S
O84 C99 1.259 . S
O85 Tb80 2.374 . S
O85 C81 1.251 . S
C86 O90 1.275 . S
C86 O91 1.246 . S
O87 C81 1.263 . S
O87 Tb82 2.353 . S
C88 O92 1.245 . S
C88 O93 1.259 . S
C89 O94 1.250 . S
C89 O95 1.263 . S
O90 Tb82 2.427 . S
O90 C86 1.275 . S
O91 Tb82 2.513 . S
O91 C86 1.246 . S
O92 Tb82 2.453 . S
O92 C88 1.245 . S
O93 Tb80 2.343 . S
O93 Tb82 2.596 . S
O93 C88 1.259 . S
O94 Tb82 2.374 . S
O94 C89 1.250 . S
O95 Tb80 2.353 . S
O95 C89 1.263 . S
C96 O97 1.275 . S
C96 O98 1.246 . S
O97 Tb80 2.427 . S
O97 C96 1.275 . S
O98 Tb80 2.513 . S
O98 C96 1.246 . S
C99 O83 1.245 . S
C99 O84 1.259 . S
Tb100 O103 2.453 1_565 S
Tb100 O104 2.596 1_565 S
Tb100 O105 2.374 1_565 S
Tb100 O113 2.343 . S
Tb100 O115 2.353 1_565 S
Tb100 O117 2.427 . S
Tb100 O118 2.513 . S
C101 O105 1.251 . S
C101 O107 1.263 . S
Tb102 O104 2.343 . S
Tb102 O107 2.353 . S
Tb102 O110 2.427 . S
Tb102 O111 2.513 . S
Tb102 O112 2.453 1_545 S
Tb102 O113 2.596 1_545 S
Tb102 O114 2.374 . S
O103 Tb100 2.453 1_545 S
O103 C119 1.245 . S
O104 Tb100 2.596 1_545 S
O104 Tb102 2.343 . S
O104 C119 1.259 . S
O105 Tb100 2.374 1_545 S
O105 C101 1.251 . S
C106 O110 1.275 . S
C106 O111 1.246 . S
O107 C101 1.263 . S
O107 Tb102 2.353 . S
C108 O112 1.245 . S
C108 O113 1.259 . S
C109 O114 1.250 . S
C109 O115 1.263 . S
O110 Tb102 2.427 . S
O110 C106 1.275 . S
O111 Tb102 2.513 . S
O111 C106 1.246 . S
O112 Tb102 2.453 1_565 S
O112 C108 1.245 . S
O113 Tb100 2.343 . S
O113 Tb102 2.596 1_565 S
O113 C108 1.259 . S
O114 Tb102 2.374 . S
O114 C109 1.250 . S
O115 Tb100 2.353 1_545 S
O115 C109 1.263 . S
C116 O117 1.275 . S
C116 O118 1.246 . S
O117 Tb100 2.427 . S
O117 C116 1.275 . S
O118 Tb100 2.513 . S
O118 C116 1.246 . S
C119 O103 1.245 . S
C119 O104 1.259 . S
Tb120 O123 2.453 . S
Tb120 O124 2.596 . S
Tb120 O125 2.374 . S
Tb120 O133 2.343 . S
Tb120 O135 2.353 . S
Tb120 O137 2.427 . S
Tb120 O138 2.513 . S
C121 O125 1.251 . S
C121 O127 1.263 . S
Tb122 O124 2.343 . S
Tb122 O127 2.353 . S
Tb122 O130 2.427 . S
Tb122 O131 2.513 . S
Tb122 O132 2.453 . S
Tb122 O133 2.596 . S
Tb122 O134 2.374 . S
O123 Tb120 2.453 . S
O123 C139 1.245 . S
O124 Tb120 2.596 . S
O124 Tb122 2.343 . S
O124 C139 1.259 . S
O125 Tb120 2.374 . S
O125 C121 1.251 . S
C126 O130 1.275 . S
C126 O131 1.246 . S
O127 C121 1.263 . S
O127 Tb122 2.353 . S
C128 O132 1.245 . S
C128 O133 1.259 . S
C129 O134 1.250 . S
C129 O135 1.263 . S
O130 Tb122 2.427 . S
O130 C126 1.275 . S
O131 Tb122 2.513 . S
O131 C126 1.246 . S
O132 Tb122 2.453 . S
O132 C128 1.245 . S
O133 Tb120 2.343 . S
O133 Tb122 2.596 . S
O133 C128 1.259 . S
O134 Tb122 2.374 . S
O134 C129 1.250 . S
O135 Tb120 2.353 . S
O135 C129 1.263 . S
C136 O137 1.275 . S
C136 O138 1.246 . S
O137 Tb120 2.427 . S
O137 C136 1.275 . S
O138 Tb120 2.513 . S
O138 C136 1.246 . S
C139 O123 1.245 . S
C139 O124 1.259 . S
Tb140 O143 2.453 . S
Tb140 O144 2.596 . S
Tb140 O145 2.374 . S
Tb140 O153 2.343 . S
Tb140 O155 2.353 . S
Tb140 O157 2.427 . S
Tb140 O158 2.513 . S
C141 O145 1.251 . S
C141 O147 1.263 . S
Tb142 O144 2.343 . S
Tb142 O147 2.353 . S
Tb142 O150 2.427 . S
Tb142 O151 2.513 . S
Tb142 O152 2.453 . S
Tb142 O153 2.596 . S
Tb142 O154 2.374 . S
O143 Tb140 2.453 . S
O143 C159 1.245 . S
O144 Tb140 2.596 . S
O144 Tb142 2.343 . S
O144 C159 1.259 . S
O145 Tb140 2.374 . S
O145 C141 1.251 . S
C146 O150 1.275 1_545 S
C146 O151 1.246 1_545 S
O147 C141 1.263 . S
O147 Tb142 2.353 . S
C148 O152 1.245 . S
C148 O153 1.259 . S
C149 O154 1.250 . S
C149 O155 1.263 . S
O150 Tb142 2.427 . S
O150 C146 1.275 1_565 S
O151 Tb142 2.513 . S
O151 C146 1.246 1_565 S
O152 Tb142 2.453 . S
O152 C148 1.245 . S
O153 Tb140 2.343 . S
O153 Tb142 2.596 . S
O153 C148 1.259 . S
O154 Tb142 2.374 . S
O154 C149 1.250 . S
O155 Tb140 2.353 . S
O155 C149 1.263 . S
C156 O157 1.275 . S
C156 O158 1.246 . S
O157 Tb140 2.427 . S
O157 C156 1.275 . S
O158 Tb140 2.513 . S
O158 C156 1.246 . S
C159 O143 1.245 . S
C159 O144 1.259 . S
Tb160 O163 2.453 1_565 S
Tb160 O164 2.596 . S
Tb160 O165 2.374 . S
Tb160 O173 2.343 . S
Tb160 O175 2.353 . S
Tb160 O177 2.427 . S
Tb160 O178 2.513 . S
C161 O165 1.251 . S
C161 O167 1.263 . S
Tb162 O164 2.343 . S
Tb162 O167 2.353 . S
Tb162 O170 2.427 . S
Tb162 O171 2.513 . S
Tb162 O172 2.453 . S
Tb162 O173 2.596 . S
Tb162 O174 2.374 . S
O163 Tb160 2.453 1_545 S
O163 C179 1.245 1_545 S
O164 Tb160 2.596 . S
O164 Tb162 2.343 . S
O164 C179 1.259 . S
O165 Tb160 2.374 . S
O165 C161 1.251 . S
C166 O170 1.275 . S
C166 O171 1.246 . S
O167 C161 1.263 . S
O167 Tb162 2.353 . S
C168 O172 1.245 . S
C168 O173 1.259 . S
C169 O174 1.250 . S
C169 O175 1.263 . S
O170 Tb162 2.427 . S
O170 C166 1.275 . S
O171 Tb162 2.513 . S
O171 C166 1.246 . S
O172 Tb162 2.453 . S
O172 C168 1.245 . S
O173 Tb160 2.343 . S
O173 Tb162 2.596 . S
O173 C168 1.259 . S
O174 Tb162 2.374 . S
O174 C169 1.250 . S
O175 Tb160 2.353 . S
O175 C169 1.263 . S
C176 O177 1.275 . S
C176 O178 1.246 . S
O177 Tb160 2.427 . S
O177 C176 1.275 . S
O178 Tb160 2.513 . S
O178 C176 1.246 . S
C179 O163 1.245 1_565 S
C179 O164 1.259 . S
Tb180 O183 2.453 . S
Tb180 O184 2.596 . S
Tb180 O185 2.374 . S
Tb180 O193 2.343 . S
Tb180 O195 2.353 . S
Tb180 O197 2.427 . S
Tb180 O198 2.513 . S
C181 O185 1.251 . S
C181 O187 1.263 . S
Tb182 O184 2.343 . S
Tb182 O187 2.353 . S
Tb182 O190 2.427 . S
Tb182 O191 2.513 . S
Tb182 O192 2.453 . S
Tb182 O193 2.596 . S
Tb182 O194 2.374 . S
O183 Tb180 2.453 . S
O183 C199 1.245 . S
O184 Tb180 2.596 . S
O184 Tb182 2.343 . S
O184 C199 1.259 . S
O185 Tb180 2.374 . S
O185 C181 1.251 . S
C186 O190 1.275 . S
C186 O191 1.246 . S
O187 C181 1.263 . S
O187 Tb182 2.353 . S
C188 O192 1.245 . S
C188 O193 1.259 . S
C189 O194 1.250 . S
C189 O195 1.263 . S
O190 Tb182 2.427 . S
O190 C186 1.275 . S
O191 Tb182 2.513 . S
O191 C186 1.246 . S
O192 Tb182 2.453 . S
O192 C188 1.245 . S
O193 Tb180 2.343 . S
O193 Tb182 2.596 . S
O193 C188 1.259 . S
O194 Tb182 2.374 . S
O194 C189 1.250 . S
O195 Tb180 2.353 . S
O195 C189 1.263 . S
C196 O197 1.275 . S
C196 O198 1.246 . S
O197 Tb180 2.427 . S
O197 C196 1.275 . S
O198 Tb180 2.513 . S
O198 C196 1.246 . S
C199 O183 1.245 . S
C199 O184 1.259 . S
Tb200 O203 2.453 . S
Tb200 O204 2.596 . S
Tb200 O205 2.374 . S
Tb200 O213 2.343 . S
Tb200 O215 2.353 . S
Tb200 O217 2.427 1_565 S
Tb200 O218 2.513 1_565 S
C201 O205 1.251 . S
C201 O207 1.263 . S
Tb202 O204 2.343 . S
Tb202 O207 2.353 . S
Tb202 O210 2.427 . S
Tb202 O211 2.513 . S
Tb202 O212 2.453 . S
Tb202 O213 2.596 . S
Tb202 O214 2.374 . S
O203 Tb200 2.453 . S
O203 C219 1.245 . S
O204 Tb200 2.596 . S
O204 Tb202 2.343 . S
O204 C219 1.259 . S
O205 Tb200 2.374 . S
O205 C201 1.251 . S
C206 O210 1.275 . S
C206 O211 1.246 . S
O207 C201 1.263 . S
O207 Tb202 2.353 . S
C208 O212 1.245 . S
C208 O213 1.259 . S
C209 O214 1.250 . S
C209 O215 1.263 . S
O210 Tb202 2.427 . S
O210 C206 1.275 . S
O211 Tb202 2.513 . S
O211 C206 1.246 . S
O212 Tb202 2.453 . S
O212 C208 1.245 . S
O213 Tb200 2.343 . S
O213 Tb202 2.596 . S
O213 C208 1.259 . S
O214 Tb202 2.374 . S
O214 C209 1.250 . S
O215 Tb200 2.353 . S
O215 C209 1.263 . S
C216 O217 1.275 . S
C216 O218 1.246 . S
O217 Tb200 2.427 1_545 S
O217 C216 1.275 . S
O218 Tb200 2.513 1_545 S
O218 C216 1.246 . S
C219 O203 1.245 . S
C219 O204 1.259 . S
Tb220 O223 2.453 . S
Tb220 O224 2.596 . S
Tb220 O225 2.374 . S
Tb220 O233 2.343 . S
Tb220 O235 2.353 . S
Tb220 O237 2.427 . S
Tb220 O238 2.513 . S
C221 O225 1.251 . S
C221 O227 1.263 . S
Tb222 O224 2.343 . S
Tb222 O227 2.353 . S
Tb222 O230 2.427 . S
Tb222 O231 2.513 . S
Tb222 O232 2.453 . S
Tb222 O233 2.596 . S
Tb222 O234 2.374 . S
O223 Tb220 2.453 . S
O223 C239 1.245 . S
O224 Tb220 2.596 . S
O224 Tb222 2.343 . S
O224 C239 1.259 . S
O225 Tb220 2.374 . S
O225 C221 1.251 . S
C226 O230 1.275 . S
C226 O231 1.246 . S
O227 C221 1.263 . S
O227 Tb222 2.353 . S
C228 O232 1.245 . S
C228 O233 1.259 . S
C229 O234 1.250 . S
C229 O235 1.263 . S
O230 Tb222 2.427 . S
O230 C226 1.275 . S
O231 Tb222 2.513 . S
O231 C226 1.246 . S
O232 Tb222 2.453 . S
O232 C228 1.245 . S
O233 Tb220 2.343 . S
O233 Tb222 2.596 . S
O233 C228 1.259 . S
O234 Tb222 2.374 . S
O234 C229 1.250 . S
O235 Tb220 2.353 . S
O235 C229 1.263 . S
C236 O237 1.275 . S
C236 O238 1.246 . S
O237 Tb220 2.427 . S
O237 C236 1.275 . S
O238 Tb220 2.513 . S
O238 C236 1.246 . S
C239 O223 1.245 . S
C239 O224 1.259 . S
Tb240 O243 2.453 . S
Tb240 O244 2.596 . S
Tb240 O245 2.374 . S
Tb240 O253 2.343 . S
Tb240 O255 2.353 . S
Tb240 O257 2.427 . S
Tb240 O258 2.513 . S
C241 O245 1.251 . S
C241 O247 1.263 . S
Tb242 O244 2.343 . S
Tb242 O247 2.353 . S
Tb242 O250 2.427 . S
Tb242 O251 2.513 . S
Tb242 O252 2.453 . S
Tb242 O253 2.596 . S
Tb242 O254 2.374 . S
O243 Tb240 2.453 . S
O243 C259 1.245 . S
O244 Tb240 2.596 . S
O244 Tb242 2.343 . S
O244 C259 1.259 . S
O245 Tb240 2.374 . S
O245 C241 1.251 . S
C246 O250 1.275 . S
C246 O251 1.246 . S
O247 C241 1.263 . S
O247 Tb242 2.353 . S
C248 O252 1.245 . S
C248 O253 1.259 . S
C249 O254 1.250 . S
C249 O255 1.263 . S
O250 Tb242 2.427 . S
O250 C246 1.275 . S
O251 Tb242 2.513 . S
O251 C246 1.246 . S
O252 Tb242 2.453 . S
O252 C248 1.245 . S
O253 Tb240 2.343 . S
O253 Tb242 2.596 . S
O253 C248 1.259 . S
O254 Tb242 2.374 . S
O254 C249 1.250 . S
O255 Tb240 2.353 . S
O255 C249 1.263 . S
C256 O257 1.275 . S
C256 O258 1.246 . S
O257 Tb240 2.427 . S
O257 C256 1.275 . S
O258 Tb240 2.513 . S
O258 C256 1.246 . S
C259 O243 1.245 . S
C259 O244 1.259 . S
Tb260 O263 2.453 . S
Tb260 O264 2.596 . S
Tb260 O265 2.374 . S
Tb260 O273 2.343 . S
Tb260 O275 2.353 . S
Tb260 O277 2.427 . S
Tb260 O278 2.513 . S
C261 O265 1.251 . S
C261 O267 1.263 . S
Tb262 O264 2.343 . S
Tb262 O267 2.353 . S
Tb262 O270 2.427 . S
Tb262 O271 2.513 . S
Tb262 O272 2.453 . S
Tb262 O273 2.596 . S
Tb262 O274 2.374 . S
O263 Tb260 2.453 . S
O263 C279 1.245 . S
O264 Tb260 2.596 . S
O264 Tb262 2.343 . S
O264 C279 1.259 . S
O265 Tb260 2.374 . S
O265 C261 1.251 . S
C266 O270 1.275 . S
C266 O271 1.246 . S
O267 C261 1.263 . S
O267 Tb262 2.353 . S
C268 O272 1.245 . S
C268 O273 1.259 . S
C269 O274 1.250 . S
C269 O275 1.263 . S
O270 Tb262 2.427 . S
O270 C266 1.275 . S
O271 Tb262 2.513 . S
O271 C266 1.246 . S
O272 Tb262 2.453 . S
O272 C268 1.245 . S
O273 Tb260 2.343 . S
O273 Tb262 2.596 . S
O273 C268 1.259 . S
O274 Tb262 2.374 . S
O274 C269 1.250 . S
O275 Tb260 2.353 . S
O275 C269 1.263 . S
C276 O277 1.275 . S
C276 O278 1.246 . S
O277 Tb260 2.427 . S
O277 C276 1.275 . S
O278 Tb260 2.513 . S
O278 C276 1.246 . S
C279 O263 1.245 . S
C279 O264 1.259 . S
Tb280 O283 2.453 . S
Tb280 O284 2.596 . S
Tb280 O285 2.374 . S
Tb280 O293 2.343 . S
Tb280 O295 2.353 . S
Tb280 O297 2.427 1_655 S
Tb280 O298 2.513 1_655 S
C281 O285 1.251 . S
C281 O287 1.263 . S
Tb282 O284 2.343 . S
Tb282 O287 2.353 . S
Tb282 O290 2.427 . S
Tb282 O291 2.513 . S
Tb282 O292 2.453 . S
Tb282 O293 2.596 . S
Tb282 O294 2.374 . S
O283 Tb280 2.453 . S
O283 C299 1.245 . S
O284 Tb280 2.596 . S
O284 Tb282 2.343 . S
O284 C299 1.259 . S
O285 Tb280 2.374 . S
O285 C281 1.251 . S
C286 O290 1.275 . S
C286 O291 1.246 . S
O287 C281 1.263 . S
O287 Tb282 2.353 . S
C288 O292 1.245 . S
C288 O293 1.259 . S
C289 O294 1.250 . S
C289 O295 1.263 . S
O290 Tb282 2.427 . S
O290 C286 1.275 . S
O291 Tb282 2.513 . S
O291 C286 1.246 . S
O292 Tb282 2.453 . S
O292 C288 1.245 . S
O293 Tb280 2.343 . S
O293 Tb282 2.596 . S
O293 C288 1.259 . S
O294 Tb282 2.374 . S
O294 C289 1.250 . S
O295 Tb280 2.353 . S
O295 C289 1.263 . S
C296 O297 1.275 . S
C296 O298 1.246 . S
O297 Tb280 2.427 1_455 S
O297 C296 1.275 . S
O298 Tb280 2.513 1_455 S
O298 C296 1.246 . S
C299 O283 1.245 . S
C299 O284 1.259 . S
Tb300 O303 2.453 . S
Tb300 O304 2.596 . S
Tb300 O305 2.374 . S
Tb300 O313 2.343 . S
Tb300 O315 2.353 . S
Tb300 O317 2.427 . S
Tb300 O318 2.513 . S
C301 O305 1.251 . S
C301 O307 1.263 . S
Tb302 O304 2.343 . S
Tb302 O307 2.353 . S
Tb302 O310 2.427 . S
Tb302 O311 2.513 . S
Tb302 O312 2.453 . S
Tb302 O313 2.596 . S
Tb302 O314 2.374 . S
O303 Tb300 2.453 . S
O303 C319 1.245 . S
O304 Tb300 2.596 . S
O304 Tb302 2.343 . S
O304 C319 1.259 . S
O305 Tb300 2.374 . S
O305 C301 1.251 . S
C306 O310 1.275 . S
C306 O311 1.246 . S
O307 C301 1.263 . S
O307 Tb302 2.353 . S
C308 O312 1.245 . S
C308 O313 1.259 . S
C309 O314 1.250 . S
C309 O315 1.263 . S
O310 Tb302 2.427 . S
O310 C306 1.275 . S
O311 Tb302 2.513 . S
O311 C306 1.246 . S
O312 Tb302 2.453 . S
O312 C308 1.245 . S
O313 Tb300 2.343 . S
O313 Tb302 2.596 . S
O313 C308 1.259 . S
O314 Tb302 2.374 . S
O314 C309 1.250 . S
O315 Tb300 2.353 . S
O315 C309 1.263 . S
C316 O317 1.275 . S
C316 O318 1.246 . S
O317 Tb300 2.427 . S
O317 C316 1.275 . S
O318 Tb300 2.513 . S
O318 C316 1.246 . S
C319 O303 1.245 . S
C319 O304 1.259 . S
Tb320 O323 2.453 1_655 S
Tb320 O324 2.596 . S
Tb320 O325 2.374 . S
Tb320 O333 2.343 . S
Tb320 O335 2.353 . S
Tb320 O337 2.427 . S
Tb320 O338 2.513 . S
C321 O325 1.251 . S
C321 O327 1.263 . S
Tb322 O324 2.343 . S
Tb322 O327 2.353 . S
Tb322 O330 2.427 . S
Tb322 O331 2.513 . S
Tb322 O332 2.453 . S
Tb322 O333 2.596 . S
Tb322 O334 2.374 . S
O323 Tb320 2.453 1_455 S
O323 C339 1.245 1_455 S
O324 Tb320 2.596 . S
O324 Tb322 2.343 . S
O324 C339 1.259 . S
O325 Tb320 2.374 . S
O325 C321 1.251 . S
C326 O330 1.275 . S
C326 O331 1.246 . S
O327 C321 1.263 . S
O327 Tb322 2.353 . S
C328 O332 1.245 . S
C328 O333 1.259 . S
C329 O334 1.250 . S
C329 O335 1.263 . S
O330 Tb322 2.427 . S
O330 C326 1.275 . S
O331 Tb322 2.513 . S
O331 C326 1.246 . S
O332 Tb322 2.453 . S
O332 C328 1.245 . S
O333 Tb320 2.343 . S
O333 Tb322 2.596 . S
O333 C328 1.259 . S
O334 Tb322 2.374 . S
O334 C329 1.250 . S
O335 Tb320 2.353 . S
O335 C329 1.263 . S
C336 O337 1.275 . S
C336 O338 1.246 . S
O337 Tb320 2.427 . S
O337 C336 1.275 . S
O338 Tb320 2.513 . S
O338 C336 1.246 . S
C339 O323 1.245 1_655 S
C339 O324 1.259 . S
Tb340 O343 2.453 . S
Tb340 O344 2.596 . S
Tb340 O345 2.374 . S
Tb340 O353 2.343 . S
Tb340 O355 2.353 . S
Tb340 O357 2.427 . S
Tb340 O358 2.513 . S
C341 O345 1.251 . S
C341 O347 1.263 . S
Tb342 O344 2.343 . S
Tb342 O347 2.353 . S
Tb342 O350 2.427 . S
Tb342 O351 2.513 . S
Tb342 O352 2.453 . S
Tb342 O353 2.596 . S
Tb342 O354 2.374 . S
O343 Tb340 2.453 . S
O343 C359 1.245 . S
O344 Tb340 2.596 . S
O344 Tb342 2.343 . S
O344 C359 1.259 . S
O345 Tb340 2.374 . S
O345 C341 1.251 . S
C346 O350 1.275 1_455 S
C346 O351 1.246 1_455 S
O347 C341 1.263 . S
O347 Tb342 2.353 . S
C348 O352 1.245 . S
C348 O353 1.259 . S
C349 O354 1.250 . S
C349 O355 1.263 . S
O350 Tb342 2.427 . S
O350 C346 1.275 1_655 S
O351 Tb342 2.513 . S
O351 C346 1.246 1_655 S
O352 Tb342 2.453 . S
O352 C348 1.245 . S
O353 Tb340 2.343 . S
O353 Tb342 2.596 . S
O353 C348 1.259 . S
O354 Tb342 2.374 . S
O354 C349 1.250 . S
O355 Tb340 2.353 . S
O355 C349 1.263 . S
C356 O357 1.275 . S
C356 O358 1.246 . S
O357 Tb340 2.427 . S
O357 C356 1.275 . S
O358 Tb340 2.513 . S
O358 C356 1.246 . S
C359 O343 1.245 . S
C359 O344 1.259 . S
C360 C361 1.363 . S
C360 C366 1.379 . S
C360 N368 1.356 . S
C361 C360 1.363 . S
C361 C367 1.363 . S
C362 C363 1.363 . S
C362 C367 1.379 . S
C362 N369 1.356 . S
C363 C362 1.363 . S
C363 C366 1.363 . S
N364 C366 1.356 . S
N364 H376 0.984 . S
N364 H377 0.985 . S
N365 C367 1.356 . S
N365 H370 0.984 . S
N365 H371 0.985 . S
C366 C360 1.379 . S
C366 C363 1.363 . S
C366 N364 1.356 . S
C367 C361 1.363 . S
C367 C362 1.379 . S
C367 N365 1.356 . S
N368 C360 1.356 . S
N368 H374 0.984 . S
N368 H375 0.984 . S
N369 C362 1.356 . S
N369 H372 0.984 . S
N369 H373 0.985 . S
H370 N365 0.984 . S
H371 N365 0.985 . S
H372 N369 0.984 . S
H373 N369 0.985 . S
H374 N368 0.984 . S
H375 N368 0.984 . S
H376 N364 0.984 . S
H377 N364 0.985 . S
C378 C379 1.363 . S
C378 C384 1.379 . S
C378 N386 1.356 . S
C379 C378 1.363 . S
C379 C385 1.363 . S
C380 C381 1.363 . S
C380 C385 1.379 . S
C380 N387 1.356 . S
C381 C380 1.363 . S
C381 C384 1.363 . S
N382 C384 1.356 . S
N382 H394 0.984 . S
N382 H395 0.985 . S
N383 C385 1.356 . S
N383 H388 0.984 . S
N383 H389 0.985 . S
C384 C378 1.379 . S
C384 C381 1.363 . S
C384 N382 1.356 . S
C385 C379 1.363 . S
C385 C380 1.379 . S
C385 N383 1.356 . S
N386 C378 1.356 . S
N386 H392 0.984 . S
N386 H393 0.984 . S
N387 C380 1.356 . S
N387 H390 0.984 . S
N387 H391 0.985 . S
H388 N383 0.984 . S
H389 N383 0.985 . S
H390 N387 0.984 . S
H391 N387 0.985 . S
H392 N386 0.984 . S
H393 N386 0.984 . S
H394 N382 0.984 . S
H395 N382 0.985 . S
C396 C397 1.363 . S
C396 C402 1.379 . S
C396 N404 1.356 . S
C397 C396 1.363 . S
C397 C403 1.363 . S
C398 C399 1.363 . S
C398 C403 1.379 . S
C398 N405 1.356 . S
C399 C398 1.363 . S
C399 C402 1.363 . S
N400 C402 1.356 . S
N400 H412 0.984 . S
N400 H413 0.985 . S
N401 C403 1.356 . S
N401 H406 0.984 . S
N401 H407 0.985 . S
C402 C396 1.379 . S
C402 C399 1.363 . S
C402 N400 1.356 . S
C403 C397 1.363 . S
C403 C398 1.379 . S
C403 N401 1.356 . S
N404 C396 1.356 . S
N404 H410 0.984 . S
N404 H411 0.984 . S
N405 C398 1.356 . S
N405 H408 0.984 . S
N405 H409 0.985 . S
H406 N401 0.984 . S
H407 N401 0.985 . S
H408 N405 0.984 . S
H409 N405 0.985 . S
H410 N404 0.984 . S
H411 N404 0.984 . S
H412 N400 0.984 . S
H413 N400 0.985 . S
C414 C415 1.363 . S
C414 C420 1.379 . S
C414 N422 1.356 . S
C415 C414 1.363 . S
C415 C421 1.363 . S
C416 C417 1.363 . S
C416 C421 1.379 . S
C416 N423 1.356 . S
C417 C416 1.363 . S
C417 C420 1.363 . S
N418 C420 1.356 . S
N418 H430 0.984 . S
N418 H431 0.985 . S
N419 C421 1.356 . S
N419 H424 0.984 . S
N419 H425 0.985 . S
C420 C414 1.379 . S
C420 C417 1.363 . S
C420 N418 1.356 . S
C421 C415 1.363 . S
C421 C416 1.379 . S
C421 N419 1.356 . S
N422 C414 1.356 . S
N422 H428 0.984 . S
N422 H429 0.984 . S
N423 C416 1.356 . S
N423 H426 0.984 . S
N423 H427 0.985 . S
H424 N419 0.984 . S
H425 N419 0.985 . S
H426 N423 0.984 . S
H427 N423 0.985 . S
H428 N422 0.984 . S
H429 N422 0.984 . S
H430 N418 0.984 . S
H431 N418 0.985 . S
C432 C433 1.363 . S
C432 C438 1.379 . S
C432 N440 1.356 . S
C433 C432 1.363 . S
C433 C439 1.363 . S
C434 C435 1.363 . S
C434 C439 1.379 . S
C434 N441 1.356 . S
C435 C434 1.363 . S
C435 C438 1.363 . S
N436 C438 1.356 . S
N436 H448 0.984 . S
N436 H449 0.985 . S
N437 C439 1.356 . S
N437 H442 0.984 . S
N437 H443 0.985 . S
C438 C432 1.379 . S
C438 C435 1.363 . S
C438 N436 1.356 . S
C439 C433 1.363 . S
C439 C434 1.379 . S
C439 N437 1.356 . S
N440 C432 1.356 . S
N440 H446 0.984 . S
N440 H447 0.984 . S
N441 C434 1.356 . S
N441 H444 0.984 . S
N441 H445 0.985 . S
H442 N437 0.984 . S
H443 N437 0.985 . S
H444 N441 0.984 . S
H445 N441 0.985 . S
H446 N440 0.984 . S
H447 N440 0.984 . S
H448 N436 0.984 . S
H449 N436 0.985 . S
C450 C451 1.363 . S
C450 C456 1.379 . S
C450 N458 1.356 . S
C451 C450 1.363 . S
C451 C457 1.363 . S
C452 C453 1.363 . S
C452 C457 1.379 . S
C452 N459 1.356 . S
C453 C452 1.363 . S
C453 C456 1.363 . S
N454 C456 1.356 . S
N454 H466 0.984 . S
N454 H467 0.985 . S
N455 C457 1.356 . S
N455 H460 0.984 . S
N455 H461 0.985 . S
C456 C450 1.379 . S
C456 C453 1.363 . S
C456 N454 1.356 . S
C457 C451 1.363 . S
C457 C452 1.379 . S
C457 N455 1.356 . S
N458 C450 1.356 . S
N458 H464 0.984 . S
N458 H465 0.984 . S
N459 C452 1.356 . S
N459 H462 0.984 . S
N459 H463 0.985 . S
H460 N455 0.984 . S
H461 N455 0.985 . S
H462 N459 0.984 . S
H463 N459 0.985 . S
H464 N458 0.984 . S
H465 N458 0.984 . S
H466 N454 0.984 . S
H467 N454 0.985 . S
C468 C469 1.363 . S
C468 C474 1.379 . S
C468 N476 1.356 1_545 S
C469 C468 1.363 . S
C469 C475 1.363 . S
C470 C471 1.363 . S
C470 C475 1.379 . S
C470 N477 1.356 . S
C471 C470 1.363 . S
C471 C474 1.363 . S
N472 C474 1.356 . S
N472 H484 0.984 . S
N472 H485 0.985 . S
N473 C475 1.356 . S
N473 H478 0.984 1_545 S
N473 H479 0.985 . S
C474 C468 1.379 . S
C474 C471 1.363 . S
C474 N472 1.356 . S
C475 C469 1.363 . S
C475 C470 1.379 . S
C475 N473 1.356 . S
N476 C468 1.356 1_565 S
N476 H482 0.984 . S
N476 H483 0.984 . S
N477 C470 1.356 . S
N477 H480 0.984 . S
N477 H481 0.985 . S
H478 N473 0.984 1_565 S
H479 N473 0.985 . S
H480 N477 0.984 . S
H481 N477 0.985 . S
H482 N476 0.984 . S
H483 N476 0.984 . S
H484 N472 0.984 . S
H485 N472 0.985 . S
C486 C487 1.363 1_655 S
C486 C492 1.379 . S
C486 N494 1.356 . S
C487 C486 1.363 1_455 S
C487 C493 1.363 . S
C488 C489 1.363 . S
C488 C493 1.379 1_655 S
C488 N495 1.356 . S
C489 C488 1.363 . S
C489 C492 1.363 . S
N490 C492 1.356 . S
N490 H502 0.984 . S
N490 H503 0.985 . S
N491 C493 1.356 . S
N491 H496 0.984 . S
N491 H497 0.985 . S
C492 C486 1.379 . S
C492 C489 1.363 . S
C492 N490 1.356 . S
C493 C487 1.363 . S
C493 C488 1.379 1_455 S
C493 N491 1.356 . S
N494 C486 1.356 . S
N494 H500 0.984 . S
N494 H501 0.984 1_655 S
N495 C488 1.356 . S
N495 H498 0.984 1_545 S
N495 H499 0.985 . S
H496 N491 0.984 . S
H497 N491 0.985 . S
H498 N495 0.984 1_565 S
H499 N495 0.985 . S
H500 N494 0.984 . S
H501 N494 0.984 1_455 S
H502 N490 0.984 . S
H503 N490 0.985 . S
C504 C505 1.363 . S
C504 C510 1.379 . S
C504 N512 1.356 . S
C505 C504 1.363 . S
C505 C511 1.363 . S
C506 C507 1.363 . S
C506 C511 1.379 . S
C506 N513 1.356 . S
C507 C506 1.363 . S
C507 C510 1.363 . S
N508 C510 1.356 . S
N508 H520 0.984 . S
N508 H521 0.985 . S
N509 C511 1.356 1_455 S
N509 H514 0.984 . S
N509 H515 0.985 . S
C510 C504 1.379 . S
C510 C507 1.363 . S
C510 N508 1.356 . S
C511 C505 1.363 . S
C511 C506 1.379 . S
C511 N509 1.356 1_655 S
N512 C504 1.356 . S
N512 H518 0.984 . S
N512 H519 0.984 1_655 S
N513 C506 1.356 . S
N513 H516 0.984 . S
N513 H517 0.985 . S
H514 N509 0.984 . S
H515 N509 0.985 . S
H516 N513 0.984 . S
H517 N513 0.985 . S
H518 N512 0.984 . S
H519 N512 0.984 1_455 S
H520 N508 0.984 . S
H521 N508 0.985 . S
C522 C523 1.363 . S
C522 C528 1.379 . S
C522 N530 1.356 . S
C523 C522 1.363 . S
C523 C529 1.363 . S
C524 C525 1.363 . S
C524 C529 1.379 . S
C524 N531 1.356 . S
C525 C524 1.363 . S
C525 C528 1.363 . S
N526 C528 1.356 . S
N526 H538 0.984 . S
N526 H539 0.985 . S
N527 C529 1.356 . S
N527 H532 0.984 . S
N527 H533 0.985 . S
C528 C522 1.379 . S
C528 C525 1.363 . S
C528 N526 1.356 . S
C529 C523 1.363 . S
C529 C524 1.379 . S
C529 N527 1.356 . S
N530 C522 1.356 . S
N530 H536 0.984 . S
N530 H537 0.984 . S
N531 C524 1.356 . S
N531 H534 0.984 . S
N531 H535 0.985 . S
H532 N527 0.984 . S
H533 N527 0.985 . S
H534 N531 0.984 . S
H535 N531 0.985 . S
H536 N530 0.984 . S
H537 N530 0.984 . S
H538 N526 0.984 . S
H539 N526 0.985 . S
C540 C541 1.363 . S
C540 C546 1.379 . S
C540 N548 1.356 . S
C541 C540 1.363 . S
C541 C547 1.363 . S
C542 C543 1.363 . S
C542 C547 1.379 . S
C542 N549 1.356 . S
C543 C542 1.363 . S
C543 C546 1.363 . S
N544 C546 1.356 . S
N544 H556 0.984 . S
N544 H557 0.985 . S
N545 C547 1.356 . S
N545 H550 0.984 . S
N545 H551 0.985 . S
C546 C540 1.379 . S
C546 C543 1.363 . S
C546 N544 1.356 . S
C547 C541 1.363 . S
C547 C542 1.379 . S
C547 N545 1.356 . S
N548 C540 1.356 . S
N548 H554 0.984 . S
N548 H555 0.984 . S
N549 C542 1.356 . S
N549 H552 0.984 . S
N549 H553 0.985 . S
H550 N545 0.984 . S
H551 N545 0.985 . S
H552 N549 0.984 . S
H553 N549 0.985 . S
H554 N548 0.984 . S
H555 N548 0.984 . S
H556 N544 0.984 . S
H557 N544 0.985 . S
C558 C559 1.363 . S
C558 C564 1.379 . S
C558 N566 1.356 . S
C559 C558 1.363 . S
C559 C565 1.363 . S
C560 C561 1.363 . S
C560 C565 1.379 . S
C560 N567 1.356 . S
C561 C560 1.363 . S
C561 C564 1.363 . S
N562 C564 1.356 . S
N562 H574 0.984 . S
N562 H575 0.985 . S
N563 C565 1.356 . S
N563 H568 0.984 . S
N563 H569 0.985 . S
C564 C558 1.379 . S
C564 C561 1.363 . S
C564 N562 1.356 . S
C565 C559 1.363 . S
C565 C560 1.379 . S
C565 N563 1.356 . S
N566 C558 1.356 . S
N566 H572 0.984 . S
N566 H573 0.984 . S
N567 C560 1.356 . S
N567 H570 0.984 . S
N567 H571 0.985 . S
H568 N563 0.984 . S
H569 N563 0.985 . S
H570 N567 0.984 . S
H571 N567 0.985 . S
H572 N566 0.984 . S
H573 N566 0.984 . S
H574 N562 0.984 . S
H575 N562 0.985 . S
C576 C577 1.363 . S
C576 C582 1.379 . S
C576 N584 1.356 . S
C577 C576 1.363 . S
C577 C583 1.363 . S
C578 C579 1.363 . S
C578 C583 1.379 . S
C578 N585 1.356 . S
C579 C578 1.363 . S
C579 C582 1.363 . S
N580 C582 1.356 . S
N580 H592 0.984 . S
N580 H593 0.985 . S
N581 C583 1.356 . S
N581 H586 0.984 . S
N581 H587 0.985 . S
C582 C576 1.379 . S
C582 C579 1.363 . S
C582 N580 1.356 . S
C583 C577 1.363 . S
C583 C578 1.379 . S
C583 N581 1.356 . S
N584 C576 1.356 . S
N584 H590 0.984 . S
N584 H591 0.984 . S
N585 C578 1.356 . S
N585 H588 0.984 . S
N585 H589 0.985 . S
H586 N581 0.984 . S
H587 N581 0.985 . S
H588 N585 0.984 . S
H589 N585 0.985 . S
H590 N584 0.984 . S
H591 N584 0.984 . S
H592 N580 0.984 . S
H593 N580 0.985 . S
C594 C595 1.363 . S
C594 C600 1.379 . S
C594 N602 1.356 . S
C595 C594 1.363 . S
C595 C601 1.363 . S
C596 C597 1.363 . S
C596 C601 1.379 . S
C596 N603 1.356 . S
C597 C596 1.363 . S
C597 C600 1.363 . S
N598 C600 1.356 . S
N598 H610 0.984 . S
N598 H611 0.985 . S
N599 C601 1.356 . S
N599 H604 0.984 . S
N599 H605 0.985 . S
C600 C594 1.379 . S
C600 C597 1.363 . S
C600 N598 1.356 . S
C601 C595 1.363 . S
C601 C596 1.379 . S
C601 N599 1.356 . S
N602 C594 1.356 . S
N602 H608 0.984 . S
N602 H609 0.984 . S
N603 C596 1.356 . S
N603 H606 0.984 . S
N603 H607 0.985 . S
H604 N599 0.984 . S
H605 N599 0.985 . S
H606 N603 0.984 . S
H607 N603 0.985 . S
H608 N602 0.984 . S
H609 N602 0.984 . S
H610 N598 0.984 . S
H611 N598 0.985 . S
C612 C613 1.363 . S
C612 C618 1.379 . S
C612 N620 1.356 . S
C613 C612 1.363 . S
C613 C619 1.363 . S
C614 C615 1.363 . S
C614 C619 1.379 . S
C614 N621 1.356 . S
C615 C614 1.363 . S
C615 C618 1.363 . S
N616 C618 1.356 . S
N616 H628 0.984 . S
N616 H629 0.985 . S
N617 C619 1.356 . S
N617 H622 0.984 . S
N617 H623 0.985 . S
C618 C612 1.379 . S
C618 C615 1.363 . S
C618 N616 1.356 . S
C619 C613 1.363 . S
C619 C614 1.379 . S
C619 N617 1.356 . S
N620 C612 1.356 . S
N620 H626 0.984 . S
N620 H627 0.984 . S
N621 C614 1.356 . S
N621 H624 0.984 . S
N621 H625 0.985 . S
H622 N617 0.984 . S
H623 N617 0.985 . S
H624 N621 0.984 . S
H625 N621 0.985 . S
H626 N620 0.984 . S
H627 N620 0.984 . S
H628 N616 0.984 . S
H629 N616 0.985 . S
C630 C631 1.363 . S
C630 C636 1.379 . S
C630 N638 1.356 1_455 S
C631 C630 1.363 . S
C631 C637 1.363 . S
C632 C633 1.363 . S
C632 C637 1.379 . S
C632 N639 1.356 . S
C633 C632 1.363 . S
C633 C636 1.363 . S
N634 C636 1.356 . S
N634 H646 0.984 . S
N634 H647 0.985 . S
N635 C637 1.356 . S
N635 H640 0.984 . S
N635 H641 0.985 . S
C636 C630 1.379 . S
C636 C633 1.363 . S
C636 N634 1.356 . S
C637 C631 1.363 . S
C637 C632 1.379 . S
C637 N635 1.356 . S
N638 C630 1.356 1_655 S
N638 H644 0.984 . S
N638 H645 0.984 . S
N639 C632 1.356 . S
N639 H642 0.984 . S
N639 H643 0.985 . S
H640 N635 0.984 . S
H641 N635 0.985 . S
H642 N639 0.984 . S
H643 N639 0.985 . S
H644 N638 0.984 . S
H645 N638 0.984 . S
H646 N634 0.984 . S
H647 N634 0.985 . S
C648 C649 1.363 . S
C648 C654 1.379 . S
C648 N656 1.356 . S
C649 C648 1.363 . S
C649 C655 1.363 . S
C650 C651 1.363 . S
C650 C655 1.379 . S
C650 N657 1.356 1_565 S
C651 C650 1.363 . S
C651 C654 1.363 . S
N652 C654 1.356 . S
N652 H664 0.984 . S
N652 H665 0.985 1_565 S
N653 C655 1.356 . S
N653 H658 0.984 . S
N653 H659 0.985 . S
C654 C648 1.379 . S
C654 C651 1.363 . S
C654 N652 1.356 . S
C655 C649 1.363 . S
C655 C650 1.379 . S
C655 N653 1.356 . S
N656 C648 1.356 . S
N656 H662 0.984 . S
N656 H663 0.984 . S
N657 C650 1.356 1_545 S
N657 H660 0.984 . S
N657 H661 0.985 . S
H658 N653 0.984 . S
H659 N653 0.985 . S
H660 N657 0.984 . S
H661 N657 0.985 . S
H662 N656 0.984 . S
H663 N656 0.984 . S
H664 N652 0.984 . S
H665 N652 0.985 1_545 S
C666 C667 1.363 . S
C666 C672 1.379 1_545 S
C666 N674 1.356 . S
C667 C666 1.363 . S
C667 C673 1.363 1_545 S
C668 C669 1.363 . S
C668 C673 1.379 . S
C668 N675 1.356 . S
C669 C668 1.363 . S
C669 C672 1.363 . S
N670 C672 1.356 . S
N670 H682 0.984 . S
N670 H683 0.985 1_455 S
N671 C673 1.356 . S
N671 H676 0.984 1_565 S
N671 H677 0.985 . S
C672 C666 1.379 1_565 S
C672 C669 1.363 . S
C672 N670 1.356 . S
C673 C667 1.363 1_565 S
C673 C668 1.379 . S
C673 N671 1.356 . S
N674 C666 1.356 . S
N674 H680 0.984 . S
N674 H681 0.984 . S
N675 C668 1.356 . S
N675 H678 0.984 . S
N675 H679 0.985 . S
H676 N671 0.984 1_545 S
H677 N671 0.985 . S
H678 N675 0.984 . S
H679 N675 0.985 . S
H680 N674 0.984 . S
H681 N674 0.984 . S
H682 N670 0.984 . S
H683 N670 0.985 1_655 S
C684 C685 1.363 1_565 S
C684 C690 1.379 1_554 S
C684 N692 1.356 . S
C685 C684 1.363 1_545 S
C685 C691 1.363 . S
C686 C687 1.363 . S
C686 C691 1.379 1_556 S
C686 N693 1.356 . S
C687 C686 1.363 . S
C687 C690 1.363 1_545 S
N688 C690 1.356 . S
N688 H700 0.984 . S
N688 H701 0.985 . S
N689 C691 1.356 . S
N689 H694 0.984 . S
N689 H695 0.985 . S
C690 C684 1.379 1_556 S
C690 C687 1.363 1_565 S
C690 N688 1.356 . S
C691 C685 1.363 . S
C691 C686 1.379 1_554 S
C691 N689 1.356 . S
N692 C684 1.356 . S
N692 H698 0.984 . S
N692 H699 0.984 . S
N693 C686 1.356 . S
N693 H696 0.984 . S
N693 H697 0.985 . S
H694 N689 0.984 . S
H695 N689 0.985 . S
H696 N693 0.984 . S
H697 N693 0.985 . S
H698 N692 0.984 . S
H699 N692 0.984 . S
H700 N688 0.984 . S
H701 N688 0.985 . S
C702 C703 1.363 . S
C702 C708 1.379 1_556 S
C702 N710 1.356 . S
C703 C702 1.363 . S
C703 C709 1.363 1_455 S
C704 C705 1.363 1_655 S
C704 C709 1.379 1_554 S
C704 N711 1.356 . S
C705 C704 1.363 1_455 S
C705 C708 1.363 . S
N706 C708 1.356 . S
N706 H718 0.984 . S
N706 H719 0.985 . S
N707 C709 1.356 . S
N707 H712 0.984 . S
N707 H713 0.985 . S
C708 C702 1.379 1_554 S
C708 C705 1.363 . S
C708 N706 1.356 . S
C709 C703 1.363 1_655 S
C709 C704 1.379 1_556 S
C709 N707 1.356 . S
N710 C702 1.356 . S
N710 H716 0.984 . S
N710 H717 0.984 . S
N711 C704 1.356 . S
N711 H714 0.984 . S
N711 H715 0.985 . S
H712 N707 0.984 . S
H713 N707 0.985 . S
H714 N711 0.984 . S
H715 N711 0.985 . S
H716 N710 0.984 . S
H717 N710 0.984 . S
H718 N706 0.984 . S
H719 N706 0.985 . S
C720 C721 1.363 . S
C720 C726 1.379 1_556 S
C720 N728 1.356 . S
C721 C720 1.363 . S
C721 C727 1.363 . S
C722 C723 1.363 . S
C722 C727 1.379 1_554 S
C722 N729 1.356 . S
C723 C722 1.363 . S
C723 C726 1.363 . S
N724 C726 1.356 . S
N724 H736 0.984 . S
N724 H737 0.985 . S
N725 C727 1.356 . S
N725 H730 0.984 . S
N725 H731 0.985 . S
C726 C720 1.379 1_554 S
C726 C723 1.363 . S
C726 N724 1.356 . S
C727 C721 1.363 . S
C727 C722 1.379 1_556 S
C727 N725 1.356 . S
N728 C720 1.356 . S
N728 H734 0.984 . S
N728 H735 0.984 . S
N729 C722 1.356 . S
N729 H732 0.984 . S
N729 H733 0.985 . S
H730 N725 0.984 . S
H731 N725 0.985 . S
H732 N729 0.984 . S
H733 N729 0.985 . S
H734 N728 0.984 . S
H735 N728 0.984 . S
H736 N724 0.984 . S
H737 N724 0.985 . S
C738 C739 1.363 . S
C738 C744 1.379 . S
C738 N746 1.356 . S
C739 C738 1.363 . S
C739 C745 1.363 . S
C740 C741 1.363 . S
C740 C745 1.379 . S
C740 N747 1.356 . S
C741 C740 1.363 . S
C741 C744 1.363 . S
N742 C744 1.356 . S
N742 H754 0.984 . S
N742 H755 0.985 . S
N743 C745 1.356 . S
N743 H748 0.984 . S
N743 H749 0.985 . S
C744 C738 1.379 . S
C744 C741 1.363 . S
C744 N742 1.356 . S
C745 C739 1.363 . S
C745 C740 1.379 . S
C745 N743 1.356 . S
N746 C738 1.356 . S
N746 H752 0.984 . S
N746 H753 0.984 . S
N747 C740 1.356 . S
N747 H750 0.984 . S
N747 H751 0.985 . S
H748 N743 0.984 . S
H749 N743 0.985 . S
H750 N747 0.984 . S
H751 N747 0.985 . S
H752 N746 0.984 . S
H753 N746 0.984 . S
H754 N742 0.984 . S
H755 N742 0.985 . S
C756 C757 1.363 . S
C756 C762 1.379 . S
C756 N764 1.356 . S
C757 C756 1.363 . S
C757 C763 1.363 . S
C758 C759 1.363 . S
C758 C763 1.379 . S
C758 N765 1.356 . S
C759 C758 1.363 . S
C759 C762 1.363 . S
N760 C762 1.356 . S
N760 H772 0.984 . S
N760 H773 0.985 . S
N761 C763 1.356 . S
N761 H766 0.984 . S
N761 H767 0.985 . S
C762 C756 1.379 . S
C762 C759 1.363 . S
C762 N760 1.356 . S
C763 C757 1.363 . S
C763 C758 1.379 . S
C763 N761 1.356 . S
N764 C756 1.356 . S
N764 H770 0.984 . S
N764 H771 0.984 . S
N765 C758 1.356 . S
N765 H768 0.984 . S
N765 H769 0.985 . S
H766 N761 0.984 . S
H767 N761 0.985 . S
H768 N765 0.984 . S
H769 N765 0.985 . S
H770 N764 0.984 . S
H771 N764 0.984 . S
H772 N760 0.984 . S
H773 N760 0.985 . S
C774 C775 1.363 . S
C774 C780 1.379 . S
C774 N782 1.356 . S
C775 C774 1.363 . S
C775 C781 1.363 . S
C776 C777 1.363 . S
C776 C781 1.379 . S
C776 N783 1.356 . S
C777 C776 1.363 . S
C777 C780 1.363 . S
N778 C780 1.356 . S
N778 H790 0.984 . S
N778 H791 0.985 . S
N779 C781 1.356 . S
N779 H784 0.984 . S
N779 H785 0.985 . S
C780 C774 1.379 . S
C780 C777 1.363 . S
C780 N778 1.356 . S
C781 C775 1.363 . S
C781 C776 1.379 . S
C781 N779 1.356 . S
N782 C774 1.356 . S
N782 H788 0.984 . S
N782 H789 0.984 . S
N783 C776 1.356 . S
N783 H786 0.984 . S
N783 H787 0.985 . S
H784 N779 0.984 . S
H785 N779 0.985 . S
H786 N783 0.984 . S
H787 N783 0.985 . S
H788 N782 0.984 . S
H789 N782 0.984 . S
H790 N778 0.984 . S
H791 N778 0.985 . S
C792 C793 1.363 . S
C792 C798 1.379 . S
C792 N800 1.356 . S
C793 C792 1.363 . S
C793 C799 1.363 . S
C794 C795 1.363 . S
C794 C799 1.379 . S
C794 N801 1.356 . S
C795 C794 1.363 . S
C795 C798 1.363 . S
N796 C798 1.356 . S
N796 H808 0.984 . S
N796 H809 0.985 . S
N797 C799 1.356 . S
N797 H802 0.984 . S
N797 H803 0.985 . S
C798 C792 1.379 . S
C798 C795 1.363 . S
C798 N796 1.356 . S
C799 C793 1.363 . S
C799 C794 1.379 . S
C799 N797 1.356 . S
N800 C792 1.356 . S
N800 H806 0.984 . S
N800 H807 0.984 . S
N801 C794 1.356 . S
N801 H804 0.984 . S
N801 H805 0.985 . S
H802 N797 0.984 . S
H803 N797 0.985 . S
H804 N801 0.984 . S
H805 N801 0.985 . S
H806 N800 0.984 . S
H807 N800 0.984 . S
H808 N796 0.984 . S
H809 N796 0.985 . S
C810 C811 1.363 . S
C810 C816 1.379 . S
C810 N818 1.356 . S
C811 C810 1.363 . S
C811 C817 1.363 . S
C812 C813 1.363 . S
C812 C817 1.379 . S
C812 N819 1.356 . S
C813 C812 1.363 . S
C813 C816 1.363 . S
N814 C816 1.356 . S
N814 H826 0.984 . S
N814 H827 0.985 . S
N815 C817 1.356 . S
N815 H820 0.984 . S
N815 H821 0.985 . S
C816 C810 1.379 . S
C816 C813 1.363 . S
C816 N814 1.356 . S
C817 C811 1.363 . S
C817 C812 1.379 . S
C817 N815 1.356 . S
N818 C810 1.356 . S
N818 H824 0.984 . S
N818 H825 0.984 . S
N819 C812 1.356 . S
N819 H822 0.984 . S
N819 H823 0.985 . S
H820 N815 0.984 . S
H821 N815 0.985 . S
H822 N819 0.984 . S
H823 N819 0.985 . S
H824 N818 0.984 . S
H825 N818 0.984 . S
H826 N814 0.984 . S
H827 N814 0.985 . S
C828 C829 1.363 . S
C828 C834 1.379 . S
C828 N836 1.356 . S
C829 C828 1.363 . S
C829 C835 1.363 . S
C830 C831 1.363 . S
C830 C835 1.379 . S
C830 N837 1.356 . S
C831 C830 1.363 . S
C831 C834 1.363 . S
N832 C834 1.356 . S
N832 H844 0.984 . S
N832 H845 0.985 . S
N833 C835 1.356 . S
N833 H838 0.984 . S
N833 H839 0.985 . S
C834 C828 1.379 . S
C834 C831 1.363 . S
C834 N832 1.356 . S
C835 C829 1.363 . S
C835 C830 1.379 . S
C835 N833 1.356 . S
N836 C828 1.356 . S
N836 H842 0.984 . S
N836 H843 0.984 . S
N837 C830 1.356 . S
N837 H840 0.984 . S
N837 H841 0.985 . S
H838 N833 0.984 . S
H839 N833 0.985 . S
H840 N837 0.984 . S
H841 N837 0.985 . S
H842 N836 0.984 . S
H843 N836 0.984 . S
H844 N832 0.984 . S
H845 N832 0.985 . S
C846 C847 1.363 . S
C846 C852 1.379 . S
C846 N854 1.356 . S
C847 C846 1.363 . S
C847 C853 1.363 . S
C848 C849 1.363 . S
C848 C853 1.379 . S
C848 N855 1.356 1_565 S
C849 C848 1.363 . S
C849 C852 1.363 . S
N850 C852 1.356 . S
N850 H862 0.984 . S
N850 H863 0.985 . S
N851 C853 1.356 . S
N851 H856 0.984 . S
N851 H857 0.985 . S
C852 C846 1.379 . S
C852 C849 1.363 . S
C852 N850 1.356 . S
C853 C847 1.363 . S
C853 C848 1.379 . S
C853 N851 1.356 . S
N854 C846 1.356 . S
N854 H860 0.984 . S
N854 H861 0.984 . S
N855 C848 1.356 1_545 S
N855 H858 0.984 . S
N855 H859 0.985 . S
H856 N851 0.984 . S
H857 N851 0.985 . S
H858 N855 0.984 . S
H859 N855 0.985 . S
H860 N854 0.984 . S
H861 N854 0.984 . S
H862 N850 0.984 . S
H863 N850 0.985 . S
C864 C865 1.363 . S
C864 C870 1.379 . S
C864 N872 1.356 . S
C865 C864 1.363 . S
C865 C871 1.363 . S
C866 C867 1.363 . S
C866 C871 1.379 . S
C866 N873 1.356 . S
C867 C866 1.363 . S
C867 C870 1.363 . S
N868 C870 1.356 . S
N868 H880 0.984 . S
N868 H881 0.985 . S
N869 C871 1.356 1_655 S
N869 H874 0.984 . S
N869 H875 0.985 . S
C870 C864 1.379 . S
C870 C867 1.363 . S
C870 N868 1.356 . S
C871 C865 1.363 . S
C871 C866 1.379 . S
C871 N869 1.356 1_455 S
N872 C864 1.356 . S
N872 H878 0.984 . S
N872 H879 0.984 . S
N873 C866 1.356 . S
N873 H876 0.984 . S
N873 H877 0.985 . S
H874 N869 0.984 . S
H875 N869 0.985 . S
H876 N873 0.984 . S
H877 N873 0.985 . S
H878 N872 0.984 . S
H879 N872 0.984 . S
H880 N868 0.984 . S
H881 N868 0.985 . S
C882 C883 1.363 . S
C882 C888 1.379 . S
C882 N890 1.356 . S
C883 C882 1.363 . S
C883 C889 1.363 . S
C884 C885 1.363 . S
C884 C889 1.379 . S
C884 N891 1.356 . S
C885 C884 1.363 . S
C885 C888 1.363 . S
N886 C888 1.356 . S
N886 H898 0.984 . S
N886 H899 0.985 . S
N887 C889 1.356 . S
N887 H892 0.984 . S
N887 H893 0.985 . S
C888 C882 1.379 . S
C888 C885 1.363 . S
C888 N886 1.356 . S
C889 C883 1.363 . S
C889 C884 1.379 . S
C889 N887 1.356 . S
N890 C882 1.356 . S
N890 H896 0.984 . S
N890 H897 0.984 . S
N891 C884 1.356 . S
N891 H894 0.984 . S
N891 H895 0.985 . S
H892 N887 0.984 . S
H893 N887 0.985 . S
H894 N891 0.984 . S
H895 N891 0.985 . S
H896 N890 0.984 . S
H897 N890 0.984 . S
H898 N886 0.984 . S
H899 N886 0.985 . S
C900 C901 1.363 . S
C900 C906 1.379 . S
C900 N908 1.356 1_655 S
C901 C900 1.363 . S
C901 C907 1.363 . S
C902 C903 1.363 . S
C902 C907 1.379 . S
C902 N909 1.356 . S
C903 C902 1.363 . S
C903 C906 1.363 . S
N904 C906 1.356 . S
N904 H916 0.984 . S
N904 H917 0.985 . S
N905 C907 1.356 . S
N905 H910 0.984 . S
N905 H911 0.985 . S
C906 C900 1.379 . S
C906 C903 1.363 . S
C906 N904 1.356 . S
C907 C901 1.363 . S
C907 C902 1.379 . S
C907 N905 1.356 . S
N908 C900 1.356 1_455 S
N908 H914 0.984 . S
N908 H915 0.984 . S
N909 C902 1.356 . S
N909 H912 0.984 . S
N909 H913 0.985 . S
H910 N905 0.984 . S
H911 N905 0.985 . S
H912 N909 0.984 . S
H913 N909 0.985 . S
H914 N908 0.984 . S
H915 N908 0.984 . S
H916 N904 0.984 . S
H917 N904 0.985 . S
C918 C919 1.363 . S
C918 C924 1.379 . S
C918 N926 1.356 . S
C919 C918 1.363 . S
C919 C925 1.363 . S
C920 C921 1.363 . S
C920 C925 1.379 . S
C920 N927 1.356 . S
C921 C920 1.363 . S
C921 C924 1.363 . S
N922 C924 1.356 . S
N922 H934 0.984 . S
N922 H935 0.985 . S
N923 C925 1.356 . S
N923 H928 0.984 . S
N923 H929 0.985 . S
C924 C918 1.379 . S
C924 C921 1.363 . S
C924 N922 1.356 . S
C925 C919 1.363 . S
C925 C920 1.379 . S
C925 N923 1.356 . S
N926 C918 1.356 . S
N926 H932 0.984 . S
N926 H933 0.984 . S
N927 C920 1.356 . S
N927 H930 0.984 . S
N927 H931 0.985 . S
H928 N923 0.984 . S
H929 N923 0.985 . S
H930 N927 0.984 . S
H931 N927 0.985 . S
H932 N926 0.984 . S
H933 N926 0.984 . S
H934 N922 0.984 . S
H935 N922 0.985 . S
C936 C937 1.363 . S
C936 C942 1.379 . S
C936 N944 1.356 . S
C937 C936 1.363 . S
C937 C943 1.363 . S
C938 C939 1.363 . S
C938 C943 1.379 . S
C938 N945 1.356 . S
C939 C938 1.363 . S
C939 C942 1.363 . S
N940 C942 1.356 . S
N940 H952 0.984 . S
N940 H953 0.985 . S
N941 C943 1.356 . S
N941 H946 0.984 . S
N941 H947 0.985 . S
C942 C936 1.379 . S
C942 C939 1.363 . S
C942 N940 1.356 . S
C943 C937 1.363 . S
C943 C938 1.379 . S
C943 N941 1.356 . S
N944 C936 1.356 . S
N944 H950 0.984 . S
N944 H951 0.984 . S
N945 C938 1.356 . S
N945 H948 0.984 . S
N945 H949 0.985 1_545 S
H946 N941 0.984 . S
H947 N941 0.985 . S
H948 N945 0.984 . S
H949 N945 0.985 1_565 S
H950 N944 0.984 . S
H951 N944 0.984 . S
H952 N940 0.984 . S
H953 N940 0.985 . S
C954 C955 1.363 1_455 S
C954 C960 1.379 . S
C954 N962 1.356 1_455 S
C955 C954 1.363 1_655 S
C955 C961 1.363 . S
C956 C957 1.363 . S
C956 C961 1.379 1_455 S
C956 N963 1.356 . S
C957 C956 1.363 . S
C957 C960 1.363 . S
N958 C960 1.356 . S
N958 H970 0.984 . S
N958 H971 0.985 . S
N959 C961 1.356 . S
N959 H964 0.984 . S
N959 H965 0.985 . S
C960 C954 1.379 . S
C960 C957 1.363 . S
C960 N958 1.356 . S
C961 C955 1.363 . S
C961 C956 1.379 1_655 S
C961 N959 1.356 . S
N962 C954 1.356 1_655 S
N962 H968 0.984 1_655 S
N962 H969 0.984 . S
N963 C956 1.356 . S
N963 H966 0.984 . S
N963 H967 0.985 . S
H964 N959 0.984 . S
H965 N959 0.985 . S
H966 N963 0.984 . S
H967 N963 0.985 . S
H968 N962 0.984 1_455 S
H969 N962 0.984 . S
H970 N958 0.984 . S
H971 N958 0.985 . S
C972 C973 1.363 . S
C972 C978 1.379 . S
C972 N980 1.356 . S
C973 C972 1.363 . S
C973 C979 1.363 . S
C974 C975 1.363 . S
C974 C979 1.379 . S
C974 N981 1.356 . S
C975 C974 1.363 . S
C975 C978 1.363 . S
N976 C978 1.356 . S
N976 H988 0.984 . S
N976 H989 0.985 . S
N977 C979 1.356 . S
N977 H982 0.984 . S
N977 H983 0.985 . S
C978 C972 1.379 . S
C978 C975 1.363 . S
C978 N976 1.356 . S
C979 C973 1.363 . S
C979 C974 1.379 . S
C979 N977 1.356 . S
N980 C972 1.356 . S
N980 H986 0.984 . S
N980 H987 0.984 . S
N981 C974 1.356 . S
N981 H984 0.984 . S
N981 H985 0.985 . S
H982 N977 0.984 . S
H983 N977 0.985 . S
H984 N981 0.984 . S
H985 N981 0.985 . S
H986 N980 0.984 . S
H987 N980 0.984 . S
H988 N976 0.984 . S
H989 N976 0.985 . S
C990 C991 1.363 1_545 S
C990 C996 1.379 . S
C990 N998 1.356 1_545 S
C991 C990 1.363 1_565 S
C991 C997 1.363 . S
C992 C993 1.363 . S
C992 C997 1.379 1_545 S
C992 N999 1.356 . S
C993 C992 1.363 . S
C993 C996 1.363 . S
N994 C996 1.356 . S
N994 H1006 0.984 . S
N994 H1007 0.985 . S
N995 C997 1.356 . S
N995 H1000 0.984 . S
N995 H1001 0.985 . S
C996 C990 1.379 . S
C996 C993 1.363 . S
C996 N994 1.356 . S
C997 C991 1.363 . S
C997 C992 1.379 1_565 S
C997 N995 1.356 . S
N998 C990 1.356 1_565 S
N998 H1004 0.984 1_565 S
N998 H1005 0.984 . S
N999 C992 1.356 . S
N999 H1002 0.984 . S
N999 H1003 0.985 . S
H1000 N995 0.984 . S
H1001 N995 0.985 . S
H1002 N999 0.984 . S
H1003 N999 0.985 . S
H1004 N998 0.984 1_545 S
H1005 N998 0.984 . S
H1006 N994 0.984 . S
H1007 N994 0.985 . S
C1008 C1009 1.363 . S
C1008 C1014 1.379 . S
C1008 N1016 1.356 . S
C1009 C1008 1.363 . S
C1009 C1015 1.363 . S
C1010 C1011 1.363 . S
C1010 C1015 1.379 . S
C1010 N1017 1.356 . S
C1011 C1010 1.363 . S
C1011 C1014 1.363 . S
N1012 C1014 1.356 . S
N1012 H1024 0.984 . S
N1012 H1025 0.985 . S
N1013 C1015 1.356 . S
N1013 H1018 0.984 . S
N1013 H1019 0.985 . S
C1014 C1008 1.379 . S
C1014 C1011 1.363 . S
C1014 N1012 1.356 . S
C1015 C1009 1.363 . S
C1015 C1010 1.379 . S
C1015 N1013 1.356 . S
N1016 C1008 1.356 . S
N1016 H1022 0.984 . S
N1016 H1023 0.984 . S
N1017 C1010 1.356 . S
N1017 H1020 0.984 . S
N1017 H1021 0.985 . S
H1018 N1013 0.984 . S
H1019 N1013 0.985 . S
H1020 N1017 0.984 . S
H1021 N1017 0.985 . S
H1022 N1016 0.984 . S
H1023 N1016 0.984 . S
H1024 N1012 0.984 . S
H1025 N1012 0.985 . S
C1026 C1027 1.363 . S
C1026 C1032 1.379 . S
C1026 N1034 1.356 . S
C1027 C1026 1.363 . S
C1027 C1033 1.363 . S
C1028 C1029 1.363 . S
C1028 C1033 1.379 . S
C1028 N1035 1.356 . S
C1029 C1028 1.363 . S
C1029 C1032 1.363 . S
N1030 C1032 1.356 . S
N1030 H1042 0.984 . S
N1030 H1043 0.985 . S
N1031 C1033 1.356 . S
N1031 H1036 0.984 . S
N1031 H1037 0.985 . S
C1032 C1026 1.379 . S
C1032 C1029 1.363 . S
C1032 N1030 1.356 . S
C1033 C1027 1.363 . S
C1033 C1028 1.379 . S
C1033 N1031 1.356 . S
N1034 C1026 1.356 . S
N1034 H1040 0.984 . S
N1034 H1041 0.984 . S
N1035 C1028 1.356 . S
N1035 H1038 0.984 . S
N1035 H1039 0.985 . S
H1036 N1031 0.984 . S
H1037 N1031 0.985 . S
H1038 N1035 0.984 . S
H1039 N1035 0.985 . S
H1040 N1034 0.984 . S
H1041 N1034 0.984 . S
H1042 N1030 0.984 . S
H1043 N1030 0.985 . S
C1044 C1045 1.363 . S
C1044 C1050 1.379 . S
C1044 N1052 1.356 . S
C1045 C1044 1.363 . S
C1045 C1051 1.363 . S
C1046 C1047 1.363 . S
C1046 C1051 1.379 . S
C1046 N1053 1.356 . S
C1047 C1046 1.363 . S
C1047 C1050 1.363 . S
N1048 C1050 1.356 . S
N1048 H1060 0.984 . S
N1048 H1061 0.985 . S
N1049 C1051 1.356 . S
N1049 H1054 0.984 . S
N1049 H1055 0.985 . S
C1050 C1044 1.379 . S
C1050 C1047 1.363 . S
C1050 N1048 1.356 . S
C1051 C1045 1.363 . S
C1051 C1046 1.379 . S
C1051 N1049 1.356 . S
N1052 C1044 1.356 . S
N1052 H1058 0.984 . S
N1052 H1059 0.984 . S
N1053 C1046 1.356 . S
N1053 H1056 0.984 . S
N1053 H1057 0.985 . S
H1054 N1049 0.984 . S
H1055 N1049 0.985 . S
H1056 N1053 0.984 . S
H1057 N1053 0.985 . S
H1058 N1052 0.984 . S
H1059 N1052 0.984 . S
H1060 N1048 0.984 . S
H1061 N1048 0.985 . S
C1062 C1063 1.363 . S
C1062 C1068 1.379 . S
C1062 N1070 1.356 . S
C1063 C1062 1.363 . S
C1063 C1069 1.363 . S
C1064 C1065 1.363 . S
C1064 C1069 1.379 . S
C1064 N1071 1.356 . S
C1065 C1064 1.363 . S
C1065 C1068 1.363 . S
N1066 C1068 1.356 . S
N1066 H1078 0.984 . S
N1066 H1079 0.985 . S
N1067 C1069 1.356 . S
N1067 H1072 0.984 . S
N1067 H1073 0.985 . S
C1068 C1062 1.379 . S
C1068 C1065 1.363 . S
C1068 N1066 1.356 . S
C1069 C1063 1.363 . S
C1069 C1064 1.379 . S
C1069 N1067 1.356 . S
N1070 C1062 1.356 . S
N1070 H1076 0.984 . S
N1070 H1077 0.984 . S
N1071 C1064 1.356 . S
N1071 H1074 0.984 . S
N1071 H1075 0.985 . S
H1072 N1067 0.984 . S
H1073 N1067 0.985 . S
H1074 N1071 0.984 . S
H1075 N1071 0.985 . S
H1076 N1070 0.984 . S
H1077 N1070 0.984 . S
H1078 N1066 0.984 . S
H1079 N1066 0.985 . S
C1080 C1081 1.363 . S
C1080 C1086 1.379 . S
C1080 N1088 1.356 . S
C1081 C1080 1.363 . S
C1081 C1087 1.363 . S
C1082 C1083 1.363 . S
C1082 C1087 1.379 . S
C1082 N1089 1.356 . S
C1083 C1082 1.363 . S
C1083 C1086 1.363 . S
N1084 C1086 1.356 . S
N1084 H1096 0.984 . S
N1084 H1097 0.985 . S
N1085 C1087 1.356 . S
N1085 H1090 0.984 . S
N1085 H1091 0.985 . S
C1086 C1080 1.379 . S
C1086 C1083 1.363 . S
C1086 N1084 1.356 . S
C1087 C1081 1.363 . S
C1087 C1082 1.379 . S
C1087 N1085 1.356 . S
N1088 C1080 1.356 . S
N1088 H1094 0.984 . S
N1088 H1095 0.984 . S
N1089 C1082 1.356 . S
N1089 H1092 0.984 . S
N1089 H1093 0.985 . S
H1090 N1085 0.984 . S
H1091 N1085 0.985 . S
H1092 N1089 0.984 . S
H1093 N1089 0.985 . S
H1094 N1088 0.984 . S
H1095 N1088 0.984 . S
H1096 N1084 0.984 . S
H1097 N1084 0.985 . S
C1098 C1099 1.363 . S
C1098 C1104 1.379 . S
C1098 N1106 1.356 . S
C1099 C1098 1.363 . S
C1099 C1105 1.363 . S
C1100 C1101 1.363 . S
C1100 C1105 1.379 . S
C1100 N1107 1.356 . S
C1101 C1100 1.363 . S
C1101 C1104 1.363 . S
N1102 C1104 1.356 . S
N1102 H1114 0.984 . S
N1102 H1115 0.985 . S
N1103 C1105 1.356 . S
N1103 H1108 0.984 . S
N1103 H1109 0.985 . S
C1104 C1098 1.379 . S
C1104 C1101 1.363 . S
C1104 N1102 1.356 . S
C1105 C1099 1.363 . S
C1105 C1100 1.379 . S
C1105 N1103 1.356 . S
N1106 C1098 1.356 . S
N1106 H1112 0.984 . S
N1106 H1113 0.984 . S
N1107 C1100 1.356 . S
N1107 H1110 0.984 . S
N1107 H1111 0.985 . S
H1108 N1103 0.984 . S
H1109 N1103 0.985 . S
H1110 N1107 0.984 . S
H1111 N1107 0.985 . S
H1112 N1106 0.984 . S
H1113 N1106 0.984 . S
H1114 N1102 0.984 . S
H1115 N1102 0.985 . S
C1116 C1117 1.363 . S
C1116 C1122 1.379 . S
C1116 N1124 1.356 . S
C1117 C1116 1.363 . S
C1117 C1123 1.363 . S
C1118 C1119 1.363 . S
C1118 C1123 1.379 . S
C1118 N1125 1.356 . S
C1119 C1118 1.363 . S
C1119 C1122 1.363 . S
N1120 C1122 1.356 . S
N1120 H1132 0.984 . S
N1120 H1133 0.985 . S
N1121 C1123 1.356 . S
N1121 H1126 0.984 . S
N1121 H1127 0.985 . S
C1122 C1116 1.379 . S
C1122 C1119 1.363 . S
C1122 N1120 1.356 . S
C1123 C1117 1.363 . S
C1123 C1118 1.379 . S
C1123 N1121 1.356 . S
N1124 C1116 1.356 . S
N1124 H1130 0.984 . S
N1124 H1131 0.984 . S
N1125 C1118 1.356 . S
N1125 H1128 0.984 . S
N1125 H1129 0.985 . S
H1126 N1121 0.984 . S
H1127 N1121 0.985 . S
H1128 N1125 0.984 . S
H1129 N1125 0.985 . S
H1130 N1124 0.984 . S
H1131 N1124 0.984 . S
H1132 N1120 0.984 . S
H1133 N1120 0.985 . S
C1134 C1135 1.363 . S
C1134 C1140 1.379 . S
C1134 N1142 1.356 . S
C1135 C1134 1.363 . S
C1135 C1141 1.363 . S
C1136 C1137 1.363 . S
C1136 C1141 1.379 . S
C1136 N1143 1.356 . S
C1137 C1136 1.363 . S
C1137 C1140 1.363 . S
N1138 C1140 1.356 . S
N1138 H1150 0.984 . S
N1138 H1151 0.985 . S
N1139 C1141 1.356 . S
N1139 H1144 0.984 . S
N1139 H1145 0.985 . S
C1140 C1134 1.379 . S
C1140 C1137 1.363 . S
C1140 N1138 1.356 . S
C1141 C1135 1.363 . S
C1141 C1136 1.379 . S
C1141 N1139 1.356 . S
N1142 C1134 1.356 . S
N1142 H1148 0.984 . S
N1142 H1149 0.984 . S
N1143 C1136 1.356 . S
N1143 H1146 0.984 . S
N1143 H1147 0.985 . S
H1144 N1139 0.984 . S
H1145 N1139 0.985 . S
H1146 N1143 0.984 . S
H1147 N1143 0.985 . S
H1148 N1142 0.984 . S
H1149 N1142 0.984 . S
H1150 N1138 0.984 . S
H1151 N1138 0.985 . S
C1152 C1153 1.363 . S
C1152 C1158 1.379 . S
C1152 N1160 1.356 . S
C1153 C1152 1.363 . S
C1153 C1159 1.363 . S
C1154 C1155 1.363 . S
C1154 C1159 1.379 . S
C1154 N1161 1.356 . S
C1155 C1154 1.363 . S
C1155 C1158 1.363 . S
N1156 C1158 1.356 . S
N1156 H1168 0.984 . S
N1156 H1169 0.985 . S
N1157 C1159 1.356 . S
N1157 H1162 0.984 . S
N1157 H1163 0.985 . S
C1158 C1152 1.379 . S
C1158 C1155 1.363 . S
C1158 N1156 1.356 . S
C1159 C1153 1.363 . S
C1159 C1154 1.379 . S
C1159 N1157 1.356 . S
N1160 C1152 1.356 . S
N1160 H1166 0.984 . S
N1160 H1167 0.984 . S
N1161 C1154 1.356 . S
N1161 H1164 0.984 . S
N1161 H1165 0.985 . S
H1162 N1157 0.984 . S
H1163 N1157 0.985 . S
H1164 N1161 0.984 . S
H1165 N1161 0.985 . S
H1166 N1160 0.984 . S
H1167 N1160 0.984 . S
H1168 N1156 0.984 . S
H1169 N1156 0.985 . S
C1170 C1171 1.363 . S
C1170 C1176 1.379 1_655 S
C1170 N1178 1.356 . S
C1171 C1170 1.363 . S
C1171 C1177 1.363 . S
C1172 C1173 1.363 . S
C1172 C1177 1.379 1_455 S
C1172 N1179 1.356 . S
C1173 C1172 1.363 . S
C1173 C1176 1.363 . S
N1174 C1176 1.356 . S
N1174 H1186 0.984 . S
N1174 H1187 0.985 . S
N1175 C1177 1.356 . S
N1175 H1180 0.984 . S
N1175 H1181 0.985 . S
C1176 C1170 1.379 1_455 S
C1176 C1173 1.363 . S
C1176 N1174 1.356 . S
C1177 C1171 1.363 . S
C1177 C1172 1.379 1_655 S
C1177 N1175 1.356 . S
N1178 C1170 1.356 . S
N1178 H1184 0.984 . S
N1178 H1185 0.984 . S
N1179 C1172 1.356 . S
N1179 H1182 0.984 . S
N1179 H1183 0.985 . S
H1180 N1175 0.984 . S
H1181 N1175 0.985 . S
H1182 N1179 0.984 . S
H1183 N1179 0.985 . S
H1184 N1178 0.984 . S
H1185 N1178 0.984 . S
H1186 N1174 0.984 . S
H1187 N1174 0.985 . S
C1188 C1189 1.363 . S
C1188 C1194 1.379 . S
C1188 N1196 1.356 . S
C1189 C1188 1.363 . S
C1189 C1195 1.363 . S
C1190 C1191 1.363 . S
C1190 C1195 1.379 . S
C1190 N1197 1.356 . S
C1191 C1190 1.363 . S
C1191 C1194 1.363 . S
N1192 C1194 1.356 . S
N1192 H1204 0.984 . S
N1192 H1205 0.985 . S
N1193 C1195 1.356 . S
N1193 H1198 0.984 . S
N1193 H1199 0.985 . S
C1194 C1188 1.379 . S
C1194 C1191 1.363 . S
C1194 N1192 1.356 . S
C1195 C1189 1.363 . S
C1195 C1190 1.379 . S
C1195 N1193 1.356 . S
N1196 C1188 1.356 . S
N1196 H1202 0.984 . S
N1196 H1203 0.984 . S
N1197 C1190 1.356 . S
N1197 H1200 0.984 . S
N1197 H1201 0.985 . S
H1198 N1193 0.984 . S
H1199 N1193 0.985 . S
H1200 N1197 0.984 . S
H1201 N1197 0.985 . S
H1202 N1196 0.984 . S
H1203 N1196 0.984 . S
H1204 N1192 0.984 . S
H1205 N1192 0.985 . S
C1206 C1207 1.363 1_545 S
C1206 C1212 1.379 . S
C1206 N1214 1.356 . S
C1207 C1206 1.363 1_565 S
C1207 C1213 1.363 1_565 S
C1208 C1209 1.363 . S
C1208 C1213 1.379 . S
C1208 N1215 1.356 . S
C1209 C1208 1.363 . S
C1209 C1212 1.363 . S
N1210 C1212 1.356 . S
N1210 H1222 0.984 . S
N1210 H1223 0.985 . S
N1211 C1213 1.356 1_565 S
N1211 H1216 0.984 . S
N1211 H1217 0.985 . S
C1212 C1206 1.379 . S
C1212 C1209 1.363 . S
C1212 N1210 1.356 . S
C1213 C1207 1.363 1_545 S
C1213 C1208 1.379 . S
C1213 N1211 1.356 1_545 S
N1214 C1206 1.356 . S
N1214 H1220 0.984 . S
N1214 H1221 0.984 1_545 S
N1215 C1208 1.356 . S
N1215 H1218 0.984 1_655 S
N1215 H1219 0.985 . S
H1216 N1211 0.984 . S
H1217 N1211 0.985 . S
H1218 N1215 0.984 1_455 S
H1219 N1215 0.985 . S
H1220 N1214 0.984 . S
H1221 N1214 0.984 1_565 S
H1222 N1210 0.984 . S
H1223 N1210 0.985 . S
C1224 C1225 1.363 . S
C1224 C1230 1.379 . S
C1224 N1232 1.356 . S
C1225 C1224 1.363 . S
C1225 C1231 1.363 . S
C1226 C1227 1.363 . S
C1226 C1231 1.379 1_545 S
C1226 N1233 1.356 . S
C1227 C1226 1.363 . S
C1227 C1230 1.363 1_545 S
N1228 C1230 1.356 1_545 S
N1228 H1240 0.984 . S
N1228 H1241 0.985 . S
N1229 C1231 1.356 . S
N1229 H1234 0.984 . S
N1229 H1235 0.985 . S
C1230 C1224 1.379 . S
C1230 C1227 1.363 1_565 S
C1230 N1228 1.356 1_565 S
C1231 C1225 1.363 . S
C1231 C1226 1.379 1_565 S
C1231 N1229 1.356 . S
N1232 C1224 1.356 . S
N1232 H1238 0.984 . S
N1232 H1239 0.984 . S
N1233 C1226 1.356 . S
N1233 H1236 0.984 . S
N1233 H1237 0.985 . S
H1234 N1229 0.984 . S
H1235 N1229 0.985 . S
H1236 N1233 0.984 . S
H1237 N1233 0.985 . S
H1238 N1232 0.984 . S
H1239 N1232 0.984 . S
H1240 N1228 0.984 . S
H1241 N1228 0.985 . S
C1242 C1243 1.363 . S
C1242 C1248 1.379 . S
C1242 N1250 1.356 . S
C1243 C1242 1.363 . S
C1243 C1249 1.363 . S
C1244 C1245 1.363 1_455 S
C1244 C1249 1.379 . S
C1244 N1251 1.356 . S
C1245 C1244 1.363 1_655 S
C1245 C1248 1.363 1_655 S
N1246 C1248 1.356 1_655 S
N1246 H1258 0.984 . S
N1246 H1259 0.985 . S
N1247 C1249 1.356 . S
N1247 H1252 0.984 . S
N1247 H1253 0.985 . S
C1248 C1242 1.379 . S
C1248 C1245 1.363 1_455 S
C1248 N1246 1.356 1_455 S
C1249 C1243 1.363 . S
C1249 C1244 1.379 . S
C1249 N1247 1.356 . S
N1250 C1242 1.356 . S
N1250 H1256 0.984 . S
N1250 H1257 0.984 1_565 S
N1251 C1244 1.356 . S
N1251 H1254 0.984 1_455 S
N1251 H1255 0.985 . S
H1252 N1247 0.984 . S
H1253 N1247 0.985 . S
H1254 N1251 0.984 1_655 S
H1255 N1251 0.985 . S
H1256 N1250 0.984 . S
H1257 N1250 0.984 1_545 S
H1258 N1246 0.984 . S
H1259 N1246 0.985 . S
C1260 C1261 1.363 . S
C1260 C1266 1.379 . S
C1260 N1268 1.356 . S
C1261 C1260 1.363 . S
C1261 C1267 1.363 . S
C1262 C1263 1.363 . S
C1262 C1267 1.379 . S
C1262 N1269 1.356 . S
C1263 C1262 1.363 . S
C1263 C1266 1.363 . S
N1264 C1266 1.356 . S
N1264 H1276 0.984 . S
N1264 H1277 0.985 . S
N1265 C1267 1.356 . S
N1265 H1270 0.984 . S
N1265 H1271 0.985 . S
C1266 C1260 1.379 . S
C1266 C1263 1.363 . S
C1266 N1264 1.356 . S
C1267 C1261 1.363 . S
C1267 C1262 1.379 . S
C1267 N1265 1.356 . S
N1268 C1260 1.356 . S
N1268 H1274 0.984 . S
N1268 H1275 0.984 . S
N1269 C1262 1.356 . S
N1269 H1272 0.984 . S
N1269 H1273 0.985 . S
H1270 N1265 0.984 . S
H1271 N1265 0.985 . S
H1272 N1269 0.984 . S
H1273 N1269 0.985 . S
H1274 N1268 0.984 . S
H1275 N1268 0.984 . S
H1276 N1264 0.984 . S
H1277 N1264 0.985 . S
C1278 C1279 1.363 . S
C1278 C1284 1.379 . S
C1278 N1286 1.356 . S
C1279 C1278 1.363 . S
C1279 C1285 1.363 . S
C1280 C1281 1.363 . S
C1280 C1285 1.379 . S
C1280 N1287 1.356 . S
C1281 C1280 1.363 . S
C1281 C1284 1.363 . S
N1282 C1284 1.356 . S
N1282 H1294 0.984 . S
N1282 H1295 0.985 . S
N1283 C1285 1.356 . S
N1283 H1288 0.984 . S
N1283 H1289 0.985 . S
C1284 C1278 1.379 . S
C1284 C1281 1.363 . S
C1284 N1282 1.356 . S
C1285 C1279 1.363 . S
C1285 C1280 1.379 . S
C1285 N1283 1.356 . S
N1286 C1278 1.356 . S
N1286 H1292 0.984 . S
N1286 H1293 0.984 . S
N1287 C1280 1.356 . S
N1287 H1290 0.984 . S
N1287 H1291 0.985 . S
H1288 N1283 0.984 . S
H1289 N1283 0.985 . S
H1290 N1287 0.984 . S
H1291 N1287 0.985 . S
H1292 N1286 0.984 . S
H1293 N1286 0.984 . S
H1294 N1282 0.984 . S
H1295 N1282 0.985 . S
C1296 C1297 1.363 . S
C1296 C1302 1.379 . S
C1296 N1304 1.356 . S
C1297 C1296 1.363 . S
C1297 C1303 1.363 . S
C1298 C1299 1.363 . S
C1298 C1303 1.379 . S
C1298 N1305 1.356 . S
C1299 C1298 1.363 . S
C1299 C1302 1.363 . S
N1300 C1302 1.356 . S
N1300 H1312 0.984 . S
N1300 H1313 0.985 . S
N1301 C1303 1.356 . S
N1301 H1306 0.984 . S
N1301 H1307 0.985 . S
C1302 C1296 1.379 . S
C1302 C1299 1.363 . S
C1302 N1300 1.356 . S
C1303 C1297 1.363 . S
C1303 C1298 1.379 . S
C1303 N1301 1.356 . S
N1304 C1296 1.356 . S
N1304 H1310 0.984 . S
N1304 H1311 0.984 . S
N1305 C1298 1.356 . S
N1305 H1308 0.984 . S
N1305 H1309 0.985 . S
H1306 N1301 0.984 . S
H1307 N1301 0.985 . S
H1308 N1305 0.984 . S
H1309 N1305 0.985 . S
H1310 N1304 0.984 . S
H1311 N1304 0.984 . S
H1312 N1300 0.984 . S
H1313 N1300 0.985 . S
C1314 C1315 1.363 . S
C1314 C1320 1.379 . S
C1314 N1322 1.356 . S
C1315 C1314 1.363 . S
C1315 C1321 1.363 . S
C1316 C1317 1.363 . S
C1316 C1321 1.379 . S
C1316 N1323 1.356 . S
C1317 C1316 1.363 . S
C1317 C1320 1.363 . S
N1318 C1320 1.356 . S
N1318 H1330 0.984 . S
N1318 H1331 0.985 . S
N1319 C1321 1.356 . S
N1319 H1324 0.984 . S
N1319 H1325 0.985 . S
C1320 C1314 1.379 . S
C1320 C1317 1.363 . S
C1320 N1318 1.356 . S
C1321 C1315 1.363 . S
C1321 C1316 1.379 . S
C1321 N1319 1.356 . S
N1322 C1314 1.356 . S
N1322 H1328 0.984 . S
N1322 H1329 0.984 . S
N1323 C1316 1.356 . S
N1323 H1326 0.984 . S
N1323 H1327 0.985 . S
H1324 N1319 0.984 . S
H1325 N1319 0.985 . S
H1326 N1323 0.984 . S
H1327 N1323 0.985 . S
H1328 N1322 0.984 . S
H1329 N1322 0.984 . S
H1330 N1318 0.984 . S
H1331 N1318 0.985 . S
C361 C6 1.216 . S
C363 C59 1.247 . S
C379 C19 1.247 . S
C381 C26 1.216 . S
C397 C39 1.247 . S
C399 C46 1.216 . S
C415 C66 1.216 . S
C417 C99 1.247 . S
C433 C119 1.247 . S
C435 C86 1.216 . S
C451 C106 1.216 . S
C453 C79 1.247 . S
C469 C179 1.247 1_545 S
C471 C126 1.216 . S
C487 C139 1.247 . S
C489 C146 1.216 . S
C505 C166 1.216 1_655 S
C507 C159 1.247 . S
C523 C219 1.247 . S
C525 C186 1.216 . S
C541 C206 1.216 . S
C543 C239 1.247 . S
C559 C199 1.247 . S
C561 C226 1.216 . S
C577 C246 1.216 . S
C579 C299 1.247 . S
C595 C259 1.247 . S
C597 C266 1.216 . S
C613 C279 1.247 . S
C615 C286 1.216 . S
C631 C339 1.247 1_455 S
C633 C306 1.216 . S
C649 C359 1.247 . S
C651 C326 1.216 1_565 S
C667 C319 1.247 . S
C669 C346 1.216 . S
C685 C9 1.693 . S
C687 C109 1.693 . S
C703 C69 1.693 . S
C705 C29 1.693 . S
C721 C89 1.693 . S
C723 C49 1.693 . S
C739 C129 1.693 . S
C741 C229 1.693 . S
C757 C149 1.693 . S
C759 C189 1.693 . S
C775 C209 1.693 . S
C777 C169 1.693 . S
C793 C249 1.693 . S
C795 C349 1.693 . S
C811 C309 1.693 . S
C813 C269 1.693 . S
C829 C329 1.693 . S
C831 C289 1.693 . S
C847 C201 1.906 . S
C849 C1 1.906 . S
C865 C21 1.906 . S
C867 C221 1.906 . S
C883 C181 1.906 . S
C885 C41 1.906 . S
C901 C61 1.906 . S
C903 C281 1.906 . S
C919 C81 1.906 . S
C921 C241 1.906 . S
C937 C261 1.906 . S
C939 C101 1.906 . S
C955 C321 1.906 . S
C957 C121 1.906 . S
C973 C141 1.906 . S
C975 C341 1.906 . S
C991 C161 1.906 . S
C993 C301 1.906 . S
C1009 C48 1.646 . S
C1011 C16 1.728 . S
C1027 C8 1.646 . S
C1029 C36 1.728 . S
C1045 C56 1.728 . S
C1047 C28 1.646 . S
C1063 C88 1.646 . S
C1065 C76 1.728 . S
C1081 C108 1.645 . S
C1083 C96 1.728 . S
C1099 C116 1.728 . S
C1101 C68 1.646 . S
C1117 C168 1.646 . S
C1119 C136 1.728 . S
C1135 C156 1.729 . S
C1137 C128 1.646 . S
C1153 C148 1.646 . S
C1155 C176 1.728 . S
C1171 C196 1.729 . S
C1173 C208 1.646 . S
C1189 C216 1.728 . S
C1191 C228 1.645 . S
C1207 C188 1.646 . S
C1209 C236 1.729 1_655 S
C1225 C256 1.729 . S
C1227 C288 1.646 . S
C1243 C276 1.729 1_565 S
C1245 C248 1.646 . S
C1261 C268 1.645 . S
C1263 C296 1.728 . S
C1279 C316 1.728 . S
C1281 C328 1.646 . S
C1297 C336 1.728 . S
C1299 C348 1.646 . S
C1315 C308 1.646 . S
C1317 C356 1.729 . S
