# Generated by pormake.
# Topology snk, (6)-cn, num edge types: 1
# Building blocks:
#     Node 0, Type 0, BuildingBlock: BETDIP_clean_sbu_0, # of connection points: 6
#     Node 1, Type 0, BuildingBlock: BETDIP_clean_sbu_0, # of connection points: 6
#     Node 2, Type 0, BuildingBlock: BETDIP_clean_sbu_0, # of connection points: 6
#     Node 3, Type 0, BuildingBlock: BETDIP_clean_sbu_0, # of connection points: 6
#     Node 4, Type 0, BuildingBlock: BETDIP_clean_sbu_0, # of connection points: 6
#     Node 5, Type 0, BuildingBlock: BETDIP_clean_sbu_0, # of connection points: 6
#     Node 6, Type 0, BuildingBlock: BETDIP_clean_sbu_0, # of connection points: 6
#     Node 7, Type 0, BuildingBlock: BETDIP_clean_sbu_0, # of connection points: 6
#     Edge 8, Type (0, 0), BuildingBlock: XIVTED_clean_linker_0, # of connection points: 2
#     Edge 9, Type (0, 0), BuildingBlock: XIVTED_clean_linker_0, # of connection points: 2
#     Edge 10, Type (0, 0), BuildingBlock: XIVTED_clean_linker_0, # of connection points: 2
#     Edge 11, Type (0, 0), BuildingBlock: XIVTED_clean_linker_0, # of connection points: 2
#     Edge 12, Type (0, 0), BuildingBlock: XIVTED_clean_linker_0, # of connection points: 2
#     Edge 13, Type (0, 0), BuildingBlock: XIVTED_clean_linker_0, # of connection points: 2
#     Edge 14, Type (0, 0), BuildingBlock: XIVTED_clean_linker_0, # of connection points: 2
#     Edge 15, Type (0, 0), BuildingBlock: XIVTED_clean_linker_0, # of connection points: 2
#     Edge 16, Type (0, 0), BuildingBlock: XIVTED_clean_linker_0, # of connection points: 2
#     Edge 17, Type (0, 0), BuildingBlock: XIVTED_clean_linker_0, # of connection points: 2
#     Edge 18, Type (0, 0), BuildingBlock: XIVTED_clean_linker_0, # of connection points: 2
#     Edge 19, Type (0, 0), BuildingBlock: XIVTED_clean_linker_0, # of connection points: 2
#     Edge 20, Type (0, 0), BuildingBlock: XIVTED_clean_linker_0, # of connection points: 2
#     Edge 21, Type (0, 0), BuildingBlock: XIVTED_clean_linker_0, # of connection points: 2
#     Edge 22, Type (0, 0), BuildingBlock: XIVTED_clean_linker_0, # of connection points: 2
#     Edge 23, Type (0, 0), BuildingBlock: XIVTED_clean_linker_0, # of connection points: 2
#     Edge 24, Type (0, 0), BuildingBlock: XIVTED_clean_linker_0, # of connection points: 2
#     Edge 25, Type (0, 0), BuildingBlock: XIVTED_clean_linker_0, # of connection points: 2
#     Edge 26, Type (0, 0), BuildingBlock: XIVTED_clean_linker_0, # of connection points: 2
#     Edge 27, Type (0, 0), BuildingBlock: XIVTED_clean_linker_0, # of connection points: 2
#     Edge 28, Type (0, 0), BuildingBlock: XIVTED_clean_linker_0, # of connection points: 2
#     Edge 29, Type (0, 0), BuildingBlock: XIVTED_clean_linker_0, # of connection points: 2
#     Edge 30, Type (0, 0), BuildingBlock: XIVTED_clean_linker_0, # of connection points: 2
#     Edge 31, Type (0, 0), BuildingBlock: XIVTED_clean_linker_0, # of connection points: 2
# Relax obj value: 0.093
# Max RMSD: 0.159
# Mean RMSD: 0.131
data_MOF--net-snk--node1-BETDIP_clean_sbu_0--edge1-XIVTED_clean_linker_0
_symmetry_space_group_name_H-M    P1
_symmetry_Int_Tables_number       1
_symmetry_cell_setting            triclinic
loop_
_symmetry_equiv_pos_as_xyz
'x, y, z'
_cell_length_a     37.656962
_cell_length_b     37.735175
_cell_length_c     25.295078
_cell_angle_alpha  96.822406
_cell_angle_beta   96.654673
_cell_angle_gamma 91.060478
loop_
_atom_site_label
_atom_site_type_symbol
_atom_site_fract_x
_atom_site_fract_y
_atom_site_fract_z
_atom_type_partial_charge
Tb0 Tb 0.99112 0.98685 0.46217 0.0
Tb1 Tb 0.01883 0.02684 0.56987 0.0
C2 C 0.96707 0.96993 0.36501 0.0
C3 C 0.97474 0.97689 0.31105 0.0
C4 C 0.98359 0.01128 0.2995 0.0
C5 C 0.9893 0.01692 0.24723 0.0
C6 C 0.98631 0.98831 0.20551 0.0
C7 C 0.97809 0.95389 0.21777 0.0
C8 C 0.97231 0.94832 0.26982 0.0
C9 C 0.03543 0.95141 0.52313 0.0
C10 C 0.05746 0.04304 0.47312 0.0
C11 C 0.04092 0.04652 0.66716 0.0
C12 C 0.03398 0.03922 0.72125 0.0
C13 C 0.02587 1.00466 0.73275 0.0
C14 C 0.02054 0.99877 0.78508 0.0
C15 C 0.02321 0.02733 0.82688 0.0
C16 C 0.03079 0.0619 0.81468 0.0
C17 C 0.03615 0.06772 0.76256 0.0
C18 C 0.97475 0.0614 0.50747 0.0
C19 C 0.95366 0.96928 0.5589 0.0
O20 O 0.95515 0.99633 0.39593 0.0
O21 O 0.99046 0.95138 0.39143 0.0
O22 O 0.03794 0.98432 0.51876 0.0
O23 O 0.00891 0.93686 0.48993 0.0
O24 O 0.03073 0.02498 0.44214 0.0
O25 O 0.06104 0.044 0.52598 0.0
O26 O 0.05542 0.02134 0.63733 0.0
O27 O 0.01565 0.06229 0.63968 0.0
O28 O 0.97201 0.02893 0.51381 0.0
O29 O 1.0021 0.07625 0.53845 0.0
O30 O 0.9806 0.9871 0.58983 0.0
O31 O 0.94942 0.96928 0.50627 0.0
H32 H 0.98572 0.03381 0.33063 0.0
H33 H 0.99531 0.04382 0.23933 0.0
H34 H 0.97628 0.93108 0.18716 0.0
H35 H 0.96572 0.92155 0.27786 0.0
H36 H 0.02396 0.9822 0.7015 0.0
H37 H 0.01502 0.97176 0.79295 0.0
H38 H 0.03235 0.08466 0.84537 0.0
H39 H 0.04216 0.09462 0.75453 0.0
Tb40 Tb 0.25864 0.73719 0.73325 0.0
Tb41 Tb 0.23726 0.77475 0.83808 0.0
C42 C 0.25997 0.7055 0.6399 0.0
C43 C 0.25541 0.71431 0.58431 0.0
C44 C 0.25419 0.68672 0.54181 0.0
C45 C 0.25162 0.6944 0.48875 0.0
C46 C 0.25027 0.72995 0.47703 0.0
C47 C 0.25104 0.75758 0.51992 0.0
C48 C 0.25352 0.74982 0.57308 0.0
C49 C 0.3011 0.79034 0.78155 0.0
C50 C 0.20451 0.80214 0.73244 0.0
C51 C 0.23677 0.80694 0.93128 0.0
C52 C 0.24174 0.79826 0.98691 0.0
C53 C 0.24319 0.82592 0.02936 0.0
C54 C 0.24596 0.81831 0.08247 0.0
C55 C 0.24729 0.78278 0.09429 0.0
C56 C 0.24637 0.7551 0.05145 0.0
C57 C 0.24367 0.76278 0.99825 0.0
C58 C 0.19449 0.72179 0.79011 0.0
C59 C 0.29089 0.70914 0.83831 0.0
O60 O 0.23144 0.70676 0.66503 0.0
O61 O 0.28825 0.71979 0.67042 0.0
O62 O 0.26769 0.78872 0.7779 0.0
O63 O 0.31222 0.76229 0.75457 0.0
O64 O 0.21614 0.77272 0.70658 0.0
O65 O 0.21486 0.81185 0.78415 0.0
O66 O 0.26505 0.80546 0.90556 0.0
O67 O 0.20824 0.79266 0.90134 0.0
O68 O 0.22792 0.72335 0.7933 0.0
O69 O 0.18366 0.74962 0.81803 0.0
O70 O 0.27958 0.73865 0.86451 0.0
O71 O 0.28033 0.69969 0.78664 0.0
H72 H 0.25574 0.65915 0.54971 0.0
H73 H 0.25158 0.67247 0.45698 0.0
H74 H 0.24958 0.7852 0.51242 0.0
H75 H 0.25433 0.77151 0.60541 0.0
H76 H 0.24159 0.85346 0.02137 0.0
H77 H 0.24613 0.84029 0.11421 0.0
H78 H 0.24783 0.72749 0.05901 0.0
H79 H 0.24269 0.74104 0.96596 0.0
Tb80 Tb 0.52346 0.99068 0.07852 0.0
Tb81 Tb 0.49333 0.01223 0.96797 0.0
C82 C 0.5582 0.98178 0.16688 0.0
C83 C 0.54989 0.98499 0.22282 0.0
C84 C 0.57598 0.97758 0.26386 0.0
C85 C 0.56834 0.98035 0.31708 0.0
C86 C 0.53437 0.9906 0.33038 0.0
C87 C 0.5083 0.99805 0.28887 0.0
C88 C 0.51599 0.99528 0.23566 0.0
C89 C 0.4636 0.95812 0.03278 0.0
C90 C 0.46162 0.04471 0.07465 0.0
C91 C 0.45888 0.02144 0.87951 0.0
C92 C 0.467 0.0173 0.82348 0.0
C93 C 0.441 0.02466 0.7823 0.0
C94 C 0.44857 0.02126 0.72902 0.0
C95 C 0.48239 0.01043 0.71582 0.0
C96 C 0.50834 1.00292 0.75745 0.0
C97 C 0.50071 0.00631 0.81071 0.0
C98 C 0.55354 0.0443 1.01344 0.0
C99 C 0.55418 0.95742 0.97166 0.0
O100 O 0.55909 0.01167 0.14535 0.0
O101 O 0.54115 0.95586 0.1341 0.0
O102 O 0.48943 0.96735 1.00994 0.0
O103 O 0.47265 0.96274 0.08418 0.0
O104 O 0.48887 0.03269 0.10454 0.0
O105 O 0.45626 0.03671 0.02167 0.0
O106 O 0.45691 0.9919 0.90167 0.0
O107 O 0.47691 0.04701 0.91172 0.0
O108 O 0.52754 0.0356 0.03645 0.0
O109 O 0.54452 0.03913 0.96205 0.0
O110 O 0.52639 0.96892 0.94235 0.0
O111 O 0.56067 0.96645 0.02438 0.0
H112 H 0.60227 0.96949 0.25471 0.0
H113 H 0.58893 0.97392 0.3477 0.0
H114 H 0.48204 0.00647 0.29754 0.0
H115 H 0.49548 1.00119 0.20452 0.0
H116 H 0.41486 0.03327 0.79139 0.0
H117 H 0.42808 0.02772 0.69828 0.0
H118 H 0.53448 0.99405 0.74885 0.0
H119 H 0.52114 1.00039 0.84196 0.0
Tb120 Tb 0.27248 0.26858 0.31568 0.0
Tb121 Tb 0.23323 0.24159 0.20659 0.0
C122 C 0.28857 0.29319 0.41285 0.0
C123 C 0.28067 0.28577 0.46631 0.0
C124 C 0.28146 0.31416 0.50754 0.0
C125 C 0.27549 0.30794 0.55923 0.0
C126 C 0.2685 0.27308 0.57085 0.0
C127 C 0.26735 0.24464 0.52913 0.0
C128 C 0.27339 0.25093 0.47734 0.0
C129 C 0.30844 0.22444 0.25532 0.0
C130 C 0.2152 0.20309 0.30285 0.0
C131 C 0.21353 0.22063 0.10905 0.0
C132 C 0.22519 0.22494 0.0563 0.0
C133 C 0.222 0.1958 1.01592 0.0
C134 C 0.22953 0.20009 0.96408 0.0
C135 C 0.24029 0.23371 0.95153 0.0
C136 C 0.24458 0.26262 0.99263 0.0
C137 C 0.23711 0.25829 0.04446 0.0
C138 C 0.19829 0.28598 0.2681 0.0
C139 C 0.29261 0.3049 0.21932 0.0
O140 O 0.26221 0.30467 0.38168 0.0
O141 O 0.30734 0.26973 0.38677 0.0
O142 O 0.27524 0.2223 0.25817 0.0
O143 O 0.323 0.24959 0.29096 0.0
O144 O 0.23384 0.22913 0.33453 0.0
O145 O 0.21411 0.20006 0.24999 0.0
O146 O 0.23369 0.20204 0.14045 0.0
O147 O 0.20174 0.2491 0.13536 0.0
O148 O 0.23115 0.28811 0.26331 0.0
O149 O 0.18348 0.25932 0.23568 0.0
O150 O 0.27546 0.27767 0.18808 0.0
O151 O 0.29107 0.30976 0.27165 0.0
H152 H 0.28719 0.34121 0.4999 0.0
H153 H 0.27714 0.33043 0.59037 0.0
H154 H 0.2616 0.21754 0.53639 0.0
H155 H 0.27268 0.22859 0.44607 0.0
H156 H 0.21271 0.16988 0.02411 0.0
H157 H 0.22565 0.17732 0.93338 0.0
H158 H 0.25339 0.28874 0.98464 0.0
H159 H 0.23984 0.28123 0.07489 0.0
Tb160 Tb 0.78107 0.24222 0.18954 0.0
Tb161 Tb 0.7573 0.27716 0.29437 0.0
C162 C 0.78384 0.21101 0.09643 0.0
C163 C 0.77599 0.21829 0.04047 0.0
C164 C 0.7749 0.18991 0.99921 0.0
C165 C 0.77078 0.19635 0.94558 0.0
C166 C 0.76778 0.23141 0.93214 0.0
C167 C 0.76775 0.25975 0.97378 0.0
C168 C 0.77182 0.25324 0.02751 0.0
C169 C 0.82302 0.29423 0.24225 0.0
C170 C 0.72648 0.30656 0.18938 0.0
C171 C 0.75499 0.3087 0.38738 0.0
C172 C 0.75776 0.29981 0.44272 0.0
C173 C 0.75765 0.32735 0.48499 0.0
C174 C 0.75873 0.31958 0.53782 0.0
C175 C 0.75991 0.28403 0.54942 0.0
C176 C 0.76059 0.25646 0.5068 0.0
C177 C 0.75948 0.26429 0.45386 0.0
C178 C 0.71545 0.22527 0.24192 0.0
C179 C 0.81141 0.21181 0.29456 0.0
O180 O 0.75647 0.20786 0.1233 0.0
O181 O 0.81044 0.22979 0.12492 0.0
O182 O 0.78949 0.29278 0.23727 0.0
O183 O 0.83445 0.26691 0.21389 0.0
O184 O 0.73866 0.27781 0.16257 0.0
O185 O 0.73611 0.31521 0.24145 0.0
O186 O 0.78421 0.30621 0.36388 0.0
O187 O 0.72677 0.29545 0.35559 0.0
O188 O 0.74895 0.22667 0.24685 0.0
O189 O 0.70391 0.2524 0.27059 0.0
O190 O 0.79663 0.23865 0.32222 0.0
O191 O 0.80525 0.20526 0.24164 0.0
H192 H 0.77796 0.16275 1.00849 0.0
H193 H 0.77021 0.17383 0.91464 0.0
H194 H 0.76577 0.28708 0.96499 0.0
H195 H 0.77264 0.27552 0.05893 0.0
H196 H 0.75646 0.35493 0.47709 0.0
H197 H 0.75882 0.34151 0.56962 0.0
H198 H 0.76118 0.22878 0.51418 0.0
H199 H 0.75951 0.24266 0.4216 0.0
Tb200 Tb 0.77677 0.77202 0.82813 0.0
Tb201 Tb 0.74298 0.74041 0.71717 0.0
C202 C 0.78856 0.79996 0.9244 0.0
C203 C 0.782 0.79209 0.97811 0.0
C204 C 0.78332 0.82022 0.01979 0.0
C205 C 0.77836 0.81355 0.07166 0.0
C206 C 0.77197 0.77851 0.08293 0.0
C207 C 0.77008 0.75036 0.04066 0.0
C208 C 0.77509 0.7571 0.98868 0.0
C209 C 0.81381 0.72348 0.77746 0.0
C210 C 0.71952 0.70635 0.81437 0.0
C211 C 0.73178 0.712 0.62112 0.0
C212 C 0.73734 0.7203 0.56723 0.0
C213 C 0.73607 0.69238 0.52524 0.0
C214 C 0.74034 0.69943 0.4733 0.0
C215 C 0.746 0.73464 0.46228 0.0
C216 C 0.74773 0.76261 0.5048 0.0
C217 C 0.74338 0.75549 0.55684 0.0
C218 C 0.70559 0.78848 0.76798 0.0
C219 C 0.79942 0.80686 0.73089 0.0
O220 O 0.76042 0.80622 0.89188 0.0
O221 O 0.81108 0.7797 0.90022 0.0
O222 O 0.78039 0.72305 0.77728 0.0
O223 O 0.82801 0.75058 0.80969 0.0
O224 O 0.73624 0.73374 0.84581 0.0
O225 O 0.72258 0.70065 0.76244 0.0
O226 O 0.7606 0.70729 0.65334 0.0
O227 O 0.7084 0.73094 0.64549 0.0
O228 O 0.73903 0.78915 0.76822 0.0
O229 O 0.69159 0.76158 0.73509 0.0
O230 O 0.78252 0.77961 0.69934 0.0
O231 O 0.79716 0.81197 0.7831 0.0
H232 H 0.78842 0.84742 1.01228 0.0
H233 H 0.77934 0.83593 0.10291 0.0
H234 H 0.76551 0.72304 0.04794 0.0
H235 H 0.77402 0.735 0.95695 0.0
H236 H 0.73161 0.66503 0.5326 0.0
H237 H 0.73948 0.67719 0.44184 0.0
H238 H 0.75174 0.79006 0.49771 0.0
H239 H 0.74436 0.77743 0.58881 0.0
Tb240 Tb 0.49001 0.49223 0.96539 0.0
Tb241 Tb 0.5218 0.52426 0.07625 0.0
C242 C 0.46084 0.48283 0.86966 0.0
C243 C 0.46904 0.48843 0.81573 0.0
C244 C 0.44087 0.48816 0.77435 0.0
C245 C 0.44772 0.49276 0.72243 0.0
C246 C 0.48299 0.49777 0.71081 0.0
C247 C 0.51124 0.49827 0.75267 0.0
C248 C 0.50431 0.49368 0.80474 0.0
C249 C 0.54018 0.45484 1.01223 0.0
C250 C 0.55572 0.54945 0.97983 0.0
C251 C 0.55092 0.53382 0.17198 0.0
C252 C 0.54279 0.52795 0.22584 0.0
C253 C 0.57099 0.52824 0.26719 0.0
C254 C 0.56418 0.5235 0.31908 0.0
C255 C 0.52893 0.51833 0.33069 0.0
C256 C 0.50066 0.51778 0.28885 0.0
C257 C 0.50755 0.5225 0.23682 0.0
C258 C 0.47216 0.56196 0.02897 0.0
C259 C 0.45626 0.46685 0.06177 0.0
O260 O 0.45749 0.51162 0.90273 0.0
O261 O 0.47891 0.45853 0.89298 0.0
O262 O 0.53977 0.48834 1.0145 0.0
O263 O 0.51316 0.44094 0.97949 0.0
O264 O 0.52844 0.53275 0.94813 0.0
O265 O 0.56129 0.54603 0.03159 0.0
O266 O 0.5547 0.50518 0.13882 0.0
O267 O 0.53248 0.55792 0.14873 0.0
O268 O 0.47215 0.52843 0.02701 0.0
O269 O 0.49928 0.57565 0.06167 0.0
O270 O 0.48351 0.48362 0.09342 0.0
O271 O 0.45063 0.47025 1.01002 0.0
H272 H 0.41348 0.48407 0.78211 0.0
H273 H 0.42537 0.49171 0.69116 0.0
H274 H 0.53867 0.50248 0.74529 0.0
H275 H 0.52642 0.49409 0.8363 0.0
H276 H 0.59836 0.53247 0.25944 0.0
H277 H 0.58653 0.52459 0.35035 0.0
H278 H 0.47325 0.51344 0.29622 0.0
H279 H 0.48542 0.52208 0.20528 0.0
Tb280 Tb 0.02675 0.49701 0.57408 0.0
Tb281 Tb 0.9871 0.51529 0.4686 0.0
C282 C 0.05907 0.4985 0.66755 0.0
C283 C 0.04971 0.50214 0.72293 0.0
C284 C 0.07699 0.50365 0.76587 0.0
C285 C 0.06874 0.5054 0.81866 0.0
C286 C 0.03293 0.50562 0.82968 0.0
C287 C 1.00561 0.50457 0.78634 0.0
C288 C 0.01393 0.50289 0.73348 0.0
C289 C 0.97472 0.45193 0.5286 0.0
C290 C 0.96003 0.54864 0.57386 0.0
C291 C 0.95462 0.51351 0.37517 0.0
C292 C 0.96395 0.50995 0.31976 0.0
C293 C 0.93663 0.50827 0.27685 0.0
C294 C 0.94483 0.50663 0.22404 0.0
C295 C 0.98064 0.50669 0.21296 0.0
C296 C 0.008 0.50791 0.25628 0.0
C297 C 0.99972 0.5095 0.30916 0.0
C298 C 0.03898 0.56044 0.51395 0.0
C299 C 0.05456 0.46429 0.46933 0.0
O300 O 0.05512 0.52665 0.64206 0.0
O301 O 0.04737 0.46918 0.63717 0.0
O302 O 0.97505 0.48525 0.53036 0.0
O303 O 1.00324 0.44272 0.55657 0.0
O304 O 0.99024 0.53866 0.59943 0.0
O305 O 0.94968 0.53674 0.52284 0.0
O306 O 0.95888 0.48541 0.40071 0.0
O307 O 0.9661 0.54291 0.40549 0.0
O308 O 0.03864 0.52714 0.51231 0.0
O309 O 0.0106 0.5696 0.48557 0.0
O310 O 0.02424 0.47393 0.44345 0.0
O311 O 0.06457 0.47626 0.52036 0.0
H312 H 0.10477 0.50297 0.75851 0.0
H313 H 0.09048 0.50569 0.85075 0.0
H314 H 0.97777 0.50518 0.79326 0.0
H315 H 0.99246 0.50182 0.70081 0.0
H316 H 0.90886 0.50875 0.28424 0.0
H317 H 0.92306 0.5062 0.19198 0.0
H318 H 0.03583 0.50751 0.24933 0.0
H319 H 0.02122 0.51071 0.34181 0.0
H320 H 0.06055 0.04492 0.36571 0.0
H321 H 0.21329 0.19918 0.40996 0.0
H322 H 0.11259 0.0888 0.52149 0.0
H323 H 0.16917 0.14826 0.25363 0.0
H324 H 0.17721 0.15843 0.45117 0.0
H325 H 0.10051 0.08177 0.32394 0.0
C326 C 0.08049 0.06214 0.39124 0.0
C327 C 0.08309 0.06375 0.44738 0.0
C328 C 0.17551 0.156 0.40786 0.0
C329 C 0.12895 0.1063 0.39948 0.0
C330 C 0.19619 0.17932 0.38416 0.0
C331 C 0.19437 0.17725 0.32806 0.0
C332 C 0.15253 0.13043 0.3754 0.0
C333 C 0.17152 0.1509 0.29698 0.0
C334 C 0.10334 0.08321 0.36724 0.0
C335 C 0.10955 0.08662 0.47814 0.0
N336 N 0.15139 0.12866 0.32105 0.0
N337 N 0.13129 0.10709 0.45381 0.0
H338 H 0.09602 0.97616 0.59016 0.0
H339 H 0.16212 0.78246 0.63831 0.0
H340 H 0.03365 0.88002 0.52867 0.0
H341 H 0.1915 0.87347 0.75663 0.0
H342 H 0.12138 0.81957 0.58821 0.0
H343 H 0.13743 0.94067 0.64336 0.0
C344 C 0.09083 0.94772 0.5883 0.0
C345 C 0.06107 0.93108 0.55561 0.0
C346 C 0.13673 0.83142 0.62515 0.0
C347 C 0.10882 0.89033 0.61457 0.0
C348 C 0.16013 0.81031 0.65366 0.0
C349 C 0.1802 0.82487 0.70183 0.0
C350 C 0.13377 0.86758 0.64426 0.0
C351 C 0.17636 0.86113 0.71985 0.0
C352 C 0.11452 0.9275 0.61841 0.0
C353 C 0.05617 0.89396 0.5535 0.0
N354 N 0.15375 0.88136 0.69085 0.0
N355 N 0.07989 0.87483 0.58224 0.0
H356 H 0.28464 0.85719 0.82103 0.0
H357 H 0.45911 0.88664 0.03377 0.0
H358 H 0.36775 0.7803 0.8306 0.0
H359 H 0.40545 0.97424 0.96796 0.0
H360 H 0.41725 0.84462 0.9745 0.0
H361 H 0.32138 0.89843 0.88894 0.0
C362 C 0.31071 0.84916 0.83741 0.0
C363 C 0.32355 0.81567 0.8202 0.0
C364 C 0.4144 0.87306 0.97361 0.0
C365 C 0.36497 0.86194 0.89805 0.0
C366 C 0.4379 0.89688 1.00763 0.0
C367 C 0.43521 0.93358 1.00541 0.0
C368 C 0.38806 0.88634 0.93787 0.0
C369 C 0.40798 0.94594 0.97053 0.0
C370 C 0.33152 0.87255 0.87603 0.0
C371 C 0.35726 0.80617 0.84258 0.0
N372 N 0.3853 0.92228 0.93789 0.0
N373 N 0.37684 0.82919 0.88075 0.0
H374 H 0.46451 0.06749 0.18185 0.0
H375 H 0.29754 0.1944 0.15081 0.0
H376 H 0.40298 0.07767 0.02958 0.0
H377 H 0.36755 0.19296 0.2975 0.0
H378 H 0.3326 0.1483 0.10665 0.0
H379 H 0.42612 0.10985 0.2258 0.0
C380 C 0.44286 0.07853 0.15754 0.0
C381 C 0.43716 0.06909 0.10173 0.0
C382 C 0.34011 0.15777 0.14864 0.0
C383 C 0.39297 0.11787 0.15219 0.0
C384 C 0.31969 0.18366 0.17399 0.0
C385 C 0.32903 0.19659 0.22808 0.0
C386 C 0.37013 0.14483 0.17781 0.0
C387 C 0.35937 0.18339 0.2557 0.0
C388 C 0.42095 0.10282 0.18279 0.0
C389 C 0.40849 0.08423 0.07263 0.0
N390 N 0.37878 0.1581 0.23034 0.0
N391 N 0.38751 0.10795 0.0982 0.0
H392 H 0.89948 0.92322 0.50892 0.0
H393 H 0.84254 0.86325 0.78165 0.0
H394 H 0.95064 0.9654 0.66605 0.0
H395 H 0.80511 0.80935 0.62425 0.0
H396 H 0.87846 0.90449 0.74022 0.0
H397 H 0.86064 0.88518 0.5508 0.0
C398 C 0.90245 0.9247 0.55224 0.0
C399 C 0.92851 0.94756 0.58392 0.0
C400 C 0.86231 0.88367 0.71478 0.0
C401 C 0.88403 0.90386 0.63221 0.0
C402 C 0.84172 0.86013 0.7384 0.0
C403 C 0.82072 0.83269 0.70647 0.0
C404 C 0.8618 0.87994 0.65876 0.0
C405 C 0.82085 0.83 0.65059 0.0
C406 C 0.88029 0.90283 0.57613 0.0
C407 C 0.93104 0.94816 0.63992 0.0
N408 N 0.84102 0.85329 0.62859 0.0
N409 N 0.90914 0.92663 0.66223 0.0
H410 H 0.90252 0.04978 0.48261 0.0
H411 H 0.87208 0.18152 0.2645 0.0
H412 H 0.99059 0.11651 0.45348 0.0
H413 H 0.80379 0.1876 0.39067 0.0
H414 H 0.91184 0.14285 0.3145 0.0
H415 H 0.86118 0.08564 0.42934 0.0
C416 C 0.9131 0.07169 0.46445 0.0
C417 C 0.94982 0.08051 0.47248 0.0
C418 C 0.88799 0.15254 0.33086 0.0
C419 C 0.90327 0.12058 0.41113 0.0
C420 C 0.86532 0.1744 0.30246 0.0
C421 C 0.83475 0.18775 0.3237 0.0
C422 C 0.87935 0.14306 0.37985 0.0
C423 C 0.82726 0.17797 0.37318 0.0
C424 C 0.88961 0.09212 0.43452 0.0
C425 C 0.96236 0.10915 0.44842 0.0
N426 N 0.84925 0.15584 0.39946 0.0
N427 N 0.93915 0.12803 0.41831 0.0
H428 H 0.64766 0.23296 0.19616 0.0
H429 H 0.61088 0.0309 0.08237 0.0
H430 H 0.73262 0.15799 0.20454 0.0
H431 H 0.55838 0.11487 1.00528 0.0
H432 H 0.65317 0.07561 0.13545 0.0
H433 H 0.61055 0.18842 0.1342 0.0
C434 C 0.65834 0.20703 0.18501 0.0
C435 C 0.69296 0.19881 0.20529 0.0
C436 C 0.63269 0.08411 0.10634 0.0
C437 C 0.65099 0.14811 0.13537 0.0
C438 C 0.60872 0.05876 0.07633 0.0
C439 C 0.58162 0.06961 0.03972 0.0
C440 C 0.62861 0.12038 0.10038 0.0
C441 C 0.57935 0.10578 0.03303 0.0
C442 C 0.63738 0.18185 0.14947 0.0
C443 C 0.70592 0.1651 0.18953 0.0
N444 N 0.60232 0.13011 0.06376 0.0
N445 N 0.68471 0.14068 0.15579 0.0
H446 H 0.72946 0.85068 0.83102 0.0
H447 H 0.53538 0.91247 0.88062 0.0
H448 H 0.63459 0.78459 0.7762 0.0
H449 H 0.62555 0.94519 0.99903 0.0
H450 H 0.57323 0.87151 0.8327 0.0
H451 H 0.69364 0.89154 0.88492 0.0
C452 C 0.70123 0.84461 0.83081 0.0
C453 C 0.68499 0.81399 0.79992 0.0
C454 C 0.58475 0.88755 0.86924 0.0
C455 C 0.644 0.86088 0.85953 0.0
C456 C 0.56324 0.91108 0.89652 0.0
C457 C 0.5774 0.93224 0.94389 0.0
C458 C 0.62093 0.88555 0.88876 0.0
C459 C 0.61362 0.92914 0.96277 0.0
C460 C 0.68088 0.86791 0.86135 0.0
C461 C 0.64816 0.80785 0.79963 0.0
N462 N 0.63437 0.90637 0.93479 0.0
N463 N 0.62887 0.8312 0.82873 0.0
H464 H 0.61098 0.59336 0.03198 0.0
H465 H 0.67499 0.65146 0.76264 0.0
H466 H 0.55873 0.55605 0.87353 0.0
H467 H 0.71206 0.70454 0.9207 0.0
H468 H 0.63617 0.61226 0.80276 0.0
H469 H 0.65205 0.63034 0.99199 0.0
C470 C 0.60818 0.59281 0.98878 0.0
C471 C 0.58127 0.57152 0.95613 0.0
C472 C 0.65286 0.63244 0.82865 0.0
C473 C 0.62835 0.61382 0.91006 0.0
C474 C 0.67516 0.65479 0.80579 0.0
C475 C 0.69689 0.68142 0.83828 0.0
C476 C 0.65239 0.63653 0.8845 0.0
C477 C 0.6958 0.68446 0.89398 0.0
C478 C 0.63161 0.61402 0.96599 0.0
C479 C 0.57896 0.57204 0.90038 0.0
N480 N 0.67397 0.6623 0.91528 0.0
N481 N 0.6022 0.59278 0.87915 0.0
H482 H 0.68477 0.28862 0.0937 0.0
H483 H 0.60157 0.48023 0.07587 0.0
H484 H 0.7105 0.37626 0.21919 0.0
H485 H 0.54545 0.38253 1.0039 0.0
H486 H 0.64837 0.44489 0.11845 0.0
H487 H 0.64048 0.32532 0.04902 0.0
C488 C 0.68137 0.31569 0.11161 0.0
C489 C 0.70131 0.32937 0.16036 0.0
C490 C 0.62573 0.43127 0.09342 0.0
C491 C 0.65083 0.37151 0.1092 0.0
C492 C 0.59897 0.45138 0.06935 0.0
C493 C 0.56926 0.43425 0.03718 0.0
C494 C 0.62317 0.39382 0.08407 0.0
C495 C 0.56776 0.3968 0.02878 0.0
C496 C 0.65594 0.33652 0.08623 0.0
C497 C 0.69558 0.36459 0.18183 0.0
N498 N 0.59439 0.37783 0.0519 0.0
N499 N 0.67096 0.38452 0.156 0.0
H500 H 0.98739 0.38346 0.49028 0.0
H501 H 0.80471 0.35789 0.29228 0.0
H502 H 0.90952 0.46537 0.47808 0.0
H503 H 0.89181 0.2856 0.28383 0.0
H504 H 0.84098 0.39622 0.36422 0.0
H505 H 0.95039 0.34496 0.4195 0.0
C506 C 0.96227 0.39312 0.47298 0.0
C507 C 0.95136 0.42751 0.48961 0.0
C508 C 0.85224 0.37207 0.34647 0.0
C509 C 0.90917 0.38399 0.40875 0.0
C510 C 0.8316 0.35029 0.30548 0.0
C511 C 0.84541 0.31866 0.28252 0.0
C512 C 0.88682 0.36195 0.36459 0.0
C513 C 0.88032 0.30989 0.30063 0.0
C514 C 0.94132 0.37131 0.43238 0.0
C515 C 0.91878 0.43897 0.46599 0.0
N516 N 0.89981 0.33135 0.34092 0.0
N517 N 0.89879 0.41724 0.42656 0.0
H518 H 0.78848 0.6615 0.71574 0.0
H519 H 0.98128 0.59342 0.66471 0.0
H520 H 0.88543 0.72406 0.77201 0.0
H521 H 0.88825 0.56071 0.55177 0.0
H522 H 0.94506 0.63536 0.71434 0.0
H523 H 0.82329 0.61836 0.66422 0.0
C524 C 0.81701 0.66628 0.71686 0.0
C525 C 0.83409 0.69664 0.74731 0.0
C526 C 0.93256 0.61901 0.67871 0.0
C527 C 0.87396 0.64709 0.69026 0.0
C528 C 0.95314 0.59491 0.65049 0.0
C529 C 0.9377 0.57353 0.60403 0.0
C530 C 0.89611 0.62142 0.66095 0.0
C531 C 0.90118 0.57682 0.58728 0.0
C532 C 0.8368 0.64166 0.68768 0.0
C533 C 0.87122 0.70109 0.74875 0.0
N534 N 0.88148 0.60023 0.61599 0.0
N535 N 0.88996 0.6765 0.72079 0.0
H536 H 0.30038 0.30619 0.11291 0.0
H537 H 0.45333 0.46039 0.16809 0.0
H538 H 0.33661 0.36041 0.27051 0.0
H539 H 0.4018 0.42176 1.00973 0.0
H540 H 0.41253 0.4222 0.20625 0.0
H541 H 0.33887 0.34651 0.07434 0.0
C542 C 0.31624 0.32666 0.13946 0.0
C543 C 0.31507 0.32989 0.19513 0.0
C544 C 0.41004 0.42217 0.16316 0.0
C545 C 0.35965 0.37602 0.1511 0.0
C546 C 0.4334 0.44397 0.14126 0.0
C547 C 0.43104 0.44438 0.0855 0.0
C548 C 0.38426 0.40028 0.12914 0.0
C549 C 0.4046 0.42243 0.05291 0.0
C550 C 0.33827 0.3497 0.11734 0.0
C551 C 0.3365 0.35689 0.2274 0.0
N552 N 0.38238 0.40118 0.07518 0.0
N553 N 0.35799 0.37876 0.20496 0.0
H554 H 0.46984 0.63422 0.03444 0.0
H555 H 0.30431 0.63852 0.81053 0.0
H556 H 0.41039 0.53794 0.96445 0.0
H557 H 0.33365 0.72717 0.93306 0.0
H558 H 0.34702 0.60172 0.85856 0.0
H559 H 0.4242 0.66949 0.98996 0.0
C560 C 0.4472 0.62048 1.00956 0.0
C561 C 0.44413 0.58307 1.00253 0.0
C562 C 0.34389 0.62916 0.875 0.0
C563 C 0.39197 0.6233 0.95109 0.0
C564 C 0.31965 0.65023 0.84756 0.0
C565 C 0.31539 0.686 0.86783 0.0
C566 C 0.36456 0.64419 0.9224 0.0
C567 C 0.33592 0.6997 0.91609 0.0
C568 C 0.42113 0.64064 0.98431 0.0
C569 C 0.41414 0.5667 0.97006 0.0
N570 N 0.35985 0.67891 0.94142 0.0
N571 N 0.38934 0.58691 0.94507 0.0
H572 H 0.2121 0.65746 0.74163 0.0
H573 H 0.02726 0.62953 0.54967 0.0
H574 H 0.12505 0.72974 0.75123 0.0
H575 H 0.10398 0.5468 0.56495 0.0
H576 H 0.06513 0.66884 0.61829 0.0
H577 H 0.17469 0.61797 0.67255 0.0
C578 C 0.18498 0.6648 0.72931 0.0
C579 C 0.17148 0.69674 0.75175 0.0
C580 C 0.07372 0.64211 0.6066 0.0
C581 C 0.12882 0.65215 0.67296 0.0
C582 C 0.05229 0.61983 0.56724 0.0
C583 C 0.06266 0.58502 0.55207 0.0
C584 C 0.10583 0.62948 0.63039 0.0
C585 C 0.09513 0.57353 0.57596 0.0
C586 C 0.16369 0.64236 0.68997 0.0
C587 C 0.13628 0.7052 0.73482 0.0
N588 N 0.11564 0.59574 0.6141 0.0
N589 N 0.11616 0.68309 0.69607 0.0
H590 H 0.12728 0.28378 0.27643 0.0
H591 H 0.12629 0.45358 0.49346 0.0
H592 H 0.22324 0.34868 0.32904 0.0
H593 H 0.03482 0.41869 0.37864 0.0
H594 H 0.16277 0.41057 0.44465 0.0
H595 H 0.09304 0.32815 0.32547 0.0
C596 C 0.14119 0.3073 0.29863 0.0
C597 C 0.17817 0.31247 0.29916 0.0
C598 C 0.13475 0.41259 0.43019 0.0
C599 C 0.13922 0.36315 0.35558 0.0
C600 C 0.11393 0.43695 0.45801 0.0
C601 C 0.07753 0.43971 0.43994 0.0
C602 C 0.11874 0.39041 0.3849 0.0
C603 C 0.06283 0.41761 0.39376 0.0
C604 C 0.12162 0.33262 0.32643 0.0
C605 C 0.19485 0.34344 0.32846 0.0
N606 N 0.08341 0.39367 0.36813 0.0
N607 N 0.17525 0.36763 0.3559 0.0
H608 H 0.06034 0.05932 0.92104 0.0
H609 H 0.94908 0.95649 0.1113 0.0
H610 H 0.97526 0.98156 0.86137 0.0
H611 H 0.03484 0.0335 0.17101 0.0
H612 H 0.9584 0.96521 0.01979 0.0
H613 H 0.05119 0.05043 1.01258 0.0
C614 C 0.03958 0.04048 0.92705 0.0
C615 C 0.01843 0.02131 0.88305 0.0
C616 C 0.9752 0.98023 0.05286 0.0
C617 C 0.00809 0.01066 0.98845 0.0
C618 C 0.97004 0.9751 0.10531 0.0
C619 C 0.99132 0.99413 0.14933 0.0
C620 C 1.00182 1.00463 0.04392 0.0
C621 C 0.01752 0.01846 0.13861 0.0
C622 C 0.03452 0.03528 0.9795 0.0
C623 C 0.99247 0.99673 0.89376 0.0
N624 N 0.02205 0.02294 0.08713 0.0
N625 N 0.98801 0.99219 0.94524 0.0
H626 H 0.21223 0.6939 0.38651 0.0
H627 H 0.28544 0.81886 0.18475 0.0
H628 H 0.28513 0.78425 0.43795 0.0
H629 H 0.21242 0.72858 0.1335 0.0
H630 H 0.28566 0.80665 0.27753 0.0
H631 H 0.21205 0.70615 0.29377 0.0
C632 C 0.22831 0.71627 0.37839 0.0
C633 C 0.24881 0.73799 0.42039 0.0
C634 C 0.26961 0.78947 0.24601 0.0
C635 C 0.2485 0.75237 0.31379 0.0
C636 C 0.26934 0.79652 0.19292 0.0
C637 C 0.24881 0.77479 0.15096 0.0
C638 C 0.24915 0.76046 0.25759 0.0
C639 C 0.229 0.74584 0.16424 0.0
C640 C 0.22807 0.72334 0.32532 0.0
C641 C 0.26859 0.76698 0.40717 0.0
N642 N 0.2296 0.73961 0.21626 0.0
N643 N 0.26801 0.77324 0.35516 0.0
H644 H 0.54493 0.02905 0.67797 0.0
H645 H 0.47203 0.97121 0.36821 0.0
H646 H 0.43866 0.98473 0.62376 0.0
H647 H 0.57801 0.01628 0.42252 0.0
H648 H 0.45929 0.97604 0.46133 0.0
H649 H 0.5577 0.02393 0.58487 0.0
C650 C 0.52431 0.01801 0.6466 0.0
C651 C 0.49062 0.00729 0.65905 0.0
C652 C 0.48534 0.98488 0.45291 0.0
C653 C 0.50503 1.00172 0.55177 0.0
C654 C 0.49259 0.98233 0.3996 0.0
C655 C 0.52619 0.99337 0.38716 0.0
C656 C 0.51181 0.99861 0.49446 0.0
C657 C 0.5519 0.00697 0.42995 0.0
C658 C 0.53158 0.01531 0.5933 0.0
C659 C 0.46485 0.99378 0.6163 0.0
N660 N 0.54417 0.00923 0.48149 0.0
N661 N 0.47259 0.99137 0.56475 0.0
H662 H 0.27226 0.18938 0.8777 0.0
H663 H 0.23216 0.31372 0.64306 0.0
H664 H 0.21956 0.28988 0.89687 0.0
H665 H 0.29248 0.21771 0.62592 0.0
H666 H 0.22583 0.30422 0.73528 0.0
H667 H 0.2784 0.19802 0.78471 0.0
C668 C 0.26193 0.21323 0.86239 0.0
C669 C 0.24543 0.23897 0.89536 0.0
C670 C 0.24045 0.28519 0.71139 0.0
C671 C 0.25245 0.24908 0.7888 0.0
C672 C 0.24422 0.29068 0.65867 0.0
C673 C 0.26307 0.2666 0.62648 0.0
C674 C 0.25555 0.25532 0.73245 0.0
C675 C 0.27741 0.23682 0.64887 0.0
C676 C 0.26557 0.21822 0.80932 0.0
C677 C 0.23293 0.26955 0.87335 0.0
N678 N 0.27344 0.23208 0.70042 0.0
N679 N 0.23661 0.27368 0.82157 0.0
H680 H 0.8047 0.19893 0.85333 0.0
H681 H 0.72161 0.31558 0.62732 0.0
H682 H 0.72718 0.27992 0.88063 0.0
H683 H 0.7984 0.23386 0.60009 0.0
H684 H 0.72306 0.30276 0.71991 0.0
H685 H 0.80199 0.21078 0.76025 0.0
C686 C 0.78685 0.21902 0.83971 0.0
C687 C 0.76601 0.23834 0.87507 0.0
C688 C 0.73958 0.2876 0.69371 0.0
C689 C 0.76321 0.25245 0.76821 0.0
C690 C 0.73894 0.29505 0.64082 0.0
C691 C 0.76006 0.2759 0.60571 0.0
C692 C 0.76151 0.26078 0.71192 0.0
C693 C 0.78141 0.2491 0.62541 0.0
C694 C 0.78551 0.22594 0.78652 0.0
C695 C 0.74399 0.26459 0.85513 0.0
N696 N 0.78165 0.24242 0.67714 0.0
N697 N 0.74317 0.27084 0.80311 0.0
H698 H 0.79221 0.78248 0.42917 0.0
H699 H 0.72497 0.73143 0.11608 0.0
H700 H 0.70843 0.70359 0.3681 0.0
H701 H 0.80943 0.80959 0.17717 0.0
H702 H 0.71853 0.7208 0.20805 0.0
H703 H 0.79831 0.7934 0.33723 0.0
C704 C 0.77494 0.76759 0.3965 0.0
C705 C 0.74982 0.74199 0.40656 0.0
C706 C 0.73847 0.7403 0.20134 0.0
C707 C 0.75693 0.75413 0.30089 0.0
C708 C 0.7423 0.74623 0.14875 0.0
C709 C 0.76774 0.77151 0.13869 0.0
C710 C 0.76026 0.7597 0.24438 0.0
C711 C 0.78908 0.79023 0.18288 0.0
C712 C 0.77859 0.77369 0.34393 0.0
C713 C 0.72854 0.72318 0.36238 0.0
N714 N 0.78487 0.78395 0.23364 0.0
N715 N 0.73258 0.72963 0.31162 0.0
H716 H 0.44517 0.53562 0.63806 0.0
H717 H 0.56687 0.48058 0.40347 0.0
H718 H 0.53684 0.46923 0.65612 0.0
H719 H 0.47502 0.54673 0.38536 0.0
H720 H 0.55634 0.47617 0.49599 0.0
H721 H 0.45571 0.54001 0.54556 0.0
C722 C 0.46747 0.52185 0.62257 0.0
C723 C 0.49007 0.5019 0.65506 0.0
C724 C 0.53845 0.49162 0.4718 0.0
C725 C 0.50247 0.50706 0.54891 0.0
C726 C 0.54453 0.49429 0.41895 0.0
C727 C 0.52187 0.51417 0.38645 0.0
C728 C 0.50949 0.50899 0.4926 0.0
C729 C 0.49298 0.5308 0.4086 0.0
C730 C 0.47356 0.5245 0.56973 0.0
C731 C 0.51893 0.48521 0.63289 0.0
N732 N 0.4877 0.52791 0.46025 0.0
N733 N 0.52422 0.48808 0.58124 0.0
H734 H 0.97867 0.46907 0.86641 0.0
H735 H 0.03469 0.54351 0.17617 0.0
H736 H 0.06752 0.54323 0.92187 0.0
H737 H 0.94613 0.46898 0.12077 0.0
H738 H 0.04737 0.5434 0.08353 0.0
H739 H 0.96595 0.46923 0.95905 0.0
C740 C 0.99536 0.48564 0.89793 0.0
C741 C 0.02426 0.50617 0.886 0.0
C742 C 0.02518 0.52704 0.09161 0.0
C743 C 0.01005 0.5061 0.99276 0.0
C744 C 0.01805 0.52687 0.14466 0.0
C745 C 0.98925 0.50621 0.15663 0.0
C746 C 1.00342 0.50636 0.04985 0.0
C747 C 0.96831 0.48572 0.11367 0.0
C748 C 0.98822 0.48551 0.95098 0.0
C749 C 0.04526 0.52659 0.92896 0.0
N750 N 0.9758 0.48632 0.06239 0.0
N751 N 0.03775 0.52603 0.98024 0.0
loop_
_geom_bond_atom_site_label_1
_geom_bond_atom_site_label_2
_geom_bond_distance
_geom_bond_site_symmetry_2
_ccdc_geom_bond_type
Tb0 C2 2.809 1_655 S
Tb0 O20 2.484 . S
Tb0 O21 2.440 1_655 S
Tb0 O22 2.658 1_655 S
Tb0 O23 2.409 1_655 S
Tb0 O24 2.378 1_665 S
Tb0 O28 2.325 1_565 S
Tb0 O31 2.341 . S
Tb1 C11 2.809 1_455 S
Tb1 O22 2.325 1_545 S
Tb1 O25 2.341 . S
Tb1 O26 2.484 . S
Tb1 O27 2.440 1_455 S
Tb1 O28 2.658 1_455 S
Tb1 O29 2.409 1_455 S
Tb1 O30 2.378 1_445 S
C2 Tb0 2.809 1_455 S
C2 C3 1.514 . S
C2 O20 1.248 1_455 S
C2 O21 1.266 . S
C3 C2 1.514 . S
C3 C4 1.350 1_465 S
C3 C8 1.348 . S
C4 C3 1.350 1_645 S
C4 C5 1.370 1_655 S
C4 H32 0.949 . S
C5 C4 1.370 1_455 S
C5 C6 1.347 1_545 S
C5 H33 0.931 1_455 S
C6 C5 1.347 1_565 S
C6 C7 1.369 . S
C7 C6 1.369 . S
C7 C8 1.408 . S
C7 H34 0.930 . S
C8 C3 1.348 . S
C8 C7 1.408 . S
C8 H35 0.930 . S
C9 O22 1.281 . S
C9 O23 1.254 . S
C10 O24 1.236 . S
C10 O25 1.266 . S
C11 Tb1 2.809 1_655 S
C11 C12 1.514 . S
C11 O26 1.248 1_655 S
C11 O27 1.266 . S
C12 C11 1.514 . S
C12 C13 1.359 1_645 S
C12 C17 1.348 . S
C13 C12 1.359 1_465 S
C13 C14 1.380 1_455 S
C13 H36 0.929 . S
C14 C13 1.380 1_655 S
C14 C15 1.347 1_565 S
C14 H37 0.931 1_655 S
C15 C14 1.347 1_545 S
C15 C16 1.369 . S
C16 C15 1.369 . S
C16 C17 1.408 . S
C16 H38 0.930 . S
C17 C12 1.348 . S
C17 C16 1.408 . S
C17 H39 0.930 . S
C18 O28 1.281 . S
C18 O29 1.254 . S
C19 O30 1.236 . S
C19 O31 1.266 . S
O20 Tb0 2.484 . S
O20 C2 1.248 1_655 S
O21 Tb0 2.440 1_455 S
O21 C2 1.266 . S
O22 Tb0 2.658 1_455 S
O22 Tb1 2.325 1_565 S
O22 C9 1.281 . S
O23 Tb0 2.409 1_455 S
O23 C9 1.254 . S
O24 Tb0 2.378 1_445 S
O24 C10 1.236 . S
O25 Tb1 2.341 . S
O25 C10 1.266 . S
O26 Tb1 2.484 . S
O26 C11 1.248 1_455 S
O27 Tb1 2.440 1_655 S
O27 C11 1.266 . S
O28 Tb0 2.325 1_545 S
O28 Tb1 2.658 1_655 S
O28 C18 1.281 . S
O29 Tb1 2.409 1_655 S
O29 C18 1.254 . S
O30 Tb1 2.378 1_665 S
O30 C19 1.236 . S
O31 Tb0 2.341 . S
O31 C19 1.266 . S
H32 C4 0.949 . S
H33 C5 0.931 1_655 S
H34 C7 0.930 . S
H35 C8 0.930 . S
H36 C13 0.929 . S
H37 C14 0.931 1_455 S
H38 C16 0.930 . S
H39 C17 0.930 . S
Tb40 C42 2.809 . S
Tb40 O60 2.484 . S
Tb40 O61 2.440 . S
Tb40 O62 2.658 . S
Tb40 O63 2.409 . S
Tb40 O64 2.378 . S
Tb40 O68 2.325 . S
Tb40 O71 2.341 . S
Tb41 C51 2.809 . S
Tb41 O62 2.325 . S
Tb41 O65 2.341 . S
Tb41 O66 2.484 . S
Tb41 O67 2.440 . S
Tb41 O68 2.658 . S
Tb41 O69 2.409 . S
Tb41 O70 2.378 . S
C42 Tb40 2.809 . S
C42 C43 1.514 . S
C42 O60 1.248 . S
C42 O61 1.266 . S
C43 C42 1.514 . S
C43 C44 1.359 . S
C43 C48 1.348 . S
C44 C43 1.359 . S
C44 C45 1.380 . S
C44 H72 0.929 . S
C45 C44 1.380 . S
C45 C46 1.347 . S
C45 H73 0.931 . S
C46 C45 1.347 . S
C46 C47 1.369 . S
C47 C46 1.369 . S
C47 C48 1.408 . S
C47 H74 0.930 . S
C48 C43 1.348 . S
C48 C47 1.408 . S
C48 H75 0.930 . S
C49 O62 1.281 . S
C49 O63 1.254 . S
C50 O64 1.236 . S
C50 O65 1.266 . S
C51 Tb41 2.809 . S
C51 C52 1.514 . S
C51 O66 1.248 . S
C51 O67 1.266 . S
C52 C51 1.514 . S
C52 C53 1.369 . S
C52 C57 1.348 . S
C53 C52 1.369 . S
C53 C54 1.359 1_556 S
C53 H76 0.940 . S
C54 C53 1.359 1_554 S
C54 C55 1.347 . S
C54 H77 0.931 . S
C55 C54 1.347 . S
C55 C56 1.369 . S
C56 C55 1.369 . S
C56 C57 1.408 1_554 S
C56 H78 0.930 . S
C57 C52 1.348 . S
C57 C56 1.408 1_556 S
C57 H79 0.930 . S
C58 O68 1.281 . S
C58 O69 1.254 . S
C59 O70 1.236 . S
C59 O71 1.266 . S
O60 Tb40 2.484 . S
O60 C42 1.248 . S
O61 Tb40 2.440 . S
O61 C42 1.266 . S
O62 Tb40 2.658 . S
O62 Tb41 2.325 . S
O62 C49 1.281 . S
O63 Tb40 2.409 . S
O63 C49 1.254 . S
O64 Tb40 2.378 . S
O64 C50 1.236 . S
O65 Tb41 2.341 . S
O65 C50 1.266 . S
O66 Tb41 2.484 . S
O66 C51 1.248 . S
O67 Tb41 2.440 . S
O67 C51 1.266 . S
O68 Tb40 2.325 . S
O68 Tb41 2.658 . S
O68 C58 1.281 . S
O69 Tb41 2.409 . S
O69 C58 1.254 . S
O70 Tb41 2.378 . S
O70 C59 1.236 . S
O71 Tb40 2.341 . S
O71 C59 1.266 . S
H72 C44 0.929 . S
H73 C45 0.931 . S
H74 C47 0.930 . S
H75 C48 0.930 . S
H76 C53 0.940 . S
H77 C54 0.931 . S
H78 C56 0.930 . S
H79 C57 0.930 . S
Tb80 C82 2.809 . S
Tb80 O100 2.484 1_565 S
Tb80 O101 2.440 . S
Tb80 O102 2.658 1_554 S
Tb80 O103 2.409 . S
Tb80 O104 2.378 1_565 S
Tb80 O108 2.325 1_565 S
Tb80 O111 2.341 1_554 S
Tb81 C91 2.809 . S
Tb81 O102 2.325 1_545 S
Tb81 O105 2.341 1_556 S
Tb81 O106 2.484 1_545 S
Tb81 O107 2.440 . S
Tb81 O108 2.658 1_556 S
Tb81 O109 2.409 . S
Tb81 O110 2.378 1_545 S
C82 Tb80 2.809 . S
C82 C83 1.514 . S
C82 O100 1.248 1_565 S
C82 O101 1.266 . S
C83 C82 1.514 . S
C83 C84 1.359 1_565 S
C83 C88 1.348 . S
C84 C83 1.359 1_545 S
C84 C85 1.380 . S
C84 H112 0.929 . S
C85 C84 1.380 . S
C85 C86 1.347 . S
C85 H113 0.931 . S
C86 C85 1.347 . S
C86 C87 1.369 1_545 S
C87 C86 1.369 1_565 S
C87 C88 1.408 . S
C87 H114 0.930 . S
C88 C83 1.348 . S
C88 C87 1.408 . S
C88 H115 0.930 . S
C89 O102 1.281 . S
C89 O103 1.254 1_556 S
C90 O104 1.236 . S
C90 O105 1.266 . S
C91 Tb81 2.809 . S
C91 C92 1.514 . S
C91 O106 1.248 1_545 S
C91 O107 1.266 . S
C92 C91 1.514 . S
C92 C93 1.359 1_545 S
C92 C97 1.348 . S
C93 C92 1.359 1_565 S
C93 C94 1.380 . S
C93 H116 0.929 . S
C94 C93 1.380 . S
C94 C95 1.347 . S
C94 H117 0.931 . S
C95 C94 1.347 . S
C95 C96 1.369 1_565 S
C96 C95 1.369 1_545 S
C96 C97 1.408 . S
C96 H118 0.930 . S
C97 C92 1.348 . S
C97 C96 1.408 . S
C97 H119 0.930 . S
C98 O108 1.281 . S
C98 O109 1.254 1_554 S
C99 O110 1.236 . S
C99 O111 1.266 . S
O100 Tb80 2.484 1_545 S
O100 C82 1.248 1_545 S
O101 Tb80 2.440 . S
O101 C82 1.266 . S
O102 Tb80 2.658 1_556 S
O102 Tb81 2.325 1_565 S
O102 C89 1.281 . S
O103 Tb80 2.409 . S
O103 C89 1.254 1_554 S
O104 Tb80 2.378 1_545 S
O104 C90 1.236 . S
O105 Tb81 2.341 1_554 S
O105 C90 1.266 . S
O106 Tb81 2.484 1_565 S
O106 C91 1.248 1_565 S
O107 Tb81 2.440 . S
O107 C91 1.266 . S
O108 Tb80 2.325 1_545 S
O108 Tb81 2.658 1_554 S
O108 C98 1.281 . S
O109 Tb81 2.409 . S
O109 C98 1.254 1_556 S
O110 Tb81 2.378 1_565 S
O110 C99 1.236 . S
O111 Tb80 2.341 1_556 S
O111 C99 1.266 . S
H112 C84 0.929 . S
H113 C85 0.931 . S
H114 C87 0.930 . S
H115 C88 0.930 . S
H116 C93 0.929 . S
H117 C94 0.931 . S
H118 C96 0.930 . S
H119 C97 0.930 . S
Tb120 C122 2.809 . S
Tb120 O140 2.484 . S
Tb120 O141 2.440 . S
Tb120 O142 2.658 . S
Tb120 O143 2.409 . S
Tb120 O144 2.378 . S
Tb120 O148 2.325 . S
Tb120 O151 2.341 . S
Tb121 C131 2.809 . S
Tb121 O142 2.325 . S
Tb121 O145 2.341 . S
Tb121 O146 2.484 . S
Tb121 O147 2.440 . S
Tb121 O148 2.658 . S
Tb121 O149 2.409 . S
Tb121 O150 2.378 . S
C122 Tb120 2.809 . S
C122 C123 1.514 . S
C122 O140 1.248 . S
C122 O141 1.266 . S
C123 C122 1.514 . S
C123 C124 1.359 . S
C123 C128 1.348 . S
C124 C123 1.359 . S
C124 C125 1.380 . S
C124 H152 0.929 . S
C125 C124 1.380 . S
C125 C126 1.347 . S
C125 H153 0.931 . S
C126 C125 1.347 . S
C126 C127 1.369 . S
C127 C126 1.369 . S
C127 C128 1.408 . S
C127 H154 0.930 . S
C128 C123 1.348 . S
C128 C127 1.408 . S
C128 H155 0.930 . S
C129 O142 1.281 . S
C129 O143 1.254 . S
C130 O144 1.236 . S
C130 O145 1.266 . S
C131 Tb121 2.809 . S
C131 C132 1.514 . S
C131 O146 1.248 . S
C131 O147 1.266 . S
C132 C131 1.514 . S
C132 C133 1.359 . S
C132 C137 1.348 . S
C133 C132 1.359 . S
C133 C134 1.380 1_554 S
C133 H156 0.929 . S
C134 C133 1.380 1_556 S
C134 C135 1.347 . S
C134 H157 0.931 . S
C135 C134 1.347 . S
C135 C136 1.369 . S
C136 C135 1.369 . S
C136 C137 1.408 1_556 S
C136 H158 0.930 . S
C137 C132 1.348 . S
C137 C136 1.408 1_554 S
C137 H159 0.930 . S
C138 O148 1.281 . S
C138 O149 1.254 . S
C139 O150 1.236 . S
C139 O151 1.266 . S
O140 Tb120 2.484 . S
O140 C122 1.248 . S
O141 Tb120 2.440 . S
O141 C122 1.266 . S
O142 Tb120 2.658 . S
O142 Tb121 2.325 . S
O142 C129 1.281 . S
O143 Tb120 2.409 . S
O143 C129 1.254 . S
O144 Tb120 2.378 . S
O144 C130 1.236 . S
O145 Tb121 2.341 . S
O145 C130 1.266 . S
O146 Tb121 2.484 . S
O146 C131 1.248 . S
O147 Tb121 2.440 . S
O147 C131 1.266 . S
O148 Tb120 2.325 . S
O148 Tb121 2.658 . S
O148 C138 1.281 . S
O149 Tb121 2.409 . S
O149 C138 1.254 . S
O150 Tb121 2.378 . S
O150 C139 1.236 . S
O151 Tb120 2.341 . S
O151 C139 1.266 . S
H152 C124 0.929 . S
H153 C125 0.931 . S
H154 C127 0.930 . S
H155 C128 0.930 . S
H156 C133 0.929 . S
H157 C134 0.931 . S
H158 C136 0.930 . S
H159 C137 0.930 . S
Tb160 C162 2.809 . S
Tb160 O180 2.484 . S
Tb160 O181 2.440 . S
Tb160 O182 2.658 . S
Tb160 O183 2.409 . S
Tb160 O184 2.378 . S
Tb160 O188 2.325 . S
Tb160 O191 2.341 . S
Tb161 C171 2.809 . S
Tb161 O182 2.325 . S
Tb161 O185 2.341 . S
Tb161 O186 2.484 . S
Tb161 O187 2.440 . S
Tb161 O188 2.658 . S
Tb161 O189 2.409 . S
Tb161 O190 2.378 . S
C162 Tb160 2.809 . S
C162 C163 1.514 . S
C162 O180 1.248 . S
C162 O181 1.266 . S
C163 C162 1.514 . S
C163 C164 1.370 . S
C163 C168 1.348 . S
C164 C163 1.370 . S
C164 C165 1.357 1_554 S
C164 H192 0.941 . S
C165 C164 1.357 1_556 S
C165 C166 1.347 . S
C165 H193 0.931 . S
C166 C165 1.347 . S
C166 C167 1.369 . S
C167 C166 1.369 . S
C167 C168 1.408 1_556 S
C167 H194 0.930 . S
C168 C163 1.348 . S
C168 C167 1.408 1_554 S
C168 H195 0.930 . S
C169 O182 1.281 . S
C169 O183 1.254 . S
C170 O184 1.236 . S
C170 O185 1.266 . S
C171 Tb161 2.809 . S
C171 C172 1.514 . S
C171 O186 1.248 . S
C171 O187 1.266 . S
C172 C171 1.514 . S
C172 C173 1.359 . S
C172 C177 1.348 . S
C173 C172 1.359 . S
C173 C174 1.380 . S
C173 H196 0.929 . S
C174 C173 1.380 . S
C174 C175 1.347 . S
C174 H197 0.931 . S
C175 C174 1.347 . S
C175 C176 1.369 . S
C176 C175 1.369 . S
C176 C177 1.408 . S
C176 H198 0.930 . S
C177 C172 1.348 . S
C177 C176 1.408 . S
C177 H199 0.930 . S
C178 O188 1.281 . S
C178 O189 1.254 . S
C179 O190 1.236 . S
C179 O191 1.266 . S
O180 Tb160 2.484 . S
O180 C162 1.248 . S
O181 Tb160 2.440 . S
O181 C162 1.266 . S
O182 Tb160 2.658 . S
O182 Tb161 2.325 . S
O182 C169 1.281 . S
O183 Tb160 2.409 . S
O183 C169 1.254 . S
O184 Tb160 2.378 . S
O184 C170 1.236 . S
O185 Tb161 2.341 . S
O185 C170 1.266 . S
O186 Tb161 2.484 . S
O186 C171 1.248 . S
O187 Tb161 2.440 . S
O187 C171 1.266 . S
O188 Tb160 2.325 . S
O188 Tb161 2.658 . S
O188 C178 1.281 . S
O189 Tb161 2.409 . S
O189 C178 1.254 . S
O190 Tb161 2.378 . S
O190 C179 1.236 . S
O191 Tb160 2.341 . S
O191 C179 1.266 . S
H192 C164 0.941 . S
H193 C165 0.931 . S
H194 C167 0.930 . S
H195 C168 0.930 . S
H196 C173 0.929 . S
H197 C174 0.931 . S
H198 C176 0.930 . S
H199 C177 0.930 . S
Tb200 C202 2.809 . S
Tb200 O220 2.484 . S
Tb200 O221 2.440 . S
Tb200 O222 2.658 . S
Tb200 O223 2.409 . S
Tb200 O224 2.378 . S
Tb200 O228 2.325 . S
Tb200 O231 2.341 . S
Tb201 C211 2.809 . S
Tb201 O222 2.325 . S
Tb201 O225 2.341 . S
Tb201 O226 2.484 . S
Tb201 O227 2.440 . S
Tb201 O228 2.658 . S
Tb201 O229 2.409 . S
Tb201 O230 2.378 . S
C202 Tb200 2.809 . S
C202 C203 1.514 . S
C202 O220 1.248 . S
C202 O221 1.266 . S
C203 C202 1.514 . S
C203 C204 1.359 . S
C203 C208 1.348 . S
C204 C203 1.359 . S
C204 C205 1.380 1_556 S
C204 H232 0.929 . S
C205 C204 1.380 1_554 S
C205 C206 1.347 . S
C205 H233 0.931 . S
C206 C205 1.347 . S
C206 C207 1.369 . S
C207 C206 1.369 . S
C207 C208 1.408 1_554 S
C207 H234 0.930 . S
C208 C203 1.348 . S
C208 C207 1.408 1_556 S
C208 H235 0.930 . S
C209 O222 1.281 . S
C209 O223 1.254 . S
C210 O224 1.236 . S
C210 O225 1.266 . S
C211 Tb201 2.809 . S
C211 C212 1.514 . S
C211 O226 1.248 . S
C211 O227 1.266 . S
C212 C211 1.514 . S
C212 C213 1.359 . S
C212 C217 1.348 . S
C213 C212 1.359 . S
C213 C214 1.380 . S
C213 H236 0.929 . S
C214 C213 1.380 . S
C214 C215 1.347 . S
C214 H237 0.931 . S
C215 C214 1.347 . S
C215 C216 1.369 . S
C216 C215 1.369 . S
C216 C217 1.408 . S
C216 H238 0.930 . S
C217 C212 1.348 . S
C217 C216 1.408 . S
C217 H239 0.930 . S
C218 O228 1.281 . S
C218 O229 1.254 . S
C219 O230 1.236 . S
C219 O231 1.266 . S
O220 Tb200 2.484 . S
O220 C202 1.248 . S
O221 Tb200 2.440 . S
O221 C202 1.266 . S
O222 Tb200 2.658 . S
O222 Tb201 2.325 . S
O222 C209 1.281 . S
O223 Tb200 2.409 . S
O223 C209 1.254 . S
O224 Tb200 2.378 . S
O224 C210 1.236 . S
O225 Tb201 2.341 . S
O225 C210 1.266 . S
O226 Tb201 2.484 . S
O226 C211 1.248 . S
O227 Tb201 2.440 . S
O227 C211 1.266 . S
O228 Tb200 2.325 . S
O228 Tb201 2.658 . S
O228 C218 1.281 . S
O229 Tb201 2.409 . S
O229 C218 1.254 . S
O230 Tb201 2.378 . S
O230 C219 1.236 . S
O231 Tb200 2.341 . S
O231 C219 1.266 . S
H232 C204 0.929 . S
H233 C205 0.931 . S
H234 C207 0.930 . S
H235 C208 0.930 . S
H236 C213 0.929 . S
H237 C214 0.931 . S
H238 C216 0.930 . S
H239 C217 0.930 . S
Tb240 C242 2.809 . S
Tb240 O260 2.484 . S
Tb240 O261 2.440 . S
Tb240 O262 2.658 1_556 S
Tb240 O263 2.409 . S
Tb240 O264 2.378 . S
Tb240 O268 2.325 . S
Tb240 O271 2.341 . S
Tb241 C251 2.809 . S
Tb241 O262 2.325 . S
Tb241 O265 2.341 . S
Tb241 O266 2.484 . S
Tb241 O267 2.440 . S
Tb241 O268 2.658 1_554 S
Tb241 O269 2.409 . S
Tb241 O270 2.378 . S
C242 Tb240 2.809 . S
C242 C243 1.514 . S
C242 O260 1.248 . S
C242 O261 1.266 . S
C243 C242 1.514 . S
C243 C244 1.359 . S
C243 C248 1.348 . S
C244 C243 1.359 . S
C244 C245 1.380 . S
C244 H272 0.929 . S
C245 C244 1.380 . S
C245 C246 1.347 . S
C245 H273 0.931 . S
C246 C245 1.347 . S
C246 C247 1.369 . S
C247 C246 1.369 . S
C247 C248 1.408 . S
C247 H274 0.930 . S
C248 C243 1.348 . S
C248 C247 1.408 . S
C248 H275 0.930 . S
C249 O262 1.281 . S
C249 O263 1.254 1_554 S
C250 O264 1.236 . S
C250 O265 1.266 1_556 S
C251 Tb241 2.809 . S
C251 C252 1.514 . S
C251 O266 1.248 . S
C251 O267 1.266 . S
C252 C251 1.514 . S
C252 C253 1.359 . S
C252 C257 1.348 . S
C253 C252 1.359 . S
C253 C254 1.380 . S
C253 H276 0.929 . S
C254 C253 1.380 . S
C254 C255 1.347 . S
C254 H277 0.931 . S
C255 C254 1.347 . S
C255 C256 1.369 . S
C256 C255 1.369 . S
C256 C257 1.408 . S
C256 H278 0.930 . S
C257 C252 1.348 . S
C257 C256 1.408 . S
C257 H279 0.930 . S
C258 O268 1.281 . S
C258 O269 1.254 1_556 S
C259 O270 1.236 . S
C259 O271 1.266 1_554 S
O260 Tb240 2.484 . S
O260 C242 1.248 . S
O261 Tb240 2.440 . S
O261 C242 1.266 . S
O262 Tb240 2.658 1_554 S
O262 Tb241 2.325 . S
O262 C249 1.281 . S
O263 Tb240 2.409 . S
O263 C249 1.254 1_556 S
O264 Tb240 2.378 . S
O264 C250 1.236 . S
O265 Tb241 2.341 . S
O265 C250 1.266 1_554 S
O266 Tb241 2.484 . S
O266 C251 1.248 . S
O267 Tb241 2.440 . S
O267 C251 1.266 . S
O268 Tb240 2.325 . S
O268 Tb241 2.658 1_556 S
O268 C258 1.281 . S
O269 Tb241 2.409 . S
O269 C258 1.254 1_554 S
O270 Tb241 2.378 . S
O270 C259 1.236 . S
O271 Tb240 2.341 . S
O271 C259 1.266 1_556 S
H272 C244 0.929 . S
H273 C245 0.931 . S
H274 C247 0.930 . S
H275 C248 0.930 . S
H276 C253 0.929 . S
H277 C254 0.931 . S
H278 C256 0.930 . S
H279 C257 0.930 . S
Tb280 C282 2.809 1_455 S
Tb280 O300 2.484 . S
Tb280 O301 2.440 1_455 S
Tb280 O302 2.658 1_455 S
Tb280 O303 2.409 1_455 S
Tb280 O304 2.378 1_455 S
Tb280 O308 2.325 . S
Tb280 O311 2.341 . S
Tb281 C291 2.809 1_655 S
Tb281 O302 2.325 . S
Tb281 O305 2.341 . S
Tb281 O306 2.484 . S
Tb281 O307 2.440 1_655 S
Tb281 O308 2.658 1_655 S
Tb281 O309 2.409 1_655 S
Tb281 O310 2.378 1_655 S
C282 Tb280 2.809 1_655 S
C282 C283 1.514 . S
C282 O300 1.248 1_655 S
C282 O301 1.266 . S
C283 C282 1.514 . S
C283 C284 1.359 1_655 S
C283 C288 1.348 . S
C284 C283 1.359 1_455 S
C284 C285 1.380 1_455 S
C284 H312 0.929 . S
C285 C284 1.380 1_655 S
C285 C286 1.347 . S
C285 H313 0.931 1_655 S
C286 C285 1.347 . S
C286 C287 1.369 . S
C287 C286 1.369 . S
C287 C288 1.408 . S
C287 H314 0.930 . S
C288 C283 1.348 . S
C288 C287 1.408 . S
C288 H315 0.930 . S
C289 O302 1.281 . S
C289 O303 1.254 . S
C290 O304 1.236 . S
C290 O305 1.266 . S
C291 Tb281 2.809 1_455 S
C291 C292 1.514 . S
C291 O306 1.248 1_455 S
C291 O307 1.266 . S
C292 C291 1.514 . S
C292 C293 1.359 1_455 S
C292 C297 1.348 . S
C293 C292 1.359 1_655 S
C293 C294 1.380 1_655 S
C293 H316 0.929 . S
C294 C293 1.380 1_455 S
C294 C295 1.347 . S
C294 H317 0.931 1_455 S
C295 C294 1.347 . S
C295 C296 1.369 . S
C296 C295 1.369 . S
C296 C297 1.408 . S
C296 H318 0.930 . S
C297 C292 1.348 . S
C297 C296 1.408 . S
C297 H319 0.930 . S
C298 O308 1.281 . S
C298 O309 1.254 . S
C299 O310 1.236 . S
C299 O311 1.266 . S
O300 Tb280 2.484 . S
O300 C282 1.248 1_455 S
O301 Tb280 2.440 1_655 S
O301 C282 1.266 . S
O302 Tb280 2.658 1_655 S
O302 Tb281 2.325 . S
O302 C289 1.281 . S
O303 Tb280 2.409 1_655 S
O303 C289 1.254 . S
O304 Tb280 2.378 1_655 S
O304 C290 1.236 . S
O305 Tb281 2.341 . S
O305 C290 1.266 . S
O306 Tb281 2.484 . S
O306 C291 1.248 1_655 S
O307 Tb281 2.440 1_455 S
O307 C291 1.266 . S
O308 Tb280 2.325 . S
O308 Tb281 2.658 1_455 S
O308 C298 1.281 . S
O309 Tb281 2.409 1_455 S
O309 C298 1.254 . S
O310 Tb281 2.378 1_455 S
O310 C299 1.236 . S
O311 Tb280 2.341 . S
O311 C299 1.266 . S
H312 C284 0.929 . S
H313 C285 0.931 1_455 S
H314 C287 0.930 . S
H315 C288 0.930 . S
H316 C293 0.929 . S
H317 C294 0.931 1_655 S
H318 C296 0.930 . S
H319 C297 0.930 . S
H320 C326 0.930 . S
H321 C330 0.930 . S
H322 C335 0.929 . S
H323 C333 0.929 . S
H324 C328 0.929 . S
H325 C334 0.929 . S
C326 H320 0.930 . S
C326 C327 1.367 . S
C326 C334 1.378 . S
C327 C326 1.367 . S
C327 C335 1.433 . S
C328 H324 0.929 . S
C328 C330 1.378 . S
C328 C332 1.350 . S
C329 C332 1.463 . S
C329 C334 1.350 . S
C329 N337 1.427 . S
C330 H321 0.930 . S
C330 C328 1.378 . S
C330 C331 1.367 . S
C331 C330 1.367 . S
C331 C333 1.433 . S
C332 C328 1.350 . S
C332 C329 1.463 . S
C332 N336 1.427 . S
C333 H323 0.929 . S
C333 C331 1.433 . S
C333 N336 1.384 . S
C334 H325 0.929 . S
C334 C326 1.378 . S
C334 C329 1.350 . S
C335 H322 0.929 . S
C335 C327 1.433 . S
C335 N337 1.384 . S
N336 C332 1.427 . S
N336 C333 1.384 . S
N337 C329 1.427 . S
N337 C335 1.384 . S
H338 C344 0.930 . S
H339 C348 0.930 . S
H340 C353 0.929 . S
H341 C351 0.929 . S
H342 C346 0.929 . S
H343 C352 0.929 . S
C344 H338 0.930 . S
C344 C345 1.367 . S
C344 C352 1.378 . S
C345 C344 1.367 . S
C345 C353 1.433 . S
C346 H342 0.929 . S
C346 C348 1.378 . S
C346 C350 1.350 . S
C347 C350 1.463 . S
C347 C352 1.350 . S
C347 N355 1.427 . S
C348 H339 0.930 . S
C348 C346 1.378 . S
C348 C349 1.367 . S
C349 C348 1.367 . S
C349 C351 1.433 . S
C350 C346 1.350 . S
C350 C347 1.463 . S
C350 N354 1.427 . S
C351 H341 0.929 . S
C351 C349 1.433 . S
C351 N354 1.384 . S
C352 H343 0.929 . S
C352 C344 1.378 . S
C352 C347 1.350 . S
C353 H340 0.929 . S
C353 C345 1.433 . S
C353 N355 1.384 . S
N354 C350 1.427 . S
N354 C351 1.384 . S
N355 C347 1.427 . S
N355 C353 1.384 . S
H356 C362 0.930 . S
H357 C366 0.930 . S
H358 C371 0.929 . S
H359 C369 0.929 . S
H360 C364 0.929 . S
H361 C370 0.929 . S
C362 H356 0.930 . S
C362 C363 1.367 . S
C362 C370 1.378 . S
C363 C362 1.367 . S
C363 C371 1.433 . S
C364 H360 0.929 . S
C364 C366 1.378 . S
C364 C368 1.350 . S
C365 C368 1.463 . S
C365 C370 1.350 . S
C365 N373 1.427 . S
C366 H357 0.930 . S
C366 C364 1.378 . S
C366 C367 1.367 . S
C367 C366 1.367 . S
C367 C369 1.433 . S
C368 C364 1.350 . S
C368 C365 1.463 . S
C368 N372 1.427 . S
C369 H359 0.929 . S
C369 C367 1.433 . S
C369 N372 1.384 . S
C370 H361 0.929 . S
C370 C362 1.378 . S
C370 C365 1.350 . S
C371 H358 0.929 . S
C371 C363 1.433 . S
C371 N373 1.384 . S
N372 C368 1.427 . S
N372 C369 1.384 . S
N373 C365 1.427 . S
N373 C371 1.384 . S
H374 C380 0.930 . S
H375 C384 0.930 . S
H376 C389 0.929 . S
H377 C387 0.929 . S
H378 C382 0.929 . S
H379 C388 0.929 . S
C380 H374 0.930 . S
C380 C381 1.367 . S
C380 C388 1.378 . S
C381 C380 1.367 . S
C381 C389 1.433 . S
C382 H378 0.929 . S
C382 C384 1.378 . S
C382 C386 1.350 . S
C383 C386 1.463 . S
C383 C388 1.350 . S
C383 N391 1.427 . S
C384 H375 0.930 . S
C384 C382 1.378 . S
C384 C385 1.367 . S
C385 C384 1.367 . S
C385 C387 1.433 . S
C386 C382 1.350 . S
C386 C383 1.463 . S
C386 N390 1.427 . S
C387 H377 0.929 . S
C387 C385 1.433 . S
C387 N390 1.384 . S
C388 H379 0.929 . S
C388 C380 1.378 . S
C388 C383 1.350 . S
C389 H376 0.929 . S
C389 C381 1.433 . S
C389 N391 1.384 . S
N390 C386 1.427 . S
N390 C387 1.384 . S
N391 C383 1.427 . S
N391 C389 1.384 . S
H392 C398 0.930 . S
H393 C402 0.930 . S
H394 C407 0.929 . S
H395 C405 0.929 . S
H396 C400 0.929 . S
H397 C406 0.929 . S
C398 H392 0.930 . S
C398 C399 1.367 . S
C398 C406 1.378 . S
C399 C398 1.367 . S
C399 C407 1.433 . S
C400 H396 0.929 . S
C400 C402 1.378 . S
C400 C404 1.350 . S
C401 C404 1.463 . S
C401 C406 1.350 . S
C401 N409 1.427 . S
C402 H393 0.930 . S
C402 C400 1.378 . S
C402 C403 1.367 . S
C403 C402 1.367 . S
C403 C405 1.433 . S
C404 C400 1.350 . S
C404 C401 1.463 . S
C404 N408 1.427 . S
C405 H395 0.929 . S
C405 C403 1.433 . S
C405 N408 1.384 . S
C406 H397 0.929 . S
C406 C398 1.378 . S
C406 C401 1.350 . S
C407 H394 0.929 . S
C407 C399 1.433 . S
C407 N409 1.384 . S
N408 C404 1.427 . S
N408 C405 1.384 . S
N409 C401 1.427 . S
N409 C407 1.384 . S
H410 C416 0.930 . S
H411 C420 0.930 . S
H412 C425 0.929 . S
H413 C423 0.929 . S
H414 C418 0.929 . S
H415 C424 0.929 . S
C416 H410 0.930 . S
C416 C417 1.367 . S
C416 C424 1.378 . S
C417 C416 1.367 . S
C417 C425 1.433 . S
C418 H414 0.929 . S
C418 C420 1.378 . S
C418 C422 1.350 . S
C419 C422 1.463 . S
C419 C424 1.350 . S
C419 N427 1.427 . S
C420 H411 0.930 . S
C420 C418 1.378 . S
C420 C421 1.367 . S
C421 C420 1.367 . S
C421 C423 1.433 . S
C422 C418 1.350 . S
C422 C419 1.463 . S
C422 N426 1.427 . S
C423 H413 0.929 . S
C423 C421 1.433 . S
C423 N426 1.384 . S
C424 H415 0.929 . S
C424 C416 1.378 . S
C424 C419 1.350 . S
C425 H412 0.929 . S
C425 C417 1.433 . S
C425 N427 1.384 . S
N426 C422 1.427 . S
N426 C423 1.384 . S
N427 C419 1.427 . S
N427 C425 1.384 . S
H428 C434 0.930 . S
H429 C438 0.930 . S
H430 C443 0.929 . S
H431 C441 0.929 . S
H432 C436 0.929 . S
H433 C442 0.929 . S
C434 H428 0.930 . S
C434 C435 1.367 . S
C434 C442 1.378 . S
C435 C434 1.367 . S
C435 C443 1.433 . S
C436 H432 0.929 . S
C436 C438 1.378 . S
C436 C440 1.350 . S
C437 C440 1.463 . S
C437 C442 1.350 . S
C437 N445 1.427 . S
C438 H429 0.930 . S
C438 C436 1.378 . S
C438 C439 1.367 . S
C439 C438 1.367 . S
C439 C441 1.433 . S
C440 C436 1.350 . S
C440 C437 1.463 . S
C440 N444 1.427 . S
C441 H431 0.929 . S
C441 C439 1.433 . S
C441 N444 1.384 . S
C442 H433 0.929 . S
C442 C434 1.378 . S
C442 C437 1.350 . S
C443 H430 0.929 . S
C443 C435 1.433 . S
C443 N445 1.384 . S
N444 C440 1.427 . S
N444 C441 1.384 . S
N445 C437 1.427 . S
N445 C443 1.384 . S
H446 C452 0.930 . S
H447 C456 0.930 . S
H448 C461 0.929 . S
H449 C459 0.929 . S
H450 C454 0.929 . S
H451 C460 0.929 . S
C452 H446 0.930 . S
C452 C453 1.367 . S
C452 C460 1.378 . S
C453 C452 1.367 . S
C453 C461 1.433 . S
C454 H450 0.929 . S
C454 C456 1.378 . S
C454 C458 1.350 . S
C455 C458 1.463 . S
C455 C460 1.350 . S
C455 N463 1.427 . S
C456 H447 0.930 . S
C456 C454 1.378 . S
C456 C457 1.367 . S
C457 C456 1.367 . S
C457 C459 1.433 . S
C458 C454 1.350 . S
C458 C455 1.463 . S
C458 N462 1.427 . S
C459 H449 0.929 . S
C459 C457 1.433 . S
C459 N462 1.384 . S
C460 H451 0.929 . S
C460 C452 1.378 . S
C460 C455 1.350 . S
C461 H448 0.929 . S
C461 C453 1.433 . S
C461 N463 1.384 . S
N462 C458 1.427 . S
N462 C459 1.384 . S
N463 C455 1.427 . S
N463 C461 1.384 . S
H464 C470 0.930 . S
H465 C474 0.930 . S
H466 C479 0.929 . S
H467 C477 0.929 . S
H468 C472 0.929 . S
H469 C478 0.929 . S
C470 H464 0.930 . S
C470 C471 1.367 . S
C470 C478 1.378 . S
C471 C470 1.367 . S
C471 C479 1.433 . S
C472 H468 0.929 . S
C472 C474 1.378 . S
C472 C476 1.350 . S
C473 C476 1.463 . S
C473 C478 1.350 . S
C473 N481 1.427 . S
C474 H465 0.930 . S
C474 C472 1.378 . S
C474 C475 1.367 . S
C475 C474 1.367 . S
C475 C477 1.433 . S
C476 C472 1.350 . S
C476 C473 1.463 . S
C476 N480 1.427 . S
C477 H467 0.929 . S
C477 C475 1.433 . S
C477 N480 1.384 . S
C478 H469 0.929 . S
C478 C470 1.378 . S
C478 C473 1.350 . S
C479 H466 0.929 . S
C479 C471 1.433 . S
C479 N481 1.384 . S
N480 C476 1.427 . S
N480 C477 1.384 . S
N481 C473 1.427 . S
N481 C479 1.384 . S
H482 C488 0.930 . S
H483 C492 0.930 . S
H484 C497 0.929 . S
H485 C495 0.929 . S
H486 C490 0.929 . S
H487 C496 0.929 . S
C488 H482 0.930 . S
C488 C489 1.367 . S
C488 C496 1.378 . S
C489 C488 1.367 . S
C489 C497 1.433 . S
C490 H486 0.929 . S
C490 C492 1.378 . S
C490 C494 1.350 . S
C491 C494 1.463 . S
C491 C496 1.350 . S
C491 N499 1.427 . S
C492 H483 0.930 . S
C492 C490 1.378 . S
C492 C493 1.367 . S
C493 C492 1.367 . S
C493 C495 1.433 . S
C494 C490 1.350 . S
C494 C491 1.463 . S
C494 N498 1.427 . S
C495 H485 0.929 . S
C495 C493 1.433 . S
C495 N498 1.384 . S
C496 H487 0.929 . S
C496 C488 1.378 . S
C496 C491 1.350 . S
C497 H484 0.929 . S
C497 C489 1.433 . S
C497 N499 1.384 . S
N498 C494 1.427 . S
N498 C495 1.384 . S
N499 C491 1.427 . S
N499 C497 1.384 . S
H500 C506 0.930 . S
H501 C510 0.930 . S
H502 C515 0.929 . S
H503 C513 0.929 . S
H504 C508 0.929 . S
H505 C514 0.929 . S
C506 H500 0.930 . S
C506 C507 1.367 . S
C506 C514 1.378 . S
C507 C506 1.367 . S
C507 C515 1.433 . S
C508 H504 0.929 . S
C508 C510 1.378 . S
C508 C512 1.350 . S
C509 C512 1.463 . S
C509 C514 1.350 . S
C509 N517 1.427 . S
C510 H501 0.930 . S
C510 C508 1.378 . S
C510 C511 1.367 . S
C511 C510 1.367 . S
C511 C513 1.433 . S
C512 C508 1.350 . S
C512 C509 1.463 . S
C512 N516 1.427 . S
C513 H503 0.929 . S
C513 C511 1.433 . S
C513 N516 1.384 . S
C514 H505 0.929 . S
C514 C506 1.378 . S
C514 C509 1.350 . S
C515 H502 0.929 . S
C515 C507 1.433 . S
C515 N517 1.384 . S
N516 C512 1.427 . S
N516 C513 1.384 . S
N517 C509 1.427 . S
N517 C515 1.384 . S
H518 C524 0.930 . S
H519 C528 0.930 . S
H520 C533 0.929 . S
H521 C531 0.929 . S
H522 C526 0.929 . S
H523 C532 0.929 . S
C524 H518 0.930 . S
C524 C525 1.367 . S
C524 C532 1.378 . S
C525 C524 1.367 . S
C525 C533 1.433 . S
C526 H522 0.929 . S
C526 C528 1.378 . S
C526 C530 1.350 . S
C527 C530 1.463 . S
C527 C532 1.350 . S
C527 N535 1.427 . S
C528 H519 0.930 . S
C528 C526 1.378 . S
C528 C529 1.367 . S
C529 C528 1.367 . S
C529 C531 1.433 . S
C530 C526 1.350 . S
C530 C527 1.463 . S
C530 N534 1.427 . S
C531 H521 0.929 . S
C531 C529 1.433 . S
C531 N534 1.384 . S
C532 H523 0.929 . S
C532 C524 1.378 . S
C532 C527 1.350 . S
C533 H520 0.929 . S
C533 C525 1.433 . S
C533 N535 1.384 . S
N534 C530 1.427 . S
N534 C531 1.384 . S
N535 C527 1.427 . S
N535 C533 1.384 . S
H536 C542 0.930 . S
H537 C546 0.930 . S
H538 C551 0.929 . S
H539 C549 0.929 . S
H540 C544 0.929 . S
H541 C550 0.929 . S
C542 H536 0.930 . S
C542 C543 1.367 . S
C542 C550 1.378 . S
C543 C542 1.367 . S
C543 C551 1.433 . S
C544 H540 0.929 . S
C544 C546 1.378 . S
C544 C548 1.350 . S
C545 C548 1.463 . S
C545 C550 1.350 . S
C545 N553 1.427 . S
C546 H537 0.930 . S
C546 C544 1.378 . S
C546 C547 1.367 . S
C547 C546 1.367 . S
C547 C549 1.433 . S
C548 C544 1.350 . S
C548 C545 1.463 . S
C548 N552 1.427 . S
C549 H539 0.929 . S
C549 C547 1.433 . S
C549 N552 1.384 . S
C550 H541 0.929 . S
C550 C542 1.378 . S
C550 C545 1.350 . S
C551 H538 0.929 . S
C551 C543 1.433 . S
C551 N553 1.384 . S
N552 C548 1.427 . S
N552 C549 1.384 . S
N553 C545 1.427 . S
N553 C551 1.384 . S
H554 C560 0.930 1_554 S
H555 C564 0.930 . S
H556 C569 0.929 . S
H557 C567 0.929 . S
H558 C562 0.929 . S
H559 C568 0.929 . S
C560 H554 0.930 1_556 S
C560 C561 1.367 . S
C560 C568 1.378 . S
C561 C560 1.367 . S
C561 C569 1.433 . S
C562 H558 0.929 . S
C562 C564 1.378 . S
C562 C566 1.350 . S
C563 C566 1.463 . S
C563 C568 1.350 . S
C563 N571 1.427 . S
C564 H555 0.930 . S
C564 C562 1.378 . S
C564 C565 1.367 . S
C565 C564 1.367 . S
C565 C567 1.433 . S
C566 C562 1.350 . S
C566 C563 1.463 . S
C566 N570 1.427 . S
C567 H557 0.929 . S
C567 C565 1.433 . S
C567 N570 1.384 . S
C568 H559 0.929 . S
C568 C560 1.378 . S
C568 C563 1.350 . S
C569 H556 0.929 . S
C569 C561 1.433 . S
C569 N571 1.384 . S
N570 C566 1.427 . S
N570 C567 1.384 . S
N571 C563 1.427 . S
N571 C569 1.384 . S
H572 C578 0.930 . S
H573 C582 0.930 . S
H574 C587 0.929 . S
H575 C585 0.929 . S
H576 C580 0.929 . S
H577 C586 0.929 . S
C578 H572 0.930 . S
C578 C579 1.367 . S
C578 C586 1.378 . S
C579 C578 1.367 . S
C579 C587 1.433 . S
C580 H576 0.929 . S
C580 C582 1.378 . S
C580 C584 1.350 . S
C581 C584 1.463 . S
C581 C586 1.350 . S
C581 N589 1.427 . S
C582 H573 0.930 . S
C582 C580 1.378 . S
C582 C583 1.367 . S
C583 C582 1.367 . S
C583 C585 1.433 . S
C584 C580 1.350 . S
C584 C581 1.463 . S
C584 N588 1.427 . S
C585 H575 0.929 . S
C585 C583 1.433 . S
C585 N588 1.384 . S
C586 H577 0.929 . S
C586 C578 1.378 . S
C586 C581 1.350 . S
C587 H574 0.929 . S
C587 C579 1.433 . S
C587 N589 1.384 . S
N588 C584 1.427 . S
N588 C585 1.384 . S
N589 C581 1.427 . S
N589 C587 1.384 . S
H590 C596 0.930 . S
H591 C600 0.930 . S
H592 C605 0.929 . S
H593 C603 0.929 . S
H594 C598 0.929 . S
H595 C604 0.929 . S
C596 H590 0.930 . S
C596 C597 1.367 . S
C596 C604 1.378 . S
C597 C596 1.367 . S
C597 C605 1.433 . S
C598 H594 0.929 . S
C598 C600 1.378 . S
C598 C602 1.350 . S
C599 C602 1.463 . S
C599 C604 1.350 . S
C599 N607 1.427 . S
C600 H591 0.930 . S
C600 C598 1.378 . S
C600 C601 1.367 . S
C601 C600 1.367 . S
C601 C603 1.433 . S
C602 C598 1.350 . S
C602 C599 1.463 . S
C602 N606 1.427 . S
C603 H593 0.929 . S
C603 C601 1.433 . S
C603 N606 1.384 . S
C604 H595 0.929 . S
C604 C596 1.378 . S
C604 C599 1.350 . S
C605 H592 0.929 . S
C605 C597 1.433 . S
C605 N607 1.384 . S
N606 C602 1.427 . S
N606 C603 1.384 . S
N607 C599 1.427 . S
N607 C605 1.384 . S
H608 C614 0.930 . S
H609 C618 0.930 . S
H610 C623 0.929 . S
H611 C621 0.929 . S
H612 C616 0.929 . S
H613 C622 0.929 . S
C614 H608 0.930 . S
C614 C615 1.367 1_455 S
C614 C622 1.378 . S
C615 C614 1.367 1_655 S
C615 C623 1.433 1_545 S
C616 H612 0.929 . S
C616 C618 1.378 . S
C616 C620 1.350 1_655 S
C617 C620 1.463 1_646 S
C617 C622 1.350 1_655 S
C617 N625 1.427 1_545 S
C618 H609 0.930 . S
C618 C616 1.378 . S
C618 C619 1.367 1_655 S
C619 C618 1.367 1_455 S
C619 C621 1.433 1_565 S
C620 C616 1.350 1_455 S
C620 C617 1.463 1_464 S
C620 N624 1.427 1_565 S
C621 H611 0.929 . S
C621 C619 1.433 1_545 S
C621 N624 1.384 . S
C622 H613 0.929 . S
C622 C614 1.378 . S
C622 C617 1.350 1_455 S
C623 H610 0.929 . S
C623 C615 1.433 1_565 S
C623 N625 1.384 . S
N624 C620 1.427 1_545 S
N624 C621 1.384 . S
N625 C617 1.427 1_565 S
N625 C623 1.384 . S
H626 C632 0.930 . S
H627 C636 0.930 . S
H628 C641 0.929 . S
H629 C639 0.929 . S
H630 C634 0.929 . S
H631 C640 0.929 . S
C632 H626 0.930 . S
C632 C633 1.367 . S
C632 C640 1.378 . S
C633 C632 1.367 . S
C633 C641 1.433 . S
C634 H630 0.929 . S
C634 C636 1.378 . S
C634 C638 1.350 . S
C635 C638 1.463 . S
C635 C640 1.350 . S
C635 N643 1.427 . S
C636 H627 0.930 . S
C636 C634 1.378 . S
C636 C637 1.367 . S
C637 C636 1.367 . S
C637 C639 1.433 . S
C638 C634 1.350 . S
C638 C635 1.463 . S
C638 N642 1.427 . S
C639 H629 0.929 . S
C639 C637 1.433 . S
C639 N642 1.384 . S
C640 H631 0.929 . S
C640 C632 1.378 . S
C640 C635 1.350 . S
C641 H628 0.929 . S
C641 C633 1.433 . S
C641 N643 1.384 . S
N642 C638 1.427 . S
N642 C639 1.384 . S
N643 C635 1.427 . S
N643 C641 1.384 . S
H644 C650 0.930 . S
H645 C654 0.930 . S
H646 C659 0.929 . S
H647 C657 0.929 . S
H648 C652 0.929 . S
H649 C658 0.929 . S
C650 H644 0.930 . S
C650 C651 1.367 1_545 S
C650 C658 1.378 . S
C651 C650 1.367 1_565 S
C651 C659 1.433 . S
C652 H648 0.929 . S
C652 C654 1.378 . S
C652 C656 1.349 1_565 S
C653 C656 1.462 . S
C653 C658 1.349 . S
C653 N661 1.428 1_545 S
C654 H645 0.930 . S
C654 C652 1.378 . S
C654 C655 1.367 1_565 S
C655 C654 1.367 1_545 S
C655 C657 1.433 . S
C656 C652 1.349 1_545 S
C656 C653 1.462 . S
C656 N660 1.428 . S
C657 H647 0.929 . S
C657 C655 1.433 . S
C657 N660 1.384 . S
C658 H649 0.929 . S
C658 C650 1.378 . S
C658 C653 1.349 . S
C659 H646 0.929 . S
C659 C651 1.433 . S
C659 N661 1.384 . S
N660 C656 1.428 . S
N660 C657 1.384 . S
N661 C653 1.428 1_565 S
N661 C659 1.384 . S
H662 C668 0.930 . S
H663 C672 0.930 . S
H664 C677 0.929 . S
H665 C675 0.929 . S
H666 C670 0.929 . S
H667 C676 0.929 . S
C668 H662 0.930 . S
C668 C669 1.367 . S
C668 C676 1.378 . S
C669 C668 1.367 . S
C669 C677 1.433 . S
C670 H666 0.929 . S
C670 C672 1.378 . S
C670 C674 1.350 . S
C671 C674 1.463 . S
C671 C676 1.350 . S
C671 N679 1.427 . S
C672 H663 0.930 . S
C672 C670 1.378 . S
C672 C673 1.367 . S
C673 C672 1.367 . S
C673 C675 1.433 . S
C674 C670 1.350 . S
C674 C671 1.463 . S
C674 N678 1.427 . S
C675 H665 0.929 . S
C675 C673 1.433 . S
C675 N678 1.384 . S
C676 H667 0.929 . S
C676 C668 1.378 . S
C676 C671 1.350 . S
C677 H664 0.929 . S
C677 C669 1.433 . S
C677 N679 1.384 . S
N678 C674 1.427 . S
N678 C675 1.384 . S
N679 C671 1.427 . S
N679 C677 1.384 . S
H680 C686 0.930 . S
H681 C690 0.930 . S
H682 C695 0.929 . S
H683 C693 0.929 . S
H684 C688 0.929 . S
H685 C694 0.929 . S
C686 H680 0.930 . S
C686 C687 1.367 . S
C686 C694 1.378 . S
C687 C686 1.367 . S
C687 C695 1.433 . S
C688 H684 0.929 . S
C688 C690 1.378 . S
C688 C692 1.350 . S
C689 C692 1.463 . S
C689 C694 1.350 . S
C689 N697 1.427 . S
C690 H681 0.930 . S
C690 C688 1.378 . S
C690 C691 1.367 . S
C691 C690 1.367 . S
C691 C693 1.433 . S
C692 C688 1.350 . S
C692 C689 1.463 . S
C692 N696 1.427 . S
C693 H683 0.929 . S
C693 C691 1.433 . S
C693 N696 1.384 . S
C694 H685 0.929 . S
C694 C686 1.378 . S
C694 C689 1.350 . S
C695 H682 0.929 . S
C695 C687 1.433 . S
C695 N697 1.384 . S
N696 C692 1.427 . S
N696 C693 1.384 . S
N697 C689 1.427 . S
N697 C695 1.384 . S
H698 C704 0.930 . S
H699 C708 0.930 . S
H700 C713 0.929 . S
H701 C711 0.929 . S
H702 C706 0.929 . S
H703 C712 0.929 . S
C704 H698 0.930 . S
C704 C705 1.367 . S
C704 C712 1.378 . S
C705 C704 1.367 . S
C705 C713 1.433 . S
C706 H702 0.929 . S
C706 C708 1.378 . S
C706 C710 1.350 . S
C707 C710 1.463 . S
C707 C712 1.350 . S
C707 N715 1.427 . S
C708 H699 0.930 . S
C708 C706 1.378 . S
C708 C709 1.367 . S
C709 C708 1.367 . S
C709 C711 1.433 . S
C710 C706 1.350 . S
C710 C707 1.463 . S
C710 N714 1.427 . S
C711 H701 0.929 . S
C711 C709 1.433 . S
C711 N714 1.384 . S
C712 H703 0.929 . S
C712 C704 1.378 . S
C712 C707 1.350 . S
C713 H700 0.929 . S
C713 C705 1.433 . S
C713 N715 1.384 . S
N714 C710 1.427 . S
N714 C711 1.384 . S
N715 C707 1.427 . S
N715 C713 1.384 . S
H716 C722 0.930 . S
H717 C726 0.930 . S
H718 C731 0.929 . S
H719 C729 0.929 . S
H720 C724 0.929 . S
H721 C730 0.929 . S
C722 H716 0.930 . S
C722 C723 1.367 . S
C722 C730 1.378 . S
C723 C722 1.367 . S
C723 C731 1.433 . S
C724 H720 0.929 . S
C724 C726 1.378 . S
C724 C728 1.350 . S
C725 C728 1.463 . S
C725 C730 1.350 . S
C725 N733 1.427 . S
C726 H717 0.930 . S
C726 C724 1.378 . S
C726 C727 1.367 . S
C727 C726 1.367 . S
C727 C729 1.433 . S
C728 C724 1.350 . S
C728 C725 1.463 . S
C728 N732 1.427 . S
C729 H719 0.929 . S
C729 C727 1.433 . S
C729 N732 1.384 . S
C730 H721 0.929 . S
C730 C722 1.378 . S
C730 C725 1.350 . S
C731 H718 0.929 . S
C731 C723 1.433 . S
C731 N733 1.384 . S
N732 C728 1.427 . S
N732 C729 1.384 . S
N733 C725 1.427 . S
N733 C731 1.384 . S
H734 C740 0.930 1_455 S
H735 C744 0.930 1_655 S
H736 C749 0.929 . S
H737 C747 0.929 . S
H738 C742 0.929 . S
H739 C748 0.929 . S
C740 H734 0.930 1_655 S
C740 C741 1.367 . S
C740 C748 1.378 1_655 S
C741 C740 1.367 . S
C741 C749 1.433 . S
C742 H738 0.929 . S
C742 C744 1.378 1_655 S
C742 C746 1.350 1_655 S
C743 C746 1.463 1_656 S
C743 C748 1.350 1_655 S
C743 N751 1.427 . S
C744 H735 0.930 1_455 S
C744 C742 1.378 1_455 S
C744 C745 1.367 . S
C745 C744 1.367 . S
C745 C747 1.433 . S
C746 C742 1.350 1_455 S
C746 C743 1.463 1_454 S
C746 N750 1.427 . S
C747 H737 0.929 . S
C747 C745 1.433 . S
C747 N750 1.384 . S
C748 H739 0.929 . S
C748 C740 1.378 1_455 S
C748 C743 1.350 1_455 S
C749 H736 0.929 . S
C749 C741 1.433 . S
C749 N751 1.384 . S
N750 C746 1.427 . S
N750 C747 1.384 . S
N751 C743 1.427 . S
N751 C749 1.384 . S
C327 C10 2.049 . S
C331 C130 2.045 . S
C345 C9 1.511 . S
C349 C50 1.540 . S
C363 C49 0.913 . S
C367 C89 0.903 . S
C381 C90 1.540 . S
C385 C129 1.509 . S
C399 C19 2.049 . S
C403 C219 2.051 . S
C417 C18 1.515 . S
C421 C179 1.540 . S
C435 C178 0.908 . S
C439 C98 0.919 . S
C453 C218 1.514 . S
C457 C99 1.543 . S
C471 C250 2.049 . S
C475 C210 2.048 . S
C489 C170 1.540 . S
C493 C249 1.509 . S
C507 C289 0.902 . S
C511 C169 0.911 . S
C525 C209 1.516 . S
C529 C290 1.543 . S
C543 C139 2.050 . S
C547 C259 2.048 . S
C561 C258 1.510 . S
C565 C59 1.539 . S
C579 C58 0.908 . S
C583 C298 0.900 . S
C597 C138 1.511 . S
C601 C299 1.536 . S
C615 C15 1.545 . S
C619 C6 1.545 . S
C633 C46 1.426 . S
C637 C55 1.426 . S
C651 C95 1.422 . S
C655 C86 1.422 . S
C669 C135 1.548 . S
C673 C126 1.548 . S
C687 C166 1.422 . S
C691 C175 1.422 . S
C705 C215 1.550 . S
C709 C206 1.550 . S
C723 C246 1.544 . S
C727 C255 1.544 . S
C741 C286 1.423 . S
C745 C295 1.423 . S
