# Generated by pormake.
# Topology snp, (6)-cn, num edge types: 1
# Building blocks:
#     Node 0, Type 0, BuildingBlock: KUMBOL_clean_sbu_0, # of connection points: 6
#     Node 1, Type 0, BuildingBlock: KUMBOL_clean_sbu_0, # of connection points: 6
#     Node 2, Type 0, BuildingBlock: KUMBOL_clean_sbu_0, # of connection points: 6
#     Node 3, Type 0, BuildingBlock: KUMBOL_clean_sbu_0, # of connection points: 6
#     Edge 4, Type (0, 0), BuildingBlock: FUNLAD_clean_linker_0, # of connection points: 2
#     Edge 5, Type (0, 0), BuildingBlock: FUNLAD_clean_linker_0, # of connection points: 2
#     Edge 6, Type (0, 0), BuildingBlock: FUNLAD_clean_linker_0, # of connection points: 2
#     Edge 7, Type (0, 0), BuildingBlock: FUNLAD_clean_linker_0, # of connection points: 2
#     Edge 8, Type (0, 0), BuildingBlock: FUNLAD_clean_linker_0, # of connection points: 2
#     Edge 9, Type (0, 0), BuildingBlock: FUNLAD_clean_linker_0, # of connection points: 2
#     Edge 10, Type (0, 0), BuildingBlock: FUNLAD_clean_linker_0, # of connection points: 2
#     Edge 11, Type (0, 0), BuildingBlock: FUNLAD_clean_linker_0, # of connection points: 2
#     Edge 12, Type (0, 0), BuildingBlock: FUNLAD_clean_linker_0, # of connection points: 2
#     Edge 13, Type (0, 0), BuildingBlock: FUNLAD_clean_linker_0, # of connection points: 2
#     Edge 14, Type (0, 0), BuildingBlock: FUNLAD_clean_linker_0, # of connection points: 2
#     Edge 15, Type (0, 0), BuildingBlock: FUNLAD_clean_linker_0, # of connection points: 2
# Relax obj value: 0.227
# Max RMSD: 0.249
# Mean RMSD: 0.228
data_MOF--net-snp--node1-KUMBOL_clean_sbu_0--edge1-FUNLAD_clean_linker_0
_symmetry_space_group_name_H-M    P1
_symmetry_Int_Tables_number       1
_symmetry_cell_setting            triclinic
loop_
_symmetry_equiv_pos_as_xyz
'x, y, z'
_cell_length_a     28.5769
_cell_length_b     30.233277
_cell_length_c     37.50823
_cell_angle_alpha  115.79805
_cell_angle_beta   99.142079
_cell_angle_gamma 93.858504
loop_
_atom_site_label
_atom_site_type_symbol
_atom_site_fract_x
_atom_site_fract_y
_atom_site_fract_z
_atom_type_partial_charge
Gd0 Gd 0.35613 0.04082 0.24872 0.0
Gd1 Gd 0.35555 0.15683 0.236 0.0
C2 C 0.39003 0.31026 0.34579 0.0
C3 C 0.3158 0.34367 0.3396 0.0
C4 C 0.32364 0.26119 0.28985 0.0
C5 C 0.3697 0.26619 0.31036 0.0
C6 C 0.29645 0.30028 0.30359 0.0
C7 C 0.36251 0.34861 0.36072 0.0
C8 C 0.43766 0.31477 0.36465 0.0
C9 C 0.46411 0.27652 0.3474 0.0
N10 N 0.39518 0.22845 0.29488 0.0
C11 C 0.44241 0.2337 0.31201 0.0
H12 H 0.46333 0.2045 0.29909 0.0
C13 C 0.26338 0.21467 0.23106 0.0
N14 N 0.3063 0.2189 0.25523 0.0
C15 C 0.23491 0.25232 0.24338 0.0
C16 C 0.25123 0.29507 0.28013 0.0
H17 H 0.25051 0.1816 0.20271 0.0
H18 H 0.37735 0.38261 0.38807 0.0
H19 H 0.25312 0.97336 0.18613 0.0
H20 H 0.45458 0.34794 0.392 0.0
H21 H 0.50124 0.27997 0.36135 0.0
H22 H 0.29534 0.37398 0.3509 0.0
H23 H 0.47094 0.04014 0.28527 0.0
H24 H 0.28336 0.83546 0.09913 0.0
H25 H 0.22523 0.89216 0.126 0.0
H26 H 0.45131 0.84213 0.1453 0.0
H27 H 0.2004 0.24825 0.22461 0.0
H28 H 0.2292 0.32425 0.2896 0.0
H29 H 0.36794 0.81715 0.10655 0.0
H30 H 0.53258 0.98544 0.26706 0.0
N31 N 0.32639 0.96381 0.19201 0.0
C32 C 0.2958 0.87122 0.12534 0.0
C33 C 0.26287 0.90306 0.14046 0.0
C34 C 0.34414 0.88525 0.14506 0.0
C35 C 0.35844 0.93228 0.17895 0.0
C36 C 0.2788 0.94911 0.17445 0.0
N37 N 0.41708 0.99098 0.23418 0.0
C38 C 0.40521 0.94611 0.20086 0.0
C39 C 0.49691 0.97399 0.24814 0.0
C40 C 0.48566 0.92835 0.2133 0.0
C41 C 0.46186 0.00483 0.25844 0.0
C42 C 0.43922 0.91366 0.18936 0.0
H43 H 0.51286 0.90451 0.20547 0.0
O44 O 0.3693 0.02978 0.3027 0.0
O45 O 0.36356 0.12294 0.27799 0.0
O46 O 0.42781 0.12941 0.23757 0.0
O47 O 0.41026 0.04393 0.21203 0.0
O48 O 0.40888 0.0939 0.30681 0.0
O49 O 0.29911 0.00361 0.26282 0.0
O50 O 0.34093 0.16551 0.18081 0.0
O51 O 0.3416 0.07441 0.20649 0.0
O52 O 0.2814 0.06179 0.24322 0.0
O53 O 0.28966 0.14661 0.25924 0.0
O54 O 0.29832 0.10924 0.18042 0.0
O55 O 0.41254 0.18805 0.21792 0.0
C56 C 0.39486 0.13464 0.30948 0.0
C57 C 0.42562 0.86748 0.15479 0.0
C58 C 0.37817 0.85329 0.13268 0.0
C59 C 0.32653 0.0052 0.29484 0.0
C60 C 0.32451 0.95859 0.29874 0.0
C61 C 0.3485 0.92066 0.27571 0.0
C62 C 0.29903 0.95188 0.32581 0.0
C63 C 0.29721 0.90711 0.32934 0.0
C64 C 0.3472 0.87665 0.27928 0.0
C65 C 0.32185 0.86984 0.30581 0.0
C66 C 0.43714 0.084 0.21639 0.0
C67 C 0.30727 0.06684 0.17766 0.0
C68 C 0.38417 0.18757 0.18682 0.0
C69 C 0.38774 0.23394 0.18274 0.0
C70 C 0.39199 0.28007 0.21679 0.0
C71 C 0.38666 0.23221 0.14449 0.0
C72 C 0.39065 0.27646 0.1404 0.0
C73 C 0.3954 0.3239 0.21286 0.0
C74 C 0.3949 0.32223 0.17503 0.0
C75 C 0.26447 0.10469 0.25366 0.0
H76 H 0.36854 0.92514 0.25515 0.0
H77 H 0.28025 0.98103 0.34356 0.0
H78 H 0.36607 0.8477 0.26148 0.0
H79 H 0.322 0.83543 0.30822 0.0
H80 H 0.3929 0.28229 0.24643 0.0
H81 H 0.38363 0.19663 0.11817 0.0
H82 H 0.39858 0.35933 0.23927 0.0
H83 H 0.39744 0.35681 0.17278 0.0
Gd84 Gd 0.22833 0.31067 0.6644 0.0
Gd85 Gd 0.11809 0.25027 0.58151 0.0
C86 C 0.98471 0.19257 0.61131 0.0
C87 C 0.97639 0.10343 0.56932 0.0
C88 C 0.04118 0.15911 0.56842 0.0
C89 C 0.02578 0.1993 0.59666 0.0
C90 C 0.01586 0.11076 0.5534 0.0
C91 C 0.96099 0.14428 0.59842 0.0
C92 C 0.96764 0.23462 0.63715 0.0
C93 C 0.99014 0.28178 0.64624 0.0
N94 N 0.04902 0.24534 0.60766 0.0
C95 C 0.03052 0.28648 0.63065 0.0
H96 H 0.0473 0.32324 0.63804 0.0
C97 C 0.09006 0.13051 0.5203 0.0
N98 N 0.07862 0.16784 0.55317 0.0
C99 C 0.06657 0.08176 0.50462 0.0
C100 C 0.02973 0.07168 0.52166 0.0
H101 H 0.11823 0.13842 0.50682 0.0
H102 H 0.92967 0.1383 0.60963 0.0
H103 H 0.31774 0.25198 0.6251 0.0
H104 H 0.93629 0.23108 0.64915 0.0
H105 H 0.9765 0.31459 0.66533 0.0
H106 H 0.95655 0.06659 0.55837 0.0
H107 H 0.20171 0.41916 0.72976 0.0
H108 H 0.42886 0.36021 0.63391 0.0
H109 H 0.39593 0.2726 0.61233 0.0
H110 H 0.37753 0.51488 0.71175 0.0
H111 H 0.07671 0.05209 0.47931 0.0
H112 H 0.01119 0.03399 0.50917 0.0
H113 H 0.42142 0.45059 0.6707 0.0
H114 H 0.2333 0.50849 0.76087 0.0
N115 N 0.30449 0.32695 0.65195 0.0
C116 C 0.39415 0.35137 0.63937 0.0
C117 C 0.37573 0.30192 0.62723 0.0
C118 C 0.36843 0.38894 0.65992 0.0
C119 C 0.32339 0.37537 0.66625 0.0
C120 C 0.33099 0.29039 0.63432 0.0
N121 N 0.25739 0.39669 0.69706 0.0
C122 C 0.29916 0.41143 0.68973 0.0
C123 C 0.25215 0.4816 0.74085 0.0
C124 C 0.29415 0.49743 0.73235 0.0
C125 C 0.23447 0.43082 0.72326 0.0
C126 C 0.31859 0.4622 0.70696 0.0
H127 H 0.30785 0.53679 0.74611 0.0
O128 O 0.23645 0.32426 0.72707 0.0
O129 O 0.15301 0.26961 0.64524 0.0
O130 O 0.12279 0.33302 0.62059 0.0
O131 O 0.20397 0.36491 0.6419 0.0
O132 O 0.17084 0.33101 0.70106 0.0
O133 O 0.27471 0.2707 0.68737 0.0
O134 O 0.09803 0.23032 0.51732 0.0
O135 O 0.19437 0.28303 0.60002 0.0
O136 O 0.23487 0.23089 0.62411 0.0
O137 O 0.15665 0.19087 0.58778 0.0
O138 O 0.17045 0.23564 0.53948 0.0
O139 O 0.07404 0.29413 0.56125 0.0
C140 C 0.13773 0.29444 0.67688 0.0
C141 C 0.36221 0.47606 0.69906 0.0
C142 C 0.38713 0.43947 0.67561 0.0
C143 C 0.26729 0.29366 0.72405 0.0
C144 C 0.30952 0.31149 0.75742 0.0
C145 C 0.34912 0.34256 0.75876 0.0
C146 C 0.30973 0.29779 0.78877 0.0
C147 C 0.34934 0.315 0.82161 0.0
C148 C 0.38859 0.35964 0.79104 0.0
C149 C 0.38879 0.3461 0.82226 0.0
C150 C 0.15877 0.36912 0.63118 0.0
C151 C 0.20696 0.26503 0.5664 0.0
C152 C 0.07111 0.26484 0.5229 0.0
C153 C 0.02286 0.24903 0.49639 0.0
C154 C 0.9829 0.23757 0.50996 0.0
C155 C 0.01667 0.24472 0.4569 0.0
C156 C 0.97072 0.22947 0.43115 0.0
C157 C 0.93745 0.22246 0.48474 0.0
C158 C 0.93129 0.21844 0.44571 0.0
C159 C 0.20274 0.1908 0.60052 0.0
H160 H 0.34944 0.3537 0.73501 0.0
H161 H 0.27911 0.27341 0.78734 0.0
H162 H 0.41903 0.38378 0.79203 0.0
H163 H 0.41954 0.36074 0.84727 0.0
H164 H 0.98677 0.24023 0.54002 0.0
H165 H 0.04753 0.25364 0.44643 0.0
H166 H 0.90683 0.21354 0.49542 0.0
H167 H 0.89566 0.20572 0.42663 0.0
Gd168 Gd 0.83007 0.99353 1.0109 0.0
Gd169 Gd 0.83104 0.10672 0.99516 0.0
C170 C 0.79393 0.25315 0.08573 0.0
C171 C 0.71799 0.25857 0.04932 0.0
C172 C 0.75971 0.18836 0.01808 0.0
C173 C 0.79572 0.20759 0.05244 0.0
C174 C 0.72068 0.21392 1.01589 0.0
C175 C 0.75454 0.27813 0.0842 0.0
C176 C 0.83229 0.27277 0.11919 0.0
C177 C 0.87176 0.24785 0.11831 0.0
N178 N 0.8334 0.18268 0.05275 0.0
C179 C 0.87199 0.20308 0.08441 0.0
H180 H 0.90281 0.18453 0.0841 0.0
C181 C 0.73014 0.12638 0.95081 0.0
N182 N 0.76318 0.14472 0.98652 0.0
C183 C 0.69081 0.1504 0.94723 0.0
C184 C 0.68578 0.1941 0.98002 0.0
H185 H 0.73344 0.09293 0.92499 0.0
H186 H 0.75241 0.313 0.10956 0.0
H187 H 0.71144 0.95276 0.95201 0.0
H188 H 0.83225 0.30758 0.14541 0.0
H189 H 0.90207 0.26309 0.1437 0.0
H190 H 0.68813 0.27856 0.0483 0.0
H191 H 0.93592 0.95515 0.02488 0.0
H192 H 0.71113 0.81972 0.84754 0.0
H193 H 0.66925 0.88552 0.88941 0.0
H194 H 0.87192 0.78743 0.86236 0.0
H195 H 0.66443 0.13522 0.9191 0.0
H196 H 0.65526 0.21261 0.97712 0.0
H197 H 0.78654 0.78441 0.83731 0.0
H198 H 0.98224 0.89214 0.98646 0.0
N199 N 0.78068 0.92843 0.94949 0.0
C200 C 0.73086 0.84966 0.87598 0.0
C201 C 0.70718 0.88672 0.8995 0.0
C202 C 0.77966 0.85159 0.88934 0.0
C203 C 0.80395 0.89154 0.92671 0.0
C204 C 0.73237 0.92568 0.93601 0.0
N205 N 0.87513 0.93158 0.97636 0.0
C206 C 0.85243 0.89356 0.94031 0.0
C207 C 0.94618 0.89267 0.9726 0.0
C208 C 0.92496 0.85609 0.93384 0.0
C209 C 0.92017 0.92933 0.99388 0.0
C210 C 0.87718 0.8553 0.91768 0.0
H211 H 0.94502 0.8274 0.91743 0.0
O212 O 0.87079 0.98673 0.06215 0.0
O213 O 0.84521 0.07671 0.04025 0.0
O214 O 0.90516 0.10608 0.02662 0.0
O215 O 0.90751 0.02453 1.01607 0.0
O216 O 0.80736 0.04529 0.06772 0.0
O217 O 0.80063 0.94247 0.03088 0.0
O218 O 0.84815 0.10494 0.93993 0.0
O219 O 0.83805 0.02658 0.97011 0.0
O220 O 0.75544 0.01388 1.00826 0.0
O221 O 0.75829 0.0915 1.00766 0.0
O222 O 0.79512 0.04715 0.93245 0.0
O223 O 0.88501 0.16312 0.99759 0.0
C224 C 0.8269 0.08687 0.07098 0.0
C225 C 0.8533 0.81663 0.88026 0.0
C226 C 0.80467 0.8148 0.86613 0.0
C227 C 0.83834 0.95221 0.05935 0.0
C228 C 0.85518 0.90932 0.06356 0.0
C229 C 0.85882 0.86591 0.02948 0.0
C230 C 0.86506 0.91077 0.10208 0.0
C231 C 0.87863 0.86915 0.10657 0.0
C232 C 0.87416 0.82542 0.03387 0.0
C233 C 0.88412 0.82694 0.07205 0.0
C234 C 0.92919 0.06992 0.02618 0.0
C235 C 0.81314 0.01061 0.93505 0.0
C236 C 0.87879 0.14562 0.95848 0.0
C237 C 0.87403 0.18169 0.94181 0.0
C238 C 0.83955 0.2135 0.95157 0.0
C239 C 0.90375 0.18436 0.91581 0.0
C240 C 0.89953 0.21947 0.90046 0.0
C241 C 0.83467 0.24756 0.93594 0.0
C242 C 0.86442 0.25071 0.91075 0.0
C243 C 0.73578 0.05307 1.00965 0.0
H244 H 0.84921 0.86285 0.99942 0.0
H245 H 0.86029 0.94353 0.12818 0.0
H246 H 0.87753 0.79235 1.00745 0.0
H247 H 0.89556 0.79475 0.07447 0.0
H248 H 0.81648 0.21214 0.97139 0.0
H249 H 0.93071 0.16012 0.90837 0.0
H250 H 0.80788 0.2719 0.9436 0.0
H251 H 0.85996 0.27772 0.89922 0.0
Gd252 Gd 0.1026 0.85364 0.65366 0.0
Gd253 Gd 0.99383 0.80883 0.5712 0.0
C254 C 0.85477 0.73183 0.57895 0.0
C255 C 0.8499 0.64713 0.52688 0.0
C256 C 0.9158 0.71053 0.53899 0.0
C257 C 0.89794 0.74515 0.56977 0.0
C258 C 0.89143 0.66138 0.51645 0.0
C259 C 0.83162 0.68231 0.55815 0.0
C260 C 0.83505 0.76911 0.60739 0.0
C261 C 0.85681 0.81848 0.62395 0.0
N262 N 0.92065 0.79281 0.58842 0.0
C263 C 0.89906 0.82978 0.61319 0.0
H264 H 0.91436 0.86822 0.6251 0.0
C265 C 0.97117 0.69475 0.49598 0.0
N266 N 0.95597 0.72577 0.5298 0.0
C267 C 0.94819 0.64563 0.47263 0.0
C268 C 0.90865 0.62859 0.48332 0.0
H269 H 0.00146 0.70742 0.48716 0.0
H270 H 0.7987 0.67126 0.56505 0.0
H271 H 0.15397 0.76321 0.66895 0.0
H272 H 0.80202 0.76047 0.61538 0.0
H273 H 0.84083 0.84794 0.64469 0.0
H274 H 0.83091 0.60941 0.5102 0.0
H275 H 0.14575 0.96624 0.66254 0.0
H276 H 0.26857 0.72925 0.60524 0.0
H277 H 0.21627 0.71126 0.64543 0.0
H278 H 0.29547 0.86886 0.57875 0.0
H279 H 0.96103 0.62096 0.4464 0.0
H280 H 0.89088 0.59055 0.46514 0.0
H281 H 0.29729 0.78798 0.57945 0.0
H282 H 0.20754 1.00181 0.64016 0.0
N283 N 0.16681 0.80655 0.63837 0.0
C284 C 0.24052 0.75142 0.61473 0.0
C285 C 0.21119 0.74124 0.63747 0.0
C286 C 0.23582 0.7927 0.60749 0.0
C287 C 0.19862 0.82031 0.62051 0.0
C288 C 0.17563 0.77051 0.65041 0.0
N289 N 0.16427 0.89303 0.63695 0.0
C290 C 0.19779 0.86562 0.62035 0.0
C291 C 0.20433 0.96301 0.6333 0.0
C292 C 0.236 0.9337 0.61256 0.0
C293 C 0.16879 0.9422 0.64561 0.0
C294 C 0.23388 0.8847 0.60683 0.0
H295 H 0.26337 0.94995 0.60297 0.0
O296 O 0.11032 0.92243 0.70923 0.0
O297 O 0.02296 0.83908 0.63741 0.0
O298 O 0.99224 0.88836 0.61469 0.0
O299 O 0.07189 0.91815 0.64878 0.0
O300 O 0.05427 0.81734 0.67893 0.0
O301 O 0.14607 0.86284 0.71051 0.0
O302 O 0.99437 0.81468 0.51531 0.0
O303 O 0.07144 0.8441 0.59231 0.0
O304 O 0.08709 0.76974 0.62111 0.0
O305 O 0.01027 0.74196 0.57931 0.0
O306 O 0.05255 0.78349 0.53653 0.0
O307 O 0.94088 0.84477 0.54968 0.0
C308 C 0.01364 0.82076 0.6604 0.0
C309 C 0.26814 0.85527 0.59009 0.0
C310 C 0.26909 0.80918 0.59038 0.0
C311 C 0.13456 0.90588 0.73199 0.0
C312 C 0.11814 0.91221 0.76925 0.0
C313 C 0.07152 0.92194 0.77367 0.0
C314 C 0.14897 0.90797 0.80059 0.0
C315 C 0.13282 0.9122 0.83548 0.0
C316 C 0.05513 0.92544 0.80773 0.0
C317 C 0.08538 0.92042 0.83835 0.0
C318 C 0.02807 0.92501 0.63668 0.0
C319 C 0.0872 0.81777 0.56142 0.0
C320 C 0.9553 0.83422 0.51612 0.0
C321 C 0.91832 0.81078 0.47844 0.0
C322 C 0.87845 0.77803 0.47459 0.0
C323 C 0.92371 0.81985 0.44543 0.0
C324 C 0.8897 0.79595 0.40859 0.0
C325 C 0.84438 0.75474 0.43837 0.0
C326 C 0.84989 0.7635 0.40557 0.0
C327 C 0.05021 0.73479 0.59762 0.0
H328 H 0.04784 0.92716 0.75087 0.0
H329 H 0.18526 0.90109 0.79771 0.0
H330 H 0.01898 0.93265 0.81063 0.0
H331 H 0.07204 0.92444 0.8649 0.0
H332 H 0.87366 0.77032 0.49949 0.0
H333 H 0.95491 0.84449 0.44817 0.0
H334 H 0.81366 0.72963 0.43565 0.0
H335 H 0.8228 0.74504 0.37784 0.0
C336 C 0.00508 0.04862 0.05333 0.0
C337 C 0.97883 0.08477 0.05022 0.0
C338 C 0.04125 0.06127 0.08723 0.0
C339 C 0.05266 0.11063 0.11767 0.0
C340 C 0.03238 0.14799 0.11114 0.0
C341 C 0.99568 0.13516 0.07742 0.0
C342 C 0.08478 0.12311 0.15656 0.0
C343 C 0.08102 0.09436 0.1754 0.0
C344 C 0.11995 0.09852 0.20799 0.0
C345 C 0.13593 0.05478 0.20572 0.0
C346 C 0.18197 0.0569 0.22593 0.0
C347 C 0.21208 0.10291 0.24857 0.0
H348 H 0.13371 0.17907 0.24021 0.0
C349 C 0.19223 0.14682 0.25731 0.0
C350 C 0.1465 0.14472 0.23653 0.0
H351 H 0.2137 0.18282 0.27683 0.0
H352 H 0.99577 0.01018 0.03106 0.0
H353 H 0.05889 0.0322 0.09045 0.0
H354 H 0.04232 0.18658 0.13354 0.0
H355 H 0.97795 0.16443 0.07485 0.0
H356 H 0.11257 0.15535 0.169 0.0
H357 H 0.05307 0.06211 0.16222 0.0
H358 H 0.11527 0.01876 0.18467 0.0
H359 H 0.19548 0.02229 0.2199 0.0
C360 C 0.05255 0.01556 0.6721 0.0
C361 C 0.02253 0.97416 0.64008 0.0
C362 C 0.07125 0.05398 0.66503 0.0
C363 C 0.06032 0.04997 0.6259 0.0
C364 C 0.02263 0.01427 0.59695 0.0
C365 C 0.00274 0.97674 0.60446 0.0
C366 C 0.09898 0.06701 0.6117 0.0
C367 C 0.13213 0.03727 0.59904 0.0
C368 C 0.17587 0.05745 0.59249 0.0
C369 C 0.20901 0.09198 0.62703 0.0
C370 C 0.23006 0.1349 0.62718 0.0
C371 C 0.21657 0.14257 0.59301 0.0
H372 H 0.14922 0.03186 0.52847 0.0
C373 C 0.19519 0.10194 0.55579 0.0
C374 C 0.17387 0.05908 0.5556 0.0
H375 H 0.18689 0.10677 0.52865 0.0
H376 H 0.0675 0.01444 0.70007 0.0
H377 H 0.10026 0.0817 0.68771 0.0
H378 H 0.01413 0.01059 0.56653 0.0
H379 H 0.97897 0.94543 0.57954 0.0
H380 H 0.10328 0.10491 0.61549 0.0
H381 H 0.12861 1.00021 0.59691 0.0
H382 H 0.21135 0.09067 0.65567 0.0
H383 H 0.24788 0.1655 0.65599 0.0
C384 C 0.6627 0.0173 0.02271 0.0
C385 C 0.68938 0.05819 0.02282 0.0
C386 C 0.62565 0.02396 0.04384 0.0
C387 C 0.61481 0.07184 0.06603 0.0
C388 C 0.63847 0.11201 0.06318 0.0
C389 C 0.67551 0.10533 0.04189 0.0
C390 C 0.58069 0.08137 0.09368 0.0
C391 C 0.5729 0.05269 0.11204 0.0
C392 C 0.54028 0.06239 0.14077 0.0
C393 C 0.51705 0.02197 0.14349 0.0
C394 C 0.48482 0.02921 0.16912 0.0
C395 C 0.47578 0.07726 0.19328 0.0
H396 H 0.55154 0.14289 0.16581 0.0
C397 C 0.50104 0.11805 0.19216 0.0
C398 C 0.5328 0.1107 0.166 0.0
H399 H 0.49565 0.15564 0.2108 0.0
H400 H 0.67186 0.98031 1.00801 0.0
H401 H 0.60659 0.99161 0.04356 0.0
H402 H 0.6302 0.14917 0.07937 0.0
H403 H 0.69521 0.13774 0.04282 0.0
H404 H 0.56343 0.11422 0.1005 0.0
H405 H 0.59034 0.02002 0.10547 0.0
H406 H 0.52277 0.98444 0.12482 0.0
H407 H 0.46614 0.99688 0.1691 0.0
C408 C 0.0995 0.42113 0.62038 0.0
C409 C 0.1475 0.41552 0.63047 0.0
C410 C 0.08851 0.46362 0.6173 0.0
C411 C 0.12535 0.50139 0.62435 0.0
C412 C 0.17321 0.49659 0.6356 0.0
C413 C 0.18429 0.45377 0.63827 0.0
C414 C 0.1147 0.54717 0.62205 0.0
C415 C 0.07585 0.54846 0.59722 0.0
C416 C 0.06543 0.59562 0.59741 0.0
C417 C 0.04522 0.5966 0.56115 0.0
C418 C 0.03879 0.64193 0.56089 0.0
C419 C 0.05232 0.68631 0.59695 0.0
H420 H 0.08946 0.64004 0.66246 0.0
C421 C 0.06949 0.68481 0.63346 0.0
C422 C 0.07596 0.63993 0.63375 0.0
H423 H 0.07814 0.71851 0.6619 0.0
H424 H 0.07021 0.39266 0.61464 0.0
H425 H 0.05115 0.46704 0.61001 0.0
H426 H 0.2021 0.52567 0.6417 0.0
H427 H 0.22162 0.45051 0.64597 0.0
H428 H 0.14062 0.58071 0.64062 0.0
H429 H 0.0525 0.51434 0.57528 0.0
H430 H 0.03607 0.56262 0.53293 0.0
H431 H 0.02513 0.64244 0.53251 0.0
C432 C 0.273 0.22067 0.54106 0.0
C433 C 0.25522 0.26582 0.55791 0.0
C434 C 0.31318 0.21739 0.52384 0.0
C435 C 0.33494 0.25854 0.52122 0.0
C436 C 0.31843 0.30451 0.53963 0.0
C437 C 0.27877 0.30811 0.55798 0.0
C438 C 0.36968 0.24969 0.49419 0.0
C439 C 0.36689 0.26819 0.46727 0.0
C440 C 0.38048 0.24096 0.42761 0.0
C441 C 0.34811 0.23444 0.39292 0.0
C442 C 0.35366 0.20111 0.35464 0.0
C443 C 0.39311 0.17536 0.34967 0.0
H444 H 0.44675 0.22112 0.44943 0.0
C445 C 0.42733 0.18417 0.38436 0.0
C446 C 0.42095 0.21649 0.42311 0.0
H447 H 0.45789 0.16446 0.38161 0.0
H448 H 0.25457 0.18726 0.53963 0.0
H449 H 0.32493 0.18153 0.5097 0.0
H450 H 0.33488 0.33703 0.53843 0.0
H451 H 0.26488 0.34302 0.57008 0.0
H452 H 0.389 0.2185 0.48953 0.0
H453 H 0.34378 0.29607 0.46966 0.0
H454 H 0.31644 0.2525 0.39547 0.0
H455 H 0.32583 0.19452 0.32922 0.0
C456 C 0.08337 0.30907 0.72512 0.0
C457 C 0.10267 0.275 0.6939 0.0
C458 C 0.05523 0.29308 0.74579 0.0
C459 C 0.04649 0.24243 0.73654 0.0
C460 C 0.06439 0.20799 0.7042 0.0
C461 C 0.09265 0.22414 0.68333 0.0
C462 C 0.01871 0.2251 0.76011 0.0
C463 C 0.01771 0.25459 0.79934 0.0
C464 C 0.98852 0.24234 0.82463 0.0
C465 C 0.98247 0.28185 0.8606 0.0
C466 C 0.95467 0.27388 0.88531 0.0
C467 C 0.93233 0.22595 0.8752 0.0
H468 H 0.97144 0.16222 0.78775 0.0
C469 C 0.93948 0.1858 0.83997 0.0
C470 C 0.96707 0.19389 0.81473 0.0
H471 H 0.92265 0.14841 0.83137 0.0
H472 H 0.09047 0.34847 0.73386 0.0
H473 H 0.04048 0.32078 0.76909 0.0
H474 H 0.05773 0.16868 0.69585 0.0
H475 H 0.1077 0.19712 0.65978 0.0
H476 H -0.00064 0.18745 0.74482 0.0
H477 H 0.03896 0.29139 0.81422 0.0
H478 H -0.0013 0.31953 0.86942 0.0
H479 H 0.95033 0.30555 0.9124 0.0
C480 C 0.90874 0.85138 0.37663 0.0
C481 C 0.89575 0.80359 0.37287 0.0
C482 C 0.9116 0.85821 0.34228 0.0
C483 C 0.90175 0.81717 0.30347 0.0
C484 C 0.89042 0.76942 0.30017 0.0
C485 C 0.88724 0.7627 0.33428 0.0
C486 C 0.90219 0.82155 0.2654 0.0
C487 C 0.90023 0.86384 0.26157 0.0
C488 C 0.89528 0.8646 0.22162 0.0
C489 C 0.91202 0.90832 0.21994 0.0
C490 C 0.90691 0.91009 0.18277 0.0
C491 C 0.88454 0.86819 0.14646 0.0
H492 H 0.8566 0.78941 0.1853 0.0
C493 C 0.86691 0.82488 0.14837 0.0
C494 C 0.87205 0.8231 0.18534 0.0
H495 H 0.84814 0.79241 0.12125 0.0
H496 H 0.91561 0.88362 0.406 0.0
H497 H 0.92155 0.89555 0.34649 0.0
H498 H 0.8831 0.73701 0.27086 0.0
H499 H 0.87803 0.72531 0.33041 0.0
H500 H 0.90224 0.78722 0.23863 0.0
H501 H 0.90166 0.89894 0.28798 0.0
H502 H 0.92947 0.94107 0.24743 0.0
H503 H 0.92094 0.94406 0.18244 0.0
C504 C 0.14879 0.88422 0.88973 0.0
C505 C 0.1653 0.91061 0.87003 0.0
C506 C 0.17614 0.88883 0.92596 0.0
C507 C 0.22051 0.92062 0.94372 0.0
C508 C 0.23844 0.94414 0.92245 0.0
C509 C 0.21118 0.93924 0.88603 0.0
C510 C 0.24733 0.93321 0.98541 0.0
C511 C 0.22602 0.92989 1.01402 0.0
C512 C 0.24825 0.9562 0.05804 0.0
C513 C 0.21838 0.97805 0.08519 0.0
C514 C 0.23797 0.011 0.1256 0.0
C515 C 0.28775 0.0211 0.14022 0.0
H516 H 0.32198 0.94658 0.05316 0.0
C517 C 0.31769 0.9959 0.11418 0.0
C518 C 0.29808 0.96376 0.07319 0.0
H519 H 0.3563 0.00399 0.12468 0.0
H520 H 0.11403 0.8609 0.87762 0.0
H521 H 0.16175 0.86822 0.94022 0.0
H522 H 0.27268 0.96842 0.93503 0.0
H523 H 0.22492 0.96005 0.87161 0.0
H524 H 0.28399 0.95227 0.99436 0.0
H525 H 0.18824 0.9148 1.00622 0.0
H526 H 0.17992 0.97267 0.07449 0.0
H527 H 0.21434 0.03079 0.145 0.0
C528 C 0.87273 0.96209 0.89986 0.0
C529 C 0.82514 0.971 0.89922 0.0
C530 C 0.88567 0.92836 0.86487 0.0
C531 C 0.8513 0.90316 0.82855 0.0
C532 C 0.80337 0.91074 0.8281 0.0
C533 C 0.79051 0.94524 0.86313 0.0
C534 C 0.86682 0.87396 0.79038 0.0
C535 C 0.90097 0.89598 0.78009 0.0
C536 C 0.92049 0.87165 0.74323 0.0
C537 C 0.93854 0.90188 0.72746 0.0
C538 C 0.96568 0.88369 0.69797 0.0
C539 C 0.97535 0.8347 0.68336 0.0
H540 H 0.91504 0.7978 0.73958 0.0
C541 C 0.95559 0.80344 0.69774 0.0
C542 C 0.92781 0.82166 0.72731 0.0
H543 H 0.96364 0.7659 0.68763 0.0
H544 H 0.90025 0.98218 0.92714 0.0
H545 H 0.92288 0.92302 0.86581 0.0
H546 H 0.7765 0.89194 0.80025 0.0
H547 H 0.75374 0.95219 0.86199 0.0
H548 H 0.84852 0.83652 0.76999 0.0
H549 H 0.91498 0.93513 0.79964 0.0
H550 H 0.93386 0.94065 0.73958 0.0
H551 H 0.98186 0.90931 0.68883 0.0
C552 C 0.27329 0.93432 0.3972 0.0
C553 C 0.2699 0.89813 0.35702 0.0
C554 C 0.25126 0.92324 0.42396 0.0
C555 C 0.22498 0.87571 0.4109 0.0
C556 C 0.22057 0.84037 0.3704 0.0
C557 C 0.2425 0.85138 0.34388 0.0
C558 C 0.20304 0.86 0.43808 0.0
C559 C 0.19632 0.89079 0.47524 0.0
C560 C 0.17195 0.87257 0.49988 0.0
C561 C 0.14532 0.90371 0.52634 0.0
C562 C 0.11944 0.88671 0.54788 0.0
C563 C 0.12042 0.83846 0.54405 0.0
H564 H 0.19518 0.8 0.47791 0.0
C565 C 0.14798 0.80766 0.51849 0.0
C566 C 0.17394 0.82466 0.49699 0.0
H567 H 0.14886 0.77013 0.51474 0.0
H568 H 0.29448 0.97056 0.40839 0.0
H569 H 0.2562 0.95154 0.45494 0.0
H570 H 0.20046 0.80358 0.35919 0.0
H571 H 0.23843 0.82283 0.31301 0.0
H572 H 0.18991 0.82059 0.42579 0.0
H573 H 0.20557 0.93069 0.48694 0.0
H574 H 0.14309 0.94065 0.52916 0.0
H575 H 0.09727 0.91065 0.56645 0.0
C576 C 0.39157 0.29139 0.87365 0.0
C577 C 0.34937 0.30142 0.85543 0.0
C578 C 0.39228 0.28091 0.90657 0.0
C579 C 0.35076 0.28036 0.92227 0.0
C580 C 0.30822 0.28868 0.90322 0.0
C581 C 0.30753 0.29934 0.87037 0.0
C582 C 0.35053 0.27141 0.95836 0.0
C583 C 0.38985 0.28307 0.98783 0.0
C584 C 0.38953 0.27896 0.02599 0.0
C585 C 0.42455 0.3102 0.06058 0.0
C586 C 0.42513 0.30884 0.0974 0.0
C587 C 0.39108 0.27561 0.10048 0.0
H588 H 0.32925 0.21914 1.00247 0.0
C589 C 0.35692 0.24303 0.0656 0.0
C590 C 0.35599 0.24477 0.02871 0.0
H591 H 0.33028 0.21696 0.06704 0.0
H592 H 0.42415 0.29136 0.86232 0.0
H593 H 0.42536 0.27286 0.91934 0.0
H594 H 0.27559 0.28813 0.91441 0.0
H595 H 0.27445 0.30718 0.85736 0.0
H596 H 0.31613 0.25863 0.96222 0.0
H597 H 0.4232 0.30023 0.98565 0.0
H598 H 0.45117 0.33648 0.05934 0.0
H599 H 0.45235 0.3339 0.12358 0.0
C600 C 0.89665 0.12817 0.12893 0.0
C601 C 0.84841 0.12575 0.11219 0.0
C602 C 0.91452 0.15515 0.17072 0.0
C603 C 0.88406 0.17945 0.1968 0.0
C604 C 0.83654 0.17941 0.17958 0.0
C605 C 0.8187 0.15224 0.13776 0.0
C606 C 0.8993 0.2025 0.24191 0.0
C607 C 0.93377 0.18747 0.26141 0.0
C608 C 0.94468 0.2038 0.30611 0.0
C609 C 0.98614 0.19133 0.3231 0.0
C610 C 0.99556 0.2012 0.36391 0.0
C611 C 0.96352 0.22355 0.38886 0.0
H612 H 0.88064 0.23745 0.32006 0.0
C613 C 0.9228 0.23747 0.37227 0.0
C614 C 0.91338 0.22768 0.3315 0.0
H615 H 0.89761 0.25531 0.3907 0.0
H616 H 0.9198 0.10664 0.11006 0.0
H617 H 0.95172 0.15541 0.1824 0.0
H618 H 0.81231 0.19808 0.19877 0.0
H619 H 0.7811 0.15 0.1256 0.0
H620 H 0.87859 0.22988 0.25913 0.0
H621 H 0.95387 0.15965 0.24373 0.0
H622 H 0.01089 0.17271 0.30446 0.0
H623 H 0.02702 0.18951 0.37546 0.0
loop_
_geom_bond_atom_site_label_1
_geom_bond_atom_site_label_2
_geom_bond_distance
_geom_bond_site_symmetry_2
_ccdc_geom_bond_type
Gd0 N31 2.661 . S
Gd0 N37 2.601 . S
Gd0 O44 2.545 . S
Gd0 O45 2.606 1_565 S
Gd0 O47 2.429 . S
Gd0 O48 2.545 1_565 S
Gd0 O49 2.412 . S
Gd0 O51 2.362 . S
Gd0 O52 2.324 . S
Gd0 C59 2.828 . S
Gd1 N10 2.661 . S
Gd1 N14 2.601 . S
Gd1 O45 2.362 . S
Gd1 O46 2.324 . S
Gd1 O50 2.545 . S
Gd1 O51 2.606 1_545 S
Gd1 O53 2.429 . S
Gd1 O54 2.545 . S
Gd1 O55 2.412 . S
Gd1 C68 2.828 . S
C2 C5 1.417 . S
C2 C7 1.431 . S
C2 C8 1.412 . S
C3 C6 1.437 . S
C3 C7 1.317 . S
C3 H22 0.929 . S
C4 C5 1.426 . S
C4 C6 1.413 . S
C4 N14 1.359 . S
C5 C2 1.417 . S
C5 C4 1.426 . S
C5 N10 1.350 . S
C6 C3 1.437 . S
C6 C4 1.413 . S
C6 C16 1.391 . S
C7 C2 1.431 . S
C7 C3 1.317 . S
C7 H18 0.930 . S
C8 C2 1.412 . S
C8 C9 1.355 . S
C8 H20 0.930 . S
C9 C8 1.355 . S
C9 C11 1.402 . S
C9 H21 0.930 . S
N10 Gd1 2.661 . S
N10 C5 1.350 . S
N10 C11 1.307 . S
C11 C9 1.402 . S
C11 N10 1.307 . S
C11 H12 0.930 . S
H12 C11 0.930 . S
C13 N14 1.334 . S
C13 C15 1.394 . S
C13 H17 0.930 . S
N14 Gd1 2.601 . S
N14 C4 1.359 . S
N14 C13 1.334 . S
C15 C13 1.394 . S
C15 C16 1.359 . S
C15 H27 0.930 . S
C16 C6 1.391 . S
C16 C15 1.359 . S
C16 H28 0.929 . S
H17 C13 0.930 . S
H18 C7 0.930 . S
H19 C36 0.930 . S
H20 C8 0.930 . S
H21 C9 0.930 . S
H22 C3 0.929 . S
H23 C41 0.930 . S
H24 C32 0.930 . S
H25 C33 0.930 . S
H26 C57 0.929 . S
H27 C15 0.930 . S
H28 C16 0.929 . S
H29 C58 0.930 1_556 S
H30 C39 0.930 . S
N31 Gd0 2.661 . S
N31 C35 1.350 . S
N31 C36 1.307 . S
C32 H24 0.930 . S
C32 C33 1.355 . S
C32 C34 1.412 . S
C33 H25 0.930 . S
C33 C32 1.355 . S
C33 C36 1.402 . S
C34 C32 1.412 . S
C34 C35 1.417 . S
C34 C58 1.431 . S
C35 N31 1.350 . S
C35 C34 1.417 . S
C35 C38 1.426 . S
C36 H19 0.930 . S
C36 N31 1.307 . S
C36 C33 1.402 . S
N37 Gd0 2.601 . S
N37 C38 1.359 . S
N37 C41 1.334 . S
C38 C35 1.426 . S
C38 N37 1.359 . S
C38 C42 1.413 . S
C39 H30 0.930 . S
C39 C40 1.359 . S
C39 C41 1.394 . S
C40 C39 1.359 . S
C40 C42 1.391 . S
C40 H43 0.929 . S
C41 H23 0.930 . S
C41 N37 1.334 . S
C41 C39 1.394 . S
C42 C38 1.413 . S
C42 C40 1.391 . S
C42 C57 1.437 . S
H43 C40 0.929 . S
O44 Gd0 2.545 . S
O44 C59 1.258 . S
O45 Gd0 2.606 1_545 S
O45 Gd1 2.362 . S
O45 C56 1.284 . S
O46 Gd1 2.324 . S
O46 C66 1.254 . S
O47 Gd0 2.429 . S
O47 C66 1.268 1_565 S
O48 Gd0 2.545 1_545 S
O48 C56 1.250 . S
O49 Gd0 2.412 . S
O49 C59 1.252 . S
O50 Gd1 2.545 . S
O50 C68 1.258 . S
O51 Gd0 2.362 . S
O51 Gd1 2.606 1_565 S
O51 C67 1.284 . S
O52 Gd0 2.324 . S
O52 C75 1.254 1_565 S
O53 Gd1 2.429 . S
O53 C75 1.268 . S
O54 Gd1 2.545 . S
O54 C67 1.250 1_545 S
O55 Gd1 2.412 . S
O55 C68 1.252 . S
C56 O45 1.284 . S
C56 O48 1.250 . S
C57 H26 0.929 . S
C57 C42 1.437 . S
C57 C58 1.317 . S
C58 H29 0.930 1_554 S
C58 C34 1.431 . S
C58 C57 1.317 . S
C59 Gd0 2.828 . S
C59 O44 1.258 . S
C59 O49 1.252 . S
C59 C60 1.497 . S
C60 C59 1.497 . S
C60 C61 1.395 . S
C60 C62 1.380 . S
C61 C60 1.395 . S
C61 C64 1.398 . S
C61 H76 0.930 . S
C62 C60 1.380 . S
C62 C63 1.391 . S
C62 H77 0.930 . S
C63 C62 1.391 . S
C63 C65 1.387 . S
C64 C61 1.398 . S
C64 C65 1.380 . S
C64 H78 0.930 . S
C65 C63 1.387 . S
C65 C64 1.380 . S
C65 H79 0.930 . S
C66 O46 1.254 . S
C66 O47 1.268 1_545 S
C67 O51 1.284 . S
C67 O54 1.250 1_565 S
C68 Gd1 2.828 . S
C68 O50 1.258 . S
C68 O55 1.252 . S
C68 C69 1.497 . S
C69 C68 1.497 . S
C69 C70 1.395 . S
C69 C71 1.380 . S
C70 C69 1.395 . S
C70 C73 1.398 . S
C70 H80 0.930 . S
C71 C69 1.380 . S
C71 C72 1.391 . S
C71 H81 0.930 . S
C72 C71 1.391 . S
C72 C74 1.387 . S
C73 C70 1.398 . S
C73 C74 1.380 . S
C73 H82 0.930 . S
C74 C72 1.387 . S
C74 C73 1.380 . S
C74 H83 0.930 . S
C75 O52 1.254 1_545 S
C75 O53 1.268 . S
H76 C61 0.930 . S
H77 C62 0.930 . S
H78 C64 0.930 . S
H79 C65 0.930 . S
H80 C70 0.930 . S
H81 C71 0.930 . S
H82 C73 0.930 . S
H83 C74 0.930 . S
Gd84 N115 2.661 . S
Gd84 N121 2.601 . S
Gd84 O128 2.545 . S
Gd84 O129 2.606 . S
Gd84 O131 2.429 . S
Gd84 O132 2.545 . S
Gd84 O133 2.412 . S
Gd84 O135 2.362 . S
Gd84 O136 2.324 . S
Gd84 C143 2.828 . S
Gd85 N94 2.661 . S
Gd85 N98 2.601 . S
Gd85 O129 2.362 . S
Gd85 O130 2.324 . S
Gd85 O134 2.545 . S
Gd85 O135 2.606 . S
Gd85 O137 2.429 . S
Gd85 O138 2.545 . S
Gd85 O139 2.412 . S
Gd85 C152 2.828 . S
C86 C89 1.417 1_655 S
C86 C91 1.431 . S
C86 C92 1.412 . S
C87 C90 1.437 . S
C87 C91 1.317 . S
C87 H106 0.929 . S
C88 C89 1.426 . S
C88 C90 1.413 1_455 S
C88 N98 1.359 . S
C89 C86 1.417 1_455 S
C89 C88 1.426 . S
C89 N94 1.350 . S
C90 C87 1.437 . S
C90 C88 1.413 1_655 S
C90 C100 1.391 . S
C91 C86 1.431 . S
C91 C87 1.317 . S
C91 H102 0.930 . S
C92 C86 1.412 . S
C92 C93 1.355 1_655 S
C92 H104 0.930 . S
C93 C92 1.355 1_455 S
C93 C95 1.402 . S
C93 H105 0.930 . S
N94 Gd85 2.661 . S
N94 C89 1.350 . S
N94 C95 1.307 . S
C95 C93 1.402 . S
C95 N94 1.307 . S
C95 H96 0.930 . S
H96 C95 0.930 . S
C97 N98 1.334 . S
C97 C99 1.394 1_455 S
C97 H101 0.930 . S
N98 Gd85 2.601 . S
N98 C88 1.359 . S
N98 C97 1.334 . S
C99 C97 1.394 1_655 S
C99 C100 1.359 . S
C99 H111 0.930 . S
C100 C90 1.391 . S
C100 C99 1.359 . S
C100 H112 0.929 . S
H101 C97 0.930 . S
H102 C91 0.930 . S
H103 C120 0.930 . S
H104 C92 0.930 . S
H105 C93 0.930 . S
H106 C87 0.929 . S
H107 C125 0.930 . S
H108 C116 0.930 . S
H109 C117 0.930 . S
H110 C141 0.929 . S
H111 C99 0.930 . S
H112 C100 0.929 . S
H113 C142 0.930 . S
H114 C123 0.930 . S
N115 Gd84 2.661 . S
N115 C119 1.350 . S
N115 C120 1.307 . S
C116 H108 0.930 . S
C116 C117 1.355 . S
C116 C118 1.412 . S
C117 H109 0.930 . S
C117 C116 1.355 . S
C117 C120 1.402 . S
C118 C116 1.412 . S
C118 C119 1.417 . S
C118 C142 1.431 . S
C119 N115 1.350 . S
C119 C118 1.417 . S
C119 C122 1.426 . S
C120 H103 0.930 . S
C120 N115 1.307 . S
C120 C117 1.402 . S
N121 Gd84 2.601 . S
N121 C122 1.359 . S
N121 C125 1.334 . S
C122 C119 1.426 . S
C122 N121 1.359 . S
C122 C126 1.413 . S
C123 H114 0.930 . S
C123 C124 1.359 . S
C123 C125 1.394 . S
C124 C123 1.359 . S
C124 C126 1.391 . S
C124 H127 0.929 . S
C125 H107 0.930 . S
C125 N121 1.334 . S
C125 C123 1.394 . S
C126 C122 1.413 . S
C126 C124 1.391 . S
C126 C141 1.437 . S
H127 C124 0.929 . S
O128 Gd84 2.545 . S
O128 C143 1.258 . S
O129 Gd84 2.606 . S
O129 Gd85 2.362 . S
O129 C140 1.284 . S
O130 Gd85 2.324 . S
O130 C150 1.254 . S
O131 Gd84 2.429 . S
O131 C150 1.268 . S
O132 Gd84 2.545 . S
O132 C140 1.250 . S
O133 Gd84 2.412 . S
O133 C143 1.252 . S
O134 Gd85 2.545 . S
O134 C152 1.258 . S
O135 Gd84 2.362 . S
O135 Gd85 2.606 . S
O135 C151 1.284 . S
O136 Gd84 2.324 . S
O136 C159 1.254 . S
O137 Gd85 2.429 . S
O137 C159 1.268 . S
O138 Gd85 2.545 . S
O138 C151 1.250 . S
O139 Gd85 2.412 . S
O139 C152 1.252 . S
C140 O129 1.284 . S
C140 O132 1.250 . S
C141 H110 0.929 . S
C141 C126 1.437 . S
C141 C142 1.317 . S
C142 H113 0.930 . S
C142 C118 1.431 . S
C142 C141 1.317 . S
C143 Gd84 2.828 . S
C143 O128 1.258 . S
C143 O133 1.252 . S
C143 C144 1.497 . S
C144 C143 1.497 . S
C144 C145 1.395 . S
C144 C146 1.380 . S
C145 C144 1.395 . S
C145 C148 1.398 . S
C145 H160 0.930 . S
C146 C144 1.380 . S
C146 C147 1.391 . S
C146 H161 0.930 . S
C147 C146 1.391 . S
C147 C149 1.387 . S
C148 C145 1.398 . S
C148 C149 1.380 . S
C148 H162 0.930 . S
C149 C147 1.387 . S
C149 C148 1.380 . S
C149 H163 0.930 . S
C150 O130 1.254 . S
C150 O131 1.268 . S
C151 O135 1.284 . S
C151 O138 1.250 . S
C152 Gd85 2.828 . S
C152 O134 1.258 . S
C152 O139 1.252 . S
C152 C153 1.497 . S
C153 C152 1.497 . S
C153 C154 1.395 . S
C153 C155 1.380 . S
C154 C153 1.395 . S
C154 C157 1.398 1_455 S
C154 H164 0.930 . S
C155 C153 1.380 . S
C155 C156 1.391 . S
C155 H165 0.930 . S
C156 C155 1.391 . S
C156 C158 1.387 1_455 S
C157 C154 1.398 1_655 S
C157 C158 1.380 . S
C157 H166 0.930 . S
C158 C156 1.387 1_655 S
C158 C157 1.380 . S
C158 H167 0.930 . S
C159 O136 1.254 . S
C159 O137 1.268 . S
H160 C145 0.930 . S
H161 C146 0.930 . S
H162 C148 0.930 . S
H163 C149 0.930 . S
H164 C154 0.930 . S
H165 C155 0.930 . S
H166 C157 0.930 . S
H167 C158 0.930 . S
Gd168 N199 2.650 1_544 S
Gd168 N205 2.601 1_545 S
Gd168 O212 2.545 1_545 S
Gd168 O213 2.606 . S
Gd168 O215 2.429 . S
Gd168 O216 2.545 . S
Gd168 O217 2.412 1_545 S
Gd168 O219 2.362 . S
Gd168 O220 2.324 . S
Gd168 C227 2.828 1_545 S
Gd169 N178 2.661 . S
Gd169 N182 2.601 . S
Gd169 O213 2.362 . S
Gd169 O214 2.324 . S
Gd169 O218 2.545 . S
Gd169 O219 2.606 . S
Gd169 O221 2.429 . S
Gd169 O222 2.545 1_554 S
Gd169 O223 2.412 . S
Gd169 C236 2.828 . S
C170 C173 1.417 . S
C170 C175 1.431 . S
C170 C176 1.412 . S
C171 C174 1.437 . S
C171 C175 1.317 . S
C171 H190 0.929 . S
C172 C173 1.426 . S
C172 C174 1.413 . S
C172 N182 1.359 . S
C173 C170 1.417 . S
C173 C172 1.426 . S
C173 N178 1.350 . S
C174 C171 1.437 . S
C174 C172 1.413 . S
C174 C184 1.391 . S
C175 C170 1.431 . S
C175 C171 1.317 . S
C175 H186 0.930 . S
C176 C170 1.412 . S
C176 C177 1.355 1_655 S
C176 H188 0.930 1_655 S
C177 C176 1.355 1_455 S
C177 C179 1.402 1_455 S
C177 H189 0.930 . S
N178 Gd169 2.661 . S
N178 C173 1.350 . S
N178 C179 1.307 . S
C179 C177 1.402 1_655 S
C179 N178 1.307 . S
C179 H180 0.930 . S
H180 C179 0.930 . S
C181 N182 1.334 . S
C181 C183 1.394 . S
C181 H185 0.930 . S
N182 Gd169 2.601 . S
N182 C172 1.359 . S
N182 C181 1.334 . S
C183 C181 1.394 . S
C183 C184 1.359 . S
C183 H195 0.930 . S
C184 C174 1.391 . S
C184 C183 1.359 . S
C184 H196 0.929 . S
H185 C181 0.930 . S
H186 C175 0.930 . S
H187 C204 0.930 . S
H188 C176 0.930 1_455 S
H189 C177 0.930 . S
H190 C171 0.929 . S
H191 C209 0.930 . S
H192 C200 0.930 . S
H193 C201 0.930 . S
H194 C225 0.929 . S
H195 C183 0.930 . S
H196 C184 0.929 . S
H197 C226 0.930 . S
H198 C207 0.930 1_455 S
N199 Gd168 2.650 1_566 S
N199 C203 1.356 . S
N199 C204 1.314 . S
C200 H192 0.930 . S
C200 C201 1.355 . S
C200 C202 1.412 . S
C201 H193 0.930 . S
C201 C200 1.355 . S
C201 C204 1.402 . S
C202 C200 1.412 . S
C202 C203 1.417 . S
C202 C226 1.431 . S
C203 N199 1.356 . S
C203 C202 1.417 . S
C203 C206 1.426 . S
C204 H187 0.930 . S
C204 N199 1.314 . S
C204 C201 1.402 . S
N205 Gd168 2.601 1_565 S
N205 C206 1.359 1_554 S
N205 C209 1.334 . S
C206 C203 1.426 . S
C206 N205 1.359 1_556 S
C206 C210 1.413 . S
C207 H198 0.930 1_655 S
C207 C208 1.359 1_554 S
C207 C209 1.394 . S
C208 C207 1.359 1_556 S
C208 C210 1.391 . S
C208 H211 0.929 . S
C209 H191 0.930 . S
C209 N205 1.334 . S
C209 C207 1.394 . S
C210 C206 1.413 . S
C210 C208 1.391 . S
C210 C225 1.437 . S
H211 C208 0.929 . S
O212 Gd168 2.545 1_565 S
O212 C227 1.258 . S
O213 Gd168 2.606 . S
O213 Gd169 2.362 . S
O213 C224 1.284 . S
O214 Gd169 2.324 . S
O214 C234 1.254 . S
O215 Gd168 2.429 . S
O215 C234 1.268 . S
O216 Gd168 2.545 . S
O216 C224 1.250 . S
O217 Gd168 2.412 1_565 S
O217 C227 1.252 . S
O218 Gd169 2.545 . S
O218 C236 1.258 . S
O219 Gd168 2.362 . S
O219 Gd169 2.606 . S
O219 C235 1.284 1_554 S
O220 Gd168 2.324 . S
O220 C243 1.254 . S
O221 Gd169 2.429 . S
O221 C243 1.268 . S
O222 Gd169 2.545 1_556 S
O222 C235 1.250 . S
O223 Gd169 2.412 . S
O223 C236 1.252 . S
C224 O213 1.284 . S
C224 O216 1.250 . S
C225 H194 0.929 . S
C225 C210 1.437 . S
C225 C226 1.317 . S
C226 H197 0.930 . S
C226 C202 1.431 . S
C226 C225 1.317 . S
C227 Gd168 2.828 1_565 S
C227 O212 1.258 . S
C227 O217 1.252 . S
C227 C228 1.497 . S
C228 C227 1.497 . S
C228 C229 1.395 . S
C228 C230 1.380 . S
C229 C228 1.395 . S
C229 C232 1.398 . S
C229 H244 0.930 . S
C230 C228 1.380 . S
C230 C231 1.391 . S
C230 H245 0.930 . S
C231 C230 1.391 . S
C231 C233 1.387 . S
C232 C229 1.398 . S
C232 C233 1.380 . S
C232 H246 0.930 . S
C233 C231 1.387 . S
C233 C232 1.380 . S
C233 H247 0.930 . S
C234 O214 1.254 . S
C234 O215 1.268 . S
C235 O219 1.284 1_556 S
C235 O222 1.250 . S
C236 Gd169 2.828 . S
C236 O218 1.258 . S
C236 O223 1.252 . S
C236 C237 1.497 1_554 S
C237 C236 1.497 1_556 S
C237 C238 1.395 . S
C237 C239 1.380 . S
C238 C237 1.395 . S
C238 C241 1.398 . S
C238 H248 0.930 . S
C239 C237 1.380 . S
C239 C240 1.391 . S
C239 H249 0.930 . S
C240 C239 1.391 . S
C240 C242 1.387 . S
C241 C238 1.398 . S
C241 C242 1.380 . S
C241 H250 0.930 . S
C242 C240 1.387 . S
C242 C241 1.380 . S
C242 H251 0.930 . S
C243 O220 1.254 . S
C243 O221 1.268 . S
H244 C229 0.930 . S
H245 C230 0.930 . S
H246 C232 0.930 . S
H247 C233 0.930 . S
H248 C238 0.930 . S
H249 C239 0.930 . S
H250 C241 0.930 . S
H251 C242 0.930 . S
Gd252 N283 2.661 . S
Gd252 N289 2.601 . S
Gd252 O296 2.545 . S
Gd252 O297 2.606 1_455 S
Gd252 O299 2.429 . S
Gd252 O300 2.545 . S
Gd252 O301 2.412 . S
Gd252 O303 2.362 . S
Gd252 O304 2.324 . S
Gd252 C311 2.828 . S
Gd253 N262 2.661 . S
Gd253 N266 2.601 . S
Gd253 O297 2.362 . S
Gd253 O298 2.324 . S
Gd253 O302 2.545 . S
Gd253 O303 2.606 1_655 S
Gd253 O305 2.429 . S
Gd253 O306 2.545 1_655 S
Gd253 O307 2.412 . S
Gd253 C320 2.828 . S
C254 C257 1.417 . S
C254 C259 1.431 . S
C254 C260 1.412 . S
C255 C258 1.437 . S
C255 C259 1.317 . S
C255 H274 0.929 . S
C256 C257 1.426 . S
C256 C258 1.413 . S
C256 N266 1.359 . S
C257 C254 1.417 . S
C257 C256 1.426 . S
C257 N262 1.350 . S
C258 C255 1.437 . S
C258 C256 1.413 . S
C258 C268 1.391 . S
C259 C254 1.431 . S
C259 C255 1.317 . S
C259 H270 0.930 . S
C260 C254 1.412 . S
C260 C261 1.355 . S
C260 H272 0.930 . S
C261 C260 1.355 . S
C261 C263 1.402 . S
C261 H273 0.930 . S
N262 Gd253 2.661 . S
N262 C257 1.350 . S
N262 C263 1.307 . S
C263 C261 1.402 . S
C263 N262 1.307 . S
C263 H264 0.930 . S
H264 C263 0.930 . S
C265 N266 1.334 . S
C265 C267 1.394 . S
C265 H269 0.930 . S
N266 Gd253 2.601 . S
N266 C256 1.359 . S
N266 C265 1.334 . S
C267 C265 1.394 . S
C267 C268 1.359 . S
C267 H279 0.930 . S
C268 C258 1.391 . S
C268 C267 1.359 . S
C268 H280 0.929 . S
H269 C265 0.930 . S
H270 C259 0.930 . S
H271 C288 0.930 . S
H272 C260 0.930 . S
H273 C261 0.930 . S
H274 C255 0.929 . S
H275 C293 0.930 . S
H276 C284 0.930 . S
H277 C285 0.930 . S
H278 C309 0.929 . S
H279 C267 0.930 . S
H280 C268 0.929 . S
H281 C310 0.930 . S
H282 C291 0.930 1_545 S
N283 Gd252 2.661 . S
N283 C287 1.350 . S
N283 C288 1.307 . S
C284 H276 0.930 . S
C284 C285 1.355 . S
C284 C286 1.412 . S
C285 H277 0.930 . S
C285 C284 1.355 . S
C285 C288 1.402 . S
C286 C284 1.412 . S
C286 C287 1.417 . S
C286 C310 1.431 . S
C287 N283 1.350 . S
C287 C286 1.417 . S
C287 C290 1.426 . S
C288 H271 0.930 . S
C288 N283 1.307 . S
C288 C285 1.402 . S
N289 Gd252 2.601 . S
N289 C290 1.359 . S
N289 C293 1.334 . S
C290 C287 1.426 . S
C290 N289 1.359 . S
C290 C294 1.413 . S
C291 H282 0.930 1_565 S
C291 C292 1.359 . S
C291 C293 1.394 . S
C292 C291 1.359 . S
C292 C294 1.391 . S
C292 H295 0.929 . S
C293 H275 0.930 . S
C293 N289 1.334 . S
C293 C291 1.394 . S
C294 C290 1.413 . S
C294 C292 1.391 . S
C294 C309 1.437 . S
H295 C292 0.929 . S
O296 Gd252 2.545 . S
O296 C311 1.258 . S
O297 Gd252 2.606 1_655 S
O297 Gd253 2.362 . S
O297 C308 1.284 . S
O298 Gd253 2.324 . S
O298 C318 1.254 1_655 S
O299 Gd252 2.429 . S
O299 C318 1.268 . S
O300 Gd252 2.545 . S
O300 C308 1.250 1_455 S
O301 Gd252 2.412 . S
O301 C311 1.252 . S
O302 Gd253 2.545 . S
O302 C320 1.258 . S
O303 Gd252 2.362 . S
O303 Gd253 2.606 1_455 S
O303 C319 1.284 . S
O304 Gd252 2.324 . S
O304 C327 1.254 . S
O305 Gd253 2.429 . S
O305 C327 1.268 1_655 S
O306 Gd253 2.545 1_455 S
O306 C319 1.250 . S
O307 Gd253 2.412 . S
O307 C320 1.252 . S
C308 O297 1.284 . S
C308 O300 1.250 1_655 S
C309 H278 0.929 . S
C309 C294 1.437 . S
C309 C310 1.317 . S
C310 H281 0.930 . S
C310 C286 1.431 . S
C310 C309 1.317 . S
C311 Gd252 2.828 . S
C311 O296 1.258 . S
C311 O301 1.252 . S
C311 C312 1.497 . S
C312 C311 1.497 . S
C312 C313 1.395 . S
C312 C314 1.380 . S
C313 C312 1.395 . S
C313 C316 1.398 . S
C313 H328 0.930 . S
C314 C312 1.380 . S
C314 C315 1.391 . S
C314 H329 0.930 . S
C315 C314 1.391 . S
C315 C317 1.387 . S
C316 C313 1.398 . S
C316 C317 1.380 . S
C316 H330 0.930 . S
C317 C315 1.387 . S
C317 C316 1.380 . S
C317 H331 0.930 . S
C318 O298 1.254 1_455 S
C318 O299 1.268 . S
C319 O303 1.284 . S
C319 O306 1.250 . S
C320 Gd253 2.828 . S
C320 O302 1.258 . S
C320 O307 1.252 . S
C320 C321 1.497 . S
C321 C320 1.497 . S
C321 C322 1.395 . S
C321 C323 1.380 . S
C322 C321 1.395 . S
C322 C325 1.398 . S
C322 H332 0.930 . S
C323 C321 1.380 . S
C323 C324 1.391 . S
C323 H333 0.930 . S
C324 C323 1.391 . S
C324 C326 1.387 . S
C325 C322 1.398 . S
C325 C326 1.380 . S
C325 H334 0.930 . S
C326 C324 1.387 . S
C326 C325 1.380 . S
C326 H335 0.930 . S
C327 O304 1.254 . S
C327 O305 1.268 1_455 S
H328 C313 0.930 . S
H329 C314 0.930 . S
H330 C316 0.930 . S
H331 C317 0.930 . S
H332 C322 0.930 . S
H333 C323 0.930 . S
H334 C325 0.930 . S
H335 C326 0.930 . S
C336 C337 1.386 1_455 S
C336 C338 1.383 . S
C336 H352 0.951 1_554 S
C337 C336 1.386 1_655 S
C337 C341 1.383 . S
C338 C336 1.383 . S
C338 C339 1.402 . S
C338 H353 0.951 . S
C339 C338 1.402 . S
C339 C340 1.375 . S
C339 C342 1.481 . S
C340 C339 1.375 . S
C340 C341 1.367 1_455 S
C340 H354 0.951 . S
C341 C337 1.383 . S
C341 C340 1.367 1_655 S
C341 H355 0.950 . S
C342 C339 1.481 . S
C342 C343 1.297 . S
C342 H356 0.950 . S
C343 C342 1.297 . S
C343 C344 1.479 . S
C343 H357 0.950 . S
C344 C343 1.479 . S
C344 C345 1.375 . S
C344 C350 1.404 . S
C345 C344 1.375 . S
C345 C346 1.369 . S
C345 H358 0.950 . S
C346 C345 1.369 . S
C346 C347 1.392 . S
C346 H359 0.957 . S
C347 C346 1.392 . S
C347 C349 1.384 . S
H348 C350 0.949 . S
C349 C347 1.384 . S
C349 C350 1.385 . S
C349 H351 0.950 . S
C350 C344 1.404 . S
C350 H348 0.949 . S
C350 C349 1.385 . S
H351 C349 0.950 . S
H352 C336 0.951 1_556 S
H353 C338 0.951 . S
H354 C340 0.951 . S
H355 C341 0.950 . S
H356 C342 0.950 . S
H357 C343 0.950 . S
H358 C345 0.950 . S
H359 C346 0.957 . S
C360 C361 1.386 . S
C360 C362 1.383 . S
C360 H376 0.951 . S
C361 C360 1.386 . S
C361 C365 1.383 . S
C362 C360 1.383 . S
C362 C363 1.402 . S
C362 H377 0.951 1_565 S
C363 C362 1.402 . S
C363 C364 1.375 . S
C363 C366 1.481 1_565 S
C364 C363 1.375 . S
C364 C365 1.367 . S
C364 H378 0.951 . S
C365 C361 1.383 . S
C365 C364 1.367 . S
C365 H379 0.950 . S
C366 C363 1.481 1_545 S
C366 C367 1.297 . S
C366 H380 0.950 . S
C367 C366 1.297 . S
C367 C368 1.479 . S
C367 H381 0.950 . S
C368 C367 1.479 . S
C368 C369 1.375 . S
C368 C374 1.404 . S
C369 C368 1.375 . S
C369 C370 1.369 . S
C369 H382 0.950 . S
C370 C369 1.369 . S
C370 C371 1.392 . S
C370 H383 0.951 . S
C371 C370 1.392 . S
C371 C373 1.384 . S
H372 C374 0.949 . S
C373 C371 1.384 . S
C373 C374 1.385 . S
C373 H375 0.950 . S
C374 C368 1.404 . S
C374 H372 0.949 . S
C374 C373 1.385 . S
H375 C373 0.950 . S
H376 C360 0.951 . S
H377 C362 0.951 1_545 S
H378 C364 0.951 . S
H379 C365 0.950 . S
H380 C366 0.950 . S
H381 C367 0.950 . S
H382 C369 0.950 . S
H383 C370 0.951 . S
C384 C385 1.386 . S
C384 C386 1.383 . S
C384 H400 0.951 . S
C385 C384 1.386 . S
C385 C389 1.383 . S
C386 C384 1.383 . S
C386 C387 1.402 . S
C386 H401 0.951 . S
C387 C386 1.402 . S
C387 C388 1.375 . S
C387 C390 1.481 . S
C388 C387 1.375 . S
C388 C389 1.367 . S
C388 H402 0.951 . S
C389 C385 1.383 . S
C389 C388 1.367 . S
C389 H403 0.950 . S
C390 C387 1.481 . S
C390 C391 1.297 . S
C390 H404 0.950 . S
C391 C390 1.297 . S
C391 C392 1.479 . S
C391 H405 0.950 . S
C392 C391 1.479 . S
C392 C393 1.375 1_545 S
C392 C398 1.404 . S
C393 C392 1.375 1_565 S
C393 C394 1.369 . S
C393 H406 0.950 . S
C394 C393 1.369 . S
C394 C395 1.392 1_565 S
C394 H407 0.951 . S
C395 C394 1.392 1_545 S
C395 C397 1.384 . S
H396 C398 0.949 . S
C397 C395 1.384 . S
C397 C398 1.385 . S
C397 H399 0.950 . S
C398 C392 1.404 . S
C398 H396 0.949 . S
C398 C397 1.385 . S
H399 C397 0.950 . S
H400 C384 0.951 . S
H401 C386 0.951 . S
H402 C388 0.951 . S
H403 C389 0.950 . S
H404 C390 0.950 . S
H405 C391 0.950 . S
H406 C393 0.950 . S
H407 C394 0.951 . S
C408 C409 1.386 . S
C408 C410 1.383 . S
C408 H424 0.951 . S
C409 C408 1.386 . S
C409 C413 1.383 . S
C410 C408 1.383 . S
C410 C411 1.402 . S
C410 H425 0.951 . S
C411 C410 1.402 . S
C411 C412 1.375 . S
C411 C414 1.481 . S
C412 C411 1.375 . S
C412 C413 1.367 . S
C412 H426 0.951 . S
C413 C409 1.383 . S
C413 C412 1.367 . S
C413 H427 0.950 . S
C414 C411 1.481 . S
C414 C415 1.297 . S
C414 H428 0.950 . S
C415 C414 1.297 . S
C415 C416 1.479 . S
C415 H429 0.950 . S
C416 C415 1.479 . S
C416 C417 1.375 . S
C416 C422 1.404 . S
C417 C416 1.375 . S
C417 C418 1.369 . S
C417 H430 0.950 . S
C418 C417 1.369 . S
C418 C419 1.392 . S
C418 H431 0.951 . S
C419 C418 1.392 . S
C419 C421 1.384 1_455 S
H420 C422 0.949 . S
C421 C419 1.384 1_655 S
C421 C422 1.385 1_655 S
C421 H423 0.950 . S
C422 C416 1.404 . S
C422 H420 0.949 . S
C422 C421 1.385 1_455 S
H423 C421 0.950 . S
H424 C408 0.951 . S
H425 C410 0.951 . S
H426 C412 0.951 . S
H427 C413 0.950 . S
H428 C414 0.950 . S
H429 C415 0.950 . S
H430 C417 0.950 . S
H431 C418 0.951 . S
C432 C433 1.386 . S
C432 C434 1.383 . S
C432 H448 0.951 . S
C433 C432 1.386 . S
C433 C437 1.383 . S
C434 C432 1.383 . S
C434 C435 1.402 . S
C434 H449 0.951 . S
C435 C434 1.402 . S
C435 C436 1.375 . S
C435 C438 1.481 . S
C436 C435 1.375 . S
C436 C437 1.367 . S
C436 H450 0.951 . S
C437 C433 1.383 . S
C437 C436 1.367 . S
C437 H451 0.950 . S
C438 C435 1.481 . S
C438 C439 1.297 . S
C438 H452 0.950 . S
C439 C438 1.297 . S
C439 C440 1.479 . S
C439 H453 0.950 . S
C440 C439 1.479 . S
C440 C441 1.375 . S
C440 C446 1.404 . S
C441 C440 1.375 . S
C441 C442 1.369 . S
C441 H454 0.950 . S
C442 C441 1.369 . S
C442 C443 1.392 . S
C442 H455 0.951 . S
C443 C442 1.392 . S
C443 C445 1.384 . S
H444 C446 0.949 . S
C445 C443 1.384 . S
C445 C446 1.385 . S
C445 H447 0.950 . S
C446 C440 1.404 . S
C446 H444 0.949 . S
C446 C445 1.385 . S
H447 C445 0.950 . S
H448 C432 0.951 . S
H449 C434 0.951 . S
H450 C436 0.951 . S
H451 C437 0.950 . S
H452 C438 0.950 . S
H453 C439 0.950 . S
H454 C441 0.950 . S
H455 C442 0.951 . S
C456 C457 1.386 . S
C456 C458 1.383 . S
C456 H472 0.951 . S
C457 C456 1.386 . S
C457 C461 1.383 . S
C458 C456 1.383 . S
C458 C459 1.402 . S
C458 H473 0.951 . S
C459 C458 1.402 . S
C459 C460 1.375 . S
C459 C462 1.481 . S
C460 C459 1.375 . S
C460 C461 1.367 . S
C460 H474 0.951 . S
C461 C457 1.383 . S
C461 C460 1.367 . S
C461 H475 0.950 . S
C462 C459 1.481 . S
C462 C463 1.297 . S
C462 H476 0.950 . S
C463 C462 1.297 . S
C463 C464 1.479 1_455 S
C463 H477 0.950 . S
C464 C463 1.479 1_655 S
C464 C465 1.375 1_655 S
C464 C470 1.404 . S
C465 C464 1.375 1_455 S
C465 C466 1.369 1_455 S
C465 H478 0.950 . S
C466 C465 1.369 1_655 S
C466 C467 1.392 . S
C466 H479 0.951 . S
C467 C466 1.392 . S
C467 C469 1.384 . S
H468 C470 0.949 . S
C469 C467 1.384 . S
C469 C470 1.385 . S
C469 H471 0.950 . S
C470 C464 1.404 . S
C470 H468 0.949 . S
C470 C469 1.385 . S
H471 C469 0.950 . S
H472 C456 0.951 . S
H473 C458 0.951 . S
H474 C460 0.951 . S
H475 C461 0.950 . S
H476 C462 0.950 . S
H477 C463 0.950 . S
H478 C465 0.950 . S
H479 C466 0.951 . S
C480 C481 1.386 . S
C480 C482 1.383 . S
C480 H496 0.951 . S
C481 C480 1.386 . S
C481 C485 1.383 . S
C482 C480 1.383 . S
C482 C483 1.402 . S
C482 H497 0.951 . S
C483 C482 1.402 . S
C483 C484 1.375 . S
C483 C486 1.481 . S
C484 C483 1.375 . S
C484 C485 1.367 . S
C484 H498 0.951 . S
C485 C481 1.383 . S
C485 C484 1.367 . S
C485 H499 0.950 . S
C486 C483 1.481 . S
C486 C487 1.297 . S
C486 H500 0.950 . S
C487 C486 1.297 . S
C487 C488 1.479 . S
C487 H501 0.950 . S
C488 C487 1.479 . S
C488 C489 1.375 . S
C488 C494 1.404 . S
C489 C488 1.375 . S
C489 C490 1.369 . S
C489 H502 0.950 . S
C490 C489 1.369 . S
C490 C491 1.392 . S
C490 H503 0.951 1_565 S
C491 C490 1.392 . S
C491 C493 1.384 . S
H492 C494 0.949 . S
C493 C491 1.384 . S
C493 C494 1.385 . S
C493 H495 0.950 . S
C494 C488 1.404 . S
C494 H492 0.949 . S
C494 C493 1.385 . S
H495 C493 0.950 . S
H496 C480 0.951 . S
H497 C482 0.951 . S
H498 C484 0.951 . S
H499 C485 0.950 . S
H500 C486 0.950 . S
H501 C487 0.950 . S
H502 C489 0.950 . S
H503 C490 0.951 1_545 S
C504 C505 1.386 . S
C504 C506 1.383 . S
C504 H520 0.951 . S
C505 C504 1.386 . S
C505 C509 1.383 . S
C506 C504 1.383 . S
C506 C507 1.402 . S
C506 H521 0.951 . S
C507 C506 1.402 . S
C507 C508 1.375 . S
C507 C510 1.481 . S
C508 C507 1.375 . S
C508 C509 1.367 . S
C508 H522 0.951 . S
C509 C505 1.383 . S
C509 C508 1.367 . S
C509 H523 0.950 . S
C510 C507 1.481 . S
C510 C511 1.297 . S
C510 H524 0.950 . S
C511 C510 1.297 . S
C511 C512 1.479 . S
C511 H525 0.950 . S
C512 C511 1.479 . S
C512 C513 1.375 1_556 S
C512 C518 1.404 . S
C513 C512 1.375 1_554 S
C513 C514 1.369 . S
C513 H526 0.950 1_554 S
C514 C513 1.369 . S
C514 C515 1.392 . S
C514 H527 0.951 . S
C515 C514 1.392 . S
C515 C517 1.384 . S
H516 C518 0.949 . S
C517 C515 1.384 . S
C517 C518 1.385 1_554 S
C517 H519 0.950 . S
C518 C512 1.404 . S
C518 H516 0.949 . S
C518 C517 1.385 1_556 S
H519 C517 0.950 . S
H520 C504 0.951 . S
H521 C506 0.951 . S
H522 C508 0.951 . S
H523 C509 0.950 . S
H524 C510 0.950 . S
H525 C511 0.950 . S
H526 C513 0.950 1_556 S
H527 C514 0.951 . S
C528 C529 1.386 . S
C528 C530 1.383 1_545 S
C528 H544 0.951 . S
C529 C528 1.386 . S
C529 C533 1.383 1_545 S
C530 C528 1.383 1_565 S
C530 C531 1.402 . S
C530 H545 0.951 1_565 S
C531 C530 1.402 . S
C531 C532 1.375 . S
C531 C534 1.481 . S
C532 C531 1.375 . S
C532 C533 1.367 . S
C532 H546 0.951 . S
C533 C529 1.383 1_565 S
C533 C532 1.367 . S
C533 H547 0.950 . S
C534 C531 1.481 . S
C534 C535 1.297 . S
C534 H548 0.950 . S
C535 C534 1.297 . S
C535 C536 1.479 . S
C535 H549 0.950 . S
C536 C535 1.479 . S
C536 C537 1.375 . S
C536 C542 1.404 . S
C537 C536 1.375 . S
C537 C538 1.369 . S
C537 H550 0.952 . S
C538 C537 1.369 . S
C538 C539 1.392 . S
C538 H551 0.951 1_655 S
C539 C538 1.392 . S
C539 C541 1.384 . S
H540 C542 0.949 . S
C541 C539 1.384 . S
C541 C542 1.385 . S
C541 H543 0.950 . S
C542 C536 1.404 . S
C542 H540 0.949 . S
C542 C541 1.385 . S
H543 C541 0.950 . S
H544 C528 0.951 . S
H545 C530 0.951 1_545 S
H546 C532 0.951 . S
H547 C533 0.950 . S
H548 C534 0.950 . S
H549 C535 0.950 . S
H550 C537 0.952 . S
H551 C538 0.951 1_455 S
C552 C553 1.386 . S
C552 C554 1.383 . S
C552 H568 0.951 . S
C553 C552 1.386 . S
C553 C557 1.383 . S
C554 C552 1.383 . S
C554 C555 1.402 . S
C554 H569 0.951 . S
C555 C554 1.402 . S
C555 C556 1.375 . S
C555 C558 1.481 . S
C556 C555 1.375 . S
C556 C557 1.367 . S
C556 H570 0.951 . S
C557 C553 1.383 . S
C557 C556 1.367 . S
C557 H571 0.950 . S
C558 C555 1.481 . S
C558 C559 1.297 . S
C558 H572 0.950 . S
C559 C558 1.297 . S
C559 C560 1.479 . S
C559 H573 0.950 . S
C560 C559 1.479 . S
C560 C561 1.375 . S
C560 C566 1.404 . S
C561 C560 1.375 . S
C561 C562 1.369 . S
C561 H574 0.950 . S
C562 C561 1.369 . S
C562 C563 1.392 . S
C562 H575 0.951 . S
C563 C562 1.392 . S
C563 C565 1.384 . S
H564 C566 0.949 . S
C565 C563 1.384 . S
C565 C566 1.385 . S
C565 H567 0.950 . S
C566 C560 1.404 . S
C566 H564 0.949 . S
C566 C565 1.385 . S
H567 C565 0.950 . S
H568 C552 0.951 . S
H569 C554 0.951 . S
H570 C556 0.951 . S
H571 C557 0.950 . S
H572 C558 0.950 . S
H573 C559 0.950 . S
H574 C561 0.950 . S
H575 C562 0.951 . S
C576 C577 1.386 . S
C576 C578 1.383 . S
C576 H592 0.951 . S
C577 C576 1.386 . S
C577 C581 1.383 . S
C578 C576 1.383 . S
C578 C579 1.402 . S
C578 H593 0.951 . S
C579 C578 1.402 . S
C579 C580 1.375 . S
C579 C582 1.481 . S
C580 C579 1.375 . S
C580 C581 1.367 . S
C580 H594 0.951 . S
C581 C577 1.383 . S
C581 C580 1.367 . S
C581 H595 0.950 . S
C582 C579 1.481 . S
C582 C583 1.297 . S
C582 H596 0.950 . S
C583 C582 1.297 . S
C583 C584 1.479 . S
C583 H597 0.950 . S
C584 C583 1.479 . S
C584 C585 1.384 . S
C584 C590 1.404 . S
C585 C584 1.384 . S
C585 C586 1.354 1_556 S
C585 H598 0.957 1_556 S
C586 C585 1.354 1_554 S
C586 C587 1.392 . S
C586 H599 0.951 . S
C587 C586 1.392 . S
C587 C589 1.384 1_554 S
H588 C590 0.949 . S
C589 C587 1.384 1_556 S
C589 C590 1.385 . S
C589 H591 0.950 . S
C590 C584 1.404 . S
C590 H588 0.949 . S
C590 C589 1.385 . S
H591 C589 0.950 . S
H592 C576 0.951 . S
H593 C578 0.951 . S
H594 C580 0.951 . S
H595 C581 0.950 . S
H596 C582 0.950 . S
H597 C583 0.950 . S
H598 C585 0.957 1_554 S
H599 C586 0.951 . S
C600 C601 1.386 . S
C600 C602 1.383 . S
C600 H616 0.951 . S
C601 C600 1.386 . S
C601 C605 1.383 . S
C602 C600 1.383 . S
C602 C603 1.402 . S
C602 H617 0.951 . S
C603 C602 1.402 . S
C603 C604 1.375 . S
C603 C606 1.481 . S
C604 C603 1.375 . S
C604 C605 1.367 . S
C604 H618 0.951 . S
C605 C601 1.383 . S
C605 C604 1.367 . S
C605 H619 0.950 . S
C606 C603 1.481 . S
C606 C607 1.297 . S
C606 H620 0.950 . S
C607 C606 1.297 . S
C607 C608 1.479 1_655 S
C607 H621 0.950 1_655 S
C608 C607 1.479 1_455 S
C608 C609 1.375 . S
C608 C614 1.404 . S
C609 C608 1.375 . S
C609 C610 1.369 . S
C609 H622 0.950 . S
C610 C609 1.369 . S
C610 C611 1.392 . S
C610 H623 0.951 . S
C611 C610 1.392 . S
C611 C613 1.384 . S
H612 C614 0.949 1_655 S
C613 C611 1.384 . S
C613 C614 1.385 . S
C613 H615 0.950 . S
C614 C608 1.404 . S
C614 H612 0.949 1_455 S
C614 C613 1.385 . S
H615 C613 0.950 . S
H616 C600 0.951 . S
H617 C602 0.951 . S
H618 C604 0.951 . S
H619 C605 0.950 . S
H620 C606 0.950 . S
H621 C607 0.950 1_455 S
H622 C609 0.950 . S
H623 C610 0.951 . S
C337 C234 0.713 . S
C347 C75 0.755 . S
C361 C318 0.405 . S
C371 C159 0.464 . S
C385 C243 1.207 . S
C395 C66 1.225 . S
C409 C150 1.234 . S
C419 C327 1.282 . S
C433 C151 1.950 . S
C443 C56 2.082 . S
C457 C140 2.182 . S
C467 C240 2.126 . S
C481 C324 1.072 . S
C491 C231 0.792 . S
C505 C315 0.735 . S
C515 C67 0.913 . S
C529 C235 2.094 . S
C539 C308 1.894 . S
C553 C63 2.176 . S
C563 C319 2.111 . S
C577 C147 1.105 . S
C587 C72 0.788 . S
C601 C224 0.841 . S
C611 C156 0.890 . S
