# Generated by pormake.
# Topology tfs, (6)-cn, num edge types: 1
# Building blocks:
#     Node 0, Type 0, BuildingBlock: BETFAJ_clean_sbu_0, # of connection points: 6
#     Node 1, Type 0, BuildingBlock: BETFAJ_clean_sbu_0, # of connection points: 6
#     Node 2, Type 0, BuildingBlock: BETFAJ_clean_sbu_0, # of connection points: 6
#     Node 3, Type 0, BuildingBlock: BETFAJ_clean_sbu_0, # of connection points: 6
#     Node 4, Type 0, BuildingBlock: BETFAJ_clean_sbu_0, # of connection points: 6
#     Node 5, Type 0, BuildingBlock: BETFAJ_clean_sbu_0, # of connection points: 6
#     Edge 6, Type (0, 0), BuildingBlock: EZIPEK_clean_linker_0, # of connection points: 2
#     Edge 7, Type (0, 0), BuildingBlock: EZIPEK_clean_linker_0, # of connection points: 2
#     Edge 8, Type (0, 0), BuildingBlock: EZIPEK_clean_linker_0, # of connection points: 2
#     Edge 9, Type (0, 0), BuildingBlock: EZIPEK_clean_linker_0, # of connection points: 2
#     Edge 10, Type (0, 0), BuildingBlock: EZIPEK_clean_linker_0, # of connection points: 2
#     Edge 11, Type (0, 0), BuildingBlock: EZIPEK_clean_linker_0, # of connection points: 2
#     Edge 12, Type (0, 0), BuildingBlock: EZIPEK_clean_linker_0, # of connection points: 2
#     Edge 13, Type (0, 0), BuildingBlock: EZIPEK_clean_linker_0, # of connection points: 2
#     Edge 14, Type (0, 0), BuildingBlock: EZIPEK_clean_linker_0, # of connection points: 2
#     Edge 15, Type (0, 0), BuildingBlock: EZIPEK_clean_linker_0, # of connection points: 2
#     Edge 16, Type (0, 0), BuildingBlock: EZIPEK_clean_linker_0, # of connection points: 2
#     Edge 17, Type (0, 0), BuildingBlock: EZIPEK_clean_linker_0, # of connection points: 2
#     Edge 18, Type (0, 0), BuildingBlock: EZIPEK_clean_linker_0, # of connection points: 2
#     Edge 19, Type (0, 0), BuildingBlock: EZIPEK_clean_linker_0, # of connection points: 2
#     Edge 20, Type (0, 0), BuildingBlock: EZIPEK_clean_linker_0, # of connection points: 2
#     Edge 21, Type (0, 0), BuildingBlock: EZIPEK_clean_linker_0, # of connection points: 2
#     Edge 22, Type (0, 0), BuildingBlock: EZIPEK_clean_linker_0, # of connection points: 2
#     Edge 23, Type (0, 0), BuildingBlock: EZIPEK_clean_linker_0, # of connection points: 2
# Relax obj value: 0.608
# Max RMSD: 0.477
# Mean RMSD: 0.367
data_MOF--net-tfs--node1-BETFAJ_clean_sbu_0--edge1-EZIPEK_clean_linker_0
_symmetry_space_group_name_H-M    P1
_symmetry_Int_Tables_number       1
_symmetry_cell_setting            triclinic
loop_
_symmetry_equiv_pos_as_xyz
'x, y, z'
_cell_length_a     44.964465
_cell_length_b     41.849546
_cell_length_c     9.7921236
_cell_angle_alpha  98.190157
_cell_angle_beta   90.699761
_cell_angle_gamma 129.29571
loop_
_atom_site_label
_atom_site_type_symbol
_atom_site_fract_x
_atom_site_fract_y
_atom_site_fract_z
_atom_type_partial_charge
Sm0 Sm 0.36745 0.48375 0.51695 0.0
Sm1 Sm 0.34487 0.54065 0.50042 0.0
C2 C 0.37629 0.42839 0.55925 0.0
C3 C 0.39793 0.41262 0.52614 0.0
C4 C 0.42436 0.4193 0.62958 0.0
C5 C 0.44175 0.40088 0.60435 0.0
C6 C 0.4329 0.37494 0.47542 0.0
C7 C 0.40686 0.36859 0.37142 0.0
C8 C 0.38961 0.38713 0.39632 0.0
C9 C 0.37915 0.51343 0.27765 0.0
C10 C 0.27308 0.44213 0.45546 0.0
C11 C 0.33956 0.59871 0.46412 0.0
C12 C 0.33063 0.62349 0.54496 0.0
C13 C 0.33288 0.65358 0.48694 0.0
C14 C 0.32792 0.68009 0.56615 0.0
C15 C 0.32076 0.677 0.70483 0.0
C16 C 0.31768 0.64625 0.76232 0.0
C17 C 0.32275 0.61974 0.68291 0.0
C18 C 0.33831 0.51492 0.74737 0.0
C19 C 0.43864 0.58534 0.55087 0.0
O20 O 0.39408 0.46483 0.64314 0.0
O21 O 0.35175 0.421 0.45991 0.0
O22 O 0.35053 0.50113 0.34163 0.0
O23 O 0.3986 0.50356 0.32678 0.0
O24 O 0.29871 0.43889 0.50468 0.0
O25 O 0.28471 0.47716 0.41819 0.0
O26 O 0.31114 0.55835 0.42287 0.0
O27 O 0.37166 0.60732 0.51079 0.0
O28 O 0.36468 0.52577 0.67382 0.0
O29 O 0.31705 0.52292 0.70083 0.0
O30 O 0.41174 0.58771 0.516 0.0
O31 O 0.42959 0.54967 0.57359 0.0
H32 H 0.43102 0.43813 0.73132 0.0
H33 H 0.46175 0.40638 0.68629 0.0
H34 H 0.39953 0.34881 0.27112 0.0
H35 H 0.36912 0.38074 0.31438 0.0
H36 H 0.3392 0.65711 0.3811 0.0
H37 H 0.33019 0.70347 0.51988 0.0
H38 H 0.31194 0.64327 0.86885 0.0
H39 H 0.32122 0.59686 0.72969 0.0
Sm40 Sm 0.91102 0.19152 0.41712 0.0
Sm41 Sm 0.82415 0.16585 0.33183 0.0
C42 C 0.98223 0.22735 0.53165 0.0
C43 C 1.02382 0.25834 0.50484 0.0
C44 C 0.04817 0.30066 0.57549 0.0
C45 C 0.08771 0.32912 0.55838 0.0
C46 C 0.10435 0.31624 0.47045 0.0
C47 C 0.08007 0.27415 0.39845 0.0
C48 C 0.04047 0.24566 0.41538 0.0
C49 C 0.88478 0.16688 0.13792 0.0
C50 C 0.82985 0.09491 0.41996 0.0
C51 C 0.76099 0.14923 0.21134 0.0
C52 C 0.73967 0.16582 0.22478 0.0
C53 C 0.71399 0.15619 0.11146 0.0
C54 C 0.69217 0.1697 0.12374 0.0
C55 C 0.69547 0.19326 0.24982 0.0
C56 C 0.72151 0.20332 0.36294 0.0
C57 C 0.74334 0.18977 0.35062 0.0
C58 C 0.85044 0.19078 0.60839 0.0
C59 C 0.90483 0.25818 0.29614 0.0
O60 O 0.96411 0.24177 0.56903 0.0
O61 O 0.95932 0.19005 0.44975 0.0
O62 O 0.86461 0.15772 0.23659 0.0
O63 O 0.91894 0.18116 0.18681 0.0
O64 O 0.86738 0.12488 0.46951 0.0
O65 O 0.80975 0.10203 0.34713 0.0
O66 O 0.79461 0.17197 0.16443 0.0
O67 O 0.76077 0.13161 0.31221 0.0
O68 O 0.87114 0.20137 0.51105 0.0
O69 O 0.81572 0.17511 0.56097 0.0
O70 O 0.86714 0.23381 0.30177 0.0
O71 O 0.92686 0.24928 0.3353 0.0
H72 H 0.03681 0.31172 0.64635 0.0
H73 H 0.1056 0.36118 0.61619 0.0
H74 H 0.09197 0.26309 0.33092 0.0
H75 H 1.02306 0.2134 0.35988 0.0
H76 H 0.71043 0.1377 0.01344 0.0
H77 H 0.67234 0.16137 0.03497 0.0
H78 H 0.72468 0.22138 0.46135 0.0
H79 H 0.76282 0.19765 0.43991 0.0
Sm80 Sm 0.67598 0.82014 0.47583 0.0
Sm81 Sm 0.62939 0.85176 0.54371 0.0
C82 C 0.69787 0.77788 0.36347 0.0
C83 C 0.72981 0.77759 0.33847 0.0
C84 C 0.72506 0.75118 0.21887 0.0
C85 C 0.75089 0.74337 0.20456 0.0
C86 C 0.78186 0.76209 0.30954 0.0
C87 C 0.78815 0.79066 0.4252 0.0
C88 C 0.76216 0.79835 0.43982 0.0
C89 C 0.68138 0.84902 0.74853 0.0
C90 C 0.7238 0.92056 0.49558 0.0
C91 C 0.6075 0.89346 0.66045 0.0
C92 C 0.59739 0.90181 0.79419 0.0
C93 C 0.59256 0.8805 0.90134 0.0
C94 C 0.58696 0.89244 0.03321 0.0
C95 C 0.58584 0.92557 0.05851 0.0
C96 C 0.59067 0.94647 0.94932 0.0
C97 C 0.59647 0.93479 0.81898 0.0
C98 C 0.62785 0.82751 0.26863 0.0
C99 C 0.58303 0.75291 0.53069 0.0
O100 O 0.69308 0.79915 0.29383 0.0
O101 O 0.69016 0.77903 0.49167 0.0
O102 O 0.65141 0.82726 0.66163 0.0
O103 O 0.71024 0.85401 0.69568 0.0
O104 O 0.72454 0.88939 0.45571 0.0
O105 O 0.693 0.91379 0.54316 0.0
O106 O 0.6437 0.90975 0.66224 0.0
O107 O 0.58299 0.85542 0.58503 0.0
O108 O 0.65534 0.84626 0.36324 0.0
O109 O 0.59951 0.82495 0.31427 0.0
O110 O 0.58627 0.78528 0.59426 0.0
O111 O 0.61063 0.75894 0.45886 0.0
H112 H 0.70015 0.73478 0.14007 0.0
H113 H 0.74568 0.72118 0.11499 0.0
H114 H 0.8119 0.80518 0.50723 0.0
H115 H 0.76624 0.81878 0.53311 0.0
H116 H 0.59388 0.8553 0.88362 0.0
H117 H 0.58422 0.87622 0.11479 0.0
H118 H 0.58982 0.97198 0.96428 0.0
H119 H 0.60071 0.95191 0.73776 0.0
Sm120 Sm 0.93339 0.59974 0.1457 0.0
Sm121 Sm 0.95303 0.5437 0.0258 0.0
C122 C 0.9235 0.64948 0.29651 0.0
C123 C 0.90593 0.66913 0.28935 0.0
C124 C 0.90912 0.69397 0.41042 0.0
C125 C 0.89041 0.71072 0.40965 0.0
C126 C 0.86828 0.70273 0.28764 0.0
C127 C 0.86557 0.67842 0.16555 0.0
C128 C 0.88433 0.66162 0.16639 0.0
C129 C 0.95112 0.60513 0.87466 0.0
C130 C 1.01679 0.62525 0.24364 0.0
C131 C 0.96681 0.49501 0.89648 0.0
C132 C 0.97234 0.46774 0.94936 0.0
C133 C 0.9671 0.43504 0.85815 0.0
C134 C 0.96418 0.40389 0.91099 0.0
C135 C 0.96537 0.40469 0.05527 0.0
C136 C 0.97369 0.43921 0.14623 0.0
C137 C 0.97751 0.47068 0.09356 0.0
C138 C 0.93206 0.53534 0.29452 0.0
C139 C 0.86737 0.51293 0.93799 0.0
O140 O 0.95386 0.66374 0.23211 0.0
O141 O 0.89939 0.60854 0.28239 0.0
O142 O 0.96742 0.60228 0.9726 0.0
O143 O 0.92597 0.60793 0.92325 0.0
O144 O 0.98815 0.62382 0.2835 0.0
O145 O 1.01308 0.60419 0.12236 0.0
O146 O 0.932 0.48291 0.89929 0.0
O147 O 0.99398 0.53545 0.94171 0.0
O148 O 0.91777 0.54032 0.19651 0.0
O149 O 0.95657 0.53175 0.24643 0.0
O150 O 0.89553 0.51406 0.89314 0.0
O151 O 0.87327 0.53959 0.04757 0.0
H152 H 0.92546 0.69971 0.50632 0.0
H153 H 0.89252 0.7292 0.50474 0.0
H154 H 0.84833 0.6718 0.07093 0.0
H155 H 0.88142 0.6422 0.07238 0.0
H156 H 0.96307 0.43229 0.74652 0.0
H157 H 0.95779 0.37741 0.83928 0.0
H158 H 0.97479 0.44047 0.25764 0.0
H159 H 0.98217 0.49592 0.1657 0.0
Sm160 Sm 0.27451 0.85088 -0.01953 0.0
Sm161 Sm 0.35823 0.90495 0.92866 0.0
C162 C 0.2063 0.79978 0.0649 0.0
C163 C 0.17353 0.75814 -0.01463 0.0
C164 C 0.13663 0.74659 0.97066 0.0
C165 C 0.1102 0.71831 0.852 0.0
C166 C 0.12097 0.70228 0.74653 0.0
C167 C 0.15606 0.71015 0.76928 0.0
C168 C 0.18181 0.73726 0.88944 0.0
C169 C 0.28214 0.8455 0.7005 0.0
C170 C 0.31267 0.93969 0.90913 0.0
C171 C 0.43067 0.9617 0.88807 0.0
C172 C 0.46569 0.97728 0.97639 0.0
C173 C 0.49285 0.97563 0.91626 0.0
C174 C 0.51916 0.97718 -2e-05 0.0
C175 C 0.51869 0.98053 0.1446 0.0
C176 C 0.49465 0.9871 0.20662 0.0
C177 C 0.46802 0.98518 0.12271 0.0
C178 C 0.3468 0.90439 0.20571 0.0
C179 C 0.31787 0.80898 0.93528 0.0
O180 O 0.21604 0.83024 0.0027 0.0
O181 O 0.23633 0.80424 0.11286 0.0
O182 O 0.30285 0.84836 0.79645 0.0
O183 O 0.25454 0.84337 0.75088 0.0
O184 O 0.29109 0.91595 -0.00173 0.0
O185 O 0.33413 0.93342 0.8413 0.0
O186 O 0.40901 0.92217 0.82546 0.0
O187 O 0.41052 0.9717 0.94248 0.0
O188 O 0.32932 0.90674 0.11253 0.0
O189 O 0.37114 0.90121 0.15179 0.0
O190 O 0.34725 0.84307 0.89365 0.0
O191 O 0.28947 0.8066 -0.01296 0.0
H192 H 0.12984 0.76266 0.04278 0.0
H193 H 0.08303 0.71228 0.836 0.0
H194 H 0.1648 0.69797 0.68935 0.0
H195 H 0.21 0.74555 0.8994 0.0
H196 H 0.49144 0.96937 0.80408 0.0
H197 H 0.53754 0.97204 0.95044 0.0
H198 H 0.49395 0.98965 0.31798 0.0
H199 H 0.44722 0.98638 0.17199 0.0
Sm200 Sm 0.5154 0.22554 0.34975 0.0
Sm201 Sm 0.58959 0.31666 0.32975 0.0
C202 C 0.46979 0.15428 0.44039 0.0
C203 C 0.44093 0.1302 0.53234 0.0
C204 C 0.41387 0.13549 0.56735 0.0
C205 C 0.38533 0.10955 0.64882 0.0
C206 C 0.38382 0.07828 0.69456 0.0
C207 C 0.41165 0.07413 0.66246 0.0
C208 C 0.43997 0.0999 0.58214 0.0
C209 C 0.52612 0.24084 0.08916 0.0
C210 C 0.50598 0.29803 0.37777 0.0
C211 C 0.63501 0.38496 0.22448 0.0
C212 C 0.66127 0.39695 0.11891 0.0
C213 C 0.6506 0.36829 -0.00467 0.0
C214 C 0.67744 0.37806 0.90306 0.0
C215 C 0.71555 0.416 0.93666 0.0
C216 C 0.72565 0.44542 0.05693 0.0
C217 C 0.69861 0.43603 0.14721 0.0
C218 C 0.57871 0.30045 0.58922 0.0
C219 C 0.60108 0.24646 0.30863 0.0
O220 O 0.50536 0.18562 0.49945 0.0
O221 O 0.45909 0.16124 0.33087 0.0
O222 O 0.55234 0.25411 0.18501 0.0
O223 O 0.49156 0.21383 0.1228 0.0
O224 O 0.48863 0.25834 0.38556 0.0
O225 O 0.5429 0.32439 0.35738 0.0
O226 O 0.59795 0.35533 0.17892 0.0
O227 O 0.64589 0.38064 0.34066 0.0
O228 O 0.5528 0.28777 0.49349 0.0
O229 O 0.61342 0.32818 0.55749 0.0
O230 O 0.61771 0.28576 0.29956 0.0
O231 O 0.56387 0.21945 0.32678 0.0
H232 H 0.41445 0.15902 0.5301 0.0
H233 H 0.36405 0.11314 0.67344 0.0
H234 H 0.41091 0.05022 0.6974 0.0
H235 H 0.46074 0.09557 0.55641 0.0
H236 H 0.62205 0.33781 0.97338 0.0
H237 H 0.66916 0.35529 0.80996 0.0
H238 H 0.75505 0.47501 0.08393 0.0
H239 H 0.70733 0.45847 0.2421 0.0
C240 C 0.46098 0.30608 0.50684 0.0
C241 C 0.48486 0.31527 0.39878 0.0
C242 C 0.47746 0.36661 0.35142 0.0
C243 C 0.45071 0.35428 0.44911 0.0
N244 N 0.41081 0.30558 0.59879 0.0
N245 N 0.50753 0.34764 0.1963 0.0
C246 C 0.44062 0.32199 0.52041 0.0
C247 C 0.49072 0.34368 0.31497 0.0
N248 N 0.4592 0.28423 0.60223 0.0
N249 N 0.49139 0.40127 0.29626 0.0
H250 H 0.51664 0.33078 0.16208 0.0
H251 H 0.50859 0.36418 0.12372 0.0
H252 H 0.4828 0.41919 0.32099 0.0
H253 H 0.51422 0.4146 0.23678 0.0
H254 H 0.44588 0.28098 0.69153 0.0
H255 H 0.47426 0.27301 0.60133 0.0
H256 H 0.39923 0.27887 0.6405 0.0
H257 H 0.39514 0.31615 0.61098 0.0
C258 C 0.20324 0.38993 0.33203 0.0
C259 C 0.22985 0.40721 0.45527 0.0
C260 C 0.17429 0.35948 0.57904 0.0
C261 C 0.14757 0.3462 0.46148 0.0
N262 N 0.13696 0.35305 0.2295 0.0
N263 N 0.23835 0.41435 0.70499 0.0
C264 C 0.16218 0.3625 0.33856 0.0
C265 C 0.21473 0.3933 0.58091 0.0
N266 N 0.21713 0.39877 0.20756 0.0
N267 N 0.16117 0.3393 0.68918 0.0
H268 H 0.26722 0.44092 0.71281 0.0
H269 H 0.22829 0.40863 0.80114 0.0
H270 H 0.13196 0.31433 0.6919 0.0
H271 H 0.17962 0.34452 0.77126 0.0
H272 H 0.19943 0.38404 0.11202 0.0
H273 H 0.24667 0.41802 0.19863 0.0
H274 H 0.14582 0.36744 0.14321 0.0
H275 H 0.10702 0.33324 0.23032 0.0
C276 C 0.78934 0.01652 0.3236 0.0
C277 C 0.80904 0.05034 0.44074 0.0
C278 C 0.7794 0.99791 0.59469 0.0
C279 C 0.75713 0.96456 0.47714 0.0
N280 N 0.74628 0.94228 0.22732 0.0
N281 N 0.83295 0.07173 0.68684 0.0
C282 C 0.76406 0.97399 0.34158 0.0
C283 C 0.80718 0.04065 0.57625 0.0
N284 N 0.79535 0.02378 0.19144 0.0
N285 N 0.77374 0.98863 0.72491 0.0
H286 H 0.85401 0.10307 0.67978 0.0
H287 H 0.83581 0.06618 0.78452 0.0
H288 H 0.75767 0.95792 0.74127 0.0
H289 H 0.78393 1.01097 0.81567 0.0
H290 H 0.81522 0.05345 0.16723 0.0
H291 H 0.81522 0.05345 0.16723 0.0
H292 H 0.75041 0.94793 0.12595 0.0
H293 H 0.72834 0.91061 0.2336 0.0
C294 C 0.81058 0.69549 0.34734 0.0
C295 C 0.84613 0.71795 0.29079 0.0
C296 C 0.83879 0.76852 0.23986 0.0
C297 C 0.80476 0.74779 0.3056 0.0
N298 N 0.76062 0.69526 0.43878 0.0
N299 N 0.89703 0.77835 0.19893 0.0
C300 C 0.79135 0.71233 0.36436 0.0
C301 C 0.86107 0.75518 0.24108 0.0
N302 N 0.79462 0.65734 0.3806 0.0
N303 N 0.84928 0.80036 0.17403 0.0
H304 H 0.91382 0.7691 0.19626 0.0
H305 H 0.91147 0.8081 0.17577 0.0
H306 H 0.83427 0.81174 0.17511 0.0
H307 H 0.87122 0.8137 0.11088 0.0
H308 H 0.76674 0.63714 0.40739 0.0
H309 H 0.808 0.64409 0.37075 0.0
H310 H 0.75235 0.67271 0.49811 0.0
H311 H 0.74491 0.70579 0.4501 0.0
C312 C 0.09798 0.70952 0.52844 0.0
C313 C 0.09902 0.6837 0.60457 0.0
C314 C 0.05935 0.62442 0.40796 0.0
C315 C 0.05166 0.64773 0.34654 0.0
N316 N 0.06446 0.71282 0.34284 0.0
N317 N 0.08189 0.61685 0.61784 0.0
C318 C 0.07153 0.69055 0.40474 0.0
C319 C 0.08052 0.64133 0.54374 0.0
N320 N 0.12331 0.75231 0.57172 0.0
N321 N 0.0464 0.58624 0.33732 0.0
H322 H 0.09642 0.6279 0.71865 0.0
H323 H 0.0659 0.5846 0.5853 0.0
H324 H 0.03176 0.57326 0.23667 0.0
H325 H 0.05366 0.56927 0.37164 0.0
H326 H 0.12642 0.77299 0.51341 0.0
H327 H 0.14417 0.76757 0.65926 0.0
H328 H 0.07383 0.74227 0.39 0.0
H329 H 0.04773 0.70092 0.24579 0.0
C330 C 0.34555 0.01576 0.97174 0.0
C331 C 0.31597 0.97588 0.88739 0.0
C332 C 0.31915 1.00881 0.69524 0.0
C333 C 0.35279 0.04778 0.77166 0.0
N334 N 0.38992 0.09192 -0.00757 0.0
N335 N 0.2659 0.93456 0.6924 0.0
C336 C 0.36275 0.05244 0.91469 0.0
C337 C 0.29943 0.97268 0.75736 0.0
N338 N 0.35916 0.018 0.10117 0.0
N339 N 0.30815 1.00612 0.56066 0.0
H340 H 0.25156 0.9082 0.739 0.0
H341 H 0.25085 0.92971 0.59969 0.0
H342 H 0.32179 0.03257 0.51505 0.0
H343 H 0.28605 0.97811 0.49378 0.0
H344 H 0.3835 0.04557 0.16318 0.0
H345 H 0.34616 0.99139 0.14519 0.0
H346 H 0.39734 0.09817 0.09955 0.0
H347 H 0.40275 0.11879 0.9497 0.0
C348 C 0.34429 0.7718 0.95267 0.0
C349 C 0.31403 0.77065 0.90031 0.0
C350 C 0.28289 0.70144 0.75425 0.0
C351 C 0.31644 0.7063 0.78763 0.0
N352 N 0.38057 0.74729 0.91351 0.0
N353 N 0.25678 0.73651 0.73514 0.0
C354 C 0.3474 0.74153 0.88708 0.0
C355 C 0.28349 0.7357 0.79848 0.0
N356 N 0.36986 0.80169 0.06584 0.0
N357 N 0.2505 0.66406 0.67931 0.0
H358 H 0.25699 0.7617 0.75841 0.0
H359 H 0.23663 0.71404 0.64958 0.0
H360 H 0.24928 0.63841 0.64516 0.0
H361 H 0.22388 0.65716 0.66338 0.0
H362 H 0.39018 0.80166 0.11778 0.0
H363 H 0.36811 0.82409 0.11609 0.0
H364 H 0.40581 0.77479 0.97232 0.0
H365 H 0.38382 0.72567 0.86882 0.0
C366 C 0.62066 0.20405 0.37434 0.0
C367 C 0.62443 0.23161 0.29104 0.0
C368 C 0.67758 0.23708 0.1912 0.0
C369 C 0.67104 0.20653 0.26398 0.0
N370 N 0.63004 0.15405 0.40116 0.0
N371 N 0.65049 0.26472 0.09149 0.0
C372 C 0.6407 0.18802 0.34847 0.0
C373 C 0.6513 0.24552 0.19163 0.0
N374 N 0.59953 0.1945 0.4833 0.0
N375 N 0.70953 0.25899 0.12385 0.0
H376 H 0.63041 0.26924 0.08047 0.0
H377 H 0.66669 0.27161 0.00872 0.0
H378 H 0.72943 0.25388 0.12126 0.0
H379 H 0.7182 0.28486 0.08216 0.0
H380 H 0.59975 0.17886 0.55663 0.0
H381 H 0.58483 0.20559 0.5098 0.0
H382 H 0.60526 0.13611 0.44969 0.0
H383 H 0.64373 0.14124 0.38445 0.0
C384 C 0.52575 0.67748 0.4176 0.0
C385 C 0.54768 0.70867 0.54045 0.0
C386 C 0.50008 0.65638 0.67775 0.0
C387 C 0.48003 0.62472 0.55509 0.0
N388 N 0.48139 0.60323 0.31569 0.0
N389 N 0.55956 0.72478 0.79166 0.0
C390 C 0.49545 0.63474 0.42764 0.0
C391 C 0.53594 0.69722 0.672 0.0
N392 N 0.53183 0.68898 0.29064 0.0
N393 N 0.48438 0.64773 0.79929 0.0
H394 H 0.58617 0.75429 0.79178 0.0
H395 H 0.55444 0.71698 0.88985 0.0
H396 H 0.45944 0.61775 0.80804 0.0
H397 H 0.49485 0.67059 0.88874 0.0
H398 H 0.51431 0.66816 0.19831 0.0
H399 H 0.55115 0.72032 0.27989 0.0
H400 H 0.49339 0.60815 0.22276 0.0
H401 H 0.46107 0.57176 0.323 0.0
C402 C 0.91253 0.32949 0.07172 0.0
C403 C 0.95157 0.36671 0.11041 0.0
C404 C 0.95957 0.3348 0.28332 0.0
C405 C 0.92208 0.29572 0.23116 0.0
N406 N 0.86838 0.25434 0.04227 0.0
N407 N 1.01477 0.40207 0.23402 0.0
C408 C 0.9002 0.29254 0.11533 0.0
C409 C 0.97597 0.36846 0.21002 0.0
N410 N 0.88642 0.32955 -0.00117 0.0
N411 N 0.97856 0.34095 0.40685 0.0
H412 H 0.02763 0.427 0.18106 0.0
H413 H 0.03446 0.40311 0.29605 0.0
H414 H 0.96649 0.31851 0.46987 0.0
H415 H 1.0044 0.3701 0.45464 0.0
H416 H 0.85676 0.30397 -0.01879 0.0
H417 H 0.89334 0.35636 0.9699 0.0
H418 H 0.85413 0.25101 0.94975 0.0
H419 H 0.85922 0.2258 0.06197 0.0
C420 C 0.51678 0.92521 0.21942 0.0
C421 C 0.5378 0.96869 0.22173 0.0
C422 C 0.59845 0.98094 0.24168 0.0
C423 C 0.5765 0.93735 0.19195 0.0
N424 N 0.52011 0.86962 0.22462 0.0
N425 N 0.598 0.03953 0.27676 0.0
C426 C 0.53734 0.90993 0.21379 0.0
C427 C 0.57871 0.99735 0.25179 0.0
N428 N 0.47727 0.89845 0.20946 0.0
N429 N 0.63784 1.006 0.26126 0.0
H430 H 0.58307 0.05108 0.28447 0.0
H431 H 0.62805 0.06263 0.29112 0.0
H432 H 0.65133 0.99285 0.24706 0.0
H433 H 0.65647 0.03843 0.29658 0.0
H434 H 0.45999 0.86583 0.18984 0.0
H435 H 0.4617 0.90916 0.21819 0.0
H436 H 0.49188 0.84834 0.24711 0.0
H437 H 0.53588 0.85924 0.22662 0.0
C438 C 0.80729 0.43836 0.91157 0.0
C439 C 0.82714 0.47821 0.87369 0.0
C440 C 0.76572 0.45993 0.79163 0.0
C441 C 0.74689 0.42491 0.8572 0.0
N442 N 0.74514 0.37076 0.92349 0.0
N443 N 0.82705 0.52333 0.74756 0.0
C444 C 0.7662 0.4104 0.89604 0.0
C445 C 0.80676 0.48739 0.80069 0.0
N446 N 0.82771 0.42906 0.97356 0.0
N447 N 0.744 0.46753 0.72918 0.0
H448 H 0.85711 0.54307 0.75296 0.0
H449 H 0.81462 0.53314 0.69583 0.0
H450 H 0.71377 0.44661 0.72248 0.0
H451 H 0.75514 0.49285 0.68034 0.0
H452 H 0.81513 0.40278 0.01874 0.0
H453 H 0.85785 0.44856 -0.01592 0.0
H454 H 0.75699 0.35693 0.94445 0.0
H455 H 0.71495 0.35009 0.9123 0.0
C456 C 0.37298 0.54977 0.12113 0.0
C457 C 0.38082 0.52292 0.13944 0.0
C458 C 0.3511 0.48362 0.90614 0.0
C459 C 0.34156 0.50933 0.8887 0.0
N460 N 0.3332 0.55867 -0.00514 0.0
N461 N 0.39285 0.47727 0.03297 0.0
C462 C 0.34926 0.53997 0.00081 0.0
C463 C 0.37474 0.49376 0.02691 0.0
N464 N 0.39139 0.58665 0.21339 0.0
N465 N 0.33528 0.4478 0.81143 0.0
H466 H 0.41366 0.48765 0.11552 0.0
H467 H 0.39155 0.45811 0.94816 0.0
H468 H 0.31544 0.43795 0.72705 0.0
H469 H 0.33782 0.42543 0.82654 0.0
H470 H 0.38909 0.60941 0.20196 0.0
H471 H 0.41411 0.59707 0.28682 0.0
H472 H 0.3361 0.57908 0.07935 0.0
H473 H 0.31261 0.54951 0.91373 0.0
C474 C 0.83797 0.1438 0.92922 0.0
C475 C 0.8762 0.17323 0.00208 0.0
C476 C 0.89608 0.21633 0.82171 0.0
C477 C 0.85939 0.18455 0.74256 0.0
N478 N 0.7975 0.11347 0.70868 0.0
N479 N 0.94343 0.23744 0.00848 0.0
C480 C 0.83064 0.14734 0.79349 0.0
C481 C 0.9059 0.20904 0.94491 0.0
N482 N 0.8085 0.11146 -0.01321 0.0
N483 N 0.92049 0.25522 0.78659 0.0
H484 H 0.95246 0.2416 0.11198 0.0
H485 H 0.96643 0.25788 0.95568 0.0
H486 H 0.91396 0.26282 0.70049 0.0
H487 H 0.94541 0.28148 0.85094 0.0
H488 H 0.77932 0.09435 0.95068 0.0
H489 H 0.81255 0.1026 0.0742 0.0
H490 H 0.7774 0.08433 0.73661 0.0
H491 H 0.79202 0.11153 0.6033 0.0
C492 C 0.65493 0.87058 0.08732 0.0
C493 C 0.63731 0.83143 0.12766 0.0
C494 C 0.66394 0.81357 0.94706 0.0
C495 C 0.67679 0.84972 0.89522 0.0
N496 N 0.68454 0.91251 0.90972 0.0
N497 N 0.62194 0.76411 0.09289 0.0
C498 C 0.67238 0.87828 0.96392 0.0
C499 C 0.64093 0.80245 0.0564 0.0
N500 N 0.65711 0.90131 0.17115 0.0
N501 N 0.67371 0.78996 0.89133 0.0
H502 H 0.60506 0.75539 0.1738 0.0
H503 H 0.62019 0.73978 0.03667 0.0
H504 H 0.69076 0.79744 0.81104 0.0
H505 H 0.66824 0.76543 0.93306 0.0
H506 H 0.67398 0.93222 0.15629 0.0
H507 H 0.64381 0.89678 0.26108 0.0
H508 H 0.67846 0.93221 0.94575 0.0
H509 H 0.69958 0.92014 0.82385 0.0
C510 C 0.92379 0.58744 0.6224 0.0
C511 C 0.95024 0.59231 0.72225 0.0
C512 C 0.95829 0.551 0.54699 0.0
C513 C 0.9323 0.54689 0.44715 0.0
N514 N 0.87699 0.54312 0.41621 0.0
N515 N 1.00314 0.59213 0.75973 0.0
C516 C 0.91115 0.55994 0.49202 0.0
C517 C 0.97049 0.57782 0.67912 0.0
N518 N 0.91282 0.61136 0.64716 0.0
N519 N 0.96888 0.52675 0.5201 0.0
H520 H 1.01678 0.61727 0.84396 0.0
H521 H 1.01956 0.58323 0.73291 0.0
H522 H 0.95624 0.50259 0.43305 0.0
H523 H 0.9853 0.52593 0.5932 0.0
H524 H 0.89546 0.61071 0.57329 0.0
H525 H 0.92547 0.63596 0.73276 0.0
H526 H 0.85844 0.54844 0.45195 0.0
H527 H 0.86498 0.51964 0.32727 0.0
C528 C 0.3007 0.89036 0.37782 0.0
C529 C 0.33315 0.89395 0.34258 0.0
C530 C 0.32494 0.85503 0.52188 0.0
C531 C 0.29316 0.85235 0.55874 0.0
N532 N 0.24086 0.84998 0.47745 0.0
N533 N 0.38456 0.89434 0.42138 0.0
C534 C 0.27794 0.86481 0.47382 0.0
C535 C 0.34774 0.88035 0.42557 0.0
N536 N 0.29351 0.91412 0.32899 0.0
N537 N 0.33158 0.83089 0.57127 0.0
H538 H 0.40432 0.91796 0.36801 0.0
H539 H 0.39737 0.88758 0.48792 0.0
H540 H 0.31233 0.80817 0.62826 0.0
H541 H 0.35248 0.82897 0.53879 0.0
H542 H 0.27145 0.91439 0.35809 0.0
H543 H 0.31323 0.93832 0.27763 0.0
H544 H 0.22743 0.85562 0.40895 0.0
H545 H 0.22165 0.82677 0.53309 0.0
C546 C 0.52568 0.27383 0.89913 0.0
C547 C 0.53484 0.25078 0.95074 0.0
C548 C 0.5777 0.26516 0.77456 0.0
C549 C 0.56922 0.2891 0.72541 0.0
N550 N 0.54413 0.32573 0.7601 0.0
N551 N 0.5608 0.21502 0.92018 0.0
C552 C 0.54547 0.29589 0.79244 0.0
C553 C 0.55862 0.24393 0.88399 0.0
N554 N 0.49734 0.27361 0.94902 0.0
N555 N 0.60522 0.26441 0.72116 0.0
H556 H 0.54572 0.19776 -0.00328 0.0
H557 H 0.57447 0.20528 0.86665 0.0
H558 H 0.6197 0.27965 0.64044 0.0
H559 H 0.61606 0.25169 0.76392 0.0
H560 H 0.48654 0.28617 0.90459 0.0
H561 H 0.48216 0.25773 0.02769 0.0
H562 H 0.53082 0.33559 0.81596 0.0
H563 H 0.55971 0.34371 0.68565 0.0
loop_
_geom_bond_atom_site_label_1
_geom_bond_atom_site_label_2
_geom_bond_distance
_geom_bond_site_symmetry_2
_ccdc_geom_bond_type
Sm0 C2 2.846 . S
Sm0 O20 2.543 . S
Sm0 O21 2.450 . S
Sm0 O22 2.681 . S
Sm0 O23 2.464 . S
Sm0 O24 2.396 . S
Sm0 O28 2.386 1_556 S
Sm0 O31 2.408 . S
Sm1 C11 2.846 1_556 S
Sm1 O22 2.386 . S
Sm1 O25 2.408 . S
Sm1 O26 2.543 . S
Sm1 O27 2.450 1_556 S
Sm1 O28 2.681 1_556 S
Sm1 O29 2.464 1_556 S
Sm1 O30 2.396 1_556 S
C2 Sm0 2.846 . S
C2 C3 1.506 . S
C2 O20 1.261 . S
C2 O21 1.242 . S
C3 C2 1.506 . S
C3 C4 1.358 . S
C3 C8 1.382 . S
C4 C3 1.358 . S
C4 C5 1.385 . S
C4 H32 0.930 1_556 S
C5 C4 1.385 . S
C5 C6 1.395 . S
C5 H33 0.929 . S
C6 C5 1.395 . S
C6 C7 1.335 . S
C7 C6 1.335 . S
C7 C8 1.398 . S
C7 H34 0.930 . S
C8 C3 1.382 . S
C8 C7 1.398 . S
C8 H35 0.929 . S
C9 O22 1.271 . S
C9 O23 1.251 . S
C10 O24 1.252 . S
C10 O25 1.272 . S
C11 Sm1 2.846 1_554 S
C11 C12 1.506 . S
C11 O26 1.261 1_554 S
C11 O27 1.242 . S
C12 C11 1.506 . S
C12 C13 1.358 1_554 S
C12 C17 1.382 . S
C13 C12 1.358 1_556 S
C13 C14 1.385 . S
C13 H36 0.930 . S
C14 C13 1.385 . S
C14 C15 1.395 1_556 S
C14 H37 0.929 . S
C15 C14 1.395 1_554 S
C15 C16 1.335 . S
C16 C15 1.335 . S
C16 C17 1.398 . S
C16 H38 0.930 . S
C17 C12 1.382 . S
C17 C16 1.398 . S
C17 H39 0.929 . S
C18 O28 1.271 . S
C18 O29 1.251 . S
C19 O30 1.252 . S
C19 O31 1.272 1_554 S
O20 Sm0 2.543 . S
O20 C2 1.261 . S
O21 Sm0 2.450 . S
O21 C2 1.242 . S
O22 Sm0 2.681 . S
O22 Sm1 2.386 . S
O22 C9 1.271 . S
O23 Sm0 2.464 . S
O23 C9 1.251 . S
O24 Sm0 2.396 . S
O24 C10 1.252 . S
O25 Sm1 2.408 . S
O25 C10 1.272 . S
O26 Sm1 2.543 . S
O26 C11 1.261 1_556 S
O27 Sm1 2.450 1_554 S
O27 C11 1.242 . S
O28 Sm0 2.386 1_554 S
O28 Sm1 2.681 1_554 S
O28 C18 1.271 . S
O29 Sm1 2.464 1_554 S
O29 C18 1.251 . S
O30 Sm1 2.396 1_554 S
O30 C19 1.252 . S
O31 Sm0 2.408 . S
O31 C19 1.272 1_556 S
H32 C4 0.930 1_554 S
H33 C5 0.929 . S
H34 C7 0.930 . S
H35 C8 0.929 . S
H36 C13 0.930 . S
H37 C14 0.929 . S
H38 C16 0.930 . S
H39 C17 0.929 . S
Sm40 C42 2.846 . S
Sm40 O60 2.543 . S
Sm40 O61 2.450 . S
Sm40 O62 2.681 1_554 S
Sm40 O63 2.464 1_554 S
Sm40 O64 2.396 . S
Sm40 O68 2.386 . S
Sm40 O71 2.408 . S
Sm41 C51 2.846 1_554 S
Sm41 O62 2.386 1_554 S
Sm41 O65 2.408 . S
Sm41 O66 2.543 1_554 S
Sm41 O67 2.450 . S
Sm41 O68 2.681 . S
Sm41 O69 2.464 . S
Sm41 O70 2.396 . S
C42 Sm40 2.846 . S
C42 C43 1.506 1_655 S
C42 O60 1.261 . S
C42 O61 1.242 . S
C43 C42 1.506 1_455 S
C43 C44 1.358 . S
C43 C48 1.382 . S
C44 C43 1.358 . S
C44 C45 1.385 . S
C44 H72 0.930 1_455 S
C45 C44 1.385 . S
C45 C46 1.395 . S
C45 H73 0.929 . S
C46 C45 1.395 . S
C46 C47 1.335 . S
C47 C46 1.335 . S
C47 C48 1.398 . S
C47 H74 0.930 . S
C48 C43 1.382 . S
C48 C47 1.398 . S
C48 H75 0.929 . S
C49 O62 1.271 . S
C49 O63 1.251 . S
C50 O64 1.252 . S
C50 O65 1.272 . S
C51 Sm41 2.846 1_556 S
C51 C52 1.506 . S
C51 O66 1.261 . S
C51 O67 1.242 1_556 S
C52 C51 1.506 . S
C52 C53 1.358 . S
C52 C57 1.382 . S
C53 C52 1.358 . S
C53 C54 1.385 . S
C53 H76 0.930 . S
C54 C53 1.385 . S
C54 C55 1.395 . S
C54 H77 0.929 . S
C55 C54 1.395 . S
C55 C56 1.335 . S
C56 C55 1.335 . S
C56 C57 1.398 . S
C56 H78 0.930 1_556 S
C57 C52 1.382 . S
C57 C56 1.398 . S
C57 H79 0.929 1_556 S
C58 O68 1.271 . S
C58 O69 1.251 . S
C59 O70 1.252 . S
C59 O71 1.272 . S
O60 Sm40 2.543 . S
O60 C42 1.261 . S
O61 Sm40 2.450 . S
O61 C42 1.242 . S
O62 Sm40 2.681 1_556 S
O62 Sm41 2.386 1_556 S
O62 C49 1.271 . S
O63 Sm40 2.464 1_556 S
O63 C49 1.251 . S
O64 Sm40 2.396 . S
O64 C50 1.252 . S
O65 Sm41 2.408 . S
O65 C50 1.272 . S
O66 Sm41 2.543 1_556 S
O66 C51 1.261 . S
O67 Sm41 2.450 . S
O67 C51 1.242 1_554 S
O68 Sm40 2.386 . S
O68 Sm41 2.681 . S
O68 C58 1.271 . S
O69 Sm41 2.464 . S
O69 C58 1.251 . S
O70 Sm41 2.396 . S
O70 C59 1.252 . S
O71 Sm40 2.408 . S
O71 C59 1.272 . S
H72 C44 0.930 1_655 S
H73 C45 0.929 . S
H74 C47 0.930 . S
H75 C48 0.929 . S
H76 C53 0.930 . S
H77 C54 0.929 . S
H78 C56 0.930 1_554 S
H79 C57 0.929 1_554 S
Sm80 C82 2.846 . S
Sm80 O100 2.543 . S
Sm80 O101 2.450 1_556 S
Sm80 O102 2.681 1_556 S
Sm80 O103 2.464 1_556 S
Sm80 O104 2.396 1_556 S
Sm80 O108 2.386 . S
Sm80 O111 2.408 1_556 S
Sm81 C91 2.846 . S
Sm81 O102 2.386 . S
Sm81 O105 2.408 1_554 S
Sm81 O106 2.543 . S
Sm81 O107 2.450 1_554 S
Sm81 O108 2.681 1_554 S
Sm81 O109 2.464 1_554 S
Sm81 O110 2.396 1_554 S
C82 Sm80 2.846 . S
C82 C83 1.506 . S
C82 O100 1.261 . S
C82 O101 1.242 1_556 S
C83 C82 1.506 . S
C83 C84 1.358 . S
C83 C88 1.382 . S
C84 C83 1.358 . S
C84 C85 1.385 . S
C84 H112 0.930 . S
C85 C84 1.385 . S
C85 C86 1.395 . S
C85 H113 0.929 . S
C86 C85 1.395 . S
C86 C87 1.335 . S
C87 C86 1.335 . S
C87 C88 1.398 . S
C87 H114 0.930 . S
C88 C83 1.382 . S
C88 C87 1.398 . S
C88 H115 0.929 1_556 S
C89 O102 1.271 . S
C89 O103 1.251 . S
C90 O104 1.252 1_556 S
C90 O105 1.269 . S
C91 Sm81 2.846 . S
C91 C92 1.506 . S
C91 O106 1.261 . S
C91 O107 1.242 1_554 S
C92 C91 1.506 . S
C92 C93 1.358 . S
C92 C97 1.382 . S
C93 C92 1.358 . S
C93 C94 1.385 . S
C93 H116 0.930 . S
C94 C93 1.385 . S
C94 C95 1.395 . S
C94 H117 0.929 . S
C95 C94 1.395 . S
C95 C96 1.335 . S
C96 C95 1.335 . S
C96 C97 1.398 . S
C96 H118 0.930 . S
C97 C92 1.382 . S
C97 C96 1.398 . S
C97 H119 0.929 1_554 S
C98 O108 1.271 . S
C98 O109 1.251 . S
C99 O110 1.252 1_554 S
C99 O111 1.272 . S
O100 Sm80 2.543 . S
O100 C82 1.261 . S
O101 Sm80 2.450 1_554 S
O101 C82 1.242 1_554 S
O102 Sm80 2.681 1_554 S
O102 Sm81 2.386 . S
O102 C89 1.271 . S
O103 Sm80 2.464 1_554 S
O103 C89 1.251 . S
O104 Sm80 2.396 1_554 S
O104 C90 1.252 1_554 S
O105 Sm81 2.408 1_556 S
O105 C90 1.269 . S
O106 Sm81 2.543 . S
O106 C91 1.261 . S
O107 Sm81 2.450 1_556 S
O107 C91 1.242 1_556 S
O108 Sm80 2.386 . S
O108 Sm81 2.681 1_556 S
O108 C98 1.271 . S
O109 Sm81 2.464 1_556 S
O109 C98 1.251 . S
O110 Sm81 2.396 1_556 S
O110 C99 1.252 1_556 S
O111 Sm80 2.408 1_554 S
O111 C99 1.272 . S
H112 C84 0.930 . S
H113 C85 0.929 . S
H114 C87 0.930 . S
H115 C88 0.929 1_554 S
H116 C93 0.930 . S
H117 C94 0.929 . S
H118 C96 0.930 . S
H119 C97 0.929 1_556 S
Sm120 C122 2.846 . S
Sm120 O140 2.543 . S
Sm120 O141 2.450 1_554 S
Sm120 O142 2.681 1_554 S
Sm120 O143 2.464 1_554 S
Sm120 O144 2.396 . S
Sm120 O148 2.386 . S
Sm120 O151 2.408 1_554 S
Sm121 C131 2.846 . S
Sm121 O142 2.386 . S
Sm121 O145 2.408 1_556 S
Sm121 O146 2.543 . S
Sm121 O147 2.450 1_556 S
Sm121 O148 2.681 1_556 S
Sm121 O149 2.464 1_556 S
Sm121 O150 2.396 . S
C122 Sm120 2.846 . S
C122 C123 1.506 . S
C122 O140 1.261 . S
C122 O141 1.242 1_554 S
C123 C122 1.506 . S
C123 C124 1.358 . S
C123 C128 1.382 . S
C124 C123 1.358 . S
C124 C125 1.385 . S
C124 H152 0.930 . S
C125 C124 1.385 . S
C125 C126 1.395 . S
C125 H153 0.929 . S
C126 C125 1.395 . S
C126 C127 1.335 . S
C127 C126 1.335 . S
C127 C128 1.398 . S
C127 H154 0.930 . S
C128 C123 1.382 . S
C128 C127 1.398 . S
C128 H155 0.929 1_554 S
C129 O142 1.271 . S
C129 O143 1.251 . S
C130 O144 1.252 . S
C130 O145 1.272 . S
C131 Sm121 2.846 . S
C131 C132 1.506 . S
C131 O146 1.261 . S
C131 O147 1.242 1_556 S
C132 C131 1.506 . S
C132 C133 1.358 . S
C132 C137 1.382 . S
C133 C132 1.358 . S
C133 C134 1.385 . S
C133 H156 0.930 . S
C134 C133 1.385 . S
C134 C135 1.395 . S
C134 H157 0.929 . S
C135 C134 1.395 . S
C135 C136 1.335 . S
C136 C135 1.335 . S
C136 C137 1.398 . S
C136 H158 0.930 . S
C137 C132 1.382 . S
C137 C136 1.398 . S
C137 H159 0.929 1_556 S
C138 O148 1.271 . S
C138 O149 1.251 . S
C139 O150 1.252 . S
C139 O151 1.272 . S
O140 Sm120 2.543 . S
O140 C122 1.261 . S
O141 Sm120 2.450 1_556 S
O141 C122 1.242 1_556 S
O142 Sm120 2.681 1_556 S
O142 Sm121 2.386 . S
O142 C129 1.271 . S
O143 Sm120 2.464 1_556 S
O143 C129 1.251 . S
O144 Sm120 2.396 . S
O144 C130 1.252 . S
O145 Sm121 2.408 1_554 S
O145 C130 1.272 . S
O146 Sm121 2.543 . S
O146 C131 1.261 . S
O147 Sm121 2.450 1_554 S
O147 C131 1.242 1_554 S
O148 Sm120 2.386 . S
O148 Sm121 2.681 1_554 S
O148 C138 1.271 . S
O149 Sm121 2.464 1_554 S
O149 C138 1.251 . S
O150 Sm121 2.396 . S
O150 C139 1.252 . S
O151 Sm120 2.408 1_556 S
O151 C139 1.272 . S
H152 C124 0.930 . S
H153 C125 0.929 . S
H154 C127 0.930 . S
H155 C128 0.929 1_556 S
H156 C133 0.930 . S
H157 C134 0.929 . S
H158 C136 0.930 . S
H159 C137 0.929 1_554 S
Sm160 C162 2.846 . S
Sm160 O180 2.543 1_556 S
Sm160 O181 2.450 . S
Sm160 O182 2.681 . S
Sm160 O183 2.464 . S
Sm160 O184 2.396 . S
Sm160 O188 2.386 1_556 S
Sm160 O191 2.408 . S
Sm161 C171 2.846 . S
Sm161 O182 2.386 1_554 S
Sm161 O185 2.408 . S
Sm161 O186 2.543 1_554 S
Sm161 O187 2.450 . S
Sm161 O188 2.681 . S
Sm161 O189 2.464 . S
Sm161 O190 2.396 . S
C162 Sm160 2.846 . S
C162 C163 1.506 . S
C162 O180 1.261 1_556 S
C162 O181 1.242 . S
C163 C162 1.506 . S
C163 C164 1.358 . S
C163 C168 1.382 . S
C164 C163 1.358 . S
C164 C165 1.385 . S
C164 H192 0.930 1_556 S
C165 C164 1.385 . S
C165 C166 1.395 . S
C165 H193 0.929 1_556 S
C166 C165 1.395 . S
C166 C167 1.335 . S
C167 C166 1.335 . S
C167 C168 1.398 . S
C167 H194 0.930 . S
C168 C163 1.382 . S
C168 C167 1.398 . S
C168 H195 0.929 . S
C169 O182 1.271 . S
C169 O183 1.251 . S
C170 O184 1.252 . S
C170 O185 1.272 1_556 S
C171 Sm161 2.846 . S
C171 C172 1.506 . S
C171 O186 1.261 1_554 S
C171 O187 1.242 . S
C172 C171 1.506 . S
C172 C173 1.358 . S
C172 C177 1.382 . S
C173 C172 1.358 . S
C173 C174 1.385 . S
C173 H196 0.930 1_554 S
C174 C173 1.385 . S
C174 C175 1.395 . S
C174 H197 0.929 1_554 S
C175 C174 1.395 . S
C175 C176 1.335 . S
C176 C175 1.335 . S
C176 C177 1.398 . S
C176 H198 0.930 . S
C177 C172 1.382 . S
C177 C176 1.398 . S
C177 H199 0.929 . S
C178 O188 1.271 . S
C178 O189 1.251 . S
C179 O190 1.252 . S
C179 O191 1.272 1_554 S
O180 Sm160 2.543 1_554 S
O180 C162 1.261 1_554 S
O181 Sm160 2.450 . S
O181 C162 1.242 . S
O182 Sm160 2.681 . S
O182 Sm161 2.386 1_556 S
O182 C169 1.271 . S
O183 Sm160 2.464 . S
O183 C169 1.251 . S
O184 Sm160 2.396 . S
O184 C170 1.252 . S
O185 Sm161 2.408 . S
O185 C170 1.272 1_554 S
O186 Sm161 2.543 1_556 S
O186 C171 1.261 1_556 S
O187 Sm161 2.450 . S
O187 C171 1.242 . S
O188 Sm160 2.386 1_554 S
O188 Sm161 2.681 . S
O188 C178 1.271 . S
O189 Sm161 2.464 . S
O189 C178 1.251 . S
O190 Sm161 2.396 . S
O190 C179 1.252 . S
O191 Sm160 2.408 . S
O191 C179 1.272 1_556 S
H192 C164 0.930 1_554 S
H193 C165 0.929 1_554 S
H194 C167 0.930 . S
H195 C168 0.929 . S
H196 C173 0.930 1_556 S
H197 C174 0.929 1_556 S
H198 C176 0.930 . S
H199 C177 0.929 . S
Sm200 C202 2.846 1_556 S
Sm200 O220 2.543 1_556 S
Sm200 O221 2.450 . S
Sm200 O222 2.681 . S
Sm200 O223 2.464 . S
Sm200 O224 2.396 . S
Sm200 O228 2.386 1_556 S
Sm200 O231 2.408 . S
Sm201 C211 2.846 1_554 S
Sm201 O222 2.386 1_554 S
Sm201 O225 2.408 . S
Sm201 O226 2.543 1_554 S
Sm201 O227 2.450 . S
Sm201 O228 2.681 . S
Sm201 O229 2.464 . S
Sm201 O230 2.396 . S
C202 Sm200 2.846 1_554 S
C202 C203 1.506 . S
C202 O220 1.261 . S
C202 O221 1.242 1_554 S
C203 C202 1.506 . S
C203 C204 1.358 . S
C203 C208 1.382 1_544 S
C204 C203 1.358 . S
C204 C205 1.385 1_545 S
C204 H232 0.930 . S
C205 C204 1.385 1_565 S
C205 C206 1.395 . S
C205 H233 0.929 . S
C206 C205 1.395 . S
C206 C207 1.335 1_554 S
C207 C206 1.335 1_556 S
C207 C208 1.398 . S
C207 H234 0.930 . S
C208 C203 1.382 1_566 S
C208 C207 1.398 . S
C208 H235 0.929 . S
C209 O222 1.271 . S
C209 O223 1.251 . S
C210 O224 1.252 1_554 S
C210 O225 1.272 . S
C211 Sm201 2.846 1_556 S
C211 C212 1.506 . S
C211 O226 1.261 . S
C211 O227 1.242 1_556 S
C212 C211 1.506 . S
C212 C213 1.358 . S
C212 C217 1.382 1_556 S
C213 C212 1.358 . S
C213 C214 1.385 . S
C213 H236 0.930 . S
C214 C213 1.385 . S
C214 C215 1.395 . S
C214 H237 0.929 . S
C215 C214 1.395 . S
C215 C216 1.335 1_556 S
C216 C215 1.335 1_554 S
C216 C217 1.398 . S
C216 H238 0.930 . S
C217 C212 1.382 1_554 S
C217 C216 1.398 . S
C217 H239 0.929 . S
C218 O228 1.271 . S
C218 O229 1.251 . S
C219 O230 1.252 1_556 S
C219 O231 1.272 . S
O220 Sm200 2.543 1_554 S
O220 C202 1.261 . S
O221 Sm200 2.450 . S
O221 C202 1.242 1_556 S
O222 Sm200 2.681 . S
O222 Sm201 2.386 1_556 S
O222 C209 1.271 . S
O223 Sm200 2.464 . S
O223 C209 1.251 . S
O224 Sm200 2.396 . S
O224 C210 1.252 1_556 S
O225 Sm201 2.408 . S
O225 C210 1.272 . S
O226 Sm201 2.543 1_556 S
O226 C211 1.261 . S
O227 Sm201 2.450 . S
O227 C211 1.242 1_554 S
O228 Sm200 2.386 1_554 S
O228 Sm201 2.681 . S
O228 C218 1.271 . S
O229 Sm201 2.464 . S
O229 C218 1.251 . S
O230 Sm201 2.396 . S
O230 C219 1.252 1_554 S
O231 Sm200 2.408 . S
O231 C219 1.272 . S
H232 C204 0.930 . S
H233 C205 0.929 . S
H234 C207 0.930 . S
H235 C208 0.929 . S
H236 C213 0.930 . S
H237 C214 0.929 . S
H238 C216 0.930 . S
H239 C217 0.929 . S
C240 C241 1.363 . S
C240 C246 1.379 . S
C240 N248 1.356 . S
C241 C240 1.363 . S
C241 C247 1.363 . S
C242 C243 1.363 . S
C242 C247 1.379 . S
C242 N249 1.356 . S
C243 C242 1.363 . S
C243 C246 1.363 . S
N244 C246 1.356 . S
N244 H256 0.984 . S
N244 H257 0.985 . S
N245 C247 1.356 . S
N245 H250 0.984 . S
N245 H251 0.985 . S
C246 C240 1.379 . S
C246 C243 1.363 . S
C246 N244 1.356 . S
C247 C241 1.363 . S
C247 C242 1.379 . S
C247 N245 1.356 . S
N248 C240 1.356 . S
N248 H254 0.984 . S
N248 H255 0.984 . S
N249 C242 1.356 . S
N249 H252 0.984 . S
N249 H253 0.985 . S
H250 N245 0.984 . S
H251 N245 0.985 . S
H252 N249 0.984 . S
H253 N249 0.985 . S
H254 N248 0.984 . S
H255 N248 0.984 . S
H256 N244 0.984 . S
H257 N244 0.985 . S
C258 C259 1.363 . S
C258 C264 1.379 . S
C258 N266 1.356 . S
C259 C258 1.363 . S
C259 C265 1.363 . S
C260 C261 1.363 . S
C260 C265 1.379 . S
C260 N267 1.356 . S
C261 C260 1.363 . S
C261 C264 1.363 . S
N262 C264 1.356 . S
N262 H274 0.984 . S
N262 H275 0.985 . S
N263 C265 1.356 . S
N263 H268 0.984 . S
N263 H269 0.985 . S
C264 C258 1.379 . S
C264 C261 1.363 . S
C264 N262 1.356 . S
C265 C259 1.363 . S
C265 C260 1.379 . S
C265 N263 1.356 . S
N266 C258 1.356 . S
N266 H272 0.984 . S
N266 H273 0.984 . S
N267 C260 1.356 . S
N267 H270 0.984 . S
N267 H271 0.985 . S
H268 N263 0.984 . S
H269 N263 0.985 . S
H270 N267 0.984 . S
H271 N267 0.985 . S
H272 N266 0.984 . S
H273 N266 0.984 . S
H274 N262 0.984 . S
H275 N262 0.985 . S
C276 C277 1.363 . S
C276 C282 1.379 1_545 S
C276 N284 1.356 1_545 S
C277 C276 1.363 . S
C277 C283 1.363 . S
C278 C279 1.363 . S
C278 C283 1.379 . S
C278 N285 1.356 . S
C279 C278 1.363 . S
C279 C282 1.363 1_545 S
N280 C282 1.356 . S
N280 H292 0.984 . S
N280 H293 0.985 . S
N281 C283 1.356 . S
N281 H286 0.984 . S
N281 H287 0.985 . S
C282 C276 1.379 1_565 S
C282 C279 1.363 1_565 S
C282 N280 1.356 . S
C283 C277 1.363 . S
C283 C278 1.379 . S
C283 N281 1.356 . S
N284 C276 1.356 1_565 S
N284 H290 0.984 . S
N284 H291 0.981 1_565 S
N285 C278 1.356 . S
N285 H288 0.984 . S
N285 H289 0.985 . S
H286 N281 0.984 . S
H287 N281 0.985 . S
H288 N285 0.984 . S
H289 N285 0.985 . S
H290 N284 0.984 . S
H291 N284 0.981 1_545 S
H292 N280 0.984 . S
H293 N280 0.985 . S
C294 C295 1.363 . S
C294 C300 1.379 . S
C294 N302 1.356 . S
C295 C294 1.363 . S
C295 C301 1.363 . S
C296 C297 1.363 . S
C296 C301 1.379 . S
C296 N303 1.356 . S
C297 C296 1.363 . S
C297 C300 1.363 . S
N298 C300 1.356 . S
N298 H310 0.984 . S
N298 H311 0.985 . S
N299 C301 1.356 . S
N299 H304 0.984 . S
N299 H305 0.985 . S
C300 C294 1.379 . S
C300 C297 1.363 . S
C300 N298 1.356 . S
C301 C295 1.363 . S
C301 C296 1.379 . S
C301 N299 1.356 . S
N302 C294 1.356 . S
N302 H308 0.984 . S
N302 H309 0.984 . S
N303 C296 1.356 . S
N303 H306 0.984 . S
N303 H307 0.985 1_655 S
H304 N299 0.984 . S
H305 N299 0.985 . S
H306 N303 0.984 . S
H307 N303 0.985 1_455 S
H308 N302 0.984 . S
H309 N302 0.984 . S
H310 N298 0.984 . S
H311 N298 0.985 . S
C312 C313 1.363 . S
C312 C318 1.379 1_455 S
C312 N320 1.356 . S
C313 C312 1.363 . S
C313 C319 1.363 . S
C314 C315 1.363 1_455 S
C314 C319 1.379 . S
C314 N321 1.356 1_455 S
C315 C314 1.363 1_655 S
C315 C318 1.363 . S
N316 C318 1.356 . S
N316 H328 0.984 . S
N316 H329 0.985 . S
N317 C319 1.356 . S
N317 H322 0.984 . S
N317 H323 0.985 . S
C318 C312 1.379 1_655 S
C318 C315 1.363 . S
C318 N316 1.356 . S
C319 C313 1.363 . S
C319 C314 1.379 . S
C319 N317 1.356 . S
N320 C312 1.356 . S
N320 H326 0.984 . S
N320 H327 0.984 . S
N321 C314 1.356 1_655 S
N321 H324 0.984 . S
N321 H325 0.985 1_655 S
H322 N317 0.984 . S
H323 N317 0.985 . S
H324 N321 0.984 . S
H325 N321 0.985 1_455 S
H326 N320 0.984 . S
H327 N320 0.984 . S
H328 N316 0.984 . S
H329 N316 0.985 . S
C330 C331 1.363 . S
C330 C336 1.379 . S
C330 N338 1.356 1_565 S
C331 C330 1.363 . S
C331 C337 1.363 . S
C332 C333 1.363 . S
C332 C337 1.379 . S
C332 N339 1.356 . S
C333 C332 1.363 . S
C333 C336 1.363 . S
N334 C336 1.356 1_545 S
N334 H346 0.984 . S
N334 H347 0.985 1_545 S
N335 C337 1.356 . S
N335 H340 0.984 . S
N335 H341 0.985 . S
C336 C330 1.379 . S
C336 C333 1.363 . S
C336 N334 1.356 1_565 S
C337 C331 1.363 . S
C337 C332 1.379 . S
C337 N335 1.356 . S
N338 C330 1.356 1_545 S
N338 H344 0.984 . S
N338 H345 0.984 . S
N339 C332 1.356 . S
N339 H342 0.984 . S
N339 H343 0.985 . S
H340 N335 0.984 . S
H341 N335 0.985 . S
H342 N339 0.984 . S
H343 N339 0.985 . S
H344 N338 0.984 . S
H345 N338 0.984 . S
H346 N334 0.984 . S
H347 N334 0.985 1_565 S
C348 C349 1.363 . S
C348 C354 1.379 . S
C348 N356 1.356 . S
C349 C348 1.363 . S
C349 C355 1.363 1_554 S
C350 C351 1.363 1_556 S
C350 C355 1.379 . S
C350 N357 1.356 . S
C351 C350 1.363 1_554 S
C351 C354 1.363 . S
N352 C354 1.356 . S
N352 H364 0.984 . S
N352 H365 0.985 . S
N353 C355 1.356 . S
N353 H358 0.984 . S
N353 H359 0.985 . S
C354 C348 1.379 . S
C354 C351 1.363 . S
C354 N352 1.356 . S
C355 C349 1.363 1_556 S
C355 C350 1.379 . S
C355 N353 1.356 . S
N356 C348 1.356 . S
N356 H362 0.984 . S
N356 H363 0.984 . S
N357 C350 1.356 . S
N357 H360 0.984 . S
N357 H361 0.985 . S
H358 N353 0.984 . S
H359 N353 0.985 . S
H360 N357 0.984 . S
H361 N357 0.985 . S
H362 N356 0.984 . S
H363 N356 0.984 . S
H364 N352 0.984 . S
H365 N352 0.985 . S
C366 C367 1.363 . S
C366 C372 1.379 . S
C366 N374 1.356 1_556 S
C367 C366 1.363 . S
C367 C373 1.363 . S
C368 C369 1.363 . S
C368 C373 1.379 . S
C368 N375 1.356 . S
C369 C368 1.363 . S
C369 C372 1.363 . S
N370 C372 1.356 . S
N370 H382 0.984 1_556 S
N370 H383 0.985 . S
N371 C373 1.356 . S
N371 H376 0.984 . S
N371 H377 0.985 . S
C372 C366 1.379 . S
C372 C369 1.363 . S
C372 N370 1.356 . S
C373 C367 1.363 . S
C373 C368 1.379 . S
C373 N371 1.356 . S
N374 C366 1.356 1_554 S
N374 H380 0.984 . S
N374 H381 0.984 . S
N375 C368 1.356 . S
N375 H378 0.984 . S
N375 H379 0.985 . S
H376 N371 0.984 . S
H377 N371 0.985 . S
H378 N375 0.984 . S
H379 N375 0.985 . S
H380 N374 0.984 . S
H381 N374 0.984 . S
H382 N370 0.984 1_554 S
H383 N370 0.985 . S
C384 C385 1.363 1_556 S
C384 C390 1.379 . S
C384 N392 1.356 . S
C385 C384 1.363 1_554 S
C385 C391 1.363 . S
C386 C387 1.363 . S
C386 C391 1.379 . S
C386 N393 1.356 . S
C387 C386 1.363 . S
C387 C390 1.363 1_554 S
N388 C390 1.356 . S
N388 H400 0.984 . S
N388 H401 0.985 . S
N389 C391 1.356 . S
N389 H394 0.984 . S
N389 H395 0.985 . S
C390 C384 1.379 . S
C390 C387 1.363 1_556 S
C390 N388 1.356 . S
C391 C385 1.363 . S
C391 C386 1.379 . S
C391 N389 1.356 . S
N392 C384 1.356 . S
N392 H398 0.984 . S
N392 H399 0.984 . S
N393 C386 1.356 . S
N393 H396 0.984 . S
N393 H397 0.985 . S
H394 N389 0.984 . S
H395 N389 0.985 . S
H396 N393 0.984 . S
H397 N393 0.985 . S
H398 N392 0.984 . S
H399 N392 0.984 . S
H400 N388 0.984 . S
H401 N388 0.985 . S
C402 C403 1.363 . S
C402 C408 1.379 . S
C402 N410 1.356 . S
C403 C402 1.363 . S
C403 C409 1.363 . S
C404 C405 1.363 . S
C404 C409 1.379 . S
C404 N411 1.356 1_556 S
C405 C404 1.363 . S
C405 C408 1.363 . S
N406 C408 1.356 . S
N406 H418 0.984 . S
N406 H419 0.985 . S
N407 C409 1.356 . S
N407 H412 0.984 . S
N407 H413 0.985 . S
C408 C402 1.379 . S
C408 C405 1.363 . S
C408 N406 1.356 . S
C409 C403 1.363 . S
C409 C404 1.379 . S
C409 N407 1.356 . S
N410 C402 1.356 . S
N410 H416 0.984 . S
N410 H417 0.984 . S
N411 C404 1.356 1_554 S
N411 H414 0.984 . S
N411 H415 0.985 . S
H412 N407 0.984 . S
H413 N407 0.985 . S
H414 N411 0.984 . S
H415 N411 0.985 . S
H416 N410 0.984 . S
H417 N410 0.984 . S
H418 N406 0.984 . S
H419 N406 0.985 . S
C420 C421 1.363 . S
C420 C426 1.379 . S
C420 N428 1.356 . S
C421 C420 1.363 . S
C421 C427 1.363 . S
C422 C423 1.363 . S
C422 C427 1.379 . S
C422 N429 1.356 . S
C423 C422 1.363 . S
C423 C426 1.363 . S
N424 C426 1.356 . S
N424 H436 0.984 . S
N424 H437 0.985 . S
N425 C427 1.356 1_545 S
N425 H430 0.984 . S
N425 H431 0.985 . S
C426 C420 1.379 . S
C426 C423 1.363 . S
C426 N424 1.356 . S
C427 C421 1.363 . S
C427 C422 1.379 . S
C427 N425 1.356 1_565 S
N428 C420 1.356 . S
N428 H434 0.984 . S
N428 H435 0.984 . S
N429 C422 1.356 . S
N429 H432 0.984 . S
N429 H433 0.985 1_565 S
H430 N425 0.984 . S
H431 N425 0.985 . S
H432 N429 0.984 . S
H433 N429 0.985 1_545 S
H434 N428 0.984 . S
H435 N428 0.984 . S
H436 N424 0.984 . S
H437 N424 0.985 . S
C438 C439 1.363 . S
C438 C444 1.379 . S
C438 N446 1.356 1_556 S
C439 C438 1.363 . S
C439 C445 1.363 . S
C440 C441 1.363 . S
C440 C445 1.379 . S
C440 N447 1.356 . S
C441 C440 1.363 . S
C441 C444 1.363 . S
N442 C444 1.356 1_554 S
N442 H454 0.984 . S
N442 H455 0.985 . S
N443 C445 1.356 . S
N443 H448 0.984 . S
N443 H449 0.985 . S
C444 C438 1.379 . S
C444 C441 1.363 . S
C444 N442 1.356 1_556 S
C445 C439 1.363 . S
C445 C440 1.379 . S
C445 N443 1.356 . S
N446 C438 1.356 1_554 S
N446 H452 0.984 . S
N446 H453 0.984 . S
N447 C440 1.356 . S
N447 H450 0.984 . S
N447 H451 0.985 . S
H448 N443 0.984 . S
H449 N443 0.985 . S
H450 N447 0.984 . S
H451 N447 0.985 . S
H452 N446 0.984 . S
H453 N446 0.984 . S
H454 N442 0.984 . S
H455 N442 0.985 . S
C456 C457 1.363 . S
C456 C462 1.379 . S
C456 N464 1.356 . S
C457 C456 1.363 . S
C457 C463 1.363 . S
C458 C459 1.363 . S
C458 C463 1.379 . S
C458 N465 1.356 . S
C459 C458 1.363 . S
C459 C462 1.363 . S
N460 C462 1.356 . S
N460 H472 0.984 . S
N460 H473 0.985 . S
N461 C463 1.356 . S
N461 H466 0.984 . S
N461 H467 0.985 . S
C462 C456 1.379 . S
C462 C459 1.363 . S
C462 N460 1.356 . S
C463 C457 1.363 . S
C463 C458 1.379 . S
C463 N461 1.356 . S
N464 C456 1.356 . S
N464 H470 0.984 . S
N464 H471 0.984 . S
N465 C458 1.356 . S
N465 H468 0.984 . S
N465 H469 0.985 . S
H466 N461 0.984 . S
H467 N461 0.985 . S
H468 N465 0.984 . S
H469 N465 0.985 . S
H470 N464 0.984 . S
H471 N464 0.984 . S
H472 N460 0.984 . S
H473 N460 0.985 . S
C474 C475 1.363 . S
C474 C480 1.379 . S
C474 N482 1.356 . S
C475 C474 1.363 . S
C475 C481 1.363 . S
C476 C477 1.363 . S
C476 C481 1.379 . S
C476 N483 1.356 . S
C477 C476 1.363 . S
C477 C480 1.363 . S
N478 C480 1.356 . S
N478 H490 0.984 . S
N478 H491 0.985 . S
N479 C481 1.356 . S
N479 H484 0.984 . S
N479 H485 0.985 . S
C480 C474 1.379 . S
C480 C477 1.363 . S
C480 N478 1.356 . S
C481 C475 1.363 . S
C481 C476 1.379 . S
C481 N479 1.356 . S
N482 C474 1.356 . S
N482 H488 0.984 . S
N482 H489 0.984 . S
N483 C476 1.356 . S
N483 H486 0.984 . S
N483 H487 0.985 . S
H484 N479 0.984 . S
H485 N479 0.985 . S
H486 N483 0.984 . S
H487 N483 0.985 . S
H488 N482 0.984 . S
H489 N482 0.984 . S
H490 N478 0.984 . S
H491 N478 0.985 . S
C492 C493 1.363 . S
C492 C498 1.379 . S
C492 N500 1.356 . S
C493 C492 1.363 . S
C493 C499 1.363 . S
C494 C495 1.363 . S
C494 C499 1.379 . S
C494 N501 1.356 . S
C495 C494 1.363 . S
C495 C498 1.363 . S
N496 C498 1.356 . S
N496 H508 0.984 1_565 S
N496 H509 0.985 . S
N497 C499 1.356 . S
N497 H502 0.984 . S
N497 H503 0.985 . S
C498 C492 1.379 . S
C498 C495 1.363 . S
C498 N496 1.356 . S
C499 C493 1.363 . S
C499 C494 1.379 . S
C499 N497 1.356 . S
N500 C492 1.356 . S
N500 H506 0.984 . S
N500 H507 0.984 . S
N501 C494 1.356 . S
N501 H504 0.984 . S
N501 H505 0.985 . S
H502 N497 0.984 . S
H503 N497 0.985 . S
H504 N501 0.984 . S
H505 N501 0.985 . S
H506 N500 0.984 . S
H507 N500 0.984 . S
H508 N496 0.984 1_545 S
H509 N496 0.985 . S
C510 C511 1.363 . S
C510 C516 1.379 . S
C510 N518 1.356 . S
C511 C510 1.363 . S
C511 C517 1.363 . S
C512 C513 1.363 . S
C512 C517 1.379 . S
C512 N519 1.356 . S
C513 C512 1.363 . S
C513 C516 1.363 . S
N514 C516 1.356 . S
N514 H526 0.984 . S
N514 H527 0.985 . S
N515 C517 1.356 . S
N515 H520 0.984 . S
N515 H521 0.985 . S
C516 C510 1.379 . S
C516 C513 1.363 . S
C516 N514 1.356 . S
C517 C511 1.363 . S
C517 C512 1.379 . S
C517 N515 1.356 . S
N518 C510 1.356 . S
N518 H524 0.984 . S
N518 H525 0.984 . S
N519 C512 1.356 . S
N519 H522 0.984 . S
N519 H523 0.985 . S
H520 N515 0.984 . S
H521 N515 0.985 . S
H522 N519 0.984 . S
H523 N519 0.985 . S
H524 N518 0.984 . S
H525 N518 0.984 . S
H526 N514 0.984 . S
H527 N514 0.985 . S
C528 C529 1.363 . S
C528 C534 1.379 . S
C528 N536 1.356 . S
C529 C528 1.363 . S
C529 C535 1.363 . S
C530 C531 1.363 . S
C530 C535 1.379 . S
C530 N537 1.356 . S
C531 C530 1.363 . S
C531 C534 1.363 . S
N532 C534 1.356 . S
N532 H544 0.984 . S
N532 H545 0.985 . S
N533 C535 1.356 . S
N533 H538 0.984 . S
N533 H539 0.985 . S
C534 C528 1.379 . S
C534 C531 1.363 . S
C534 N532 1.356 . S
C535 C529 1.363 . S
C535 C530 1.379 . S
C535 N533 1.356 . S
N536 C528 1.356 . S
N536 H542 0.984 . S
N536 H543 0.984 . S
N537 C530 1.356 . S
N537 H540 0.984 . S
N537 H541 0.985 . S
H538 N533 0.984 . S
H539 N533 0.985 . S
H540 N537 0.984 . S
H541 N537 0.985 . S
H542 N536 0.984 . S
H543 N536 0.984 . S
H544 N532 0.984 . S
H545 N532 0.985 . S
C546 C547 1.363 . S
C546 C552 1.379 . S
C546 N554 1.356 . S
C547 C546 1.363 . S
C547 C553 1.363 . S
C548 C549 1.363 . S
C548 C553 1.379 . S
C548 N555 1.356 . S
C549 C548 1.363 . S
C549 C552 1.363 . S
N550 C552 1.356 . S
N550 H562 0.984 . S
N550 H563 0.985 . S
N551 C553 1.356 . S
N551 H556 0.984 . S
N551 H557 0.985 . S
C552 C546 1.379 . S
C552 C549 1.363 . S
C552 N550 1.356 . S
C553 C547 1.363 . S
C553 C548 1.379 . S
C553 N551 1.356 . S
N554 C546 1.356 . S
N554 H560 0.984 . S
N554 H561 0.984 . S
N555 C548 1.356 . S
N555 H558 0.984 . S
N555 H559 0.985 . S
H556 N551 0.984 . S
H557 N551 0.985 . S
H558 N555 0.984 . S
H559 N555 0.985 . S
H560 N554 0.984 . S
H561 N554 0.984 . S
H562 N550 0.984 . S
H563 N550 0.985 . S
C241 C210 3.700 . S
C243 C6 3.566 . S
C259 C10 3.777 . S
C261 C46 3.463 . S
C277 C50 3.261 . S
C279 C90 3.242 1_545 S
C295 C126 2.363 . S
C297 C86 2.165 . S
C313 C166 3.067 . S
C315 C130 3.643 . S
C331 C170 2.961 . S
C333 C206 2.812 . S
C349 C179 2.600 . S
C351 C15 2.495 . S
C367 C219 3.124 . S
C369 C55 3.087 . S
C385 C99 3.687 . S
C387 C19 3.711 . S
C403 C135 1.912 . S
C405 C59 2.083 1_556 S
C421 C175 0.768 . S
C423 C95 0.766 . S
C439 C139 1.152 . S
C441 C215 1.186 . S
C457 C9 0.839 . S
C459 C18 0.839 . S
C475 C49 0.942 . S
C477 C58 0.942 . S
C493 C98 0.960 . S
C495 C89 0.960 . S
C511 C129 0.785 . S
C513 C138 0.785 . S
C529 C178 1.007 . S
C531 C169 1.007 . S
C547 C209 0.962 . S
C549 C218 0.962 . S
