# Generated by pormake.
# Topology smd, (6)-cn, num edge types: 1
# Building blocks:
#     Node 0, Type 0, BuildingBlock: GEDQOX_clean_sbu_0, # of connection points: 6
#     Node 1, Type 0, BuildingBlock: GEDQOX_clean_sbu_0, # of connection points: 6
#     Node 2, Type 0, BuildingBlock: GEDQOX_clean_sbu_0, # of connection points: 6
#     Node 3, Type 0, BuildingBlock: GEDQOX_clean_sbu_0, # of connection points: 6
#     Node 4, Type 0, BuildingBlock: GEDQOX_clean_sbu_0, # of connection points: 6
#     Node 5, Type 0, BuildingBlock: GEDQOX_clean_sbu_0, # of connection points: 6
#     Node 6, Type 0, BuildingBlock: GEDQOX_clean_sbu_0, # of connection points: 6
#     Node 7, Type 0, BuildingBlock: GEDQOX_clean_sbu_0, # of connection points: 6
#     Node 8, Type 0, BuildingBlock: GEDQOX_clean_sbu_0, # of connection points: 6
#     Node 9, Type 0, BuildingBlock: GEDQOX_clean_sbu_0, # of connection points: 6
#     Node 10, Type 0, BuildingBlock: GEDQOX_clean_sbu_0, # of connection points: 6
#     Node 11, Type 0, BuildingBlock: GEDQOX_clean_sbu_0, # of connection points: 6
#     Node 12, Type 0, BuildingBlock: GEDQOX_clean_sbu_0, # of connection points: 6
#     Node 13, Type 0, BuildingBlock: GEDQOX_clean_sbu_0, # of connection points: 6
#     Node 14, Type 0, BuildingBlock: GEDQOX_clean_sbu_0, # of connection points: 6
#     Node 15, Type 0, BuildingBlock: GEDQOX_clean_sbu_0, # of connection points: 6
#     Node 16, Type 0, BuildingBlock: GEDQOX_clean_sbu_0, # of connection points: 6
#     Node 17, Type 0, BuildingBlock: GEDQOX_clean_sbu_0, # of connection points: 6
#     Edge 18, Type (0, 0), BuildingBlock: UVAHIK_clean_linker_0, # of connection points: 2
#     Edge 19, Type (0, 0), BuildingBlock: UVAHIK_clean_linker_0, # of connection points: 2
#     Edge 20, Type (0, 0), BuildingBlock: UVAHIK_clean_linker_0, # of connection points: 2
#     Edge 21, Type (0, 0), BuildingBlock: UVAHIK_clean_linker_0, # of connection points: 2
#     Edge 22, Type (0, 0), BuildingBlock: UVAHIK_clean_linker_0, # of connection points: 2
#     Edge 23, Type (0, 0), BuildingBlock: UVAHIK_clean_linker_0, # of connection points: 2
#     Edge 24, Type (0, 0), BuildingBlock: UVAHIK_clean_linker_0, # of connection points: 2
#     Edge 25, Type (0, 0), BuildingBlock: UVAHIK_clean_linker_0, # of connection points: 2
#     Edge 26, Type (0, 0), BuildingBlock: UVAHIK_clean_linker_0, # of connection points: 2
#     Edge 27, Type (0, 0), BuildingBlock: UVAHIK_clean_linker_0, # of connection points: 2
#     Edge 28, Type (0, 0), BuildingBlock: UVAHIK_clean_linker_0, # of connection points: 2
#     Edge 29, Type (0, 0), BuildingBlock: UVAHIK_clean_linker_0, # of connection points: 2
#     Edge 30, Type (0, 0), BuildingBlock: UVAHIK_clean_linker_0, # of connection points: 2
#     Edge 31, Type (0, 0), BuildingBlock: UVAHIK_clean_linker_0, # of connection points: 2
#     Edge 32, Type (0, 0), BuildingBlock: UVAHIK_clean_linker_0, # of connection points: 2
#     Edge 33, Type (0, 0), BuildingBlock: UVAHIK_clean_linker_0, # of connection points: 2
#     Edge 34, Type (0, 0), BuildingBlock: UVAHIK_clean_linker_0, # of connection points: 2
#     Edge 35, Type (0, 0), BuildingBlock: UVAHIK_clean_linker_0, # of connection points: 2
#     Edge 36, Type (0, 0), BuildingBlock: UVAHIK_clean_linker_0, # of connection points: 2
#     Edge 37, Type (0, 0), BuildingBlock: UVAHIK_clean_linker_0, # of connection points: 2
#     Edge 38, Type (0, 0), BuildingBlock: UVAHIK_clean_linker_0, # of connection points: 2
#     Edge 39, Type (0, 0), BuildingBlock: UVAHIK_clean_linker_0, # of connection points: 2
#     Edge 40, Type (0, 0), BuildingBlock: UVAHIK_clean_linker_0, # of connection points: 2
#     Edge 41, Type (0, 0), BuildingBlock: UVAHIK_clean_linker_0, # of connection points: 2
#     Edge 42, Type (0, 0), BuildingBlock: UVAHIK_clean_linker_0, # of connection points: 2
#     Edge 43, Type (0, 0), BuildingBlock: UVAHIK_clean_linker_0, # of connection points: 2
#     Edge 44, Type (0, 0), BuildingBlock: UVAHIK_clean_linker_0, # of connection points: 2
#     Edge 45, Type (0, 0), BuildingBlock: UVAHIK_clean_linker_0, # of connection points: 2
#     Edge 46, Type (0, 0), BuildingBlock: UVAHIK_clean_linker_0, # of connection points: 2
#     Edge 47, Type (0, 0), BuildingBlock: UVAHIK_clean_linker_0, # of connection points: 2
#     Edge 48, Type (0, 0), BuildingBlock: UVAHIK_clean_linker_0, # of connection points: 2
#     Edge 49, Type (0, 0), BuildingBlock: UVAHIK_clean_linker_0, # of connection points: 2
#     Edge 50, Type (0, 0), BuildingBlock: UVAHIK_clean_linker_0, # of connection points: 2
#     Edge 51, Type (0, 0), BuildingBlock: UVAHIK_clean_linker_0, # of connection points: 2
#     Edge 52, Type (0, 0), BuildingBlock: UVAHIK_clean_linker_0, # of connection points: 2
#     Edge 53, Type (0, 0), BuildingBlock: UVAHIK_clean_linker_0, # of connection points: 2
#     Edge 54, Type (0, 0), BuildingBlock: UVAHIK_clean_linker_0, # of connection points: 2
#     Edge 55, Type (0, 0), BuildingBlock: UVAHIK_clean_linker_0, # of connection points: 2
#     Edge 56, Type (0, 0), BuildingBlock: UVAHIK_clean_linker_0, # of connection points: 2
#     Edge 57, Type (0, 0), BuildingBlock: UVAHIK_clean_linker_0, # of connection points: 2
#     Edge 58, Type (0, 0), BuildingBlock: UVAHIK_clean_linker_0, # of connection points: 2
#     Edge 59, Type (0, 0), BuildingBlock: UVAHIK_clean_linker_0, # of connection points: 2
#     Edge 60, Type (0, 0), BuildingBlock: UVAHIK_clean_linker_0, # of connection points: 2
#     Edge 61, Type (0, 0), BuildingBlock: UVAHIK_clean_linker_0, # of connection points: 2
#     Edge 62, Type (0, 0), BuildingBlock: UVAHIK_clean_linker_0, # of connection points: 2
#     Edge 63, Type (0, 0), BuildingBlock: UVAHIK_clean_linker_0, # of connection points: 2
#     Edge 64, Type (0, 0), BuildingBlock: UVAHIK_clean_linker_0, # of connection points: 2
#     Edge 65, Type (0, 0), BuildingBlock: UVAHIK_clean_linker_0, # of connection points: 2
#     Edge 66, Type (0, 0), BuildingBlock: UVAHIK_clean_linker_0, # of connection points: 2
#     Edge 67, Type (0, 0), BuildingBlock: UVAHIK_clean_linker_0, # of connection points: 2
#     Edge 68, Type (0, 0), BuildingBlock: UVAHIK_clean_linker_0, # of connection points: 2
#     Edge 69, Type (0, 0), BuildingBlock: UVAHIK_clean_linker_0, # of connection points: 2
#     Edge 70, Type (0, 0), BuildingBlock: UVAHIK_clean_linker_0, # of connection points: 2
#     Edge 71, Type (0, 0), BuildingBlock: UVAHIK_clean_linker_0, # of connection points: 2
# Relax obj value: 0.268
# Max RMSD: 0.257
# Mean RMSD: 0.257
data_MOF--net-smd--node1-GEDQOX_clean_sbu_0--edge1-UVAHIK_clean_linker_0
_symmetry_space_group_name_H-M    P1
_symmetry_Int_Tables_number       1
_symmetry_cell_setting            triclinic
loop_
_symmetry_equiv_pos_as_xyz
'x, y, z'
_cell_length_a     114.59032
_cell_length_b     114.62055
_cell_length_c     20.133019
_cell_angle_alpha  90.04017
_cell_angle_beta   89.980572
_cell_angle_gamma 119.99602
loop_
_atom_site_label
_atom_site_type_symbol
_atom_site_fract_x
_atom_site_fract_y
_atom_site_fract_z
_atom_type_partial_charge
Nd0 Nd 0.03488 0.23494 0.57702 0.0
Nd1 Nd 0.0108 0.24147 0.57593 0.0
C2 C 0.05647 0.2323 0.57011 0.0
C3 C 0.06892 0.23394 0.53921 0.0
C4 C 0.08084 0.2465 0.53681 0.0
C5 C 0.09302 0.24738 0.51775 0.0
C6 C 0.09355 0.2357 0.50117 0.0
C7 C 0.08149 0.22322 0.50156 0.0
C8 C 0.06935 0.22237 0.52034 0.0
C9 C 0.009 0.21352 0.58913 0.0
C10 C 0.02398 0.23978 0.43486 0.0
C11 C 0.98682 0.23934 0.58058 0.0
C12 C 0.98029 0.24595 0.61485 0.0
C13 C 0.98226 0.24901 0.68297 0.0
C14 C 0.97594 0.25529 0.71416 0.0
C15 C 0.96759 0.25872 0.67778 0.0
C16 C 0.96579 0.25576 0.60943 0.0
C17 C 0.97205 0.24941 0.57843 0.0
C18 C 0.03508 0.26526 0.58254 0.0
C19 C 0.02384 0.23919 0.71795 0.0
O20 O 0.05652 0.24268 0.59788 0.0
O21 O 0.04477 0.22345 0.54527 0.0
O22 O 0.01919 0.21431 0.62127 0.0
O23 O 0.01278 0.2235 0.55152 0.0
O24 O 0.03431 0.24041 0.46758 0.0
O25 O 0.0131 0.23837 0.46533 0.0
O26 O 0.99016 0.23195 0.61696 0.0
O27 O 0.99591 0.24658 0.53589 0.0
O28 O 0.02347 0.26465 0.5835 0.0
O29 O 0.03333 0.25352 0.58083 0.0
O30 O 0.01312 0.23795 0.68656 0.0
O31 O 0.03433 0.24003 0.68616 0.0
H32 H 0.08086 0.2556 0.55157 0.0
H33 H 0.10206 0.25718 0.5171 0.0
H34 H 0.08149 0.21399 0.49025 0.0
H35 H 0.06037 0.21252 0.52291 0.0
H36 H 0.98867 0.24652 0.71218 0.0
H37 H 0.97746 0.2573 0.76694 0.0
H38 H 0.95967 0.25849 0.57952 0.0
H39 H 0.97049 0.24726 0.52573 0.0
Nd40 Nd 0.81226 0.82031 0.58196 0.0
Nd41 Nd 0.80842 0.78904 0.58364 0.0
C42 C 0.80672 0.84005 0.58283 0.0
C43 C 0.80904 0.85298 0.55497 0.0
C44 C 0.79794 0.8537 0.53074 0.0
C45 C 0.79924 0.86606 0.5128 0.0
C46 C 0.81169 0.87805 0.51888 0.0
C47 C 0.82297 0.87727 0.54055 0.0
C48 C 0.82165 0.86485 0.55867 0.0
C49 C 0.83621 0.81984 0.57113 0.0
C50 C 0.81137 0.80513 0.44168 0.0
C51 C 0.8117 0.76791 0.59068 0.0
C52 C 0.80424 0.75429 0.62065 0.0
C53 C 0.80957 0.75111 0.67606 0.0
C54 C 0.80252 0.73838 0.70562 0.0
C55 C 0.79001 0.72847 0.68011 0.0
C56 C 0.78477 0.73164 0.62416 0.0
C57 C 0.79177 0.74438 0.59491 0.0
C58 C 0.78431 0.78902 0.59113 0.0
C59 C 0.81048 0.80485 0.72384 0.0
O60 O 0.79998 0.82911 0.54685 0.0
O61 O 0.81616 0.84005 0.61988 0.0
O62 O 0.83587 0.83105 0.57114 0.0
O63 O 0.82439 0.81033 0.57671 0.0
O64 O 0.80971 0.81451 0.47187 0.0
O65 O 0.81279 0.79575 0.47384 0.0
O66 O 0.81751 0.7781 0.63212 0.0
O67 O 0.80609 0.77033 0.53958 0.0
O68 O 0.78498 0.77804 0.59165 0.0
O69 O 0.79605 0.79885 0.58866 0.0
O70 O 0.81199 0.79545 0.69305 0.0
O71 O 0.80884 0.8141 0.69221 0.0
H72 H 0.7881 0.84472 0.52773 0.0
H73 H 0.79041 0.86626 0.49521 0.0
H74 H 0.83268 0.88631 0.54613 0.0
H75 H 0.83038 0.86462 0.5775 0.0
H76 H 0.81917 0.75853 0.69694 0.0
H77 H 0.8068 0.73639 0.74914 0.0
H78 H 0.77528 0.72422 0.60236 0.0
H79 H 0.78735 0.74644 0.55212 0.0
Nd80 Nd 0.22807 0.01432 0.57802 0.0
Nd81 Nd 0.25871 0.03816 0.57715 0.0
C82 C 0.20372 0.9929 0.57043 0.0
C83 C 0.19296 0.98042 0.53961 0.0
C84 C 0.19364 0.96852 0.53738 0.0
C85 C 0.18236 0.95633 0.51822 0.0
C86 C 0.17016 0.95577 0.50134 0.0
C87 C 0.1697 0.96781 0.50162 0.0
C88 C 0.18095 0.97996 0.52051 0.0
C89 C 0.23273 0.04027 0.59068 0.0
C90 C 0.24389 0.02516 0.43601 0.0
C91 C 0.28064 0.06208 0.58356 0.0
C92 C 0.29362 0.06794 0.61845 0.0
C93 C 0.30186 0.08195 0.62218 0.0
C94 C 0.31433 0.08764 0.65445 0.0
C95 C 0.31879 0.07938 0.6835 0.0
C96 C 0.31038 0.0653 0.68012 0.0
C97 C 0.2979 0.05963 0.64805 0.0
C98 C 0.25806 0.0138 0.58266 0.0
C99 C 0.24329 0.02507 0.71905 0.0
O100 O 0.2139 0.99279 0.59965 0.0
O101 O 0.20678 0.00456 0.54449 0.0
O102 O 0.22329 0.03011 0.6227 0.0
O103 O 0.23887 0.03643 0.55292 0.0
O104 O 0.2342 0.01483 0.46876 0.0
O105 O 0.25335 0.03604 0.46651 0.0
O106 O 0.27002 0.05861 0.62095 0.0
O107 O 0.27863 0.05317 0.53745 0.0
O108 O 0.2691 0.02537 0.58376 0.0
O109 O 0.24811 0.01562 0.58136 0.0
O110 O 0.2528 0.03577 0.68777 0.0
O111 O 0.23362 0.01465 0.68711 0.0
H112 H 0.20272 0.96853 0.5523 0.0
H113 H 0.18315 0.9473 0.51766 0.0
H114 H 0.16046 0.96779 0.49008 0.0
H115 H 0.18007 0.98893 0.52294 0.0
H116 H 0.29866 0.0885 0.59999 0.0
H117 H 0.32043 0.0985 0.65701 0.0
H118 H 0.31354 0.05862 0.70115 0.0
H119 H 0.29163 0.04877 0.64585 0.0
Nd120 Nd 0.04041 0.8056 0.42389 0.0
Nd121 Nd 0.01654 0.81264 0.42303 0.0
C122 C 0.06425 0.80737 0.41858 0.0
C123 C 0.07022 0.80026 0.38432 0.0
C124 C 0.08425 0.80615 0.3808 0.0
C125 C 0.09005 0.79937 0.34956 0.0
C126 C 0.0819 0.78655 0.32132 0.0
C127 C 0.06779 0.78076 0.32441 0.0
C128 C 0.06201 0.78758 0.35547 0.0
C129 C 0.01586 0.78217 0.41603 0.0
C130 C 0.02752 0.80827 0.2821 0.0
C131 C 0.99513 0.81556 0.42808 0.0
C132 C 0.98279 0.81491 0.45408 0.0
C133 C 0.97198 0.80303 0.47978 0.0
C134 C 0.9599 0.80258 0.49723 0.0
C135 C 0.95839 0.81398 0.48875 0.0
C136 C 0.96938 0.82587 0.46373 0.0
C137 C 0.98142 0.82632 0.44695 0.0
C138 C 0.04263 0.83372 0.41109 0.0
C139 C 0.02741 0.80765 0.56522 0.0
O140 O 0.06093 0.8146 0.38096 0.0
O141 O 0.05521 0.80046 0.46411 0.0
O142 O 0.02729 0.78241 0.41545 0.0
O143 O 0.01795 0.79401 0.41826 0.0
O144 O 0.03819 0.80939 0.31348 0.0
O145 O 0.01707 0.80752 0.31388 0.0
O146 O 0.99474 0.80461 0.40579 0.0
O147 O 0.00695 0.82472 0.45037 0.0
O148 O 0.03254 0.83319 0.37912 0.0
O149 O 0.03864 0.82368 0.44852 0.0
O150 O 0.01721 0.80738 0.53272 0.0
O151 O 0.03812 0.80867 0.53464 0.0
H152 H 0.09072 0.81598 0.40245 0.0
H153 H 0.10093 0.80422 0.34719 0.0
H154 H 0.0612 0.77085 0.30397 0.0
H155 H 0.05114 0.78289 0.35755 0.0
H156 H 0.97279 0.79406 0.48541 0.0
H157 H 0.95174 0.7933 0.51708 0.0
H158 H 0.9686 0.83477 0.45498 0.0
H159 H 0.98956 0.83554 0.42626 0.0
Nd160 Nd 0.24368 0.25636 0.43026 0.0
Nd161 Nd 0.23717 0.22573 0.42918 0.0
C162 C 0.2417 0.27828 0.42545 0.0
C163 C 0.2485 0.29147 0.39153 0.0
C164 C 0.25097 0.29253 0.32278 0.0
C165 C 0.25746 0.30518 0.29202 0.0
C166 C 0.26167 0.31701 0.32939 0.0
C167 C 0.25928 0.31587 0.39829 0.0
C168 C 0.25274 0.30323 0.4289 0.0
C169 C 0.26748 0.25589 0.42351 0.0
C170 C 0.24135 0.24098 0.28827 0.0
C171 C 0.23451 0.20149 0.43618 0.0
C172 C 0.23617 0.19069 0.46702 0.0
C173 C 0.24871 0.19128 0.46879 0.0
C174 C 0.24958 0.17998 0.48778 0.0
C175 C 0.23792 0.16781 0.50494 0.0
C176 C 0.22546 0.16745 0.50518 0.0
C177 C 0.22461 0.17873 0.48646 0.0
C178 C 0.21577 0.23026 0.417 0.0
C179 C 0.242 0.24152 0.57131 0.0
O180 O 0.23432 0.26759 0.38877 0.0
O181 O 0.24878 0.27634 0.4707 0.0
O182 O 0.26685 0.26687 0.42264 0.0
O183 O 0.25575 0.24589 0.42523 0.0
O184 O 0.24009 0.25044 0.31969 0.0
O185 O 0.24223 0.23136 0.32002 0.0
O186 O 0.24488 0.21181 0.40826 0.0
O187 O 0.22568 0.20436 0.4611 0.0
O188 O 0.21652 0.22083 0.38489 0.0
O189 O 0.22576 0.2364 0.45465 0.0
O190 O 0.24268 0.23183 0.53857 0.0
O191 O 0.24056 0.25096 0.54085 0.0
H192 H 0.24789 0.28362 0.29274 0.0
H193 H 0.25901 0.30565 0.23881 0.0
H194 H 0.26262 0.32475 0.42889 0.0
H195 H 0.25104 0.30266 0.48205 0.0
H196 H 0.2578 0.20032 0.45357 0.0
H197 H 0.25937 0.1807 0.48794 0.0
H198 H 0.21623 0.15824 0.51697 0.0
H199 H 0.21477 0.1779 0.4844 0.0
Nd200 Nd 0.79308 0.00825 0.4279 0.0
Nd201 Nd 0.82387 0.03221 0.42754 0.0
C202 C 0.77094 0.98449 0.42317 0.0
C203 C 0.75766 0.97819 0.39002 0.0
C204 C 0.75645 0.97873 0.32074 0.0
C205 C 0.74372 0.97256 0.29076 0.0
C206 C 0.73194 0.96578 0.32942 0.0
C207 C 0.73323 0.96542 0.39879 0.0
C208 C 0.74594 0.97153 0.42864 0.0
C209 C 0.79395 0.03271 0.4216 0.0
C210 C 0.80865 0.02118 0.28627 0.0
C211 C 0.84813 0.05375 0.43484 0.0
C212 C 0.85892 0.06622 0.46566 0.0
C213 C 0.85823 0.07811 0.46823 0.0
C214 C 0.86951 0.0903 0.4873 0.0
C215 C 0.88174 0.09087 0.50372 0.0
C216 C 0.88221 0.07884 0.50315 0.0
C217 C 0.87094 0.06669 0.48437 0.0
C218 C 0.8192 0.00625 0.41515 0.0
C219 C 0.80796 0.0213 0.56926 0.0
O220 O 0.78154 0.9877 0.38596 0.0
O221 O 0.77309 0.99353 0.46875 0.0
O222 O 0.78285 0.02121 0.42024 0.0
O223 O 0.80379 0.03075 0.42328 0.0
O224 O 0.79908 0.0105 0.31753 0.0
O225 O 0.81832 0.03163 0.31816 0.0
O226 O 0.83786 0.05381 0.40642 0.0
O227 O 0.84521 0.04207 0.46015 0.0
O228 O 0.8288 0.01646 0.3841 0.0
O229 O 0.81299 0.01009 0.45242 0.0
O230 O 0.81771 0.03163 0.53675 0.0
O231 O 0.79848 0.01046 0.5386 0.0
H232 H 0.76532 0.98387 0.28963 0.0
H233 H 0.74313 0.97294 0.2372 0.0
H234 H 0.7244 0.96054 0.43025 0.0
H235 H 0.74662 0.97106 0.48217 0.0
H236 H 0.84912 0.0781 0.45362 0.0
H237 H 0.86871 0.09932 0.4881 0.0
H238 H 0.89146 0.07887 0.51434 0.0
H239 H 0.87184 0.05772 0.48168 0.0
Nd240 Nd 0.70155 0.56694 0.91598 0.0
Nd241 Nd 0.67706 0.57328 0.91729 0.0
C242 C 0.72397 0.56637 0.89824 0.0
C243 C 0.73658 0.56611 0.88823 0.0
C244 C 0.74846 0.57789 0.87012 0.0
C245 C 0.76037 0.5776 0.85927 0.0
C246 C 0.76067 0.56557 0.86736 0.0
C247 C 0.74878 0.55381 0.88598 0.0
C248 C 0.73682 0.55406 0.8958 0.0
C249 C 0.6758 0.54539 0.92692 0.0
C250 C 0.68963 0.57139 0.77475 0.0
C251 C 0.65309 0.5711 0.92539 0.0
C252 C 0.6472 0.57822 0.96007 0.0
C253 C 0.63318 0.57243 0.9634 0.0
C254 C 0.62745 0.57929 0.99451 0.0
C255 C 0.63567 0.5921 0.02274 0.0
C256 C 0.64976 0.59779 0.01986 0.0
C257 C 0.65547 0.59089 0.98894 0.0
C258 C 0.7015 0.59688 0.92517 0.0
C259 C 0.69058 0.57058 0.05806 0.0
O260 O 0.7239 0.57721 0.91855 0.0
O261 O 0.71208 0.5558 0.88796 0.0
O262 O 0.68611 0.54592 0.95708 0.0
O263 O 0.67946 0.5556 0.89094 0.0
O264 O 0.69985 0.57164 0.80665 0.0
O265 O 0.67898 0.5704 0.80587 0.0
O266 O 0.65675 0.56412 0.96281 0.0
O267 O 0.66184 0.57795 0.87864 0.0
O268 O 0.69003 0.59656 0.92622 0.0
O269 O 0.69938 0.58505 0.92219 0.0
O270 O 0.67983 0.56941 0.02705 0.0
O271 O 0.70109 0.57148 0.02605 0.0
H272 H 0.7485 0.58729 0.86367 0.0
H273 H 0.7694 0.58683 0.8454 0.0
H274 H 0.7487 0.54438 0.89207 0.0
H275 H 0.72778 0.54484 0.90973 0.0
H276 H 0.62666 0.56263 0.94162 0.0
H277 H 0.61658 0.57452 0.99672 0.0
H278 H 0.65641 0.60769 0.04029 0.0
H279 H 0.66634 0.59552 0.98688 0.0
Nd280 Nd 0.47805 0.15292 0.9184 0.0
Nd281 Nd 0.47503 0.12202 0.91994 0.0
C282 C 0.47218 0.17245 0.91934 0.0
C283 C 0.47458 0.18545 0.89204 0.0
C284 C 0.46355 0.18624 0.8674 0.0
C285 C 0.46492 0.19864 0.84965 0.0
C286 C 0.47737 0.2106 0.85632 0.0
C287 C 0.48859 0.20975 0.87845 0.0
C288 C 0.4872 0.19729 0.89639 0.0
C289 C 0.50234 0.1531 0.90774 0.0
C290 C 0.47758 0.13796 0.77808 0.0
C291 C 0.47879 0.1012 0.92695 0.0
C292 C 0.47129 0.0875 0.95611 0.0
C293 C 0.47646 0.08424 0.01184 0.0
C294 C 0.4693 0.07148 0.04108 0.0
C295 C 0.45682 0.06164 0.01493 0.0
C296 C 0.45175 0.06488 0.95857 0.0
C297 C 0.45886 0.07765 0.92965 0.0
C298 C 0.45051 0.12119 0.92704 0.0
C299 C 0.47659 0.1376 0.06015 0.0
O300 O 0.46579 0.16166 0.88206 0.0
O301 O 0.48143 0.17239 0.95771 0.0
O302 O 0.5017 0.16415 0.90749 0.0
O303 O 0.49063 0.14343 0.91363 0.0
O304 O 0.47557 0.14711 0.80831 0.0
O305 O 0.47934 0.1288 0.81022 0.0
O306 O 0.48427 0.1113 0.96907 0.0
O307 O 0.47337 0.10365 0.87516 0.0
O308 O 0.45163 0.11045 0.92783 0.0
O309 O 0.46211 0.13129 0.92457 0.0
O310 O 0.47851 0.12847 0.02932 0.0
O311 O 0.47458 0.14661 0.0285 0.0
H312 H 0.4537 0.17727 0.86385 0.0
H313 H 0.45614 0.19889 0.83169 0.0
H314 H 0.49831 0.21877 0.88448 0.0
H315 H 0.49588 0.19701 0.9155 0.0
H316 H 0.48601 0.09163 0.0333 0.0
H317 H 0.47345 0.06944 0.08491 0.0
H318 H 0.4423 0.05752 0.93626 0.0
H319 H 0.45456 0.07978 0.88664 0.0
Nd320 Nd 0.8946 0.34688 0.91331 0.0
Nd321 Nd 0.92512 0.37124 0.91299 0.0
C322 C 0.87053 0.32508 0.90543 0.0
C323 C 0.85977 0.31261 0.87438 0.0
C324 C 0.86032 0.30063 0.87364 0.0
C325 C 0.84903 0.28845 0.85448 0.0
C326 C 0.83693 0.28797 0.83616 0.0
C327 C 0.83661 0.30008 0.83494 0.0
C328 C 0.84788 0.31222 0.8538 0.0
C329 C 0.89866 0.37262 0.92528 0.0
C330 C 0.91047 0.35806 0.77157 0.0
C331 C 0.94686 0.39531 0.9196 0.0
C332 C 0.95993 0.40126 0.95385 0.0
C333 C 0.96802 0.41528 0.95828 0.0
C334 C 0.98057 0.42106 0.98982 0.0
C335 C 0.98527 0.41288 0.01747 0.0
C336 C 0.97702 0.39879 0.01338 0.0
C337 C 0.96445 0.39303 0.98203 0.0
C338 C 0.92496 0.34713 0.91964 0.0
C339 C 0.90961 0.35802 0.05457 0.0
O340 O 0.88092 0.32514 0.93316 0.0
O341 O 0.87325 0.33677 0.88106 0.0
O342 O 0.88922 0.36233 0.95658 0.0
O343 O 0.90508 0.36899 0.88819 0.0
O344 O 0.90087 0.34761 0.80414 0.0
O345 O 0.91979 0.36901 0.80222 0.0
O346 O 0.93628 0.39164 0.95755 0.0
O347 O 0.94488 0.38652 0.87288 0.0
O348 O 0.93586 0.3588 0.92047 0.0
O349 O 0.91488 0.34874 0.9177 0.0
O350 O 0.91898 0.36882 0.02328 0.0
O351 O 0.90012 0.34746 0.02264 0.0
H352 H 0.8693 0.30057 0.88979 0.0
H353 H 0.84972 0.27937 0.85511 0.0
H354 H 0.82745 0.30014 0.82227 0.0
H355 H 0.84708 0.32125 0.85508 0.0
H356 H 0.96464 0.42178 0.93718 0.0
H357 H 0.98654 0.43193 0.99295 0.0
H358 H 0.98036 0.39217 0.03329 0.0
H359 H 0.95832 0.38216 0.97927 0.0
Nd360 Nd 0.70638 0.13804 0.76116 0.0
Nd361 Nd 0.68276 0.14538 0.76039 0.0
C362 C 0.73001 0.13935 0.7572 0.0
C363 C 0.73638 0.13234 0.72474 0.0
C364 C 0.73804 0.13257 0.65543 0.0
C365 C 0.74442 0.12613 0.62633 0.0
C366 C 0.74925 0.11932 0.66584 0.0
C367 C 0.74742 0.11899 0.73504 0.0
C368 C 0.7411 0.12546 0.76408 0.0
C369 C 0.68171 0.11472 0.75378 0.0
C370 C 0.69366 0.14091 0.61934 0.0
C371 C 0.66156 0.1486 0.76609 0.0
C372 C 0.64908 0.14806 0.78908 0.0
C373 C 0.63788 0.13611 0.81173 0.0
C374 C 0.6257 0.13575 0.82563 0.0
C375 C 0.62452 0.14729 0.81617 0.0
C376 C 0.63588 0.15929 0.7953 0.0
C377 C 0.64802 0.15966 0.78207 0.0
C378 C 0.70891 0.16632 0.74814 0.0
C379 C 0.69346 0.14021 0.90241 0.0
O380 O 0.72697 0.14684 0.71979 0.0
O381 O 0.72086 0.13251 0.80243 0.0
O382 O 0.69309 0.11487 0.75285 0.0
O383 O 0.68389 0.1266 0.75588 0.0
O384 O 0.70427 0.14188 0.65071 0.0
O385 O 0.68326 0.14028 0.65113 0.0
O386 O 0.66112 0.1378 0.74133 0.0
O387 O 0.67327 0.15744 0.79077 0.0
O388 O 0.69885 0.16586 0.71631 0.0
O389 O 0.70486 0.15629 0.78568 0.0
O390 O 0.68326 0.13992 0.86986 0.0
O391 O 0.70418 0.14126 0.87181 0.0
H392 H 0.73451 0.13778 0.62362 0.0
H393 H 0.74577 0.12668 0.57295 0.0
H394 H 0.75079 0.11365 0.76687 0.0
H395 H 0.73992 0.12511 0.81758 0.0
H396 H 0.63845 0.127 0.81716 0.0
H397 H 0.61709 0.12636 0.84147 0.0
H398 H 0.63535 0.16839 0.78847 0.0
H399 H 0.65651 0.16897 0.76434 0.0
Nd400 Nd 0.90977 0.58997 0.75825 0.0
Nd401 Nd 0.90628 0.55886 0.75938 0.0
C402 C 0.90625 0.61094 0.75064 0.0
C403 C 0.9137 0.62458 0.72088 0.0
C404 C 0.90832 0.62781 0.66589 0.0
C405 C 0.91537 0.64054 0.63635 0.0
C406 C 0.92795 0.65041 0.66147 0.0
C407 C 0.93326 0.64718 0.71699 0.0
C408 C 0.92625 0.63443 0.7462 0.0
C409 C 0.93411 0.59037 0.75324 0.0
C410 C 0.90817 0.57441 0.61775 0.0
C411 C 0.91175 0.53905 0.75847 0.0
C412 C 0.90915 0.526 0.78589 0.0
C413 C 0.92 0.52517 0.81291 0.0
C414 C 0.91851 0.51274 0.83082 0.0
C415 C 0.90614 0.50079 0.82192 0.0
C416 C 0.89509 0.50166 0.79746 0.0
C417 C 0.89659 0.51416 0.77935 0.0
C418 C 0.88217 0.559 0.76949 0.0
C419 C 0.90677 0.57383 0.89983 0.0
O420 O 0.90062 0.60077 0.70898 0.0
O421 O 0.91176 0.60855 0.80223 0.0
O422 O 0.93323 0.60125 0.7529 0.0
O423 O 0.92241 0.58042 0.75361 0.0
O424 O 0.90654 0.58373 0.64857 0.0
O425 O 0.90986 0.56519 0.64935 0.0
O426 O 0.91823 0.54982 0.79584 0.0
O427 O 0.90262 0.53929 0.71993 0.0
O428 O 0.88267 0.54788 0.76954 0.0
O429 O 0.89393 0.56861 0.76416 0.0
O430 O 0.90869 0.56461 0.86959 0.0
O431 O 0.90519 0.5831 0.86772 0.0
H432 H 0.89868 0.62042 0.6453 0.0
H433 H 0.91104 0.64257 0.59316 0.0
H434 H 0.94279 0.65456 0.7385 0.0
H435 H 0.93071 0.63232 0.78861 0.0
H436 H 0.9298 0.53414 0.81817 0.0
H437 H 0.92716 0.51246 0.85059 0.0
H438 H 0.88544 0.49264 0.78971 0.0
H439 H 0.88805 0.51447 0.75837 0.0
Nd440 Nd 0.4591 0.34087 0.76604 0.0
Nd441 Nd 0.48978 0.36497 0.76549 0.0
C442 C 0.43716 0.31695 0.76102 0.0
C443 C 0.42399 0.3105 0.72702 0.0
C444 C 0.42289 0.31227 0.65869 0.0
C445 C 0.41025 0.306 0.62777 0.0
C446 C 0.39845 0.2979 0.66462 0.0
C447 C 0.39964 0.29631 0.73315 0.0
C448 C 0.41227 0.30251 0.76389 0.0
C449 C 0.45967 0.36519 0.75973 0.0
C450 C 0.47457 0.35389 0.62429 0.0
C451 C 0.51399 0.38659 0.77282 0.0
C452 C 0.52481 0.39904 0.80374 0.0
C453 C 0.52422 0.41099 0.80581 0.0
C454 C 0.53553 0.42315 0.82501 0.0
C455 C 0.54769 0.42364 0.84208 0.0
C456 C 0.54806 0.41156 0.84193 0.0
C457 C 0.53677 0.39944 0.82301 0.0
C458 C 0.48529 0.33906 0.75341 0.0
C459 C 0.47391 0.35399 0.90734 0.0
O460 O 0.44786 0.32028 0.72437 0.0
O461 O 0.43908 0.32599 0.80614 0.0
O462 O 0.44865 0.35361 0.75852 0.0
O463 O 0.46962 0.36338 0.7614 0.0
O464 O 0.46505 0.34319 0.65558 0.0
O465 O 0.48421 0.36437 0.65615 0.0
O466 O 0.50366 0.38663 0.74499 0.0
O467 O 0.51115 0.37489 0.79754 0.0
O468 O 0.49482 0.34927 0.72205 0.0
O469 O 0.47905 0.34287 0.79065 0.0
O470 O 0.48363 0.36435 0.87477 0.0
O471 O 0.46447 0.34312 0.87672 0.0
H472 H 0.43178 0.31846 0.62909 0.0
H473 H 0.40975 0.30736 0.57484 0.0
H474 H 0.39078 0.29039 0.7634 0.0
H475 H 0.41288 0.30111 0.81674 0.0
H476 H 0.51517 0.41104 0.79071 0.0
H477 H 0.5348 0.43221 0.82545 0.0
H478 H 0.55726 0.41152 0.85359 0.0
H479 H 0.5376 0.39043 0.82069 0.0
Nd480 Nd 0.37063 0.90202 0.25321 0.0
Nd481 Nd 0.34344 0.90625 0.25517 0.0
C482 C 0.39574 0.90688 0.25546 0.0
C483 C 0.40594 0.90358 0.23042 0.0
C484 C 0.4156 0.91206 0.18379 0.0
C485 C 0.42654 0.91038 0.1675 0.0
C486 C 0.42818 0.90023 0.19779 0.0
C487 C 0.41825 0.89144 0.24271 0.0
C488 C 0.40729 0.89311 0.25897 0.0
C489 C 0.34612 0.87819 0.24049 0.0
C490 C 0.35669 0.90351 0.11318 0.0
C491 C 0.31916 0.90337 0.26023 0.0
C492 C 0.31272 0.91048 0.29108 0.0
C493 C 0.31242 0.91186 0.3604 0.0
C494 C 0.30625 0.91861 0.38831 0.0
C495 C 0.30028 0.92417 0.34761 0.0
C496 C 0.30068 0.92283 0.27828 0.0
C497 C 0.3068 0.91604 0.25044 0.0
C498 C 0.36771 0.9302 0.26335 0.0
C499 C 0.35702 0.90414 0.39527 0.0
O500 O 0.39163 0.91322 0.2158 0.0
O501 O 0.38631 0.89835 0.29575 0.0
O502 O 0.35766 0.87851 0.23974 0.0
O503 O 0.34846 0.89 0.2481 0.0
O504 O 0.36772 0.90517 0.14346 0.0
O505 O 0.34585 0.90197 0.14531 0.0
O506 O 0.32311 0.89692 0.29995 0.0
O507 O 0.32767 0.90971 0.21173 0.0
O508 O 0.35612 0.92965 0.26439 0.0
O509 O 0.36567 0.91842 0.2602 0.0
O510 O 0.34615 0.90275 0.36467 0.0
O511 O 0.36783 0.90559 0.36344 0.0
H512 H 0.41495 0.92031 0.16142 0.0
H513 H 0.43386 0.9172 0.13191 0.0
H514 H 0.41924 0.8836 0.26758 0.0
H515 H 0.40016 0.8865 0.2958 0.0
H516 H 0.31692 0.90772 0.39323 0.0
H517 H 0.306 0.91931 0.44188 0.0
H518 H 0.29641 0.92718 0.24533 0.0
H519 H 0.30694 0.91517 0.19688 0.0
Nd520 Nd 0.14519 0.48764 0.25076 0.0
Nd521 Nd 0.14203 0.45672 0.25261 0.0
C522 C 0.13988 0.5076 0.25276 0.0
C523 C 0.14331 0.52121 0.2289 0.0
C524 C 0.13506 0.52257 0.18151 0.0
C525 C 0.13684 0.53526 0.16597 0.0
C526 C 0.14685 0.54693 0.19776 0.0
C527 C 0.15541 0.54562 0.24351 0.0
C528 C 0.15364 0.53291 0.25904 0.0
C529 C 0.16946 0.48776 0.23877 0.0
C530 C 0.14422 0.47242 0.11072 0.0
C531 C 0.14608 0.43603 0.25939 0.0
C532 C 0.13902 0.42262 0.29044 0.0
C533 C 0.14569 0.4153 0.29891 0.0
C534 C 0.13907 0.40254 0.32838 0.0
C535 C 0.12562 0.39684 0.34987 0.0
C536 C 0.11901 0.40432 0.34158 0.0
C537 C 0.12566 0.4171 0.31234 0.0
C538 C 0.11752 0.45591 0.25939 0.0
C539 C 0.14329 0.47211 0.39272 0.0
O540 O 0.13408 0.4974 0.2113 0.0
O541 O 0.14806 0.50658 0.29498 0.0
O542 O 0.16879 0.49878 0.23767 0.0
O543 O 0.15777 0.47813 0.24655 0.0
O544 O 0.14213 0.4815 0.14109 0.0
O545 O 0.14621 0.4634 0.14278 0.0
O546 O 0.15172 0.4463 0.30038 0.0
O547 O 0.13981 0.43795 0.20969 0.0
O548 O 0.11866 0.44519 0.26051 0.0
O549 O 0.1291 0.46604 0.25686 0.0
O550 O 0.14514 0.46291 0.36219 0.0
O551 O 0.14148 0.48122 0.36079 0.0
H552 H 0.12692 0.51376 0.1579 0.0
H553 H 0.13019 0.53589 0.12971 0.0
H554 H 0.16314 0.55434 0.26953 0.0
H555 H 0.16007 0.53225 0.29645 0.0
H556 H 0.15605 0.41946 0.28279 0.0
H557 H 0.14456 0.39719 0.33493 0.0
H558 H 0.10861 0.40022 0.35671 0.0
H559 H 0.12035 0.42263 0.3065 0.0
Nd560 Nd 0.5607 0.67728 0.25238 0.0
Nd561 Nd 0.59163 0.705 0.25442 0.0
C562 C 0.54075 0.65203 0.25435 0.0
C563 C 0.52716 0.64186 0.23011 0.0
C564 C 0.52585 0.63218 0.18327 0.0
C565 C 0.51316 0.62129 0.16736 0.0
C566 C 0.50145 0.61974 0.19825 0.0
C567 C 0.50272 0.62969 0.24344 0.0
C568 C 0.51542 0.6406 0.25932 0.0
C569 C 0.56063 0.70147 0.2408 0.0
C570 C 0.57588 0.69156 0.11245 0.0
C571 C 0.61261 0.7295 0.26146 0.0
C572 C 0.62638 0.7356 0.2897 0.0
C573 C 0.62991 0.74419 0.34498 0.0
C574 C 0.64273 0.7497 0.37341 0.0
C575 C 0.6524 0.74685 0.34684 0.0
C576 C 0.64889 0.73837 0.29095 0.0
C577 C 0.63604 0.73278 0.26287 0.0
C578 C 0.59241 0.68129 0.26108 0.0
C579 C 0.57613 0.69099 0.39433 0.0
O580 O 0.55099 0.6564 0.21319 0.0
O581 O 0.54173 0.66126 0.29636 0.0
O582 O 0.5496 0.68978 0.23914 0.0
O583 O 0.57023 0.69938 0.2489 0.0
O584 O 0.56681 0.68037 0.1427 0.0
O585 O 0.58489 0.70256 0.14466 0.0
O586 O 0.60264 0.72488 0.3043 0.0
O587 O 0.60997 0.7217 0.20922 0.0
O588 O 0.60314 0.69313 0.26226 0.0
O589 O 0.5823 0.68276 0.25841 0.0
O590 O 0.58522 0.70208 0.36372 0.0
O591 O 0.56713 0.68 0.3624 0.0
H592 H 0.53468 0.63277 0.16039 0.0
H593 H 0.51256 0.61396 0.13156 0.0
H594 H 0.49397 0.62878 0.26875 0.0
H595 H 0.51605 0.64776 0.29628 0.0
H596 H 0.62267 0.74653 0.36674 0.0
H597 H 0.64497 0.75602 0.41695 0.0
H598 H 0.65611 0.73611 0.26833 0.0
H599 H 0.6337 0.72621 0.22021 0.0
Nd600 Nd 0.37454 0.47231 0.09008 0.0
Nd601 Nd 0.34706 0.47596 0.09185 0.0
C602 C 0.39902 0.47572 0.08391 0.0
C603 C 0.40555 0.46874 0.05267 0.0
C604 C 0.40505 0.46663 0.98364 0.0
C605 C 0.41125 0.45996 0.95531 0.0
C606 C 0.41804 0.45517 0.99533 0.0
C607 C 0.41844 0.45723 0.06441 0.0
C608 C 0.4123 0.46397 0.09265 0.0
C609 C 0.3506 0.44798 0.08373 0.0
C610 C 0.36064 0.47384 0.94987 0.0
C611 C 0.32189 0.47096 0.08987 0.0
C612 C 0.31177 0.47452 0.11319 0.0
C613 C 0.30141 0.4657 0.15602 0.0
C614 C 0.29061 0.46771 0.17087 0.0
C615 C 0.28984 0.47855 0.14292 0.0
C616 C 0.30045 0.48763 0.10178 0.0
C617 C 0.31127 0.48563 0.08697 0.0
C618 C 0.37138 0.50005 0.10411 0.0
C619 C 0.36117 0.47478 0.23188 0.0
O620 O 0.39479 0.48193 0.04429 0.0
O621 O 0.39069 0.46935 0.13297 0.0
O622 O 0.36238 0.44892 0.08273 0.0
O623 O 0.35227 0.45966 0.0855 0.0
O624 O 0.3716 0.47547 0.98042 0.0
O625 O 0.34978 0.47224 0.98178 0.0
O626 O 0.32623 0.46523 0.13195 0.0
O627 O 0.33111 0.47898 0.04729 0.0
O628 O 0.35976 0.49954 0.10488 0.0
O629 O 0.36918 0.4883 0.09666 0.0
O630 O 0.35003 0.4728 0.20151 0.0
O631 O 0.37213 0.47664 0.1998 0.0
H632 H 0.39988 0.47014 0.95137 0.0
H633 H 0.41086 0.45869 0.9019 0.0
H634 H 0.42335 0.45349 0.09692 0.0
H635 H 0.41277 0.4654 0.14599 0.0
H636 H 0.30139 0.45693 0.17615 0.0
H637 H 0.28257 0.46041 0.20207 0.0
H638 H 0.3003 0.49621 0.08016 0.0
H639 H 0.31903 0.49259 0.05343 0.0
Nd640 Nd 0.57604 0.92176 0.08929 0.0
Nd641 Nd 0.57262 0.89074 0.09109 0.0
C642 C 0.57251 0.94273 0.08145 0.0
C643 C 0.58002 0.95644 0.05257 0.0
C644 C 0.57439 0.95999 0.99985 0.0
C645 C 0.58144 0.9728 0.97107 0.0
C646 C 0.59427 0.98242 0.99473 0.0
C647 C 0.59984 0.97885 0.0479 0.0
C648 C 0.59284 0.96602 0.07631 0.0
C649 C 0.6005 0.92238 0.08427 0.0
C650 C 0.57463 0.90627 0.94918 0.0
C651 C 0.57776 0.87068 0.0896 0.0
C652 C 0.57417 0.85701 0.11303 0.0
C653 C 0.58286 0.85548 0.15682 0.0
C654 C 0.58085 0.84268 0.17185 0.0
C655 C 0.57013 0.83107 0.1431 0.0
C656 C 0.56117 0.83258 0.101 0.0
C657 C 0.56317 0.84539 0.08603 0.0
C658 C 0.54842 0.89081 0.10225 0.0
C659 C 0.5735 0.90594 0.23109 0.0
O660 O 0.56713 0.93268 0.03906 0.0
O661 O 0.57782 0.94023 0.13354 0.0
O662 O 0.59946 0.93316 0.08338 0.0
O663 O 0.58885 0.91231 0.08538 0.0
O664 O 0.57277 0.91545 0.97981 0.0
O665 O 0.57647 0.89718 0.98111 0.0
O666 O 0.5834 0.88075 0.13178 0.0
O667 O 0.56979 0.87185 0.04658 0.0
O668 O 0.54901 0.87974 0.10349 0.0
O669 O 0.56015 0.90039 0.09493 0.0
O670 O 0.57563 0.89688 0.20079 0.0
O671 O 0.57155 0.91498 0.19891 0.0
H672 H 0.56455 0.95279 0.98046 0.0
H673 H 0.5769 0.97507 0.92959 0.0
H674 H 0.60958 0.98603 0.06825 0.0
H675 H 0.5975 0.96364 0.11686 0.0
H676 H 0.59155 0.86423 0.17759 0.0
H677 H 0.58805 0.84195 0.20383 0.0
H678 H 0.55269 0.82385 0.07875 0.0
H679 H 0.55632 0.84618 0.05176 0.0
Nd680 Nd 0.12562 0.67339 0.09142 0.0
Nd681 Nd 0.15662 0.701 0.09341 0.0
C682 C 0.1046 0.6489 0.08557 0.0
C683 C 0.09109 0.64245 0.05431 0.0
C684 C 0.08953 0.64198 0.98487 0.0
C685 C 0.07668 0.63599 0.95645 0.0
C686 C 0.06509 0.63038 0.99672 0.0
C687 C 0.06669 0.63089 0.06614 0.0
C688 C 0.07954 0.63682 0.09453 0.0
C689 C 0.12503 0.6972 0.08358 0.0
C690 C 0.14108 0.68726 0.95136 0.0
C691 C 0.17659 0.72624 0.09122 0.0
C692 C 0.19022 0.73643 0.11475 0.0
C693 C 0.19167 0.74675 0.15763 0.0
C694 C 0.20445 0.75761 0.17251 0.0
C695 C 0.2161 0.75847 0.14449 0.0
C696 C 0.21467 0.74789 0.10336 0.0
C697 C 0.20189 0.73701 0.08856 0.0
C698 C 0.1566 0.67679 0.10592 0.0
C699 C 0.14133 0.6869 0.23338 0.0
O700 O 0.11505 0.65311 0.04592 0.0
O701 O 0.1066 0.65723 0.13476 0.0
O702 O 0.11425 0.68539 0.08232 0.0
O703 O 0.13509 0.69564 0.08666 0.0
O704 O 0.13183 0.67625 0.98193 0.0
O705 O 0.1502 0.69818 0.98329 0.0
O706 O 0.16645 0.72188 0.13298 0.0
O707 O 0.17552 0.71702 0.04896 0.0
O708 O 0.16767 0.68846 0.10678 0.0
O709 O 0.147 0.6789 0.0983 0.0
O710 O 0.15046 0.69804 0.20304 0.0
O711 O 0.13227 0.67591 0.20128 0.0
H712 H 0.09822 0.64624 0.95233 0.0
H713 H 0.07583 0.63563 0.90283 0.0
H714 H 0.05802 0.62687 0.09871 0.0
H715 H 0.08045 0.63709 0.14816 0.0
H716 H 0.18288 0.7467 0.17775 0.0
H717 H 0.20513 0.76562 0.20374 0.0
H718 H 0.22343 0.74811 0.08172 0.0
H719 H 0.20116 0.72929 0.05499 0.0
C720 C 0.10953 0.38028 0.43362 0.0
C721 C 0.11848 0.38314 0.38024 0.0
C722 C 0.10263 0.36736 0.46118 0.0
C723 C 0.09159 0.33172 0.42261 0.0
H724 H 0.08374 0.32701 0.61121 0.0
C725 C 0.05867 0.27887 0.53873 0.0
C726 C 0.04791 0.27803 0.57588 0.0
C727 C 0.06954 0.29151 0.52116 0.0
C728 C 0.0859 0.32815 0.55846 0.0
H729 H 0.12714 0.37453 0.31412 0.0
H730 H 0.11542 0.35214 0.36335 0.0
H731 H 0.09819 0.34956 0.56682 0.0
H732 H 0.04035 0.2895 0.62729 0.0
H733 H 0.05931 0.3114 0.59828 0.0
H734 H 0.07906 0.3103 0.41431 0.0
C735 C 0.11359 0.35985 0.38339 0.0
C736 C 0.09411 0.34109 0.5329 0.0
C737 C 0.12045 0.37276 0.35565 0.0
C738 C 0.04857 0.2899 0.59877 0.0
C739 C 0.05946 0.30245 0.58228 0.0
C740 C 0.08342 0.31876 0.44828 0.0
C741 C 0.10454 0.35696 0.43634 0.0
C742 C 0.09681 0.34308 0.46441 0.0
C743 C 0.06987 0.30344 0.54161 0.0
C744 C 0.08023 0.31687 0.51627 0.0
H745 H 0.10786 0.38805 0.45444 0.0
H746 H 0.0956 0.36549 0.50126 0.0
H747 H 0.09332 0.33284 0.36954 0.0
H748 H 0.0583 0.26983 0.51998 0.0
H749 H 0.07747 0.29197 0.49004 0.0
C750 C 0.76997 0.79614 0.53008 0.0
C751 C 0.77166 0.7892 0.58313 0.0
C752 C 0.75702 0.79335 0.51184 0.0
C753 C 0.72168 0.76529 0.52901 0.0
H754 H 0.71337 0.78941 0.43202 0.0
C755 C 0.67251 0.74492 0.38066 0.0
C756 C 0.66604 0.75258 0.3775 0.0
C757 C 0.68531 0.75026 0.40886 0.0
C758 C 0.71544 0.78256 0.45981 0.0
H759 H 0.76159 0.7749 0.66227 0.0
H760 H 0.73919 0.7708 0.63427 0.0
H761 H 0.73565 0.79809 0.48096 0.0
H762 H 0.66813 0.772 0.40156 0.0
H763 H 0.69019 0.78109 0.45335 0.0
H764 H 0.70143 0.74989 0.51016 0.0
C765 C 0.74761 0.77785 0.60417 0.0
C766 C 0.72832 0.78752 0.4872 0.0
C767 C 0.76047 0.78034 0.62104 0.0
C768 C 0.67271 0.76572 0.40379 0.0
C769 C 0.68548 0.77103 0.43269 0.0
C770 C 0.70881 0.7604 0.50257 0.0
C771 C 0.7456 0.78376 0.54724 0.0
C772 C 0.73166 0.77892 0.52172 0.0
C773 C 0.69196 0.76336 0.43566 0.0
C774 C 0.70555 0.76889 0.46669 0.0
H775 H 0.77849 0.80286 0.4995 0.0
H776 H 0.75594 0.79807 0.46753 0.0
H777 H 0.72383 0.7582 0.5538 0.0
H778 H 0.66765 0.7347 0.36188 0.0
H779 H 0.69003 0.7441 0.40906 0.0
C780 C 0.24846 0.99064 0.53413 0.0
C781 C 0.25794 1.00097 0.57497 0.0
C782 C 0.2504 0.97993 0.51535 0.0
C783 C 0.26998 0.96293 0.55451 0.0
H784 H 0.26967 0.95762 0.3642 0.0
C785 C 0.29932 0.93982 0.43254 0.0
C786 C 0.29367 0.93134 0.37716 0.0
C787 C 0.29322 0.94669 0.45961 0.0
C788 C 0.26959 0.95877 0.41756 0.0
H789 H 0.27629 0.00788 0.63157 0.0
H790 H 0.27947 0.98913 0.60069 0.0
H791 H 0.26106 0.97162 0.40922 0.0
H792 H 0.27691 0.92321 0.30797 0.0
H793 H 0.26629 0.9352 0.35506 0.0
H794 H 0.27873 0.9503 0.56296 0.0
C795 C 0.27061 0.98922 0.58264 0.0
C796 C 0.26462 0.96678 0.44336 0.0
C797 C 0.26881 0.99998 0.60026 0.0
C798 C 0.28168 0.92983 0.34991 0.0
C799 C 0.27557 0.9367 0.37698 0.0
C800 C 0.27489 0.95487 0.52878 0.0
C801 C 0.26169 0.97929 0.53831 0.0
C802 C 0.26502 0.96917 0.51202 0.0
C803 C 0.28128 0.94525 0.43209 0.0
C804 C 0.27502 0.95291 0.45986 0.0
H805 H 0.24008 0.99129 0.51339 0.0
H806 H 0.24332 0.97237 0.48137 0.0
H807 H 0.2703 0.96447 0.60771 0.0
H808 H 0.30865 0.9414 0.45422 0.0
H809 H 0.29805 0.95338 0.50127 0.0
C810 C 0.34346 0.09676 0.68881 0.0
C811 C 0.33222 0.08541 0.71625 0.0
C812 C 0.35618 0.10212 0.71818 0.0
C813 C 0.37567 0.09211 0.8245 0.0
H814 H 0.40046 0.1305 0.8416 0.0
C815 C 0.4262 0.11041 0.95135 0.0
C816 C 0.43756 0.12081 0.92005 0.0
C817 C 0.41331 0.10773 0.93422 0.0
C818 C 0.39369 0.11976 0.83675 0.0
H819 H 0.32554 0.07112 0.79773 0.0
H820 H 0.34773 0.08036 0.84841 0.0
H821 H 0.37794 0.12246 0.79545 0.0
H822 H 0.44455 0.13697 0.8483 0.0
H823 H 0.4219 0.13212 0.81668 0.0
H824 H 0.39135 0.08927 0.8637 0.0
C825 C 0.34671 0.08502 0.80365 0.0
C826 C 0.38079 0.11516 0.81036 0.0
C827 C 0.334 0.0797 0.77447 0.0
C828 C 0.43591 0.12905 0.87396 0.0
C829 C 0.42293 0.12621 0.85575 0.0
C830 C 0.38852 0.09668 0.8504 0.0
C831 C 0.35798 0.09621 0.77548 0.0
C832 C 0.37163 0.10127 0.8042 0.0
C833 C 0.41147 0.11517 0.88393 0.0
C834 C 0.3977 0.11056 0.85731 0.0
H835 H 0.34252 0.10131 0.6435 0.0
H836 H 0.36469 0.11063 0.6948 0.0
H837 H 0.36899 0.08136 0.81902 0.0
H838 H 0.42727 0.10395 0.9872 0.0
H839 H 0.40476 0.09944 0.95849 0.0
C840 C 0.91508 0.32342 0.87755 0.0
C841 C 0.9251 0.33441 0.9131 0.0
C842 C 0.91698 0.31262 0.86006 0.0
C843 C 0.93851 0.29737 0.89406 0.0
H844 H 0.93368 0.28838 0.70668 0.0
C845 C 0.96758 0.27537 0.75948 0.0
C846 C 0.96085 0.26545 0.7106 0.0
C847 C 0.96136 0.28191 0.78895 0.0
C848 C 0.93489 0.29059 0.75936 0.0
H849 H 0.94445 0.34244 0.96186 0.0
H850 H 0.94768 0.32371 0.93262 0.0
H851 H 0.92521 0.30241 0.75284 0.0
H852 H 0.94209 0.2544 0.65597 0.0
H853 H 0.93134 0.26594 0.70685 0.0
H854 H 0.94857 0.28591 0.90017 0.0
C855 C 0.93838 0.32327 0.91796 0.0
C856 C 0.92998 0.29859 0.78588 0.0
C857 C 0.93656 0.33406 0.93454 0.0
C858 C 0.94768 0.26215 0.69253 0.0
C859 C 0.94149 0.26874 0.72181 0.0
C860 C 0.94342 0.28939 0.86756 0.0
C861 C 0.92883 0.31261 0.87885 0.0
C862 C 0.93202 0.30234 0.85323 0.0
C863 C 0.94827 0.27874 0.77019 0.0
C864 C 0.94194 0.28615 0.79959 0.0
H865 H 0.9062 0.32354 0.85998 0.0
H866 H 0.9094 0.3045 0.83026 0.0
H867 H 0.94007 0.29992 0.94635 0.0
H868 H 0.97779 0.27833 0.77393 0.0
H869 H 0.96697 0.28973 0.82526 0.0
C870 C 0.76826 0.70827 0.71616 0.0
C871 C 0.7824 0.71492 0.7118 0.0
C872 C 0.76106 0.69553 0.74506 0.0
C873 C 0.76383 0.66572 0.79486 0.0
H874 H 0.73136 0.65713 0.89233 0.0
C875 C 0.72301 0.61112 0.86445 0.0
C876 C 0.71448 0.60938 0.91811 0.0
C877 C 0.73323 0.62408 0.84671 0.0
C878 C 0.74053 0.65934 0.86656 0.0
H879 H 0.79999 0.71321 0.73452 0.0
H880 H 0.78746 0.6912 0.78735 0.0
H881 H 0.74517 0.67954 0.84838 0.0
H882 H 0.71056 0.61933 0.99904 0.0
H883 H 0.72897 0.64172 0.97188 0.0
H884 H 0.75933 0.64554 0.81508 0.0
C885 C 0.78192 0.69575 0.76716 0.0
C886 C 0.74835 0.67222 0.83999 0.0
C887 C 0.78913 0.70848 0.73766 0.0
C888 C 0.71703 0.6205 0.95731 0.0
C889 C 0.72745 0.63334 0.94093 0.0
C890 C 0.75607 0.65283 0.82231 0.0
C891 C 0.76778 0.6891 0.77128 0.0
C892 C 0.75998 0.67554 0.80281 0.0
C893 C 0.73522 0.63545 0.88326 0.0
C894 C 0.74422 0.64941 0.85803 0.0
H895 H 0.76271 0.71296 0.69773 0.0
H896 H 0.75018 0.69067 0.74619 0.0
H897 H 0.77266 0.66786 0.7661 0.0
H898 H 0.72106 0.60266 0.833 0.0
H899 H 0.73892 0.62523 0.80186 0.0
C900 C 0.99446 0.76787 0.47737 0.0
C901 C 1.00288 0.76967 0.42315 0.0
C902 C 0.98436 0.75487 0.49546 0.0
C903 C 0.97725 0.71968 0.47526 0.0
H904 H 0.9452 0.711 0.57675 0.0
C905 C 0.94968 0.67059 0.62503 0.0
C906 C 0.93555 0.66396 0.62987 0.0
C907 C 0.95687 0.68336 0.59624 0.0
C908 C 0.95401 0.71318 0.5477 0.0
H909 H 0.00677 0.75977 0.34183 0.0
H910 H 0.98856 0.73732 0.36968 0.0
H911 H 0.95839 0.73333 0.5278 0.0
H912 H 0.91795 0.66573 0.60804 0.0
H913 H 0.93044 0.68774 0.55535 0.0
H914 H 0.97273 0.6995 0.4931 0.0
C915 C 0.99005 0.74568 0.40067 0.0
C916 C 0.96169 0.72608 0.52028 0.0
C917 C 1.00035 0.75856 0.38387 0.0
C918 C 0.92881 0.67043 0.60454 0.0
C919 C 0.936 0.68317 0.57512 0.0
C920 C 0.96951 0.70679 0.50181 0.0
C921 C 0.9824 0.74354 0.45877 0.0
C922 C 0.97351 0.72956 0.48416 0.0
C923 C 0.95014 0.68982 0.57059 0.0
C924 C 0.9579 0.7034 0.53931 0.0
H925 H 0.99642 0.77631 0.50899 0.0
H926 H 0.97876 0.75369 0.54067 0.0
H927 H 0.98641 0.72195 0.44915 0.0
H928 H 0.95524 0.66589 0.64304 0.0
H929 H 0.96775 0.6882 0.59476 0.0
C930 C 0.29213 0.26722 0.40801 0.0
C931 C 0.28028 0.25588 0.43003 0.0
C932 C 0.3047 0.26896 0.42468 0.0
C933 C 0.3209 0.26073 0.55774 0.0
H934 H 0.35213 0.27872 0.44273 0.0
C935 C 0.37498 0.27816 0.65111 0.0
C936 C 0.38496 0.2912 0.63206 0.0
C937 C 0.36218 0.27201 0.62203 0.0
C938 C 0.34352 0.27375 0.47556 0.0
H939 H 0.27213 0.23712 0.48434 0.0
H940 H 0.29431 0.24018 0.51425 0.0
H941 H 0.32963 0.27031 0.3967 0.0
H942 H 0.3892 0.30798 0.56718 0.0
H943 H 0.36694 0.29724 0.51626 0.0
H944 H 0.33481 0.26452 0.63699 0.0
C945 C 0.29383 0.24773 0.48389 0.0
C946 C 0.33063 0.26888 0.44914 0.0
C947 C 0.28116 0.2459 0.46628 0.0
C948 C 0.38186 0.29786 0.58242 0.0
C949 C 0.36908 0.29169 0.55317 0.0
C950 C 0.33381 0.2656 0.58419 0.0
C951 C 0.30574 0.25946 0.4645 0.0
C952 C 0.31918 0.2626 0.4902 0.0
C953 C 0.35906 0.27872 0.5729 0.0
C954 C 0.34529 0.27244 0.54368 0.0
H955 H 0.2917 0.27508 0.38016 0.0
H956 H 0.31361 0.27818 0.40954 0.0
H957 H 0.31232 0.25612 0.59095 0.0
H958 H 0.37707 0.27262 0.68827 0.0
H959 H 0.35476 0.26195 0.63775 0.0
C960 C 0.76764 0.11341 0.66624 0.0
C961 C 0.75628 0.11267 0.63535 0.0
C962 C 0.77411 0.10697 0.63849 0.0
C963 C 0.77724 0.0915 0.48174 0.0
H964 H 0.78875 0.07244 0.5997 0.0
C965 C 0.78378 0.04701 0.40236 0.0
C966 C 0.79424 0.0456 0.43002 0.0
C967 C 0.78189 0.05765 0.42116 0.0
C968 C 0.78585 0.07794 0.56616 0.0
H969 H 0.74281 0.10451 0.55092 0.0
H970 H 0.75401 0.09318 0.50277 0.0
H971 H 0.77954 0.08577 0.64618 0.0
H972 H 0.8113 0.05443 0.497 0.0
H973 H 0.80785 0.07309 0.53126 0.0
H974 H 0.78303 0.08311 0.40171 0.0
C975 C 0.75809 0.09896 0.54789 0.0
C976 C 0.78054 0.08557 0.59277 0.0
C977 C 0.75164 0.10544 0.57559 0.0
C978 C 0.80327 0.05543 0.47437 0.0
C979 C 0.80121 0.06599 0.49439 0.0
C980 C 0.78246 0.08378 0.45517 0.0
C981 C 0.76939 0.09959 0.57913 0.0
C982 C 0.77595 0.09227 0.55087 0.0
C983 C 0.79028 0.06699 0.46914 0.0
C984 C 0.78662 0.07674 0.49706 0.0
H985 H 0.77163 0.1191 0.7117 0.0
H986 H 0.7829 0.10786 0.6634 0.0
H987 H 0.77407 0.09674 0.448 0.0
H988 H 0.77665 0.03948 0.36839 0.0
H989 H 0.77332 0.05806 0.40126 0.0
C990 C 0.61439 0.91323 0.13345 0.0
C991 C 0.61339 0.92267 0.09309 0.0
C992 C 0.62709 0.91536 0.15248 0.0
C993 C 0.66377 0.93584 0.11572 0.0
H994 H 0.66815 0.93407 0.3057 0.0
C995 C 0.71557 0.96516 0.24406 0.0
C996 C 0.71836 0.95911 0.29781 0.0
C997 C 0.70273 0.95902 0.21549 0.0
C998 C 0.6671 0.93442 0.2524 0.0
H999 H 0.62465 0.94125 0.03809 0.0
H1000 H 0.64669 0.94485 0.06988 0.0
H1001 H 0.64566 0.92544 0.25939 0.0
H1002 H 0.70985 0.94159 0.36222 0.0
H1003 H 0.68747 0.93093 0.31264 0.0
H1004 H 0.68522 0.94508 0.10879 0.0
C1005 C 0.63781 0.93582 0.08704 0.0
C1006 C 0.65418 0.92942 0.22583 0.0
C1007 C 0.62519 0.93379 0.06894 0.0
C1008 C 0.70801 0.94667 0.32171 0.0
C1009 C 0.69516 0.94054 0.2932 0.0
C1010 C 0.67668 0.9408 0.14223 0.0
C1011 C 0.63894 0.92686 0.1306 0.0
C1012 C 0.65239 0.93033 0.15734 0.0
C1013 C 0.69234 0.94666 0.23991 0.0
C1014 C 0.67853 0.9404 0.21106 0.0
H1015 H 0.60543 0.90471 0.15366 0.0
H1016 H 0.62765 0.90825 0.18588 0.0
H1017 H 0.66271 0.93654 0.06263 0.0
H1018 H 0.72323 0.97482 0.22496 0.0
H1019 H 0.70086 0.96414 0.17526 0.0
C1020 C 0.08243 0.77146 0.23191 0.0
C1021 C 0.08806 0.77915 0.28972 0.0
C1022 C 0.0879 0.76411 0.20372 0.0
C1023 C 0.11834 0.76061 0.1991 0.0
H1024 H 0.09282 0.72404 0.14582 0.0
C1025 C 0.13285 0.71971 0.13631 0.0
C1026 C 0.12468 0.7098 0.09005 0.0
C1027 C 0.12989 0.72979 0.15449 0.0
C1028 C 0.10013 0.73431 0.15915 0.0
H1029 H 0.10398 0.78514 0.36283 0.0
H1030 H 0.11355 0.77236 0.3133 0.0
H1031 H 0.08461 0.73831 0.18966 0.0
H1032 H 0.10789 0.70319 0.02233 0.0
H1033 H 0.1032 0.72107 0.05091 0.0
H1034 H 0.13388 0.75649 0.16872 0.0
C1035 C 0.10498 0.77216 0.28944 0.0
C1036 C 0.09539 0.74249 0.18455 0.0
C1037 C 0.09948 0.77949 0.31781 0.0
C1038 C 0.11429 0.71072 0.05835 0.0
C1039 C 0.11151 0.72086 0.07543 0.0
C1040 C 0.12311 0.7524 0.17323 0.0
C1041 C 0.09916 0.76426 0.23251 0.0
C1042 C 0.10441 0.75574 0.20472 0.0
C1043 C 0.11882 0.73013 0.12604 0.0
C1044 C 0.11404 0.73916 0.15262 0.0
H1045 H 0.07381 0.77116 0.20816 0.0
H1046 H 0.08331 0.75829 0.15921 0.0
H1047 H 0.12555 0.77081 0.21392 0.0
H1048 H 0.14079 0.71906 0.1621 0.0
H1049 H 0.13573 0.73673 0.19371 0.0
C1050 C 0.3273 0.43418 0.13061 0.0
C1051 C 0.33793 0.43512 0.09191 0.0
C1052 C 0.3166 0.42152 0.14904 0.0
C1053 C 0.30068 0.38476 0.11358 0.0
H1054 H 0.29303 0.38067 0.3024 0.0
C1055 C 0.27802 0.33339 0.24587 0.0
C1056 C 0.26859 0.33051 0.29697 0.0
C1057 C 0.28475 0.34616 0.21668 0.0
C1058 C 0.29486 0.38165 0.24937 0.0
H1059 H 0.34545 0.42376 0.03924 0.0
H1060 H 0.32684 0.40179 0.07028 0.0
H1061 H 0.30714 0.4031 0.25599 0.0
H1062 H 0.25859 0.3388 0.35591 0.0
H1063 H 0.27042 0.3611 0.30542 0.0
H1064 H 0.2887 0.36328 0.10724 0.0
C1065 C 0.32662 0.4107 0.08646 0.0
C1066 C 0.30292 0.39453 0.22271 0.0
C1067 C 0.33732 0.42329 0.06882 0.0
C1068 C 0.26597 0.34071 0.31756 0.0
C1069 C 0.27273 0.3535 0.28851 0.0
C1070 C 0.29263 0.37189 0.14021 0.0
C1071 C 0.31632 0.40964 0.12836 0.0
C1072 C 0.30616 0.39621 0.15473 0.0
C1073 C 0.28224 0.3564 0.2379 0.0
C1074 C 0.28984 0.37015 0.20865 0.0
H1075 H 0.32769 0.44317 0.15003 0.0
H1076 H 0.30878 0.42103 0.18109 0.0
H1077 H 0.30283 0.38573 0.06084 0.0
H1078 H 0.28047 0.32586 0.2294 0.0
H1079 H 0.29218 0.34811 0.17859 0.0
C1080 C 1.00079 0.41322 0.10684 0.0
C1081 C 0.99879 0.41901 0.04952 0.0
C1082 C 0.01358 0.41865 0.13537 0.0
C1083 C 0.04744 0.44914 0.14238 0.0
H1084 H 0.05857 0.42357 0.19327 0.0
C1085 C 0.10281 0.46372 0.20674 0.0
C1086 C 0.10452 0.45544 0.25236 0.0
C1087 C 0.0898 0.46074 0.18808 0.0
C1088 C 0.05559 0.43088 0.18061 0.0
H1089 H 0.00876 0.43517 0.97774 0.0
H1090 H 0.03105 0.44467 0.02791 0.0
H1091 H 0.03615 0.41542 0.14886 0.0
H1092 H 0.09426 0.43839 0.31846 0.0
H1093 H 0.07172 0.43363 0.28906 0.0
H1094 H 0.06702 0.46463 0.17405 0.0
C1095 C 0.02267 0.436 0.05109 0.0
C1096 C 0.0427 0.42618 0.15488 0.0
C1097 C 0.00988 0.43055 0.02236 0.0
C1098 C 0.09317 0.44488 0.28293 0.0
C1099 C 0.08025 0.44206 0.26538 0.0
C1100 C 0.06038 0.45387 0.16859 0.0
C1101 C 0.0247 0.43002 0.10747 0.0
C1102 C 0.03844 0.43523 0.13557 0.0
C1103 C 0.07836 0.44953 0.2154 0.0
C1104 C 0.06459 0.44478 0.18836 0.0
H1105 H 0.99246 0.4045 0.12991 0.0
H1106 H 0.01477 0.41392 0.17946 0.0
H1107 H 0.04443 0.45636 0.12824 0.0
H1108 H 0.11145 0.4718 0.1818 0.0
H1109 H 0.08873 0.4667 0.14936 0.0
C1110 C 0.61823 0.59934 0.02574 0.0
C1111 C 0.62958 0.59959 0.05411 0.0
C1112 C 0.61276 0.60669 0.05407 0.0
C1113 C 0.62228 0.63624 0.15953 0.0
H1114 H 0.58377 0.62215 0.17535 0.0
C1115 C 0.60325 0.66786 0.28605 0.0
C1116 C 0.59283 0.66874 0.25442 0.0
C1117 C 0.60608 0.65776 0.26889 0.0
C1118 C 0.59455 0.62626 0.17084 0.0
H1119 H 0.64378 0.60746 0.13595 0.0
H1120 H 0.63432 0.62039 0.18484 0.0
H1121 H 0.59215 0.6079 0.12984 0.0
H1122 H 0.57671 0.65945 0.18244 0.0
H1123 H 0.58185 0.64184 0.15063 0.0
H1124 H 0.6248 0.65465 0.19852 0.0
C1125 C 0.62976 0.61461 0.14019 0.0
C1126 C 0.59934 0.6181 0.1448 0.0
C1127 C 0.6352 0.60723 0.11204 0.0
C1128 C 0.58468 0.65882 0.20816 0.0
C1129 C 0.58768 0.64879 0.18988 0.0
C1130 C 0.61751 0.64439 0.18508 0.0
C1131 C 0.61854 0.61452 0.11124 0.0
C1132 C 0.61328 0.623 0.13918 0.0
C1133 C 0.59878 0.64849 0.21826 0.0
C1134 C 0.60359 0.6395 0.19159 0.0
H1135 H 0.61377 0.59373 0.98057 0.0
H1136 H 0.60423 0.60655 0.03008 0.0
H1137 H 0.63306 0.64044 0.15444 0.0
H1138 H 0.60963 0.6754 0.32209 0.0
H1139 H 0.6144 0.65758 0.29337 0.0
C1140 C 0.45565 0.04159 0.07325 0.0
C1141 C 0.44905 0.04809 0.04647 0.0
C1142 C 0.44829 0.02887 0.10281 0.0
C1143 C 0.41447 0.00551 0.17386 0.0
H1144 H 0.42548 0.97877 0.15263 0.0
C1145 C 0.38299 0.954 0.29351 0.0
C1146 C 0.3806 0.94278 0.25555 0.0
C1147 C 0.39335 0.96683 0.2765 0.0
C1148 C 0.4222 0.98607 0.15879 0.0
H1149 H 0.42946 0.04625 0.03078 0.0
H1150 H 0.41669 0.02399 0.07925 0.0
H1151 H 0.43895 1.001 0.10302 0.0
H1152 H 0.38737 0.9359 0.17181 0.0
H1153 H 0.40514 0.95843 0.13959 0.0
H1154 H 0.39734 0.99051 0.22572 0.0
C1155 C 0.42757 0.02878 0.07884 0.0
C1156 C 0.43004 0.99892 0.131 0.0
C1157 C 0.43491 0.04152 0.04992 0.0
C1158 C 0.38921 0.94444 0.2024 0.0
C1159 C 0.39938 0.95738 0.18402 0.0
C1160 C 0.40657 0.99268 0.20073 0.0
C1161 C 0.43414 0.0223 0.10603 0.0
C1162 C 0.4262 0.00877 0.13769 0.0
C1163 C 0.40123 0.96881 0.21938 0.0
C1164 C 0.41027 0.98273 0.19357 0.0
H1165 H 0.46651 0.04625 0.07084 0.0
H1166 H 0.45373 0.02428 0.12376 0.0
H1167 H 0.41129 0.01286 0.18128 0.0
H1168 H 0.37645 0.9529 0.33481 0.0
H1169 H 0.39476 0.97527 0.30656 0.0
C1170 C 0.6659 0.09125 0.7206 0.0
C1171 C 0.66869 0.10228 0.76116 0.0
C1172 C 0.65564 0.07834 0.73738 0.0
C1173 C 0.62788 0.05856 0.85976 0.0
H1174 H 0.63846 0.03185 0.82542 0.0
C1175 C 0.59508 1.00277 0.94177 0.0
C1176 C 0.60183 0.99608 0.96403 0.0
C1177 C 0.60221 0.01558 0.91306 0.0
C1178 C 0.63538 0.03917 0.83616 0.0
H1179 H 0.66275 0.10874 0.84944 0.0
H1180 H 0.64516 0.08609 0.88097 0.0
H1181 H 0.65203 0.05439 0.78236 0.0
H1182 H 0.62148 0.99771 0.97252 0.0
H1183 H 0.63391 0.02016 0.9256 0.0
H1184 H 0.61166 0.04342 0.91732 0.0
C1185 C 0.65051 0.08735 0.83481 0.0
C1186 C 0.64305 0.05212 0.81013 0.0
C1187 C 0.66057 0.10037 0.81681 0.0
C1188 C 0.61591 1.00258 0.95692 0.0
C1189 C 0.62305 0.01542 0.92887 0.0
C1190 C 0.62028 0.04561 0.88667 0.0
C1191 C 0.64829 0.07609 0.79668 0.0
C1192 C 0.63946 0.06205 0.82159 0.0
C1193 C 0.61631 0.0221 0.90623 0.0
C1194 C 0.624 0.03576 0.87568 0.0
H1195 H 0.6721 0.09254 0.6775 0.0
H1196 H 0.65394 0.07005 0.70533 0.0
H1197 H 0.6247 0.06585 0.86929 0.0
H1198 H 0.58426 0.99818 0.94712 0.0
H1199 H 0.59663 0.02031 0.89563 0.0
C1200 C 0.04066 0.61227 0.99371 0.0
C1201 C 0.0514 0.62407 0.96656 0.0
C1202 C 0.02776 0.60646 0.96602 0.0
C1203 C 0.00949 0.60625 0.81308 0.0
H1204 H 0.97884 0.59351 0.93162 0.0
C1205 C 0.95876 0.60106 0.73759 0.0
C1206 C 0.94682 0.59038 0.76333 0.0
C1207 C 0.97125 0.60277 0.75623 0.0
C1208 C 0.98725 0.59677 0.89777 0.0
H1209 H 0.05688 0.63907 0.8891 0.0
H1210 H 0.03442 0.629 0.84097 0.0
H1211 H 1.00126 0.60154 0.97752 0.0
H1212 H 0.93845 0.57302 0.8282 0.0
H1213 H 0.96037 0.57594 0.86101 0.0
H1214 H 0.99549 0.60192 0.73351 0.0
C1215 C 0.03602 0.62407 0.883 0.0
C1216 C 1.00012 0.60141 0.92408 0.0
C1217 C 0.04892 0.62987 0.91069 0.0
C1218 C 0.94751 0.58111 0.80628 0.0
C1219 C 0.96005 0.58292 0.82577 0.0
C1220 C 0.99663 0.60168 0.78682 0.0
C1221 C 0.02526 0.61231 0.91042 0.0
C1222 C 0.01144 0.60643 0.88213 0.0
C1223 C 0.97206 0.59395 0.80199 0.0
C1224 C 0.9854 0.59711 0.82894 0.0
H1225 H 0.04225 0.60741 0.03606 0.0
H1226 H 0.01976 0.59731 0.98787 0.0
H1227 H 0.01793 0.60979 0.77923 0.0
H1228 H 0.95845 0.60841 0.70489 0.0
H1229 H 0.98028 0.61146 0.73763 0.0
C1230 C 0.43703 0.4501 0.98967 0.0
C1231 C 0.42462 0.44801 0.9653 0.0
C1232 C 0.44311 0.44323 0.9622 0.0
C1233 C 0.4427 0.42403 0.81267 0.0
H1234 H 0.45797 0.4085 0.93114 0.0
C1235 C 0.44871 0.37884 0.74326 0.0
C1236 C 0.45977 0.37803 0.76711 0.0
C1237 C 0.44698 0.38966 0.76054 0.0
C1238 C 0.45402 0.413 0.89722 0.0
H1239 H 0.40884 0.4369 0.893 0.0
H1240 H 0.41942 0.42497 0.84512 0.0
H1241 H 0.44955 0.42264 0.97636 0.0
H1242 H 0.47804 0.38807 0.82566 0.0
H1243 H 0.47495 0.40711 0.85692 0.0
H1244 H 0.44676 0.41399 0.73386 0.0
C1245 C 0.42458 0.4321 0.88483 0.0
C1246 C 0.44914 0.42109 0.92315 0.0
C1247 C 0.4185 0.43894 0.91236 0.0
C1248 C 0.46949 0.38857 0.80609 0.0
C1249 C 0.46764 0.39936 0.82444 0.0
C1250 C 0.44754 0.41592 0.78681 0.0
C1251 C 0.43695 0.43412 0.9095 0.0
C1252 C 0.44317 0.42648 0.88135 0.0
C1253 C 0.45618 0.39984 0.80298 0.0
C1254 C 0.453 0.41009 0.82893 0.0
H1255 H 0.44216 0.45718 0.02963 0.0
H1256 H 0.45271 0.44517 0.98187 0.0
H1257 H 0.43844 0.42824 0.77886 0.0
H1258 H 0.44104 0.37079 0.71337 0.0
H1259 H 0.43798 0.38961 0.74371 0.0
C1260 C 0.10748 0.22784 0.43912 0.0
C1261 C 0.10664 0.23634 0.48697 0.0
C1262 C 0.11953 0.22779 0.42896 0.0
C1263 C 0.15204 0.23721 0.51143 0.0
H1264 H 0.16254 0.23238 0.33497 0.0
C1265 C 0.2037 0.24175 0.46069 0.0
C1266 C 0.20383 0.23198 0.41897 0.0
C1267 C 0.19212 0.24281 0.46652 0.0
C1268 C 0.1597 0.23363 0.38464 0.0
H1269 H 0.11801 0.25157 0.56137 0.0
H1270 H 0.13911 0.25186 0.54194 0.0
H1271 H 0.14195 0.23339 0.3497 0.0
H1272 H 0.19207 0.21589 0.34946 0.0
H1273 H 0.17176 0.21769 0.35977 0.0
H1274 H 0.16981 0.23747 0.5463 0.0
C1275 C 0.13036 0.24502 0.51303 0.0
C1276 C 0.14787 0.23419 0.39315 0.0
C1277 C 0.11828 0.245 0.52346 0.0
C1278 C 0.19225 0.22352 0.3819 0.0
C1279 C 0.18065 0.22459 0.38765 0.0
C1280 C 0.16389 0.23671 0.50287 0.0
C1281 C 0.13112 0.23632 0.46608 0.0
C1282 C 0.14386 0.23596 0.4567 0.0
C1283 C 0.18039 0.23415 0.43068 0.0
C1284 C 0.16786 0.23488 0.43939 0.0
H1285 H 0.09878 0.22113 0.40955 0.0
H1286 H 0.11966 0.22085 0.39289 0.0
H1287 H 0.14917 0.23832 0.56126 0.0
H1288 H 0.21251 0.24845 0.48966 0.0
H1289 H 0.19234 0.25043 0.49924 0.0
C1290 C 0.80723 0.98246 0.45553 0.0
C1291 C 0.81777 0.99272 0.41872 0.0
C1292 C 0.80643 0.96995 0.46349 0.0
C1293 C 0.81947 0.94829 0.39692 0.0
H1294 H 0.80832 0.9311 0.56918 0.0
C1295 C 0.82371 0.90159 0.47167 0.0
C1296 C 0.81265 0.89129 0.50586 0.0
C1297 C 0.82446 0.914 0.45979 0.0
C1298 C 0.81134 0.9357 0.52058 0.0
H1299 H 0.83558 0.9979 0.3603 0.0
H1300 H 0.83438 0.97619 0.37525 0.0
H1301 H 0.80914 0.95244 0.54959 0.0
H1302 H 0.79388 0.88611 0.55569 0.0
H1303 H 0.79511 0.90759 0.5343 0.0
H1304 H 0.82181 0.93155 0.36844 0.0
C1305 C 0.82658 0.97767 0.39712 0.0
C1306 C 0.81177 0.94794 0.50921 0.0
C1307 C 0.82732 0.99014 0.38873 0.0
C1308 C 0.80244 0.89374 0.52834 0.0
C1309 C 0.80322 0.90613 0.51678 0.0
C1310 C 0.81911 0.93607 0.40847 0.0
C1311 C 0.81621 0.96745 0.43529 0.0
C1312 C 0.81578 0.95438 0.44711 0.0
C1313 C 0.81423 0.91641 0.48235 0.0
C1314 C 0.81497 0.92959 0.47034 0.0
H1315 H 0.79969 0.98414 0.47898 0.0
H1316 H 0.79813 0.96226 0.49201 0.0
H1317 H 0.82244 0.95284 0.34823 0.0
H1318 H 0.83171 0.90002 0.45347 0.0
H1319 H 0.83313 0.92176 0.43363 0.0
C1320 C 0.0596 0.85722 0.37692 0.0
C1321 C 0.05635 0.84558 0.41365 0.0
C1322 C 0.0723 0.86877 0.38335 0.0
C1323 C 0.10093 0.88528 0.49992 0.0
H1324 H 0.11986 0.90742 0.34779 0.0
C1325 C 0.15475 0.93102 0.52315 0.0
C1326 C 0.15775 0.94267 0.48677 0.0
C1327 C 0.14273 0.91892 0.51224 0.0
C1328 C 0.11466 0.90145 0.39097 0.0
H1329 H 0.06392 0.83672 0.48443 0.0
H1330 H 0.0861 0.85681 0.49523 0.0
H1331 H 0.09831 0.88684 0.33192 0.0
H1332 H 0.15048 0.95054 0.40906 0.0
H1333 H 0.12939 0.92963 0.39155 0.0
H1334 H 0.11714 0.89995 0.55917 0.0
C1335 C 0.0788 0.85712 0.46223 0.0
C1336 C 0.10229 0.88962 0.3818 0.0
C1337 C 0.06613 0.84558 0.4557 0.0
C1338 C 0.14847 0.94183 0.43856 0.0
C1339 C 0.13642 0.92976 0.42791 0.0
C1340 C 0.11327 0.89713 0.50914 0.0
C1341 C 0.082 0.86891 0.42673 0.0
C1342 C 0.09527 0.8814 0.43616 0.0
C1343 C 0.13334 0.91816 0.46486 0.0
C1344 C 0.1203 0.90539 0.4548 0.0
H1345 H 0.05223 0.85751 0.34424 0.0
H1346 H 0.07437 0.87771 0.35572 0.0
H1347 H 0.09569 0.87931 0.54306 0.0
H1348 H 0.16154 0.93129 0.56132 0.0
H1349 H 0.1408 0.91016 0.54106 0.0
C1350 C 0.23011 0.14607 0.56734 0.0
C1351 C 0.23855 0.15535 0.51913 0.0
C1352 C 0.23008 0.13398 0.57762 0.0
C1353 C 0.23943 0.1108 0.49523 0.0
H1354 H 0.23478 0.09567 0.67197 0.0
C1355 C 0.24415 0.0638 0.54669 0.0
C1356 C 0.23442 0.05393 0.5886 0.0
C1357 C 0.24518 0.07643 0.54065 0.0
C1358 C 0.23598 0.0997 0.62222 0.0
H1359 H 0.25365 0.1591 0.4442 0.0
H1360 H 0.25396 0.13831 0.46383 0.0
H1361 H 0.23574 0.11723 0.6569 0.0
H1362 H 0.21837 0.04963 0.65829 0.0
H1363 H 0.22011 0.0717 0.64769 0.0
H1364 H 0.23971 0.09327 0.46064 0.0
C1365 C 0.24716 0.14026 0.49293 0.0
C1366 C 0.23651 0.11207 0.61351 0.0
C1367 C 0.24714 0.15231 0.48238 0.0
C1368 C 0.22597 0.05706 0.62569 0.0
C1369 C 0.22701 0.06972 0.61976 0.0
C1370 C 0.23896 0.09846 0.504 0.0
C1371 C 0.23854 0.13086 0.54027 0.0
C1372 C 0.23821 0.11778 0.54986 0.0
C1373 C 0.23652 0.07951 0.57651 0.0
C1374 C 0.23721 0.09274 0.56758 0.0
H1375 H 0.22346 0.1481 0.59713 0.0
H1376 H 0.22319 0.12696 0.61399 0.0
H1377 H 0.24049 0.11472 0.44532 0.0
H1378 H 0.25086 0.0617 0.5177 0.0
H1379 H 0.25276 0.0838 0.50776 0.0
C1380 C 0.8971 0.11562 0.48168 0.0
C1381 C 0.89417 0.10398 0.51798 0.0
C1382 C 0.90914 0.12772 0.4922 0.0
C1383 C 0.93744 0.14528 0.61215 0.0
H1384 H 0.95603 0.16736 0.45929 0.0
C1385 C 0.99235 0.18995 0.62394 0.0
C1386 C 0.99538 0.20151 0.58703 0.0
C1387 C 0.97972 0.17828 0.61804 0.0
C1388 C 0.95089 0.1614 0.50265 0.0
H1389 H 0.90158 0.09614 0.59516 0.0
H1390 H 0.92269 0.11707 0.61197 0.0
H1391 H 0.93462 0.14665 0.4441 0.0
H1392 H 0.9875 0.21011 0.51646 0.0
H1393 H 0.96544 0.18984 0.50663 0.0
H1394 H 0.95386 0.15999 0.6705 0.0
C1395 C 0.9156 0.11692 0.57598 0.0
C1396 C 0.93858 0.14951 0.49396 0.0
C1397 C 0.90353 0.10484 0.56573 0.0
C1398 C 0.98546 0.20131 0.54532 0.0
C1399 C 0.97286 0.18967 0.53934 0.0
C1400 C 0.94979 0.15715 0.6208 0.0
C1401 C 0.91862 0.12851 0.53906 0.0
C1402 C 0.93167 0.14128 0.54858 0.0
C1403 C 0.96987 0.17795 0.57503 0.0
C1404 C 0.95667 0.16537 0.56616 0.0
H1405 H 0.89025 0.11533 0.44386 0.0
H1406 H 0.91101 0.13647 0.46345 0.0
H1407 H 0.93233 0.13932 0.65554 0.0
H1408 H 0.99983 0.18982 0.65637 0.0
H1409 H 0.9778 0.16941 0.64581 0.0
C1410 C 0.94534 0.82495 0.52903 0.0
C1411 C 0.94539 0.81352 0.50378 0.0
C1412 C 0.93325 0.82492 0.53881 0.0
C1413 C 0.89704 0.80659 0.4896 0.0
H1414 H 0.89408 0.82769 0.63239 0.0
C1415 C 0.84723 0.80591 0.55402 0.0
C1416 C 0.84837 0.81855 0.56492 0.0
C1417 C 0.85878 0.80473 0.548 0.0
C1418 C 0.89478 0.82181 0.59203 0.0
H1419 H 0.93252 0.79296 0.47021 0.0
H1420 H 0.91143 0.79268 0.49037 0.0
H1421 H 0.91451 0.82631 0.62145 0.0
H1422 H 0.8624 0.83984 0.57803 0.0
H1423 H 0.88258 0.8378 0.56814 0.0
H1424 H 0.87713 0.80194 0.46119 0.0
C1425 C 0.9208 0.80183 0.50094 0.0
C1426 C 0.90653 0.82105 0.58551 0.0
C1427 C 0.93293 0.80191 0.49038 0.0
C1428 C 0.86124 0.82998 0.56978 0.0
C1429 C 0.87278 0.82879 0.56448 0.0
C1430 C 0.88521 0.80722 0.49667 0.0
C1431 C 0.92079 0.81338 0.52471 0.0
C1432 C 0.90792 0.81357 0.53369 0.0
C1433 C 0.87169 0.81616 0.55346 0.0
C1434 C 0.88401 0.81497 0.5475 0.0
H1435 H 0.95468 0.83402 0.54105 0.0
H1436 H 0.93375 0.83409 0.55623 0.0
H1437 H 0.89775 0.80089 0.44845 0.0
H1438 H 0.83742 0.79695 0.54964 0.0
H1439 H 0.8576 0.79486 0.53991 0.0
C1440 C 0.87085 0.57254 0.78955 0.0
C1441 C 0.86992 0.56007 0.77659 0.0
C1442 C 0.85918 0.57342 0.79812 0.0
C1443 C 0.82254 0.55201 0.83532 0.0
H1444 H 0.82122 0.58363 0.77852 0.0
C1445 C 0.77757 0.55903 0.90307 0.0
C1446 C 0.77335 0.56529 0.85668 0.0
C1447 C 0.78951 0.55876 0.89321 0.0
C1448 C 0.82133 0.57464 0.79404 0.0
H1449 H 0.85616 0.53881 0.76078 0.0
H1450 H 0.83583 0.54034 0.77322 0.0
H1451 H 0.84145 0.58229 0.75847 0.0
H1452 H 0.77821 0.57605 0.76316 0.0
H1453 H 0.79882 0.57522 0.74462 0.0
H1454 H 0.80224 0.54407 0.86811 0.0
C1455 C 0.8455 0.54942 0.77892 0.0
C1456 C 0.83305 0.57396 0.78343 0.0
C1457 C 0.85715 0.54853 0.77125 0.0
C1458 C 0.7813 0.57127 0.8001 0.0
C1459 C 0.79316 0.57084 0.78971 0.0
C1460 C 0.81078 0.55261 0.84513 0.0
C1461 C 0.84632 0.56185 0.79322 0.0
C1462 C 0.83383 0.56264 0.80402 0.0
C1463 C 0.79744 0.56457 0.83614 0.0
C1464 C 0.81 0.56396 0.82494 0.0
H1465 H 0.88059 0.58158 0.79438 0.0
H1466 H 0.86028 0.58314 0.80999 0.0
H1467 H 0.82277 0.54321 0.853 0.0
H1468 H 0.77173 0.55451 0.94761 0.0
H1469 H 0.79258 0.55411 0.9309 0.0
C1470 C 0.47333 0.31525 0.79358 0.0
C1471 C 0.48388 0.32553 0.75692 0.0
C1472 C 0.47251 0.30274 0.80141 0.0
C1473 C 0.48561 0.28109 0.73495 0.0
H1474 H 0.47411 0.26371 0.90662 0.0
C1475 C 0.48954 0.2342 0.80969 0.0
C1476 C 0.4784 0.22388 0.84335 0.0
C1477 C 0.49036 0.24664 0.79784 0.0
C1478 C 0.47723 0.26836 0.85818 0.0
H1479 H 0.50172 0.33073 0.69868 0.0
H1480 H 0.50051 0.30901 0.71349 0.0
H1481 H 0.47504 0.2851 0.88725 0.0
H1482 H 0.45954 0.2187 0.89223 0.0
H1483 H 0.46089 0.24024 0.87094 0.0
H1484 H 0.48795 0.26435 0.70644 0.0
C1485 C 0.4927 0.31048 0.73529 0.0
C1486 C 0.47772 0.28063 0.84692 0.0
C1487 C 0.49344 0.32296 0.72699 0.0
C1488 C 0.46818 0.22634 0.86531 0.0
C1489 C 0.46902 0.23876 0.8538 0.0
C1490 C 0.48519 0.26884 0.74639 0.0
C1491 C 0.4823 0.30024 0.77329 0.0
C1492 C 0.48184 0.28715 0.78503 0.0
C1493 C 0.48011 0.24907 0.81992 0.0
C1494 C 0.48093 0.26229 0.80804 0.0
H1495 H 0.46578 0.31692 0.817 0.0
H1496 H 0.46419 0.29504 0.82977 0.0
H1497 H 0.48866 0.28569 0.68639 0.0
H1498 H 0.49756 0.23262 0.79187 0.0
H1499 H 0.49909 0.25441 0.77211 0.0
C1500 C 0.72601 0.18972 0.71317 0.0
C1501 C 0.72267 0.17812 0.75052 0.0
C1502 C 0.73875 0.20122 0.71933 0.0
C1503 C 0.76734 0.21782 0.83605 0.0
H1504 H 0.7865 0.23954 0.68324 0.0
C1505 C 0.8213 0.2633 0.85909 0.0
C1506 C 0.82447 0.27489 0.82177 0.0
C1507 C 0.80922 0.25124 0.84836 0.0
C1508 C 0.78123 0.23368 0.7266 0.0
H1509 H 0.73012 0.1693 0.82217 0.0
H1510 H 0.75237 0.18932 0.83259 0.0
H1511 H 0.76486 0.21903 0.66779 0.0
H1512 H 0.81744 0.28268 0.74255 0.0
H1513 H 0.79627 0.26185 0.72538 0.0
H1514 H 0.78355 0.23253 0.89507 0.0
C1515 C 0.74511 0.18963 0.79926 0.0
C1516 C 0.76882 0.2219 0.71767 0.0
C1517 C 0.7324 0.17813 0.79295 0.0
C1518 C 0.8153 0.27402 0.7728 0.0
C1519 C 0.8032 0.26199 0.76234 0.0
C1520 C 0.77971 0.22962 0.84503 0.0
C1521 C 0.7484 0.20137 0.7631 0.0
C1522 C 0.76171 0.21382 0.77228 0.0
C1523 C 0.79994 0.25045 0.80025 0.0
C1524 C 0.78684 0.23774 0.79044 0.0
H1525 H 0.71869 0.19 0.68016 0.0
H1526 H 0.7409 0.21013 0.69118 0.0
H1527 H 0.76203 0.21196 0.87936 0.0
H1528 H 0.82798 0.2636 0.89786 0.0
H1529 H 0.80717 0.24253 0.87792 0.0
C1530 C 0.89372 0.47706 0.86677 0.0
C1531 C 0.90506 0.48749 0.83487 0.0
C1532 C 0.89288 0.46461 0.87864 0.0
C1533 C 0.90647 0.44316 0.82062 0.0
H1534 H 0.89427 0.42546 0.99114 0.0
C1535 C 0.91059 0.3965 0.8865 0.0
C1536 C 0.89992 0.38608 0.92195 0.0
C1537 C 0.9113 0.40895 0.87862 0.0
C1538 C 0.89754 0.43017 0.94293 0.0
H1539 H 0.92425 0.49288 0.78908 0.0
H1540 H 0.92285 0.47132 0.81039 0.0
H1541 H 0.89491 0.44676 0.97084 0.0
H1542 H 0.88175 0.38055 0.97797 0.0
H1543 H 0.88277 0.40218 0.96299 0.0
H1544 H 0.90895 0.42657 0.7921 0.0
C1545 C 0.91459 0.47272 0.82615 0.0
C1546 C 0.89792 0.4424 0.93135 0.0
C1547 C 0.91546 0.48514 0.81464 0.0
C1548 C 0.89012 0.38844 0.95064 0.0
C1549 C 0.89075 0.40087 0.94223 0.0
C1550 C 0.90602 0.43092 0.832 0.0
C1551 C 0.9033 0.46229 0.85829 0.0
C1552 C 0.90247 0.44908 0.87019 0.0
C1553 C 0.90127 0.41125 0.9054 0.0
C1554 C 0.90163 0.42428 0.89346 0.0
H1555 H 0.88557 0.47856 0.88319 0.0
H1556 H 0.884 0.45674 0.90302 0.0
H1557 H 0.90982 0.44793 0.77255 0.0
H1558 H 0.91832 0.39497 0.86408 0.0
H1559 H 0.91971 0.41676 0.85124 0.0
C1560 C 0.56321 0.44839 0.82031 0.0
C1561 C 0.56015 0.43672 0.85664 0.0
C1562 C 0.57528 0.46045 0.83112 0.0
C1563 C 0.60361 0.47779 0.95152 0.0
H1564 H 0.62233 0.49986 0.79887 0.0
C1565 C 0.65893 0.52186 0.96194 0.0
C1566 C 0.66207 0.53351 0.92549 0.0
C1567 C 0.64616 0.51034 0.95657 0.0
C1568 C 0.61716 0.49391 0.84218 0.0
H1569 H 0.56739 0.42879 0.93424 0.0
H1570 H 0.58856 0.44962 0.95149 0.0
H1571 H 0.60079 0.47931 0.78355 0.0
H1572 H 0.65422 0.54241 0.85649 0.0
H1573 H 0.63197 0.52238 0.84735 0.0
H1574 H 0.62016 0.49234 0.00988 0.0
C1575 C 0.58154 0.44954 0.91526 0.0
C1576 C 0.60477 0.4821 0.83342 0.0
C1577 C 0.56943 0.43751 0.90474 0.0
C1578 C 0.65211 0.53355 0.88491 0.0
C1579 C 0.63939 0.52204 0.87935 0.0
C1580 C 0.61605 0.48957 0.96022 0.0
C1581 C 0.58468 0.46116 0.87829 0.0
C1582 C 0.59781 0.47387 0.88795 0.0
C1583 C 0.6363 0.51023 0.91445 0.0
C1584 C 0.62298 0.49777 0.90564 0.0
H1585 H 0.55643 0.44816 0.78223 0.0
H1586 H 0.57724 0.46921 0.8023 0.0
H1587 H 0.59847 0.47184 0.99487 0.0
H1588 H 0.66641 0.52156 0.9936 0.0
H1589 H 0.64415 0.5014 0.98394 0.0
C1590 C 0.60345 0.14088 0.88204 0.0
C1591 C 0.61143 0.14686 0.82555 0.0
C1592 C 0.59146 0.14113 0.89172 0.0
C1593 C 0.57386 0.1593 0.83448 0.0
H1594 H 0.54306 0.1299 0.92176 0.0
C1595 C 0.52741 0.16366 0.90515 0.0
C1596 C 0.51465 0.1521 0.90047 0.0
C1597 C 0.53908 0.16277 0.89792 0.0
C1598 C 0.5515 0.13815 0.89661 0.0
H1599 H 0.61277 0.15721 0.73338 0.0
H1600 H 0.59181 0.15734 0.74903 0.0
H1601 H 0.56327 0.12842 0.90306 0.0
H1602 H 0.50401 0.13055 0.88394 0.0
H1603 H 0.52432 0.12898 0.86917 0.0
H1604 H 0.56195 0.16877 0.82521 0.0
C1605 C 0.59495 0.15287 0.7873 0.0
C1606 C 0.5632 0.13739 0.88677 0.0
C1607 C 0.60697 0.15275 0.77808 0.0
C1608 C 0.51374 0.13961 0.88834 0.0
C1609 C 0.52541 0.13872 0.88027 0.0
C1610 C 0.56212 0.15999 0.84359 0.0
C1611 C 0.5871 0.14723 0.84469 0.0
C1612 C 0.57456 0.14796 0.85554 0.0
C1613 C 0.53827 0.1503 0.88482 0.0
C1614 C 0.55077 0.14946 0.875 0.0
H1615 H 0.60667 0.13633 0.91965 0.0
H1616 H 0.5858 0.13682 0.93689 0.0
H1617 H 0.58243 0.16776 0.81126 0.0
H1618 H 0.52838 0.1734 0.9149 0.0
H1619 H 0.54875 0.17188 0.90321 0.0
C1620 C 0.53707 0.90455 0.11515 0.0
C1621 C 0.53617 0.89189 0.11119 0.0
C1622 C 0.52546 0.90554 0.12377 0.0
C1623 C 0.4899 0.8859 0.18075 0.0
H1624 H 0.486 0.91319 0.08606 0.0
C1625 C 0.43975 0.88663 0.1801 0.0
C1626 C 0.4405 0.89923 0.18506 0.0
C1627 C 0.4514 0.88577 0.17025 0.0
C1628 C 0.48698 0.9056 0.11347 0.0
H1629 H 0.52248 0.87035 0.11314 0.0
H1630 H 0.5022 0.87202 0.12746 0.0
H1631 H 0.50634 0.91172 0.07102 0.0
H1632 H 0.45425 0.92083 0.18449 0.0
H1633 H 0.47448 0.91932 0.16719 0.0
H1634 H 0.47056 0.87978 0.22324 0.0
C1635 C 0.51186 0.88122 0.12478 0.0
C1636 C 0.49867 0.90476 0.10486 0.0
C1637 C 0.52347 0.88024 0.11617 0.0
C1638 C 0.45322 0.91094 0.1796 0.0
C1639 C 0.46486 0.91008 0.16975 0.0
C1640 C 0.47822 0.88674 0.18934 0.0
C1641 C 0.51268 0.89387 0.12876 0.0
C1642 C 0.50028 0.89487 0.13828 0.0
C1643 C 0.46412 0.89749 0.16516 0.0
C1644 C 0.47658 0.89658 0.15576 0.0
H1645 H 0.54675 0.91369 0.1122 0.0
H1646 H 0.52653 0.91545 0.12756 0.0
H1647 H 0.49088 0.87832 0.20826 0.0
H1648 H 0.43013 0.8774 0.18322 0.0
H1649 H 0.45041 0.87589 0.16592 0.0
C1650 C 0.1429 0.65172 0.11918 0.0
C1651 C 0.15555 0.66348 0.11494 0.0
C1652 C 0.14192 0.63912 0.12739 0.0
C1653 C 0.16147 0.62312 0.18369 0.0
H1654 H 0.13437 0.59213 0.08685 0.0
C1655 C 0.16057 0.57215 0.18229 0.0
C1656 C 0.14793 0.5603 0.18566 0.0
C1657 C 0.16151 0.5847 0.17287 0.0
C1658 C 0.1419 0.60063 0.11489 0.0
H1659 H 0.1771 0.67133 0.11649 0.0
H1660 H 0.17545 0.64938 0.13053 0.0
H1661 H 0.13589 0.61397 0.07263 0.0
H1662 H 0.12635 0.55251 0.18277 0.0
H1663 H 0.12798 0.5743 0.16634 0.0
H1664 H 0.16745 0.60979 0.22618 0.0
C1665 C 0.16625 0.64985 0.12803 0.0
C1666 C 0.14278 0.61318 0.10671 0.0
C1667 C 0.16721 0.66243 0.11962 0.0
C1668 C 0.13627 0.56135 0.17911 0.0
C1669 C 0.1372 0.57389 0.16974 0.0
C1670 C 0.16058 0.61057 0.19194 0.0
C1671 C 0.15359 0.63801 0.13195 0.0
C1672 C 0.15259 0.6246 0.14092 0.0
C1673 C 0.14983 0.58575 0.16667 0.0
C1674 C 0.1508 0.59915 0.15761 0.0
H1675 H 0.13376 0.65225 0.11678 0.0
H1676 H 0.13201 0.63027 0.13124 0.0
H1677 H 0.169 0.63163 0.21173 0.0
H1678 H 0.16978 0.57172 0.18629 0.0
H1679 H 0.17141 0.59357 0.16971 0.0
C1680 C 0.47627 0.60835 0.1813 0.0
C1681 C 0.48807 0.60749 0.18581 0.0
C1682 C 0.46371 0.59677 0.17161 0.0
C1683 C 0.44771 0.56117 0.11474 0.0
H1684 H 0.41663 0.55755 0.20968 0.0
C1685 C 0.39644 0.51128 0.11811 0.0
C1686 C 0.38473 0.51225 0.11319 0.0
C1687 C 0.40906 0.52285 0.12654 0.0
C1688 C 0.42516 0.55845 0.18216 0.0
H1689 H 0.49577 0.59362 0.18466 0.0
H1690 H 0.47394 0.5735 0.16773 0.0
H1691 H 0.43851 0.57778 0.22449 0.0
H1692 H 0.377 0.52605 0.11365 0.0
H1693 H 0.399 0.54627 0.12797 0.0
H1694 H 0.43436 0.54181 0.0726 0.0
C1695 C 0.4744 0.58316 0.17046 0.0
C1696 C 0.43773 0.57008 0.19063 0.0
C1697 C 0.48696 0.59473 0.18012 0.0
C1698 C 0.38587 0.525 0.11733 0.0
C1699 C 0.39847 0.53658 0.1259 0.0
C1700 C 0.43514 0.54953 0.10632 0.0
C1701 C 0.46259 0.584 0.16627 0.0
C1702 C 0.44918 0.57161 0.15698 0.0
C1703 C 0.41025 0.53567 0.13058 0.0
C1704 C 0.42369 0.54802 0.13984 0.0
H1705 H 0.47675 0.61801 0.18463 0.0
H1706 H 0.45487 0.59785 0.16759 0.0
H1707 H 0.45624 0.56206 0.08724 0.0
H1708 H 0.39583 0.50157 0.11612 0.0
H1709 H 0.41787 0.52173 0.13096 0.0
C1710 C 0.57432 0.72652 0.22668 0.0
C1711 C 0.56168 0.71476 0.23146 0.0
C1712 C 0.57528 0.73909 0.21764 0.0
C1713 C 0.55532 0.75477 0.16174 0.0
H1714 H 0.58343 0.78644 0.25016 0.0
C1715 C 0.56525 0.80832 0.10176 0.0
C1716 C 0.56873 0.81755 0.15442 0.0
C1717 C 0.56441 0.79583 0.11148 0.0
C1718 C 0.57544 0.77768 0.22552 0.0
H1719 H 0.54013 0.70689 0.23079 0.0
H1720 H 0.54173 0.72878 0.21609 0.0
H1721 H 0.58184 0.76465 0.26755 0.0
H1722 H 0.57384 0.82069 0.25909 0.0
H1723 H 0.57228 0.7989 0.2762 0.0
H1724 H 0.54869 0.76771 0.12108 0.0
C1725 C 0.55095 0.72835 0.2182 0.0
C1726 C 0.57463 0.76519 0.23481 0.0
C1727 C 0.55001 0.71579 0.22705 0.0
C1728 C 0.57129 0.81391 0.2172 0.0
C1729 C 0.57043 0.80141 0.22697 0.0
C1730 C 0.5561 0.76724 0.15259 0.0
C1731 C 0.56359 0.74018 0.21322 0.0
C1732 C 0.56455 0.75355 0.20311 0.0
C1733 C 0.56701 0.7922 0.17419 0.0
C1734 C 0.56617 0.77888 0.18432 0.0
H1735 H 0.58348 0.72599 0.22925 0.0
H1736 H 0.58518 0.74792 0.21305 0.0
H1737 H 0.54752 0.74609 0.13575 0.0
H1738 H 0.56347 0.81086 0.05242 0.0
H1739 H 0.56199 0.78913 0.06934 0.0
C1740 C 0.32108 0.86714 0.22523 0.0
C1741 C 0.33271 0.86607 0.23147 0.0
C1742 C 0.30842 0.85561 0.21635 0.0
C1743 C 0.29244 0.81982 0.16266 0.0
H1744 H 0.26078 0.81676 0.24892 0.0
C1745 C 0.23886 0.77626 0.1029 0.0
C1746 C 0.2296 0.77065 0.15552 0.0
C1747 C 0.25134 0.78793 0.11234 0.0
C1748 C 0.26953 0.81738 0.22488 0.0
H1749 H 0.34027 0.85213 0.23346 0.0
H1750 H 0.31825 0.83201 0.21887 0.0
H1751 H 0.28265 0.83691 0.26606 0.0
H1752 H 0.22638 0.7729 0.25978 0.0
H1753 H 0.24819 0.79319 0.27641 0.0
H1754 H 0.27943 0.80018 0.12284 0.0
C1755 C 0.31884 0.84174 0.21983 0.0
C1756 C 0.28207 0.82904 0.23403 0.0
C1757 C 0.33147 0.85326 0.22861 0.0
C1758 C 0.23319 0.77702 0.21793 0.0
C1759 C 0.2457 0.78869 0.22742 0.0
C1760 C 0.27993 0.80817 0.15362 0.0
C1761 C 0.30714 0.84274 0.21338 0.0
C1762 C 0.29371 0.83041 0.20317 0.0
C1763 C 0.25494 0.79432 0.17471 0.0
C1764 C 0.26829 0.80678 0.18461 0.0
H1765 H 0.32177 0.8769 0.22642 0.0
H1766 H 0.29969 0.85681 0.21063 0.0
H1767 H 0.30112 0.82056 0.13732 0.0
H1768 H 0.23634 0.77181 0.0538 0.0
H1769 H 0.25807 0.79209 0.07024 0.0
C1770 C 0.27215 0.48371 0.10167 0.0
C1771 C 0.27772 0.47997 0.1541 0.0
C1772 C 0.26049 0.48455 0.1112 0.0
C1773 C 0.23096 0.47304 0.22331 0.0
H1774 H 0.22759 0.5014 0.13658 0.0
C1775 C 0.1809 0.47416 0.22309 0.0
C1776 C 0.18175 0.48677 0.22955 0.0
C1777 C 0.19255 0.47326 0.21425 0.0
C1778 C 0.22839 0.49348 0.16171 0.0
H1779 H 0.27542 0.47441 0.25821 0.0
H1780 H 0.25516 0.47596 0.27498 0.0
H1781 H 0.24809 0.50028 0.12225 0.0
H1782 H 0.19542 0.50831 0.23185 0.0
H1783 H 0.21578 0.50679 0.21739 0.0
H1784 H 0.21137 0.46645 0.2641 0.0
C1785 C 0.25968 0.47802 0.22605 0.0
C1786 C 0.24011 0.49273 0.15275 0.0
C1787 C 0.27134 0.47716 0.21647 0.0
C1788 C 0.19447 0.49845 0.22685 0.0
C1789 C 0.20612 0.49757 0.21815 0.0
C1790 C 0.21924 0.47381 0.23238 0.0
C1791 C 0.25407 0.48169 0.17349 0.0
C1792 C 0.24157 0.4825 0.1834 0.0
C1793 C 0.20534 0.48496 0.21162 0.0
C1794 C 0.21779 0.48405 0.20176 0.0
H1795 H 0.27662 0.48569 0.0526 0.0
H1796 H 0.25636 0.48718 0.06922 0.0
H1797 H 0.23163 0.46492 0.24708 0.0
H1798 H 0.17121 0.465 0.22409 0.0
H1799 H 0.1915 0.46338 0.20837 0.0
C1800 C 0.03522 0.24074 0.32619 0.0
C1801 C 0.02434 0.24019 0.36124 0.0
C1802 C 0.03533 0.24077 0.2567 0.0
C1803 C 0.01262 0.23181 0.11145 0.0
H1804 H 0.04566 0.25469 0.0153 0.0
C1805 C 0.01335 0.23915 0.8275 0.0
C1806 C 0.02404 0.23948 0.79161 0.0
C1807 C 0.01349 0.23931 0.89694 0.0
C1808 C 0.03638 0.24813 0.04138 0.0
H1809 H 1.00511 0.23943 0.35037 0.0
H1810 H 1.00542 0.23967 0.22961 0.0
H1811 H 0.04577 0.25488 0.1364 0.0
H1812 H 0.04328 0.24023 0.80096 0.0
H1813 H 0.04344 0.24036 0.92187 0.0
H1814 H 1.00323 0.22506 0.01652 0.0
C1815 C 0.01376 0.23985 0.25576 0.0
C1816 C 0.03645 0.24823 0.11084 0.0
C1817 C 0.01364 0.2398 0.32514 0.0
C1818 C 0.03489 0.24002 0.82688 0.0
C1819 C 0.03503 0.24017 0.89631 0.0
C1820 C 0.01256 0.23171 0.04205 0.0
C1821 C 0.02457 0.24027 0.22064 0.0
C1822 C 0.02456 0.2401 0.14673 0.0
C1823 C 0.02432 0.2398 0.93221 0.0
C1824 C 0.02443 0.23988 0.00613 0.0
H1825 H 0.04361 0.24101 0.35231 0.0
H1826 H 0.04374 0.24095 0.23124 0.0
H1827 H 1.00334 0.22524 0.13749 0.0
H1828 H 1.00485 0.23879 0.80206 0.0
H1829 H 1.00517 0.23921 0.923 0.0
C1830 C 0.81277 0.79522 0.33234 0.0
C1831 C 0.81167 0.80519 0.3679 0.0
C1832 C 0.81277 0.79521 0.26279 0.0
C1833 C 0.81851 0.81727 0.1173 0.0
H1834 H 0.79828 0.78346 0.02265 0.0
C1835 C 0.80961 0.81498 0.83342 0.0
C1836 C 0.81056 0.80494 0.79765 0.0
C1837 C 0.80976 0.81504 0.90294 0.0
C1838 C 0.80411 0.79298 0.04826 0.0
H1839 H 0.80975 0.82303 0.3576 0.0
H1840 H 0.80965 0.82293 0.23692 0.0
H1841 H 0.79872 0.78351 0.14369 0.0
H1842 H 0.81243 0.78707 0.80753 0.0
H1843 H 0.81282 0.78727 0.92827 0.0
H1844 H 0.82389 0.82674 0.02186 0.0
C1845 C 0.81067 0.81519 0.26271 0.0
C1846 C 0.80437 0.793 0.11772 0.0
C1847 C 0.81065 0.81519 0.33212 0.0
C1848 C 0.81165 0.79496 0.83321 0.0
C1849 C 0.81178 0.79501 0.90263 0.0
C1850 C 0.81825 0.81724 0.04783 0.0
C1851 C 0.8117 0.80519 0.22712 0.0
C1852 C 0.81156 0.80515 0.15313 0.0
C1853 C 0.81085 0.80505 0.93842 0.0
C1854 C 0.81105 0.8051 0.01242 0.0
H1855 H 0.81358 0.78737 0.3581 0.0
H1856 H 0.81374 0.78745 0.23697 0.0
H1857 H 0.82432 0.82678 0.14292 0.0
H1858 H 0.80874 0.82282 0.80784 0.0
H1859 H 0.80886 0.82283 0.92891 0.0
C1860 C 0.23377 0.01371 0.32754 0.0
C1861 C 0.24395 0.02476 0.36238 0.0
C1862 C 0.2337 0.01351 0.25807 0.0
C1863 C 0.25574 0.02892 0.11191 0.0
H1864 H 0.22197 0.01605 0.01778 0.0
C1865 C 0.25362 0.03562 0.82871 0.0
C1866 C 0.24339 0.02484 0.79273 0.0
C1867 C 0.25367 0.03544 0.89814 0.0
C1868 C 0.23147 0.01953 0.04327 0.0
H1869 H 0.26208 0.04424 0.35114 0.0
H1870 H 0.26187 0.04391 0.23032 0.0
H1871 H 0.22211 0.01596 0.13887 0.0
H1872 H 0.22516 0.00537 0.80196 0.0
H1873 H 0.22534 0.00502 0.92289 0.0
H1874 H 0.26511 0.03251 0.01637 0.0
C1875 C 0.25403 0.03533 0.25667 0.0
C1876 C 0.23155 0.01947 0.11272 0.0
C1877 C 0.25409 0.03555 0.32607 0.0
C1878 C 0.2332 0.01387 0.82794 0.0
C1879 C 0.23325 0.01369 0.89739 0.0
C1880 C 0.25567 0.02897 0.04248 0.0
C1881 C 0.24382 0.02433 0.2218 0.0
C1882 C 0.24369 0.0242 0.14789 0.0
C1883 C 0.24348 0.02448 0.93336 0.0
C1884 C 0.24353 0.02431 0.00728 0.0
H1885 H 0.22581 0.00522 0.35382 0.0
H1886 H 0.22578 0.00481 0.23278 0.0
H1887 H 0.26525 0.03244 0.1374 0.0
H1888 H 0.26161 0.04425 0.80334 0.0
H1889 H 0.2616 0.04399 0.92426 0.0
C1890 C 0.01614 0.80661 0.67387 0.0
C1891 C 0.02705 0.80721 0.63885 0.0
C1892 C 0.01598 0.80649 0.74334 0.0
C1893 C 0.03117 0.79949 0.88926 0.0
H1894 H 0.01892 0.82091 0.98356 0.0
C1895 C 0.03803 0.80835 0.17252 0.0
C1896 C 0.02732 0.80798 0.20843 0.0
C1897 C 0.03786 0.80812 0.10308 0.0
C1898 C 0.02222 0.81475 0.95802 0.0
H1899 H 0.04633 0.80811 0.64979 0.0
H1900 H 0.04608 0.80802 0.77059 0.0
H1901 H 0.01878 0.82065 0.86248 0.0
H1902 H 0.00799 0.80703 0.19908 0.0
H1903 H 0.00765 0.8065 0.07818 0.0
H1904 H 0.03464 0.79362 0.98476 0.0
C1905 C 0.03757 0.80748 0.74439 0.0
C1906 C 0.02214 0.81459 0.88857 0.0
C1907 C 0.03774 0.80761 0.67499 0.0
C1908 C 0.01643 0.80736 0.17316 0.0
C1909 C 0.01627 0.80714 0.10373 0.0
C1910 C 0.03126 0.79965 0.95868 0.0
C1911 C 0.0267 0.80695 0.77944 0.0
C1912 C 0.02663 0.80698 0.85334 0.0
C1913 C 0.02698 0.80752 0.06783 0.0
C1914 C 0.02681 0.80729 0.99393 0.0
H1915 H 0.00771 0.80627 0.64774 0.0
H1916 H 0.00737 0.80591 0.76877 0.0
H1917 H 0.0345 0.79336 0.86372 0.0
H1918 H 0.0466 0.80886 0.19794 0.0
H1919 H 0.04635 0.8086 0.07699 0.0
C1920 C 0.24126 0.2514 0.17878 0.0
C1921 C 0.24162 0.24106 0.2146 0.0
C1922 C 0.24142 0.25142 0.10934 0.0
C1923 C 0.25029 0.23741 0.96479 0.0
H1924 H 0.22738 0.24754 0.86872 0.0
C1925 C 0.24297 0.23125 0.67992 0.0
C1926 C 0.24241 0.24157 0.64494 0.0
C1927 C 0.24299 0.23115 0.7494 0.0
C1928 C 0.23396 0.24483 0.89475 0.0
H1929 H 0.24241 0.2226 0.20511 0.0
H1930 H 0.24254 0.22257 0.08418 0.0
H1931 H 0.22718 0.24744 0.9897 0.0
H1932 H 0.24159 0.26 0.65593 0.0
H1933 H 0.2418 0.25991 0.7767 0.0
H1934 H 0.25707 0.23481 0.86977 0.0
C1935 C 0.24232 0.23077 0.10981 0.0
C1936 C 0.23384 0.24478 0.96416 0.0
C1937 C 0.24217 0.23076 0.17925 0.0
C1938 C 0.24198 0.25185 0.68111 0.0
C1939 C 0.24201 0.25176 0.7505 0.0
C1940 C 0.25041 0.23747 0.89534 0.0
C1941 C 0.24193 0.2411 0.07399 0.0
C1942 C 0.24202 0.24109 1.00007 0.0
C1943 C 0.24245 0.24138 0.78554 0.0
C1944 C 0.24227 0.24121 0.85945 0.0
H1945 H 0.24089 0.25953 0.20428 0.0
H1946 H 0.2413 0.25963 0.08335 0.0
H1947 H 0.25686 0.2347 0.99086 0.0
H1948 H 0.24327 0.22314 0.65374 0.0
H1949 H 0.24317 0.22292 0.77479 0.0
C1950 C 0.81899 0.03212 0.17729 0.0
C1951 C 0.80859 0.02136 0.2126 0.0
C1952 C 0.81897 0.03225 0.10784 0.0
C1953 C 0.80462 0.00982 0.96206 0.0
H1954 H 0.81504 0.04312 0.86793 0.0
C1955 C 0.79754 0.011 0.67901 0.0
C1956 C 0.80791 0.02164 0.6429 0.0
C1957 C 0.79764 0.01112 0.74841 0.0
C1958 C 0.81225 0.03376 0.89342 0.0
H1959 H 0.78993 1.00231 0.20219 0.0
H1960 H 0.78982 1.00263 0.0813 0.0
H1961 H 0.81522 0.04302 0.98902 0.0
H1962 H 0.82649 0.04079 0.65184 0.0
H1963 H 0.82673 0.0409 0.77285 0.0
H1964 H 0.80166 1.00056 0.86655 0.0
C1965 C 0.79812 0.01088 0.1073 0.0
C1966 C 0.81236 0.03371 0.96288 0.0
C1967 C 0.79814 0.01074 0.17673 0.0
C1968 C 0.81832 0.03245 0.67796 0.0
C1969 C 0.81842 0.03255 0.74743 0.0
C1970 C 0.80452 0.00988 0.89265 0.0
C1971 C 0.80853 0.02162 0.07198 0.0
C1972 C 0.80852 0.02172 0.99806 0.0
C1973 C 0.80811 0.02186 0.78351 0.0
C1974 C 0.80831 0.02184 0.85744 0.0
H1975 H 0.82723 0.04045 0.20319 0.0
H1976 H 0.82724 0.04059 0.08224 0.0
H1977 H 0.80183 1.00046 0.98752 0.0
H1978 H 0.78932 1.00254 0.65376 0.0
H1979 H 0.78943 1.00282 0.77458 0.0
C1980 C 0.68001 0.57047 0.16739 0.0
C1981 C 0.69075 0.57083 0.13176 0.0
C1982 C 0.68015 0.57078 0.23677 0.0
C1983 C 0.69563 0.56433 0.38284 0.0
H1984 H 0.68301 0.58564 0.47523 0.0
C1985 C 0.70101 0.57248 0.66667 0.0
C1986 C 0.69001 0.57181 0.70116 0.0
C1987 C 0.7013 0.57261 0.59731 0.0
C1988 C 0.68643 0.57953 0.45021 0.0
H1989 H 0.71009 0.57183 0.14161 0.0
H1990 H 0.71037 0.57247 0.26266 0.0
H1991 H 0.68323 0.58542 0.35419 0.0
H1992 H 0.6707 0.5708 0.68939 0.0
H1993 H 0.67117 0.57091 0.56835 0.0
H1994 H 0.6988 0.55842 0.4789 0.0
C1995 C 0.70176 0.5718 0.23681 0.0
C1996 C 0.68656 0.5794 0.3808 0.0
C1997 C 0.70164 0.5715 0.16733 0.0
C1998 C 0.67934 0.57135 0.66453 0.0
C1999 C 0.67965 0.57149 0.59508 0.0
C2000 C 0.6955 0.56446 0.45227 0.0
C2001 C 0.69103 0.57146 0.27236 0.0
C2002 C 0.69112 0.57177 0.34625 0.0
C2003 C 0.69061 0.57207 0.56065 0.0
C2004 C 0.69086 0.57203 0.48679 0.0
H2005 H 0.67145 0.56993 0.14179 0.0
H2006 H 0.67163 0.57031 0.26256 0.0
H2007 H 0.69902 0.55819 0.35784 0.0
H2008 H 0.70943 0.57289 0.69315 0.0
H2009 H 0.70998 0.57325 0.57239 0.0
C2010 C 0.47644 0.14779 0.6685 0.0
C2011 C 0.47786 0.13803 0.70428 0.0
C2012 C 0.47645 0.14778 0.59908 0.0
C2013 C 0.47085 0.12576 0.45409 0.0
H2014 H 0.48941 0.15957 0.35816 0.0
C2015 C 0.47816 0.12794 0.16951 0.0
C2016 C 0.47666 0.13768 0.13396 0.0
C2017 C 0.4783 0.128 0.23894 0.0
C2018 C 0.48404 0.15005 0.38415 0.0
H2019 H 0.48047 0.12061 0.69448 0.0
H2020 H 0.48061 0.12068 0.57336 0.0
H2021 H 0.48987 0.15965 0.47921 0.0
H2022 H 0.47412 0.15514 0.14418 0.0
H2023 H 0.47425 0.15516 0.26525 0.0
H2024 H 0.46502 0.11617 0.35904 0.0
C2025 C 0.47933 0.12826 0.59918 0.0
C2026 C 0.48431 0.15009 0.45362 0.0
C2027 C 0.47934 0.12828 0.66872 0.0
C2028 C 0.47531 0.14749 0.16975 0.0
C2029 C 0.47547 0.14755 0.23928 0.0
C2030 C 0.47058 0.12572 0.38463 0.0
C2031 C 0.47787 0.138 0.56349 0.0
C2032 C 0.47772 0.13795 0.48949 0.0
C2033 C 0.47696 0.13781 0.27475 0.0
C2034 C 0.47718 0.13787 0.34875 0.0
H2035 H 0.47524 0.15545 0.69398 0.0
H2036 H 0.47512 0.15532 0.57329 0.0
H2037 H 0.46548 0.11624 0.48009 0.0
H2038 H 0.47925 0.12024 0.14381 0.0
H2039 H 0.47965 0.12046 0.26456 0.0
C2040 C 0.91969 0.36881 0.16416 0.0
C2041 C 0.90969 0.35783 0.12825 0.0
C2042 C 0.91977 0.36865 0.23359 0.0
C2043 C 0.89787 0.35215 0.37897 0.0
H2044 H 0.93185 0.36618 0.47255 0.0
C2045 C 0.90059 0.34649 0.66304 0.0
C2046 C 0.91054 0.3577 0.69792 0.0
C2047 C 0.9005 0.34631 0.59357 0.0
C2048 C 0.92228 0.36235 0.44722 0.0
H2049 H 0.89191 0.33803 0.13759 0.0
H2050 H 0.89214 0.33771 0.25852 0.0
H2051 H 0.93163 0.36627 0.35153 0.0
H2052 H 0.92825 0.37749 0.68674 0.0
H2053 H 0.92801 0.37721 0.5659 0.0
H2054 H 0.88853 0.34826 0.47472 0.0
C2055 C 0.89983 0.34653 0.23297 0.0
C2056 C 0.92216 0.36241 0.3778 0.0
C2057 C 0.89976 0.34669 0.16352 0.0
C2058 C 0.92045 0.36867 0.66164 0.0
C2059 C 0.92036 0.36849 0.59223 0.0
C2060 C 0.898 0.35209 0.44842 0.0
C2061 C 0.90985 0.3575 0.26887 0.0
C2062 C 0.90995 0.35734 0.34279 0.0
C2063 C 0.91037 0.35732 0.55732 0.0
C2064 C 0.91021 0.35722 0.4834 0.0
H2065 H 0.92748 0.37759 0.13875 0.0
H2066 H 0.92752 0.37735 0.25965 0.0
H2067 H 0.88831 0.34835 0.35364 0.0
H2068 H 0.89281 0.33784 0.68928 0.0
H2069 H 0.89276 0.33748 0.56826 0.0
C2070 C 0.68223 0.13925 0.01108 0.0
C2071 C 0.69311 0.1398 0.97604 0.0
C2072 C 0.68208 0.13917 0.08055 0.0
C2073 C 0.69725 0.13213 0.22646 0.0
H2074 H 0.68514 0.15367 0.32075 0.0
C2075 C 0.70415 0.14096 0.50973 0.0
C2076 C 0.69347 0.14064 0.54565 0.0
C2077 C 0.70398 0.14074 0.44028 0.0
C2078 C 0.68841 0.14748 0.29521 0.0
H2079 H 0.71237 0.14064 0.98694 0.0
H2080 H 0.71215 0.14061 0.10775 0.0
H2081 H 0.68497 0.15338 0.19966 0.0
H2082 H 0.6742 0.13983 0.53633 0.0
H2083 H 0.67386 0.13932 0.41543 0.0
H2084 H 0.7007 0.12624 0.32196 0.0
C2085 C 0.70364 0.14008 0.08156 0.0
C2086 C 0.68831 0.14731 0.22576 0.0
C2087 C 0.7038 0.14018 0.01216 0.0
C2088 C 0.68261 0.14011 0.5104 0.0
C2089 C 0.68245 0.1399 0.44096 0.0
C2090 C 0.69735 0.1323 0.29588 0.0
C2091 C 0.6928 0.13961 0.11663 0.0
C2092 C 0.69275 0.13965 0.19053 0.0
C2093 C 0.69313 0.14021 0.40504 0.0
C2094 C 0.69295 0.13999 0.33113 0.0
H2095 H 0.67381 0.13893 0.98495 0.0
H2096 H 0.6735 0.13863 0.10601 0.0
H2097 H 0.70054 0.12596 0.20092 0.0
H2098 H 0.71269 0.1414 0.53514 0.0
H2099 H 0.71245 0.14117 0.41419 0.0
C2100 C 0.90727 0.56362 0.00933 0.0
C2101 C 0.90645 0.57373 0.97361 0.0
C2102 C 0.90731 0.56365 0.07874 0.0
C2103 C 0.89854 0.57737 0.225 0.0
H2104 H 0.92242 0.56804 0.3176 0.0
C2105 C 0.90715 0.58439 0.50838 0.0
C2106 C 0.90808 0.57432 0.54395 0.0
C2107 C 0.90692 0.58428 0.43896 0.0
C2108 C 0.91557 0.57052 0.29259 0.0
H2109 H 0.90497 0.59181 0.98349 0.0
H2110 H 0.90519 0.59193 0.10458 0.0
H2111 H 0.92204 0.56798 0.19663 0.0
H2112 H 0.90944 0.55618 0.5338 0.0
H2113 H 0.90889 0.55592 0.41279 0.0
H2114 H 0.8921 0.57992 0.32101 0.0
C2115 C 0.90563 0.58386 0.07876 0.0
C2116 C 0.91535 0.57049 0.22313 0.0
C2117 C 0.90556 0.58382 0.00922 0.0
C2118 C 0.90879 0.56414 0.5082 0.0
C2119 C 0.90853 0.56402 0.43869 0.0
C2120 C 0.89877 0.5774 0.29447 0.0
C2121 C 0.90656 0.5738 0.1144 0.0
C2122 C 0.90683 0.57391 0.18842 0.0
C2123 C 0.90758 0.57409 0.40318 0.0
C2124 C 0.90729 0.57398 0.32917 0.0
H2125 H 0.9079 0.55563 0.98379 0.0
H2126 H 0.90781 0.55562 0.10447 0.0
H2127 H 0.8917 0.57985 0.19997 0.0
H2128 H 0.90664 0.59243 0.53406 0.0
H2129 H 0.90639 0.5923 0.4133 0.0
C2130 C 0.46354 0.34365 0.01706 0.0
C2131 C 0.47385 0.35434 0.98097 0.0
C2132 C 0.46363 0.34377 0.08646 0.0
C2133 C 0.47803 0.36645 0.23144 0.0
H2134 H 0.46794 0.33322 0.32558 0.0
C2135 C 0.48482 0.3649 0.5153 0.0
C2136 C 0.47448 0.35408 0.55062 0.0
C2137 C 0.48479 0.36503 0.44585 0.0
C2138 C 0.47064 0.34256 0.30011 0.0
H2139 H 0.49233 0.37359 0.98991 0.0
H2140 H 0.49255 0.37371 0.11093 0.0
H2141 H 0.4678 0.33332 0.20461 0.0
H2142 H 0.45594 0.33493 0.54024 0.0
H2143 H 0.45582 0.33524 0.41934 0.0
H2144 H 0.48089 0.37568 0.32702 0.0
C2145 C 0.48429 0.36531 0.08549 0.0
C2146 C 0.47055 0.34261 0.2307 0.0
C2147 C 0.4842 0.3652 0.01602 0.0
C2148 C 0.4641 0.34341 0.51477 0.0
C2149 C 0.46406 0.34354 0.44534 0.0
C2150 C 0.47812 0.36639 0.30089 0.0
C2151 C 0.47404 0.35456 0.12156 0.0
C2152 C 0.47422 0.35455 0.19548 0.0
C2153 C 0.47441 0.35434 0.41001 0.0
C2154 C 0.4744 0.35444 0.33609 0.0
H2155 H 0.45537 0.33514 0.99181 0.0
H2156 H 0.45546 0.33543 0.11261 0.0
H2157 H 0.48073 0.37578 0.20594 0.0
H2158 H 0.49301 0.37328 0.54118 0.0
H2159 H 0.49301 0.37342 0.42023 0.0
C2160 C 0.34604 0.9031 0.50481 0.0
C2161 C 0.35708 0.90413 0.46908 0.0
C2162 C 0.34601 0.90303 0.57424 0.0
C2163 C 0.36192 0.89671 0.7193 0.0
H2164 H 0.34765 0.9162 0.81523 0.0
C2165 C 0.36758 0.90446 1.00353 0.0
C2166 C 0.35652 0.90334 0.03939 0.0
C2167 C 0.36756 0.90445 0.93411 0.0
C2168 C 0.35153 0.91057 0.78923 0.0
H2169 H 0.37678 0.90594 0.47898 0.0
H2170 H 0.37676 0.90594 0.60003 0.0
H2171 H 0.34796 0.91655 0.69418 0.0
H2172 H 0.33672 0.90129 0.02973 0.0
H2173 H 0.33664 0.90117 0.90862 0.0
H2174 H 0.36551 0.89076 0.81438 0.0
C2175 C 0.36805 0.90502 0.57422 0.0
C2176 C 0.35171 0.91077 0.71977 0.0
C2177 C 0.36809 0.90511 0.50469 0.0
C2178 C 0.34542 0.90218 1.00391 0.0
C2179 C 0.34541 0.9022 0.93438 0.0
C2180 C 0.36175 0.89651 0.78876 0.0
C2181 C 0.357 0.90398 0.60987 0.0
C2182 C 0.35691 0.90384 0.68389 0.0
C2183 C 0.35648 0.90334 0.89861 0.0
C2184 C 0.35655 0.90345 0.82462 0.0
H2185 H 0.33736 0.90231 0.47925 0.0
H2186 H 0.33726 0.90202 0.6 0.0
H2187 H 0.3658 0.89108 0.69332 0.0
H2188 H 0.37634 0.9054 0.02896 0.0
H2189 H 0.37633 0.90553 0.90823 0.0
C2190 C 0.14318 0.48235 1.0013 0.0
C2191 C 0.14435 0.47243 0.03693 0.0
C2192 C 0.1431 0.48231 0.93188 0.0
C2193 C 0.15247 0.46911 0.78568 0.0
H2194 H 0.12817 0.47781 0.69257 0.0
C2195 C 0.14429 0.46216 0.5022 0.0
C2196 C 0.14322 0.47214 0.46653 0.0
C2197 C 0.14439 0.46222 0.57162 0.0
C2198 C 0.13513 0.47551 0.71774 0.0
H2199 H 0.14636 0.45466 0.02691 0.0
H2200 H 0.14605 0.45451 0.90582 0.0
H2201 H 0.12842 0.47776 0.81358 0.0
H2202 H 0.1414 0.49003 0.4765 0.0
H2203 H 0.14172 0.49019 0.59759 0.0
H2204 H 0.15917 0.46684 0.68983 0.0
C2205 C 0.14538 0.46244 0.9317 0.0
C2206 C 0.13527 0.47548 0.78721 0.0
C2207 C 0.1455 0.46249 1.00124 0.0
C2208 C 0.14219 0.48215 0.50219 0.0
C2209 C 0.14231 0.48221 0.57173 0.0
C2210 C 0.15232 0.46913 0.71622 0.0
C2211 C 0.14415 0.47234 0.89613 0.0
C2212 C 0.14395 0.47228 0.82211 0.0
C2213 C 0.14344 0.47226 0.60732 0.0
C2214 C 0.14365 0.47233 0.68133 0.0
H2215 H 0.14234 0.49021 0.0269 0.0
H2216 H 0.14236 0.49022 0.90623 0.0
H2217 H 0.15943 0.46682 0.81083 0.0
H2218 H 0.14503 0.45424 0.47661 0.0
H2219 H 0.14505 0.45428 0.59734 0.0
C2220 C 0.58574 0.70285 1.00307 0.0
C2221 C 0.57587 0.69171 0.03865 0.0
C2222 C 0.58579 0.7028 0.93352 0.0
C2223 C 0.57297 0.67968 0.78876 0.0
H2224 H 0.58119 0.71211 0.69174 0.0
C2225 C 0.56618 0.67983 0.5038 0.0
C2226 C 0.57608 0.69093 0.46814 0.0
C2227 C 0.56614 0.67989 0.57335 0.0
C2228 C 0.57902 0.703 0.71802 0.0
H2229 H 0.55822 0.67183 0.02839 0.0
H2230 H 0.55822 0.67186 0.90771 0.0
H2231 H 0.58125 0.71238 0.81276 0.0
H2232 H 0.5938 0.71077 0.47823 0.0
H2233 H 0.5938 0.71078 0.59897 0.0
H2234 H 0.57073 0.6703 0.69401 0.0
C2235 C 0.56607 0.68055 0.93346 0.0
C2236 C 0.57906 0.70316 0.7875 0.0
C2237 C 0.56602 0.68057 1.00288 0.0
C2238 C 0.58596 0.70206 0.50382 0.0
C2239 C 0.58592 0.70211 0.57325 0.0
C2240 C 0.57293 0.67952 0.71928 0.0
C2241 C 0.57597 0.69163 0.89783 0.0
C2242 C 0.57603 0.6915 0.82379 0.0
C2243 C 0.576 0.69105 0.60896 0.0
C2244 C 0.57596 0.69118 0.68299 0.0
H2245 H 0.59352 0.71158 0.02884 0.0
H2246 H 0.59367 0.71145 0.90774 0.0
H2247 H 0.5708 0.67057 0.81502 0.0
H2248 H 0.55839 0.67109 0.47811 0.0
H2249 H 0.55825 0.67126 0.59919 0.0
C2250 C 0.3716 0.47486 0.84031 0.0
C2251 C 0.36056 0.47382 0.87606 0.0
C2252 C 0.37165 0.47499 0.77088 0.0
C2253 C 0.34909 0.46582 0.62493 0.0
H2254 H 0.38208 0.49008 0.53163 0.0
C2255 C 0.35023 0.47381 0.34139 0.0
C2256 C 0.36131 0.47495 0.30567 0.0
C2257 C 0.35021 0.47377 0.41081 0.0
C2258 C 0.37282 0.48312 0.55684 0.0
H2259 H 0.3409 0.47211 0.86621 0.0
H2260 H 0.34106 0.47247 0.74516 0.0
H2261 H 0.38182 0.4898 0.65266 0.0
H2262 H 0.38108 0.47692 0.31553 0.0
H2263 H 0.38095 0.47667 0.4366 0.0
H2264 H 0.3401 0.45912 0.52915 0.0
C2265 C 0.34961 0.47301 0.77094 0.0
C2266 C 0.37267 0.48297 0.62631 0.0
C2267 C 0.34955 0.47287 0.84047 0.0
C2268 C 0.37239 0.47609 0.34126 0.0
C2269 C 0.37235 0.47601 0.4108 0.0
C2270 C 0.34925 0.46596 0.55546 0.0
C2271 C 0.36068 0.4741 0.73527 0.0
C2272 C 0.36081 0.47431 0.66126 0.0
C2273 C 0.36124 0.47481 0.44646 0.0
C2274 C 0.36111 0.47462 0.52049 0.0
H2275 H 0.38024 0.47555 0.86584 0.0
H2276 H 0.38024 0.47563 0.74508 0.0
H2277 H 0.33984 0.45887 0.65016 0.0
H2278 H 0.34153 0.47298 0.31586 0.0
H2279 H 0.34158 0.47305 0.43655 0.0
C2280 C 0.57332 0.91606 0.83974 0.0
C2281 C 0.57465 0.90623 0.87535 0.0
C2282 C 0.57321 0.91601 0.77031 0.0
C2283 C 0.56723 0.89389 0.62507 0.0
H2284 H 0.58596 0.92769 0.52912 0.0
C2285 C 0.57468 0.89611 0.34059 0.0
C2286 C 0.5733 0.90591 0.3049 0.0
C2287 C 0.57472 0.89613 0.41001 0.0
C2288 C 0.58054 0.91817 0.55512 0.0
H2289 H 0.57695 0.88863 0.86522 0.0
H2290 H 0.57688 0.88863 0.7441 0.0
H2291 H 0.58649 0.92775 0.65015 0.0
H2292 H 0.5708 0.92339 0.31488 0.0
H2293 H 0.57076 0.92334 0.43605 0.0
H2294 H 0.56131 0.88431 0.53001 0.0
C2295 C 0.57576 0.8963 0.77004 0.0
C2296 C 0.58085 0.9182 0.62459 0.0
C2297 C 0.5759 0.89635 0.8396 0.0
C2298 C 0.5719 0.9157 0.34057 0.0
C2299 C 0.57197 0.91572 0.41013 0.0
C2300 C 0.56693 0.89386 0.5556 0.0
C2301 C 0.57441 0.90612 0.73451 0.0
C2302 C 0.57419 0.90607 0.66048 0.0
C2303 C 0.57339 0.90594 0.44571 0.0
C2304 C 0.57358 0.906 0.51972 0.0
H2305 H 0.57231 0.92382 0.86538 0.0
H2306 H 0.57196 0.92362 0.74468 0.0
H2307 H 0.56181 0.88437 0.65105 0.0
H2308 H 0.57581 0.88842 0.31502 0.0
H2309 H 0.57602 0.88856 0.4357 0.0
C2310 C 0.15116 0.69791 0.34294 0.0
C2311 C 0.14133 0.68676 0.30717 0.0
C2312 C 0.15113 0.69792 0.41236 0.0
C2313 C 0.13824 0.67523 0.55812 0.0
H2314 H 0.14642 0.70802 0.65202 0.0
C2315 C 0.13124 0.67621 0.84181 0.0
C2316 C 0.14113 0.68733 0.87755 0.0
C2317 C 0.1313 0.67618 0.77238 0.0
C2318 C 0.14427 0.69882 0.62663 0.0
H2319 H 0.12374 0.66685 0.31694 0.0
H2320 H 0.12361 0.66695 0.43801 0.0
H2321 H 0.14636 0.7078 0.531 0.0
H2322 H 0.15884 0.70716 0.8677 0.0
H2323 H 0.15899 0.70703 0.74664 0.0
H2324 H 0.13613 0.66625 0.65377 0.0
C2325 C 0.13146 0.67562 0.41225 0.0
C2326 C 0.14423 0.69869 0.55715 0.0
C2327 C 0.13149 0.6756 0.34271 0.0
C2328 C 0.15104 0.69844 0.84196 0.0
C2329 C 0.15109 0.69839 0.77243 0.0
C2330 C 0.13827 0.67536 0.62759 0.0
C2331 C 0.14126 0.6868 0.44796 0.0
C2332 C 0.14122 0.6869 0.52198 0.0
C2333 C 0.14123 0.68725 0.73676 0.0
C2334 C 0.14128 0.68715 0.66275 0.0
H2335 H 0.15894 0.70668 0.31745 0.0
H2336 H 0.15896 0.70661 0.43814 0.0
H2337 H 0.13609 0.66604 0.53274 0.0
H2338 H 0.1234 0.6675 0.86735 0.0
H2339 H 0.12343 0.66752 0.74659 0.0
loop_
_geom_bond_atom_site_label_1
_geom_bond_atom_site_label_2
_geom_bond_distance
_geom_bond_site_symmetry_2
_ccdc_geom_bond_type
Nd0 C2 2.836 . S
Nd0 O20 2.500 . S
Nd0 O21 2.492 . S
Nd0 O22 2.487 . S
Nd0 O23 2.682 . S
Nd0 O24 2.410 . S
Nd0 O29 2.414 . S
Nd0 O31 2.424 . S
Nd1 C11 2.836 1_455 S
Nd1 O23 2.414 . S
Nd1 O25 2.424 . S
Nd1 O26 2.500 1_455 S
Nd1 O27 2.506 . S
Nd1 O28 2.487 . S
Nd1 O29 2.682 . S
Nd1 O30 2.410 . S
C2 Nd0 2.836 . S
C2 C3 1.498 . S
C2 O20 1.258 . S
C2 O21 1.239 . S
C3 C2 1.498 . S
C3 C4 1.366 . S
C3 C8 1.407 . S
C4 C3 1.366 . S
C4 C5 1.392 . S
C4 H32 0.930 . S
C5 C4 1.392 . S
C5 C6 1.398 . S
C5 H33 0.929 . S
C6 C5 1.398 . S
C6 C7 1.352 . S
C7 C6 1.352 . S
C7 C8 1.384 . S
C7 H34 0.930 . S
C8 C3 1.407 . S
C8 C7 1.384 . S
C8 H35 0.929 . S
C9 O22 1.241 . S
C9 O23 1.273 . S
C10 O24 1.251 . S
C10 O25 1.268 . S
C11 Nd1 2.836 1_655 S
C11 C12 1.498 . S
C11 O26 1.258 . S
C11 O27 1.230 1_655 S
C12 C11 1.498 . S
C12 C13 1.366 . S
C12 C17 1.407 . S
C13 C12 1.366 . S
C13 C14 1.392 . S
C13 H36 0.930 . S
C14 C13 1.392 . S
C14 C15 1.398 . S
C14 H37 0.929 . S
C15 C14 1.398 . S
C15 C16 1.352 . S
C16 C15 1.352 . S
C16 C17 1.384 . S
C16 H38 0.930 . S
C17 C12 1.407 . S
C17 C16 1.384 . S
C17 H39 0.929 . S
C18 O28 1.241 . S
C18 O29 1.273 . S
C19 O30 1.251 . S
C19 O31 1.268 . S
O20 Nd0 2.500 . S
O20 C2 1.258 . S
O21 Nd0 2.492 . S
O21 C2 1.239 . S
O22 Nd0 2.487 . S
O22 C9 1.241 . S
O23 Nd0 2.682 . S
O23 Nd1 2.414 . S
O23 C9 1.273 . S
O24 Nd0 2.410 . S
O24 C10 1.251 . S
O25 Nd1 2.424 . S
O25 C10 1.268 . S
O26 Nd1 2.500 1_655 S
O26 C11 1.258 . S
O27 Nd1 2.506 . S
O27 C11 1.230 1_455 S
O28 Nd1 2.487 . S
O28 C18 1.241 . S
O29 Nd0 2.414 . S
O29 Nd1 2.682 . S
O29 C18 1.273 . S
O30 Nd1 2.410 . S
O30 C19 1.251 . S
O31 Nd0 2.424 . S
O31 C19 1.268 . S
H32 C4 0.930 . S
H33 C5 0.929 . S
H34 C7 0.930 . S
H35 C8 0.929 . S
H36 C13 0.930 . S
H37 C14 0.929 . S
H38 C16 0.930 . S
H39 C17 0.929 . S
Nd40 C42 2.836 . S
Nd40 O60 2.500 . S
Nd40 O61 2.492 . S
Nd40 O62 2.487 . S
Nd40 O63 2.682 . S
Nd40 O64 2.410 . S
Nd40 O69 2.414 . S
Nd40 O71 2.424 . S
Nd41 C51 2.836 . S
Nd41 O63 2.414 . S
Nd41 O65 2.424 . S
Nd41 O66 2.500 . S
Nd41 O67 2.492 . S
Nd41 O68 2.487 . S
Nd41 O69 2.682 . S
Nd41 O70 2.410 . S
C42 Nd40 2.836 . S
C42 C43 1.498 . S
C42 O60 1.258 . S
C42 O61 1.239 . S
C43 C42 1.498 . S
C43 C44 1.366 . S
C43 C48 1.407 . S
C44 C43 1.366 . S
C44 C45 1.392 . S
C44 H72 0.930 . S
C45 C44 1.392 . S
C45 C46 1.398 . S
C45 H73 0.929 . S
C46 C45 1.398 . S
C46 C47 1.352 . S
C47 C46 1.352 . S
C47 C48 1.384 . S
C47 H74 0.930 . S
C48 C43 1.407 . S
C48 C47 1.384 . S
C48 H75 0.929 . S
C49 O62 1.241 . S
C49 O63 1.273 . S
C50 O64 1.251 . S
C50 O65 1.268 . S
C51 Nd41 2.836 . S
C51 C52 1.498 . S
C51 O66 1.258 . S
C51 O67 1.239 . S
C52 C51 1.498 . S
C52 C53 1.366 . S
C52 C57 1.407 . S
C53 C52 1.366 . S
C53 C54 1.392 . S
C53 H76 0.930 . S
C54 C53 1.392 . S
C54 C55 1.398 . S
C54 H77 0.929 . S
C55 C54 1.398 . S
C55 C56 1.352 . S
C56 C55 1.352 . S
C56 C57 1.384 . S
C56 H78 0.930 . S
C57 C52 1.407 . S
C57 C56 1.384 . S
C57 H79 0.929 . S
C58 O68 1.241 . S
C58 O69 1.273 . S
C59 O70 1.251 . S
C59 O71 1.268 . S
O60 Nd40 2.500 . S
O60 C42 1.258 . S
O61 Nd40 2.492 . S
O61 C42 1.239 . S
O62 Nd40 2.487 . S
O62 C49 1.241 . S
O63 Nd40 2.682 . S
O63 Nd41 2.414 . S
O63 C49 1.273 . S
O64 Nd40 2.410 . S
O64 C50 1.251 . S
O65 Nd41 2.424 . S
O65 C50 1.268 . S
O66 Nd41 2.500 . S
O66 C51 1.258 . S
O67 Nd41 2.492 . S
O67 C51 1.239 . S
O68 Nd41 2.487 . S
O68 C58 1.241 . S
O69 Nd40 2.414 . S
O69 Nd41 2.682 . S
O69 C58 1.273 . S
O70 Nd41 2.410 . S
O70 C59 1.251 . S
O71 Nd40 2.424 . S
O71 C59 1.268 . S
H72 C44 0.930 . S
H73 C45 0.929 . S
H74 C47 0.930 . S
H75 C48 0.929 . S
H76 C53 0.930 . S
H77 C54 0.929 . S
H78 C56 0.930 . S
H79 C57 0.929 . S
Nd80 C82 2.836 1_545 S
Nd80 O100 2.500 1_545 S
Nd80 O101 2.492 1_545 S
Nd80 O102 2.487 . S
Nd80 O103 2.682 . S
Nd80 O104 2.410 . S
Nd80 O109 2.414 . S
Nd80 O111 2.424 . S
Nd81 C91 2.836 . S
Nd81 O103 2.414 . S
Nd81 O105 2.424 . S
Nd81 O106 2.500 . S
Nd81 O107 2.492 . S
Nd81 O108 2.487 . S
Nd81 O109 2.682 . S
Nd81 O110 2.410 . S
C82 Nd80 2.836 1_565 S
C82 C83 1.498 . S
C82 O100 1.258 . S
C82 O101 1.239 . S
C83 C82 1.498 . S
C83 C84 1.366 . S
C83 C88 1.407 . S
C84 C83 1.366 . S
C84 C85 1.392 . S
C84 H112 0.930 . S
C85 C84 1.392 . S
C85 C86 1.398 . S
C85 H113 0.929 . S
C86 C85 1.398 . S
C86 C87 1.352 . S
C87 C86 1.352 . S
C87 C88 1.384 . S
C87 H114 0.930 . S
C88 C83 1.407 . S
C88 C87 1.384 . S
C88 H115 0.929 . S
C89 O102 1.241 . S
C89 O103 1.273 . S
C90 O104 1.251 . S
C90 O105 1.268 . S
C91 Nd81 2.836 . S
C91 C92 1.498 . S
C91 O106 1.258 . S
C91 O107 1.239 . S
C92 C91 1.498 . S
C92 C93 1.366 . S
C92 C97 1.407 . S
C93 C92 1.366 . S
C93 C94 1.392 . S
C93 H116 0.930 . S
C94 C93 1.392 . S
C94 C95 1.398 . S
C94 H117 0.929 . S
C95 C94 1.398 . S
C95 C96 1.352 . S
C96 C95 1.352 . S
C96 C97 1.384 . S
C96 H118 0.930 . S
C97 C92 1.407 . S
C97 C96 1.384 . S
C97 H119 0.929 . S
C98 O108 1.234 1_565 S
C98 O109 1.252 1_565 S
C99 O110 1.251 . S
C99 O111 1.268 . S
O100 Nd80 2.500 1_565 S
O100 C82 1.258 . S
O101 Nd80 2.492 1_565 S
O101 C82 1.239 . S
O102 Nd80 2.487 . S
O102 C89 1.241 . S
O103 Nd80 2.682 . S
O103 Nd81 2.414 . S
O103 C89 1.273 . S
O104 Nd80 2.410 . S
O104 C90 1.251 . S
O105 Nd81 2.424 . S
O105 C90 1.268 . S
O106 Nd81 2.500 . S
O106 C91 1.258 . S
O107 Nd81 2.492 . S
O107 C91 1.239 . S
O108 Nd81 2.487 . S
O108 C98 1.234 1_545 S
O109 Nd80 2.414 . S
O109 Nd81 2.682 . S
O109 C98 1.252 1_545 S
O110 Nd81 2.410 . S
O110 C99 1.251 . S
O111 Nd80 2.424 . S
O111 C99 1.268 . S
H112 C84 0.930 . S
H113 C85 0.929 . S
H114 C87 0.930 . S
H115 C88 0.929 . S
H116 C93 0.930 . S
H117 C94 0.929 . S
H118 C96 0.930 . S
H119 C97 0.929 . S
Nd120 C122 2.836 . S
Nd120 O140 2.500 . S
Nd120 O141 2.492 . S
Nd120 O142 2.487 . S
Nd120 O143 2.682 . S
Nd120 O144 2.410 . S
Nd120 O149 2.414 . S
Nd120 O151 2.424 . S
Nd121 C131 2.836 1_455 S
Nd121 O143 2.414 . S
Nd121 O145 2.424 . S
Nd121 O146 2.500 1_455 S
Nd121 O147 2.492 1_455 S
Nd121 O148 2.487 . S
Nd121 O149 2.682 . S
Nd121 O150 2.410 . S
C122 Nd120 2.836 . S
C122 C123 1.498 . S
C122 O140 1.258 . S
C122 O141 1.239 . S
C123 C122 1.498 . S
C123 C124 1.366 . S
C123 C128 1.407 . S
C124 C123 1.366 . S
C124 C125 1.392 . S
C124 H152 0.930 . S
C125 C124 1.392 . S
C125 C126 1.398 . S
C125 H153 0.929 . S
C126 C125 1.398 . S
C126 C127 1.352 . S
C127 C126 1.352 . S
C127 C128 1.384 . S
C127 H154 0.930 . S
C128 C123 1.407 . S
C128 C127 1.384 . S
C128 H155 0.929 . S
C129 O142 1.251 . S
C129 O143 1.270 . S
C130 O144 1.251 . S
C130 O145 1.268 . S
C131 Nd121 2.836 1_655 S
C131 C132 1.498 . S
C131 O146 1.258 . S
C131 O147 1.239 . S
C132 C131 1.498 . S
C132 C133 1.366 . S
C132 C137 1.407 . S
C133 C132 1.366 . S
C133 C134 1.392 . S
C133 H156 0.930 . S
C134 C133 1.392 . S
C134 C135 1.398 . S
C134 H157 0.929 . S
C135 C134 1.398 . S
C135 C136 1.352 . S
C136 C135 1.352 . S
C136 C137 1.384 . S
C136 H158 0.930 . S
C137 C132 1.407 . S
C137 C136 1.384 . S
C137 H159 0.929 . S
C138 O148 1.241 . S
C138 O149 1.273 . S
C139 O150 1.251 . S
C139 O151 1.268 . S
O140 Nd120 2.500 . S
O140 C122 1.258 . S
O141 Nd120 2.492 . S
O141 C122 1.239 . S
O142 Nd120 2.487 . S
O142 C129 1.251 . S
O143 Nd120 2.682 . S
O143 Nd121 2.414 . S
O143 C129 1.270 . S
O144 Nd120 2.410 . S
O144 C130 1.251 . S
O145 Nd121 2.424 . S
O145 C130 1.268 . S
O146 Nd121 2.500 1_655 S
O146 C131 1.258 . S
O147 Nd121 2.492 1_655 S
O147 C131 1.239 . S
O148 Nd121 2.487 . S
O148 C138 1.241 . S
O149 Nd120 2.414 . S
O149 Nd121 2.682 . S
O149 C138 1.273 . S
O150 Nd121 2.410 . S
O150 C139 1.251 . S
O151 Nd120 2.424 . S
O151 C139 1.268 . S
H152 C124 0.930 . S
H153 C125 0.929 . S
H154 C127 0.930 . S
H155 C128 0.929 . S
H156 C133 0.930 . S
H157 C134 0.929 . S
H158 C136 0.930 . S
H159 C137 0.929 . S
Nd160 C162 2.836 . S
Nd160 O180 2.500 . S
Nd160 O181 2.492 . S
Nd160 O182 2.487 . S
Nd160 O183 2.682 . S
Nd160 O184 2.410 . S
Nd160 O189 2.414 . S
Nd160 O191 2.424 . S
Nd161 C171 2.836 . S
Nd161 O183 2.414 . S
Nd161 O185 2.424 . S
Nd161 O186 2.500 . S
Nd161 O187 2.492 . S
Nd161 O188 2.487 . S
Nd161 O189 2.682 . S
Nd161 O190 2.410 . S
C162 Nd160 2.836 . S
C162 C163 1.498 . S
C162 O180 1.258 . S
C162 O181 1.239 . S
C163 C162 1.498 . S
C163 C164 1.366 . S
C163 C168 1.407 . S
C164 C163 1.366 . S
C164 C165 1.392 . S
C164 H192 0.930 . S
C165 C164 1.392 . S
C165 C166 1.398 . S
C165 H193 0.929 . S
C166 C165 1.398 . S
C166 C167 1.352 . S
C167 C166 1.352 . S
C167 C168 1.384 . S
C167 H194 0.930 . S
C168 C163 1.407 . S
C168 C167 1.384 . S
C168 H195 0.929 . S
C169 O182 1.241 . S
C169 O183 1.273 . S
C170 O184 1.251 . S
C170 O185 1.268 . S
C171 Nd161 2.836 . S
C171 C172 1.498 . S
C171 O186 1.258 . S
C171 O187 1.239 . S
C172 C171 1.498 . S
C172 C173 1.366 . S
C172 C177 1.407 . S
C173 C172 1.366 . S
C173 C174 1.392 . S
C173 H196 0.930 . S
C174 C173 1.392 . S
C174 C175 1.398 . S
C174 H197 0.929 . S
C175 C174 1.398 . S
C175 C176 1.352 . S
C176 C175 1.352 . S
C176 C177 1.384 . S
C176 H198 0.930 . S
C177 C172 1.407 . S
C177 C176 1.384 . S
C177 H199 0.929 . S
C178 O188 1.241 . S
C178 O189 1.273 . S
C179 O190 1.251 . S
C179 O191 1.268 . S
O180 Nd160 2.500 . S
O180 C162 1.258 . S
O181 Nd160 2.492 . S
O181 C162 1.239 . S
O182 Nd160 2.487 . S
O182 C169 1.241 . S
O183 Nd160 2.682 . S
O183 Nd161 2.414 . S
O183 C169 1.273 . S
O184 Nd160 2.410 . S
O184 C170 1.251 . S
O185 Nd161 2.424 . S
O185 C170 1.268 . S
O186 Nd161 2.500 . S
O186 C171 1.258 . S
O187 Nd161 2.492 . S
O187 C171 1.239 . S
O188 Nd161 2.487 . S
O188 C178 1.241 . S
O189 Nd160 2.414 . S
O189 Nd161 2.682 . S
O189 C178 1.273 . S
O190 Nd161 2.410 . S
O190 C179 1.251 . S
O191 Nd160 2.424 . S
O191 C179 1.268 . S
H192 C164 0.930 . S
H193 C165 0.929 . S
H194 C167 0.930 . S
H195 C168 0.929 . S
H196 C173 0.930 . S
H197 C174 0.929 . S
H198 C176 0.930 . S
H199 C177 0.929 . S
Nd200 C202 2.836 1_545 S
Nd200 O220 2.500 1_545 S
Nd200 O221 2.494 1_545 S
Nd200 O222 2.487 . S
Nd200 O223 2.682 . S
Nd200 O224 2.410 . S
Nd200 O229 2.414 . S
Nd200 O231 2.424 . S
Nd201 C211 2.836 . S
Nd201 O223 2.414 . S
Nd201 O225 2.424 . S
Nd201 O226 2.500 . S
Nd201 O227 2.492 . S
Nd201 O228 2.487 . S
Nd201 O229 2.682 . S
Nd201 O230 2.410 . S
C202 Nd200 2.836 1_565 S
C202 C203 1.498 . S
C202 O220 1.258 . S
C202 O221 1.258 . S
C203 C202 1.498 . S
C203 C204 1.366 . S
C203 C208 1.407 . S
C204 C203 1.366 . S
C204 C205 1.392 . S
C204 H232 0.930 . S
C205 C204 1.392 . S
C205 C206 1.398 . S
C205 H233 0.929 . S
C206 C205 1.398 . S
C206 C207 1.352 . S
C207 C206 1.352 . S
C207 C208 1.384 . S
C207 H234 0.930 . S
C208 C203 1.407 . S
C208 C207 1.384 . S
C208 H235 0.929 . S
C209 O222 1.241 . S
C209 O223 1.273 . S
C210 O224 1.251 . S
C210 O225 1.268 . S
C211 Nd201 2.836 . S
C211 C212 1.498 . S
C211 O226 1.258 . S
C211 O227 1.239 . S
C212 C211 1.498 . S
C212 C213 1.366 . S
C212 C217 1.407 . S
C213 C212 1.366 . S
C213 C214 1.392 . S
C213 H236 0.930 . S
C214 C213 1.392 . S
C214 C215 1.398 . S
C214 H237 0.929 . S
C215 C214 1.398 . S
C215 C216 1.352 . S
C216 C215 1.352 . S
C216 C217 1.384 . S
C216 H238 0.930 . S
C217 C212 1.407 . S
C217 C216 1.384 . S
C217 H239 0.929 . S
C218 O228 1.241 . S
C218 O229 1.273 . S
C219 O230 1.251 . S
C219 O231 1.268 . S
O220 Nd200 2.500 1_565 S
O220 C202 1.258 . S
O221 Nd200 2.494 1_565 S
O221 C202 1.258 . S
O222 Nd200 2.487 . S
O222 C209 1.241 . S
O223 Nd200 2.682 . S
O223 Nd201 2.414 . S
O223 C209 1.273 . S
O224 Nd200 2.410 . S
O224 C210 1.251 . S
O225 Nd201 2.424 . S
O225 C210 1.268 . S
O226 Nd201 2.500 . S
O226 C211 1.258 . S
O227 Nd201 2.492 . S
O227 C211 1.239 . S
O228 Nd201 2.487 . S
O228 C218 1.241 . S
O229 Nd200 2.414 . S
O229 Nd201 2.682 . S
O229 C218 1.273 . S
O230 Nd201 2.410 . S
O230 C219 1.251 . S
O231 Nd200 2.424 . S
O231 C219 1.268 . S
H232 C204 0.930 . S
H233 C205 0.929 . S
H234 C207 0.930 . S
H235 C208 0.929 . S
H236 C213 0.930 . S
H237 C214 0.929 . S
H238 C216 0.930 . S
H239 C217 0.929 . S
Nd240 C242 2.836 1_554 S
Nd240 O260 2.500 1_554 S
Nd240 O261 2.492 1_554 S
Nd240 O262 2.487 . S
Nd240 O263 2.682 . S
Nd240 O264 2.410 1_554 S
Nd240 O269 2.414 1_554 S
Nd240 O271 2.424 . S
Nd241 C251 2.836 1_556 S
Nd241 O263 2.414 1_556 S
Nd241 O265 2.424 . S
Nd241 O266 2.500 1_556 S
Nd241 O267 2.492 1_556 S
Nd241 O268 2.487 . S
Nd241 O269 2.682 . S
Nd241 O270 2.410 1_556 S
C242 Nd240 2.836 1_556 S
C242 C243 1.498 . S
C242 O260 1.258 . S
C242 O261 1.239 . S
C243 C242 1.498 . S
C243 C244 1.366 . S
C243 C248 1.407 . S
C244 C243 1.366 . S
C244 C245 1.392 . S
C244 H272 0.930 . S
C245 C244 1.392 . S
C245 C246 1.398 . S
C245 H273 0.929 . S
C246 C245 1.398 . S
C246 C247 1.352 . S
C247 C246 1.352 . S
C247 C248 1.384 . S
C247 H274 0.930 . S
C248 C243 1.407 . S
C248 C247 1.384 . S
C248 H275 0.929 . S
C249 O262 1.241 . S
C249 O263 1.273 . S
C250 O264 1.251 . S
C250 O265 1.268 . S
C251 Nd241 2.836 1_554 S
C251 C252 1.498 . S
C251 O266 1.258 . S
C251 O267 1.239 . S
C252 C251 1.498 . S
C252 C253 1.366 . S
C252 C257 1.407 . S
C253 C252 1.366 . S
C253 C254 1.392 . S
C253 H276 0.930 . S
C254 C253 1.392 . S
C254 C255 1.398 . S
C254 H277 0.929 . S
C255 C254 1.398 . S
C255 C256 1.352 . S
C256 C255 1.352 . S
C256 C257 1.384 . S
C256 H278 0.930 . S
C257 C252 1.407 . S
C257 C256 1.384 . S
C257 H279 0.929 . S
C258 O268 1.241 . S
C258 O269 1.273 . S
C259 O270 1.251 . S
C259 O271 1.268 . S
O260 Nd240 2.500 1_556 S
O260 C242 1.258 . S
O261 Nd240 2.492 1_556 S
O261 C242 1.239 . S
O262 Nd240 2.487 . S
O262 C249 1.241 . S
O263 Nd240 2.682 . S
O263 Nd241 2.414 1_554 S
O263 C249 1.273 . S
O264 Nd240 2.410 1_556 S
O264 C250 1.251 . S
O265 Nd241 2.424 . S
O265 C250 1.268 . S
O266 Nd241 2.500 1_554 S
O266 C251 1.258 . S
O267 Nd241 2.492 1_554 S
O267 C251 1.239 . S
O268 Nd241 2.487 . S
O268 C258 1.241 . S
O269 Nd240 2.414 1_556 S
O269 Nd241 2.682 . S
O269 C258 1.273 . S
O270 Nd241 2.410 1_554 S
O270 C259 1.251 . S
O271 Nd240 2.424 . S
O271 C259 1.268 . S
H272 C244 0.930 . S
H273 C245 0.929 . S
H274 C247 0.930 . S
H275 C248 0.929 . S
H276 C253 0.930 . S
H277 C254 0.929 . S
H278 C256 0.930 . S
H279 C257 0.929 . S
Nd280 C282 2.836 1_554 S
Nd280 O300 2.500 1_554 S
Nd280 O301 2.492 1_554 S
Nd280 O302 2.487 . S
Nd280 O303 2.682 . S
Nd280 O304 2.410 1_554 S
Nd280 O309 2.414 1_554 S
Nd280 O311 2.424 . S
Nd281 C291 2.836 1_556 S
Nd281 O303 2.414 1_556 S
Nd281 O305 2.424 . S
Nd281 O306 2.500 1_556 S
Nd281 O307 2.492 1_556 S
Nd281 O308 2.487 . S
Nd281 O309 2.682 . S
Nd281 O310 2.410 1_556 S
C282 Nd280 2.836 1_556 S
C282 C283 1.498 . S
C282 O300 1.258 . S
C282 O301 1.239 . S
C283 C282 1.498 . S
C283 C284 1.366 . S
C283 C288 1.407 . S
C284 C283 1.366 . S
C284 C285 1.392 . S
C284 H312 0.930 . S
C285 C284 1.392 . S
C285 C286 1.398 . S
C285 H313 0.929 . S
C286 C285 1.398 . S
C286 C287 1.352 . S
C287 C286 1.352 . S
C287 C288 1.384 . S
C287 H314 0.930 . S
C288 C283 1.407 . S
C288 C287 1.384 . S
C288 H315 0.929 . S
C289 O302 1.241 . S
C289 O303 1.273 . S
C290 O304 1.251 . S
C290 O305 1.268 . S
C291 Nd281 2.836 1_554 S
C291 C292 1.498 . S
C291 O306 1.258 . S
C291 O307 1.239 . S
C292 C291 1.498 . S
C292 C293 1.366 . S
C292 C297 1.407 . S
C293 C292 1.366 . S
C293 C294 1.392 . S
C293 H316 0.930 . S
C294 C293 1.392 . S
C294 C295 1.398 . S
C294 H317 0.929 . S
C295 C294 1.398 . S
C295 C296 1.352 . S
C296 C295 1.352 . S
C296 C297 1.384 . S
C296 H318 0.930 . S
C297 C292 1.407 . S
C297 C296 1.384 . S
C297 H319 0.929 . S
C298 O308 1.241 . S
C298 O309 1.273 . S
C299 O310 1.251 . S
C299 O311 1.268 . S
O300 Nd280 2.500 1_556 S
O300 C282 1.258 . S
O301 Nd280 2.492 1_556 S
O301 C282 1.239 . S
O302 Nd280 2.487 . S
O302 C289 1.241 . S
O303 Nd280 2.682 . S
O303 Nd281 2.414 1_554 S
O303 C289 1.273 . S
O304 Nd280 2.410 1_556 S
O304 C290 1.251 . S
O305 Nd281 2.424 . S
O305 C290 1.268 . S
O306 Nd281 2.500 1_554 S
O306 C291 1.258 . S
O307 Nd281 2.492 1_554 S
O307 C291 1.239 . S
O308 Nd281 2.487 . S
O308 C298 1.241 . S
O309 Nd280 2.414 1_556 S
O309 Nd281 2.682 . S
O309 C298 1.273 . S
O310 Nd281 2.410 1_554 S
O310 C299 1.251 . S
O311 Nd280 2.424 . S
O311 C299 1.268 . S
H312 C284 0.930 . S
H313 C285 0.929 . S
H314 C287 0.930 . S
H315 C288 0.929 . S
H316 C293 0.930 . S
H317 C294 0.929 . S
H318 C296 0.930 . S
H319 C297 0.929 . S
Nd320 C322 2.836 1_554 S
Nd320 O340 2.500 1_554 S
Nd320 O341 2.492 1_554 S
Nd320 O342 2.487 . S
Nd320 O343 2.682 . S
Nd320 O344 2.410 1_554 S
Nd320 O349 2.414 1_554 S
Nd320 O351 2.424 . S
Nd321 C331 2.836 1_556 S
Nd321 O343 2.414 1_556 S
Nd321 O345 2.424 . S
Nd321 O346 2.500 1_556 S
Nd321 O347 2.492 1_556 S
Nd321 O348 2.487 . S
Nd321 O349 2.682 . S
Nd321 O350 2.410 1_556 S
C322 Nd320 2.836 1_556 S
C322 C323 1.498 . S
C322 O340 1.258 . S
C322 O341 1.239 . S
C323 C322 1.498 . S
C323 C324 1.366 . S
C323 C328 1.407 . S
C324 C323 1.366 . S
C324 C325 1.392 . S
C324 H352 0.930 . S
C325 C324 1.392 . S
C325 C326 1.398 . S
C325 H353 0.929 . S
C326 C325 1.398 . S
C326 C327 1.352 . S
C327 C326 1.352 . S
C327 C328 1.384 . S
C327 H354 0.930 . S
C328 C323 1.407 . S
C328 C327 1.384 . S
C328 H355 0.929 . S
C329 O342 1.241 . S
C329 O343 1.273 . S
C330 O344 1.251 . S
C330 O345 1.268 . S
C331 Nd321 2.836 1_554 S
C331 C332 1.498 . S
C331 O346 1.258 . S
C331 O347 1.239 . S
C332 C331 1.498 . S
C332 C333 1.366 . S
C332 C337 1.407 . S
C333 C332 1.366 . S
C333 C334 1.392 . S
C333 H356 0.930 . S
C334 C333 1.392 . S
C334 C335 1.398 . S
C334 H357 0.929 . S
C335 C334 1.398 . S
C335 C336 1.352 . S
C336 C335 1.352 . S
C336 C337 1.384 . S
C336 H358 0.930 . S
C337 C332 1.407 . S
C337 C336 1.384 . S
C337 H359 0.929 . S
C338 O348 1.241 . S
C338 O349 1.273 . S
C339 O350 1.251 . S
C339 O351 1.268 . S
O340 Nd320 2.500 1_556 S
O340 C322 1.258 . S
O341 Nd320 2.492 1_556 S
O341 C322 1.239 . S
O342 Nd320 2.487 . S
O342 C329 1.241 . S
O343 Nd320 2.682 . S
O343 Nd321 2.414 1_554 S
O343 C329 1.273 . S
O344 Nd320 2.410 1_556 S
O344 C330 1.251 . S
O345 Nd321 2.424 . S
O345 C330 1.268 . S
O346 Nd321 2.500 1_554 S
O346 C331 1.258 . S
O347 Nd321 2.492 1_554 S
O347 C331 1.239 . S
O348 Nd321 2.487 . S
O348 C338 1.241 . S
O349 Nd320 2.414 1_556 S
O349 Nd321 2.682 . S
O349 C338 1.273 . S
O350 Nd321 2.410 1_554 S
O350 C339 1.251 . S
O351 Nd320 2.424 . S
O351 C339 1.268 . S
H352 C324 0.930 . S
H353 C325 0.929 . S
H354 C327 0.930 . S
H355 C328 0.929 . S
H356 C333 0.930 . S
H357 C334 0.929 . S
H358 C336 0.930 . S
H359 C337 0.929 . S
Nd360 C362 2.836 . S
Nd360 O380 2.500 . S
Nd360 O381 2.492 . S
Nd360 O382 2.487 . S
Nd360 O383 2.682 . S
Nd360 O384 2.410 . S
Nd360 O389 2.414 . S
Nd360 O391 2.424 . S
Nd361 C371 2.836 . S
Nd361 O383 2.414 . S
Nd361 O385 2.424 . S
Nd361 O386 2.500 . S
Nd361 O387 2.492 . S
Nd361 O388 2.487 . S
Nd361 O389 2.682 . S
Nd361 O390 2.410 . S
C362 Nd360 2.836 . S
C362 C363 1.498 . S
C362 O380 1.258 . S
C362 O381 1.239 . S
C363 C362 1.498 . S
C363 C364 1.366 . S
C363 C368 1.407 . S
C364 C363 1.366 . S
C364 C365 1.392 . S
C364 H392 0.930 . S
C365 C364 1.392 . S
C365 C366 1.398 . S
C365 H393 0.929 . S
C366 C365 1.398 . S
C366 C367 1.352 . S
C367 C366 1.352 . S
C367 C368 1.384 . S
C367 H394 0.930 . S
C368 C363 1.407 . S
C368 C367 1.384 . S
C368 H395 0.929 . S
C369 O382 1.241 . S
C369 O383 1.273 . S
C370 O384 1.251 . S
C370 O385 1.268 . S
C371 Nd361 2.836 . S
C371 C372 1.498 . S
C371 O386 1.258 . S
C371 O387 1.239 . S
C372 C371 1.498 . S
C372 C373 1.366 . S
C372 C377 1.407 . S
C373 C372 1.366 . S
C373 C374 1.392 . S
C373 H396 0.930 . S
C374 C373 1.392 . S
C374 C375 1.398 . S
C374 H397 0.929 . S
C375 C374 1.398 . S
C375 C376 1.352 . S
C376 C375 1.352 . S
C376 C377 1.384 . S
C376 H398 0.930 . S
C377 C372 1.407 . S
C377 C376 1.384 . S
C377 H399 0.929 . S
C378 O388 1.241 . S
C378 O389 1.273 . S
C379 O390 1.251 . S
C379 O391 1.268 . S
O380 Nd360 2.500 . S
O380 C362 1.258 . S
O381 Nd360 2.492 . S
O381 C362 1.239 . S
O382 Nd360 2.487 . S
O382 C369 1.241 . S
O383 Nd360 2.682 . S
O383 Nd361 2.414 . S
O383 C369 1.273 . S
O384 Nd360 2.410 . S
O384 C370 1.251 . S
O385 Nd361 2.424 . S
O385 C370 1.268 . S
O386 Nd361 2.500 . S
O386 C371 1.258 . S
O387 Nd361 2.492 . S
O387 C371 1.239 . S
O388 Nd361 2.487 . S
O388 C378 1.241 . S
O389 Nd360 2.414 . S
O389 Nd361 2.682 . S
O389 C378 1.273 . S
O390 Nd361 2.410 . S
O390 C379 1.251 . S
O391 Nd360 2.424 . S
O391 C379 1.268 . S
H392 C364 0.930 . S
H393 C365 0.929 . S
H394 C367 0.930 . S
H395 C368 0.929 . S
H396 C373 0.930 . S
H397 C374 0.929 . S
H398 C376 0.930 . S
H399 C377 0.929 . S
Nd400 C402 2.836 . S
Nd400 O420 2.500 . S
Nd400 O421 2.492 . S
Nd400 O422 2.487 . S
Nd400 O423 2.682 . S
Nd400 O424 2.410 . S
Nd400 O429 2.414 . S
Nd400 O431 2.424 . S
Nd401 C411 2.836 . S
Nd401 O423 2.414 . S
Nd401 O425 2.424 . S
Nd401 O426 2.500 . S
Nd401 O427 2.492 . S
Nd401 O428 2.487 . S
Nd401 O429 2.682 . S
Nd401 O430 2.410 . S
C402 Nd400 2.836 . S
C402 C403 1.498 . S
C402 O420 1.258 . S
C402 O421 1.239 . S
C403 C402 1.498 . S
C403 C404 1.366 . S
C403 C408 1.407 . S
C404 C403 1.366 . S
C404 C405 1.392 . S
C404 H432 0.930 . S
C405 C404 1.392 . S
C405 C406 1.398 . S
C405 H433 0.929 . S
C406 C405 1.398 . S
C406 C407 1.352 . S
C407 C406 1.352 . S
C407 C408 1.384 . S
C407 H434 0.930 . S
C408 C403 1.407 . S
C408 C407 1.384 . S
C408 H435 0.929 . S
C409 O422 1.241 . S
C409 O423 1.273 . S
C410 O424 1.251 . S
C410 O425 1.268 . S
C411 Nd401 2.836 . S
C411 C412 1.498 . S
C411 O426 1.258 . S
C411 O427 1.239 . S
C412 C411 1.498 . S
C412 C413 1.366 . S
C412 C417 1.407 . S
C413 C412 1.366 . S
C413 C414 1.392 . S
C413 H436 0.930 . S
C414 C413 1.392 . S
C414 C415 1.398 . S
C414 H437 0.929 . S
C415 C414 1.398 . S
C415 C416 1.352 . S
C416 C415 1.352 . S
C416 C417 1.384 . S
C416 H438 0.930 . S
C417 C412 1.407 . S
C417 C416 1.384 . S
C417 H439 0.929 . S
C418 O428 1.241 . S
C418 O429 1.273 . S
C419 O430 1.251 . S
C419 O431 1.268 . S
O420 Nd400 2.500 . S
O420 C402 1.258 . S
O421 Nd400 2.492 . S
O421 C402 1.239 . S
O422 Nd400 2.487 . S
O422 C409 1.241 . S
O423 Nd400 2.682 . S
O423 Nd401 2.414 . S
O423 C409 1.273 . S
O424 Nd400 2.410 . S
O424 C410 1.251 . S
O425 Nd401 2.424 . S
O425 C410 1.268 . S
O426 Nd401 2.500 . S
O426 C411 1.258 . S
O427 Nd401 2.492 . S
O427 C411 1.239 . S
O428 Nd401 2.487 . S
O428 C418 1.241 . S
O429 Nd400 2.414 . S
O429 Nd401 2.682 . S
O429 C418 1.273 . S
O430 Nd401 2.410 . S
O430 C419 1.251 . S
O431 Nd400 2.424 . S
O431 C419 1.268 . S
H432 C404 0.930 . S
H433 C405 0.929 . S
H434 C407 0.930 . S
H435 C408 0.929 . S
H436 C413 0.930 . S
H437 C414 0.929 . S
H438 C416 0.930 . S
H439 C417 0.929 . S
Nd440 C442 2.836 . S
Nd440 O460 2.500 . S
Nd440 O461 2.492 . S
Nd440 O462 2.487 . S
Nd440 O463 2.682 . S
Nd440 O464 2.410 . S
Nd440 O469 2.414 . S
Nd440 O471 2.424 . S
Nd441 C451 2.836 . S
Nd441 O463 2.414 . S
Nd441 O465 2.424 . S
Nd441 O466 2.500 . S
Nd441 O467 2.492 . S
Nd441 O468 2.487 . S
Nd441 O469 2.682 . S
Nd441 O470 2.410 . S
C442 Nd440 2.836 . S
C442 C443 1.498 . S
C442 O460 1.258 . S
C442 O461 1.239 . S
C443 C442 1.498 . S
C443 C444 1.366 . S
C443 C448 1.407 . S
C444 C443 1.366 . S
C444 C445 1.392 . S
C444 H472 0.930 . S
C445 C444 1.392 . S
C445 C446 1.398 . S
C445 H473 0.929 . S
C446 C445 1.398 . S
C446 C447 1.352 . S
C447 C446 1.352 . S
C447 C448 1.384 . S
C447 H474 0.930 . S
C448 C443 1.407 . S
C448 C447 1.384 . S
C448 H475 0.929 . S
C449 O462 1.241 . S
C449 O463 1.273 . S
C450 O464 1.251 . S
C450 O465 1.268 . S
C451 Nd441 2.836 . S
C451 C452 1.498 . S
C451 O466 1.258 . S
C451 O467 1.239 . S
C452 C451 1.498 . S
C452 C453 1.366 . S
C452 C457 1.407 . S
C453 C452 1.366 . S
C453 C454 1.392 . S
C453 H476 0.930 . S
C454 C453 1.392 . S
C454 C455 1.398 . S
C454 H477 0.929 . S
C455 C454 1.398 . S
C455 C456 1.352 . S
C456 C455 1.352 . S
C456 C457 1.384 . S
C456 H478 0.930 . S
C457 C452 1.407 . S
C457 C456 1.384 . S
C457 H479 0.929 . S
C458 O468 1.241 . S
C458 O469 1.273 . S
C459 O470 1.251 . S
C459 O471 1.268 . S
O460 Nd440 2.500 . S
O460 C442 1.258 . S
O461 Nd440 2.492 . S
O461 C442 1.239 . S
O462 Nd440 2.487 . S
O462 C449 1.241 . S
O463 Nd440 2.682 . S
O463 Nd441 2.414 . S
O463 C449 1.273 . S
O464 Nd440 2.410 . S
O464 C450 1.251 . S
O465 Nd441 2.424 . S
O465 C450 1.268 . S
O466 Nd441 2.500 . S
O466 C451 1.258 . S
O467 Nd441 2.492 . S
O467 C451 1.239 . S
O468 Nd441 2.487 . S
O468 C458 1.241 . S
O469 Nd440 2.414 . S
O469 Nd441 2.682 . S
O469 C458 1.273 . S
O470 Nd441 2.410 . S
O470 C459 1.251 . S
O471 Nd440 2.424 . S
O471 C459 1.268 . S
H472 C444 0.930 . S
H473 C445 0.929 . S
H474 C447 0.930 . S
H475 C448 0.929 . S
H476 C453 0.930 . S
H477 C454 0.929 . S
H478 C456 0.930 . S
H479 C457 0.929 . S
Nd480 C482 2.836 . S
Nd480 O500 2.500 . S
Nd480 O501 2.492 . S
Nd480 O502 2.487 . S
Nd480 O503 2.682 . S
Nd480 O504 2.410 . S
Nd480 O509 2.414 . S
Nd480 O511 2.424 . S
Nd481 C491 2.836 . S
Nd481 O503 2.414 . S
Nd481 O505 2.424 . S
Nd481 O506 2.500 . S
Nd481 O507 2.492 . S
Nd481 O508 2.487 . S
Nd481 O509 2.682 . S
Nd481 O510 2.410 . S
C482 Nd480 2.836 . S
C482 C483 1.498 . S
C482 O500 1.258 . S
C482 O501 1.239 . S
C483 C482 1.498 . S
C483 C484 1.366 . S
C483 C488 1.407 . S
C484 C483 1.366 . S
C484 C485 1.392 . S
C484 H512 0.930 . S
C485 C484 1.392 . S
C485 C486 1.398 . S
C485 H513 0.929 . S
C486 C485 1.398 . S
C486 C487 1.352 . S
C487 C486 1.352 . S
C487 C488 1.384 . S
C487 H514 0.930 . S
C488 C483 1.407 . S
C488 C487 1.384 . S
C488 H515 0.929 . S
C489 O502 1.241 . S
C489 O503 1.273 . S
C490 O504 1.251 . S
C490 O505 1.268 . S
C491 Nd481 2.836 . S
C491 C492 1.498 . S
C491 O506 1.258 . S
C491 O507 1.239 . S
C492 C491 1.498 . S
C492 C493 1.366 . S
C492 C497 1.407 . S
C493 C492 1.366 . S
C493 C494 1.392 . S
C493 H516 0.930 . S
C494 C493 1.392 . S
C494 C495 1.398 . S
C494 H517 0.929 . S
C495 C494 1.398 . S
C495 C496 1.352 . S
C496 C495 1.352 . S
C496 C497 1.384 . S
C496 H518 0.930 . S
C497 C492 1.407 . S
C497 C496 1.384 . S
C497 H519 0.929 . S
C498 O508 1.241 . S
C498 O509 1.273 . S
C499 O510 1.251 . S
C499 O511 1.268 . S
O500 Nd480 2.500 . S
O500 C482 1.258 . S
O501 Nd480 2.492 . S
O501 C482 1.239 . S
O502 Nd480 2.487 . S
O502 C489 1.241 . S
O503 Nd480 2.682 . S
O503 Nd481 2.414 . S
O503 C489 1.273 . S
O504 Nd480 2.410 . S
O504 C490 1.251 . S
O505 Nd481 2.424 . S
O505 C490 1.268 . S
O506 Nd481 2.500 . S
O506 C491 1.258 . S
O507 Nd481 2.492 . S
O507 C491 1.239 . S
O508 Nd481 2.487 . S
O508 C498 1.241 . S
O509 Nd480 2.414 . S
O509 Nd481 2.682 . S
O509 C498 1.273 . S
O510 Nd481 2.410 . S
O510 C499 1.251 . S
O511 Nd480 2.424 . S
O511 C499 1.268 . S
H512 C484 0.930 . S
H513 C485 0.929 . S
H514 C487 0.930 . S
H515 C488 0.929 . S
H516 C493 0.930 . S
H517 C494 0.929 . S
H518 C496 0.930 . S
H519 C497 0.929 . S
Nd520 C522 2.836 . S
Nd520 O540 2.500 . S
Nd520 O541 2.492 . S
Nd520 O542 2.487 . S
Nd520 O543 2.682 . S
Nd520 O544 2.410 . S
Nd520 O549 2.414 . S
Nd520 O551 2.424 . S
Nd521 C531 2.836 . S
Nd521 O543 2.414 . S
Nd521 O545 2.424 . S
Nd521 O546 2.500 . S
Nd521 O547 2.492 . S
Nd521 O548 2.487 . S
Nd521 O549 2.682 . S
Nd521 O550 2.410 . S
C522 Nd520 2.836 . S
C522 C523 1.498 . S
C522 O540 1.258 . S
C522 O541 1.239 . S
C523 C522 1.498 . S
C523 C524 1.366 . S
C523 C528 1.407 . S
C524 C523 1.366 . S
C524 C525 1.392 . S
C524 H552 0.930 . S
C525 C524 1.392 . S
C525 C526 1.398 . S
C525 H553 0.929 . S
C526 C525 1.398 . S
C526 C527 1.352 . S
C527 C526 1.352 . S
C527 C528 1.384 . S
C527 H554 0.930 . S
C528 C523 1.407 . S
C528 C527 1.384 . S
C528 H555 0.929 . S
C529 O542 1.241 . S
C529 O543 1.273 . S
C530 O544 1.251 . S
C530 O545 1.268 . S
C531 Nd521 2.836 . S
C531 C532 1.498 . S
C531 O546 1.258 . S
C531 O547 1.239 . S
C532 C531 1.498 . S
C532 C533 1.366 . S
C532 C537 1.407 . S
C533 C532 1.366 . S
C533 C534 1.392 . S
C533 H556 0.930 . S
C534 C533 1.392 . S
C534 C535 1.398 . S
C534 H557 0.929 . S
C535 C534 1.398 . S
C535 C536 1.352 . S
C536 C535 1.352 . S
C536 C537 1.384 . S
C536 H558 0.930 . S
C537 C532 1.407 . S
C537 C536 1.384 . S
C537 H559 0.929 . S
C538 O548 1.241 . S
C538 O549 1.273 . S
C539 O550 1.251 . S
C539 O551 1.268 . S
O540 Nd520 2.500 . S
O540 C522 1.258 . S
O541 Nd520 2.492 . S
O541 C522 1.239 . S
O542 Nd520 2.487 . S
O542 C529 1.241 . S
O543 Nd520 2.682 . S
O543 Nd521 2.414 . S
O543 C529 1.273 . S
O544 Nd520 2.410 . S
O544 C530 1.251 . S
O545 Nd521 2.424 . S
O545 C530 1.268 . S
O546 Nd521 2.500 . S
O546 C531 1.258 . S
O547 Nd521 2.492 . S
O547 C531 1.239 . S
O548 Nd521 2.487 . S
O548 C538 1.241 . S
O549 Nd520 2.414 . S
O549 Nd521 2.682 . S
O549 C538 1.273 . S
O550 Nd521 2.410 . S
O550 C539 1.251 . S
O551 Nd520 2.424 . S
O551 C539 1.268 . S
H552 C524 0.930 . S
H553 C525 0.929 . S
H554 C527 0.930 . S
H555 C528 0.929 . S
H556 C533 0.930 . S
H557 C534 0.929 . S
H558 C536 0.930 . S
H559 C537 0.929 . S
Nd560 C562 2.836 . S
Nd560 O580 2.500 . S
Nd560 O581 2.492 . S
Nd560 O582 2.487 . S
Nd560 O583 2.682 . S
Nd560 O584 2.410 . S
Nd560 O589 2.414 . S
Nd560 O591 2.424 . S
Nd561 C571 2.836 . S
Nd561 O583 2.414 . S
Nd561 O585 2.424 . S
Nd561 O586 2.500 . S
Nd561 O587 2.492 . S
Nd561 O588 2.487 . S
Nd561 O589 2.682 . S
Nd561 O590 2.410 . S
C562 Nd560 2.836 . S
C562 C563 1.498 . S
C562 O580 1.258 . S
C562 O581 1.239 . S
C563 C562 1.498 . S
C563 C564 1.366 . S
C563 C568 1.407 . S
C564 C563 1.366 . S
C564 C565 1.392 . S
C564 H592 0.930 . S
C565 C564 1.392 . S
C565 C566 1.398 . S
C565 H593 0.929 . S
C566 C565 1.398 . S
C566 C567 1.352 . S
C567 C566 1.352 . S
C567 C568 1.384 . S
C567 H594 0.930 . S
C568 C563 1.407 . S
C568 C567 1.384 . S
C568 H595 0.929 . S
C569 O582 1.241 . S
C569 O583 1.273 . S
C570 O584 1.251 . S
C570 O585 1.268 . S
C571 Nd561 2.836 . S
C571 C572 1.498 . S
C571 O586 1.258 . S
C571 O587 1.239 . S
C572 C571 1.498 . S
C572 C573 1.366 . S
C572 C577 1.407 . S
C573 C572 1.366 . S
C573 C574 1.392 . S
C573 H596 0.930 . S
C574 C573 1.392 . S
C574 C575 1.398 . S
C574 H597 0.929 . S
C575 C574 1.398 . S
C575 C576 1.352 . S
C576 C575 1.352 . S
C576 C577 1.384 . S
C576 H598 0.930 . S
C577 C572 1.407 . S
C577 C576 1.384 . S
C577 H599 0.929 . S
C578 O588 1.241 . S
C578 O589 1.273 . S
C579 O590 1.251 . S
C579 O591 1.268 . S
O580 Nd560 2.500 . S
O580 C562 1.258 . S
O581 Nd560 2.492 . S
O581 C562 1.239 . S
O582 Nd560 2.487 . S
O582 C569 1.241 . S
O583 Nd560 2.682 . S
O583 Nd561 2.414 . S
O583 C569 1.273 . S
O584 Nd560 2.410 . S
O584 C570 1.251 . S
O585 Nd561 2.424 . S
O585 C570 1.268 . S
O586 Nd561 2.500 . S
O586 C571 1.258 . S
O587 Nd561 2.492 . S
O587 C571 1.239 . S
O588 Nd561 2.487 . S
O588 C578 1.241 . S
O589 Nd560 2.414 . S
O589 Nd561 2.682 . S
O589 C578 1.273 . S
O590 Nd561 2.410 . S
O590 C579 1.251 . S
O591 Nd560 2.424 . S
O591 C579 1.268 . S
H592 C564 0.930 . S
H593 C565 0.929 . S
H594 C567 0.930 . S
H595 C568 0.929 . S
H596 C573 0.930 . S
H597 C574 0.929 . S
H598 C576 0.930 . S
H599 C577 0.929 . S
Nd600 C602 2.836 1_554 S
Nd600 O620 2.500 1_554 S
Nd600 O621 2.492 1_554 S
Nd600 O622 2.487 . S
Nd600 O623 2.682 . S
Nd600 O624 2.410 1_554 S
Nd600 O629 2.414 1_554 S
Nd600 O631 2.424 . S
Nd601 C611 2.836 1_556 S
Nd601 O623 2.414 1_556 S
Nd601 O625 2.424 . S
Nd601 O626 2.500 1_556 S
Nd601 O627 2.492 1_556 S
Nd601 O628 2.487 . S
Nd601 O629 2.682 . S
Nd601 O630 2.410 1_556 S
C602 Nd600 2.836 1_556 S
C602 C603 1.498 . S
C602 O620 1.258 . S
C602 O621 1.239 . S
C603 C602 1.498 . S
C603 C604 1.366 . S
C603 C608 1.407 . S
C604 C603 1.366 . S
C604 C605 1.392 . S
C604 H632 0.930 . S
C605 C604 1.392 . S
C605 C606 1.398 . S
C605 H633 0.929 . S
C606 C605 1.398 . S
C606 C607 1.352 . S
C607 C606 1.352 . S
C607 C608 1.384 . S
C607 H634 0.930 . S
C608 C603 1.407 . S
C608 C607 1.384 . S
C608 H635 0.929 . S
C609 O622 1.241 . S
C609 O623 1.273 . S
C610 O624 1.251 . S
C610 O625 1.268 . S
C611 Nd601 2.836 1_554 S
C611 C612 1.498 . S
C611 O626 1.258 . S
C611 O627 1.239 . S
C612 C611 1.498 . S
C612 C613 1.366 . S
C612 C617 1.407 . S
C613 C612 1.366 . S
C613 C614 1.392 . S
C613 H636 0.930 . S
C614 C613 1.392 . S
C614 C615 1.398 . S
C614 H637 0.929 . S
C615 C614 1.398 . S
C615 C616 1.352 . S
C616 C615 1.352 . S
C616 C617 1.384 . S
C616 H638 0.930 . S
C617 C612 1.407 . S
C617 C616 1.384 . S
C617 H639 0.929 . S
C618 O628 1.241 . S
C618 O629 1.273 . S
C619 O630 1.251 . S
C619 O631 1.268 . S
O620 Nd600 2.500 1_556 S
O620 C602 1.258 . S
O621 Nd600 2.492 1_556 S
O621 C602 1.239 . S
O622 Nd600 2.487 . S
O622 C609 1.241 . S
O623 Nd600 2.682 . S
O623 Nd601 2.414 1_554 S
O623 C609 1.273 . S
O624 Nd600 2.410 1_556 S
O624 C610 1.251 . S
O625 Nd601 2.424 . S
O625 C610 1.268 . S
O626 Nd601 2.500 1_554 S
O626 C611 1.258 . S
O627 Nd601 2.492 1_554 S
O627 C611 1.239 . S
O628 Nd601 2.487 . S
O628 C618 1.241 . S
O629 Nd600 2.414 1_556 S
O629 Nd601 2.682 . S
O629 C618 1.273 . S
O630 Nd601 2.410 1_554 S
O630 C619 1.251 . S
O631 Nd600 2.424 . S
O631 C619 1.268 . S
H632 C604 0.930 . S
H633 C605 0.929 . S
H634 C607 0.930 . S
H635 C608 0.929 . S
H636 C613 0.930 . S
H637 C614 0.929 . S
H638 C616 0.930 . S
H639 C617 0.929 . S
Nd640 C642 2.836 1_554 S
Nd640 O660 2.500 1_554 S
Nd640 O661 2.492 1_554 S
Nd640 O662 2.487 . S
Nd640 O663 2.682 . S
Nd640 O664 2.410 1_554 S
Nd640 O669 2.414 1_554 S
Nd640 O671 2.424 . S
Nd641 C651 2.836 1_556 S
Nd641 O663 2.414 1_556 S
Nd641 O665 2.424 . S
Nd641 O666 2.500 1_556 S
Nd641 O667 2.492 1_556 S
Nd641 O668 2.487 . S
Nd641 O669 2.682 . S
Nd641 O670 2.410 1_556 S
C642 Nd640 2.836 1_556 S
C642 C643 1.498 . S
C642 O660 1.258 . S
C642 O661 1.239 . S
C643 C642 1.498 . S
C643 C644 1.366 . S
C643 C648 1.407 . S
C644 C643 1.366 . S
C644 C645 1.392 . S
C644 H672 0.930 . S
C645 C644 1.392 . S
C645 C646 1.398 . S
C645 H673 0.929 . S
C646 C645 1.398 . S
C646 C647 1.352 . S
C647 C646 1.352 . S
C647 C648 1.384 . S
C647 H674 0.930 . S
C648 C643 1.407 . S
C648 C647 1.384 . S
C648 H675 0.929 . S
C649 O662 1.241 . S
C649 O663 1.273 . S
C650 O664 1.251 . S
C650 O665 1.268 . S
C651 Nd641 2.836 1_554 S
C651 C652 1.498 . S
C651 O666 1.258 . S
C651 O667 1.239 . S
C652 C651 1.498 . S
C652 C653 1.366 . S
C652 C657 1.407 . S
C653 C652 1.366 . S
C653 C654 1.392 . S
C653 H676 0.930 . S
C654 C653 1.392 . S
C654 C655 1.398 . S
C654 H677 0.929 . S
C655 C654 1.398 . S
C655 C656 1.352 . S
C656 C655 1.352 . S
C656 C657 1.384 . S
C656 H678 0.930 . S
C657 C652 1.407 . S
C657 C656 1.384 . S
C657 H679 0.929 . S
C658 O668 1.241 . S
C658 O669 1.273 . S
C659 O670 1.251 . S
C659 O671 1.268 . S
O660 Nd640 2.500 1_556 S
O660 C642 1.258 . S
O661 Nd640 2.492 1_556 S
O661 C642 1.239 . S
O662 Nd640 2.487 . S
O662 C649 1.241 . S
O663 Nd640 2.682 . S
O663 Nd641 2.414 1_554 S
O663 C649 1.273 . S
O664 Nd640 2.410 1_556 S
O664 C650 1.251 . S
O665 Nd641 2.424 . S
O665 C650 1.268 . S
O666 Nd641 2.500 1_554 S
O666 C651 1.258 . S
O667 Nd641 2.492 1_554 S
O667 C651 1.239 . S
O668 Nd641 2.487 . S
O668 C658 1.241 . S
O669 Nd640 2.414 1_556 S
O669 Nd641 2.682 . S
O669 C658 1.273 . S
O670 Nd641 2.410 1_554 S
O670 C659 1.251 . S
O671 Nd640 2.424 . S
O671 C659 1.268 . S
H672 C644 0.930 . S
H673 C645 0.929 . S
H674 C647 0.930 . S
H675 C648 0.929 . S
H676 C653 0.930 . S
H677 C654 0.929 . S
H678 C656 0.930 . S
H679 C657 0.929 . S
Nd680 C682 2.836 1_554 S
Nd680 O700 2.500 1_554 S
Nd680 O701 2.492 1_554 S
Nd680 O702 2.487 . S
Nd680 O703 2.682 . S
Nd680 O704 2.410 1_554 S
Nd680 O709 2.414 1_554 S
Nd680 O711 2.424 . S
Nd681 C691 2.836 1_556 S
Nd681 O703 2.414 1_556 S
Nd681 O705 2.424 . S
Nd681 O706 2.500 1_556 S
Nd681 O707 2.492 1_556 S
Nd681 O708 2.487 . S
Nd681 O709 2.682 . S
Nd681 O710 2.410 1_556 S
C682 Nd680 2.836 1_556 S
C682 C683 1.498 . S
C682 O700 1.258 . S
C682 O701 1.239 . S
C683 C682 1.498 . S
C683 C684 1.366 . S
C683 C688 1.407 . S
C684 C683 1.366 . S
C684 C685 1.392 . S
C684 H712 0.930 . S
C685 C684 1.392 . S
C685 C686 1.398 . S
C685 H713 0.929 . S
C686 C685 1.398 . S
C686 C687 1.352 . S
C687 C686 1.352 . S
C687 C688 1.384 . S
C687 H714 0.930 . S
C688 C683 1.407 . S
C688 C687 1.384 . S
C688 H715 0.929 . S
C689 O702 1.241 . S
C689 O703 1.273 . S
C690 O704 1.251 . S
C690 O705 1.268 . S
C691 Nd681 2.836 1_554 S
C691 C692 1.498 . S
C691 O706 1.258 . S
C691 O707 1.239 . S
C692 C691 1.498 . S
C692 C693 1.366 . S
C692 C697 1.407 . S
C693 C692 1.366 . S
C693 C694 1.392 . S
C693 H716 0.930 . S
C694 C693 1.392 . S
C694 C695 1.398 . S
C694 H717 0.929 . S
C695 C694 1.398 . S
C695 C696 1.352 . S
C696 C695 1.352 . S
C696 C697 1.384 . S
C696 H718 0.930 . S
C697 C692 1.407 . S
C697 C696 1.384 . S
C697 H719 0.929 . S
C698 O708 1.241 . S
C698 O709 1.273 . S
C699 O710 1.251 . S
C699 O711 1.268 . S
O700 Nd680 2.500 1_556 S
O700 C682 1.258 . S
O701 Nd680 2.492 1_556 S
O701 C682 1.239 . S
O702 Nd680 2.487 . S
O702 C689 1.241 . S
O703 Nd680 2.682 . S
O703 Nd681 2.414 1_554 S
O703 C689 1.273 . S
O704 Nd680 2.410 1_556 S
O704 C690 1.251 . S
O705 Nd681 2.424 . S
O705 C690 1.268 . S
O706 Nd681 2.500 1_554 S
O706 C691 1.258 . S
O707 Nd681 2.492 1_554 S
O707 C691 1.239 . S
O708 Nd681 2.487 . S
O708 C698 1.241 . S
O709 Nd680 2.414 1_556 S
O709 Nd681 2.682 . S
O709 C698 1.273 . S
O710 Nd681 2.410 1_554 S
O710 C699 1.251 . S
O711 Nd680 2.424 . S
O711 C699 1.268 . S
H712 C684 0.930 . S
H713 C685 0.929 . S
H714 C687 0.930 . S
H715 C688 0.929 . S
H716 C693 0.930 . S
H717 C694 0.929 . S
H718 C696 0.930 . S
H719 C697 0.929 . S
C720 C721 1.349 . S
C720 C722 1.327 . S
C720 H745 0.950 . S
C721 C720 1.349 . S
C721 C737 1.349 . S
C722 C720 1.327 . S
C722 C741 1.429 . S
C722 H746 0.950 . S
C723 C740 1.574 . S
C723 C742 1.368 . S
C723 H747 0.949 . S
H724 C728 0.949 . S
C725 C726 1.349 . S
C725 C727 1.327 . S
C725 H748 0.950 . S
C726 C725 1.349 . S
C726 C738 1.349 . S
C727 C725 1.327 . S
C727 C743 1.429 . S
C727 H749 0.950 . S
C728 H724 0.949 . S
C728 C736 1.574 . S
C728 C744 1.368 . S
H729 C737 0.950 . S
H730 C735 0.950 . S
H731 C736 0.949 . S
H732 C738 0.950 . S
H733 C739 0.950 . S
H734 C740 0.949 . S
C735 H730 0.950 . S
C735 C737 1.327 . S
C735 C741 1.429 . S
C736 C728 1.574 . S
C736 H731 0.949 . S
C736 C742 1.368 . S
C737 C721 1.349 . S
C737 H729 0.950 . S
C737 C735 1.327 . S
C738 C726 1.349 . S
C738 H732 0.950 . S
C738 C739 1.327 . S
C739 H733 0.950 . S
C739 C738 1.327 . S
C739 C743 1.429 . S
C740 C723 1.574 . S
C740 H734 0.949 . S
C740 C744 1.368 . S
C741 C722 1.429 . S
C741 C735 1.429 . S
C741 C742 1.523 . S
C742 C723 1.368 . S
C742 C736 1.368 . S
C742 C741 1.523 . S
C743 C727 1.429 . S
C743 C739 1.429 . S
C743 C744 1.523 . S
C744 C728 1.368 . S
C744 C740 1.368 . S
C744 C743 1.523 . S
H745 C720 0.950 . S
H746 C722 0.950 . S
H747 C723 0.949 . S
H748 C725 0.950 . S
H749 C727 0.950 . S
C750 C751 1.349 . S
C750 C752 1.327 . S
C750 H775 0.950 . S
C751 C750 1.349 . S
C751 C767 1.349 . S
C752 C750 1.327 . S
C752 C771 1.429 . S
C752 H776 0.950 . S
C753 C770 1.574 . S
C753 C772 1.368 . S
C753 H777 0.949 . S
H754 C758 0.949 . S
C755 C756 1.349 . S
C755 C757 1.327 . S
C755 H778 0.950 . S
C756 C755 1.349 . S
C756 C768 1.349 . S
C757 C755 1.327 . S
C757 C773 1.429 . S
C757 H779 0.950 . S
C758 H754 0.949 . S
C758 C766 1.574 . S
C758 C774 1.368 . S
H759 C767 0.950 . S
H760 C765 0.950 . S
H761 C766 0.949 . S
H762 C768 0.950 . S
H763 C769 0.950 . S
H764 C770 0.949 . S
C765 H760 0.950 . S
C765 C767 1.327 . S
C765 C771 1.429 . S
C766 C758 1.574 . S
C766 H761 0.949 . S
C766 C772 1.368 . S
C767 C751 1.349 . S
C767 H759 0.950 . S
C767 C765 1.327 . S
C768 C756 1.349 . S
C768 H762 0.950 . S
C768 C769 1.327 . S
C769 H763 0.950 . S
C769 C768 1.327 . S
C769 C773 1.429 . S
C770 C753 1.574 . S
C770 H764 0.949 . S
C770 C774 1.368 . S
C771 C752 1.429 . S
C771 C765 1.429 . S
C771 C772 1.523 . S
C772 C753 1.368 . S
C772 C766 1.368 . S
C772 C771 1.523 . S
C773 C757 1.429 . S
C773 C769 1.429 . S
C773 C774 1.523 . S
C774 C758 1.368 . S
C774 C770 1.368 . S
C774 C773 1.523 . S
H775 C750 0.950 . S
H776 C752 0.950 . S
H777 C753 0.949 . S
H778 C755 0.950 . S
H779 C757 0.950 . S
C780 C781 1.349 . S
C780 C782 1.327 . S
C780 H805 0.950 . S
C781 C780 1.349 . S
C781 C797 1.349 . S
C782 C780 1.327 . S
C782 C801 1.429 . S
C782 H806 0.950 . S
C783 C800 1.574 . S
C783 C802 1.368 . S
C783 H807 0.949 . S
H784 C788 0.949 . S
C785 C786 1.349 . S
C785 C787 1.327 . S
C785 H808 0.950 . S
C786 C785 1.349 . S
C786 C798 1.349 . S
C787 C785 1.327 . S
C787 C803 1.429 . S
C787 H809 0.950 . S
C788 H784 0.949 . S
C788 C796 1.574 . S
C788 C804 1.368 . S
H789 C797 0.950 . S
H790 C795 0.950 . S
H791 C796 0.949 . S
H792 C798 0.950 . S
H793 C799 0.950 . S
H794 C800 0.949 . S
C795 H790 0.950 . S
C795 C797 1.327 . S
C795 C801 1.429 . S
C796 C788 1.574 . S
C796 H791 0.949 . S
C796 C802 1.368 . S
C797 C781 1.349 . S
C797 H789 0.950 . S
C797 C795 1.327 . S
C798 C786 1.349 . S
C798 H792 0.950 . S
C798 C799 1.327 . S
C799 H793 0.950 . S
C799 C798 1.327 . S
C799 C803 1.429 . S
C800 C783 1.574 . S
C800 H794 0.949 . S
C800 C804 1.368 . S
C801 C782 1.429 . S
C801 C795 1.429 . S
C801 C802 1.523 . S
C802 C783 1.368 . S
C802 C796 1.368 . S
C802 C801 1.523 . S
C803 C787 1.429 . S
C803 C799 1.429 . S
C803 C804 1.523 . S
C804 C788 1.368 . S
C804 C800 1.368 . S
C804 C803 1.523 . S
H805 C780 0.950 . S
H806 C782 0.950 . S
H807 C783 0.949 . S
H808 C785 0.950 . S
H809 C787 0.950 . S
C810 C811 1.349 . S
C810 C812 1.327 . S
C810 H835 0.950 . S
C811 C810 1.349 . S
C811 C827 1.349 . S
C812 C810 1.327 . S
C812 C831 1.429 . S
C812 H836 0.950 . S
C813 C830 1.574 . S
C813 C832 1.368 . S
C813 H837 0.949 . S
H814 C818 0.949 . S
C815 C816 1.349 . S
C815 C817 1.327 . S
C815 H838 0.950 1_556 S
C816 C815 1.349 . S
C816 C828 1.349 . S
C817 C815 1.327 . S
C817 C833 1.429 . S
C817 H839 0.950 1_556 S
C818 H814 0.949 . S
C818 C826 1.574 . S
C818 C834 1.368 . S
H819 C827 0.950 . S
H820 C825 0.950 . S
H821 C826 0.949 . S
H822 C828 0.950 . S
H823 C829 0.950 . S
H824 C830 0.949 . S
C825 H820 0.950 . S
C825 C827 1.327 . S
C825 C831 1.429 . S
C826 C818 1.574 . S
C826 H821 0.949 . S
C826 C832 1.368 . S
C827 C811 1.349 . S
C827 H819 0.950 . S
C827 C825 1.327 . S
C828 C816 1.349 . S
C828 H822 0.950 . S
C828 C829 1.327 . S
C829 H823 0.950 . S
C829 C828 1.327 . S
C829 C833 1.429 . S
C830 C813 1.574 . S
C830 H824 0.949 . S
C830 C834 1.368 . S
C831 C812 1.429 . S
C831 C825 1.429 . S
C831 C832 1.523 . S
C832 C813 1.368 . S
C832 C826 1.368 . S
C832 C831 1.523 . S
C833 C817 1.429 . S
C833 C829 1.429 . S
C833 C834 1.523 . S
C834 C818 1.368 . S
C834 C830 1.368 . S
C834 C833 1.523 . S
H835 C810 0.950 . S
H836 C812 0.950 . S
H837 C813 0.949 . S
H838 C815 0.950 1_554 S
H839 C817 0.950 1_554 S
C840 C841 1.349 . S
C840 C842 1.327 . S
C840 H865 0.950 . S
C841 C840 1.349 . S
C841 C857 1.349 1_556 S
C842 C840 1.327 . S
C842 C861 1.429 . S
C842 H866 0.950 . S
C843 C860 1.574 . S
C843 C862 1.368 . S
C843 H867 0.949 1_556 S
H844 C848 0.949 . S
C845 C846 1.349 . S
C845 C847 1.327 . S
C845 H868 0.950 . S
C846 C845 1.349 . S
C846 C858 1.349 . S
C847 C845 1.327 . S
C847 C863 1.429 . S
C847 H869 0.950 . S
C848 H844 0.949 . S
C848 C856 1.574 . S
C848 C864 1.368 . S
H849 C857 0.950 . S
H850 C855 0.950 . S
H851 C856 0.949 . S
H852 C858 0.950 . S
H853 C859 0.950 . S
H854 C860 0.949 1_554 S
C855 H850 0.950 . S
C855 C857 1.327 . S
C855 C861 1.429 1_554 S
C856 C848 1.574 . S
C856 H851 0.949 . S
C856 C862 1.368 . S
C857 C841 1.349 1_554 S
C857 H849 0.950 . S
C857 C855 1.327 . S
C858 C846 1.349 . S
C858 H852 0.950 . S
C858 C859 1.327 . S
C859 H853 0.950 . S
C859 C858 1.327 . S
C859 C863 1.429 . S
C860 C843 1.574 . S
C860 H854 0.949 1_556 S
C860 C864 1.368 . S
C861 C842 1.429 . S
C861 C855 1.429 1_556 S
C861 C862 1.523 . S
C862 C843 1.368 . S
C862 C856 1.368 . S
C862 C861 1.523 . S
C863 C847 1.429 . S
C863 C859 1.429 . S
C863 C864 1.523 . S
C864 C848 1.368 . S
C864 C860 1.368 . S
C864 C863 1.523 . S
H865 C840 0.950 . S
H866 C842 0.950 . S
H867 C843 0.949 1_554 S
H868 C845 0.950 . S
H869 C847 0.950 . S
C870 C871 1.349 . S
C870 C872 1.327 . S
C870 H895 0.950 . S
C871 C870 1.349 . S
C871 C887 1.349 . S
C872 C870 1.327 . S
C872 C891 1.429 . S
C872 H896 0.950 . S
C873 C890 1.574 . S
C873 C892 1.368 . S
C873 H897 0.949 . S
H874 C878 0.949 1_554 S
C875 C876 1.349 . S
C875 C877 1.327 . S
C875 H898 0.950 . S
C876 C875 1.349 . S
C876 C888 1.349 1_556 S
C877 C875 1.327 . S
C877 C893 1.429 . S
C877 H899 0.950 . S
C878 H874 0.949 1_556 S
C878 C886 1.574 . S
C878 C894 1.368 . S
H879 C887 0.950 . S
H880 C885 0.950 . S
H881 C886 0.949 . S
H882 C888 0.950 . S
H883 C889 0.950 . S
H884 C890 0.949 . S
C885 H880 0.950 . S
C885 C887 1.327 . S
C885 C891 1.429 . S
C886 C878 1.574 . S
C886 H881 0.949 . S
C886 C892 1.368 . S
C887 C871 1.349 . S
C887 H879 0.950 . S
C887 C885 1.327 . S
C888 C876 1.349 1_554 S
C888 H882 0.950 . S
C888 C889 1.327 . S
C889 H883 0.950 . S
C889 C888 1.327 . S
C889 C893 1.429 1_554 S
C890 C873 1.574 . S
C890 H884 0.949 . S
C890 C894 1.368 . S
C891 C872 1.429 . S
C891 C885 1.429 . S
C891 C892 1.523 . S
C892 C873 1.368 . S
C892 C886 1.368 . S
C892 C891 1.523 . S
C893 C877 1.429 . S
C893 C889 1.429 1_556 S
C893 C894 1.523 . S
C894 C878 1.368 . S
C894 C890 1.368 . S
C894 C893 1.523 . S
H895 C870 0.950 . S
H896 C872 0.950 . S
H897 C873 0.949 . S
H898 C875 0.950 . S
H899 C877 0.950 . S
C900 C901 1.349 . S
C900 C902 1.327 . S
C900 H925 0.950 . S
C901 C900 1.349 . S
C901 C917 1.349 . S
C902 C900 1.327 . S
C902 C921 1.429 . S
C902 H926 0.950 . S
C903 C920 1.574 . S
C903 C922 1.368 . S
C903 H927 0.949 . S
H904 C908 0.949 . S
C905 C906 1.349 . S
C905 C907 1.327 . S
C905 H928 0.950 . S
C906 C905 1.349 . S
C906 C918 1.349 . S
C907 C905 1.327 . S
C907 C923 1.429 . S
C907 H929 0.950 . S
C908 H904 0.949 . S
C908 C916 1.574 . S
C908 C924 1.368 . S
H909 C917 0.950 . S
H910 C915 0.950 . S
H911 C916 0.949 . S
H912 C918 0.950 . S
H913 C919 0.950 . S
H914 C920 0.949 . S
C915 H910 0.950 . S
C915 C917 1.327 . S
C915 C921 1.429 . S
C916 C908 1.574 . S
C916 H911 0.949 . S
C916 C922 1.368 . S
C917 C901 1.349 . S
C917 H909 0.950 . S
C917 C915 1.327 . S
C918 C906 1.349 . S
C918 H912 0.950 . S
C918 C919 1.327 . S
C919 H913 0.950 . S
C919 C918 1.327 . S
C919 C923 1.429 . S
C920 C903 1.574 . S
C920 H914 0.949 . S
C920 C924 1.368 . S
C921 C902 1.429 . S
C921 C915 1.429 . S
C921 C922 1.523 . S
C922 C903 1.368 . S
C922 C916 1.368 . S
C922 C921 1.523 . S
C923 C907 1.429 . S
C923 C919 1.429 . S
C923 C924 1.523 . S
C924 C908 1.368 . S
C924 C920 1.368 . S
C924 C923 1.523 . S
H925 C900 0.950 . S
H926 C902 0.950 . S
H927 C903 0.949 . S
H928 C905 0.950 . S
H929 C907 0.950 . S
C930 C931 1.349 . S
C930 C932 1.327 . S
C930 H955 0.950 . S
C931 C930 1.349 . S
C931 C947 1.349 . S
C932 C930 1.327 . S
C932 C951 1.429 . S
C932 H956 0.950 . S
C933 C950 1.574 . S
C933 C952 1.368 . S
C933 H957 0.949 . S
H934 C938 0.949 . S
C935 C936 1.349 . S
C935 C937 1.327 . S
C935 H958 0.950 . S
C936 C935 1.349 . S
C936 C948 1.349 . S
C937 C935 1.327 . S
C937 C953 1.429 . S
C937 H959 0.950 . S
C938 H934 0.949 . S
C938 C946 1.574 . S
C938 C954 1.368 . S
H939 C947 0.950 . S
H940 C945 0.950 . S
H941 C946 0.949 . S
H942 C948 0.950 . S
H943 C949 0.950 . S
H944 C950 0.949 . S
C945 H940 0.950 . S
C945 C947 1.327 . S
C945 C951 1.429 . S
C946 C938 1.574 . S
C946 H941 0.949 . S
C946 C952 1.368 . S
C947 C931 1.349 . S
C947 H939 0.950 . S
C947 C945 1.327 . S
C948 C936 1.349 . S
C948 H942 0.950 . S
C948 C949 1.327 . S
C949 H943 0.950 . S
C949 C948 1.327 . S
C949 C953 1.429 . S
C950 C933 1.574 . S
C950 H944 0.949 . S
C950 C954 1.368 . S
C951 C932 1.429 . S
C951 C945 1.429 . S
C951 C952 1.523 . S
C952 C933 1.368 . S
C952 C946 1.368 . S
C952 C951 1.523 . S
C953 C937 1.429 . S
C953 C949 1.429 . S
C953 C954 1.523 . S
C954 C938 1.368 . S
C954 C950 1.368 . S
C954 C953 1.523 . S
H955 C930 0.950 . S
H956 C932 0.950 . S
H957 C933 0.949 . S
H958 C935 0.950 . S
H959 C937 0.950 . S
C960 C961 1.349 . S
C960 C962 1.327 . S
C960 H985 0.950 . S
C961 C960 1.349 . S
C961 C977 1.349 . S
C962 C960 1.327 . S
C962 C981 1.429 . S
C962 H986 0.950 . S
C963 C980 1.574 . S
C963 C982 1.368 . S
C963 H987 0.949 . S
H964 C968 0.949 . S
C965 C966 1.349 . S
C965 C967 1.327 . S
C965 H988 0.950 . S
C966 C965 1.349 . S
C966 C978 1.349 . S
C967 C965 1.327 . S
C967 C983 1.429 . S
C967 H989 0.950 . S
C968 H964 0.949 . S
C968 C976 1.574 . S
C968 C984 1.368 . S
H969 C977 0.950 . S
H970 C975 0.950 . S
H971 C976 0.949 . S
H972 C978 0.950 . S
H973 C979 0.950 . S
H974 C980 0.949 . S
C975 H970 0.950 . S
C975 C977 1.327 . S
C975 C981 1.429 . S
C976 C968 1.574 . S
C976 H971 0.949 . S
C976 C982 1.368 . S
C977 C961 1.349 . S
C977 H969 0.950 . S
C977 C975 1.327 . S
C978 C966 1.349 . S
C978 H972 0.950 . S
C978 C979 1.327 . S
C979 H973 0.950 . S
C979 C978 1.327 . S
C979 C983 1.429 . S
C980 C963 1.574 . S
C980 H974 0.949 . S
C980 C984 1.368 . S
C981 C962 1.429 . S
C981 C975 1.429 . S
C981 C982 1.523 . S
C982 C963 1.368 . S
C982 C976 1.368 . S
C982 C981 1.523 . S
C983 C967 1.429 . S
C983 C979 1.429 . S
C983 C984 1.523 . S
C984 C968 1.368 . S
C984 C980 1.368 . S
C984 C983 1.523 . S
H985 C960 0.950 . S
H986 C962 0.950 . S
H987 C963 0.949 . S
H988 C965 0.950 . S
H989 C967 0.950 . S
C990 C991 1.349 . S
C990 C992 1.327 . S
C990 H1015 0.950 . S
C991 C990 1.349 . S
C991 C1007 1.349 1_554 S
C992 C990 1.327 . S
C992 C1011 1.429 . S
C992 H1016 0.950 . S
C993 C1010 1.574 . S
C993 C1012 1.368 . S
C993 H1017 0.949 1_554 S
H994 C998 0.949 . S
C995 C996 1.349 . S
C995 C997 1.327 . S
C995 H1018 0.950 . S
C996 C995 1.349 . S
C996 C1008 1.349 . S
C997 C995 1.327 . S
C997 C1013 1.429 . S
C997 H1019 0.950 . S
C998 H994 0.949 . S
C998 C1006 1.574 . S
C998 C1014 1.368 . S
H999 C1007 0.950 . S
H1000 C1005 0.950 . S
H1001 C1006 0.949 . S
H1002 C1008 0.950 . S
H1003 C1009 0.950 . S
H1004 C1010 0.949 1_556 S
C1005 H1000 0.950 . S
C1005 C1007 1.327 . S
C1005 C1011 1.429 1_556 S
C1006 C998 1.574 . S
C1006 H1001 0.949 . S
C1006 C1012 1.368 . S
C1007 C991 1.349 1_556 S
C1007 H999 0.950 . S
C1007 C1005 1.327 . S
C1008 C996 1.349 . S
C1008 H1002 0.950 . S
C1008 C1009 1.327 . S
C1009 H1003 0.950 . S
C1009 C1008 1.327 . S
C1009 C1013 1.429 . S
C1010 C993 1.574 . S
C1010 H1004 0.949 1_554 S
C1010 C1014 1.368 . S
C1011 C992 1.429 . S
C1011 C1005 1.429 1_554 S
C1011 C1012 1.523 . S
C1012 C993 1.368 . S
C1012 C1006 1.368 . S
C1012 C1011 1.523 . S
C1013 C997 1.429 . S
C1013 C1009 1.429 . S
C1013 C1014 1.523 . S
C1014 C998 1.368 . S
C1014 C1010 1.368 . S
C1014 C1013 1.523 . S
H1015 C990 0.950 . S
H1016 C992 0.950 . S
H1017 C993 0.949 1_556 S
H1018 C995 0.950 . S
H1019 C997 0.950 . S
C1020 C1021 1.349 . S
C1020 C1022 1.327 . S
C1020 H1045 0.950 . S
C1021 C1020 1.349 . S
C1021 C1037 1.349 . S
C1022 C1020 1.327 . S
C1022 C1041 1.429 . S
C1022 H1046 0.950 . S
C1023 C1040 1.574 . S
C1023 C1042 1.368 . S
C1023 H1047 0.949 . S
H1024 C1028 0.949 . S
C1025 C1026 1.349 . S
C1025 C1027 1.327 . S
C1025 H1048 0.950 . S
C1026 C1025 1.349 . S
C1026 C1038 1.349 . S
C1027 C1025 1.327 . S
C1027 C1043 1.429 . S
C1027 H1049 0.950 . S
C1028 H1024 0.949 . S
C1028 C1036 1.574 . S
C1028 C1044 1.368 . S
H1029 C1037 0.950 . S
H1030 C1035 0.950 . S
H1031 C1036 0.949 . S
H1032 C1038 0.950 1_556 S
H1033 C1039 0.950 . S
H1034 C1040 0.949 . S
C1035 H1030 0.950 . S
C1035 C1037 1.327 . S
C1035 C1041 1.429 . S
C1036 C1028 1.574 . S
C1036 H1031 0.949 . S
C1036 C1042 1.368 . S
C1037 C1021 1.349 . S
C1037 H1029 0.950 . S
C1037 C1035 1.327 . S
C1038 C1026 1.349 . S
C1038 H1032 0.950 1_554 S
C1038 C1039 1.327 . S
C1039 H1033 0.950 . S
C1039 C1038 1.327 . S
C1039 C1043 1.429 . S
C1040 C1023 1.574 . S
C1040 H1034 0.949 . S
C1040 C1044 1.368 . S
C1041 C1022 1.429 . S
C1041 C1035 1.429 . S
C1041 C1042 1.523 . S
C1042 C1023 1.368 . S
C1042 C1036 1.368 . S
C1042 C1041 1.523 . S
C1043 C1027 1.429 . S
C1043 C1039 1.429 . S
C1043 C1044 1.523 . S
C1044 C1028 1.368 . S
C1044 C1040 1.368 . S
C1044 C1043 1.523 . S
H1045 C1020 0.950 . S
H1046 C1022 0.950 . S
H1047 C1023 0.949 . S
H1048 C1025 0.950 . S
H1049 C1027 0.950 . S
C1050 C1051 1.349 . S
C1050 C1052 1.327 . S
C1050 H1075 0.950 . S
C1051 C1050 1.349 . S
C1051 C1067 1.349 1_554 S
C1052 C1050 1.327 . S
C1052 C1071 1.429 . S
C1052 H1076 0.950 . S
C1053 C1070 1.574 . S
C1053 C1072 1.368 . S
C1053 H1077 0.949 1_554 S
H1054 C1058 0.949 . S
C1055 C1056 1.349 . S
C1055 C1057 1.327 . S
C1055 H1078 0.950 . S
C1056 C1055 1.349 . S
C1056 C1068 1.349 . S
C1057 C1055 1.327 . S
C1057 C1073 1.429 . S
C1057 H1079 0.950 . S
C1058 H1054 0.949 . S
C1058 C1066 1.574 . S
C1058 C1074 1.368 . S
H1059 C1067 0.950 . S
H1060 C1065 0.950 . S
H1061 C1066 0.949 . S
H1062 C1068 0.950 . S
H1063 C1069 0.950 . S
H1064 C1070 0.949 1_556 S
C1065 H1060 0.950 . S
C1065 C1067 1.327 . S
C1065 C1071 1.429 1_556 S
C1066 C1058 1.574 . S
C1066 H1061 0.949 . S
C1066 C1072 1.368 . S
C1067 C1051 1.349 1_556 S
C1067 H1059 0.950 . S
C1067 C1065 1.327 . S
C1068 C1056 1.349 . S
C1068 H1062 0.950 . S
C1068 C1069 1.327 . S
C1069 H1063 0.950 . S
C1069 C1068 1.327 . S
C1069 C1073 1.429 . S
C1070 C1053 1.574 . S
C1070 H1064 0.949 1_554 S
C1070 C1074 1.368 . S
C1071 C1052 1.429 . S
C1071 C1065 1.429 1_554 S
C1071 C1072 1.523 . S
C1072 C1053 1.368 . S
C1072 C1066 1.368 . S
C1072 C1071 1.523 . S
C1073 C1057 1.429 . S
C1073 C1069 1.429 . S
C1073 C1074 1.523 . S
C1074 C1058 1.368 . S
C1074 C1070 1.368 . S
C1074 C1073 1.523 . S
H1075 C1050 0.950 . S
H1076 C1052 0.950 . S
H1077 C1053 0.949 1_556 S
H1078 C1055 0.950 . S
H1079 C1057 0.950 . S
C1080 C1081 1.349 . S
C1080 C1082 1.327 1_655 S
C1080 H1105 0.950 . S
C1081 C1080 1.349 . S
C1081 C1097 1.349 . S
C1082 C1080 1.327 1_455 S
C1082 C1101 1.429 . S
C1082 H1106 0.950 . S
C1083 C1100 1.574 . S
C1083 C1102 1.368 . S
C1083 H1107 0.949 . S
H1084 C1088 0.949 . S
C1085 C1086 1.349 . S
C1085 C1087 1.327 . S
C1085 H1108 0.950 . S
C1086 C1085 1.349 . S
C1086 C1098 1.349 . S
C1087 C1085 1.327 . S
C1087 C1103 1.429 . S
C1087 H1109 0.950 . S
C1088 H1084 0.949 . S
C1088 C1096 1.574 . S
C1088 C1104 1.368 . S
H1089 C1097 0.950 . S
H1090 C1095 0.950 . S
H1091 C1096 0.949 . S
H1092 C1098 0.950 . S
H1093 C1099 0.950 . S
H1094 C1100 0.949 . S
C1095 H1090 0.950 . S
C1095 C1097 1.327 1_455 S
C1095 C1101 1.429 . S
C1096 C1088 1.574 . S
C1096 H1091 0.949 . S
C1096 C1102 1.368 . S
C1097 C1081 1.349 . S
C1097 H1089 0.950 . S
C1097 C1095 1.327 1_655 S
C1098 C1086 1.349 . S
C1098 H1092 0.950 . S
C1098 C1099 1.327 . S
C1099 H1093 0.950 . S
C1099 C1098 1.327 . S
C1099 C1103 1.429 . S
C1100 C1083 1.574 . S
C1100 H1094 0.949 . S
C1100 C1104 1.368 . S
C1101 C1082 1.429 . S
C1101 C1095 1.429 . S
C1101 C1102 1.523 . S
C1102 C1083 1.368 . S
C1102 C1096 1.368 . S
C1102 C1101 1.523 . S
C1103 C1087 1.429 . S
C1103 C1099 1.429 . S
C1103 C1104 1.523 . S
C1104 C1088 1.368 . S
C1104 C1100 1.368 . S
C1104 C1103 1.523 . S
H1105 C1080 0.950 . S
H1106 C1082 0.950 . S
H1107 C1083 0.949 . S
H1108 C1085 0.950 . S
H1109 C1087 0.950 . S
C1110 C1111 1.349 . S
C1110 C1112 1.327 . S
C1110 H1135 0.950 . S
C1111 C1110 1.349 . S
C1111 C1127 1.349 . S
C1112 C1110 1.327 . S
C1112 C1131 1.429 . S
C1112 H1136 0.950 . S
C1113 C1130 1.574 . S
C1113 C1132 1.368 . S
C1113 H1137 0.949 . S
H1114 C1118 0.949 . S
C1115 C1116 1.349 . S
C1115 C1117 1.327 . S
C1115 H1138 0.950 . S
C1116 C1115 1.349 . S
C1116 C1128 1.349 . S
C1117 C1115 1.327 . S
C1117 C1133 1.429 . S
C1117 H1139 0.950 . S
C1118 H1114 0.949 . S
C1118 C1126 1.574 . S
C1118 C1134 1.368 . S
H1119 C1127 0.950 . S
H1120 C1125 0.950 . S
H1121 C1126 0.949 . S
H1122 C1128 0.950 . S
H1123 C1129 0.950 . S
H1124 C1130 0.949 . S
C1125 H1120 0.950 . S
C1125 C1127 1.327 . S
C1125 C1131 1.429 . S
C1126 C1118 1.574 . S
C1126 H1121 0.949 . S
C1126 C1132 1.368 . S
C1127 C1111 1.349 . S
C1127 H1119 0.950 . S
C1127 C1125 1.327 . S
C1128 C1116 1.349 . S
C1128 H1122 0.950 . S
C1128 C1129 1.327 . S
C1129 H1123 0.950 . S
C1129 C1128 1.327 . S
C1129 C1133 1.429 . S
C1130 C1113 1.574 . S
C1130 H1124 0.949 . S
C1130 C1134 1.368 . S
C1131 C1112 1.429 . S
C1131 C1125 1.429 . S
C1131 C1132 1.523 . S
C1132 C1113 1.368 . S
C1132 C1126 1.368 . S
C1132 C1131 1.523 . S
C1133 C1117 1.429 . S
C1133 C1129 1.429 . S
C1133 C1134 1.523 . S
C1134 C1118 1.368 . S
C1134 C1130 1.368 . S
C1134 C1133 1.523 . S
H1135 C1110 0.950 . S
H1136 C1112 0.950 . S
H1137 C1113 0.949 . S
H1138 C1115 0.950 . S
H1139 C1117 0.950 . S
C1140 C1141 1.349 . S
C1140 C1142 1.327 . S
C1140 H1165 0.950 . S
C1141 C1140 1.349 . S
C1141 C1157 1.349 . S
C1142 C1140 1.327 . S
C1142 C1161 1.429 . S
C1142 H1166 0.950 . S
C1143 C1160 1.574 1_545 S
C1143 C1162 1.368 . S
C1143 H1167 0.949 . S
H1144 C1148 0.949 . S
C1145 C1146 1.349 . S
C1145 C1147 1.327 . S
C1145 H1168 0.950 . S
C1146 C1145 1.349 . S
C1146 C1158 1.349 . S
C1147 C1145 1.327 . S
C1147 C1163 1.429 . S
C1147 H1169 0.950 . S
C1148 H1144 0.949 . S
C1148 C1156 1.558 1_565 S
C1148 C1164 1.368 . S
H1149 C1157 0.950 . S
H1150 C1155 0.950 . S
H1151 C1156 0.950 . S
H1152 C1158 0.950 . S
H1153 C1159 0.950 . S
H1154 C1160 0.949 . S
C1155 H1150 0.950 . S
C1155 C1157 1.327 . S
C1155 C1161 1.429 . S
C1156 C1148 1.558 1_545 S
C1156 H1151 0.950 . S
C1156 C1162 1.383 . S
C1157 C1141 1.349 . S
C1157 H1149 0.950 . S
C1157 C1155 1.327 . S
C1158 C1146 1.349 . S
C1158 H1152 0.950 . S
C1158 C1159 1.327 . S
C1159 H1153 0.950 . S
C1159 C1158 1.327 . S
C1159 C1163 1.429 . S
C1160 C1143 1.574 1_565 S
C1160 H1154 0.949 . S
C1160 C1164 1.368 . S
C1161 C1142 1.429 . S
C1161 C1155 1.429 . S
C1161 C1162 1.523 . S
C1162 C1143 1.368 . S
C1162 C1156 1.383 . S
C1162 C1161 1.523 . S
C1163 C1147 1.429 . S
C1163 C1159 1.429 . S
C1163 C1164 1.523 . S
C1164 C1148 1.368 . S
C1164 C1160 1.368 . S
C1164 C1163 1.523 . S
H1165 C1140 0.950 . S
H1166 C1142 0.950 . S
H1167 C1143 0.949 . S
H1168 C1145 0.950 . S
H1169 C1147 0.950 . S
C1170 C1171 1.349 . S
C1170 C1172 1.327 . S
C1170 H1195 0.950 . S
C1171 C1170 1.349 . S
C1171 C1187 1.349 . S
C1172 C1170 1.327 . S
C1172 C1191 1.429 . S
C1172 H1196 0.950 . S
C1173 C1190 1.574 . S
C1173 C1192 1.368 . S
C1173 H1197 0.949 . S
H1174 C1178 0.949 . S
C1175 C1176 1.349 . S
C1175 C1177 1.327 1_565 S
C1175 H1198 0.950 . S
C1176 C1175 1.349 . S
C1176 C1188 1.349 . S
C1177 C1175 1.327 1_545 S
C1177 C1193 1.429 . S
C1177 H1199 0.950 . S
C1178 H1174 0.949 . S
C1178 C1186 1.574 . S
C1178 C1194 1.368 . S
H1179 C1187 0.950 . S
H1180 C1185 0.950 . S
H1181 C1186 0.949 . S
H1182 C1188 0.950 . S
H1183 C1189 0.950 . S
H1184 C1190 0.949 . S
C1185 H1180 0.950 . S
C1185 C1187 1.327 . S
C1185 C1191 1.429 . S
C1186 C1178 1.574 . S
C1186 H1181 0.949 . S
C1186 C1192 1.368 . S
C1187 C1171 1.349 . S
C1187 H1179 0.950 . S
C1187 C1185 1.327 . S
C1188 C1176 1.349 . S
C1188 H1182 0.950 . S
C1188 C1189 1.327 1_565 S
C1189 H1183 0.950 . S
C1189 C1188 1.327 1_545 S
C1189 C1193 1.429 . S
C1190 C1173 1.574 . S
C1190 H1184 0.949 . S
C1190 C1194 1.368 . S
C1191 C1172 1.429 . S
C1191 C1185 1.429 . S
C1191 C1192 1.523 . S
C1192 C1173 1.368 . S
C1192 C1186 1.368 . S
C1192 C1191 1.523 . S
C1193 C1177 1.429 . S
C1193 C1189 1.429 . S
C1193 C1194 1.523 . S
C1194 C1178 1.368 . S
C1194 C1190 1.368 . S
C1194 C1193 1.523 . S
H1195 C1170 0.950 . S
H1196 C1172 0.950 . S
H1197 C1173 0.949 . S
H1198 C1175 0.950 . S
H1199 C1177 0.950 . S
C1200 C1201 1.349 . S
C1200 C1202 1.327 . S
C1200 H1225 0.950 . S
C1201 C1200 1.349 . S
C1201 C1217 1.349 . S
C1202 C1200 1.327 . S
C1202 C1221 1.429 . S
C1202 H1226 0.950 . S
C1203 C1220 1.574 1_455 S
C1203 C1222 1.368 . S
C1203 H1227 0.949 . S
H1204 C1208 0.949 . S
C1205 C1206 1.349 . S
C1205 C1207 1.327 . S
C1205 H1228 0.950 . S
C1206 C1205 1.349 . S
C1206 C1218 1.349 . S
C1207 C1205 1.327 . S
C1207 C1223 1.429 . S
C1207 H1229 0.950 . S
C1208 H1204 0.949 . S
C1208 C1216 1.574 1_655 S
C1208 C1224 1.368 . S
H1209 C1217 0.950 . S
H1210 C1215 0.950 . S
H1211 C1216 0.949 . S
H1212 C1218 0.950 . S
H1213 C1219 0.950 . S
H1214 C1220 0.949 . S
C1215 H1210 0.950 . S
C1215 C1217 1.327 . S
C1215 C1221 1.429 . S
C1216 C1208 1.574 1_455 S
C1216 H1211 0.949 . S
C1216 C1222 1.368 . S
C1217 C1201 1.349 . S
C1217 H1209 0.950 . S
C1217 C1215 1.327 . S
C1218 C1206 1.349 . S
C1218 H1212 0.950 . S
C1218 C1219 1.327 . S
C1219 H1213 0.950 . S
C1219 C1218 1.327 . S
C1219 C1223 1.429 . S
C1220 C1203 1.574 1_655 S
C1220 H1214 0.949 . S
C1220 C1224 1.368 . S
C1221 C1202 1.429 . S
C1221 C1215 1.429 . S
C1221 C1222 1.523 . S
C1222 C1203 1.368 . S
C1222 C1216 1.368 . S
C1222 C1221 1.523 . S
C1223 C1207 1.429 . S
C1223 C1219 1.429 . S
C1223 C1224 1.523 . S
C1224 C1208 1.368 . S
C1224 C1220 1.368 . S
C1224 C1223 1.523 . S
H1225 C1200 0.950 . S
H1226 C1202 0.950 . S
H1227 C1203 0.949 . S
H1228 C1205 0.950 . S
H1229 C1207 0.950 . S
C1230 C1231 1.349 . S
C1230 C1232 1.327 . S
C1230 H1255 0.950 . S
C1231 C1230 1.349 . S
C1231 C1247 1.349 . S
C1232 C1230 1.327 . S
C1232 C1251 1.429 . S
C1232 H1256 0.950 . S
C1233 C1250 1.574 . S
C1233 C1252 1.368 . S
C1233 H1257 0.949 . S
H1234 C1238 0.949 . S
C1235 C1236 1.349 . S
C1235 C1237 1.327 . S
C1235 H1258 0.950 . S
C1236 C1235 1.349 . S
C1236 C1248 1.349 . S
C1237 C1235 1.327 . S
C1237 C1253 1.429 . S
C1237 H1259 0.950 . S
C1238 H1234 0.949 . S
C1238 C1246 1.574 . S
C1238 C1254 1.368 . S
H1239 C1247 0.950 . S
H1240 C1245 0.950 . S
H1241 C1246 0.949 . S
H1242 C1248 0.950 . S
H1243 C1249 0.950 . S
H1244 C1250 0.949 . S
C1245 H1240 0.950 . S
C1245 C1247 1.327 . S
C1245 C1251 1.429 . S
C1246 C1238 1.574 . S
C1246 H1241 0.949 . S
C1246 C1252 1.368 . S
C1247 C1231 1.349 . S
C1247 H1239 0.950 . S
C1247 C1245 1.327 . S
C1248 C1236 1.349 . S
C1248 H1242 0.950 . S
C1248 C1249 1.327 . S
C1249 H1243 0.950 . S
C1249 C1248 1.327 . S
C1249 C1253 1.429 . S
C1250 C1233 1.574 . S
C1250 H1244 0.949 . S
C1250 C1254 1.368 . S
C1251 C1232 1.429 . S
C1251 C1245 1.429 . S
C1251 C1252 1.523 . S
C1252 C1233 1.368 . S
C1252 C1246 1.368 . S
C1252 C1251 1.523 . S
C1253 C1237 1.429 . S
C1253 C1249 1.429 . S
C1253 C1254 1.523 . S
C1254 C1238 1.368 . S
C1254 C1250 1.368 . S
C1254 C1253 1.523 . S
H1255 C1230 0.950 . S
H1256 C1232 0.950 . S
H1257 C1233 0.949 . S
H1258 C1235 0.950 . S
H1259 C1237 0.950 . S
C1260 C1261 1.349 . S
C1260 C1262 1.327 . S
C1260 H1285 0.950 . S
C1261 C1260 1.349 . S
C1261 C1277 1.349 . S
C1262 C1260 1.327 . S
C1262 C1281 1.429 . S
C1262 H1286 0.950 . S
C1263 C1280 1.574 . S
C1263 C1282 1.368 . S
C1263 H1287 0.949 . S
H1264 C1268 0.949 . S
C1265 C1266 1.349 . S
C1265 C1267 1.327 . S
C1265 H1288 0.950 . S
C1266 C1265 1.349 . S
C1266 C1278 1.349 . S
C1267 C1265 1.327 . S
C1267 C1283 1.429 . S
C1267 H1289 0.950 . S
C1268 H1264 0.949 . S
C1268 C1276 1.574 . S
C1268 C1284 1.368 . S
H1269 C1277 0.950 . S
H1270 C1275 0.950 . S
H1271 C1276 0.949 . S
H1272 C1278 0.950 . S
H1273 C1279 0.950 . S
H1274 C1280 0.949 . S
C1275 H1270 0.950 . S
C1275 C1277 1.327 . S
C1275 C1281 1.429 . S
C1276 C1268 1.574 . S
C1276 H1271 0.949 . S
C1276 C1282 1.368 . S
C1277 C1261 1.349 . S
C1277 H1269 0.950 . S
C1277 C1275 1.327 . S
C1278 C1266 1.349 . S
C1278 H1272 0.950 . S
C1278 C1279 1.327 . S
C1279 H1273 0.950 . S
C1279 C1278 1.327 . S
C1279 C1283 1.429 . S
C1280 C1263 1.574 . S
C1280 H1274 0.949 . S
C1280 C1284 1.368 . S
C1281 C1262 1.429 . S
C1281 C1275 1.429 . S
C1281 C1282 1.523 . S
C1282 C1263 1.368 . S
C1282 C1276 1.368 . S
C1282 C1281 1.523 . S
C1283 C1267 1.429 . S
C1283 C1279 1.429 . S
C1283 C1284 1.523 . S
C1284 C1268 1.368 . S
C1284 C1280 1.368 . S
C1284 C1283 1.523 . S
H1285 C1260 0.950 . S
H1286 C1262 0.950 . S
H1287 C1263 0.949 . S
H1288 C1265 0.950 . S
H1289 C1267 0.950 . S
C1290 C1291 1.349 . S
C1290 C1292 1.327 . S
C1290 H1315 0.950 . S
C1291 C1290 1.349 . S
C1291 C1307 1.349 . S
C1292 C1290 1.327 . S
C1292 C1311 1.429 . S
C1292 H1316 0.950 . S
C1293 C1310 1.574 . S
C1293 C1312 1.368 . S
C1293 H1317 0.949 . S
H1294 C1298 0.949 . S
C1295 C1296 1.349 . S
C1295 C1297 1.327 . S
C1295 H1318 0.950 . S
C1296 C1295 1.349 . S
C1296 C1308 1.349 . S
C1297 C1295 1.327 . S
C1297 C1313 1.429 . S
C1297 H1319 0.950 . S
C1298 H1294 0.949 . S
C1298 C1306 1.574 . S
C1298 C1314 1.368 . S
H1299 C1307 0.950 . S
H1300 C1305 0.950 . S
H1301 C1306 0.949 . S
H1302 C1308 0.950 . S
H1303 C1309 0.950 . S
H1304 C1310 0.949 . S
C1305 H1300 0.950 . S
C1305 C1307 1.327 . S
C1305 C1311 1.429 . S
C1306 C1298 1.574 . S
C1306 H1301 0.949 . S
C1306 C1312 1.368 . S
C1307 C1291 1.349 . S
C1307 H1299 0.950 . S
C1307 C1305 1.327 . S
C1308 C1296 1.349 . S
C1308 H1302 0.950 . S
C1308 C1309 1.327 . S
C1309 H1303 0.950 . S
C1309 C1308 1.327 . S
C1309 C1313 1.429 . S
C1310 C1293 1.574 . S
C1310 H1304 0.949 . S
C1310 C1314 1.368 . S
C1311 C1292 1.429 . S
C1311 C1305 1.429 . S
C1311 C1312 1.523 . S
C1312 C1293 1.368 . S
C1312 C1306 1.368 . S
C1312 C1311 1.523 . S
C1313 C1297 1.429 . S
C1313 C1309 1.429 . S
C1313 C1314 1.523 . S
C1314 C1298 1.368 . S
C1314 C1310 1.368 . S
C1314 C1313 1.523 . S
H1315 C1290 0.950 . S
H1316 C1292 0.950 . S
H1317 C1293 0.949 . S
H1318 C1295 0.950 . S
H1319 C1297 0.950 . S
C1320 C1321 1.349 . S
C1320 C1322 1.327 . S
C1320 H1345 0.950 . S
C1321 C1320 1.349 . S
C1321 C1337 1.349 . S
C1322 C1320 1.327 . S
C1322 C1341 1.429 . S
C1322 H1346 0.950 . S
C1323 C1340 1.574 . S
C1323 C1342 1.368 . S
C1323 H1347 0.949 . S
H1324 C1328 0.949 . S
C1325 C1326 1.349 . S
C1325 C1327 1.327 . S
C1325 H1348 0.950 . S
C1326 C1325 1.349 . S
C1326 C1338 1.349 . S
C1327 C1325 1.327 . S
C1327 C1343 1.429 . S
C1327 H1349 0.950 . S
C1328 H1324 0.949 . S
C1328 C1336 1.574 . S
C1328 C1344 1.368 . S
H1329 C1337 0.950 . S
H1330 C1335 0.950 . S
H1331 C1336 0.949 . S
H1332 C1338 0.950 . S
H1333 C1339 0.950 . S
H1334 C1340 0.949 . S
C1335 H1330 0.950 . S
C1335 C1337 1.327 . S
C1335 C1341 1.429 . S
C1336 C1328 1.574 . S
C1336 H1331 0.949 . S
C1336 C1342 1.368 . S
C1337 C1321 1.349 . S
C1337 H1329 0.950 . S
C1337 C1335 1.327 . S
C1338 C1326 1.349 . S
C1338 H1332 0.950 . S
C1338 C1339 1.327 . S
C1339 H1333 0.950 . S
C1339 C1338 1.327 . S
C1339 C1343 1.429 . S
C1340 C1323 1.574 . S
C1340 H1334 0.949 . S
C1340 C1344 1.368 . S
C1341 C1322 1.429 . S
C1341 C1335 1.429 . S
C1341 C1342 1.523 . S
C1342 C1323 1.368 . S
C1342 C1336 1.368 . S
C1342 C1341 1.523 . S
C1343 C1327 1.429 . S
C1343 C1339 1.429 . S
C1343 C1344 1.523 . S
C1344 C1328 1.368 . S
C1344 C1340 1.368 . S
C1344 C1343 1.523 . S
H1345 C1320 0.950 . S
H1346 C1322 0.950 . S
H1347 C1323 0.949 . S
H1348 C1325 0.950 . S
H1349 C1327 0.950 . S
C1350 C1351 1.349 . S
C1350 C1352 1.327 . S
C1350 H1375 0.950 . S
C1351 C1350 1.349 . S
C1351 C1367 1.349 . S
C1352 C1350 1.327 . S
C1352 C1371 1.429 . S
C1352 H1376 0.950 . S
C1353 C1370 1.574 . S
C1353 C1372 1.368 . S
C1353 H1377 0.949 . S
H1354 C1358 0.949 . S
C1355 C1356 1.349 . S
C1355 C1357 1.327 . S
C1355 H1378 0.950 . S
C1356 C1355 1.349 . S
C1356 C1368 1.349 . S
C1357 C1355 1.327 . S
C1357 C1373 1.429 . S
C1357 H1379 0.950 . S
C1358 H1354 0.949 . S
C1358 C1366 1.574 . S
C1358 C1374 1.368 . S
H1359 C1367 0.950 . S
H1360 C1365 0.950 . S
H1361 C1366 0.949 . S
H1362 C1368 0.950 . S
H1363 C1369 0.950 . S
H1364 C1370 0.949 . S
C1365 H1360 0.950 . S
C1365 C1367 1.327 . S
C1365 C1371 1.429 . S
C1366 C1358 1.574 . S
C1366 H1361 0.949 . S
C1366 C1372 1.368 . S
C1367 C1351 1.349 . S
C1367 H1359 0.950 . S
C1367 C1365 1.327 . S
C1368 C1356 1.349 . S
C1368 H1362 0.950 . S
C1368 C1369 1.327 . S
C1369 H1363 0.950 . S
C1369 C1368 1.327 . S
C1369 C1373 1.429 . S
C1370 C1353 1.574 . S
C1370 H1364 0.949 . S
C1370 C1374 1.368 . S
C1371 C1352 1.429 . S
C1371 C1365 1.429 . S
C1371 C1372 1.523 . S
C1372 C1353 1.368 . S
C1372 C1366 1.368 . S
C1372 C1371 1.523 . S
C1373 C1357 1.429 . S
C1373 C1369 1.429 . S
C1373 C1374 1.523 . S
C1374 C1358 1.368 . S
C1374 C1370 1.368 . S
C1374 C1373 1.523 . S
H1375 C1350 0.950 . S
H1376 C1352 0.950 . S
H1377 C1353 0.949 . S
H1378 C1355 0.950 . S
H1379 C1357 0.950 . S
C1380 C1381 1.349 . S
C1380 C1382 1.327 . S
C1380 H1405 0.950 . S
C1381 C1380 1.349 . S
C1381 C1397 1.349 . S
C1382 C1380 1.327 . S
C1382 C1401 1.429 . S
C1382 H1406 0.950 . S
C1383 C1400 1.574 . S
C1383 C1402 1.368 . S
C1383 H1407 0.949 . S
H1384 C1388 0.949 . S
C1385 C1386 1.349 . S
C1385 C1387 1.327 . S
C1385 H1408 0.950 . S
C1386 C1385 1.349 . S
C1386 C1398 1.349 . S
C1387 C1385 1.327 . S
C1387 C1403 1.429 . S
C1387 H1409 0.950 . S
C1388 H1384 0.949 . S
C1388 C1396 1.574 . S
C1388 C1404 1.368 . S
H1389 C1397 0.950 . S
H1390 C1395 0.950 . S
H1391 C1396 0.949 . S
H1392 C1398 0.950 . S
H1393 C1399 0.950 . S
H1394 C1400 0.949 . S
C1395 H1390 0.950 . S
C1395 C1397 1.327 . S
C1395 C1401 1.429 . S
C1396 C1388 1.574 . S
C1396 H1391 0.949 . S
C1396 C1402 1.368 . S
C1397 C1381 1.349 . S
C1397 H1389 0.950 . S
C1397 C1395 1.327 . S
C1398 C1386 1.349 . S
C1398 H1392 0.950 . S
C1398 C1399 1.327 . S
C1399 H1393 0.950 . S
C1399 C1398 1.327 . S
C1399 C1403 1.429 . S
C1400 C1383 1.574 . S
C1400 H1394 0.949 . S
C1400 C1404 1.368 . S
C1401 C1382 1.429 . S
C1401 C1395 1.429 . S
C1401 C1402 1.523 . S
C1402 C1383 1.368 . S
C1402 C1396 1.368 . S
C1402 C1401 1.523 . S
C1403 C1387 1.429 . S
C1403 C1399 1.429 . S
C1403 C1404 1.523 . S
C1404 C1388 1.368 . S
C1404 C1400 1.368 . S
C1404 C1403 1.523 . S
H1405 C1380 0.950 . S
H1406 C1382 0.950 . S
H1407 C1383 0.949 . S
H1408 C1385 0.950 . S
H1409 C1387 0.950 . S
C1410 C1411 1.349 . S
C1410 C1412 1.327 . S
C1410 H1435 0.950 . S
C1411 C1410 1.349 . S
C1411 C1427 1.349 . S
C1412 C1410 1.327 . S
C1412 C1431 1.429 . S
C1412 H1436 0.950 . S
C1413 C1430 1.574 . S
C1413 C1432 1.368 . S
C1413 H1437 0.949 . S
H1414 C1418 0.949 . S
C1415 C1416 1.349 . S
C1415 C1417 1.327 . S
C1415 H1438 0.950 . S
C1416 C1415 1.349 . S
C1416 C1428 1.349 . S
C1417 C1415 1.327 . S
C1417 C1433 1.429 . S
C1417 H1439 0.950 . S
C1418 H1414 0.949 . S
C1418 C1426 1.574 . S
C1418 C1434 1.368 . S
H1419 C1427 0.950 . S
H1420 C1425 0.950 . S
H1421 C1426 0.949 . S
H1422 C1428 0.950 . S
H1423 C1429 0.950 . S
H1424 C1430 0.949 . S
C1425 H1420 0.950 . S
C1425 C1427 1.327 . S
C1425 C1431 1.429 . S
C1426 C1418 1.574 . S
C1426 H1421 0.949 . S
C1426 C1432 1.368 . S
C1427 C1411 1.349 . S
C1427 H1419 0.950 . S
C1427 C1425 1.327 . S
C1428 C1416 1.349 . S
C1428 H1422 0.950 . S
C1428 C1429 1.327 . S
C1429 H1423 0.950 . S
C1429 C1428 1.327 . S
C1429 C1433 1.429 . S
C1430 C1413 1.574 . S
C1430 H1424 0.949 . S
C1430 C1434 1.368 . S
C1431 C1412 1.429 . S
C1431 C1425 1.429 . S
C1431 C1432 1.523 . S
C1432 C1413 1.368 . S
C1432 C1426 1.368 . S
C1432 C1431 1.523 . S
C1433 C1417 1.429 . S
C1433 C1429 1.429 . S
C1433 C1434 1.523 . S
C1434 C1418 1.368 . S
C1434 C1430 1.368 . S
C1434 C1433 1.523 . S
H1435 C1410 0.950 . S
H1436 C1412 0.950 . S
H1437 C1413 0.949 . S
H1438 C1415 0.950 . S
H1439 C1417 0.950 . S
C1440 C1441 1.349 . S
C1440 C1442 1.327 . S
C1440 H1465 0.950 . S
C1441 C1440 1.349 . S
C1441 C1457 1.349 . S
C1442 C1440 1.327 . S
C1442 C1461 1.429 . S
C1442 H1466 0.950 . S
C1443 C1460 1.574 . S
C1443 C1462 1.368 . S
C1443 H1467 0.949 . S
H1444 C1448 0.949 . S
C1445 C1446 1.349 . S
C1445 C1447 1.327 . S
C1445 H1468 0.950 . S
C1446 C1445 1.349 . S
C1446 C1458 1.349 . S
C1447 C1445 1.327 . S
C1447 C1463 1.429 . S
C1447 H1469 0.950 . S
C1448 H1444 0.949 . S
C1448 C1456 1.574 . S
C1448 C1464 1.368 . S
H1449 C1457 0.950 . S
H1450 C1455 0.950 . S
H1451 C1456 0.949 . S
H1452 C1458 0.950 . S
H1453 C1459 0.950 . S
H1454 C1460 0.949 . S
C1455 H1450 0.950 . S
C1455 C1457 1.327 . S
C1455 C1461 1.429 . S
C1456 C1448 1.574 . S
C1456 H1451 0.949 . S
C1456 C1462 1.368 . S
C1457 C1441 1.349 . S
C1457 H1449 0.950 . S
C1457 C1455 1.327 . S
C1458 C1446 1.349 . S
C1458 H1452 0.950 . S
C1458 C1459 1.327 . S
C1459 H1453 0.950 . S
C1459 C1458 1.327 . S
C1459 C1463 1.429 . S
C1460 C1443 1.574 . S
C1460 H1454 0.949 . S
C1460 C1464 1.368 . S
C1461 C1442 1.429 . S
C1461 C1455 1.429 . S
C1461 C1462 1.523 . S
C1462 C1443 1.368 . S
C1462 C1456 1.368 . S
C1462 C1461 1.523 . S
C1463 C1447 1.429 . S
C1463 C1459 1.429 . S
C1463 C1464 1.523 . S
C1464 C1448 1.368 . S
C1464 C1460 1.368 . S
C1464 C1463 1.523 . S
H1465 C1440 0.950 . S
H1466 C1442 0.950 . S
H1467 C1443 0.949 . S
H1468 C1445 0.950 . S
H1469 C1447 0.950 . S
C1470 C1471 1.349 . S
C1470 C1472 1.327 . S
C1470 H1495 0.950 . S
C1471 C1470 1.349 . S
C1471 C1487 1.349 . S
C1472 C1470 1.327 . S
C1472 C1491 1.429 . S
C1472 H1496 0.950 . S
C1473 C1490 1.574 . S
C1473 C1492 1.368 . S
C1473 H1497 0.949 . S
H1474 C1478 0.949 . S
C1475 C1476 1.349 . S
C1475 C1477 1.327 . S
C1475 H1498 0.950 . S
C1476 C1475 1.349 . S
C1476 C1488 1.349 . S
C1477 C1475 1.327 . S
C1477 C1493 1.429 . S
C1477 H1499 0.950 . S
C1478 H1474 0.949 . S
C1478 C1486 1.574 . S
C1478 C1494 1.368 . S
H1479 C1487 0.950 . S
H1480 C1485 0.950 . S
H1481 C1486 0.949 . S
H1482 C1488 0.950 . S
H1483 C1489 0.950 . S
H1484 C1490 0.949 . S
C1485 H1480 0.950 . S
C1485 C1487 1.327 . S
C1485 C1491 1.429 . S
C1486 C1478 1.574 . S
C1486 H1481 0.949 . S
C1486 C1492 1.368 . S
C1487 C1471 1.349 . S
C1487 H1479 0.950 . S
C1487 C1485 1.327 . S
C1488 C1476 1.349 . S
C1488 H1482 0.950 . S
C1488 C1489 1.327 . S
C1489 H1483 0.950 . S
C1489 C1488 1.327 . S
C1489 C1493 1.429 . S
C1490 C1473 1.574 . S
C1490 H1484 0.949 . S
C1490 C1494 1.368 . S
C1491 C1472 1.429 . S
C1491 C1485 1.429 . S
C1491 C1492 1.523 . S
C1492 C1473 1.368 . S
C1492 C1486 1.368 . S
C1492 C1491 1.523 . S
C1493 C1477 1.429 . S
C1493 C1489 1.429 . S
C1493 C1494 1.523 . S
C1494 C1478 1.368 . S
C1494 C1490 1.368 . S
C1494 C1493 1.523 . S
H1495 C1470 0.950 . S
H1496 C1472 0.950 . S
H1497 C1473 0.949 . S
H1498 C1475 0.950 . S
H1499 C1477 0.950 . S
C1500 C1501 1.349 . S
C1500 C1502 1.327 . S
C1500 H1525 0.950 . S
C1501 C1500 1.349 . S
C1501 C1517 1.349 . S
C1502 C1500 1.327 . S
C1502 C1521 1.429 . S
C1502 H1526 0.950 . S
C1503 C1520 1.574 . S
C1503 C1522 1.368 . S
C1503 H1527 0.949 . S
H1504 C1508 0.949 . S
C1505 C1506 1.349 . S
C1505 C1507 1.327 . S
C1505 H1528 0.950 . S
C1506 C1505 1.349 . S
C1506 C1518 1.349 . S
C1507 C1505 1.327 . S
C1507 C1523 1.429 . S
C1507 H1529 0.950 . S
C1508 H1504 0.949 . S
C1508 C1516 1.574 . S
C1508 C1524 1.368 . S
H1509 C1517 0.950 . S
H1510 C1515 0.950 . S
H1511 C1516 0.949 . S
H1512 C1518 0.950 . S
H1513 C1519 0.950 . S
H1514 C1520 0.949 . S
C1515 H1510 0.950 . S
C1515 C1517 1.327 . S
C1515 C1521 1.429 . S
C1516 C1508 1.574 . S
C1516 H1511 0.949 . S
C1516 C1522 1.368 . S
C1517 C1501 1.349 . S
C1517 H1509 0.950 . S
C1517 C1515 1.327 . S
C1518 C1506 1.349 . S
C1518 H1512 0.950 . S
C1518 C1519 1.327 . S
C1519 H1513 0.950 . S
C1519 C1518 1.327 . S
C1519 C1523 1.429 . S
C1520 C1503 1.574 . S
C1520 H1514 0.949 . S
C1520 C1524 1.368 . S
C1521 C1502 1.429 . S
C1521 C1515 1.429 . S
C1521 C1522 1.523 . S
C1522 C1503 1.368 . S
C1522 C1516 1.368 . S
C1522 C1521 1.523 . S
C1523 C1507 1.429 . S
C1523 C1519 1.429 . S
C1523 C1524 1.523 . S
C1524 C1508 1.368 . S
C1524 C1520 1.368 . S
C1524 C1523 1.523 . S
H1525 C1500 0.950 . S
H1526 C1502 0.950 . S
H1527 C1503 0.949 . S
H1528 C1505 0.950 . S
H1529 C1507 0.950 . S
C1530 C1531 1.349 . S
C1530 C1532 1.327 . S
C1530 H1555 0.950 . S
C1531 C1530 1.349 . S
C1531 C1547 1.349 . S
C1532 C1530 1.327 . S
C1532 C1551 1.429 . S
C1532 H1556 0.950 . S
C1533 C1550 1.574 . S
C1533 C1552 1.368 . S
C1533 H1557 0.949 . S
H1534 C1538 0.949 1_554 S
C1535 C1536 1.349 . S
C1535 C1537 1.327 . S
C1535 H1558 0.950 . S
C1536 C1535 1.349 . S
C1536 C1548 1.349 1_556 S
C1537 C1535 1.327 . S
C1537 C1553 1.429 . S
C1537 H1559 0.950 . S
C1538 H1534 0.949 1_556 S
C1538 C1546 1.574 . S
C1538 C1554 1.368 . S
H1539 C1547 0.950 . S
H1540 C1545 0.950 . S
H1541 C1546 0.949 . S
H1542 C1548 0.950 . S
H1543 C1549 0.950 . S
H1544 C1550 0.949 . S
C1545 H1540 0.950 . S
C1545 C1547 1.327 . S
C1545 C1551 1.429 . S
C1546 C1538 1.574 . S
C1546 H1541 0.949 . S
C1546 C1552 1.368 . S
C1547 C1531 1.349 . S
C1547 H1539 0.950 . S
C1547 C1545 1.327 . S
C1548 C1536 1.349 1_554 S
C1548 H1542 0.950 . S
C1548 C1549 1.327 . S
C1549 H1543 0.950 . S
C1549 C1548 1.327 . S
C1549 C1553 1.429 1_554 S
C1550 C1533 1.574 . S
C1550 H1544 0.949 . S
C1550 C1554 1.368 . S
C1551 C1532 1.429 . S
C1551 C1545 1.429 . S
C1551 C1552 1.523 . S
C1552 C1533 1.368 . S
C1552 C1546 1.368 . S
C1552 C1551 1.523 . S
C1553 C1537 1.429 . S
C1553 C1549 1.429 1_556 S
C1553 C1554 1.523 . S
C1554 C1538 1.368 . S
C1554 C1550 1.368 . S
C1554 C1553 1.523 . S
H1555 C1530 0.950 . S
H1556 C1532 0.950 . S
H1557 C1533 0.949 . S
H1558 C1535 0.950 . S
H1559 C1537 0.950 . S
C1560 C1561 1.349 . S
C1560 C1562 1.327 . S
C1560 H1585 0.950 . S
C1561 C1560 1.349 . S
C1561 C1577 1.349 . S
C1562 C1560 1.327 . S
C1562 C1581 1.429 . S
C1562 H1586 0.950 . S
C1563 C1580 1.574 . S
C1563 C1582 1.368 . S
C1563 H1587 0.949 1_556 S
H1564 C1568 0.949 . S
C1565 C1566 1.349 1_554 S
C1565 C1567 1.327 . S
C1565 H1588 0.950 . S
C1566 C1565 1.349 1_556 S
C1566 C1578 1.349 . S
C1567 C1565 1.327 . S
C1567 C1583 1.429 1_554 S
C1567 H1589 0.950 . S
C1568 H1564 0.949 . S
C1568 C1576 1.574 . S
C1568 C1584 1.368 . S
H1569 C1577 0.950 . S
H1570 C1575 0.950 . S
H1571 C1576 0.949 . S
H1572 C1578 0.950 . S
H1573 C1579 0.950 . S
H1574 C1580 0.949 1_554 S
C1575 H1570 0.950 . S
C1575 C1577 1.327 . S
C1575 C1581 1.429 . S
C1576 C1568 1.574 . S
C1576 H1571 0.949 . S
C1576 C1582 1.368 . S
C1577 C1561 1.349 . S
C1577 H1569 0.950 . S
C1577 C1575 1.327 . S
C1578 C1566 1.349 . S
C1578 H1572 0.950 . S
C1578 C1579 1.327 . S
C1579 H1573 0.950 . S
C1579 C1578 1.327 . S
C1579 C1583 1.429 . S
C1580 C1563 1.574 . S
C1580 H1574 0.949 1_556 S
C1580 C1584 1.368 . S
C1581 C1562 1.429 . S
C1581 C1575 1.429 . S
C1581 C1582 1.523 . S
C1582 C1563 1.368 . S
C1582 C1576 1.368 . S
C1582 C1581 1.523 . S
C1583 C1567 1.429 1_556 S
C1583 C1579 1.429 . S
C1583 C1584 1.523 . S
C1584 C1568 1.368 . S
C1584 C1580 1.368 . S
C1584 C1583 1.523 . S
H1585 C1560 0.950 . S
H1586 C1562 0.950 . S
H1587 C1563 0.949 1_554 S
H1588 C1565 0.950 . S
H1589 C1567 0.950 . S
C1590 C1591 1.349 . S
C1590 C1592 1.327 . S
C1590 H1615 0.950 . S
C1591 C1590 1.349 . S
C1591 C1607 1.349 . S
C1592 C1590 1.327 . S
C1592 C1611 1.429 . S
C1592 H1616 0.950 . S
C1593 C1610 1.574 . S
C1593 C1612 1.368 . S
C1593 H1617 0.949 . S
H1594 C1598 0.949 . S
C1595 C1596 1.349 . S
C1595 C1597 1.327 . S
C1595 H1618 0.950 . S
C1596 C1595 1.349 . S
C1596 C1608 1.349 1_556 S
C1597 C1595 1.327 . S
C1597 C1613 1.429 . S
C1597 H1619 0.950 . S
C1598 H1594 0.949 . S
C1598 C1606 1.574 . S
C1598 C1614 1.368 . S
H1599 C1607 0.950 . S
H1600 C1605 0.950 . S
H1601 C1606 0.949 . S
H1602 C1608 0.950 . S
H1603 C1609 0.950 . S
H1604 C1610 0.949 . S
C1605 H1600 0.950 . S
C1605 C1607 1.327 . S
C1605 C1611 1.429 . S
C1606 C1598 1.574 . S
C1606 H1601 0.949 . S
C1606 C1612 1.368 . S
C1607 C1591 1.349 . S
C1607 H1599 0.950 . S
C1607 C1605 1.327 . S
C1608 C1596 1.349 1_554 S
C1608 H1602 0.950 . S
C1608 C1609 1.327 . S
C1609 H1603 0.950 . S
C1609 C1608 1.327 . S
C1609 C1613 1.429 1_554 S
C1610 C1593 1.574 . S
C1610 H1604 0.949 . S
C1610 C1614 1.368 . S
C1611 C1592 1.429 . S
C1611 C1605 1.429 . S
C1611 C1612 1.523 . S
C1612 C1593 1.368 . S
C1612 C1606 1.368 . S
C1612 C1611 1.523 . S
C1613 C1597 1.429 . S
C1613 C1609 1.429 1_556 S
C1613 C1614 1.523 . S
C1614 C1598 1.368 . S
C1614 C1610 1.368 . S
C1614 C1613 1.523 . S
H1615 C1590 0.950 . S
H1616 C1592 0.950 . S
H1617 C1593 0.949 . S
H1618 C1595 0.950 . S
H1619 C1597 0.950 . S
C1620 C1621 1.349 . S
C1620 C1622 1.327 . S
C1620 H1645 0.950 . S
C1621 C1620 1.349 . S
C1621 C1637 1.349 . S
C1622 C1620 1.327 . S
C1622 C1641 1.429 . S
C1622 H1646 0.950 . S
C1623 C1640 1.574 . S
C1623 C1642 1.368 . S
C1623 H1647 0.949 . S
H1624 C1628 0.949 . S
C1625 C1626 1.349 . S
C1625 C1627 1.327 . S
C1625 H1648 0.950 . S
C1626 C1625 1.349 . S
C1626 C1638 1.349 . S
C1627 C1625 1.327 . S
C1627 C1643 1.429 . S
C1627 H1649 0.950 . S
C1628 H1624 0.949 . S
C1628 C1636 1.574 . S
C1628 C1644 1.368 . S
H1629 C1637 0.948 1_556 S
H1630 C1635 0.950 . S
H1631 C1636 0.949 . S
H1632 C1638 0.950 . S
H1633 C1639 0.950 . S
H1634 C1640 0.949 . S
C1635 H1630 0.950 . S
C1635 C1637 1.328 . S
C1635 C1641 1.429 . S
C1636 C1628 1.574 . S
C1636 H1631 0.949 . S
C1636 C1642 1.368 . S
C1637 C1621 1.349 . S
C1637 H1629 0.948 1_554 S
C1637 C1635 1.328 . S
C1638 C1626 1.349 . S
C1638 H1632 0.950 . S
C1638 C1639 1.327 . S
C1639 H1633 0.950 . S
C1639 C1638 1.327 . S
C1639 C1643 1.429 . S
C1640 C1623 1.574 . S
C1640 H1634 0.949 . S
C1640 C1644 1.368 . S
C1641 C1622 1.429 . S
C1641 C1635 1.429 . S
C1641 C1642 1.523 . S
C1642 C1623 1.368 . S
C1642 C1636 1.368 . S
C1642 C1641 1.523 . S
C1643 C1627 1.429 . S
C1643 C1639 1.429 . S
C1643 C1644 1.523 . S
C1644 C1628 1.368 . S
C1644 C1640 1.368 . S
C1644 C1643 1.523 . S
H1645 C1620 0.950 . S
H1646 C1622 0.950 . S
H1647 C1623 0.949 . S
H1648 C1625 0.950 . S
H1649 C1627 0.950 . S
C1650 C1651 1.349 1_556 S
C1650 C1652 1.327 1_556 S
C1650 H1675 0.950 . S
C1651 C1650 1.349 1_554 S
C1651 C1667 1.349 . S
C1652 C1650 1.327 1_554 S
C1652 C1671 1.429 . S
C1652 H1676 0.951 . S
C1653 C1670 1.574 . S
C1653 C1672 1.368 . S
C1653 H1677 0.949 . S
H1654 C1658 0.949 . S
C1655 C1656 1.349 . S
C1655 C1657 1.327 . S
C1655 H1678 0.950 . S
C1656 C1655 1.349 . S
C1656 C1668 1.349 . S
C1657 C1655 1.327 . S
C1657 C1673 1.429 . S
C1657 H1679 0.950 . S
C1658 H1654 0.949 . S
C1658 C1666 1.574 . S
C1658 C1674 1.368 . S
H1659 C1667 0.950 . S
H1660 C1665 0.950 . S
H1661 C1666 0.949 . S
H1662 C1668 0.950 . S
H1663 C1669 0.950 . S
H1664 C1670 0.949 . S
C1665 H1660 0.950 . S
C1665 C1667 1.327 . S
C1665 C1671 1.429 . S
C1666 C1658 1.574 . S
C1666 H1661 0.949 . S
C1666 C1672 1.368 . S
C1667 C1651 1.349 . S
C1667 H1659 0.950 . S
C1667 C1665 1.327 . S
C1668 C1656 1.349 . S
C1668 H1662 0.950 . S
C1668 C1669 1.327 . S
C1669 H1663 0.950 . S
C1669 C1668 1.327 . S
C1669 C1673 1.429 . S
C1670 C1653 1.574 . S
C1670 H1664 0.949 . S
C1670 C1674 1.368 . S
C1671 C1652 1.429 . S
C1671 C1665 1.429 . S
C1671 C1672 1.523 . S
C1672 C1653 1.368 . S
C1672 C1666 1.368 . S
C1672 C1671 1.523 . S
C1673 C1657 1.429 . S
C1673 C1669 1.429 . S
C1673 C1674 1.523 . S
C1674 C1658 1.368 . S
C1674 C1670 1.368 . S
C1674 C1673 1.523 . S
H1675 C1650 0.950 . S
H1676 C1652 0.951 . S
H1677 C1653 0.949 . S
H1678 C1655 0.950 . S
H1679 C1657 0.950 . S
C1680 C1681 1.349 . S
C1680 C1682 1.327 . S
C1680 H1705 0.950 . S
C1681 C1680 1.349 . S
C1681 C1697 1.349 . S
C1682 C1680 1.327 . S
C1682 C1701 1.429 . S
C1682 H1706 0.950 . S
C1683 C1700 1.574 . S
C1683 C1702 1.368 . S
C1683 H1707 0.949 . S
H1684 C1688 0.949 . S
C1685 C1686 1.349 . S
C1685 C1687 1.327 . S
C1685 H1708 0.950 1_554 S
C1686 C1685 1.349 . S
C1686 C1698 1.349 . S
C1687 C1685 1.327 . S
C1687 C1703 1.429 . S
C1687 H1709 0.950 . S
C1688 H1684 0.949 . S
C1688 C1696 1.574 . S
C1688 C1704 1.368 . S
H1689 C1697 0.950 . S
H1690 C1695 0.950 . S
H1691 C1696 0.949 . S
H1692 C1698 0.950 . S
H1693 C1699 0.950 . S
H1694 C1700 0.949 . S
C1695 H1690 0.950 . S
C1695 C1697 1.327 . S
C1695 C1701 1.429 . S
C1696 C1688 1.574 . S
C1696 H1691 0.949 . S
C1696 C1702 1.368 . S
C1697 C1681 1.349 . S
C1697 H1689 0.950 . S
C1697 C1695 1.327 . S
C1698 C1686 1.349 . S
C1698 H1692 0.950 . S
C1698 C1699 1.327 . S
C1699 H1693 0.950 . S
C1699 C1698 1.327 . S
C1699 C1703 1.429 . S
C1700 C1683 1.574 . S
C1700 H1694 0.949 . S
C1700 C1704 1.368 . S
C1701 C1682 1.429 . S
C1701 C1695 1.429 . S
C1701 C1702 1.523 . S
C1702 C1683 1.368 . S
C1702 C1696 1.368 . S
C1702 C1701 1.523 . S
C1703 C1687 1.429 . S
C1703 C1699 1.429 . S
C1703 C1704 1.523 . S
C1704 C1688 1.368 . S
C1704 C1700 1.368 . S
C1704 C1703 1.523 . S
H1705 C1680 0.950 . S
H1706 C1682 0.950 . S
H1707 C1683 0.949 . S
H1708 C1685 0.950 1_556 S
H1709 C1687 0.950 . S
C1710 C1711 1.349 . S
C1710 C1712 1.327 . S
C1710 H1735 0.950 . S
C1711 C1710 1.349 . S
C1711 C1727 1.349 . S
C1712 C1710 1.327 . S
C1712 C1731 1.429 . S
C1712 H1736 0.950 . S
C1713 C1730 1.574 . S
C1713 C1732 1.368 . S
C1713 H1737 0.949 . S
H1714 C1718 0.949 . S
C1715 C1716 1.349 . S
C1715 C1717 1.327 . S
C1715 H1738 0.950 . S
C1716 C1715 1.349 . S
C1716 C1728 1.349 . S
C1717 C1715 1.327 . S
C1717 C1733 1.429 . S
C1717 H1739 0.950 . S
C1718 H1714 0.949 . S
C1718 C1726 1.574 . S
C1718 C1734 1.368 . S
H1719 C1727 0.950 . S
H1720 C1725 0.950 . S
H1721 C1726 0.949 . S
H1722 C1728 0.950 . S
H1723 C1729 0.950 . S
H1724 C1730 0.949 . S
C1725 H1720 0.950 . S
C1725 C1727 1.327 . S
C1725 C1731 1.429 . S
C1726 C1718 1.574 . S
C1726 H1721 0.949 . S
C1726 C1732 1.368 . S
C1727 C1711 1.349 . S
C1727 H1719 0.950 . S
C1727 C1725 1.327 . S
C1728 C1716 1.349 . S
C1728 H1722 0.950 . S
C1728 C1729 1.327 . S
C1729 H1723 0.950 . S
C1729 C1728 1.327 . S
C1729 C1733 1.429 . S
C1730 C1713 1.574 . S
C1730 H1724 0.949 . S
C1730 C1734 1.368 . S
C1731 C1712 1.429 . S
C1731 C1725 1.429 . S
C1731 C1732 1.523 . S
C1732 C1713 1.368 . S
C1732 C1726 1.368 . S
C1732 C1731 1.523 . S
C1733 C1717 1.429 . S
C1733 C1729 1.429 . S
C1733 C1734 1.523 . S
C1734 C1718 1.368 . S
C1734 C1730 1.368 . S
C1734 C1733 1.523 . S
H1735 C1710 0.950 . S
H1736 C1712 0.950 . S
H1737 C1713 0.949 . S
H1738 C1715 0.950 . S
H1739 C1717 0.950 . S
C1740 C1741 1.349 . S
C1740 C1742 1.327 . S
C1740 H1765 0.950 . S
C1741 C1740 1.349 . S
C1741 C1757 1.349 . S
C1742 C1740 1.327 . S
C1742 C1761 1.429 . S
C1742 H1766 0.950 . S
C1743 C1760 1.574 . S
C1743 C1762 1.368 . S
C1743 H1767 0.949 . S
H1744 C1748 0.949 . S
C1745 C1746 1.349 . S
C1745 C1747 1.327 . S
C1745 H1768 0.950 . S
C1746 C1745 1.349 . S
C1746 C1758 1.349 . S
C1747 C1745 1.327 . S
C1747 C1763 1.429 . S
C1747 H1769 0.950 . S
C1748 H1744 0.949 . S
C1748 C1756 1.574 . S
C1748 C1764 1.368 . S
H1749 C1757 0.950 . S
H1750 C1755 0.950 . S
H1751 C1756 0.949 . S
H1752 C1758 0.950 . S
H1753 C1759 0.950 . S
H1754 C1760 0.949 . S
C1755 H1750 0.950 . S
C1755 C1757 1.327 . S
C1755 C1761 1.429 . S
C1756 C1748 1.574 . S
C1756 H1751 0.949 . S
C1756 C1762 1.368 . S
C1757 C1741 1.349 . S
C1757 H1749 0.950 . S
C1757 C1755 1.327 . S
C1758 C1746 1.349 . S
C1758 H1752 0.950 . S
C1758 C1759 1.327 . S
C1759 H1753 0.950 . S
C1759 C1758 1.327 . S
C1759 C1763 1.429 . S
C1760 C1743 1.574 . S
C1760 H1754 0.949 . S
C1760 C1764 1.368 . S
C1761 C1742 1.429 . S
C1761 C1755 1.429 . S
C1761 C1762 1.523 . S
C1762 C1743 1.368 . S
C1762 C1756 1.368 . S
C1762 C1761 1.523 . S
C1763 C1747 1.429 . S
C1763 C1759 1.429 . S
C1763 C1764 1.523 . S
C1764 C1748 1.368 . S
C1764 C1760 1.368 . S
C1764 C1763 1.523 . S
H1765 C1740 0.950 . S
H1766 C1742 0.950 . S
H1767 C1743 0.949 . S
H1768 C1745 0.950 . S
H1769 C1747 0.950 . S
C1770 C1771 1.349 . S
C1770 C1772 1.327 . S
C1770 H1795 0.950 . S
C1771 C1770 1.349 . S
C1771 C1787 1.349 . S
C1772 C1770 1.327 . S
C1772 C1791 1.429 . S
C1772 H1796 0.950 . S
C1773 C1790 1.574 . S
C1773 C1792 1.368 . S
C1773 H1797 0.949 . S
H1774 C1778 0.949 . S
C1775 C1776 1.349 . S
C1775 C1777 1.327 . S
C1775 H1798 0.950 . S
C1776 C1775 1.349 . S
C1776 C1788 1.349 . S
C1777 C1775 1.327 . S
C1777 C1793 1.429 . S
C1777 H1799 0.950 . S
C1778 H1774 0.949 . S
C1778 C1786 1.574 . S
C1778 C1794 1.368 . S
H1779 C1787 0.950 . S
H1780 C1785 0.950 . S
H1781 C1786 0.949 . S
H1782 C1788 0.950 . S
H1783 C1789 0.950 . S
H1784 C1790 0.949 . S
C1785 H1780 0.950 . S
C1785 C1787 1.327 . S
C1785 C1791 1.429 . S
C1786 C1778 1.574 . S
C1786 H1781 0.949 . S
C1786 C1792 1.368 . S
C1787 C1771 1.349 . S
C1787 H1779 0.950 . S
C1787 C1785 1.327 . S
C1788 C1776 1.349 . S
C1788 H1782 0.950 . S
C1788 C1789 1.327 . S
C1789 H1783 0.950 . S
C1789 C1788 1.327 . S
C1789 C1793 1.429 . S
C1790 C1773 1.574 . S
C1790 H1784 0.949 . S
C1790 C1794 1.368 . S
C1791 C1772 1.429 . S
C1791 C1785 1.429 . S
C1791 C1792 1.523 . S
C1792 C1773 1.368 . S
C1792 C1786 1.368 . S
C1792 C1791 1.523 . S
C1793 C1777 1.429 . S
C1793 C1789 1.429 . S
C1793 C1794 1.523 . S
C1794 C1778 1.368 . S
C1794 C1790 1.368 . S
C1794 C1793 1.523 . S
H1795 C1770 0.950 . S
H1796 C1772 0.950 . S
H1797 C1773 0.949 . S
H1798 C1775 0.950 . S
H1799 C1777 0.950 . S
C1800 C1801 1.349 . S
C1800 C1802 1.327 . S
C1800 H1825 0.950 . S
C1801 C1800 1.349 . S
C1801 C1817 1.349 . S
C1802 C1800 1.327 . S
C1802 C1821 1.429 . S
C1802 H1826 0.950 . S
C1803 C1820 1.574 . S
C1803 C1822 1.368 . S
C1803 H1827 0.949 . S
H1804 C1808 0.949 . S
C1805 C1806 1.349 . S
C1805 C1807 1.327 . S
C1805 H1828 0.950 1_455 S
C1806 C1805 1.349 . S
C1806 C1818 1.349 . S
C1807 C1805 1.327 . S
C1807 C1823 1.429 1_556 S
C1807 H1829 0.960 1_556 S
C1808 H1804 0.949 . S
C1808 C1816 1.574 . S
C1808 C1824 1.368 . S
H1809 C1817 0.950 . S
H1810 C1815 0.950 . S
H1811 C1816 0.949 . S
H1812 C1818 0.950 . S
H1813 C1819 0.950 1_554 S
H1814 C1820 0.949 . S
C1815 H1810 0.950 . S
C1815 C1817 1.327 . S
C1815 C1821 1.429 . S
C1816 C1808 1.574 . S
C1816 H1811 0.949 . S
C1816 C1822 1.368 . S
C1817 C1801 1.349 . S
C1817 H1809 0.950 . S
C1817 C1815 1.327 . S
C1818 C1806 1.349 . S
C1818 H1812 0.950 . S
C1818 C1819 1.327 . S
C1819 H1813 0.950 1_556 S
C1819 C1818 1.327 . S
C1819 C1823 1.429 1_556 S
C1820 C1803 1.574 . S
C1820 H1814 0.949 . S
C1820 C1824 1.368 . S
C1821 C1802 1.429 . S
C1821 C1815 1.429 . S
C1821 C1822 1.523 . S
C1822 C1803 1.368 . S
C1822 C1816 1.368 . S
C1822 C1821 1.523 . S
C1823 C1807 1.429 1_554 S
C1823 C1819 1.429 1_554 S
C1823 C1824 1.523 . S
C1824 C1808 1.368 . S
C1824 C1820 1.368 . S
C1824 C1823 1.523 . S
H1825 C1800 0.950 . S
H1826 C1802 0.950 . S
H1827 C1803 0.949 . S
H1828 C1805 0.950 1_655 S
H1829 C1807 0.960 1_554 S
C1830 C1831 1.349 . S
C1830 C1832 1.327 . S
C1830 H1855 0.950 . S
C1831 C1830 1.349 . S
C1831 C1847 1.349 . S
C1832 C1830 1.327 . S
C1832 C1851 1.429 . S
C1832 H1856 0.950 . S
C1833 C1850 1.574 . S
C1833 C1852 1.368 . S
C1833 H1857 0.949 . S
H1834 C1838 0.949 . S
C1835 C1836 1.349 . S
C1835 C1837 1.327 . S
C1835 H1858 0.950 . S
C1836 C1835 1.349 . S
C1836 C1848 1.349 . S
C1837 C1835 1.327 . S
C1837 C1853 1.429 1_556 S
C1837 H1859 0.950 1_556 S
C1838 H1834 0.949 . S
C1838 C1846 1.574 . S
C1838 C1854 1.368 . S
H1839 C1847 0.950 . S
H1840 C1845 0.950 . S
H1841 C1846 0.949 . S
H1842 C1848 0.950 . S
H1843 C1849 0.950 1_554 S
H1844 C1850 0.949 . S
C1845 H1840 0.950 . S
C1845 C1847 1.327 . S
C1845 C1851 1.429 . S
C1846 C1838 1.574 . S
C1846 H1841 0.949 . S
C1846 C1852 1.368 . S
C1847 C1831 1.349 . S
C1847 H1839 0.950 . S
C1847 C1845 1.327 . S
C1848 C1836 1.349 . S
C1848 H1842 0.950 . S
C1848 C1849 1.327 . S
C1849 H1843 0.950 1_556 S
C1849 C1848 1.327 . S
C1849 C1853 1.429 1_556 S
C1850 C1833 1.574 . S
C1850 H1844 0.949 . S
C1850 C1854 1.368 . S
C1851 C1832 1.429 . S
C1851 C1845 1.429 . S
C1851 C1852 1.523 . S
C1852 C1833 1.368 . S
C1852 C1846 1.368 . S
C1852 C1851 1.523 . S
C1853 C1837 1.429 1_554 S
C1853 C1849 1.429 1_554 S
C1853 C1854 1.523 . S
C1854 C1838 1.368 . S
C1854 C1850 1.368 . S
C1854 C1853 1.523 . S
H1855 C1830 0.950 . S
H1856 C1832 0.950 . S
H1857 C1833 0.949 . S
H1858 C1835 0.950 . S
H1859 C1837 0.950 1_554 S
C1860 C1861 1.349 . S
C1860 C1862 1.327 . S
C1860 H1885 0.950 1_545 S
C1861 C1860 1.349 . S
C1861 C1877 1.349 . S
C1862 C1860 1.327 . S
C1862 C1881 1.429 . S
C1862 H1886 0.950 1_545 S
C1863 C1880 1.574 . S
C1863 C1882 1.368 . S
C1863 H1887 0.949 . S
H1864 C1868 0.928 1_565 S
C1865 C1866 1.349 . S
C1865 C1867 1.327 . S
C1865 H1888 0.950 . S
C1866 C1865 1.349 . S
C1866 C1878 1.349 . S
C1867 C1865 1.327 . S
C1867 C1883 1.429 1_556 S
C1867 H1889 0.950 1_556 S
C1868 H1864 0.928 1_545 S
C1868 C1876 1.574 . S
C1868 C1884 1.368 . S
H1869 C1877 0.950 . S
H1870 C1875 0.950 . S
H1871 C1876 0.949 1_565 S
H1872 C1878 0.950 . S
H1873 C1879 1.002 . S
H1874 C1880 0.949 . S
C1875 H1870 0.950 . S
C1875 C1877 1.327 . S
C1875 C1881 1.429 . S
C1876 C1868 1.574 . S
C1876 H1871 0.949 1_545 S
C1876 C1882 1.368 . S
C1877 C1861 1.349 . S
C1877 H1869 0.950 . S
C1877 C1875 1.327 . S
C1878 C1866 1.349 . S
C1878 H1872 0.950 . S
C1878 C1879 1.327 . S
C1879 H1873 1.002 . S
C1879 C1878 1.327 . S
C1879 C1883 1.429 1_556 S
C1880 C1863 1.574 . S
C1880 H1874 0.949 . S
C1880 C1884 1.368 . S
C1881 C1862 1.429 . S
C1881 C1875 1.429 . S
C1881 C1882 1.523 . S
C1882 C1863 1.368 . S
C1882 C1876 1.368 . S
C1882 C1881 1.523 . S
C1883 C1867 1.429 1_554 S
C1883 C1879 1.429 1_554 S
C1883 C1884 1.523 . S
C1884 C1868 1.368 . S
C1884 C1880 1.368 . S
C1884 C1883 1.523 . S
H1885 C1860 0.950 1_565 S
H1886 C1862 0.950 1_565 S
H1887 C1863 0.949 . S
H1888 C1865 0.950 . S
H1889 C1867 0.950 1_554 S
C1890 C1891 1.349 . S
C1890 C1892 1.327 . S
C1890 H1915 0.950 . S
C1891 C1890 1.349 . S
C1891 C1907 1.349 . S
C1892 C1890 1.327 . S
C1892 C1911 1.429 . S
C1892 H1916 0.950 . S
C1893 C1910 1.574 . S
C1893 C1912 1.368 . S
C1893 H1917 0.949 . S
H1894 C1898 0.949 . S
C1895 C1896 1.349 . S
C1895 C1897 1.327 . S
C1895 H1918 0.950 . S
C1896 C1895 1.349 . S
C1896 C1908 1.349 . S
C1897 C1895 1.327 . S
C1897 C1913 1.429 1_554 S
C1897 H1919 0.950 1_554 S
C1898 H1894 0.949 . S
C1898 C1906 1.574 . S
C1898 C1914 1.368 . S
H1899 C1907 0.950 . S
H1900 C1905 0.950 . S
H1901 C1906 0.949 . S
H1902 C1908 0.950 . S
H1903 C1909 0.950 1_556 S
H1904 C1910 0.949 . S
C1905 H1900 0.950 . S
C1905 C1907 1.327 . S
C1905 C1911 1.429 . S
C1906 C1898 1.574 . S
C1906 H1901 0.949 . S
C1906 C1912 1.368 . S
C1907 C1891 1.349 . S
C1907 H1899 0.950 . S
C1907 C1905 1.327 . S
C1908 C1896 1.349 . S
C1908 H1902 0.950 . S
C1908 C1909 1.327 . S
C1909 H1903 0.950 1_554 S
C1909 C1908 1.327 . S
C1909 C1913 1.429 1_554 S
C1910 C1893 1.574 . S
C1910 H1904 0.949 . S
C1910 C1914 1.368 . S
C1911 C1892 1.429 . S
C1911 C1905 1.429 . S
C1911 C1912 1.523 . S
C1912 C1893 1.368 . S
C1912 C1906 1.368 . S
C1912 C1911 1.523 . S
C1913 C1897 1.429 1_556 S
C1913 C1909 1.429 1_556 S
C1913 C1914 1.523 . S
C1914 C1898 1.368 . S
C1914 C1910 1.368 . S
C1914 C1913 1.523 . S
H1915 C1890 0.950 . S
H1916 C1892 0.950 . S
H1917 C1893 0.949 . S
H1918 C1895 0.950 . S
H1919 C1897 0.950 1_556 S
C1920 C1921 1.349 . S
C1920 C1922 1.327 . S
C1920 H1945 0.950 . S
C1921 C1920 1.349 . S
C1921 C1937 1.349 . S
C1922 C1920 1.327 . S
C1922 C1941 1.429 1_554 S
C1922 H1946 0.950 1_554 S
C1923 C1940 1.574 . S
C1923 C1942 1.368 . S
C1923 H1947 0.949 . S
H1924 C1928 0.949 . S
C1925 C1926 1.349 . S
C1925 C1927 1.327 . S
C1925 H1948 0.950 . S
C1926 C1925 1.349 . S
C1926 C1938 1.349 . S
C1927 C1925 1.327 . S
C1927 C1943 1.429 . S
C1927 H1949 0.950 . S
C1928 H1924 0.949 . S
C1928 C1936 1.574 . S
C1928 C1944 1.368 . S
H1929 C1937 0.950 . S
H1930 C1935 0.950 1_556 S
H1931 C1936 0.949 . S
H1932 C1938 0.950 . S
H1933 C1939 0.950 . S
H1934 C1940 0.949 . S
C1935 H1930 0.950 1_554 S
C1935 C1937 1.327 . S
C1935 C1941 1.429 1_554 S
C1936 C1928 1.574 . S
C1936 H1931 0.949 . S
C1936 C1942 1.368 . S
C1937 C1921 1.349 . S
C1937 H1929 0.950 . S
C1937 C1935 1.327 . S
C1938 C1926 1.349 . S
C1938 H1932 0.950 . S
C1938 C1939 1.327 . S
C1939 H1933 0.950 . S
C1939 C1938 1.327 . S
C1939 C1943 1.429 . S
C1940 C1923 1.574 . S
C1940 H1934 0.949 . S
C1940 C1944 1.368 . S
C1941 C1922 1.429 1_556 S
C1941 C1935 1.429 1_556 S
C1941 C1942 1.523 . S
C1942 C1923 1.368 . S
C1942 C1936 1.368 . S
C1942 C1941 1.523 . S
C1943 C1927 1.429 . S
C1943 C1939 1.429 . S
C1943 C1944 1.523 . S
C1944 C1928 1.368 . S
C1944 C1940 1.368 . S
C1944 C1943 1.523 . S
H1945 C1920 0.950 . S
H1946 C1922 0.950 1_556 S
H1947 C1923 0.949 . S
H1948 C1925 0.950 . S
H1949 C1927 0.950 . S
C1950 C1951 1.349 . S
C1950 C1952 1.327 . S
C1950 H1975 0.950 . S
C1951 C1950 1.349 . S
C1951 C1967 1.349 . S
C1952 C1950 1.327 . S
C1952 C1971 1.429 1_554 S
C1952 H1976 0.957 . S
C1953 C1970 1.574 . S
C1953 C1972 1.368 . S
C1953 H1977 0.949 . S
H1954 C1958 0.949 . S
C1955 C1956 1.349 . S
C1955 C1957 1.327 . S
C1955 H1978 0.950 . S
C1956 C1955 1.349 . S
C1956 C1968 1.349 . S
C1957 C1955 1.327 . S
C1957 C1973 1.429 . S
C1957 H1979 0.950 . S
C1958 H1954 0.949 . S
C1958 C1966 1.574 . S
C1958 C1974 1.368 . S
H1959 C1967 0.950 . S
H1960 C1965 0.950 1_556 S
H1961 C1966 0.949 . S
H1962 C1968 0.950 . S
H1963 C1969 0.950 . S
H1964 C1970 0.949 . S
C1965 H1960 0.950 1_554 S
C1965 C1967 1.327 . S
C1965 C1971 1.429 1_554 S
C1966 C1958 1.574 . S
C1966 H1961 0.949 . S
C1966 C1972 1.368 . S
C1967 C1951 1.349 . S
C1967 H1959 0.950 . S
C1967 C1965 1.327 . S
C1968 C1956 1.349 . S
C1968 H1962 0.950 . S
C1968 C1969 1.327 . S
C1969 H1963 0.950 . S
C1969 C1968 1.327 . S
C1969 C1973 1.429 . S
C1970 C1953 1.574 . S
C1970 H1964 0.949 . S
C1970 C1974 1.368 . S
C1971 C1952 1.429 1_556 S
C1971 C1965 1.429 1_556 S
C1971 C1972 1.523 . S
C1972 C1953 1.368 . S
C1972 C1966 1.368 . S
C1972 C1971 1.523 . S
C1973 C1957 1.429 . S
C1973 C1969 1.429 . S
C1973 C1974 1.523 . S
C1974 C1958 1.368 . S
C1974 C1970 1.368 . S
C1974 C1973 1.523 . S
H1975 C1950 0.950 . S
H1976 C1952 0.957 . S
H1977 C1953 0.949 . S
H1978 C1955 0.950 . S
H1979 C1957 0.950 . S
C1980 C1981 1.349 . S
C1980 C1982 1.327 . S
C1980 H2005 0.950 . S
C1981 C1980 1.349 . S
C1981 C1997 1.349 . S
C1982 C1980 1.327 . S
C1982 C2001 1.429 . S
C1982 H2006 0.950 . S
C1983 C2000 1.574 . S
C1983 C2002 1.368 . S
C1983 H2007 0.949 . S
H1984 C1988 0.949 . S
C1985 C1986 1.349 . S
C1985 C1987 1.327 . S
C1985 H2008 0.950 . S
C1986 C1985 1.349 . S
C1986 C1998 1.349 . S
C1987 C1985 1.327 . S
C1987 C2003 1.429 . S
C1987 H2009 0.950 . S
C1988 H1984 0.949 . S
C1988 C1996 1.574 . S
C1988 C2004 1.368 . S
H1989 C1997 0.950 . S
H1990 C1995 0.950 . S
H1991 C1996 0.949 . S
H1992 C1998 0.950 . S
H1993 C1999 0.950 . S
H1994 C2000 0.949 . S
C1995 H1990 0.950 . S
C1995 C1997 1.327 . S
C1995 C2001 1.429 . S
C1996 C1988 1.574 . S
C1996 H1991 0.949 . S
C1996 C2002 1.368 . S
C1997 C1981 1.349 . S
C1997 H1989 0.950 . S
C1997 C1995 1.327 . S
C1998 C1986 1.349 . S
C1998 H1992 0.950 . S
C1998 C1999 1.327 . S
C1999 H1993 0.950 . S
C1999 C1998 1.327 . S
C1999 C2003 1.429 . S
C2000 C1983 1.574 . S
C2000 H1994 0.949 . S
C2000 C2004 1.368 . S
C2001 C1982 1.429 . S
C2001 C1995 1.429 . S
C2001 C2002 1.523 . S
C2002 C1983 1.368 . S
C2002 C1996 1.368 . S
C2002 C2001 1.523 . S
C2003 C1987 1.429 . S
C2003 C1999 1.429 . S
C2003 C2004 1.523 . S
C2004 C1988 1.368 . S
C2004 C2000 1.368 . S
C2004 C2003 1.523 . S
H2005 C1980 0.950 . S
H2006 C1982 0.950 . S
H2007 C1983 0.949 . S
H2008 C1985 0.950 . S
H2009 C1987 0.950 . S
C2010 C2011 1.349 . S
C2010 C2012 1.327 . S
C2010 H2035 0.950 . S
C2011 C2010 1.349 . S
C2011 C2027 1.349 . S
C2012 C2010 1.327 . S
C2012 C2031 1.429 . S
C2012 H2036 0.950 . S
C2013 C2030 1.574 . S
C2013 C2032 1.368 . S
C2013 H2037 0.949 . S
H2014 C2018 0.949 . S
C2015 C2016 1.349 . S
C2015 C2017 1.327 . S
C2015 H2038 0.950 . S
C2016 C2015 1.349 . S
C2016 C2028 1.349 . S
C2017 C2015 1.327 . S
C2017 C2033 1.429 . S
C2017 H2039 0.950 . S
C2018 H2014 0.949 . S
C2018 C2026 1.574 . S
C2018 C2034 1.368 . S
H2019 C2027 0.950 . S
H2020 C2025 0.950 . S
H2021 C2026 0.949 . S
H2022 C2028 0.950 . S
H2023 C2029 0.950 . S
H2024 C2030 0.949 . S
C2025 H2020 0.950 . S
C2025 C2027 1.327 . S
C2025 C2031 1.429 . S
C2026 C2018 1.574 . S
C2026 H2021 0.949 . S
C2026 C2032 1.368 . S
C2027 C2011 1.349 . S
C2027 H2019 0.950 . S
C2027 C2025 1.327 . S
C2028 C2016 1.349 . S
C2028 H2022 0.950 . S
C2028 C2029 1.327 . S
C2029 H2023 0.950 . S
C2029 C2028 1.327 . S
C2029 C2033 1.429 . S
C2030 C2013 1.574 . S
C2030 H2024 0.949 . S
C2030 C2034 1.368 . S
C2031 C2012 1.429 . S
C2031 C2025 1.429 . S
C2031 C2032 1.523 . S
C2032 C2013 1.368 . S
C2032 C2026 1.368 . S
C2032 C2031 1.523 . S
C2033 C2017 1.429 . S
C2033 C2029 1.429 . S
C2033 C2034 1.523 . S
C2034 C2018 1.368 . S
C2034 C2030 1.368 . S
C2034 C2033 1.523 . S
H2035 C2010 0.950 . S
H2036 C2012 0.950 . S
H2037 C2013 0.949 . S
H2038 C2015 0.950 . S
H2039 C2017 0.950 . S
C2040 C2041 1.349 . S
C2040 C2042 1.327 . S
C2040 H2065 0.950 . S
C2041 C2040 1.349 . S
C2041 C2057 1.349 . S
C2042 C2040 1.327 . S
C2042 C2061 1.429 . S
C2042 H2066 0.950 . S
C2043 C2060 1.574 . S
C2043 C2062 1.368 . S
C2043 H2067 0.949 . S
H2044 C2048 0.949 . S
C2045 C2046 1.349 . S
C2045 C2047 1.327 . S
C2045 H2068 0.950 . S
C2046 C2045 1.349 . S
C2046 C2058 1.349 . S
C2047 C2045 1.327 . S
C2047 C2063 1.429 . S
C2047 H2069 0.950 . S
C2048 H2044 0.949 . S
C2048 C2056 1.574 . S
C2048 C2064 1.368 . S
H2049 C2057 0.950 . S
H2050 C2055 0.950 . S
H2051 C2056 0.949 . S
H2052 C2058 0.950 . S
H2053 C2059 0.950 . S
H2054 C2060 0.949 . S
C2055 H2050 0.950 . S
C2055 C2057 1.327 . S
C2055 C2061 1.429 . S
C2056 C2048 1.574 . S
C2056 H2051 0.949 . S
C2056 C2062 1.368 . S
C2057 C2041 1.349 . S
C2057 H2049 0.950 . S
C2057 C2055 1.327 . S
C2058 C2046 1.349 . S
C2058 H2052 0.950 . S
C2058 C2059 1.327 . S
C2059 H2053 0.950 . S
C2059 C2058 1.327 . S
C2059 C2063 1.429 . S
C2060 C2043 1.574 . S
C2060 H2054 0.949 . S
C2060 C2064 1.368 . S
C2061 C2042 1.429 . S
C2061 C2055 1.429 . S
C2061 C2062 1.523 . S
C2062 C2043 1.368 . S
C2062 C2056 1.368 . S
C2062 C2061 1.523 . S
C2063 C2047 1.429 . S
C2063 C2059 1.429 . S
C2063 C2064 1.523 . S
C2064 C2048 1.368 . S
C2064 C2060 1.368 . S
C2064 C2063 1.523 . S
H2065 C2040 0.950 . S
H2066 C2042 0.950 . S
H2067 C2043 0.949 . S
H2068 C2045 0.950 . S
H2069 C2047 0.950 . S
C2070 C2071 1.349 . S
C2070 C2072 1.327 . S
C2070 H2095 0.950 . S
C2071 C2070 1.349 . S
C2071 C2087 1.349 . S
C2072 C2070 1.327 . S
C2072 C2091 1.429 1_556 S
C2072 H2096 0.950 1_556 S
C2073 C2090 1.574 . S
C2073 C2092 1.368 . S
C2073 H2097 0.949 . S
H2074 C2078 0.949 . S
C2075 C2076 1.349 . S
C2075 C2077 1.327 . S
C2075 H2098 0.950 . S
C2076 C2075 1.349 . S
C2076 C2088 1.349 . S
C2077 C2075 1.327 . S
C2077 C2093 1.429 . S
C2077 H2099 0.950 . S
C2078 H2074 0.949 . S
C2078 C2086 1.574 . S
C2078 C2094 1.368 . S
H2079 C2087 0.950 . S
H2080 C2085 0.950 1_554 S
H2081 C2086 0.949 . S
H2082 C2088 0.950 . S
H2083 C2089 0.950 . S
H2084 C2090 0.949 . S
C2085 H2080 0.950 1_556 S
C2085 C2087 1.327 . S
C2085 C2091 1.429 1_556 S
C2086 C2078 1.574 . S
C2086 H2081 0.949 . S
C2086 C2092 1.368 . S
C2087 C2071 1.349 . S
C2087 H2079 0.950 . S
C2087 C2085 1.327 . S
C2088 C2076 1.349 . S
C2088 H2082 0.950 . S
C2088 C2089 1.327 . S
C2089 H2083 0.950 . S
C2089 C2088 1.327 . S
C2089 C2093 1.429 . S
C2090 C2073 1.574 . S
C2090 H2084 0.949 . S
C2090 C2094 1.368 . S
C2091 C2072 1.429 1_554 S
C2091 C2085 1.429 1_554 S
C2091 C2092 1.523 . S
C2092 C2073 1.368 . S
C2092 C2086 1.368 . S
C2092 C2091 1.523 . S
C2093 C2077 1.429 . S
C2093 C2089 1.429 . S
C2093 C2094 1.523 . S
C2094 C2078 1.368 . S
C2094 C2090 1.368 . S
C2094 C2093 1.523 . S
H2095 C2070 0.950 . S
H2096 C2072 0.950 1_554 S
H2097 C2073 0.949 . S
H2098 C2075 0.950 . S
H2099 C2077 0.950 . S
C2100 C2101 1.349 . S
C2100 C2102 1.327 . S
C2100 H2125 0.950 . S
C2101 C2100 1.349 . S
C2101 C2117 1.349 . S
C2102 C2100 1.327 . S
C2102 C2121 1.429 1_556 S
C2102 H2126 0.950 1_556 S
C2103 C2120 1.574 . S
C2103 C2122 1.368 . S
C2103 H2127 0.949 . S
H2104 C2108 0.949 . S
C2105 C2106 1.349 . S
C2105 C2107 1.327 . S
C2105 H2128 0.950 . S
C2106 C2105 1.349 . S
C2106 C2118 1.349 . S
C2107 C2105 1.327 . S
C2107 C2123 1.429 . S
C2107 H2129 0.950 . S
C2108 H2104 0.949 . S
C2108 C2116 1.574 . S
C2108 C2124 1.368 . S
H2109 C2117 0.950 . S
H2110 C2115 0.950 1_554 S
H2111 C2116 0.949 . S
H2112 C2118 0.950 . S
H2113 C2119 0.950 . S
H2114 C2120 0.949 . S
C2115 H2110 0.950 1_556 S
C2115 C2117 1.327 . S
C2115 C2121 1.429 1_556 S
C2116 C2108 1.574 . S
C2116 H2111 0.949 . S
C2116 C2122 1.368 . S
C2117 C2101 1.349 . S
C2117 H2109 0.950 . S
C2117 C2115 1.327 . S
C2118 C2106 1.349 . S
C2118 H2112 0.950 . S
C2118 C2119 1.327 . S
C2119 H2113 0.950 . S
C2119 C2118 1.327 . S
C2119 C2123 1.429 . S
C2120 C2103 1.574 . S
C2120 H2114 0.949 . S
C2120 C2124 1.368 . S
C2121 C2102 1.429 1_554 S
C2121 C2115 1.429 1_554 S
C2121 C2122 1.523 . S
C2122 C2103 1.368 . S
C2122 C2116 1.368 . S
C2122 C2121 1.523 . S
C2123 C2107 1.429 . S
C2123 C2119 1.429 . S
C2123 C2124 1.523 . S
C2124 C2108 1.368 . S
C2124 C2120 1.368 . S
C2124 C2123 1.523 . S
H2125 C2100 0.950 . S
H2126 C2102 0.950 1_554 S
H2127 C2103 0.949 . S
H2128 C2105 0.950 . S
H2129 C2107 0.950 . S
C2130 C2131 1.349 . S
C2130 C2132 1.327 . S
C2130 H2155 0.950 . S
C2131 C2130 1.349 . S
C2131 C2147 1.349 . S
C2132 C2130 1.327 . S
C2132 C2151 1.429 1_556 S
C2132 H2156 0.950 1_556 S
C2133 C2150 1.574 . S
C2133 C2152 1.368 . S
C2133 H2157 0.949 . S
H2134 C2138 0.949 . S
C2135 C2136 1.349 . S
C2135 C2137 1.327 . S
C2135 H2158 0.950 . S
C2136 C2135 1.349 . S
C2136 C2148 1.349 . S
C2137 C2135 1.327 . S
C2137 C2153 1.429 . S
C2137 H2159 0.950 . S
C2138 H2134 0.949 . S
C2138 C2146 1.574 . S
C2138 C2154 1.368 . S
H2139 C2147 0.950 . S
H2140 C2145 0.950 1_554 S
H2141 C2146 0.949 . S
H2142 C2148 0.950 . S
H2143 C2149 0.950 . S
H2144 C2150 0.949 . S
C2145 H2140 0.950 1_556 S
C2145 C2147 1.327 . S
C2145 C2151 1.429 1_556 S
C2146 C2138 1.574 . S
C2146 H2141 0.949 . S
C2146 C2152 1.368 . S
C2147 C2131 1.349 . S
C2147 H2139 0.950 . S
C2147 C2145 1.327 . S
C2148 C2136 1.349 . S
C2148 H2142 0.950 . S
C2148 C2149 1.327 . S
C2149 H2143 0.950 . S
C2149 C2148 1.327 . S
C2149 C2153 1.429 . S
C2150 C2133 1.574 . S
C2150 H2144 0.949 . S
C2150 C2154 1.368 . S
C2151 C2132 1.429 1_554 S
C2151 C2145 1.429 1_554 S
C2151 C2152 1.523 . S
C2152 C2133 1.368 . S
C2152 C2146 1.368 . S
C2152 C2151 1.523 . S
C2153 C2137 1.429 . S
C2153 C2149 1.429 . S
C2153 C2154 1.523 . S
C2154 C2138 1.368 . S
C2154 C2150 1.368 . S
C2154 C2153 1.523 . S
H2155 C2130 0.950 . S
H2156 C2132 0.950 1_554 S
H2157 C2133 0.949 . S
H2158 C2135 0.950 . S
H2159 C2137 0.950 . S
C2160 C2161 1.349 . S
C2160 C2162 1.327 . S
C2160 H2185 0.950 . S
C2161 C2160 1.349 . S
C2161 C2177 1.349 . S
C2162 C2160 1.327 . S
C2162 C2181 1.429 . S
C2162 H2186 0.950 . S
C2163 C2180 1.574 . S
C2163 C2182 1.368 . S
C2163 H2187 0.949 . S
H2164 C2168 0.949 . S
C2165 C2166 1.349 . S
C2165 C2167 1.327 . S
C2165 H2188 0.950 . S
C2166 C2165 1.349 . S
C2166 C2178 1.349 . S
C2167 C2165 1.327 . S
C2167 C2183 1.429 1_554 S
C2167 H2189 0.950 1_554 S
C2168 H2164 0.949 . S
C2168 C2176 1.574 . S
C2168 C2184 1.368 . S
H2169 C2177 0.950 . S
H2170 C2175 0.950 . S
H2171 C2176 0.949 . S
H2172 C2178 0.950 . S
H2173 C2179 0.950 1_556 S
H2174 C2180 0.949 . S
C2175 H2170 0.950 . S
C2175 C2177 1.327 . S
C2175 C2181 1.429 . S
C2176 C2168 1.574 . S
C2176 H2171 0.949 . S
C2176 C2182 1.368 . S
C2177 C2161 1.349 . S
C2177 H2169 0.950 . S
C2177 C2175 1.327 . S
C2178 C2166 1.349 . S
C2178 H2172 0.950 . S
C2178 C2179 1.327 . S
C2179 H2173 0.950 1_554 S
C2179 C2178 1.327 . S
C2179 C2183 1.429 1_554 S
C2180 C2163 1.574 . S
C2180 H2174 0.949 . S
C2180 C2184 1.368 . S
C2181 C2162 1.429 . S
C2181 C2175 1.429 . S
C2181 C2182 1.523 . S
C2182 C2163 1.368 . S
C2182 C2176 1.368 . S
C2182 C2181 1.523 . S
C2183 C2167 1.429 1_556 S
C2183 C2179 1.429 1_556 S
C2183 C2184 1.523 . S
C2184 C2168 1.368 . S
C2184 C2180 1.368 . S
C2184 C2183 1.523 . S
H2185 C2160 0.950 . S
H2186 C2162 0.950 . S
H2187 C2163 0.949 . S
H2188 C2165 0.950 . S
H2189 C2167 0.950 1_556 S
C2190 C2191 1.349 . S
C2190 C2192 1.327 . S
C2190 H2215 0.950 . S
C2191 C2190 1.349 . S
C2191 C2207 1.349 . S
C2192 C2190 1.327 . S
C2192 C2211 1.429 1_554 S
C2192 H2216 0.950 1_554 S
C2193 C2210 1.574 . S
C2193 C2212 1.368 . S
C2193 H2217 0.949 . S
H2194 C2198 0.949 . S
C2195 C2196 1.349 . S
C2195 C2197 1.327 . S
C2195 H2218 0.950 . S
C2196 C2195 1.349 . S
C2196 C2208 1.349 . S
C2197 C2195 1.327 . S
C2197 C2213 1.429 . S
C2197 H2219 0.950 . S
C2198 H2194 0.949 . S
C2198 C2206 1.574 . S
C2198 C2214 1.368 . S
H2199 C2207 0.950 . S
H2200 C2205 0.950 1_556 S
H2201 C2206 0.949 . S
H2202 C2208 0.950 . S
H2203 C2209 0.950 . S
H2204 C2210 0.949 . S
C2205 H2200 0.950 1_554 S
C2205 C2207 1.327 . S
C2205 C2211 1.429 1_554 S
C2206 C2198 1.574 . S
C2206 H2201 0.949 . S
C2206 C2212 1.368 . S
C2207 C2191 1.349 . S
C2207 H2199 0.950 . S
C2207 C2205 1.327 . S
C2208 C2196 1.349 . S
C2208 H2202 0.950 . S
C2208 C2209 1.327 . S
C2209 H2203 0.950 . S
C2209 C2208 1.327 . S
C2209 C2213 1.429 . S
C2210 C2193 1.574 . S
C2210 H2204 0.949 . S
C2210 C2214 1.368 . S
C2211 C2192 1.429 1_556 S
C2211 C2205 1.429 1_556 S
C2211 C2212 1.523 . S
C2212 C2193 1.368 . S
C2212 C2206 1.368 . S
C2212 C2211 1.523 . S
C2213 C2197 1.429 . S
C2213 C2209 1.429 . S
C2213 C2214 1.523 . S
C2214 C2198 1.368 . S
C2214 C2210 1.368 . S
C2214 C2213 1.523 . S
H2215 C2190 0.950 . S
H2216 C2192 0.950 1_556 S
H2217 C2193 0.949 . S
H2218 C2195 0.950 . S
H2219 C2197 0.950 . S
C2220 C2221 1.349 . S
C2220 C2222 1.327 . S
C2220 H2245 0.950 . S
C2221 C2220 1.349 . S
C2221 C2237 1.349 . S
C2222 C2220 1.327 . S
C2222 C2241 1.429 1_554 S
C2222 H2246 0.950 1_554 S
C2223 C2240 1.574 . S
C2223 C2242 1.368 . S
C2223 H2247 0.949 . S
H2224 C2228 0.949 . S
C2225 C2226 1.349 . S
C2225 C2227 1.327 . S
C2225 H2248 0.950 . S
C2226 C2225 1.349 . S
C2226 C2238 1.349 . S
C2227 C2225 1.327 . S
C2227 C2243 1.429 . S
C2227 H2249 0.950 . S
C2228 H2224 0.949 . S
C2228 C2236 1.574 . S
C2228 C2244 1.368 . S
H2229 C2237 0.950 . S
H2230 C2235 0.941 1_556 S
H2231 C2236 0.949 . S
H2232 C2238 0.950 . S
H2233 C2239 0.950 . S
H2234 C2240 0.949 . S
C2235 H2230 0.941 1_554 S
C2235 C2237 1.342 . S
C2235 C2241 1.422 1_554 S
C2236 C2228 1.574 . S
C2236 H2231 0.949 . S
C2236 C2242 1.368 . S
C2237 C2221 1.349 . S
C2237 H2229 0.950 . S
C2237 C2235 1.342 . S
C2238 C2226 1.349 . S
C2238 H2232 0.950 . S
C2238 C2239 1.327 . S
C2239 H2233 0.950 . S
C2239 C2238 1.327 . S
C2239 C2243 1.429 . S
C2240 C2223 1.574 . S
C2240 H2234 0.949 . S
C2240 C2244 1.368 . S
C2241 C2222 1.429 1_556 S
C2241 C2235 1.422 1_556 S
C2241 C2242 1.523 . S
C2242 C2223 1.368 . S
C2242 C2236 1.368 . S
C2242 C2241 1.523 . S
C2243 C2227 1.429 . S
C2243 C2239 1.429 . S
C2243 C2244 1.523 . S
C2244 C2228 1.368 . S
C2244 C2240 1.368 . S
C2244 C2243 1.523 . S
H2245 C2220 0.950 . S
H2246 C2222 0.950 1_556 S
H2247 C2223 0.949 . S
H2248 C2225 0.950 . S
H2249 C2227 0.950 . S
C2250 C2251 1.349 . S
C2250 C2252 1.327 . S
C2250 H2275 0.950 . S
C2251 C2250 1.349 . S
C2251 C2267 1.349 . S
C2252 C2250 1.327 . S
C2252 C2271 1.429 . S
C2252 H2276 0.950 . S
C2253 C2270 1.574 . S
C2253 C2272 1.368 . S
C2253 H2277 0.949 . S
H2254 C2258 0.949 . S
C2255 C2256 1.349 . S
C2255 C2257 1.327 . S
C2255 H2278 0.950 . S
C2256 C2255 1.349 . S
C2256 C2268 1.349 . S
C2257 C2255 1.327 . S
C2257 C2273 1.429 . S
C2257 H2279 0.950 . S
C2258 H2254 0.949 . S
C2258 C2266 1.574 . S
C2258 C2274 1.368 . S
H2259 C2267 0.950 . S
H2260 C2265 0.950 . S
H2261 C2266 0.949 . S
H2262 C2268 0.950 . S
H2263 C2269 0.950 . S
H2264 C2270 0.949 . S
C2265 H2260 0.950 . S
C2265 C2267 1.327 . S
C2265 C2271 1.429 . S
C2266 C2258 1.574 . S
C2266 H2261 0.949 . S
C2266 C2272 1.368 . S
C2267 C2251 1.349 . S
C2267 H2259 0.950 . S
C2267 C2265 1.327 . S
C2268 C2256 1.349 . S
C2268 H2262 0.950 . S
C2268 C2269 1.327 . S
C2269 H2263 0.950 . S
C2269 C2268 1.327 . S
C2269 C2273 1.429 . S
C2270 C2253 1.574 . S
C2270 H2264 0.949 . S
C2270 C2274 1.368 . S
C2271 C2252 1.429 . S
C2271 C2265 1.429 . S
C2271 C2272 1.523 . S
C2272 C2253 1.368 . S
C2272 C2266 1.368 . S
C2272 C2271 1.523 . S
C2273 C2257 1.429 . S
C2273 C2269 1.429 . S
C2273 C2274 1.523 . S
C2274 C2258 1.368 . S
C2274 C2270 1.368 . S
C2274 C2273 1.523 . S
H2275 C2250 0.950 . S
H2276 C2252 0.950 . S
H2277 C2253 0.949 . S
H2278 C2255 0.950 . S
H2279 C2257 0.950 . S
C2280 C2281 1.349 . S
C2280 C2282 1.327 . S
C2280 H2305 0.950 . S
C2281 C2280 1.349 . S
C2281 C2297 1.349 . S
C2282 C2280 1.327 . S
C2282 C2301 1.429 . S
C2282 H2306 0.950 . S
C2283 C2300 1.574 . S
C2283 C2302 1.368 . S
C2283 H2307 0.949 . S
H2284 C2288 0.949 . S
C2285 C2286 1.349 . S
C2285 C2287 1.327 . S
C2285 H2308 0.950 . S
C2286 C2285 1.349 . S
C2286 C2298 1.349 . S
C2287 C2285 1.327 . S
C2287 C2303 1.429 . S
C2287 H2309 0.950 . S
C2288 H2284 0.949 . S
C2288 C2296 1.574 . S
C2288 C2304 1.368 . S
H2289 C2297 0.950 . S
H2290 C2295 0.950 . S
H2291 C2296 0.949 . S
H2292 C2298 0.950 . S
H2293 C2299 0.950 . S
H2294 C2300 0.949 . S
C2295 H2290 0.950 . S
C2295 C2297 1.327 . S
C2295 C2301 1.429 . S
C2296 C2288 1.574 . S
C2296 H2291 0.949 . S
C2296 C2302 1.368 . S
C2297 C2281 1.349 . S
C2297 H2289 0.950 . S
C2297 C2295 1.327 . S
C2298 C2286 1.349 . S
C2298 H2292 0.950 . S
C2298 C2299 1.327 . S
C2299 H2293 0.950 . S
C2299 C2298 1.327 . S
C2299 C2303 1.429 . S
C2300 C2283 1.574 . S
C2300 H2294 0.949 . S
C2300 C2304 1.368 . S
C2301 C2282 1.429 . S
C2301 C2295 1.429 . S
C2301 C2302 1.523 . S
C2302 C2283 1.368 . S
C2302 C2296 1.368 . S
C2302 C2301 1.523 . S
C2303 C2287 1.429 . S
C2303 C2299 1.429 . S
C2303 C2304 1.523 . S
C2304 C2288 1.368 . S
C2304 C2300 1.368 . S
C2304 C2303 1.523 . S
H2305 C2280 0.950 . S
H2306 C2282 0.950 . S
H2307 C2283 0.949 . S
H2308 C2285 0.950 . S
H2309 C2287 0.950 . S
C2310 C2311 1.349 . S
C2310 C2312 1.327 . S
C2310 H2335 0.950 . S
C2311 C2310 1.349 . S
C2311 C2327 1.349 . S
C2312 C2310 1.327 . S
C2312 C2331 1.429 . S
C2312 H2336 0.950 . S
C2313 C2330 1.574 . S
C2313 C2332 1.368 . S
C2313 H2337 0.949 . S
H2314 C2318 0.949 . S
C2315 C2316 1.349 . S
C2315 C2317 1.327 . S
C2315 H2338 0.950 . S
C2316 C2315 1.349 . S
C2316 C2328 1.349 . S
C2317 C2315 1.327 . S
C2317 C2333 1.429 . S
C2317 H2339 0.950 . S
C2318 H2314 0.949 . S
C2318 C2326 1.574 . S
C2318 C2334 1.368 . S
H2319 C2327 0.950 . S
H2320 C2325 0.950 . S
H2321 C2326 0.949 . S
H2322 C2328 0.950 . S
H2323 C2329 0.950 . S
H2324 C2330 0.949 . S
C2325 H2320 0.950 . S
C2325 C2327 1.327 . S
C2325 C2331 1.429 . S
C2326 C2318 1.574 . S
C2326 H2321 0.949 . S
C2326 C2332 1.368 . S
C2327 C2311 1.349 . S
C2327 H2319 0.950 . S
C2327 C2325 1.327 . S
C2328 C2316 1.349 . S
C2328 H2322 0.950 . S
C2328 C2329 1.327 . S
C2329 H2323 0.950 . S
C2329 C2328 1.327 . S
C2329 C2333 1.429 . S
C2330 C2313 1.574 . S
C2330 H2324 0.949 . S
C2330 C2334 1.368 . S
C2331 C2312 1.429 . S
C2331 C2325 1.429 . S
C2331 C2332 1.523 . S
C2332 C2313 1.368 . S
C2332 C2326 1.368 . S
C2332 C2331 1.523 . S
C2333 C2317 1.429 . S
C2333 C2329 1.429 . S
C2333 C2334 1.523 . S
C2334 C2318 1.368 . S
C2334 C2330 1.368 . S
C2334 C2333 1.523 . S
H2335 C2310 0.950 . S
H2336 C2312 0.950 . S
H2337 C2313 0.949 . S
H2338 C2315 0.950 . S
H2339 C2317 0.950 . S
C721 C535 1.665 . S
C726 C18 1.622 . S
C751 C58 1.622 . S
C756 C575 1.665 . S
C781 C98 1.652 . S
C786 C495 1.665 . S
C811 C95 1.665 . S
C816 C298 1.622 . S
C841 C338 1.622 . S
C846 C15 1.665 . S
C871 C55 1.665 . S
C876 C258 1.622 . S
C901 C129 1.618 1_655 S
C906 C406 1.665 . S
C931 C169 1.622 . S
C936 C446 1.665 . S
C961 C366 1.665 . S
C966 C209 1.622 . S
C991 C649 1.622 . S
C996 C206 1.665 . S
C1021 C126 1.665 . S
C1026 C689 1.622 . S
C1051 C609 1.622 . S
C1056 C166 1.665 . S
C1081 C335 1.665 . S
C1086 C538 1.622 . S
C1111 C255 1.665 . S
C1116 C578 1.622 . S
C1141 C295 1.665 . S
C1146 C498 1.622 . S
C1171 C369 1.622 . S
C1176 C646 1.665 . S
C1201 C686 1.665 . S
C1206 C409 1.622 . S
C1231 C606 1.664 . S
C1236 C449 1.622 . S
C1261 C6 1.874 . S
C1266 C178 1.874 . S
C1291 C218 1.873 1_565 S
C1296 C46 1.874 . S
C1321 C138 1.873 . S
C1326 C86 1.874 . S
C1351 C175 1.874 . S
C1356 C89 1.873 . S
C1381 C215 1.874 . S
C1386 C9 1.873 1_655 S
C1411 C135 1.874 . S
C1416 C49 1.874 . S
C1441 C418 1.873 . S
C1446 C246 1.874 . S
C1471 C458 1.873 . S
C1476 C286 1.874 . S
C1501 C378 1.873 . S
C1506 C326 1.874 . S
C1531 C415 1.874 . S
C1536 C329 1.873 1_556 S
C1561 C455 1.874 . S
C1566 C249 1.873 1_556 S
C1591 C375 1.874 . S
C1596 C289 1.873 1_556 S
C1621 C658 1.873 1_554 S
C1626 C486 1.874 . S
C1651 C698 1.874 1_554 S
C1656 C526 1.874 . S
C1681 C566 1.874 . S
C1686 C618 1.873 1_554 S
C1711 C569 1.873 . S
C1716 C655 1.874 . S
C1741 C489 1.874 . S
C1746 C695 1.874 . S
C1771 C615 1.874 . S
C1776 C529 1.873 . S
C1801 C10 1.857 . S
C1806 C19 1.857 . S
C1831 C50 1.857 . S
C1836 C59 1.857 . S
C1861 C90 1.857 . S
C1866 C99 1.857 . S
C1891 C139 1.857 . S
C1896 C130 1.857 . S
C1921 C170 1.857 . S
C1926 C179 1.857 . S
C1951 C210 1.857 . S
C1956 C219 1.857 . S
C1981 C259 1.857 . S
C1986 C250 1.857 . S
C2011 C290 1.857 . S
C2016 C299 1.857 . S
C2041 C339 1.857 . S
C2046 C330 1.857 . S
C2071 C379 1.857 . S
C2076 C370 1.857 . S
C2101 C419 1.857 . S
C2106 C410 1.857 . S
C2131 C459 1.857 . S
C2136 C450 1.857 . S
C2161 C499 1.857 . S
C2166 C490 1.857 . S
C2191 C530 1.857 . S
C2196 C539 1.857 . S
C2221 C570 1.857 . S
C2226 C579 1.857 . S
C2251 C610 1.857 . S
C2256 C619 1.857 . S
C2281 C650 1.857 . S
C2286 C659 1.857 . S
C2311 C699 1.857 . S
C2316 C690 1.857 . S
