# Generated by pormake.
# Topology zfd, (5)-cn, num edge types: 1
# Building blocks:
#     Node 0, Type 0, BuildingBlock: BEQFEK_clean_sbu_0, # of connection points: 5
#     Node 1, Type 0, BuildingBlock: BEQFEK_clean_sbu_0, # of connection points: 5
#     Node 2, Type 0, BuildingBlock: BEQFEK_clean_sbu_0, # of connection points: 5
#     Node 3, Type 0, BuildingBlock: BEQFEK_clean_sbu_0, # of connection points: 5
#     Node 4, Type 0, BuildingBlock: BEQFEK_clean_sbu_0, # of connection points: 5
#     Node 5, Type 0, BuildingBlock: BEQFEK_clean_sbu_0, # of connection points: 5
#     Node 6, Type 0, BuildingBlock: BEQFEK_clean_sbu_0, # of connection points: 5
#     Node 7, Type 0, BuildingBlock: BEQFEK_clean_sbu_0, # of connection points: 5
#     Node 8, Type 0, BuildingBlock: BEQFEK_clean_sbu_0, # of connection points: 5
#     Node 9, Type 0, BuildingBlock: BEQFEK_clean_sbu_0, # of connection points: 5
#     Node 10, Type 0, BuildingBlock: BEQFEK_clean_sbu_0, # of connection points: 5
#     Node 11, Type 0, BuildingBlock: BEQFEK_clean_sbu_0, # of connection points: 5
#     Node 12, Type 0, BuildingBlock: BEQFEK_clean_sbu_0, # of connection points: 5
#     Node 13, Type 0, BuildingBlock: BEQFEK_clean_sbu_0, # of connection points: 5
#     Node 14, Type 0, BuildingBlock: BEQFEK_clean_sbu_0, # of connection points: 5
#     Node 15, Type 0, BuildingBlock: BEQFEK_clean_sbu_0, # of connection points: 5
#     Edge 16, Type (0, 0), None
#     Edge 17, Type (0, 0), None
#     Edge 18, Type (0, 0), None
#     Edge 19, Type (0, 0), None
#     Edge 20, Type (0, 0), None
#     Edge 21, Type (0, 0), None
#     Edge 22, Type (0, 0), None
#     Edge 23, Type (0, 0), None
#     Edge 24, Type (0, 0), None
#     Edge 25, Type (0, 0), None
#     Edge 26, Type (0, 0), None
#     Edge 27, Type (0, 0), None
#     Edge 28, Type (0, 0), None
#     Edge 29, Type (0, 0), None
#     Edge 30, Type (0, 0), None
#     Edge 31, Type (0, 0), None
#     Edge 32, Type (0, 0), None
#     Edge 33, Type (0, 0), None
#     Edge 34, Type (0, 0), None
#     Edge 35, Type (0, 0), None
#     Edge 36, Type (0, 0), None
#     Edge 37, Type (0, 0), None
#     Edge 38, Type (0, 0), None
#     Edge 39, Type (0, 0), None
#     Edge 40, Type (0, 0), None
#     Edge 41, Type (0, 0), None
#     Edge 42, Type (0, 0), None
#     Edge 43, Type (0, 0), None
#     Edge 44, Type (0, 0), None
#     Edge 45, Type (0, 0), None
#     Edge 46, Type (0, 0), None
#     Edge 47, Type (0, 0), None
#     Edge 48, Type (0, 0), None
#     Edge 49, Type (0, 0), None
#     Edge 50, Type (0, 0), None
#     Edge 51, Type (0, 0), None
#     Edge 52, Type (0, 0), None
#     Edge 53, Type (0, 0), None
#     Edge 54, Type (0, 0), None
#     Edge 55, Type (0, 0), None
# Relax obj value: 0.520
# Max RMSD: 0.099
# Mean RMSD: 0.099
data_MOF--net-zfd--node1-BEQFEK_clean_sbu_0--edge1-none
_symmetry_space_group_name_H-M    P1
_symmetry_Int_Tables_number       1
_symmetry_cell_setting            triclinic
loop_
_symmetry_equiv_pos_as_xyz
'x, y, z'
_cell_length_a     30.197136
_cell_length_b     30.197669
_cell_length_c     11.397387
_cell_angle_alpha  90.001544
_cell_angle_beta   89.995502
_cell_angle_gamma 89.999278
loop_
_atom_site_label
_atom_site_type_symbol
_atom_site_fract_x
_atom_site_fract_y
_atom_site_fract_z
_atom_type_partial_charge
Co0 Co 0.20577 0.26565 1.03522 0.0
Co1 Co 0.17155 0.32552 0.1939 0.0
C2 C 0.21277 0.23839 0.28729 0.0
O3 O 0.21985 0.23009 0.18044 0.0
O4 O 0.18984 0.27315 0.31154 0.0
C5 C 0.18187 0.19256 0.89418 0.0
O6 O 0.14111 0.19136 0.93404 0.0
C7 C 0.11827 0.37051 0.34624 0.0
C8 C 0.11579 0.4368 0.26289 0.0
C9 C 0.09218 0.40799 0.33344 0.0
N10 N 0.15224 0.37488 0.27467 0.0
N11 N 0.15275 0.41531 0.23041 0.0
C12 C 0.11004 0.32788 0.41026 0.0
H13 H 0.11173 0.29966 0.34827 0.0
H14 H 0.07804 0.32699 0.45597 0.0
H15 H 0.13696 0.32284 0.47511 0.0
C16 C 0.12642 0.29027 0.87326 0.0
N17 N 0.14924 0.29087 0.97762 0.0
N18 N 0.12963 0.31794 1.0504 0.0
C19 C 0.09225 0.33379 0.99257 0.0
C20 C 0.08744 0.31469 0.87991 0.0
C21 C 0.14595 0.27736 0.75829 0.0
H22 H 0.18244 0.27892 0.76402 0.0
H23 H 0.1333 0.24441 0.73217 0.0
H24 H 0.13553 0.30055 0.6883 0.0
O25 O 0.25739 0.3084 1.01855 0.0
O26 O 0.2288 0.35038 0.1556 0.0
H27 H 0.07255 0.40026 0.95605 0.0
H28 H 1.03136 0.36796 1.02846 0.0
C29 C 1.0674 0.37471 1.02477 0.0
H30 H 0.07895 0.38783 0.10841 0.0
H31 H 0.17455 0.42586 0.16525 0.0
O32 O 0.21048 0.21872 0.93689 0.0
C33 C 0.26088 0.34068 0.09019 0.0
Co34 Co 0.87001 0.20578 1.03522 0.0
Co35 Co 0.81014 0.17156 0.1939 0.0
C36 C 0.89727 0.21277 0.28728 0.0
O37 O 0.90558 0.21985 0.18044 0.0
O38 O 0.86251 0.18985 0.31154 0.0
C39 C 0.9431 0.18188 0.89417 0.0
O40 O 0.94431 0.14113 0.93405 0.0
C41 C 0.76515 0.11827 0.34624 0.0
C42 C 0.69886 0.11579 0.26291 0.0
C43 C 0.72768 0.09218 0.33345 0.0
N44 N 0.76077 0.15224 0.27468 0.0
N45 N 0.72035 0.15274 0.23043 0.0
C46 C 0.80779 0.11005 0.41026 0.0
H47 H 0.83601 0.11175 0.34827 0.0
H48 H 0.80868 0.07806 0.45598 0.0
H49 H 0.81282 0.13697 0.47511 0.0
C50 C 0.8454 0.12642 0.87327 0.0
N51 N 0.84479 0.14924 0.97763 0.0
N52 N 0.81772 0.12964 1.05041 0.0
C53 C 0.80188 0.09225 0.99258 0.0
C54 C 0.82098 0.08744 0.87992 0.0
C55 C 0.8583 0.14594 0.75829 0.0
H56 H 0.85674 0.18244 0.76402 0.0
H57 H 0.89126 0.1333 0.73218 0.0
H58 H 0.83512 0.13552 0.6883 0.0
O59 O 0.82726 0.2574 1.01857 0.0
O60 O 0.78526 0.2288 0.15559 0.0
H61 H 0.73541 0.07254 0.95609 0.0
H62 H 0.76772 1.03136 1.02847 0.0
C63 C 0.76097 1.0674 1.02479 0.0
H64 H 0.74785 0.07895 0.10845 0.0
H65 H 0.70979 0.17454 0.16526 0.0
O66 O 0.91693 0.21049 0.93687 0.0
C67 C 0.79497 0.26089 0.09019 0.0
Co68 Co 0.9299 0.86999 1.03523 0.0
Co69 Co 0.96412 0.81012 0.1939 0.0
C70 C 0.9229 0.89726 0.28728 0.0
O71 O 0.91583 0.90556 0.18044 0.0
O72 O 0.94583 0.8625 0.31153 0.0
C73 C 0.95379 0.94307 0.89418 0.0
O74 O 0.99454 0.9443 0.93407 0.0
C75 C 1.01742 0.76514 0.34622 0.0
C76 C 1.01989 0.69885 0.26288 0.0
C77 C 1.0435 0.72767 0.33342 0.0
N78 N 0.98344 0.76076 0.27466 0.0
N79 N 0.98294 0.72033 0.23041 0.0
C80 C 1.02563 0.80778 0.41024 0.0
H81 H 1.02394 0.836 0.34826 0.0
H82 H 1.05763 0.80866 0.45597 0.0
H83 H 0.99871 0.81281 0.47509 0.0
C84 C 1.00927 0.84538 0.87326 0.0
N85 N 0.98644 0.84477 0.97762 0.0
N86 N 1.00604 0.81771 1.05039 0.0
C87 C 1.04343 0.80186 0.99257 0.0
C88 C 1.04824 0.82096 0.87991 0.0
C89 C 0.98975 0.85829 0.75829 0.0
H90 H 0.95325 0.85674 0.76401 0.0
H91 H 1.00239 0.89125 0.73221 0.0
H92 H 1.00018 0.83512 0.68829 0.0
O93 O 0.87828 0.82723 1.01859 0.0
O94 O 0.90688 0.78524 0.1556 0.0
H95 H 1.06314 0.7354 0.95606 0.0
H96 H 0.10432 0.7677 1.02845 0.0
C97 C 0.06829 0.76095 1.02477 0.0
H98 H 1.05673 0.74784 0.10842 0.0
H99 H 0.96114 0.70977 0.16523 0.0
O100 O 0.92518 0.9169 0.93687 0.0
C101 C 0.87479 0.79495 0.09021 0.0
Co102 Co 0.26567 0.92989 1.03522 0.0
Co103 Co 0.32554 0.96412 0.19389 0.0
C104 C 0.23841 0.92289 0.2873 0.0
O105 O 0.23011 0.91581 0.18045 0.0
O106 O 0.27317 0.94582 0.31154 0.0
C107 C 0.19258 0.95378 0.89417 0.0
O108 O 0.19137 0.99453 0.93402 0.0
C109 C 0.37053 1.01741 0.34621 0.0
C110 C 0.43682 1.01988 0.26285 0.0
C111 C 0.408 1.04349 0.3334 0.0
N112 N 0.3749 0.98343 0.27464 0.0
N113 N 0.41533 0.98293 0.23037 0.0
C114 C 0.32789 1.02563 0.41024 0.0
H115 H 0.29967 1.02393 0.34827 0.0
H116 H 0.327 1.05763 0.45596 0.0
H117 H 0.32286 0.99871 0.4751 0.0
C118 C 0.29028 1.00925 0.87326 0.0
N119 N 0.29089 0.98643 0.97762 0.0
N120 N 0.31795 1.00603 1.05038 0.0
C121 C 0.3338 1.04342 0.99255 0.0
C122 C 0.3147 1.04823 0.8799 0.0
C123 C 0.27737 0.98973 0.75828 0.0
H124 H 0.27894 0.95323 0.76401 0.0
H125 H 0.24442 1.00236 0.73218 0.0
H126 H 0.30056 1.00015 0.68828 0.0
O127 O 0.30843 0.87828 1.01856 0.0
O128 O 0.35041 0.90687 0.15559 0.0
H129 H 0.40026 1.06313 0.95603 0.0
H130 H 0.36796 0.10431 1.02843 0.0
C131 C 0.37471 0.06827 1.02475 0.0
H132 H 0.38783 1.05672 0.10839 0.0
H133 H 0.42589 0.96113 0.1652 0.0
O134 O 0.21875 0.92517 0.9369 0.0
C135 C 0.3407 0.87479 0.09019 0.0
Co136 Co 0.20553 0.87022 0.63344 0.0
Co137 Co 0.17146 0.80999 0.47529 0.0
C138 C 0.2126 0.89715 0.38137 0.0
O139 O 0.21948 0.9057 0.48815 0.0
O140 O 0.18982 0.86227 0.35735 0.0
C141 C 0.18216 0.94356 0.77433 0.0
O142 O 0.14131 0.9449 0.73516 0.0
C143 C 0.11753 0.76544 0.32426 0.0
C144 C 0.11564 0.69875 0.40566 0.0
C145 C 0.0916 0.72787 0.33707 0.0
N146 N 0.15193 0.76078 0.39422 0.0
N147 N 0.15273 0.72018 0.43731 0.0
C148 C 0.10897 0.80835 0.26179 0.0
H149 H 0.11064 0.83627 0.32478 0.0
H150 H 0.07692 0.8093 0.21626 0.0
H151 H 0.13577 0.81387 0.19685 0.0
C152 C 0.12605 0.84583 0.79558 0.0
N153 N 0.14897 0.84508 0.69133 0.0
N154 N 0.1296 0.81766 0.61901 0.0
C155 C 0.09234 0.80163 0.67711 0.0
C156 C 0.08727 0.82108 0.78925 0.0
C157 C 0.14536 0.85921 0.91042 0.0
H158 H 0.18185 0.85735 0.90528 0.0
H159 H 0.13288 0.89238 0.93506 0.0
H160 H 0.13464 0.8365 0.98119 0.0
O161 O 0.25719 0.82741 0.64986 0.0
O162 O 0.22862 0.78505 0.51355 0.0
H163 H 0.07357 0.73502 0.71506 0.0
H164 H 1.03184 0.76659 0.64262 0.0
C165 C 0.06797 0.76032 0.64596 0.0
H166 H 0.07955 0.74714 0.56242 0.0
H167 H 0.17494 0.70937 0.50122 0.0
O168 O 0.21056 0.91723 0.7314 0.0
C169 C 0.26071 0.79497 0.57871 0.0
Co170 Co 0.26542 0.2055 0.63344 0.0
Co171 Co 0.32566 0.17143 0.47529 0.0
C172 C 0.2385 0.21257 0.38136 0.0
O173 O 0.22995 0.21946 0.48814 0.0
O174 O 0.27338 0.18979 0.35734 0.0
C175 C 0.19207 0.18213 0.77433 0.0
O176 O 0.19074 0.14127 0.7352 0.0
C177 C 0.37022 0.11751 0.32423 0.0
C178 C 0.43691 0.11563 0.40564 0.0
C179 C 0.4078 0.09159 0.33704 0.0
N180 N 0.37487 0.15192 0.3942 0.0
N181 N 0.41548 0.15272 0.4373 0.0
C182 C 0.32731 0.10894 0.26177 0.0
H183 H 0.29939 0.11062 0.32476 0.0
H184 H 0.32636 0.07689 0.21625 0.0
H185 H 0.32179 0.13574 0.19683 0.0
C186 C 0.28982 0.12602 0.79557 0.0
N187 N 0.29057 0.14894 0.69132 0.0
N188 N 0.31799 0.12958 0.619 0.0
C189 C 0.33402 0.09233 0.6771 0.0
C190 C 0.31458 0.08725 0.78924 0.0
C191 C 0.27644 0.14534 0.91041 0.0
H192 H 0.2783 0.18183 0.90527 0.0
H193 H 0.24327 0.13287 0.93507 0.0
H194 H 0.29915 0.13463 0.98118 0.0
O195 O 0.30822 0.25716 0.64989 0.0
O196 O 0.35059 0.2286 0.51356 0.0
H197 H 0.40064 0.07357 0.71506 0.0
H198 H 0.36908 1.03183 0.6426 0.0
C199 C 0.37534 0.06796 0.64595 0.0
H200 H 0.38852 0.07954 0.56242 0.0
H201 H 0.42627 0.17493 0.5012 0.0
O202 O 0.2184 0.21052 0.73138 0.0
C203 C 0.34066 0.26068 0.57873 0.0
Co204 Co 0.93017 0.26542 0.63344 0.0
Co205 Co 0.96424 0.32565 0.4753 0.0
C206 C 0.9231 0.2385 0.38135 0.0
O207 O 0.91621 0.22996 0.48813 0.0
O208 O 0.94588 0.27338 0.35734 0.0
C209 C 0.95354 0.19208 0.77432 0.0
O210 O 0.9944 0.19075 0.7352 0.0
C211 C 1.01816 0.37021 0.32425 0.0
C212 C 1.02005 0.4369 0.40569 0.0
C213 C 1.04409 0.40779 0.33707 0.0
N214 N 0.98376 0.37486 0.39422 0.0
N215 N 0.98295 0.41547 0.43734 0.0
C216 C 1.02673 0.3273 0.26177 0.0
H217 H 1.02505 0.29938 0.32475 0.0
H218 H 1.05878 0.32635 0.21625 0.0
H219 H 0.99993 0.32179 0.19683 0.0
C220 C 1.00964 0.28982 0.79558 0.0
N221 N 0.98673 0.29057 0.69132 0.0
N222 N 1.0061 0.31799 0.61901 0.0
C223 C 1.04335 0.33402 0.67712 0.0
C224 C 1.04842 0.31457 0.78925 0.0
C225 C 0.99032 0.27645 0.91042 0.0
H226 H 0.95384 0.2783 0.90527 0.0
H227 H 1.0028 0.24328 0.93508 0.0
H228 H 1.00104 0.29916 0.98119 0.0
O229 O 0.8785 0.30823 0.6499 0.0
O230 O 0.90707 0.35058 0.51356 0.0
H231 H 1.06211 0.40063 0.71509 0.0
H232 H 0.10385 0.36907 0.64261 0.0
C233 C 1.06772 0.37533 0.64597 0.0
H234 H 1.05613 0.38852 0.56245 0.0
H235 H 0.96074 0.42626 0.50125 0.0
O236 O 0.92514 0.2184 0.73136 0.0
C237 C 0.87499 0.34066 0.57873 0.0
Co238 Co 0.87024 0.93016 0.63344 0.0
Co239 Co 0.81002 0.96424 0.4753 0.0
C240 C 0.89717 0.92309 0.38136 0.0
O241 O 0.90572 0.9162 0.48813 0.0
O242 O 0.8623 0.94587 0.35734 0.0
C243 C 0.94359 0.95351 0.77433 0.0
O244 O 0.94493 0.99437 0.73521 0.0
C245 C 0.76546 1.01816 0.32428 0.0
C246 C 0.69877 1.02005 0.4057 0.0
C247 C 0.72788 1.04409 0.3371 0.0
N248 N 0.76081 0.98376 0.39424 0.0
N249 N 0.7202 0.98295 0.43735 0.0
C250 C 0.80837 1.02673 0.2618 0.0
H251 H 0.83629 1.02505 0.32478 0.0
H252 H 0.80932 1.05878 0.21628 0.0
H253 H 0.81389 0.99993 0.19686 0.0
C254 C 0.84585 1.00964 0.79558 0.0
N255 N 0.84511 0.98673 0.69133 0.0
N256 N 0.81768 1.00609 0.61903 0.0
C257 C 0.80165 1.04334 0.67713 0.0
C258 C 0.8211 1.04842 0.78926 0.0
C259 C 0.85924 0.99033 0.91042 0.0
H260 H 0.85738 0.95384 0.90529 0.0
H261 H 0.89241 1.0028 0.93505 0.0
H262 H 0.83653 1.00105 0.9812 0.0
O263 O 0.82744 0.8785 0.64988 0.0
O264 O 0.78508 0.90707 0.51356 0.0
H265 H 0.73503 1.0621 0.7151 0.0
H266 H 0.7666 0.10384 0.64264 0.0
C267 C 0.76034 1.06771 0.64599 0.0
H268 H 0.74716 1.05613 0.56246 0.0
H269 H 0.7094 0.96074 0.50126 0.0
O270 O 0.91726 0.92512 0.73137 0.0
C271 C 0.795 0.87499 0.57872 0.0
Co272 Co 0.70576 0.76566 0.53527 0.0
Co273 Co 0.67156 0.82555 0.69392 0.0
C274 C 0.71277 0.7384 0.78732 0.0
O275 O 0.71983 0.73008 0.68047 0.0
O276 O 0.68987 0.77318 0.81156 0.0
C277 C 0.68191 0.69255 0.39425 0.0
O278 O 0.64116 0.6913 0.43418 0.0
C279 C 0.61822 0.87049 0.84616 0.0
C280 C 0.6158 0.93682 0.76304 0.0
C281 C 0.59215 0.90797 0.8334 0.0
N282 N 0.65223 0.8749 0.77475 0.0
N283 N 0.65277 0.91534 0.73062 0.0
C284 C 0.60996 0.82782 0.91001 0.0
H285 H 0.61166 0.79963 0.8479 0.0
H286 H 0.57796 0.82692 0.9557 0.0
H287 H 0.63687 0.82273 0.97486 0.0
C288 C 0.62639 0.79025 0.37334 0.0
N289 N 0.64922 0.79087 0.47768 0.0
N290 N 0.62965 0.81797 0.55041 0.0
C291 C 0.59227 0.83384 0.49257 0.0
C292 C 0.58743 0.81471 0.37996 0.0
C293 C 0.64588 0.77728 0.25837 0.0
H294 H 0.68238 0.77886 0.26402 0.0
H295 H 0.63324 0.7443 0.23243 0.0
H296 H 0.63543 0.80041 0.18829 0.0
O297 O 0.75739 0.80841 0.51863 0.0
O298 O 0.7288 0.85044 0.65562 0.0
H299 H 0.57269 0.90033 0.45592 0.0
H300 H 0.53143 0.86812 0.52831 0.0
C301 C 0.56748 0.8748 0.52467 0.0
H302 H 0.57904 0.88792 0.60831 0.0
H303 H 0.6746 0.92593 0.66558 0.0
O304 O 0.7105 0.71874 0.43691 0.0
C305 C 0.76088 0.84071 0.59022 0.0
Co306 Co 0.37007 0.70572 0.53535 0.0
Co307 Co 0.31012 0.67154 0.69393 0.0
C308 C 0.39728 0.71275 0.7874 0.0
O309 O 0.40564 0.71978 0.68056 0.0
O310 O 0.36249 0.68987 0.81161 0.0
C311 C 0.44321 0.68195 0.39432 0.0
O312 O 0.4445 0.6412 0.43419 0.0
C313 C 0.26521 0.61816 0.84609 0.0
C314 C 0.19885 0.61578 0.76311 0.0
C315 C 0.22771 0.59211 0.83336 0.0
N316 N 0.26079 0.65219 0.77475 0.0
N317 N 0.22033 0.65274 0.73071 0.0
C318 C 0.3079 0.60988 0.90982 0.0
H319 H 0.33607 0.61158 0.84765 0.0
H320 H 0.3088 0.57787 0.9555 0.0
H321 H 0.31302 0.63678 0.97469 0.0
C322 C 0.34552 0.62632 0.37341 0.0
N323 N 0.34488 0.64917 0.47773 0.0
N324 N 0.31773 0.62963 0.55041 0.0
C325 C 0.30184 0.59227 0.49255 0.0
C326 C 0.32101 0.58739 0.38 0.0
C327 C 0.35855 0.64578 0.25845 0.0
H328 H 0.35692 0.68227 0.26401 0.0
H329 H 0.39156 0.63317 0.23272 0.0
H330 H 0.33548 0.63528 0.18827 0.0
O331 O 0.3273 0.75735 0.51873 0.0
O332 O 0.28522 0.72876 0.65562 0.0
H333 H 0.23533 0.57278 0.45581 0.0
H334 H 0.26748 0.53146 0.52813 0.0
C335 C 0.26085 0.56752 0.52457 0.0
H336 H 0.24773 0.57907 0.60823 0.0
H337 H 0.20973 0.6746 0.66572 0.0
O338 O 0.41699 0.71051 0.43701 0.0
C339 C 0.29498 0.76084 0.59025 0.0
Co340 Co 0.42989 0.37002 0.53529 0.0
Co341 Co 0.46411 0.31011 0.6939 0.0
C342 C 0.4229 0.39725 0.78736 0.0
O343 O 0.41585 0.40558 0.68053 0.0
O344 O 0.4458 0.36247 0.81158 0.0
C345 C 0.45372 0.44315 0.3943 0.0
O346 O 0.49447 0.44439 0.43417 0.0
C347 C 0.51742 0.26514 0.84617 0.0
C348 C 0.51989 0.19884 0.7629 0.0
C349 C 0.54351 0.22767 0.83339 0.0
N350 N 0.48344 0.26075 0.77465 0.0
N351 N 0.48294 0.22032 0.73044 0.0
C352 C 0.52565 0.30779 0.91013 0.0
H353 H 0.52395 0.336 0.84811 0.0
H354 H 0.55765 0.30869 0.95584 0.0
H355 H 0.49873 0.31284 0.97499 0.0
C356 C 0.50927 0.34544 0.37332 0.0
N357 N 0.48644 0.34481 0.47766 0.0
N358 N 0.50602 0.31772 0.55039 0.0
C359 C 0.5434 0.30186 0.49255 0.0
C360 C 0.54823 0.32099 0.37994 0.0
C361 C 0.48978 0.3584 0.25836 0.0
H362 H 0.45328 0.35679 0.26401 0.0
H363 H 0.50239 0.39138 0.23244 0.0
H364 H 0.50025 0.33527 0.18827 0.0
O365 O 0.37827 0.32726 0.51867 0.0
O366 O 0.40687 0.28522 0.65559 0.0
H367 H 0.56305 0.23538 0.45597 0.0
H368 H 0.60427 0.26765 0.52832 0.0
C369 C 0.56823 0.26093 0.52469 0.0
H370 H 0.55669 0.24781 0.60835 0.0
H371 H 0.46112 0.20975 0.66529 0.0
O372 O 0.42514 0.41695 0.43698 0.0
C373 C 0.37479 0.29496 0.59023 0.0
Co374 Co 0.76567 0.42988 0.53522 0.0
Co375 Co 0.82554 0.4641 0.69389 0.0
C376 C 0.7384 0.42289 0.78729 0.0
O377 O 0.7301 0.41581 0.68045 0.0
O378 O 0.77317 0.44581 0.81154 0.0
C379 C 0.69257 0.45377 0.39422 0.0
O380 O 0.69135 0.49452 0.43413 0.0
C381 C 0.87052 0.5174 0.8462 0.0
C382 C 0.93682 0.51987 0.76288 0.0
C383 C 0.90799 0.54348 0.8334 0.0
N384 N 0.8749 0.48342 0.77465 0.0
N385 N 0.91533 0.48291 0.73041 0.0
C386 C 0.82788 0.52563 0.9102 0.0
H387 H 0.79966 0.52393 0.84821 0.0
H388 H 0.82699 0.55763 0.95592 0.0
H389 H 0.82283 0.49871 0.97506 0.0
C390 C 0.79028 0.50925 0.37327 0.0
N391 N 0.79089 0.48642 0.47762 0.0
N392 N 0.81796 0.50602 0.55038 0.0
C393 C 0.83381 0.5434 0.49255 0.0
C394 C 0.8147 0.54822 0.37991 0.0
C395 C 0.77735 0.48973 0.2583 0.0
H396 H 0.77892 0.45323 0.26401 0.0
H397 H 0.74439 0.50237 0.23225 0.0
H398 H 0.80052 0.50016 0.18828 0.0
O399 O 0.80842 0.37826 0.51857 0.0
O400 O 0.85042 0.40686 0.6556 0.0
H401 H 0.90028 0.56309 0.45601 0.0
H402 H 0.86799 0.60428 0.52842 0.0
C403 C 0.87473 0.56824 0.52474 0.0
H404 H 0.88785 0.55669 0.60838 0.0
H405 H 0.92589 0.46111 0.66526 0.0
O406 O 0.71874 0.42516 0.43688 0.0
C407 C 0.8407 0.37478 0.5902 0.0
Co408 Co 0.70552 0.37023 0.13346 0.0
Co409 Co 0.67143 0.31001 0.9753 0.0
C410 C 0.71258 0.39716 0.88136 0.0
O411 O 0.71948 0.40569 0.98814 0.0
O412 O 0.68979 0.36229 0.85734 0.0
C413 C 0.68212 0.44358 0.27438 0.0
O414 O 0.64127 0.44489 0.23529 0.0
C415 C 0.61754 0.26543 0.82422 0.0
C416 C 0.61562 0.19876 0.90574 0.0
C417 C 0.5916 0.22786 0.83705 0.0
N418 N 0.65192 0.2608 0.89425 0.0
N419 N 0.65271 0.2202 0.93741 0.0
C420 C 0.60898 0.30833 0.76167 0.0
H421 H 0.61066 0.33626 0.8246 0.0
H422 H 0.57693 0.30927 0.71614 0.0
H423 H 0.63578 0.31382 0.69672 0.0
C424 C 0.62604 0.34583 0.29561 0.0
N425 N 0.64895 0.34509 0.19135 0.0
N426 N 0.62958 0.31768 0.11902 0.0
C427 C 0.59232 0.30167 0.17712 0.0
C428 C 0.58726 0.3211 0.28927 0.0
C429 C 0.64537 0.35918 0.41046 0.0
H430 H 0.68186 0.35733 0.40527 0.0
H431 H 0.6329 0.39234 0.43519 0.0
H432 H 0.63467 0.33645 0.48119 0.0
O433 O 0.75717 0.32744 0.14992 0.0
O434 O 0.7286 0.28509 1.01355 0.0
H435 H 0.5735 0.23506 0.21501 0.0
H436 H 0.53179 0.26667 0.14257 0.0
C437 C 0.56792 0.26037 0.14592 0.0
H438 H 0.5795 0.24719 1.06238 0.0
H439 H 0.67491 0.20941 1.00139 0.0
O440 O 0.71053 0.41727 0.23138 0.0
C441 C 0.76068 0.29501 0.07873 0.0
Co442 Co 0.76544 0.7055 0.13347 0.0
Co443 Co 0.82566 0.67142 0.97529 0.0
C444 C 0.73851 0.71258 0.88139 0.0
O445 O 0.72997 0.71948 0.98817 0.0
O446 O 0.77337 0.68978 0.85735 0.0
C447 C 0.69211 0.6821 0.27441 0.0
O448 O 0.69079 0.64125 0.2353 0.0
C449 C 0.87022 0.61751 0.82422 0.0
C450 C 0.93691 0.61561 0.90565 0.0
C451 C 0.9078 0.59158 0.83703 0.0
N452 N 0.87487 0.65191 0.8942 0.0
N453 N 0.91547 0.65271 0.93731 0.0
C454 C 0.82731 0.60894 0.76173 0.0
H455 H 0.79939 0.61062 0.8247 0.0
H456 H 0.82637 0.57689 0.7162 0.0
H457 H 0.8218 0.63574 0.69679 0.0
C458 C 0.78985 0.62603 0.29559 0.0
N459 N 0.79059 0.64894 0.19134 0.0
N460 N 0.818 0.62956 0.119 0.0
C461 C 0.83402 0.59231 0.1771 0.0
C462 C 0.81459 0.58724 0.28925 0.0
C463 C 0.77649 0.64535 0.41045 0.0
H464 H 0.77833 0.68184 0.40528 0.0
H465 H 0.74333 0.63287 0.43517 0.0
H466 H 0.79922 0.63465 0.48118 0.0
O467 O 0.80824 0.75715 0.14995 0.0
O468 O 0.85059 0.72859 1.01354 0.0
H469 H 0.90064 0.57352 0.21502 0.0
H470 H 0.86905 0.5318 0.14256 0.0
C471 C 0.87533 0.56793 0.14592 0.0
H472 H 0.88851 0.57951 1.06239 0.0
H473 H 0.92627 0.67491 1.00123 0.0
O474 O 0.71842 0.71051 0.23142 0.0
C475 C 0.84067 0.76066 0.07875 0.0
Co476 Co 0.43015 0.76547 0.13356 0.0
Co477 Co 0.46425 0.82564 0.9753 0.0
C478 C 0.42309 0.73849 0.88147 0.0
O479 O 0.41616 0.73 0.98826 0.0
O480 O 0.44591 0.77334 0.8574 0.0
C481 C 0.45363 0.69217 0.27448 0.0
O482 O 0.49449 0.69089 0.23533 0.0
C483 C 0.51811 0.87023 0.82415 0.0
C484 C 0.52004 0.93689 0.90577 0.0
C485 C 0.54405 0.9078 0.83701 0.0
N486 N 0.48374 0.87486 0.89423 0.0
N487 N 0.48295 0.91545 0.93745 0.0
C488 C 0.52666 0.82736 0.76151 0.0
H489 H 0.52498 0.79941 0.82439 0.0
H490 H 0.55871 0.82642 0.71597 0.0
H491 H 0.49985 0.82188 0.69657 0.0
C492 C 0.5096 0.78992 0.29568 0.0
N493 N 0.48671 0.79063 0.1914 0.0
N494 N 0.50611 0.818 0.11902 0.0
C495 C 0.54337 0.83401 0.17709 0.0
C496 C 0.54841 0.81461 0.2893 0.0
C497 C 0.49024 0.77662 0.41054 0.0
H498 H 0.45375 0.77842 0.40527 0.0
H499 H 0.50275 0.7435 0.43548 0.0
H500 H 0.50088 0.79943 0.48117 0.0
O501 O 0.3785 0.80826 0.15006 0.0
O502 O 0.40706 0.85055 1.01354 0.0
H503 H 0.56226 0.9006 0.21491 0.0
H504 H 0.60392 0.86895 0.14239 0.0
C505 C 0.5678 0.87528 0.14582 0.0
H506 H 0.55621 0.88846 1.06231 0.0
H507 H 0.46077 0.92622 1.00146 0.0
O508 O 0.42519 0.71845 0.23152 0.0
C509 C 0.37498 0.84066 0.07878 0.0
Co510 Co 0.3702 0.43011 0.13356 0.0
Co511 Co 0.31003 0.46423 0.97533 0.0
C512 C 0.39716 0.42306 0.88144 0.0
O513 O 0.40566 0.41613 0.98822 0.0
O514 O 0.36232 0.44588 0.85739 0.0
C515 C 0.44352 0.45357 0.27446 0.0
O516 O 0.44477 0.49444 0.23537 0.0
C517 C 0.2654 0.51805 0.82412 0.0
C518 C 0.19878 0.52004 0.90592 0.0
C519 C 0.22785 0.54401 0.83701 0.0
N520 N 0.26079 0.48371 0.89433 0.0
N521 N 0.22022 0.48296 0.93765 0.0
C522 C 0.30826 0.52656 0.76135 0.0
H523 H 0.33624 0.52487 0.82414 0.0
H524 H 0.3092 0.5586 0.7158 0.0
H525 H 0.31369 0.49974 0.69641 0.0
C526 C 0.34576 0.50955 0.29572 0.0
N527 N 0.34504 0.48666 0.19143 0.0
N528 N 0.31769 0.50608 0.11904 0.0
C529 C 0.30171 0.54336 0.17711 0.0
C530 C 0.32109 0.54837 0.28934 0.0
C531 C 0.35902 0.49017 0.41058 0.0
H532 H 0.35721 0.45368 0.40528 0.0
H533 H 0.39215 0.50266 0.43556 0.0
H534 H 0.33621 0.50083 0.48119 0.0
O535 O 0.32742 0.37845 0.15005 0.0
O536 O 0.28513 0.40704 1.01358 0.0
H537 H 0.23512 0.56233 0.21483 0.0
H538 H 0.26685 0.60394 0.14235 0.0
C539 C 0.26047 0.56783 0.14578 0.0
H540 H 0.24729 0.55626 1.06224 0.0
H541 H 0.20946 0.46081 1.00177 0.0
O542 O 0.41725 0.42513 0.23146 0.0
C543 C 0.29502 0.37495 0.07878 0.0
loop_
_geom_bond_atom_site_label_1
_geom_bond_atom_site_label_2
_geom_bond_distance
_geom_bond_site_symmetry_2
_ccdc_geom_bond_type
Co0 O3 1.970 1_556 S
Co0 N17 1.989 . S
Co0 O25 1.967 . S
Co0 O32 1.920 . S
Co1 O4 1.966 . S
Co1 N10 2.022 . S
Co1 N18 1.993 1_554 S
Co1 O26 1.941 . S
C2 O3 1.258 . S
C2 O4 1.263 . S
O3 Co0 1.970 1_554 S
O3 C2 1.258 . S
O4 Co1 1.966 . S
O4 C2 1.263 . S
C5 O6 1.235 . S
C5 O32 1.289 . S
O6 C5 1.235 . S
C7 C9 1.400 . S
C7 N10 1.351 . S
C7 C12 1.501 . S
C8 C9 1.387 . S
C8 N11 1.341 . S
C9 C7 1.400 . S
C9 C8 1.387 . S
N10 Co1 2.022 . S
N10 C7 1.351 . S
N10 N11 1.365 . S
N11 C8 1.341 . S
N11 N10 1.365 . S
N11 H31 0.862 . S
C12 C7 1.501 . S
C12 H13 0.961 . S
C12 H14 0.961 . S
C12 H15 0.960 . S
H13 C12 0.961 . S
H14 C12 0.961 . S
H15 C12 0.960 . S
C16 N17 1.342 . S
C16 C20 1.401 . S
C16 C21 1.499 . S
N17 Co0 1.989 . S
N17 C16 1.342 . S
N17 N18 1.388 . S
N18 Co1 1.993 1_556 S
N18 N17 1.388 . S
N18 C19 1.346 . S
C19 N18 1.346 . S
C19 C20 1.396 . S
C19 C29 1.510 . S
C20 C16 1.401 . S
C20 C19 1.396 . S
C21 C16 1.499 . S
C21 H22 0.959 . S
C21 H23 0.960 . S
C21 H24 0.961 . S
H22 C21 0.959 . S
H23 C21 0.960 . S
H24 C21 0.961 . S
O25 Co0 1.967 . S
O25 C33 1.258 1_556 S
O26 Co1 1.941 . S
O26 C33 1.266 . S
H27 C29 0.959 1_655 S
H28 C29 0.961 1_655 S
C29 C19 1.510 . S
C29 H27 0.959 1_455 S
C29 H28 0.961 1_455 S
C29 H30 0.960 1_556 S
H30 C29 0.960 1_554 S
H31 N11 0.862 . S
O32 Co0 1.920 . S
O32 C5 1.289 . S
C33 O25 1.258 1_554 S
C33 O26 1.266 . S
Co34 O37 1.970 1_556 S
Co34 N51 1.989 . S
Co34 O59 1.967 . S
Co34 O66 1.920 . S
Co35 O38 1.966 . S
Co35 N44 2.022 . S
Co35 N52 1.993 1_554 S
Co35 O60 1.941 . S
C36 O37 1.258 . S
C36 O38 1.263 . S
O37 Co34 1.970 1_554 S
O37 C36 1.258 . S
O38 Co35 1.966 . S
O38 C36 1.263 . S
C39 O40 1.235 . S
C39 O66 1.289 . S
O40 C39 1.235 . S
C41 C43 1.400 . S
C41 N44 1.351 . S
C41 C46 1.501 . S
C42 C43 1.387 . S
C42 N45 1.341 . S
C43 C41 1.400 . S
C43 C42 1.387 . S
N44 Co35 2.022 . S
N44 C41 1.351 . S
N44 N45 1.365 . S
N45 C42 1.341 . S
N45 N44 1.365 . S
N45 H65 0.862 . S
C46 C41 1.501 . S
C46 H47 0.961 . S
C46 H48 0.961 . S
C46 H49 0.960 . S
H47 C46 0.961 . S
H48 C46 0.961 . S
H49 C46 0.960 . S
C50 N51 1.342 . S
C50 C54 1.401 . S
C50 C55 1.499 . S
N51 Co34 1.989 . S
N51 C50 1.342 . S
N51 N52 1.388 . S
N52 Co35 1.993 1_556 S
N52 N51 1.388 . S
N52 C53 1.346 . S
C53 N52 1.346 . S
C53 C54 1.396 . S
C53 C63 1.510 . S
C54 C50 1.401 . S
C54 C53 1.396 . S
C55 C50 1.499 . S
C55 H56 0.959 . S
C55 H57 0.960 . S
C55 H58 0.961 . S
H56 C55 0.959 . S
H57 C55 0.960 . S
H58 C55 0.961 . S
O59 Co34 1.967 . S
O59 C67 1.258 1_556 S
O60 Co35 1.941 . S
O60 C67 1.266 . S
H61 C63 0.959 1_565 S
H62 C63 0.961 1_565 S
C63 C53 1.510 . S
C63 H61 0.959 1_545 S
C63 H62 0.961 1_545 S
C63 H64 0.960 1_556 S
H64 C63 0.960 1_554 S
H65 N45 0.862 . S
O66 Co34 1.920 . S
O66 C39 1.289 . S
C67 O59 1.258 1_554 S
C67 O60 1.266 . S
Co68 O71 1.970 1_556 S
Co68 N85 1.989 . S
Co68 O93 1.967 . S
Co68 O100 1.920 . S
Co69 O72 1.966 . S
Co69 N78 2.022 . S
Co69 N86 1.993 1_554 S
Co69 O94 1.941 . S
C70 O71 1.258 . S
C70 O72 1.263 . S
O71 Co68 1.970 1_554 S
O71 C70 1.258 . S
O72 Co69 1.966 . S
O72 C70 1.263 . S
C73 O74 1.235 . S
C73 O100 1.289 . S
O74 C73 1.235 . S
C75 C77 1.400 . S
C75 N78 1.351 . S
C75 C80 1.501 . S
C76 C77 1.387 . S
C76 N79 1.341 . S
C77 C75 1.400 . S
C77 C76 1.387 . S
N78 Co69 2.022 . S
N78 C75 1.351 . S
N78 N79 1.365 . S
N79 C76 1.341 . S
N79 N78 1.365 . S
N79 H99 0.862 . S
C80 C75 1.501 . S
C80 H81 0.961 . S
C80 H82 0.961 . S
C80 H83 0.960 . S
H81 C80 0.961 . S
H82 C80 0.961 . S
H83 C80 0.960 . S
C84 N85 1.342 . S
C84 C88 1.401 . S
C84 C89 1.499 . S
N85 Co68 1.989 . S
N85 C84 1.342 . S
N85 N86 1.388 . S
N86 Co69 1.993 1_556 S
N86 N85 1.388 . S
N86 C87 1.346 . S
C87 N86 1.346 . S
C87 C88 1.396 . S
C87 C97 1.510 . S
C88 C84 1.401 . S
C88 C87 1.396 . S
C89 C84 1.499 . S
C89 H90 0.959 . S
C89 H91 0.960 . S
C89 H92 0.961 . S
H90 C89 0.959 . S
H91 C89 0.960 . S
H92 C89 0.961 . S
O93 Co68 1.967 . S
O93 C101 1.258 1_556 S
O94 Co69 1.941 . S
O94 C101 1.266 . S
H95 C97 0.959 1_455 S
H96 C97 0.961 1_455 S
C97 C87 1.510 . S
C97 H95 0.959 1_655 S
C97 H96 0.961 1_655 S
C97 H98 0.960 1_556 S
H98 C97 0.960 1_554 S
H99 N79 0.862 . S
O100 Co68 1.920 . S
O100 C73 1.289 . S
C101 O93 1.258 1_554 S
C101 O94 1.266 . S
Co102 O105 1.970 1_556 S
Co102 N119 1.989 . S
Co102 O127 1.967 . S
Co102 O134 1.920 . S
Co103 O106 1.966 . S
Co103 N112 2.022 . S
Co103 N120 1.993 1_554 S
Co103 O128 1.941 . S
C104 O105 1.258 . S
C104 O106 1.263 . S
O105 Co102 1.970 1_554 S
O105 C104 1.258 . S
O106 Co103 1.966 . S
O106 C104 1.263 . S
C107 O108 1.235 . S
C107 O134 1.289 . S
O108 C107 1.235 . S
C109 C111 1.400 . S
C109 N112 1.351 . S
C109 C114 1.501 . S
C110 C111 1.387 . S
C110 N113 1.341 . S
C111 C109 1.400 . S
C111 C110 1.387 . S
N112 Co103 2.022 . S
N112 C109 1.351 . S
N112 N113 1.365 . S
N113 C110 1.341 . S
N113 N112 1.365 . S
N113 H133 0.862 . S
C114 C109 1.501 . S
C114 H115 0.961 . S
C114 H116 0.961 . S
C114 H117 0.960 . S
H115 C114 0.961 . S
H116 C114 0.961 . S
H117 C114 0.960 . S
C118 N119 1.342 . S
C118 C122 1.401 . S
C118 C123 1.499 . S
N119 Co102 1.989 . S
N119 C118 1.342 . S
N119 N120 1.388 . S
N120 Co103 1.993 1_556 S
N120 N119 1.388 . S
N120 C121 1.346 . S
C121 N120 1.346 . S
C121 C122 1.396 . S
C121 C131 1.510 . S
C122 C118 1.401 . S
C122 C121 1.396 . S
C123 C118 1.499 . S
C123 H124 0.959 . S
C123 H125 0.960 . S
C123 H126 0.961 . S
H124 C123 0.959 . S
H125 C123 0.960 . S
H126 C123 0.961 . S
O127 Co102 1.967 . S
O127 C135 1.258 1_556 S
O128 Co103 1.941 . S
O128 C135 1.266 . S
H129 C131 0.959 1_545 S
H130 C131 0.961 1_545 S
C131 C121 1.510 . S
C131 H129 0.959 1_565 S
C131 H130 0.961 1_565 S
C131 H132 0.960 1_556 S
H132 C131 0.960 1_554 S
H133 N113 0.862 . S
O134 Co102 1.920 . S
O134 C107 1.289 . S
C135 O127 1.258 1_554 S
C135 O128 1.266 . S
Co136 O139 1.970 . S
Co136 N153 1.989 . S
Co136 O161 1.967 . S
Co136 O168 1.920 . S
Co137 O140 1.966 . S
Co137 N146 2.022 . S
Co137 N154 1.993 . S
Co137 O162 1.941 . S
C138 O139 1.258 . S
C138 O140 1.263 . S
O139 Co136 1.970 . S
O139 C138 1.258 . S
O140 Co137 1.966 . S
O140 C138 1.263 . S
C141 O142 1.235 . S
C141 O168 1.289 . S
O142 C141 1.235 . S
C143 C145 1.400 . S
C143 N146 1.351 . S
C143 C148 1.501 . S
C144 C145 1.387 . S
C144 N147 1.341 . S
C145 C143 1.400 . S
C145 C144 1.387 . S
N146 Co137 2.022 . S
N146 C143 1.351 . S
N146 N147 1.365 . S
N147 C144 1.341 . S
N147 N146 1.365 . S
N147 H167 0.862 . S
C148 C143 1.501 . S
C148 H149 0.961 . S
C148 H150 0.961 . S
C148 H151 0.960 . S
H149 C148 0.961 . S
H150 C148 0.961 . S
H151 C148 0.960 . S
C152 N153 1.342 . S
C152 C156 1.401 . S
C152 C157 1.499 . S
N153 Co136 1.989 . S
N153 C152 1.342 . S
N153 N154 1.388 . S
N154 Co137 1.993 . S
N154 N153 1.388 . S
N154 C155 1.346 . S
C155 N154 1.346 . S
C155 C156 1.396 . S
C155 C165 1.510 . S
C156 C152 1.401 . S
C156 C155 1.396 . S
C157 C152 1.499 . S
C157 H158 0.959 . S
C157 H159 0.960 . S
C157 H160 0.961 . S
H158 C157 0.959 . S
H159 C157 0.960 . S
H160 C157 0.961 . S
O161 Co136 1.967 . S
O161 C169 1.258 . S
O162 Co137 1.941 . S
O162 C169 1.266 . S
H163 C165 0.959 1_655 S
H164 C165 0.961 1_655 S
C165 C155 1.510 . S
C165 H163 0.959 1_455 S
C165 H164 0.961 1_455 S
C165 H166 0.960 . S
H166 C165 0.960 . S
H167 N147 0.862 . S
O168 Co136 1.920 . S
O168 C141 1.289 . S
C169 O161 1.258 . S
C169 O162 1.266 . S
Co170 O173 1.970 . S
Co170 N187 1.989 . S
Co170 O195 1.967 . S
Co170 O202 1.920 . S
Co171 O174 1.966 . S
Co171 N180 2.022 . S
Co171 N188 1.993 . S
Co171 O196 1.941 . S
C172 O173 1.258 . S
C172 O174 1.263 . S
O173 Co170 1.970 . S
O173 C172 1.258 . S
O174 Co171 1.966 . S
O174 C172 1.263 . S
C175 O176 1.235 . S
C175 O202 1.289 . S
O176 C175 1.235 . S
C177 C179 1.400 . S
C177 N180 1.351 . S
C177 C182 1.501 . S
C178 C179 1.387 . S
C178 N181 1.341 . S
C179 C177 1.400 . S
C179 C178 1.387 . S
N180 Co171 2.022 . S
N180 C177 1.351 . S
N180 N181 1.365 . S
N181 C178 1.341 . S
N181 N180 1.365 . S
N181 H201 0.862 . S
C182 C177 1.501 . S
C182 H183 0.961 . S
C182 H184 0.961 . S
C182 H185 0.960 . S
H183 C182 0.961 . S
H184 C182 0.961 . S
H185 C182 0.960 . S
C186 N187 1.342 . S
C186 C190 1.401 . S
C186 C191 1.499 . S
N187 Co170 1.989 . S
N187 C186 1.342 . S
N187 N188 1.388 . S
N188 Co171 1.993 . S
N188 N187 1.388 . S
N188 C189 1.346 . S
C189 N188 1.346 . S
C189 C190 1.396 . S
C189 C199 1.510 . S
C190 C186 1.401 . S
C190 C189 1.396 . S
C191 C186 1.499 . S
C191 H192 0.959 . S
C191 H193 0.960 . S
C191 H194 0.961 . S
H192 C191 0.959 . S
H193 C191 0.960 . S
H194 C191 0.961 . S
O195 Co170 1.967 . S
O195 C203 1.258 . S
O196 Co171 1.941 . S
O196 C203 1.266 . S
H197 C199 0.959 1_565 S
H198 C199 0.961 1_565 S
C199 C189 1.510 . S
C199 H197 0.959 1_545 S
C199 H198 0.961 1_545 S
C199 H200 0.960 . S
H200 C199 0.960 . S
H201 N181 0.862 . S
O202 Co170 1.920 . S
O202 C175 1.289 . S
C203 O195 1.258 . S
C203 O196 1.266 . S
Co204 O207 1.970 . S
Co204 N221 1.989 . S
Co204 O229 1.967 . S
Co204 O236 1.920 . S
Co205 O208 1.966 . S
Co205 N214 2.022 . S
Co205 N222 1.993 . S
Co205 O230 1.941 . S
C206 O207 1.258 . S
C206 O208 1.263 . S
O207 Co204 1.970 . S
O207 C206 1.258 . S
O208 Co205 1.966 . S
O208 C206 1.263 . S
C209 O210 1.235 . S
C209 O236 1.289 . S
O210 C209 1.235 . S
C211 C213 1.400 . S
C211 N214 1.351 . S
C211 C216 1.501 . S
C212 C213 1.387 . S
C212 N215 1.341 . S
C213 C211 1.400 . S
C213 C212 1.387 . S
N214 Co205 2.022 . S
N214 C211 1.351 . S
N214 N215 1.365 . S
N215 C212 1.341 . S
N215 N214 1.365 . S
N215 H235 0.862 . S
C216 C211 1.501 . S
C216 H217 0.961 . S
C216 H218 0.961 . S
C216 H219 0.960 . S
H217 C216 0.961 . S
H218 C216 0.961 . S
H219 C216 0.960 . S
C220 N221 1.342 . S
C220 C224 1.401 . S
C220 C225 1.499 . S
N221 Co204 1.989 . S
N221 C220 1.342 . S
N221 N222 1.388 . S
N222 Co205 1.993 . S
N222 N221 1.388 . S
N222 C223 1.346 . S
C223 N222 1.346 . S
C223 C224 1.396 . S
C223 C233 1.510 . S
C224 C220 1.401 . S
C224 C223 1.396 . S
C225 C220 1.499 . S
C225 H226 0.959 . S
C225 H227 0.960 . S
C225 H228 0.961 . S
H226 C225 0.959 . S
H227 C225 0.960 . S
H228 C225 0.961 . S
O229 Co204 1.967 . S
O229 C237 1.258 . S
O230 Co205 1.941 . S
O230 C237 1.266 . S
H231 C233 0.959 1_455 S
H232 C233 0.961 1_455 S
C233 C223 1.510 . S
C233 H231 0.959 1_655 S
C233 H232 0.961 1_655 S
C233 H234 0.960 . S
H234 C233 0.960 . S
H235 N215 0.862 . S
O236 Co204 1.920 . S
O236 C209 1.289 . S
C237 O229 1.258 . S
C237 O230 1.266 . S
Co238 O241 1.970 . S
Co238 N255 1.989 . S
Co238 O263 1.967 . S
Co238 O270 1.920 . S
Co239 O242 1.966 . S
Co239 N248 2.022 . S
Co239 N256 1.993 . S
Co239 O264 1.941 . S
C240 O241 1.258 . S
C240 O242 1.263 . S
O241 Co238 1.970 . S
O241 C240 1.258 . S
O242 Co239 1.966 . S
O242 C240 1.263 . S
C243 O244 1.235 . S
C243 O270 1.289 . S
O244 C243 1.235 . S
C245 C247 1.400 . S
C245 N248 1.351 . S
C245 C250 1.501 . S
C246 C247 1.387 . S
C246 N249 1.341 . S
C247 C245 1.400 . S
C247 C246 1.387 . S
N248 Co239 2.022 . S
N248 C245 1.351 . S
N248 N249 1.365 . S
N249 C246 1.341 . S
N249 N248 1.365 . S
N249 H269 0.862 . S
C250 C245 1.501 . S
C250 H251 0.961 . S
C250 H252 0.961 . S
C250 H253 0.960 . S
H251 C250 0.961 . S
H252 C250 0.961 . S
H253 C250 0.960 . S
C254 N255 1.342 . S
C254 C258 1.401 . S
C254 C259 1.499 . S
N255 Co238 1.989 . S
N255 C254 1.342 . S
N255 N256 1.388 . S
N256 Co239 1.993 . S
N256 N255 1.388 . S
N256 C257 1.346 . S
C257 N256 1.346 . S
C257 C258 1.396 . S
C257 C267 1.510 . S
C258 C254 1.401 . S
C258 C257 1.396 . S
C259 C254 1.499 . S
C259 H260 0.959 . S
C259 H261 0.960 . S
C259 H262 0.961 . S
H260 C259 0.959 . S
H261 C259 0.960 . S
H262 C259 0.961 . S
O263 Co238 1.967 . S
O263 C271 1.258 . S
O264 Co239 1.941 . S
O264 C271 1.266 . S
H265 C267 0.959 1_545 S
H266 C267 0.961 1_545 S
C267 C257 1.510 . S
C267 H265 0.959 1_565 S
C267 H266 0.961 1_565 S
C267 H268 0.960 . S
H268 C267 0.960 . S
H269 N249 0.862 . S
O270 Co238 1.920 . S
O270 C243 1.289 . S
C271 O263 1.258 . S
C271 O264 1.266 . S
Co272 O275 1.970 . S
Co272 N289 1.989 . S
Co272 O297 1.967 . S
Co272 O304 1.920 . S
Co273 O276 1.966 . S
Co273 N282 2.022 . S
Co273 N290 1.993 . S
Co273 O298 1.941 . S
C274 O275 1.258 . S
C274 O276 1.263 . S
O275 Co272 1.970 . S
O275 C274 1.258 . S
O276 Co273 1.966 . S
O276 C274 1.263 . S
C277 O278 1.235 . S
C277 O304 1.289 . S
O278 C277 1.235 . S
C279 C281 1.400 . S
C279 N282 1.351 . S
C279 C284 1.501 . S
C280 C281 1.387 . S
C280 N283 1.341 . S
C281 C279 1.400 . S
C281 C280 1.387 . S
N282 Co273 2.022 . S
N282 C279 1.351 . S
N282 N283 1.365 . S
N283 C280 1.341 . S
N283 N282 1.365 . S
N283 H303 0.862 . S
C284 C279 1.501 . S
C284 H285 0.961 . S
C284 H286 0.961 . S
C284 H287 0.960 . S
H285 C284 0.961 . S
H286 C284 0.961 . S
H287 C284 0.960 . S
C288 N289 1.342 . S
C288 C292 1.401 . S
C288 C293 1.499 . S
N289 Co272 1.989 . S
N289 C288 1.342 . S
N289 N290 1.388 . S
N290 Co273 1.993 . S
N290 N289 1.388 . S
N290 C291 1.346 . S
C291 N290 1.346 . S
C291 C292 1.396 . S
C291 C301 1.510 . S
C292 C288 1.401 . S
C292 C291 1.396 . S
C293 C288 1.499 . S
C293 H294 0.959 . S
C293 H295 0.960 . S
C293 H296 0.961 . S
H294 C293 0.959 . S
H295 C293 0.960 . S
H296 C293 0.961 . S
O297 Co272 1.967 . S
O297 C305 1.258 . S
O298 Co273 1.941 . S
O298 C305 1.266 . S
H299 C301 0.959 . S
H300 C301 0.961 . S
C301 C291 1.510 . S
C301 H299 0.959 . S
C301 H300 0.961 . S
C301 H302 0.960 . S
H302 C301 0.960 . S
H303 N283 0.862 . S
O304 Co272 1.920 . S
O304 C277 1.289 . S
C305 O297 1.258 . S
C305 O298 1.266 . S
Co306 O309 1.970 . S
Co306 N323 1.989 . S
Co306 O331 1.967 . S
Co306 O338 1.920 . S
Co307 O310 1.966 . S
Co307 N316 2.022 . S
Co307 N324 1.993 . S
Co307 O332 1.941 . S
C308 O309 1.258 . S
C308 O310 1.263 . S
O309 Co306 1.970 . S
O309 C308 1.258 . S
O310 Co307 1.966 . S
O310 C308 1.263 . S
C311 O312 1.235 . S
C311 O338 1.289 . S
O312 C311 1.235 . S
C313 C315 1.400 . S
C313 N316 1.351 . S
C313 C318 1.501 . S
C314 C315 1.387 . S
C314 N317 1.341 . S
C315 C313 1.400 . S
C315 C314 1.387 . S
N316 Co307 2.022 . S
N316 C313 1.351 . S
N316 N317 1.365 . S
N317 C314 1.341 . S
N317 N316 1.365 . S
N317 H337 0.862 . S
C318 C313 1.501 . S
C318 H319 0.961 . S
C318 H320 0.961 . S
C318 H321 0.960 . S
H319 C318 0.961 . S
H320 C318 0.961 . S
H321 C318 0.960 . S
C322 N323 1.342 . S
C322 C326 1.401 . S
C322 C327 1.499 . S
N323 Co306 1.989 . S
N323 C322 1.342 . S
N323 N324 1.388 . S
N324 Co307 1.993 . S
N324 N323 1.388 . S
N324 C325 1.346 . S
C325 N324 1.346 . S
C325 C326 1.396 . S
C325 C335 1.510 . S
C326 C322 1.401 . S
C326 C325 1.396 . S
C327 C322 1.499 . S
C327 H328 0.959 . S
C327 H329 0.960 . S
C327 H330 0.961 . S
H328 C327 0.959 . S
H329 C327 0.960 . S
H330 C327 0.961 . S
O331 Co306 1.967 . S
O331 C339 1.258 . S
O332 Co307 1.941 . S
O332 C339 1.266 . S
H333 C335 0.959 . S
H334 C335 0.961 . S
C335 C325 1.510 . S
C335 H333 0.959 . S
C335 H334 0.961 . S
C335 H336 0.960 . S
H336 C335 0.960 . S
H337 N317 0.862 . S
O338 Co306 1.920 . S
O338 C311 1.289 . S
C339 O331 1.258 . S
C339 O332 1.266 . S
Co340 O343 1.970 . S
Co340 N357 1.989 . S
Co340 O365 1.967 . S
Co340 O372 1.920 . S
Co341 O344 1.966 . S
Co341 N350 2.022 . S
Co341 N358 1.993 . S
Co341 O366 1.941 . S
C342 O343 1.258 . S
C342 O344 1.263 . S
O343 Co340 1.970 . S
O343 C342 1.258 . S
O344 Co341 1.966 . S
O344 C342 1.263 . S
C345 O346 1.235 . S
C345 O372 1.289 . S
O346 C345 1.235 . S
C347 C349 1.400 . S
C347 N350 1.351 . S
C347 C352 1.501 . S
C348 C349 1.387 . S
C348 N351 1.341 . S
C349 C347 1.400 . S
C349 C348 1.387 . S
N350 Co341 2.022 . S
N350 C347 1.351 . S
N350 N351 1.365 . S
N351 C348 1.341 . S
N351 N350 1.365 . S
N351 H371 0.862 . S
C352 C347 1.501 . S
C352 H353 0.961 . S
C352 H354 0.961 . S
C352 H355 0.960 . S
H353 C352 0.961 . S
H354 C352 0.961 . S
H355 C352 0.960 . S
C356 N357 1.342 . S
C356 C360 1.401 . S
C356 C361 1.499 . S
N357 Co340 1.989 . S
N357 C356 1.342 . S
N357 N358 1.388 . S
N358 Co341 1.993 . S
N358 N357 1.388 . S
N358 C359 1.346 . S
C359 N358 1.346 . S
C359 C360 1.396 . S
C359 C369 1.510 . S
C360 C356 1.401 . S
C360 C359 1.396 . S
C361 C356 1.499 . S
C361 H362 0.959 . S
C361 H363 0.960 . S
C361 H364 0.961 . S
H362 C361 0.959 . S
H363 C361 0.960 . S
H364 C361 0.961 . S
O365 Co340 1.967 . S
O365 C373 1.258 . S
O366 Co341 1.941 . S
O366 C373 1.266 . S
H367 C369 0.959 . S
H368 C369 0.961 . S
C369 C359 1.510 . S
C369 H367 0.959 . S
C369 H368 0.961 . S
C369 H370 0.960 . S
H370 C369 0.960 . S
H371 N351 0.862 . S
O372 Co340 1.920 . S
O372 C345 1.289 . S
C373 O365 1.258 . S
C373 O366 1.266 . S
Co374 O377 1.970 . S
Co374 N391 1.989 . S
Co374 O399 1.967 . S
Co374 O406 1.920 . S
Co375 O378 1.966 . S
Co375 N384 2.022 . S
Co375 N392 1.993 . S
Co375 O400 1.941 . S
C376 O377 1.258 . S
C376 O378 1.263 . S
O377 Co374 1.970 . S
O377 C376 1.258 . S
O378 Co375 1.966 . S
O378 C376 1.263 . S
C379 O380 1.235 . S
C379 O406 1.289 . S
O380 C379 1.235 . S
C381 C383 1.400 . S
C381 N384 1.351 . S
C381 C386 1.501 . S
C382 C383 1.387 . S
C382 N385 1.341 . S
C383 C381 1.400 . S
C383 C382 1.387 . S
N384 Co375 2.022 . S
N384 C381 1.351 . S
N384 N385 1.365 . S
N385 C382 1.341 . S
N385 N384 1.365 . S
N385 H405 0.862 . S
C386 C381 1.501 . S
C386 H387 0.961 . S
C386 H388 0.961 . S
C386 H389 0.960 . S
H387 C386 0.961 . S
H388 C386 0.961 . S
H389 C386 0.960 . S
C390 N391 1.342 . S
C390 C394 1.401 . S
C390 C395 1.499 . S
N391 Co374 1.989 . S
N391 C390 1.342 . S
N391 N392 1.388 . S
N392 Co375 1.993 . S
N392 N391 1.388 . S
N392 C393 1.346 . S
C393 N392 1.346 . S
C393 C394 1.396 . S
C393 C403 1.510 . S
C394 C390 1.401 . S
C394 C393 1.396 . S
C395 C390 1.499 . S
C395 H396 0.959 . S
C395 H397 0.960 . S
C395 H398 0.961 . S
H396 C395 0.959 . S
H397 C395 0.960 . S
H398 C395 0.961 . S
O399 Co374 1.967 . S
O399 C407 1.258 . S
O400 Co375 1.941 . S
O400 C407 1.266 . S
H401 C403 0.959 . S
H402 C403 0.961 . S
C403 C393 1.510 . S
C403 H401 0.959 . S
C403 H402 0.961 . S
C403 H404 0.960 . S
H404 C403 0.960 . S
H405 N385 0.862 . S
O406 Co374 1.920 . S
O406 C379 1.289 . S
C407 O399 1.258 . S
C407 O400 1.266 . S
Co408 O411 1.970 1_554 S
Co408 N425 1.989 . S
Co408 O433 1.967 . S
Co408 O440 1.920 . S
Co409 O412 1.966 . S
Co409 N418 2.022 . S
Co409 N426 1.993 1_556 S
Co409 O434 1.941 . S
C410 O411 1.258 . S
C410 O412 1.263 . S
O411 Co408 1.970 1_556 S
O411 C410 1.258 . S
O412 Co409 1.966 . S
O412 C410 1.263 . S
C413 O414 1.235 . S
C413 O440 1.289 . S
O414 C413 1.235 . S
C415 C417 1.400 . S
C415 N418 1.351 . S
C415 C420 1.501 . S
C416 C417 1.387 . S
C416 N419 1.341 . S
C417 C415 1.400 . S
C417 C416 1.387 . S
N418 Co409 2.022 . S
N418 C415 1.351 . S
N418 N419 1.365 . S
N419 C416 1.341 . S
N419 N418 1.365 . S
N419 H439 0.862 . S
C420 C415 1.501 . S
C420 H421 0.961 . S
C420 H422 0.961 . S
C420 H423 0.960 . S
H421 C420 0.961 . S
H422 C420 0.961 . S
H423 C420 0.960 . S
C424 N425 1.342 . S
C424 C428 1.401 . S
C424 C429 1.499 . S
N425 Co408 1.989 . S
N425 C424 1.342 . S
N425 N426 1.388 . S
N426 Co409 1.993 1_554 S
N426 N425 1.388 . S
N426 C427 1.346 . S
C427 N426 1.346 . S
C427 C428 1.396 . S
C427 C437 1.510 . S
C428 C424 1.401 . S
C428 C427 1.396 . S
C429 C424 1.499 . S
C429 H430 0.959 . S
C429 H431 0.960 . S
C429 H432 0.961 . S
H430 C429 0.959 . S
H431 C429 0.960 . S
H432 C429 0.961 . S
O433 Co408 1.967 . S
O433 C441 1.258 1_554 S
O434 Co409 1.941 . S
O434 C441 1.266 . S
H435 C437 0.959 . S
H436 C437 0.961 . S
C437 C427 1.510 . S
C437 H435 0.959 . S
C437 H436 0.961 . S
C437 H438 0.960 1_554 S
H438 C437 0.960 1_556 S
H439 N419 0.862 . S
O440 Co408 1.920 . S
O440 C413 1.289 . S
C441 O433 1.258 1_556 S
C441 O434 1.266 . S
Co442 O445 1.970 1_554 S
Co442 N459 1.989 . S
Co442 O467 1.967 . S
Co442 O474 1.920 . S
Co443 O446 1.966 . S
Co443 N452 2.022 . S
Co443 N460 1.993 1_556 S
Co443 O468 1.941 . S
C444 O445 1.258 . S
C444 O446 1.263 . S
O445 Co442 1.970 1_556 S
O445 C444 1.258 . S
O446 Co443 1.966 . S
O446 C444 1.263 . S
C447 O448 1.235 . S
C447 O474 1.289 . S
O448 C447 1.235 . S
C449 C451 1.400 . S
C449 N452 1.351 . S
C449 C454 1.501 . S
C450 C451 1.387 . S
C450 N453 1.341 . S
C451 C449 1.400 . S
C451 C450 1.387 . S
N452 Co443 2.022 . S
N452 C449 1.351 . S
N452 N453 1.365 . S
N453 C450 1.341 . S
N453 N452 1.365 . S
N453 H473 0.862 . S
C454 C449 1.501 . S
C454 H455 0.961 . S
C454 H456 0.961 . S
C454 H457 0.960 . S
H455 C454 0.961 . S
H456 C454 0.961 . S
H457 C454 0.960 . S
C458 N459 1.342 . S
C458 C462 1.401 . S
C458 C463 1.499 . S
N459 Co442 1.989 . S
N459 C458 1.342 . S
N459 N460 1.388 . S
N460 Co443 1.993 1_554 S
N460 N459 1.388 . S
N460 C461 1.346 . S
C461 N460 1.346 . S
C461 C462 1.396 . S
C461 C471 1.510 . S
C462 C458 1.401 . S
C462 C461 1.396 . S
C463 C458 1.499 . S
C463 H464 0.959 . S
C463 H465 0.960 . S
C463 H466 0.961 . S
H464 C463 0.959 . S
H465 C463 0.960 . S
H466 C463 0.961 . S
O467 Co442 1.967 . S
O467 C475 1.258 1_554 S
O468 Co443 1.941 . S
O468 C475 1.266 . S
H469 C471 0.959 . S
H470 C471 0.961 . S
C471 C461 1.510 . S
C471 H469 0.959 . S
C471 H470 0.961 . S
C471 H472 0.960 1_554 S
H472 C471 0.960 1_556 S
H473 N453 0.862 . S
O474 Co442 1.920 . S
O474 C447 1.289 . S
C475 O467 1.258 1_556 S
C475 O468 1.266 . S
Co476 O479 1.970 1_554 S
Co476 N493 1.989 . S
Co476 O501 1.967 . S
Co476 O508 1.920 . S
Co477 O480 1.966 . S
Co477 N486 2.022 . S
Co477 N494 1.993 1_556 S
Co477 O502 1.941 . S
C478 O479 1.258 . S
C478 O480 1.263 . S
O479 Co476 1.970 1_556 S
O479 C478 1.258 . S
O480 Co477 1.966 . S
O480 C478 1.263 . S
C481 O482 1.235 . S
C481 O508 1.289 . S
O482 C481 1.235 . S
C483 C485 1.400 . S
C483 N486 1.351 . S
C483 C488 1.501 . S
C484 C485 1.387 . S
C484 N487 1.341 . S
C485 C483 1.400 . S
C485 C484 1.387 . S
N486 Co477 2.022 . S
N486 C483 1.351 . S
N486 N487 1.365 . S
N487 C484 1.341 . S
N487 N486 1.365 . S
N487 H507 0.862 . S
C488 C483 1.501 . S
C488 H489 0.961 . S
C488 H490 0.961 . S
C488 H491 0.960 . S
H489 C488 0.961 . S
H490 C488 0.961 . S
H491 C488 0.960 . S
C492 N493 1.342 . S
C492 C496 1.401 . S
C492 C497 1.499 . S
N493 Co476 1.989 . S
N493 C492 1.342 . S
N493 N494 1.388 . S
N494 Co477 1.993 1_554 S
N494 N493 1.388 . S
N494 C495 1.346 . S
C495 N494 1.346 . S
C495 C496 1.396 . S
C495 C505 1.510 . S
C496 C492 1.401 . S
C496 C495 1.396 . S
C497 C492 1.499 . S
C497 H498 0.959 . S
C497 H499 0.960 . S
C497 H500 0.961 . S
H498 C497 0.959 . S
H499 C497 0.960 . S
H500 C497 0.961 . S
O501 Co476 1.967 . S
O501 C509 1.258 1_554 S
O502 Co477 1.941 . S
O502 C509 1.266 . S
H503 C505 0.959 . S
H504 C505 0.961 . S
C505 C495 1.510 . S
C505 H503 0.959 . S
C505 H504 0.961 . S
C505 H506 0.960 1_554 S
H506 C505 0.960 1_556 S
H507 N487 0.862 . S
O508 Co476 1.920 . S
O508 C481 1.289 . S
C509 O501 1.258 1_556 S
C509 O502 1.266 . S
Co510 O513 1.970 1_554 S
Co510 N527 1.989 . S
Co510 O535 1.967 . S
Co510 O542 1.920 . S
Co511 O514 1.966 . S
Co511 N520 2.022 . S
Co511 N528 1.993 1_556 S
Co511 O536 1.941 . S
C512 O513 1.258 . S
C512 O514 1.263 . S
O513 Co510 1.970 1_556 S
O513 C512 1.258 . S
O514 Co511 1.966 . S
O514 C512 1.263 . S
C515 O516 1.235 . S
C515 O542 1.289 . S
O516 C515 1.235 . S
C517 C519 1.400 . S
C517 N520 1.351 . S
C517 C522 1.501 . S
C518 C519 1.387 . S
C518 N521 1.341 . S
C519 C517 1.400 . S
C519 C518 1.387 . S
N520 Co511 2.022 . S
N520 C517 1.351 . S
N520 N521 1.365 . S
N521 C518 1.341 . S
N521 N520 1.365 . S
N521 H541 0.862 . S
C522 C517 1.501 . S
C522 H523 0.961 . S
C522 H524 0.961 . S
C522 H525 0.960 . S
H523 C522 0.961 . S
H524 C522 0.961 . S
H525 C522 0.960 . S
C526 N527 1.342 . S
C526 C530 1.401 . S
C526 C531 1.499 . S
N527 Co510 1.989 . S
N527 C526 1.342 . S
N527 N528 1.388 . S
N528 Co511 1.993 1_554 S
N528 N527 1.388 . S
N528 C529 1.346 . S
C529 N528 1.346 . S
C529 C530 1.396 . S
C529 C539 1.510 . S
C530 C526 1.401 . S
C530 C529 1.396 . S
C531 C526 1.499 . S
C531 H532 0.959 . S
C531 H533 0.960 . S
C531 H534 0.961 . S
H532 C531 0.959 . S
H533 C531 0.960 . S
H534 C531 0.961 . S
O535 Co510 1.967 . S
O535 C543 1.258 1_554 S
O536 Co511 1.941 . S
O536 C543 1.266 . S
H537 C539 0.959 . S
H538 C539 0.961 . S
C539 C529 1.510 . S
C539 H537 0.959 . S
C539 H538 0.961 . S
C539 H540 0.960 1_554 S
H540 C539 0.960 1_556 S
H541 N521 0.862 . S
O542 Co510 1.920 . S
O542 C515 1.289 . S
C543 O535 1.258 1_556 S
C543 O536 1.266 . S
C33 C543 1.002 1_554 S
C441 C67 1.002 1_556 S
C475 C101 1.002 1_556 S
C509 C135 1.002 1_556 S
C169 C339 1.002 . S
C373 C203 1.002 . S
C407 C237 1.002 . S
C271 C305 1.002 . S
C213 C9 0.877 1_655 S
C247 C43 0.877 1_565 S
C145 C77 0.877 1_455 S
C179 C111 0.877 1_545 S
C156 C88 3.164 1_455 S
C122 C190 3.164 1_565 S
C224 C20 3.164 1_655 S
C54 C258 3.164 1_545 S
C281 C485 0.877 . S
C519 C315 0.877 . S
C417 C349 0.877 . S
C451 C383 0.877 . S
C428 C360 3.164 . S
C462 C394 3.164 . S
C292 C496 3.164 . S
C326 C530 3.164 . S
C172 C2 4.211 . S
C36 C206 4.211 . S
C240 C70 4.211 . S
C104 C138 4.211 . S
C73 C243 0.411 . S
C141 C107 0.411 . S
C175 C5 0.411 . S
C39 C209 0.411 . S
C444 C274 4.211 . S
C308 C478 4.211 . S
C512 C342 4.211 . S
C376 C410 4.211 . S
C515 C345 0.411 . S
C379 C413 0.411 . S
C447 C277 0.411 . S
C311 C481 0.411 . S
