# Generated by pormake.
# Topology smu, (6)-cn, num edge types: 1
# Building blocks:
#     Node 0, Type 0, BuildingBlock: OJICUG_clean_sbu_0, # of connection points: 6
#     Node 1, Type 0, BuildingBlock: OJICUG_clean_sbu_0, # of connection points: 6
#     Node 2, Type 0, BuildingBlock: OJICUG_clean_sbu_0, # of connection points: 6
#     Node 3, Type 0, BuildingBlock: OJICUG_clean_sbu_0, # of connection points: 6
#     Node 4, Type 0, BuildingBlock: OJICUG_clean_sbu_0, # of connection points: 6
#     Node 5, Type 0, BuildingBlock: OJICUG_clean_sbu_0, # of connection points: 6
#     Edge 6, Type (0, 0), BuildingBlock: FUNLAD_clean_linker_1, # of connection points: 2
#     Edge 7, Type (0, 0), BuildingBlock: FUNLAD_clean_linker_1, # of connection points: 2
#     Edge 8, Type (0, 0), BuildingBlock: FUNLAD_clean_linker_1, # of connection points: 2
#     Edge 9, Type (0, 0), BuildingBlock: FUNLAD_clean_linker_1, # of connection points: 2
#     Edge 10, Type (0, 0), BuildingBlock: FUNLAD_clean_linker_1, # of connection points: 2
#     Edge 11, Type (0, 0), BuildingBlock: FUNLAD_clean_linker_1, # of connection points: 2
#     Edge 12, Type (0, 0), BuildingBlock: FUNLAD_clean_linker_1, # of connection points: 2
#     Edge 13, Type (0, 0), BuildingBlock: FUNLAD_clean_linker_1, # of connection points: 2
#     Edge 14, Type (0, 0), BuildingBlock: FUNLAD_clean_linker_1, # of connection points: 2
#     Edge 15, Type (0, 0), BuildingBlock: FUNLAD_clean_linker_1, # of connection points: 2
#     Edge 16, Type (0, 0), BuildingBlock: FUNLAD_clean_linker_1, # of connection points: 2
#     Edge 17, Type (0, 0), BuildingBlock: FUNLAD_clean_linker_1, # of connection points: 2
#     Edge 18, Type (0, 0), BuildingBlock: FUNLAD_clean_linker_1, # of connection points: 2
#     Edge 19, Type (0, 0), BuildingBlock: FUNLAD_clean_linker_1, # of connection points: 2
#     Edge 20, Type (0, 0), BuildingBlock: FUNLAD_clean_linker_1, # of connection points: 2
#     Edge 21, Type (0, 0), BuildingBlock: FUNLAD_clean_linker_1, # of connection points: 2
#     Edge 22, Type (0, 0), BuildingBlock: FUNLAD_clean_linker_1, # of connection points: 2
#     Edge 23, Type (0, 0), BuildingBlock: FUNLAD_clean_linker_1, # of connection points: 2
# Relax obj value: 0.250
# Max RMSD: 0.294
# Mean RMSD: 0.265
data_MOF--net-smu--node1-OJICUG_clean_sbu_0--edge1-FUNLAD_clean_linker_1
_symmetry_space_group_name_H-M    P1
_symmetry_Int_Tables_number       1
_symmetry_cell_setting            triclinic
loop_
_symmetry_equiv_pos_as_xyz
'x, y, z'
_cell_length_a     31.362824
_cell_length_b     31.272406
_cell_length_c     31.994079
_cell_angle_alpha  95.681954
_cell_angle_beta   95.638908
_cell_angle_gamma 120.25735
loop_
_atom_site_label
_atom_site_type_symbol
_atom_site_fract_x
_atom_site_fract_y
_atom_site_fract_z
_atom_type_partial_charge
Sc0 Sc 0.27784 0.06168 0.20323 0.0
Sc1 Sc 0.32947 0.99443 0.24507 0.0
Sc2 Sc 0.35268 0.10771 0.30488 0.0
O3 O 0.3197 0.05441 0.25125 0.0
C4 C 0.36659 0.1759 0.23395 0.0
C5 C 0.33782 0.02396 0.15236 0.0
C6 C 0.43836 0.08545 0.28626 0.0
C7 C 0.21515 0.94288 0.20342 0.0
C8 C 0.24507 0.09587 0.28461 0.0
C9 C 0.31977 0.00769 0.34345 0.0
O10 O 0.32947 0.14134 0.20711 0.0
O11 O 0.34255 -0.00013 0.18033 0.0
O12 O 0.42368 0.11227 0.30486 0.0
O13 O 0.22024 0.98321 0.193 0.0
O14 O 0.28566 0.11048 0.30983 0.0
O15 O 0.3196 0.98234 0.30976 0.0
O16 O 0.23644 0.0759 0.24582 0.0
O17 O 0.25068 0.9408 0.22395 0.0
O18 O 0.32936 0.05256 0.34584 0.0
O19 O 0.31634 0.04895 0.1566 0.0
O20 O 0.3803 0.16899 0.27004 0.0
O21 O 0.40873 0.04232 0.26387 0.0
Sc22 Sc 0.74475 0.61331 0.18203 0.0
Sc23 Sc 0.68335 0.6527 0.24957 0.0
Sc24 Sc 0.81255 0.69809 0.2775 0.0
O25 O 0.7468 0.65472 0.23635 0.0
C26 C 0.8198 0.60239 0.24731 0.0
C27 C 0.64238 0.53767 0.21141 0.0
C28 C 0.73505 0.65145 0.34087 0.0
C29 C 0.6724 0.65144 0.14905 0.0
C30 C 0.84782 0.71651 0.18766 0.0
C31 C 0.76602 0.76828 0.28168 0.0
O32 O 0.78846 0.58764 0.21328 0.0
O33 O 0.63824 0.5718 0.23234 0.0
O34 O 0.77853 0.67031 0.33129 0.0
O35 O 0.70036 0.6336 0.14401 0.0
O36 O 0.85243 0.72976 0.22741 0.0
O37 O 0.7208 0.73322 0.26842 0.0
O38 O 0.8115 0.67529 0.16625 0.0
O39 O 0.66354 0.66224 0.18538 0.0
O40 O 0.80226 0.7609 0.28628 0.0
O41 O 0.67913 0.54683 0.19254 0.0
O42 O 0.83226 0.6413 0.27396 0.0
O43 O 0.69684 0.64344 0.31533 0.0
Sc44 Sc 0.88714 0.18958 0.2123 0.0
Sc45 Sc 0.98602 0.30855 0.26165 0.0
Sc46 Sc 0.88268 0.24499 0.31037 0.0
O47 O 0.91816 0.24758 0.26109 0.0
C48 C 0.79425 0.19955 0.23282 0.0
C49 C 0.9398 0.27686 0.16163 0.0
C50 C 0.93065 0.35881 0.29452 0.0
C51 C 0.00138 0.21933 0.23494 0.0
C52 C 0.8542 0.13079 0.28866 0.0
C53 C 0.98833 0.30146 0.36127 0.0
O54 O 0.81303 0.17948 0.2103 0.0
O55 O 0.9765 0.30321 0.19224 0.0
O56 O 0.90819 0.32417 0.31614 0.0
O57 O 0.95833 0.19363 0.21117 0.0
O58 O 0.8528 0.16575 0.31116 0.0
O59 O 0.00622 0.32517 0.33116 0.0
O60 O 0.87054 0.13556 0.25363 0.0
O61 O 0.0168 0.26122 0.25874 0.0
O62 O 0.94601 0.2611 0.355 0.0
O63 O 0.90016 0.23755 0.16589 0.0
O64 O 0.81715 0.2285 0.26847 0.0
O65 O 0.95533 0.35605 0.26612 0.0
Sc66 Sc 0.06964 0.31555 0.71181 0.0
Sc67 Sc 0.00317 0.35371 0.77318 0.0
Sc68 Sc 0.1301 0.3948 0.81005 0.0
O69 O 0.06733 0.3544 0.76519 0.0
C70 C 0.13067 0.29498 0.78521 0.0
C71 C 0.96307 0.23951 0.73482 0.0
C72 C 0.04546 0.35778 0.86903 0.0
C73 C 0.00377 0.35773 0.67391 0.0
C74 C 0.17727 0.41102 0.72461 0.0
C75 C 0.08951 0.46905 0.79965 0.0
O76 O 0.10964 0.28825 0.74713 0.0
O77 O 0.95793 0.27297 0.75567 0.0
O78 O 0.09034 0.37767 0.86281 0.0
O79 O 0.03155 0.33953 0.671 0.0
O80 O 0.18044 0.41848 0.7648 0.0
O81 O 0.04362 0.43417 0.79102 0.0
O82 O 0.13765 0.37757 0.69982 0.0
O83 O 0.9888 0.36427 0.70815 0.0
O84 O 0.12573 0.46139 0.80638 0.0
O85 O 0.00115 0.24935 0.71758 0.0
O86 O 0.13758 0.32982 0.81437 0.0
O87 O 0.00878 0.34424 0.83939 0.0
Sc88 Sc 0.17882 0.90404 0.71205 0.0
Sc89 Sc 0.30756 0.99473 0.74489 0.0
Sc90 Sc 0.24668 0.895 0.80105 0.0
O91 O 0.24432 0.93118 0.7525 0.0
C92 C 0.1366 0.87479 0.79813 0.0
C93 C 0.22231 0.02216 0.73427 0.0
C94 C 0.3155 0.00747 0.84624 0.0
C95 C 0.25612 0.94645 0.64783 0.0
C96 C 0.18398 0.80611 0.72186 0.0
C97 C 0.35147 0.92837 0.76981 0.0
O98 O 0.13384 0.88411 0.76069 0.0
O99 O 0.26805 0.03446 0.74162 0.0
O100 O 0.28144 0.9626 0.84676 0.0
O101 O 0.21255 0.91972 0.65609 0.0
O102 O 0.21221 0.82522 0.75811 0.0
O103 O 0.35145 0.95986 0.74769 0.0
O104 O 0.16786 0.82895 0.70034 0.0
O105 O 0.29426 0.97488 0.67642 0.0
O106 O 0.31809 0.90545 0.79216 0.0
O107 O 0.18576 0.9769 0.72308 0.0
O108 O 0.17514 0.8773 0.81763 0.0
O109 O 0.33129 0.02368 0.81268 0.0
Sc110 Sc 0.62244 0.75007 0.68778 0.0
Sc111 Sc 0.65908 0.67392 0.7361 0.0
Sc112 Sc 0.69157 0.79292 0.79133 0.0
O113 O 0.65789 0.73889 0.73837 0.0
C114 C 0.71956 0.85785 0.71627 0.0
C115 C 0.66808 0.69228 0.64002 0.0
C116 C 0.77003 0.75747 0.78214 0.0
C117 C 0.54627 0.63621 0.69525 0.0
C118 C 0.59464 0.79785 0.76553 0.0
C119 C 0.64638 0.69403 0.83298 0.0
O120 O 0.68594 0.82336 0.68699 0.0
O121 O 0.67522 0.67312 0.67132 0.0
O122 O 0.75856 0.78966 0.79453 0.0
O123 O 0.55609 0.67798 0.68461 0.0
O124 O 0.62803 0.80159 0.79397 0.0
O125 O 0.64297 0.66519 0.80021 0.0
O126 O 0.59001 0.78192 0.72635 0.0
O127 O 0.57942 0.62859 0.71298 0.0
O128 O 0.66294 0.74046 0.834 0.0
O129 O 0.64964 0.72007 0.64219 0.0
O130 O 0.72434 0.85237 0.75496 0.0
O131 O 0.73867 0.7141 0.76038 0.0
H132 H 0.31894 0.04942 0.90622 0.0
C133 C 0.34101 0.03961 0.8877 0.0
H134 H 0.39905 0.02389 0.8904 0.0
H135 H 0.43068 0.13417 0.08913 0.0
H136 H 0.49198 0.20941 0.06504 0.0
H137 H 0.50298 0.20757 0.98967 0.0
H138 H 0.45389 0.1297 0.93811 0.0
C139 C 0.38003 0.03876 0.90801 0.0
C140 C 0.38384 0.03883 0.95448 0.0
C141 C 0.41204 0.08436 0.98368 0.0
C142 C 0.40476 0.08555 0.02676 0.0
C143 C 0.43407 0.13144 0.05576 0.0
C144 C 0.46933 0.17482 0.04236 0.0
C145 C 0.47567 0.17373 0.99992 0.0
C146 C 0.44727 0.12907 0.97069 0.0
H147 H 0.37438 -0.00073 0.10829 0.0
C148 C 0.35744 0.02198 0.11275 0.0
H149 H 0.33756 0.0701 0.08636 0.0
H150 H 0.33541 0.94346 0.90875 0.0
H151 H 0.27496 0.86725 0.93193 0.0
H152 H 0.25434 0.87018 0.00423 0.0
H153 H 0.29462 0.94849 0.05377 0.0
C154 C 0.35266 0.04576 0.08157 0.0
C155 C 0.36816 0.0414 0.03987 0.0
C156 C 0.34263 0.99487 0.01118 0.0
C157 C 0.35226 0.99347 0.96883 0.0
C158 C 0.32791 0.94666 0.94085 0.0
C159 C 0.29338 0.90267 0.9538 0.0
C160 C 0.28194 0.90431 0.99453 0.0
C161 C 0.30588 0.94973 0.02291 0.0
H162 H 0.677 0.70456 0.57478 0.0
C163 C 0.68066 0.68311 0.59824 0.0
H164 H 0.69491 0.62515 0.60781 0.0
H165 H 0.62637 0.54491 0.40621 0.0
H166 H 0.56943 0.47194 0.43542 0.0
H167 H 0.57108 0.47642 0.51296 0.0
H168 H 0.6305 0.55346 0.56208 0.0
C169 C 0.69337 0.64925 0.58625 0.0
C170 C 0.70036 0.64203 0.54108 0.0
C171 C 0.66549 0.59678 0.51283 0.0
C172 C 0.66395 0.59451 0.46797 0.0
C173 C 0.62878 0.54881 0.44049 0.0
C174 C 0.59588 0.50672 0.4568 0.0
C175 C 0.59686 0.50921 0.50051 0.0
C176 C 0.63107 0.55366 0.52836 0.0
H177 H 0.76372 0.64475 0.40379 0.0
C178 C 0.73116 0.64165 0.38492 0.0
H179 H 0.66005 0.63296 0.38659 0.0
H180 H 0.78036 0.72899 0.58674 0.0
H181 H 0.83748 0.80267 0.55844 0.0
H182 H 0.82874 0.80283 0.48097 0.0
H183 H 0.76431 0.72928 0.43148 0.0
C184 C 0.69319 0.63626 0.40441 0.0
C185 C 0.69698 0.63765 0.45146 0.0
C186 C 0.73349 0.68227 0.47997 0.0
C187 C 0.73648 0.68353 0.52472 0.0
C188 C 0.77517 0.72718 0.55252 0.0
C189 C 0.80832 0.76951 0.5367 0.0
C190 C 0.80355 0.76949 0.4931 0.0
C191 C 0.76658 0.72664 0.46495 0.0
H192 H 0.91048 0.26529 0.09352 0.0
C193 C 0.94336 0.28882 0.11807 0.0
H194 H 0.01956 0.34735 0.12992 0.0
H195 H 0.99276 0.25362 0.92881 0.0
H196 H 0.00027 0.18924 0.95926 0.0
H197 H 0.00352 0.18778 0.03643 0.0
H198 H -0.00133 0.25032 0.08352 0.0
C199 C 0.98577 0.32337 0.10647 0.0
C200 C 0.98801 0.32692 0.06049 0.0
C201 C 0.99238 0.29094 0.03355 0.0
C202 C 0.99219 0.29277 0.98925 0.0
C203 C -0.00556 0.25505 0.96288 0.0
C204 C -0.00158 0.21765 0.9799 0.0
C205 C 0.00011 0.21674 0.02333 0.0
C206 C -0.0029 0.2528 0.04998 0.0
H207 H 0.06913 0.35776 0.93607 0.0
C208 C 0.03719 0.35029 0.9131 0.0
H209 H 0.96144 0.33081 0.9049 0.0
H210 H 0.97912 0.4013 0.10316 0.0
H211 H 0.97283 0.46661 0.07294 0.0
H212 H 0.97423 0.47094 0.99646 0.0
H213 H 0.98169 0.40992 0.94961 0.0
C214 C 0.99342 0.33622 0.92646 0.0
C215 C 0.98929 0.33158 0.97213 0.0
C216 C 0.98471 0.3674 0.99905 0.0
C217 C 0.98419 0.36512 0.04327 0.0
C218 C 0.97976 0.40144 0.06941 0.0
C219 C 0.97617 0.4391 0.05248 0.0
C220 C 0.97694 0.44153 0.00941 0.0
C221 C 0.98123 0.40626 0.98286 0.0
H222 H 0.31854 0.95441 0.3846 0.0
C223 C 0.31255 0.98556 0.38268 0.0
H224 H 0.29694 0.03694 0.41465 0.0
H225 H 0.25079 0.87069 0.54637 0.0
H226 H 0.19118 0.80539 0.48761 0.0
H227 H 0.1811 0.82543 0.41597 0.0
H228 H 0.23165 0.91024 0.40232 0.0
C229 C 0.30233 0.00543 0.41667 0.0
C230 C 0.30619 0.99193 0.45963 0.0
C231 C 0.27409 0.94259 0.46732 0.0
C232 C 0.27721 0.93174 0.50926 0.0
C233 C 0.24772 0.88144 0.5156 0.0
C234 C 0.21372 0.84357 0.48211 0.0
C235 C 0.20823 0.85481 0.44173 0.0
C236 C 0.23786 0.90367 0.43425 0.0
H237 H 0.2275 0.93601 0.57992 0.0
C238 C 0.26101 0.94722 0.60262 0.0
H239 H 0.33832 0.97394 0.6114 0.0
H240 H 0.37812 0.08862 0.455 0.0
H241 H 0.4356 0.154 0.51414 0.0
H242 H 0.43538 0.13703 0.58778 0.0
H243 H 0.37836 0.05449 0.6026 0.0
C244 C 0.30477 0.96278 0.58885 0.0
C245 C 0.30918 0.97104 0.54396 0.0
C246 C 0.34253 0.01989 0.53603 0.0
C247 C 0.34154 0.0301 0.49375 0.0
C248 C 0.37613 0.07898 0.48659 0.0
C249 C 0.40958 0.11691 0.52025 0.0
C250 C 0.40952 0.10732 0.56168 0.0
C251 C 0.37649 0.05956 0.56969 0.0
H252 H 0.6296 0.63694 0.87461 0.0
C253 C 0.6352 0.67395 0.873 0.0
H254 H 0.64337 0.7398 0.90756 0.0
H255 H 0.55707 0.61152 0.0585 0.0
H256 H 0.47668 0.5911 0.01969 0.0
H257 H 0.4706 0.61548 0.9493 0.0
H258 H 0.54485 0.66015 0.91706 0.0
C259 C 0.63735 0.70253 0.90844 0.0
C260 C 0.6405 0.68842 0.95103 0.0
C261 C 0.59699 0.66313 0.96961 0.0
C262 C 0.60057 0.64949 0.01038 0.0
C263 C 0.55642 0.62309 0.0278 0.0
C264 C 0.51011 0.61115 0.00585 0.0
C265 C 0.50667 0.62487 0.96619 0.0
C266 C 0.5495 0.65049 0.94807 0.0
H267 H 0.64176 0.6908 0.11401 0.0
C268 C 0.65227 0.66258 0.1106 0.0
H269 H 0.66256 0.61337 0.06856 0.0
H270 H 0.73181 0.74042 0.9257 0.0
H271 H 0.81225 0.7624 0.96502 0.0
H272 H 0.81858 0.73901 0.03581 0.0
H273 H 0.7445 0.6936 0.06764 0.0
C274 C 0.65173 0.64139 0.07163 0.0
C275 C 0.64775 0.66159 0.03238 0.0
C276 C 0.69154 0.68851 0.01438 0.0
C277 C 0.68793 0.70203 0.9737 0.0
C278 C 0.7323 0.72893 0.95646 0.0
C279 C 0.77879 0.74189 0.97872 0.0
C280 C 0.78234 0.7287 0.01854 0.0
C281 C 0.73943 0.70242 0.03635 0.0
H282 H 0.04879 0.36145 0.4115 0.0
C283 C 0.01271 0.32651 0.40574 0.0
H284 H 0.94988 0.278 0.43207 0.0
H285 H 0.10168 0.39012 0.61506 0.0
H286 H 0.15214 0.35824 0.59019 0.0
H287 H 0.13526 0.31813 0.51528 0.0
H288 H 0.0677 0.3101 0.46484 0.0
C289 C 0.98736 0.31116 0.43815 0.0
C290 C 0.00366 0.34262 0.48113 0.0
C291 C 0.04368 0.34756 0.51005 0.0
C292 C 0.05299 0.37031 0.55334 0.0
C293 C 0.09257 0.37353 0.5818 0.0
C294 C 0.122 0.35521 0.56795 0.0
C295 C 0.11253 0.33268 0.5258 0.0
C296 C 0.07369 0.32849 0.49712 0.0
H297 H 0.95162 0.34291 0.61646 0.0
C298 C 0.98858 0.37039 0.63444 0.0
H299 H 0.06183 0.42762 0.63292 0.0
H300 H 0.92897 0.34586 0.43216 0.0
H301 H 0.88051 0.38134 0.45619 0.0
H302 H 0.8969 0.421 0.53124 0.0
H303 H 0.9619 0.42523 0.58276 0.0
C304 C 0.02496 0.40122 0.6142 0.0
C305 C 0.02156 0.38728 0.56759 0.0
C306 C 0.98425 0.38594 0.53784 0.0
C307 C 0.97514 0.36341 0.49459 0.0
C308 C 0.93718 0.36209 0.46554 0.0
C309 C 0.90925 0.38254 0.47886 0.0
C310 C 0.91847 0.40485 0.52112 0.0
C311 C 0.95558 0.40675 0.55039 0.0
H312 H 0.51824 0.14286 0.30884 0.0
C313 C 0.49248 0.10776 0.28721 0.0
H314 H 0.48445 0.05555 0.23502 0.0
H315 H 0.68041 0.21135 0.17249 0.0
H316 H 0.61571 0.20079 0.11669 0.0
H317 H 0.52643 0.15169 0.12324 0.0
H318 H 0.50122 0.11288 0.18548 0.0
C319 C 0.51 0.08885 0.25863 0.0
C320 C 0.56349 0.1166 0.25419 0.0
C321 C 0.57732 0.13846 0.21725 0.0
C322 C 0.62869 0.1667 0.21338 0.0
C323 C 0.64179 0.18909 0.17671 0.0
C324 C 0.60507 0.18346 0.14455 0.0
C325 C 0.55479 0.15581 0.14824 0.0
C326 C 0.54085 0.13361 0.18413 0.0
H327 H 0.71744 0.14837 0.19731 0.0
C328 C 0.74086 0.18252 0.22067 0.0
H329 H 0.74276 0.23613 0.26768 0.0
H330 H 0.5489 0.0747 0.32676 0.0
H331 H 0.61344 0.08496 0.3822 0.0
H332 H 0.70279 0.13557 0.37632 0.0
H333 H 0.72802 0.17591 0.31495 0.0
C334 C 0.7196 0.20265 0.24358 0.0
C335 C 0.66577 0.17271 0.24636 0.0
C336 C 0.65187 0.15018 0.283 0.0
C337 C 0.60056 0.12164 0.28672 0.0
C338 C 0.58747 0.09797 0.32284 0.0
C339 C 0.62414 0.10325 0.3548 0.0
C340 C 0.67441 0.13169 0.35147 0.0
C341 C 0.68835 0.1548 0.31604 0.0
H342 H 0.61438 0.45657 0.20175 0.0
C343 C 0.60442 0.48449 0.21053 0.0
H344 H 0.54889 0.49738 0.22982 0.0
H345 H 0.45129 0.24848 0.16454 0.0
H346 H 0.4695 0.26911 0.09501 0.0
H347 H 0.51063 0.35698 0.08338 0.0
H348 H 0.53457 0.42491 0.14166 0.0
C349 C 0.55906 0.46969 0.22088 0.0
C350 C 0.52421 0.41637 0.22494 0.0
C351 C 0.50744 0.37685 0.1899 0.0
C352 C 0.48062 0.32589 0.19595 0.0
C353 C 0.46882 0.28759 0.16134 0.0
C354 C 0.47965 0.29894 0.12126 0.0
C355 C 0.50295 0.34843 0.11474 0.0
C356 C 0.51686 0.38708 0.14855 0.0
H357 H 0.37635 0.23565 0.19725 0.0
C358 C 0.39415 0.22669 0.223 0.0
H359 H 0.45787 0.25271 0.26997 0.0
H360 H 0.54729 0.48299 0.29824 0.0
H361 H 0.52065 0.46242 0.36555 0.0
H362 H 0.4687 0.37414 0.37475 0.0
H363 H 0.44299 0.30593 0.3164 0.0
C364 C 0.44029 0.26162 0.24401 0.0
C365 C 0.46707 0.31449 0.23627 0.0
C366 C 0.48077 0.35405 0.27047 0.0
C367 C 0.50981 0.40499 0.26495 0.0
C368 C 0.52445 0.44361 0.30019 0.0
C369 C 0.50959 0.43235 0.33923 0.0
C370 C 0.48034 0.38268 0.34438 0.0
C371 C 0.46602 0.34386 0.31058 0.0
H372 H 0.9113 0.40738 0.33153 0.0
C373 C 0.92589 0.40291 0.30298 0.0
H374 H 0.94729 0.43018 0.24601 0.0
H375 H 0.7953 0.5054 0.31109 0.0
H376 H 0.73196 0.41656 0.30209 0.0
H377 H 0.75213 0.35188 0.27973 0.0
H378 H 0.83568 0.37551 0.26798 0.0
C379 C 0.93267 0.43369 0.27475 0.0
C380 C 0.91831 0.47199 0.28161 0.0
C381 C 0.86801 0.45689 0.28523 0.0
C382 C 0.85525 0.4938 0.29461 0.0
C383 C 0.80604 0.47841 0.30172 0.0
C384 C 0.7695 0.42768 0.29689 0.0
C385 C 0.78093 0.39131 0.28455 0.0
C386 C 0.82941 0.40549 0.27851 0.0
H387 H 0.83008 0.53918 0.23099 0.0
C388 C 0.84163 0.57169 0.2553 0.0
H389 H 0.88703 0.61332 0.31526 0.0
H390 H 0.01825 0.51355 0.27827 0.0
H391 H 0.07959 0.60234 0.28336 0.0
H392 H 0.05513 0.66584 0.29359 0.0
H393 H 0.9693 0.64092 0.29958 0.0
C394 C 0.87343 0.58057 0.29077 0.0
C395 C 0.89104 0.54508 0.29537 0.0
C396 C 0.94125 0.56035 0.29227 0.0
C397 C 0.95507 0.52369 0.28568 0.0
C398 C 0.00559 0.53982 0.28284 0.0
C399 C 0.04116 0.59065 0.28572 0.0
C400 C 0.02739 0.62641 0.29149 0.0
C401 C 0.97804 0.61165 0.29473 0.0
H402 H 0.07078 0.52803 0.80189 0.0
C403 C 0.1 0.51999 0.79679 0.0
H404 H 0.16595 0.54274 0.77073 0.0
H405 H 0.11115 0.66233 0.64883 0.0
H406 H 0.10154 0.59341 0.5984 0.0
H407 H 0.10897 0.52498 0.62351 0.0
H408 H 0.12618 0.525 0.69907 0.0
C409 C 0.13886 0.5523 0.77975 0.0
C410 C 0.13941 0.59616 0.76485 0.0
C411 C 0.13019 0.59594 0.72046 0.0
C412 C 0.12603 0.63547 0.7059 0.0
C413 C 0.11545 0.63364 0.6615 0.0
C414 C 0.1096 0.59419 0.63225 0.0
C415 C 0.11375 0.55564 0.64639 0.0
C416 C 0.12375 0.5562 0.68991 0.0
H417 H 0.19627 0.74629 0.6979 0.0
C418 C 0.1676 0.75354 0.70672 0.0
H419 H 0.10263 0.72679 0.73399 0.0
H420 H 0.16242 0.61043 0.85174 0.0
H421 H 0.17267 0.67948 0.9022 0.0
H422 H 0.16445 0.74755 0.87725 0.0
H423 H 0.146 0.74704 0.80199 0.0
C424 C 0.12874 0.71782 0.72142 0.0
C425 C 0.1314 0.67521 0.73574 0.0
C426 C 0.14153 0.67585 0.78017 0.0
C427 C 0.1459 0.63647 0.79468 0.0
C428 C 0.15752 0.63878 0.83907 0.0
C429 C 0.16387 0.67839 0.86839 0.0
C430 C 0.15927 0.71671 0.85434 0.0
C431 C 0.14847 0.71579 0.81087 0.0
H432 H 0.41781 0.93379 0.74696 0.0
C433 C 0.39092 0.91631 0.768 0.0
H434 H 0.3654 0.86353 0.80998 0.0
H435 H 0.44823 0.74005 0.71561 0.0
H436 H 0.35856 0.68367 0.69384 0.0
H437 H 0.29955 0.7096 0.71284 0.0
H438 H 0.32997 0.79226 0.75332 0.0
C439 C 0.39287 0.88263 0.78984 0.0
C440 C 0.42828 0.86572 0.78257 0.0
C441 C 0.40967 0.817 0.75944 0.0
C442 C 0.4436 0.80206 0.7486 0.0
C443 C 0.42415 0.75349 0.72469 0.0
C444 C 0.37271 0.72068 0.71197 0.0
C445 C 0.33951 0.73525 0.72271 0.0
C446 C 0.35753 0.78283 0.74603 0.0
H447 H 0.56026 0.82214 0.81218 0.0
C448 C 0.56034 0.81375 0.7784 0.0
H449 H 0.53022 0.81109 0.71541 0.0
H450 H 0.47522 0.95931 0.83172 0.0
H451 H 0.56502 0.01703 0.85174 0.0
H452 H 0.62436 0.99326 0.82917 0.0
H453 H 0.59436 0.91155 0.78725 0.0
C454 C 0.53081 0.81982 0.74928 0.0
C455 C 0.4959 0.83564 0.7616 0.0
C456 C 0.5145 0.88436 0.78499 0.0
C457 C 0.48046 0.89898 0.79628 0.0
C458 C 0.4996 0.947 0.82107 0.0
C459 C 0.55102 0.98039 0.83295 0.0
C460 C 0.58441 0.96693 0.82039 0.0
C461 C 0.56662 0.91963 0.79659 0.0
H462 H 0.21663 0.44509 0.67231 0.0
C463 C 0.2216 0.44257 0.70591 0.0
H464 H 0.2725 0.4647 0.76316 0.0
H465 H 0.42471 0.52624 0.62005 0.0
H466 H 0.37624 0.43847 0.58618 0.0
H467 H 0.29959 0.37834 0.61136 0.0
H468 H 0.27042 0.40563 0.66969 0.0
C469 C 0.26766 0.46719 0.72954 0.0
C470 C 0.31294 0.50238 0.71291 0.0
C471 C 0.33018 0.48494 0.67966 0.0
C472 C 0.37566 0.51895 0.66651 0.0
C473 C 0.39124 0.50146 0.63212 0.0
C474 C 0.36369 0.45128 0.61233 0.0
C475 C 0.32045 0.41748 0.6264 0.0
C476 C 0.30385 0.43381 0.65977 0.0
H477 H 0.48545 0.56199 0.7034 0.0
C478 C 0.49346 0.59613 0.69131 0.0
H479 H 0.46318 0.63819 0.66863 0.0
H480 H 0.28802 0.549 0.77477 0.0
H481 H 0.33921 0.63536 0.81129 0.0
H482 H 0.42186 0.69217 0.79301 0.0
H483 H 0.45282 0.66363 0.73685 0.0
C484 C 0.45569 0.60333 0.67896 0.0
C485 C 0.40498 0.56933 0.68817 0.0
C486 C 0.38762 0.5868 0.72118 0.0
C487 C 0.34108 0.5535 0.73301 0.0
C488 C 0.3239 0.57223 0.76536 0.0
C489 C 0.35281 0.62181 0.78652 0.0
C490 C 0.39926 0.65381 0.77615 0.0
C491 C 0.41653 0.63687 0.74374 0.0
H492 H 0.22213 0.13736 0.32767 0.0
C493 C 0.20971 0.10984 0.29875 0.0
H494 H 0.15546 0.07059 0.24285 0.0
H495 H 0.02634 0.15673 0.32635 0.0
H496 H 0.00409 0.0918 0.37017 0.0
H497 H 0.04654 0.04342 0.3714 0.0
H498 H 0.1114 0.05955 0.32857 0.0
C499 C 0.16747 0.09703 0.27241 0.0
C500 C 0.14497 0.12867 0.27537 0.0
C501 C 0.10806 0.11935 0.30112 0.0
C502 C 0.08379 0.14733 0.30047 0.0
C503 C 0.04614 0.13668 0.32579 0.0
C504 C 0.03302 0.09953 0.35106 0.0
C505 C 0.0569 0.07226 0.35173 0.0
C506 C 0.09401 0.08186 0.32706 0.0
H507 H 0.02569 0.16788 0.21093 0.0
C508 C 0.03345 0.19771 0.23657 0.0
H509 H 0.07455 0.23782 0.29804 0.0
H510 H 0.21628 0.15737 0.22359 0.0
H511 H 0.23954 0.22322 0.18097 0.0
H512 H 0.19838 0.27282 0.18095 0.0
H513 H 0.13353 0.25657 0.22351 0.0
C514 C 0.0686 0.21061 0.27077 0.0
C515 C 0.09664 0.18433 0.27398 0.0
C516 C 0.13494 0.19496 0.24948 0.0
C517 C 0.15894 0.1668 0.24991 0.0
C518 C 0.19671 0.17762 0.2246 0.0
C519 C 0.21053 0.21541 0.19999 0.0
C520 C 0.18734 0.2433 0.19996 0.0
C521 C 0.15002 0.23342 0.22439 0.0
H522 H 0.9068 0.78977 0.17781 0.0
C523 C 0.88991 0.74952 0.16757 0.0
H524 H 0.90348 0.69279 0.14434 0.0
H525 H 0.09851 0.89886 0.10208 0.0
H526 H 0.044 0.87984 0.03492 0.0
H527 H 0.9559 0.81001 0.02186 0.0
H528 H 0.92195 0.75818 0.0759 0.0
C529 C 0.91728 0.73283 0.1504 0.0
C530 C 0.97199 0.76863 0.15434 0.0
C531 C 0.99116 0.79858 0.12282 0.0
C532 C 0.04174 0.83929 0.13075 0.0
C533 C 0.06014 0.86806 0.0982 0.0
C534 C 0.02929 0.85743 0.05941 0.0
C535 C 0.97968 0.81808 0.05204 0.0
C536 C 0.96062 0.78881 0.08328 0.0
H537 H 0.16299 0.86075 0.1948 0.0
C538 C 0.16552 0.89626 0.19182 0.0
H539 H 0.12595 0.9324 0.17692 0.0
H540 H 0.94876 0.71274 0.21826 0.0
H541 H 0.00108 0.73284 0.28683 0.0
H542 H 0.08535 0.80913 0.30449 0.0
H543 H 0.11818 0.86476 0.25359 0.0
C544 C 0.1235 0.89702 0.18033 0.0
C545 C 0.07263 0.85071 0.17077 0.0
C546 C 0.05338 0.81989 0.20215 0.0
C547 C 0.00367 0.7776 0.19306 0.0
C548 C 0.9858 0.74615 0.22404 0.0
C549 C 0.01541 0.75717 0.2635 0.0
C550 C 0.06292 0.79999 0.27335 0.0
C551 C 0.08166 0.83132 0.24339 0.0
H552 H 0.8159 0.07606 0.33097 0.0
C553 C 0.83314 0.08149 0.30256 0.0
H554 H 0.84773 0.04739 0.25003 0.0
H555 H 0.79891 0.87451 0.37029 0.0
H556 H 0.87068 0.93898 0.42217 0.0
H557 H 0.91407 0.02768 0.41244 0.0
H558 H 0.88518 0.05265 0.35168 0.0
C559 C 0.83225 0.04273 0.27934 0.0
C560 C 0.80434 0.99078 0.28842 0.0
C561 C 0.82266 0.97704 0.32372 0.0
C562 C 0.79935 0.92564 0.32816 0.0
C563 C 0.8168 0.91284 0.36455 0.0
C564 C 0.85765 0.94947 0.39465 0.0
C565 C 0.88195 -0.00057 0.38925 0.0
C566 C 0.86485 0.01329 0.35426 0.0
H567 H 0.81778 0.84978 0.29153 0.0
C568 C 0.77869 0.82081 0.28979 0.0
H569 H 0.70547 0.8059 0.29191 0.0
H570 H 0.75518 0.00573 0.22122 0.0
H571 H 0.68341 0.94125 0.16969 0.0
H572 H 0.64591 0.85162 0.1752 0.0
H573 H 0.67951 0.82599 0.23241 0.0
C574 C 0.74471 0.83432 0.29392 0.0
C575 C 0.75986 0.88804 0.29603 0.0
C576 C 0.73917 0.90217 0.26259 0.0
C577 C 0.76134 0.9537 0.25894 0.0
C578 C 0.74029 0.96699 0.22506 0.0
C579 C 0.699 0.93039 0.19535 0.0
C580 C 0.67786 0.87995 0.19849 0.0
C581 C 0.6976 0.86576 0.23155 0.0
H582 H 0.14469 0.24937 0.82735 0.0
C583 C 0.14489 0.25831 0.79538 0.0
H584 H 0.15373 0.24291 0.7323 0.0
H585 H 0.23562 0.10991 0.82274 0.0
H586 H 0.29702 0.1863 0.87163 0.0
H587 H 0.29515 0.26427 0.87196 0.0
H588 H 0.23122 0.26598 0.82432 0.0
C589 C 0.15363 0.23316 0.76401 0.0
C590 C 0.15409 0.18631 0.76733 0.0
C591 C 0.19295 0.18679 0.79442 0.0
C592 C 0.19582 0.14266 0.79249 0.0
C593 C 0.23328 0.14312 0.82143 0.0
C594 C 0.26848 0.18657 0.84988 0.0
C595 C 0.26729 0.2304 0.85019 0.0
C596 C 0.23014 0.23078 0.82279 0.0
H597 H 0.24121 0.10055 0.73758 0.0
C598 C 0.21193 0.06306 0.74063 0.0
H599 H 0.14082 0.01934 0.75777 0.0
H600 H 0.07093 0.17058 0.715 0.0
H601 H 0.01016 0.09433 0.66606 0.0
H602 H 0.01755 0.01917 0.66055 0.0
H603 H 0.08597 0.02001 0.70377 0.0
C604 C 0.16997 0.05647 0.75383 0.0
C605 C 0.1617 0.09928 0.76176 0.0
C606 C 0.12115 0.09787 0.73656 0.0
C607 C 0.11727 0.14138 0.73942 0.0
C608 C 0.07649 0.13905 0.71356 0.0
C609 C 0.04112 0.09539 0.68541 0.0
C610 C 0.0452 0.05305 0.6824 0.0
C611 C 0.0847 0.05407 0.70749 0.0
H612 H 0.08647 0.83033 0.84122 0.0
C613 C 0.09031 0.85318 0.81673 0.0
H614 H 0.05456 0.87662 0.77351 0.0
H615 H 0.84409 0.6935 0.7232 0.0
H616 H 0.88195 0.68147 0.66408 0.0
H617 H 0.97368 0.73007 0.6679 0.0
H618 H 0.02798 0.79139 0.73072 0.0
C619 C 0.05058 0.85447 0.79861 0.0
C620 C -0.00155 0.81678 0.80212 0.0
C621 C 0.96745 0.77972 0.76584 0.0
C622 C 0.91478 0.75109 0.76395 0.0
C623 C 0.88443 0.71601 0.72652 0.0
C624 C 0.90569 0.70866 0.69234 0.0
C625 C 0.95731 0.73607 0.69445 0.0
C626 C 0.98801 0.77129 0.73063 0.0
H627 H 0.85026 0.813 0.80172 0.0
C628 C 0.82302 0.77293 0.79282 0.0
H629 H 0.81228 0.70011 0.78324 0.0
H630 H 0.0484 0.87881 0.87892 0.0
H631 H 0.01135 0.88393 0.94114 0.0
H632 H 0.9202 0.83075 0.93916 0.0
H633 H 0.86539 0.77262 0.87461 0.0
C634 C 0.83887 0.74026 0.79212 0.0
C635 C 0.89352 0.75945 0.79856 0.0
C636 C 0.92513 0.79151 0.83699 0.0
C637 C 0.97779 0.82098 0.83857 0.0
C638 C 0.00827 0.85491 0.87639 0.0
C639 C 0.98746 0.85821 0.91225 0.0
C640 C 0.93611 0.82833 0.91111 0.0
C641 C 0.90508 0.7954 0.87393 0.0
H642 H 0.89327 0.17814 0.74986 0.0
C643 C 0.92372 0.18656 0.7322 0.0
H644 H 0.95665 0.15644 0.69363 0.0
H645 H 0.86588 0.95214 0.76285 0.0
H646 H 0.95478 0.99042 0.7889 0.0
H647 H 0.01469 0.07792 0.78203 0.0
H648 H 0.98616 0.12721 0.74824 0.0
C649 C 0.92568 0.14875 0.7104 0.0
C650 C 0.88948 0.0957 0.71317 0.0
C651 C 0.90678 0.06787 0.73382 0.0
C652 C 0.8721 0.01814 0.73914 0.0
C653 C 0.89047 0.99058 0.75887 0.0
C654 C 0.94144 0.01203 0.77389 0.0
C655 C 0.97516 0.06123 0.76995 0.0
C656 C 0.95826 0.08904 0.75029 0.0
H657 H 0.75426 0.9103 0.67151 0.0
C658 C 0.75419 0.90686 0.70499 0.0
H659 H 0.78487 0.94405 0.76881 0.0
H660 H 0.84521 0.13574 0.6658 0.0
H661 H 0.756 0.09921 0.64251 0.0
H662 H 0.69481 0.01668 0.6588 0.0
H663 H 0.72243 0.96971 0.6973 0.0
C664 C 0.78423 0.94734 0.73528 0.0
C665 C 0.8201 0.99704 0.72507 0.0
C666 C 0.80278 0.02479 0.70414 0.0
C667 C 0.83778 0.0736 0.69694 0.0
C668 C 0.82001 0.09945 0.67375 0.0
C669 C 0.76895 0.07879 0.65997 0.0
C670 C 0.73452 0.03225 0.66899 0.0
C671 C 0.75099 0.00546 0.69088 0.0
loop_
_geom_bond_atom_site_label_1
_geom_bond_atom_site_label_2
_geom_bond_distance
_geom_bond_site_symmetry_2
_ccdc_geom_bond_type
Sc0 O3 2.025 . S
Sc0 O10 2.105 . S
Sc0 O13 2.105 . S
Sc0 O16 2.105 . S
Sc0 O19 2.105 . S
Sc1 O3 2.025 . S
Sc1 O11 2.105 . S
Sc1 O15 2.105 . S
Sc1 O17 2.105 1_545 S
Sc1 O21 2.105 . S
Sc2 O3 2.025 . S
Sc2 O12 2.105 . S
Sc2 O14 2.105 . S
Sc2 O18 2.105 . S
Sc2 O20 2.105 . S
O3 Sc0 2.025 . S
O3 Sc1 2.025 . S
O3 Sc2 2.025 . S
C4 O10 1.268 . S
C4 O20 1.268 . S
C5 O11 1.268 . S
C5 O19 1.268 . S
C6 O12 1.268 . S
C6 O21 1.268 . S
C7 O13 1.268 1_565 S
C7 O17 1.268 . S
C8 O14 1.268 . S
C8 O16 1.268 . S
C9 O15 1.268 . S
C9 O18 1.268 . S
O10 Sc0 2.105 . S
O10 C4 1.268 . S
O11 Sc1 2.105 . S
O11 C5 1.268 . S
O12 Sc2 2.105 . S
O12 C6 1.268 . S
O13 Sc0 2.105 . S
O13 C7 1.268 1_545 S
O14 Sc2 2.105 . S
O14 C8 1.268 . S
O15 Sc1 2.105 . S
O15 C9 1.268 . S
O16 Sc0 2.105 . S
O16 C8 1.268 . S
O17 Sc1 2.105 1_565 S
O17 C7 1.268 . S
O18 Sc2 2.105 . S
O18 C9 1.268 . S
O19 Sc0 2.105 . S
O19 C5 1.268 . S
O20 Sc2 2.105 . S
O20 C4 1.268 . S
O21 Sc1 2.105 . S
O21 C6 1.268 . S
Sc22 O25 2.025 . S
Sc22 O32 2.105 . S
Sc22 O35 2.105 . S
Sc22 O38 2.105 . S
Sc22 O41 2.105 . S
Sc23 O25 2.025 . S
Sc23 O33 2.105 . S
Sc23 O37 2.105 . S
Sc23 O39 2.105 . S
Sc23 O43 2.105 . S
Sc24 O25 2.025 . S
Sc24 O34 2.105 . S
Sc24 O36 2.105 . S
Sc24 O40 2.105 . S
Sc24 O42 2.105 . S
O25 Sc22 2.025 . S
O25 Sc23 2.025 . S
O25 Sc24 2.025 . S
C26 O32 1.268 . S
C26 O42 1.268 . S
C27 O33 1.268 . S
C27 O41 1.268 . S
C28 O34 1.268 . S
C28 O43 1.268 . S
C29 O35 1.268 . S
C29 O39 1.268 . S
C30 O36 1.268 . S
C30 O38 1.268 . S
C31 O37 1.268 . S
C31 O40 1.268 . S
O32 Sc22 2.105 . S
O32 C26 1.268 . S
O33 Sc23 2.105 . S
O33 C27 1.268 . S
O34 Sc24 2.105 . S
O34 C28 1.268 . S
O35 Sc22 2.105 . S
O35 C29 1.268 . S
O36 Sc24 2.105 . S
O36 C30 1.268 . S
O37 Sc23 2.105 . S
O37 C31 1.268 . S
O38 Sc22 2.105 . S
O38 C30 1.268 . S
O39 Sc23 2.105 . S
O39 C29 1.268 . S
O40 Sc24 2.105 . S
O40 C31 1.268 . S
O41 Sc22 2.105 . S
O41 C27 1.268 . S
O42 Sc24 2.105 . S
O42 C26 1.268 . S
O43 Sc23 2.105 . S
O43 C28 1.268 . S
Sc44 O47 2.025 . S
Sc44 O54 2.105 . S
Sc44 O57 2.105 . S
Sc44 O60 2.105 . S
Sc44 O63 2.105 . S
Sc45 O47 2.025 . S
Sc45 O55 2.105 . S
Sc45 O59 2.105 1_655 S
Sc45 O61 2.105 1_655 S
Sc45 O65 2.105 . S
Sc46 O47 2.025 . S
Sc46 O56 2.105 . S
Sc46 O58 2.105 . S
Sc46 O62 2.105 . S
Sc46 O64 2.105 . S
O47 Sc44 2.025 . S
O47 Sc45 2.025 . S
O47 Sc46 2.025 . S
C48 O54 1.268 . S
C48 O64 1.268 . S
C49 O55 1.268 . S
C49 O63 1.268 . S
C50 O56 1.268 . S
C50 O65 1.268 . S
C51 O57 1.268 1_455 S
C51 O61 1.268 . S
C52 O58 1.268 . S
C52 O60 1.268 . S
C53 O59 1.268 1_655 S
C53 O62 1.268 . S
O54 Sc44 2.105 . S
O54 C48 1.268 . S
O55 Sc45 2.105 . S
O55 C49 1.268 . S
O56 Sc46 2.105 . S
O56 C50 1.268 . S
O57 Sc44 2.105 . S
O57 C51 1.268 1_655 S
O58 Sc46 2.105 . S
O58 C52 1.268 . S
O59 Sc45 2.105 1_455 S
O59 C53 1.268 1_455 S
O60 Sc44 2.105 . S
O60 C52 1.268 . S
O61 Sc45 2.105 1_455 S
O61 C51 1.268 . S
O62 Sc46 2.105 . S
O62 C53 1.268 . S
O63 Sc44 2.105 . S
O63 C49 1.268 . S
O64 Sc46 2.105 . S
O64 C48 1.268 . S
O65 Sc45 2.105 . S
O65 C50 1.268 . S
Sc66 O69 2.025 . S
Sc66 O76 2.105 . S
Sc66 O79 2.105 . S
Sc66 O82 2.105 . S
Sc66 O85 2.105 . S
Sc67 O69 2.025 . S
Sc67 O77 2.105 1_455 S
Sc67 O81 2.105 . S
Sc67 O83 2.105 . S
Sc67 O87 2.105 . S
Sc68 O69 2.025 . S
Sc68 O78 2.105 . S
Sc68 O80 2.105 . S
Sc68 O84 2.105 . S
Sc68 O86 2.105 . S
O69 Sc66 2.025 . S
O69 Sc67 2.025 . S
O69 Sc68 2.025 . S
C70 O76 1.268 . S
C70 O86 1.268 . S
C71 O77 1.268 . S
C71 O85 1.268 1_655 S
C72 O78 1.268 . S
C72 O87 1.268 . S
C73 O79 1.268 . S
C73 O83 1.268 . S
C74 O80 1.268 . S
C74 O82 1.268 . S
C75 O81 1.268 . S
C75 O84 1.268 . S
O76 Sc66 2.105 . S
O76 C70 1.268 . S
O77 Sc67 2.105 1_655 S
O77 C71 1.268 . S
O78 Sc68 2.105 . S
O78 C72 1.268 . S
O79 Sc66 2.105 . S
O79 C73 1.268 . S
O80 Sc68 2.105 . S
O80 C74 1.268 . S
O81 Sc67 2.105 . S
O81 C75 1.268 . S
O82 Sc66 2.105 . S
O82 C74 1.268 . S
O83 Sc67 2.105 . S
O83 C73 1.268 . S
O84 Sc68 2.105 . S
O84 C75 1.268 . S
O85 Sc66 2.105 . S
O85 C71 1.268 1_455 S
O86 Sc68 2.105 . S
O86 C70 1.268 . S
O87 Sc67 2.105 . S
O87 C72 1.268 . S
Sc88 O91 2.025 . S
Sc88 O98 2.105 . S
Sc88 O101 2.105 . S
Sc88 O104 2.105 . S
Sc88 O107 2.105 . S
Sc89 O91 2.025 . S
Sc89 O99 2.105 1_565 S
Sc89 O103 2.105 . S
Sc89 O105 2.105 . S
Sc89 O109 2.105 1_565 S
Sc90 O91 2.025 . S
Sc90 O100 2.105 . S
Sc90 O102 2.105 . S
Sc90 O106 2.105 . S
Sc90 O108 2.105 . S
O91 Sc88 2.025 . S
O91 Sc89 2.025 . S
O91 Sc90 2.025 . S
C92 O98 1.268 . S
C92 O108 1.268 . S
C93 O99 1.268 . S
C93 O107 1.268 1_545 S
C94 O100 1.268 . S
C94 O109 1.268 1_565 S
C95 O101 1.268 . S
C95 O105 1.268 . S
C96 O102 1.268 . S
C96 O104 1.268 . S
C97 O103 1.268 . S
C97 O106 1.268 . S
O98 Sc88 2.105 . S
O98 C92 1.268 . S
O99 Sc89 2.105 1_545 S
O99 C93 1.268 . S
O100 Sc90 2.105 . S
O100 C94 1.268 . S
O101 Sc88 2.105 . S
O101 C95 1.268 . S
O102 Sc90 2.105 . S
O102 C96 1.268 . S
O103 Sc89 2.105 . S
O103 C97 1.268 . S
O104 Sc88 2.105 . S
O104 C96 1.268 . S
O105 Sc89 2.105 . S
O105 C95 1.268 . S
O106 Sc90 2.105 . S
O106 C97 1.268 . S
O107 Sc88 2.105 . S
O107 C93 1.268 1_565 S
O108 Sc90 2.105 . S
O108 C92 1.268 . S
O109 Sc89 2.105 1_545 S
O109 C94 1.268 1_545 S
Sc110 O113 2.025 . S
Sc110 O120 2.105 . S
Sc110 O123 2.105 . S
Sc110 O126 2.105 . S
Sc110 O129 2.105 . S
Sc111 O113 2.025 . S
Sc111 O121 2.105 . S
Sc111 O125 2.105 . S
Sc111 O127 2.105 . S
Sc111 O131 2.105 . S
Sc112 O113 2.025 . S
Sc112 O122 2.105 . S
Sc112 O124 2.105 . S
Sc112 O128 2.105 . S
Sc112 O130 2.105 . S
O113 Sc110 2.025 . S
O113 Sc111 2.025 . S
O113 Sc112 2.025 . S
C114 O120 1.268 . S
C114 O130 1.268 . S
C115 O121 1.268 . S
C115 O129 1.268 . S
C116 O122 1.268 . S
C116 O131 1.268 . S
C117 O123 1.268 . S
C117 O127 1.268 . S
C118 O124 1.268 . S
C118 O126 1.268 . S
C119 O125 1.268 . S
C119 O128 1.268 . S
O120 Sc110 2.105 . S
O120 C114 1.268 . S
O121 Sc111 2.105 . S
O121 C115 1.268 . S
O122 Sc112 2.105 . S
O122 C116 1.268 . S
O123 Sc110 2.105 . S
O123 C117 1.268 . S
O124 Sc112 2.105 . S
O124 C118 1.268 . S
O125 Sc111 2.105 . S
O125 C119 1.268 . S
O126 Sc110 2.105 . S
O126 C118 1.268 . S
O127 Sc111 2.105 . S
O127 C117 1.268 . S
O128 Sc112 2.105 . S
O128 C119 1.268 . S
O129 Sc110 2.105 . S
O129 C115 1.268 . S
O130 Sc112 2.105 . S
O130 C114 1.268 . S
O131 Sc111 2.105 . S
O131 C116 1.268 . S
H132 C133 0.951 . S
C133 H132 0.951 . S
C133 C139 1.265 1_565 S
H134 C139 0.950 . S
H135 C143 0.949 . S
H136 C144 0.950 . S
H137 C145 0.940 1_556 S
H138 C146 0.951 . S
C139 C133 1.265 1_545 S
C139 H134 0.950 . S
C139 C140 1.478 . S
C140 C139 1.478 . S
C140 C141 1.397 . S
C140 C157 1.394 1_545 S
C141 C140 1.397 . S
C141 C142 1.438 1_556 S
C141 C146 1.429 . S
C142 C141 1.438 1_554 S
C142 C143 1.428 . S
C142 C155 1.394 . S
C143 H135 0.949 . S
C143 C142 1.428 . S
C143 C144 1.345 . S
C144 H136 0.950 . S
C144 C143 1.345 . S
C144 C145 1.444 . S
C145 H137 0.940 1_554 S
C145 C144 1.444 . S
C145 C146 1.338 1_554 S
C146 H138 0.951 . S
C146 C141 1.429 . S
C146 C145 1.338 1_556 S
H147 C148 0.951 . S
C148 H147 0.951 . S
C148 C154 1.265 . S
H149 C154 0.950 . S
H150 C158 0.949 . S
H151 C159 0.950 . S
H152 C160 0.951 . S
H153 C161 0.951 . S
C154 C148 1.265 . S
C154 H149 0.950 . S
C154 C155 1.478 . S
C155 C142 1.394 . S
C155 C154 1.478 . S
C155 C156 1.397 1_545 S
C156 C155 1.397 1_565 S
C156 C157 1.438 1_554 S
C156 C161 1.429 . S
C157 C140 1.394 1_565 S
C157 C156 1.438 1_556 S
C157 C158 1.428 . S
C158 H150 0.949 . S
C158 C157 1.428 . S
C158 C159 1.345 . S
C159 H151 0.950 . S
C159 C158 1.345 . S
C159 C160 1.424 1_556 S
C160 H152 0.951 . S
C160 C159 1.424 1_554 S
C160 C161 1.347 . S
C161 H153 0.951 . S
C161 C156 1.429 . S
C161 C160 1.347 . S
H162 C163 0.951 . S
C163 H162 0.951 . S
C163 C169 1.265 . S
H164 C169 0.950 . S
H165 C173 0.949 . S
H166 C174 0.950 . S
H167 C175 0.951 . S
H168 C176 0.951 . S
C169 C163 1.265 . S
C169 H164 0.950 . S
C169 C170 1.478 . S
C170 C169 1.478 . S
C170 C171 1.397 . S
C170 C187 1.394 . S
C171 C170 1.397 . S
C171 C172 1.438 . S
C171 C176 1.429 . S
C172 C171 1.438 . S
C172 C173 1.428 . S
C172 C185 1.394 . S
C173 H165 0.949 . S
C173 C172 1.428 . S
C173 C174 1.345 . S
C174 H166 0.950 . S
C174 C173 1.345 . S
C174 C175 1.424 . S
C175 H167 0.951 . S
C175 C174 1.424 . S
C175 C176 1.347 . S
C176 H168 0.951 . S
C176 C171 1.429 . S
C176 C175 1.347 . S
H177 C178 0.951 . S
C178 H177 0.951 . S
C178 C184 1.265 . S
H179 C184 0.950 . S
H180 C188 0.949 . S
H181 C189 0.950 . S
H182 C190 0.951 . S
H183 C191 0.951 . S
C184 C178 1.265 . S
C184 H179 0.950 . S
C184 C185 1.478 . S
C185 C172 1.394 . S
C185 C184 1.478 . S
C185 C186 1.397 . S
C186 C185 1.397 . S
C186 C187 1.438 . S
C186 C191 1.429 . S
C187 C170 1.394 . S
C187 C186 1.438 . S
C187 C188 1.428 . S
C188 H180 0.949 . S
C188 C187 1.428 . S
C188 C189 1.345 . S
C189 H181 0.950 . S
C189 C188 1.345 . S
C189 C190 1.424 . S
C190 H182 0.951 . S
C190 C189 1.424 . S
C190 C191 1.347 . S
C191 H183 0.951 . S
C191 C186 1.429 . S
C191 C190 1.347 . S
H192 C193 0.951 . S
C193 H192 0.951 . S
C193 C199 1.265 . S
H194 C199 0.950 1_455 S
H195 C203 0.949 . S
H196 C204 0.950 . S
H197 C205 0.951 . S
H198 C206 0.951 . S
C199 C193 1.265 . S
C199 H194 0.950 1_655 S
C199 C200 1.478 . S
C200 C199 1.478 . S
C200 C201 1.397 . S
C200 C217 1.394 . S
C201 C200 1.397 . S
C201 C202 1.438 1_554 S
C201 C206 1.429 . S
C202 C201 1.438 1_556 S
C202 C203 1.428 . S
C202 C215 1.394 . S
C203 H195 0.949 . S
C203 C202 1.428 . S
C203 C204 1.345 . S
C204 H196 0.950 . S
C204 C203 1.345 . S
C204 C205 1.424 1_556 S
C205 H197 0.951 . S
C205 C204 1.424 1_554 S
C205 C206 1.347 . S
C206 H198 0.951 . S
C206 C201 1.429 . S
C206 C205 1.347 . S
H207 C208 0.951 . S
C208 H207 0.951 . S
C208 C214 1.265 1_455 S
H209 C214 0.950 . S
H210 C218 0.949 . S
H211 C219 0.950 . S
H212 C220 0.951 1_556 S
H213 C221 0.951 . S
C214 C208 1.265 1_655 S
C214 H209 0.950 . S
C214 C215 1.478 . S
C215 C202 1.394 . S
C215 C214 1.478 . S
C215 C216 1.405 1_655 S
C216 C215 1.405 1_455 S
C216 C217 1.435 1_456 S
C216 C221 1.423 . S
C217 C200 1.394 . S
C217 C216 1.435 1_654 S
C217 C218 1.428 1_655 S
C218 H210 0.949 . S
C218 C217 1.428 1_455 S
C218 C219 1.345 . S
C219 H211 0.950 . S
C219 C218 1.345 . S
C219 C220 1.424 . S
C220 H212 0.951 1_554 S
C220 C219 1.424 . S
C220 C221 1.347 1_554 S
C221 H213 0.951 . S
C221 C216 1.423 . S
C221 C220 1.347 1_556 S
H222 C223 0.951 . S
C223 H222 0.951 . S
C223 C229 1.265 . S
H224 C229 0.947 . S
H225 C233 0.949 . S
H226 C234 0.950 . S
H227 C235 0.951 . S
H228 C236 0.951 . S
C229 C223 1.265 . S
C229 H224 0.947 . S
C229 C230 1.478 1_545 S
C230 C229 1.478 1_565 S
C230 C231 1.397 . S
C230 C247 1.394 1_565 S
C231 C230 1.397 . S
C231 C232 1.438 . S
C231 C236 1.429 . S
C232 C231 1.438 . S
C232 C233 1.428 . S
C232 C245 1.394 . S
C233 H225 0.949 . S
C233 C232 1.428 . S
C233 C234 1.345 . S
C234 H226 0.950 . S
C234 C233 1.345 . S
C234 C235 1.424 . S
C235 H227 0.951 . S
C235 C234 1.424 . S
C235 C236 1.347 . S
C236 H228 0.951 . S
C236 C231 1.429 . S
C236 C235 1.347 . S
H237 C238 0.951 . S
C238 H237 0.951 . S
C238 C244 1.265 . S
H239 C244 0.950 . S
H240 C248 0.949 . S
H241 C249 0.950 . S
H242 C250 0.951 . S
H243 C251 0.951 . S
C244 C238 1.265 . S
C244 H239 0.950 . S
C244 C245 1.478 . S
C245 C232 1.394 . S
C245 C244 1.478 . S
C245 C246 1.397 1_565 S
C246 C245 1.397 1_545 S
C246 C247 1.438 . S
C246 C251 1.429 . S
C247 C230 1.394 1_545 S
C247 C246 1.438 . S
C247 C248 1.428 . S
C248 H240 0.949 . S
C248 C247 1.428 . S
C248 C249 1.345 . S
C249 H241 0.950 . S
C249 C248 1.345 . S
C249 C250 1.424 . S
C250 H242 0.951 . S
C250 C249 1.424 . S
C250 C251 1.347 . S
C251 H243 0.951 . S
C251 C246 1.429 . S
C251 C250 1.347 . S
H252 C253 0.951 . S
C253 H252 0.951 . S
C253 C259 1.265 . S
H254 C259 0.950 . S
H255 C263 0.949 . S
H256 C264 0.950 . S
H257 C265 0.946 1_556 S
H258 C266 0.951 . S
C259 C253 1.265 . S
C259 H254 0.950 . S
C259 C260 1.478 . S
C260 C259 1.478 . S
C260 C261 1.397 . S
C260 C277 1.394 . S
C261 C260 1.397 . S
C261 C262 1.438 1_556 S
C261 C266 1.429 . S
C262 C261 1.438 1_554 S
C262 C263 1.428 . S
C262 C275 1.394 . S
C263 H255 0.949 . S
C263 C262 1.428 . S
C263 C264 1.345 . S
C264 H256 0.950 . S
C264 C263 1.345 . S
C264 C265 1.424 . S
C265 H257 0.946 1_554 S
C265 C264 1.424 . S
C265 C266 1.347 1_554 S
C266 H258 0.951 . S
C266 C261 1.429 . S
C266 C265 1.347 1_556 S
H267 C268 0.951 . S
C268 H267 0.951 . S
C268 C274 1.265 . S
H269 C274 0.950 . S
H270 C278 0.949 . S
H271 C279 0.950 . S
H272 C280 0.951 . S
H273 C281 0.951 . S
C274 C268 1.265 . S
C274 H269 0.950 . S
C274 C275 1.478 . S
C275 C262 1.394 . S
C275 C274 1.478 . S
C275 C276 1.397 1_554 S
C276 C275 1.397 1_556 S
C276 C277 1.438 . S
C276 C281 1.429 1_556 S
C277 C260 1.394 . S
C277 C276 1.438 . S
C277 C278 1.428 . S
C278 H270 0.949 . S
C278 C277 1.428 . S
C278 C279 1.345 . S
C279 H271 0.950 . S
C279 C278 1.345 . S
C279 C280 1.424 . S
C280 H272 0.951 . S
C280 C279 1.424 . S
C280 C281 1.347 1_556 S
C281 H273 0.951 . S
C281 C276 1.429 1_554 S
C281 C280 1.347 1_554 S
H282 C283 0.951 . S
C283 H282 0.951 . S
C283 C289 1.265 1_655 S
H284 C289 0.950 . S
H285 C293 0.949 . S
H286 C294 0.950 . S
H287 C295 0.951 . S
H288 C296 0.951 . S
C289 C283 1.265 1_455 S
C289 H284 0.950 . S
C289 C290 1.478 . S
C290 C289 1.478 . S
C290 C291 1.397 . S
C290 C307 1.394 1_455 S
C291 C290 1.397 . S
C291 C292 1.438 . S
C291 C296 1.429 . S
C292 C291 1.438 . S
C292 C293 1.428 . S
C292 C305 1.394 . S
C293 H285 0.949 . S
C293 C292 1.428 . S
C293 C294 1.345 . S
C294 H286 0.950 . S
C294 C293 1.345 . S
C294 C295 1.424 . S
C295 H287 0.951 . S
C295 C294 1.424 . S
C295 C296 1.347 . S
C296 H288 0.951 . S
C296 C291 1.429 . S
C296 C295 1.347 . S
H297 C298 0.951 . S
C298 H297 0.951 . S
C298 C304 1.266 1_455 S
H299 C304 0.948 . S
H300 C308 0.949 . S
H301 C309 0.950 . S
H302 C310 0.951 . S
H303 C311 0.951 . S
C304 C298 1.266 1_655 S
C304 H299 0.948 . S
C304 C305 1.479 1_655 S
C305 C292 1.394 . S
C305 C304 1.479 1_455 S
C305 C306 1.397 1_455 S
C306 C305 1.397 1_655 S
C306 C307 1.438 . S
C306 C311 1.429 . S
C307 C290 1.394 1_655 S
C307 C306 1.438 . S
C307 C308 1.428 . S
C308 H300 0.949 . S
C308 C307 1.428 . S
C308 C309 1.345 . S
C309 H301 0.950 . S
C309 C308 1.345 . S
C309 C310 1.424 . S
C310 H302 0.951 . S
C310 C309 1.424 . S
C310 C311 1.347 . S
C311 H303 0.951 . S
C311 C306 1.429 . S
C311 C310 1.347 . S
H312 C313 0.951 . S
C313 H312 0.951 . S
C313 C319 1.265 . S
H314 C319 0.950 . S
H315 C323 0.949 . S
H316 C324 0.950 . S
H317 C325 0.951 . S
H318 C326 0.951 . S
C319 C313 1.265 . S
C319 H314 0.950 . S
C319 C320 1.478 . S
C320 C319 1.478 . S
C320 C321 1.397 . S
C320 C337 1.394 . S
C321 C320 1.397 . S
C321 C322 1.438 . S
C321 C326 1.429 . S
C322 C321 1.438 . S
C322 C323 1.428 . S
C322 C335 1.394 . S
C323 H315 0.949 . S
C323 C322 1.428 . S
C323 C324 1.345 . S
C324 H316 0.950 . S
C324 C323 1.345 . S
C324 C325 1.424 . S
C325 H317 0.951 . S
C325 C324 1.424 . S
C325 C326 1.347 . S
C326 H318 0.951 . S
C326 C321 1.429 . S
C326 C325 1.347 . S
H327 C328 0.951 . S
C328 H327 0.951 . S
C328 C334 1.265 . S
H329 C334 0.950 . S
H330 C338 0.949 . S
H331 C339 0.950 . S
H332 C340 0.951 . S
H333 C341 0.951 . S
C334 C328 1.265 . S
C334 H329 0.950 . S
C334 C335 1.478 . S
C335 C322 1.394 . S
C335 C334 1.478 . S
C335 C336 1.397 . S
C336 C335 1.397 . S
C336 C337 1.438 . S
C336 C341 1.429 . S
C337 C320 1.394 . S
C337 C336 1.438 . S
C337 C338 1.428 . S
C338 H330 0.949 . S
C338 C337 1.428 . S
C338 C339 1.345 . S
C339 H331 0.950 . S
C339 C338 1.345 . S
C339 C340 1.424 . S
C340 H332 0.951 . S
C340 C339 1.424 . S
C340 C341 1.347 . S
C341 H333 0.951 . S
C341 C336 1.429 . S
C341 C340 1.347 . S
H342 C343 0.951 . S
C343 H342 0.951 . S
C343 C349 1.265 . S
H344 C349 0.950 . S
H345 C353 0.949 . S
H346 C354 0.950 . S
H347 C355 0.951 . S
H348 C356 0.951 . S
C349 C343 1.265 . S
C349 H344 0.950 . S
C349 C350 1.478 . S
C350 C349 1.478 . S
C350 C351 1.397 . S
C350 C367 1.394 . S
C351 C350 1.397 . S
C351 C352 1.438 . S
C351 C356 1.429 . S
C352 C351 1.438 . S
C352 C353 1.428 . S
C352 C365 1.394 . S
C353 H345 0.949 . S
C353 C352 1.428 . S
C353 C354 1.345 . S
C354 H346 0.950 . S
C354 C353 1.345 . S
C354 C355 1.424 . S
C355 H347 0.951 . S
C355 C354 1.424 . S
C355 C356 1.347 . S
C356 H348 0.951 . S
C356 C351 1.429 . S
C356 C355 1.347 . S
H357 C358 0.951 . S
C358 H357 0.951 . S
C358 C364 1.265 . S
H359 C364 0.950 . S
H360 C368 0.949 . S
H361 C369 0.950 . S
H362 C370 0.951 . S
H363 C371 0.951 . S
C364 C358 1.265 . S
C364 H359 0.950 . S
C364 C365 1.478 . S
C365 C352 1.394 . S
C365 C364 1.478 . S
C365 C366 1.397 . S
C366 C365 1.397 . S
C366 C367 1.438 . S
C366 C371 1.429 . S
C367 C350 1.394 . S
C367 C366 1.438 . S
C367 C368 1.428 . S
C368 H360 0.949 . S
C368 C367 1.428 . S
C368 C369 1.345 . S
C369 H361 0.950 . S
C369 C368 1.345 . S
C369 C370 1.424 . S
C370 H362 0.951 . S
C370 C369 1.424 . S
C370 C371 1.347 . S
C371 H363 0.951 . S
C371 C366 1.429 . S
C371 C370 1.347 . S
H372 C373 0.951 . S
C373 H372 0.951 . S
C373 C379 1.265 . S
H374 C379 0.950 . S
H375 C383 0.949 . S
H376 C384 0.950 . S
H377 C385 0.951 . S
H378 C386 0.951 . S
C379 C373 1.265 . S
C379 H374 0.950 . S
C379 C380 1.478 . S
C380 C379 1.478 . S
C380 C381 1.397 . S
C380 C397 1.394 . S
C381 C380 1.397 . S
C381 C382 1.438 . S
C381 C386 1.429 . S
C382 C381 1.438 . S
C382 C383 1.428 . S
C382 C395 1.394 . S
C383 H375 0.949 . S
C383 C382 1.428 . S
C383 C384 1.345 . S
C384 H376 0.950 . S
C384 C383 1.345 . S
C384 C385 1.424 . S
C385 H377 0.951 . S
C385 C384 1.424 . S
C385 C386 1.347 . S
C386 H378 0.951 . S
C386 C381 1.429 . S
C386 C385 1.347 . S
H387 C388 0.951 . S
C388 H387 0.951 . S
C388 C394 1.265 . S
H389 C394 0.950 . S
H390 C398 0.949 . S
H391 C399 0.950 1_455 S
H392 C400 0.951 1_455 S
H393 C401 0.951 . S
C394 C388 1.265 . S
C394 H389 0.950 . S
C394 C395 1.478 . S
C395 C382 1.394 . S
C395 C394 1.478 . S
C395 C396 1.397 . S
C396 C395 1.397 . S
C396 C397 1.438 . S
C396 C401 1.429 . S
C397 C380 1.394 . S
C397 C396 1.438 . S
C397 C398 1.428 . S
C398 H390 0.949 . S
C398 C397 1.428 . S
C398 C399 1.345 . S
C399 H391 0.950 1_655 S
C399 C398 1.345 . S
C399 C400 1.424 . S
C400 H392 0.951 1_655 S
C400 C399 1.424 . S
C400 C401 1.347 . S
C401 H393 0.951 . S
C401 C396 1.429 . S
C401 C400 1.347 . S
H402 C403 0.951 . S
C403 H402 0.951 . S
C403 C409 1.265 . S
H404 C409 0.950 . S
H405 C413 0.949 . S
H406 C414 0.950 . S
H407 C415 0.951 . S
H408 C416 0.951 . S
C409 C403 1.265 . S
C409 H404 0.950 . S
C409 C410 1.478 . S
C410 C409 1.478 . S
C410 C411 1.397 . S
C410 C427 1.394 . S
C411 C410 1.397 . S
C411 C412 1.438 . S
C411 C416 1.429 . S
C412 C411 1.438 . S
C412 C413 1.428 . S
C412 C425 1.394 . S
C413 H405 0.949 . S
C413 C412 1.428 . S
C413 C414 1.345 . S
C414 H406 0.950 . S
C414 C413 1.345 . S
C414 C415 1.424 . S
C415 H407 0.951 . S
C415 C414 1.424 . S
C415 C416 1.347 . S
C416 H408 0.951 . S
C416 C411 1.429 . S
C416 C415 1.347 . S
H417 C418 0.951 . S
C418 H417 0.951 . S
C418 C424 1.265 . S
H419 C424 0.950 . S
H420 C428 0.949 . S
H421 C429 0.950 . S
H422 C430 0.951 . S
H423 C431 0.951 . S
C424 C418 1.265 . S
C424 H419 0.950 . S
C424 C425 1.478 . S
C425 C412 1.394 . S
C425 C424 1.478 . S
C425 C426 1.397 . S
C426 C425 1.397 . S
C426 C427 1.438 . S
C426 C431 1.429 . S
C427 C410 1.394 . S
C427 C426 1.438 . S
C427 C428 1.428 . S
C428 H420 0.949 . S
C428 C427 1.428 . S
C428 C429 1.345 . S
C429 H421 0.950 . S
C429 C428 1.345 . S
C429 C430 1.424 . S
C430 H422 0.951 . S
C430 C429 1.424 . S
C430 C431 1.347 . S
C431 H423 0.951 . S
C431 C426 1.429 . S
C431 C430 1.347 . S
H432 C433 0.951 . S
C433 H432 0.951 . S
C433 C439 1.265 . S
H434 C439 0.950 . S
H435 C443 0.949 . S
H436 C444 0.950 . S
H437 C445 0.951 . S
H438 C446 0.951 . S
C439 C433 1.265 . S
C439 H434 0.950 . S
C439 C440 1.478 . S
C440 C439 1.478 . S
C440 C441 1.397 . S
C440 C457 1.394 . S
C441 C440 1.397 . S
C441 C442 1.438 . S
C441 C446 1.429 . S
C442 C441 1.438 . S
C442 C443 1.428 . S
C442 C455 1.394 . S
C443 H435 0.949 . S
C443 C442 1.428 . S
C443 C444 1.345 . S
C444 H436 0.950 . S
C444 C443 1.345 . S
C444 C445 1.424 . S
C445 H437 0.951 . S
C445 C444 1.424 . S
C445 C446 1.347 . S
C446 H438 0.951 . S
C446 C441 1.429 . S
C446 C445 1.347 . S
H447 C448 0.951 . S
C448 H447 0.951 . S
C448 C454 1.265 . S
H449 C454 0.950 . S
H450 C458 0.949 . S
H451 C459 0.950 . S
H452 C460 0.951 . S
H453 C461 0.951 . S
C454 C448 1.265 . S
C454 H449 0.950 . S
C454 C455 1.478 . S
C455 C442 1.394 . S
C455 C454 1.478 . S
C455 C456 1.397 . S
C456 C455 1.397 . S
C456 C457 1.438 . S
C456 C461 1.429 . S
C457 C440 1.394 . S
C457 C456 1.438 . S
C457 C458 1.428 . S
C458 H450 0.949 . S
C458 C457 1.428 . S
C458 C459 1.345 . S
C459 H451 0.950 . S
C459 C458 1.345 . S
C459 C460 1.424 . S
C460 H452 0.951 . S
C460 C459 1.424 . S
C460 C461 1.347 . S
C461 H453 0.951 . S
C461 C456 1.429 . S
C461 C460 1.347 . S
H462 C463 0.951 . S
C463 H462 0.951 . S
C463 C469 1.265 . S
H464 C469 0.950 . S
H465 C473 0.949 . S
H466 C474 0.950 . S
H467 C475 0.951 . S
H468 C476 0.951 . S
C469 C463 1.265 . S
C469 H464 0.950 . S
C469 C470 1.478 . S
C470 C469 1.478 . S
C470 C471 1.397 . S
C470 C487 1.394 . S
C471 C470 1.397 . S
C471 C472 1.438 . S
C471 C476 1.429 . S
C472 C471 1.438 . S
C472 C473 1.428 . S
C472 C485 1.394 . S
C473 H465 0.949 . S
C473 C472 1.428 . S
C473 C474 1.345 . S
C474 H466 0.950 . S
C474 C473 1.345 . S
C474 C475 1.424 . S
C475 H467 0.951 . S
C475 C474 1.424 . S
C475 C476 1.347 . S
C476 H468 0.951 . S
C476 C471 1.429 . S
C476 C475 1.347 . S
H477 C478 0.951 . S
C478 H477 0.951 . S
C478 C484 1.265 . S
H479 C484 0.950 . S
H480 C488 0.949 . S
H481 C489 0.950 . S
H482 C490 0.951 . S
H483 C491 0.951 . S
C484 C478 1.265 . S
C484 H479 0.950 . S
C484 C485 1.478 . S
C485 C472 1.394 . S
C485 C484 1.478 . S
C485 C486 1.397 . S
C486 C485 1.397 . S
C486 C487 1.438 . S
C486 C491 1.429 . S
C487 C470 1.394 . S
C487 C486 1.438 . S
C487 C488 1.428 . S
C488 H480 0.949 . S
C488 C487 1.428 . S
C488 C489 1.345 . S
C489 H481 0.950 . S
C489 C488 1.345 . S
C489 C490 1.424 . S
C490 H482 0.951 . S
C490 C489 1.424 . S
C490 C491 1.347 . S
C491 H483 0.951 . S
C491 C486 1.429 . S
C491 C490 1.347 . S
H492 C493 0.951 . S
C493 H492 0.951 . S
C493 C499 1.265 . S
H494 C499 0.950 . S
H495 C503 0.949 . S
H496 C504 0.950 . S
H497 C505 0.951 . S
H498 C506 0.951 . S
C499 C493 1.265 . S
C499 H494 0.950 . S
C499 C500 1.478 . S
C500 C499 1.478 . S
C500 C501 1.397 . S
C500 C517 1.394 . S
C501 C500 1.397 . S
C501 C502 1.438 . S
C501 C506 1.429 . S
C502 C501 1.438 . S
C502 C503 1.428 . S
C502 C515 1.394 . S
C503 H495 0.949 . S
C503 C502 1.428 . S
C503 C504 1.345 . S
C504 H496 0.950 . S
C504 C503 1.345 . S
C504 C505 1.424 . S
C505 H497 0.951 . S
C505 C504 1.424 . S
C505 C506 1.347 . S
C506 H498 0.951 . S
C506 C501 1.429 . S
C506 C505 1.347 . S
H507 C508 0.951 . S
C508 H507 0.951 . S
C508 C514 1.265 . S
H509 C514 0.950 . S
H510 C518 0.949 . S
H511 C519 0.950 . S
H512 C520 0.951 . S
H513 C521 0.951 . S
C514 C508 1.265 . S
C514 H509 0.950 . S
C514 C515 1.478 . S
C515 C502 1.394 . S
C515 C514 1.478 . S
C515 C516 1.397 . S
C516 C515 1.397 . S
C516 C517 1.438 . S
C516 C521 1.429 . S
C517 C500 1.394 . S
C517 C516 1.438 . S
C517 C518 1.428 . S
C518 H510 0.949 . S
C518 C517 1.428 . S
C518 C519 1.345 . S
C519 H511 0.950 . S
C519 C518 1.345 . S
C519 C520 1.424 . S
C520 H512 0.951 . S
C520 C519 1.424 . S
C520 C521 1.347 . S
C521 H513 0.951 . S
C521 C516 1.429 . S
C521 C520 1.347 . S
H522 C523 0.951 . S
C523 H522 0.951 . S
C523 C529 1.265 . S
H524 C529 0.950 . S
H525 C533 0.949 . S
H526 C534 0.950 . S
H527 C535 0.951 . S
H528 C536 0.951 . S
C529 C523 1.265 . S
C529 H524 0.950 . S
C529 C530 1.478 . S
C530 C529 1.478 . S
C530 C531 1.397 1_655 S
C530 C547 1.394 1_655 S
C531 C530 1.397 1_455 S
C531 C532 1.443 . S
C531 C536 1.424 1_455 S
C532 C531 1.443 . S
C532 C533 1.428 . S
C532 C545 1.394 . S
C533 H525 0.949 . S
C533 C532 1.428 . S
C533 C534 1.345 . S
C534 H526 0.950 . S
C534 C533 1.345 . S
C534 C535 1.424 1_455 S
C535 H527 0.951 . S
C535 C534 1.424 1_655 S
C535 C536 1.347 . S
C536 H528 0.951 . S
C536 C531 1.424 1_655 S
C536 C535 1.347 . S
H537 C538 0.951 . S
C538 H537 0.951 . S
C538 C544 1.265 . S
H539 C544 0.950 . S
H540 C548 0.949 1_655 S
H541 C549 0.950 . S
H542 C550 0.951 . S
H543 C551 0.951 . S
C544 C538 1.265 . S
C544 H539 0.950 . S
C544 C545 1.478 . S
C545 C532 1.394 . S
C545 C544 1.478 . S
C545 C546 1.397 . S
C546 C545 1.397 . S
C546 C547 1.438 . S
C546 C551 1.429 . S
C547 C530 1.394 1_455 S
C547 C546 1.438 . S
C547 C548 1.428 . S
C548 H540 0.949 1_455 S
C548 C547 1.428 . S
C548 C549 1.345 . S
C549 H541 0.950 . S
C549 C548 1.345 . S
C549 C550 1.424 . S
C550 H542 0.951 . S
C550 C549 1.424 . S
C550 C551 1.347 . S
C551 H543 0.951 . S
C551 C546 1.429 . S
C551 C550 1.347 . S
H552 C553 0.951 . S
C553 H552 0.951 . S
C553 C559 1.265 . S
H554 C559 0.950 . S
H555 C563 0.949 . S
H556 C564 0.950 . S
H557 C565 0.951 1_545 S
H558 C566 0.951 . S
C559 C553 1.265 . S
C559 H554 0.950 . S
C559 C560 1.478 . S
C560 C559 1.478 . S
C560 C561 1.397 1_545 S
C560 C577 1.394 1_545 S
C561 C560 1.397 1_565 S
C561 C562 1.438 . S
C561 C566 1.429 1_565 S
C562 C561 1.438 . S
C562 C563 1.428 . S
C562 C575 1.394 . S
C563 H555 0.949 . S
C563 C562 1.428 . S
C563 C564 1.345 . S
C564 H556 0.950 . S
C564 C563 1.345 . S
C564 C565 1.424 . S
C565 H557 0.951 1_565 S
C565 C564 1.424 . S
C565 C566 1.347 1_565 S
C566 H558 0.951 . S
C566 C561 1.429 1_545 S
C566 C565 1.347 1_545 S
H567 C568 0.951 . S
C568 H567 0.951 . S
C568 C574 1.265 . S
H569 C574 0.950 . S
H570 C578 0.949 . S
H571 C579 0.950 1_545 S
H572 C580 0.951 . S
H573 C581 0.951 . S
C574 C568 1.265 . S
C574 H569 0.950 . S
C574 C575 1.478 . S
C575 C562 1.394 . S
C575 C574 1.478 . S
C575 C576 1.397 . S
C576 C575 1.397 . S
C576 C577 1.438 . S
C576 C581 1.429 . S
C577 C560 1.394 1_565 S
C577 C576 1.438 . S
C577 C578 1.428 1_565 S
C578 H570 0.949 . S
C578 C577 1.428 1_545 S
C578 C579 1.345 1_545 S
C579 H571 0.950 1_565 S
C579 C578 1.345 1_565 S
C579 C580 1.424 . S
C580 H572 0.951 . S
C580 C579 1.424 . S
C580 C581 1.347 . S
C581 H573 0.951 . S
C581 C576 1.429 . S
C581 C580 1.347 . S
H582 C583 0.951 . S
C583 H582 0.951 . S
C583 C589 1.265 . S
H584 C589 0.950 . S
H585 C593 0.949 . S
H586 C594 0.950 . S
H587 C595 0.951 . S
H588 C596 0.951 . S
C589 C583 1.265 . S
C589 H584 0.950 . S
C589 C590 1.478 . S
C590 C589 1.478 . S
C590 C591 1.397 . S
C590 C607 1.394 . S
C591 C590 1.397 . S
C591 C592 1.438 . S
C591 C596 1.429 . S
C592 C591 1.438 . S
C592 C593 1.428 . S
C592 C605 1.394 . S
C593 H585 0.949 . S
C593 C592 1.428 . S
C593 C594 1.345 . S
C594 H586 0.950 . S
C594 C593 1.345 . S
C594 C595 1.424 . S
C595 H587 0.951 . S
C595 C594 1.424 . S
C595 C596 1.347 . S
C596 H588 0.951 . S
C596 C591 1.429 . S
C596 C595 1.347 . S
H597 C598 0.951 . S
C598 H597 0.951 . S
C598 C604 1.265 . S
H599 C604 0.950 . S
H600 C608 0.949 . S
H601 C609 0.950 . S
H602 C610 0.951 . S
H603 C611 0.951 . S
C604 C598 1.265 . S
C604 H599 0.950 . S
C604 C605 1.478 . S
C605 C592 1.394 . S
C605 C604 1.478 . S
C605 C606 1.397 . S
C606 C605 1.397 . S
C606 C607 1.438 . S
C606 C611 1.429 . S
C607 C590 1.394 . S
C607 C606 1.438 . S
C607 C608 1.428 . S
C608 H600 0.949 . S
C608 C607 1.428 . S
C608 C609 1.345 . S
C609 H601 0.950 . S
C609 C608 1.345 . S
C609 C610 1.424 . S
C610 H602 0.951 . S
C610 C609 1.424 . S
C610 C611 1.347 . S
C611 H603 0.951 . S
C611 C606 1.429 . S
C611 C610 1.347 . S
H612 C613 0.951 . S
C613 H612 0.951 . S
C613 C619 1.265 . S
H614 C619 0.950 . S
H615 C623 0.949 . S
H616 C624 0.950 . S
H617 C625 0.951 1_455 S
H618 C626 0.951 . S
C619 C613 1.265 . S
C619 H614 0.950 . S
C619 C620 1.478 . S
C620 C619 1.478 . S
C620 C621 1.397 1_455 S
C620 C637 1.394 1_455 S
C621 C620 1.397 1_655 S
C621 C622 1.438 . S
C621 C626 1.429 1_655 S
C622 C621 1.438 . S
C622 C623 1.428 . S
C622 C635 1.394 . S
C623 H615 0.949 . S
C623 C622 1.428 . S
C623 C624 1.345 . S
C624 H616 0.950 . S
C624 C623 1.345 . S
C624 C625 1.424 . S
C625 H617 0.951 1_655 S
C625 C624 1.424 . S
C625 C626 1.347 1_655 S
C626 H618 0.951 . S
C626 C621 1.429 1_455 S
C626 C625 1.347 1_455 S
H627 C628 0.951 . S
C628 H627 0.951 . S
C628 C634 1.265 . S
H629 C634 0.950 . S
H630 C638 0.949 . S
H631 C639 0.950 1_455 S
H632 C640 0.951 . S
H633 C641 0.951 . S
C634 C628 1.265 . S
C634 H629 0.950 . S
C634 C635 1.478 . S
C635 C622 1.394 . S
C635 C634 1.478 . S
C635 C636 1.397 . S
C636 C635 1.397 . S
C636 C637 1.438 . S
C636 C641 1.429 . S
C637 C620 1.394 1_655 S
C637 C636 1.438 . S
C637 C638 1.428 1_655 S
C638 H630 0.949 . S
C638 C637 1.428 1_455 S
C638 C639 1.345 1_455 S
C639 H631 0.950 1_655 S
C639 C638 1.345 1_655 S
C639 C640 1.424 . S
C640 H632 0.951 . S
C640 C639 1.424 . S
C640 C641 1.347 . S
C641 H633 0.951 . S
C641 C636 1.429 . S
C641 C640 1.347 . S
H642 C643 0.951 . S
C643 H642 0.951 . S
C643 C649 1.265 . S
H644 C649 0.950 . S
H645 C653 0.949 . S
H646 C654 0.950 1_565 S
H647 C655 0.951 . S
H648 C656 0.951 . S
C649 C643 1.265 . S
C649 H644 0.950 . S
C649 C650 1.478 . S
C650 C649 1.478 . S
C650 C651 1.397 . S
C650 C667 1.394 . S
C651 C650 1.397 . S
C651 C652 1.438 . S
C651 C656 1.429 . S
C652 C651 1.438 . S
C652 C653 1.428 1_545 S
C652 C665 1.394 1_545 S
C653 H645 0.949 . S
C653 C652 1.428 1_565 S
C653 C654 1.345 1_565 S
C654 H646 0.950 1_545 S
C654 C653 1.345 1_545 S
C654 C655 1.424 . S
C655 H647 0.951 . S
C655 C654 1.424 . S
C655 C656 1.347 . S
C656 H648 0.951 . S
C656 C651 1.429 . S
C656 C655 1.347 . S
H657 C658 0.951 . S
C658 H657 0.951 . S
C658 C664 1.265 . S
H659 C664 0.950 . S
H660 C668 0.949 . S
H661 C669 0.950 . S
H662 C670 0.951 . S
H663 C671 0.951 . S
C664 C658 1.265 . S
C664 H659 0.950 . S
C664 C665 1.478 . S
C665 C652 1.394 1_565 S
C665 C664 1.478 . S
C665 C666 1.397 1_565 S
C666 C665 1.397 1_545 S
C666 C667 1.438 . S
C666 C671 1.429 1_545 S
C667 C650 1.394 . S
C667 C666 1.438 . S
C667 C668 1.428 . S
C668 H660 0.949 . S
C668 C667 1.428 . S
C668 C669 1.345 . S
C669 H661 0.950 . S
C669 C668 1.345 . S
C669 C670 1.424 . S
C670 H662 0.951 . S
C670 C669 1.424 . S
C670 C671 1.347 1_545 S
C671 H663 0.951 . S
C671 C666 1.429 1_565 S
C671 C670 1.347 1_565 S
C133 C94 0.677 . S
C148 C5 0.733 . S
C163 C115 1.323 . S
C178 C28 1.313 . S
C193 C49 2.149 . S
C208 C72 2.191 . S
C223 C9 2.168 . S
C238 C95 2.084 . S
C253 C119 1.373 . S
C268 C29 1.382 . S
C283 C53 0.514 . S
C298 C73 0.602 . S
C313 C6 1.392 . S
C328 C48 1.256 . S
C343 C27 1.221 . S
C358 C4 1.166 . S
C373 C50 1.249 . S
C388 C26 1.180 . S
C403 C75 1.408 . S
C418 C96 1.314 . S
C433 C97 1.265 . S
C448 C118 1.242 . S
C463 C74 1.211 . S
C478 C117 1.237 . S
C493 C8 1.197 . S
C508 C51 1.301 . S
C523 C30 1.184 . S
C538 C7 1.253 . S
C553 C52 1.248 . S
C568 C31 1.313 . S
C583 C70 1.236 . S
C598 C93 1.298 . S
C613 C92 1.241 . S
C628 C116 1.310 . S
C643 C71 1.262 . S
C658 C114 1.243 . S
