# Generated by pormake.
# Topology qtz-e, (6)-cn, num edge types: 1
# Building blocks:
#     Node 0, Type 0, BuildingBlock: JUFBIX_clean_sbu_0, # of connection points: 6
#     Node 1, Type 0, BuildingBlock: JUFBIX_clean_sbu_0, # of connection points: 6
#     Node 2, Type 0, BuildingBlock: JUFBIX_clean_sbu_0, # of connection points: 6
#     Node 3, Type 0, BuildingBlock: JUFBIX_clean_sbu_0, # of connection points: 6
#     Node 4, Type 0, BuildingBlock: JUFBIX_clean_sbu_0, # of connection points: 6
#     Node 5, Type 0, BuildingBlock: JUFBIX_clean_sbu_0, # of connection points: 6
#     Edge 6, Type (0, 0), BuildingBlock: OJICUG_clean_linker_0, # of connection points: 2
#     Edge 7, Type (0, 0), BuildingBlock: OJICUG_clean_linker_0, # of connection points: 2
#     Edge 8, Type (0, 0), BuildingBlock: OJICUG_clean_linker_0, # of connection points: 2
#     Edge 9, Type (0, 0), BuildingBlock: OJICUG_clean_linker_0, # of connection points: 2
#     Edge 10, Type (0, 0), BuildingBlock: OJICUG_clean_linker_0, # of connection points: 2
#     Edge 11, Type (0, 0), BuildingBlock: OJICUG_clean_linker_0, # of connection points: 2
#     Edge 12, Type (0, 0), BuildingBlock: OJICUG_clean_linker_0, # of connection points: 2
#     Edge 13, Type (0, 0), BuildingBlock: OJICUG_clean_linker_0, # of connection points: 2
#     Edge 14, Type (0, 0), BuildingBlock: OJICUG_clean_linker_0, # of connection points: 2
#     Edge 15, Type (0, 0), BuildingBlock: OJICUG_clean_linker_0, # of connection points: 2
#     Edge 16, Type (0, 0), BuildingBlock: OJICUG_clean_linker_0, # of connection points: 2
#     Edge 17, Type (0, 0), BuildingBlock: OJICUG_clean_linker_0, # of connection points: 2
#     Edge 18, Type (0, 0), BuildingBlock: OJICUG_clean_linker_0, # of connection points: 2
#     Edge 19, Type (0, 0), BuildingBlock: OJICUG_clean_linker_0, # of connection points: 2
#     Edge 20, Type (0, 0), BuildingBlock: OJICUG_clean_linker_0, # of connection points: 2
#     Edge 21, Type (0, 0), BuildingBlock: OJICUG_clean_linker_0, # of connection points: 2
#     Edge 22, Type (0, 0), BuildingBlock: OJICUG_clean_linker_0, # of connection points: 2
#     Edge 23, Type (0, 0), BuildingBlock: OJICUG_clean_linker_0, # of connection points: 2
# Relax obj value: 0.694
# Max RMSD: 0.306
# Mean RMSD: 0.306
data_MOF--net-qtz-e--node1-JUFBIX_clean_sbu_0--edge1-OJICUG_clean_linker_0
_symmetry_space_group_name_H-M    P1
_symmetry_Int_Tables_number       1
_symmetry_cell_setting            triclinic
loop_
_symmetry_equiv_pos_as_xyz
'x, y, z'
_cell_length_a     19.089663
_cell_length_b     19.109347
_cell_length_c     30.77889
_cell_angle_alpha  89.997328
_cell_angle_beta   89.682342
_cell_angle_gamma 119.73732
loop_
_atom_site_label
_atom_site_type_symbol
_atom_site_fract_x
_atom_site_fract_y
_atom_site_fract_z
_atom_type_partial_charge
Co0 Co 0.23045 0.45367 0.1661 0.0
C1 C 0.3186 0.383 0.14495 0.0
Co2 Co 0.16757 0.35815 0.1184 0.0
C3 C 0.24745 0.54749 0.23912 0.0
C4 C 0.36272 0.58332 0.2103 0.0
N5 N 0.28272 0.53308 0.20536 0.0
N6 N 0.30189 0.60384 0.26539 0.0
C7 C 0.37481 0.627 0.24778 0.0
H8 H 0.18303 0.51491 0.24525 0.0
H9 H 0.40907 0.58624 0.18875 0.0
C10 C 0.09345 0.44891 0.13242 0.0
N11 N 0.11932 0.27723 0.07709 0.0
C12 C 0.158 0.26808 0.04262 0.0
C13 C 0.0433 0.21505 0.0746 0.0
N14 N 0.10991 0.2025 0.01858 0.0
C15 C 0.03728 0.16902 0.03868 0.0
C16 C 0.11851 0.30774 0.20372 0.0
O17 O 0.15111 0.48451 0.15896 0.0
O18 O 0.08314 0.38476 0.11373 0.0
O19 O 0.10976 0.28225 0.16475 0.0
O20 O 0.1693 0.38095 0.21133 0.0
O21 O 0.25885 0.33926 0.1206 0.0
H22 H 0.99572 0.20336 0.09766 0.0
H23 H 0.22075 0.30963 0.03541 0.0
O24 O 0.3106 0.42717 0.1726 0.0
O25 O 0.29081 0.52667 0.12129 0.0
O26 O 0.22028 0.43176 0.07421 0.0
C27 C 0.27262 0.50378 0.08237 0.0
H28 H 0.43208 0.67178 0.26107 0.0
H29 H 0.98379 0.11444 0.0288 0.0
Co30 Co 0.77719 0.22671 0.38035 0.0
C31 C 0.68723 0.06567 0.39864 0.0
Co32 Co 0.83548 0.18732 0.428 0.0
C33 C 0.7631 0.30422 0.30657 0.0
C34 C 0.64728 0.22886 0.33565 0.0
N35 N 0.72695 0.25622 0.34074 0.0
N36 N 0.70947 0.30721 0.27988 0.0
C37 C 0.63625 0.26012 0.29772 0.0
H38 H 0.82747 0.33386 0.30046 0.0
H39 H 0.60036 0.18702 0.35734 0.0
C40 C 0.91077 0.35444 0.41711 0.0
N41 N 0.882 0.15237 0.46959 0.0
C42 C 0.84236 0.10304 0.50336 0.0
C43 C 0.95871 0.16818 0.47347 0.0
N44 N 0.89069 0.08695 0.52847 0.0
C45 C 0.96428 0.12816 0.50952 0.0
C46 C 0.89077 0.19298 0.34332 0.0
O47 O 0.85735 0.33511 0.38814 0.0
O48 O 0.91716 0.29879 0.43665 0.0
O49 O 0.89938 0.17613 0.38231 0.0
O50 O 0.83865 0.21399 0.33545 0.0
O51 O 0.74732 0.07754 0.42182 0.0
H52 H 1.00735 0.2062 0.45153 0.0
H53 H 0.77888 0.08024 0.50939 0.0
O54 O 0.6954 0.12112 0.37331 0.0
O55 O 0.71678 0.24037 0.42478 0.0
O56 O 0.77581 0.2 0.47136 0.0
C57 C 0.72661 0.22428 0.46338 0.0
H58 H 0.57941 0.24914 0.28426 0.0
H59 H 0.01858 0.12938 0.52048 0.0
Co60 Co 0.54487 0.76722 0.83439 0.0
C61 C 0.61603 0.92834 0.81455 0.0
Co62 Co 0.64367 0.80632 0.78701 0.0
C63 C 0.45374 0.70483 0.91183 0.0
C64 C 0.40353 0.75893 0.87071 0.0
N65 N 0.46324 0.74054 0.87309 0.0
N66 N 0.3908 0.70049 0.93376 0.0
C67 C 0.35802 0.73331 0.90806 0.0
H68 H 0.49154 0.68147 0.92356 0.0
H69 H 0.39452 0.79014 0.84389 0.0
C70 C 0.5521 0.63897 0.79987 0.0
N71 N 0.72617 0.83958 0.74581 0.0
C72 C 0.73446 0.88556 0.71069 0.0
C73 C 0.78863 0.82546 0.74304 0.0
N74 N 0.79881 0.90037 0.68585 0.0
C75 C 0.83367 0.86312 0.70624 0.0
C76 C 0.69071 0.80316 0.87237 0.0
O77 O 0.51761 0.65881 0.82877 0.0
O78 O 0.61384 0.69421 0.77984 0.0
O79 O 0.71671 0.8186 0.83334 0.0
O80 O 0.61749 0.78221 0.88009 0.0
O81 O 0.66515 0.91634 0.79186 0.0
H82 H 0.80038 0.78982 0.76607 0.0
H83 H 0.6941 0.90855 0.70362 0.0
O84 O 0.56759 0.87285 0.83949 0.0
O85 O 0.47265 0.75122 0.78868 0.0
O86 O 0.57352 0.79282 0.74288 0.0
C87 C 0.49978 0.76737 0.75024 0.0
H88 H 0.30544 0.73854 0.91589 0.0
H89 H 0.88677 0.86176 0.69493 0.0
Co90 Co 0.77836 0.54661 0.04606 0.0
C91 C 0.93875 0.6197 0.06565 0.0
Co92 Co 0.81333 0.64187 0.09476 0.0
C93 C 0.70161 0.45402 0.97251 0.0
C94 C 0.78335 0.41956 -0.00067 0.0
N95 N 0.75234 0.46884 0.00553 0.0
N96 N 0.70014 0.39821 0.9456 0.0
C97 C 0.7514 0.37601 0.96196 0.0
H98 H 0.66815 0.48544 0.96755 0.0
H99 H 0.8274 0.41676 0.02012 0.0
C100 C 0.64712 0.54846 0.08248 0.0
N101 N 0.84438 0.72116 0.13724 0.0
C102 C 0.89077 0.72913 0.17195 0.0
C103 C 0.82773 0.78172 0.14114 0.0
N104 N 0.90365 0.79171 0.19754 0.0
C105 C 0.8644 0.82544 0.17812 0.0
C106 C 0.80907 0.69326 0.01065 0.0
O107 O 0.66874 0.51558 0.05364 0.0
O108 O 0.70103 0.61011 0.10262 0.0
O109 O 0.82453 0.71754 0.04983 0.0
O110 O 0.78988 0.62103 0.00203 0.0
O111 O 0.92414 0.66583 0.08929 0.0
H112 H 0.79111 0.79313 0.11869 0.0
H113 H 0.9155 0.68995 0.17811 0.0
O114 O 0.88544 0.57371 0.03924 0.0
O115 O 0.76583 0.47192 0.08975 0.0
O116 O 0.80063 0.56864 0.13741 0.0
C117 C 0.77954 0.49635 0.12863 0.0
H118 H 0.76425 0.33154 0.94802 0.0
H119 H 0.86112 0.87696 0.19016 0.0
Co120 Co 0.23118 0.7691 0.50057 0.0
C121 C 0.07027 0.68008 0.4829 0.0
Co122 Co 0.19266 0.82888 0.45341 0.0
C123 C 0.30952 0.75188 0.57296 0.0
C124 C 0.23227 0.63734 0.54382 0.0
N125 N 0.2603 0.71725 0.53934 0.0
N126 N 0.31272 0.69702 0.59868 0.0
C127 C 0.26436 0.62459 0.58086 0.0
H128 H 0.34007 0.816 0.57937 0.0
H129 H 0.18962 0.59142 0.52227 0.0
C130 C 0.35967 0.90333 0.46369 0.0
N131 N 0.15763 0.87614 0.41227 0.0
C132 C 0.10767 0.83628 0.37908 0.0
C133 C 0.17379 0.95281 0.40785 0.0
N134 N 0.09156 0.88436 0.35371 0.0
C135 C 0.13338 0.9581 0.37199 0.0
C136 C 0.19868 0.88262 0.53845 0.0
O137 O 0.3398 0.84881 0.49228 0.0
O138 O 0.30434 0.91069 0.44452 0.0
O139 O 0.18147 0.89162 0.49961 0.0
O140 O 0.21934 0.83008 0.54605 0.0
O141 O 0.08264 0.74061 0.4598 0.0
H142 H 0.21245 1.00164 0.42922 0.0
H143 H 0.08439 0.77273 0.37371 0.0
O144 O 0.12531 0.68774 0.5082 0.0
O145 O 0.2442 0.70936 0.4556 0.0
O146 O 0.20552 0.77055 0.40953 0.0
C147 C 0.22901 0.72063 0.41711 0.0
H148 H 0.25311 0.56719 0.59376 0.0
H149 H 0.13514 0.01246 0.36058 0.0
Co150 Co 0.45642 0.22549 0.71412 0.0
C151 C 0.38413 0.31417 0.73332 0.0
Co152 Co 0.35905 0.16533 0.76192 0.0
C153 C 0.55089 0.24211 0.64108 0.0
C154 C 0.58795 0.35718 0.66981 0.0
N155 N 0.53668 0.27737 0.67483 0.0
N156 N 0.60813 0.29638 0.61475 0.0
C157 C 0.63209 0.36918 0.63232 0.0
H158 H 0.51755 0.17787 0.63503 0.0
H159 H 0.59126 0.40349 0.69132 0.0
C160 C 0.45183 0.0912 0.75021 0.0
N161 N 0.27698 0.11712 0.80322 0.0
C162 C 0.26876 0.15448 0.83851 0.0
C163 C 0.21351 0.04155 0.80528 0.0
N164 N 0.20333 0.10569 0.86268 0.0
C165 C 0.16781 0.03445 0.84177 0.0
C166 C 0.31138 0.11207 0.67688 0.0
O167 O 0.48635 0.14611 0.72182 0.0
O168 O 0.38903 0.08346 0.76971 0.0
O169 O 0.28532 0.10319 0.71586 0.0
O170 O 0.38418 0.1645 0.66896 0.0
O171 O 0.33685 0.25365 0.75669 0.0
H172 H 0.20125 0.99474 0.78183 0.0
H173 H 0.30963 0.21713 0.84606 0.0
O174 O 0.43076 0.30642 0.70709 0.0
O175 O 0.52886 0.28546 0.75874 0.0
O176 O 0.43043 0.22327 0.80575 0.0
C177 C 0.50329 0.2737 0.79756 0.0
H178 H 0.67772 0.42631 0.61898 0.0
H179 H 0.11364 0.98086 0.85246 0.0
C180 C 0.19492 0.66517 0.34375 0.0
C181 C 0.24314 0.68146 0.38059 0.0
H182 H 0.17765 0.62887 0.27748 0.0
C183 C 0.3103 0.67022 0.37981 0.0
H184 H 0.14295 0.67389 0.3439 0.0
C185 C 0.3308 0.64561 0.34154 0.0
C186 C 0.28331 0.631 0.30444 0.0
H187 H 0.34858 0.68374 0.40802 0.0
H188 H 0.3832 0.63775 0.34083 0.0
C189 C 0.21476 0.63982 0.30594 0.0
C190 C 0.65241 0.32673 0.53875 0.0
C191 C 0.63529 0.27779 0.57566 0.0
H192 H 0.6931 0.34595 0.47251 0.0
C193 C 0.64184 0.20802 0.57396 0.0
H194 H 0.64632 0.3801 0.53959 0.0
C195 C 0.66755 0.18842 0.53619 0.0
C196 C 0.68655 0.23816 0.49961 0.0
H197 H 0.62899 0.16977 0.60226 0.0
H198 H 0.67462 0.13551 0.5359 0.0
C199 C 0.67745 0.30653 0.50052 0.0
C200 C 0.24954 0.55616 0.01465 0.0
C201 C 0.30336 0.56118 0.04692 0.0
H202 H 0.23616 0.5994 0.95305 0.0
C203 C 0.38525 0.61868 0.04397 0.0
H204 H 0.18576 0.51249 0.01697 0.0
C205 C 0.41395 0.66748 0.00719 0.0
C206 C 0.36042 0.66006 0.97404 0.0
H207 H 0.4271 0.62313 0.06892 0.0
H208 H 0.47797 0.70944 0.00394 0.0
C209 C 0.27787 0.60608 0.97856 0.0
C210 C 0.67926 0.32021 0.20389 0.0
C211 C 0.72877 0.35178 0.2404 0.0
H212 H 0.65875 0.34178 0.13805 0.0
C213 C 0.79895 0.42725 0.2381 0.0
H214 H 0.62557 0.26139 0.20515 0.0
C215 C 0.81788 0.47232 0.20032 0.0
C216 C 0.76718 0.44209 0.16431 0.0
H217 H 0.83768 0.45251 0.26604 0.0
H218 H 0.87074 0.53194 0.19968 0.0
C219 C 0.69886 0.36514 0.16563 0.0
C220 C 0.36976 0.68559 0.71274 0.0
C221 C 0.44729 0.75314 0.71359 0.0
H222 H 0.26569 0.61331 0.67377 0.0
C223 C 0.47908 0.80239 0.67685 0.0
H224 H 0.34512 0.64657 0.74087 0.0
C225 C 0.43452 0.78338 0.63912 0.0
C226 C 0.35799 0.71463 0.63758 0.0
H227 H 0.53909 0.85472 0.67707 0.0
H228 H 0.46046 0.8214 0.61076 0.0
C229 C 0.32533 0.66592 0.67453 0.0
C230 C 0.68429 0.35572 0.86944 0.0
C231 C 0.65235 0.36923 0.90756 0.0
H232 H 0.6615 0.31646 0.80321 0.0
C233 C 0.57351 0.3565 0.9082 0.0
H234 H 0.74555 0.36644 0.86851 0.0
C235 C 0.52603 0.32829 0.87149 0.0
C236 C 0.55728 0.31347 0.83355 0.0
H237 H 0.54809 0.36657 0.93749 0.0
H238 H 0.46444 0.31675 0.87298 0.0
C239 C 0.63701 0.32859 0.83226 0.0
C240 C 0.46659 0.46252 0.15834 0.0
C241 C 0.40296 0.40926 0.13127 0.0
H242 H 0.59169 0.55085 0.16372 0.0
C243 C 0.42115 0.40106 0.08786 0.0
H244 H 0.45507 0.47091 0.19191 0.0
C245 C 0.50012 0.4476 0.07164 0.0
C246 C 0.56229 0.5044 0.0982 0.0
H247 H 0.37375 0.3621 0.06578 0.0
H248 H 0.51224 0.44027 0.03801 0.0
C249 C 0.54475 0.51008 0.14193 0.0
C250 C 1.00592 0.53147 0.4946 0.0
C251 C 0.01343 0.59602 0.46887 0.0
H252 H 0.97194 0.40656 0.49802 0.0
C253 C 0.98569 0.57965 0.4258 0.0
H254 H 0.02724 0.54162 0.52781 0.0
C255 C 0.95446 0.50175 0.40858 0.0
C256 C 0.9513 0.43854 0.43376 0.0
H257 H 0.99207 0.62777 0.40463 0.0
H258 H 0.93392 0.49126 0.37524 0.0
C259 C 0.97616 0.45423 0.4772 0.0
C260 C 0.55506 0.04672 0.74085 0.0
C261 C 0.49544 0.05028 0.76647 0.0
H262 H 0.64264 0.00753 0.73626 0.0
C263 C 0.48658 0.02538 0.80999 0.0
H264 H 0.56478 0.06736 0.70743 0.0
C265 C 0.53385 0.99494 0.82706 0.0
C266 C 0.59022 0.98669 0.80088 0.0
H267 H 0.44347 0.03001 0.83111 0.0
H268 H 0.52282 0.97338 0.86034 0.0
C269 C 0.60147 0.01465 0.75773 0.0
C270 C 0.44956 0.49175 0.80886 0.0
C271 C 0.50855 0.55494 0.78324 0.0
H272 H 0.36142 0.3659 0.81296 0.0
C273 C 0.51608 0.53961 0.73938 0.0
H274 H 0.44077 0.50205 0.84255 0.0
C275 C 0.46794 0.46273 0.72191 0.0
C276 C 0.41191 0.39815 0.74797 0.0
H277 H 0.55861 0.58736 0.71825 0.0
H278 H 0.47777 0.45283 0.6883 0.0
C279 C 0.40227 0.41413 0.79155 0.0
C280 C 0.03162 0.48659 0.07206 0.0
C281 C 0.05378 0.49355 0.1159 0.0
H282 H 0.98482 0.52641 0.02078 0.0
C283 C 0.05001 0.55296 0.14131 0.0
H284 H 0.03678 0.44381 0.05109 0.0
C285 C 0.02013 0.60093 0.12387 0.0
C286 C 0.99496 0.5917 0.08032 0.0
H287 H 0.06887 0.56137 0.17494 0.0
H288 H 0.01274 0.64199 0.14514 0.0
C289 C 1.00383 0.53568 0.0544 0.0
C290 C 0.46094 0.97086 0.40388 0.0
C291 C 0.44422 0.94459 0.4472 0.0
H292 H 0.54969 0.0238 0.35352 0.0
C293 C 0.50696 0.94718 0.47241 0.0
H294 H 0.41366 0.96714 0.38304 0.0
C295 C 0.58541 0.97921 0.45536 0.0
C296 C 0.60279 0.00832 0.41241 0.0
H297 H 0.49567 0.9256 0.50567 0.0
H298 H 0.63311 0.98511 0.47657 0.0
C299 C 0.53874 1.00142 0.38663 0.0
C300 C 0.09695 0.09398 0.91371 0.0
C301 C 0.17887 0.1265 0.90282 0.0
H302 H 0.01044 0.09366 0.95836 0.0
C303 C 0.2373 0.18169 0.93131 0.0
H304 H 0.05063 0.05159 0.89221 0.0
C305 C 0.21468 0.2051 0.9694 0.0
C306 C 0.13271 0.17487 0.97996 0.0
H307 H 0.30091 0.20651 0.92427 0.0
H308 H 0.26211 0.24687 -0.00953 0.0
C309 C 0.07407 0.11823 0.95172 0.0
C310 C 0.03158 0.24087 0.31674 0.0
C311 C 0.94841 0.20175 0.30829 0.0
H312 H 0.15128 0.30605 0.28985 0.0
C313 C 0.92259 0.1859 0.26486 0.0
H314 H 0.0533 0.25501 0.3498 0.0
C315 C 0.97872 0.21293 0.23053 0.0
C316 C 0.06177 0.25878 0.23894 0.0
H317 H 0.85885 0.15652 0.25739 0.0
H318 H 0.95685 0.20411 0.19746 0.0
C319 C 0.08767 0.27028 0.2824 0.0
C320 C 0.9041 0.99023 0.6331 0.0
C321 C 0.82256 0.9449 0.64544 0.0
H322 H 0.99013 0.07181 0.5871 0.0
C323 C 0.76398 0.94486 0.61804 0.0
H324 H 0.95066 0.99174 0.65366 0.0
C325 C 0.78615 0.98992 0.57964 0.0
C326 C 0.86793 0.03747 0.56752 0.0
H327 H 0.7005 0.90925 0.62613 0.0
H328 H 0.73836 0.98683 0.55967 0.0
C329 C 0.92659 0.0363 0.59476 0.0
C330 C 0.78938 0.76281 0.89882 0.0
C331 C 0.73948 0.79588 0.90763 0.0
H332 H 0.85037 0.70347 0.925 0.0
C333 C 0.72519 0.80763 0.95121 0.0
H334 H 0.80067 0.75208 0.86562 0.0
C335 C 0.75584 0.78209 -0.01475 0.0
C336 C 0.79914 0.74196 0.9763 0.0
H337 H 0.6865 0.83248 0.95896 0.0
H338 H 0.7395 0.78728 0.01838 0.0
C339 C 0.81776 0.73486 0.93282 0.0
C340 C 0.03628 0.91905 0.2889 0.0
C341 C 0.04185 0.8612 0.31493 0.0
H342 H 0.9882 0.94247 0.23128 0.0
C343 C 0.99842 0.77987 0.30183 0.0
H344 H 0.06824 0.98219 0.29734 0.0
C345 C 0.95302 0.75753 0.26376 0.0
C346 C 0.9487 0.8154 0.23758 0.0
H347 H 0.99887 0.73244 0.32065 0.0
H348 H 0.92059 0.69441 0.25501 0.0
C349 C 0.99003 0.89635 0.25085 0.0
C350 C 0.22002 0.97113 0.65108 0.0
C351 C 0.26378 0.05419 0.64206 0.0
H352 H 0.16568 0.85124 0.62508 0.0
C353 C 0.27423 0.07959 0.5984 0.0
H354 H 0.21209 0.94964 0.6843 0.0
C355 C 0.24542 0.0232 0.56448 0.0
C356 C 0.20804 0.94021 0.57347 0.0
H357 H 0.30841 0.14318 0.59045 0.0
H358 H 0.25844 0.04476 0.53124 0.0
C359 C 0.19368 0.91477 0.61714 0.0
loop_
_geom_bond_atom_site_label_1
_geom_bond_atom_site_label_2
_geom_bond_distance
_geom_bond_site_symmetry_2
_ccdc_geom_bond_type
Co0 N5 2.057 . S
Co0 O17 2.021 . S
Co0 O20 2.062 . S
Co0 O24 2.117 . S
Co0 O25 2.020 . S
C1 O21 1.259 . S
C1 O24 1.258 . S
Co2 N11 2.057 . S
Co2 O18 2.117 . S
Co2 O19 2.020 . S
Co2 O21 2.021 . S
Co2 O26 2.062 . S
C3 N5 1.316 . S
C3 N6 1.347 . S
C3 H8 0.931 . S
C4 N5 1.375 . S
C4 C7 1.350 . S
C4 H9 0.930 . S
N5 Co0 2.057 . S
N5 C3 1.316 . S
N5 C4 1.375 . S
N6 C3 1.347 . S
N6 C7 1.373 . S
C7 C4 1.350 . S
C7 N6 1.373 . S
C7 H28 0.931 . S
H8 C3 0.931 . S
H9 C4 0.930 . S
C10 O17 1.259 . S
C10 O18 1.258 . S
N11 Co2 2.057 . S
N11 C12 1.316 . S
N11 C13 1.375 . S
C12 N11 1.316 . S
C12 N14 1.347 . S
C12 H23 0.931 . S
C13 N11 1.375 . S
C13 C15 1.350 . S
C13 H22 0.930 1_455 S
N14 C12 1.347 . S
N14 C15 1.373 . S
C15 C13 1.350 . S
C15 N14 1.373 . S
C15 H29 0.931 1_455 S
C16 O19 1.256 . S
C16 O20 1.255 . S
O17 Co0 2.021 . S
O17 C10 1.259 . S
O18 Co2 2.117 . S
O18 C10 1.258 . S
O19 Co2 2.020 . S
O19 C16 1.256 . S
O20 Co0 2.062 . S
O20 C16 1.255 . S
O21 C1 1.259 . S
O21 Co2 2.021 . S
H22 C13 0.930 1_655 S
H23 C12 0.931 . S
O24 Co0 2.117 . S
O24 C1 1.258 . S
O25 Co0 2.020 . S
O25 C27 1.256 . S
O26 Co2 2.062 . S
O26 C27 1.255 . S
C27 O25 1.256 . S
C27 O26 1.255 . S
H28 C7 0.931 . S
H29 C15 0.931 1_655 S
Co30 N35 2.057 . S
Co30 O47 2.021 . S
Co30 O50 2.062 . S
Co30 O54 2.117 . S
Co30 O55 2.020 . S
C31 O51 1.259 . S
C31 O54 1.258 . S
Co32 N41 2.057 . S
Co32 O48 2.117 . S
Co32 O49 2.020 . S
Co32 O51 2.021 . S
Co32 O56 2.062 . S
C33 N35 1.316 . S
C33 N36 1.347 . S
C33 H38 0.931 . S
C34 N35 1.375 . S
C34 C37 1.350 . S
C34 H39 0.930 . S
N35 Co30 2.057 . S
N35 C33 1.316 . S
N35 C34 1.375 . S
N36 C33 1.347 . S
N36 C37 1.373 . S
C37 C34 1.350 . S
C37 N36 1.373 . S
C37 H58 0.931 . S
H38 C33 0.931 . S
H39 C34 0.930 . S
C40 O47 1.259 . S
C40 O48 1.258 . S
N41 Co32 2.057 . S
N41 C42 1.316 . S
N41 C43 1.375 . S
C42 N41 1.316 . S
C42 N44 1.347 . S
C42 H53 0.931 . S
C43 N41 1.375 . S
C43 C45 1.350 . S
C43 H52 0.930 1_655 S
N44 C42 1.347 . S
N44 C45 1.373 . S
C45 C43 1.350 . S
C45 N44 1.373 . S
C45 H59 0.931 1_655 S
C46 O49 1.256 . S
C46 O50 1.255 . S
O47 Co30 2.021 . S
O47 C40 1.259 . S
O48 Co32 2.117 . S
O48 C40 1.258 . S
O49 Co32 2.020 . S
O49 C46 1.256 . S
O50 Co30 2.062 . S
O50 C46 1.255 . S
O51 C31 1.259 . S
O51 Co32 2.021 . S
H52 C43 0.930 1_455 S
H53 C42 0.931 . S
O54 Co30 2.117 . S
O54 C31 1.258 . S
O55 Co30 2.020 . S
O55 C57 1.256 . S
O56 Co32 2.062 . S
O56 C57 1.255 . S
C57 O55 1.256 . S
C57 O56 1.255 . S
H58 C37 0.931 . S
H59 C45 0.931 1_455 S
Co60 N65 2.057 . S
Co60 O77 2.021 . S
Co60 O80 2.062 . S
Co60 O84 2.117 . S
Co60 O85 2.020 . S
C61 O81 1.259 . S
C61 O84 1.258 . S
Co62 N71 2.057 . S
Co62 O78 2.117 . S
Co62 O79 2.020 . S
Co62 O81 2.021 . S
Co62 O86 2.062 . S
C63 N65 1.316 . S
C63 N66 1.347 . S
C63 H68 0.931 . S
C64 N65 1.375 . S
C64 C67 1.350 . S
C64 H69 0.930 . S
N65 Co60 2.057 . S
N65 C63 1.316 . S
N65 C64 1.375 . S
N66 C63 1.347 . S
N66 C67 1.373 . S
C67 C64 1.350 . S
C67 N66 1.373 . S
C67 H88 0.931 . S
H68 C63 0.931 . S
H69 C64 0.930 . S
C70 O77 1.259 . S
C70 O78 1.258 . S
N71 Co62 2.057 . S
N71 C72 1.316 . S
N71 C73 1.375 . S
C72 N71 1.316 . S
C72 N74 1.347 . S
C72 H83 0.931 . S
C73 N71 1.375 . S
C73 C75 1.350 . S
C73 H82 0.930 . S
N74 C72 1.347 . S
N74 C75 1.373 . S
C75 C73 1.350 . S
C75 N74 1.373 . S
C75 H89 0.931 . S
C76 O79 1.256 . S
C76 O80 1.255 . S
O77 Co60 2.021 . S
O77 C70 1.259 . S
O78 Co62 2.117 . S
O78 C70 1.258 . S
O79 Co62 2.020 . S
O79 C76 1.256 . S
O80 Co60 2.062 . S
O80 C76 1.255 . S
O81 C61 1.259 . S
O81 Co62 2.021 . S
H82 C73 0.930 . S
H83 C72 0.931 . S
O84 Co60 2.117 . S
O84 C61 1.258 . S
O85 Co60 2.020 . S
O85 C87 1.256 . S
O86 Co62 2.062 . S
O86 C87 1.255 . S
C87 O85 1.256 . S
C87 O86 1.255 . S
H88 C67 0.931 . S
H89 C75 0.931 . S
Co90 N95 2.057 . S
Co90 O107 2.021 . S
Co90 O110 2.062 . S
Co90 O114 2.117 . S
Co90 O115 2.020 . S
C91 O111 1.259 . S
C91 O114 1.258 . S
Co92 N101 2.057 . S
Co92 O108 2.117 . S
Co92 O109 2.020 . S
Co92 O111 2.021 . S
Co92 O116 2.062 . S
C93 N95 1.316 1_556 S
C93 N96 1.347 . S
C93 H98 0.931 . S
C94 N95 1.375 1_556 S
C94 C97 1.350 . S
C94 H99 0.930 . S
N95 Co90 2.057 . S
N95 C93 1.316 1_554 S
N95 C94 1.375 1_554 S
N96 C93 1.347 . S
N96 C97 1.373 . S
C97 C94 1.350 . S
C97 N96 1.373 . S
C97 H118 0.931 . S
H98 C93 0.931 . S
H99 C94 0.930 . S
C100 O107 1.259 . S
C100 O108 1.258 . S
N101 Co92 2.057 . S
N101 C102 1.316 . S
N101 C103 1.375 . S
C102 N101 1.316 . S
C102 N104 1.347 . S
C102 H113 0.931 . S
C103 N101 1.375 . S
C103 C105 1.350 . S
C103 H112 0.930 . S
N104 C102 1.347 . S
N104 C105 1.373 . S
C105 C103 1.350 . S
C105 N104 1.373 . S
C105 H119 0.931 . S
C106 O109 1.256 . S
C106 O110 1.255 . S
O107 Co90 2.021 . S
O107 C100 1.259 . S
O108 Co92 2.117 . S
O108 C100 1.258 . S
O109 Co92 2.020 . S
O109 C106 1.256 . S
O110 Co90 2.062 . S
O110 C106 1.255 . S
O111 C91 1.259 . S
O111 Co92 2.021 . S
H112 C103 0.930 . S
H113 C102 0.931 . S
O114 Co90 2.117 . S
O114 C91 1.258 . S
O115 Co90 2.020 . S
O115 C117 1.256 . S
O116 Co92 2.062 . S
O116 C117 1.255 . S
C117 O115 1.256 . S
C117 O116 1.255 . S
H118 C97 0.931 . S
H119 C105 0.931 . S
Co120 N125 2.057 . S
Co120 O137 2.021 . S
Co120 O140 2.062 . S
Co120 O144 2.117 . S
Co120 O145 2.020 . S
C121 O141 1.259 . S
C121 O144 1.258 . S
Co122 N131 2.057 . S
Co122 O138 2.117 . S
Co122 O139 2.020 . S
Co122 O141 2.021 . S
Co122 O146 2.062 . S
C123 N125 1.316 . S
C123 N126 1.347 . S
C123 H128 0.931 . S
C124 N125 1.375 . S
C124 C127 1.350 . S
C124 H129 0.930 . S
N125 Co120 2.057 . S
N125 C123 1.316 . S
N125 C124 1.375 . S
N126 C123 1.347 . S
N126 C127 1.373 . S
C127 C124 1.350 . S
C127 N126 1.373 . S
C127 H148 0.931 . S
H128 C123 0.931 . S
H129 C124 0.930 . S
C130 O137 1.259 . S
C130 O138 1.258 . S
N131 Co122 2.057 . S
N131 C132 1.316 . S
N131 C133 1.375 . S
C132 N131 1.316 . S
C132 N134 1.347 . S
C132 H143 0.931 . S
C133 N131 1.375 . S
C133 C135 1.350 . S
C133 H142 0.930 1_565 S
N134 C132 1.347 . S
N134 C135 1.373 . S
C135 C133 1.350 . S
C135 N134 1.373 . S
C135 H149 0.931 1_565 S
C136 O139 1.256 . S
C136 O140 1.255 . S
O137 Co120 2.021 . S
O137 C130 1.259 . S
O138 Co122 2.117 . S
O138 C130 1.258 . S
O139 Co122 2.020 . S
O139 C136 1.256 . S
O140 Co120 2.062 . S
O140 C136 1.255 . S
O141 C121 1.259 . S
O141 Co122 2.021 . S
H142 C133 0.930 1_545 S
H143 C132 0.931 . S
O144 Co120 2.117 . S
O144 C121 1.258 . S
O145 Co120 2.020 . S
O145 C147 1.256 . S
O146 Co122 2.062 . S
O146 C147 1.255 . S
C147 O145 1.256 . S
C147 O146 1.255 . S
H148 C127 0.931 . S
H149 C135 0.931 1_545 S
Co150 N155 2.057 . S
Co150 O167 2.021 . S
Co150 O170 2.062 . S
Co150 O174 2.117 . S
Co150 O175 2.020 . S
C151 O171 1.259 . S
C151 O174 1.258 . S
Co152 N161 2.057 . S
Co152 O168 2.117 . S
Co152 O169 2.020 . S
Co152 O171 2.021 . S
Co152 O176 2.062 . S
C153 N155 1.316 . S
C153 N156 1.347 . S
C153 H158 0.931 . S
C154 N155 1.375 . S
C154 C157 1.350 . S
C154 H159 0.930 . S
N155 Co150 2.057 . S
N155 C153 1.316 . S
N155 C154 1.375 . S
N156 C153 1.347 . S
N156 C157 1.373 . S
C157 C154 1.350 . S
C157 N156 1.373 . S
C157 H178 0.931 . S
H158 C153 0.931 . S
H159 C154 0.930 . S
C160 O167 1.259 . S
C160 O168 1.258 . S
N161 Co152 2.057 . S
N161 C162 1.316 . S
N161 C163 1.375 . S
C162 N161 1.316 . S
C162 N164 1.347 . S
C162 H173 0.931 . S
C163 N161 1.375 . S
C163 C165 1.350 . S
C163 H172 0.930 1_545 S
N164 C162 1.347 . S
N164 C165 1.373 . S
C165 C163 1.350 . S
C165 N164 1.373 . S
C165 H179 0.931 1_545 S
C166 O169 1.256 . S
C166 O170 1.255 . S
O167 Co150 2.021 . S
O167 C160 1.259 . S
O168 Co152 2.117 . S
O168 C160 1.258 . S
O169 Co152 2.020 . S
O169 C166 1.256 . S
O170 Co150 2.062 . S
O170 C166 1.255 . S
O171 C151 1.259 . S
O171 Co152 2.021 . S
H172 C163 0.930 1_565 S
H173 C162 0.931 . S
O174 Co150 2.117 . S
O174 C151 1.258 . S
O175 Co150 2.020 . S
O175 C177 1.256 . S
O176 Co152 2.062 . S
O176 C177 1.255 . S
C177 O175 1.256 . S
C177 O176 1.255 . S
H178 C157 0.931 . S
H179 C165 0.931 1_565 S
C180 C181 1.387 . S
C180 H184 0.950 . S
C180 C189 1.390 . S
C181 C180 1.387 . S
C181 C183 1.387 . S
H182 C189 0.950 . S
C183 C181 1.387 . S
C183 C185 1.390 . S
C183 H187 0.950 . S
H184 C180 0.950 . S
C185 C183 1.390 . S
C185 C186 1.387 . S
C185 H188 0.950 . S
C186 C185 1.387 . S
C186 C189 1.387 . S
H187 C183 0.950 . S
H188 C185 0.950 . S
C189 C180 1.390 . S
C189 H182 0.950 . S
C189 C186 1.387 . S
C190 C191 1.387 . S
C190 H194 0.950 . S
C190 C199 1.390 . S
C191 C190 1.387 . S
C191 C193 1.387 . S
H192 C199 0.950 . S
C193 C191 1.387 . S
C193 C195 1.390 . S
C193 H197 0.950 . S
H194 C190 0.950 . S
C195 C193 1.390 . S
C195 C196 1.387 . S
C195 H198 0.950 . S
C196 C195 1.387 . S
C196 C199 1.387 . S
H197 C193 0.950 . S
H198 C195 0.950 . S
C199 C190 1.390 . S
C199 H192 0.950 . S
C199 C196 1.387 . S
C200 C201 1.387 . S
C200 H204 0.950 . S
C200 C209 1.390 1_554 S
C201 C200 1.387 . S
C201 C203 1.387 . S
H202 C209 0.950 . S
C203 C201 1.387 . S
C203 C205 1.390 . S
C203 H207 0.950 . S
H204 C200 0.950 . S
C205 C203 1.390 . S
C205 C206 1.387 1_554 S
C205 H208 0.950 . S
C206 C205 1.387 1_556 S
C206 C209 1.387 . S
H207 C203 0.950 . S
H208 C205 0.950 . S
C209 C200 1.390 1_556 S
C209 H202 0.950 . S
C209 C206 1.387 . S
C210 C211 1.387 . S
C210 H214 0.950 . S
C210 C219 1.390 . S
C211 C210 1.387 . S
C211 C213 1.387 . S
H212 C219 0.950 . S
C213 C211 1.387 . S
C213 C215 1.390 . S
C213 H217 0.950 . S
H214 C210 0.950 . S
C215 C213 1.390 . S
C215 C216 1.387 . S
C215 H218 0.950 . S
C216 C215 1.387 . S
C216 C219 1.387 . S
H217 C213 0.950 . S
H218 C215 0.950 . S
C219 C210 1.390 . S
C219 H212 0.950 . S
C219 C216 1.387 . S
C220 C221 1.387 . S
C220 H224 0.950 . S
C220 C229 1.390 . S
C221 C220 1.387 . S
C221 C223 1.387 . S
H222 C229 0.950 . S
C223 C221 1.387 . S
C223 C225 1.390 . S
C223 H227 0.950 . S
H224 C220 0.950 . S
C225 C223 1.390 . S
C225 C226 1.387 . S
C225 H228 0.950 . S
C226 C225 1.387 . S
C226 C229 1.387 . S
H227 C223 0.950 . S
H228 C225 0.950 . S
C229 C220 1.390 . S
C229 H222 0.950 . S
C229 C226 1.387 . S
C230 C231 1.387 . S
C230 H234 0.950 . S
C230 C239 1.390 . S
C231 C230 1.387 . S
C231 C233 1.387 . S
H232 C239 0.950 . S
C233 C231 1.387 . S
C233 C235 1.390 . S
C233 H237 0.950 . S
H234 C230 0.950 . S
C235 C233 1.390 . S
C235 C236 1.387 . S
C235 H238 0.950 . S
C236 C235 1.387 . S
C236 C239 1.387 . S
H237 C233 0.950 . S
H238 C235 0.950 . S
C239 C230 1.390 . S
C239 H232 0.950 . S
C239 C236 1.387 . S
C240 C241 1.387 . S
C240 H244 0.950 . S
C240 C249 1.390 . S
C241 C240 1.387 . S
C241 C243 1.387 . S
H242 C249 0.950 . S
C243 C241 1.387 . S
C243 C245 1.390 . S
C243 H247 0.950 . S
H244 C240 0.950 . S
C245 C243 1.390 . S
C245 C246 1.387 . S
C245 H248 0.950 . S
C246 C245 1.387 . S
C246 C249 1.387 . S
H247 C243 0.950 . S
H248 C245 0.950 . S
C249 C240 1.390 . S
C249 H242 0.950 . S
C249 C246 1.387 . S
C250 C251 1.387 1_655 S
C250 H254 0.950 . S
C250 C259 1.390 . S
C251 C250 1.387 1_455 S
C251 C253 1.387 . S
H252 C259 0.950 . S
C253 C251 1.387 . S
C253 C255 1.390 . S
C253 H257 0.950 . S
H254 C250 0.950 . S
C255 C253 1.390 . S
C255 C256 1.387 . S
C255 H258 0.950 . S
C256 C255 1.387 . S
C256 C259 1.387 1_455 S
H257 C253 0.950 . S
H258 C255 0.950 . S
C259 C250 1.390 . S
C259 H252 0.950 . S
C259 C256 1.387 1_655 S
C260 C261 1.387 1_545 S
C260 H264 0.950 . S
C260 C269 1.390 . S
C261 C260 1.387 1_565 S
C261 C263 1.387 . S
H262 C269 0.950 . S
C263 C261 1.387 . S
C263 C265 1.390 . S
C263 H267 0.950 . S
H264 C260 0.950 . S
C265 C263 1.390 . S
C265 C266 1.387 . S
C265 H268 0.950 . S
C266 C265 1.387 . S
C266 C269 1.387 1_565 S
H267 C263 0.950 . S
H268 C265 0.950 . S
C269 C260 1.390 . S
C269 H262 0.950 . S
C269 C266 1.387 1_545 S
C270 C271 1.387 . S
C270 H274 0.950 . S
C270 C279 1.390 . S
C271 C270 1.387 . S
C271 C273 1.387 . S
H272 C279 0.950 . S
C273 C271 1.387 . S
C273 C275 1.390 . S
C273 H277 0.950 . S
H274 C270 0.950 . S
C275 C273 1.390 . S
C275 C276 1.387 . S
C275 H278 0.950 . S
C276 C275 1.387 . S
C276 C279 1.387 . S
H277 C273 0.950 . S
H278 C275 0.950 . S
C279 C270 1.390 . S
C279 H272 0.950 . S
C279 C276 1.387 . S
C280 C281 1.387 . S
C280 H284 0.950 . S
C280 C289 1.390 . S
C281 C280 1.387 . S
C281 C283 1.387 1_655 S
H282 C289 0.950 . S
C283 C281 1.387 1_455 S
C283 C285 1.390 . S
C283 H287 0.950 . S
H284 C280 0.950 . S
C285 C283 1.390 . S
C285 C286 1.387 1_455 S
C285 H288 0.950 . S
C286 C285 1.387 1_655 S
C286 C289 1.387 . S
H287 C283 0.950 . S
H288 C285 0.950 . S
C289 C280 1.390 . S
C289 H282 0.950 . S
C289 C286 1.387 . S
C290 C291 1.387 . S
C290 H294 0.950 . S
C290 C299 1.390 . S
C291 C290 1.387 . S
C291 C293 1.387 1_545 S
H292 C299 0.950 . S
C293 C291 1.387 1_565 S
C293 C295 1.390 . S
C293 H297 0.950 . S
H294 C290 0.950 . S
C295 C293 1.390 . S
C295 C296 1.387 1_565 S
C295 H298 0.950 . S
C296 C295 1.387 1_545 S
C296 C299 1.387 . S
H297 C293 0.950 . S
H298 C295 0.950 . S
C299 C290 1.390 . S
C299 H292 0.950 . S
C299 C296 1.387 . S
C300 C301 1.387 . S
C300 H304 0.950 . S
C300 C309 1.390 . S
C301 C300 1.387 . S
C301 C303 1.387 . S
H302 C309 0.950 1_655 S
C303 C301 1.387 . S
C303 C305 1.390 . S
C303 H307 0.950 . S
H304 C300 0.950 . S
C305 C303 1.390 . S
C305 C306 1.389 . S
C305 H308 0.950 1_556 S
C306 C305 1.389 . S
C306 C309 1.398 . S
H307 C303 0.950 . S
H308 C305 0.950 1_554 S
C309 C300 1.390 . S
C309 H302 0.950 1_455 S
C309 C306 1.398 . S
C310 C311 1.387 1_455 S
C310 H314 0.950 . S
C310 C319 1.390 . S
C311 C310 1.387 1_655 S
C311 C313 1.387 . S
H312 C319 0.950 . S
C313 C311 1.387 . S
C313 C315 1.390 . S
C313 H317 0.950 . S
H314 C310 0.950 . S
C315 C313 1.390 . S
C315 C316 1.387 1_655 S
C315 H318 0.950 . S
C316 C315 1.387 1_455 S
C316 C319 1.387 . S
H317 C313 0.950 . S
H318 C315 0.950 . S
C319 C310 1.390 . S
C319 H312 0.950 . S
C319 C316 1.387 . S
C320 C321 1.387 . S
C320 H324 0.950 . S
C320 C329 1.390 1_565 S
C321 C320 1.387 . S
C321 C323 1.387 . S
H322 C329 0.950 . S
C323 C321 1.387 . S
C323 C325 1.390 1_565 S
C323 H327 0.950 . S
H324 C320 0.950 . S
C325 C323 1.390 1_545 S
C325 C326 1.387 . S
C325 H328 0.950 . S
C326 C325 1.387 . S
C326 C329 1.387 . S
H327 C323 0.950 . S
H328 C325 0.950 . S
C329 C320 1.390 1_545 S
C329 H322 0.950 . S
C329 C326 1.387 . S
C330 C331 1.387 . S
C330 H334 0.950 . S
C330 C339 1.390 . S
C331 C330 1.387 . S
C331 C333 1.387 . S
H332 C339 0.950 . S
C333 C331 1.387 . S
C333 C335 1.390 . S
C333 H337 0.950 . S
H334 C330 0.950 . S
C335 C333 1.390 . S
C335 C336 1.387 . S
C335 H338 0.950 1_556 S
C336 C335 1.387 . S
C336 C339 1.387 . S
H337 C333 0.950 . S
H338 C335 0.950 1_554 S
C339 C330 1.390 . S
C339 H332 0.950 . S
C339 C336 1.387 . S
C340 C341 1.387 . S
C340 H344 0.950 1_565 S
C340 C349 1.390 1_455 S
C341 C340 1.387 . S
C341 C343 1.387 1_455 S
H342 C349 0.950 1_455 S
C343 C341 1.387 1_655 S
C343 C345 1.390 . S
C343 H347 0.950 . S
H344 C340 0.950 1_545 S
C345 C343 1.390 . S
C345 C346 1.387 . S
C345 H348 0.950 . S
C346 C345 1.387 . S
C346 C349 1.387 . S
H347 C343 0.950 . S
H348 C345 0.950 . S
C349 C340 1.390 1_655 S
C349 H342 0.950 1_655 S
C349 C346 1.387 . S
C350 C351 1.387 . S
C350 H354 0.950 . S
C350 C359 1.390 1_545 S
C351 C350 1.387 . S
C351 C353 1.387 . S
H352 C359 0.950 . S
C353 C351 1.387 . S
C353 C355 1.390 1_545 S
C353 H357 0.950 . S
H354 C350 0.950 . S
C355 C353 1.390 1_565 S
C355 C356 1.387 . S
C355 H358 0.950 . S
C356 C355 1.387 . S
C356 C359 1.387 . S
H357 C353 0.950 . S
H358 C355 0.950 . S
C359 C350 1.390 1_565 S
C359 H352 0.950 . S
C359 C356 1.387 . S
C181 C147 1.014 . S
C186 N6 0.999 . S
C191 N156 0.998 . S
C196 C57 1.012 . S
C201 C27 1.012 . S
C206 N66 0.997 . S
C211 N36 0.999 . S
C216 C117 1.013 . S
C221 C87 1.013 . S
C226 N126 0.998 . S
C231 N96 0.999 . S
C236 C177 1.013 . S
C241 C1 1.751 . S
C246 C100 1.788 . S
C251 C121 1.753 . S
C256 C40 1.788 1_455 S
C261 C160 1.788 1_565 S
C266 C61 1.753 . S
C271 C70 1.791 . S
C276 C151 1.755 . S
C281 C10 1.789 1_655 S
C286 C91 1.751 . S
C291 C130 1.789 1_545 S
C296 C31 1.751 . S
C301 N164 1.034 . S
C306 N14 1.025 1_556 S
C311 C46 0.999 . S
C316 C16 1.001 . S
C321 N74 1.035 . S
C326 N44 1.035 . S
C331 C76 0.998 . S
C336 C106 1.001 1_556 S
C341 N134 1.035 . S
C346 N104 1.035 . S
C351 C166 1.000 . S
C356 C136 1.000 . S
