# Generated by pormake.
# Topology sml, (6)-cn, num edge types: 1
# Building blocks:
#     Node 0, Type 0, BuildingBlock: KUMBUR_clean_sbu_1, # of connection points: 6
#     Node 1, Type 0, BuildingBlock: KUMBUR_clean_sbu_1, # of connection points: 6
#     Node 2, Type 0, BuildingBlock: KUMBUR_clean_sbu_1, # of connection points: 6
#     Node 3, Type 0, BuildingBlock: KUMBUR_clean_sbu_1, # of connection points: 6
#     Node 4, Type 0, BuildingBlock: KUMBUR_clean_sbu_1, # of connection points: 6
#     Node 5, Type 0, BuildingBlock: KUMBUR_clean_sbu_1, # of connection points: 6
#     Edge 6, Type (0, 0), BuildingBlock: KIFKEQ_clean_linker_1, # of connection points: 2
#     Edge 7, Type (0, 0), BuildingBlock: KIFKEQ_clean_linker_1, # of connection points: 2
#     Edge 8, Type (0, 0), BuildingBlock: KIFKEQ_clean_linker_1, # of connection points: 2
#     Edge 9, Type (0, 0), BuildingBlock: KIFKEQ_clean_linker_1, # of connection points: 2
#     Edge 10, Type (0, 0), BuildingBlock: KIFKEQ_clean_linker_1, # of connection points: 2
#     Edge 11, Type (0, 0), BuildingBlock: KIFKEQ_clean_linker_1, # of connection points: 2
#     Edge 12, Type (0, 0), BuildingBlock: KIFKEQ_clean_linker_1, # of connection points: 2
#     Edge 13, Type (0, 0), BuildingBlock: KIFKEQ_clean_linker_1, # of connection points: 2
#     Edge 14, Type (0, 0), BuildingBlock: KIFKEQ_clean_linker_1, # of connection points: 2
#     Edge 15, Type (0, 0), BuildingBlock: KIFKEQ_clean_linker_1, # of connection points: 2
#     Edge 16, Type (0, 0), BuildingBlock: KIFKEQ_clean_linker_1, # of connection points: 2
#     Edge 17, Type (0, 0), BuildingBlock: KIFKEQ_clean_linker_1, # of connection points: 2
#     Edge 18, Type (0, 0), BuildingBlock: KIFKEQ_clean_linker_1, # of connection points: 2
#     Edge 19, Type (0, 0), BuildingBlock: KIFKEQ_clean_linker_1, # of connection points: 2
#     Edge 20, Type (0, 0), BuildingBlock: KIFKEQ_clean_linker_1, # of connection points: 2
#     Edge 21, Type (0, 0), BuildingBlock: KIFKEQ_clean_linker_1, # of connection points: 2
#     Edge 22, Type (0, 0), BuildingBlock: KIFKEQ_clean_linker_1, # of connection points: 2
#     Edge 23, Type (0, 0), BuildingBlock: KIFKEQ_clean_linker_1, # of connection points: 2
# Relax obj value: 0.062
# Max RMSD: 0.174
# Mean RMSD: 0.174
data_MOF--net-sml--node1-KUMBUR_clean_sbu_1--edge1-KIFKEQ_clean_linker_1
_symmetry_space_group_name_H-M    P1
_symmetry_Int_Tables_number       1
_symmetry_cell_setting            triclinic
loop_
_symmetry_equiv_pos_as_xyz
'x, y, z'
_cell_length_a     33.873542
_cell_length_b     33.847648
_cell_length_c     24.070232
_cell_angle_alpha  90.127256
_cell_angle_beta   90.018817
_cell_angle_gamma 120.0766
loop_
_atom_site_label
_atom_site_type_symbol
_atom_site_fract_x
_atom_site_fract_y
_atom_site_fract_z
_atom_type_partial_charge
Tb0 Tb 0.15936 0.42277 0.94411 0.0
C1 C 0.3259 0.41862 0.07036 0.0
N2 N 0.28162 0.38582 0.06293 0.0
C3 C 0.3045 0.33048 0.04472 0.0
C4 C 0.36149 0.40885 0.0642 0.0
C5 C 0.27037 0.34177 0.05221 0.0
C6 C 0.35031 0.36425 0.05023 0.0
C7 C 0.38045 0.49636 0.09747 0.0
C8 C 0.33532 0.46168 0.08675 0.0
C9 C 0.41627 0.48724 0.09006 0.0
C10 C 0.40681 0.44358 0.07339 0.0
Tb11 Tb 0.22906 0.40853 0.07484 0.0
N12 N 0.29978 0.46927 0.09271 0.0
C13 C 0.38802 0.53883 0.11615 0.0
C14 C 0.30665 0.50987 0.11342 0.0
C15 C 0.35089 0.54542 0.12474 0.0
H16 H 0.23498 0.31523 0.04988 0.0
H17 H 0.35633 0.57785 0.1401 0.0
H18 H 0.11436 0.48347 0.98949 0.0
H19 H 0.08422 0.24528 0.88058 0.0
H20 H 0.27817 0.51504 0.1208 0.0
H21 H 0.42223 0.56644 0.12489 0.0
H22 H 0.14616 0.32394 0.89057 0.0
H23 H 0.29544 0.29565 0.03527 0.0
H24 H 0.45129 0.51349 0.0978 0.0
H25 H 0.4347 0.43683 0.06865 0.0
H26 H 0.03712 0.47031 1.01042 0.0
H27 H 0.37665 0.35532 0.04493 0.0
H28 H 0.00561 0.22436 0.90687 0.0
N29 N 0.09055 0.4144 0.96673 0.0
C30 C 0.05405 0.37191 0.95928 0.0
C31 C 0.04145 0.44236 0.99618 0.0
C32 C 0.00951 0.36281 0.97098 0.0
C33 C 0.08507 0.4497 0.98441 0.0
C34 C 1.00351 0.39872 0.98954 0.0
N35 N 0.1055 0.34743 0.93084 0.0
C36 C 0.11326 0.31537 0.90661 0.0
C37 C 0.02467 0.29268 0.93392 0.0
C38 C 0.06183 0.33725 0.9416 0.0
C39 C 0.03321 0.25899 0.91346 0.0
C40 C 0.07759 0.27059 0.89897 0.0
H41 H 0.9698 0.39312 0.99891 0.0
H42 H 0.93806 0.31054 0.97292 0.0
H43 H 0.95127 0.24926 0.94011 0.0
O44 O 0.15037 0.41326 0.85724 0.0
O45 O 0.12801 0.39948 0.02558 0.0
O46 O 0.15943 0.35714 0.05188 0.0
O47 O 0.15351 0.47246 0.89778 0.0
O48 O 0.20471 0.3952 0.9269 0.0
O49 O 0.19886 0.35828 1.00828 0.0
O50 O 0.20942 0.41653 0.15535 0.0
O51 O 0.27405 0.46066 1.01395 0.0
O52 O 0.23205 0.46845 0.94147 0.0
O53 O 0.22874 0.3661 0.13843 0.0
O54 O 0.20139 0.45429 0.08525 0.0
O55 O 0.19079 0.48224 1.00066 0.0
C56 C 0.12648 0.36659 0.05556 0.0
C57 C 0.1434 0.46738 0.79744 0.0
C58 C 0.15329 0.47345 0.69656 0.0
C59 C 0.13267 0.50067 0.6955 0.0
C60 C 0.1237 0.49519 0.79525 0.0
C61 C 0.11816 0.51148 0.74447 0.0
C62 C 0.15809 0.45641 0.748 0.0
C63 C 0.21389 0.36858 0.95724 0.0
C64 C 0.14933 0.45087 0.85153 0.0
C65 C 0.9726 0.31829 0.96417 0.0
C66 C 0.98016 0.28334 0.94569 0.0
C67 C 0.27029 0.47886 0.96715 0.0
C68 C 0.24784 0.40127 0.22666 0.0
C69 C 0.25642 0.41696 0.32634 0.0
C70 C 0.30168 0.42605 0.32304 0.0
C71 C 0.29313 0.4105 0.22439 0.0
C72 C 0.22973 0.40482 0.27767 0.0
C73 C 0.31984 0.42292 0.27233 0.0
C74 C 0.1972 0.48466 0.05526 0.0
C75 C 0.21878 0.38683 0.17666 0.0
H76 H 0.12736 0.51342 0.65665 0.0
H77 H 0.11224 0.50405 0.83281 0.0
H78 H 0.10252 0.53257 0.74303 0.0
H79 H 0.17431 0.43579 0.74985 0.0
H80 H 0.32325 0.43613 0.35961 0.0
H81 H 0.30783 0.40767 0.18581 0.0
H82 H 0.19464 0.3973 0.27959 0.0
H83 H 0.35471 0.43001 0.27022 0.0
Tb84 Tb 0.84209 0.26868 0.45313 0.0
C85 C 0.67397 0.09769 0.3343 0.0
N86 N 0.71759 0.10694 0.3411 0.0
C87 C 0.69067 0.02856 0.36402 0.0
C88 C 0.63674 0.05348 0.34321 0.0
C89 C 0.72646 0.07293 0.35435 0.0
C90 C 0.64558 0.01883 0.35881 0.0
C91 C 0.62202 0.12487 0.31085 0.0
C92 C 0.66669 0.13285 0.31835 0.0
C93 C 0.58472 0.08093 0.31998 0.0
C94 C 0.59206 0.04533 0.33619 0.0
Tb95 Tb 0.77297 0.181 0.32686 0.0
N96 N 0.70362 0.17527 0.31184 0.0
C97 C 0.61626 0.16134 0.29459 0.0
C98 C 0.69825 0.21056 0.29399 0.0
C99 C 0.65456 0.20425 0.28567 0.0
H100 H 0.76124 0.07996 0.35671 0.0
H101 H 0.65047 0.23248 0.2722 0.0
H102 H 0.87876 0.37494 0.41316 0.0
H103 H 0.93109 0.17708 0.50294 0.0
H104 H 0.72732 0.2436 0.2859 0.0
H105 H 0.58249 0.15664 0.28832 0.0
H106 H 0.86445 0.18654 0.49582 0.0
H107 H 0.69789 1.00185 0.37516 0.0
H108 H 0.5501 0.07411 0.31461 0.0
H109 H 0.56297 0.01161 0.34299 0.0
H110 H 0.95295 0.44406 0.3944 0.0
H111 H 0.61792 0.98442 0.36624 0.0
H112 H 0.00784 0.24168 0.48181 0.0
N113 N 0.90818 0.33423 0.43402 0.0
C114 C 0.9471 0.33246 0.44072 0.0
C115 C 0.95175 0.41285 0.40725 0.0
C116 C 0.99014 0.37103 0.43035 0.0
C117 C 0.90979 0.37359 0.41756 0.0
C118 C 0.99211 0.4116 0.4137 0.0
N119 N 0.90097 0.254 0.46296 0.0
C120 C 0.89666 0.21412 0.48239 0.0
C121 C 0.98301 0.28757 0.46094 0.0
C122 C 0.94338 0.29096 0.45517 0.0
C123 C 0.97825 0.2457 0.47684 0.0
C124 C 0.93495 0.20905 0.48833 0.0
H125 H 0.02454 0.44202 0.40537 0.0
H126 H 0.06303 0.39691 0.42815 0.0
H127 H 0.05684 0.32401 0.45538 0.0
O128 O 0.84393 0.25975 0.53944 0.0
O129 O 0.87678 0.27419 0.37459 0.0
O130 O 0.8432 0.20005 0.34717 0.0
O131 O 0.85164 0.32205 0.50654 0.0
O132 O 0.79804 0.19575 0.47163 0.0
O133 O 0.80482 0.16228 0.39238 0.0
O134 O 0.78842 0.20302 0.2426 0.0
O135 O 0.73089 0.18413 0.39508 0.0
O136 O 0.77232 0.25436 0.4401 0.0
O137 O 0.76967 0.13398 0.26814 0.0
O138 O 0.80265 0.25429 0.31141 0.0
O139 O 0.81247 0.29586 0.39335 0.0
C140 C 0.87646 0.24241 0.34325 0.0
C141 C 0.81624 0.29811 0.59469 0.0
C142 C 0.79052 0.2839 0.69133 0.0
C143 C 0.75767 0.2963 0.67837 0.0
C144 C 0.78366 0.31101 0.58305 0.0
C145 C 0.75434 0.30971 0.62461 0.0
C146 C 0.81961 0.28473 0.64894 0.0
C147 C 0.79134 0.1594 0.44399 0.0
C148 C 0.84731 0.29881 0.55125 0.0
C149 C 0.02961 0.36764 0.43589 0.0
C150 C 0.02605 0.32605 0.45119 0.0
C151 C 0.73407 0.21617 0.42928 0.0
C152 C 0.7868 0.15013 0.17066 0.0
C153 C 0.79915 0.16563 0.07111 0.0
C154 C 0.79953 0.12455 0.0642 0.0
C155 C 0.78735 0.1093 0.16238 0.0
C156 C 0.79248 0.17827 0.12469 0.0
C157 C 0.79363 0.09667 0.10951 0.0
C158 C 0.80882 0.29097 0.33854 0.0
C159 C 0.78167 0.16303 0.22771 0.0
H160 H 0.7351 0.29652 0.71007 0.0
H161 H 0.7811 0.32246 0.54201 0.0
H162 H 0.72923 0.31959 0.61526 0.0
H163 H 0.84468 0.27464 0.65795 0.0
H164 H 0.80373 0.11358 0.02341 0.0
H165 H 0.78327 0.0871 0.19691 0.0
H166 H 0.79226 0.20991 0.13058 0.0
H167 H 0.79391 0.0651 0.10362 0.0
Tb168 Tb 0.57905 0.74486 0.62174 0.0
C169 C 0.58344 0.91483 0.74832 0.0
N170 N 0.61682 0.90419 0.74119 0.0
C171 C 0.6711 0.98279 0.72318 0.0
C172 C 0.59246 0.95999 0.74242 0.0
C173 C 0.66055 0.93753 0.73038 0.0
C174 C 0.63683 0.99404 0.72883 0.0
C175 C 0.50507 0.88999 0.77338 0.0
C176 C 0.54036 0.88038 0.76338 0.0
C177 C 0.51359 0.93483 0.7667 0.0
C178 C 0.55716 0.96973 0.75111 0.0
Tb179 Tb 0.59521 0.82913 0.75199 0.0
N180 N 0.53323 0.83726 0.76815 0.0
C181 C 0.46252 0.85433 0.79038 0.0
C182 C 0.49236 0.80269 0.78671 0.0
C183 C 0.45632 0.8106 0.79764 0.0
H184 H 0.68743 0.92924 0.72786 0.0
H185 H 0.42378 0.78299 0.81167 0.0
H186 H 0.51734 0.63923 0.66741 0.0
H187 H 0.75636 0.84458 0.55757 0.0
H188 H 0.48733 0.76901 0.79338 0.0
H189 H 0.43449 0.86029 0.79867 0.0
H190 H 0.67806 0.82883 0.56707 0.0
H191 H 0.70571 0.00901 0.71379 0.0
H192 H 0.48686 0.94294 0.77391 0.0
H193 H 0.56335 0.00423 0.74662 0.0
H194 H 0.52945 0.57468 0.68937 0.0
H195 H 0.64518 0.02919 0.72369 0.0
H196 H 0.77633 0.78643 0.58495 0.0
N197 N 0.58637 0.68361 0.64412 0.0
C198 C 0.62854 0.68889 0.63685 0.0
C199 C 0.55759 0.60665 0.67474 0.0
C200 C 0.63706 0.65319 0.64932 0.0
C201 C 0.55084 0.64319 0.66236 0.0
C202 C 0.60089 0.61168 0.66832 0.0
N203 N 0.65399 0.76498 0.60827 0.0
C204 C 0.68629 0.80439 0.5836 0.0
C205 C 0.70787 0.7379 0.61188 0.0
C206 C 0.66355 0.73108 0.61917 0.0
C207 C 0.74188 0.77984 0.59126 0.0
C208 C 0.73083 0.8129 0.5762 0.0
H209 H 0.60606 0.58339 0.6783 0.0
H210 H 0.6886 0.63321 0.65238 0.0
H211 H 0.7505 0.70715 0.61912 0.0
O212 O 0.58668 0.74887 0.53413 0.0
O213 O 0.6035 0.7366 0.70243 0.0
O214 O 0.6462 0.81019 0.73052 0.0
O215 O 0.53199 0.68861 0.57414 0.0
O216 O 0.60786 0.81805 0.60568 0.0
O217 O 0.64629 0.84905 0.68679 0.0
O218 O 0.5863 0.80229 0.83289 0.0
O219 O 0.54837 0.82664 0.6862 0.0
O220 O 0.52714 0.76446 0.62593 0.0
O221 O 0.63787 0.87168 0.81551 0.0
O222 O 0.54976 0.75566 0.76308 0.0
O223 O 0.52031 0.7177 0.67839 0.0
C224 C 0.636 0.7675 0.73355 0.0
C225 C 0.53485 0.68595 0.47357 0.0
C226 C 0.52844 0.68986 0.37277 0.0
C227 C 0.50132 0.64194 0.37132 0.0
C228 C 0.50725 0.63829 0.47095 0.0
C229 C 0.4908 0.6165 0.42006 0.0
C230 C 0.54555 0.7117 0.42435 0.0
C231 C 0.63641 0.85361 0.63541 0.0
C232 C 0.55147 0.70828 0.52791 0.0
C233 C 0.68133 0.66021 0.64301 0.0
C234 C 0.71661 0.70242 0.62429 0.0
C235 C 0.52413 0.79933 0.64502 0.0
C236 C 0.60262 0.85676 0.90364 0.0
C237 C 0.5864 0.84998 1.00312 0.0
C238 C 0.57837 0.88684 0.99953 0.0
C239 C 0.5944 0.89348 0.90105 0.0
C240 C 0.59827 0.83492 0.9547 0.0
C241 C 0.58225 0.90828 0.94876 0.0
C242 C 0.51947 0.72091 0.73316 0.0
C243 C 0.61659 0.84139 0.85394 0.0
H244 H 0.48848 0.62394 0.33233 0.0
H245 H 0.49859 0.61779 0.50829 0.0
H246 H 0.46981 0.57969 0.41835 0.0
H247 H 0.56609 0.7486 0.42641 0.0
H248 H 0.56854 0.89876 0.0359 0.0
H249 H 0.59776 0.91107 0.86241 0.0
H250 H 0.60495 0.8068 0.95685 0.0
H251 H 0.57593 0.93657 0.94641 0.0
Tb252 Tb 0.75524 0.58433 0.10041 0.0
C253 C 0.87839 0.52021 0.9938 0.0
N254 N 0.88676 0.56369 0.99844 0.0
C255 C 0.9624 0.58826 0.03118 0.0
C256 C 0.9111 0.5085 1.01018 0.0
C257 C 0.92865 0.59804 1.01448 0.0
C258 C 0.9534 0.54317 0.02971 0.0
C259 C 0.82679 0.4422 0.96579 0.0
C260 C 0.8368 0.48771 0.97222 0.0
C261 C 0.85858 0.42977 0.98371 0.0
C262 C 0.90071 0.46288 1.00579 0.0
Tb263 Tb 0.82946 0.57647 0.97293 0.0
N264 N 0.80719 0.50131 0.95511 0.0
C265 C 0.78579 0.41096 0.94004 0.0
C266 C 0.76918 0.47181 0.92549 0.0
C267 C 0.75729 0.42607 0.91887 0.0
H268 H 0.93593 0.63296 1.01459 0.0
H269 H 0.72657 0.40271 0.89647 0.0
H270 H 0.64746 0.49934 0.08137 0.0
H271 H 0.82112 0.76245 0.14434 0.0
H272 H 0.74842 0.48331 0.9053 0.0
H273 H 0.77676 0.37564 0.93429 0.0
H274 H 0.82355 0.69058 0.13852 0.0
H275 H 0.99532 0.61547 0.045 0.0
H276 H 0.85135 0.39488 0.97951 0.0
H277 H 0.92526 0.45302 1.01847 0.0
H278 H 0.57405 0.49203 0.05471 0.0
H279 H 0.97957 0.53565 0.04266 0.0
H280 H 0.75138 0.76338 0.11554 0.0
N281 N 0.68389 0.57219 0.07938 0.0
C282 C 0.67996 0.61017 0.07732 0.0
C283 C 0.60376 0.52556 0.06005 0.0
C284 C 0.63806 0.60752 0.06459 0.0
C285 C 0.64589 0.52995 0.07395 0.0
C286 C 0.59996 0.56456 0.05445 0.0
N287 N 0.75672 0.65228 0.10476 0.0
C288 C 0.7932 0.69099 0.12559 0.0
C289 C 0.71427 0.69144 0.09448 0.0
C290 C 0.71739 0.65152 0.09176 0.0
C291 C 0.75236 0.73193 0.11284 0.0
C292 C 0.79183 0.73156 0.12906 0.0
H293 H 0.56713 0.56101 0.04451 0.0
H294 H 0.60339 0.64626 0.05436 0.0
H295 H 0.67021 0.71982 0.0807 0.0
O296 O 0.78375 0.59814 0.18048 0.0
O297 O 0.78179 0.63792 0.03555 0.0
O298 O 0.78079 0.59912 0.95705 0.0
O299 O 0.71132 0.55921 0.16968 0.0
O300 O 0.82909 0.61594 0.11145 0.0
O301 O 0.86136 0.63909 0.02415 0.0
O302 O 0.84048 0.56844 0.88833 0.0
O303 O 0.83414 0.55219 0.05615 0.0
O304 O 0.76128 0.5236 0.0885 0.0
O305 O 0.88058 0.63269 0.92986 0.0
O306 O 0.75509 0.54414 0.96108 0.0
O307 O 0.72182 0.52193 0.04815 0.0
C308 C 0.77711 0.63174 0.98147 0.0
C309 C 0.74323 0.54251 0.24747 0.0
C310 C 0.75579 0.52868 0.34343 0.0
C311 C 0.74891 0.4857 0.32794 0.0
C312 C 0.73555 0.49907 0.23272 0.0
C313 C 0.73841 0.47085 0.27289 0.0
C314 C 0.75282 0.55699 0.30306 0.0
C315 C 0.86373 0.64182 0.07888 0.0
C316 C 0.74474 0.57445 0.20511 0.0
C317 C 0.63519 0.64754 0.06448 0.0
C318 C 0.6732 0.68942 0.0796 0.0
C319 C 0.80009 0.52397 0.08768 0.0
C320 C 0.85702 0.63492 0.83768 0.0
C321 C 0.83157 0.63651 0.74253 0.0
C322 C 0.83421 0.67848 0.75489 0.0
C323 C 0.85831 0.6764 0.84872 0.0
C324 C 0.8433 0.61498 0.78449 0.0
C325 C 0.84703 0.69788 0.80758 0.0
C326 C 0.71987 0.51855 0.99338 0.0
C327 C 0.86849 0.6119 0.88204 0.0
H328 H 0.75123 0.46353 0.35855 0.0
H329 H 0.728 0.48727 0.19014 0.0
H330 H 0.73287 0.43754 0.26124 0.0
H331 H 0.75898 0.59059 0.31469 0.0
H332 H 0.82695 0.69693 0.72366 0.0
H333 H 0.86792 0.6924 0.88926 0.0
H334 H 0.8411 0.58245 0.77631 0.0
H335 H 0.84842 0.72991 0.81651 0.0
Tb336 Tb 0.27332 0.84323 0.27839 0.0
C337 C 0.11018 0.67062 0.39887 0.0
N338 N 0.11451 0.7121 0.38888 0.0
C339 C 0.03559 0.67621 0.36285 0.0
C340 C 0.06826 0.63005 0.39056 0.0
C341 C 0.07787 0.71549 0.37181 0.0
C342 C 0.03076 0.63327 0.37213 0.0
C343 C 0.14549 0.62653 0.42626 0.0
C344 C 0.14837 0.66892 0.41623 0.0
C345 C 0.10372 0.58597 0.41836 0.0
C346 C 0.06522 0.58772 0.40048 0.0
Tb347 Tb 0.18511 0.77356 0.40451 0.0
N348 N 0.18865 0.70887 0.42147 0.0
C349 C 0.18471 0.62621 0.44373 0.0
C350 C 0.22648 0.70872 0.4407 0.0
C351 C 0.22526 0.66751 0.45143 0.0
H352 H 0.08096 0.74857 0.36644 0.0
H353 H 0.25553 0.66767 0.46616 0.0
H354 H 0.3779 0.87557 0.32293 0.0
H355 H 0.19125 0.93904 0.21773 0.0
H356 H 0.25749 0.73996 0.4491 0.0
H357 H 0.18394 0.59437 0.45201 0.0
H358 H 0.19428 0.86968 0.23608 0.0
H359 H 0.0067 0.67909 0.34919 0.0
H360 H 0.10085 0.55306 0.42578 0.0
H361 H 0.0333 0.55614 0.39434 0.0
H362 H 0.45012 0.94815 0.3365 0.0
H363 H 0.99796 0.60289 0.36517 0.0
H364 H 0.26059 0.01474 0.22813 0.0
N365 N 0.34139 0.90765 0.29445 0.0
C366 C 0.34297 0.94754 0.28198 0.0
C367 C 0.42018 0.94845 0.32132 0.0
C368 C 0.38349 0.98974 0.28897 0.0
C369 C 0.37911 0.90742 0.31407 0.0
C370 C 0.42244 0.98979 0.30861 0.0
N371 N 0.26395 0.90464 0.26162 0.0
C372 C 0.22447 0.90192 0.24336 0.0
C373 C 0.30294 0.98686 0.25369 0.0
C374 C 0.303 0.94602 0.26496 0.0
C375 C 0.26208 0.98417 0.23721 0.0
C376 C 0.2228 0.94151 0.23169 0.0
H377 H 0.45426 0.02151 0.31451 0.0
H378 H 0.41445 0.06321 0.2822 0.0
H379 H 0.34405 0.0607 0.25105 0.0
O380 O 0.26089 0.83399 0.19146 0.0
O381 O 0.27537 0.88329 0.35125 0.0
O382 O 0.20177 0.84283 0.38185 0.0
O383 O 0.3263 0.84967 0.22715 0.0
O384 O 0.20016 0.80213 0.2589 0.0
O385 O 0.16328 0.80334 0.33896 0.0
O386 O 0.20017 0.78457 0.49118 0.0
O387 O 0.18593 0.73224 0.33351 0.0
O388 O 0.25908 0.77513 0.30182 0.0
O389 O 0.13447 0.76991 0.45736 0.0
O390 O 0.25856 0.8113 0.42375 0.0
O391 O 0.2971 0.81395 0.34264 0.0
C392 C 0.24274 0.8789 0.3845 0.0
C393 C 0.32052 0.84183 0.12684 0.0
C394 C 0.3135 0.83691 0.02572 0.0
C395 C 0.35909 0.84739 0.0219 0.0
C396 C 0.36597 0.85186 0.12188 0.0
C397 C 0.38498 0.85448 0.06974 0.0
C398 C 0.29406 0.8337 0.07843 0.0
C399 C 0.1629 0.79372 0.28585 0.0
C400 C 0.3022 0.84211 0.18239 0.0
C401 C 0.38361 0.03043 0.27722 0.0
C402 C 0.34348 0.02899 0.25957 0.0
C403 C 0.21908 0.73789 0.30003 0.0
C404 C 0.1428 0.78159 0.55679 0.0
C405 C 0.15052 0.78885 0.65808 0.0
C406 C 0.10959 0.79005 0.66021 0.0
C407 C 0.10172 0.78218 0.56062 0.0
C408 C 0.16728 0.78502 0.60574 0.0
C409 C 0.08541 0.78651 0.61194 0.0
C410 C 0.29555 0.8183 0.39709 0.0
C411 C 0.15973 0.77858 0.50127 0.0
H412 H 0.37457 0.84975 0.98175 0.0
H413 H 0.38712 0.85825 0.15833 0.0
H414 H 0.42007 0.8624 0.06638 0.0
H415 H 0.25901 0.82611 0.08153 0.0
H416 H 0.09635 0.79432 0.69931 0.0
H417 H 0.08229 0.77983 0.52377 0.0
H418 H 0.19877 0.78415 0.60312 0.0
H419 H 0.05396 0.78741 0.6143 0.0
Tb420 Tb 0.42502 0.16084 0.78355 0.0
C421 C 0.43101 0.33085 0.65881 0.0
N422 N 0.39489 0.28811 0.66577 0.0
C423 C 0.34612 0.31902 0.68398 0.0
C424 C 0.42614 0.36962 0.66455 0.0
C425 C 0.35261 0.2816 0.67739 0.0
C426 C 0.38306 0.36325 0.67767 0.0
C427 C 0.51147 0.37932 0.63832 0.0
C428 C 0.4731 0.33565 0.64591 0.0
C429 C 0.50683 0.41814 0.64388 0.0
C430 C 0.46429 0.4133 0.65704 0.0
Tb431 Tb 0.40989 0.23005 0.65489 0.0
N432 N 0.47656 0.29733 0.64279 0.0
C433 C 0.55334 0.38261 0.62567 0.0
C434 C 0.51695 0.30026 0.62868 0.0
C435 C 0.55599 0.34288 0.62049 0.0
H436 H 0.3237 0.24746 0.68056 0.0
H437 H 0.58808 0.34505 0.60991 0.0
H438 H 0.49296 0.12316 0.73922 0.0
H439 H 0.24749 0.07276 0.8475 0.0
H440 H 0.51937 0.27003 0.62332 0.0
H441 H 0.58368 0.41555 0.61945 0.0
H442 H 0.32183 0.13974 0.82961 0.0
H443 H 0.31258 0.31372 0.69352 0.0
H444 H 0.53595 0.45204 0.63826 0.0
H445 H 0.46126 0.44355 0.66129 0.0
H446 H 0.48824 0.04859 0.72588 0.0
H447 H 0.37789 0.39216 0.68261 0.0
H448 H 0.23629 0.9953 0.83507 0.0
N449 N 0.42455 0.09428 0.7678 0.0
C450 C 0.38507 0.05556 0.78042 0.0
C451 C 0.45893 0.05008 0.74102 0.0
C452 C 0.38085 0.01226 0.7732 0.0
C453 C 0.46135 0.09225 0.7482 0.0
C454 C 0.41853 0.0099 0.75361 0.0
N455 N 0.35278 0.10188 0.80114 0.0
C456 C 0.31764 0.1068 0.82082 0.0
C457 C 0.30582 0.01983 0.80862 0.0
C458 C 0.34791 0.05943 0.7973 0.0
C459 C 0.26917 0.02484 0.82589 0.0
C460 C 0.27527 0.06851 0.83251 0.0
H461 H 0.41666 0.97726 0.74762 0.0
H462 H 0.33502 0.93929 0.77865 0.0
H463 H 0.26948 0.9458 0.81054 0.0
O464 O 0.42291 0.17042 0.8709 0.0
O465 O 0.3897 0.12135 0.70904 0.0
O466 O 0.35633 0.16105 0.67677 0.0
O467 O 0.47047 0.15242 0.83399 0.0
O468 O 0.39414 0.20367 0.80039 0.0
O469 O 0.35709 0.19982 0.71868 0.0
O470 O 0.41884 0.21638 0.57189 0.0
O471 O 0.45196 0.27197 0.72572 0.0
O472 O 0.48018 0.22843 0.76119 0.0
O473 O 0.36662 0.23216 0.5939 0.0
O474 O 0.44765 0.19395 0.63893 0.0
O475 O 0.48031 0.18901 0.72182 0.0
C476 C 0.36155 0.12518 0.67502 0.0
C477 C 0.47405 0.15965 0.9339 0.0
C478 C 0.48079 0.17319 0.03416 0.0
C479 C 0.51025 0.15517 0.03687 0.0
C480 C 0.50395 0.14234 0.93787 0.0
C481 C 0.52179 0.14007 0.98906 0.0
C482 C 0.46242 0.17503 0.98225 0.0
C483 C 0.36581 0.21153 0.7713 0.0
C484 C 0.45514 0.16077 0.87912 0.0
C485 C 0.33897 0.97283 0.78438 0.0
C486 C 0.3016 0.97659 0.80222 0.0
C487 C 0.47837 0.26612 0.76088 0.0
C488 C 0.4003 0.25536 0.50496 0.0
C489 C 0.41566 0.26679 0.40542 0.0
C490 C 0.42112 0.31065 0.41048 0.0
C491 C 0.40601 0.29932 0.50912 0.0
C492 C 0.40544 0.23939 0.4531 0.0
C493 C 0.41645 0.32676 0.46207 0.0
C494 C 0.47694 0.18684 0.66699 0.0
C495 C 0.38782 0.22507 0.55352 0.0
H496 H 0.52407 0.15221 0.07621 0.0
H497 H 0.51335 0.13011 0.90141 0.0
H498 H 0.5445 0.12633 0.99173 0.0
H499 H 0.43978 0.18891 0.97937 0.0
H500 H 0.4296 0.33274 0.37465 0.0
H501 H 0.40198 0.31237 0.54844 0.0
H502 H 0.40063 0.20528 0.44976 0.0
H503 H 0.42082 0.36061 0.46556 0.0
H504 H 0.27622 0.18843 0.76347 0.0
H505 H 0.40348 0.28373 0.84211 0.0
H506 H 0.23878 0.22596 0.8091 0.0
H507 H 0.36638 0.32176 0.88694 0.0
H508 H 0.29133 0.40649 0.89589 0.0
H509 H 0.32814 0.36792 0.85163 0.0
H510 H 0.22083 0.23835 0.91225 0.0
H511 H 0.1845 0.27722 0.95731 0.0
C512 C 0.29606 0.21737 0.79058 0.0
C513 C 0.34261 0.23318 0.79949 0.0
C514 C 0.27469 0.23872 0.81677 0.0
C515 C 0.29969 0.27679 0.85154 0.0
C516 C 0.34634 0.29264 0.86017 0.0
C517 C 0.36745 0.27073 0.83489 0.0
C518 C 0.27566 0.36977 0.89953 0.0
C519 C 0.23523 0.34476 0.92994 0.0
C520 C 0.29681 0.34777 0.87458 0.0
C521 C 0.27733 0.30013 0.87847 0.0
C522 C 0.23644 0.27504 0.90829 0.0
C523 C 0.21578 0.29721 0.93418 0.0
H524 H 0.10472 0.29165 0.12173 0.0
H525 H 0.06423 0.39109 0.08396 0.0
H526 H 0.04334 0.25716 0.19132 0.0
H527 H 1.00329 0.35635 0.15092 0.0
H528 H 0.94384 0.3287 0.32093 0.0
H529 H 0.00415 0.35421 0.25329 0.0
H530 H 0.954 0.21497 0.20084 0.0
H531 H 0.89308 0.18858 0.27099 0.0
C532 C 0.08269 0.30592 0.12788 0.0
C533 C 0.08948 0.34416 0.09718 0.0
C534 C 0.04741 0.28598 0.1673 0.0
C535 C 0.01872 0.30426 0.17681 0.0
C536 C 0.02513 0.3418 0.14519 0.0
C537 C 0.06005 0.36155 0.10629 0.0
C538 C 0.94566 0.30309 0.29588 0.0
C539 C 0.91357 0.25641 0.30187 0.0
C540 C 0.98022 0.31792 0.25655 0.0
C541 C 0.98365 0.28668 0.22137 0.0
C542 C 0.95228 0.23979 0.22768 0.0
C543 C 0.91733 0.22475 0.26755 0.0
H544 H 0.81782 0.09529 0.44289 0.0
H545 H 0.71702 0.12414 0.51054 0.0
H546 H 0.78095 0.02116 0.49035 0.0
H547 H 0.67985 0.05 0.55746 0.0
H548 H 0.59867 0.89146 0.57112 0.0
H549 H 0.63697 0.96604 0.52546 0.0
H550 H 0.76604 0.99161 0.59222 0.0
H551 H 0.72737 0.91685 0.63828 0.0
C552 C 0.78782 0.08567 0.46801 0.0
C553 C 0.77012 0.11516 0.47317 0.0
C554 C 0.76689 0.04349 0.49528 0.0
C555 C 0.72754 0.02985 0.52755 0.0
C556 C 0.70995 0.05951 0.53261 0.0
C557 C 0.73133 0.10196 0.50614 0.0
C558 C 0.63522 0.91303 0.57581 0.0
C559 C 0.66014 0.89865 0.60814 0.0
C560 C 0.65707 0.95576 0.55008 0.0
C561 C 0.70447 0.98461 0.55533 0.0
C562 C 0.72951 0.96993 0.58721 0.0
C563 C 0.70747 0.92742 0.61373 0.0
H564 H 0.71435 0.81892 0.79544 0.0
H565 H 0.60594 0.68051 0.76628 0.0
H566 H 0.75154 0.78998 0.85809 0.0
H567 H 0.6424 0.65219 0.82777 0.0
H568 H 0.74203 0.60986 0.87723 0.0
H569 H 0.71117 0.6468 0.8207 0.0
H570 H 0.74338 0.74799 0.94892 0.0
H571 H 0.77734 0.71197 1.005 0.0
C572 C 0.69836 0.78253 0.80261 0.0
C573 C 0.65772 0.75201 0.77491 0.0
C574 C 0.71952 0.76599 0.83854 0.0
C575 C 0.70033 0.71872 0.84709 0.0
C576 C 0.65876 0.68868 0.82106 0.0
C577 C 0.63781 0.70505 0.78563 0.0
C578 C 0.74281 0.64002 0.8938 0.0
C579 C 0.76067 0.65692 0.94693 0.0
C580 C 0.72478 0.66111 0.86126 0.0
C581 C 0.72369 0.69966 0.88083 0.0
C582 C 0.74336 0.71806 0.93288 0.0
C583 C 0.76199 0.69698 0.96547 0.0
H584 H 0.09452 0.81467 0.29327 0.0
H585 H 0.13457 0.72877 0.20618 0.0
H586 H 0.02289 0.78038 0.23979 0.0
H587 H 0.06311 0.69421 0.15362 0.0
H588 H 0.90512 0.60487 0.13662 0.0
H589 H 0.97814 0.64375 0.18539 0.0
H590 H 0.99736 0.7738 0.13158 0.0
H591 H 0.92383 0.73415 0.0815 0.0
C592 C 0.08797 0.78857 0.26266 0.0
C593 C 0.1199 0.77426 0.25378 0.0
C594 C 0.04728 0.76923 0.2319 0.0
C595 C 0.0376 0.73476 0.19251 0.0
C596 C 0.06969 0.72067 0.18373 0.0
C597 C 0.11058 0.74053 0.21363 0.0
C598 C 0.92486 0.64172 0.13542 0.0
C599 C 0.909 0.66657 0.10557 0.0
C600 C 0.96677 0.66396 0.16293 0.0
C601 C 0.99333 0.71178 0.16237 0.0
C602 C 0.97737 0.73688 0.13281 0.0
C603 C 0.93566 0.71434 0.10397 0.0
H604 H 0.33898 0.03575 0.68201 0.0
H605 H 0.32697 0.1309 0.57428 0.0
H606 H 0.30364 0.97648 0.61148 0.0
H607 H 0.29315 0.07164 0.50225 0.0
H608 H 0.31094 0.96801 0.37943 0.0
H609 H 0.33265 0.02734 0.44951 0.0
H610 H 0.22207 0.93288 0.55386 0.0
H611 H 0.19881 0.87361 0.48224 0.0
C612 C 0.3285 0.04403 0.64357 0.0
C613 C 0.33597 0.08823 0.63393 0.0
C614 C 0.30807 0.00992 0.60319 0.0
C615 C 0.29563 0.01953 0.55158 0.0
C616 C 0.30239 0.06343 0.54189 0.0
C617 C 0.3217 0.09728 0.58307 0.0
C618 C 0.29057 0.95993 0.41663 0.0
C619 C 0.25303 0.91593 0.42504 0.0
C620 C 0.30302 0.99406 0.45674 0.0
C621 C 0.27893 0.98466 0.50688 0.0
C622 C 0.24106 0.94094 0.51533 0.0
C623 C 0.22779 0.90708 0.47437 0.0
H624 H 0.14833 0.39306 0.66359 0.0
H625 H 0.19617 0.53163 0.61021 0.0
H626 H 0.17098 0.37635 0.57404 0.0
H627 H 0.21782 0.51465 0.52095 0.0
H628 H 0.20515 0.45705 0.34777 0.0
H629 H 0.17898 0.46792 0.438 0.0
H630 H 0.24021 0.39737 0.51763 0.0
H631 H 0.26528 0.38539 0.42724 0.0
C632 C 0.16396 0.42004 0.63306 0.0
C633 C 0.16974 0.46351 0.64386 0.0
C634 C 0.17677 0.4104 0.58171 0.0
C635 C 0.19542 0.44397 0.54013 0.0
C636 C 0.20241 0.4877 0.55158 0.0
C637 C 0.18996 0.49741 0.60282 0.0
C638 C 0.21241 0.44327 0.38444 0.0
C639 C 0.23764 0.42074 0.38051 0.0
C640 C 0.19785 0.44989 0.43615 0.0
C641 C 0.20801 0.43395 0.48497 0.0
C642 C 0.23177 0.40995 0.48079 0.0
C643 C 0.2465 0.4035 0.42911 0.0
H644 H 0.86272 0.19079 0.98933 0.0
H645 H 0.74717 0.20311 0.0402 0.0
H646 H 0.86276 0.22329 0.89934 0.0
H647 H 0.74817 0.23751 0.95056 0.0
H648 H 0.72154 0.22977 0.76246 0.0
H649 H 0.72759 0.20897 0.85743 0.0
H650 H 0.87464 0.28751 0.84631 0.0
H651 H 0.86848 0.30795 0.75085 0.0
C652 C 0.83781 0.20129 0.9815 0.0
C653 C 0.80446 0.19373 0.02139 0.0
C654 C 0.83804 0.22028 0.93002 0.0
C655 C 0.80499 0.23239 0.91723 0.0
C656 C 0.77348 0.22761 0.9586 0.0
C657 C 0.77324 0.2085 1.01023 0.0
C658 C 0.75517 0.24297 0.78043 0.0
C659 C 0.7945 0.27062 0.74905 0.0
C660 C 0.75866 0.23124 0.83508 0.0
C661 C 0.80161 0.2469 0.85988 0.0
C662 C 0.84101 0.27451 0.82844 0.0
C663 C 0.83749 0.28614 0.77364 0.0
H664 H 0.47001 0.675 0.28671 0.0
H665 H 0.60892 0.765 0.34008 0.0
H666 H 0.48687 0.71384 0.19769 0.0
H667 H 0.62558 0.80447 0.25077 0.0
H668 H 0.61836 0.89033 0.10423 0.0
H669 H 0.60566 0.85323 0.19456 0.0
H670 H 0.53259 0.72125 0.11461 0.0
H671 H 0.54424 0.75839 0.02443 0.0
C672 C 0.50427 0.70292 0.27936 0.0
C673 C 0.53829 0.71636 0.32031 0.0
C674 C 0.51391 0.72518 0.22826 0.0
C675 C 0.55773 0.76174 0.21687 0.0
C676 C 0.59145 0.77639 0.2584 0.0
C677 C 0.58185 0.75388 0.3096 0.0
C678 C 0.59951 0.85339 0.10602 0.0
C679 C 0.58187 0.82727 0.05733 0.0
C680 C 0.59264 0.83216 0.15767 0.0
C681 C 0.5678 0.78435 0.16176 0.0
C682 C 0.55129 0.7582 0.11286 0.0
C683 C 0.55835 0.77943 0.06118 0.0
H684 H 0.86067 0.58616 0.68261 0.0
H685 H 0.76921 0.64026 0.67301 0.0
H686 H 0.8399 0.55711 0.58846 0.0
H687 H 0.75248 0.61598 0.57744 0.0
H688 H 0.70041 0.53745 0.41755 0.0
H689 H 0.71549 0.55841 0.51541 0.0
H690 H 0.85132 0.57791 0.49673 0.0
H691 H 0.83418 0.55346 0.39997 0.0
C692 C 0.83614 0.59193 0.66064 0.0
C693 C 0.81719 0.61622 0.68573 0.0
C694 C 0.82483 0.57598 0.60591 0.0
C695 C 0.7949 0.58459 0.5743 0.0
C696 C 0.77524 0.608 0.59998 0.0
C697 C 0.78566 0.6229 0.65496 0.0
C698 C 0.73335 0.54618 0.43483 0.0
C699 C 0.76615 0.54388 0.40178 0.0
C700 C 0.74231 0.55857 0.49084 0.0
C701 C 0.78481 0.57008 0.51473 0.0
C702 C 0.81783 0.56834 0.48075 0.0
C703 C 0.80837 0.55488 0.42507 0.0
H704 H 0.11338 0.74934 0.75778 0.0
H705 H 0.24315 0.83546 0.67831 0.0
H706 H 0.1511 0.76207 0.84671 0.0
H707 H 0.28171 0.84515 0.76703 0.0
H708 H 0.33479 0.89615 0.94012 0.0
H709 H 0.29554 0.88301 0.85143 0.0
H710 H 0.19556 0.74696 0.90479 0.0
H711 H 0.23366 0.7617 0.99481 0.0
C712 C 0.15015 0.77077 0.75918 0.0
C713 C 0.17505 0.79207 0.71085 0.0
C714 C 0.17199 0.77752 0.81036 0.0
C715 C 0.21963 0.80498 0.81471 0.0
C716 C 0.24487 0.82465 0.76583 0.0
C717 C 0.22283 0.81846 0.71458 0.0
C718 C 0.30407 0.86368 0.93283 0.0
C719 C 0.28711 0.82993 0.97407 0.0
C720 C 0.28185 0.85583 0.8817 0.0
C721 C 0.24258 0.81365 0.87007 0.0
C722 C 0.22529 0.78012 0.91208 0.0
C723 C 0.24707 0.7884 0.96373 0.0
H724 H 0.46227 0.22225 0.38176 0.0
H725 H 0.38153 0.27357 0.30524 0.0
H726 H 0.47533 0.19909 0.29066 0.0
H727 H 0.39549 0.2513 0.21391 0.0
H728 H 0.39778 0.16145 0.06721 0.0
H729 H 0.37914 0.18237 0.15687 0.0
H730 H 0.51991 0.24208 0.20768 0.0
H731 H 0.53871 0.2222 0.11836 0.0
C732 C 0.447 0.22822 0.34554 0.0
C733 C 0.42122 0.2501 0.35056 0.0
C734 C 0.45482 0.21536 0.29335 0.0
C735 C 0.43683 0.22387 0.24514 0.0
C736 C 0.40971 0.24426 0.25033 0.0
C737 C 0.40211 0.25738 0.30251 0.0
C738 C 0.42483 0.17966 0.09722 0.0
C739 C 0.46961 0.18951 0.08596 0.0
C740 C 0.41411 0.19143 0.1486 0.0
C741 C 0.44793 0.21306 0.1896 0.0
C742 C 0.4929 0.22436 0.17746 0.0
C743 C 0.50364 0.21297 0.12622 0.0
H744 H 0.21496 0.56948 1.0196 0.0
H745 H 0.17494 0.48255 0.16427 0.0
H746 H 0.21687 0.63078 0.07647 0.0
H747 H 0.17715 0.54324 0.22038 0.0
H748 H 0.14784 0.64928 0.29662 0.0
H749 H 0.13852 0.58817 0.23424 0.0
H750 H 0.26578 0.68101 0.15396 0.0
H751 H 0.27529 0.74196 0.21632 0.0
C752 C 0.20622 0.5633 0.06322 0.0
C753 C 0.19529 0.52127 0.08734 0.0
C754 C 0.20756 0.59842 0.09587 0.0
C755 C 0.19727 0.59191 0.15304 0.0
C756 C 0.18487 0.54934 0.1765 0.0
C757 C 0.18404 0.51463 0.14422 0.0
C758 C 0.17389 0.65667 0.26582 0.0
C759 C 0.21262 0.70043 0.2621 0.0
C760 C 0.16853 0.62163 0.22998 0.0
C761 C 0.20141 0.62972 0.18902 0.0
C762 C 0.23958 0.67374 0.18457 0.0
C763 C 0.24523 0.70857 0.2208 0.0
H764 H 0.65257 0.13599 0.44326 0.0
H765 H 0.72126 0.28 0.48209 0.0
H766 H 0.5882 0.12406 0.50175 0.0
H767 H 0.65859 0.26754 0.54269 0.0
H768 H 0.56554 0.21651 0.69602 0.0
H769 H 0.62595 0.22045 0.63627 0.0
H770 H 0.52834 0.15444 0.50397 0.0
H771 H 0.46805 0.15125 0.56322 0.0
C772 C 0.65396 0.16509 0.46398 0.0
C773 C 0.69265 0.20887 0.45908 0.0
C774 C 0.61729 0.15817 0.49772 0.0
C775 C 0.61908 0.19473 0.52771 0.0
C776 C 0.65693 0.23858 0.52118 0.0
C777 C 0.69292 0.24564 0.48668 0.0
C778 C 0.55686 0.20217 0.65454 0.0
C779 C 0.51219 0.18379 0.63412 0.0
C780 C 0.59141 0.20466 0.62031 0.0
C781 C 0.58169 0.1879 0.56552 0.0
C782 C 0.53662 0.16742 0.54609 0.0
C783 C 0.50227 0.16579 0.5799 0.0
H784 H 0.352 0.55087 1.00479 0.0
H785 H 0.28096 0.47724 0.85697 0.0
H786 H 0.41403 0.60768 0.94712 0.0
H787 H 0.34279 0.532 0.79975 0.0
H788 H 0.42927 0.66531 0.70846 0.0
H789 H 0.37146 0.60539 0.76683 0.0
H790 H 0.47549 0.62685 0.88701 0.0
H791 H 0.53239 0.68829 0.82986 0.0
C792 C 0.3502 0.54631 0.96022 0.0
C793 C 0.31155 0.51006 0.93539 0.0
C794 C 0.38565 0.57879 0.92694 0.0
C795 C 0.38317 0.57508 0.86836 0.0
C796 C 0.34546 0.5371 0.84432 0.0
C797 C 0.31011 0.50536 0.87728 0.0
C798 C 0.43958 0.65678 0.74713 0.0
C799 C 0.48501 0.68146 0.76488 0.0
C800 C 0.4066 0.62232 0.78067 0.0
C801 C 0.41862 0.61111 0.83207 0.0
C802 C 0.4646 0.63505 0.84858 0.0
C803 C 0.4973 0.67004 0.8156 0.0
H804 H 0.82128 0.30061 0.22669 0.0
H805 H 0.80336 0.3665 0.37086 0.0
H806 H 0.82168 0.35833 0.16723 0.0
H807 H 0.80368 0.42487 0.3103 0.0
H808 H 0.84848 0.54308 0.18358 0.0
H809 H 0.85367 0.4888 0.2461 0.0
H810 H 0.76473 0.37819 0.13661 0.0
H811 H 0.76067 0.43287 0.0739 0.0
C812 C 0.81734 0.32739 0.2459 0.0
C813 C 0.81178 0.32852 0.30375 0.0
C814 C 0.81747 0.36049 0.21155 0.0
C815 C 0.81217 0.39583 0.23391 0.0
C816 C 0.80802 0.39806 0.29191 0.0
C817 C 0.80776 0.36463 0.32655 0.0
C818 C 0.83118 0.50729 0.17242 0.0
C819 C 0.80522 0.49195 0.12356 0.0
C820 C 0.83345 0.47618 0.20856 0.0
C821 C 0.80982 0.42925 0.19616 0.0
C822 C 0.78385 0.41418 0.14696 0.0
C823 C 0.78139 0.44527 0.11114 0.0
H824 H 0.35377 0.7869 0.37421 0.0
H825 H 0.32252 0.85923 0.49832 0.0
H826 H 0.41049 0.78656 0.43552 0.0
H827 H 0.38153 0.86185 0.55886 0.0
H828 H 0.45222 0.80991 0.6782 0.0
H829 H 0.39929 0.81894 0.61763 0.0
H830 H 0.48079 0.8265 0.47514 0.0
H831 H 0.53094 0.81421 0.53545 0.0
C832 C 0.35998 0.80382 0.41416 0.0
C833 C 0.33382 0.82309 0.43152 0.0
C834 C 0.39276 0.80391 0.44949 0.0
C835 C 0.40108 0.82434 0.50261 0.0
C836 C 0.37571 0.84497 0.51898 0.0
C837 C 0.34216 0.84391 0.48407 0.0
C838 C 0.4588 0.81409 0.63406 0.0
C839 C 0.49534 0.81123 0.61137 0.0
C840 C 0.42861 0.81939 0.59909 0.0
C841 C 0.43507 0.82279 0.5409 0.0
C842 C 0.47346 0.82248 0.51919 0.0
C843 C 0.50268 0.81603 0.55385 0.0
H844 H 0.656 0.43394 0.03181 0.0
H845 H 0.68948 0.52414 0.8913 0.0
H846 H 0.59258 0.37326 0.97904 0.0
H847 H 0.62733 0.46376 0.83833 0.0
H848 H 0.49285 0.35364 0.76654 0.0
H849 H 0.54547 0.41532 0.82786 0.0
H850 H 0.58738 0.32551 0.90058 0.0
H851 H 0.53477 0.26405 0.84015 0.0
C852 C 0.64928 0.441 0.99008 0.0
C853 C 0.67775 0.48361 0.96554 0.0
C854 C 0.61333 0.4062 0.95962 0.0
C855 C 0.60508 0.41352 0.90421 0.0
C856 C 0.63232 0.45697 0.88093 0.0
C857 C 0.66819 0.49152 0.91121 0.0
C858 C 0.51334 0.3471 0.79553 0.0
C859 C 0.50998 0.30403 0.79777 0.0
C860 C 0.54348 0.38245 0.83075 0.0
C861 C 0.57062 0.37537 0.86931 0.0
C862 C 0.56656 0.33203 0.87208 0.0
C863 C 0.53668 0.29688 0.83682 0.0
loop_
_geom_bond_atom_site_label_1
_geom_bond_atom_site_label_2
_geom_bond_distance
_geom_bond_site_symmetry_2
_ccdc_geom_bond_type
Tb0 N29 2.617 . S
Tb0 N35 2.572 . S
Tb0 O44 2.465 . S
Tb0 O45 2.387 1_556 S
Tb0 O47 2.428 . S
Tb0 O48 2.308 . S
Tb0 O52 2.349 . S
Tb0 O55 2.393 . S
Tb0 C64 2.802 . S
C1 N2 1.379 . S
C1 C4 1.416 . S
C1 C8 1.424 . S
N2 C1 1.379 . S
N2 C5 1.334 . S
N2 Tb11 2.617 . S
C3 C5 1.390 . S
C3 C6 1.339 . S
C3 H23 0.930 . S
C4 C1 1.416 . S
C4 C6 1.416 . S
C4 C10 1.448 . S
C5 N2 1.334 . S
C5 C3 1.390 . S
C5 H16 0.930 . S
C6 C3 1.339 . S
C6 C4 1.416 . S
C6 H27 0.930 . S
C7 C8 1.413 . S
C7 C9 1.427 . S
C7 C13 1.416 . S
C8 C1 1.424 . S
C8 C7 1.413 . S
C8 N12 1.361 . S
C9 C7 1.427 . S
C9 C10 1.328 . S
C9 H24 0.929 . S
C10 C4 1.448 . S
C10 C9 1.328 . S
C10 H25 0.930 . S
Tb11 N2 2.617 . S
Tb11 N12 2.572 . S
Tb11 O46 2.349 . S
Tb11 O49 2.393 . S
Tb11 O50 2.465 . S
Tb11 O51 2.387 1_554 S
Tb11 O53 2.428 . S
Tb11 O54 2.308 . S
Tb11 C75 2.802 . S
N12 C8 1.361 . S
N12 Tb11 2.572 . S
N12 C14 1.340 . S
C13 C7 1.416 . S
C13 C15 1.332 . S
C13 H21 0.931 . S
C14 N12 1.340 . S
C14 C15 1.407 . S
C14 H20 0.930 . S
C15 C13 1.332 . S
C15 C14 1.407 . S
C15 H17 0.929 . S
H16 C5 0.930 . S
H17 C15 0.929 . S
H18 C33 0.930 . S
H19 C40 0.929 . S
H20 C14 0.930 . S
H21 C13 0.931 . S
H22 C36 0.930 . S
H23 C3 0.930 . S
H24 C9 0.929 . S
H25 C10 0.930 . S
H26 C31 0.930 . S
H27 C6 0.930 . S
H28 C39 0.931 1_655 S
N29 Tb0 2.617 . S
N29 C30 1.379 . S
N29 C33 1.334 . S
C30 N29 1.379 . S
C30 C32 1.416 . S
C30 C38 1.424 . S
C31 H26 0.930 . S
C31 C33 1.390 . S
C31 C34 1.339 . S
C32 C30 1.416 . S
C32 C34 1.416 . S
C32 C65 1.448 1_455 S
C33 H18 0.930 . S
C33 N29 1.334 . S
C33 C31 1.390 . S
C34 C31 1.339 . S
C34 C32 1.416 . S
C34 H41 0.930 1_455 S
N35 Tb0 2.572 . S
N35 C36 1.340 . S
N35 C38 1.361 . S
C36 H22 0.930 . S
C36 N35 1.340 . S
C36 C40 1.407 . S
C37 C38 1.413 . S
C37 C39 1.416 . S
C37 C66 1.427 1_455 S
C38 C30 1.424 . S
C38 N35 1.361 . S
C38 C37 1.413 . S
C39 H28 0.931 1_455 S
C39 C37 1.416 . S
C39 C40 1.332 . S
C40 H19 0.929 . S
C40 C36 1.407 . S
C40 C39 1.332 . S
H41 C34 0.930 1_655 S
H42 C65 0.930 . S
H43 C66 0.929 . S
O44 Tb0 2.465 . S
O44 C64 1.264 . S
O45 Tb0 2.387 1_554 S
O45 C56 1.264 . S
O46 Tb11 2.349 . S
O46 C56 1.243 . S
O47 Tb0 2.428 . S
O47 C64 1.256 . S
O48 Tb0 2.308 . S
O48 C63 1.266 . S
O49 Tb11 2.393 . S
O49 C63 1.248 1_554 S
O50 Tb11 2.465 . S
O50 C75 1.264 . S
O51 Tb11 2.387 1_556 S
O51 C67 1.264 . S
O52 Tb0 2.349 . S
O52 C67 1.243 . S
O53 Tb11 2.428 . S
O53 C75 1.256 . S
O54 Tb11 2.308 . S
O54 C74 1.266 . S
O55 Tb0 2.393 . S
O55 C74 1.247 1_556 S
C56 O45 1.264 . S
C56 O46 1.243 . S
C57 C60 1.399 . S
C57 C62 1.383 . S
C57 C64 1.496 . S
C58 C59 1.399 . S
C58 C62 1.389 . S
C59 C58 1.399 . S
C59 C61 1.380 . S
C59 H76 0.929 . S
C60 C57 1.399 . S
C60 C61 1.392 . S
C60 H77 0.929 . S
C61 C59 1.380 . S
C61 C60 1.392 . S
C61 H78 0.929 . S
C62 C57 1.383 . S
C62 C58 1.389 . S
C62 H79 0.931 . S
C63 O48 1.266 . S
C63 O49 1.248 1_556 S
C64 Tb0 2.802 . S
C64 O44 1.264 . S
C64 O47 1.256 . S
C64 C57 1.496 . S
C65 C32 1.448 1_655 S
C65 H42 0.930 . S
C65 C66 1.328 . S
C66 C37 1.427 1_655 S
C66 H43 0.929 . S
C66 C65 1.328 . S
C67 O51 1.264 . S
C67 O52 1.243 . S
C68 C71 1.399 . S
C68 C72 1.383 . S
C68 C75 1.496 . S
C69 C70 1.399 . S
C69 C72 1.389 . S
C70 C69 1.399 . S
C70 C73 1.380 . S
C70 H80 0.929 . S
C71 C68 1.399 . S
C71 C73 1.392 . S
C71 H81 0.929 . S
C72 C68 1.383 . S
C72 C69 1.389 . S
C72 H82 0.931 . S
C73 C70 1.380 . S
C73 C71 1.392 . S
C73 H83 0.929 . S
C74 O54 1.266 . S
C74 O55 1.247 1_554 S
C75 Tb11 2.802 . S
C75 O50 1.264 . S
C75 O53 1.256 . S
C75 C68 1.496 . S
H76 C59 0.929 . S
H77 C60 0.929 . S
H78 C61 0.929 . S
H79 C62 0.931 . S
H80 C70 0.929 . S
H81 C71 0.929 . S
H82 C72 0.931 . S
H83 C73 0.929 . S
Tb84 N113 2.617 . S
Tb84 N119 2.572 . S
Tb84 O128 2.465 . S
Tb84 O129 2.387 . S
Tb84 O131 2.428 . S
Tb84 O132 2.308 . S
Tb84 O136 2.349 . S
Tb84 O139 2.393 . S
Tb84 C148 2.802 . S
C85 N86 1.379 . S
C85 C88 1.416 . S
C85 C92 1.424 . S
N86 C85 1.379 . S
N86 C89 1.334 . S
N86 Tb95 2.617 . S
C87 C89 1.390 . S
C87 C90 1.339 . S
C87 H107 0.930 1_545 S
C88 C85 1.416 . S
C88 C90 1.416 . S
C88 C94 1.448 . S
C89 N86 1.334 . S
C89 C87 1.390 . S
C89 H100 0.930 . S
C90 C87 1.339 . S
C90 C88 1.416 . S
C90 H111 0.930 1_545 S
C91 C92 1.413 . S
C91 C93 1.427 . S
C91 C97 1.416 . S
C92 C85 1.424 . S
C92 C91 1.413 . S
C92 N96 1.361 . S
C93 C91 1.427 . S
C93 C94 1.328 . S
C93 H108 0.929 . S
C94 C88 1.448 . S
C94 C93 1.328 . S
C94 H109 0.930 . S
Tb95 N86 2.617 . S
Tb95 N96 2.572 . S
Tb95 O130 2.349 . S
Tb95 O133 2.393 . S
Tb95 O134 2.465 . S
Tb95 O135 2.387 . S
Tb95 O137 2.428 . S
Tb95 O138 2.308 . S
Tb95 C159 2.802 . S
N96 C92 1.361 . S
N96 Tb95 2.572 . S
N96 C98 1.340 . S
C97 C91 1.416 . S
C97 C99 1.332 . S
C97 H105 0.931 . S
C98 N96 1.340 . S
C98 C99 1.407 . S
C98 H104 0.930 . S
C99 C97 1.332 . S
C99 C98 1.407 . S
C99 H101 0.929 . S
H100 C89 0.930 . S
H101 C99 0.929 . S
H102 C117 0.930 . S
H103 C124 0.929 . S
H104 C98 0.930 . S
H105 C97 0.931 . S
H106 C120 0.930 . S
H107 C87 0.930 1_565 S
H108 C93 0.929 . S
H109 C94 0.930 . S
H110 C115 0.930 . S
H111 C90 0.930 1_565 S
H112 C123 0.931 1_455 S
N113 Tb84 2.617 . S
N113 C114 1.379 . S
N113 C117 1.334 . S
C114 N113 1.379 . S
C114 C116 1.416 . S
C114 C122 1.424 . S
C115 H110 0.930 . S
C115 C117 1.390 . S
C115 C118 1.339 . S
C116 C114 1.416 . S
C116 C118 1.416 . S
C116 C149 1.448 1_655 S
C117 H102 0.930 . S
C117 N113 1.334 . S
C117 C115 1.390 . S
C118 C115 1.339 . S
C118 C116 1.416 . S
C118 H125 0.930 1_655 S
N119 Tb84 2.572 . S
N119 C120 1.340 . S
N119 C122 1.361 . S
C120 H106 0.930 . S
C120 N119 1.340 . S
C120 C124 1.407 . S
C121 C122 1.413 . S
C121 C123 1.416 . S
C121 C150 1.427 1_655 S
C122 C114 1.424 . S
C122 N119 1.361 . S
C122 C121 1.413 . S
C123 H112 0.931 1_655 S
C123 C121 1.416 . S
C123 C124 1.332 . S
C124 H103 0.929 . S
C124 C120 1.407 . S
C124 C123 1.332 . S
H125 C118 0.930 1_455 S
H126 C149 0.930 . S
H127 C150 0.929 . S
O128 Tb84 2.465 . S
O128 C148 1.264 . S
O129 Tb84 2.387 . S
O129 C140 1.264 . S
O130 Tb95 2.349 . S
O130 C140 1.243 . S
O131 Tb84 2.428 . S
O131 C148 1.256 . S
O132 Tb84 2.308 . S
O132 C147 1.266 . S
O133 Tb95 2.393 . S
O133 C147 1.248 . S
O134 Tb95 2.465 . S
O134 C159 1.264 . S
O135 Tb95 2.387 . S
O135 C151 1.264 . S
O136 Tb84 2.349 . S
O136 C151 1.243 . S
O137 Tb95 2.428 . S
O137 C159 1.256 . S
O138 Tb95 2.308 . S
O138 C158 1.266 . S
O139 Tb84 2.393 . S
O139 C158 1.248 . S
C140 O129 1.264 . S
C140 O130 1.243 . S
C141 C144 1.399 . S
C141 C146 1.383 . S
C141 C148 1.496 . S
C142 C143 1.399 . S
C142 C146 1.389 . S
C143 C142 1.399 . S
C143 C145 1.380 . S
C143 H160 0.929 . S
C144 C141 1.399 . S
C144 C145 1.392 . S
C144 H161 0.929 . S
C145 C143 1.380 . S
C145 C144 1.392 . S
C145 H162 0.929 . S
C146 C141 1.383 . S
C146 C142 1.389 . S
C146 H163 0.931 . S
C147 O132 1.266 . S
C147 O133 1.248 . S
C148 Tb84 2.802 . S
C148 O128 1.264 . S
C148 O131 1.256 . S
C148 C141 1.496 . S
C149 C116 1.448 1_455 S
C149 H126 0.930 . S
C149 C150 1.328 . S
C150 C121 1.427 1_455 S
C150 H127 0.929 . S
C150 C149 1.328 . S
C151 O135 1.264 . S
C151 O136 1.243 . S
C152 C155 1.399 . S
C152 C156 1.383 . S
C152 C159 1.496 . S
C153 C154 1.399 . S
C153 C156 1.389 . S
C154 C153 1.399 . S
C154 C157 1.380 . S
C154 H164 0.929 1_554 S
C155 C152 1.399 . S
C155 C157 1.392 . S
C155 H165 0.929 . S
C156 C152 1.383 . S
C156 C153 1.389 . S
C156 H166 0.931 . S
C157 C154 1.380 . S
C157 C155 1.392 . S
C157 H167 0.929 . S
C158 O138 1.266 . S
C158 O139 1.248 . S
C159 Tb95 2.802 . S
C159 O134 1.264 . S
C159 O137 1.256 . S
C159 C152 1.496 . S
H160 C143 0.929 . S
H161 C144 0.929 . S
H162 C145 0.929 . S
H163 C146 0.931 . S
H164 C154 0.929 1_556 S
H165 C155 0.929 . S
H166 C156 0.931 . S
H167 C157 0.929 . S
Tb168 N197 2.617 . S
Tb168 N203 2.572 . S
Tb168 O212 2.465 . S
Tb168 O213 2.387 . S
Tb168 O215 2.428 . S
Tb168 O216 2.308 . S
Tb168 O220 2.349 . S
Tb168 O223 2.393 . S
Tb168 C232 2.802 . S
C169 N170 1.379 . S
C169 C172 1.416 . S
C169 C176 1.424 . S
N170 C169 1.379 . S
N170 C173 1.334 . S
N170 Tb179 2.617 . S
C171 C173 1.390 . S
C171 C174 1.339 . S
C171 H191 0.930 1_565 S
C172 C169 1.416 . S
C172 C174 1.416 . S
C172 C178 1.448 . S
C173 N170 1.334 . S
C173 C171 1.390 . S
C173 H184 0.930 . S
C174 C171 1.339 . S
C174 C172 1.416 . S
C174 H195 0.930 1_565 S
C175 C176 1.413 . S
C175 C177 1.427 . S
C175 C181 1.416 . S
C176 C169 1.424 . S
C176 C175 1.413 . S
C176 N180 1.361 . S
C177 C175 1.427 . S
C177 C178 1.328 . S
C177 H192 0.929 . S
C178 C172 1.448 . S
C178 C177 1.328 . S
C178 H193 0.930 . S
Tb179 N170 2.617 . S
Tb179 N180 2.572 . S
Tb179 O214 2.349 . S
Tb179 O217 2.393 . S
Tb179 O218 2.465 . S
Tb179 O219 2.387 . S
Tb179 O221 2.428 . S
Tb179 O222 2.308 . S
Tb179 C243 2.802 . S
N180 C176 1.361 . S
N180 Tb179 2.572 . S
N180 C182 1.340 . S
C181 C175 1.416 . S
C181 C183 1.332 . S
C181 H189 0.931 . S
C182 N180 1.340 . S
C182 C183 1.407 . S
C182 H188 0.930 . S
C183 C181 1.332 . S
C183 C182 1.407 . S
C183 H185 0.929 . S
H184 C173 0.930 . S
H185 C183 0.929 . S
H186 C201 0.930 . S
H187 C208 0.929 . S
H188 C182 0.930 . S
H189 C181 0.931 . S
H190 C204 0.930 . S
H191 C171 0.930 1_545 S
H192 C177 0.929 . S
H193 C178 0.930 . S
H194 C199 0.930 . S
H195 C174 0.930 1_545 S
H196 C207 0.931 . S
N197 Tb168 2.617 . S
N197 C198 1.379 . S
N197 C201 1.334 . S
C198 N197 1.379 . S
C198 C200 1.416 . S
C198 C206 1.424 . S
C199 H194 0.930 . S
C199 C201 1.390 . S
C199 C202 1.339 . S
C200 C198 1.416 . S
C200 C202 1.416 . S
C200 C233 1.448 . S
C201 H186 0.930 . S
C201 N197 1.334 . S
C201 C199 1.390 . S
C202 C199 1.339 . S
C202 C200 1.416 . S
C202 H209 0.930 . S
N203 Tb168 2.572 . S
N203 C204 1.340 . S
N203 C206 1.361 . S
C204 H190 0.930 . S
C204 N203 1.340 . S
C204 C208 1.407 . S
C205 C206 1.413 . S
C205 C207 1.416 . S
C205 C234 1.427 . S
C206 C198 1.424 . S
C206 N203 1.361 . S
C206 C205 1.413 . S
C207 H196 0.931 . S
C207 C205 1.416 . S
C207 C208 1.332 . S
C208 H187 0.929 . S
C208 C204 1.407 . S
C208 C207 1.332 . S
H209 C202 0.930 . S
H210 C233 0.930 . S
H211 C234 0.929 . S
O212 Tb168 2.465 . S
O212 C232 1.264 . S
O213 Tb168 2.387 . S
O213 C224 1.264 . S
O214 Tb179 2.349 . S
O214 C224 1.243 . S
O215 Tb168 2.428 . S
O215 C232 1.256 . S
O216 Tb168 2.308 . S
O216 C231 1.266 . S
O217 Tb179 2.393 . S
O217 C231 1.248 . S
O218 Tb179 2.465 . S
O218 C243 1.264 . S
O219 Tb179 2.387 . S
O219 C235 1.264 . S
O220 Tb168 2.349 . S
O220 C235 1.243 . S
O221 Tb179 2.428 . S
O221 C243 1.256 . S
O222 Tb179 2.308 . S
O222 C242 1.266 . S
O223 Tb168 2.393 . S
O223 C242 1.248 . S
C224 O213 1.264 . S
C224 O214 1.243 . S
C225 C228 1.399 . S
C225 C230 1.383 . S
C225 C232 1.496 . S
C226 C227 1.399 . S
C226 C230 1.389 . S
C227 C226 1.399 . S
C227 C229 1.380 . S
C227 H244 0.929 . S
C228 C225 1.399 . S
C228 C229 1.392 . S
C228 H245 0.929 . S
C229 C227 1.380 . S
C229 C228 1.392 . S
C229 H246 0.929 . S
C230 C225 1.383 . S
C230 C226 1.389 . S
C230 H247 0.931 . S
C231 O216 1.266 . S
C231 O217 1.248 . S
C232 Tb168 2.802 . S
C232 O212 1.264 . S
C232 O215 1.256 . S
C232 C225 1.496 . S
C233 C200 1.448 . S
C233 H210 0.930 . S
C233 C234 1.328 . S
C234 C205 1.427 . S
C234 H211 0.929 . S
C234 C233 1.328 . S
C235 O219 1.264 . S
C235 O220 1.243 . S
C236 C239 1.399 . S
C236 C240 1.383 . S
C236 C243 1.496 . S
C237 C238 1.399 1_556 S
C237 C240 1.389 . S
C238 C237 1.399 1_554 S
C238 C241 1.380 1_554 S
C238 H248 0.929 . S
C239 C236 1.399 . S
C239 C241 1.392 . S
C239 H249 0.929 . S
C240 C236 1.383 . S
C240 C237 1.389 . S
C240 H250 0.931 . S
C241 C238 1.380 1_556 S
C241 C239 1.392 . S
C241 H251 0.929 . S
C242 O222 1.266 . S
C242 O223 1.248 . S
C243 Tb179 2.802 . S
C243 O218 1.264 . S
C243 O221 1.256 . S
C243 C236 1.496 . S
H244 C227 0.929 . S
H245 C228 0.929 . S
H246 C229 0.929 . S
H247 C230 0.931 . S
H248 C238 0.929 . S
H249 C239 0.929 . S
H250 C240 0.931 . S
H251 C241 0.929 . S
Tb252 N281 2.617 . S
Tb252 N287 2.572 . S
Tb252 O296 2.465 . S
Tb252 O297 2.387 . S
Tb252 O299 2.428 . S
Tb252 O300 2.308 . S
Tb252 O304 2.349 . S
Tb252 O307 2.393 . S
Tb252 C316 2.802 . S
C253 N254 1.379 . S
C253 C256 1.416 . S
C253 C260 1.424 . S
N254 C253 1.379 . S
N254 C257 1.334 . S
N254 Tb263 2.617 . S
C255 C257 1.390 . S
C255 C258 1.339 . S
C255 H275 0.930 1_655 S
C256 C253 1.416 . S
C256 C258 1.416 . S
C256 C262 1.448 . S
C257 N254 1.334 . S
C257 C255 1.390 . S
C257 H268 0.930 . S
C258 C255 1.339 . S
C258 C256 1.416 . S
C258 H279 0.930 1_655 S
C259 C260 1.413 . S
C259 C261 1.427 . S
C259 C265 1.416 . S
C260 C253 1.424 . S
C260 C259 1.413 . S
C260 N264 1.361 . S
C261 C259 1.427 . S
C261 C262 1.328 . S
C261 H276 0.929 . S
C262 C256 1.448 . S
C262 C261 1.328 . S
C262 H277 0.930 . S
Tb263 N254 2.617 . S
Tb263 N264 2.572 . S
Tb263 O298 2.349 . S
Tb263 O301 2.393 1_556 S
Tb263 O302 2.465 . S
Tb263 O303 2.387 1_556 S
Tb263 O305 2.428 . S
Tb263 O306 2.308 . S
Tb263 C327 2.802 . S
N264 C260 1.361 . S
N264 Tb263 2.572 . S
N264 C266 1.340 . S
C265 C259 1.416 . S
C265 C267 1.332 . S
C265 H273 0.931 . S
C266 N264 1.340 . S
C266 C267 1.407 . S
C266 H272 0.930 . S
C267 C265 1.332 . S
C267 C266 1.407 . S
C267 H269 0.929 . S
H268 C257 0.930 . S
H269 C267 0.929 . S
H270 C285 0.930 . S
H271 C292 0.929 . S
H272 C266 0.930 . S
H273 C265 0.931 . S
H274 C288 0.930 . S
H275 C255 0.930 1_455 S
H276 C261 0.929 . S
H277 C262 0.930 . S
H278 C283 0.930 . S
H279 C258 0.930 1_455 S
H280 C291 0.931 . S
N281 Tb252 2.617 . S
N281 C282 1.379 . S
N281 C285 1.334 . S
C282 N281 1.379 . S
C282 C284 1.416 . S
C282 C290 1.424 . S
C283 H278 0.930 . S
C283 C285 1.390 . S
C283 C286 1.339 . S
C284 C282 1.416 . S
C284 C286 1.416 . S
C284 C317 1.448 . S
C285 H270 0.930 . S
C285 N281 1.334 . S
C285 C283 1.390 . S
C286 C283 1.339 . S
C286 C284 1.416 . S
C286 H293 0.930 . S
N287 Tb252 2.572 . S
N287 C288 1.340 . S
N287 C290 1.361 . S
C288 H274 0.930 . S
C288 N287 1.340 . S
C288 C292 1.407 . S
C289 C290 1.413 . S
C289 C291 1.416 . S
C289 C318 1.427 . S
C290 C282 1.424 . S
C290 N287 1.361 . S
C290 C289 1.413 . S
C291 H280 0.931 . S
C291 C289 1.416 . S
C291 C292 1.332 . S
C292 H271 0.929 . S
C292 C288 1.407 . S
C292 C291 1.332 . S
H293 C286 0.930 . S
H294 C317 0.930 . S
H295 C318 0.929 . S
O296 Tb252 2.465 . S
O296 C316 1.264 . S
O297 Tb252 2.387 . S
O297 C308 1.264 1_554 S
O298 Tb263 2.349 . S
O298 C308 1.243 . S
O299 Tb252 2.428 . S
O299 C316 1.256 . S
O300 Tb252 2.308 . S
O300 C315 1.266 . S
O301 Tb263 2.393 1_554 S
O301 C315 1.248 . S
O302 Tb263 2.465 . S
O302 C327 1.264 . S
O303 Tb263 2.387 1_554 S
O303 C319 1.264 . S
O304 Tb252 2.349 . S
O304 C319 1.243 . S
O305 Tb263 2.428 . S
O305 C327 1.256 . S
O306 Tb263 2.308 . S
O306 C326 1.266 . S
O307 Tb252 2.393 . S
O307 C326 1.248 1_554 S
C308 O297 1.264 1_556 S
C308 O298 1.243 . S
C309 C312 1.399 . S
C309 C314 1.383 . S
C309 C316 1.496 . S
C310 C311 1.399 . S
C310 C314 1.389 . S
C311 C310 1.399 . S
C311 C313 1.380 . S
C311 H328 0.929 . S
C312 C309 1.399 . S
C312 C313 1.392 . S
C312 H329 0.929 . S
C313 C311 1.380 . S
C313 C312 1.392 . S
C313 H330 0.929 . S
C314 C309 1.383 . S
C314 C310 1.389 . S
C314 H331 0.931 . S
C315 O300 1.266 . S
C315 O301 1.248 . S
C316 Tb252 2.802 . S
C316 O296 1.264 . S
C316 O299 1.256 . S
C316 C309 1.496 . S
C317 C284 1.448 . S
C317 H294 0.930 . S
C317 C318 1.328 . S
C318 C289 1.427 . S
C318 H295 0.929 . S
C318 C317 1.328 . S
C319 O303 1.264 . S
C319 O304 1.243 . S
C320 C323 1.399 . S
C320 C324 1.383 . S
C320 C327 1.496 . S
C321 C322 1.399 . S
C321 C324 1.389 . S
C322 C321 1.399 . S
C322 C325 1.380 . S
C322 H332 0.929 . S
C323 C320 1.399 . S
C323 C325 1.392 . S
C323 H333 0.929 . S
C324 C320 1.383 . S
C324 C321 1.389 . S
C324 H334 0.931 . S
C325 C322 1.380 . S
C325 C323 1.392 . S
C325 H335 0.929 . S
C326 O306 1.266 . S
C326 O307 1.248 1_556 S
C327 Tb263 2.802 . S
C327 O302 1.264 . S
C327 O305 1.256 . S
C327 C320 1.496 . S
H328 C311 0.929 . S
H329 C312 0.929 . S
H330 C313 0.929 . S
H331 C314 0.931 . S
H332 C322 0.929 . S
H333 C323 0.929 . S
H334 C324 0.931 . S
H335 C325 0.929 . S
Tb336 N365 2.617 . S
Tb336 N371 2.572 . S
Tb336 O380 2.465 . S
Tb336 O381 2.387 . S
Tb336 O383 2.428 . S
Tb336 O384 2.308 . S
Tb336 O388 2.349 . S
Tb336 O391 2.393 . S
Tb336 C400 2.802 . S
C337 N338 1.379 . S
C337 C340 1.416 . S
C337 C344 1.424 . S
N338 C337 1.379 . S
N338 C341 1.334 . S
N338 Tb347 2.617 . S
C339 C341 1.390 . S
C339 C342 1.339 . S
C339 H359 0.930 1_455 S
C340 C337 1.416 . S
C340 C342 1.416 . S
C340 C346 1.448 . S
C341 N338 1.334 . S
C341 C339 1.390 . S
C341 H352 0.930 . S
C342 C339 1.339 . S
C342 C340 1.416 . S
C342 H363 0.930 1_455 S
C343 C344 1.413 . S
C343 C345 1.427 . S
C343 C349 1.416 . S
C344 C337 1.424 . S
C344 C343 1.413 . S
C344 N348 1.361 . S
C345 C343 1.427 . S
C345 C346 1.328 . S
C345 H360 0.929 . S
C346 C340 1.448 . S
C346 C345 1.328 . S
C346 H361 0.930 . S
Tb347 N338 2.617 . S
Tb347 N348 2.572 . S
Tb347 O382 2.349 . S
Tb347 O385 2.393 . S
Tb347 O386 2.465 . S
Tb347 O387 2.387 . S
Tb347 O389 2.428 . S
Tb347 O390 2.308 . S
Tb347 C411 2.802 . S
N348 C344 1.361 . S
N348 Tb347 2.572 . S
N348 C350 1.340 . S
C349 C343 1.416 . S
C349 C351 1.332 . S
C349 H357 0.931 . S
C350 N348 1.340 . S
C350 C351 1.407 . S
C350 H356 0.930 . S
C351 C349 1.332 . S
C351 C350 1.407 . S
C351 H353 0.929 . S
H352 C341 0.930 . S
H353 C351 0.929 . S
H354 C369 0.930 . S
H355 C376 0.929 . S
H356 C350 0.930 . S
H357 C349 0.931 . S
H358 C372 0.930 . S
H359 C339 0.930 1_655 S
H360 C345 0.929 . S
H361 C346 0.930 . S
H362 C367 0.930 . S
H363 C342 0.930 1_655 S
H364 C375 0.931 1_545 S
N365 Tb336 2.617 . S
N365 C366 1.379 . S
N365 C369 1.334 . S
C366 N365 1.379 . S
C366 C368 1.416 . S
C366 C374 1.424 . S
C367 H362 0.930 . S
C367 C369 1.390 . S
C367 C370 1.339 . S
C368 C366 1.416 . S
C368 C370 1.416 . S
C368 C401 1.448 1_565 S
C369 H354 0.930 . S
C369 N365 1.334 . S
C369 C367 1.390 . S
C370 C367 1.339 . S
C370 C368 1.416 . S
C370 H377 0.930 1_565 S
N371 Tb336 2.572 . S
N371 C372 1.340 . S
N371 C374 1.361 . S
C372 H358 0.930 . S
C372 N371 1.340 . S
C372 C376 1.407 . S
C373 C374 1.413 . S
C373 C375 1.416 . S
C373 C402 1.427 1_565 S
C374 C366 1.424 . S
C374 N371 1.361 . S
C374 C373 1.413 . S
C375 H364 0.931 1_565 S
C375 C373 1.416 . S
C375 C376 1.332 . S
C376 H355 0.929 . S
C376 C372 1.407 . S
C376 C375 1.332 . S
H377 C370 0.930 1_545 S
H378 C401 0.930 . S
H379 C402 0.929 . S
O380 Tb336 2.465 . S
O380 C400 1.264 . S
O381 Tb336 2.387 . S
O381 C392 1.264 . S
O382 Tb347 2.349 . S
O382 C392 1.243 . S
O383 Tb336 2.428 . S
O383 C400 1.256 . S
O384 Tb336 2.308 . S
O384 C399 1.266 . S
O385 Tb347 2.393 . S
O385 C399 1.248 . S
O386 Tb347 2.465 . S
O386 C411 1.264 . S
O387 Tb347 2.387 . S
O387 C403 1.264 . S
O388 Tb336 2.349 . S
O388 C403 1.243 . S
O389 Tb347 2.428 . S
O389 C411 1.256 . S
O390 Tb347 2.308 . S
O390 C410 1.266 . S
O391 Tb336 2.393 . S
O391 C410 1.248 . S
C392 O381 1.264 . S
C392 O382 1.243 . S
C393 C396 1.399 . S
C393 C398 1.383 . S
C393 C400 1.496 . S
C394 C395 1.394 1_554 S
C394 C398 1.389 . S
C395 C394 1.394 1_556 S
C395 C397 1.369 1_556 S
C395 H412 0.944 . S
C396 C393 1.399 . S
C396 C397 1.392 . S
C396 H413 0.929 . S
C397 C395 1.369 1_554 S
C397 C396 1.392 . S
C397 H414 0.929 . S
C398 C393 1.383 . S
C398 C394 1.389 . S
C398 H415 0.931 . S
C399 O384 1.266 . S
C399 O385 1.248 . S
C400 Tb336 2.802 . S
C400 O380 1.264 . S
C400 O383 1.256 . S
C400 C393 1.496 . S
C401 C368 1.448 1_545 S
C401 H378 0.930 . S
C401 C402 1.328 . S
C402 C373 1.427 1_545 S
C402 H379 0.929 . S
C402 C401 1.328 . S
C403 O387 1.264 . S
C403 O388 1.243 . S
C404 C407 1.399 . S
C404 C408 1.383 . S
C404 C411 1.496 . S
C405 C406 1.399 . S
C405 C408 1.389 . S
C406 C405 1.399 . S
C406 C409 1.380 . S
C406 H416 0.929 . S
C407 C404 1.399 . S
C407 C409 1.392 . S
C407 H417 0.929 . S
C408 C404 1.383 . S
C408 C405 1.389 . S
C408 H418 0.931 . S
C409 C406 1.380 . S
C409 C407 1.392 . S
C409 H419 0.929 . S
C410 O390 1.266 . S
C410 O391 1.248 . S
C411 Tb347 2.802 . S
C411 O386 1.264 . S
C411 O389 1.256 . S
C411 C404 1.496 . S
H412 C395 0.944 . S
H413 C396 0.929 . S
H414 C397 0.929 . S
H415 C398 0.931 . S
H416 C406 0.929 . S
H417 C407 0.929 . S
H418 C408 0.931 . S
H419 C409 0.929 . S
Tb420 N449 2.617 . S
Tb420 N455 2.572 . S
Tb420 O464 2.465 . S
Tb420 O465 2.387 . S
Tb420 O467 2.428 . S
Tb420 O468 2.308 . S
Tb420 O472 2.349 . S
Tb420 O475 2.393 . S
Tb420 C484 2.802 . S
C421 N422 1.379 . S
C421 C424 1.416 . S
C421 C428 1.424 . S
N422 C421 1.379 . S
N422 C425 1.334 . S
N422 Tb431 2.617 . S
C423 C425 1.390 . S
C423 C426 1.339 . S
C423 H443 0.930 . S
C424 C421 1.416 . S
C424 C426 1.416 . S
C424 C430 1.448 . S
C425 N422 1.334 . S
C425 C423 1.390 . S
C425 H436 0.930 . S
C426 C423 1.339 . S
C426 C424 1.416 . S
C426 H447 0.930 . S
C427 C428 1.413 . S
C427 C429 1.427 . S
C427 C433 1.416 . S
C428 C421 1.424 . S
C428 C427 1.413 . S
C428 N432 1.361 . S
C429 C427 1.427 . S
C429 C430 1.328 . S
C429 H444 0.929 . S
C430 C424 1.448 . S
C430 C429 1.328 . S
C430 H445 0.930 . S
Tb431 N422 2.617 . S
Tb431 N432 2.572 . S
Tb431 O466 2.349 . S
Tb431 O469 2.393 . S
Tb431 O470 2.465 . S
Tb431 O471 2.387 . S
Tb431 O473 2.428 . S
Tb431 O474 2.308 . S
Tb431 C495 2.802 . S
N432 C428 1.361 . S
N432 Tb431 2.572 . S
N432 C434 1.340 . S
C433 C427 1.416 . S
C433 C435 1.332 . S
C433 H441 0.931 . S
C434 N432 1.340 . S
C434 C435 1.407 . S
C434 H440 0.930 . S
C435 C433 1.332 . S
C435 C434 1.407 . S
C435 H437 0.929 . S
H436 C425 0.930 . S
H437 C435 0.929 . S
H438 C453 0.930 . S
H439 C460 0.929 . S
H440 C434 0.930 . S
H441 C433 0.931 . S
H442 C456 0.930 . S
H443 C423 0.930 . S
H444 C429 0.929 . S
H445 C430 0.930 . S
H446 C451 0.930 . S
H447 C426 0.930 . S
H448 C459 0.931 1_565 S
N449 Tb420 2.617 . S
N449 C450 1.379 . S
N449 C453 1.334 . S
C450 N449 1.379 . S
C450 C452 1.416 . S
C450 C458 1.424 . S
C451 H446 0.930 . S
C451 C453 1.390 . S
C451 C454 1.339 . S
C452 C450 1.416 . S
C452 C454 1.416 . S
C452 C485 1.448 1_545 S
C453 H438 0.930 . S
C453 N449 1.334 . S
C453 C451 1.390 . S
C454 C451 1.339 . S
C454 C452 1.416 . S
C454 H461 0.930 1_545 S
N455 Tb420 2.572 . S
N455 C456 1.340 . S
N455 C458 1.361 . S
C456 H442 0.930 . S
C456 N455 1.340 . S
C456 C460 1.407 . S
C457 C458 1.413 . S
C457 C459 1.416 . S
C457 C486 1.427 1_545 S
C458 C450 1.424 . S
C458 N455 1.361 . S
C458 C457 1.413 . S
C459 H448 0.931 1_545 S
C459 C457 1.416 . S
C459 C460 1.332 . S
C460 H439 0.929 . S
C460 C456 1.407 . S
C460 C459 1.332 . S
H461 C454 0.930 1_565 S
H462 C485 0.930 . S
H463 C486 0.929 . S
O464 Tb420 2.465 . S
O464 C484 1.264 . S
O465 Tb420 2.387 . S
O465 C476 1.264 . S
O466 Tb431 2.349 . S
O466 C476 1.243 . S
O467 Tb420 2.428 . S
O467 C484 1.256 . S
O468 Tb420 2.308 . S
O468 C483 1.266 . S
O469 Tb431 2.393 . S
O469 C483 1.248 . S
O470 Tb431 2.465 . S
O470 C495 1.264 . S
O471 Tb431 2.387 . S
O471 C487 1.264 . S
O472 Tb420 2.349 . S
O472 C487 1.243 . S
O473 Tb431 2.428 . S
O473 C495 1.256 . S
O474 Tb431 2.308 . S
O474 C494 1.266 . S
O475 Tb420 2.393 . S
O475 C494 1.248 . S
C476 O465 1.264 . S
C476 O466 1.243 . S
C477 C480 1.399 . S
C477 C482 1.383 . S
C477 C484 1.496 . S
C478 C479 1.399 . S
C478 C482 1.389 1_554 S
C479 C478 1.399 . S
C479 C481 1.380 1_554 S
C479 H496 0.929 . S
C480 C477 1.399 . S
C480 C481 1.392 . S
C480 H497 0.929 . S
C481 C479 1.380 1_556 S
C481 C480 1.392 . S
C481 H498 0.929 . S
C482 C477 1.383 . S
C482 C478 1.389 1_556 S
C482 H499 0.931 . S
C483 O468 1.266 . S
C483 O469 1.248 . S
C484 Tb420 2.802 . S
C484 O464 1.264 . S
C484 O467 1.256 . S
C484 C477 1.496 . S
C485 C452 1.448 1_565 S
C485 H462 0.930 . S
C485 C486 1.328 . S
C486 C457 1.427 1_565 S
C486 H463 0.929 . S
C486 C485 1.328 . S
C487 O471 1.264 . S
C487 O472 1.243 . S
C488 C491 1.399 . S
C488 C492 1.383 . S
C488 C495 1.496 . S
C489 C490 1.399 . S
C489 C492 1.389 . S
C490 C489 1.399 . S
C490 C493 1.380 . S
C490 H500 0.929 . S
C491 C488 1.399 . S
C491 C493 1.392 . S
C491 H501 0.929 . S
C492 C488 1.383 . S
C492 C489 1.389 . S
C492 H502 0.931 . S
C493 C490 1.380 . S
C493 C491 1.392 . S
C493 H503 0.929 . S
C494 O474 1.266 . S
C494 O475 1.248 . S
C495 Tb431 2.802 . S
C495 O470 1.264 . S
C495 O473 1.256 . S
C495 C488 1.496 . S
H496 C479 0.929 . S
H497 C480 0.929 . S
H498 C481 0.929 . S
H499 C482 0.931 . S
H500 C490 0.929 . S
H501 C491 0.929 . S
H502 C492 0.931 . S
H503 C493 0.929 . S
H504 C512 0.950 . S
H505 C517 0.950 . S
H506 C514 0.950 . S
H507 C516 0.950 . S
H508 C518 0.950 . S
H509 C520 0.950 . S
H510 C522 0.950 . S
H511 C523 0.950 . S
C512 H504 0.950 . S
C512 C513 1.386 . S
C512 C514 1.391 . S
C513 C512 1.386 . S
C513 C517 1.393 . S
C514 H506 0.950 . S
C514 C512 1.391 . S
C514 C515 1.400 . S
C515 C514 1.400 . S
C515 C516 1.398 . S
C515 C521 1.491 . S
C516 H507 0.950 . S
C516 C515 1.398 . S
C516 C517 1.391 . S
C517 H505 0.950 . S
C517 C513 1.393 . S
C517 C516 1.391 . S
C518 H508 0.950 . S
C518 C519 1.386 . S
C518 C520 1.391 . S
C519 C518 1.386 . S
C519 C523 1.393 . S
C520 H509 0.950 . S
C520 C518 1.391 . S
C520 C521 1.400 . S
C521 C515 1.491 . S
C521 C520 1.400 . S
C521 C522 1.398 . S
C522 H510 0.950 . S
C522 C521 1.398 . S
C522 C523 1.391 . S
C523 H511 0.950 . S
C523 C519 1.393 . S
C523 C522 1.391 . S
H524 C532 0.950 . S
H525 C537 0.950 . S
H526 C534 0.950 . S
H527 C536 0.950 . S
H528 C538 0.950 . S
H529 C540 0.950 . S
H530 C542 0.950 . S
H531 C543 0.950 . S
C532 H524 0.950 . S
C532 C533 1.386 . S
C532 C534 1.391 . S
C533 C532 1.386 . S
C533 C537 1.393 . S
C534 H526 0.950 . S
C534 C532 1.391 . S
C534 C535 1.400 . S
C535 C534 1.400 . S
C535 C536 1.398 . S
C535 C541 1.491 1_455 S
C536 H527 0.950 . S
C536 C535 1.398 . S
C536 C537 1.391 . S
C537 H525 0.950 . S
C537 C533 1.393 . S
C537 C536 1.391 . S
C538 H528 0.950 . S
C538 C539 1.386 . S
C538 C540 1.391 . S
C539 C538 1.386 . S
C539 C543 1.393 . S
C540 H529 0.950 . S
C540 C538 1.391 . S
C540 C541 1.400 . S
C541 C535 1.491 1_655 S
C541 C540 1.400 . S
C541 C542 1.398 . S
C542 H530 0.950 . S
C542 C541 1.398 . S
C542 C543 1.391 . S
C543 H531 0.950 . S
C543 C539 1.393 . S
C543 C542 1.391 . S
H544 C552 0.950 . S
H545 C557 0.950 . S
H546 C554 0.950 . S
H547 C556 0.950 . S
H548 C558 0.950 . S
H549 C560 0.950 . S
H550 C562 0.950 . S
H551 C563 0.950 . S
C552 H544 0.950 . S
C552 C553 1.386 . S
C552 C554 1.391 . S
C553 C552 1.386 . S
C553 C557 1.393 . S
C554 H546 0.950 . S
C554 C552 1.391 . S
C554 C555 1.400 . S
C555 C554 1.400 . S
C555 C556 1.398 . S
C555 C561 1.491 1_545 S
C556 H547 0.950 . S
C556 C555 1.398 . S
C556 C557 1.391 . S
C557 H545 0.950 . S
C557 C553 1.393 . S
C557 C556 1.391 . S
C558 H548 0.950 . S
C558 C559 1.386 . S
C558 C560 1.391 . S
C559 C558 1.386 . S
C559 C563 1.393 . S
C560 H549 0.950 . S
C560 C558 1.391 . S
C560 C561 1.400 . S
C561 C555 1.491 1_565 S
C561 C560 1.400 . S
C561 C562 1.398 . S
C562 H550 0.950 . S
C562 C561 1.398 . S
C562 C563 1.391 . S
C563 H551 0.950 . S
C563 C559 1.393 . S
C563 C562 1.391 . S
H564 C572 0.950 . S
H565 C577 0.950 . S
H566 C574 0.950 . S
H567 C576 0.950 . S
H568 C578 0.950 . S
H569 C580 0.950 . S
H570 C582 0.950 . S
H571 C583 0.950 . S
C572 H564 0.950 . S
C572 C573 1.386 . S
C572 C574 1.391 . S
C573 C572 1.386 . S
C573 C577 1.393 . S
C574 H566 0.950 . S
C574 C572 1.391 . S
C574 C575 1.400 . S
C575 C574 1.400 . S
C575 C576 1.398 . S
C575 C581 1.491 . S
C576 H567 0.950 . S
C576 C575 1.398 . S
C576 C577 1.391 . S
C577 H565 0.950 . S
C577 C573 1.393 . S
C577 C576 1.391 . S
C578 H568 0.950 . S
C578 C579 1.386 . S
C578 C580 1.391 . S
C579 C578 1.386 . S
C579 C583 1.393 . S
C580 H569 0.950 . S
C580 C578 1.391 . S
C580 C581 1.400 . S
C581 C575 1.491 . S
C581 C580 1.400 . S
C581 C582 1.398 . S
C582 H570 0.950 . S
C582 C581 1.398 . S
C582 C583 1.391 . S
C583 H571 0.950 . S
C583 C579 1.393 . S
C583 C582 1.391 . S
H584 C592 0.950 . S
H585 C597 0.950 . S
H586 C594 0.950 . S
H587 C596 0.950 . S
H588 C598 0.950 . S
H589 C600 0.950 . S
H590 C602 0.950 . S
H591 C603 0.950 . S
C592 H584 0.950 . S
C592 C593 1.386 . S
C592 C594 1.391 . S
C593 C592 1.386 . S
C593 C597 1.393 . S
C594 H586 0.950 . S
C594 C592 1.391 . S
C594 C595 1.400 . S
C595 C594 1.400 . S
C595 C596 1.398 . S
C595 C601 1.491 1_455 S
C596 H587 0.950 . S
C596 C595 1.398 . S
C596 C597 1.391 . S
C597 H585 0.950 . S
C597 C593 1.393 . S
C597 C596 1.391 . S
C598 H588 0.950 . S
C598 C599 1.386 . S
C598 C600 1.391 . S
C599 C598 1.386 . S
C599 C603 1.393 . S
C600 H589 0.950 . S
C600 C598 1.391 . S
C600 C601 1.400 . S
C601 C595 1.491 1_655 S
C601 C600 1.400 . S
C601 C602 1.398 . S
C602 H590 0.950 . S
C602 C601 1.398 . S
C602 C603 1.391 . S
C603 H591 0.950 . S
C603 C599 1.393 . S
C603 C602 1.391 . S
H604 C612 0.950 . S
H605 C617 0.950 . S
H606 C614 0.950 1_565 S
H607 C616 0.950 . S
H608 C618 0.950 . S
H609 C620 0.950 1_545 S
H610 C622 0.950 . S
H611 C623 0.950 . S
C612 H604 0.950 . S
C612 C613 1.386 . S
C612 C614 1.391 . S
C613 C612 1.386 . S
C613 C617 1.393 . S
C614 H606 0.950 1_545 S
C614 C612 1.391 . S
C614 C615 1.400 . S
C615 C614 1.400 . S
C615 C616 1.398 . S
C615 C621 1.491 1_545 S
C616 H607 0.950 . S
C616 C615 1.398 . S
C616 C617 1.391 . S
C617 H605 0.950 . S
C617 C613 1.393 . S
C617 C616 1.391 . S
C618 H608 0.950 . S
C618 C619 1.386 . S
C618 C620 1.391 . S
C619 C618 1.386 . S
C619 C623 1.393 . S
C620 H609 0.950 1_565 S
C620 C618 1.391 . S
C620 C621 1.400 . S
C621 C615 1.491 1_565 S
C621 C620 1.400 . S
C621 C622 1.398 . S
C622 H610 0.950 . S
C622 C621 1.398 . S
C622 C623 1.391 . S
C623 H611 0.950 . S
C623 C619 1.393 . S
C623 C622 1.391 . S
H624 C632 0.950 . S
H625 C637 0.950 . S
H626 C634 0.950 . S
H627 C636 0.950 . S
H628 C638 0.950 . S
H629 C640 0.950 . S
H630 C642 0.950 . S
H631 C643 0.950 . S
C632 H624 0.950 . S
C632 C633 1.386 . S
C632 C634 1.391 . S
C633 C632 1.386 . S
C633 C637 1.393 . S
C634 H626 0.950 . S
C634 C632 1.391 . S
C634 C635 1.400 . S
C635 C634 1.400 . S
C635 C636 1.398 . S
C635 C641 1.491 . S
C636 H627 0.950 . S
C636 C635 1.398 . S
C636 C637 1.391 . S
C637 H625 0.950 . S
C637 C633 1.393 . S
C637 C636 1.391 . S
C638 H628 0.950 . S
C638 C639 1.386 . S
C638 C640 1.391 . S
C639 C638 1.386 . S
C639 C643 1.393 . S
C640 H629 0.950 . S
C640 C638 1.391 . S
C640 C641 1.400 . S
C641 C635 1.491 . S
C641 C640 1.400 . S
C641 C642 1.398 . S
C642 H630 0.950 . S
C642 C641 1.398 . S
C642 C643 1.391 . S
C643 H631 0.950 . S
C643 C639 1.393 . S
C643 C642 1.391 . S
H644 C652 0.950 . S
H645 C657 0.950 . S
H646 C654 0.950 . S
H647 C656 0.950 . S
H648 C658 0.950 . S
H649 C660 0.950 . S
H650 C662 0.950 . S
H651 C663 0.950 . S
C652 H644 0.950 . S
C652 C653 1.386 . S
C652 C654 1.391 . S
C653 C652 1.386 . S
C653 C657 1.393 . S
C654 H646 0.950 . S
C654 C652 1.391 . S
C654 C655 1.400 . S
C655 C654 1.400 . S
C655 C656 1.398 . S
C655 C661 1.491 . S
C656 H647 0.950 . S
C656 C655 1.398 . S
C656 C657 1.391 . S
C657 H645 0.950 . S
C657 C653 1.393 . S
C657 C656 1.391 . S
C658 H648 0.950 . S
C658 C659 1.386 . S
C658 C660 1.391 . S
C659 C658 1.386 . S
C659 C663 1.393 . S
C660 H649 0.950 . S
C660 C658 1.391 . S
C660 C661 1.400 . S
C661 C655 1.491 . S
C661 C660 1.400 . S
C661 C662 1.398 . S
C662 H650 0.950 . S
C662 C661 1.398 . S
C662 C663 1.391 . S
C663 H651 0.950 . S
C663 C659 1.393 . S
C663 C662 1.391 . S
H664 C672 0.950 . S
H665 C677 0.950 . S
H666 C674 0.950 . S
H667 C676 0.950 . S
H668 C678 0.950 . S
H669 C680 0.950 . S
H670 C682 0.950 . S
H671 C683 0.950 . S
C672 H664 0.950 . S
C672 C673 1.386 . S
C672 C674 1.391 . S
C673 C672 1.386 . S
C673 C677 1.393 . S
C674 H666 0.950 . S
C674 C672 1.391 . S
C674 C675 1.400 . S
C675 C674 1.400 . S
C675 C676 1.398 . S
C675 C681 1.491 . S
C676 H667 0.950 . S
C676 C675 1.398 . S
C676 C677 1.391 . S
C677 H665 0.950 . S
C677 C673 1.393 . S
C677 C676 1.391 . S
C678 H668 0.950 . S
C678 C679 1.386 . S
C678 C680 1.391 . S
C679 C678 1.386 . S
C679 C683 1.393 . S
C680 H669 0.950 . S
C680 C678 1.391 . S
C680 C681 1.400 . S
C681 C675 1.491 . S
C681 C680 1.400 . S
C681 C682 1.398 . S
C682 H670 0.950 . S
C682 C681 1.398 . S
C682 C683 1.391 . S
C683 H671 0.950 . S
C683 C679 1.393 . S
C683 C682 1.391 . S
H684 C692 0.950 . S
H685 C697 0.950 . S
H686 C694 0.950 . S
H687 C696 0.950 . S
H688 C698 0.950 . S
H689 C700 0.950 . S
H690 C702 0.950 . S
H691 C703 0.950 . S
C692 H684 0.950 . S
C692 C693 1.386 . S
C692 C694 1.391 . S
C693 C692 1.386 . S
C693 C697 1.393 . S
C694 H686 0.950 . S
C694 C692 1.391 . S
C694 C695 1.400 . S
C695 C694 1.400 . S
C695 C696 1.398 . S
C695 C701 1.491 . S
C696 H687 0.950 . S
C696 C695 1.398 . S
C696 C697 1.391 . S
C697 H685 0.950 . S
C697 C693 1.393 . S
C697 C696 1.391 . S
C698 H688 0.950 . S
C698 C699 1.386 . S
C698 C700 1.391 . S
C699 C698 1.386 . S
C699 C703 1.393 . S
C700 H689 0.950 . S
C700 C698 1.391 . S
C700 C701 1.400 . S
C701 C695 1.491 . S
C701 C700 1.400 . S
C701 C702 1.398 . S
C702 H690 0.950 . S
C702 C701 1.398 . S
C702 C703 1.391 . S
C703 H691 0.950 . S
C703 C699 1.393 . S
C703 C702 1.391 . S
H704 C712 0.950 . S
H705 C717 0.950 . S
H706 C714 0.950 . S
H707 C716 0.950 . S
H708 C718 0.950 . S
H709 C720 0.950 . S
H710 C722 0.950 . S
H711 C723 0.950 . S
C712 H704 0.950 . S
C712 C713 1.386 . S
C712 C714 1.391 . S
C713 C712 1.386 . S
C713 C717 1.393 . S
C714 H706 0.950 . S
C714 C712 1.391 . S
C714 C715 1.400 . S
C715 C714 1.400 . S
C715 C716 1.398 . S
C715 C721 1.491 . S
C716 H707 0.950 . S
C716 C715 1.398 . S
C716 C717 1.391 . S
C717 H705 0.950 . S
C717 C713 1.393 . S
C717 C716 1.391 . S
C718 H708 0.950 . S
C718 C719 1.386 . S
C718 C720 1.391 . S
C719 C718 1.386 . S
C719 C723 1.393 . S
C720 H709 0.950 . S
C720 C718 1.391 . S
C720 C721 1.400 . S
C721 C715 1.491 . S
C721 C720 1.400 . S
C721 C722 1.398 . S
C722 H710 0.950 . S
C722 C721 1.398 . S
C722 C723 1.391 . S
C723 H711 0.950 . S
C723 C719 1.393 . S
C723 C722 1.391 . S
H724 C732 0.950 . S
H725 C737 0.950 . S
H726 C734 0.950 . S
H727 C736 0.950 . S
H728 C738 0.950 . S
H729 C740 0.950 . S
H730 C742 0.950 . S
H731 C743 0.950 . S
C732 H724 0.950 . S
C732 C733 1.386 . S
C732 C734 1.391 . S
C733 C732 1.386 . S
C733 C737 1.393 . S
C734 H726 0.950 . S
C734 C732 1.391 . S
C734 C735 1.400 . S
C735 C734 1.400 . S
C735 C736 1.398 . S
C735 C741 1.491 . S
C736 H727 0.950 . S
C736 C735 1.398 . S
C736 C737 1.391 . S
C737 H725 0.950 . S
C737 C733 1.393 . S
C737 C736 1.391 . S
C738 H728 0.950 . S
C738 C739 1.386 . S
C738 C740 1.391 . S
C739 C738 1.386 . S
C739 C743 1.393 . S
C740 H729 0.950 . S
C740 C738 1.391 . S
C740 C741 1.400 . S
C741 C735 1.491 . S
C741 C740 1.400 . S
C741 C742 1.398 . S
C742 H730 0.950 . S
C742 C741 1.398 . S
C742 C743 1.391 . S
C743 H731 0.950 . S
C743 C739 1.393 . S
C743 C742 1.391 . S
H744 C752 0.950 . S
H745 C757 0.950 . S
H746 C754 0.950 . S
H747 C756 0.950 . S
H748 C758 0.950 . S
H749 C760 0.950 . S
H750 C762 0.950 . S
H751 C763 0.950 . S
C752 H744 0.950 . S
C752 C753 1.386 . S
C752 C754 1.391 . S
C753 C752 1.386 . S
C753 C757 1.393 . S
C754 H746 0.950 . S
C754 C752 1.391 . S
C754 C755 1.400 . S
C755 C754 1.400 . S
C755 C756 1.398 . S
C755 C761 1.491 . S
C756 H747 0.950 . S
C756 C755 1.398 . S
C756 C757 1.391 . S
C757 H745 0.950 . S
C757 C753 1.393 . S
C757 C756 1.391 . S
C758 H748 0.950 . S
C758 C759 1.386 . S
C758 C760 1.391 . S
C759 C758 1.386 . S
C759 C763 1.393 . S
C760 H749 0.950 . S
C760 C758 1.391 . S
C760 C761 1.400 . S
C761 C755 1.491 . S
C761 C760 1.400 . S
C761 C762 1.398 . S
C762 H750 0.950 . S
C762 C761 1.398 . S
C762 C763 1.391 . S
C763 H751 0.950 . S
C763 C759 1.393 . S
C763 C762 1.391 . S
H764 C772 0.950 . S
H765 C777 0.950 . S
H766 C774 0.950 . S
H767 C776 0.950 . S
H768 C778 0.950 . S
H769 C780 0.950 . S
H770 C782 0.950 . S
H771 C783 0.950 . S
C772 H764 0.950 . S
C772 C773 1.386 . S
C772 C774 1.391 . S
C773 C772 1.386 . S
C773 C777 1.393 . S
C774 H766 0.950 . S
C774 C772 1.391 . S
C774 C775 1.400 . S
C775 C774 1.400 . S
C775 C776 1.398 . S
C775 C781 1.491 . S
C776 H767 0.950 . S
C776 C775 1.398 . S
C776 C777 1.391 . S
C777 H765 0.950 . S
C777 C773 1.393 . S
C777 C776 1.391 . S
C778 H768 0.950 . S
C778 C779 1.386 . S
C778 C780 1.391 . S
C779 C778 1.386 . S
C779 C783 1.393 . S
C780 H769 0.950 . S
C780 C778 1.391 . S
C780 C781 1.400 . S
C781 C775 1.491 . S
C781 C780 1.400 . S
C781 C782 1.398 . S
C782 H770 0.950 . S
C782 C781 1.398 . S
C782 C783 1.391 . S
C783 H771 0.950 . S
C783 C779 1.393 . S
C783 C782 1.391 . S
H784 C792 0.950 . S
H785 C797 0.950 . S
H786 C794 0.950 . S
H787 C796 0.950 . S
H788 C798 0.950 . S
H789 C800 0.950 . S
H790 C802 0.950 . S
H791 C803 0.950 . S
C792 H784 0.950 . S
C792 C793 1.386 . S
C792 C794 1.391 . S
C793 C792 1.386 . S
C793 C797 1.393 . S
C794 H786 0.950 . S
C794 C792 1.391 . S
C794 C795 1.400 . S
C795 C794 1.400 . S
C795 C796 1.398 . S
C795 C801 1.491 . S
C796 H787 0.950 . S
C796 C795 1.398 . S
C796 C797 1.391 . S
C797 H785 0.950 . S
C797 C793 1.393 . S
C797 C796 1.391 . S
C798 H788 0.950 . S
C798 C799 1.386 . S
C798 C800 1.391 . S
C799 C798 1.386 . S
C799 C803 1.393 . S
C800 H789 0.950 . S
C800 C798 1.391 . S
C800 C801 1.400 . S
C801 C795 1.491 . S
C801 C800 1.400 . S
C801 C802 1.398 . S
C802 H790 0.950 . S
C802 C801 1.398 . S
C802 C803 1.391 . S
C803 H791 0.950 . S
C803 C799 1.393 . S
C803 C802 1.391 . S
H804 C812 0.950 . S
H805 C817 0.950 . S
H806 C814 0.950 . S
H807 C816 0.950 . S
H808 C818 0.950 . S
H809 C820 0.950 . S
H810 C822 0.950 . S
H811 C823 0.950 . S
C812 H804 0.950 . S
C812 C813 1.386 . S
C812 C814 1.391 . S
C813 C812 1.386 . S
C813 C817 1.393 . S
C814 H806 0.950 . S
C814 C812 1.391 . S
C814 C815 1.400 . S
C815 C814 1.400 . S
C815 C816 1.398 . S
C815 C821 1.491 . S
C816 H807 0.950 . S
C816 C815 1.398 . S
C816 C817 1.391 . S
C817 H805 0.950 . S
C817 C813 1.393 . S
C817 C816 1.391 . S
C818 H808 0.950 . S
C818 C819 1.386 . S
C818 C820 1.391 . S
C819 C818 1.386 . S
C819 C823 1.393 . S
C820 H809 0.950 . S
C820 C818 1.391 . S
C820 C821 1.400 . S
C821 C815 1.491 . S
C821 C820 1.400 . S
C821 C822 1.398 . S
C822 H810 0.950 . S
C822 C821 1.398 . S
C822 C823 1.391 . S
C823 H811 0.950 . S
C823 C819 1.393 . S
C823 C822 1.391 . S
H824 C832 0.950 . S
H825 C837 0.950 . S
H826 C834 0.950 . S
H827 C836 0.950 . S
H828 C838 0.950 . S
H829 C840 0.950 . S
H830 C842 0.950 . S
H831 C843 0.950 . S
C832 H824 0.950 . S
C832 C833 1.386 . S
C832 C834 1.391 . S
C833 C832 1.386 . S
C833 C837 1.393 . S
C834 H826 0.950 . S
C834 C832 1.391 . S
C834 C835 1.400 . S
C835 C834 1.400 . S
C835 C836 1.398 . S
C835 C841 1.491 . S
C836 H827 0.950 . S
C836 C835 1.398 . S
C836 C837 1.391 . S
C837 H825 0.950 . S
C837 C833 1.393 . S
C837 C836 1.391 . S
C838 H828 0.950 . S
C838 C839 1.386 . S
C838 C840 1.391 . S
C839 C838 1.386 . S
C839 C843 1.393 . S
C840 H829 0.950 . S
C840 C838 1.391 . S
C840 C841 1.400 . S
C841 C835 1.491 . S
C841 C840 1.400 . S
C841 C842 1.398 . S
C842 H830 0.950 . S
C842 C841 1.398 . S
C842 C843 1.391 . S
C843 H831 0.950 . S
C843 C839 1.393 . S
C843 C842 1.391 . S
H844 C852 0.950 . S
H845 C857 0.950 . S
H846 C854 0.950 . S
H847 C856 0.950 . S
H848 C858 0.950 . S
H849 C860 0.950 . S
H850 C862 0.950 . S
H851 C863 0.950 . S
C852 H844 0.950 . S
C852 C853 1.386 . S
C852 C854 1.391 . S
C853 C852 1.386 . S
C853 C857 1.393 . S
C854 H846 0.950 . S
C854 C852 1.391 . S
C854 C855 1.400 . S
C855 C854 1.400 . S
C855 C856 1.398 . S
C855 C861 1.491 . S
C856 H847 0.950 . S
C856 C855 1.398 . S
C856 C857 1.391 . S
C857 H845 0.950 . S
C857 C853 1.393 . S
C857 C856 1.391 . S
C858 H848 0.950 . S
C858 C859 1.386 . S
C858 C860 1.391 . S
C859 C858 1.386 . S
C859 C863 1.393 . S
C860 H849 0.950 . S
C860 C858 1.391 . S
C860 C861 1.400 . S
C861 C855 1.491 . S
C861 C860 1.400 . S
C861 C862 1.398 . S
C862 H850 0.950 . S
C862 C861 1.398 . S
C862 C863 1.391 . S
C863 H851 0.950 . S
C863 C859 1.393 . S
C863 C862 1.391 . S
C513 C483 1.364 . S
C519 C63 1.367 . S
C533 C56 1.318 . S
C539 C140 1.314 . S
C553 C147 1.361 . S
C559 C231 1.369 . S
C573 C224 1.308 . S
C579 C308 1.334 . S
C593 C399 1.365 . S
C599 C315 1.367 . S
C613 C476 1.327 . S
C619 C392 1.308 . S
C633 C58 1.104 . S
C639 C69 1.104 . S
C653 C153 1.089 1_556 S
C659 C142 1.089 . S
C673 C226 1.118 . S
C679 C237 1.118 1_554 S
C693 C321 1.132 . S
C699 C310 1.132 . S
C713 C405 1.121 . S
C719 C394 1.121 1_556 S
C733 C489 1.110 . S
C739 C478 1.110 . S
C753 C74 1.625 . S
C759 C403 1.632 . S
C773 C151 1.627 . S
C779 C494 1.622 . S
C793 C67 1.629 . S
C799 C242 1.620 . S
C813 C158 1.619 . S
C819 C319 1.631 . S
C833 C410 1.629 . S
C839 C235 1.627 . S
C853 C326 1.620 . S
C859 C487 1.633 . S
