# Generated by pormake.
# Topology wmb, (6)-cn, num edge types: 1
# Building blocks:
#     Node 0, Type 0, BuildingBlock: IZENUY_clean_sbu_0, # of connection points: 6
#     Node 1, Type 0, BuildingBlock: IZENUY_clean_sbu_0, # of connection points: 6
#     Node 2, Type 0, BuildingBlock: IZENUY_clean_sbu_0, # of connection points: 6
#     Node 3, Type 0, BuildingBlock: IZENUY_clean_sbu_0, # of connection points: 6
#     Node 4, Type 0, BuildingBlock: IZENUY_clean_sbu_0, # of connection points: 6
#     Node 5, Type 0, BuildingBlock: IZENUY_clean_sbu_0, # of connection points: 6
#     Edge 6, Type (0, 0), BuildingBlock: TEMPAE_clean_linker_10, # of connection points: 2
#     Edge 7, Type (0, 0), BuildingBlock: TEMPAE_clean_linker_10, # of connection points: 2
#     Edge 8, Type (0, 0), BuildingBlock: TEMPAE_clean_linker_10, # of connection points: 2
#     Edge 9, Type (0, 0), BuildingBlock: TEMPAE_clean_linker_10, # of connection points: 2
#     Edge 10, Type (0, 0), BuildingBlock: TEMPAE_clean_linker_10, # of connection points: 2
#     Edge 11, Type (0, 0), BuildingBlock: TEMPAE_clean_linker_10, # of connection points: 2
#     Edge 12, Type (0, 0), BuildingBlock: TEMPAE_clean_linker_10, # of connection points: 2
#     Edge 13, Type (0, 0), BuildingBlock: TEMPAE_clean_linker_10, # of connection points: 2
#     Edge 14, Type (0, 0), BuildingBlock: TEMPAE_clean_linker_10, # of connection points: 2
#     Edge 15, Type (0, 0), BuildingBlock: TEMPAE_clean_linker_10, # of connection points: 2
#     Edge 16, Type (0, 0), BuildingBlock: TEMPAE_clean_linker_10, # of connection points: 2
#     Edge 17, Type (0, 0), BuildingBlock: TEMPAE_clean_linker_10, # of connection points: 2
#     Edge 18, Type (0, 0), BuildingBlock: TEMPAE_clean_linker_10, # of connection points: 2
#     Edge 19, Type (0, 0), BuildingBlock: TEMPAE_clean_linker_10, # of connection points: 2
#     Edge 20, Type (0, 0), BuildingBlock: TEMPAE_clean_linker_10, # of connection points: 2
#     Edge 21, Type (0, 0), BuildingBlock: TEMPAE_clean_linker_10, # of connection points: 2
#     Edge 22, Type (0, 0), BuildingBlock: TEMPAE_clean_linker_10, # of connection points: 2
#     Edge 23, Type (0, 0), BuildingBlock: TEMPAE_clean_linker_10, # of connection points: 2
# Relax obj value: 0.258
# Max RMSD: 0.258
# Mean RMSD: 0.258
data_MOF--net-wmb--node1-IZENUY_clean_sbu_0--edge1-TEMPAE_clean_linker_10
_symmetry_space_group_name_H-M    P1
_symmetry_Int_Tables_number       1
_symmetry_cell_setting            triclinic
loop_
_symmetry_equiv_pos_as_xyz
'x, y, z'
_cell_length_a     27.22186
_cell_length_b     27.287624
_cell_length_c     42.651771
_cell_angle_alpha  89.848581
_cell_angle_beta   89.961993
_cell_angle_gamma 119.87353
loop_
_atom_site_label
_atom_site_type_symbol
_atom_site_fract_x
_atom_site_fract_y
_atom_site_fract_z
_atom_type_partial_charge
Fe0 Fe 0.48214 0.16814 0.04711 0.0
Fe1 Fe 0.56711 0.15114 0.00835 0.0
O2 O 0.54244 0.19649 0.02212 0.0
Fe3 Fe 0.57803 0.2693 0.01163 0.0
O4 O 0.56843 0.29322 0.05035 0.0
O5 O 0.52361 0.21498 0.07839 0.0
O6 O 0.49552 0.11521 0.06487 0.0
C7 C 0.54209 0.11685 0.06939 0.0
C8 C 0.46843 0.24887 0.01157 0.0
O9 O 0.57978 0.13561 0.04833 0.0
C10 C 0.57658 0.21227 0.9552 0.0
O11 O 0.43683 0.1183 0.01728 0.0
O12 O 0.49674 0.08844 0.00697 0.0
O13 O 0.51365 0.26543 0.9962 0.0
O14 O 0.4575 0.21639 0.03484 0.0
C15 C 0.66996 0.25347 0.01831 0.0
O16 O 0.5566 0.16416 0.96791 0.0
O17 O 0.59375 0.25673 0.97152 0.0
C18 C 0.44775 0.08266 0.00494 0.0
O19 O 0.64188 0.20491 0.00651 0.0
O20 O 0.64618 0.28124 0.02593 0.0
C21 C 0.55477 0.26796 0.07666 0.0
Fe22 Fe 0.85679 0.41072 0.67874 0.0
Fe23 Fe 0.74185 0.30185 0.67482 0.0
O24 O 0.81248 0.33872 0.68872 0.0
Fe25 Fe 0.83804 0.30362 0.71298 0.0
O26 O 0.85292 0.35308 0.74435 0.0
O27 O 0.89612 0.43061 0.71615 0.0
O28 O 0.80859 0.43055 0.69629 0.0
C29 C 0.75823 0.41129 0.68731 0.0
C30 C 0.93313 0.37412 0.67415 0.0
O31 O 0.73264 0.36424 0.67328 0.0
C32 C 0.77504 0.21791 0.67302 0.0
O33 O 0.82552 0.40345 0.63958 0.0
O34 O 0.76585 0.31215 0.63439 0.0
O35 O 0.91163 0.34342 0.69829 0.0
O36 O 0.90796 0.3962 0.66042 0.0
C37 C 0.72812 0.26735 0.73601 0.0
O38 O 0.73741 0.23234 0.67373 0.0
O39 O 0.82402 0.25047 0.68352 0.0
C40 C 0.79763 0.36028 0.62251 0.0
O41 O 0.71453 0.29038 0.71459 0.0
O42 O 0.76953 0.25887 0.73237 0.0
C43 C 0.88453 0.40577 0.74255 0.0
Fe44 Fe 0.72508 0.53942 0.38084 0.0
Fe45 Fe 0.61779 0.45715 0.34482 0.0
O46 O 0.68899 0.48106 0.35531 0.0
Fe47 Fe 0.72399 0.44581 0.34076 0.0
O48 O 0.73266 0.42654 0.38024 0.0
O49 O 0.76754 0.51206 0.39957 0.0
O50 O 0.67371 0.50404 0.4116 0.0
C51 C 0.62127 0.48541 0.40926 0.0
C52 C 0.81133 0.56157 0.3409 0.0
O53 O 0.59776 0.47526 0.38257 0.0
C54 C 0.66843 0.44815 0.28825 0.0
O55 O 0.68803 0.57667 0.36706 0.0
O56 O 0.63616 0.52481 0.32783 0.0
O57 O 0.79505 0.50917 0.34065 0.0
O58 O 0.77981 0.57894 0.35201 0.0
C59 C 0.6123 0.3554 0.35174 0.0
O60 O 0.62534 0.43525 0.30525 0.0
O61 O 0.71596 0.46232 0.30049 0.0
C62 C 0.65896 0.57072 0.34264 0.0
O63 O 0.5941 0.38729 0.36094 0.0
O64 O 0.65989 0.37596 0.33814 0.0
C65 C 0.75654 0.4613 0.4022 0.0
Fe66 Fe 0.28197 0.58131 0.99268 0.0
Fe67 Fe 0.19009 0.48527 0.95391 0.0
O68 O 0.21091 0.54289 0.9798 0.0
Fe69 Fe 0.16139 0.56283 0.99225 0.0
O70 O 0.20342 0.63373 0.97646 0.0
O71 O 0.2837 0.64925 0.99684 0.0
O72 O 0.30659 0.60209 0.95276 0.0
C73 C 0.29693 0.56729 0.93098 0.0
C74 C 0.22607 0.57359 0.04695 0.0
O75 O 0.25921 0.51582 0.93398 0.0
C76 C 0.09285 0.44904 0.99332 0.0
O77 O 0.29389 0.5205 0.99117 0.0
O78 O 0.20982 0.44753 0.98174 0.0
O79 O 0.19263 0.58448 0.03159 0.0
O80 O 0.26077 0.56303 0.03312 0.0
C81 C 0.13477 0.53569 0.92777 0.0
O82 O 0.11631 0.44495 0.96851 0.0
O83 O 0.1157 0.49386 0.00905 0.0
C84 C 0.26014 0.4675 0.99132 0.0
O85 O 0.17033 0.51941 0.92431 0.0
O86 O 0.12148 0.54412 0.95497 0.0
C87 C 0.2535 0.6676 0.98472 0.0
Fe88 Fe 0.44719 0.71241 0.65875 0.0
Fe89 Fe 0.5412 0.70914 0.62088 0.0
O90 O 0.48091 0.67508 0.64544 0.0
Fe91 Fe 0.45355 0.60354 0.65644 0.0
O92 O 0.38546 0.58286 0.63872 0.0
O93 O 0.37577 0.64988 0.66094 0.0
O94 O 0.43067 0.72226 0.61892 0.0
C95 C 0.46677 0.74386 0.59718 0.0
C96 C 0.44492 0.6562 0.71176 0.0
O97 O 0.51672 0.75245 0.60057 0.0
C98 C 0.56646 0.64068 0.66108 0.0
O99 O 0.51194 0.78205 0.65898 0.0
O100 O 0.58055 0.76393 0.64952 0.0
O101 O 0.42934 0.61236 0.69522 0.0
O102 O 0.46179 0.70393 0.69925 0.0
C103 C 0.48632 0.60559 0.59288 0.0
O104 O 0.57539 0.67036 0.63652 0.0
O105 O 0.51937 0.61916 0.67496 0.0
C106 C 0.56402 0.79673 0.65956 0.0
O107 O 0.50649 0.65805 0.59026 0.0
O108 O 0.47327 0.58205 0.61962 0.0
C109 C 0.35432 0.60237 0.64737 0.0
Fe110 Fe 0.32076 0.74591 0.32521 0.0
Fe111 Fe 0.32419 0.84179 0.28576 0.0
O112 O 0.35754 0.81708 0.31202 0.0
Fe113 Fe 0.4278 0.86304 0.32462 0.0
O114 O 0.45263 0.81739 0.30919 0.0
O115 O 0.38425 0.73893 0.32931 0.0
O116 O 0.31455 0.72005 0.28542 0.0
C117 C 0.29332 0.73357 0.26305 0.0
C118 C 0.37126 0.80065 0.37933 0.0
O119 O 0.2833 0.77397 0.26569 0.0
C120 C 0.38725 0.93629 0.32586 0.0
O121 O 0.2503 0.73952 0.32373 0.0
O122 O 0.2667 0.82529 0.31305 0.0
O123 O 0.4162 0.83149 0.36389 0.0
O124 O 0.32534 0.76766 0.36567 0.0
C125 C 0.43064 0.89062 0.2602 0.0
O126 O 0.36033 0.9149 0.3007 0.0
O127 O 0.40848 0.91193 0.34115 0.0
C128 C 0.23441 0.77602 0.32343 0.0
O129 O 0.3782 0.85874 0.25649 0.0
O130 O 0.45172 0.90307 0.28748 0.0
C131 C 0.43334 0.76672 0.31747 0.0
C132 C 0.33502 0.449 0.0126 0.0
C133 C 0.28404 0.42953 0.99616 0.0
C134 C 0.36222 0.41678 0.01433 0.0
C135 C 0.33846 0.36403 0.9988 0.0
C136 C 0.28645 0.3436 0.98261 0.0
C137 C 0.25962 0.37635 0.9817 0.0
C138 C 0.41691 0.43966 0.03243 0.0
C139 C 0.25998 0.28788 0.96551 0.0
C140 C 0.44222 0.31191 0.98096 0.0
C141 C 0.43155 0.274 0.00579 0.0
C142 C 0.41074 0.33988 0.97765 0.0
C143 C 0.36805 0.3303 -0.00011 0.0
C144 C 0.35594 0.2908 0.02437 0.0
C145 C 0.38743 0.26297 0.02689 0.0
C146 C 0.42434 0.381 0.9509 0.0
C147 C 0.31126 0.27962 0.04877 0.0
H148 H 0.35413 0.48998 0.02387 0.0
H149 H 0.22062 0.36124 0.96861 0.0
H150 H 0.41305 0.40874 0.0506 0.0
H151 H 0.45176 0.44606 0.01642 0.0
H152 H 0.42883 0.48046 0.04405 0.0
H153 H 0.21894 0.27741 0.95449 0.0
H154 H 0.28927 0.2893 0.94696 0.0
H155 H 0.25284 0.25331 0.98191 0.0
H156 H 0.47594 0.32065 0.96447 0.0
H157 H 0.37854 0.2338 0.04619 0.0
H158 H 0.44236 0.42449 0.96024 0.0
H159 H 0.38512 0.37121 0.938 0.0
H160 H 0.45521 0.38022 0.93414 0.0
H161 H 0.32389 0.31869 0.06241 0.0
H162 H 0.30476 0.24539 0.06532 0.0
H163 H 0.27027 0.26783 0.03734 0.0
C164 C 0.71243 0.126 0.64657 0.0
C165 C 0.75686 0.15774 0.66737 0.0
C166 C 0.68789 0.06701 0.64487 0.0
C167 C 0.7071 0.03887 0.66516 0.0
C168 C 0.75353 0.07096 0.68532 0.0
C169 C 0.77833 0.13013 0.6859 0.0
C170 C 0.63958 0.03459 0.62237 0.0
C171 C 0.77456 0.04265 0.70776 0.0
C172 C 0.59199 0.88931 0.68486 0.0
C173 C 0.60578 0.85702 0.66506 0.0
C174 C 0.62651 0.94828 0.68642 0.0
C175 C 0.67524 0.97588 0.66706 0.0
C176 C 0.69064 0.94326 0.64795 0.0
C177 C 0.65603 0.88411 0.64745 0.0
C178 C 0.60936 0.98127 0.70778 0.0
C179 C 0.7416 0.971 0.62657 0.0
H180 H 0.69582 0.14726 0.6322 0.0
H181 H 0.81217 0.15441 0.70236 0.0
H182 H 0.64675 1.00414 0.60872 0.0
H183 H 0.59956 1.00988 0.63572 0.0
H184 H 0.63411 0.06293 0.60577 0.0
H185 H 0.81457 0.07352 0.71948 0.0
H186 H 0.74194 0.01974 0.72605 0.0
H187 H 0.78164 0.01101 0.69538 0.0
H188 H 0.55327 0.86849 0.69855 0.0
H189 H 0.66655 0.85942 0.6318 0.0
H190 H 0.59566 1.00636 0.69352 0.0
H191 H 0.64595 0.01141 0.72215 0.0
H192 H 0.57406 0.95329 0.72373 0.0
H193 H 0.73367 0.99422 0.60767 0.0
H194 H 0.75111 0.93976 0.61561 0.0
H195 H 0.7795 1.00232 0.63962 0.0
C196 C 0.14491 0.77615 0.31005 0.0
C197 C 0.17364 0.75633 0.32886 0.0
C198 C 0.08545 0.75025 0.311 0.0
C199 C 0.05424 0.70439 0.33179 0.0
C200 C 0.08349 0.68665 0.35219 0.0
C201 C 0.14271 0.71228 0.35016 0.0
C202 C 0.05593 0.76977 0.28846 0.0
C203 C 0.05207 0.63898 0.37532 0.0
C204 C 0.89973 0.65332 0.3517 0.0
C205 C 0.87195 0.60252 0.33485 0.0
C206 C 0.95895 0.68799 0.35022 0.0
C207 C 0.99101 0.67214 0.33088 0.0
C208 C 0.96273 0.62268 0.31236 0.0
C209 C 0.90367 0.58811 0.3149 0.0
C210 C 0.98742 0.73971 0.37077 0.0
C211 C 0.99509 0.60497 0.29082 0.0
H212 H 0.16858 0.80969 0.29324 0.0
H213 H 0.16483 0.69696 0.36477 0.0
H214 H 0.03219 0.73617 0.27093 0.0
H215 H 0.02469 0.77739 0.30103 0.0
H216 H 0.08619 0.80904 0.27583 0.0
H217 H 0.08121 0.63418 0.39163 0.0
H218 H 0.02189 0.64625 0.38928 0.0
H219 H 0.02702 0.59866 0.36249 0.0
H220 H 0.87556 0.66445 0.36744 0.0
H221 H 0.88238 0.54903 0.30174 0.0
H222 H 0.01766 0.77715 0.3569 0.0
H223 H 1.01212 0.73299 0.38928 0.0
H224 H 0.95641 0.74912 0.38224 0.0
H225 H 0.02447 0.64093 0.27572 0.0
H226 H 0.96653 0.56899 0.27558 0.0
H227 H 0.02111 0.59219 0.30493 0.0
C228 C 0.44198 0.90277 0.20224 0.0
C229 C 0.46535 0.92008 0.23223 0.0
C230 C 0.46863 0.93575 0.17572 0.0
C231 C 0.52033 0.98717 0.17917 0.0
C232 C 0.54721 1.00176 0.20882 0.0
C233 C 0.5192 0.96814 0.23514 0.0
C234 C 0.43839 0.91818 0.14457 0.0
C235 C 0.60324 0.05519 0.21328 0.0
C236 C 0.57614 0.06107 0.10074 0.0
C237 C 0.54838 0.09258 0.09904 0.0
C238 C 0.5716 0.02958 0.12795 0.0
C239 C 0.53857 0.02995 0.15361 0.0
C240 C 0.51502 0.06592 0.1528 0.0
C241 C 0.52025 0.09664 0.12557 0.0
C242 C 0.59887 0.99318 0.12835 0.0
C243 C 0.48008 0.06852 0.17965 0.0
H244 H 0.40107 0.86488 0.19962 0.0
H245 H 0.5381 0.98135 0.25814 0.0
H246 H 0.42156 0.94661 0.1385 0.0
H247 H 0.46809 0.92198 0.12569 0.0
H248 H 0.40247 0.87401 0.14504 0.0
H249 H 0.62512 0.053 0.23477 0.0
H250 H 0.63147 0.06349 0.19277 0.0
H251 H 0.59596 0.09155 0.21567 0.0
H252 H 0.59835 0.05829 0.08032 0.0
H253 H 0.49974 0.12198 0.1245 0.0
H254 H 0.56684 0.94919 0.12215 0.0
H255 H 0.61534 0.99232 0.15202 0.0
H256 H 0.63411 1.00833 0.11111 0.0
H257 H 0.44035 0.02729 0.18195 0.0
H258 H 0.46871 0.10203 0.17621 0.0
H259 H 0.50346 0.07666 0.20205 0.0
C260 C 0.95354 0.49473 0.77073 0.0
C261 C 0.91514 0.43638 0.77123 0.0
C262 C 0.98797 0.52185 0.79683 0.0
C263 C 0.98472 0.48956 0.82362 0.0
C264 C 0.94354 0.43145 0.82494 0.0
C265 C 0.90891 0.40582 0.79892 0.0
C266 C 0.02978 0.58437 0.79507 0.0
C267 C 0.93872 0.3952 0.85295 0.0
C268 C 0.11445 0.52072 0.87052 0.0
C269 C 0.10176 0.53482 0.89991 0.0
C270 C 0.07839 0.50944 0.84488 0.0
C271 C 0.02886 0.51355 0.8484 0.0
C272 C 0.01846 0.53281 0.87711 0.0
C273 C 0.05478 0.5427 0.9027 0.0
C274 C 0.0911 0.4887 0.81478 0.0
C275 C 0.96722 0.53971 0.88143 0.0
H276 H 0.95803 0.5189 0.74965 0.0
H277 H 0.87881 0.36088 0.79984 0.0
H278 H 0.03149 0.6052 0.81768 0.0
H279 H 0.07275 0.59103 0.79031 0.0
H280 H 0.0189 0.60527 0.77609 0.0
H281 H 0.90222 0.35154 0.85104 0.0
H282 H 0.97807 0.39274 0.85515 0.0
H283 H 0.93393 0.41425 0.87484 0.0
H284 H 0.15118 0.51548 0.86787 0.0
H285 H 0.04501 0.55434 0.92516 0.0
H286 H 0.0893 0.51314 0.79445 0.0
H287 H 0.05857 0.44377 0.81103 0.0
H288 H 0.13346 0.492 0.8151 0.0
H289 H 0.95904 0.55777 0.86004 0.0
H290 H 0.97236 0.56735 0.9017 0.0
H291 H 0.92937 0.49776 0.88579 0.0
C292 C 0.5319 0.46837 0.43622 0.0
C293 C 0.5897 0.48523 0.43767 0.0
C294 C 0.5042 0.47616 0.46195 0.0
C295 C 0.53538 0.50243 0.48941 0.0
C296 C 0.59266 0.51595 0.49171 0.0
C297 C 0.61888 0.50666 0.46596 0.0
C298 C 0.4425 0.45922 0.45907 0.0
C299 C 0.62768 0.54426 0.52049 0.0
C300 C 0.50665 0.6028 0.53611 0.0
C301 C 0.48814 0.5743 0.56492 0.0
C302 C 0.51902 0.57838 0.51073 0.0
C303 C 0.51154 0.52342 0.51388 0.0
C304 C 0.48809 0.49237 0.54189 0.0
C305 C 0.47712 0.5184 0.56727 0.0
C306 C 0.54418 0.61325 0.48136 0.0
C307 C 0.47767 0.43296 0.54575 0.0
H308 H 0.50872 0.45093 0.41466 0.0
H309 H 0.66333 0.5191 0.46757 0.0
H310 H 0.41935 0.43942 0.48113 0.0
H311 H 0.43881 0.49735 0.45469 0.0
H312 H 0.42167 0.42928 0.43942 0.0
H313 H 0.67023 0.54807 0.51948 0.0
H314 H 0.63329 0.58727 0.52277 0.0
H315 H 0.60571 0.52028 0.54193 0.0
H316 H 0.5144 0.64566 0.5338 0.0
H317 H 0.46218 0.49575 0.58928 0.0
H318 H 0.52061 0.58927 0.46035 0.0
H319 H 0.5887 0.62295 0.47863 0.0
H320 H 0.54377 0.65376 0.48191 0.0
H321 H 0.46 0.40824 0.52395 0.0
H322 H 0.44816 0.41054 0.56548 0.0
H323 H 0.51836 0.43437 0.55066 0.0
C324 C 0.35616 0.99408 0.01443 0.0
C325 C 0.40212 0.02695 0.99462 0.0
C326 C 0.32346 0.93522 0.01026 0.0
C327 C 0.33695 0.90923 0.98553 0.0
C328 C 0.37953 0.94335 0.9636 0.0
C329 C 0.41193 1.00175 0.9686 0.0
C330 C 0.27849 0.90045 0.03418 0.0
C331 C 0.39482 0.91773 0.93662 0.0
C332 C 0.32407 0.76617 0.00069 0.0
C333 C 0.27462 0.72939 0.98429 0.0
C334 C 0.34388 0.82442 0.0017 0.0
C335 C 0.31397 0.84691 0.98558 0.0
C336 C 0.26411 0.81019 0.96887 0.0
C337 C 0.24485 0.75179 0.96853 0.0
C338 C 0.39709 0.86196 0.02 0.0
C339 C 0.23142 0.83266 0.95121 0.0
H340 H 0.34907 0.01343 0.03482 0.0
H341 H 0.44768 0.02729 0.95334 0.0
H342 H 0.24017 0.86639 0.02267 0.0
H343 H 0.29493 0.88003 0.05033 0.0
H344 H 0.26619 0.9268 0.04832 0.0
H345 H 0.42173 0.95005 0.91895 0.0
H346 H 0.41852 0.89733 0.94566 0.0
H347 H 0.35616 0.88463 0.92488 0.0
H348 H 0.34718 0.74937 0.01316 0.0
H349 H 0.2066 0.72372 0.95579 0.0
H350 H 0.38835 0.88618 0.03784 0.0
H351 H 0.4302 0.89303 0.00401 0.0
H352 H 0.41427 0.8376 0.03209 0.0
H353 H 0.21892 0.85643 0.96732 0.0
H354 H 0.19269 0.79844 0.94 0.0
H355 H 0.25869 0.86264 0.93276 0.0
C356 C 0.25696 0.58353 0.66092 0.0
C357 C 0.29178 0.56533 0.64696 0.0
C358 C 0.19822 0.54753 0.66331 0.0
C359 C 0.17339 0.4919 0.65132 0.0
C360 C 0.20797 0.47356 0.63655 0.0
C361 C 0.26677 0.51047 0.63455 0.0
C362 C 0.16283 0.5688 0.67922 0.0
C363 C 0.18297 0.41462 0.62341 0.0
C364 C 0.03011 0.39119 0.68736 0.0
C365 C 0.99316 0.39463 0.6657 0.0
C366 C 0.08894 0.4203 0.6822 0.0
C367 C 0.11121 0.45324 0.65463 0.0
C368 C 0.07383 0.45357 0.6317 0.0
C369 C 1.0153 0.42435 0.63753 0.0
C370 C 0.12739 0.4188 0.70721 0.0
C371 C 0.09579 0.48774 0.6019 0.0
H372 H 0.27572 0.62572 0.67063 0.0
H373 H 0.29323 0.49594 0.62371 0.0
H374 H 0.12931 0.56533 0.66308 0.0
H375 H 0.14138 0.54233 0.7001 0.0
H376 H 0.18852 0.61348 0.68683 0.0
H377 H 0.2153 0.4075 0.61165 0.0
H378 H 0.16307 0.38312 0.64256 0.0
H379 H 0.14917 0.40672 0.60629 0.0
H380 H 1.01348 0.36844 0.7092 0.0
H381 H 0.98702 0.4268 0.62052 0.0
H382 H 0.15043 0.46066 0.71879 0.0
H383 H 0.15956 0.41017 0.69667 0.0
H384 H 0.10353 0.38628 0.72542 0.0
H385 H 0.1172 0.53345 0.60757 0.0
H386 H 0.0613 0.47827 0.58489 0.0
H387 H 0.1276 0.4795 0.59052 0.0
C388 C 0.52773 0.77384 0.30743 0.0
C389 C 0.47128 0.74216 0.31771 0.0
C390 C 0.56487 0.75215 0.30963 0.0
C391 C 0.54511 0.69754 0.32238 0.0
C392 C 0.48804 0.66507 0.33234 0.0
C393 C 0.45187 0.68768 0.32983 0.0
C394 C 0.62539 0.7879 0.2987 0.0
C395 C 0.46524 0.60655 0.34604 0.0
C396 C 0.61401 0.60894 0.3064 0.0
C397 C 0.64041 0.6121 0.33519 0.0
C398 C 0.58574 0.63937 0.30118 0.0
C399 C 0.58358 0.67365 0.32537 0.0
C400 C 0.6134 0.68005 0.35367 0.0
C401 C 0.6417 0.64935 0.3582 0.0
C402 C 0.55496 0.63176 0.27056 0.0
C403 C 0.61212 0.71619 0.38005 0.0
H404 H 0.54321 0.81598 0.29804 0.0
H405 H 0.40843 0.66279 0.33784 0.0
H406 H 0.65466 0.79617 0.31863 0.0
H407 H 0.63533 0.76492 0.28065 0.0
H408 H 0.63384 0.82904 0.28873 0.0
H409 H 0.41974 0.58669 0.35251 0.0
H410 H 0.47036 0.57887 0.32892 0.0
H411 H 0.48967 0.60857 0.36729 0.0
H412 H 0.61325 0.58061 0.28838 0.0
H413 H 0.66182 0.65195 0.38054 0.0
H414 H 0.5645 0.67329 0.26077 0.0
H415 H 0.50858 0.60691 0.2747 0.0
H416 H 0.5664 0.60932 0.25285 0.0
H417 H 0.62136 0.75813 0.37109 0.0
H418 H 0.64303 0.72245 0.39879 0.0
H419 H 0.56909 0.69561 0.39059 0.0
C420 C 0.99471 0.38465 0.9741 0.0
C421 C 0.0321 0.40897 -0.00066 0.0
C422 C 0.93575 0.35709 0.97867 0.0
C423 C 0.91363 0.35261 0.00931 0.0
C424 C 0.95122 0.37414 0.03508 0.0
C425 C 1.00998 0.40268 0.02974 0.0
C426 C 0.89728 0.33564 0.95046 0.0
C427 C 0.92943 0.36911 0.06817 0.0
C428 C 0.76753 0.33846 0.0166 0.0
C429 C 0.73252 0.27979 0.01943 0.0
C430 C 0.82663 0.36278 0.01363 0.0
C431 C 0.85136 0.3277 0.01416 0.0
C432 C 0.81636 0.26871 0.01837 0.0
C433 C 0.7574 0.24544 0.02063 0.0
C434 C 0.8624 0.42583 0.00876 0.0
C435 C 0.84105 0.22997 0.01977 0.0
H436 H 1.01151 0.39034 0.95048 0.0
H437 H 0.03877 0.4217 0.04928 0.0
H438 H 0.8649 0.29052 0.95372 0.0
H439 H 0.87443 0.3596 0.94784 0.0
H440 H 0.92095 0.34003 0.92842 0.0
H441 H 0.96381 0.38313 0.08581 0.0
H442 H 0.90895 0.3953 0.07075 0.0
H443 H 0.89682 0.32473 0.07336 0.0
H444 H 0.74856 0.36516 0.01538 0.0
H445 H 0.73058 0.20006 0.02301 0.0
H446 H 0.88417 0.43463 0.98571 0.0
H447 H 0.89571 0.44447 0.02701 0.0
H448 H 0.83689 0.44734 0.00952 0.0
H449 H 0.86077 0.23055 0.99691 0.0
H450 H 0.80854 0.18566 0.02535 0.0
H451 H 0.87488 0.245 0.03776 0.0
C452 C 0.59786 0.59015 0.69783 0.0
C453 C 0.60586 0.62011 0.66971 0.0
C454 C 0.62682 0.56056 0.70366 0.0
C455 C 0.66465 0.56085 0.68081 0.0
C456 C 0.67582 0.59409 0.65334 0.0
C457 C 0.64642 0.62351 0.64816 0.0
C458 C 0.61405 0.52601 0.73336 0.0
C459 C 0.71596 0.59557 0.62841 0.0
C460 C 0.76232 0.50284 0.70079 0.0
C461 C 0.73263 0.44824 0.68803 0.0
C462 C 0.74053 0.53987 0.69898 0.0
C463 C 0.68785 0.5219 0.68408 0.0
C464 C 0.65712 0.46648 0.67181 0.0
C465 C 0.67979 0.43035 0.67399 0.0
C466 C 0.77439 0.59859 0.71239 0.0
C467 C 0.6007 0.44563 0.65577 0.0
H468 H 0.56697 0.58769 0.71476 0.0
H469 H 0.6529 0.64646 0.62635 0.0
H470 H 0.58961 0.48039 0.72752 0.0
H471 H 0.65385 0.53381 0.74484 0.0
H472 H 0.58899 0.53554 0.75034 0.0
H473 H 0.72507 0.6284 0.61031 0.0
H474 H 0.75651 0.60375 0.63906 0.0
H475 H 0.69708 0.55386 0.61666 0.0
H476 H 0.80316 0.51711 0.7117 0.0
H477 H 0.65648 0.38835 0.66404 0.0
H478 H 0.74828 0.60648 0.72941 0.0
H479 H 0.7865 0.63037 0.69335 0.0
H480 H 0.81351 0.60532 0.72435 0.0
H481 H 0.5706 0.4492 0.67186 0.0
H482 H 0.58162 0.40097 0.64808 0.0
H483 H 0.60606 0.47228 0.63493 0.0
C484 C 0.59331 0.25778 0.34005 0.0
C485 C 0.57429 0.29317 0.35219 0.0
C486 C 0.55698 0.19928 0.3378 0.0
C487 C 0.50011 0.17525 0.34806 0.0
C488 C 0.48083 0.21039 0.36101 0.0
C489 C 0.51816 0.26898 0.36294 0.0
C490 C 0.57932 0.16326 0.32392 0.0
C491 C 0.42053 0.18621 0.37226 0.0
C492 C 0.40375 0.03236 0.31134 0.0
C493 C 0.40527 0.9957 0.33394 0.0
C494 C 0.43161 0.09098 0.31641 0.0
C495 C 0.46127 0.11329 0.34483 0.0
C496 C 0.45916 0.07611 0.36866 0.0
C497 C 0.43125 0.01779 0.36292 0.0
C498 C 0.43276 0.12921 0.29041 0.0
C499 C 0.48981 0.09811 0.39938 0.0
H500 H 0.63657 0.27589 0.33175 0.0
H501 H 0.503 0.29591 0.37236 0.0
H502 H 0.57388 0.13003 0.34089 0.0
H503 H 0.55483 0.14159 0.30261 0.0
H504 H 0.62485 0.18841 0.31747 0.0
H505 H 0.41272 0.21888 0.38283 0.0
H506 H 0.39097 0.1665 0.35234 0.0
H507 H 0.41035 0.15251 0.3899 0.0
H508 H 0.38381 0.01574 0.28888 0.0
H509 H 0.43213 0.9897 0.38066 0.0
H510 H 0.47575 0.15176 0.27985 0.0
H511 H 0.42351 0.16166 0.29977 0.0
H512 H 0.4018 0.10533 0.27162 0.0
H513 H 0.53619 0.119 0.39532 0.0
H514 H 0.47791 0.06379 0.41691 0.0
H515 H 0.48067 0.13024 0.40936 0.0
C516 C 0.60545 0.36019 0.10561 0.0
C517 C 0.57448 0.30087 0.10612 0.0
C518 C 0.62514 0.39123 0.13353 0.0
C519 C 0.61382 0.36223 0.16254 0.0
C520 C 0.58288 0.30243 0.16317 0.0
C521 C 0.56353 0.27257 0.13502 0.0
C522 C 0.65779 0.45497 0.13202 0.0
C523 C 0.57 0.2698 0.19363 0.0
C524 C 0.69825 0.4272 0.23666 0.0
C525 C 0.65968 0.43583 0.25427 0.0
C526 C 0.68528 0.40609 0.20595 0.0
C527 C 0.63278 0.39383 0.19255 0.0
C528 C 0.59555 0.40623 0.20943 0.0
C529 C 0.6094 0.42695 0.24009 0.0
C530 C 0.72611 0.39351 0.18865 0.0
C531 C 0.53945 0.39435 0.19587 0.0
H532 H 0.61428 0.38244 0.08341 0.0
H533 H 0.54001 0.2268 0.13573 0.0
H534 H 0.63517 0.47241 0.14553 0.0
H535 H 0.70003 0.47121 0.14296 0.0
H536 H 0.66373 0.47112 0.10757 0.0
H537 H 0.54669 0.22332 0.18996 0.0
H538 H 0.60993 0.28144 0.20627 0.0
H539 H 0.54412 0.28089 0.20901 0.0
H540 H 0.73725 0.43406 0.2474 0.0
H541 H 0.5797 0.43425 0.2534 0.0
H542 H 0.73292 0.41036 0.16437 0.0
H543 H 0.70792 0.34707 0.18699 0.0
H544 H 0.76778 0.41169 0.20061 0.0
H545 H 0.54525 0.41177 0.17176 0.0
H546 H 0.51856 0.41251 0.21039 0.0
H547 H 0.51067 0.348 0.19432 0.0
C548 C 0.56597 0.16955 0.90189 0.0
C549 C 0.58765 0.2177 0.92097 0.0
C550 C 0.58165 0.17378 0.87019 0.0
C551 C 0.62033 0.22732 0.85741 0.0
C552 C 0.64035 0.27631 0.87615 0.0
C553 C 0.6235 0.27095 0.90763 0.0
C554 C 0.55881 0.12069 0.8508 0.0
C555 C 0.68199 0.33417 0.86345 0.0
C556 C 0.71935 0.23769 0.79204 0.0
C557 C 0.69663 0.25117 0.76608 0.0
C558 C 0.69397 0.22837 0.82168 0.0
C559 C 0.64416 0.23189 0.82546 0.0
C560 C 0.61962 0.2432 0.79916 0.0
C561 C 0.6464 0.25313 0.76977 0.0
C562 C 0.72189 0.21707 0.84921 0.0
C563 C 0.56617 0.24661 0.80226 0.0
H564 H 0.53779 0.12828 0.9119 0.0
H565 H 0.64045 0.30844 0.92212 0.0
H566 H 0.54248 0.12641 0.82807 0.0
H567 H 0.59347 0.11173 0.84553 0.0
H568 H 0.52432 0.08343 0.86306 0.0
H569 H 0.69024 0.36838 0.88032 0.0
H570 H 0.72278 0.33606 0.85803 0.0
H571 H 0.66601 0.34238 0.84128 0.0
H572 H 0.75834 0.23644 0.78951 0.0
H573 H 0.62851 0.26342 0.74983 0.0
H574 H 0.69109 0.17758 0.86138 0.0
H575 H 0.7362 0.252 0.86639 0.0
H576 H 0.75907 0.21322 0.84205 0.0
H577 H 0.53286 0.20858 0.81451 0.0
H578 H 0.54958 0.25043 0.77914 0.0
H579 H 0.57472 0.28383 0.81665 0.0
C580 C 0.811 0.48155 0.45217 0.0
C581 C 0.76962 0.44234 0.43193 0.0
C582 C 0.81876 0.4654 0.48219 0.0
C583 C 0.78337 0.40901 0.49244 0.0
C584 C 0.74291 0.36878 0.47167 0.0
C585 C 0.73692 0.38582 0.44151 0.0
C586 C 0.8632 0.50927 0.5034 0.0
C587 C 0.70372 0.30853 0.48191 0.0
C588 C 0.82342 0.35944 0.56663 0.0
C589 C 0.79182 0.36903 0.58914 0.0
C590 C 0.8208 0.37175 0.53486 0.0
C591 C 0.78535 0.39356 0.52569 0.0
C592 C 0.75257 0.40218 0.54851 0.0
C593 C 0.7566 0.39018 0.58006 0.0
C594 C 0.8569 0.36279 0.51127 0.0
C595 C 0.71386 0.42486 0.5397 0.0
H596 H 0.8366 0.52522 0.44476 0.0
H597 H 0.70451 0.35547 0.42604 0.0
H598 H 0.84231 0.51862 0.52298 0.0
H599 H 0.88967 0.49304 0.51386 0.0
H600 H 0.89129 0.54936 0.49078 0.0
H601 H 0.67778 0.28142 0.46222 0.0
H602 H 0.72827 0.28997 0.49214 0.0
H603 H 0.67474 0.30782 0.50045 0.0
H604 H 0.851 0.34351 0.57401 0.0
H605 H 0.73252 0.39772 0.59778 0.0
H606 H 0.88738 0.40377 0.50026 0.0
H607 H 0.83002 0.33453 0.49225 0.0
H608 H 0.881 0.34413 0.52208 0.0
H609 H 0.73911 0.46807 0.52978 0.0
H610 H 0.68936 0.42664 0.56008 0.0
H611 H 0.68367 0.39799 0.52132 0.0
C612 C 0.34662 0.64029 0.88969 0.0
C613 C 0.32962 0.58626 0.90161 0.0
C614 C 0.37054 0.65607 0.85965 0.0
C615 C 0.37888 0.61732 0.8416 0.0
C616 C 0.36498 0.56401 0.8544 0.0
C617 C 0.33968 0.54877 0.88411 0.0
C618 C 0.38356 0.71274 0.84651 0.0
C619 C 0.37457 0.52211 0.8362 0.0
C620 C 0.37176 0.62052 0.75307 0.0
C621 C 0.42914 0.64887 0.74493 0.0
C622 C 0.35495 0.61151 0.78456 0.0
C623 C 0.39675 0.63003 0.80831 0.0
C624 C 0.45495 0.65883 0.80007 0.0
C625 C 0.47055 0.6686 0.76829 0.0
C626 C 0.29248 0.58168 0.79236 0.0
C627 C 0.50051 0.67793 0.82475 0.0
H628 H 0.33836 0.66909 0.90316 0.0
H629 H 0.32692 0.50712 0.89348 0.0
H630 H 0.42717 0.73555 0.83681 0.0
H631 H 0.35409 0.70628 0.82694 0.0
H632 H 0.37923 0.7398 0.86445 0.0
H633 H 0.36807 0.48568 0.8509 0.0
H634 H 0.34477 0.50576 0.81615 0.0
H635 H 0.41818 0.54296 0.82644 0.0
H636 H 0.34004 0.60564 0.7347 0.0
H637 H 0.51492 0.69028 0.76164 0.0
H638 H 0.28338 0.60754 0.80888 0.0
H639 H 0.27995 0.54083 0.80416 0.0
H640 H 0.26571 0.57321 0.77118 0.0
H641 H 0.49605 0.70602 0.84185 0.0
H642 H 0.54378 0.70079 0.81447 0.0
H643 H 0.49575 0.64072 0.83797 0.0
C644 C 0.47746 0.75538 0.53945 0.0
C645 C 0.45061 0.75791 0.56693 0.0
C646 C 0.46014 0.76385 0.51004 0.0
C647 C 0.41586 0.77673 0.50812 0.0
C648 C 0.38949 0.78079 0.53584 0.0
C649 C 0.40664 0.77045 0.56499 0.0
C650 C 0.48848 0.75779 0.48098 0.0
C651 C 0.34308 0.79575 0.53466 0.0
C652 C 0.41619 0.84349 0.4303 0.0
C653 C 0.37565 0.79665 0.41355 0.0
C654 C 0.42683 0.83854 0.46196 0.0
C655 C 0.39722 0.78513 0.47687 0.0
C656 C 0.35425 0.73831 0.46047 0.0
C657 C 0.34348 0.74483 0.42902 0.0
C658 C 0.47193 0.88976 0.47891 0.0
C659 C 0.3225 0.68043 0.47539 0.0
H660 H 0.51091 0.74485 0.54085 0.0
H661 H 0.38588 0.77243 0.58627 0.0
H662 H 0.45636 0.72488 0.46545 0.0
H663 H 0.50885 0.79806 0.4676 0.0
H664 H 0.52119 0.7461 0.48658 0.0
H665 H 0.32879 0.79983 0.55843 0.0
H666 H 0.35811 0.8362 0.52184 0.0
H667 H 0.30615 0.76281 0.52165 0.0
H668 H 0.44065 0.88375 0.41839 0.0
H669 H 0.3123 0.7085 0.41603 0.0
H670 H 0.50981 0.88516 0.48245 0.0
H671 H 0.45661 0.89348 0.50241 0.0
H672 H 0.48499 0.92944 0.4656 0.0
H673 H 0.35198 0.66393 0.47916 0.0
H674 H 0.28679 0.64987 0.4606 0.0
H675 H 0.30564 0.68276 0.49866 0.0
C676 C 0.28364 0.60147 0.09593 0.0
C677 C 0.23148 0.58353 0.0811 0.0
C678 C 0.29199 0.61953 0.1272 0.0
C679 C 0.24669 0.61836 0.14416 0.0
C680 C 0.1928 0.59638 0.12997 0.0
C681 C 0.18601 0.57986 0.09843 0.0
C682 C 0.35037 0.64369 0.1413 0.0
C683 C 0.14315 0.59325 0.14754 0.0
C684 C 0.26542 0.64572 0.23195 0.0
C685 C 0.27994 0.70268 0.23314 0.0
C686 C 0.25329 0.61707 0.20316 0.0
C687 C 0.25756 0.64677 0.17506 0.0
C688 C 0.27303 0.70453 0.17624 0.0
C689 C 0.28325 0.7315 0.20529 0.0
C690 C 0.23574 0.55518 0.20277 0.0
C691 C 0.2796 0.73821 0.14677 0.0
H692 H 0.31899 0.60455 0.08259 0.0
H693 H 0.14544 0.56535 0.0871 0.0
H694 H 0.36904 0.68996 0.14441 0.0
H695 H 0.34802 0.62514 0.16479 0.0
H696 H 0.3793 0.63615 0.12628 0.0
H697 H 0.10257 0.56767 0.13486 0.0
H698 H 0.1395 0.57472 0.1712 0.0
H699 H 0.14986 0.6365 0.15075 0.0
H700 H 0.26277 0.62343 0.25353 0.0
H701 H 0.29526 0.77581 0.20613 0.0
H702 H 0.26659 0.54876 0.18895 0.0
H703 H 0.19396 0.53064 0.19114 0.0
H704 H 0.23283 0.53785 0.22673 0.0
H705 H 0.31139 0.73692 0.13101 0.0
H706 H 0.29319 0.78312 0.1518 0.0
H707 H 0.23887 0.7193 0.13388 0.0
loop_
_geom_bond_atom_site_label_1
_geom_bond_atom_site_label_2
_geom_bond_distance
_geom_bond_site_symmetry_2
_ccdc_geom_bond_type
Fe0 O2 1.918 . S
Fe0 O5 1.997 . S
Fe0 O6 2.002 . S
Fe0 O11 1.976 . S
Fe0 O14 1.996 . S
Fe1 O2 1.918 . S
Fe1 O9 1.997 . S
Fe1 O12 2.001 . S
Fe1 O16 1.976 1_554 S
Fe1 O19 2.002 . S
O2 Fe0 1.918 . S
O2 Fe1 1.918 . S
O2 Fe3 1.918 . S
Fe3 O2 1.918 . S
Fe3 O4 2.002 . S
Fe3 O13 1.976 . S
Fe3 O17 1.996 1_554 S
Fe3 O20 1.997 . S
O4 Fe3 2.002 . S
O4 C21 1.295 . S
O5 Fe0 1.997 . S
O5 C21 1.235 . S
O6 Fe0 2.002 . S
O6 C7 1.295 . S
C7 O6 1.295 . S
C7 O9 1.235 . S
C8 O13 1.287 . S
C8 O14 1.255 . S
O9 Fe1 1.997 . S
O9 C7 1.235 . S
C10 O16 1.287 . S
C10 O17 1.255 . S
O11 Fe0 1.976 . S
O11 C18 1.287 . S
O12 Fe1 2.001 . S
O12 C18 1.259 . S
O13 Fe3 1.976 . S
O13 C8 1.287 . S
O14 Fe0 1.996 . S
O14 C8 1.255 . S
C15 O19 1.295 . S
C15 O20 1.235 . S
O16 Fe1 1.976 1_556 S
O16 C10 1.287 . S
O17 Fe3 1.996 1_556 S
O17 C10 1.255 . S
C18 O11 1.287 . S
C18 O12 1.259 . S
O19 Fe1 2.002 . S
O19 C15 1.295 . S
O20 Fe3 1.997 . S
O20 C15 1.235 . S
C21 O4 1.295 . S
C21 O5 1.235 . S
Fe22 O24 1.918 . S
Fe22 O27 1.997 . S
Fe22 O28 2.002 . S
Fe22 O33 1.976 . S
Fe22 O36 1.996 . S
Fe23 O24 1.918 . S
Fe23 O31 1.997 . S
Fe23 O34 1.996 . S
Fe23 O38 1.976 . S
Fe23 O41 2.002 . S
O24 Fe22 1.918 . S
O24 Fe23 1.918 . S
O24 Fe25 1.918 . S
Fe25 O24 1.918 . S
Fe25 O26 2.002 . S
Fe25 O35 1.976 . S
Fe25 O39 1.996 . S
Fe25 O42 1.997 . S
O26 Fe25 2.002 . S
O26 C43 1.295 . S
O27 Fe22 1.997 . S
O27 C43 1.235 . S
O28 Fe22 2.002 . S
O28 C29 1.295 . S
C29 O28 1.295 . S
C29 O31 1.235 . S
C30 O35 1.287 . S
C30 O36 1.255 . S
O31 Fe23 1.997 . S
O31 C29 1.235 . S
C32 O38 1.287 . S
C32 O39 1.255 . S
O33 Fe22 1.976 . S
O33 C40 1.287 . S
O34 Fe23 1.996 . S
O34 C40 1.255 . S
O35 Fe25 1.976 . S
O35 C30 1.287 . S
O36 Fe22 1.996 . S
O36 C30 1.255 . S
C37 O41 1.295 . S
C37 O42 1.235 . S
O38 Fe23 1.976 . S
O38 C32 1.287 . S
O39 Fe25 1.996 . S
O39 C32 1.255 . S
C40 O33 1.287 . S
C40 O34 1.255 . S
O41 Fe23 2.002 . S
O41 C37 1.295 . S
O42 Fe25 1.997 . S
O42 C37 1.235 . S
C43 O26 1.295 . S
C43 O27 1.235 . S
Fe44 O46 1.918 . S
Fe44 O49 1.997 . S
Fe44 O50 2.002 . S
Fe44 O55 1.976 . S
Fe44 O58 1.996 . S
Fe45 O46 1.918 . S
Fe45 O53 1.997 . S
Fe45 O56 1.996 . S
Fe45 O60 1.976 . S
Fe45 O63 2.002 . S
O46 Fe44 1.918 . S
O46 Fe45 1.918 . S
O46 Fe47 1.918 . S
Fe47 O46 1.918 . S
Fe47 O48 2.002 . S
Fe47 O57 1.976 . S
Fe47 O61 1.996 . S
Fe47 O64 1.997 . S
O48 Fe47 2.002 . S
O48 C65 1.295 . S
O49 Fe44 1.997 . S
O49 C65 1.235 . S
O50 Fe44 2.002 . S
O50 C51 1.295 . S
C51 O50 1.295 . S
C51 O53 1.235 . S
C52 O57 1.287 . S
C52 O58 1.255 . S
O53 Fe45 1.997 . S
O53 C51 1.235 . S
C54 O60 1.287 . S
C54 O61 1.255 . S
O55 Fe44 1.976 . S
O55 C62 1.287 . S
O56 Fe45 1.996 . S
O56 C62 1.255 . S
O57 Fe47 1.976 . S
O57 C52 1.287 . S
O58 Fe44 1.996 . S
O58 C52 1.255 . S
C59 O63 1.295 . S
C59 O64 1.235 . S
O60 Fe45 1.976 . S
O60 C54 1.287 . S
O61 Fe47 1.996 . S
O61 C54 1.255 . S
C62 O55 1.287 . S
C62 O56 1.255 . S
O63 Fe45 2.002 . S
O63 C59 1.295 . S
O64 Fe47 1.997 . S
O64 C59 1.235 . S
C65 O48 1.295 . S
C65 O49 1.235 . S
Fe66 O68 1.918 . S
Fe66 O71 1.997 . S
Fe66 O72 2.002 . S
Fe66 O77 1.976 . S
Fe66 O80 1.996 1_556 S
Fe67 O68 1.918 . S
Fe67 O75 1.997 . S
Fe67 O78 1.996 . S
Fe67 O82 1.976 . S
Fe67 O85 2.002 . S
O68 Fe66 1.918 . S
O68 Fe67 1.918 . S
O68 Fe69 1.918 . S
Fe69 O68 1.918 . S
Fe69 O70 2.002 . S
Fe69 O79 1.976 1_556 S
Fe69 O83 2.001 . S
Fe69 O86 1.997 . S
O70 Fe69 2.002 . S
O70 C87 1.295 . S
O71 Fe66 1.997 . S
O71 C87 1.235 . S
O72 Fe66 2.002 . S
O72 C73 1.295 . S
C73 O72 1.295 . S
C73 O75 1.235 . S
C74 O79 1.287 . S
C74 O80 1.255 . S
O75 Fe67 1.997 . S
O75 C73 1.235 . S
C76 O82 1.287 . S
C76 O83 1.259 . S
O77 Fe66 1.976 . S
O77 C84 1.287 . S
O78 Fe67 1.996 . S
O78 C84 1.255 . S
O79 Fe69 1.976 1_554 S
O79 C74 1.287 . S
O80 Fe66 1.996 1_554 S
O80 C74 1.255 . S
C81 O85 1.295 . S
C81 O86 1.235 . S
O82 Fe67 1.976 . S
O82 C76 1.287 . S
O83 Fe69 2.001 . S
O83 C76 1.259 . S
C84 O77 1.287 . S
C84 O78 1.255 . S
O85 Fe67 2.002 . S
O85 C81 1.295 . S
O86 Fe69 1.997 . S
O86 C81 1.235 . S
C87 O70 1.295 . S
C87 O71 1.235 . S
Fe88 O90 1.918 . S
Fe88 O93 1.997 . S
Fe88 O94 2.002 . S
Fe88 O99 1.976 . S
Fe88 O102 1.996 . S
Fe89 O90 1.918 . S
Fe89 O97 1.997 . S
Fe89 O100 1.996 . S
Fe89 O104 1.976 . S
Fe89 O107 2.002 . S
O90 Fe88 1.918 . S
O90 Fe89 1.918 . S
O90 Fe91 1.918 . S
Fe91 O90 1.918 . S
Fe91 O92 2.002 . S
Fe91 O101 1.976 . S
Fe91 O105 1.996 . S
Fe91 O108 1.997 . S
O92 Fe91 2.002 . S
O92 C109 1.295 . S
O93 Fe88 1.997 . S
O93 C109 1.235 . S
O94 Fe88 2.002 . S
O94 C95 1.295 . S
C95 O94 1.295 . S
C95 O97 1.235 . S
C96 O101 1.287 . S
C96 O102 1.255 . S
O97 Fe89 1.997 . S
O97 C95 1.235 . S
C98 O104 1.287 . S
C98 O105 1.255 . S
O99 Fe88 1.976 . S
O99 C106 1.287 . S
O100 Fe89 1.996 . S
O100 C106 1.255 . S
O101 Fe91 1.976 . S
O101 C96 1.287 . S
O102 Fe88 1.996 . S
O102 C96 1.255 . S
C103 O107 1.295 . S
C103 O108 1.235 . S
O104 Fe89 1.976 . S
O104 C98 1.287 . S
O105 Fe91 1.996 . S
O105 C98 1.255 . S
C106 O99 1.287 . S
C106 O100 1.255 . S
O107 Fe89 2.002 . S
O107 C103 1.295 . S
O108 Fe91 1.997 . S
O108 C103 1.235 . S
C109 O92 1.295 . S
C109 O93 1.235 . S
Fe110 O112 1.918 . S
Fe110 O115 1.997 . S
Fe110 O116 2.002 . S
Fe110 O121 1.976 . S
Fe110 O124 1.996 . S
Fe111 O112 1.918 . S
Fe111 O119 1.997 . S
Fe111 O122 1.996 . S
Fe111 O126 1.976 . S
Fe111 O129 2.002 . S
O112 Fe110 1.918 . S
O112 Fe111 1.918 . S
O112 Fe113 1.918 . S
Fe113 O112 1.918 . S
Fe113 O114 2.002 . S
Fe113 O123 1.976 . S
Fe113 O127 1.996 . S
Fe113 O130 1.997 . S
O114 Fe113 2.002 . S
O114 C131 1.295 . S
O115 Fe110 1.997 . S
O115 C131 1.235 . S
O116 Fe110 2.002 . S
O116 C117 1.295 . S
C117 O116 1.295 . S
C117 O119 1.235 . S
C118 O123 1.287 . S
C118 O124 1.255 . S
O119 Fe111 1.997 . S
O119 C117 1.235 . S
C120 O126 1.287 . S
C120 O127 1.255 . S
O121 Fe110 1.976 . S
O121 C128 1.287 . S
O122 Fe111 1.996 . S
O122 C128 1.255 . S
O123 Fe113 1.976 . S
O123 C118 1.287 . S
O124 Fe110 1.996 . S
O124 C118 1.255 . S
C125 O129 1.295 . S
C125 O130 1.235 . S
O126 Fe111 1.976 . S
O126 C120 1.287 . S
O127 Fe113 1.996 . S
O127 C120 1.255 . S
C128 O121 1.287 . S
C128 O122 1.255 . S
O129 Fe111 2.002 . S
O129 C125 1.295 . S
O130 Fe113 1.997 . S
O130 C125 1.235 . S
C131 O114 1.295 . S
C131 O115 1.235 . S
C132 C133 1.391 1_554 S
C132 C134 1.394 . S
C132 H148 0.931 . S
C133 C132 1.391 1_556 S
C133 C137 1.376 . S
C134 C132 1.394 . S
C134 C135 1.369 . S
C134 C138 1.531 . S
C135 C134 1.369 . S
C135 C136 1.410 1_554 S
C135 C143 1.503 . S
C136 C135 1.410 1_556 S
C136 C137 1.392 . S
C136 C139 1.511 . S
C137 C133 1.376 . S
C137 C136 1.392 . S
C137 H149 0.929 . S
C138 C134 1.531 . S
C138 H150 0.960 . S
C138 H151 0.962 . S
C138 H152 0.960 . S
C139 C136 1.511 . S
C139 H153 0.961 . S
C139 H154 0.961 . S
C139 H155 0.961 1_556 S
C140 C141 1.370 1_556 S
C140 C142 1.363 . S
C140 H156 0.931 . S
C141 C140 1.370 1_554 S
C141 C145 1.408 . S
C142 C140 1.363 . S
C142 C143 1.370 1_556 S
C142 C146 1.524 . S
C143 C135 1.503 . S
C143 C142 1.370 1_554 S
C143 C144 1.403 . S
C144 C143 1.403 . S
C144 C145 1.404 . S
C144 C147 1.539 . S
C145 C141 1.408 . S
C145 C144 1.404 . S
C145 H157 0.930 . S
C146 C142 1.524 . S
C146 H158 0.956 . S
C146 H159 0.961 . S
C146 H160 0.961 . S
C147 C144 1.539 . S
C147 H161 0.958 . S
C147 H162 0.961 . S
C147 H163 0.960 . S
H148 C132 0.931 . S
H149 C137 0.929 . S
H150 C138 0.960 . S
H151 C138 0.962 . S
H152 C138 0.960 . S
H153 C139 0.961 . S
H154 C139 0.961 . S
H155 C139 0.961 1_554 S
H156 C140 0.931 . S
H157 C145 0.930 . S
H158 C146 0.956 . S
H159 C146 0.961 . S
H160 C146 0.961 . S
H161 C147 0.958 . S
H162 C147 0.961 . S
H163 C147 0.960 . S
C164 C165 1.391 . S
C164 C166 1.394 . S
C164 H180 0.931 . S
C165 C164 1.391 . S
C165 C169 1.376 . S
C166 C164 1.394 . S
C166 C167 1.369 . S
C166 C170 1.531 . S
C167 C166 1.369 . S
C167 C168 1.410 . S
C167 C175 1.503 1_545 S
C168 C167 1.410 . S
C168 C169 1.392 . S
C168 C171 1.511 . S
C169 C165 1.376 . S
C169 C168 1.392 . S
C169 H181 0.929 . S
C170 C166 1.531 . S
C170 H182 0.960 . S
C170 H183 0.962 . S
C170 H184 0.960 . S
C171 C168 1.511 . S
C171 H185 0.961 . S
C171 H186 0.961 1_545 S
C171 H187 0.961 . S
C172 C173 1.370 . S
C172 C174 1.363 . S
C172 H188 0.931 . S
C173 C172 1.370 . S
C173 C177 1.408 . S
C174 C172 1.363 . S
C174 C175 1.370 . S
C174 C178 1.524 . S
C175 C167 1.503 1_565 S
C175 C174 1.370 . S
C175 C176 1.403 . S
C176 C175 1.403 . S
C176 C177 1.404 . S
C176 C179 1.539 . S
C177 C173 1.408 . S
C177 C176 1.404 . S
C177 H189 0.930 . S
C178 C174 1.524 . S
C178 H190 0.956 1_565 S
C178 H191 0.961 1_565 S
C178 H192 0.961 . S
C179 C176 1.539 . S
C179 H193 0.958 . S
C179 H194 0.961 . S
C179 H195 0.960 . S
H180 C164 0.931 . S
H181 C169 0.929 . S
H182 C170 0.960 . S
H183 C170 0.962 . S
H184 C170 0.960 . S
H185 C171 0.961 . S
H186 C171 0.961 1_565 S
H187 C171 0.961 . S
H188 C172 0.931 . S
H189 C177 0.930 . S
H190 C178 0.956 1_545 S
H191 C178 0.961 1_545 S
H192 C178 0.961 . S
H193 C179 0.958 . S
H194 C179 0.961 . S
H195 C179 0.960 . S
C196 C197 1.391 . S
C196 C198 1.394 . S
C196 H212 0.931 . S
C197 C196 1.391 . S
C197 C201 1.376 . S
C198 C196 1.394 . S
C198 C199 1.369 . S
C198 C202 1.531 . S
C199 C198 1.369 . S
C199 C200 1.410 . S
C199 C207 1.503 1_455 S
C200 C199 1.410 . S
C200 C201 1.392 . S
C200 C203 1.511 . S
C201 C197 1.376 . S
C201 C200 1.392 . S
C201 H213 0.929 . S
C202 C198 1.531 . S
C202 H214 0.960 1_455 S
C202 H215 0.962 . S
C202 H216 0.960 . S
C203 C200 1.511 . S
C203 H217 0.961 . S
C203 H218 0.961 . S
C203 H219 0.961 . S
C204 C205 1.370 . S
C204 C206 1.363 . S
C204 H220 0.931 . S
C205 C204 1.370 . S
C205 C209 1.408 . S
C206 C204 1.363 . S
C206 C207 1.370 . S
C206 C210 1.524 . S
C207 C199 1.503 1_655 S
C207 C206 1.370 . S
C207 C208 1.403 . S
C208 C207 1.403 . S
C208 C209 1.404 . S
C208 C211 1.539 . S
C209 C205 1.408 . S
C209 C208 1.404 . S
C209 H221 0.930 . S
C210 C206 1.524 . S
C210 H222 0.956 . S
C210 H223 0.961 1_655 S
C210 H224 0.961 . S
C211 C208 1.539 . S
C211 H225 0.958 . S
C211 H226 0.961 . S
C211 H227 0.960 1_655 S
H212 C196 0.931 . S
H213 C201 0.929 . S
H214 C202 0.960 1_655 S
H215 C202 0.962 . S
H216 C202 0.960 . S
H217 C203 0.961 . S
H218 C203 0.961 . S
H219 C203 0.961 . S
H220 C204 0.931 . S
H221 C209 0.930 . S
H222 C210 0.956 . S
H223 C210 0.961 1_455 S
H224 C210 0.961 . S
H225 C211 0.958 . S
H226 C211 0.961 . S
H227 C211 0.960 1_455 S
C228 C229 1.391 . S
C228 C230 1.394 . S
C228 H244 0.931 . S
C229 C228 1.391 . S
C229 C233 1.376 . S
C230 C228 1.394 . S
C230 C231 1.369 . S
C230 C234 1.531 . S
C231 C230 1.369 . S
C231 C232 1.410 . S
C231 C239 1.503 1_565 S
C232 C231 1.410 . S
C232 C233 1.392 . S
C232 C235 1.511 1_565 S
C233 C229 1.376 . S
C233 C232 1.392 . S
C233 H245 0.929 . S
C234 C230 1.531 . S
C234 H246 0.948 1_565 S
C234 H247 0.962 . S
C234 H248 0.960 . S
C235 C232 1.511 1_545 S
C235 H249 0.961 . S
C235 H250 0.961 . S
C235 H251 0.961 . S
C236 C237 1.370 . S
C236 C238 1.363 1_545 S
C236 H252 0.931 . S
C237 C236 1.370 . S
C237 C241 1.408 . S
C238 C236 1.363 1_565 S
C238 C239 1.370 1_565 S
C238 C242 1.524 . S
C239 C231 1.503 1_545 S
C239 C238 1.370 1_545 S
C239 C240 1.403 . S
C240 C239 1.403 . S
C240 C241 1.404 . S
C240 C243 1.539 . S
C241 C237 1.408 . S
C241 C240 1.404 . S
C241 H253 0.930 . S
C242 C238 1.524 . S
C242 H254 0.956 . S
C242 H255 0.961 . S
C242 H256 0.961 . S
C243 C240 1.539 . S
C243 H257 0.958 . S
C243 H258 0.961 . S
C243 H259 0.960 . S
H244 C228 0.931 . S
H245 C233 0.929 . S
H246 C234 0.948 1_545 S
H247 C234 0.962 . S
H248 C234 0.960 . S
H249 C235 0.961 . S
H250 C235 0.961 . S
H251 C235 0.961 . S
H252 C236 0.931 . S
H253 C241 0.930 . S
H254 C242 0.956 . S
H255 C242 0.961 . S
H256 C242 0.961 . S
H257 C243 0.958 . S
H258 C243 0.961 . S
H259 C243 0.960 . S
C260 C261 1.391 . S
C260 C262 1.394 . S
C260 H276 0.931 . S
C261 C260 1.391 . S
C261 C265 1.376 . S
C262 C260 1.394 . S
C262 C263 1.369 . S
C262 C266 1.531 . S
C263 C262 1.369 . S
C263 C264 1.410 . S
C263 C271 1.503 1_655 S
C264 C263 1.410 . S
C264 C265 1.392 . S
C264 C267 1.511 1_655 S
C265 C261 1.376 . S
C265 C264 1.392 . S
C265 H277 0.929 . S
C266 C262 1.531 . S
C266 H278 0.960 . S
C266 H279 0.962 . S
C266 H280 0.960 . S
C267 C264 1.511 1_455 S
C267 H281 0.961 . S
C267 H282 0.961 . S
C267 H283 0.961 . S
C268 C269 1.370 . S
C268 C270 1.363 . S
C268 H284 0.931 . S
C269 C268 1.370 . S
C269 C273 1.408 . S
C270 C268 1.363 . S
C270 C271 1.370 . S
C270 C274 1.524 . S
C271 C263 1.503 1_455 S
C271 C270 1.370 . S
C271 C272 1.403 1_455 S
C272 C271 1.403 1_655 S
C272 C273 1.404 1_655 S
C272 C275 1.539 . S
C273 C269 1.408 . S
C273 C272 1.404 1_455 S
C273 H285 0.930 . S
C274 C270 1.524 . S
C274 H286 0.956 . S
C274 H287 0.961 . S
C274 H288 0.961 . S
C275 C272 1.539 . S
C275 H289 0.958 . S
C275 H290 0.961 . S
C275 H291 0.960 . S
H276 C260 0.931 . S
H277 C265 0.929 . S
H278 C266 0.960 . S
H279 C266 0.962 . S
H280 C266 0.960 . S
H281 C267 0.961 . S
H282 C267 0.961 . S
H283 C267 0.961 . S
H284 C268 0.931 . S
H285 C273 0.930 . S
H286 C274 0.956 . S
H287 C274 0.961 . S
H288 C274 0.961 . S
H289 C275 0.958 . S
H290 C275 0.961 . S
H291 C275 0.960 . S
C292 C293 1.391 . S
C292 C294 1.394 . S
C292 H308 0.931 . S
C293 C292 1.391 . S
C293 C297 1.376 . S
C294 C292 1.394 . S
C294 C295 1.369 . S
C294 C298 1.531 . S
C295 C294 1.369 . S
C295 C296 1.410 . S
C295 C303 1.503 . S
C296 C295 1.410 . S
C296 C297 1.392 . S
C296 C299 1.511 . S
C297 C293 1.376 . S
C297 C296 1.392 . S
C297 H309 0.929 . S
C298 C294 1.531 . S
C298 H310 0.960 . S
C298 H311 0.962 . S
C298 H312 0.960 . S
C299 C296 1.511 . S
C299 H313 0.961 . S
C299 H314 0.961 . S
C299 H315 0.961 . S
C300 C301 1.370 . S
C300 C302 1.363 . S
C300 H316 0.931 . S
C301 C300 1.370 . S
C301 C305 1.408 . S
C302 C300 1.363 . S
C302 C303 1.370 . S
C302 C306 1.524 . S
C303 C295 1.503 . S
C303 C302 1.370 . S
C303 C304 1.403 . S
C304 C303 1.403 . S
C304 C305 1.404 . S
C304 C307 1.539 . S
C305 C301 1.408 . S
C305 C304 1.404 . S
C305 H317 0.930 . S
C306 C302 1.524 . S
C306 H318 0.956 . S
C306 H319 0.961 . S
C306 H320 0.961 . S
C307 C304 1.539 . S
C307 H321 0.958 . S
C307 H322 0.961 . S
C307 H323 0.960 . S
H308 C292 0.931 . S
H309 C297 0.929 . S
H310 C298 0.960 . S
H311 C298 0.962 . S
H312 C298 0.960 . S
H313 C299 0.961 . S
H314 C299 0.961 . S
H315 C299 0.961 . S
H316 C300 0.931 . S
H317 C305 0.930 . S
H318 C306 0.956 . S
H319 C306 0.961 . S
H320 C306 0.961 . S
H321 C307 0.958 . S
H322 C307 0.961 . S
H323 C307 0.960 . S
C324 C325 1.391 1_565 S
C324 C326 1.394 . S
C324 H340 0.931 . S
C325 C324 1.391 1_545 S
C325 C329 1.376 1_544 S
C326 C324 1.394 . S
C326 C327 1.369 1_554 S
C326 C330 1.531 . S
C327 C326 1.369 1_556 S
C327 C328 1.410 . S
C327 C335 1.503 . S
C328 C327 1.410 . S
C328 C329 1.392 . S
C328 C331 1.511 . S
C329 C325 1.376 1_566 S
C329 C328 1.392 . S
C329 H341 0.914 1_565 S
C330 C326 1.531 . S
C330 H342 0.960 . S
C330 H343 0.962 . S
C330 H344 0.960 . S
C331 C328 1.511 . S
C331 H345 0.961 . S
C331 H346 0.961 . S
C331 H347 0.961 . S
C332 C333 1.370 . S
C332 C334 1.363 . S
C332 H348 0.931 . S
C333 C332 1.370 . S
C333 C337 1.408 . S
C334 C332 1.363 . S
C334 C335 1.370 . S
C334 C338 1.524 . S
C335 C327 1.503 . S
C335 C334 1.370 . S
C335 C336 1.403 1_556 S
C336 C335 1.403 1_554 S
C336 C337 1.404 1_554 S
C336 C339 1.539 . S
C337 C333 1.408 . S
C337 C336 1.404 1_556 S
C337 H349 0.930 1_556 S
C338 C334 1.524 . S
C338 H350 0.956 . S
C338 H351 0.961 . S
C338 H352 0.961 . S
C339 C336 1.539 . S
C339 H353 0.958 . S
C339 H354 0.961 . S
C339 H355 0.960 . S
H340 C324 0.931 . S
H341 C329 0.914 1_545 S
H342 C330 0.960 . S
H343 C330 0.962 . S
H344 C330 0.960 . S
H345 C331 0.961 . S
H346 C331 0.961 . S
H347 C331 0.961 . S
H348 C332 0.931 . S
H349 C337 0.930 1_554 S
H350 C338 0.956 . S
H351 C338 0.961 . S
H352 C338 0.961 . S
H353 C339 0.958 . S
H354 C339 0.961 . S
H355 C339 0.960 . S
C356 C357 1.391 . S
C356 C358 1.394 . S
C356 H372 0.931 . S
C357 C356 1.391 . S
C357 C361 1.376 . S
C358 C356 1.394 . S
C358 C359 1.369 . S
C358 C362 1.531 . S
C359 C358 1.369 . S
C359 C360 1.410 . S
C359 C367 1.503 . S
C360 C359 1.410 . S
C360 C361 1.392 . S
C360 C363 1.511 . S
C361 C357 1.376 . S
C361 C360 1.392 . S
C361 H373 0.929 . S
C362 C358 1.531 . S
C362 H374 0.960 . S
C362 H375 0.962 . S
C362 H376 0.960 . S
C363 C360 1.511 . S
C363 H377 0.961 . S
C363 H378 0.961 . S
C363 H379 0.961 . S
C364 C365 1.370 1_455 S
C364 C366 1.363 . S
C364 H380 0.931 . S
C365 C364 1.370 1_655 S
C365 C369 1.408 1_655 S
C366 C364 1.363 . S
C366 C367 1.370 . S
C366 C370 1.524 . S
C367 C359 1.503 . S
C367 C366 1.370 . S
C367 C368 1.403 . S
C368 C367 1.403 . S
C368 C369 1.404 . S
C368 C371 1.539 . S
C369 C365 1.408 1_455 S
C369 C368 1.404 . S
C369 H381 0.930 1_455 S
C370 C366 1.524 . S
C370 H382 0.956 . S
C370 H383 0.961 . S
C370 H384 0.961 . S
C371 C368 1.539 . S
C371 H385 0.958 . S
C371 H386 0.961 . S
C371 H387 0.960 . S
H372 C356 0.931 . S
H373 C361 0.929 . S
H374 C362 0.960 . S
H375 C362 0.962 . S
H376 C362 0.960 . S
H377 C363 0.961 . S
H378 C363 0.961 . S
H379 C363 0.961 . S
H380 C364 0.931 . S
H381 C369 0.930 1_655 S
H382 C370 0.956 . S
H383 C370 0.961 . S
H384 C370 0.961 . S
H385 C371 0.958 . S
H386 C371 0.961 . S
H387 C371 0.960 . S
C388 C389 1.391 . S
C388 C390 1.394 . S
C388 H404 0.931 . S
C389 C388 1.391 . S
C389 C393 1.376 . S
C390 C388 1.394 . S
C390 C391 1.369 . S
C390 C394 1.531 . S
C391 C390 1.369 . S
C391 C392 1.410 . S
C391 C399 1.503 . S
C392 C391 1.410 . S
C392 C393 1.392 . S
C392 C395 1.511 . S
C393 C389 1.376 . S
C393 C392 1.392 . S
C393 H405 0.929 . S
C394 C390 1.531 . S
C394 H406 0.960 . S
C394 H407 0.962 . S
C394 H408 0.960 . S
C395 C392 1.511 . S
C395 H409 0.961 . S
C395 H410 0.961 . S
C395 H411 0.961 . S
C396 C397 1.370 . S
C396 C398 1.363 . S
C396 H412 0.931 . S
C397 C396 1.370 . S
C397 C401 1.408 . S
C398 C396 1.363 . S
C398 C399 1.370 . S
C398 C402 1.524 . S
C399 C391 1.503 . S
C399 C398 1.370 . S
C399 C400 1.403 . S
C400 C399 1.403 . S
C400 C401 1.404 . S
C400 C403 1.539 . S
C401 C397 1.408 . S
C401 C400 1.404 . S
C401 H413 0.930 . S
C402 C398 1.524 . S
C402 H414 0.956 . S
C402 H415 0.961 . S
C402 H416 0.961 . S
C403 C400 1.539 . S
C403 H417 0.958 . S
C403 H418 0.961 . S
C403 H419 0.960 . S
H404 C388 0.931 . S
H405 C393 0.929 . S
H406 C394 0.960 . S
H407 C394 0.962 . S
H408 C394 0.960 . S
H409 C395 0.961 . S
H410 C395 0.961 . S
H411 C395 0.961 . S
H412 C396 0.931 . S
H413 C401 0.930 . S
H414 C402 0.956 . S
H415 C402 0.961 . S
H416 C402 0.961 . S
H417 C403 0.958 . S
H418 C403 0.961 . S
H419 C403 0.960 . S
C420 C421 1.391 1_656 S
C420 C422 1.394 . S
C420 H436 0.931 . S
C421 C420 1.391 1_454 S
C421 C425 1.376 1_455 S
C422 C420 1.394 . S
C422 C423 1.369 1_556 S
C422 C426 1.531 . S
C423 C422 1.369 1_554 S
C423 C424 1.410 . S
C423 C431 1.503 . S
C424 C423 1.410 . S
C424 C425 1.392 . S
C424 C427 1.511 . S
C425 C421 1.376 1_655 S
C425 C424 1.392 . S
C425 H437 0.929 1_655 S
C426 C422 1.531 . S
C426 H438 0.960 . S
C426 H439 0.962 . S
C426 H440 0.960 . S
C427 C424 1.511 . S
C427 H441 0.961 . S
C427 H442 0.961 . S
C427 H443 0.961 . S
C428 C429 1.370 . S
C428 C430 1.363 . S
C428 H444 0.931 . S
C429 C428 1.370 . S
C429 C433 1.408 . S
C430 C428 1.363 . S
C430 C431 1.370 . S
C430 C434 1.524 . S
C431 C423 1.503 . S
C431 C430 1.370 . S
C431 C432 1.403 . S
C432 C431 1.403 . S
C432 C433 1.404 . S
C432 C435 1.539 . S
C433 C429 1.408 . S
C433 C432 1.404 . S
C433 H445 0.930 . S
C434 C430 1.524 . S
C434 H446 0.956 1_554 S
C434 H447 0.961 . S
C434 H448 0.961 . S
C435 C432 1.539 . S
C435 H449 0.958 . S
C435 H450 0.961 . S
C435 H451 0.960 . S
H436 C420 0.931 . S
H437 C425 0.929 1_455 S
H438 C426 0.960 . S
H439 C426 0.962 . S
H440 C426 0.960 . S
H441 C427 0.961 . S
H442 C427 0.961 . S
H443 C427 0.961 . S
H444 C428 0.931 . S
H445 C433 0.930 . S
H446 C434 0.956 1_556 S
H447 C434 0.961 . S
H448 C434 0.961 . S
H449 C435 0.958 . S
H450 C435 0.961 . S
H451 C435 0.960 . S
C452 C453 1.391 . S
C452 C454 1.394 . S
C452 H468 0.931 . S
C453 C452 1.391 . S
C453 C457 1.376 . S
C454 C452 1.394 . S
C454 C455 1.369 . S
C454 C458 1.531 . S
C455 C454 1.369 . S
C455 C456 1.410 . S
C455 C463 1.503 . S
C456 C455 1.410 . S
C456 C457 1.392 . S
C456 C459 1.511 . S
C457 C453 1.376 . S
C457 C456 1.392 . S
C457 H469 0.929 . S
C458 C454 1.531 . S
C458 H470 0.960 . S
C458 H471 0.962 . S
C458 H472 0.960 . S
C459 C456 1.511 . S
C459 H473 0.961 . S
C459 H474 0.961 . S
C459 H475 0.961 . S
C460 C461 1.370 . S
C460 C462 1.363 . S
C460 H476 0.931 . S
C461 C460 1.370 . S
C461 C465 1.408 . S
C462 C460 1.363 . S
C462 C463 1.370 . S
C462 C466 1.524 . S
C463 C455 1.503 . S
C463 C462 1.370 . S
C463 C464 1.403 . S
C464 C463 1.403 . S
C464 C465 1.404 . S
C464 C467 1.539 . S
C465 C461 1.408 . S
C465 C464 1.404 . S
C465 H477 0.930 . S
C466 C462 1.524 . S
C466 H478 0.956 . S
C466 H479 0.961 . S
C466 H480 0.961 . S
C467 C464 1.539 . S
C467 H481 0.958 . S
C467 H482 0.961 . S
C467 H483 0.960 . S
H468 C452 0.931 . S
H469 C457 0.929 . S
H470 C458 0.960 . S
H471 C458 0.962 . S
H472 C458 0.960 . S
H473 C459 0.961 . S
H474 C459 0.961 . S
H475 C459 0.961 . S
H476 C460 0.931 . S
H477 C465 0.930 . S
H478 C466 0.956 . S
H479 C466 0.961 . S
H480 C466 0.961 . S
H481 C467 0.958 . S
H482 C467 0.961 . S
H483 C467 0.960 . S
C484 C485 1.391 . S
C484 C486 1.394 . S
C484 H500 0.931 . S
C485 C484 1.391 . S
C485 C489 1.376 . S
C486 C484 1.394 . S
C486 C487 1.369 . S
C486 C490 1.531 . S
C487 C486 1.369 . S
C487 C488 1.410 . S
C487 C495 1.503 . S
C488 C487 1.410 . S
C488 C489 1.392 . S
C488 C491 1.511 . S
C489 C485 1.376 . S
C489 C488 1.392 . S
C489 H501 0.929 . S
C490 C486 1.531 . S
C490 H502 0.960 . S
C490 H503 0.962 . S
C490 H504 0.960 . S
C491 C488 1.511 . S
C491 H505 0.961 . S
C491 H506 0.961 . S
C491 H507 0.961 . S
C492 C493 1.370 1_545 S
C492 C494 1.363 . S
C492 H508 0.931 . S
C493 C492 1.370 1_565 S
C493 C497 1.408 1_565 S
C494 C492 1.363 . S
C494 C495 1.370 . S
C494 C498 1.524 . S
C495 C487 1.503 . S
C495 C494 1.370 . S
C495 C496 1.403 . S
C496 C495 1.403 . S
C496 C497 1.404 . S
C496 C499 1.539 . S
C497 C493 1.408 1_545 S
C497 C496 1.404 . S
C497 H509 0.930 1_545 S
C498 C494 1.524 . S
C498 H510 0.956 . S
C498 H511 0.961 . S
C498 H512 0.961 . S
C499 C496 1.539 . S
C499 H513 0.958 . S
C499 H514 0.961 . S
C499 H515 0.960 . S
H500 C484 0.931 . S
H501 C489 0.929 . S
H502 C490 0.960 . S
H503 C490 0.962 . S
H504 C490 0.960 . S
H505 C491 0.961 . S
H506 C491 0.961 . S
H507 C491 0.961 . S
H508 C492 0.931 . S
H509 C497 0.930 1_565 S
H510 C498 0.956 . S
H511 C498 0.961 . S
H512 C498 0.961 . S
H513 C499 0.958 . S
H514 C499 0.961 . S
H515 C499 0.960 . S
C516 C517 1.391 . S
C516 C518 1.394 . S
C516 H532 0.931 . S
C517 C516 1.391 . S
C517 C521 1.376 . S
C518 C516 1.394 . S
C518 C519 1.369 . S
C518 C522 1.531 . S
C519 C518 1.369 . S
C519 C520 1.410 . S
C519 C527 1.503 . S
C520 C519 1.410 . S
C520 C521 1.392 . S
C520 C523 1.511 . S
C521 C517 1.376 . S
C521 C520 1.392 . S
C521 H533 0.929 . S
C522 C518 1.531 . S
C522 H534 0.960 . S
C522 H535 0.962 . S
C522 H536 0.960 . S
C523 C520 1.511 . S
C523 H537 0.961 . S
C523 H538 0.961 . S
C523 H539 0.961 . S
C524 C525 1.370 . S
C524 C526 1.363 . S
C524 H540 0.931 . S
C525 C524 1.370 . S
C525 C529 1.408 . S
C526 C524 1.363 . S
C526 C527 1.370 . S
C526 C530 1.524 . S
C527 C519 1.503 . S
C527 C526 1.370 . S
C527 C528 1.403 . S
C528 C527 1.403 . S
C528 C529 1.404 . S
C528 C531 1.539 . S
C529 C525 1.408 . S
C529 C528 1.404 . S
C529 H541 0.930 . S
C530 C526 1.524 . S
C530 H542 0.956 . S
C530 H543 0.961 . S
C530 H544 0.961 . S
C531 C528 1.539 . S
C531 H545 0.958 . S
C531 H546 0.961 . S
C531 H547 0.960 . S
H532 C516 0.931 . S
H533 C521 0.929 . S
H534 C522 0.960 . S
H535 C522 0.962 . S
H536 C522 0.960 . S
H537 C523 0.961 . S
H538 C523 0.961 . S
H539 C523 0.961 . S
H540 C524 0.931 . S
H541 C529 0.930 . S
H542 C530 0.956 . S
H543 C530 0.961 . S
H544 C530 0.961 . S
H545 C531 0.958 . S
H546 C531 0.961 . S
H547 C531 0.960 . S
C548 C549 1.391 . S
C548 C550 1.394 . S
C548 H564 0.931 . S
C549 C548 1.391 . S
C549 C553 1.376 . S
C550 C548 1.394 . S
C550 C551 1.369 . S
C550 C554 1.531 . S
C551 C550 1.369 . S
C551 C552 1.410 . S
C551 C559 1.503 . S
C552 C551 1.410 . S
C552 C553 1.392 . S
C552 C555 1.511 . S
C553 C549 1.376 . S
C553 C552 1.392 . S
C553 H565 0.929 . S
C554 C550 1.531 . S
C554 H566 0.960 . S
C554 H567 0.962 . S
C554 H568 0.960 . S
C555 C552 1.511 . S
C555 H569 0.961 . S
C555 H570 0.961 . S
C555 H571 0.961 . S
C556 C557 1.370 . S
C556 C558 1.363 . S
C556 H572 0.931 . S
C557 C556 1.370 . S
C557 C561 1.408 . S
C558 C556 1.363 . S
C558 C559 1.370 . S
C558 C562 1.524 . S
C559 C551 1.503 . S
C559 C558 1.370 . S
C559 C560 1.403 . S
C560 C559 1.403 . S
C560 C561 1.404 . S
C560 C563 1.539 . S
C561 C557 1.408 . S
C561 C560 1.404 . S
C561 H573 0.930 . S
C562 C558 1.524 . S
C562 H574 0.956 . S
C562 H575 0.961 . S
C562 H576 0.961 . S
C563 C560 1.539 . S
C563 H577 0.958 . S
C563 H578 0.961 . S
C563 H579 0.960 . S
H564 C548 0.931 . S
H565 C553 0.929 . S
H566 C554 0.960 . S
H567 C554 0.962 . S
H568 C554 0.960 . S
H569 C555 0.961 . S
H570 C555 0.961 . S
H571 C555 0.961 . S
H572 C556 0.931 . S
H573 C561 0.930 . S
H574 C562 0.956 . S
H575 C562 0.961 . S
H576 C562 0.961 . S
H577 C563 0.958 . S
H578 C563 0.961 . S
H579 C563 0.960 . S
C580 C581 1.391 . S
C580 C582 1.394 . S
C580 H596 0.931 . S
C581 C580 1.391 . S
C581 C585 1.376 . S
C582 C580 1.394 . S
C582 C583 1.369 . S
C582 C586 1.531 . S
C583 C582 1.369 . S
C583 C584 1.410 . S
C583 C591 1.503 . S
C584 C583 1.410 . S
C584 C585 1.392 . S
C584 C587 1.511 . S
C585 C581 1.376 . S
C585 C584 1.392 . S
C585 H597 0.929 . S
C586 C582 1.531 . S
C586 H598 0.960 . S
C586 H599 0.962 . S
C586 H600 0.960 . S
C587 C584 1.511 . S
C587 H601 0.961 . S
C587 H602 0.961 . S
C587 H603 0.961 . S
C588 C589 1.370 . S
C588 C590 1.363 . S
C588 H604 0.931 . S
C589 C588 1.370 . S
C589 C593 1.408 . S
C590 C588 1.363 . S
C590 C591 1.370 . S
C590 C594 1.524 . S
C591 C583 1.503 . S
C591 C590 1.370 . S
C591 C592 1.403 . S
C592 C591 1.403 . S
C592 C593 1.404 . S
C592 C595 1.539 . S
C593 C589 1.408 . S
C593 C592 1.404 . S
C593 H605 0.930 . S
C594 C590 1.524 . S
C594 H606 0.956 . S
C594 H607 0.961 . S
C594 H608 0.961 . S
C595 C592 1.539 . S
C595 H609 0.958 . S
C595 H610 0.961 . S
C595 H611 0.960 . S
H596 C580 0.931 . S
H597 C585 0.929 . S
H598 C586 0.960 . S
H599 C586 0.962 . S
H600 C586 0.960 . S
H601 C587 0.961 . S
H602 C587 0.961 . S
H603 C587 0.961 . S
H604 C588 0.931 . S
H605 C593 0.930 . S
H606 C594 0.956 . S
H607 C594 0.961 . S
H608 C594 0.961 . S
H609 C595 0.958 . S
H610 C595 0.961 . S
H611 C595 0.960 . S
C612 C613 1.391 . S
C612 C614 1.394 . S
C612 H628 0.931 . S
C613 C612 1.391 . S
C613 C617 1.376 . S
C614 C612 1.394 . S
C614 C615 1.369 . S
C614 C618 1.531 . S
C615 C614 1.369 . S
C615 C616 1.410 . S
C615 C623 1.503 . S
C616 C615 1.410 . S
C616 C617 1.392 . S
C616 C619 1.511 . S
C617 C613 1.376 . S
C617 C616 1.392 . S
C617 H629 0.929 . S
C618 C614 1.531 . S
C618 H630 0.960 . S
C618 H631 0.962 . S
C618 H632 0.960 . S
C619 C616 1.511 . S
C619 H633 0.961 . S
C619 H634 0.961 . S
C619 H635 0.961 . S
C620 C621 1.370 . S
C620 C622 1.363 . S
C620 H636 0.931 . S
C621 C620 1.370 . S
C621 C625 1.408 . S
C622 C620 1.363 . S
C622 C623 1.370 . S
C622 C626 1.524 . S
C623 C615 1.503 . S
C623 C622 1.370 . S
C623 C624 1.403 . S
C624 C623 1.403 . S
C624 C625 1.404 . S
C624 C627 1.539 . S
C625 C621 1.408 . S
C625 C624 1.404 . S
C625 H637 0.930 . S
C626 C622 1.524 . S
C626 H638 0.956 . S
C626 H639 0.961 . S
C626 H640 0.961 . S
C627 C624 1.539 . S
C627 H641 0.958 . S
C627 H642 0.961 . S
C627 H643 0.960 . S
H628 C612 0.931 . S
H629 C617 0.929 . S
H630 C618 0.960 . S
H631 C618 0.962 . S
H632 C618 0.960 . S
H633 C619 0.961 . S
H634 C619 0.961 . S
H635 C619 0.961 . S
H636 C620 0.931 . S
H637 C625 0.930 . S
H638 C626 0.956 . S
H639 C626 0.961 . S
H640 C626 0.961 . S
H641 C627 0.958 . S
H642 C627 0.961 . S
H643 C627 0.960 . S
C644 C645 1.391 . S
C644 C646 1.394 . S
C644 H660 0.931 . S
C645 C644 1.391 . S
C645 C649 1.376 . S
C646 C644 1.394 . S
C646 C647 1.369 . S
C646 C650 1.531 . S
C647 C646 1.369 . S
C647 C648 1.410 . S
C647 C655 1.503 . S
C648 C647 1.410 . S
C648 C649 1.392 . S
C648 C651 1.511 . S
C649 C645 1.376 . S
C649 C648 1.392 . S
C649 H661 0.929 . S
C650 C646 1.531 . S
C650 H662 0.960 . S
C650 H663 0.962 . S
C650 H664 0.960 . S
C651 C648 1.511 . S
C651 H665 0.961 . S
C651 H666 0.961 . S
C651 H667 0.961 . S
C652 C653 1.370 . S
C652 C654 1.363 . S
C652 H668 0.931 . S
C653 C652 1.370 . S
C653 C657 1.408 . S
C654 C652 1.363 . S
C654 C655 1.370 . S
C654 C658 1.524 . S
C655 C647 1.503 . S
C655 C654 1.370 . S
C655 C656 1.403 . S
C656 C655 1.403 . S
C656 C657 1.404 . S
C656 C659 1.539 . S
C657 C653 1.408 . S
C657 C656 1.404 . S
C657 H669 0.930 . S
C658 C654 1.524 . S
C658 H670 0.956 . S
C658 H671 0.961 . S
C658 H672 0.961 . S
C659 C656 1.539 . S
C659 H673 0.958 . S
C659 H674 0.961 . S
C659 H675 0.960 . S
H660 C644 0.931 . S
H661 C649 0.929 . S
H662 C650 0.960 . S
H663 C650 0.962 . S
H664 C650 0.960 . S
H665 C651 0.961 . S
H666 C651 0.961 . S
H667 C651 0.961 . S
H668 C652 0.931 . S
H669 C657 0.930 . S
H670 C658 0.956 . S
H671 C658 0.961 . S
H672 C658 0.961 . S
H673 C659 0.958 . S
H674 C659 0.961 . S
H675 C659 0.960 . S
C676 C677 1.391 . S
C676 C678 1.394 . S
C676 H692 0.931 . S
C677 C676 1.391 . S
C677 C681 1.376 . S
C678 C676 1.394 . S
C678 C679 1.369 . S
C678 C682 1.531 . S
C679 C678 1.369 . S
C679 C680 1.410 . S
C679 C687 1.503 . S
C680 C679 1.410 . S
C680 C681 1.392 . S
C680 C683 1.511 . S
C681 C677 1.376 . S
C681 C680 1.392 . S
C681 H693 0.929 . S
C682 C678 1.531 . S
C682 H694 0.960 . S
C682 H695 0.962 . S
C682 H696 0.960 . S
C683 C680 1.511 . S
C683 H697 0.961 . S
C683 H698 0.961 . S
C683 H699 0.961 . S
C684 C685 1.370 . S
C684 C686 1.363 . S
C684 H700 0.931 . S
C685 C684 1.370 . S
C685 C689 1.408 . S
C686 C684 1.363 . S
C686 C687 1.370 . S
C686 C690 1.524 . S
C687 C679 1.503 . S
C687 C686 1.370 . S
C687 C688 1.403 . S
C688 C687 1.403 . S
C688 C689 1.404 . S
C688 C691 1.539 . S
C689 C685 1.408 . S
C689 C688 1.404 . S
C689 H701 0.930 . S
C690 C686 1.524 . S
C690 H702 0.956 . S
C690 H703 0.961 . S
C690 H704 0.961 . S
C691 C688 1.539 . S
C691 H705 0.958 . S
C691 H706 0.961 . S
C691 H707 0.960 . S
H692 C676 0.931 . S
H693 C681 0.929 . S
H694 C682 0.960 . S
H695 C682 0.962 . S
H696 C682 0.960 . S
H697 C683 0.961 . S
H698 C683 0.961 . S
H699 C683 0.961 . S
H700 C684 0.931 . S
H701 C689 0.930 . S
H702 C690 0.956 . S
H703 C690 0.961 . S
H704 C690 0.961 . S
H705 C691 0.958 . S
H706 C691 0.961 . S
H707 C691 0.960 . S
C133 C84 1.817 . S
C141 C8 1.806 . S
C165 C32 1.805 . S
C173 C106 1.814 . S
C197 C128 1.804 . S
C205 C52 1.803 . S
C229 C125 0.852 . S
C237 C7 0.867 . S
C261 C43 0.836 . S
C269 C81 0.854 . S
C293 C51 0.840 . S
C301 C103 0.855 . S
C325 C18 1.385 . S
C333 C87 1.381 . S
C357 C109 1.394 . S
C365 C30 1.380 . S
C389 C131 1.357 . S
C397 C62 1.381 . S
C421 C76 1.414 1_554 S
C429 C15 1.396 . S
C453 C98 1.359 . S
C461 C29 1.378 . S
C485 C59 1.416 . S
C493 C120 1.396 . S
C517 C21 1.285 . S
C525 C54 1.277 . S
C549 C10 1.293 . S
C557 C37 1.292 . S
C581 C65 1.282 . S
C589 C40 1.276 . S
C613 C73 1.288 . S
C621 C96 1.289 . S
C645 C95 1.281 . S
C653 C118 1.284 . S
C677 C74 1.265 . S
C685 C117 1.288 . S
