# Generated by pormake.
# Topology wjr, (5)-cn, num edge types: 1
# Building blocks:
#     Node 0, Type 0, BuildingBlock: XOMCOT_clean_sbu_1, # of connection points: 5
#     Node 1, Type 0, BuildingBlock: XOMCOT_clean_sbu_1, # of connection points: 5
#     Node 2, Type 0, BuildingBlock: XOMCOT_clean_sbu_1, # of connection points: 5
#     Node 3, Type 0, BuildingBlock: XOMCOT_clean_sbu_1, # of connection points: 5
#     Node 4, Type 0, BuildingBlock: XOMCOT_clean_sbu_1, # of connection points: 5
#     Node 5, Type 0, BuildingBlock: XOMCOT_clean_sbu_1, # of connection points: 5
#     Node 6, Type 0, BuildingBlock: XOMCOT_clean_sbu_1, # of connection points: 5
#     Node 7, Type 0, BuildingBlock: XOMCOT_clean_sbu_1, # of connection points: 5
#     Node 8, Type 0, BuildingBlock: XOMCOT_clean_sbu_1, # of connection points: 5
#     Node 9, Type 0, BuildingBlock: XOMCOT_clean_sbu_1, # of connection points: 5
#     Node 10, Type 0, BuildingBlock: XOMCOT_clean_sbu_1, # of connection points: 5
#     Node 11, Type 0, BuildingBlock: XOMCOT_clean_sbu_1, # of connection points: 5
#     Node 12, Type 0, BuildingBlock: XOMCOT_clean_sbu_1, # of connection points: 5
#     Node 13, Type 0, BuildingBlock: XOMCOT_clean_sbu_1, # of connection points: 5
#     Node 14, Type 0, BuildingBlock: XOMCOT_clean_sbu_1, # of connection points: 5
#     Node 15, Type 0, BuildingBlock: XOMCOT_clean_sbu_1, # of connection points: 5
#     Node 16, Type 0, BuildingBlock: XOMCOT_clean_sbu_1, # of connection points: 5
#     Node 17, Type 0, BuildingBlock: XOMCOT_clean_sbu_1, # of connection points: 5
#     Node 18, Type 0, BuildingBlock: XOMCOT_clean_sbu_1, # of connection points: 5
#     Node 19, Type 0, BuildingBlock: XOMCOT_clean_sbu_1, # of connection points: 5
#     Node 20, Type 0, BuildingBlock: XOMCOT_clean_sbu_1, # of connection points: 5
#     Node 21, Type 0, BuildingBlock: XOMCOT_clean_sbu_1, # of connection points: 5
#     Node 22, Type 0, BuildingBlock: XOMCOT_clean_sbu_1, # of connection points: 5
#     Node 23, Type 0, BuildingBlock: XOMCOT_clean_sbu_1, # of connection points: 5
#     Edge 24, Type (0, 0), BuildingBlock: UVAHIK_clean_linker_0, # of connection points: 2
#     Edge 25, Type (0, 0), BuildingBlock: UVAHIK_clean_linker_0, # of connection points: 2
#     Edge 26, Type (0, 0), BuildingBlock: UVAHIK_clean_linker_0, # of connection points: 2
#     Edge 27, Type (0, 0), BuildingBlock: UVAHIK_clean_linker_0, # of connection points: 2
#     Edge 28, Type (0, 0), BuildingBlock: UVAHIK_clean_linker_0, # of connection points: 2
#     Edge 29, Type (0, 0), BuildingBlock: UVAHIK_clean_linker_0, # of connection points: 2
#     Edge 30, Type (0, 0), BuildingBlock: UVAHIK_clean_linker_0, # of connection points: 2
#     Edge 31, Type (0, 0), BuildingBlock: UVAHIK_clean_linker_0, # of connection points: 2
#     Edge 32, Type (0, 0), BuildingBlock: UVAHIK_clean_linker_0, # of connection points: 2
#     Edge 33, Type (0, 0), BuildingBlock: UVAHIK_clean_linker_0, # of connection points: 2
#     Edge 34, Type (0, 0), BuildingBlock: UVAHIK_clean_linker_0, # of connection points: 2
#     Edge 35, Type (0, 0), BuildingBlock: UVAHIK_clean_linker_0, # of connection points: 2
#     Edge 36, Type (0, 0), BuildingBlock: UVAHIK_clean_linker_0, # of connection points: 2
#     Edge 37, Type (0, 0), BuildingBlock: UVAHIK_clean_linker_0, # of connection points: 2
#     Edge 38, Type (0, 0), BuildingBlock: UVAHIK_clean_linker_0, # of connection points: 2
#     Edge 39, Type (0, 0), BuildingBlock: UVAHIK_clean_linker_0, # of connection points: 2
#     Edge 40, Type (0, 0), BuildingBlock: UVAHIK_clean_linker_0, # of connection points: 2
#     Edge 41, Type (0, 0), BuildingBlock: UVAHIK_clean_linker_0, # of connection points: 2
#     Edge 42, Type (0, 0), BuildingBlock: UVAHIK_clean_linker_0, # of connection points: 2
#     Edge 43, Type (0, 0), BuildingBlock: UVAHIK_clean_linker_0, # of connection points: 2
#     Edge 44, Type (0, 0), BuildingBlock: UVAHIK_clean_linker_0, # of connection points: 2
#     Edge 45, Type (0, 0), BuildingBlock: UVAHIK_clean_linker_0, # of connection points: 2
#     Edge 46, Type (0, 0), BuildingBlock: UVAHIK_clean_linker_0, # of connection points: 2
#     Edge 47, Type (0, 0), BuildingBlock: UVAHIK_clean_linker_0, # of connection points: 2
#     Edge 48, Type (0, 0), BuildingBlock: UVAHIK_clean_linker_0, # of connection points: 2
#     Edge 49, Type (0, 0), BuildingBlock: UVAHIK_clean_linker_0, # of connection points: 2
#     Edge 50, Type (0, 0), BuildingBlock: UVAHIK_clean_linker_0, # of connection points: 2
#     Edge 51, Type (0, 0), BuildingBlock: UVAHIK_clean_linker_0, # of connection points: 2
#     Edge 52, Type (0, 0), BuildingBlock: UVAHIK_clean_linker_0, # of connection points: 2
#     Edge 53, Type (0, 0), BuildingBlock: UVAHIK_clean_linker_0, # of connection points: 2
#     Edge 54, Type (0, 0), BuildingBlock: UVAHIK_clean_linker_0, # of connection points: 2
#     Edge 55, Type (0, 0), BuildingBlock: UVAHIK_clean_linker_0, # of connection points: 2
#     Edge 56, Type (0, 0), BuildingBlock: UVAHIK_clean_linker_0, # of connection points: 2
#     Edge 57, Type (0, 0), BuildingBlock: UVAHIK_clean_linker_0, # of connection points: 2
#     Edge 58, Type (0, 0), BuildingBlock: UVAHIK_clean_linker_0, # of connection points: 2
#     Edge 59, Type (0, 0), BuildingBlock: UVAHIK_clean_linker_0, # of connection points: 2
#     Edge 60, Type (0, 0), BuildingBlock: UVAHIK_clean_linker_0, # of connection points: 2
#     Edge 61, Type (0, 0), BuildingBlock: UVAHIK_clean_linker_0, # of connection points: 2
#     Edge 62, Type (0, 0), BuildingBlock: UVAHIK_clean_linker_0, # of connection points: 2
#     Edge 63, Type (0, 0), BuildingBlock: UVAHIK_clean_linker_0, # of connection points: 2
#     Edge 64, Type (0, 0), BuildingBlock: UVAHIK_clean_linker_0, # of connection points: 2
#     Edge 65, Type (0, 0), BuildingBlock: UVAHIK_clean_linker_0, # of connection points: 2
#     Edge 66, Type (0, 0), BuildingBlock: UVAHIK_clean_linker_0, # of connection points: 2
#     Edge 67, Type (0, 0), BuildingBlock: UVAHIK_clean_linker_0, # of connection points: 2
#     Edge 68, Type (0, 0), BuildingBlock: UVAHIK_clean_linker_0, # of connection points: 2
#     Edge 69, Type (0, 0), BuildingBlock: UVAHIK_clean_linker_0, # of connection points: 2
#     Edge 70, Type (0, 0), BuildingBlock: UVAHIK_clean_linker_0, # of connection points: 2
#     Edge 71, Type (0, 0), BuildingBlock: UVAHIK_clean_linker_0, # of connection points: 2
#     Edge 72, Type (0, 0), BuildingBlock: UVAHIK_clean_linker_0, # of connection points: 2
#     Edge 73, Type (0, 0), BuildingBlock: UVAHIK_clean_linker_0, # of connection points: 2
#     Edge 74, Type (0, 0), BuildingBlock: UVAHIK_clean_linker_0, # of connection points: 2
#     Edge 75, Type (0, 0), BuildingBlock: UVAHIK_clean_linker_0, # of connection points: 2
#     Edge 76, Type (0, 0), BuildingBlock: UVAHIK_clean_linker_0, # of connection points: 2
#     Edge 77, Type (0, 0), BuildingBlock: UVAHIK_clean_linker_0, # of connection points: 2
#     Edge 78, Type (0, 0), BuildingBlock: UVAHIK_clean_linker_0, # of connection points: 2
#     Edge 79, Type (0, 0), BuildingBlock: UVAHIK_clean_linker_0, # of connection points: 2
#     Edge 80, Type (0, 0), BuildingBlock: UVAHIK_clean_linker_0, # of connection points: 2
#     Edge 81, Type (0, 0), BuildingBlock: UVAHIK_clean_linker_0, # of connection points: 2
#     Edge 82, Type (0, 0), BuildingBlock: UVAHIK_clean_linker_0, # of connection points: 2
#     Edge 83, Type (0, 0), BuildingBlock: UVAHIK_clean_linker_0, # of connection points: 2
# Relax obj value: 0.608
# Max RMSD: 0.257
# Mean RMSD: 0.257
data_MOF--net-wjr--node1-XOMCOT_clean_sbu_1--edge1-UVAHIK_clean_linker_0
_symmetry_space_group_name_H-M    P1
_symmetry_Int_Tables_number       1
_symmetry_cell_setting            triclinic
loop_
_symmetry_equiv_pos_as_xyz
'x, y, z'
_cell_length_a     78.981597
_cell_length_b     79.018568
_cell_length_c     60.793543
_cell_angle_alpha  90.031224
_cell_angle_beta   89.964214
_cell_angle_gamma 119.99481
loop_
_atom_site_label
_atom_site_type_symbol
_atom_site_fract_x
_atom_site_fract_y
_atom_site_fract_z
_atom_type_partial_charge
C0 C 0.45931 0.1528 0.14476 0.0
C1 C 0.46361 0.17065 0.15327 0.0
N2 N 0.46967 0.17171 0.17423 0.0
N3 N 0.46264 0.14262 0.16022 0.0
C4 C 0.46915 0.15459 0.1779 0.0
H5 H 0.45344 0.14727 0.12859 0.0
Co6 Co 0.45615 0.11672 0.15713 0.0
C7 C 0.47496 0.10851 0.19441 0.0
O8 O 0.45882 0.09171 0.19743 0.0
N9 N 0.44949 0.09014 0.15322 0.0
C10 C 0.43395 0.05793 0.14773 0.0
C11 C 0.43178 0.074 0.15025 0.0
C12 C 0.46222 0.0834 0.15144 0.0
N13 N 0.45311 0.06384 0.14858 0.0
O14 O 0.47563 0.12415 0.1347 0.0
H15 H 0.41797 0.07358 0.14933 0.0
H16 H 0.47792 0.09266 0.1527 0.0
O17 O 0.47567 0.12015 0.17934 0.0
C18 C 0.46832 0.11877 0.11558 0.0
O19 O 0.44921 0.10931 0.11339 0.0
N20 N 0.43592 0.10967 0.1779 0.0
C21 C 0.40204 0.09183 0.20336 0.0
C22 C 0.42049 0.10304 0.21328 0.0
C23 C 0.4373 0.11196 0.20022 0.0
C24 C 0.41817 0.10244 0.16806 0.0
C25 C 0.401 0.09277 0.18034 0.0
H26 H 0.45127 0.11999 0.20826 0.0
H27 H 0.41733 0.10261 0.1503 0.0
H28 H 0.4725 0.15045 0.19352 0.0
H29 H 0.46193 0.18176 0.1448 0.0
H30 H 0.42231 0.04307 0.14502 0.0
H31 H 0.42211 0.1042 0.23098 0.0
H32 H 0.38732 0.085 0.17155 0.0
C33 C 0.30118 0.43755 0.13743 0.0
C34 C 0.2863 0.437 0.14966 0.0
N35 N 0.29415 0.4512 0.16498 0.0
N36 N 0.31844 0.45205 0.14487 0.0
C37 C 0.31368 0.46035 0.1615 0.0
H38 H 0.29961 0.42738 0.1246 0.0
Co39 Co 0.34234 0.45538 0.1348 0.0
C40 C 0.36661 0.47195 0.17497 0.0
O41 O 0.37091 0.45788 0.17512 0.0
N42 N 0.36627 0.45872 0.12333 0.0
C43 C 0.38605 0.45562 0.09951 0.0
C44 C 0.36708 0.45075 0.10401 0.0
C45 C 0.3853 0.46949 0.12945 0.0
N46 N 0.39761 0.46737 0.11568 0.0
O47 O 0.34641 0.47737 0.1176 0.0
H48 H 0.35452 0.44175 0.0938 0.0
H49 H 0.39034 0.4794 0.14319 0.0
O50 O 0.35587 0.47267 0.15968 0.0
C51 C 0.33666 0.47255 0.09978 0.0
O52 O 0.32493 0.45391 0.09565 0.0
N53 N 0.33737 0.43265 0.15081 0.0
C54 C 0.32933 0.39825 0.17273 0.0
C55 C 0.3272 0.41279 0.18347 0.0
C56 C 0.33112 0.42975 0.1722 0.0
C57 C 0.33778 0.41788 0.13963 0.0
C58 C 0.33429 0.40083 0.15034 0.0
H59 H 0.32952 0.44076 0.18095 0.0
H60 H 0.34067 0.41906 0.12226 0.0
H61 H 0.32431 0.47185 0.17191 0.0
H62 H 0.2709 0.42647 0.14789 0.0
H63 H 0.39078 0.45056 0.08555 0.0
H64 H 0.32268 0.41121 0.20052 0.0
H65 H 0.33592 0.38999 0.14114 0.0
C66 C 0.84742 0.31377 0.13123 0.0
C67 C 0.8298 0.29959 0.13958 0.0
N68 N 0.82832 0.3043 0.16054 0.0
N69 N 0.85705 0.32738 0.1468 0.0
C70 C 0.84493 0.32139 0.16437 0.0
H71 H 0.85329 0.31369 0.11518 0.0
Co72 Co 0.88288 0.34699 0.14356 0.0
C73 C 0.89169 0.37364 0.18112 0.0
O74 O 0.90864 0.37442 0.1831 0.0
N75 N 0.9094 0.36703 0.13918 0.0
C76 C 0.94118 0.38342 0.13113 0.0
C77 C 0.92518 0.36527 0.13449 0.0
C78 C 0.91625 0.38654 0.13774 0.0
N79 N 0.93561 0.39688 0.13323 0.0
O80 O 0.87507 0.35898 0.12162 0.0
H81 H 0.92533 0.35178 0.13286 0.0
H82 H 0.90707 0.393 0.13975 0.0
O83 O 0.87961 0.36293 0.16622 0.0
C84 C 0.88018 0.35718 0.10232 0.0
O85 O 0.88969 0.34763 0.09959 0.0
N86 N 0.89025 0.33387 0.1642 0.0
C87 C 0.90831 0.31898 0.19087 0.0
C88 C 0.89683 0.32612 0.20013 0.0
C89 C 0.88748 0.33304 0.18645 0.0
C90 C 0.89804 0.32356 0.15498 0.0
C91 C 0.90767 0.31642 0.16798 0.0
H92 H 0.87901 0.33867 0.19407 0.0
H93 H 0.89799 0.3221 0.13729 0.0
H94 H 0.84866 0.32873 0.18011 0.0
H95 H 0.81926 0.28645 0.13112 0.0
H96 H 0.95584 0.38639 0.12758 0.0
H97 H 0.89624 0.32784 0.21774 0.0
H98 H 0.91548 0.31003 0.16013 0.0
C99 C 0.55089 0.86257 0.1347 0.0
C100 C 0.54919 0.84574 0.14347 0.0
N101 N 0.54085 0.8429 0.16349 0.0
N102 N 0.54374 0.87034 0.14913 0.0
C103 C 0.5375 0.85793 0.16642 0.0
H104 H 0.55761 0.86918 0.11916 0.0
Co105 Co 0.54608 0.89463 0.14536 0.0
C106 C 0.52515 0.89941 0.18313 0.0
O107 O 0.5399 0.91712 0.18649 0.0
N108 N 0.54865 0.91963 0.1407 0.0
C109 C 0.56038 0.951 0.13245 0.0
C110 C 0.56492 0.93652 0.13524 0.0
C111 C 0.53426 0.92426 0.14027 0.0
N112 N 0.54106 0.94334 0.13566 0.0
O113 O 0.52607 0.88366 0.12335 0.0
H114 H 0.57927 0.93848 0.13273 0.0
H115 H 0.519 0.91371 0.14304 0.0
O116 O 0.52589 0.88876 0.16772 0.0
C117 C 0.53093 0.88929 0.10356 0.0
O118 O 0.54885 0.90326 0.09932 0.0
N119 N 0.56684 0.9049 0.16588 0.0
C120 C 0.60061 0.92439 0.19145 0.0
C121 C 0.58244 0.91174 0.20122 0.0
C122 C 0.56575 0.90188 0.1881 0.0
C123 C 0.58469 0.91427 0.15601 0.0
C124 C 0.60169 0.92474 0.16837 0.0
H125 H 0.55206 0.89213 0.196 0.0
H126 H 0.58564 0.91434 0.13826 0.0
H127 H 0.53162 0.86039 0.18137 0.0
H128 H 0.55413 0.83656 0.13591 0.0
H129 H 0.57067 0.96609 0.12852 0.0
H130 H 0.58096 0.90977 0.21887 0.0
H131 H 0.61529 0.9337 0.15975 0.0
C132 C 0.69134 0.55928 0.16253 0.0
C133 C 0.70999 0.563 0.16671 0.0
N134 N 0.70911 0.54615 0.1727 0.0
N135 N 0.67861 0.5402 0.16605 0.0
C136 C 0.68997 0.53243 0.17116 0.0
H137 H 0.68719 0.57007 0.15869 0.0
Co138 Co 0.65149 0.53007 0.16777 0.0
C139 C 0.65292 0.50137 0.2032 0.0
O140 O 0.67068 0.51012 0.21141 0.0
N141 N 0.62434 0.5203 0.16978 0.0
C142 C 0.59568 0.51002 0.18617 0.0
C143 C 0.61445 0.51388 0.18891 0.0
C144 C 0.61111 0.5203 0.15553 0.0
N145 N 0.59352 0.5142 0.16528 0.0
O146 O 0.64768 0.51276 0.14385 0.0
H147 H 0.6207 0.51292 0.20434 0.0
H148 H 0.61457 0.52565 0.13881 0.0
O149 O 0.64813 0.50976 0.18848 0.0
C150 C 0.65278 0.52172 0.12552 0.0
O151 O 0.65888 0.54054 0.12514 0.0
N152 N 0.65545 0.54813 0.18997 0.0
C153 C 0.66172 0.57861 0.21809 0.0
C154 C 0.66597 0.56418 0.22491 0.0
C155 C 0.66291 0.54912 0.21047 0.0
C156 C 0.65143 0.56213 0.18302 0.0
C157 C 0.65439 0.57746 0.19681 0.0
H158 H 0.6669 0.53865 0.21574 0.0
H159 H 0.64598 0.56141 0.16652 0.0
H160 H 0.68428 0.51719 0.17486 0.0
H161 H 0.72301 0.57728 0.16672 0.0
H162 H 0.58455 0.50497 0.19883 0.0
H163 H 0.67192 0.56471 0.2411 0.0
H164 H 0.65073 0.58817 0.19093 0.0
C165 C 0.16633 0.68065 0.1457 0.0
C166 C 0.18255 0.697 0.15377 0.0
N167 N 0.17756 0.70186 0.17288 0.0
N168 N 0.15088 0.67559 0.15921 0.0
C169 C 0.15849 0.68867 0.17586 0.0
H170 H 0.16637 0.67215 0.13178 0.0
Co171 Co 0.12661 0.65178 0.15962 0.0
C172 C 0.14848 0.63923 0.18141 0.0
O173 O 0.14779 0.65064 0.19666 0.0
N174 N 0.10322 0.62833 0.16164 0.0
C175 C 0.07614 0.60649 0.17847 0.0
C176 C 0.09287 0.62423 0.18041 0.0
C177 C 0.09268 0.61264 0.14849 0.0
N178 N 0.07593 0.59916 0.15841 0.0
O179 O 0.12756 0.64947 0.12731 0.0
H180 H 0.09732 0.63367 0.19468 0.0
H181 H 0.09706 0.6112 0.13204 0.0
O182 O 0.14038 0.63788 0.16291 0.0
C183 C 0.132 0.66295 0.11297 0.0
O184 O 0.13546 0.68028 0.11941 0.0
N185 N 0.11189 0.66473 0.15783 0.0
C186 C 0.08295 0.67502 0.1633 0.0
C187 C 0.09708 0.67928 0.17959 0.0
C188 C 0.11114 0.67369 0.17667 0.0
C189 C 0.09827 0.66059 0.1417 0.0
C190 C 0.08412 0.66615 0.14383 0.0
H191 H 0.11986 0.6745 0.19063 0.0
H192 H 0.09706 0.65152 0.12786 0.0
H193 H 0.15087 0.68763 0.19094 0.0
H194 H 0.19722 0.70374 0.14712 0.0
H195 H 0.06512 0.59932 0.19108 0.0
H196 H 0.0962 0.68516 0.19537 0.0
H197 H 0.07332 0.66222 0.13096 0.0
C198 C 0.86699 0.55763 0.35236 0.0
C199 C 0.85022 0.55566 0.34327 0.0
N200 N 0.84636 0.54515 0.32461 0.0
N201 N 0.8738 0.54834 0.33971 0.0
C202 C 0.86067 0.54051 0.32306 0.0
H203 H 0.87436 0.56632 0.36666 0.0
Co204 Co 0.89858 0.55144 0.34455 0.0
C205 C 0.90398 0.52799 0.31096 0.0
O206 O 0.92151 0.54312 0.30771 0.0
N207 N 0.9238 0.55486 0.35073 0.0
C208 C 0.95475 0.5673 0.36156 0.0
C209 C 0.94027 0.57145 0.35649 0.0
C210 C 0.92861 0.5407 0.35345 0.0
N211 N 0.94745 0.54794 0.35954 0.0
O212 O 0.88875 0.53442 0.36952 0.0
H213 H 0.9418 0.58571 0.35794 0.0
H214 H 0.91834 0.52526 0.35147 0.0
O215 O 0.89263 0.52907 0.32527 0.0
C216 C 0.89206 0.5442 0.38722 0.0
O217 O 0.90152 0.56338 0.38605 0.0
N218 N 0.90819 0.56957 0.32083 0.0
C219 C 0.92523 0.59857 0.28852 0.0
C220 C 0.91127 0.5793 0.28293 0.0
C221 C 0.90284 0.56511 0.29928 0.0
C222 C 0.91917 0.58869 0.3268 0.0
C223 C 0.92848 0.60334 0.31098 0.0
H224 H 0.89229 0.5505 0.29428 0.0
H225 H 0.92088 0.59264 0.34398 0.0
H226 H 0.86219 0.53267 0.30934 0.0
H227 H 0.84198 0.56222 0.34947 0.0
H228 H 0.96954 0.5778 0.36642 0.0
H229 H 0.90705 0.57502 0.266 0.0
H230 H 0.93849 0.61805 0.31647 0.0
C231 C 0.31471 0.86371 0.35952 0.0
C232 C 0.29969 0.8462 0.35191 0.0
N233 N 0.30469 0.84277 0.3319 0.0
N234 N 0.32905 0.87129 0.34435 0.0
C235 C 0.32265 0.85809 0.32781 0.0
H236 H 0.31469 0.87103 0.37455 0.0
Co237 Co 0.34985 0.89665 0.34527 0.0
C238 C 0.37539 0.89967 0.30799 0.0
O239 O 0.37721 0.91659 0.30249 0.0
N240 N 0.37108 0.92274 0.34686 0.0
C241 C 0.38937 0.95509 0.34985 0.0
C242 C 0.37064 0.93958 0.34862 0.0
C243 C 0.39037 0.92851 0.34798 0.0
N244 N 0.40181 0.94814 0.34933 0.0
O245 O 0.36105 0.8897 0.36911 0.0
H246 H 0.35772 0.94085 0.34956 0.0
H247 H 0.39594 0.91848 0.34743 0.0
O248 O 0.36458 0.89004 0.32427 0.0
C249 C 0.35919 0.8966 0.38731 0.0
O250 O 0.35043 0.90703 0.38739 0.0
N251 N 0.33738 0.90339 0.32335 0.0
C252 C 0.32032 0.91937 0.29653 0.0
C253 C 0.32747 0.90776 0.2875 0.0
C254 C 0.33569 0.8996 0.30128 0.0
C255 C 0.32756 0.91167 0.33257 0.0
C256 C 0.31948 0.92032 0.31954 0.0
H257 H 0.34097 0.89068 0.294 0.0
H258 H 0.3272 0.91274 0.35028 0.0
H259 H 0.33029 0.86032 0.31237 0.0
H260 H 0.28583 0.83713 0.36003 0.0
H261 H 0.39347 0.97031 0.35147 0.0
H262 H 0.3273 0.90548 0.26993 0.0
H263 H 0.31383 0.92867 0.3276 0.0
C264 C 0.45439 0.30795 0.36556 0.0
C265 C 0.45826 0.29372 0.35831 0.0
N266 N 0.46746 0.29933 0.33873 0.0
N267 N 0.46112 0.32249 0.35068 0.0
C268 C 0.46926 0.31698 0.33469 0.0
H269 H 0.44642 0.30736 0.38028 0.0
Co270 Co 0.45609 0.34305 0.3518 0.0
C271 C 0.48168 0.37106 0.31786 0.0
O272 O 0.46746 0.37412 0.31174 0.0
N273 N 0.45068 0.36395 0.35383 0.0
C274 C 0.43547 0.38101 0.35856 0.0
C275 C 0.43304 0.36274 0.35543 0.0
C276 C 0.46361 0.38324 0.35684 0.0
N277 N 0.45472 0.39398 0.35943 0.0
O278 O 0.47247 0.35313 0.37709 0.0
H279 H 0.41906 0.34952 0.35518 0.0
H280 H 0.47928 0.38925 0.35754 0.0
O281 O 0.47881 0.35885 0.3332 0.0
C282 C 0.46332 0.35099 0.39503 0.0
O283 O 0.44413 0.34222 0.39463 0.0
N284 N 0.4389 0.33191 0.32766 0.0
C285 C 0.40978 0.31728 0.2955 0.0
C286 C 0.42948 0.32465 0.28979 0.0
C287 C 0.44381 0.33182 0.30612 0.0
C288 C 0.41975 0.32169 0.33371 0.0
C289 C 0.40493 0.31489 0.31796 0.0
H290 H 0.45875 0.3375 0.30112 0.0
H291 H 0.41596 0.31978 0.35099 0.0
H292 H 0.4754 0.3252 0.31975 0.0
H293 H 0.45402 0.28003 0.36653 0.0
H294 H 0.42385 0.38442 0.36005 0.0
H295 H 0.43396 0.32551 0.27281 0.0
H296 H 0.39 0.30883 0.32354 0.0
C297 C 0.13869 0.44121 0.34751 0.0
C298 C 0.15252 0.4375 0.33875 0.0
N299 N 0.16654 0.45395 0.32921 0.0
N300 N 0.1435 0.45987 0.34324 0.0
C301 C 0.16109 0.46744 0.333 0.0
H302 H 0.12614 0.43079 0.35675 0.0
Co303 Co 0.12933 0.47267 0.35125 0.0
C304 C 0.14486 0.49019 0.30684 0.0
O305 O 0.14071 0.47329 0.29819 0.0
N306 N 0.11587 0.48575 0.35942 0.0
C307 C 0.11112 0.51051 0.36754 0.0
C308 C 0.12483 0.50521 0.36292 0.0
C309 C 0.09656 0.47955 0.36191 0.0
N310 N 0.09331 0.4944 0.36682 0.0
O311 O 0.15035 0.48957 0.37031 0.0
H312 H 0.14041 0.5151 0.36158 0.0
H313 H 0.08507 0.46453 0.3599 0.0
O314 O 0.14102 0.49124 0.32707 0.0
C315 C 0.15134 0.48146 0.38797 0.0
O316 O 0.13958 0.46258 0.39044 0.0
N317 N 0.10769 0.45512 0.33423 0.0
C318 C 0.07394 0.42588 0.31418 0.0
C319 C 0.08399 0.44474 0.30517 0.0
C320 C 0.10067 0.4593 0.3157 0.0
C321 C 0.097 0.43742 0.34418 0.0
C322 C 0.08042 0.42242 0.33419 0.0
H323 H 0.1074 0.47396 0.30928 0.0
H324 H 0.10105 0.4351 0.36038 0.0
H325 H 0.16959 0.48253 0.32795 0.0
H326 H 0.15221 0.42367 0.33947 0.0
H327 H 0.114 0.52525 0.37034 0.0
H328 H 0.07898 0.44822 0.29017 0.0
H329 H 0.07241 0.4084 0.34236 0.0
C330 C 0.69604 0.15392 0.35638 0.0
C331 C 0.71009 0.17176 0.34838 0.0
N332 N 0.70471 0.17407 0.32806 0.0
N333 N 0.68187 0.14498 0.34122 0.0
C334 C 0.68739 0.15771 0.32426 0.0
H335 H 0.69654 0.14746 0.37188 0.0
Co336 Co 0.66189 0.11927 0.34383 0.0
C337 C 0.63533 0.11206 0.30653 0.0
O338 O 0.63486 0.0954 0.30316 0.0
N339 N 0.64142 0.0929 0.34741 0.0
C340 C 0.62369 0.06087 0.35368 0.0
C341 C 0.64225 0.07643 0.35099 0.0
C342 C 0.62208 0.08687 0.34886 0.0
N343 N 0.61095 0.06742 0.35224 0.0
O344 O 0.65033 0.12683 0.36667 0.0
H345 H 0.65531 0.07544 0.35219 0.0
H346 H 0.61631 0.0967 0.34764 0.0
O347 O 0.64605 0.12349 0.3219 0.0
C348 C 0.65248 0.12117 0.38553 0.0
O349 O 0.66216 0.11169 0.38705 0.0
N350 N 0.6746 0.11204 0.32257 0.0
C351 C 0.69004 0.09463 0.29541 0.0
C352 C 0.68378 0.10704 0.28659 0.0
C353 C 0.67624 0.11575 0.30049 0.0
C354 C 0.68416 0.10343 0.33162 0.0
C355 C 0.69131 0.09395 0.31843 0.0
H356 H 0.67107 0.12477 0.29324 0.0
H357 H 0.68497 0.1027 0.34933 0.0
H358 H 0.6795 0.15461 0.3089 0.0
H359 H 0.72354 0.18192 0.3566 0.0
H360 H 0.61993 0.04584 0.3563 0.0
H361 H 0.68386 0.10937 0.26904 0.0
H362 H 0.69654 0.08521 0.32641 0.0
C363 C 0.50602 0.67173 0.34196 0.0
C364 C 0.50524 0.68777 0.33471 0.0
N365 N 0.51899 0.69674 0.31908 0.0
N366 N 0.52061 0.67071 0.33156 0.0
C367 C 0.52799 0.68602 0.31747 0.0
H368 H 0.49586 0.6609 0.35336 0.0
Co369 Co 0.52433 0.64879 0.33216 0.0
C370 C 0.49392 0.63301 0.30558 0.0
O371 O 0.50843 0.64511 0.29287 0.0
N372 N 0.52738 0.62694 0.33146 0.0
C373 C 0.53601 0.60626 0.318 0.0
C374 C 0.53697 0.62391 0.315 0.0
C375 C 0.52038 0.61075 0.34418 0.0
N376 N 0.52556 0.59791 0.33635 0.0
O377 O 0.519 0.64561 0.36405 0.0
H378 H 0.54377 0.63371 0.30128 0.0
H379 H 0.51143 0.60831 0.35862 0.0
O380 O 0.49731 0.6324 0.32593 0.0
C381 C 0.52465 0.65915 0.37854 0.0
O382 O 0.53596 0.67748 0.37268 0.0
N383 N 0.55159 0.66435 0.33647 0.0
C384 C 0.59098 0.67495 0.33272 0.0
C385 C 0.5812 0.67798 0.31527 0.0
C386 C 0.56149 0.67236 0.31742 0.0
C387 C 0.56123 0.66235 0.3541 0.0
C388 C 0.58103 0.66812 0.35275 0.0
H389 H 0.55354 0.67177 0.30275 0.0
H390 H 0.55345 0.65425 0.36849 0.0
H391 H 0.53857 0.68839 0.30493 0.0
H392 H 0.49476 0.69194 0.34002 0.0
H393 H 0.54187 0.59972 0.30693 0.0
H394 H 0.58792 0.68247 0.29921 0.0
H395 H 0.58793 0.6654 0.36664 0.0
C396 C 0.55555 0.86262 0.84405 0.0
C397 C 0.55743 0.84835 0.83337 0.0
N398 N 0.53969 0.83468 0.82624 0.0
N399 N 0.53673 0.85843 0.84324 0.0
C400 C 0.5273 0.84073 0.83315 0.0
H401 H 0.56743 0.87523 0.85178 0.0
Co402 Co 0.5264 0.87423 0.8537 0.0
C403 C 0.50525 0.8599 0.81045 0.0
O404 O 0.52067 0.86177 0.80001 0.0
N405 N 0.51576 0.88942 0.86408 0.0
C406 C 0.493 0.89655 0.87434 0.0
C407 C 0.49659 0.88184 0.86867 0.0
C408 C 0.52352 0.90896 0.86693 0.0
N409 N 0.5099 0.91365 0.87315 0.0
O410 O 0.50913 0.85358 0.87311 0.0
H411 H 0.48566 0.86655 0.86726 0.0
H412 H 0.53872 0.91961 0.8641 0.0
O413 O 0.50639 0.86435 0.83083 0.0
C414 C 0.51617 0.84849 0.88895 0.0
O415 O 0.53503 0.85482 0.88938 0.0
N416 N 0.5443 0.89548 0.83649 0.0
C417 C 0.57427 0.92912 0.81701 0.0
C418 C 0.55537 0.91978 0.80805 0.0
C419 C 0.54045 0.90316 0.8183 0.0
C420 C 0.56219 0.90532 0.84627 0.0
C421 C 0.57751 0.92185 0.83657 0.0
H422 H 0.52582 0.89714 0.81202 0.0
H423 H 0.56442 0.90055 0.86211 0.0
H424 H 0.51176 0.83284 0.82989 0.0
H425 H 0.57092 0.84824 0.83065 0.0
H426 H 0.47883 0.89487 0.87806 0.0
H427 H 0.55208 0.92535 0.79337 0.0
H428 H 0.5916 0.92922 0.84467 0.0
C429 C 0.69001 0.55203 0.86104 0.0
C430 C 0.70613 0.55458 0.84964 0.0
N431 N 0.70298 0.53696 0.84327 0.0
N432 N 0.67628 0.53285 0.86137 0.0
C433 C 0.68518 0.524 0.85133 0.0
H434 H 0.68851 0.56375 0.86799 0.0
Co435 Co 0.64989 0.52118 0.87163 0.0
C436 C 0.64499 0.50215 0.82755 0.0
O437 O 0.65817 0.51847 0.81821 0.0
N438 N 0.62374 0.50918 0.88168 0.0
C439 C 0.59355 0.48532 0.88925 0.0
C440 C 0.61254 0.48986 0.88564 0.0
C441 C 0.61113 0.51608 0.88326 0.0
N442 N 0.59257 0.50181 0.88753 0.0
O443 O 0.65424 0.50428 0.8904 0.0
H444 H 0.61759 0.47944 0.88464 0.0
H445 H 0.61524 0.53115 0.88047 0.0
O446 O 0.64087 0.50194 0.84793 0.0
C447 C 0.66435 0.51341 0.90718 0.0
O448 O 0.67206 0.53248 0.90794 0.0
N449 N 0.64579 0.53899 0.85537 0.0
C450 C 0.6392 0.5684 0.83979 0.0
C451 C 0.63152 0.55047 0.82866 0.0
C452 C 0.63462 0.53575 0.83699 0.0
C453 C 0.65249 0.55595 0.86686 0.0
C454 C 0.64968 0.57095 0.85924 0.0
H455 H 0.62716 0.52162 0.82923 0.0
H456 H 0.6595 0.55753 0.88261 0.0
H457 H 0.67815 0.50842 0.84845 0.0
H458 H 0.7189 0.56843 0.84554 0.0
H459 H 0.58122 0.47076 0.8915 0.0
H460 H 0.62289 0.54767 0.81386 0.0
H461 H 0.65505 0.58412 0.86898 0.0
C462 C 0.13176 0.68804 0.83946 0.0
C463 C 0.14595 0.70587 0.83177 0.0
N464 N 0.16073 0.7039 0.82373 0.0
N465 N 0.13706 0.67445 0.83579 0.0
C466 C 0.15539 0.68498 0.82732 0.0
H467 H 0.11844 0.68542 0.84734 0.0
Co468 Co 0.12125 0.64716 0.84212 0.0
C469 C 0.14438 0.6453 0.8036 0.0
O470 O 0.14225 0.6582 0.7921 0.0
N471 N 0.10597 0.62046 0.84892 0.0
C472 C 0.09886 0.59064 0.85927 0.0
C473 C 0.11363 0.60939 0.8555 0.0
C474 C 0.08637 0.60798 0.84871 0.0
N475 N 0.08169 0.58969 0.85499 0.0
O476 O 0.13774 0.65037 0.86665 0.0
H477 H 0.12909 0.61461 0.85733 0.0
H478 H 0.07575 0.6122 0.84421 0.0
O479 O 0.13703 0.64054 0.82291 0.0
C480 C 0.1333 0.65723 0.88321 0.0
O481 O 0.11973 0.66209 0.88099 0.0
N482 N 0.10373 0.64407 0.81942 0.0
C483 C 0.07729 0.64396 0.78903 0.0
C484 C 0.08768 0.63426 0.78439 0.0
C485 C 0.10044 0.63397 0.80015 0.0
C486 C 0.09211 0.65156 0.82503 0.0
C487 C 0.0792 0.65216 0.80995 0.0
H488 H 0.10737 0.62545 0.79685 0.0
H489 H 0.09275 0.657 0.84146 0.0
H490 H 0.16458 0.67891 0.82331 0.0
H491 H 0.14531 0.71923 0.83189 0.0
H492 H 0.10065 0.5785 0.86437 0.0
H493 H 0.08571 0.62669 0.76892 0.0
H494 H 0.07098 0.65921 0.81461 0.0
C495 C 0.46603 0.15232 0.86685 0.0
C496 C 0.46897 0.1694 0.85744 0.0
N497 N 0.47549 0.17039 0.8367 0.0
N498 N 0.47072 0.14252 0.85223 0.0
C499 C 0.47662 0.15397 0.83408 0.0
H500 H 0.46025 0.14706 0.88312 0.0
Co501 Co 0.46657 0.11748 0.8571 0.0
C502 C 0.48841 0.11049 0.82239 0.0
O503 O 0.47365 0.09261 0.81997 0.0
N504 N 0.46226 0.09185 0.86301 0.0
C505 C 0.44879 0.06059 0.87297 0.0
C506 C 0.44528 0.07554 0.86819 0.0
C507 C 0.47596 0.0864 0.8656 0.0
N508 N 0.46809 0.06738 0.87122 0.0
O509 O 0.48541 0.12718 0.88039 0.0
H510 H 0.43114 0.07439 0.86924 0.0
H511 H 0.4915 0.09629 0.86366 0.0
O512 O 0.48727 0.12217 0.83607 0.0
C513 C 0.47699 0.12215 0.89904 0.0
O514 O 0.45779 0.11235 0.89974 0.0
N515 N 0.44682 0.10793 0.83544 0.0
C516 C 0.41387 0.08808 0.80871 0.0
C517 C 0.43254 0.09966 0.79944 0.0
C518 C 0.44884 0.10957 0.8131 0.0
C519 C 0.42865 0.09969 0.84448 0.0
C520 C 0.41201 0.08908 0.83159 0.0
H521 H 0.46296 0.11815 0.80553 0.0
H522 H 0.42714 0.10035 0.8621 0.0
H523 H 0.48086 0.14996 0.81893 0.0
H524 H 0.46616 0.18007 0.86523 0.0
H525 H 0.43789 0.04579 0.8773 0.0
H526 H 0.43473 0.10063 0.78181 0.0
H527 H 0.39807 0.08094 0.83984 0.0
C528 C 0.31384 0.45375 0.85224 0.0
C529 C 0.29586 0.4499 0.84476 0.0
N530 N 0.29776 0.46622 0.83541 0.0
N531 N 0.32738 0.47237 0.84735 0.0
C532 C 0.31681 0.47981 0.83823 0.0
H533 H 0.31662 0.44336 0.8606 0.0
Co534 Co 0.3549 0.48503 0.85228 0.0
C535 C 0.35293 0.50043 0.80764 0.0
O536 O 0.33903 0.48323 0.8009 0.0
N537 N 0.38198 0.4979 0.85741 0.0
C538 C 0.41261 0.52235 0.86032 0.0
C539 C 0.39348 0.51752 0.85742 0.0
C540 C 0.39452 0.4911 0.86064 0.0
N541 N 0.41334 0.50574 0.86223 0.0
O542 O 0.35293 0.50315 0.87151 0.0
H543 H 0.3883 0.52774 0.85513 0.0
H544 H 0.39006 0.47575 0.8611 0.0
O545 O 0.35988 0.50241 0.82709 0.0
C546 C 0.34537 0.49521 0.88986 0.0
O547 O 0.33919 0.47651 0.89255 0.0
N548 N 0.35693 0.46623 0.83525 0.0
C549 C 0.35753 0.43456 0.81552 0.0
C550 C 0.36474 0.45246 0.80436 0.0
C551 C 0.36495 0.46832 0.81482 0.0
C552 C 0.35144 0.44958 0.84692 0.0
C553 C 0.35141 0.43354 0.83738 0.0
H554 H 0.3719 0.48221 0.80652 0.0
H555 H 0.34732 0.44888 0.864 0.0
H556 H 0.32319 0.49477 0.83275 0.0
H557 H 0.28251 0.43593 0.84577 0.0
H558 H 0.42504 0.53702 0.86097 0.0
H559 H 0.37022 0.45432 0.7877 0.0
H560 H 0.34694 0.42061 0.8473 0.0
C561 C 0.84529 0.30323 0.86163 0.0
C562 C 0.82754 0.28874 0.85381 0.0
N563 N 0.82349 0.29503 0.83498 0.0
N564 N 0.85245 0.31859 0.84783 0.0
C565 C 0.83872 0.31329 0.83196 0.0
H566 H 0.85291 0.30234 0.87597 0.0
Co567 Co 0.87749 0.3402 0.8498 0.0
C568 C 0.88025 0.36415 0.81116 0.0
O569 O 0.89803 0.36759 0.80698 0.0
N570 N 0.90318 0.36238 0.85271 0.0
C571 C 0.93427 0.38112 0.86297 0.0
C572 C 0.91921 0.36232 0.86041 0.0
C573 C 0.90892 0.38172 0.85153 0.0
N574 N 0.92784 0.39338 0.85737 0.0
O575 O 0.86881 0.35095 0.87223 0.0
H576 H 0.91992 0.34962 0.86535 0.0
H577 H 0.89918 0.38717 0.84744 0.0
O578 O 0.87086 0.35372 0.82772 0.0
C579 C 0.87463 0.34956 0.89127 0.0
O580 O 0.88487 0.34071 0.89345 0.0
N581 N 0.88593 0.32855 0.82846 0.0
C582 C 0.90482 0.31658 0.79895 0.0
C583 C 0.88957 0.31952 0.79185 0.0
C584 C 0.88023 0.32542 0.80691 0.0
C585 C 0.89739 0.32152 0.83621 0.0
C586 C 0.90765 0.3162 0.82172 0.0
H587 H 0.86906 0.32821 0.80085 0.0
H588 H 0.89924 0.32081 0.8537 0.0
H589 H 0.84035 0.32217 0.81773 0.0
H590 H 0.81865 0.27448 0.86113 0.0
H591 H 0.94877 0.38542 0.86896 0.0
H592 H 0.88565 0.31845 0.77464 0.0
H593 H 0.91853 0.31314 0.8284 0.0
C594 C 0.14399 0.44636 0.64382 0.0
C595 C 0.15822 0.44539 0.6557 0.0
N596 N 0.16656 0.46084 0.66943 0.0
N597 N 0.1433 0.46243 0.64974 0.0
C598 C 0.1575 0.47121 0.66517 0.0
H599 H 0.13397 0.43542 0.63242 0.0
Co600 Co 0.12323 0.46669 0.63974 0.0
C601 C 0.12271 0.48926 0.67946 0.0
O602 O 0.10565 0.47526 0.68633 0.0
N603 N 0.10307 0.4707 0.62857 0.0
C604 C 0.08196 0.46964 0.60353 0.0
C605 C 0.09748 0.46677 0.60733 0.0
C606 C 0.09067 0.47613 0.63731 0.0
N607 N 0.07759 0.47549 0.62243 0.0
O608 O 0.1411 0.48602 0.6194 0.0
H609 H 0.10398 0.46159 0.59539 0.0
H610 H 0.09063 0.47992 0.65428 0.0
O611 O 0.13027 0.48726 0.66175 0.0
C612 C 0.14518 0.47893 0.60274 0.0
O613 O 0.13736 0.45989 0.60124 0.0
N614 N 0.10545 0.44641 0.65858 0.0
C615 C 0.07908 0.41404 0.68338 0.0
C616 C 0.0973 0.42775 0.69206 0.0
C617 C 0.11028 0.44372 0.6794 0.0
C618 C 0.08838 0.43245 0.64937 0.0
C619 C 0.07483 0.41642 0.66158 0.0
H620 H 0.12403 0.4542 0.68668 0.0
H621 H 0.08511 0.43357 0.63238 0.0
H622 H 0.16004 0.484 0.67437 0.0
H623 H 0.16163 0.43374 0.65483 0.0
H624 H 0.07444 0.46751 0.58802 0.0
H625 H 0.10152 0.42629 0.70858 0.0
H626 H 0.061 0.40626 0.65404 0.0
C627 C 0.68914 0.15611 0.63382 0.0
C628 C 0.7025 0.17363 0.64319 0.0
N629 N 0.69676 0.17417 0.66396 0.0
N630 N 0.67497 0.1456 0.64852 0.0
C631 C 0.67984 0.15708 0.66659 0.0
H632 H 0.69013 0.15099 0.61763 0.0
Co633 Co 0.65574 0.11965 0.64435 0.0
C634 C 0.62657 0.11058 0.67947 0.0
O635 O 0.62512 0.09335 0.6817 0.0
N636 N 0.63617 0.09308 0.63919 0.0
C637 C 0.62042 0.06099 0.63287 0.0
C638 C 0.63837 0.07734 0.63606 0.0
C639 C 0.61667 0.08588 0.63659 0.0
N640 N 0.6067 0.06632 0.63342 0.0
O641 O 0.64488 0.12731 0.62086 0.0
H642 H 0.65204 0.07742 0.63567 0.0
H643 H 0.60983 0.09477 0.63787 0.0
O644 O 0.63854 0.12274 0.6654 0.0
C645 C 0.6484 0.12242 0.6022 0.0
O646 O 0.65885 0.11369 0.60137 0.0
N647 N 0.66774 0.11232 0.66645 0.0
C648 C 0.68198 0.09468 0.69474 0.0
C649 C 0.67346 0.10522 0.70311 0.0
C650 C 0.6668 0.1143 0.68869 0.0
C651 C 0.67909 0.10526 0.65833 0.0
C652 C 0.68592 0.09583 0.67212 0.0
H653 H 0.66016 0.12209 0.69567 0.0
H654 H 0.68161 0.10567 0.6408 0.0
H655 H 0.67171 0.15259 0.6818 0.0
H656 H 0.71572 0.18481 0.63544 0.0
H657 H 0.61773 0.04631 0.63017 0.0
H658 H 0.67058 0.10529 0.72052 0.0
H659 H 0.69323 0.08861 0.66502 0.0
C660 C 0.54031 0.68678 0.63979 0.0
C661 C 0.53693 0.70119 0.64748 0.0
N662 N 0.52952 0.69641 0.66798 0.0
N663 N 0.53501 0.67284 0.65529 0.0
C664 C 0.52823 0.67899 0.67217 0.0
H665 H 0.5473 0.68706 0.62439 0.0
Co666 Co 0.54102 0.65279 0.6546 0.0
C667 C 0.50807 0.61877 0.67729 0.0
O668 O 0.51967 0.61251 0.68444 0.0
N669 N 0.54774 0.63279 0.65341 0.0
C670 C 0.56365 0.61637 0.6573 0.0
C671 C 0.56438 0.63387 0.66076 0.0
C672 C 0.5375 0.61458 0.64464 0.0
N673 N 0.54664 0.60407 0.64731 0.0
O674 O 0.53055 0.64588 0.62552 0.0
H675 H 0.57639 0.64642 0.66844 0.0
H676 H 0.52328 0.60899 0.63712 0.0
O677 O 0.51506 0.63474 0.66646 0.0
C678 C 0.54355 0.65096 0.61064 0.0
O679 O 0.56203 0.66011 0.61657 0.0
N680 N 0.55267 0.66081 0.68247 0.0
C681 C 0.57658 0.67225 0.71942 0.0
C682 C 0.55637 0.65961 0.72143 0.0
C683 C 0.54458 0.65425 0.70274 0.0
C684 C 0.57174 0.67513 0.68068 0.0
C685 C 0.58408 0.68092 0.69893 0.0
H686 H 0.52916 0.64463 0.70485 0.0
H687 H 0.57773 0.68093 0.66462 0.0
H688 H 0.52379 0.6716 0.68785 0.0
H689 H 0.54048 0.71459 0.63895 0.0
H690 H 0.57461 0.61285 0.66258 0.0
H691 H 0.54982 0.65285 0.737 0.0
H692 H 0.59952 0.69118 0.69677 0.0
C693 C 0.83481 0.51598 0.64598 0.0
C694 C 0.81868 0.51582 0.65503 0.0
N695 N 0.82243 0.52066 0.67638 0.0
N696 N 0.84906 0.52173 0.66134 0.0
C697 C 0.84067 0.5239 0.67976 0.0
H698 H 0.83524 0.5107 0.62973 0.0
Co699 Co 0.87263 0.52078 0.66249 0.0
C700 C 0.8507 0.48653 0.68412 0.0
O701 O 0.85405 0.49879 0.70033 0.0
N702 N 0.89522 0.51904 0.66586 0.0
C703 C 0.92034 0.52174 0.685 0.0
C704 C 0.90396 0.52351 0.68567 0.0
C705 C 0.90642 0.51424 0.65331 0.0
N706 N 0.92206 0.51603 0.66463 0.0
O707 O 0.87301 0.51804 0.63026 0.0
H708 H 0.89871 0.52794 0.69974 0.0
H709 H 0.90346 0.51002 0.63619 0.0
O710 O 0.85751 0.49319 0.66514 0.0
C711 C 0.8715 0.52876 0.61548 0.0
O712 O 0.86952 0.54368 0.62143 0.0
N713 N 0.88858 0.54852 0.6608 0.0
C714 C 0.91824 0.5874 0.66652 0.0
C715 C 0.90064 0.57974 0.67831 0.0
C716 C 0.8863 0.56018 0.67566 0.0
C717 C 0.90482 0.55635 0.64764 0.0
C718 C 0.91977 0.57562 0.65027 0.0
H719 H 0.87419 0.55429 0.68684 0.0
H720 H 0.90714 0.54729 0.63614 0.0
H721 H 0.84744 0.52684 0.69582 0.0
H722 H 0.8048 0.51112 0.64699 0.0
H723 H 0.93015 0.52431 0.69863 0.0
H724 H 0.89848 0.5883 0.69073 0.0
H725 H 0.93305 0.58051 0.64087 0.0
C726 C 0.31002 0.85664 0.64009 0.0
C727 C 0.29497 0.83983 0.64901 0.0
N728 N 0.30051 0.83716 0.66907 0.0
N729 N 0.325 0.86461 0.65444 0.0
C730 C 0.31889 0.85226 0.67183 0.0
H731 H 0.30962 0.8633 0.62471 0.0
Co732 Co 0.34629 0.88976 0.65153 0.0
C733 C 0.37467 0.89272 0.68524 0.0
O734 O 0.37851 0.91047 0.69031 0.0
N735 N 0.36788 0.91557 0.64787 0.0
C736 C 0.38585 0.94758 0.64173 0.0
C737 C 0.36738 0.93234 0.64568 0.0
C738 C 0.38695 0.92112 0.64439 0.0
N739 N 0.39825 0.94058 0.64093 0.0
O740 O 0.35516 0.88173 0.62638 0.0
H741 H 0.3545 0.93371 0.64614 0.0
H742 H 0.39237 0.91096 0.64405 0.0
O743 O 0.36192 0.88291 0.67053 0.0
C744 C 0.35217 0.88835 0.60861 0.0
O745 O 0.34322 0.89857 0.60965 0.0
N746 N 0.33631 0.89776 0.67508 0.0
C747 C 0.32364 0.91615 0.70463 0.0
C748 C 0.33084 0.90412 0.71222 0.0
C749 C 0.33698 0.89492 0.69715 0.0
C750 C 0.32616 0.90633 0.6676 0.0
C751 C 0.32032 0.91622 0.68193 0.0
H752 H 0.34254 0.88592 0.70346 0.0
H753 H 0.32388 0.90671 0.65011 0.0
H754 H 0.32711 0.855 0.68691 0.0
H755 H 0.2807 0.83077 0.64173 0.0
H756 H 0.38978 0.96272 0.63969 0.0
H757 H 0.33238 0.90232 0.72962 0.0
H758 H 0.31443 0.92477 0.67492 0.0
C759 C 0.46434 0.30942 0.64463 0.0
C760 C 0.46765 0.29489 0.65209 0.0
N761 N 0.47633 0.30015 0.67198 0.0
N762 N 0.47091 0.32386 0.65965 0.0
C763 C 0.4784 0.31794 0.67597 0.0
H764 H 0.4568 0.30909 0.62965 0.0
Co765 Co 0.46623 0.34472 0.65829 0.0
C766 C 0.49139 0.37267 0.69213 0.0
O767 O 0.47696 0.37561 0.69762 0.0
N768 N 0.46124 0.366 0.65607 0.0
C769 C 0.44685 0.38396 0.65265 0.0
C770 C 0.4439 0.36553 0.65599 0.0
C771 C 0.47447 0.38505 0.65193 0.0
N772 N 0.46613 0.39637 0.65005 0.0
O773 O 0.48243 0.35439 0.63277 0.0
H774 H 0.4297 0.35273 0.65754 0.0
H775 H 0.48995 0.39039 0.65006 0.0
O776 O 0.489 0.36047 0.67693 0.0
C777 C 0.47232 0.35154 0.61544 0.0
O778 O 0.45317 0.34232 0.61712 0.0
N779 N 0.44901 0.33392 0.68245 0.0
C780 C 0.41982 0.32225 0.71421 0.0
C781 C 0.43918 0.32811 0.72027 0.0
C782 C 0.45359 0.33392 0.70411 0.0
C783 C 0.42992 0.32419 0.67622 0.0
C784 C 0.41509 0.31896 0.69172 0.0
H785 H 0.4684 0.33908 0.70933 0.0
H786 H 0.4263 0.32217 0.6589 0.0
H787 H 0.48428 0.326 0.69105 0.0
H788 H 0.46339 0.28124 0.64376 0.0
H789 H 0.43547 0.38777 0.65224 0.0
H790 H 0.44348 0.32927 0.73735 0.0
H791 H 0.40044 0.31383 0.68572 0.0
C792 C 0.48021 0.05839 0.13759 0.0
C793 C 0.46175 0.05155 0.14725 0.0
C794 C 0.48822 0.04614 0.13583 0.0
C795 C 0.48598 0.00238 0.15997 0.0
H796 H 0.50823 0.99896 0.10444 0.0
C797 C 0.51289 0.94711 0.14689 0.0
C798 C 0.53041 0.9538 0.13506 0.0
C799 C 0.5035 0.95817 0.14759 0.0
C800 C 0.5023 0.99988 0.12016 0.0
H801 H 0.43751 0.02675 0.16321 0.0
H802 H 0.4515 0.00544 0.16025 0.0
H803 H 0.49481 0.02071 0.10785 0.0
H804 H 0.5512 0.97703 0.11386 0.0
H805 H 0.53537 0.99648 0.11573 0.0
H806 H 0.49384 0.98195 0.17251 0.0
C807 C 0.45974 0.02021 0.15394 0.0
C808 C 0.49459 0.01236 0.12208 0.0
C809 C 0.45165 0.03235 0.15545 0.0
C810 C 0.53795 0.97152 0.12346 0.0
C811 C 0.52867 0.9826 0.12428 0.0
C812 C 0.49387 0.99005 0.15813 0.0
C813 C 0.47805 0.02691 0.14399 0.0
C814 C 0.48638 0.01377 0.14201 0.0
C815 C 0.51142 0.97621 0.13653 0.0
C816 C 0.5022 0.98867 0.13822 0.0
H817 H 0.48827 0.07307 0.13103 0.0
H818 H 0.50244 0.05174 0.12822 0.0
H819 H 0.47991 0.0033 0.1756 0.0
H820 H 0.5067 0.9336 0.15611 0.0
H821 H 0.49008 0.95261 0.15692 0.0
C822 C 0.56474 0.51804 0.17061 0.0
C823 C 0.57614 0.51352 0.15669 0.0
C824 C 0.5464 0.51464 0.16402 0.0
C825 C 0.51322 0.50554 0.1174 0.0
H826 H 0.47327 0.47838 0.16171 0.0
C827 C 0.43002 0.47454 0.10103 0.0
C828 C 0.41842 0.47485 0.1185 0.0
C829 C 0.44974 0.48024 0.10429 0.0
C830 C 0.48422 0.48624 0.14923 0.0
H831 H 0.57776 0.50306 0.1243 0.0
H832 H 0.54536 0.49713 0.11252 0.0
H833 H 0.50678 0.48683 0.16919 0.0
H834 H 0.41913 0.4821 0.1531 0.0
H835 H 0.45336 0.49264 0.15846 0.0
H836 H 0.49057 0.50513 0.09752 0.0
C837 C 0.55075 0.50326 0.12866 0.0
C838 C 0.50348 0.49101 0.1535 0.0
C839 C 0.56927 0.50667 0.13534 0.0
C840 C 0.42738 0.48168 0.13912 0.0
C841 C 0.4471 0.48749 0.14232 0.0
C842 C 0.49387 0.50087 0.11314 0.0
C843 C 0.53887 0.50664 0.14326 0.0
C844 C 0.51828 0.50091 0.13778 0.0
C845 C 0.45849 0.4865 0.12508 0.0
C846 C 0.47913 0.49132 0.12913 0.0
H847 H 0.56983 0.52379 0.18694 0.0
H848 H 0.53788 0.51791 0.17543 0.0
H849 H 0.52431 0.51322 0.10498 0.0
H850 H 0.42389 0.46968 0.08482 0.0
H851 H 0.45795 0.47917 0.09062 0.0
C852 C 0.06548 0.56849 0.13751 0.0
C853 C 0.06089 0.58042 0.1504 0.0
C854 C 0.05109 0.54915 0.13274 0.0
C855 C 0.00486 0.50995 0.15594 0.0
H856 H 0.99939 0.4835 0.10048 0.0
C857 C 0.94313 0.43047 0.14286 0.0
C858 C 0.94809 0.41787 0.1319 0.0
C859 C 0.95602 0.45068 0.14304 0.0
C860 C 1.00083 0.49062 0.11614 0.0
H861 H 0.03738 0.58204 0.16677 0.0
H862 H 0.0124 0.54862 0.15837 0.0
H863 H 0.02386 0.51813 0.10414 0.0
H864 H 0.97021 0.41696 0.11156 0.0
H865 H 0.99281 0.45195 0.1124 0.0
H866 H 0.98225 0.48256 0.16819 0.0
C867 C 0.02714 0.55388 0.15246 0.0
C868 C 0.01486 0.51048 0.11821 0.0
C869 C 0.04145 0.57305 0.15723 0.0
C870 C 0.96599 0.42611 0.12051 0.0
C871 C 0.9789 0.44629 0.12074 0.0
C872 C 0.99094 0.49015 0.15391 0.0
C873 C 0.03187 0.54147 0.14073 0.0
C874 C 0.017 0.52039 0.13814 0.0
C875 C 0.97424 0.45884 0.13229 0.0
C876 C 0.9887 0.48018 0.134 0.0
H877 H 0.08036 0.57377 0.13211 0.0
H878 H 0.05522 0.53997 0.12368 0.0
H879 H 0.00637 0.517 0.17168 0.0
H880 H 0.92955 0.4247 0.1519 0.0
H881 H 0.95177 0.4599 0.15181 0.0
C882 C 0.0587 0.4816 0.356 0.0
C883 C 0.07493 0.49403 0.36904 0.0
C884 C 0.04173 0.48313 0.35637 0.0
C885 C 0.01627 0.50391 0.38872 0.0
H886 H 0.9953 0.50744 0.33236 0.0
C887 C 0.97359 0.54461 0.37774 0.0
C888 C 0.95797 0.53755 0.36277 0.0
C889 C 0.98497 0.53568 0.37965 0.0
C890 C 1.00071 0.50615 0.34827 0.0
H891 H 0.08569 0.51701 0.3935 0.0
H892 H 0.05634 0.51971 0.39419 0.0
H893 H 0.02031 0.49791 0.33382 0.0
H894 H 0.94179 0.51523 0.33836 0.0
H895 H 0.96168 0.49948 0.34173 0.0
H896 H 0.99711 0.51267 0.40314 0.0
C897 C 0.05657 0.50877 0.38366 0.0
C898 C 0.01506 0.50066 0.34911 0.0
C899 C 0.0735 0.50736 0.38313 0.0
C900 C 0.95364 0.52094 0.35015 0.0
C901 C 0.96516 0.51205 0.35193 0.0
C902 C 0.00195 0.50938 0.38788 0.0
C903 C 0.04058 0.49693 0.37002 0.0
C904 C 0.0234 0.49999 0.36931 0.0
C905 C 0.9811 0.51945 0.36657 0.0
C906 C 0.99435 0.51108 0.36761 0.0
H907 H 0.05943 0.47128 0.34487 0.0
H908 H 0.02963 0.47369 0.34578 0.0
H909 H 0.02207 0.50316 0.40459 0.0
H910 H 0.97719 0.55724 0.38787 0.0
H911 H 0.99723 0.54195 0.39091 0.0
C912 C 0.43415 0.95202 0.35851 0.0
C913 C 0.42287 0.95954 0.34951 0.0
C914 C 0.45458 0.96342 0.35901 0.0
C915 C 0.49612 0.00605 0.33257 0.0
H916 H 0.52418 0.00856 0.38589 0.0
C917 C 0.57814 0.06225 0.34293 0.0
C918 C 0.58988 0.05585 0.35324 0.0
C919 C 0.55776 0.05052 0.34291 0.0
C920 C 0.51661 0.00786 0.37077 0.0
H921 H 0.42425 0.98469 0.33344 0.0
H922 H 0.45972 0.00452 0.33444 0.0
H923 H 0.48875 0.98741 0.3845 0.0
H924 H 0.5892 0.03226 0.3722 0.0
H925 H 0.55384 0.01168 0.37167 0.0
H926 H 0.5239 0.02633 0.31873 0.0
C927 C 0.45284 0.98985 0.3411 0.0
C928 C 0.4963 0.99572 0.36999 0.0
C929 C 0.43247 0.97856 0.34076 0.0
C930 C 0.58069 0.03758 0.36385 0.0
C931 C 0.56034 0.02585 0.36378 0.0
C932 C 0.51642 0.0181 0.33331 0.0
C933 C 0.46414 0.98247 0.3503 0.0
C934 C 0.48581 0.99477 0.35092 0.0
C935 C 0.5486 0.03208 0.35316 0.0
C936 C 0.52694 0.01924 0.35245 0.0
H937 H 0.42718 0.93748 0.36549 0.0
H938 H 0.46291 0.95726 0.36606 0.0
H939 H 0.48849 0.00543 0.31752 0.0
H940 H 0.58467 0.07612 0.33442 0.0
H941 H 0.54918 0.05593 0.33484 0.0
C942 C 0.48208 0.42768 0.35301 0.0
C943 C 0.46357 0.41489 0.36198 0.0
C944 C 0.48971 0.44796 0.35373 0.0
C945 C 0.47329 0.48409 0.35738 0.0
H946 H 0.52804 0.52119 0.36772 0.0
C947 C 0.50234 0.56727 0.3557 0.0
C948 C 0.51999 0.57858 0.3443 0.0
C949 C 0.49606 0.54777 0.36112 0.0
C950 C 0.51272 0.51103 0.36464 0.0
H951 H 0.43919 0.41353 0.37998 0.0
H952 H 0.4524 0.44869 0.38111 0.0
H953 H 0.51623 0.48621 0.37063 0.0
H954 H 0.54544 0.57854 0.33095 0.0
H955 H 0.53436 0.54465 0.33979 0.0
H956 H 0.46979 0.50875 0.35079 0.0
C957 C 0.46084 0.44308 0.37311 0.0
C958 C 0.50596 0.49098 0.36632 0.0
C959 C 0.45326 0.42289 0.37243 0.0
C960 C 0.5316 0.57018 0.33937 0.0
C961 C 0.52534 0.55074 0.34472 0.0
C962 C 0.48005 0.50411 0.35559 0.0
C963 C 0.47898 0.45587 0.36341 0.0
C964 C 0.48618 0.47725 0.36255 0.0
C965 C 0.50731 0.53913 0.35529 0.0
C966 C 0.4999 0.51787 0.35898 0.0
H967 H 0.49033 0.42203 0.34469 0.0
H968 H 0.50367 0.45739 0.34596 0.0
H969 H 0.45801 0.47392 0.35404 0.0
H970 H 0.49301 0.57324 0.35972 0.0
H971 H 0.48224 0.53937 0.36958 0.0
C972 C 0.49398 0.05978 0.86093 0.0
C973 C 0.47781 0.05616 0.87401 0.0
C974 C 0.50201 0.04747 0.86214 0.0
C975 C 0.50329 0.00943 0.89707 0.0
H976 H 0.51135 0.98955 0.84211 0.0
C977 C 0.49993 0.93536 0.89089 0.0
C978 C 0.51196 0.93274 0.87589 0.0
C979 C 0.49994 0.95302 0.89189 0.0
C980 C 0.50957 0.99521 0.85763 0.0
H981 H 0.45805 0.03742 0.89934 0.0
H982 H 0.47192 0.01604 0.90148 0.0
H983 H 0.50386 0.01603 0.84163 0.0
H984 H 0.53394 0.94688 0.85058 0.0
H985 H 0.53408 0.97798 0.85235 0.0
H986 H 0.50846 0.98831 0.91307 0.0
C987 C 0.47847 0.02833 0.89027 0.0
C988 C 0.50525 0.0104 0.85735 0.0
C989 C 0.47037 0.04047 0.8889 0.0
C990 C 0.52461 0.94851 0.86242 0.0
C991 C 0.52452 0.96624 0.86328 0.0
C992 C 0.50762 0.9943 0.89735 0.0
C993 C 0.4942 0.03146 0.87668 0.0
C994 C 0.50152 0.01732 0.87705 0.0
C995 C 0.51196 0.9686 0.87783 0.0
C996 C 0.51027 0.9866 0.87762 0.0
H997 H 0.49994 0.07168 0.8492 0.0
H998 H 0.5142 0.05037 0.85155 0.0
H999 H 0.5009 0.01468 0.91257 0.0
H1000 H 0.49015 0.92353 0.9016 0.0
H1001 H 0.48991 0.95416 0.90312 0.0
C1002 C 0.44873 0.51912 0.85595 0.0
C1003 C 0.43083 0.50433 0.86446 0.0
C1004 C 0.46588 0.5183 0.85861 0.0
C1005 C 0.48862 0.49684 0.89336 0.0
H1006 H 0.52577 0.51238 0.84533 0.0
C1007 C 0.55768 0.48873 0.89719 0.0
C1008 C 0.57491 0.50309 0.88696 0.0
C1009 C 0.54012 0.48889 0.89505 0.0
C1010 C 0.51572 0.50826 0.85905 0.0
H1011 H 0.41699 0.47693 0.88227 0.0
H1012 H 0.44705 0.47542 0.88687 0.0
H1013 H 0.49497 0.51187 0.83995 0.0
H1014 H 0.58701 0.52922 0.86676 0.0
H1015 H 0.55662 0.52984 0.8636 0.0
H1016 H 0.50946 0.49341 0.91253 0.0
C1017 C 0.44776 0.48776 0.87826 0.0
C1018 C 0.49799 0.50789 0.85592 0.0
C1019 C 0.4305 0.48851 0.87546 0.0
C1020 C 0.57417 0.51799 0.87505 0.0
C1021 C 0.5566 0.51818 0.87296 0.0
C1022 C 0.50642 0.49728 0.89653 0.0
C1023 C 0.46569 0.50269 0.8699 0.0
C1024 C 0.48423 0.50227 0.87306 0.0
C1025 C 0.53925 0.50348 0.88267 0.0
C1026 C 0.52027 0.50307 0.87943 0.0
H1027 H 0.44953 0.53137 0.8471 0.0
H1028 H 0.47941 0.53015 0.85211 0.0
H1029 H 0.4785 0.49269 0.90701 0.0
H1030 H 0.55769 0.47716 0.90669 0.0
H1031 H 0.52709 0.47724 0.90264 0.0
C1032 C 0.9537 0.42376 0.87433 0.0
C1033 C 0.93905 0.41446 0.85833 0.0
C1034 C 0.96588 0.44403 0.8743 0.0
C1035 C 0.98633 0.48667 0.83753 0.0
H1036 H 0.00473 0.51509 0.89244 0.0
C1037 C 0.04786 0.56853 0.84115 0.0
C1038 C 0.06266 0.57235 0.8565 0.0
C1039 C 0.0302 0.5506 0.84144 0.0
C1040 C 0.99977 0.50739 0.87694 0.0
H1041 H 0.9254 0.41928 0.83002 0.0
H1042 H 0.94681 0.45497 0.8299 0.0
H1043 H 0.97824 0.48124 0.89282 0.0
H1044 H 0.07017 0.56079 0.88479 0.0
H1045 H 0.03964 0.52978 0.88539 0.0
H1046 H 0.00831 0.51276 0.82174 0.0
C1047 C 0.94887 0.44644 0.84245 0.0
C1048 C 0.98457 0.48795 0.87716 0.0
C1049 C 0.9365 0.42605 0.84261 0.0
C1050 C 0.05913 0.55822 0.87263 0.0
C1051 C 0.04152 0.54049 0.87307 0.0
C1052 C 1.00157 0.50618 0.83731 0.0
C1053 C 0.96385 0.45566 0.8582 0.0
C1054 C 0.97801 0.47714 0.85753 0.0
C1055 C 0.0269 0.53628 0.85732 0.0
C1056 C 0.00886 0.5166 0.85709 0.0
H1057 H 0.95591 0.41529 0.88682 0.0
H1058 H 0.97735 0.45051 0.88654 0.0
H1059 H 0.98174 0.47877 0.82211 0.0
H1060 H 0.05023 0.5791 0.82846 0.0
H1061 H 0.01921 0.54787 0.82915 0.0
C1062 C 0.93487 0.49924 0.64086 0.0
C1063 C 0.9378 0.51305 0.6572 0.0
C1064 C 0.94993 0.49542 0.63527 0.0
C1065 C 0.00397 0.51587 0.64085 0.0
H1066 H 0.99123 0.4622 0.6321 0.0
C1067 C 0.0631 0.49283 0.64206 0.0
C1068 C 0.06175 0.47942 0.62595 0.0
C1069 C 0.0479 0.49696 0.64493 0.0
C1070 C 0.99504 0.4773 0.6343 0.0
H1071 H 0.95926 0.53436 0.67958 0.0
H1072 H 0.98504 0.52749 0.67034 0.0
H1073 H 0.96501 0.46964 0.63761 0.0
H1074 H 0.04299 0.45946 0.60069 0.0
H1075 H 0.01665 0.46672 0.60563 0.0
H1076 H 0.034 0.52348 0.63791 0.0
C1077 C 0.97126 0.5196 0.66166 0.0
C1078 C 0.97998 0.48158 0.63737 0.0
C1079 C 0.95631 0.52337 0.66721 0.0
C1080 C 0.04468 0.47006 0.61305 0.0
C1081 C 0.02945 0.47407 0.61604 0.0
C1082 C 0.01901 0.51158 0.63791 0.0
C1083 C 0.9683 0.50544 0.64578 0.0
C1084 C 0.98422 0.50093 0.6409 0.0
C1085 C 0.03089 0.48766 0.63192 0.0
C1086 C 0.01478 0.49222 0.63476 0.0
H1087 H 0.9208 0.49101 0.63287 0.0
H1088 H 0.94716 0.48458 0.62276 0.0
H1089 H 0.00787 0.53099 0.64306 0.0
H1090 H 0.07604 0.50038 0.65219 0.0
H1091 H 0.04943 0.50736 0.65749 0.0
C1092 C 0.57742 0.03406 0.64014 0.0
C1093 C 0.58577 0.05345 0.63267 0.0
C1094 C 0.55717 0.02159 0.63992 0.0
C1095 C 0.51033 0.02186 0.63747 0.0
H1096 H 0.48869 0.96679 0.62436 0.0
C1097 C 0.42752 0.97009 0.62681 0.0
C1098 C 0.41916 0.95192 0.63761 0.0
C1099 C 0.44779 0.98196 0.62519 0.0
C1100 C 0.49451 0.9821 0.62823 0.0
H1101 H 0.57928 0.07482 0.61883 0.0
H1102 H 0.54389 0.05298 0.61809 0.0
H1103 H 0.524 0.9887 0.62306 0.0
H1104 H 0.42579 0.9318 0.65459 0.0
H1105 H 0.46129 0.9525 0.65152 0.0
H1106 H 0.4808 0.01524 0.64246 0.0
C1107 C 0.55301 0.0475 0.62453 0.0
C1108 C 0.51478 0.99469 0.62753 0.0
C1109 C 0.57332 0.06005 0.62489 0.0
C1110 C 0.43168 0.94561 0.64603 0.0
C1111 C 0.45204 0.9575 0.6443 0.0
C1112 C 0.49008 0.0093 0.63803 0.0
C1113 C 0.54465 0.0281 0.6321 0.0
C1114 C 0.52299 0.01475 0.63222 0.0
C1115 C 0.46032 0.97598 0.63419 0.0
C1116 C 0.48191 0.98925 0.63346 0.0
H1117 H 0.58651 0.0286 0.64667 0.0
H1118 H 0.55133 0.00693 0.64633 0.0
H1119 H 0.51606 0.03709 0.6416 0.0
H1120 H 0.4184 0.97526 0.61965 0.0
H1121 H 0.45366 0.9959 0.61687 0.0
C1122 C 0.49558 0.42963 0.65033 0.0
C1123 C 0.47548 0.41728 0.64639 0.0
C1124 C 0.50422 0.44995 0.64794 0.0
C1125 C 0.49503 0.48876 0.62488 0.0
H1126 H 0.5351 0.52192 0.66658 0.0
C1127 C 0.51893 0.57035 0.64125 0.0
C1128 C 0.53916 0.58349 0.64308 0.0
C1129 C 0.51173 0.55019 0.63942 0.0
C1130 C 0.52404 0.51286 0.65468 0.0
H1131 H 0.44903 0.41699 0.6359 0.0
H1132 H 0.4637 0.45196 0.63287 0.0
H1133 H 0.52184 0.4867 0.66769 0.0
H1134 H 0.56761 0.58549 0.64307 0.0
H1135 H 0.555 0.55048 0.6405 0.0
H1136 H 0.49682 0.51505 0.61252 0.0
C1137 C 0.47299 0.44608 0.6374 0.0
C1138 C 0.51648 0.49262 0.65522 0.0
C1139 C 0.46443 0.42584 0.63953 0.0
C1140 C 0.55195 0.57592 0.64225 0.0
C1141 C 0.54474 0.5558 0.64071 0.0
C1142 C 0.5024 0.50898 0.62458 0.0
C1143 C 0.49299 0.4585 0.64172 0.0
C1144 C 0.50178 0.48023 0.64039 0.0
C1145 C 0.52455 0.54269 0.63961 0.0
C1146 C 0.51694 0.52124 0.63951 0.0
H1147 H 0.50463 0.42372 0.65569 0.0
H1148 H 0.51974 0.45894 0.65106 0.0
H1149 H 0.48405 0.47985 0.61286 0.0
H1150 H 0.50857 0.57549 0.64204 0.0
H1151 H 0.49607 0.54041 0.63869 0.0
C1152 C 0.48576 0.29663 0.30702 0.0
C1153 C 0.47165 0.28772 0.32369 0.0
C1154 C 0.48864 0.28531 0.29137 0.0
C1155 C 0.47825 0.23474 0.27964 0.0
H1156 H 0.48291 0.25101 0.21874 0.0
C1157 C 0.46473 0.19848 0.18788 0.0
C1158 C 0.47335 0.18672 0.19022 0.0
C1159 C 0.46717 0.2121 0.20404 0.0
C1160 C 0.48158 0.24623 0.23566 0.0
H1161 H 0.44966 0.25975 0.33694 0.0
H1162 H 0.45465 0.24014 0.30981 0.0
H1163 H 0.48214 0.27196 0.24767 0.0
H1164 H 0.49194 0.1807 0.21114 0.0
H1165 H 0.49623 0.20452 0.23935 0.0
H1166 H 0.47688 0.20863 0.26756 0.0
C1167 C 0.46375 0.25588 0.309 0.0
C1168 C 0.48138 0.25837 0.25229 0.0
C1169 C 0.46088 0.26718 0.32463 0.0
C1170 C 0.48485 0.18928 0.20894 0.0
C1171 C 0.4873 0.20294 0.22513 0.0
C1172 C 0.47844 0.22259 0.26301 0.0
C1173 C 0.47748 0.26478 0.292 0.0
C1174 C 0.47941 0.25264 0.27448 0.0
C1175 C 0.47832 0.21438 0.22298 0.0
C1176 C 0.47979 0.22804 0.24077 0.0
H1177 H 0.49452 0.31238 0.30598 0.0
H1178 H 0.49957 0.29264 0.2787 0.0
H1179 H 0.47697 0.22997 0.29657 0.0
H1180 H 0.45552 0.19674 0.17392 0.0
H1181 H 0.45975 0.22039 0.20199 0.0
C1182 C 0.29053 0.47232 0.19271 0.0
C1183 C 0.28393 0.45382 0.1832 0.0
C1184 C 0.28036 0.47459 0.21037 0.0
C1185 C 0.24586 0.44652 0.25498 0.0
H1186 H 0.23051 0.48606 0.25347 0.0
C1187 C 0.18166 0.43922 0.30612 0.0
C1188 C 0.18247 0.45588 0.31557 0.0
C1189 C 0.19634 0.44091 0.29196 0.0
C1190 C 0.23496 0.47515 0.25437 0.0
H1191 H 0.26181 0.42317 0.18528 0.0
H1192 H 0.24421 0.4271 0.21578 0.0
H1193 H 0.25227 0.48571 0.22499 0.0
H1194 H 0.19986 0.4875 0.31751 0.0
H1195 H 0.22553 0.49041 0.29264 0.0
H1196 H 0.22847 0.43574 0.28407 0.0
C1197 C 0.25717 0.43988 0.20964 0.0
C1198 C 0.24741 0.47495 0.23803 0.0
C1199 C 0.26714 0.43767 0.19193 0.0
C1200 C 0.19858 0.47433 0.31048 0.0
C1201 C 0.21332 0.47602 0.29619 0.0
C1202 C 0.23354 0.44677 0.27131 0.0
C1203 C 0.26362 0.45833 0.2191 0.0
C1204 C 0.25256 0.46029 0.23784 0.0
C1205 C 0.21234 0.4593 0.28672 0.0
C1206 C 0.22747 0.46074 0.2709 0.0
H1207 H 0.30339 0.48502 0.1863 0.0
H1208 H 0.28571 0.48899 0.21737 0.0
H1209 H 0.24989 0.43528 0.25555 0.0
H1210 H 0.16938 0.42478 0.30907 0.0
H1211 H 0.19481 0.42773 0.28461 0.0
C1212 C 0.80458 0.27153 0.17472 0.0
C1213 C 0.81391 0.29199 0.17657 0.0
C1214 C 0.79183 0.25952 0.19109 0.0
C1215 C 0.76075 0.25732 0.23727 0.0
H1216 H 0.7693 0.21572 0.25783 0.0
C1217 C 0.7077 0.19411 0.29535 0.0
C1218 C 0.71647 0.18913 0.31237 0.0
C1219 C 0.7192 0.20776 0.27928 0.0
C1220 C 0.76678 0.22732 0.25234 0.0
H1221 H 0.81656 0.31582 0.19672 0.0
H1222 H 0.79411 0.29471 0.22541 0.0
H1223 H 0.78974 0.23734 0.22853 0.0
H1224 H 0.74424 0.19477 0.32587 0.0
H1225 H 0.76418 0.2185 0.29798 0.0
H1226 H 0.73767 0.24713 0.26118 0.0
C1227 C 0.79676 0.28806 0.21123 0.0
C1228 C 0.77837 0.23958 0.23543 0.0
C1229 C 0.80971 0.30013 0.19491 0.0
C1230 C 0.73698 0.19839 0.31318 0.0
C1231 C 0.74842 0.21186 0.29705 0.0
C1232 C 0.74895 0.24485 0.25408 0.0
C1233 C 0.78797 0.26763 0.20966 0.0
C1234 C 0.7755 0.25472 0.22769 0.0
C1235 C 0.73967 0.21652 0.27977 0.0
C1236 C 0.75193 0.22978 0.26185 0.0
H1237 H 0.80762 0.26474 0.161 0.0
H1238 H 0.78513 0.24382 0.18931 0.0
H1239 H 0.75816 0.26881 0.23155 0.0
H1240 H 0.69195 0.18733 0.29438 0.0
H1241 H 0.71204 0.21102 0.2661 0.0
C1242 C 0.52304 0.82145 0.19494 0.0
C1243 C 0.53827 0.8283 0.17944 0.0
C1244 C 0.52085 0.80759 0.2107 0.0
C1245 C 0.54831 0.78827 0.23993 0.0
H1246 H 0.49747 0.74273 0.25031 0.0
C1247 C 0.53874 0.72291 0.29212 0.0
C1248 C 0.52174 0.7127 0.30499 0.0
C1249 C 0.54089 0.73756 0.27757 0.0
C1250 C 0.51174 0.75551 0.24792 0.0
H1251 H 0.56331 0.82621 0.16857 0.0
H1252 H 0.5595 0.80207 0.19604 0.0
H1253 H 0.50074 0.76722 0.22366 0.0
H1254 H 0.49384 0.71055 0.31271 0.0
H1255 H 0.49797 0.73646 0.2882 0.0
H1256 H 0.55933 0.77681 0.26435 0.0
C1257 C 0.54924 0.80738 0.19598 0.0
C1258 C 0.51359 0.76951 0.23257 0.0
C1259 C 0.55128 0.82104 0.18009 0.0
C1260 C 0.50721 0.718 0.30329 0.0
C1261 C 0.50944 0.73277 0.2889 0.0
C1262 C 0.54644 0.77438 0.25545 0.0
C1263 C 0.53401 0.8005 0.21146 0.0
C1264 C 0.53192 0.78596 0.22829 0.0
C1265 C 0.52619 0.74259 0.27563 0.0
C1266 C 0.52814 0.75773 0.25956 0.0
H1267 H 0.51275 0.82671 0.19477 0.0
H1268 H 0.50904 0.80262 0.22251 0.0
H1269 H 0.56259 0.80095 0.23718 0.0
H1270 H 0.55043 0.71957 0.29313 0.0
H1271 H 0.55393 0.74466 0.2675 0.0
C1272 C 0.73791 0.55999 0.19723 0.0
C1273 C 0.72399 0.54429 0.18452 0.0
C1274 C 0.75064 0.55766 0.21111 0.0
C1275 C 0.77487 0.52993 0.22334 0.0
H1276 H 0.7749 0.54727 0.28304 0.0
C1277 C 0.82376 0.52652 0.29395 0.0
C1278 C 0.83213 0.54276 0.30815 0.0
C1279 C 0.80972 0.52438 0.27828 0.0
C1280 C 0.77526 0.54251 0.26642 0.0
H1281 H 0.71332 0.51402 0.17578 0.0
H1282 H 0.736 0.51003 0.20005 0.0
H1283 H 0.75266 0.54813 0.25605 0.0
H1284 H 0.8331 0.57001 0.31603 0.0
H1285 H 0.80912 0.56645 0.289 0.0
H1286 H 0.79807 0.52499 0.23363 0.0
C1287 C 0.73679 0.5241 0.1992 0.0
C1288 C 0.76242 0.54293 0.25098 0.0
C1289 C 0.72379 0.52637 0.18541 0.0
C1290 C 0.82654 0.557 0.30592 0.0
C1291 C 0.81272 0.55494 0.29033 0.0
C1292 C 0.78797 0.52971 0.23883 0.0
C1293 C 0.74999 0.53962 0.21261 0.0
C1294 C 0.76237 0.53708 0.22917 0.0
C1295 C 0.80386 0.5385 0.27649 0.0
C1296 C 0.78864 0.53648 0.26044 0.0
H1297 H 0.73841 0.57392 0.19734 0.0
H1298 H 0.76078 0.56992 0.22111 0.0
H1299 H 0.77509 0.52531 0.20662 0.0
H1300 H 0.8278 0.51533 0.29523 0.0
H1301 H 0.8032 0.51152 0.2679 0.0
C1302 C 0.29995 0.81995 0.30157 0.0
C1303 C 0.29219 0.82783 0.31653 0.0
C1304 C 0.28784 0.80589 0.28618 0.0
C1305 C 0.23514 0.77144 0.27359 0.0
H1306 H 0.25537 0.77073 0.21573 0.0
C1307 C 0.20558 0.73426 0.182 0.0
C1308 C 0.19063 0.7158 0.18873 0.0
C1309 C 0.21821 0.74783 0.19749 0.0
C1310 C 0.24936 0.77084 0.2317 0.0
H1311 H 0.26582 0.82762 0.32673 0.0
H1312 H 0.24484 0.80373 0.29961 0.0
H1313 H 0.27659 0.79474 0.24263 0.0
H1314 H 0.17764 0.69666 0.21672 0.0
H1315 H 0.19995 0.71986 0.24364 0.0
H1316 H 0.20766 0.74831 0.26237 0.0
C1317 C 0.26009 0.80772 0.30014 0.0
C1318 C 0.26168 0.78445 0.24733 0.0
C1319 C 0.27213 0.82149 0.31572 0.0
C1320 C 0.18877 0.71097 0.21116 0.0
C1321 C 0.20157 0.72435 0.22658 0.0
C1322 C 0.22276 0.75807 0.25788 0.0
C1323 C 0.26773 0.79965 0.28516 0.0
C1324 C 0.25475 0.78495 0.26852 0.0
C1325 C 0.21638 0.74306 0.22004 0.0
C1326 C 0.22967 0.7575 0.23671 0.0
H1327 H 0.31536 0.82454 0.30194 0.0
H1328 H 0.29425 0.79983 0.27523 0.0
H1329 H 0.22926 0.77106 0.28979 0.0
H1330 H 0.20724 0.73829 0.16478 0.0
H1331 H 0.22918 0.76214 0.19177 0.0
C1332 C 0.5493 0.82218 0.7943 0.0
C1333 C 0.53571 0.81916 0.81094 0.0
C1334 C 0.54551 0.80759 0.77893 0.0
C1335 C 0.52033 0.75545 0.76969 0.0
H1336 H 0.52752 0.76983 0.70799 0.0
C1337 C 0.51351 0.701 0.70083 0.0
C1338 C 0.52705 0.7089 0.68347 0.0
C1339 C 0.51177 0.71327 0.71627 0.0
C1340 C 0.52564 0.76556 0.72514 0.0
H1341 H 0.50753 0.79842 0.82461 0.0
H1342 H 0.50107 0.77241 0.79783 0.0
H1343 H 0.52979 0.79331 0.73546 0.0
H1344 H 0.54972 0.73592 0.66917 0.0
H1345 H 0.54703 0.75711 0.69598 0.0
H1346 H 0.51715 0.72803 0.75953 0.0
C1347 C 0.51459 0.78625 0.79673 0.0
C1348 C 0.52681 0.77901 0.74085 0.0
C1349 C 0.51823 0.80109 0.81195 0.0
C1350 C 0.5388 0.72931 0.68196 0.0
C1351 C 0.53721 0.74152 0.69742 0.0
C1352 C 0.51944 0.74203 0.75394 0.0
C1353 C 0.52815 0.78948 0.77994 0.0
C1354 C 0.52454 0.77425 0.76331 0.0
C1355 C 0.52366 0.73373 0.7148 0.0
C1356 C 0.52252 0.74707 0.73147 0.0
H1357 H 0.56275 0.83603 0.79289 0.0
H1358 H 0.55628 0.81044 0.76627 0.0
H1359 H 0.51863 0.75146 0.78692 0.0
H1360 H 0.50418 0.68534 0.70239 0.0
H1361 H 0.50104 0.70671 0.72927 0.0
C1362 C 0.79694 0.52801 0.68852 0.0
C1363 C 0.80908 0.52019 0.69286 0.0
C1364 C 0.78457 0.52828 0.7049 0.0
C1365 C 0.77622 0.52267 0.76599 0.0
H1366 H 0.72809 0.52145 0.75019 0.0
C1367 C 0.71773 0.51783 0.82902 0.0
C1368 C 0.71404 0.53339 0.82689 0.0
C1369 C 0.72864 0.51468 0.81293 0.0
C1370 C 0.74147 0.52174 0.75481 0.0
H1371 H 0.81724 0.50571 0.71734 0.0
H1372 H 0.79512 0.50525 0.74557 0.0
H1373 H 0.74797 0.51834 0.72154 0.0
H1374 H 0.71813 0.55734 0.80601 0.0
H1375 H 0.73663 0.55153 0.77771 0.0
H1376 H 0.76919 0.52553 0.79943 0.0
C1377 C 0.79561 0.51201 0.72993 0.0
C1378 C 0.75303 0.52017 0.73838 0.0
C1379 C 0.80826 0.51215 0.7137 0.0
C1380 C 0.72102 0.54542 0.8082 0.0
C1381 C 0.73146 0.54201 0.79194 0.0
C1382 C 0.76442 0.52382 0.78246 0.0
C1383 C 0.78372 0.5203 0.72592 0.0
C1384 C 0.77078 0.52092 0.74363 0.0
C1385 C 0.73549 0.5267 0.79418 0.0
C1386 C 0.74709 0.52367 0.77699 0.0
H1387 H 0.79743 0.53442 0.67262 0.0
H1388 H 0.77603 0.53517 0.70112 0.0
H1389 H 0.78989 0.52371 0.77085 0.0
H1390 H 0.71244 0.50835 0.84325 0.0
H1391 H 0.73154 0.50275 0.81499 0.0
C1392 C 0.2957 0.81577 0.70113 0.0
C1393 C 0.28812 0.82343 0.68561 0.0
C1394 C 0.28364 0.80292 0.71759 0.0
C1395 C 0.23982 0.79074 0.74945 0.0
H1396 H 0.23375 0.7394 0.75826 0.0
C1397 C 0.17493 0.73192 0.79815 0.0
C1398 C 0.17697 0.71812 0.81071 0.0
C1399 C 0.19004 0.74513 0.7846 0.0
C1400 C 0.23551 0.75381 0.75636 0.0
H1401 H 0.26204 0.82387 0.67546 0.0
H1402 H 0.24118 0.80182 0.70426 0.0
H1403 H 0.25758 0.7618 0.73146 0.0
H1404 H 0.19674 0.70755 0.81892 0.0
H1405 H 0.2235 0.73104 0.79556 0.0
H1406 H 0.21816 0.78318 0.77437 0.0
C1407 C 0.25637 0.80554 0.70357 0.0
C1408 C 0.24913 0.7666 0.74092 0.0
C1409 C 0.26827 0.81803 0.68695 0.0
C1410 C 0.19467 0.71796 0.80941 0.0
C1411 C 0.20998 0.73139 0.79594 0.0
C1412 C 0.22649 0.77815 0.76506 0.0
C1413 C 0.2639 0.7979 0.71911 0.0
C1414 C 0.25106 0.785 0.73696 0.0
C1415 C 0.20784 0.74516 0.7833 0.0
C1416 C 0.22371 0.75928 0.76835 0.0
H1417 H 0.31093 0.81967 0.70045 0.0
H1418 H 0.28982 0.79726 0.7294 0.0
H1419 H 0.24125 0.80498 0.74701 0.0
H1420 H 0.16135 0.73217 0.79822 0.0
H1421 H 0.1875 0.75503 0.77471 0.0
C1422 C 0.46924 0.19603 0.82201 0.0
C1423 C 0.47857 0.18487 0.8202 0.0
C1424 C 0.4716 0.20956 0.80578 0.0
C1425 C 0.48657 0.24432 0.77505 0.0
H1426 H 0.48425 0.22969 0.71379 0.0
C1427 C 0.49322 0.29658 0.70461 0.0
C1428 C 0.47982 0.28813 0.68719 0.0
C1429 C 0.49547 0.28484 0.72025 0.0
C1430 C 0.48488 0.234 0.73082 0.0
H1431 H 0.49807 0.17965 0.79986 0.0
H1432 H 0.50216 0.20327 0.77148 0.0
H1433 H 0.48341 0.20772 0.74249 0.0
H1434 H 0.45844 0.26048 0.67266 0.0
H1435 H 0.46239 0.24018 0.69972 0.0
H1436 H 0.48733 0.27026 0.76345 0.0
C1437 C 0.49281 0.20133 0.78543 0.0
C1438 C 0.48463 0.22148 0.74728 0.0
C1439 C 0.49047 0.18777 0.80172 0.0
C1440 C 0.46913 0.26761 0.68555 0.0
C1441 C 0.47139 0.2559 0.70115 0.0
C1442 C 0.48685 0.25683 0.7586 0.0
C1443 C 0.48335 0.21236 0.78723 0.0
C1444 C 0.48517 0.22634 0.76963 0.0
C1445 C 0.48442 0.26433 0.71886 0.0
C1446 C 0.48572 0.25171 0.73627 0.0
H1447 H 0.45966 0.19401 0.83569 0.0
H1448 H 0.46377 0.21748 0.80753 0.0
H1449 H 0.48728 0.24867 0.79208 0.0
H1450 H 0.50192 0.3123 0.70624 0.0
H1451 H 0.50587 0.29184 0.73347 0.0
C1452 C 0.19317 0.48235 0.69529 0.0
C1453 C 0.18 0.46363 0.68706 0.0
C1454 C 0.20654 0.48474 0.71195 0.0
C1455 C 0.23046 0.45895 0.73608 0.0
H1456 H 0.24131 0.49289 0.78654 0.0
C1457 C 0.26811 0.45069 0.81201 0.0
C1458 C 0.28367 0.46763 0.82139 0.0
C1459 C 0.25587 0.45197 0.79637 0.0
C1460 C 0.23857 0.48351 0.77242 0.0
H1461 H 0.16981 0.4327 0.69104 0.0
H1462 H 0.19284 0.43683 0.71963 0.0
H1463 H 0.21947 0.4922 0.75738 0.0
H1464 H 0.29764 0.49928 0.82226 0.0
H1465 H 0.27625 0.50145 0.79468 0.0
H1466 H 0.24922 0.45002 0.751 0.0
C1467 C 0.19335 0.44976 0.71287 0.0
C1468 C 0.2261 0.48314 0.75571 0.0
C1469 C 0.18011 0.44739 0.69636 0.0
C1470 C 0.28604 0.48591 0.81527 0.0
C1471 C 0.27368 0.48717 0.79956 0.0
C1472 C 0.2428 0.45927 0.75269 0.0
C1473 C 0.20697 0.46844 0.72067 0.0
C1474 C 0.22158 0.47051 0.73757 0.0
C1475 C 0.25876 0.4702 0.78954 0.0
C1476 C 0.24669 0.47122 0.7713 0.0
H1477 H 0.19342 0.49514 0.68852 0.0
H1478 H 0.21684 0.49934 0.71761 0.0
H1479 H 0.22774 0.44943 0.72208 0.0
H1480 H 0.26572 0.43633 0.81599 0.0
H1481 H 0.24428 0.43858 0.7893 0.0
C1482 C 0.7282 0.20036 0.67903 0.0
C1483 C 0.70777 0.18845 0.6808 0.0
C1484 C 0.73908 0.21315 0.69598 0.0
C1485 C 0.758 0.24576 0.72969 0.0
H1486 H 0.74596 0.22625 0.78949 0.0
C1487 C 0.80232 0.29308 0.8038 0.0
C1488 C 0.8079 0.28375 0.81954 0.0
C1489 C 0.78845 0.28223 0.78764 0.0
C1490 C 0.74954 0.23192 0.77289 0.0
H1491 H 0.6828 0.18137 0.70167 0.0
H1492 H 0.70183 0.20365 0.73129 0.0
H1493 H 0.72521 0.20625 0.75935 0.0
H1494 H 0.80284 0.2555 0.83068 0.0
H1495 H 0.77874 0.2367 0.80271 0.0
H1496 H 0.78271 0.27113 0.7431 0.0
C1497 C 0.70942 0.20284 0.71684 0.0
C1498 C 0.73751 0.22053 0.75562 0.0
C1499 C 0.6985 0.19005 0.69983 0.0
C1500 C 0.79878 0.26323 0.8191 0.0
C1501 C 0.78491 0.2524 0.80298 0.0
C1502 C 0.77 0.25715 0.74695 0.0
C1503 C 0.72988 0.21441 0.71522 0.0
C1504 C 0.74175 0.22718 0.73376 0.0
C1505 C 0.77976 0.26177 0.78685 0.0
C1506 C 0.76609 0.25027 0.76874 0.0
H1507 H 0.73598 0.19939 0.66489 0.0
H1508 H 0.75483 0.2216 0.6943 0.0
H1509 H 0.76157 0.25143 0.71309 0.0
H1510 H 0.80875 0.3088 0.80382 0.0
H1511 H 0.78459 0.2899 0.7757 0.0
C1512 C 0.3876 0.06828 0.23492 0.0
C1513 C 0.38476 0.07722 0.21633 0.0
C1514 C 0.37205 0.05169 0.24428 0.0
C1515 C 0.33111 0.00833 0.22574 0.0
H1516 H 0.32415 0.99529 0.28781 0.0
C1517 C 0.30312 0.93856 0.28935 0.0
C1518 C 0.31622 0.93238 0.28244 0.0
C1519 C 0.30318 0.95451 0.27929 0.0
C1520 C 0.32543 0.99867 0.2704 0.0
H1521 H 0.36241 0.07662 0.19485 0.0
H1522 H 0.33554 0.04676 0.2104 0.0
H1523 H 0.34035 0.02952 0.27647 0.0
H1524 H 0.33813 0.93708 0.2578 0.0
H1525 H 0.33756 0.96412 0.23994 0.0
H1526 H 0.3179 0.97755 0.21974 0.0
C1527 C 0.34996 0.05289 0.21763 0.0
C1528 C 0.33477 0.01825 0.26396 0.0
C1529 C 0.36548 0.06987 0.20858 0.0
C1530 C 0.3277 0.94115 0.26362 0.0
C1531 C 0.32744 0.95679 0.25332 0.0
C1532 C 0.32204 0.98875 0.2322 0.0
C1533 C 0.35328 0.04333 0.2351 0.0
C1534 C 0.33847 0.02326 0.24162 0.0
C1535 C 0.31591 0.96422 0.26173 0.0
C1536 C 0.31994 0.98382 0.25462 0.0
H1537 H 0.40205 0.07304 0.24139 0.0
H1538 H 0.37506 0.04447 0.2576 0.0
H1539 H 0.33393 0.01182 0.20842 0.0
H1540 H 0.29355 0.9318 0.3033 0.0
H1541 H 0.29399 0.95986 0.28593 0.0
C1542 C 0.33452 0.38349 0.20676 0.0
C1543 C 0.32761 0.38116 0.18502 0.0
C1544 C 0.33538 0.36835 0.21747 0.0
C1545 C 0.34499 0.32972 0.20441 0.0
H1546 H 0.33884 0.32106 0.26741 0.0
C1547 C 0.37484 0.30119 0.28172 0.0
C1548 C 0.39495 0.3143 0.27842 0.0
C1549 C 0.36087 0.30148 0.2678 0.0
C1550 C 0.3402 0.32283 0.24971 0.0
H1551 H 0.31474 0.36037 0.1582 0.0
H1552 H 0.31701 0.33415 0.17675 0.0
H1553 H 0.32283 0.3367 0.24887 0.0
H1554 H 0.41584 0.33707 0.25666 0.0
H1555 H 0.39173 0.33687 0.23225 0.0
H1556 H 0.36358 0.31722 0.20556 0.0
C1557 C 0.32172 0.34779 0.18538 0.0
C1558 C 0.33117 0.33192 0.23915 0.0
C1559 C 0.3206 0.36288 0.17472 0.0
C1560 C 0.40066 0.32646 0.25974 0.0
C1561 C 0.38676 0.32643 0.24565 0.0
C1562 C 0.35416 0.32079 0.21501 0.0
C1563 C 0.32954 0.35055 0.20667 0.0
C1564 C 0.33428 0.33631 0.2166 0.0
C1565 C 0.36675 0.3145 0.24999 0.0
C1566 C 0.35262 0.31816 0.23792 0.0
H1567 H 0.34034 0.39738 0.21516 0.0
H1568 H 0.34181 0.37105 0.23374 0.0
H1569 H 0.3477 0.33298 0.18703 0.0
H1570 H 0.36979 0.2912 0.29552 0.0
H1571 H 0.34549 0.29205 0.2714 0.0
C1572 C 0.05381 0.3912 0.30149 0.0
C1573 C 0.0563 0.41005 0.30343 0.0
C1574 C 0.03701 0.37614 0.2917 0.0
C1575 C 0.98607 0.3614 0.27848 0.0
H1576 H 0.99101 0.33084 0.23157 0.0
C1577 C 0.94246 0.32582 0.19649 0.0
C1578 C 0.92326 0.31778 0.20454 0.0
C1579 C 0.95796 0.33051 0.21085 0.0
C1580 C 0.98937 0.33908 0.24483 0.0
H1581 H 0.04311 0.42788 0.29692 0.0
H1582 H 0.01378 0.40161 0.27975 0.0
H1583 H 0.01993 0.35367 0.25259 0.0
H1584 H 0.90499 0.30575 0.23346 0.0
H1585 H 0.93216 0.31411 0.25861 0.0
H1586 H 0.95583 0.34771 0.2701 0.0
C1587 C 0.02478 0.39846 0.28588 0.0
C1588 C 0.00589 0.35208 0.2569 0.0
C1589 C 0.04165 0.41355 0.29546 0.0
C1590 C 0.91967 0.3124 0.22684 0.0
C1591 C 0.93521 0.31716 0.24123 0.0
C1592 C 0.96958 0.34836 0.26654 0.0
C1593 C 0.02228 0.37961 0.28393 0.0
C1594 C 0.00448 0.36384 0.27332 0.0
C1595 C 0.95459 0.32727 0.23355 0.0
C1596 C 0.97115 0.33753 0.2491 0.0
H1597 H 0.06496 0.38816 0.30739 0.0
H1598 H 0.03543 0.36175 0.29042 0.0
H1599 H 0.98453 0.37008 0.29128 0.0
H1600 H 0.94585 0.3303 0.17947 0.0
H1601 H 0.97271 0.33836 0.20438 0.0
C1602 C 0.63705 0.94589 0.19746 0.0
C1603 C 0.6177 0.93846 0.20495 0.0
C1604 C 0.6526 0.96198 0.20779 0.0
C1605 C 0.66725 0.9934 0.25721 0.0
H1606 H 0.68921 0.03689 0.21629 0.0
C1607 C 0.70416 0.07259 0.28785 0.0
C1608 C 0.6926 0.08066 0.28111 0.0
C1609 C 0.70272 0.05623 0.27713 0.0
C1610 C 0.68363 0.02486 0.22786 0.0
H1611 H 0.60007 0.94151 0.23047 0.0
H1612 H 0.62713 0.96875 0.24878 0.0
H1613 H 0.67151 0.00343 0.20227 0.0
H1614 H 0.67174 0.0785 0.25626 0.0
H1615 H 0.67013 0.05096 0.23726 0.0
H1616 H 0.67822 0.01488 0.28282 0.0
C1617 C 0.63022 0.96221 0.23479 0.0
C1618 C 0.67358 0.00572 0.21986 0.0
C1619 C 0.61464 0.94645 0.22424 0.0
C1620 C 0.68115 0.07312 0.26199 0.0
C1621 C 0.68011 0.05714 0.25101 0.0
C1622 C 0.67755 0.01253 0.2652 0.0
C1623 C 0.64921 0.97061 0.22618 0.0
C1624 C 0.66444 0.98989 0.23449 0.0
C1625 C 0.69019 0.04802 0.25904 0.0
C1626 C 0.68494 0.02842 0.2506 0.0
H1627 H 0.64016 0.93982 0.18309 0.0
H1628 H 0.66717 0.96813 0.20095 0.0
H1629 H 0.66037 0.98142 0.2688 0.0
H1630 H 0.71367 0.07827 0.30201 0.0
H1631 H 0.71076 0.0495 0.2835 0.0
C1632 C 0.61125 0.65887 0.33635 0.0
C1633 C 0.60933 0.67454 0.32834 0.0
C1634 C 0.62551 0.65519 0.32791 0.0
C1635 C 0.64866 0.65999 0.27517 0.0
H1636 H 0.67007 0.63135 0.30467 0.0
C1637 C 0.6722 0.61376 0.22535 0.0
C1638 C 0.66434 0.59453 0.23314 0.0
C1639 C 0.67256 0.62829 0.23877 0.0
C1640 C 0.66425 0.63938 0.29619 0.0
H1641 H 0.62241 0.6999 0.30698 0.0
H1642 H 0.6473 0.69333 0.29205 0.0
H1643 H 0.65893 0.64997 0.32637 0.0
H1644 H 0.65154 0.57566 0.26143 0.0
H1645 H 0.65184 0.60087 0.28474 0.0
H1646 H 0.65285 0.6486 0.24513 0.0
C1647 C 0.63751 0.68375 0.30466 0.0
C1648 C 0.65794 0.6501 0.3086 0.0
C1649 C 0.62325 0.68751 0.3132 0.0
C1650 C 0.6578 0.59037 0.25501 0.0
C1651 C 0.65806 0.60488 0.2684 0.0
C1652 C 0.65494 0.64929 0.26278 0.0
C1653 C 0.63817 0.66701 0.31118 0.0
C1654 C 0.64934 0.65987 0.29827 0.0
C1655 C 0.66496 0.62388 0.26025 0.0
C1656 C 0.66209 0.63823 0.27318 0.0
H1657 H 0.6007 0.64835 0.34774 0.0
H1658 H 0.62542 0.64205 0.33317 0.0
H1659 H 0.64188 0.66711 0.26664 0.0
H1660 H 0.67771 0.61748 0.20869 0.0
H1661 H 0.67828 0.64285 0.23211 0.0
C1662 C 0.94532 0.6333 0.27436 0.0
C1663 C 0.93714 0.61302 0.27112 0.0
C1664 C 0.95864 0.64666 0.25917 0.0
C1665 C 0.9781 0.65159 0.20284 0.0
H1666 H 0.02928 0.6818 0.22948 0.0
C1667 C 0.04667 0.66072 0.16295 0.0
C1668 C 0.06523 0.67634 0.16846 0.0
C1669 C 0.02981 0.65966 0.17152 0.0
C1670 C 0.0151 0.67404 0.22163 0.0
H1671 H 0.93631 0.59119 0.24857 0.0
H1672 H 0.95855 0.61431 0.22203 0.0
H1673 H 1.00031 0.6673 0.25266 0.0
H1674 H 0.08048 0.70401 0.18573 0.0
H1675 H 0.05087 0.70215 0.2008 0.0
H1676 H 0.99289 0.65749 0.1719 0.0
C1677 C 0.95465 0.61986 0.23631 0.0
C1678 C 0.99847 0.66569 0.23498 0.0
C1679 C 0.94176 0.60655 0.25163 0.0
C1680 C 0.06641 0.69164 0.18144 0.0
C1681 C 0.04946 0.69057 0.19006 0.0
C1682 C 0.9947 0.66012 0.18945 0.0
C1683 C 0.96362 0.64001 0.24018 0.0
C1684 C 0.97996 0.6535 0.2258 0.0
C1685 C 0.031 0.67418 0.18588 0.0
C1686 C 0.01347 0.67044 0.19883 0.0
H1687 H 0.94185 0.63895 0.28884 0.0
H1688 H 0.96539 0.66217 0.26249 0.0
H1689 H 0.96392 0.64242 0.19537 0.0
H1690 H 0.04512 0.64847 0.15335 0.0
H1691 H 0.01595 0.64663 0.16819 0.0
C1692 C 0.58716 0.96186 0.79922 0.0
C1693 C 0.59036 0.9469 0.80673 0.0
C1694 C 0.60244 0.97882 0.79004 0.0
C1695 C 0.64925 0.99779 0.76164 0.0
H1696 H 0.65302 0.04761 0.77457 0.0
C1697 C 0.68804 0.08387 0.7313 0.0
C1698 C 0.68332 0.08009 0.70887 0.0
C1699 C 0.68339 0.06849 0.7459 0.0
C1700 C 0.65258 0.03395 0.77109 0.0
H1701 H 0.61199 0.93784 0.81033 0.0
H1702 H 0.63877 0.96757 0.79419 0.0
H1703 H 0.63062 0.01886 0.79555 0.0
H1704 H 0.67209 0.05748 0.68383 0.0
H1705 H 0.66406 0.03086 0.7091 0.0
H1706 H 0.67083 0.01284 0.73669 0.0
C1707 C 0.62443 0.96614 0.79546 0.0
C1708 C 0.63949 0.0174 0.78292 0.0
C1709 C 0.60915 0.94921 0.80479 0.0
C1710 C 0.67603 0.06096 0.70097 0.0
C1711 C 0.67138 0.04561 0.71554 0.0
C1712 C 0.66236 0.01437 0.74974 0.0
C1713 C 0.62124 0.98116 0.78809 0.0
C1714 C 0.63719 0.99905 0.7778 0.0
C1715 C 0.67395 0.04908 0.7383 0.0
C1716 C 0.66367 0.03251 0.75385 0.0
H1717 H 0.5729 0.96058 0.80072 0.0
H1718 H 0.59946 0.99002 0.7842 0.0
H1719 H 0.64781 0.98382 0.75736 0.0
H1720 H 0.69405 0.09853 0.73781 0.0
H1721 H 0.68598 0.07166 0.7633 0.0
C1722 C 0.61717 0.5794 0.82343 0.0
C1723 C 0.6355 0.58405 0.83199 0.0
C1724 C 0.61359 0.59415 0.81648 0.0
C1725 C 0.63897 0.64514 0.79732 0.0
H1726 H 0.58665 0.63754 0.80161 0.0
C1727 C 0.60591 0.67116 0.7324 0.0
C1728 C 0.58982 0.67348 0.73741 0.0
C1729 C 0.61538 0.66686 0.74892 0.0
C1730 C 0.60151 0.64029 0.8007 0.0
H1731 H 0.66448 0.60789 0.83997 0.0
H1732 H 0.65806 0.63366 0.82834 0.0
H1733 H 0.5948 0.61607 0.82171 0.0
H1734 H 0.57262 0.67555 0.76396 0.0
H1735 H 0.58939 0.66826 0.793 0.0
H1736 H 0.64563 0.66931 0.77616 0.0
C1737 C 0.64652 0.61859 0.82677 0.0
C1738 C 0.60607 0.62771 0.81193 0.0
C1739 C 0.65013 0.60381 0.8336 0.0
C1740 C 0.58474 0.67345 0.75958 0.0
C1741 C 0.59432 0.66924 0.77618 0.0
C1742 C 0.63447 0.65788 0.78626 0.0
C1743 C 0.62822 0.61392 0.81808 0.0
C1744 C 0.62456 0.62942 0.80955 0.0
C1745 C 0.60905 0.66486 0.77087 0.0
C1746 C 0.61542 0.65502 0.78698 0.0
H1747 H 0.60547 0.56436 0.82229 0.0
H1748 H 0.59944 0.58999 0.80947 0.0
H1749 H 0.65339 0.64694 0.79515 0.0
H1750 H 0.61011 0.67087 0.7155 0.0
H1751 H 0.62651 0.66341 0.74409 0.0
C1752 C 0.04601 0.64278 0.77896 0.0
C1753 C 0.06418 0.64525 0.77251 0.0
C1754 C 0.0339 0.64468 0.76372 0.0
C1755 C 0.02229 0.63939 0.70535 0.0
H1756 H 0.98853 0.65933 0.72381 0.0
C1757 C 0.95162 0.61664 0.65929 0.0
C1758 C 0.93603 0.60565 0.67388 0.0
C1759 C 0.9702 0.62998 0.66736 0.0
C1760 C 0.99808 0.65404 0.71823 0.0
H1761 H 0.08397 0.65175 0.74498 0.0
H1762 H 0.06254 0.65477 0.71811 0.0
H1763 H 0.01688 0.66596 0.74615 0.0
H1764 H 0.92759 0.60204 0.70842 0.0
H1765 H 0.95935 0.62554 0.72207 0.0
H1766 H 0.00284 0.62648 0.67816 0.0
C1767 C 0.05775 0.65141 0.73505 0.0
C1768 C 0.0142 0.6577 0.73107 0.0
C1769 C 0.06993 0.64955 0.75037 0.0
C1770 C 0.93895 0.61017 0.69646 0.0
C1771 C 0.95735 0.62373 0.70442 0.0
C1772 C 0.0062 0.63581 0.69246 0.0
C1773 C 0.03962 0.64904 0.7416 0.0
C1774 C 0.02582 0.64948 0.72539 0.0
C1775 C 0.97338 0.63293 0.6901 0.0
C1776 C 0.99335 0.64219 0.69944 0.0
H1777 H 0.04097 0.63909 0.79579 0.0
H1778 H 0.01977 0.64217 0.76919 0.0
H1779 H 0.03094 0.63285 0.70053 0.0
H1780 H 0.94983 0.61407 0.64173 0.0
H1781 H 0.9823 0.63711 0.65594 0.0
C1782 C 0.40051 0.06466 0.77688 0.0
C1783 C 0.39706 0.07351 0.79515 0.0
C1784 C 0.38514 0.04857 0.76654 0.0
C1785 C 0.34251 0.00547 0.78138 0.0
H1786 H 0.33623 0.99576 0.71855 0.0
C1787 C 0.3349 0.93843 0.73752 0.0
C1788 C 0.32195 0.93024 0.71963 0.0
C1789 C 0.3364 0.95445 0.74888 0.0
C1790 C 0.33738 0.99828 0.73614 0.0
H1791 H 0.37407 0.07317 0.81525 0.0
H1792 H 0.34745 0.04413 0.79801 0.0
H1793 H 0.35404 0.02939 0.73219 0.0
H1794 H 0.29885 0.9315 0.7015 0.0
H1795 H 0.30257 0.9604 0.7205 0.0
H1796 H 0.3276 0.97432 0.78524 0.0
C1797 C 0.36218 0.04998 0.79176 0.0
C1798 C 0.34762 0.01748 0.7439 0.0
C1799 C 0.37753 0.06648 0.80177 0.0
C1800 C 0.30949 0.93771 0.71461 0.0
C1801 C 0.31139 0.95413 0.72564 0.0
C1802 C 0.33262 0.98626 0.7736 0.0
C1803 C 0.36597 0.04064 0.77442 0.0
C1804 C 0.35089 0.02118 0.76653 0.0
C1805 C 0.32528 0.96295 0.74242 0.0
C1806 C 0.33064 0.98253 0.75089 0.0
H1807 H 0.41518 0.0692 0.77133 0.0
H1808 H 0.38845 0.04144 0.75336 0.0
H1809 H 0.34504 0.00798 0.7989 0.0
H1810 H 0.345 0.9335 0.74188 0.0
H1811 H 0.3474 0.96115 0.76161 0.0
C1812 C 0.34264 0.39815 0.81073 0.0
C1813 C 0.3571 0.41732 0.80495 0.0
C1814 C 0.34301 0.38198 0.80199 0.0
C1815 C 0.35898 0.36446 0.75617 0.0
H1816 H 0.37363 0.33656 0.79746 0.0
C1817 C 0.38549 0.31303 0.72623 0.0
C1818 C 0.40579 0.32272 0.73044 0.0
C1819 C 0.37331 0.31799 0.73792 0.0
C1820 C 0.36899 0.34383 0.78584 0.0
H1821 H 0.38305 0.43417 0.78489 0.0
H1822 H 0.38296 0.4059 0.76892 0.0
H1823 H 0.36357 0.35942 0.8112 0.0
H1824 H 0.42836 0.34371 0.75246 0.0
H1825 H 0.407 0.35113 0.77328 0.0
H1826 H 0.36527 0.34964 0.73078 0.0
C1827 C 0.37149 0.40358 0.78039 0.0
C1828 C 0.3633 0.35688 0.79365 0.0
C1829 C 0.37144 0.41977 0.7895 0.0
C1830 C 0.41296 0.33562 0.74852 0.0
C1831 C 0.40068 0.34006 0.76057 0.0
C1832 C 0.36424 0.35111 0.74838 0.0
C1833 C 0.35747 0.38461 0.78683 0.0
C1834 C 0.35907 0.36787 0.77882 0.0
C1835 C 0.38103 0.33209 0.75462 0.0
C1836 C 0.37009 0.34133 0.76312 0.0
H1837 H 0.33106 0.39558 0.82213 0.0
H1838 H 0.33205 0.36742 0.80711 0.0
H1839 H 0.35579 0.37285 0.7445 0.0
H1840 H 0.37909 0.30241 0.71314 0.0
H1841 H 0.3581 0.31154 0.7332 0.0
C1842 C 0.06209 0.40197 0.71959 0.0
C1843 C 0.06405 0.39824 0.6974 0.0
C1844 C 0.04613 0.3885 0.7319 0.0
C1845 C 0.002 0.33896 0.73269 0.0
H1846 H 0.97879 0.36717 0.75935 0.0
C1847 C 0.93117 0.30891 0.78781 0.0
C1848 C 0.91958 0.31742 0.78303 0.0
C1849 C 0.94842 0.31446 0.77602 0.0
C1850 C 0.98508 0.35908 0.75197 0.0
H1851 H 0.0518 0.37642 0.67151 0.0
H1852 H 0.02335 0.35332 0.69276 0.0
H1853 H 0.01127 0.38521 0.74377 0.0
H1854 H 0.91621 0.33684 0.76026 0.0
H1855 H 0.94553 0.3457 0.73964 0.0
H1856 H 0.97514 0.31273 0.74071 0.0
C1857 C 0.03431 0.36661 0.70065 0.0
C1858 C 0.00382 0.36939 0.74332 0.0
C1859 C 0.05045 0.38002 0.68837 0.0
C1860 C 0.92448 0.32978 0.76458 0.0
C1861 C 0.94149 0.33511 0.75279 0.0
C1862 C 0.98311 0.32853 0.7416 0.0
C1863 C 0.03158 0.37113 0.72223 0.0
C1864 C 0.01245 0.35953 0.73334 0.0
C1865 C 0.95416 0.32842 0.75922 0.0
C1866 C 0.97441 0.33862 0.75085 0.0
H1867 H 0.07217 0.41581 0.72718 0.0
H1868 H 0.04458 0.39221 0.74866 0.0
H1869 H 0.00835 0.331 0.72512 0.0
H1870 H 0.9276 0.2989 0.80145 0.0
H1871 H 0.95793 0.30898 0.78111 0.0
C1872 C 0.49048 0.10156 0.22617 0.0
C1873 C 0.49236 0.11321 0.20786 0.0
C1874 C 0.50695 0.10432 0.23762 0.0
C1875 C 0.54333 0.10231 0.24587 0.0
H1876 H 0.58877 0.15213 0.26051 0.0
C1877 C 0.61352 0.10565 0.27432 0.0
C1878 C 0.62232 0.11655 0.29341 0.0
C1879 C 0.59926 0.10775 0.26324 0.0
C1880 C 0.57613 0.13813 0.25659 0.0
H1881 H 0.51297 0.13761 0.18789 0.0
H1882 H 0.54194 0.14228 0.20782 0.0
H1883 H 0.56011 0.15128 0.24366 0.0
H1884 H 0.62384 0.139 0.31519 0.0
H1885 H 0.59854 0.14252 0.29582 0.0
H1886 H 0.55898 0.08905 0.25889 0.0
C1887 C 0.52763 0.13109 0.21337 0.0
C1888 C 0.55982 0.13765 0.24681 0.0
C1889 C 0.51106 0.12836 0.20191 0.0
C1890 C 0.61729 0.1304 0.30052 0.0
C1891 C 0.60286 0.13244 0.28941 0.0
C1892 C 0.55955 0.10279 0.2555 0.0
C1893 C 0.52575 0.11872 0.23098 0.0
C1894 C 0.54321 0.11969 0.24144 0.0
C1895 C 0.5933 0.1207 0.27103 0.0
C1896 C 0.57618 0.12067 0.26088 0.0
H1897 H 0.47627 0.08994 0.23141 0.0
H1898 H 0.50498 0.09485 0.25143 0.0
H1899 H 0.53091 0.08824 0.24165 0.0
H1900 H 0.61728 0.09507 0.26821 0.0
H1901 H 0.5925 0.09883 0.24882 0.0
C1902 C 0.47165 0.62115 0.27336 0.0
C1903 C 0.47523 0.61864 0.29541 0.0
C1904 C 0.45631 0.60601 0.26188 0.0
C1905 C 0.41134 0.55867 0.26422 0.0
H1906 H 0.43365 0.54647 0.21391 0.0
C1907 C 0.36923 0.50123 0.19434 0.0
C1908 C 0.37597 0.48796 0.19113 0.0
C1909 C 0.37894 0.51696 0.20887 0.0
C1910 C 0.42723 0.54976 0.22786 0.0
H1911 H 0.46449 0.59897 0.32335 0.0
H1912 H 0.43744 0.57231 0.30309 0.0
H1913 H 0.45415 0.57539 0.23598 0.0
H1914 H 0.39789 0.48053 0.20093 0.0
H1915 H 0.41505 0.50824 0.22573 0.0
H1916 H 0.3843 0.53284 0.25577 0.0
C1917 C 0.44662 0.58606 0.2948 0.0
C1918 C 0.43888 0.56633 0.24038 0.0
C1919 C 0.46209 0.60128 0.30634 0.0
C1920 C 0.3923 0.49047 0.20304 0.0
C1921 C 0.40215 0.50631 0.21722 0.0
C1922 C 0.39951 0.54218 0.25135 0.0
C1923 C 0.44418 0.58807 0.27224 0.0
C1924 C 0.43111 0.57088 0.25873 0.0
C1925 C 0.39569 0.51978 0.22005 0.0
C1926 C 0.4075 0.53753 0.23325 0.0
H1927 H 0.48134 0.63447 0.26457 0.0
H1928 H 0.45453 0.60795 0.24456 0.0
H1929 H 0.40508 0.56192 0.27834 0.0
H1930 H 0.35663 0.49962 0.18543 0.0
H1931 H 0.37382 0.52729 0.21075 0.0
C1932 C 0.90962 0.51086 0.28004 0.0
C1933 C 0.89786 0.51016 0.29776 0.0
C1934 C 0.90529 0.49402 0.26844 0.0
C1935 C 0.8682 0.444 0.25466 0.0
H1936 H 0.91388 0.4384 0.24661 0.0
C1937 C 0.89508 0.38829 0.21806 0.0
C1938 C 0.88658 0.3844 0.19707 0.0
C1939 C 0.89264 0.40059 0.23248 0.0
C1940 C 0.90086 0.4395 0.24895 0.0
H1941 H 0.87171 0.49135 0.3165 0.0
H1942 H 0.86417 0.46151 0.29604 0.0
H1943 H 0.91669 0.46583 0.26739 0.0
H1944 H 0.86782 0.38921 0.17512 0.0
H1945 H 0.86407 0.41148 0.20019 0.0
H1946 H 0.85244 0.41751 0.23592 0.0
C1947 C 0.87673 0.47528 0.29126 0.0
C1948 C 0.90255 0.45538 0.26066 0.0
C1949 C 0.88108 0.4923 0.30298 0.0
C1950 C 0.87456 0.39207 0.19123 0.0
C1951 C 0.87235 0.40472 0.20561 0.0
C1952 C 0.8665 0.42799 0.24278 0.0
C1953 C 0.88914 0.47597 0.27426 0.0
C1954 C 0.88637 0.45801 0.26333 0.0
C1955 C 0.88196 0.40962 0.22609 0.0
C1956 C 0.88289 0.42568 0.23969 0.0
H1957 H 0.92247 0.52442 0.2753 0.0
H1958 H 0.91487 0.49505 0.2551 0.0
H1959 H 0.85551 0.44574 0.25649 0.0
H1960 H 0.90408 0.3822 0.22316 0.0
H1961 H 0.89978 0.40364 0.24836 0.0
C1962 C 0.39049 0.89681 0.27326 0.0
C1963 C 0.38662 0.89246 0.29573 0.0
C1964 C 0.40303 0.89214 0.26203 0.0
C1965 C 0.44736 0.89381 0.26857 0.0
H1966 H 0.43541 0.85967 0.21811 0.0
C1967 C 0.50981 0.89436 0.21997 0.0
C1968 C 0.50772 0.89226 0.1971 0.0
C1969 C 0.4937 0.88994 0.23327 0.0
C1970 C 0.4391 0.86946 0.232 0.0
H1971 H 0.39238 0.87945 0.32402 0.0
H1972 H 0.41516 0.87203 0.30443 0.0
H1973 H 0.40889 0.85994 0.2386 0.0
H1974 H 0.48738 0.88369 0.16999 0.0
H1975 H 0.4594 0.87716 0.19288 0.0
H1976 H 0.47741 0.90472 0.26131 0.0
C1977 C 0.40803 0.87859 0.29552 0.0
C1978 C 0.42385 0.86939 0.24384 0.0
C1979 C 0.39503 0.8828 0.30665 0.0
C1980 C 0.48921 0.88518 0.18768 0.0
C1981 C 0.47316 0.88135 0.20091 0.0
C1982 C 0.46261 0.89428 0.25646 0.0
C1983 C 0.41227 0.88346 0.2732 0.0
C1984 C 0.42792 0.88167 0.26211 0.0
C1985 C 0.47524 0.88407 0.22391 0.0
C1986 C 0.45877 0.88225 0.23782 0.0
H1987 H 0.38414 0.90423 0.2645 0.0
H1988 H 0.40628 0.89617 0.24486 0.0
H1989 H 0.45079 0.90364 0.28242 0.0
H1990 H 0.524 0.89968 0.22754 0.0
H1991 H 0.4959 0.89159 0.25088 0.0
C1992 C 0.64089 0.47594 0.2329 0.0
C1993 C 0.63749 0.48302 0.21317 0.0
C1994 C 0.62554 0.46004 0.24371 0.0
C1995 C 0.58856 0.43796 0.27073 0.0
H1996 H 0.54401 0.39685 0.23982 0.0
C1997 C 0.51721 0.38143 0.31471 0.0
C1998 C 0.50042 0.38068 0.30584 0.0
C1999 C 0.53502 0.39106 0.30342 0.0
C2000 C 0.55641 0.4082 0.24865 0.0
H2001 H 0.61567 0.47799 0.18843 0.0
H2002 H 0.58891 0.45096 0.20755 0.0
H2003 H 0.57391 0.4182 0.21956 0.0
H2004 H 0.48895 0.38892 0.27796 0.0
H2005 H 0.51992 0.40546 0.25821 0.0
H2006 H 0.57084 0.42799 0.29977 0.0
C2007 C 0.60338 0.45743 0.21469 0.0
C2008 C 0.5735 0.42048 0.23708 0.0
C2009 C 0.61872 0.47316 0.20382 0.0
C2010 C 0.50166 0.38933 0.28528 0.0
C2011 C 0.51933 0.39866 0.27387 0.0
C2012 C 0.57153 0.42551 0.28235 0.0
C2013 C 0.60648 0.45095 0.23504 0.0
C2014 C 0.58957 0.43593 0.24784 0.0
C2015 C 0.53621 0.39976 0.2829 0.0
C2016 C 0.55512 0.41091 0.27129 0.0
H2017 H 0.65524 0.48307 0.24042 0.0
H2018 H 0.62853 0.45519 0.25913 0.0
H2019 H 0.60051 0.44982 0.27955 0.0
H2020 H 0.51667 0.37487 0.33053 0.0
H2021 H 0.54785 0.39171 0.31069 0.0
C2022 C 0.172 0.63266 0.20138 0.0
C2023 C 0.15591 0.6261 0.18725 0.0
C2024 C 0.17677 0.61943 0.21066 0.0
C2025 C 0.16218 0.56619 0.21203 0.0
H2026 H 0.17616 0.57811 0.27347 0.0
C2027 C 0.15958 0.50802 0.27167 0.0
C2028 C 0.15177 0.50752 0.29258 0.0
C2029 C 0.16474 0.52387 0.25759 0.0
C2030 C 0.17212 0.57445 0.25638 0.0
H2031 H 0.13275 0.6009 0.17071 0.0
H2032 H 0.14022 0.57757 0.18779 0.0
H2033 H 0.17655 0.60281 0.24979 0.0
H2034 H 0.14345 0.52328 0.31529 0.0
H2035 H 0.15166 0.55038 0.29064 0.0
H2036 H 0.15608 0.53722 0.21927 0.0
C2037 C 0.14974 0.59294 0.19124 0.0
C2038 C 0.17273 0.58883 0.24257 0.0
C2039 C 0.14535 0.60629 0.18145 0.0
C2040 C 0.1496 0.52331 0.29934 0.0
C2041 C 0.15446 0.53897 0.28519 0.0
C2042 C 0.16119 0.55166 0.22599 0.0
C2043 C 0.16508 0.59925 0.20663 0.0
C2044 C 0.16729 0.58479 0.22029 0.0
C2045 C 0.16194 0.5394 0.26403 0.0
C2046 C 0.16562 0.55546 0.2485 0.0
H2047 H 0.18046 0.64796 0.20588 0.0
H2048 H 0.18911 0.62499 0.22177 0.0
H2049 H 0.15833 0.56261 0.19489 0.0
H2050 H 0.16156 0.4961 0.2661 0.0
H2051 H 0.17075 0.52383 0.24159 0.0
C2052 C 0.47427 0.8609 0.80683 0.0
C2053 C 0.48767 0.85604 0.79785 0.0
C2054 C 0.45899 0.85962 0.79409 0.0
C2055 C 0.44582 0.85993 0.7358 0.0
H2056 H 0.39792 0.85275 0.7621 0.0
C2057 C 0.38703 0.86914 0.68813 0.0
C2058 C 0.3843 0.88383 0.69759 0.0
C2059 C 0.39714 0.86159 0.69963 0.0
C2060 C 0.41116 0.85461 0.75453 0.0
H2061 H 0.49487 0.84484 0.76893 0.0
H2062 H 0.46772 0.84191 0.74686 0.0
H2063 H 0.41976 0.84576 0.78366 0.0
H2064 H 0.38925 0.90161 0.72668 0.0
H2065 H 0.4064 0.88804 0.74692 0.0
H2066 H 0.43705 0.86881 0.70666 0.0
C2067 C 0.46938 0.84733 0.76354 0.0
C2068 C 0.42376 0.85077 0.76688 0.0
C2069 C 0.48487 0.84888 0.77622 0.0
C2070 C 0.39126 0.89038 0.71894 0.0
C2071 C 0.40093 0.88253 0.73058 0.0
C2072 C 0.43302 0.86343 0.72333 0.0
C2073 C 0.45652 0.85315 0.77213 0.0
C2074 C 0.44161 0.85405 0.75794 0.0
C2075 C 0.40417 0.86826 0.72094 0.0
C2076 C 0.41591 0.86138 0.73283 0.0
H2077 H 0.47607 0.86658 0.82341 0.0
H2078 H 0.44968 0.86459 0.80125 0.0
H2079 H 0.45949 0.86288 0.72837 0.0
H2080 H 0.38183 0.86389 0.67166 0.0
H2081 H 0.39954 0.8506 0.69188 0.0
C2082 C 0.50895 0.38737 0.72704 0.0
C2083 C 0.50953 0.38206 0.70514 0.0
C2084 C 0.52604 0.39684 0.73944 0.0
C2085 C 0.57681 0.43132 0.73471 0.0
H2086 H 0.57993 0.41575 0.79438 0.0
C2087 C 0.63877 0.48353 0.79234 0.0
C2088 C 0.63288 0.48483 0.81378 0.0
C2089 C 0.62633 0.46816 0.77851 0.0
C2090 C 0.57929 0.42037 0.77779 0.0
H2091 H 0.52828 0.3822 0.67901 0.0
H2092 H 0.55855 0.39962 0.70066 0.0
H2093 H 0.55272 0.39374 0.77082 0.0
H2094 H 0.60964 0.47069 0.83784 0.0
H2095 H 0.58775 0.4444 0.81365 0.0
H2096 H 0.60243 0.45849 0.74197 0.0
C2097 C 0.54473 0.39609 0.7082 0.0
C2098 C 0.5638 0.40769 0.76429 0.0
C2099 C 0.52749 0.38615 0.6959 0.0
C2100 C 0.61465 0.47006 0.82143 0.0
C2101 C 0.60212 0.45486 0.80754 0.0
C2102 C 0.59214 0.44416 0.74832 0.0
C2103 C 0.5441 0.40152 0.73006 0.0
C2104 C 0.56217 0.41328 0.74285 0.0
C2105 C 0.60763 0.4539 0.78575 0.0
C2106 C 0.59324 0.43908 0.77027 0.0
H2107 H 0.49527 0.38424 0.73463 0.0
H2108 H 0.52522 0.40109 0.75619 0.0
H2109 H 0.57573 0.43601 0.71828 0.0
H2110 H 0.65285 0.49461 0.78609 0.0
H2111 H 0.63124 0.46769 0.762 0.0
C2112 C 0.14663 0.52519 0.68235 0.0
C2113 C 0.13282 0.50755 0.69226 0.0
C2114 C 0.15473 0.5427 0.69424 0.0
C2115 C 0.16221 0.56328 0.75029 0.0
H2116 H 0.15266 0.60239 0.72396 0.0
C2117 C 0.14792 0.61562 0.80147 0.0
C2118 C 0.15184 0.63363 0.79261 0.0
C2119 C 0.15189 0.603 0.78934 0.0
C2120 C 0.15599 0.59197 0.73146 0.0
H2121 H 0.11752 0.49419 0.72261 0.0
H2122 H 0.1318 0.5246 0.74333 0.0
H2123 H 0.14851 0.57486 0.70201 0.0
H2124 H 0.16456 0.65329 0.7649 0.0
H2125 H 0.17203 0.6315 0.74395 0.0
H2126 H 0.16924 0.5801 0.77991 0.0
C2127 C 0.13632 0.52497 0.72642 0.0
C2128 C 0.15354 0.57613 0.71882 0.0
C2129 C 0.128 0.50758 0.71449 0.0
C2130 C 0.16113 0.63938 0.77205 0.0
C2131 C 0.16531 0.62684 0.75999 0.0
C2132 C 0.16488 0.57924 0.76287 0.0
C2133 C 0.14945 0.54275 0.71632 0.0
C2134 C 0.15593 0.56129 0.72835 0.0
C2135 C 0.16009 0.60819 0.76814 0.0
C2136 C 0.16106 0.59339 0.75385 0.0
H2137 H 0.15061 0.52556 0.66523 0.0
H2138 H 0.16484 0.55624 0.68609 0.0
H2139 H 0.16437 0.55213 0.75794 0.0
H2140 H 0.14074 0.61072 0.81726 0.0
H2141 H 0.14743 0.5887 0.79611 0.0
C2142 C 0.51896 0.13613 0.80385 0.0
C2143 C 0.50645 0.11651 0.80979 0.0
C2144 C 0.53577 0.14132 0.79132 0.0
C2145 C 0.57102 0.12603 0.77898 0.0
H2146 H 0.57326 0.14314 0.71871 0.0
C2147 C 0.60435 0.10311 0.71148 0.0
C2148 C 0.61595 0.11631 0.69504 0.0
C2149 C 0.59465 0.10826 0.7268 0.0
C2150 C 0.57316 0.13886 0.73566 0.0
H2151 H 0.50186 0.0871 0.80794 0.0
H2152 H 0.53133 0.09623 0.78671 0.0
H2153 H 0.54938 0.14344 0.74431 0.0
H2154 H 0.62632 0.14531 0.68166 0.0
H2155 H 0.60892 0.15428 0.7086 0.0
H2156 H 0.59408 0.12058 0.7703 0.0
C2157 C 0.52808 0.10753 0.79145 0.0
C2158 C 0.55953 0.13904 0.75026 0.0
C2159 C 0.51117 0.1023 0.80346 0.0
C2160 C 0.61747 0.13482 0.69414 0.0
C2161 C 0.60755 0.13996 0.70952 0.0
C2162 C 0.58468 0.12598 0.76452 0.0
C2163 C 0.54046 0.12702 0.78519 0.0
C2164 C 0.55781 0.13177 0.7717 0.0
C2165 C 0.59621 0.12674 0.72613 0.0
C2166 C 0.58522 0.13145 0.74243 0.0
H2167 H 0.51554 0.14732 0.80851 0.0
H2168 H 0.54513 0.15642 0.78654 0.0
H2169 H 0.57002 0.12051 0.79553 0.0
H2170 H 0.60274 0.0887 0.71263 0.0
H2171 H 0.58563 0.09757 0.73906 0.0
C2172 C 0.38004 0.53368 0.7973 0.0
C2173 C 0.3627 0.51655 0.79162 0.0
C2174 C 0.39102 0.54748 0.78125 0.0
C2175 C 0.40105 0.54818 0.72277 0.0
H2176 H 0.43679 0.60305 0.73447 0.0
C2177 C 0.47869 0.58856 0.69017 0.0
C2178 C 0.4874 0.60828 0.68407 0.0
C2179 C 0.45975 0.5788 0.69855 0.0
C2180 C 0.42665 0.58787 0.73068 0.0
H2181 H 0.34234 0.50135 0.76504 0.0
H2182 H 0.36145 0.52556 0.73706 0.0
H2183 H 0.40919 0.58434 0.75915 0.0
H2184 H 0.48297 0.63315 0.68119 0.0
H2185 H 0.4497 0.61602 0.69633 0.0
H2186 H 0.41892 0.55151 0.69481 0.0
C2187 C 0.36676 0.5281 0.75384 0.0
C2188 C 0.41096 0.57711 0.74494 0.0
C2189 C 0.3558 0.51425 0.76989 0.0
C2190 C 0.47655 0.61792 0.68577 0.0
C2191 C 0.45759 0.60817 0.69447 0.0
C2192 C 0.4167 0.55892 0.70855 0.0
C2193 C 0.38485 0.54451 0.75919 0.0
C2194 C 0.39851 0.55695 0.74166 0.0
C2195 C 0.44913 0.58858 0.7012 0.0
C2196 C 0.43015 0.57863 0.71293 0.0
H2197 H 0.38572 0.53597 0.81391 0.0
H2198 H 0.40496 0.55984 0.78594 0.0
H2199 H 0.39183 0.53267 0.71976 0.0
H2200 H 0.48666 0.58074 0.68889 0.0
H2201 H 0.45376 0.5638 0.70389 0.0
C2202 C 0.82802 0.45713 0.7055 0.0
C2203 C 0.84249 0.46576 0.68927 0.0
C2204 C 0.82377 0.43931 0.71479 0.0
C2205 C 0.83829 0.40066 0.7141 0.0
H2206 H 0.83862 0.40755 0.7773 0.0
C2207 C 0.85203 0.36845 0.8005 0.0
C2208 C 0.87036 0.37055 0.79545 0.0
C2209 C 0.84285 0.37476 0.78568 0.0
C2210 C 0.8381 0.4051 0.75971 0.0
H2211 H 0.8627 0.46206 0.66858 0.0
H2212 H 0.85616 0.43151 0.68551 0.0
H2213 H 0.83144 0.42758 0.75338 0.0
H2214 H 0.89306 0.38017 0.77059 0.0
H2215 H 0.87705 0.39126 0.74483 0.0
H2216 H 0.84658 0.37914 0.72082 0.0
C2217 C 0.84755 0.43798 0.69075 0.0
C2218 C 0.83386 0.41653 0.74588 0.0
C2219 C 0.85141 0.45557 0.68104 0.0
C2220 C 0.87902 0.37851 0.77505 0.0
C2221 C 0.86975 0.38463 0.76016 0.0
C2222 C 0.84281 0.38938 0.72799 0.0
C2223 C 0.83444 0.43018 0.70856 0.0
C2224 C 0.83458 0.41497 0.72286 0.0
C2225 C 0.85171 0.38306 0.76546 0.0
C2226 C 0.84338 0.392 0.75089 0.0
H2227 H 0.82081 0.46472 0.71186 0.0
H2228 H 0.81309 0.4334 0.72793 0.0
H2229 H 0.83857 0.39875 0.69649 0.0
H2230 H 0.84491 0.36221 0.81603 0.0
H2231 H 0.82893 0.37339 0.79012 0.0
C2232 C 0.47422 0.10696 0.08035 0.0
C2233 C 0.48054 0.1219 0.09605 0.0
C2234 C 0.48379 0.11029 0.06023 0.0
C2235 C 0.51002 0.11907 0.02072 0.0
H2236 H 0.50685 0.15984 0.98876 0.0
C2237 C 0.50359 0.1432 0.92565 0.0
C2238 C 0.48792 0.12491 0.91954 0.0
C2239 C 0.51136 0.14608 0.947 0.0
C2240 C 0.50846 0.14877 0.99746 0.0
H2241 H 0.50217 0.15184 0.10357 0.0
H2242 H 0.51872 0.15801 0.06764 0.0
H2243 H 0.50509 0.15907 0.02886 0.0
H2244 H 0.46898 0.09503 0.92996 0.0
H2245 H 0.48262 0.09982 0.96672 0.0
H2246 H 0.51198 0.10795 0.9893 0.0
C2247 C 0.50654 0.14361 0.0712 0.0
C2248 C 0.50744 0.14833 0.02046 0.0
C2249 C 0.49716 0.14008 0.09169 0.0
C2250 C 0.48104 0.10929 0.93438 0.0
C2251 C 0.48899 0.11202 0.95538 0.0
C2252 C 0.51111 0.11954 0.99779 0.0
C2253 C 0.49969 0.12879 0.05514 0.0
C2254 C 0.50706 0.13282 0.03219 0.0
C2255 C 0.50383 0.13055 0.9622 0.0
C2256 C 0.50915 0.13372 0.98588 0.0
H2257 H 0.46145 0.0928 0.0834 0.0
H2258 H 0.47798 0.09867 0.04812 0.0
H2259 H 0.51006 0.10711 0.0294 0.0
H2260 H 0.50902 0.15547 0.91443 0.0
H2261 H 0.52276 0.16052 0.95185 0.0
C2262 C 0.32402 0.48267 0.06812 0.0
C2263 C 0.33939 0.48699 0.08274 0.0
C2264 C 0.32713 0.494 0.04938 0.0
C2265 C 0.36572 0.52089 0.01007 0.0
H2266 H 0.3244 0.52531 0.98101 0.0
C2267 C 0.36307 0.52283 0.91619 0.0
C2268 C 0.34557 0.50658 0.90909 0.0
C2269 C 0.36466 0.52982 0.93775 0.0
C2270 C 0.33625 0.5245 0.98895 0.0
H2271 H 0.36982 0.50723 0.09003 0.0
H2272 H 0.37545 0.52706 0.0568 0.0
H2273 H 0.32321 0.5206 0.0208 0.0
H2274 H 0.31564 0.48598 0.91786 0.0
H2275 H 0.31811 0.4984 0.95501 0.0
H2276 H 0.37805 0.52342 0.97808 0.0
C2277 C 0.36094 0.51491 0.05998 0.0
C2278 C 0.33555 0.52176 0.01172 0.0
C2279 C 0.35771 0.50365 0.07903 0.0
C2280 C 0.32922 0.49863 0.92297 0.0
C2281 C 0.33067 0.50582 0.94425 0.0
C2282 C 0.36644 0.52369 0.9873 0.0
C2283 C 0.34579 0.50983 0.04463 0.0
C2284 C 0.34966 0.51877 0.02233 0.0
C2285 C 0.34864 0.52086 0.95225 0.0
C2286 C 0.35112 0.52438 0.97636 0.0
H2287 H 0.30973 0.46993 0.07064 0.0
H2288 H 0.31519 0.48946 0.03784 0.0
H2289 H 0.37679 0.51858 0.01768 0.0
H2290 H 0.37595 0.52899 0.90581 0.0
H2291 H 0.37867 0.54144 0.94347 0.0
C2292 C 0.85807 0.36418 0.07933 0.0
C2293 C 0.87651 0.36616 0.08312 0.0
C2294 C 0.85392 0.36962 0.05895 0.0
C2295 C 0.87692 0.39572 0.00679 0.0
H2296 H 0.83629 0.34932 0.97804 0.0
C2297 C 0.88703 0.36841 0.92569 0.0
C2298 C 0.87175 0.3591 0.91051 0.0
C2299 C 0.88414 0.37563 0.94535 0.0
C2300 C 0.84727 0.36268 0.9858 0.0
H2301 H 0.90548 0.37668 0.06977 0.0
H2302 H 0.89852 0.38657 0.03467 0.0
H2303 H 0.83741 0.35114 0.01809 0.0
H2304 H 0.84169 0.35063 0.90332 0.0
H2305 H 0.83629 0.36264 0.93857 0.0
H2306 H 0.88784 0.40645 0.97451 0.0
C2307 C 0.88717 0.38079 0.0471 0.0
C2308 C 0.84791 0.36373 0.00878 0.0
C2309 C 0.89113 0.37497 0.06711 0.0
C2310 C 0.85368 0.35783 0.91485 0.0
C2311 C 0.85061 0.36467 0.93492 0.0
C2312 C 0.87629 0.39465 0.98386 0.0
C2313 C 0.86835 0.37758 0.04247 0.0
C2314 C 0.86352 0.3797 0.01944 0.0
C2315 C 0.86577 0.37336 0.95048 0.0
C2316 C 0.86224 0.37757 0.97324 0.0
H2317 H 0.84657 0.3573 0.09149 0.0
H2318 H 0.83929 0.36692 0.05576 0.0
H2319 H 0.88892 0.40834 0.01462 0.0
H2320 H 0.90113 0.36967 0.92259 0.0
H2321 H 0.89602 0.38196 0.95713 0.0
C2322 C 0.50845 0.85808 0.08433 0.0
C2323 C 0.51797 0.87858 0.08505 0.0
C2324 C 0.5001 0.84817 0.06465 0.0
C2325 C 0.50793 0.84251 0.0151 0.0
H2326 H 0.46855 0.84415 0.97865 0.0
C2327 C 0.49487 0.85007 0.91801 0.0
C2328 C 0.50515 0.84126 0.90967 0.0
C2329 C 0.48965 0.84812 0.94023 0.0
C2330 C 0.47973 0.84367 0.98846 0.0
H2331 H 0.52503 0.90471 0.0666 0.0
H2332 H 0.50961 0.88731 0.0325 0.0
H2333 H 0.47203 0.85435 0.01711 0.0
H2334 H 0.51608 0.82172 0.91717 0.0
H2335 H 0.5054 0.81674 0.95542 0.0
H2336 H 0.51732 0.83404 0.98653 0.0
C2337 C 0.50881 0.87896 0.04699 0.0
C2338 C 0.48148 0.84928 0.01058 0.0
C2339 C 0.51766 0.88889 0.06642 0.0
C2340 C 0.50824 0.82875 0.92329 0.0
C2341 C 0.5024 0.82622 0.94535 0.0
C2342 C 0.50661 0.83748 0.9929 0.0
C2343 C 0.50063 0.85862 0.04572 0.0
C2344 C 0.49589 0.84914 0.0239 0.0
C2345 C 0.49414 0.83687 0.95453 0.0
C2346 C 0.49288 0.83854 0.97898 0.0
H2347 H 0.50879 0.84987 0.09842 0.0
H2348 H 0.49405 0.83249 0.0639 0.0
H2349 H 0.51934 0.84256 0.02504 0.0
H2350 H 0.49252 0.86001 0.90796 0.0
H2351 H 0.48351 0.85676 0.94633 0.0
C2352 C 0.63933 0.49288 0.09979 0.0
C2353 C 0.65373 0.51208 0.10515 0.0
C2354 C 0.63963 0.48497 0.07918 0.0
C2355 C 0.67156 0.49091 0.032 0.0
H2356 H 0.62738 0.47974 0.99472 0.0
C2357 C 0.67985 0.51293 0.94242 0.0
C2358 C 0.66444 0.50317 0.92745 0.0
C2359 C 0.67809 0.50634 0.96402 0.0
C2360 C 0.63965 0.4822 0.00491 0.0
H2361 H 0.68021 0.53762 0.09391 0.0
H2362 H 0.68107 0.5237 0.05851 0.0
H2363 H 0.62477 0.4822 0.03445 0.0
H2364 H 0.63563 0.47797 0.92278 0.0
H2365 H 0.6325 0.46631 0.96077 0.0
H2366 H 0.68679 0.49183 0.00251 0.0
C2367 C 0.66945 0.5148 0.06994 0.0
C2368 C 0.63813 0.48364 0.02771 0.0
C2369 C 0.66887 0.52282 0.09014 0.0
C2370 C 0.64781 0.48571 0.93397 0.0
C2371 C 0.64594 0.47917 0.95578 0.0
C2372 C 0.67302 0.48928 0.00928 0.0
C2373 C 0.65468 0.49595 0.06404 0.0
C2374 C 0.65441 0.489 0.04131 0.0
C2375 C 0.66078 0.48987 0.97127 0.0
C2376 C 0.65745 0.48597 0.99533 0.0
H2377 H 0.62746 0.48437 0.1111 0.0
H2378 H 0.62802 0.47044 0.07494 0.0
H2379 H 0.68425 0.49483 0.04218 0.0
H2380 H 0.69283 0.52644 0.93781 0.0
H2381 H 0.68976 0.51513 0.97542 0.0
C2382 C 0.14246 0.64201 0.91367 0.0
C2383 C 0.14122 0.65793 0.90531 0.0
C2384 C 0.14574 0.641 0.9362 0.0
C2385 C 0.13463 0.63763 0.98566 0.0
H2386 H 0.17123 0.68311 0.01915 0.0
C2387 C 0.13963 0.67525 0.07445 0.0
C2388 C 0.13453 0.65988 0.08941 0.0
C2389 C 0.14315 0.67326 0.05242 0.0
C2390 C 0.16092 0.67026 0.01006 0.0
H2391 H 0.14353 0.68569 0.91335 0.0
H2392 H 0.14995 0.68432 0.9523 0.0
H2393 H 0.17405 0.68325 0.9792 0.0
H2394 H 0.12879 0.63015 0.09276 0.0
H2395 H 0.13489 0.62662 0.05385 0.0
H2396 H 0.12083 0.62506 0.01649 0.0
C2397 C 0.14826 0.67255 0.9417 0.0
C2398 C 0.16262 0.67032 0.9872 0.0
C2399 C 0.14456 0.67334 0.91942 0.0
C2400 C 0.13269 0.64226 0.08164 0.0
C2401 C 0.13618 0.64024 0.0594 0.0
C2402 C 0.13285 0.63761 0.00861 0.0
C2403 C 0.1483 0.65612 0.95047 0.0
C2404 C 0.14908 0.6543 0.9747 0.0
C2405 C 0.1417 0.65585 0.04462 0.0
C2406 C 0.14553 0.65424 0.02095 0.0
H2407 H 0.13963 0.62982 0.90312 0.0
H2408 H 0.14571 0.62818 0.94256 0.0
H2409 H 0.1239 0.62513 0.97641 0.0
H2410 H 0.14106 0.68899 0.07974 0.0
H2411 H 0.14685 0.6854 0.04141 0.0
C2412 C 0.88593 0.5183 0.41526 0.0
C2413 C 0.8849 0.53484 0.40882 0.0
C2414 C 0.88136 0.51136 0.43697 0.0
C2415 C 0.85502 0.51273 0.48635 0.0
H2416 H 0.89699 0.51406 0.5208 0.0
C2417 C 0.86511 0.53371 0.57658 0.0
C2418 C 0.8708 0.5241 0.59177 0.0
C2419 C 0.86432 0.52974 0.55417 0.0
C2420 C 0.88493 0.51316 0.51137 0.0
H2421 H 0.87752 0.55653 0.41943 0.0
H2422 H 0.86899 0.54416 0.4568 0.0
H2423 H 0.89936 0.51573 0.48056 0.0
H2424 H 0.88021 0.50273 0.59523 0.0
H2425 H 0.87904 0.49591 0.5556 0.0
H2426 H 0.84093 0.51101 0.51698 0.0
C2427 C 0.87347 0.53661 0.44536 0.0
C2428 C 0.88628 0.51409 0.48835 0.0
C2429 C 0.87844 0.54376 0.424 0.0
C2430 C 0.87572 0.51034 0.58393 0.0
C2431 C 0.8751 0.50647 0.56129 0.0
C2432 C 0.85363 0.51171 0.50924 0.0
C2433 C 0.87519 0.52057 0.45223 0.0
C2434 C 0.87171 0.51474 0.47572 0.0
C2435 C 0.86927 0.51608 0.5462 0.0
C2436 C 0.86896 0.51281 0.52206 0.0
H2437 H 0.89106 0.51131 0.40384 0.0
H2438 H 0.88284 0.499 0.44192 0.0
H2439 H 0.84347 0.51296 0.47698 0.0
H2440 H 0.86122 0.54439 0.58197 0.0
H2441 H 0.86017 0.53771 0.543 0.0
C2442 C 0.37374 0.90837 0.42409 0.0
C2443 C 0.36669 0.89351 0.40822 0.0
C2444 C 0.37828 0.90506 0.4452 0.0
C2445 C 0.36204 0.86648 0.48524 0.0
H2446 H 0.40316 0.90792 0.51976 0.0
C2447 C 0.35957 0.86925 0.58087 0.0
C2448 C 0.36006 0.88657 0.5873 0.0
C2449 C 0.36506 0.86736 0.55942 0.0
C2450 C 0.39176 0.89605 0.51034 0.0
H2451 H 0.35948 0.86373 0.40156 0.0
H2452 H 0.36701 0.85766 0.43908 0.0
H2453 H 0.40493 0.90948 0.47967 0.0
H2454 H 0.36766 0.91579 0.57709 0.0
H2455 H 0.37762 0.91272 0.54018 0.0
H2456 H 0.34826 0.85374 0.51602 0.0
C2457 C 0.36922 0.87196 0.43496 0.0
C2458 C 0.39275 0.89695 0.48741 0.0
C2459 C 0.36502 0.87544 0.41354 0.0
C2460 C 0.36704 0.90223 0.57248 0.0
C2461 C 0.37291 0.90053 0.5514 0.0
C2462 C 0.36107 0.86556 0.50826 0.0
C2463 C 0.37559 0.88669 0.4511 0.0
C2464 C 0.37739 0.88274 0.47463 0.0
C2465 C 0.37163 0.88298 0.54444 0.0
C2466 C 0.37541 0.88088 0.52097 0.0
H2467 H 0.37519 0.92245 0.42037 0.0
H2468 H 0.38286 0.91663 0.45727 0.0
H2469 H 0.34993 0.85535 0.47585 0.0
H2470 H 0.35416 0.85695 0.59205 0.0
H2471 H 0.36388 0.85365 0.55441 0.0
C2472 C 0.46503 0.36419 0.43246 0.0
C2473 C 0.47371 0.35861 0.41601 0.0
C2474 C 0.4737 0.36999 0.45308 0.0
C2475 C 0.5012 0.3596 0.49191 0.0
H2476 H 0.49905 0.40056 0.52478 0.0
C2477 C 0.49864 0.35988 0.58723 0.0
C2478 C 0.48142 0.35947 0.59394 0.0
C2479 C 0.50551 0.36528 0.56562 0.0
C2480 C 0.50007 0.38926 0.5158 0.0
H2481 H 0.49852 0.35514 0.4079 0.0
H2482 H 0.51351 0.36472 0.44464 0.0
H2483 H 0.497 0.40013 0.4847 0.0
H2484 H 0.45861 0.36552 0.58411 0.0
H2485 H 0.47067 0.37522 0.54688 0.0
H2486 H 0.5027 0.34786 0.52316 0.0
C2487 C 0.50012 0.36487 0.44129 0.0
C2488 C 0.4989 0.38902 0.49289 0.0
C2489 C 0.49159 0.35944 0.42035 0.0
C2490 C 0.47185 0.36557 0.57927 0.0
C2491 C 0.47888 0.37132 0.55801 0.0
C2492 C 0.50233 0.35981 0.5149 0.0
C2493 C 0.49112 0.37004 0.45787 0.0
C2494 C 0.49835 0.37358 0.48084 0.0
C2495 C 0.49552 0.37084 0.55075 0.0
C2496 C 0.50064 0.37403 0.52707 0.0
H2497 H 0.45131 0.3638 0.4295 0.0
H2498 H 0.46627 0.3736 0.46562 0.0
H2499 H 0.50076 0.3475 0.48301 0.0
H2500 H 0.50622 0.35517 0.59831 0.0
H2501 H 0.51834 0.36472 0.56038 0.0
C2502 C 0.1633 0.51059 0.41264 0.0
C2503 C 0.16264 0.493 0.40713 0.0
C2504 C 0.16945 0.51871 0.43364 0.0
C2505 C 0.19267 0.51522 0.48541 0.0
H2506 H 0.14951 0.51638 0.51436 0.0
C2507 C 0.16644 0.48438 0.57045 0.0
C2508 C 0.1566 0.49109 0.58393 0.0
C2509 C 0.17397 0.49311 0.55017 0.0
C2510 C 0.16204 0.51674 0.50662 0.0
H2511 H 0.1694 0.47104 0.41829 0.0
H2512 H 0.1806 0.4854 0.45453 0.0
H2513 H 0.1512 0.51684 0.47439 0.0
H2514 H 0.148 0.51302 0.58753 0.0
H2515 H 0.16115 0.52838 0.55169 0.0
H2516 H 0.20293 0.51402 0.51763 0.0
C2517 C 0.17632 0.49293 0.44288 0.0
C2518 C 0.16299 0.51699 0.48363 0.0
C2519 C 0.16982 0.48464 0.42214 0.0
C2520 C 0.15561 0.50762 0.57744 0.0
C2521 C 0.163 0.5163 0.55689 0.0
C2522 C 0.1918 0.51512 0.50839 0.0
C2523 C 0.17542 0.50958 0.44921 0.0
C2524 C 0.17774 0.51517 0.47281 0.0
C2525 C 0.17171 0.50871 0.54272 0.0
C2526 C 0.17587 0.51475 0.51923 0.0
H2527 H 0.15765 0.5172 0.4014 0.0
H2528 H 0.16863 0.53157 0.43808 0.0
H2529 H 0.20436 0.5141 0.4775 0.0
H2530 H 0.16748 0.47169 0.5751 0.0
H2531 H 0.18033 0.48666 0.53968 0.0
C2532 C 0.64399 0.14144 0.41008 0.0
C2533 C 0.64335 0.12372 0.40541 0.0
C2534 C 0.63789 0.14438 0.43072 0.0
C2535 C 0.64159 0.14876 0.48149 0.0
H2536 H 0.59815 0.1064 0.51248 0.0
C2537 C 0.63224 0.10935 0.5665 0.0
C2538 C 0.63978 0.12468 0.58177 0.0
C2539 C 0.62652 0.11186 0.54568 0.0
C2540 C 0.61016 0.11855 0.50404 0.0
H2541 H 0.63469 0.09479 0.41767 0.0
H2542 H 0.62367 0.09965 0.4532 0.0
H2543 H 0.59904 0.10617 0.47234 0.0
H2544 H 0.64666 0.15444 0.58782 0.0
H2545 H 0.63719 0.15918 0.55067 0.0
H2546 H 0.65348 0.16031 0.51327 0.0
C2547 C 0.62893 0.11136 0.44123 0.0
C2548 C 0.61067 0.11842 0.48109 0.0
C2549 C 0.63541 0.10862 0.42096 0.0
C2550 C 0.64075 0.1424 0.57626 0.0
C2551 C 0.63542 0.1451 0.55508 0.0
C2552 C 0.64109 0.14889 0.50451 0.0
C2553 C 0.63058 0.12942 0.44661 0.0
C2554 C 0.62694 0.13291 0.46966 0.0
C2555 C 0.62856 0.12992 0.53947 0.0
C2556 C 0.62593 0.13316 0.51599 0.0
H2557 H 0.65017 0.15331 0.3983 0.0
H2558 H 0.63938 0.15846 0.4345 0.0
H2559 H 0.65435 0.16009 0.47313 0.0
H2560 H 0.63132 0.09554 0.57045 0.0
H2561 H 0.62161 0.09998 0.53397 0.0
C2562 C 0.51917 0.64056 0.57966 0.0
C2563 C 0.53842 0.64754 0.58703 0.0
C2564 C 0.51504 0.639 0.55707 0.0
C2565 C 0.51054 0.62976 0.50693 0.0
H2566 H 0.54754 0.67556 0.4741 0.0
C2567 C 0.51597 0.63633 0.41083 0.0
C2568 C 0.52052 0.65462 0.40217 0.0
C2569 C 0.51508 0.63348 0.43368 0.0
C2570 C 0.53696 0.66271 0.48302 0.0
H2571 H 0.56817 0.65723 0.57654 0.0
H2572 H 0.56097 0.65445 0.53747 0.0
H2573 H 0.55207 0.67392 0.51334 0.0
H2574 H 0.52601 0.68365 0.41044 0.0
H2575 H 0.52423 0.6786 0.44996 0.0
H2576 H 0.49544 0.61868 0.47624 0.0
C2577 C 0.54913 0.65052 0.54903 0.0
C2578 C 0.53969 0.66168 0.50548 0.0
C2579 C 0.55323 0.65208 0.57145 0.0
C2580 C 0.52283 0.6695 0.41662 0.0
C2581 C 0.52185 0.66663 0.43928 0.0
C2582 C 0.50786 0.63074 0.48424 0.0
C2583 C 0.53011 0.64444 0.54156 0.0
C2584 C 0.5266 0.6452 0.5177 0.0
C2585 C 0.51868 0.64886 0.4481 0.0
C2586 C 0.52104 0.64731 0.47211 0.0
H2587 H 0.50744 0.63686 0.59129 0.0
H2588 H 0.50026 0.6343 0.55175 0.0
H2589 H 0.50026 0.61686 0.51596 0.0
H2590 H 0.5141 0.6246 0.40005 0.0
H2591 H 0.51262 0.61962 0.44004 0.0
loop_
_geom_bond_atom_site_label_1
_geom_bond_atom_site_label_2
_geom_bond_distance
_geom_bond_site_symmetry_2
_ccdc_geom_bond_type
C0 C1 1.351 . S
C0 N3 1.368 . S
C0 H5 0.931 . S
C1 C0 1.351 . S
C1 N2 1.373 . S
C1 H29 0.930 . S
N2 C1 1.373 . S
N2 C4 1.340 . S
N3 C0 1.368 . S
N3 C4 1.321 . S
N3 Co6 2.135 . S
C4 N2 1.340 . S
C4 N3 1.321 . S
C4 H28 0.930 . S
H5 C0 0.931 . S
Co6 N3 2.135 . S
Co6 N9 2.121 . S
Co6 O14 2.055 . S
Co6 O17 2.039 . S
Co6 N20 2.140 . S
C7 O8 1.227 . S
C7 O17 1.265 . S
O8 C7 1.227 . S
N9 Co6 2.121 . S
N9 C11 1.375 . S
N9 C12 1.313 . S
C10 C11 1.338 . S
C10 N13 1.377 . S
C10 H30 0.930 . S
C11 N9 1.375 . S
C11 C10 1.338 . S
C11 H15 0.931 . S
C12 N9 1.313 . S
C12 N13 1.344 . S
C12 H16 0.930 . S
N13 C10 1.377 . S
N13 C12 1.344 . S
O14 Co6 2.055 . S
O14 C18 1.253 . S
H15 C11 0.931 . S
H16 C12 0.930 . S
O17 Co6 2.039 . S
O17 C7 1.265 . S
C18 O14 1.253 . S
C18 O19 1.227 . S
O19 C18 1.227 . S
N20 Co6 2.140 . S
N20 C23 1.346 . S
N20 C24 1.345 . S
C21 C22 1.387 . S
C21 C25 1.391 . S
C22 C21 1.387 . S
C22 C23 1.369 . S
C22 H31 0.929 . S
C23 N20 1.346 . S
C23 C22 1.369 . S
C23 H26 0.928 . S
C24 N20 1.345 . S
C24 C25 1.371 . S
C24 H27 0.931 . S
C25 C21 1.391 . S
C25 C24 1.371 . S
C25 H32 0.930 . S
H26 C23 0.928 . S
H27 C24 0.931 . S
H28 C4 0.930 . S
H29 C1 0.930 . S
H30 C10 0.930 . S
H31 C22 0.929 . S
H32 C25 0.930 . S
C33 C34 1.351 . S
C33 N36 1.368 . S
C33 H38 0.931 . S
C34 C33 1.351 . S
C34 N35 1.373 . S
C34 H62 0.930 . S
N35 C34 1.373 . S
N35 C37 1.340 . S
N36 C33 1.368 . S
N36 C37 1.321 . S
N36 Co39 2.135 . S
C37 N35 1.340 . S
C37 N36 1.321 . S
C37 H61 0.930 . S
H38 C33 0.931 . S
Co39 N36 2.135 . S
Co39 N42 2.121 . S
Co39 O47 2.055 . S
Co39 O50 2.039 . S
Co39 N53 2.140 . S
C40 O41 1.227 . S
C40 O50 1.265 . S
O41 C40 1.227 . S
N42 Co39 2.121 . S
N42 C44 1.375 . S
N42 C45 1.313 . S
C43 C44 1.338 . S
C43 N46 1.377 . S
C43 H63 0.930 . S
C44 N42 1.375 . S
C44 C43 1.338 . S
C44 H48 0.931 . S
C45 N42 1.313 . S
C45 N46 1.344 . S
C45 H49 0.930 . S
N46 C43 1.377 . S
N46 C45 1.344 . S
O47 Co39 2.055 . S
O47 C51 1.253 . S
H48 C44 0.931 . S
H49 C45 0.930 . S
O50 Co39 2.039 . S
O50 C40 1.265 . S
C51 O47 1.253 . S
C51 O52 1.227 . S
O52 C51 1.227 . S
N53 Co39 2.140 . S
N53 C56 1.346 . S
N53 C57 1.345 . S
C54 C55 1.387 . S
C54 C58 1.391 . S
C55 C54 1.387 . S
C55 C56 1.369 . S
C55 H64 0.929 . S
C56 N53 1.346 . S
C56 C55 1.369 . S
C56 H59 0.928 . S
C57 N53 1.345 . S
C57 C58 1.371 . S
C57 H60 0.931 . S
C58 C54 1.391 . S
C58 C57 1.371 . S
C58 H65 0.930 . S
H59 C56 0.928 . S
H60 C57 0.931 . S
H61 C37 0.930 . S
H62 C34 0.930 . S
H63 C43 0.930 . S
H64 C55 0.929 . S
H65 C58 0.930 . S
C66 C67 1.351 . S
C66 N69 1.368 . S
C66 H71 0.931 . S
C67 C66 1.351 . S
C67 N68 1.373 . S
C67 H95 0.930 . S
N68 C67 1.373 . S
N68 C70 1.340 . S
N69 C66 1.368 . S
N69 C70 1.321 . S
N69 Co72 2.135 . S
C70 N68 1.340 . S
C70 N69 1.321 . S
C70 H94 0.930 . S
H71 C66 0.931 . S
Co72 N69 2.135 . S
Co72 N75 2.121 . S
Co72 O80 2.055 . S
Co72 O83 2.039 . S
Co72 N86 2.140 . S
C73 O74 1.227 . S
C73 O83 1.265 . S
O74 C73 1.227 . S
N75 Co72 2.121 . S
N75 C77 1.375 . S
N75 C78 1.313 . S
C76 C77 1.338 . S
C76 N79 1.377 . S
C76 H96 0.930 . S
C77 N75 1.375 . S
C77 C76 1.338 . S
C77 H81 0.931 . S
C78 N75 1.313 . S
C78 N79 1.344 . S
C78 H82 0.930 . S
N79 C76 1.377 . S
N79 C78 1.344 . S
O80 Co72 2.055 . S
O80 C84 1.253 . S
H81 C77 0.931 . S
H82 C78 0.930 . S
O83 Co72 2.039 . S
O83 C73 1.265 . S
C84 O80 1.253 . S
C84 O85 1.227 . S
O85 C84 1.227 . S
N86 Co72 2.140 . S
N86 C89 1.346 . S
N86 C90 1.345 . S
C87 C88 1.387 . S
C87 C91 1.391 . S
C88 C87 1.387 . S
C88 C89 1.369 . S
C88 H97 0.929 . S
C89 N86 1.346 . S
C89 C88 1.369 . S
C89 H92 0.928 . S
C90 N86 1.345 . S
C90 C91 1.371 . S
C90 H93 0.931 . S
C91 C87 1.391 . S
C91 C90 1.371 . S
C91 H98 0.930 . S
H92 C89 0.928 . S
H93 C90 0.931 . S
H94 C70 0.930 . S
H95 C67 0.930 . S
H96 C76 0.930 . S
H97 C88 0.929 . S
H98 C91 0.930 . S
C99 C100 1.351 . S
C99 N102 1.368 . S
C99 H104 0.931 . S
C100 C99 1.351 . S
C100 N101 1.373 . S
C100 H128 0.930 . S
N101 C100 1.373 . S
N101 C103 1.340 . S
N102 C99 1.368 . S
N102 C103 1.321 . S
N102 Co105 2.135 . S
C103 N101 1.340 . S
C103 N102 1.321 . S
C103 H127 0.930 . S
H104 C99 0.931 . S
Co105 N102 2.135 . S
Co105 N108 2.121 . S
Co105 O113 2.055 . S
Co105 O116 2.039 . S
Co105 N119 2.140 . S
C106 O107 1.227 . S
C106 O116 1.265 . S
O107 C106 1.227 . S
N108 Co105 2.121 . S
N108 C110 1.375 . S
N108 C111 1.313 . S
C109 C110 1.338 . S
C109 N112 1.377 . S
C109 H129 0.930 . S
C110 N108 1.375 . S
C110 C109 1.338 . S
C110 H114 0.931 . S
C111 N108 1.313 . S
C111 N112 1.344 . S
C111 H115 0.930 . S
N112 C109 1.377 . S
N112 C111 1.344 . S
O113 Co105 2.055 . S
O113 C117 1.253 . S
H114 C110 0.931 . S
H115 C111 0.930 . S
O116 Co105 2.039 . S
O116 C106 1.265 . S
C117 O113 1.253 . S
C117 O118 1.227 . S
O118 C117 1.227 . S
N119 Co105 2.140 . S
N119 C122 1.346 . S
N119 C123 1.345 . S
C120 C121 1.387 . S
C120 C124 1.391 . S
C121 C120 1.387 . S
C121 C122 1.369 . S
C121 H130 0.929 . S
C122 N119 1.346 . S
C122 C121 1.369 . S
C122 H125 0.928 . S
C123 N119 1.345 . S
C123 C124 1.371 . S
C123 H126 0.931 . S
C124 C120 1.391 . S
C124 C123 1.371 . S
C124 H131 0.930 . S
H125 C122 0.928 . S
H126 C123 0.931 . S
H127 C103 0.930 . S
H128 C100 0.930 . S
H129 C109 0.930 . S
H130 C121 0.929 . S
H131 C124 0.930 . S
C132 C133 1.351 . S
C132 N135 1.368 . S
C132 H137 0.931 . S
C133 C132 1.351 . S
C133 N134 1.373 . S
C133 H161 0.930 . S
N134 C133 1.373 . S
N134 C136 1.340 . S
N135 C132 1.368 . S
N135 C136 1.321 . S
N135 Co138 2.135 . S
C136 N134 1.340 . S
C136 N135 1.321 . S
C136 H160 0.930 . S
H137 C132 0.931 . S
Co138 N135 2.135 . S
Co138 N141 2.121 . S
Co138 O146 2.055 . S
Co138 O149 2.039 . S
Co138 N152 2.140 . S
C139 O140 1.227 . S
C139 O149 1.265 . S
O140 C139 1.227 . S
N141 Co138 2.121 . S
N141 C143 1.375 . S
N141 C144 1.313 . S
C142 C143 1.338 . S
C142 N145 1.377 . S
C142 H162 0.930 . S
C143 N141 1.375 . S
C143 C142 1.338 . S
C143 H147 0.931 . S
C144 N141 1.313 . S
C144 N145 1.344 . S
C144 H148 0.930 . S
N145 C142 1.377 . S
N145 C144 1.344 . S
O146 Co138 2.055 . S
O146 C150 1.253 . S
H147 C143 0.931 . S
H148 C144 0.930 . S
O149 Co138 2.039 . S
O149 C139 1.265 . S
C150 O146 1.253 . S
C150 O151 1.227 . S
O151 C150 1.227 . S
N152 Co138 2.140 . S
N152 C155 1.346 . S
N152 C156 1.345 . S
C153 C154 1.387 . S
C153 C157 1.391 . S
C154 C153 1.387 . S
C154 C155 1.369 . S
C154 H163 0.929 . S
C155 N152 1.346 . S
C155 C154 1.369 . S
C155 H158 0.928 . S
C156 N152 1.345 . S
C156 C157 1.371 . S
C156 H159 0.931 . S
C157 C153 1.391 . S
C157 C156 1.371 . S
C157 H164 0.930 . S
H158 C155 0.928 . S
H159 C156 0.931 . S
H160 C136 0.930 . S
H161 C133 0.930 . S
H162 C142 0.930 . S
H163 C154 0.929 . S
H164 C157 0.930 . S
C165 C166 1.351 . S
C165 N168 1.368 . S
C165 H170 0.931 . S
C166 C165 1.351 . S
C166 N167 1.373 . S
C166 H194 0.930 . S
N167 C166 1.373 . S
N167 C169 1.340 . S
N168 C165 1.368 . S
N168 C169 1.321 . S
N168 Co171 2.135 . S
C169 N167 1.340 . S
C169 N168 1.321 . S
C169 H193 0.930 . S
H170 C165 0.931 . S
Co171 N168 2.135 . S
Co171 N174 2.121 . S
Co171 O179 2.055 . S
Co171 O182 2.039 . S
Co171 N185 2.140 . S
C172 O173 1.227 . S
C172 O182 1.265 . S
O173 C172 1.227 . S
N174 Co171 2.121 . S
N174 C176 1.375 . S
N174 C177 1.313 . S
C175 C176 1.338 . S
C175 N178 1.377 . S
C175 H195 0.930 . S
C176 N174 1.375 . S
C176 C175 1.338 . S
C176 H180 0.931 . S
C177 N174 1.313 . S
C177 N178 1.344 . S
C177 H181 0.930 . S
N178 C175 1.377 . S
N178 C177 1.344 . S
O179 Co171 2.055 . S
O179 C183 1.253 . S
H180 C176 0.931 . S
H181 C177 0.930 . S
O182 Co171 2.039 . S
O182 C172 1.265 . S
C183 O179 1.253 . S
C183 O184 1.227 . S
O184 C183 1.227 . S
N185 Co171 2.140 . S
N185 C188 1.346 . S
N185 C189 1.345 . S
C186 C187 1.387 . S
C186 C190 1.391 . S
C187 C186 1.387 . S
C187 C188 1.369 . S
C187 H196 0.929 . S
C188 N185 1.346 . S
C188 C187 1.369 . S
C188 H191 0.928 . S
C189 N185 1.345 . S
C189 C190 1.371 . S
C189 H192 0.931 . S
C190 C186 1.391 . S
C190 C189 1.371 . S
C190 H197 0.930 . S
H191 C188 0.928 . S
H192 C189 0.931 . S
H193 C169 0.930 . S
H194 C166 0.930 . S
H195 C175 0.930 . S
H196 C187 0.929 . S
H197 C190 0.930 . S
C198 C199 1.351 . S
C198 N201 1.368 . S
C198 H203 0.931 . S
C199 C198 1.351 . S
C199 N200 1.373 . S
C199 H227 0.930 . S
N200 C199 1.373 . S
N200 C202 1.340 . S
N201 C198 1.368 . S
N201 C202 1.321 . S
N201 Co204 2.135 . S
C202 N200 1.340 . S
C202 N201 1.321 . S
C202 H226 0.930 . S
H203 C198 0.931 . S
Co204 N201 2.135 . S
Co204 N207 2.121 . S
Co204 O212 2.055 . S
Co204 O215 2.039 . S
Co204 N218 2.140 . S
C205 O206 1.227 . S
C205 O215 1.265 . S
O206 C205 1.227 . S
N207 Co204 2.121 . S
N207 C209 1.375 . S
N207 C210 1.313 . S
C208 C209 1.338 . S
C208 N211 1.377 . S
C208 H228 0.930 . S
C209 N207 1.375 . S
C209 C208 1.338 . S
C209 H213 0.931 . S
C210 N207 1.313 . S
C210 N211 1.344 . S
C210 H214 0.930 . S
N211 C208 1.377 . S
N211 C210 1.344 . S
O212 Co204 2.055 . S
O212 C216 1.253 . S
H213 C209 0.931 . S
H214 C210 0.930 . S
O215 Co204 2.039 . S
O215 C205 1.265 . S
C216 O212 1.253 . S
C216 O217 1.227 . S
O217 C216 1.227 . S
N218 Co204 2.140 . S
N218 C221 1.346 . S
N218 C222 1.345 . S
C219 C220 1.387 . S
C219 C223 1.391 . S
C220 C219 1.387 . S
C220 C221 1.369 . S
C220 H229 0.929 . S
C221 N218 1.346 . S
C221 C220 1.369 . S
C221 H224 0.928 . S
C222 N218 1.345 . S
C222 C223 1.371 . S
C222 H225 0.931 . S
C223 C219 1.391 . S
C223 C222 1.371 . S
C223 H230 0.930 . S
H224 C221 0.928 . S
H225 C222 0.931 . S
H226 C202 0.930 . S
H227 C199 0.930 . S
H228 C208 0.930 . S
H229 C220 0.929 . S
H230 C223 0.930 . S
C231 C232 1.351 . S
C231 N234 1.368 . S
C231 H236 0.931 . S
C232 C231 1.351 . S
C232 N233 1.373 . S
C232 H260 0.930 . S
N233 C232 1.373 . S
N233 C235 1.340 . S
N234 C231 1.368 . S
N234 C235 1.321 . S
N234 Co237 2.135 . S
C235 N233 1.340 . S
C235 N234 1.321 . S
C235 H259 0.930 . S
H236 C231 0.931 . S
Co237 N234 2.135 . S
Co237 N240 2.121 . S
Co237 O245 2.055 . S
Co237 O248 2.039 . S
Co237 N251 2.140 . S
C238 O239 1.227 . S
C238 O248 1.265 . S
O239 C238 1.227 . S
N240 Co237 2.121 . S
N240 C242 1.375 . S
N240 C243 1.313 . S
C241 C242 1.338 . S
C241 N244 1.377 . S
C241 H261 0.930 . S
C242 N240 1.375 . S
C242 C241 1.338 . S
C242 H246 0.931 . S
C243 N240 1.313 . S
C243 N244 1.344 . S
C243 H247 0.930 . S
N244 C241 1.377 . S
N244 C243 1.344 . S
O245 Co237 2.055 . S
O245 C249 1.253 . S
H246 C242 0.931 . S
H247 C243 0.930 . S
O248 Co237 2.039 . S
O248 C238 1.265 . S
C249 O245 1.253 . S
C249 O250 1.227 . S
O250 C249 1.227 . S
N251 Co237 2.140 . S
N251 C254 1.346 . S
N251 C255 1.345 . S
C252 C253 1.387 . S
C252 C256 1.391 . S
C253 C252 1.387 . S
C253 C254 1.369 . S
C253 H262 0.929 . S
C254 N251 1.346 . S
C254 C253 1.369 . S
C254 H257 0.928 . S
C255 N251 1.345 . S
C255 C256 1.371 . S
C255 H258 0.931 . S
C256 C252 1.391 . S
C256 C255 1.371 . S
C256 H263 0.930 . S
H257 C254 0.928 . S
H258 C255 0.931 . S
H259 C235 0.930 . S
H260 C232 0.930 . S
H261 C241 0.930 . S
H262 C253 0.929 . S
H263 C256 0.930 . S
C264 C265 1.351 . S
C264 N267 1.368 . S
C264 H269 0.931 . S
C265 C264 1.351 . S
C265 N266 1.373 . S
C265 H293 0.930 . S
N266 C265 1.373 . S
N266 C268 1.340 . S
N267 C264 1.368 . S
N267 C268 1.321 . S
N267 Co270 2.135 . S
C268 N266 1.340 . S
C268 N267 1.321 . S
C268 H292 0.930 . S
H269 C264 0.931 . S
Co270 N267 2.135 . S
Co270 N273 2.121 . S
Co270 O278 2.055 . S
Co270 O281 2.039 . S
Co270 N284 2.140 . S
C271 O272 1.227 . S
C271 O281 1.265 . S
O272 C271 1.227 . S
N273 Co270 2.121 . S
N273 C275 1.375 . S
N273 C276 1.313 . S
C274 C275 1.338 . S
C274 N277 1.377 . S
C274 H294 0.930 . S
C275 N273 1.375 . S
C275 C274 1.338 . S
C275 H279 0.931 . S
C276 N273 1.313 . S
C276 N277 1.344 . S
C276 H280 0.930 . S
N277 C274 1.377 . S
N277 C276 1.344 . S
O278 Co270 2.055 . S
O278 C282 1.253 . S
H279 C275 0.931 . S
H280 C276 0.930 . S
O281 Co270 2.039 . S
O281 C271 1.265 . S
C282 O278 1.253 . S
C282 O283 1.227 . S
O283 C282 1.227 . S
N284 Co270 2.140 . S
N284 C287 1.346 . S
N284 C288 1.345 . S
C285 C286 1.387 . S
C285 C289 1.391 . S
C286 C285 1.387 . S
C286 C287 1.369 . S
C286 H295 0.929 . S
C287 N284 1.346 . S
C287 C286 1.369 . S
C287 H290 0.928 . S
C288 N284 1.345 . S
C288 C289 1.371 . S
C288 H291 0.931 . S
C289 C285 1.391 . S
C289 C288 1.371 . S
C289 H296 0.930 . S
H290 C287 0.928 . S
H291 C288 0.931 . S
H292 C268 0.930 . S
H293 C265 0.930 . S
H294 C274 0.930 . S
H295 C286 0.929 . S
H296 C289 0.930 . S
C297 C298 1.351 . S
C297 N300 1.368 . S
C297 H302 0.931 . S
C298 C297 1.351 . S
C298 N299 1.373 . S
C298 H326 0.930 . S
N299 C298 1.373 . S
N299 C301 1.340 . S
N300 C297 1.368 . S
N300 C301 1.321 . S
N300 Co303 2.135 . S
C301 N299 1.340 . S
C301 N300 1.321 . S
C301 H325 0.930 . S
H302 C297 0.931 . S
Co303 N300 2.135 . S
Co303 N306 2.121 . S
Co303 O311 2.055 . S
Co303 O314 2.039 . S
Co303 N317 2.140 . S
C304 O305 1.227 . S
C304 O314 1.265 . S
O305 C304 1.227 . S
N306 Co303 2.121 . S
N306 C308 1.375 . S
N306 C309 1.313 . S
C307 C308 1.338 . S
C307 N310 1.377 . S
C307 H327 0.930 . S
C308 N306 1.375 . S
C308 C307 1.338 . S
C308 H312 0.931 . S
C309 N306 1.313 . S
C309 N310 1.344 . S
C309 H313 0.930 . S
N310 C307 1.377 . S
N310 C309 1.344 . S
O311 Co303 2.055 . S
O311 C315 1.253 . S
H312 C308 0.931 . S
H313 C309 0.930 . S
O314 Co303 2.039 . S
O314 C304 1.265 . S
C315 O311 1.253 . S
C315 O316 1.227 . S
O316 C315 1.227 . S
N317 Co303 2.140 . S
N317 C320 1.346 . S
N317 C321 1.345 . S
C318 C319 1.387 . S
C318 C322 1.391 . S
C319 C318 1.387 . S
C319 C320 1.369 . S
C319 H328 0.929 . S
C320 N317 1.346 . S
C320 C319 1.369 . S
C320 H323 0.928 . S
C321 N317 1.345 . S
C321 C322 1.371 . S
C321 H324 0.931 . S
C322 C318 1.391 . S
C322 C321 1.371 . S
C322 H329 0.930 . S
H323 C320 0.928 . S
H324 C321 0.931 . S
H325 C301 0.930 . S
H326 C298 0.930 . S
H327 C307 0.930 . S
H328 C319 0.929 . S
H329 C322 0.930 . S
C330 C331 1.351 . S
C330 N333 1.368 . S
C330 H335 0.931 . S
C331 C330 1.351 . S
C331 N332 1.373 . S
C331 H359 0.930 . S
N332 C331 1.373 . S
N332 C334 1.340 . S
N333 C330 1.368 . S
N333 C334 1.321 . S
N333 Co336 2.135 . S
C334 N332 1.340 . S
C334 N333 1.321 . S
C334 H358 0.930 . S
H335 C330 0.931 . S
Co336 N333 2.135 . S
Co336 N339 2.121 . S
Co336 O344 2.055 . S
Co336 O347 2.039 . S
Co336 N350 2.140 . S
C337 O338 1.227 . S
C337 O347 1.265 . S
O338 C337 1.227 . S
N339 Co336 2.121 . S
N339 C341 1.375 . S
N339 C342 1.313 . S
C340 C341 1.338 . S
C340 N343 1.377 . S
C340 H360 0.930 . S
C341 N339 1.375 . S
C341 C340 1.338 . S
C341 H345 0.931 . S
C342 N339 1.313 . S
C342 N343 1.344 . S
C342 H346 0.930 . S
N343 C340 1.377 . S
N343 C342 1.344 . S
O344 Co336 2.055 . S
O344 C348 1.253 . S
H345 C341 0.931 . S
H346 C342 0.930 . S
O347 Co336 2.039 . S
O347 C337 1.265 . S
C348 O344 1.253 . S
C348 O349 1.227 . S
O349 C348 1.227 . S
N350 Co336 2.140 . S
N350 C353 1.346 . S
N350 C354 1.345 . S
C351 C352 1.387 . S
C351 C355 1.391 . S
C352 C351 1.387 . S
C352 C353 1.369 . S
C352 H361 0.929 . S
C353 N350 1.346 . S
C353 C352 1.369 . S
C353 H356 0.928 . S
C354 N350 1.345 . S
C354 C355 1.371 . S
C354 H357 0.931 . S
C355 C351 1.391 . S
C355 C354 1.371 . S
C355 H362 0.930 . S
H356 C353 0.928 . S
H357 C354 0.931 . S
H358 C334 0.930 . S
H359 C331 0.930 . S
H360 C340 0.930 . S
H361 C352 0.929 . S
H362 C355 0.930 . S
C363 C364 1.351 . S
C363 N366 1.368 . S
C363 H368 0.931 . S
C364 C363 1.351 . S
C364 N365 1.373 . S
C364 H392 0.930 . S
N365 C364 1.373 . S
N365 C367 1.340 . S
N366 C363 1.368 . S
N366 C367 1.321 . S
N366 Co369 2.135 . S
C367 N365 1.340 . S
C367 N366 1.321 . S
C367 H391 0.930 . S
H368 C363 0.931 . S
Co369 N366 2.135 . S
Co369 N372 2.121 . S
Co369 O377 2.055 . S
Co369 O380 2.039 . S
Co369 N383 2.140 . S
C370 O371 1.227 . S
C370 O380 1.265 . S
O371 C370 1.227 . S
N372 Co369 2.121 . S
N372 C374 1.375 . S
N372 C375 1.313 . S
C373 C374 1.338 . S
C373 N376 1.377 . S
C373 H393 0.930 . S
C374 N372 1.375 . S
C374 C373 1.338 . S
C374 H378 0.931 . S
C375 N372 1.313 . S
C375 N376 1.344 . S
C375 H379 0.930 . S
N376 C373 1.377 . S
N376 C375 1.344 . S
O377 Co369 2.055 . S
O377 C381 1.253 . S
H378 C374 0.931 . S
H379 C375 0.930 . S
O380 Co369 2.039 . S
O380 C370 1.265 . S
C381 O377 1.253 . S
C381 O382 1.227 . S
O382 C381 1.227 . S
N383 Co369 2.140 . S
N383 C386 1.346 . S
N383 C387 1.345 . S
C384 C385 1.387 . S
C384 C388 1.391 . S
C385 C384 1.387 . S
C385 C386 1.369 . S
C385 H394 0.929 . S
C386 N383 1.346 . S
C386 C385 1.369 . S
C386 H389 0.928 . S
C387 N383 1.345 . S
C387 C388 1.371 . S
C387 H390 0.931 . S
C388 C384 1.391 . S
C388 C387 1.371 . S
C388 H395 0.930 . S
H389 C386 0.928 . S
H390 C387 0.931 . S
H391 C367 0.930 . S
H392 C364 0.930 . S
H393 C373 0.930 . S
H394 C385 0.929 . S
H395 C388 0.930 . S
C396 C397 1.351 . S
C396 N399 1.368 . S
C396 H401 0.931 . S
C397 C396 1.351 . S
C397 N398 1.373 . S
C397 H425 0.930 . S
N398 C397 1.373 . S
N398 C400 1.340 . S
N399 C396 1.368 . S
N399 C400 1.321 . S
N399 Co402 2.135 . S
C400 N398 1.340 . S
C400 N399 1.321 . S
C400 H424 0.930 . S
H401 C396 0.931 . S
Co402 N399 2.135 . S
Co402 N405 2.121 . S
Co402 O410 2.055 . S
Co402 O413 2.039 . S
Co402 N416 2.140 . S
C403 O404 1.227 . S
C403 O413 1.265 . S
O404 C403 1.227 . S
N405 Co402 2.121 . S
N405 C407 1.375 . S
N405 C408 1.313 . S
C406 C407 1.338 . S
C406 N409 1.377 . S
C406 H426 0.930 . S
C407 N405 1.375 . S
C407 C406 1.338 . S
C407 H411 0.931 . S
C408 N405 1.313 . S
C408 N409 1.344 . S
C408 H412 0.930 . S
N409 C406 1.377 . S
N409 C408 1.344 . S
O410 Co402 2.055 . S
O410 C414 1.253 . S
H411 C407 0.931 . S
H412 C408 0.930 . S
O413 Co402 2.039 . S
O413 C403 1.265 . S
C414 O410 1.253 . S
C414 O415 1.227 . S
O415 C414 1.227 . S
N416 Co402 2.140 . S
N416 C419 1.346 . S
N416 C420 1.345 . S
C417 C418 1.387 . S
C417 C421 1.391 . S
C418 C417 1.387 . S
C418 C419 1.369 . S
C418 H427 0.929 . S
C419 N416 1.346 . S
C419 C418 1.369 . S
C419 H422 0.928 . S
C420 N416 1.345 . S
C420 C421 1.371 . S
C420 H423 0.931 . S
C421 C417 1.391 . S
C421 C420 1.371 . S
C421 H428 0.930 . S
H422 C419 0.928 . S
H423 C420 0.931 . S
H424 C400 0.930 . S
H425 C397 0.930 . S
H426 C406 0.930 . S
H427 C418 0.929 . S
H428 C421 0.930 . S
C429 C430 1.351 . S
C429 N432 1.368 . S
C429 H434 0.931 . S
C430 C429 1.351 . S
C430 N431 1.373 . S
C430 H458 0.930 . S
N431 C430 1.373 . S
N431 C433 1.340 . S
N432 C429 1.368 . S
N432 C433 1.321 . S
N432 Co435 2.135 . S
C433 N431 1.340 . S
C433 N432 1.321 . S
C433 H457 0.930 . S
H434 C429 0.931 . S
Co435 N432 2.135 . S
Co435 N438 2.121 . S
Co435 O443 2.055 . S
Co435 O446 2.039 . S
Co435 N449 2.140 . S
C436 O437 1.227 . S
C436 O446 1.265 . S
O437 C436 1.227 . S
N438 Co435 2.121 . S
N438 C440 1.375 . S
N438 C441 1.313 . S
C439 C440 1.338 . S
C439 N442 1.377 . S
C439 H459 0.930 . S
C440 N438 1.375 . S
C440 C439 1.338 . S
C440 H444 0.931 . S
C441 N438 1.313 . S
C441 N442 1.344 . S
C441 H445 0.930 . S
N442 C439 1.377 . S
N442 C441 1.344 . S
O443 Co435 2.055 . S
O443 C447 1.253 . S
H444 C440 0.931 . S
H445 C441 0.930 . S
O446 Co435 2.039 . S
O446 C436 1.265 . S
C447 O443 1.253 . S
C447 O448 1.227 . S
O448 C447 1.227 . S
N449 Co435 2.140 . S
N449 C452 1.346 . S
N449 C453 1.345 . S
C450 C451 1.387 . S
C450 C454 1.391 . S
C451 C450 1.387 . S
C451 C452 1.369 . S
C451 H460 0.929 . S
C452 N449 1.346 . S
C452 C451 1.369 . S
C452 H455 0.928 . S
C453 N449 1.345 . S
C453 C454 1.371 . S
C453 H456 0.931 . S
C454 C450 1.391 . S
C454 C453 1.371 . S
C454 H461 0.930 . S
H455 C452 0.928 . S
H456 C453 0.931 . S
H457 C433 0.930 . S
H458 C430 0.930 . S
H459 C439 0.930 . S
H460 C451 0.929 . S
H461 C454 0.930 . S
C462 C463 1.351 . S
C462 N465 1.368 . S
C462 H467 0.931 . S
C463 C462 1.351 . S
C463 N464 1.373 . S
C463 H491 0.930 . S
N464 C463 1.373 . S
N464 C466 1.340 . S
N465 C462 1.368 . S
N465 C466 1.321 . S
N465 Co468 2.135 . S
C466 N464 1.340 . S
C466 N465 1.321 . S
C466 H490 0.930 . S
H467 C462 0.931 . S
Co468 N465 2.135 . S
Co468 N471 2.121 . S
Co468 O476 2.055 . S
Co468 O479 2.039 . S
Co468 N482 2.140 . S
C469 O470 1.227 . S
C469 O479 1.265 . S
O470 C469 1.227 . S
N471 Co468 2.121 . S
N471 C473 1.375 . S
N471 C474 1.313 . S
C472 C473 1.338 . S
C472 N475 1.377 . S
C472 H492 0.930 . S
C473 N471 1.375 . S
C473 C472 1.338 . S
C473 H477 0.931 . S
C474 N471 1.313 . S
C474 N475 1.344 . S
C474 H478 0.930 . S
N475 C472 1.377 . S
N475 C474 1.344 . S
O476 Co468 2.055 . S
O476 C480 1.253 . S
H477 C473 0.931 . S
H478 C474 0.930 . S
O479 Co468 2.039 . S
O479 C469 1.265 . S
C480 O476 1.253 . S
C480 O481 1.227 . S
O481 C480 1.227 . S
N482 Co468 2.140 . S
N482 C485 1.346 . S
N482 C486 1.345 . S
C483 C484 1.387 . S
C483 C487 1.391 . S
C484 C483 1.387 . S
C484 C485 1.369 . S
C484 H493 0.929 . S
C485 N482 1.346 . S
C485 C484 1.369 . S
C485 H488 0.928 . S
C486 N482 1.345 . S
C486 C487 1.371 . S
C486 H489 0.931 . S
C487 C483 1.391 . S
C487 C486 1.371 . S
C487 H494 0.930 . S
H488 C485 0.928 . S
H489 C486 0.931 . S
H490 C466 0.930 . S
H491 C463 0.930 . S
H492 C472 0.930 . S
H493 C484 0.929 . S
H494 C487 0.930 . S
C495 C496 1.351 . S
C495 N498 1.368 . S
C495 H500 0.931 . S
C496 C495 1.351 . S
C496 N497 1.373 . S
C496 H524 0.930 . S
N497 C496 1.373 . S
N497 C499 1.340 . S
N498 C495 1.368 . S
N498 C499 1.321 . S
N498 Co501 2.135 . S
C499 N497 1.340 . S
C499 N498 1.321 . S
C499 H523 0.930 . S
H500 C495 0.931 . S
Co501 N498 2.135 . S
Co501 N504 2.121 . S
Co501 O509 2.055 . S
Co501 O512 2.039 . S
Co501 N515 2.140 . S
C502 O503 1.227 . S
C502 O512 1.265 . S
O503 C502 1.227 . S
N504 Co501 2.121 . S
N504 C506 1.375 . S
N504 C507 1.313 . S
C505 C506 1.338 . S
C505 N508 1.377 . S
C505 H525 0.930 . S
C506 N504 1.375 . S
C506 C505 1.338 . S
C506 H510 0.931 . S
C507 N504 1.313 . S
C507 N508 1.344 . S
C507 H511 0.930 . S
N508 C505 1.377 . S
N508 C507 1.344 . S
O509 Co501 2.055 . S
O509 C513 1.253 . S
H510 C506 0.931 . S
H511 C507 0.930 . S
O512 Co501 2.039 . S
O512 C502 1.265 . S
C513 O509 1.253 . S
C513 O514 1.227 . S
O514 C513 1.227 . S
N515 Co501 2.140 . S
N515 C518 1.346 . S
N515 C519 1.345 . S
C516 C517 1.387 . S
C516 C520 1.391 . S
C517 C516 1.387 . S
C517 C518 1.369 . S
C517 H526 0.929 . S
C518 N515 1.346 . S
C518 C517 1.369 . S
C518 H521 0.928 . S
C519 N515 1.345 . S
C519 C520 1.371 . S
C519 H522 0.931 . S
C520 C516 1.391 . S
C520 C519 1.371 . S
C520 H527 0.930 . S
H521 C518 0.928 . S
H522 C519 0.931 . S
H523 C499 0.930 . S
H524 C496 0.930 . S
H525 C505 0.930 . S
H526 C517 0.929 . S
H527 C520 0.930 . S
C528 C529 1.351 . S
C528 N531 1.368 . S
C528 H533 0.931 . S
C529 C528 1.351 . S
C529 N530 1.373 . S
C529 H557 0.930 . S
N530 C529 1.373 . S
N530 C532 1.340 . S
N531 C528 1.368 . S
N531 C532 1.321 . S
N531 Co534 2.135 . S
C532 N530 1.340 . S
C532 N531 1.321 . S
C532 H556 0.930 . S
H533 C528 0.931 . S
Co534 N531 2.135 . S
Co534 N537 2.121 . S
Co534 O542 2.055 . S
Co534 O545 2.039 . S
Co534 N548 2.140 . S
C535 O536 1.227 . S
C535 O545 1.265 . S
O536 C535 1.227 . S
N537 Co534 2.121 . S
N537 C539 1.375 . S
N537 C540 1.313 . S
C538 C539 1.338 . S
C538 N541 1.377 . S
C538 H558 0.930 . S
C539 N537 1.375 . S
C539 C538 1.338 . S
C539 H543 0.931 . S
C540 N537 1.313 . S
C540 N541 1.344 . S
C540 H544 0.930 . S
N541 C538 1.377 . S
N541 C540 1.344 . S
O542 Co534 2.055 . S
O542 C546 1.253 . S
H543 C539 0.931 . S
H544 C540 0.930 . S
O545 Co534 2.039 . S
O545 C535 1.265 . S
C546 O542 1.253 . S
C546 O547 1.227 . S
O547 C546 1.227 . S
N548 Co534 2.140 . S
N548 C551 1.346 . S
N548 C552 1.345 . S
C549 C550 1.387 . S
C549 C553 1.391 . S
C550 C549 1.387 . S
C550 C551 1.369 . S
C550 H559 0.929 . S
C551 N548 1.346 . S
C551 C550 1.369 . S
C551 H554 0.928 . S
C552 N548 1.345 . S
C552 C553 1.371 . S
C552 H555 0.931 . S
C553 C549 1.391 . S
C553 C552 1.371 . S
C553 H560 0.930 . S
H554 C551 0.928 . S
H555 C552 0.931 . S
H556 C532 0.930 . S
H557 C529 0.930 . S
H558 C538 0.930 . S
H559 C550 0.929 . S
H560 C553 0.930 . S
C561 C562 1.351 . S
C561 N564 1.368 . S
C561 H566 0.931 . S
C562 C561 1.351 . S
C562 N563 1.373 . S
C562 H590 0.930 . S
N563 C562 1.373 . S
N563 C565 1.340 . S
N564 C561 1.368 . S
N564 C565 1.321 . S
N564 Co567 2.135 . S
C565 N563 1.340 . S
C565 N564 1.321 . S
C565 H589 0.930 . S
H566 C561 0.931 . S
Co567 N564 2.135 . S
Co567 N570 2.121 . S
Co567 O575 2.055 . S
Co567 O578 2.039 . S
Co567 N581 2.140 . S
C568 O569 1.227 . S
C568 O578 1.265 . S
O569 C568 1.227 . S
N570 Co567 2.121 . S
N570 C572 1.375 . S
N570 C573 1.313 . S
C571 C572 1.338 . S
C571 N574 1.377 . S
C571 H591 0.930 . S
C572 N570 1.375 . S
C572 C571 1.338 . S
C572 H576 0.931 . S
C573 N570 1.313 . S
C573 N574 1.344 . S
C573 H577 0.930 . S
N574 C571 1.377 . S
N574 C573 1.344 . S
O575 Co567 2.055 . S
O575 C579 1.253 . S
H576 C572 0.931 . S
H577 C573 0.930 . S
O578 Co567 2.039 . S
O578 C568 1.265 . S
C579 O575 1.253 . S
C579 O580 1.227 . S
O580 C579 1.227 . S
N581 Co567 2.140 . S
N581 C584 1.346 . S
N581 C585 1.345 . S
C582 C583 1.387 . S
C582 C586 1.391 . S
C583 C582 1.387 . S
C583 C584 1.369 . S
C583 H592 0.929 . S
C584 N581 1.346 . S
C584 C583 1.369 . S
C584 H587 0.928 . S
C585 N581 1.345 . S
C585 C586 1.371 . S
C585 H588 0.931 . S
C586 C582 1.391 . S
C586 C585 1.371 . S
C586 H593 0.930 . S
H587 C584 0.928 . S
H588 C585 0.931 . S
H589 C565 0.930 . S
H590 C562 0.930 . S
H591 C571 0.930 . S
H592 C583 0.929 . S
H593 C586 0.930 . S
C594 C595 1.351 . S
C594 N597 1.368 . S
C594 H599 0.931 . S
C595 C594 1.351 . S
C595 N596 1.373 . S
C595 H623 0.930 . S
N596 C595 1.373 . S
N596 C598 1.340 . S
N597 C594 1.368 . S
N597 C598 1.321 . S
N597 Co600 2.135 . S
C598 N596 1.340 . S
C598 N597 1.321 . S
C598 H622 0.930 . S
H599 C594 0.931 . S
Co600 N597 2.135 . S
Co600 N603 2.121 . S
Co600 O608 2.055 . S
Co600 O611 2.039 . S
Co600 N614 2.140 . S
C601 O602 1.227 . S
C601 O611 1.265 . S
O602 C601 1.227 . S
N603 Co600 2.121 . S
N603 C605 1.375 . S
N603 C606 1.313 . S
C604 C605 1.338 . S
C604 N607 1.377 . S
C604 H624 0.930 . S
C605 N603 1.375 . S
C605 C604 1.338 . S
C605 H609 0.931 . S
C606 N603 1.313 . S
C606 N607 1.344 . S
C606 H610 0.930 . S
N607 C604 1.377 . S
N607 C606 1.344 . S
O608 Co600 2.055 . S
O608 C612 1.253 . S
H609 C605 0.931 . S
H610 C606 0.930 . S
O611 Co600 2.039 . S
O611 C601 1.265 . S
C612 O608 1.253 . S
C612 O613 1.227 . S
O613 C612 1.227 . S
N614 Co600 2.140 . S
N614 C617 1.346 . S
N614 C618 1.345 . S
C615 C616 1.387 . S
C615 C619 1.391 . S
C616 C615 1.387 . S
C616 C617 1.369 . S
C616 H625 0.929 . S
C617 N614 1.346 . S
C617 C616 1.369 . S
C617 H620 0.928 . S
C618 N614 1.345 . S
C618 C619 1.371 . S
C618 H621 0.931 . S
C619 C615 1.391 . S
C619 C618 1.371 . S
C619 H626 0.930 . S
H620 C617 0.928 . S
H621 C618 0.931 . S
H622 C598 0.930 . S
H623 C595 0.930 . S
H624 C604 0.930 . S
H625 C616 0.929 . S
H626 C619 0.930 . S
C627 C628 1.351 . S
C627 N630 1.368 . S
C627 H632 0.931 . S
C628 C627 1.351 . S
C628 N629 1.373 . S
C628 H656 0.930 . S
N629 C628 1.373 . S
N629 C631 1.340 . S
N630 C627 1.368 . S
N630 C631 1.321 . S
N630 Co633 2.135 . S
C631 N629 1.340 . S
C631 N630 1.321 . S
C631 H655 0.930 . S
H632 C627 0.931 . S
Co633 N630 2.135 . S
Co633 N636 2.121 . S
Co633 O641 2.055 . S
Co633 O644 2.039 . S
Co633 N647 2.140 . S
C634 O635 1.227 . S
C634 O644 1.265 . S
O635 C634 1.227 . S
N636 Co633 2.121 . S
N636 C638 1.375 . S
N636 C639 1.313 . S
C637 C638 1.338 . S
C637 N640 1.377 . S
C637 H657 0.930 . S
C638 N636 1.375 . S
C638 C637 1.338 . S
C638 H642 0.931 . S
C639 N636 1.313 . S
C639 N640 1.344 . S
C639 H643 0.930 . S
N640 C637 1.377 . S
N640 C639 1.344 . S
O641 Co633 2.055 . S
O641 C645 1.253 . S
H642 C638 0.931 . S
H643 C639 0.930 . S
O644 Co633 2.039 . S
O644 C634 1.265 . S
C645 O641 1.253 . S
C645 O646 1.227 . S
O646 C645 1.227 . S
N647 Co633 2.140 . S
N647 C650 1.346 . S
N647 C651 1.345 . S
C648 C649 1.387 . S
C648 C652 1.391 . S
C649 C648 1.387 . S
C649 C650 1.369 . S
C649 H658 0.929 . S
C650 N647 1.346 . S
C650 C649 1.369 . S
C650 H653 0.928 . S
C651 N647 1.345 . S
C651 C652 1.371 . S
C651 H654 0.931 . S
C652 C648 1.391 . S
C652 C651 1.371 . S
C652 H659 0.930 . S
H653 C650 0.928 . S
H654 C651 0.931 . S
H655 C631 0.930 . S
H656 C628 0.930 . S
H657 C637 0.930 . S
H658 C649 0.929 . S
H659 C652 0.930 . S
C660 C661 1.351 . S
C660 N663 1.368 . S
C660 H665 0.931 . S
C661 C660 1.351 . S
C661 N662 1.373 . S
C661 H689 0.930 . S
N662 C661 1.373 . S
N662 C664 1.340 . S
N663 C660 1.368 . S
N663 C664 1.321 . S
N663 Co666 2.135 . S
C664 N662 1.340 . S
C664 N663 1.321 . S
C664 H688 0.930 . S
H665 C660 0.931 . S
Co666 N663 2.135 . S
Co666 N669 2.121 . S
Co666 O674 2.055 . S
Co666 O677 2.039 . S
Co666 N680 2.140 . S
C667 O668 1.227 . S
C667 O677 1.265 . S
O668 C667 1.227 . S
N669 Co666 2.121 . S
N669 C671 1.375 . S
N669 C672 1.313 . S
C670 C671 1.338 . S
C670 N673 1.377 . S
C670 H690 0.930 . S
C671 N669 1.375 . S
C671 C670 1.338 . S
C671 H675 0.931 . S
C672 N669 1.313 . S
C672 N673 1.344 . S
C672 H676 0.930 . S
N673 C670 1.377 . S
N673 C672 1.344 . S
O674 Co666 2.055 . S
O674 C678 1.253 . S
H675 C671 0.931 . S
H676 C672 0.930 . S
O677 Co666 2.039 . S
O677 C667 1.265 . S
C678 O674 1.253 . S
C678 O679 1.227 . S
O679 C678 1.227 . S
N680 Co666 2.140 . S
N680 C683 1.346 . S
N680 C684 1.345 . S
C681 C682 1.387 . S
C681 C685 1.391 . S
C682 C681 1.387 . S
C682 C683 1.369 . S
C682 H691 0.929 . S
C683 N680 1.346 . S
C683 C682 1.369 . S
C683 H686 0.928 . S
C684 N680 1.345 . S
C684 C685 1.371 . S
C684 H687 0.931 . S
C685 C681 1.391 . S
C685 C684 1.371 . S
C685 H692 0.930 . S
H686 C683 0.928 . S
H687 C684 0.931 . S
H688 C664 0.930 . S
H689 C661 0.930 . S
H690 C670 0.930 . S
H691 C682 0.929 . S
H692 C685 0.930 . S
C693 C694 1.351 . S
C693 N696 1.368 . S
C693 H698 0.931 . S
C694 C693 1.351 . S
C694 N695 1.373 . S
C694 H722 0.930 . S
N695 C694 1.373 . S
N695 C697 1.340 . S
N696 C693 1.368 . S
N696 C697 1.321 . S
N696 Co699 2.135 . S
C697 N695 1.340 . S
C697 N696 1.321 . S
C697 H721 0.930 . S
H698 C693 0.931 . S
Co699 N696 2.135 . S
Co699 N702 2.121 . S
Co699 O707 2.055 . S
Co699 O710 2.039 . S
Co699 N713 2.140 . S
C700 O701 1.227 . S
C700 O710 1.265 . S
O701 C700 1.227 . S
N702 Co699 2.121 . S
N702 C704 1.375 . S
N702 C705 1.313 . S
C703 C704 1.338 . S
C703 N706 1.377 . S
C703 H723 0.930 . S
C704 N702 1.375 . S
C704 C703 1.338 . S
C704 H708 0.931 . S
C705 N702 1.313 . S
C705 N706 1.344 . S
C705 H709 0.930 . S
N706 C703 1.377 . S
N706 C705 1.344 . S
O707 Co699 2.055 . S
O707 C711 1.253 . S
H708 C704 0.931 . S
H709 C705 0.930 . S
O710 Co699 2.039 . S
O710 C700 1.265 . S
C711 O707 1.253 . S
C711 O712 1.227 . S
O712 C711 1.227 . S
N713 Co699 2.140 . S
N713 C716 1.346 . S
N713 C717 1.345 . S
C714 C715 1.387 . S
C714 C718 1.391 . S
C715 C714 1.387 . S
C715 C716 1.369 . S
C715 H724 0.929 . S
C716 N713 1.346 . S
C716 C715 1.369 . S
C716 H719 0.928 . S
C717 N713 1.345 . S
C717 C718 1.371 . S
C717 H720 0.931 . S
C718 C714 1.391 . S
C718 C717 1.371 . S
C718 H725 0.930 . S
H719 C716 0.928 . S
H720 C717 0.931 . S
H721 C697 0.930 . S
H722 C694 0.930 . S
H723 C703 0.930 . S
H724 C715 0.929 . S
H725 C718 0.930 . S
C726 C727 1.351 . S
C726 N729 1.368 . S
C726 H731 0.931 . S
C727 C726 1.351 . S
C727 N728 1.373 . S
C727 H755 0.930 . S
N728 C727 1.373 . S
N728 C730 1.340 . S
N729 C726 1.368 . S
N729 C730 1.321 . S
N729 Co732 2.135 . S
C730 N728 1.340 . S
C730 N729 1.321 . S
C730 H754 0.930 . S
H731 C726 0.931 . S
Co732 N729 2.135 . S
Co732 N735 2.121 . S
Co732 O740 2.055 . S
Co732 O743 2.039 . S
Co732 N746 2.140 . S
C733 O734 1.227 . S
C733 O743 1.265 . S
O734 C733 1.227 . S
N735 Co732 2.121 . S
N735 C737 1.375 . S
N735 C738 1.313 . S
C736 C737 1.338 . S
C736 N739 1.377 . S
C736 H756 0.930 . S
C737 N735 1.375 . S
C737 C736 1.338 . S
C737 H741 0.931 . S
C738 N735 1.313 . S
C738 N739 1.344 . S
C738 H742 0.930 . S
N739 C736 1.377 . S
N739 C738 1.344 . S
O740 Co732 2.055 . S
O740 C744 1.253 . S
H741 C737 0.931 . S
H742 C738 0.930 . S
O743 Co732 2.039 . S
O743 C733 1.265 . S
C744 O740 1.253 . S
C744 O745 1.227 . S
O745 C744 1.227 . S
N746 Co732 2.140 . S
N746 C749 1.346 . S
N746 C750 1.345 . S
C747 C748 1.387 . S
C747 C751 1.391 . S
C748 C747 1.387 . S
C748 C749 1.369 . S
C748 H757 0.929 . S
C749 N746 1.346 . S
C749 C748 1.369 . S
C749 H752 0.928 . S
C750 N746 1.345 . S
C750 C751 1.371 . S
C750 H753 0.931 . S
C751 C747 1.391 . S
C751 C750 1.371 . S
C751 H758 0.930 . S
H752 C749 0.928 . S
H753 C750 0.931 . S
H754 C730 0.930 . S
H755 C727 0.930 . S
H756 C736 0.930 . S
H757 C748 0.929 . S
H758 C751 0.930 . S
C759 C760 1.351 . S
C759 N762 1.368 . S
C759 H764 0.931 . S
C760 C759 1.351 . S
C760 N761 1.373 . S
C760 H788 0.930 . S
N761 C760 1.373 . S
N761 C763 1.340 . S
N762 C759 1.368 . S
N762 C763 1.321 . S
N762 Co765 2.135 . S
C763 N761 1.340 . S
C763 N762 1.321 . S
C763 H787 0.930 . S
H764 C759 0.931 . S
Co765 N762 2.135 . S
Co765 N768 2.121 . S
Co765 O773 2.055 . S
Co765 O776 2.039 . S
Co765 N779 2.140 . S
C766 O767 1.227 . S
C766 O776 1.265 . S
O767 C766 1.227 . S
N768 Co765 2.121 . S
N768 C770 1.375 . S
N768 C771 1.313 . S
C769 C770 1.338 . S
C769 N772 1.377 . S
C769 H789 0.930 . S
C770 N768 1.375 . S
C770 C769 1.338 . S
C770 H774 0.931 . S
C771 N768 1.313 . S
C771 N772 1.344 . S
C771 H775 0.930 . S
N772 C769 1.377 . S
N772 C771 1.344 . S
O773 Co765 2.055 . S
O773 C777 1.253 . S
H774 C770 0.931 . S
H775 C771 0.930 . S
O776 Co765 2.039 . S
O776 C766 1.265 . S
C777 O773 1.253 . S
C777 O778 1.227 . S
O778 C777 1.227 . S
N779 Co765 2.140 . S
N779 C782 1.346 . S
N779 C783 1.345 . S
C780 C781 1.387 . S
C780 C784 1.391 . S
C781 C780 1.387 . S
C781 C782 1.369 . S
C781 H790 0.929 . S
C782 N779 1.346 . S
C782 C781 1.369 . S
C782 H785 0.928 . S
C783 N779 1.345 . S
C783 C784 1.371 . S
C783 H786 0.931 . S
C784 C780 1.391 . S
C784 C783 1.371 . S
C784 H791 0.930 . S
H785 C782 0.928 . S
H786 C783 0.931 . S
H787 C763 0.930 . S
H788 C760 0.930 . S
H789 C769 0.930 . S
H790 C781 0.929 . S
H791 C784 0.930 . S
C792 C793 1.349 . S
C792 C794 1.327 . S
C792 H817 0.950 . S
C793 C792 1.349 . S
C793 C809 1.349 . S
C794 C792 1.327 . S
C794 C813 1.429 . S
C794 H818 0.950 . S
C795 C812 1.574 1_545 S
C795 C814 1.368 . S
C795 H819 0.949 . S
H796 C800 0.949 . S
C797 C798 1.349 . S
C797 C799 1.327 . S
C797 H820 0.950 . S
C798 C797 1.349 . S
C798 C810 1.349 . S
C799 C797 1.327 . S
C799 C815 1.429 . S
C799 H821 0.950 . S
C800 H796 0.949 . S
C800 C808 1.574 1_565 S
C800 C816 1.368 . S
H801 C809 0.950 . S
H802 C807 0.950 . S
H803 C808 0.949 . S
H804 C810 0.950 . S
H805 C811 0.950 . S
H806 C812 0.949 . S
C807 H802 0.950 . S
C807 C809 1.327 . S
C807 C813 1.429 . S
C808 C800 1.574 1_545 S
C808 H803 0.949 . S
C808 C814 1.368 . S
C809 C793 1.349 . S
C809 H801 0.950 . S
C809 C807 1.327 . S
C810 C798 1.349 . S
C810 H804 0.950 . S
C810 C811 1.327 . S
C811 H805 0.950 . S
C811 C810 1.327 . S
C811 C815 1.429 . S
C812 C795 1.574 1_565 S
C812 H806 0.949 . S
C812 C816 1.368 . S
C813 C794 1.429 . S
C813 C807 1.429 . S
C813 C814 1.523 . S
C814 C795 1.368 . S
C814 C808 1.368 . S
C814 C813 1.523 . S
C815 C799 1.429 . S
C815 C811 1.429 . S
C815 C816 1.523 . S
C816 C800 1.368 . S
C816 C812 1.368 . S
C816 C815 1.523 . S
H817 C792 0.950 . S
H818 C794 0.950 . S
H819 C795 0.949 . S
H820 C797 0.950 . S
H821 C799 0.950 . S
C822 C823 1.349 . S
C822 C824 1.327 . S
C822 H847 0.950 . S
C823 C822 1.349 . S
C823 C839 1.349 . S
C824 C822 1.327 . S
C824 C843 1.429 . S
C824 H848 0.950 . S
C825 C842 1.574 . S
C825 C844 1.368 . S
C825 H849 0.949 . S
H826 C830 0.949 . S
C827 C828 1.349 . S
C827 C829 1.327 . S
C827 H850 0.950 . S
C828 C827 1.349 . S
C828 C840 1.349 . S
C829 C827 1.327 . S
C829 C845 1.429 . S
C829 H851 0.950 . S
C830 H826 0.949 . S
C830 C838 1.574 . S
C830 C846 1.368 . S
H831 C839 0.950 . S
H832 C837 0.950 . S
H833 C838 0.949 . S
H834 C840 0.950 . S
H835 C841 0.950 . S
H836 C842 0.949 . S
C837 H832 0.950 . S
C837 C839 1.327 . S
C837 C843 1.429 . S
C838 C830 1.574 . S
C838 H833 0.949 . S
C838 C844 1.368 . S
C839 C823 1.349 . S
C839 H831 0.950 . S
C839 C837 1.327 . S
C840 C828 1.349 . S
C840 H834 0.950 . S
C840 C841 1.327 . S
C841 H835 0.950 . S
C841 C840 1.327 . S
C841 C845 1.429 . S
C842 C825 1.574 . S
C842 H836 0.949 . S
C842 C846 1.368 . S
C843 C824 1.429 . S
C843 C837 1.429 . S
C843 C844 1.523 . S
C844 C825 1.368 . S
C844 C838 1.368 . S
C844 C843 1.523 . S
C845 C829 1.429 . S
C845 C841 1.429 . S
C845 C846 1.523 . S
C846 C830 1.368 . S
C846 C842 1.368 . S
C846 C845 1.523 . S
H847 C822 0.950 . S
H848 C824 0.950 . S
H849 C825 0.949 . S
H850 C827 0.950 . S
H851 C829 0.950 . S
C852 C853 1.349 . S
C852 C854 1.327 . S
C852 H877 0.950 . S
C853 C852 1.349 . S
C853 C869 1.349 . S
C854 C852 1.327 . S
C854 C873 1.429 . S
C854 H878 0.950 . S
C855 C872 1.574 1_455 S
C855 C874 1.368 . S
C855 H879 0.949 . S
H856 C860 0.949 . S
C857 C858 1.349 . S
C857 C859 1.327 . S
C857 H880 0.950 . S
C858 C857 1.349 . S
C858 C870 1.349 . S
C859 C857 1.327 . S
C859 C875 1.429 . S
C859 H881 0.950 . S
C860 H856 0.949 . S
C860 C868 1.574 1_655 S
C860 C876 1.368 . S
H861 C869 0.950 . S
H862 C867 0.950 . S
H863 C868 0.949 . S
H864 C870 0.950 . S
H865 C871 0.950 . S
H866 C872 0.949 . S
C867 H862 0.950 . S
C867 C869 1.327 . S
C867 C873 1.429 . S
C868 C860 1.574 1_455 S
C868 H863 0.949 . S
C868 C874 1.368 . S
C869 C853 1.349 . S
C869 H861 0.950 . S
C869 C867 1.327 . S
C870 C858 1.349 . S
C870 H864 0.950 . S
C870 C871 1.327 . S
C871 H865 0.950 . S
C871 C870 1.327 . S
C871 C875 1.429 . S
C872 C855 1.574 1_655 S
C872 H866 0.949 . S
C872 C876 1.368 . S
C873 C854 1.429 . S
C873 C867 1.429 . S
C873 C874 1.523 . S
C874 C855 1.368 . S
C874 C868 1.368 . S
C874 C873 1.523 . S
C875 C859 1.429 . S
C875 C871 1.429 . S
C875 C876 1.523 . S
C876 C860 1.368 . S
C876 C872 1.368 . S
C876 C875 1.523 . S
H877 C852 0.950 . S
H878 C854 0.950 . S
H879 C855 0.949 . S
H880 C857 0.950 . S
H881 C859 0.950 . S
C882 C883 1.349 . S
C882 C884 1.327 . S
C882 H907 0.950 . S
C883 C882 1.349 . S
C883 C899 1.349 . S
C884 C882 1.327 . S
C884 C903 1.429 . S
C884 H908 0.950 . S
C885 C902 1.574 1_455 S
C885 C904 1.368 . S
C885 H909 0.949 . S
H886 C890 0.949 . S
C887 C888 1.349 . S
C887 C889 1.327 . S
C887 H910 0.950 . S
C888 C887 1.349 . S
C888 C900 1.349 . S
C889 C887 1.327 . S
C889 C905 1.429 . S
C889 H911 0.950 . S
C890 H886 0.949 . S
C890 C898 1.574 1_655 S
C890 C906 1.368 . S
H891 C899 0.950 . S
H892 C897 0.950 . S
H893 C898 0.949 . S
H894 C900 0.950 . S
H895 C901 0.950 . S
H896 C902 0.949 . S
C897 H892 0.950 . S
C897 C899 1.327 . S
C897 C903 1.429 . S
C898 C890 1.574 1_455 S
C898 H893 0.949 . S
C898 C904 1.368 . S
C899 C883 1.349 . S
C899 H891 0.950 . S
C899 C897 1.327 . S
C900 C888 1.349 . S
C900 H894 0.950 . S
C900 C901 1.327 . S
C901 H895 0.950 . S
C901 C900 1.327 . S
C901 C905 1.429 . S
C902 C885 1.574 1_655 S
C902 H896 0.949 . S
C902 C906 1.368 . S
C903 C884 1.429 . S
C903 C897 1.429 . S
C903 C904 1.523 . S
C904 C885 1.368 . S
C904 C898 1.368 . S
C904 C903 1.523 . S
C905 C889 1.429 . S
C905 C901 1.429 . S
C905 C906 1.523 . S
C906 C890 1.368 . S
C906 C902 1.368 . S
C906 C905 1.523 . S
H907 C882 0.950 . S
H908 C884 0.950 . S
H909 C885 0.949 . S
H910 C887 0.950 . S
H911 C889 0.950 . S
C912 C913 1.349 . S
C912 C914 1.327 . S
C912 H937 0.950 . S
C913 C912 1.349 . S
C913 C929 1.349 . S
C914 C912 1.327 . S
C914 C933 1.429 . S
C914 H938 0.950 . S
C915 C932 1.574 1_565 S
C915 C934 1.368 . S
C915 H939 0.949 . S
H916 C920 0.949 . S
C917 C918 1.349 . S
C917 C919 1.327 . S
C917 H940 0.950 . S
C918 C917 1.349 . S
C918 C930 1.349 . S
C919 C917 1.327 . S
C919 C935 1.429 . S
C919 H941 0.950 . S
C920 H916 0.949 . S
C920 C928 1.574 1_545 S
C920 C936 1.368 . S
H921 C929 0.950 . S
H922 C927 0.950 . S
H923 C928 0.949 . S
H924 C930 0.950 . S
H925 C931 0.950 . S
H926 C932 0.949 . S
C927 H922 0.950 . S
C927 C929 1.327 . S
C927 C933 1.429 . S
C928 C920 1.574 1_565 S
C928 H923 0.949 . S
C928 C934 1.368 . S
C929 C913 1.349 . S
C929 H921 0.950 . S
C929 C927 1.327 . S
C930 C918 1.349 . S
C930 H924 0.950 . S
C930 C931 1.327 . S
C931 H925 0.950 . S
C931 C930 1.327 . S
C931 C935 1.429 . S
C932 C915 1.574 1_545 S
C932 H926 0.949 . S
C932 C936 1.368 . S
C933 C914 1.429 . S
C933 C927 1.429 . S
C933 C934 1.523 . S
C934 C915 1.368 . S
C934 C928 1.368 . S
C934 C933 1.523 . S
C935 C919 1.429 . S
C935 C931 1.429 . S
C935 C936 1.523 . S
C936 C920 1.368 . S
C936 C932 1.368 . S
C936 C935 1.523 . S
H937 C912 0.950 . S
H938 C914 0.950 . S
H939 C915 0.949 . S
H940 C917 0.950 . S
H941 C919 0.950 . S
C942 C943 1.349 . S
C942 C944 1.327 . S
C942 H967 0.950 . S
C943 C942 1.349 . S
C943 C959 1.349 . S
C944 C942 1.327 . S
C944 C963 1.429 . S
C944 H968 0.950 . S
C945 C962 1.574 . S
C945 C964 1.368 . S
C945 H969 0.949 . S
H946 C950 0.949 . S
C947 C948 1.349 . S
C947 C949 1.327 . S
C947 H970 0.950 . S
C948 C947 1.349 . S
C948 C960 1.349 . S
C949 C947 1.327 . S
C949 C965 1.429 . S
C949 H971 0.950 . S
C950 H946 0.949 . S
C950 C958 1.574 . S
C950 C966 1.368 . S
H951 C959 0.950 . S
H952 C957 0.950 . S
H953 C958 0.949 . S
H954 C960 0.950 . S
H955 C961 0.950 . S
H956 C962 0.949 . S
C957 H952 0.950 . S
C957 C959 1.327 . S
C957 C963 1.429 . S
C958 C950 1.574 . S
C958 H953 0.949 . S
C958 C964 1.368 . S
C959 C943 1.349 . S
C959 H951 0.950 . S
C959 C957 1.327 . S
C960 C948 1.349 . S
C960 H954 0.950 . S
C960 C961 1.327 . S
C961 H955 0.950 . S
C961 C960 1.327 . S
C961 C965 1.429 . S
C962 C945 1.574 . S
C962 H956 0.949 . S
C962 C966 1.368 . S
C963 C944 1.429 . S
C963 C957 1.429 . S
C963 C964 1.523 . S
C964 C945 1.368 . S
C964 C958 1.368 . S
C964 C963 1.523 . S
C965 C949 1.429 . S
C965 C961 1.429 . S
C965 C966 1.523 . S
C966 C950 1.368 . S
C966 C962 1.368 . S
C966 C965 1.523 . S
H967 C942 0.950 . S
H968 C944 0.950 . S
H969 C945 0.949 . S
H970 C947 0.950 . S
H971 C949 0.950 . S
C972 C973 1.349 . S
C972 C974 1.327 . S
C972 H997 0.950 . S
C973 C972 1.349 . S
C973 C989 1.349 . S
C974 C972 1.327 . S
C974 C993 1.429 . S
C974 H998 0.950 . S
C975 C992 1.574 1_545 S
C975 C994 1.368 . S
C975 H999 0.949 . S
H976 C980 0.949 . S
C977 C978 1.349 . S
C977 C979 1.327 . S
C977 H1000 0.950 . S
C978 C977 1.349 . S
C978 C990 1.349 . S
C979 C977 1.327 . S
C979 C995 1.429 . S
C979 H1001 0.950 . S
C980 H976 0.949 . S
C980 C988 1.574 1_565 S
C980 C996 1.368 . S
H981 C989 0.950 . S
H982 C987 0.950 . S
H983 C988 0.949 . S
H984 C990 0.950 . S
H985 C991 0.950 . S
H986 C992 0.949 . S
C987 H982 0.950 . S
C987 C989 1.327 . S
C987 C993 1.429 . S
C988 C980 1.574 1_545 S
C988 H983 0.949 . S
C988 C994 1.368 . S
C989 C973 1.349 . S
C989 H981 0.950 . S
C989 C987 1.327 . S
C990 C978 1.349 . S
C990 H984 0.950 . S
C990 C991 1.327 . S
C991 H985 0.950 . S
C991 C990 1.327 . S
C991 C995 1.429 . S
C992 C975 1.574 1_565 S
C992 H986 0.949 . S
C992 C996 1.368 . S
C993 C974 1.429 . S
C993 C987 1.429 . S
C993 C994 1.523 . S
C994 C975 1.368 . S
C994 C988 1.368 . S
C994 C993 1.523 . S
C995 C979 1.429 . S
C995 C991 1.429 . S
C995 C996 1.523 . S
C996 C980 1.368 . S
C996 C992 1.368 . S
C996 C995 1.523 . S
H997 C972 0.950 . S
H998 C974 0.950 . S
H999 C975 0.949 . S
H1000 C977 0.950 . S
H1001 C979 0.950 . S
C1002 C1003 1.349 . S
C1002 C1004 1.327 . S
C1002 H1027 0.950 . S
C1003 C1002 1.349 . S
C1003 C1019 1.349 . S
C1004 C1002 1.327 . S
C1004 C1023 1.429 . S
C1004 H1028 0.950 . S
C1005 C1022 1.574 . S
C1005 C1024 1.368 . S
C1005 H1029 0.949 . S
H1006 C1010 0.949 . S
C1007 C1008 1.349 . S
C1007 C1009 1.327 . S
C1007 H1030 0.950 . S
C1008 C1007 1.349 . S
C1008 C1020 1.349 . S
C1009 C1007 1.327 . S
C1009 C1025 1.429 . S
C1009 H1031 0.950 . S
C1010 H1006 0.949 . S
C1010 C1018 1.574 . S
C1010 C1026 1.368 . S
H1011 C1019 0.950 . S
H1012 C1017 0.950 . S
H1013 C1018 0.949 . S
H1014 C1020 0.950 . S
H1015 C1021 0.950 . S
H1016 C1022 0.949 . S
C1017 H1012 0.950 . S
C1017 C1019 1.327 . S
C1017 C1023 1.429 . S
C1018 C1010 1.574 . S
C1018 H1013 0.949 . S
C1018 C1024 1.368 . S
C1019 C1003 1.349 . S
C1019 H1011 0.950 . S
C1019 C1017 1.327 . S
C1020 C1008 1.349 . S
C1020 H1014 0.950 . S
C1020 C1021 1.327 . S
C1021 H1015 0.950 . S
C1021 C1020 1.327 . S
C1021 C1025 1.429 . S
C1022 C1005 1.574 . S
C1022 H1016 0.949 . S
C1022 C1026 1.368 . S
C1023 C1004 1.429 . S
C1023 C1017 1.429 . S
C1023 C1024 1.523 . S
C1024 C1005 1.368 . S
C1024 C1018 1.368 . S
C1024 C1023 1.523 . S
C1025 C1009 1.429 . S
C1025 C1021 1.429 . S
C1025 C1026 1.523 . S
C1026 C1010 1.368 . S
C1026 C1022 1.368 . S
C1026 C1025 1.523 . S
H1027 C1002 0.950 . S
H1028 C1004 0.950 . S
H1029 C1005 0.949 . S
H1030 C1007 0.950 . S
H1031 C1009 0.950 . S
C1032 C1033 1.349 . S
C1032 C1034 1.327 . S
C1032 H1057 0.950 . S
C1033 C1032 1.349 . S
C1033 C1049 1.349 . S
C1034 C1032 1.327 . S
C1034 C1053 1.429 . S
C1034 H1058 0.950 . S
C1035 C1052 1.574 1_655 S
C1035 C1054 1.368 . S
C1035 H1059 0.949 . S
H1036 C1040 0.949 . S
C1037 C1038 1.349 . S
C1037 C1039 1.327 . S
C1037 H1060 0.950 . S
C1038 C1037 1.349 . S
C1038 C1050 1.349 . S
C1039 C1037 1.327 . S
C1039 C1055 1.429 . S
C1039 H1061 0.950 . S
C1040 H1036 0.949 . S
C1040 C1048 1.574 1_455 S
C1040 C1056 1.368 . S
H1041 C1049 0.950 . S
H1042 C1047 0.950 . S
H1043 C1048 0.949 . S
H1044 C1050 0.950 . S
H1045 C1051 0.950 . S
H1046 C1052 0.949 . S
C1047 H1042 0.950 . S
C1047 C1049 1.327 . S
C1047 C1053 1.429 . S
C1048 C1040 1.574 1_655 S
C1048 H1043 0.949 . S
C1048 C1054 1.368 . S
C1049 C1033 1.349 . S
C1049 H1041 0.950 . S
C1049 C1047 1.327 . S
C1050 C1038 1.349 . S
C1050 H1044 0.950 . S
C1050 C1051 1.327 . S
C1051 H1045 0.950 . S
C1051 C1050 1.327 . S
C1051 C1055 1.429 . S
C1052 C1035 1.574 1_455 S
C1052 H1046 0.949 . S
C1052 C1056 1.368 . S
C1053 C1034 1.429 . S
C1053 C1047 1.429 . S
C1053 C1054 1.523 . S
C1054 C1035 1.368 . S
C1054 C1048 1.368 . S
C1054 C1053 1.523 . S
C1055 C1039 1.429 . S
C1055 C1051 1.429 . S
C1055 C1056 1.523 . S
C1056 C1040 1.368 . S
C1056 C1052 1.368 . S
C1056 C1055 1.523 . S
H1057 C1032 0.950 . S
H1058 C1034 0.950 . S
H1059 C1035 0.949 . S
H1060 C1037 0.950 . S
H1061 C1039 0.950 . S
C1062 C1063 1.349 . S
C1062 C1064 1.327 . S
C1062 H1087 0.950 . S
C1063 C1062 1.349 . S
C1063 C1079 1.349 . S
C1064 C1062 1.327 . S
C1064 C1083 1.429 . S
C1064 H1088 0.950 . S
C1065 C1082 1.574 1_655 S
C1065 C1084 1.368 . S
C1065 H1089 0.949 . S
H1066 C1070 0.949 . S
C1067 C1068 1.349 . S
C1067 C1069 1.327 . S
C1067 H1090 0.950 . S
C1068 C1067 1.349 . S
C1068 C1080 1.349 . S
C1069 C1067 1.327 . S
C1069 C1085 1.429 . S
C1069 H1091 0.950 . S
C1070 H1066 0.949 . S
C1070 C1078 1.574 1_455 S
C1070 C1086 1.368 . S
H1071 C1079 0.950 . S
H1072 C1077 0.950 . S
H1073 C1078 0.949 . S
H1074 C1080 0.950 . S
H1075 C1081 0.950 . S
H1076 C1082 0.949 . S
C1077 H1072 0.950 . S
C1077 C1079 1.327 . S
C1077 C1083 1.429 . S
C1078 C1070 1.574 1_655 S
C1078 H1073 0.949 . S
C1078 C1084 1.368 . S
C1079 C1063 1.349 . S
C1079 H1071 0.950 . S
C1079 C1077 1.327 . S
C1080 C1068 1.349 . S
C1080 H1074 0.950 . S
C1080 C1081 1.327 . S
C1081 H1075 0.950 . S
C1081 C1080 1.327 . S
C1081 C1085 1.429 . S
C1082 C1065 1.574 1_455 S
C1082 H1076 0.949 . S
C1082 C1086 1.368 . S
C1083 C1064 1.429 . S
C1083 C1077 1.429 . S
C1083 C1084 1.523 . S
C1084 C1065 1.368 . S
C1084 C1078 1.368 . S
C1084 C1083 1.523 . S
C1085 C1069 1.429 . S
C1085 C1081 1.429 . S
C1085 C1086 1.523 . S
C1086 C1070 1.368 . S
C1086 C1082 1.368 . S
C1086 C1085 1.523 . S
H1087 C1062 0.950 . S
H1088 C1064 0.950 . S
H1089 C1065 0.949 . S
H1090 C1067 0.950 . S
H1091 C1069 0.950 . S
C1092 C1093 1.349 . S
C1092 C1094 1.327 . S
C1092 H1117 0.950 . S
C1093 C1092 1.349 . S
C1093 C1109 1.349 . S
C1094 C1092 1.327 . S
C1094 C1113 1.429 . S
C1094 H1118 0.950 . S
C1095 C1112 1.574 1_545 S
C1095 C1114 1.368 . S
C1095 H1119 0.949 . S
H1096 C1100 0.949 . S
C1097 C1098 1.349 . S
C1097 C1099 1.327 . S
C1097 H1120 0.950 . S
C1098 C1097 1.349 . S
C1098 C1110 1.349 . S
C1099 C1097 1.327 . S
C1099 C1115 1.429 . S
C1099 H1121 0.950 . S
C1100 H1096 0.949 . S
C1100 C1108 1.574 1_565 S
C1100 C1116 1.368 . S
H1101 C1109 0.950 . S
H1102 C1107 0.950 . S
H1103 C1108 0.949 . S
H1104 C1110 0.950 . S
H1105 C1111 0.950 . S
H1106 C1112 0.949 . S
C1107 H1102 0.950 . S
C1107 C1109 1.327 . S
C1107 C1113 1.429 . S
C1108 C1100 1.574 1_545 S
C1108 H1103 0.949 . S
C1108 C1114 1.368 . S
C1109 C1093 1.349 . S
C1109 H1101 0.950 . S
C1109 C1107 1.327 . S
C1110 C1098 1.349 . S
C1110 H1104 0.950 . S
C1110 C1111 1.327 . S
C1111 H1105 0.950 . S
C1111 C1110 1.327 . S
C1111 C1115 1.429 . S
C1112 C1095 1.574 1_565 S
C1112 H1106 0.949 . S
C1112 C1116 1.368 . S
C1113 C1094 1.429 . S
C1113 C1107 1.429 . S
C1113 C1114 1.523 . S
C1114 C1095 1.368 . S
C1114 C1108 1.368 . S
C1114 C1113 1.523 . S
C1115 C1099 1.429 . S
C1115 C1111 1.429 . S
C1115 C1116 1.523 . S
C1116 C1100 1.368 . S
C1116 C1112 1.368 . S
C1116 C1115 1.523 . S
H1117 C1092 0.950 . S
H1118 C1094 0.950 . S
H1119 C1095 0.949 . S
H1120 C1097 0.950 . S
H1121 C1099 0.950 . S
C1122 C1123 1.349 . S
C1122 C1124 1.327 . S
C1122 H1147 0.950 . S
C1123 C1122 1.349 . S
C1123 C1139 1.349 . S
C1124 C1122 1.327 . S
C1124 C1143 1.429 . S
C1124 H1148 0.950 . S
C1125 C1142 1.574 . S
C1125 C1144 1.368 . S
C1125 H1149 0.949 . S
H1126 C1130 0.949 . S
C1127 C1128 1.349 . S
C1127 C1129 1.327 . S
C1127 H1150 0.950 . S
C1128 C1127 1.349 . S
C1128 C1140 1.349 . S
C1129 C1127 1.327 . S
C1129 C1145 1.429 . S
C1129 H1151 0.950 . S
C1130 H1126 0.949 . S
C1130 C1138 1.574 . S
C1130 C1146 1.368 . S
H1131 C1139 0.950 . S
H1132 C1137 0.950 . S
H1133 C1138 0.949 . S
H1134 C1140 0.950 . S
H1135 C1141 0.950 . S
H1136 C1142 0.949 . S
C1137 H1132 0.950 . S
C1137 C1139 1.327 . S
C1137 C1143 1.429 . S
C1138 C1130 1.574 . S
C1138 H1133 0.949 . S
C1138 C1144 1.368 . S
C1139 C1123 1.349 . S
C1139 H1131 0.950 . S
C1139 C1137 1.327 . S
C1140 C1128 1.349 . S
C1140 H1134 0.950 . S
C1140 C1141 1.327 . S
C1141 H1135 0.950 . S
C1141 C1140 1.327 . S
C1141 C1145 1.429 . S
C1142 C1125 1.574 . S
C1142 H1136 0.949 . S
C1142 C1146 1.368 . S
C1143 C1124 1.429 . S
C1143 C1137 1.429 . S
C1143 C1144 1.523 . S
C1144 C1125 1.368 . S
C1144 C1138 1.368 . S
C1144 C1143 1.523 . S
C1145 C1129 1.429 . S
C1145 C1141 1.429 . S
C1145 C1146 1.523 . S
C1146 C1130 1.368 . S
C1146 C1142 1.368 . S
C1146 C1145 1.523 . S
H1147 C1122 0.950 . S
H1148 C1124 0.950 . S
H1149 C1125 0.949 . S
H1150 C1127 0.950 . S
H1151 C1129 0.950 . S
C1152 C1153 1.349 . S
C1152 C1154 1.327 . S
C1152 H1177 0.950 . S
C1153 C1152 1.349 . S
C1153 C1169 1.349 . S
C1154 C1152 1.327 . S
C1154 C1173 1.429 . S
C1154 H1178 0.950 . S
C1155 C1172 1.574 . S
C1155 C1174 1.368 . S
C1155 H1179 0.949 . S
H1156 C1160 0.949 . S
C1157 C1158 1.349 . S
C1157 C1159 1.327 . S
C1157 H1180 0.950 . S
C1158 C1157 1.349 . S
C1158 C1170 1.349 . S
C1159 C1157 1.327 . S
C1159 C1175 1.429 . S
C1159 H1181 0.950 . S
C1160 H1156 0.949 . S
C1160 C1168 1.574 . S
C1160 C1176 1.368 . S
H1161 C1169 0.950 . S
H1162 C1167 0.950 . S
H1163 C1168 0.949 . S
H1164 C1170 0.950 . S
H1165 C1171 0.950 . S
H1166 C1172 0.949 . S
C1167 H1162 0.950 . S
C1167 C1169 1.327 . S
C1167 C1173 1.429 . S
C1168 C1160 1.574 . S
C1168 H1163 0.949 . S
C1168 C1174 1.368 . S
C1169 C1153 1.349 . S
C1169 H1161 0.950 . S
C1169 C1167 1.327 . S
C1170 C1158 1.349 . S
C1170 H1164 0.950 . S
C1170 C1171 1.327 . S
C1171 H1165 0.950 . S
C1171 C1170 1.327 . S
C1171 C1175 1.429 . S
C1172 C1155 1.574 . S
C1172 H1166 0.949 . S
C1172 C1176 1.368 . S
C1173 C1154 1.429 . S
C1173 C1167 1.429 . S
C1173 C1174 1.523 . S
C1174 C1155 1.368 . S
C1174 C1168 1.368 . S
C1174 C1173 1.523 . S
C1175 C1159 1.429 . S
C1175 C1171 1.429 . S
C1175 C1176 1.523 . S
C1176 C1160 1.368 . S
C1176 C1172 1.368 . S
C1176 C1175 1.523 . S
H1177 C1152 0.950 . S
H1178 C1154 0.950 . S
H1179 C1155 0.949 . S
H1180 C1157 0.950 . S
H1181 C1159 0.950 . S
C1182 C1183 1.349 . S
C1182 C1184 1.327 . S
C1182 H1207 0.950 . S
C1183 C1182 1.349 . S
C1183 C1199 1.349 . S
C1184 C1182 1.327 . S
C1184 C1203 1.429 . S
C1184 H1208 0.950 . S
C1185 C1202 1.574 . S
C1185 C1204 1.368 . S
C1185 H1209 0.949 . S
H1186 C1190 0.949 . S
C1187 C1188 1.349 . S
C1187 C1189 1.327 . S
C1187 H1210 0.950 . S
C1188 C1187 1.349 . S
C1188 C1200 1.349 . S
C1189 C1187 1.327 . S
C1189 C1205 1.429 . S
C1189 H1211 0.950 . S
C1190 H1186 0.949 . S
C1190 C1198 1.574 . S
C1190 C1206 1.368 . S
H1191 C1199 0.950 . S
H1192 C1197 0.950 . S
H1193 C1198 0.949 . S
H1194 C1200 0.950 . S
H1195 C1201 0.950 . S
H1196 C1202 0.949 . S
C1197 H1192 0.950 . S
C1197 C1199 1.327 . S
C1197 C1203 1.429 . S
C1198 C1190 1.574 . S
C1198 H1193 0.949 . S
C1198 C1204 1.368 . S
C1199 C1183 1.349 . S
C1199 H1191 0.950 . S
C1199 C1197 1.327 . S
C1200 C1188 1.349 . S
C1200 H1194 0.950 . S
C1200 C1201 1.327 . S
C1201 H1195 0.950 . S
C1201 C1200 1.327 . S
C1201 C1205 1.429 . S
C1202 C1185 1.574 . S
C1202 H1196 0.949 . S
C1202 C1206 1.368 . S
C1203 C1184 1.429 . S
C1203 C1197 1.429 . S
C1203 C1204 1.523 . S
C1204 C1185 1.368 . S
C1204 C1198 1.368 . S
C1204 C1203 1.523 . S
C1205 C1189 1.429 . S
C1205 C1201 1.429 . S
C1205 C1206 1.523 . S
C1206 C1190 1.368 . S
C1206 C1202 1.368 . S
C1206 C1205 1.523 . S
H1207 C1182 0.950 . S
H1208 C1184 0.950 . S
H1209 C1185 0.949 . S
H1210 C1187 0.950 . S
H1211 C1189 0.950 . S
C1212 C1213 1.349 . S
C1212 C1214 1.327 . S
C1212 H1237 0.950 . S
C1213 C1212 1.349 . S
C1213 C1229 1.349 . S
C1214 C1212 1.327 . S
C1214 C1233 1.429 . S
C1214 H1238 0.950 . S
C1215 C1232 1.574 . S
C1215 C1234 1.368 . S
C1215 H1239 0.949 . S
H1216 C1220 0.949 . S
C1217 C1218 1.349 . S
C1217 C1219 1.327 . S
C1217 H1240 0.950 . S
C1218 C1217 1.349 . S
C1218 C1230 1.349 . S
C1219 C1217 1.327 . S
C1219 C1235 1.429 . S
C1219 H1241 0.950 . S
C1220 H1216 0.949 . S
C1220 C1228 1.574 . S
C1220 C1236 1.368 . S
H1221 C1229 0.950 . S
H1222 C1227 0.950 . S
H1223 C1228 0.949 . S
H1224 C1230 0.950 . S
H1225 C1231 0.950 . S
H1226 C1232 0.949 . S
C1227 H1222 0.950 . S
C1227 C1229 1.327 . S
C1227 C1233 1.429 . S
C1228 C1220 1.574 . S
C1228 H1223 0.949 . S
C1228 C1234 1.368 . S
C1229 C1213 1.349 . S
C1229 H1221 0.950 . S
C1229 C1227 1.327 . S
C1230 C1218 1.349 . S
C1230 H1224 0.950 . S
C1230 C1231 1.327 . S
C1231 H1225 0.950 . S
C1231 C1230 1.327 . S
C1231 C1235 1.429 . S
C1232 C1215 1.574 . S
C1232 H1226 0.949 . S
C1232 C1236 1.368 . S
C1233 C1214 1.429 . S
C1233 C1227 1.429 . S
C1233 C1234 1.523 . S
C1234 C1215 1.368 . S
C1234 C1228 1.368 . S
C1234 C1233 1.523 . S
C1235 C1219 1.429 . S
C1235 C1231 1.429 . S
C1235 C1236 1.523 . S
C1236 C1220 1.368 . S
C1236 C1232 1.368 . S
C1236 C1235 1.523 . S
H1237 C1212 0.950 . S
H1238 C1214 0.950 . S
H1239 C1215 0.949 . S
H1240 C1217 0.950 . S
H1241 C1219 0.950 . S
C1242 C1243 1.349 . S
C1242 C1244 1.327 . S
C1242 H1267 0.950 . S
C1243 C1242 1.349 . S
C1243 C1259 1.349 . S
C1244 C1242 1.327 . S
C1244 C1263 1.429 . S
C1244 H1268 0.950 . S
C1245 C1262 1.574 . S
C1245 C1264 1.368 . S
C1245 H1269 0.949 . S
H1246 C1250 0.949 . S
C1247 C1248 1.349 . S
C1247 C1249 1.327 . S
C1247 H1270 0.950 . S
C1248 C1247 1.349 . S
C1248 C1260 1.349 . S
C1249 C1247 1.327 . S
C1249 C1265 1.429 . S
C1249 H1271 0.950 . S
C1250 H1246 0.949 . S
C1250 C1258 1.574 . S
C1250 C1266 1.368 . S
H1251 C1259 0.950 . S
H1252 C1257 0.950 . S
H1253 C1258 0.949 . S
H1254 C1260 0.950 . S
H1255 C1261 0.950 . S
H1256 C1262 0.949 . S
C1257 H1252 0.950 . S
C1257 C1259 1.327 . S
C1257 C1263 1.429 . S
C1258 C1250 1.574 . S
C1258 H1253 0.949 . S
C1258 C1264 1.368 . S
C1259 C1243 1.349 . S
C1259 H1251 0.950 . S
C1259 C1257 1.327 . S
C1260 C1248 1.349 . S
C1260 H1254 0.950 . S
C1260 C1261 1.327 . S
C1261 H1255 0.950 . S
C1261 C1260 1.327 . S
C1261 C1265 1.429 . S
C1262 C1245 1.574 . S
C1262 H1256 0.949 . S
C1262 C1266 1.368 . S
C1263 C1244 1.429 . S
C1263 C1257 1.429 . S
C1263 C1264 1.523 . S
C1264 C1245 1.368 . S
C1264 C1258 1.368 . S
C1264 C1263 1.523 . S
C1265 C1249 1.429 . S
C1265 C1261 1.429 . S
C1265 C1266 1.523 . S
C1266 C1250 1.368 . S
C1266 C1262 1.368 . S
C1266 C1265 1.523 . S
H1267 C1242 0.950 . S
H1268 C1244 0.950 . S
H1269 C1245 0.949 . S
H1270 C1247 0.950 . S
H1271 C1249 0.950 . S
C1272 C1273 1.349 . S
C1272 C1274 1.327 . S
C1272 H1297 0.950 . S
C1273 C1272 1.349 . S
C1273 C1289 1.349 . S
C1274 C1272 1.327 . S
C1274 C1293 1.429 . S
C1274 H1298 0.950 . S
C1275 C1292 1.574 . S
C1275 C1294 1.368 . S
C1275 H1299 0.949 . S
H1276 C1280 0.949 . S
C1277 C1278 1.349 . S
C1277 C1279 1.327 . S
C1277 H1300 0.950 . S
C1278 C1277 1.349 . S
C1278 C1290 1.349 . S
C1279 C1277 1.327 . S
C1279 C1295 1.429 . S
C1279 H1301 0.950 . S
C1280 H1276 0.949 . S
C1280 C1288 1.574 . S
C1280 C1296 1.368 . S
H1281 C1289 0.950 . S
H1282 C1287 0.950 . S
H1283 C1288 0.949 . S
H1284 C1290 0.950 . S
H1285 C1291 0.950 . S
H1286 C1292 0.949 . S
C1287 H1282 0.950 . S
C1287 C1289 1.327 . S
C1287 C1293 1.429 . S
C1288 C1280 1.574 . S
C1288 H1283 0.949 . S
C1288 C1294 1.368 . S
C1289 C1273 1.349 . S
C1289 H1281 0.950 . S
C1289 C1287 1.327 . S
C1290 C1278 1.349 . S
C1290 H1284 0.950 . S
C1290 C1291 1.327 . S
C1291 H1285 0.950 . S
C1291 C1290 1.327 . S
C1291 C1295 1.429 . S
C1292 C1275 1.574 . S
C1292 H1286 0.949 . S
C1292 C1296 1.368 . S
C1293 C1274 1.429 . S
C1293 C1287 1.429 . S
C1293 C1294 1.523 . S
C1294 C1275 1.368 . S
C1294 C1288 1.368 . S
C1294 C1293 1.523 . S
C1295 C1279 1.429 . S
C1295 C1291 1.429 . S
C1295 C1296 1.523 . S
C1296 C1280 1.368 . S
C1296 C1292 1.368 . S
C1296 C1295 1.523 . S
H1297 C1272 0.950 . S
H1298 C1274 0.950 . S
H1299 C1275 0.949 . S
H1300 C1277 0.950 . S
H1301 C1279 0.950 . S
C1302 C1303 1.349 . S
C1302 C1304 1.327 . S
C1302 H1327 0.950 . S
C1303 C1302 1.349 . S
C1303 C1319 1.349 . S
C1304 C1302 1.327 . S
C1304 C1323 1.429 . S
C1304 H1328 0.950 . S
C1305 C1322 1.574 . S
C1305 C1324 1.368 . S
C1305 H1329 0.949 . S
H1306 C1310 0.949 . S
C1307 C1308 1.349 . S
C1307 C1309 1.327 . S
C1307 H1330 0.950 . S
C1308 C1307 1.349 . S
C1308 C1320 1.349 . S
C1309 C1307 1.327 . S
C1309 C1325 1.429 . S
C1309 H1331 0.950 . S
C1310 H1306 0.949 . S
C1310 C1318 1.574 . S
C1310 C1326 1.368 . S
H1311 C1319 0.950 . S
H1312 C1317 0.950 . S
H1313 C1318 0.949 . S
H1314 C1320 0.950 . S
H1315 C1321 0.950 . S
H1316 C1322 0.949 . S
C1317 H1312 0.950 . S
C1317 C1319 1.327 . S
C1317 C1323 1.429 . S
C1318 C1310 1.574 . S
C1318 H1313 0.949 . S
C1318 C1324 1.368 . S
C1319 C1303 1.349 . S
C1319 H1311 0.950 . S
C1319 C1317 1.327 . S
C1320 C1308 1.349 . S
C1320 H1314 0.950 . S
C1320 C1321 1.327 . S
C1321 H1315 0.950 . S
C1321 C1320 1.327 . S
C1321 C1325 1.429 . S
C1322 C1305 1.574 . S
C1322 H1316 0.949 . S
C1322 C1326 1.368 . S
C1323 C1304 1.429 . S
C1323 C1317 1.429 . S
C1323 C1324 1.523 . S
C1324 C1305 1.368 . S
C1324 C1318 1.368 . S
C1324 C1323 1.523 . S
C1325 C1309 1.429 . S
C1325 C1321 1.429 . S
C1325 C1326 1.523 . S
C1326 C1310 1.368 . S
C1326 C1322 1.368 . S
C1326 C1325 1.523 . S
H1327 C1302 0.950 . S
H1328 C1304 0.950 . S
H1329 C1305 0.949 . S
H1330 C1307 0.950 . S
H1331 C1309 0.950 . S
C1332 C1333 1.349 . S
C1332 C1334 1.327 . S
C1332 H1357 0.950 . S
C1333 C1332 1.349 . S
C1333 C1349 1.349 . S
C1334 C1332 1.327 . S
C1334 C1353 1.429 . S
C1334 H1358 0.950 . S
C1335 C1352 1.574 . S
C1335 C1354 1.368 . S
C1335 H1359 0.949 . S
H1336 C1340 0.949 . S
C1337 C1338 1.349 . S
C1337 C1339 1.327 . S
C1337 H1360 0.950 . S
C1338 C1337 1.349 . S
C1338 C1350 1.349 . S
C1339 C1337 1.327 . S
C1339 C1355 1.429 . S
C1339 H1361 0.950 . S
C1340 H1336 0.949 . S
C1340 C1348 1.574 . S
C1340 C1356 1.368 . S
H1341 C1349 0.950 . S
H1342 C1347 0.950 . S
H1343 C1348 0.949 . S
H1344 C1350 0.950 . S
H1345 C1351 0.950 . S
H1346 C1352 0.949 . S
C1347 H1342 0.950 . S
C1347 C1349 1.327 . S
C1347 C1353 1.429 . S
C1348 C1340 1.574 . S
C1348 H1343 0.949 . S
C1348 C1354 1.368 . S
C1349 C1333 1.349 . S
C1349 H1341 0.950 . S
C1349 C1347 1.327 . S
C1350 C1338 1.349 . S
C1350 H1344 0.950 . S
C1350 C1351 1.327 . S
C1351 H1345 0.950 . S
C1351 C1350 1.327 . S
C1351 C1355 1.429 . S
C1352 C1335 1.574 . S
C1352 H1346 0.949 . S
C1352 C1356 1.368 . S
C1353 C1334 1.429 . S
C1353 C1347 1.429 . S
C1353 C1354 1.523 . S
C1354 C1335 1.368 . S
C1354 C1348 1.368 . S
C1354 C1353 1.523 . S
C1355 C1339 1.429 . S
C1355 C1351 1.429 . S
C1355 C1356 1.523 . S
C1356 C1340 1.368 . S
C1356 C1352 1.368 . S
C1356 C1355 1.523 . S
H1357 C1332 0.950 . S
H1358 C1334 0.950 . S
H1359 C1335 0.949 . S
H1360 C1337 0.950 . S
H1361 C1339 0.950 . S
C1362 C1363 1.349 . S
C1362 C1364 1.327 . S
C1362 H1387 0.950 . S
C1363 C1362 1.349 . S
C1363 C1379 1.349 . S
C1364 C1362 1.327 . S
C1364 C1383 1.429 . S
C1364 H1388 0.950 . S
C1365 C1382 1.574 . S
C1365 C1384 1.368 . S
C1365 H1389 0.949 . S
H1366 C1370 0.949 . S
C1367 C1368 1.349 . S
C1367 C1369 1.327 . S
C1367 H1390 0.950 . S
C1368 C1367 1.349 . S
C1368 C1380 1.349 . S
C1369 C1367 1.327 . S
C1369 C1385 1.429 . S
C1369 H1391 0.950 . S
C1370 H1366 0.949 . S
C1370 C1378 1.574 . S
C1370 C1386 1.368 . S
H1371 C1379 0.950 . S
H1372 C1377 0.950 . S
H1373 C1378 0.949 . S
H1374 C1380 0.950 . S
H1375 C1381 0.950 . S
H1376 C1382 0.949 . S
C1377 H1372 0.950 . S
C1377 C1379 1.327 . S
C1377 C1383 1.429 . S
C1378 C1370 1.574 . S
C1378 H1373 0.949 . S
C1378 C1384 1.368 . S
C1379 C1363 1.349 . S
C1379 H1371 0.950 . S
C1379 C1377 1.327 . S
C1380 C1368 1.349 . S
C1380 H1374 0.950 . S
C1380 C1381 1.327 . S
C1381 H1375 0.950 . S
C1381 C1380 1.327 . S
C1381 C1385 1.429 . S
C1382 C1365 1.574 . S
C1382 H1376 0.949 . S
C1382 C1386 1.368 . S
C1383 C1364 1.429 . S
C1383 C1377 1.429 . S
C1383 C1384 1.523 . S
C1384 C1365 1.368 . S
C1384 C1378 1.368 . S
C1384 C1383 1.523 . S
C1385 C1369 1.429 . S
C1385 C1381 1.429 . S
C1385 C1386 1.523 . S
C1386 C1370 1.368 . S
C1386 C1382 1.368 . S
C1386 C1385 1.523 . S
H1387 C1362 0.950 . S
H1388 C1364 0.950 . S
H1389 C1365 0.949 . S
H1390 C1367 0.950 . S
H1391 C1369 0.950 . S
C1392 C1393 1.349 . S
C1392 C1394 1.327 . S
C1392 H1417 0.950 . S
C1393 C1392 1.349 . S
C1393 C1409 1.349 . S
C1394 C1392 1.327 . S
C1394 C1413 1.429 . S
C1394 H1418 0.950 . S
C1395 C1412 1.574 . S
C1395 C1414 1.368 . S
C1395 H1419 0.949 . S
H1396 C1400 0.949 . S
C1397 C1398 1.349 . S
C1397 C1399 1.327 . S
C1397 H1420 0.950 . S
C1398 C1397 1.349 . S
C1398 C1410 1.349 . S
C1399 C1397 1.327 . S
C1399 C1415 1.429 . S
C1399 H1421 0.950 . S
C1400 H1396 0.949 . S
C1400 C1408 1.574 . S
C1400 C1416 1.368 . S
H1401 C1409 0.950 . S
H1402 C1407 0.950 . S
H1403 C1408 0.949 . S
H1404 C1410 0.950 . S
H1405 C1411 0.950 . S
H1406 C1412 0.949 . S
C1407 H1402 0.950 . S
C1407 C1409 1.327 . S
C1407 C1413 1.429 . S
C1408 C1400 1.574 . S
C1408 H1403 0.949 . S
C1408 C1414 1.368 . S
C1409 C1393 1.349 . S
C1409 H1401 0.950 . S
C1409 C1407 1.327 . S
C1410 C1398 1.349 . S
C1410 H1404 0.950 . S
C1410 C1411 1.327 . S
C1411 H1405 0.950 . S
C1411 C1410 1.327 . S
C1411 C1415 1.429 . S
C1412 C1395 1.574 . S
C1412 H1406 0.949 . S
C1412 C1416 1.368 . S
C1413 C1394 1.429 . S
C1413 C1407 1.429 . S
C1413 C1414 1.523 . S
C1414 C1395 1.368 . S
C1414 C1408 1.368 . S
C1414 C1413 1.523 . S
C1415 C1399 1.429 . S
C1415 C1411 1.429 . S
C1415 C1416 1.523 . S
C1416 C1400 1.368 . S
C1416 C1412 1.368 . S
C1416 C1415 1.523 . S
H1417 C1392 0.950 . S
H1418 C1394 0.950 . S
H1419 C1395 0.949 . S
H1420 C1397 0.950 . S
H1421 C1399 0.950 . S
C1422 C1423 1.349 . S
C1422 C1424 1.327 . S
C1422 H1447 0.950 . S
C1423 C1422 1.349 . S
C1423 C1439 1.349 . S
C1424 C1422 1.327 . S
C1424 C1443 1.429 . S
C1424 H1448 0.950 . S
C1425 C1442 1.574 . S
C1425 C1444 1.368 . S
C1425 H1449 0.949 . S
H1426 C1430 0.949 . S
C1427 C1428 1.349 . S
C1427 C1429 1.327 . S
C1427 H1450 0.950 . S
C1428 C1427 1.349 . S
C1428 C1440 1.349 . S
C1429 C1427 1.327 . S
C1429 C1445 1.429 . S
C1429 H1451 0.950 . S
C1430 H1426 0.949 . S
C1430 C1438 1.574 . S
C1430 C1446 1.368 . S
H1431 C1439 0.950 . S
H1432 C1437 0.950 . S
H1433 C1438 0.949 . S
H1434 C1440 0.950 . S
H1435 C1441 0.950 . S
H1436 C1442 0.949 . S
C1437 H1432 0.950 . S
C1437 C1439 1.327 . S
C1437 C1443 1.429 . S
C1438 C1430 1.574 . S
C1438 H1433 0.949 . S
C1438 C1444 1.368 . S
C1439 C1423 1.349 . S
C1439 H1431 0.950 . S
C1439 C1437 1.327 . S
C1440 C1428 1.349 . S
C1440 H1434 0.950 . S
C1440 C1441 1.327 . S
C1441 H1435 0.950 . S
C1441 C1440 1.327 . S
C1441 C1445 1.429 . S
C1442 C1425 1.574 . S
C1442 H1436 0.949 . S
C1442 C1446 1.368 . S
C1443 C1424 1.429 . S
C1443 C1437 1.429 . S
C1443 C1444 1.523 . S
C1444 C1425 1.368 . S
C1444 C1438 1.368 . S
C1444 C1443 1.523 . S
C1445 C1429 1.429 . S
C1445 C1441 1.429 . S
C1445 C1446 1.523 . S
C1446 C1430 1.368 . S
C1446 C1442 1.368 . S
C1446 C1445 1.523 . S
H1447 C1422 0.950 . S
H1448 C1424 0.950 . S
H1449 C1425 0.949 . S
H1450 C1427 0.950 . S
H1451 C1429 0.950 . S
C1452 C1453 1.349 . S
C1452 C1454 1.327 . S
C1452 H1477 0.950 . S
C1453 C1452 1.349 . S
C1453 C1469 1.349 . S
C1454 C1452 1.327 . S
C1454 C1473 1.429 . S
C1454 H1478 0.950 . S
C1455 C1472 1.574 . S
C1455 C1474 1.368 . S
C1455 H1479 0.949 . S
H1456 C1460 0.949 . S
C1457 C1458 1.349 . S
C1457 C1459 1.327 . S
C1457 H1480 0.950 . S
C1458 C1457 1.349 . S
C1458 C1470 1.349 . S
C1459 C1457 1.327 . S
C1459 C1475 1.429 . S
C1459 H1481 0.950 . S
C1460 H1456 0.949 . S
C1460 C1468 1.574 . S
C1460 C1476 1.368 . S
H1461 C1469 0.950 . S
H1462 C1467 0.950 . S
H1463 C1468 0.949 . S
H1464 C1470 0.950 . S
H1465 C1471 0.950 . S
H1466 C1472 0.949 . S
C1467 H1462 0.950 . S
C1467 C1469 1.327 . S
C1467 C1473 1.429 . S
C1468 C1460 1.574 . S
C1468 H1463 0.949 . S
C1468 C1474 1.368 . S
C1469 C1453 1.349 . S
C1469 H1461 0.950 . S
C1469 C1467 1.327 . S
C1470 C1458 1.349 . S
C1470 H1464 0.950 . S
C1470 C1471 1.327 . S
C1471 H1465 0.950 . S
C1471 C1470 1.327 . S
C1471 C1475 1.429 . S
C1472 C1455 1.574 . S
C1472 H1466 0.949 . S
C1472 C1476 1.368 . S
C1473 C1454 1.429 . S
C1473 C1467 1.429 . S
C1473 C1474 1.523 . S
C1474 C1455 1.368 . S
C1474 C1468 1.368 . S
C1474 C1473 1.523 . S
C1475 C1459 1.429 . S
C1475 C1471 1.429 . S
C1475 C1476 1.523 . S
C1476 C1460 1.368 . S
C1476 C1472 1.368 . S
C1476 C1475 1.523 . S
H1477 C1452 0.950 . S
H1478 C1454 0.950 . S
H1479 C1455 0.949 . S
H1480 C1457 0.950 . S
H1481 C1459 0.950 . S
C1482 C1483 1.349 . S
C1482 C1484 1.327 . S
C1482 H1507 0.950 . S
C1483 C1482 1.349 . S
C1483 C1499 1.349 . S
C1484 C1482 1.327 . S
C1484 C1503 1.429 . S
C1484 H1508 0.950 . S
C1485 C1502 1.574 . S
C1485 C1504 1.368 . S
C1485 H1509 0.949 . S
H1486 C1490 0.949 . S
C1487 C1488 1.349 . S
C1487 C1489 1.327 . S
C1487 H1510 0.950 . S
C1488 C1487 1.349 . S
C1488 C1500 1.349 . S
C1489 C1487 1.327 . S
C1489 C1505 1.429 . S
C1489 H1511 0.950 . S
C1490 H1486 0.949 . S
C1490 C1498 1.574 . S
C1490 C1506 1.368 . S
H1491 C1499 0.950 . S
H1492 C1497 0.950 . S
H1493 C1498 0.949 . S
H1494 C1500 0.950 . S
H1495 C1501 0.950 . S
H1496 C1502 0.949 . S
C1497 H1492 0.950 . S
C1497 C1499 1.327 . S
C1497 C1503 1.429 . S
C1498 C1490 1.574 . S
C1498 H1493 0.949 . S
C1498 C1504 1.368 . S
C1499 C1483 1.349 . S
C1499 H1491 0.950 . S
C1499 C1497 1.327 . S
C1500 C1488 1.349 . S
C1500 H1494 0.950 . S
C1500 C1501 1.327 . S
C1501 H1495 0.950 . S
C1501 C1500 1.327 . S
C1501 C1505 1.429 . S
C1502 C1485 1.574 . S
C1502 H1496 0.949 . S
C1502 C1506 1.368 . S
C1503 C1484 1.429 . S
C1503 C1497 1.429 . S
C1503 C1504 1.523 . S
C1504 C1485 1.368 . S
C1504 C1498 1.368 . S
C1504 C1503 1.523 . S
C1505 C1489 1.429 . S
C1505 C1501 1.429 . S
C1505 C1506 1.523 . S
C1506 C1490 1.368 . S
C1506 C1502 1.368 . S
C1506 C1505 1.523 . S
H1507 C1482 0.950 . S
H1508 C1484 0.950 . S
H1509 C1485 0.949 . S
H1510 C1487 0.950 . S
H1511 C1489 0.950 . S
C1512 C1513 1.349 . S
C1512 C1514 1.327 . S
C1512 H1537 0.950 . S
C1513 C1512 1.349 . S
C1513 C1529 1.349 . S
C1514 C1512 1.327 . S
C1514 C1533 1.429 . S
C1514 H1538 0.950 . S
C1515 C1532 1.574 1_545 S
C1515 C1534 1.368 . S
C1515 H1539 0.949 . S
H1516 C1520 0.949 . S
C1517 C1518 1.349 . S
C1517 C1519 1.327 . S
C1517 H1540 0.950 . S
C1518 C1517 1.349 . S
C1518 C1530 1.349 . S
C1519 C1517 1.327 . S
C1519 C1535 1.429 . S
C1519 H1541 0.950 . S
C1520 H1516 0.949 . S
C1520 C1528 1.574 1_565 S
C1520 C1536 1.368 . S
H1521 C1529 0.950 . S
H1522 C1527 0.950 . S
H1523 C1528 0.956 . S
H1524 C1530 0.950 . S
H1525 C1531 0.950 . S
H1526 C1532 0.956 . S
C1527 H1522 0.950 . S
C1527 C1529 1.327 . S
C1527 C1533 1.429 . S
C1528 C1520 1.574 1_545 S
C1528 H1523 0.956 . S
C1528 C1534 1.368 . S
C1529 C1513 1.349 . S
C1529 H1521 0.950 . S
C1529 C1527 1.327 . S
C1530 C1518 1.349 . S
C1530 H1524 0.950 . S
C1530 C1531 1.327 . S
C1531 H1525 0.950 . S
C1531 C1530 1.327 . S
C1531 C1535 1.429 . S
C1532 C1515 1.574 1_565 S
C1532 H1526 0.956 . S
C1532 C1536 1.368 . S
C1533 C1514 1.429 . S
C1533 C1527 1.429 . S
C1533 C1534 1.523 . S
C1534 C1515 1.368 . S
C1534 C1528 1.368 . S
C1534 C1533 1.523 . S
C1535 C1519 1.429 . S
C1535 C1531 1.429 . S
C1535 C1536 1.523 . S
C1536 C1520 1.368 . S
C1536 C1532 1.368 . S
C1536 C1535 1.523 . S
H1537 C1512 0.950 . S
H1538 C1514 0.950 . S
H1539 C1515 0.949 . S
H1540 C1517 0.950 . S
H1541 C1519 0.950 . S
C1542 C1543 1.349 . S
C1542 C1544 1.327 . S
C1542 H1567 0.950 . S
C1543 C1542 1.349 . S
C1543 C1559 1.349 . S
C1544 C1542 1.327 . S
C1544 C1563 1.429 . S
C1544 H1568 0.950 . S
C1545 C1562 1.574 . S
C1545 C1564 1.368 . S
C1545 H1569 0.949 . S
H1546 C1550 0.949 . S
C1547 C1548 1.349 . S
C1547 C1549 1.327 . S
C1547 H1570 0.950 . S
C1548 C1547 1.349 . S
C1548 C1560 1.349 . S
C1549 C1547 1.327 . S
C1549 C1565 1.429 . S
C1549 H1571 0.950 . S
C1550 H1546 0.949 . S
C1550 C1558 1.574 . S
C1550 C1566 1.368 . S
H1551 C1559 0.950 . S
H1552 C1557 0.950 . S
H1553 C1558 0.949 . S
H1554 C1560 0.950 . S
H1555 C1561 0.950 . S
H1556 C1562 0.949 . S
C1557 H1552 0.950 . S
C1557 C1559 1.327 . S
C1557 C1563 1.429 . S
C1558 C1550 1.574 . S
C1558 H1553 0.949 . S
C1558 C1564 1.368 . S
C1559 C1543 1.349 . S
C1559 H1551 0.950 . S
C1559 C1557 1.327 . S
C1560 C1548 1.349 . S
C1560 H1554 0.950 . S
C1560 C1561 1.327 . S
C1561 H1555 0.950 . S
C1561 C1560 1.327 . S
C1561 C1565 1.429 . S
C1562 C1545 1.574 . S
C1562 H1556 0.949 . S
C1562 C1566 1.368 . S
C1563 C1544 1.429 . S
C1563 C1557 1.429 . S
C1563 C1564 1.523 . S
C1564 C1545 1.368 . S
C1564 C1558 1.368 . S
C1564 C1563 1.523 . S
C1565 C1549 1.429 . S
C1565 C1561 1.429 . S
C1565 C1566 1.523 . S
C1566 C1550 1.368 . S
C1566 C1562 1.368 . S
C1566 C1565 1.523 . S
H1567 C1542 0.950 . S
H1568 C1544 0.950 . S
H1569 C1545 0.949 . S
H1570 C1547 0.950 . S
H1571 C1549 0.950 . S
C1572 C1573 1.349 . S
C1572 C1574 1.327 . S
C1572 H1597 0.950 . S
C1573 C1572 1.349 . S
C1573 C1589 1.349 . S
C1574 C1572 1.327 . S
C1574 C1593 1.429 . S
C1574 H1598 0.950 . S
C1575 C1592 1.595 . S
C1575 C1594 1.368 . S
C1575 H1599 0.949 . S
H1576 C1580 0.949 . S
C1577 C1578 1.349 . S
C1577 C1579 1.327 . S
C1577 H1600 0.950 . S
C1578 C1577 1.349 . S
C1578 C1590 1.349 . S
C1579 C1577 1.327 . S
C1579 C1595 1.429 . S
C1579 H1601 0.950 . S
C1580 H1576 0.949 . S
C1580 C1588 1.595 . S
C1580 C1596 1.368 . S
H1581 C1589 0.950 . S
H1582 C1587 0.950 . S
H1583 C1588 0.948 . S
H1584 C1590 0.950 . S
H1585 C1591 0.950 . S
H1586 C1592 0.948 . S
C1587 H1582 0.950 . S
C1587 C1589 1.327 . S
C1587 C1593 1.429 . S
C1588 C1580 1.595 . S
C1588 H1583 0.948 . S
C1588 C1594 1.354 1_655 S
C1589 C1573 1.349 . S
C1589 H1581 0.950 . S
C1589 C1587 1.327 . S
C1590 C1578 1.349 . S
C1590 H1584 0.950 . S
C1590 C1591 1.327 . S
C1591 H1585 0.950 . S
C1591 C1590 1.327 . S
C1591 C1595 1.429 . S
C1592 C1575 1.595 . S
C1592 H1586 0.948 . S
C1592 C1596 1.354 1_455 S
C1593 C1574 1.429 . S
C1593 C1587 1.429 . S
C1593 C1594 1.523 . S
C1594 C1575 1.368 . S
C1594 C1588 1.354 1_455 S
C1594 C1593 1.523 . S
C1595 C1579 1.429 . S
C1595 C1591 1.429 . S
C1595 C1596 1.523 . S
C1596 C1580 1.368 . S
C1596 C1592 1.354 1_655 S
C1596 C1595 1.523 . S
H1597 C1572 0.950 . S
H1598 C1574 0.950 . S
H1599 C1575 0.949 . S
H1600 C1577 0.950 . S
H1601 C1579 0.950 . S
C1602 C1603 1.349 . S
C1602 C1604 1.327 . S
C1602 H1627 0.950 . S
C1603 C1602 1.349 . S
C1603 C1619 1.349 . S
C1604 C1602 1.327 . S
C1604 C1623 1.429 . S
C1604 H1628 0.950 . S
C1605 C1622 1.574 . S
C1605 C1624 1.368 . S
C1605 H1629 0.949 . S
H1606 C1610 0.949 . S
C1607 C1608 1.349 . S
C1607 C1609 1.327 . S
C1607 H1630 0.950 . S
C1608 C1607 1.349 . S
C1608 C1620 1.349 . S
C1609 C1607 1.327 . S
C1609 C1625 1.429 . S
C1609 H1631 0.950 . S
C1610 H1606 0.949 . S
C1610 C1618 1.574 . S
C1610 C1626 1.368 . S
H1611 C1619 0.950 . S
H1612 C1617 0.950 . S
H1613 C1618 0.949 . S
H1614 C1620 0.950 . S
H1615 C1621 0.950 . S
H1616 C1622 0.949 . S
C1617 H1612 0.950 . S
C1617 C1619 1.327 . S
C1617 C1623 1.429 . S
C1618 C1610 1.574 . S
C1618 H1613 0.949 . S
C1618 C1624 1.368 1_545 S
C1619 C1603 1.349 . S
C1619 H1611 0.950 . S
C1619 C1617 1.327 . S
C1620 C1608 1.349 . S
C1620 H1614 0.950 . S
C1620 C1621 1.327 . S
C1621 H1615 0.950 . S
C1621 C1620 1.327 . S
C1621 C1625 1.429 . S
C1622 C1605 1.574 . S
C1622 H1616 0.949 . S
C1622 C1626 1.368 1_565 S
C1623 C1604 1.429 . S
C1623 C1617 1.429 . S
C1623 C1624 1.523 . S
C1624 C1605 1.368 . S
C1624 C1618 1.368 1_565 S
C1624 C1623 1.523 . S
C1625 C1609 1.429 . S
C1625 C1621 1.429 . S
C1625 C1626 1.523 . S
C1626 C1610 1.368 . S
C1626 C1622 1.368 1_545 S
C1626 C1625 1.523 . S
H1627 C1602 0.950 . S
H1628 C1604 0.950 . S
H1629 C1605 0.949 . S
H1630 C1607 0.950 . S
H1631 C1609 0.950 . S
C1632 C1633 1.349 . S
C1632 C1634 1.327 . S
C1632 H1657 0.950 . S
C1633 C1632 1.349 . S
C1633 C1649 1.349 . S
C1634 C1632 1.327 . S
C1634 C1653 1.429 . S
C1634 H1658 0.950 . S
C1635 C1652 1.574 . S
C1635 C1654 1.368 . S
C1635 H1659 0.949 . S
H1636 C1640 0.949 . S
C1637 C1638 1.349 . S
C1637 C1639 1.327 . S
C1637 H1660 0.950 . S
C1638 C1637 1.349 . S
C1638 C1650 1.349 . S
C1639 C1637 1.327 . S
C1639 C1655 1.429 . S
C1639 H1661 0.950 . S
C1640 H1636 0.949 . S
C1640 C1648 1.574 . S
C1640 C1656 1.368 . S
H1641 C1649 0.950 . S
H1642 C1647 0.950 . S
H1643 C1648 0.949 . S
H1644 C1650 0.950 . S
H1645 C1651 0.950 . S
H1646 C1652 0.949 . S
C1647 H1642 0.950 . S
C1647 C1649 1.327 . S
C1647 C1653 1.429 . S
C1648 C1640 1.574 . S
C1648 H1643 0.949 . S
C1648 C1654 1.368 . S
C1649 C1633 1.349 . S
C1649 H1641 0.950 . S
C1649 C1647 1.327 . S
C1650 C1638 1.349 . S
C1650 H1644 0.950 . S
C1650 C1651 1.327 . S
C1651 H1645 0.950 . S
C1651 C1650 1.327 . S
C1651 C1655 1.429 . S
C1652 C1635 1.574 . S
C1652 H1646 0.949 . S
C1652 C1656 1.368 . S
C1653 C1634 1.429 . S
C1653 C1647 1.429 . S
C1653 C1654 1.523 . S
C1654 C1635 1.368 . S
C1654 C1648 1.368 . S
C1654 C1653 1.523 . S
C1655 C1639 1.429 . S
C1655 C1651 1.429 . S
C1655 C1656 1.523 . S
C1656 C1640 1.368 . S
C1656 C1652 1.368 . S
C1656 C1655 1.523 . S
H1657 C1632 0.950 . S
H1658 C1634 0.950 . S
H1659 C1635 0.949 . S
H1660 C1637 0.950 . S
H1661 C1639 0.950 . S
C1662 C1663 1.349 . S
C1662 C1664 1.327 . S
C1662 H1687 0.950 . S
C1663 C1662 1.349 . S
C1663 C1679 1.349 . S
C1664 C1662 1.327 . S
C1664 C1683 1.429 . S
C1664 H1688 0.950 . S
C1665 C1682 1.574 1_655 S
C1665 C1684 1.368 . S
C1665 H1689 0.949 . S
H1666 C1670 0.949 . S
C1667 C1668 1.349 . S
C1667 C1669 1.327 . S
C1667 H1690 0.950 . S
C1668 C1667 1.349 . S
C1668 C1680 1.349 . S
C1669 C1667 1.327 . S
C1669 C1685 1.429 . S
C1669 H1691 0.950 . S
C1670 H1666 0.949 . S
C1670 C1678 1.574 1_455 S
C1670 C1686 1.368 . S
H1671 C1679 0.950 . S
H1672 C1677 0.950 . S
H1673 C1678 0.949 . S
H1674 C1680 0.950 . S
H1675 C1681 0.950 . S
H1676 C1682 0.949 . S
C1677 H1672 0.950 . S
C1677 C1679 1.327 . S
C1677 C1683 1.429 . S
C1678 C1670 1.574 1_655 S
C1678 H1673 0.949 . S
C1678 C1684 1.368 . S
C1679 C1663 1.349 . S
C1679 H1671 0.950 . S
C1679 C1677 1.327 . S
C1680 C1668 1.349 . S
C1680 H1674 0.950 . S
C1680 C1681 1.327 . S
C1681 H1675 0.950 . S
C1681 C1680 1.327 . S
C1681 C1685 1.429 . S
C1682 C1665 1.574 1_455 S
C1682 H1676 0.949 . S
C1682 C1686 1.368 . S
C1683 C1664 1.429 . S
C1683 C1677 1.429 . S
C1683 C1684 1.523 . S
C1684 C1665 1.368 . S
C1684 C1678 1.368 . S
C1684 C1683 1.523 . S
C1685 C1669 1.429 . S
C1685 C1681 1.429 . S
C1685 C1686 1.523 . S
C1686 C1670 1.368 . S
C1686 C1682 1.368 . S
C1686 C1685 1.523 . S
H1687 C1662 0.950 . S
H1688 C1664 0.950 . S
H1689 C1665 0.949 . S
H1690 C1667 0.950 . S
H1691 C1669 0.950 . S
C1692 C1693 1.349 . S
C1692 C1694 1.327 . S
C1692 H1717 0.950 . S
C1693 C1692 1.349 . S
C1693 C1709 1.349 . S
C1694 C1692 1.327 . S
C1694 C1713 1.429 . S
C1694 H1718 0.950 . S
C1695 C1712 1.610 . S
C1695 C1714 1.342 1_545 S
C1695 H1719 0.951 . S
H1696 C1700 0.951 . S
C1697 C1698 1.349 . S
C1697 C1699 1.327 . S
C1697 H1720 0.950 . S
C1698 C1697 1.349 . S
C1698 C1710 1.349 . S
C1699 C1697 1.327 . S
C1699 C1715 1.429 . S
C1699 H1721 0.950 . S
C1700 H1696 0.951 . S
C1700 C1708 1.610 . S
C1700 C1716 1.343 1_565 S
H1701 C1709 0.950 . S
H1702 C1707 0.950 . S
H1703 C1708 0.949 . S
H1704 C1710 0.950 . S
H1705 C1711 0.950 . S
H1706 C1712 0.949 . S
C1707 H1702 0.950 . S
C1707 C1709 1.327 . S
C1707 C1713 1.429 . S
C1708 C1700 1.610 . S
C1708 H1703 0.949 . S
C1708 C1714 1.368 . S
C1709 C1693 1.349 . S
C1709 H1701 0.950 . S
C1709 C1707 1.327 . S
C1710 C1698 1.349 . S
C1710 H1704 0.950 . S
C1710 C1711 1.327 . S
C1711 H1705 0.950 . S
C1711 C1710 1.327 . S
C1711 C1715 1.429 . S
C1712 C1695 1.610 . S
C1712 H1706 0.949 . S
C1712 C1716 1.368 . S
C1713 C1694 1.429 . S
C1713 C1707 1.429 . S
C1713 C1714 1.523 . S
C1714 C1695 1.342 1_565 S
C1714 C1708 1.368 . S
C1714 C1713 1.523 . S
C1715 C1699 1.429 . S
C1715 C1711 1.429 . S
C1715 C1716 1.523 . S
C1716 C1700 1.343 1_545 S
C1716 C1712 1.368 . S
C1716 C1715 1.523 . S
H1717 C1692 0.950 . S
H1718 C1694 0.950 . S
H1719 C1695 0.951 . S
H1720 C1697 0.950 . S
H1721 C1699 0.950 . S
C1722 C1723 1.349 . S
C1722 C1724 1.327 . S
C1722 H1747 0.950 . S
C1723 C1722 1.349 . S
C1723 C1739 1.349 . S
C1724 C1722 1.327 . S
C1724 C1743 1.429 . S
C1724 H1748 0.950 . S
C1725 C1742 1.574 . S
C1725 C1744 1.368 . S
C1725 H1749 0.949 . S
H1726 C1730 0.949 . S
C1727 C1728 1.349 . S
C1727 C1729 1.327 . S
C1727 H1750 0.950 . S
C1728 C1727 1.349 . S
C1728 C1740 1.349 . S
C1729 C1727 1.327 . S
C1729 C1745 1.429 . S
C1729 H1751 0.950 . S
C1730 H1726 0.949 . S
C1730 C1738 1.574 . S
C1730 C1746 1.368 . S
H1731 C1739 0.950 . S
H1732 C1737 0.950 . S
H1733 C1738 0.949 . S
H1734 C1740 0.950 . S
H1735 C1741 0.950 . S
H1736 C1742 0.949 . S
C1737 H1732 0.950 . S
C1737 C1739 1.327 . S
C1737 C1743 1.429 . S
C1738 C1730 1.574 . S
C1738 H1733 0.949 . S
C1738 C1744 1.368 . S
C1739 C1723 1.349 . S
C1739 H1731 0.950 . S
C1739 C1737 1.327 . S
C1740 C1728 1.349 . S
C1740 H1734 0.950 . S
C1740 C1741 1.327 . S
C1741 H1735 0.950 . S
C1741 C1740 1.327 . S
C1741 C1745 1.429 . S
C1742 C1725 1.574 . S
C1742 H1736 0.949 . S
C1742 C1746 1.368 . S
C1743 C1724 1.429 . S
C1743 C1737 1.429 . S
C1743 C1744 1.523 . S
C1744 C1725 1.368 . S
C1744 C1738 1.368 . S
C1744 C1743 1.523 . S
C1745 C1729 1.429 . S
C1745 C1741 1.429 . S
C1745 C1746 1.523 . S
C1746 C1730 1.368 . S
C1746 C1742 1.368 . S
C1746 C1745 1.523 . S
H1747 C1722 0.950 . S
H1748 C1724 0.950 . S
H1749 C1725 0.949 . S
H1750 C1727 0.950 . S
H1751 C1729 0.950 . S
C1752 C1753 1.349 . S
C1752 C1754 1.327 . S
C1752 H1777 0.950 . S
C1753 C1752 1.349 . S
C1753 C1769 1.349 . S
C1754 C1752 1.327 . S
C1754 C1773 1.429 . S
C1754 H1778 0.950 . S
C1755 C1772 1.574 1_455 S
C1755 C1774 1.368 . S
C1755 H1779 0.949 . S
H1756 C1760 0.949 . S
C1757 C1758 1.349 . S
C1757 C1759 1.327 . S
C1757 H1780 0.950 . S
C1758 C1757 1.349 . S
C1758 C1770 1.349 . S
C1759 C1757 1.327 . S
C1759 C1775 1.429 . S
C1759 H1781 0.950 . S
C1760 H1756 0.949 . S
C1760 C1768 1.574 1_655 S
C1760 C1776 1.368 . S
H1761 C1769 0.950 . S
H1762 C1767 0.950 . S
H1763 C1768 0.949 . S
H1764 C1770 0.950 . S
H1765 C1771 0.950 . S
H1766 C1772 0.949 . S
C1767 H1762 0.950 . S
C1767 C1769 1.327 . S
C1767 C1773 1.429 . S
C1768 C1760 1.574 1_455 S
C1768 H1763 0.949 . S
C1768 C1774 1.368 . S
C1769 C1753 1.349 . S
C1769 H1761 0.950 . S
C1769 C1767 1.327 . S
C1770 C1758 1.349 . S
C1770 H1764 0.950 . S
C1770 C1771 1.327 . S
C1771 H1765 0.950 . S
C1771 C1770 1.327 . S
C1771 C1775 1.429 . S
C1772 C1755 1.574 1_655 S
C1772 H1766 0.949 . S
C1772 C1776 1.368 . S
C1773 C1754 1.429 . S
C1773 C1767 1.429 . S
C1773 C1774 1.523 . S
C1774 C1755 1.368 . S
C1774 C1768 1.368 . S
C1774 C1773 1.523 . S
C1775 C1759 1.429 . S
C1775 C1771 1.429 . S
C1775 C1776 1.523 . S
C1776 C1760 1.368 . S
C1776 C1772 1.368 . S
C1776 C1775 1.523 . S
H1777 C1752 0.950 . S
H1778 C1754 0.950 . S
H1779 C1755 0.949 . S
H1780 C1757 0.950 . S
H1781 C1759 0.950 . S
C1782 C1783 1.349 . S
C1782 C1784 1.327 . S
C1782 H1807 0.950 . S
C1783 C1782 1.349 . S
C1783 C1799 1.349 . S
C1784 C1782 1.327 . S
C1784 C1803 1.429 . S
C1784 H1808 0.950 . S
C1785 C1802 1.574 . S
C1785 C1804 1.368 1_565 S
C1785 H1809 0.949 . S
H1786 C1790 0.949 . S
C1787 C1788 1.349 . S
C1787 C1789 1.327 . S
C1787 H1810 0.950 . S
C1788 C1787 1.349 . S
C1788 C1800 1.349 . S
C1789 C1787 1.327 . S
C1789 C1805 1.429 . S
C1789 H1811 0.950 . S
C1790 H1786 0.949 . S
C1790 C1798 1.574 . S
C1790 C1806 1.368 1_545 S
H1791 C1799 0.950 . S
H1792 C1797 0.950 . S
H1793 C1798 0.949 . S
H1794 C1800 0.950 . S
H1795 C1801 0.950 . S
H1796 C1802 0.949 . S
C1797 H1792 0.950 . S
C1797 C1799 1.327 . S
C1797 C1803 1.429 . S
C1798 C1790 1.574 . S
C1798 H1793 0.949 . S
C1798 C1804 1.368 . S
C1799 C1783 1.349 . S
C1799 H1791 0.950 . S
C1799 C1797 1.327 . S
C1800 C1788 1.349 . S
C1800 H1794 0.950 . S
C1800 C1801 1.327 . S
C1801 H1795 0.950 . S
C1801 C1800 1.327 . S
C1801 C1805 1.429 . S
C1802 C1785 1.574 . S
C1802 H1796 0.949 . S
C1802 C1806 1.368 . S
C1803 C1784 1.429 . S
C1803 C1797 1.429 . S
C1803 C1804 1.523 . S
C1804 C1785 1.368 1_545 S
C1804 C1798 1.368 . S
C1804 C1803 1.523 . S
C1805 C1789 1.429 . S
C1805 C1801 1.429 . S
C1805 C1806 1.523 . S
C1806 C1790 1.368 1_565 S
C1806 C1802 1.368 . S
C1806 C1805 1.523 . S
H1807 C1782 0.950 . S
H1808 C1784 0.950 . S
H1809 C1785 0.949 . S
H1810 C1787 0.950 . S
H1811 C1789 0.950 . S
C1812 C1813 1.349 . S
C1812 C1814 1.327 . S
C1812 H1837 0.950 . S
C1813 C1812 1.349 . S
C1813 C1829 1.349 . S
C1814 C1812 1.327 . S
C1814 C1833 1.429 . S
C1814 H1838 0.950 . S
C1815 C1832 1.574 . S
C1815 C1834 1.368 . S
C1815 H1839 0.949 . S
H1816 C1820 0.949 . S
C1817 C1818 1.349 . S
C1817 C1819 1.327 . S
C1817 H1840 0.950 . S
C1818 C1817 1.349 . S
C1818 C1830 1.349 . S
C1819 C1817 1.327 . S
C1819 C1835 1.429 . S
C1819 H1841 0.950 . S
C1820 H1816 0.949 . S
C1820 C1828 1.574 . S
C1820 C1836 1.368 . S
H1821 C1829 0.950 . S
H1822 C1827 0.950 . S
H1823 C1828 0.949 . S
H1824 C1830 0.950 . S
H1825 C1831 0.950 . S
H1826 C1832 0.949 . S
C1827 H1822 0.950 . S
C1827 C1829 1.327 . S
C1827 C1833 1.429 . S
C1828 C1820 1.574 . S
C1828 H1823 0.949 . S
C1828 C1834 1.368 . S
C1829 C1813 1.349 . S
C1829 H1821 0.950 . S
C1829 C1827 1.327 . S
C1830 C1818 1.349 . S
C1830 H1824 0.950 . S
C1830 C1831 1.327 . S
C1831 H1825 0.950 . S
C1831 C1830 1.327 . S
C1831 C1835 1.429 . S
C1832 C1815 1.574 . S
C1832 H1826 0.949 . S
C1832 C1836 1.368 . S
C1833 C1814 1.429 . S
C1833 C1827 1.429 . S
C1833 C1834 1.523 . S
C1834 C1815 1.368 . S
C1834 C1828 1.368 . S
C1834 C1833 1.523 . S
C1835 C1819 1.429 . S
C1835 C1831 1.429 . S
C1835 C1836 1.523 . S
C1836 C1820 1.368 . S
C1836 C1832 1.368 . S
C1836 C1835 1.523 . S
H1837 C1812 0.950 . S
H1838 C1814 0.950 . S
H1839 C1815 0.949 . S
H1840 C1817 0.950 . S
H1841 C1819 0.950 . S
C1842 C1843 1.349 . S
C1842 C1844 1.327 . S
C1842 H1867 0.950 . S
C1843 C1842 1.349 . S
C1843 C1859 1.349 . S
C1844 C1842 1.327 . S
C1844 C1863 1.429 . S
C1844 H1868 0.950 . S
C1845 C1862 1.574 1_455 S
C1845 C1864 1.368 . S
C1845 H1869 0.949 . S
H1846 C1850 0.949 . S
C1847 C1848 1.349 . S
C1847 C1849 1.327 . S
C1847 H1870 0.950 . S
C1848 C1847 1.349 . S
C1848 C1860 1.349 . S
C1849 C1847 1.327 . S
C1849 C1865 1.429 . S
C1849 H1871 0.950 . S
C1850 H1846 0.949 . S
C1850 C1858 1.574 1_655 S
C1850 C1866 1.368 . S
H1851 C1859 0.950 . S
H1852 C1857 0.950 . S
H1853 C1858 0.949 . S
H1854 C1860 0.950 . S
H1855 C1861 0.950 . S
H1856 C1862 0.949 . S
C1857 H1852 0.950 . S
C1857 C1859 1.327 . S
C1857 C1863 1.429 . S
C1858 C1850 1.574 1_455 S
C1858 H1853 0.949 . S
C1858 C1864 1.368 . S
C1859 C1843 1.349 . S
C1859 H1851 0.950 . S
C1859 C1857 1.327 . S
C1860 C1848 1.349 . S
C1860 H1854 0.950 . S
C1860 C1861 1.327 . S
C1861 H1855 0.950 . S
C1861 C1860 1.327 . S
C1861 C1865 1.429 . S
C1862 C1845 1.574 1_655 S
C1862 H1856 0.949 . S
C1862 C1866 1.368 . S
C1863 C1844 1.429 . S
C1863 C1857 1.429 . S
C1863 C1864 1.523 . S
C1864 C1845 1.368 . S
C1864 C1858 1.368 . S
C1864 C1863 1.523 . S
C1865 C1849 1.429 . S
C1865 C1861 1.429 . S
C1865 C1866 1.523 . S
C1866 C1850 1.368 . S
C1866 C1862 1.368 . S
C1866 C1865 1.523 . S
H1867 C1842 0.950 . S
H1868 C1844 0.950 . S
H1869 C1845 0.949 . S
H1870 C1847 0.950 . S
H1871 C1849 0.950 . S
C1872 C1873 1.349 . S
C1872 C1874 1.327 . S
C1872 H1897 0.950 . S
C1873 C1872 1.349 . S
C1873 C1889 1.349 . S
C1874 C1872 1.327 . S
C1874 C1893 1.429 . S
C1874 H1898 0.950 . S
C1875 C1892 1.574 . S
C1875 C1894 1.368 . S
C1875 H1899 0.949 . S
H1876 C1880 0.949 . S
C1877 C1878 1.349 . S
C1877 C1879 1.327 . S
C1877 H1900 0.950 . S
C1878 C1877 1.349 . S
C1878 C1890 1.349 . S
C1879 C1877 1.327 . S
C1879 C1895 1.429 . S
C1879 H1901 0.950 . S
C1880 H1876 0.949 . S
C1880 C1888 1.574 . S
C1880 C1896 1.368 . S
H1881 C1889 0.950 . S
H1882 C1887 0.950 . S
H1883 C1888 0.949 . S
H1884 C1890 0.950 . S
H1885 C1891 0.950 . S
H1886 C1892 0.949 . S
C1887 H1882 0.950 . S
C1887 C1889 1.327 . S
C1887 C1893 1.429 . S
C1888 C1880 1.574 . S
C1888 H1883 0.949 . S
C1888 C1894 1.368 . S
C1889 C1873 1.349 . S
C1889 H1881 0.950 . S
C1889 C1887 1.327 . S
C1890 C1878 1.349 . S
C1890 H1884 0.950 . S
C1890 C1891 1.327 . S
C1891 H1885 0.950 . S
C1891 C1890 1.327 . S
C1891 C1895 1.429 . S
C1892 C1875 1.574 . S
C1892 H1886 0.949 . S
C1892 C1896 1.368 . S
C1893 C1874 1.429 . S
C1893 C1887 1.429 . S
C1893 C1894 1.523 . S
C1894 C1875 1.368 . S
C1894 C1888 1.368 . S
C1894 C1893 1.523 . S
C1895 C1879 1.429 . S
C1895 C1891 1.429 . S
C1895 C1896 1.523 . S
C1896 C1880 1.368 . S
C1896 C1892 1.368 . S
C1896 C1895 1.523 . S
H1897 C1872 0.950 . S
H1898 C1874 0.950 . S
H1899 C1875 0.949 . S
H1900 C1877 0.950 . S
H1901 C1879 0.950 . S
C1902 C1903 1.349 . S
C1902 C1904 1.327 . S
C1902 H1927 0.950 . S
C1903 C1902 1.349 . S
C1903 C1919 1.349 . S
C1904 C1902 1.327 . S
C1904 C1923 1.429 . S
C1904 H1928 0.950 . S
C1905 C1922 1.574 . S
C1905 C1924 1.368 . S
C1905 H1929 0.949 . S
H1906 C1910 0.949 . S
C1907 C1908 1.349 . S
C1907 C1909 1.327 . S
C1907 H1930 0.950 . S
C1908 C1907 1.349 . S
C1908 C1920 1.349 . S
C1909 C1907 1.327 . S
C1909 C1925 1.429 . S
C1909 H1931 0.950 . S
C1910 H1906 0.949 . S
C1910 C1918 1.574 . S
C1910 C1926 1.368 . S
H1911 C1919 0.950 . S
H1912 C1917 0.950 . S
H1913 C1918 0.949 . S
H1914 C1920 0.950 . S
H1915 C1921 0.950 . S
H1916 C1922 0.949 . S
C1917 H1912 0.950 . S
C1917 C1919 1.327 . S
C1917 C1923 1.429 . S
C1918 C1910 1.574 . S
C1918 H1913 0.949 . S
C1918 C1924 1.368 . S
C1919 C1903 1.349 . S
C1919 H1911 0.950 . S
C1919 C1917 1.327 . S
C1920 C1908 1.349 . S
C1920 H1914 0.950 . S
C1920 C1921 1.327 . S
C1921 H1915 0.950 . S
C1921 C1920 1.327 . S
C1921 C1925 1.429 . S
C1922 C1905 1.574 . S
C1922 H1916 0.949 . S
C1922 C1926 1.368 . S
C1923 C1904 1.429 . S
C1923 C1917 1.429 . S
C1923 C1924 1.523 . S
C1924 C1905 1.368 . S
C1924 C1918 1.368 . S
C1924 C1923 1.523 . S
C1925 C1909 1.429 . S
C1925 C1921 1.429 . S
C1925 C1926 1.523 . S
C1926 C1910 1.368 . S
C1926 C1922 1.368 . S
C1926 C1925 1.523 . S
H1927 C1902 0.950 . S
H1928 C1904 0.950 . S
H1929 C1905 0.949 . S
H1930 C1907 0.950 . S
H1931 C1909 0.950 . S
C1932 C1933 1.349 . S
C1932 C1934 1.327 . S
C1932 H1957 0.950 . S
C1933 C1932 1.349 . S
C1933 C1949 1.349 . S
C1934 C1932 1.327 . S
C1934 C1953 1.429 . S
C1934 H1958 0.950 . S
C1935 C1952 1.574 . S
C1935 C1954 1.368 . S
C1935 H1959 0.949 . S
H1936 C1940 0.949 . S
C1937 C1938 1.349 . S
C1937 C1939 1.327 . S
C1937 H1960 0.950 . S
C1938 C1937 1.349 . S
C1938 C1950 1.349 . S
C1939 C1937 1.327 . S
C1939 C1955 1.429 . S
C1939 H1961 0.950 . S
C1940 H1936 0.949 . S
C1940 C1948 1.574 . S
C1940 C1956 1.368 . S
H1941 C1949 0.950 . S
H1942 C1947 0.950 . S
H1943 C1948 0.949 . S
H1944 C1950 0.950 . S
H1945 C1951 0.950 . S
H1946 C1952 0.949 . S
C1947 H1942 0.950 . S
C1947 C1949 1.327 . S
C1947 C1953 1.429 . S
C1948 C1940 1.574 . S
C1948 H1943 0.949 . S
C1948 C1954 1.368 . S
C1949 C1933 1.349 . S
C1949 H1941 0.950 . S
C1949 C1947 1.327 . S
C1950 C1938 1.349 . S
C1950 H1944 0.950 . S
C1950 C1951 1.327 . S
C1951 H1945 0.950 . S
C1951 C1950 1.327 . S
C1951 C1955 1.429 . S
C1952 C1935 1.574 . S
C1952 H1946 0.949 . S
C1952 C1956 1.368 . S
C1953 C1934 1.429 . S
C1953 C1947 1.429 . S
C1953 C1954 1.523 . S
C1954 C1935 1.368 . S
C1954 C1948 1.368 . S
C1954 C1953 1.523 . S
C1955 C1939 1.429 . S
C1955 C1951 1.429 . S
C1955 C1956 1.523 . S
C1956 C1940 1.368 . S
C1956 C1952 1.368 . S
C1956 C1955 1.523 . S
H1957 C1932 0.950 . S
H1958 C1934 0.950 . S
H1959 C1935 0.949 . S
H1960 C1937 0.950 . S
H1961 C1939 0.950 . S
C1962 C1963 1.349 . S
C1962 C1964 1.327 . S
C1962 H1987 0.950 . S
C1963 C1962 1.349 . S
C1963 C1979 1.349 . S
C1964 C1962 1.327 . S
C1964 C1983 1.429 . S
C1964 H1988 0.950 . S
C1965 C1982 1.574 . S
C1965 C1984 1.368 . S
C1965 H1989 0.949 . S
H1966 C1970 0.949 . S
C1967 C1968 1.349 . S
C1967 C1969 1.327 . S
C1967 H1990 0.950 . S
C1968 C1967 1.349 . S
C1968 C1980 1.349 . S
C1969 C1967 1.327 . S
C1969 C1985 1.429 . S
C1969 H1991 0.950 . S
C1970 H1966 0.949 . S
C1970 C1978 1.574 . S
C1970 C1986 1.368 . S
H1971 C1979 0.950 . S
H1972 C1977 0.950 . S
H1973 C1978 0.949 . S
H1974 C1980 0.950 . S
H1975 C1981 0.950 . S
H1976 C1982 0.949 . S
C1977 H1972 0.950 . S
C1977 C1979 1.327 . S
C1977 C1983 1.429 . S
C1978 C1970 1.574 . S
C1978 H1973 0.949 . S
C1978 C1984 1.368 . S
C1979 C1963 1.349 . S
C1979 H1971 0.950 . S
C1979 C1977 1.327 . S
C1980 C1968 1.349 . S
C1980 H1974 0.950 . S
C1980 C1981 1.327 . S
C1981 H1975 0.950 . S
C1981 C1980 1.327 . S
C1981 C1985 1.429 . S
C1982 C1965 1.574 . S
C1982 H1976 0.949 . S
C1982 C1986 1.368 . S
C1983 C1964 1.429 . S
C1983 C1977 1.429 . S
C1983 C1984 1.523 . S
C1984 C1965 1.368 . S
C1984 C1978 1.368 . S
C1984 C1983 1.523 . S
C1985 C1969 1.429 . S
C1985 C1981 1.429 . S
C1985 C1986 1.523 . S
C1986 C1970 1.368 . S
C1986 C1982 1.368 . S
C1986 C1985 1.523 . S
H1987 C1962 0.950 . S
H1988 C1964 0.950 . S
H1989 C1965 0.949 . S
H1990 C1967 0.950 . S
H1991 C1969 0.950 . S
C1992 C1993 1.349 . S
C1992 C1994 1.327 . S
C1992 H2017 0.950 . S
C1993 C1992 1.349 . S
C1993 C2009 1.349 . S
C1994 C1992 1.327 . S
C1994 C2013 1.429 . S
C1994 H2018 0.950 . S
C1995 C2012 1.574 . S
C1995 C2014 1.368 . S
C1995 H2019 0.949 . S
H1996 C2000 0.949 . S
C1997 C1998 1.349 . S
C1997 C1999 1.327 . S
C1997 H2020 0.950 . S
C1998 C1997 1.349 . S
C1998 C2010 1.349 . S
C1999 C1997 1.327 . S
C1999 C2015 1.429 . S
C1999 H2021 0.950 . S
C2000 H1996 0.949 . S
C2000 C2008 1.574 . S
C2000 C2016 1.368 . S
H2001 C2009 0.950 . S
H2002 C2007 0.950 . S
H2003 C2008 0.949 . S
H2004 C2010 0.950 . S
H2005 C2011 0.950 . S
H2006 C2012 0.949 . S
C2007 H2002 0.950 . S
C2007 C2009 1.327 . S
C2007 C2013 1.429 . S
C2008 C2000 1.574 . S
C2008 H2003 0.949 . S
C2008 C2014 1.368 . S
C2009 C1993 1.349 . S
C2009 H2001 0.950 . S
C2009 C2007 1.327 . S
C2010 C1998 1.349 . S
C2010 H2004 0.950 . S
C2010 C2011 1.327 . S
C2011 H2005 0.950 . S
C2011 C2010 1.327 . S
C2011 C2015 1.429 . S
C2012 C1995 1.574 . S
C2012 H2006 0.949 . S
C2012 C2016 1.368 . S
C2013 C1994 1.429 . S
C2013 C2007 1.429 . S
C2013 C2014 1.523 . S
C2014 C1995 1.368 . S
C2014 C2008 1.368 . S
C2014 C2013 1.523 . S
C2015 C1999 1.429 . S
C2015 C2011 1.429 . S
C2015 C2016 1.523 . S
C2016 C2000 1.368 . S
C2016 C2012 1.368 . S
C2016 C2015 1.523 . S
H2017 C1992 0.950 . S
H2018 C1994 0.950 . S
H2019 C1995 0.949 . S
H2020 C1997 0.950 . S
H2021 C1999 0.950 . S
C2022 C2023 1.349 . S
C2022 C2024 1.327 . S
C2022 H2047 0.950 . S
C2023 C2022 1.349 . S
C2023 C2039 1.349 . S
C2024 C2022 1.327 . S
C2024 C2043 1.429 . S
C2024 H2048 0.950 . S
C2025 C2042 1.574 . S
C2025 C2044 1.368 . S
C2025 H2049 0.949 . S
H2026 C2030 0.949 . S
C2027 C2028 1.349 . S
C2027 C2029 1.327 . S
C2027 H2050 0.950 . S
C2028 C2027 1.349 . S
C2028 C2040 1.349 . S
C2029 C2027 1.327 . S
C2029 C2045 1.429 . S
C2029 H2051 0.950 . S
C2030 H2026 0.949 . S
C2030 C2038 1.574 . S
C2030 C2046 1.368 . S
H2031 C2039 0.950 . S
H2032 C2037 0.950 . S
H2033 C2038 0.949 . S
H2034 C2040 0.950 . S
H2035 C2041 0.950 . S
H2036 C2042 0.949 . S
C2037 H2032 0.950 . S
C2037 C2039 1.327 . S
C2037 C2043 1.429 . S
C2038 C2030 1.574 . S
C2038 H2033 0.949 . S
C2038 C2044 1.368 . S
C2039 C2023 1.349 . S
C2039 H2031 0.950 . S
C2039 C2037 1.327 . S
C2040 C2028 1.349 . S
C2040 H2034 0.950 . S
C2040 C2041 1.327 . S
C2041 H2035 0.950 . S
C2041 C2040 1.327 . S
C2041 C2045 1.429 . S
C2042 C2025 1.574 . S
C2042 H2036 0.949 . S
C2042 C2046 1.368 . S
C2043 C2024 1.429 . S
C2043 C2037 1.429 . S
C2043 C2044 1.523 . S
C2044 C2025 1.368 . S
C2044 C2038 1.368 . S
C2044 C2043 1.523 . S
C2045 C2029 1.429 . S
C2045 C2041 1.429 . S
C2045 C2046 1.523 . S
C2046 C2030 1.368 . S
C2046 C2042 1.368 . S
C2046 C2045 1.523 . S
H2047 C2022 0.950 . S
H2048 C2024 0.950 . S
H2049 C2025 0.949 . S
H2050 C2027 0.950 . S
H2051 C2029 0.950 . S
C2052 C2053 1.349 . S
C2052 C2054 1.327 . S
C2052 H2077 0.950 . S
C2053 C2052 1.349 . S
C2053 C2069 1.349 . S
C2054 C2052 1.327 . S
C2054 C2073 1.429 . S
C2054 H2078 0.950 . S
C2055 C2072 1.574 . S
C2055 C2074 1.368 . S
C2055 H2079 0.949 . S
H2056 C2060 0.949 . S
C2057 C2058 1.349 . S
C2057 C2059 1.327 . S
C2057 H2080 0.950 . S
C2058 C2057 1.349 . S
C2058 C2070 1.349 . S
C2059 C2057 1.327 . S
C2059 C2075 1.429 . S
C2059 H2081 0.950 . S
C2060 H2056 0.949 . S
C2060 C2068 1.574 . S
C2060 C2076 1.368 . S
H2061 C2069 0.950 . S
H2062 C2067 0.950 . S
H2063 C2068 0.949 . S
H2064 C2070 0.950 . S
H2065 C2071 0.950 . S
H2066 C2072 0.949 . S
C2067 H2062 0.950 . S
C2067 C2069 1.327 . S
C2067 C2073 1.429 . S
C2068 C2060 1.574 . S
C2068 H2063 0.949 . S
C2068 C2074 1.368 . S
C2069 C2053 1.349 . S
C2069 H2061 0.950 . S
C2069 C2067 1.327 . S
C2070 C2058 1.349 . S
C2070 H2064 0.950 . S
C2070 C2071 1.327 . S
C2071 H2065 0.950 . S
C2071 C2070 1.327 . S
C2071 C2075 1.429 . S
C2072 C2055 1.574 . S
C2072 H2066 0.949 . S
C2072 C2076 1.368 . S
C2073 C2054 1.429 . S
C2073 C2067 1.429 . S
C2073 C2074 1.523 . S
C2074 C2055 1.368 . S
C2074 C2068 1.368 . S
C2074 C2073 1.523 . S
C2075 C2059 1.429 . S
C2075 C2071 1.429 . S
C2075 C2076 1.523 . S
C2076 C2060 1.368 . S
C2076 C2072 1.368 . S
C2076 C2075 1.523 . S
H2077 C2052 0.950 . S
H2078 C2054 0.950 . S
H2079 C2055 0.949 . S
H2080 C2057 0.950 . S
H2081 C2059 0.950 . S
C2082 C2083 1.349 . S
C2082 C2084 1.327 . S
C2082 H2107 0.950 . S
C2083 C2082 1.349 . S
C2083 C2099 1.349 . S
C2084 C2082 1.327 . S
C2084 C2103 1.429 . S
C2084 H2108 0.950 . S
C2085 C2102 1.574 . S
C2085 C2104 1.368 . S
C2085 H2109 0.949 . S
H2086 C2090 0.949 . S
C2087 C2088 1.349 . S
C2087 C2089 1.327 . S
C2087 H2110 0.950 . S
C2088 C2087 1.349 . S
C2088 C2100 1.349 . S
C2089 C2087 1.327 . S
C2089 C2105 1.429 . S
C2089 H2111 0.950 . S
C2090 H2086 0.949 . S
C2090 C2098 1.574 . S
C2090 C2106 1.368 . S
H2091 C2099 0.950 . S
H2092 C2097 0.950 . S
H2093 C2098 0.949 . S
H2094 C2100 0.950 . S
H2095 C2101 0.950 . S
H2096 C2102 0.949 . S
C2097 H2092 0.950 . S
C2097 C2099 1.327 . S
C2097 C2103 1.429 . S
C2098 C2090 1.574 . S
C2098 H2093 0.949 . S
C2098 C2104 1.368 . S
C2099 C2083 1.349 . S
C2099 H2091 0.950 . S
C2099 C2097 1.327 . S
C2100 C2088 1.349 . S
C2100 H2094 0.950 . S
C2100 C2101 1.327 . S
C2101 H2095 0.950 . S
C2101 C2100 1.327 . S
C2101 C2105 1.429 . S
C2102 C2085 1.574 . S
C2102 H2096 0.949 . S
C2102 C2106 1.368 . S
C2103 C2084 1.429 . S
C2103 C2097 1.429 . S
C2103 C2104 1.523 . S
C2104 C2085 1.368 . S
C2104 C2098 1.368 . S
C2104 C2103 1.523 . S
C2105 C2089 1.429 . S
C2105 C2101 1.429 . S
C2105 C2106 1.523 . S
C2106 C2090 1.368 . S
C2106 C2102 1.368 . S
C2106 C2105 1.523 . S
H2107 C2082 0.950 . S
H2108 C2084 0.950 . S
H2109 C2085 0.949 . S
H2110 C2087 0.950 . S
H2111 C2089 0.950 . S
C2112 C2113 1.349 . S
C2112 C2114 1.327 . S
C2112 H2137 0.950 . S
C2113 C2112 1.349 . S
C2113 C2129 1.349 . S
C2114 C2112 1.327 . S
C2114 C2133 1.429 . S
C2114 H2138 0.950 . S
C2115 C2132 1.574 . S
C2115 C2134 1.368 . S
C2115 H2139 0.949 . S
H2116 C2120 0.949 . S
C2117 C2118 1.349 . S
C2117 C2119 1.327 . S
C2117 H2140 0.950 . S
C2118 C2117 1.349 . S
C2118 C2130 1.349 . S
C2119 C2117 1.327 . S
C2119 C2135 1.429 . S
C2119 H2141 0.950 . S
C2120 H2116 0.949 . S
C2120 C2128 1.574 . S
C2120 C2136 1.368 . S
H2121 C2129 0.950 . S
H2122 C2127 0.950 . S
H2123 C2128 0.949 . S
H2124 C2130 0.950 . S
H2125 C2131 0.950 . S
H2126 C2132 0.949 . S
C2127 H2122 0.950 . S
C2127 C2129 1.327 . S
C2127 C2133 1.429 . S
C2128 C2120 1.574 . S
C2128 H2123 0.949 . S
C2128 C2134 1.368 . S
C2129 C2113 1.349 . S
C2129 H2121 0.950 . S
C2129 C2127 1.327 . S
C2130 C2118 1.349 . S
C2130 H2124 0.950 . S
C2130 C2131 1.327 . S
C2131 H2125 0.950 . S
C2131 C2130 1.327 . S
C2131 C2135 1.429 . S
C2132 C2115 1.574 . S
C2132 H2126 0.949 . S
C2132 C2136 1.368 . S
C2133 C2114 1.429 . S
C2133 C2127 1.429 . S
C2133 C2134 1.523 . S
C2134 C2115 1.368 . S
C2134 C2128 1.368 . S
C2134 C2133 1.523 . S
C2135 C2119 1.429 . S
C2135 C2131 1.429 . S
C2135 C2136 1.523 . S
C2136 C2120 1.368 . S
C2136 C2132 1.368 . S
C2136 C2135 1.523 . S
H2137 C2112 0.950 . S
H2138 C2114 0.950 . S
H2139 C2115 0.949 . S
H2140 C2117 0.950 . S
H2141 C2119 0.950 . S
C2142 C2143 1.349 . S
C2142 C2144 1.327 . S
C2142 H2167 0.950 . S
C2143 C2142 1.349 . S
C2143 C2159 1.349 . S
C2144 C2142 1.327 . S
C2144 C2163 1.429 . S
C2144 H2168 0.950 . S
C2145 C2162 1.574 . S
C2145 C2164 1.368 . S
C2145 H2169 0.949 . S
H2146 C2150 0.949 . S
C2147 C2148 1.349 . S
C2147 C2149 1.327 . S
C2147 H2170 0.950 . S
C2148 C2147 1.349 . S
C2148 C2160 1.349 . S
C2149 C2147 1.327 . S
C2149 C2165 1.429 . S
C2149 H2171 0.950 . S
C2150 H2146 0.949 . S
C2150 C2158 1.574 . S
C2150 C2166 1.368 . S
H2151 C2159 0.950 . S
H2152 C2157 0.950 . S
H2153 C2158 0.949 . S
H2154 C2160 0.950 . S
H2155 C2161 0.950 . S
H2156 C2162 0.949 . S
C2157 H2152 0.950 . S
C2157 C2159 1.327 . S
C2157 C2163 1.429 . S
C2158 C2150 1.574 . S
C2158 H2153 0.949 . S
C2158 C2164 1.368 . S
C2159 C2143 1.349 . S
C2159 H2151 0.950 . S
C2159 C2157 1.327 . S
C2160 C2148 1.349 . S
C2160 H2154 0.950 . S
C2160 C2161 1.327 . S
C2161 H2155 0.950 . S
C2161 C2160 1.327 . S
C2161 C2165 1.429 . S
C2162 C2145 1.574 . S
C2162 H2156 0.949 . S
C2162 C2166 1.368 . S
C2163 C2144 1.429 . S
C2163 C2157 1.429 . S
C2163 C2164 1.523 . S
C2164 C2145 1.368 . S
C2164 C2158 1.368 . S
C2164 C2163 1.523 . S
C2165 C2149 1.429 . S
C2165 C2161 1.429 . S
C2165 C2166 1.523 . S
C2166 C2150 1.368 . S
C2166 C2162 1.368 . S
C2166 C2165 1.523 . S
H2167 C2142 0.950 . S
H2168 C2144 0.950 . S
H2169 C2145 0.949 . S
H2170 C2147 0.950 . S
H2171 C2149 0.950 . S
C2172 C2173 1.349 . S
C2172 C2174 1.327 . S
C2172 H2197 0.950 . S
C2173 C2172 1.349 . S
C2173 C2189 1.349 . S
C2174 C2172 1.327 . S
C2174 C2193 1.429 . S
C2174 H2198 0.950 . S
C2175 C2192 1.574 . S
C2175 C2194 1.368 . S
C2175 H2199 0.949 . S
H2176 C2180 0.949 . S
C2177 C2178 1.349 . S
C2177 C2179 1.327 . S
C2177 H2200 0.950 . S
C2178 C2177 1.349 . S
C2178 C2190 1.349 . S
C2179 C2177 1.327 . S
C2179 C2195 1.429 . S
C2179 H2201 0.950 . S
C2180 H2176 0.949 . S
C2180 C2188 1.574 . S
C2180 C2196 1.368 . S
H2181 C2189 0.950 . S
H2182 C2187 0.950 . S
H2183 C2188 0.949 . S
H2184 C2190 0.950 . S
H2185 C2191 0.950 . S
H2186 C2192 0.949 . S
C2187 H2182 0.950 . S
C2187 C2189 1.327 . S
C2187 C2193 1.429 . S
C2188 C2180 1.574 . S
C2188 H2183 0.949 . S
C2188 C2194 1.368 . S
C2189 C2173 1.349 . S
C2189 H2181 0.950 . S
C2189 C2187 1.327 . S
C2190 C2178 1.349 . S
C2190 H2184 0.950 . S
C2190 C2191 1.327 . S
C2191 H2185 0.950 . S
C2191 C2190 1.327 . S
C2191 C2195 1.429 . S
C2192 C2175 1.574 . S
C2192 H2186 0.949 . S
C2192 C2196 1.368 . S
C2193 C2174 1.429 . S
C2193 C2187 1.429 . S
C2193 C2194 1.523 . S
C2194 C2175 1.368 . S
C2194 C2188 1.368 . S
C2194 C2193 1.523 . S
C2195 C2179 1.429 . S
C2195 C2191 1.429 . S
C2195 C2196 1.523 . S
C2196 C2180 1.368 . S
C2196 C2192 1.368 . S
C2196 C2195 1.523 . S
H2197 C2172 0.950 . S
H2198 C2174 0.950 . S
H2199 C2175 0.949 . S
H2200 C2177 0.950 . S
H2201 C2179 0.950 . S
C2202 C2203 1.349 . S
C2202 C2204 1.327 . S
C2202 H2227 0.950 . S
C2203 C2202 1.349 . S
C2203 C2219 1.349 . S
C2204 C2202 1.327 . S
C2204 C2223 1.429 . S
C2204 H2228 0.950 . S
C2205 C2222 1.574 . S
C2205 C2224 1.368 . S
C2205 H2229 0.949 . S
H2206 C2210 0.949 . S
C2207 C2208 1.349 . S
C2207 C2209 1.327 . S
C2207 H2230 0.950 . S
C2208 C2207 1.349 . S
C2208 C2220 1.349 . S
C2209 C2207 1.327 . S
C2209 C2225 1.429 . S
C2209 H2231 0.950 . S
C2210 H2206 0.949 . S
C2210 C2218 1.574 . S
C2210 C2226 1.368 . S
H2211 C2219 0.950 . S
H2212 C2217 0.950 . S
H2213 C2218 0.949 . S
H2214 C2220 0.950 . S
H2215 C2221 0.950 . S
H2216 C2222 0.949 . S
C2217 H2212 0.950 . S
C2217 C2219 1.327 . S
C2217 C2223 1.429 . S
C2218 C2210 1.574 . S
C2218 H2213 0.949 . S
C2218 C2224 1.368 . S
C2219 C2203 1.349 . S
C2219 H2211 0.950 . S
C2219 C2217 1.327 . S
C2220 C2208 1.349 . S
C2220 H2214 0.950 . S
C2220 C2221 1.327 . S
C2221 H2215 0.950 . S
C2221 C2220 1.327 . S
C2221 C2225 1.429 . S
C2222 C2205 1.574 . S
C2222 H2216 0.949 . S
C2222 C2226 1.368 . S
C2223 C2204 1.429 . S
C2223 C2217 1.429 . S
C2223 C2224 1.523 . S
C2224 C2205 1.368 . S
C2224 C2218 1.368 . S
C2224 C2223 1.523 . S
C2225 C2209 1.429 . S
C2225 C2221 1.429 . S
C2225 C2226 1.523 . S
C2226 C2210 1.368 . S
C2226 C2222 1.368 . S
C2226 C2225 1.523 . S
H2227 C2202 0.950 . S
H2228 C2204 0.950 . S
H2229 C2205 0.949 . S
H2230 C2207 0.950 . S
H2231 C2209 0.950 . S
C2232 C2233 1.349 . S
C2232 C2234 1.327 . S
C2232 H2257 0.950 . S
C2233 C2232 1.349 . S
C2233 C2249 1.349 . S
C2234 C2232 1.327 . S
C2234 C2253 1.429 . S
C2234 H2258 0.950 . S
C2235 C2252 1.574 1_554 S
C2235 C2254 1.368 . S
C2235 H2259 0.949 . S
H2236 C2240 0.949 . S
C2237 C2238 1.349 . S
C2237 C2239 1.327 . S
C2237 H2260 0.950 . S
C2238 C2237 1.349 . S
C2238 C2250 1.349 . S
C2239 C2237 1.327 . S
C2239 C2255 1.429 . S
C2239 H2261 0.950 . S
C2240 H2236 0.949 . S
C2240 C2248 1.574 1_556 S
C2240 C2256 1.368 . S
H2241 C2249 0.950 . S
H2242 C2247 0.950 . S
H2243 C2248 0.949 . S
H2244 C2250 0.950 . S
H2245 C2251 0.950 . S
H2246 C2252 0.949 . S
C2247 H2242 0.950 . S
C2247 C2249 1.327 . S
C2247 C2253 1.429 . S
C2248 C2240 1.574 1_554 S
C2248 H2243 0.949 . S
C2248 C2254 1.368 . S
C2249 C2233 1.349 . S
C2249 H2241 0.950 . S
C2249 C2247 1.327 . S
C2250 C2238 1.349 . S
C2250 H2244 0.950 . S
C2250 C2251 1.327 . S
C2251 H2245 0.950 . S
C2251 C2250 1.327 . S
C2251 C2255 1.429 . S
C2252 C2235 1.574 1_556 S
C2252 H2246 0.949 . S
C2252 C2256 1.368 . S
C2253 C2234 1.429 . S
C2253 C2247 1.429 . S
C2253 C2254 1.523 . S
C2254 C2235 1.368 . S
C2254 C2248 1.368 . S
C2254 C2253 1.523 . S
C2255 C2239 1.429 . S
C2255 C2251 1.429 . S
C2255 C2256 1.523 . S
C2256 C2240 1.368 . S
C2256 C2252 1.368 . S
C2256 C2255 1.523 . S
H2257 C2232 0.950 . S
H2258 C2234 0.950 . S
H2259 C2235 0.949 . S
H2260 C2237 0.950 . S
H2261 C2239 0.950 . S
C2262 C2263 1.349 . S
C2262 C2264 1.327 . S
C2262 H2287 0.950 . S
C2263 C2262 1.349 . S
C2263 C2279 1.349 . S
C2264 C2262 1.327 . S
C2264 C2283 1.429 . S
C2264 H2288 0.950 . S
C2265 C2282 1.574 1_554 S
C2265 C2284 1.368 . S
C2265 H2289 0.949 . S
H2266 C2270 0.949 . S
C2267 C2268 1.349 . S
C2267 C2269 1.327 . S
C2267 H2290 0.950 . S
C2268 C2267 1.349 . S
C2268 C2280 1.349 . S
C2269 C2267 1.327 . S
C2269 C2285 1.429 . S
C2269 H2291 0.950 . S
C2270 H2266 0.949 . S
C2270 C2278 1.574 1_556 S
C2270 C2286 1.368 . S
H2271 C2279 0.950 . S
H2272 C2277 0.950 . S
H2273 C2278 0.949 . S
H2274 C2280 0.950 . S
H2275 C2281 0.950 . S
H2276 C2282 0.949 . S
C2277 H2272 0.950 . S
C2277 C2279 1.327 . S
C2277 C2283 1.429 . S
C2278 C2270 1.574 1_554 S
C2278 H2273 0.949 . S
C2278 C2284 1.368 . S
C2279 C2263 1.349 . S
C2279 H2271 0.950 . S
C2279 C2277 1.327 . S
C2280 C2268 1.349 . S
C2280 H2274 0.950 . S
C2280 C2281 1.327 . S
C2281 H2275 0.950 . S
C2281 C2280 1.327 . S
C2281 C2285 1.429 . S
C2282 C2265 1.574 1_556 S
C2282 H2276 0.949 . S
C2282 C2286 1.368 . S
C2283 C2264 1.429 . S
C2283 C2277 1.429 . S
C2283 C2284 1.523 . S
C2284 C2265 1.368 . S
C2284 C2278 1.368 . S
C2284 C2283 1.523 . S
C2285 C2269 1.429 . S
C2285 C2281 1.429 . S
C2285 C2286 1.523 . S
C2286 C2270 1.368 . S
C2286 C2282 1.368 . S
C2286 C2285 1.523 . S
H2287 C2262 0.950 . S
H2288 C2264 0.950 . S
H2289 C2265 0.949 . S
H2290 C2267 0.950 . S
H2291 C2269 0.950 . S
C2292 C2293 1.349 . S
C2292 C2294 1.327 . S
C2292 H2317 0.950 . S
C2293 C2292 1.349 . S
C2293 C2309 1.349 . S
C2294 C2292 1.327 . S
C2294 C2313 1.429 . S
C2294 H2318 0.950 . S
C2295 C2312 1.574 1_554 S
C2295 C2314 1.368 . S
C2295 H2319 0.949 . S
H2296 C2300 0.949 . S
C2297 C2298 1.349 . S
C2297 C2299 1.327 . S
C2297 H2320 0.950 . S
C2298 C2297 1.349 . S
C2298 C2310 1.349 . S
C2299 C2297 1.327 . S
C2299 C2315 1.429 . S
C2299 H2321 0.950 . S
C2300 H2296 0.949 . S
C2300 C2308 1.574 1_556 S
C2300 C2316 1.368 . S
H2301 C2309 0.950 . S
H2302 C2307 0.950 . S
H2303 C2308 0.949 . S
H2304 C2310 0.950 . S
H2305 C2311 0.950 . S
H2306 C2312 0.949 . S
C2307 H2302 0.950 . S
C2307 C2309 1.327 . S
C2307 C2313 1.429 . S
C2308 C2300 1.574 1_554 S
C2308 H2303 0.949 . S
C2308 C2314 1.368 . S
C2309 C2293 1.349 . S
C2309 H2301 0.950 . S
C2309 C2307 1.327 . S
C2310 C2298 1.349 . S
C2310 H2304 0.950 . S
C2310 C2311 1.327 . S
C2311 H2305 0.950 . S
C2311 C2310 1.327 . S
C2311 C2315 1.429 . S
C2312 C2295 1.574 1_556 S
C2312 H2306 0.949 . S
C2312 C2316 1.368 . S
C2313 C2294 1.429 . S
C2313 C2307 1.429 . S
C2313 C2314 1.523 . S
C2314 C2295 1.368 . S
C2314 C2308 1.368 . S
C2314 C2313 1.523 . S
C2315 C2299 1.429 . S
C2315 C2311 1.429 . S
C2315 C2316 1.523 . S
C2316 C2300 1.368 . S
C2316 C2312 1.368 . S
C2316 C2315 1.523 . S
H2317 C2292 0.950 . S
H2318 C2294 0.950 . S
H2319 C2295 0.949 . S
H2320 C2297 0.950 . S
H2321 C2299 0.950 . S
C2322 C2323 1.349 . S
C2322 C2324 1.327 . S
C2322 H2347 0.950 . S
C2323 C2322 1.349 . S
C2323 C2339 1.349 . S
C2324 C2322 1.327 . S
C2324 C2343 1.429 . S
C2324 H2348 0.950 . S
C2325 C2342 1.574 1_554 S
C2325 C2344 1.368 . S
C2325 H2349 0.949 . S
H2326 C2330 0.949 . S
C2327 C2328 1.349 . S
C2327 C2329 1.327 . S
C2327 H2350 0.950 . S
C2328 C2327 1.349 . S
C2328 C2340 1.349 . S
C2329 C2327 1.327 . S
C2329 C2345 1.429 . S
C2329 H2351 0.950 . S
C2330 H2326 0.949 . S
C2330 C2338 1.574 1_556 S
C2330 C2346 1.368 . S
H2331 C2339 0.950 . S
H2332 C2337 0.950 . S
H2333 C2338 0.949 . S
H2334 C2340 0.950 . S
H2335 C2341 0.950 . S
H2336 C2342 0.949 . S
C2337 H2332 0.950 . S
C2337 C2339 1.327 . S
C2337 C2343 1.429 . S
C2338 C2330 1.574 1_554 S
C2338 H2333 0.949 . S
C2338 C2344 1.368 . S
C2339 C2323 1.349 . S
C2339 H2331 0.950 . S
C2339 C2337 1.327 . S
C2340 C2328 1.349 . S
C2340 H2334 0.950 . S
C2340 C2341 1.327 . S
C2341 H2335 0.950 . S
C2341 C2340 1.327 . S
C2341 C2345 1.429 . S
C2342 C2325 1.574 1_556 S
C2342 H2336 0.949 . S
C2342 C2346 1.368 . S
C2343 C2324 1.429 . S
C2343 C2337 1.429 . S
C2343 C2344 1.523 . S
C2344 C2325 1.368 . S
C2344 C2338 1.368 . S
C2344 C2343 1.523 . S
C2345 C2329 1.429 . S
C2345 C2341 1.429 . S
C2345 C2346 1.523 . S
C2346 C2330 1.368 . S
C2346 C2342 1.368 . S
C2346 C2345 1.523 . S
H2347 C2322 0.950 . S
H2348 C2324 0.950 . S
H2349 C2325 0.949 . S
H2350 C2327 0.950 . S
H2351 C2329 0.950 . S
C2352 C2353 1.349 . S
C2352 C2354 1.327 . S
C2352 H2377 0.950 . S
C2353 C2352 1.349 . S
C2353 C2369 1.349 . S
C2354 C2352 1.327 . S
C2354 C2373 1.429 . S
C2354 H2378 0.950 . S
C2355 C2372 1.574 1_554 S
C2355 C2374 1.368 . S
C2355 H2379 0.949 . S
H2356 C2360 0.949 . S
C2357 C2358 1.349 . S
C2357 C2359 1.327 . S
C2357 H2380 0.950 . S
C2358 C2357 1.349 . S
C2358 C2370 1.349 . S
C2359 C2357 1.327 . S
C2359 C2375 1.429 . S
C2359 H2381 0.950 . S
C2360 H2356 0.949 . S
C2360 C2368 1.574 1_556 S
C2360 C2376 1.368 . S
H2361 C2369 0.950 . S
H2362 C2367 0.950 . S
H2363 C2368 0.949 . S
H2364 C2370 0.950 . S
H2365 C2371 0.950 . S
H2366 C2372 0.949 . S
C2367 H2362 0.950 . S
C2367 C2369 1.327 . S
C2367 C2373 1.429 . S
C2368 C2360 1.574 1_554 S
C2368 H2363 0.949 . S
C2368 C2374 1.368 . S
C2369 C2353 1.349 . S
C2369 H2361 0.950 . S
C2369 C2367 1.327 . S
C2370 C2358 1.349 . S
C2370 H2364 0.950 . S
C2370 C2371 1.327 . S
C2371 H2365 0.950 . S
C2371 C2370 1.327 . S
C2371 C2375 1.429 . S
C2372 C2355 1.574 1_556 S
C2372 H2366 0.949 . S
C2372 C2376 1.368 . S
C2373 C2354 1.429 . S
C2373 C2367 1.429 . S
C2373 C2374 1.523 . S
C2374 C2355 1.368 . S
C2374 C2368 1.368 . S
C2374 C2373 1.523 . S
C2375 C2359 1.429 . S
C2375 C2371 1.429 . S
C2375 C2376 1.523 . S
C2376 C2360 1.368 . S
C2376 C2372 1.368 . S
C2376 C2375 1.523 . S
H2377 C2352 0.950 . S
H2378 C2354 0.950 . S
H2379 C2355 0.949 . S
H2380 C2357 0.950 . S
H2381 C2359 0.950 . S
C2382 C2383 1.349 . S
C2382 C2384 1.327 . S
C2382 H2407 0.950 . S
C2383 C2382 1.349 . S
C2383 C2399 1.349 . S
C2384 C2382 1.327 . S
C2384 C2403 1.429 . S
C2384 H2408 0.950 . S
C2385 C2402 1.574 1_556 S
C2385 C2404 1.368 . S
C2385 H2409 0.949 . S
H2386 C2390 0.949 . S
C2387 C2388 1.349 . S
C2387 C2389 1.327 . S
C2387 H2410 0.950 . S
C2388 C2387 1.349 . S
C2388 C2400 1.349 . S
C2389 C2387 1.327 . S
C2389 C2405 1.429 . S
C2389 H2411 0.950 . S
C2390 H2386 0.949 . S
C2390 C2398 1.574 1_554 S
C2390 C2406 1.368 . S
H2391 C2399 0.950 . S
H2392 C2397 0.950 . S
H2393 C2398 0.949 . S
H2394 C2400 0.950 . S
H2395 C2401 0.950 . S
H2396 C2402 0.949 . S
C2397 H2392 0.950 . S
C2397 C2399 1.327 . S
C2397 C2403 1.429 . S
C2398 C2390 1.574 1_556 S
C2398 H2393 0.949 . S
C2398 C2404 1.368 . S
C2399 C2383 1.349 . S
C2399 H2391 0.950 . S
C2399 C2397 1.327 . S
C2400 C2388 1.349 . S
C2400 H2394 0.950 . S
C2400 C2401 1.327 . S
C2401 H2395 0.950 . S
C2401 C2400 1.327 . S
C2401 C2405 1.429 . S
C2402 C2385 1.574 1_554 S
C2402 H2396 0.949 . S
C2402 C2406 1.368 . S
C2403 C2384 1.429 . S
C2403 C2397 1.429 . S
C2403 C2404 1.523 . S
C2404 C2385 1.368 . S
C2404 C2398 1.368 . S
C2404 C2403 1.523 . S
C2405 C2389 1.429 . S
C2405 C2401 1.429 . S
C2405 C2406 1.523 . S
C2406 C2390 1.368 . S
C2406 C2402 1.368 . S
C2406 C2405 1.523 . S
H2407 C2382 0.950 . S
H2408 C2384 0.950 . S
H2409 C2385 0.949 . S
H2410 C2387 0.950 . S
H2411 C2389 0.950 . S
C2412 C2413 1.349 . S
C2412 C2414 1.327 . S
C2412 H2437 0.950 . S
C2413 C2412 1.349 . S
C2413 C2429 1.349 . S
C2414 C2412 1.327 . S
C2414 C2433 1.429 . S
C2414 H2438 0.950 . S
C2415 C2432 1.574 . S
C2415 C2434 1.368 . S
C2415 H2439 0.949 . S
H2416 C2420 0.949 . S
C2417 C2418 1.349 . S
C2417 C2419 1.327 . S
C2417 H2440 0.950 . S
C2418 C2417 1.349 . S
C2418 C2430 1.349 . S
C2419 C2417 1.327 . S
C2419 C2435 1.429 . S
C2419 H2441 0.950 . S
C2420 H2416 0.949 . S
C2420 C2428 1.574 . S
C2420 C2436 1.368 . S
H2421 C2429 0.950 . S
H2422 C2427 0.950 . S
H2423 C2428 0.949 . S
H2424 C2430 0.950 . S
H2425 C2431 0.950 . S
H2426 C2432 0.949 . S
C2427 H2422 0.950 . S
C2427 C2429 1.327 . S
C2427 C2433 1.429 . S
C2428 C2420 1.574 . S
C2428 H2423 0.949 . S
C2428 C2434 1.368 . S
C2429 C2413 1.349 . S
C2429 H2421 0.950 . S
C2429 C2427 1.327 . S
C2430 C2418 1.349 . S
C2430 H2424 0.950 . S
C2430 C2431 1.327 . S
C2431 H2425 0.950 . S
C2431 C2430 1.327 . S
C2431 C2435 1.429 . S
C2432 C2415 1.574 . S
C2432 H2426 0.949 . S
C2432 C2436 1.368 . S
C2433 C2414 1.429 . S
C2433 C2427 1.429 . S
C2433 C2434 1.523 . S
C2434 C2415 1.368 . S
C2434 C2428 1.368 . S
C2434 C2433 1.523 . S
C2435 C2419 1.429 . S
C2435 C2431 1.429 . S
C2435 C2436 1.523 . S
C2436 C2420 1.368 . S
C2436 C2432 1.368 . S
C2436 C2435 1.523 . S
H2437 C2412 0.950 . S
H2438 C2414 0.950 . S
H2439 C2415 0.949 . S
H2440 C2417 0.950 . S
H2441 C2419 0.950 . S
C2442 C2443 1.349 . S
C2442 C2444 1.327 . S
C2442 H2467 0.950 . S
C2443 C2442 1.349 . S
C2443 C2459 1.349 . S
C2444 C2442 1.327 . S
C2444 C2463 1.429 . S
C2444 H2468 0.950 . S
C2445 C2462 1.574 . S
C2445 C2464 1.368 . S
C2445 H2469 0.949 . S
H2446 C2450 0.949 . S
C2447 C2448 1.349 . S
C2447 C2449 1.327 . S
C2447 H2470 0.950 . S
C2448 C2447 1.349 . S
C2448 C2460 1.349 . S
C2449 C2447 1.327 . S
C2449 C2465 1.429 . S
C2449 H2471 0.950 . S
C2450 H2446 0.949 . S
C2450 C2458 1.574 . S
C2450 C2466 1.368 . S
H2451 C2459 0.950 . S
H2452 C2457 0.950 . S
H2453 C2458 0.949 . S
H2454 C2460 0.950 . S
H2455 C2461 0.950 . S
H2456 C2462 0.949 . S
C2457 H2452 0.950 . S
C2457 C2459 1.327 . S
C2457 C2463 1.429 . S
C2458 C2450 1.574 . S
C2458 H2453 0.949 . S
C2458 C2464 1.368 . S
C2459 C2443 1.349 . S
C2459 H2451 0.950 . S
C2459 C2457 1.327 . S
C2460 C2448 1.349 . S
C2460 H2454 0.950 . S
C2460 C2461 1.327 . S
C2461 H2455 0.950 . S
C2461 C2460 1.327 . S
C2461 C2465 1.429 . S
C2462 C2445 1.574 . S
C2462 H2456 0.949 . S
C2462 C2466 1.368 . S
C2463 C2444 1.429 . S
C2463 C2457 1.429 . S
C2463 C2464 1.523 . S
C2464 C2445 1.368 . S
C2464 C2458 1.368 . S
C2464 C2463 1.523 . S
C2465 C2449 1.429 . S
C2465 C2461 1.429 . S
C2465 C2466 1.523 . S
C2466 C2450 1.368 . S
C2466 C2462 1.368 . S
C2466 C2465 1.523 . S
H2467 C2442 0.950 . S
H2468 C2444 0.950 . S
H2469 C2445 0.949 . S
H2470 C2447 0.950 . S
H2471 C2449 0.950 . S
C2472 C2473 1.349 . S
C2472 C2474 1.327 . S
C2472 H2497 0.950 . S
C2473 C2472 1.349 . S
C2473 C2489 1.349 . S
C2474 C2472 1.327 . S
C2474 C2493 1.429 . S
C2474 H2498 0.950 . S
C2475 C2492 1.574 . S
C2475 C2494 1.368 . S
C2475 H2499 0.949 . S
H2476 C2480 0.949 . S
C2477 C2478 1.349 . S
C2477 C2479 1.327 . S
C2477 H2500 0.950 . S
C2478 C2477 1.349 . S
C2478 C2490 1.349 . S
C2479 C2477 1.327 . S
C2479 C2495 1.429 . S
C2479 H2501 0.950 . S
C2480 H2476 0.949 . S
C2480 C2488 1.574 . S
C2480 C2496 1.368 . S
H2481 C2489 0.950 . S
H2482 C2487 0.950 . S
H2483 C2488 0.949 . S
H2484 C2490 0.950 . S
H2485 C2491 0.950 . S
H2486 C2492 0.949 . S
C2487 H2482 0.950 . S
C2487 C2489 1.327 . S
C2487 C2493 1.429 . S
C2488 C2480 1.574 . S
C2488 H2483 0.949 . S
C2488 C2494 1.368 . S
C2489 C2473 1.349 . S
C2489 H2481 0.950 . S
C2489 C2487 1.327 . S
C2490 C2478 1.349 . S
C2490 H2484 0.950 . S
C2490 C2491 1.327 . S
C2491 H2485 0.950 . S
C2491 C2490 1.327 . S
C2491 C2495 1.429 . S
C2492 C2475 1.574 . S
C2492 H2486 0.949 . S
C2492 C2496 1.368 . S
C2493 C2474 1.429 . S
C2493 C2487 1.429 . S
C2493 C2494 1.523 . S
C2494 C2475 1.368 . S
C2494 C2488 1.368 . S
C2494 C2493 1.523 . S
C2495 C2479 1.429 . S
C2495 C2491 1.429 . S
C2495 C2496 1.523 . S
C2496 C2480 1.368 . S
C2496 C2492 1.368 . S
C2496 C2495 1.523 . S
H2497 C2472 0.950 . S
H2498 C2474 0.950 . S
H2499 C2475 0.949 . S
H2500 C2477 0.950 . S
H2501 C2479 0.950 . S
C2502 C2503 1.349 . S
C2502 C2504 1.327 . S
C2502 H2527 0.950 . S
C2503 C2502 1.349 . S
C2503 C2519 1.349 . S
C2504 C2502 1.327 . S
C2504 C2523 1.429 . S
C2504 H2528 0.950 . S
C2505 C2522 1.574 . S
C2505 C2524 1.368 . S
C2505 H2529 0.949 . S
H2506 C2510 0.949 . S
C2507 C2508 1.349 . S
C2507 C2509 1.327 . S
C2507 H2530 0.950 . S
C2508 C2507 1.349 . S
C2508 C2520 1.349 . S
C2509 C2507 1.327 . S
C2509 C2525 1.429 . S
C2509 H2531 0.950 . S
C2510 H2506 0.949 . S
C2510 C2518 1.574 . S
C2510 C2526 1.368 . S
H2511 C2519 0.950 . S
H2512 C2517 0.950 . S
H2513 C2518 0.949 . S
H2514 C2520 0.950 . S
H2515 C2521 0.950 . S
H2516 C2522 0.949 . S
C2517 H2512 0.950 . S
C2517 C2519 1.327 . S
C2517 C2523 1.429 . S
C2518 C2510 1.574 . S
C2518 H2513 0.949 . S
C2518 C2524 1.368 . S
C2519 C2503 1.349 . S
C2519 H2511 0.950 . S
C2519 C2517 1.327 . S
C2520 C2508 1.349 . S
C2520 H2514 0.950 . S
C2520 C2521 1.327 . S
C2521 H2515 0.950 . S
C2521 C2520 1.327 . S
C2521 C2525 1.429 . S
C2522 C2505 1.574 . S
C2522 H2516 0.949 . S
C2522 C2526 1.368 . S
C2523 C2504 1.429 . S
C2523 C2517 1.429 . S
C2523 C2524 1.523 . S
C2524 C2505 1.368 . S
C2524 C2518 1.368 . S
C2524 C2523 1.523 . S
C2525 C2509 1.429 . S
C2525 C2521 1.429 . S
C2525 C2526 1.523 . S
C2526 C2510 1.368 . S
C2526 C2522 1.368 . S
C2526 C2525 1.523 . S
H2527 C2502 0.950 . S
H2528 C2504 0.950 . S
H2529 C2505 0.949 . S
H2530 C2507 0.950 . S
H2531 C2509 0.950 . S
C2532 C2533 1.349 . S
C2532 C2534 1.327 . S
C2532 H2557 0.950 . S
C2533 C2532 1.349 . S
C2533 C2549 1.349 . S
C2534 C2532 1.327 . S
C2534 C2553 1.429 . S
C2534 H2558 0.950 . S
C2535 C2552 1.574 . S
C2535 C2554 1.368 . S
C2535 H2559 0.949 . S
H2536 C2540 0.949 . S
C2537 C2538 1.349 . S
C2537 C2539 1.327 . S
C2537 H2560 0.950 . S
C2538 C2537 1.349 . S
C2538 C2550 1.349 . S
C2539 C2537 1.327 . S
C2539 C2555 1.429 . S
C2539 H2561 0.950 . S
C2540 H2536 0.949 . S
C2540 C2548 1.574 . S
C2540 C2556 1.368 . S
H2541 C2549 0.950 . S
H2542 C2547 0.950 . S
H2543 C2548 0.949 . S
H2544 C2550 0.950 . S
H2545 C2551 0.950 . S
H2546 C2552 0.949 . S
C2547 H2542 0.950 . S
C2547 C2549 1.327 . S
C2547 C2553 1.429 . S
C2548 C2540 1.574 . S
C2548 H2543 0.949 . S
C2548 C2554 1.368 . S
C2549 C2533 1.349 . S
C2549 H2541 0.950 . S
C2549 C2547 1.327 . S
C2550 C2538 1.349 . S
C2550 H2544 0.950 . S
C2550 C2551 1.327 . S
C2551 H2545 0.950 . S
C2551 C2550 1.327 . S
C2551 C2555 1.429 . S
C2552 C2535 1.574 . S
C2552 H2546 0.949 . S
C2552 C2556 1.368 . S
C2553 C2534 1.429 . S
C2553 C2547 1.429 . S
C2553 C2554 1.523 . S
C2554 C2535 1.368 . S
C2554 C2548 1.368 . S
C2554 C2553 1.523 . S
C2555 C2539 1.429 . S
C2555 C2551 1.429 . S
C2555 C2556 1.523 . S
C2556 C2540 1.368 . S
C2556 C2552 1.368 . S
C2556 C2555 1.523 . S
H2557 C2532 0.950 . S
H2558 C2534 0.950 . S
H2559 C2535 0.949 . S
H2560 C2537 0.950 . S
H2561 C2539 0.950 . S
C2562 C2563 1.349 . S
C2562 C2564 1.327 . S
C2562 H2587 0.950 . S
C2563 C2562 1.349 . S
C2563 C2579 1.349 . S
C2564 C2562 1.327 . S
C2564 C2583 1.429 . S
C2564 H2588 0.950 . S
C2565 C2582 1.574 . S
C2565 C2584 1.368 . S
C2565 H2589 0.949 . S
H2566 C2570 0.949 . S
C2567 C2568 1.349 . S
C2567 C2569 1.327 . S
C2567 H2590 0.950 . S
C2568 C2567 1.349 . S
C2568 C2580 1.349 . S
C2569 C2567 1.327 . S
C2569 C2585 1.429 . S
C2569 H2591 0.950 . S
C2570 H2566 0.949 . S
C2570 C2578 1.574 . S
C2570 C2586 1.368 . S
H2571 C2579 0.950 . S
H2572 C2577 0.950 . S
H2573 C2578 0.949 . S
H2574 C2580 0.950 . S
H2575 C2581 0.950 . S
H2576 C2582 0.949 . S
C2577 H2572 0.950 . S
C2577 C2579 1.327 . S
C2577 C2583 1.429 . S
C2578 C2570 1.574 . S
C2578 H2573 0.949 . S
C2578 C2584 1.368 . S
C2579 C2563 1.349 . S
C2579 H2571 0.950 . S
C2579 C2577 1.327 . S
C2580 C2568 1.349 . S
C2580 H2574 0.950 . S
C2580 C2581 1.327 . S
C2581 H2575 0.950 . S
C2581 C2580 1.327 . S
C2581 C2585 1.429 . S
C2582 C2565 1.574 . S
C2582 H2576 0.949 . S
C2582 C2586 1.368 . S
C2583 C2564 1.429 . S
C2583 C2577 1.429 . S
C2583 C2584 1.523 . S
C2584 C2565 1.368 . S
C2584 C2578 1.368 . S
C2584 C2583 1.523 . S
C2585 C2569 1.429 . S
C2585 C2581 1.429 . S
C2585 C2586 1.523 . S
C2586 C2570 1.368 . S
C2586 C2582 1.368 . S
C2586 C2585 1.523 . S
H2587 C2562 0.950 . S
H2588 C2564 0.950 . S
H2589 C2565 0.949 . S
H2590 C2567 0.950 . S
H2591 C2569 0.950 . S
C793 N13 0.692 . S
C798 N112 0.692 . S
C823 N145 0.692 . S
C828 N46 0.692 . S
C853 N178 0.692 . S
C858 N79 0.692 . S
C883 N310 0.692 . S
C888 N211 0.692 . S
C913 N244 0.692 . S
C918 N343 0.692 . S
C943 N277 0.692 . S
C948 N376 0.692 . S
C973 N508 0.692 . S
C978 N409 0.692 . S
C1003 N541 0.692 . S
C1008 N442 0.692 . S
C1033 N574 0.692 . S
C1038 N475 0.692 . S
C1063 N706 0.692 . S
C1068 N607 0.692 . S
C1093 N640 0.692 . S
C1098 N739 0.692 . S
C1123 N772 0.692 . S
C1128 N673 0.692 . S
C1153 N266 1.782 . S
C1158 N2 1.782 . S
C1183 N35 1.782 . S
C1188 N299 1.782 . S
C1213 N68 1.782 . S
C1218 N332 1.782 . S
C1243 N101 1.782 . S
C1248 N365 1.782 . S
C1273 N134 1.782 . S
C1278 N200 1.782 . S
C1303 N233 1.782 . S
C1308 N167 1.782 . S
C1333 N398 1.782 . S
C1338 N662 1.782 . S
C1363 N695 1.782 . S
C1368 N431 1.782 . S
C1393 N728 1.782 . S
C1398 N464 1.782 . S
C1423 N497 1.782 . S
C1428 N761 1.782 . S
C1453 N596 1.782 . S
C1458 N530 1.782 . S
C1483 N629 1.782 . S
C1488 N563 1.782 . S
C1513 C21 0.427 . S
C1518 C252 0.427 . S
C1543 C54 0.427 . S
C1548 C285 0.427 . S
C1573 C318 0.427 . S
C1578 C87 0.427 . S
C1603 C120 0.427 . S
C1608 C351 0.427 . S
C1633 C384 0.427 . S
C1638 C153 0.427 . S
C1663 C219 0.427 . S
C1668 C186 0.427 . S
C1693 C417 0.427 . S
C1698 C648 0.427 . S
C1723 C450 0.427 . S
C1728 C681 0.427 . S
C1753 C483 0.427 . S
C1758 C714 0.427 . S
C1783 C516 0.427 . S
C1788 C747 0.427 . S
C1813 C549 0.427 . S
C1818 C780 0.427 . S
C1843 C615 0.427 . S
C1848 C582 0.427 . S
C1873 C7 0.639 . S
C1878 C337 0.639 . S
C1903 C370 0.639 . S
C1908 C40 0.639 . S
C1933 C205 0.639 . S
C1938 C73 0.639 . S
C1963 C238 0.639 . S
C1968 C106 0.639 . S
C1993 C139 0.639 . S
C1998 C271 0.639 . S
C2023 C172 0.639 . S
C2028 C304 0.639 . S
C2053 C403 0.639 . S
C2058 C733 0.639 . S
C2083 C766 0.639 . S
C2088 C436 0.639 . S
C2113 C601 0.639 . S
C2118 C469 0.639 . S
C2143 C502 0.639 . S
C2148 C634 0.639 . S
C2173 C535 0.639 . S
C2178 C667 0.639 . S
C2203 C700 0.639 . S
C2208 C568 0.639 . S
C2233 C18 1.079 . S
C2238 C513 1.079 . S
C2263 C51 1.079 . S
C2268 C546 1.079 . S
C2293 C84 1.079 . S
C2298 C579 1.079 . S
C2323 C117 1.079 . S
C2328 C414 1.079 . S
C2353 C150 1.079 . S
C2358 C447 1.079 . S
C2383 C480 1.079 . S
C2388 C183 1.079 . S
C2413 C216 1.079 . S
C2418 C711 1.079 . S
C2443 C249 1.079 . S
C2448 C744 1.079 . S
C2473 C282 1.079 . S
C2478 C777 1.079 . S
C2503 C315 1.079 . S
C2508 C612 1.079 . S
C2533 C348 1.079 . S
C2538 C645 1.079 . S
C2563 C678 1.079 . S
C2568 C381 1.079 . S
