# Generated by pormake.
# Topology bcu-i, (5)-cn, num edge types: 1
# Building blocks:
#     Node 0, Type 0, BuildingBlock: BEQFEK_clean_sbu_0, # of connection points: 5
#     Node 1, Type 0, BuildingBlock: BEQFEK_clean_sbu_0, # of connection points: 5
#     Node 2, Type 0, BuildingBlock: BEQFEK_clean_sbu_0, # of connection points: 5
#     Node 3, Type 0, BuildingBlock: BEQFEK_clean_sbu_0, # of connection points: 5
#     Node 4, Type 0, BuildingBlock: BEQFEK_clean_sbu_0, # of connection points: 5
#     Node 5, Type 0, BuildingBlock: BEQFEK_clean_sbu_0, # of connection points: 5
#     Node 6, Type 0, BuildingBlock: BEQFEK_clean_sbu_0, # of connection points: 5
#     Node 7, Type 0, BuildingBlock: BEQFEK_clean_sbu_0, # of connection points: 5
#     Node 8, Type 0, BuildingBlock: BEQFEK_clean_sbu_0, # of connection points: 5
#     Node 9, Type 0, BuildingBlock: BEQFEK_clean_sbu_0, # of connection points: 5
#     Node 10, Type 0, BuildingBlock: BEQFEK_clean_sbu_0, # of connection points: 5
#     Node 11, Type 0, BuildingBlock: BEQFEK_clean_sbu_0, # of connection points: 5
#     Node 12, Type 0, BuildingBlock: BEQFEK_clean_sbu_0, # of connection points: 5
#     Node 13, Type 0, BuildingBlock: BEQFEK_clean_sbu_0, # of connection points: 5
#     Node 14, Type 0, BuildingBlock: BEQFEK_clean_sbu_0, # of connection points: 5
#     Node 15, Type 0, BuildingBlock: BEQFEK_clean_sbu_0, # of connection points: 5
#     Edge 16, Type (0, 0), BuildingBlock: EZIPEK_clean_linker_0, # of connection points: 2
#     Edge 17, Type (0, 0), BuildingBlock: EZIPEK_clean_linker_0, # of connection points: 2
#     Edge 18, Type (0, 0), BuildingBlock: EZIPEK_clean_linker_0, # of connection points: 2
#     Edge 19, Type (0, 0), BuildingBlock: EZIPEK_clean_linker_0, # of connection points: 2
#     Edge 20, Type (0, 0), BuildingBlock: EZIPEK_clean_linker_0, # of connection points: 2
#     Edge 21, Type (0, 0), BuildingBlock: EZIPEK_clean_linker_0, # of connection points: 2
#     Edge 22, Type (0, 0), BuildingBlock: EZIPEK_clean_linker_0, # of connection points: 2
#     Edge 23, Type (0, 0), BuildingBlock: EZIPEK_clean_linker_0, # of connection points: 2
#     Edge 24, Type (0, 0), BuildingBlock: EZIPEK_clean_linker_0, # of connection points: 2
#     Edge 25, Type (0, 0), BuildingBlock: EZIPEK_clean_linker_0, # of connection points: 2
#     Edge 26, Type (0, 0), BuildingBlock: EZIPEK_clean_linker_0, # of connection points: 2
#     Edge 27, Type (0, 0), BuildingBlock: EZIPEK_clean_linker_0, # of connection points: 2
#     Edge 28, Type (0, 0), BuildingBlock: EZIPEK_clean_linker_0, # of connection points: 2
#     Edge 29, Type (0, 0), BuildingBlock: EZIPEK_clean_linker_0, # of connection points: 2
#     Edge 30, Type (0, 0), BuildingBlock: EZIPEK_clean_linker_0, # of connection points: 2
#     Edge 31, Type (0, 0), BuildingBlock: EZIPEK_clean_linker_0, # of connection points: 2
#     Edge 32, Type (0, 0), BuildingBlock: EZIPEK_clean_linker_0, # of connection points: 2
#     Edge 33, Type (0, 0), BuildingBlock: EZIPEK_clean_linker_0, # of connection points: 2
#     Edge 34, Type (0, 0), BuildingBlock: EZIPEK_clean_linker_0, # of connection points: 2
#     Edge 35, Type (0, 0), BuildingBlock: EZIPEK_clean_linker_0, # of connection points: 2
#     Edge 36, Type (0, 0), BuildingBlock: EZIPEK_clean_linker_0, # of connection points: 2
#     Edge 37, Type (0, 0), BuildingBlock: EZIPEK_clean_linker_0, # of connection points: 2
#     Edge 38, Type (0, 0), BuildingBlock: EZIPEK_clean_linker_0, # of connection points: 2
#     Edge 39, Type (0, 0), BuildingBlock: EZIPEK_clean_linker_0, # of connection points: 2
#     Edge 40, Type (0, 0), BuildingBlock: EZIPEK_clean_linker_0, # of connection points: 2
#     Edge 41, Type (0, 0), BuildingBlock: EZIPEK_clean_linker_0, # of connection points: 2
#     Edge 42, Type (0, 0), BuildingBlock: EZIPEK_clean_linker_0, # of connection points: 2
#     Edge 43, Type (0, 0), BuildingBlock: EZIPEK_clean_linker_0, # of connection points: 2
#     Edge 44, Type (0, 0), BuildingBlock: EZIPEK_clean_linker_0, # of connection points: 2
#     Edge 45, Type (0, 0), BuildingBlock: EZIPEK_clean_linker_0, # of connection points: 2
#     Edge 46, Type (0, 0), BuildingBlock: EZIPEK_clean_linker_0, # of connection points: 2
#     Edge 47, Type (0, 0), BuildingBlock: EZIPEK_clean_linker_0, # of connection points: 2
#     Edge 48, Type (0, 0), BuildingBlock: EZIPEK_clean_linker_0, # of connection points: 2
#     Edge 49, Type (0, 0), BuildingBlock: EZIPEK_clean_linker_0, # of connection points: 2
#     Edge 50, Type (0, 0), BuildingBlock: EZIPEK_clean_linker_0, # of connection points: 2
#     Edge 51, Type (0, 0), BuildingBlock: EZIPEK_clean_linker_0, # of connection points: 2
#     Edge 52, Type (0, 0), BuildingBlock: EZIPEK_clean_linker_0, # of connection points: 2
#     Edge 53, Type (0, 0), BuildingBlock: EZIPEK_clean_linker_0, # of connection points: 2
#     Edge 54, Type (0, 0), BuildingBlock: EZIPEK_clean_linker_0, # of connection points: 2
#     Edge 55, Type (0, 0), BuildingBlock: EZIPEK_clean_linker_0, # of connection points: 2
# Relax obj value: 0.910
# Max RMSD: 0.185
# Mean RMSD: 0.185
data_MOF--net-bcu-i--node1-BEQFEK_clean_sbu_0--edge1-EZIPEK_clean_linker_0
_symmetry_space_group_name_H-M    P1
_symmetry_Int_Tables_number       1
_symmetry_cell_setting            triclinic
loop_
_symmetry_equiv_pos_as_xyz
'x, y, z'
_cell_length_a     36.33549
_cell_length_b     36.353353
_cell_length_c     27.272346
_cell_angle_alpha  90.009906
_cell_angle_beta   89.781783
_cell_angle_gamma 89.943404
loop_
_atom_site_label
_atom_site_type_symbol
_atom_site_fract_x
_atom_site_fract_y
_atom_site_fract_z
_atom_type_partial_charge
Co0 Co 0.22214 0.13542 0.32071 0.0
Co1 Co 0.2208 0.0718 0.24387 0.0
C2 C 0.16136 0.13033 0.24986 0.0
O3 O 0.17742 0.14681 0.28473 0.0
O4 O 0.17494 0.10144 0.23045 0.0
C5 C 0.2102 0.19942 0.38311 0.0
O6 O 0.19744 0.21666 0.34444 0.0
C7 C 0.19015 0.00212 0.21298 0.0
C8 C 0.22858 0.98304 0.15545 0.0
C9 C 0.19777 0.97275 0.18235 0.0
N10 N 0.21586 0.02809 0.20599 0.0
N11 N 0.23839 0.01691 0.17083 0.0
C12 C 0.15946 0.0049 0.24965 0.0
H13 H 0.16306 0.02907 0.27392 0.0
H14 H 0.15773 0.97931 0.27172 0.0
H15 H 0.133 0.00797 0.22993 0.0
C16 C 0.22415 0.07334 0.38891 0.0
N17 N 0.22075 0.08657 0.34317 0.0
N18 N 0.22363 0.05936 0.31153 0.0
C19 C 0.23087 0.02805 0.33642 0.0
C20 C 0.2306 0.03602 0.38611 0.0
C21 C 0.22477 0.09639 0.43437 0.0
H22 H 0.20011 0.11419 0.43523 0.0
H23 H 0.22509 0.07929 0.46807 0.0
H24 H 0.24959 0.11414 0.4339 0.0
O25 O 0.26741 0.14212 0.28262 0.0
O26 O 0.26813 0.09668 0.22779 0.0
H27 H 0.2627 0.97807 0.33762 0.0
H28 H 0.21848 0.97426 0.30944 0.0
C29 C 0.24269 0.99247 0.31365 0.0
H30 H 0.25536 -0.0027 0.27719 0.0
H31 H 0.2611 0.03185 0.15845 0.0
O32 O 0.22306 0.16712 0.37889 0.0
C33 C 0.28309 0.12455 0.24794 0.0
Co34 Co 0.83809 0.20055 0.33138 0.0
Co35 Co 0.9097 0.21184 0.26757 0.0
C36 C 0.85111 0.154 0.24537 0.0
O37 O 0.82984 0.16383 0.28021 0.0
O38 O 0.88182 0.16995 0.23725 0.0
C39 C 0.78647 0.22914 0.40195 0.0
O40 O 0.79079 0.2603 0.37849 0.0
C41 C 0.9817 0.18184 0.24076 0.0
C42 C 0.01277 0.231 0.21748 0.0
C43 C 0.01661 0.19373 0.22709 0.0
N44 N 0.95862 0.21081 0.24044 0.0
N45 N 0.97721 0.23999 0.22543 0.0
C46 C 0.97084 0.14413 0.25734 0.0
H47 H 0.94718 0.1345 0.23523 0.0
H48 H 0.96172 0.14529 0.29619 0.0
H49 H 0.99388 0.12427 0.25352 0.0
C50 C 0.89099 0.18485 0.40686 0.0
N51 N 0.88345 0.19109 0.35948 0.0
N52 N 0.91293 0.20365 0.33687 0.0
C53 C 0.93949 0.20865 0.37067 0.0
C54 C 0.92636 0.19637 0.41555 0.0
C55 C 0.86365 0.17244 0.44452 0.0
H56 H 0.84987 0.19679 0.46067 0.0
H57 H 0.84278 0.15421 0.42761 0.0
H58 H 0.87758 0.15746 0.47467 0.0
O59 O 0.84002 0.25118 0.30749 0.0
O60 O 0.8859 0.26038 0.25566 0.0
H61 H 0.96819 0.25947 0.3778 0.0
H62 H 0.99658 0.21958 0.38439 0.0
C63 C 0.97331 0.2314 0.36332 0.0
H64 H 0.98051 0.23399 0.32418 0.0
H65 H 0.96612 0.26643 0.22316 0.0
O66 O 0.80075 0.1997 0.38509 0.0
C67 C 0.85787 0.27224 0.27901 0.0
Co68 Co 0.79485 0.85779 0.33985 0.0
Co69 Co 0.78348 0.91038 0.25421 0.0
C70 C 0.83611 0.84648 0.24947 0.0
O71 O 0.82102 0.83278 0.28725 0.0
O72 O 0.82609 0.87793 0.23354 0.0
C73 C 0.79503 0.79788 0.4097 0.0
O74 O 0.78677 0.77532 0.37378 0.0
C75 C 0.8112 0.97413 0.20428 0.0
C76 C 0.76091 0.00764 0.19721 0.0
C77 C 0.79903 0.01001 0.1971 0.0
N78 N 0.7818 0.95248 0.21221 0.0
N79 N 0.75175 0.97229 0.2055 0.0
C80 C 0.85017 0.96112 0.20914 0.0
H81 H 0.85529 0.93898 0.18194 0.0
H82 H 0.85441 0.94895 0.24601 0.0
H83 H 0.87007 0.9838 0.20287 0.0
C84 C 0.81257 0.92305 0.39243 0.0
N85 N 0.80896 0.90645 0.34876 0.0
N86 N 0.7932 0.9291 0.31778 0.0
C87 C 0.78313 0.95985 0.34208 0.0
C88 C 0.79581 0.95702 0.38983 0.0
C89 C 0.82453 0.9041 0.4384 0.0
H90 H 0.80028 0.89131 0.45642 0.0
H91 H 0.84519 0.88256 0.42973 0.0
H92 H 0.83661 0.92415 0.46446 0.0
O93 O 0.7428 0.85746 0.32909 0.0
O94 O 0.73496 0.88386 0.25656 0.0
H95 H 0.73336 0.97163 0.3031 0.0
H96 H 0.74144 0.00153 0.35494 0.0
C97 C 0.7547 0.98653 0.32417 0.0
H98 H 0.7675 0.0072 0.29985 0.0
H99 H 0.72513 0.96274 0.21223 0.0
O100 O 0.80075 0.83165 0.40118 0.0
C101 C 0.72248 0.86579 0.29322 0.0
Co102 Co 0.12888 0.79782 0.33406 0.0
Co103 Co 0.07125 0.77922 0.25349 0.0
C104 C 0.12737 0.84071 0.243 0.0
O105 O 0.1416 0.8339 0.28449 0.0
O106 O 0.10043 0.82193 0.22662 0.0
C107 C 0.19204 0.79586 0.39869 0.0
O108 O 0.21167 0.7838 0.36149 0.0
C109 C -0.00084 0.79634 0.21446 0.0
C110 C 0.98614 0.74907 0.16704 0.0
C111 C 0.97148 0.7813 0.1861 0.0
N112 N 0.02866 0.77419 0.21283 0.0
N113 N 0.02111 0.74635 0.18332 0.0
C114 C 0.99604 0.82946 0.24681 0.0
H115 H 0.02359 0.83851 0.25935 0.0
H116 H 0.97879 0.82276 0.27924 0.0
H117 H 0.9822 0.85212 0.22672 0.0
C118 C 0.06566 0.80213 0.3966 0.0
N119 N 0.07975 0.80125 0.35106 0.0
N120 N 0.0559 0.78658 0.32066 0.0
C121 C 0.02655 0.77532 0.34725 0.0
C122 C 0.03184 0.78517 0.39587 0.0
C123 C 0.08666 0.81282 0.44152 0.0
H124 H 0.10413 0.78937 0.45324 0.0
H125 H 0.10447 0.83688 0.43357 0.0
H126 H 0.06765 0.81974 0.47213 0.0
O127 O 0.1382 0.74738 0.31274 0.0
O128 O 0.10173 0.73404 0.25018 0.0
H129 H 0.99543 0.72556 0.35349 0.0
H130 H 0.97061 0.7645 0.33132 0.0
C131 C -0.00263 0.74998 0.3292 0.0
H132 H 0.00312 0.74081 0.29125 0.0
H133 H 0.03899 0.72443 0.17657 0.0
O134 O 0.15855 0.80458 0.39282 0.0
C135 C 0.12735 0.72527 0.27973 0.0
Co136 Co 0.25306 0.87626 0.65707 0.0
Co137 Co 0.23432 0.9477 0.71815 0.0
C138 C 0.18171 0.8854 0.7141 0.0
O139 O 0.2035 0.86838 0.68539 0.0
O140 O 0.18949 0.91733 0.73025 0.0
C141 C 0.23761 0.81266 0.59908 0.0
O142 O 0.21427 0.80385 0.634 0.0
C143 C 0.19604 0.01156 0.76146 0.0
C144 C 0.2352 0.05594 0.7435 0.0
C145 C 0.19958 0.04954 0.7596 0.0
N146 N 0.22727 0.9963 0.74413 0.0
N147 N 0.25111 0.023 0.73559 0.0
C148 C 0.16276 0.99034 0.77709 0.0
H149 H 0.17121 0.9664 0.79965 0.0
H150 H 0.1484 0.9798 0.74434 0.0
H151 H 0.14347 0.00799 0.79829 0.0
C152 C 0.26487 0.9294 0.57933 0.0
N153 N 0.25676 0.9216 0.62631 0.0
N154 N 0.24517 0.95145 0.64888 0.0
C155 C 0.2436 0.97883 0.6153 0.0
C156 C 0.25593 0.96548 0.57051 0.0
C157 C 0.28059 0.90294 0.5428 0.0
H158 H 0.29956 0.88341 0.56104 0.0
H159 H 0.25806 0.88757 0.52511 0.0
H160 H 0.29583 0.91781 0.51355 0.0
O161 O 0.28855 0.87373 0.70894 0.0
O162 O 0.27532 0.923 0.75471 0.0
H163 H 0.25025 0.03522 0.6345 0.0
H164 H 0.21479 0.02711 0.5902 0.0
C165 C 0.22782 0.01616 0.62394 0.0
H166 H 0.20729 0.01493 0.65363 0.0
H167 H 0.2772 0.01888 0.72041 0.0
O168 O 0.2605 0.83841 0.60628 0.0
C169 C 0.29408 0.89396 0.74622 0.0
Co170 Co 0.10536 0.22735 0.65052 0.0
Co171 Co 0.04518 0.22915 0.73287 0.0
C172 C 0.10909 0.175 0.73173 0.0
O173 O 0.1223 0.18731 0.69187 0.0
O174 O 0.08007 0.18844 0.75101 0.0
C175 C 0.16858 0.23013 0.58248 0.0
O176 O 0.19124 0.23288 0.6197 0.0
C177 C 0.98007 0.19211 0.76512 0.0
C178 C 0.9534 0.23058 0.81667 0.0
C179 C 0.94777 0.198 0.79105 0.0
N180 N 0.00265 0.22077 0.77238 0.0
N181 N 0.98713 0.24323 0.80446 0.0
C182 C 0.9885 0.16076 0.73103 0.0
H183 H 0.01289 0.16666 0.70812 0.0
H184 H 0.96453 0.15442 0.70742 0.0
H185 H 0.99478 0.13585 0.75291 0.0
C186 C 0.04142 0.21583 0.58881 0.0
N187 N 0.05653 0.2206 0.63313 0.0
N188 N 0.0305 0.22615 0.66591 0.0
C189 C -0.00227 0.2269 0.64261 0.0
C190 C 0.0039 0.21962 0.59353 0.0
C191 C 0.06259 0.20903 0.54249 0.0
H192 H 0.07783 0.23434 0.53228 0.0
H193 H 0.08275 0.18664 0.54864 0.0
H194 H 0.0443 0.20144 0.51163 0.0
O195 O 0.10933 0.27468 0.68296 0.0
O196 O 0.06761 0.27845 0.74262 0.0
H197 H 0.94518 0.254 0.63963 0.0
H198 H 0.94535 0.21172 0.6726 0.0
C199 C 0.96154 0.23697 0.66535 0.0
H200 H 0.96563 0.25247 0.69987 0.0
H201 H -0.00144 0.26814 0.81577 0.0
O202 O 0.13414 0.22823 0.58973 0.0
C203 C 0.09343 0.29266 0.71706 0.0
Co204 Co 0.75851 0.12718 0.64855 0.0
Co205 Co 0.76647 0.05614 0.7145 0.0
C206 C 0.82114 0.12105 0.71533 0.0
O207 O 0.80514 0.13785 0.68046 0.0
O208 O 0.80939 0.09004 0.73127 0.0
C209 C 0.75687 0.19732 0.59805 0.0
O210 O 0.77804 0.20896 0.63372 0.0
C211 C 0.80904 0.99022 0.74136 0.0
C212 C 0.76566 0.94871 0.7521 0.0
C213 C 0.80348 0.95274 0.74746 0.0
N214 N 0.77617 0.00737 0.74 0.0
N215 N 0.75037 0.9824 0.74784 0.0
C216 C 0.84493 0.00917 0.73398 0.0
H217 H 0.84762 0.03098 0.76213 0.0
H218 H 0.84502 0.02213 0.69717 0.0
H219 H 0.8685 0.98989 0.73712 0.0
C220 C 0.76075 0.07396 0.5705 0.0
N221 N 0.76013 0.08211 0.61845 0.0
N222 N 0.75959 0.05178 0.64467 0.0
C223 C 0.7579 0.02304 0.6133 0.0
C224 C 0.75958 0.03631 0.56569 0.0
C225 C 0.76411 0.10175 0.53017 0.0
H226 H 0.73761 0.11667 0.52661 0.0
H227 H 0.78582 0.12203 0.53936 0.0
H228 H 0.77059 0.08866 0.49442 0.0
O229 O 0.72001 0.12846 0.69791 0.0
O230 O 0.72248 0.07936 0.74656 0.0
H231 H 0.72542 0.98178 0.64818 0.0
H232 H 0.75092 0.96539 0.59542 0.0
C233 C 0.75179 0.98389 0.62775 0.0
H234 H 0.77374 0.97476 0.65231 0.0
H235 H 0.72219 0.98793 0.74693 0.0
O236 O 0.74647 0.16406 0.5987 0.0
C237 C 0.70787 0.10985 0.73392 0.0
Co238 Co 0.87888 0.74976 0.66693 0.0
Co239 Co 0.94928 0.76559 0.72955 0.0
C240 C 0.88796 0.82014 0.72181 0.0
O241 O 0.86997 0.7992 0.69353 0.0
O242 O 0.9193 0.81105 0.73841 0.0
C243 C 0.81279 0.76102 0.61243 0.0
O244 O 0.80235 0.78234 0.64878 0.0
C245 C 0.01691 0.80626 0.74363 0.0
C246 C 0.04646 0.77449 0.8001 0.0
C247 C 0.04993 0.80458 0.76898 0.0
N248 N 0.99575 0.77777 0.75752 0.0
N249 N 0.0132 0.75927 0.79205 0.0
C250 C 0.00566 0.83392 0.70574 0.0
H251 H 0.98409 0.82254 0.68146 0.0
H252 H 0.02973 0.84309 0.68378 0.0
H253 H 0.99369 0.8583 0.72435 0.0
C254 C 0.93304 0.73937 0.58924 0.0
N255 N 0.92481 0.746 0.63649 0.0
N256 N 0.95516 0.75316 0.66095 0.0
C257 C 0.98369 0.7518 0.62877 0.0
C258 C 0.97016 0.74432 0.58233 0.0
C259 C 0.90594 0.72988 0.55013 0.0
H260 H 0.88625 0.70898 0.56381 0.0
H261 H 0.89083 0.75493 0.53951 0.0
H262 H 0.92004 0.7189 0.51702 0.0
O263 O 0.87586 0.71415 0.71829 0.0
O264 O 0.92437 0.72422 0.76652 0.0
H265 H 0.0289 0.74943 0.6795 0.0
H266 H 0.04085 0.73984 0.61652 0.0
C267 C 0.02342 0.75707 0.64094 0.0
H268 H 0.03128 0.78607 0.63426 0.0
H269 H 0.00283 0.73578 0.80919 0.0
O270 O 0.84123 0.74113 0.61713 0.0
C271 C 0.89508 0.70655 0.75571 0.0
Co272 Co 0.69536 0.6308 0.84062 0.0
Co273 Co 0.71398 0.58418 0.74789 0.0
C274 C 0.65414 0.64246 0.74921 0.0
O275 O 0.6605 0.65061 0.79366 0.0
O276 O 0.67303 0.61805 0.72685 0.0
C277 C 0.69209 0.68766 0.9119 0.0
O278 O 0.70086 0.7094 0.87522 0.0
C279 C 0.69319 0.51705 0.69994 0.0
C280 C 0.74096 0.503 0.65358 0.0
C281 C 0.70841 0.48871 0.67252 0.0
N282 N 0.71663 0.54559 0.70016 0.0
N283 N 0.74467 0.53756 0.67105 0.0
C284 C 0.65824 0.51574 0.72939 0.0
H285 H 0.65364 0.54178 0.74957 0.0
H286 H 0.65881 0.49218 0.75524 0.0
H287 H 0.63454 0.51162 0.70454 0.0
C288 C 0.68665 0.55958 0.88551 0.0
N289 N 0.69014 0.58041 0.84523 0.0
N290 N 0.70423 0.56075 0.80937 0.0
C291 C 0.71236 0.52699 0.82686 0.0
C292 C 0.70081 0.52519 0.87523 0.0
C293 C 0.67694 0.57422 0.93521 0.0
H294 H 0.7011 0.58878 0.95064 0.0
H295 H 0.65378 0.59401 0.93226 0.0
H296 H 0.66915 0.55161 0.96056 0.0
O297 O 0.74691 0.6407 0.82433 0.0
O298 O 0.76114 0.6117 0.75503 0.0
H299 H 0.75639 0.48723 0.82858 0.0
H300 H 0.72035 0.47728 0.7863 0.0
C301 C 0.73716 0.49984 0.80188 0.0
H302 H 0.75329 0.51323 0.77232 0.0
H303 H 0.76755 0.55447 0.66598 0.0
O304 O 0.68726 0.65357 0.9045 0.0
C305 C 0.76986 0.63276 0.79069 0.0
Co306 Co 0.35382 0.69471 0.85268 0.0
Co307 Co 0.41617 0.7139 0.77812 0.0
C308 C 0.35981 0.65568 0.75788 0.0
O309 O 0.34359 0.66193 0.79835 0.0
O310 O 0.38813 0.67384 0.7449 0.0
C311 C 0.28477 0.688 0.90269 0.0
O312 O 0.27 0.69855 0.86115 0.0
C313 C 0.48926 0.69691 0.74095 0.0
C314 C 0.50371 0.74574 0.69677 0.0
C315 C 0.51742 0.71247 0.7137 0.0
N316 N 0.46058 0.72019 0.7415 0.0
N317 N 0.46912 0.74914 0.7144 0.0
C318 C 0.49019 0.66089 0.76756 0.0
H319 H 0.46425 0.65612 0.78808 0.0
H320 H 0.51399 0.66022 0.79294 0.0
H321 H 0.49397 0.6382 0.74084 0.0
C322 C 0.41386 0.6871 0.91957 0.0
N323 N 0.40191 0.68896 0.87322 0.0
N324 N 0.42796 0.70239 0.84477 0.0
C325 C 0.45695 0.71143 0.87306 0.0
C326 C 0.44875 0.70188 0.92116 0.0
C327 C 0.38972 0.67894 0.96282 0.0
H328 H 0.3717 0.703 0.9702 0.0
H329 H 0.37216 0.65474 0.95485 0.0
H330 H 0.40635 0.67333 0.99606 0.0
O331 O 0.34733 0.74685 0.83709 0.0
O332 O 0.38724 0.76001 0.77786 0.0
H333 H 0.47948 0.75341 0.82615 0.0
H334 H 0.49899 0.75205 0.88719 0.0
C335 C 0.48829 0.73515 0.8565 0.0
H336 H 0.51104 0.71738 0.84317 0.0
H337 H 0.45171 0.7716 0.70893 0.0
O338 O 0.31936 0.68416 0.90622 0.0
C339 C 0.36104 0.76939 0.8065 0.0
Co340 Co 0.27167 0.34732 0.82716 0.0
Co341 Co 0.27924 0.42005 0.76718 0.0
C342 C 0.33652 0.36149 0.76063 0.0
O343 O 0.31762 0.34117 0.78911 0.0
O344 O 0.32523 0.39333 0.74849 0.0
C345 C 0.29733 0.2882 0.8898 0.0
O346 O 0.32465 0.28412 0.85866 0.0
C347 C 0.305 0.49306 0.73674 0.0
C348 C 0.26241 0.50927 0.68326 0.0
C349 C 0.294 0.52154 0.7063 0.0
N350 N 0.28021 0.46587 0.73356 0.0
N351 N 0.2552 0.47542 0.70082 0.0
C352 C 0.33859 0.49158 0.76826 0.0
H353 H 0.33702 0.46819 0.79431 0.0
H354 H 0.34204 0.51795 0.78825 0.0
H355 H 0.3632 0.48761 0.74467 0.0
C356 C 0.2604 0.39998 0.9068 0.0
N357 N 0.2694 0.39315 0.85982 0.0
N358 N 0.2758 0.42448 0.83693 0.0
C359 C 0.27287 0.4521 0.87006 0.0
C360 C 0.26384 0.437 0.91517 0.0
C361 C 0.2416 0.3735 0.94072 0.0
H362 H 0.22806 0.35113 0.92002 0.0
H363 H 0.26157 0.36208 0.96702 0.0
H364 H 0.22028 0.38797 0.96272 0.0
O365 O 0.22798 0.34386 0.78795 0.0
O366 O 0.23192 0.39674 0.74711 0.0
H367 H 0.26467 0.49801 0.82169 0.0
H368 H 0.25899 0.50845 0.88608 0.0
C369 C 0.27516 0.49229 0.85896 0.0
H370 H 0.30423 0.50124 0.86159 0.0
H371 H 0.23295 0.45897 0.69076 0.0
O372 O 0.27111 0.3099 0.87958 0.0
C373 C 0.21472 0.36744 0.75856 0.0
Co374 Co 0.65754 0.31344 0.8398 0.0
Co375 Co 0.58916 0.3003 0.77088 0.0
C376 C 0.65041 0.35509 0.74708 0.0
O377 O 0.66809 0.3482 0.78639 0.0
O378 O 0.62074 0.33801 0.73667 0.0
C379 C 0.71967 0.29299 0.89931 0.0
O380 O 0.72933 0.27241 0.86202 0.0
C381 C 0.51427 0.32257 0.74091 0.0
C382 C 0.49454 0.27327 0.70195 0.0
C383 C 0.48351 0.3076 0.71846 0.0
N384 N 0.54211 0.2982 0.73833 0.0
N385 N 0.53029 0.26908 0.71397 0.0
C386 C 0.51648 0.35912 0.76591 0.0
H387 H 0.54358 0.36284 0.78382 0.0
H388 H 0.49397 0.36191 0.79325 0.0
H389 H 0.51252 0.38117 0.73827 0.0
C390 C 0.60107 0.33036 0.9111 0.0
N391 N 0.6111 0.32335 0.86457 0.0
N392 N 0.5824 0.31244 0.83915 0.0
C393 C 0.55353 0.30985 0.87019 0.0
C394 C 0.56444 0.32155 0.9163 0.0
C395 C 0.62695 0.34078 0.95134 0.0
H396 H 0.64033 0.31566 0.96584 0.0
H397 H 0.64843 0.35967 0.93711 0.0
H398 H 0.61202 0.35434 0.98199 0.0
O399 O 0.65794 0.26164 0.81825 0.0
O400 O 0.613 0.25132 0.76551 0.0
H401 H 0.50815 0.27453 0.88942 0.0
H402 H 0.49699 0.31301 0.85171 0.0
C403 C 0.518 0.29152 0.85827 0.0
H404 H 0.52125 0.27382 0.8255 0.0
H405 H 0.54606 0.24552 0.70771 0.0
O406 O 0.69273 0.3151 0.89524 0.0
C407 C 0.6407 0.24008 0.78969 0.0
Co408 Co 0.74874 0.36598 0.14924 0.0
Co409 Co 0.72494 0.43999 0.20039 0.0
C410 C 0.68224 0.37144 0.21613 0.0
O411 O 0.70613 0.35327 0.19168 0.0
O412 O 0.68431 0.40633 0.22063 0.0
C413 C 0.74289 0.29643 0.09814 0.0
O414 O 0.71359 0.29155 0.12567 0.0
C415 C 0.6823 0.50789 0.22143 0.0
C416 C 0.72572 0.54529 0.24807 0.0
C417 C 0.68849 0.5436 0.23772 0.0
N418 N 0.71443 0.4894 0.22197 0.0
N419 N 0.74017 0.5119 0.23838 0.0
C420 C 0.64647 0.49152 0.20579 0.0
H421 H 0.65126 0.4676 0.18128 0.0
H422 H 0.62906 0.51226 0.18711 0.0
H423 H 0.63141 0.48186 0.23883 0.0
C424 C 0.73758 0.40947 0.06103 0.0
N425 N 0.73812 0.40619 0.11012 0.0
N426 N 0.7301 0.43803 0.13054 0.0
C427 C 0.72449 0.46267 0.09442 0.0
C428 C 0.72867 0.44516 0.04974 0.0
C429 C 0.74523 0.37911 0.02547 0.0
H430 H 0.77334 0.36831 0.03185 0.0
H431 H 0.72509 0.35663 0.03141 0.0
H432 H 0.74325 0.3886 0.98689 0.0
O433 O 0.79099 0.37699 0.18869 0.0
O434 O 0.77027 0.42256 0.23539 0.0
H435 H 0.73039 0.51373 0.13204 0.0
H436 H 0.71771 0.51828 0.06819 0.0
C437 C 0.71381 0.50175 0.10202 0.0
H438 H 0.68427 0.50252 0.11219 0.0
H439 H 0.76783 0.50468 0.242 0.0
O440 O 0.76219 0.32496 0.10545 0.0
C441 C 0.79455 0.39838 0.22508 0.0
Co442 Co 0.60697 0.74738 0.174 0.0
Co443 Co 0.5429 0.73102 0.24788 0.0
C444 C 0.60302 0.6769 0.23128 0.0
O445 O 0.61802 0.69825 0.20032 0.0
O446 O 0.57346 0.68572 0.2533 0.0
C447 C 0.66875 0.73495 0.11095 0.0
O448 O 0.6819 0.71545 0.14741 0.0
C449 C 0.47901 0.6903 0.27778 0.0
C450 C 0.45218 0.72585 0.33298 0.0
C451 C 0.44798 0.69332 0.30691 0.0
N452 N 0.49988 0.72023 0.28451 0.0
N453 N 0.48428 0.74104 0.31848 0.0
C454 C 0.4881 0.66004 0.2424 0.0
H455 H 0.50807 0.66957 0.21431 0.0
H456 H 0.46284 0.64955 0.22445 0.0
H457 H 0.50076 0.63691 0.26285 0.0
C458 C 0.5467 0.75513 0.10567 0.0
N459 N 0.55882 0.74971 0.15148 0.0
N460 N 0.53097 0.74144 0.1805 0.0
C461 C 0.50013 0.74062 0.15278 0.0
C462 C 0.50963 0.74807 0.10451 0.0
C463 C 0.57025 0.76502 0.0625 0.0
H464 H 0.58997 0.78691 0.07279 0.0
H465 H 0.58564 0.74049 0.05012 0.0
H466 H 0.55322 0.77493 0.03146 0.0
O467 O 0.61317 0.78496 0.22262 0.0
O468 O 0.56885 0.77408 0.27761 0.0
H469 H 0.44143 0.7458 0.14713 0.0
H470 H 0.45732 0.702 0.16788 0.0
C471 C 0.46218 0.73199 0.17059 0.0
H472 H 0.4585 0.74128 0.20893 0.0
H473 H 0.49486 0.76614 0.33048 0.0
O474 O 0.63997 0.75414 0.11743 0.0
C475 C 0.59597 0.793 0.26183 0.0
Co476 Co 0.27227 0.60503 0.16562 0.0
Co477 Co 0.26964 0.54365 0.24614 0.0
C478 C 0.3267 0.60572 0.24272 0.0
O479 O 0.31579 0.61835 0.20187 0.0
O480 O 0.31103 0.57826 0.26309 0.0
C481 C 0.23704 0.64774 0.09019 0.0
O482 O 0.20625 0.6419 0.11428 0.0
C483 C 0.30507 0.47695 0.2793 0.0
C484 C 0.2703 0.45807 0.34087 0.0
C485 C 0.30111 0.44894 0.31319 0.0
N486 N 0.27744 0.50105 0.28543 0.0
N487 N 0.25697 0.48996 0.32278 0.0
C488 C 0.33465 0.48048 0.24117 0.0
H489 H 0.32973 0.50448 0.21705 0.0
H490 H 0.33631 0.45488 0.21909 0.0
H491 H 0.36163 0.48416 0.25935 0.0
C492 C 0.27591 0.54239 0.10069 0.0
N493 N 0.27465 0.55648 0.14604 0.0
N494 N 0.26872 0.53014 0.17811 0.0
C495 C 0.26373 0.49834 0.15325 0.0
C496 C 0.26855 0.50536 0.10356 0.0
C497 C 0.28274 0.56415 0.05498 0.0
H498 H 0.30286 0.5864 0.06217 0.0
H499 H 0.29328 0.54634 0.02499 0.0
H500 H 0.25647 0.57653 0.04283 0.0
O501 O 0.22955 0.61329 0.208 0.0
O502 O 0.22364 0.56943 0.26448 0.0
H503 H 0.23216 0.44847 0.15139 0.0
H504 H 0.27629 0.44451 0.17986 0.0
C505 C 0.252 0.46271 0.17575 0.0
H506 H 0.2393 0.46736 0.21226 0.0
H507 H 0.23366 0.50385 0.33549 0.0
O508 O 0.26748 0.63637 0.10729 0.0
C509 C 0.21245 0.59879 0.24385 0.0
Co510 Co 0.38651 0.286 0.16409 0.0
Co511 Co 0.45199 0.27553 0.23687 0.0
C512 C 0.38734 0.32814 0.25494 0.0
O513 O 0.3722 0.32077 0.21417 0.0
O514 O 0.41714 0.31242 0.26839 0.0
C515 C 0.32617 0.27051 0.09555 0.0
O516 O 0.30971 0.24966 0.12826 0.0
C517 C 0.52227 0.30457 0.26971 0.0
C518 C 0.54878 0.25668 0.30432 0.0
C519 C 0.55546 0.29232 0.2884 0.0
N520 N 0.49756 0.27715 0.27227 0.0
N521 N 0.51324 0.24891 0.2945 0.0
C522 C 0.51504 0.34124 0.2466 0.0
H523 H 0.48798 0.34164 0.22798 0.0
H524 H 0.53733 0.34846 0.22042 0.0
H525 H 0.51505 0.36258 0.2757 0.0
C526 C 0.44543 0.30559 0.0969 0.0
N527 N 0.43369 0.29602 0.14191 0.0
N528 N 0.46193 0.28744 0.1696 0.0
C529 C 0.49263 0.28917 0.14159 0.0
C530 C 0.48304 0.30144 0.09533 0.0
C531 C 0.4209 0.31586 0.05505 0.0
H532 H 0.40755 0.2907 0.04054 0.0
H533 H 0.39918 0.33507 0.06794 0.0
H534 H 0.43663 0.32896 0.0248 0.0
O535 O 0.3833 0.23606 0.18915 0.0
O536 O 0.42992 0.22522 0.2394 0.0
H537 H 0.54327 0.26092 0.1255 0.0
H538 H 0.54728 0.29955 0.16522 0.0
C539 C 0.52972 0.27564 0.15629 0.0
H540 H 0.52748 0.2568 0.18803 0.0
H541 H 0.50055 0.22346 0.29978 0.0
O542 O 0.35512 0.28802 0.10662 0.0
C543 C 0.401 0.21456 0.21721 0.0
C544 C 0.14231 0.93215 0.17734 0.0
C545 C 0.18068 0.93574 0.18534 0.0
C546 C 0.1832 0.87117 0.20992 0.0
C547 C 0.14431 0.87053 0.21349 0.0
N548 N 0.08609 0.90177 0.20228 0.0
N549 N 0.23746 0.90891 0.21527 0.0
C550 C 0.12345 0.90108 0.19671 0.0
C551 C 0.20134 0.90515 0.2024 0.0
N552 N 0.12398 0.95855 0.15147 0.0
N553 N 0.20276 0.83921 0.21423 0.0
H554 H 0.25194 0.93351 0.21268 0.0
H555 H 0.25218 0.88826 0.23305 0.0
H556 H 0.18999 0.8137 0.2187 0.0
H557 H 0.23102 0.83764 0.20787 0.0
H558 H 0.09661 0.95589 0.1408 0.0
H559 H 0.13733 0.98141 0.1366 0.0
H560 H 0.07026 0.9252 0.19599 0.0
H561 H 0.07102 0.87989 0.21653 0.0
C562 C 0.09725 0.13892 0.27898 0.0
C563 C 0.12279 0.14108 0.23977 0.0
C564 C 0.07561 0.17034 0.18877 0.0
C565 C 0.05234 0.17358 0.23065 0.0
N566 N 0.04507 0.16692 0.31853 0.0
N567 N 0.13771 0.16055 0.15776 0.0
C568 C 0.0641 0.15922 0.2765 0.0
C569 C 0.11231 0.15697 0.19449 0.0
N570 N 0.10457 0.11708 0.31861 0.0
N571 N 0.06237 0.17928 0.14348 0.0
H572 H 0.16446 0.15032 0.16062 0.0
H573 H 0.13303 0.1756 0.1259 0.0
H574 H 0.03553 0.1886 0.13798 0.0
H575 H 0.07675 0.17434 0.11105 0.0
H576 H 0.08529 0.11173 0.34609 0.0
H577 H 0.12839 0.10115 0.32137 0.0
H578 H 0.05486 0.16063 0.35341 0.0
H579 H 0.02142 0.18291 0.31912 0.0
C580 C 0.84027 0.05212 0.24716 0.0
C581 C 0.8195 0.0453 0.20373 0.0
C582 C 0.82383 0.11102 0.18263 0.0
C583 C 0.84524 0.11686 0.22509 0.0
N584 N 0.8835 0.09158 0.28877 0.0
N585 N 0.79949 0.06675 0.12448 0.0
C586 C 0.85703 0.0868 0.2538 0.0
C587 C 0.81392 0.07435 0.16953 0.0
N588 N 0.84132 0.02728 0.2847 0.0
N589 N 0.81216 0.14049 0.15582 0.0
H590 H 0.79279 0.04008 0.11354 0.0
H591 H 0.79747 0.08613 0.09651 0.0
H592 H 0.82032 0.16735 0.16378 0.0
H593 H 0.79306 0.1385 0.12756 0.0
H594 H 0.85203 0.03341 0.31912 0.0
H595 H 0.82828 0.00203 0.28415 0.0
H596 H 0.89604 0.06967 0.30687 0.0
H597 H 0.8955 0.11699 0.29633 0.0
C598 C 0.87928 0.8306 0.17794 0.0
C599 C 0.86856 0.82669 0.22812 0.0
C600 C 0.91548 0.77919 0.23701 0.0
C601 C 0.93195 0.79002 0.19262 0.0
N602 N 0.93027 0.82753 0.12006 0.0
N603 N 0.88819 0.80513 0.30878 0.0
C604 C 0.91403 0.81618 0.16259 0.0
C605 C 0.88954 0.80281 0.25876 0.0
N606 N 0.8562 0.84648 0.14472 0.0
N607 N 0.92581 0.74744 0.25966 0.0
H608 H 0.87568 0.82681 0.32748 0.0
H609 H 0.90477 0.78896 0.33131 0.0
H610 H 0.94475 0.72928 0.24405 0.0
H611 H 0.91253 0.73779 0.29113 0.0
H612 H 0.86213 0.84754 0.10733 0.0
H613 H 0.82939 0.8544 0.15332 0.0
H614 H 0.92023 0.8494 0.0993 0.0
H615 H 0.95486 0.81609 0.10724 0.0
C616 C 0.11529 0.10753 0.72782 0.0
C617 C 0.12509 0.14072 0.75111 0.0
C618 C 0.17546 0.10914 0.79305 0.0
C619 C 0.17035 0.07826 0.76186 0.0
N620 N 0.13725 0.05077 0.6937 0.0
N621 N 0.16382 0.17424 0.80657 0.0
C622 C 0.14029 0.0777 0.72837 0.0
C623 C 0.15472 0.14177 0.78456 0.0
N624 N 0.08244 0.10491 0.70385 0.0
N625 N 0.20001 0.10709 0.83077 0.0
H626 H 0.14804 0.19804 0.80242 0.0
H627 H 0.18772 0.17799 0.82692 0.0
H628 H 0.21504 0.08327 0.83824 0.0
H629 H 0.20294 0.12755 0.85719 0.0
H630 H 0.07206 0.08016 0.69049 0.0
H631 H 0.06394 0.12677 0.70182 0.0
H632 H 0.1186 0.05196 0.66483 0.0
H633 H 0.15533 0.02889 0.6904 0.0
C634 C 0.84909 0.1786 0.75048 0.0
C635 C 0.85193 0.14031 0.74059 0.0
C636 C 0.91125 0.14007 0.78236 0.0
C637 C 0.91221 0.17901 0.78135 0.0
N638 N 0.88284 0.23537 0.75315 0.0
N639 N 0.89196 0.08751 0.73556 0.0
C640 C 0.88126 0.19852 0.76276 0.0
C641 C 0.88452 0.12151 0.75398 0.0
N642 N 0.81583 0.19605 0.74888 0.0
N643 N 0.93629 0.12083 0.80923 0.0
H644 H 0.87573 0.07589 0.70829 0.0
H645 H 0.91674 0.07383 0.74192 0.0
H646 H 0.95578 0.13393 0.83119 0.0
H647 H 0.93509 0.0923 0.81305 0.0
H648 H 0.81245 0.22339 0.75958 0.0
H649 H 0.79118 0.18221 0.74266 0.0
H650 H 0.86181 0.24927 0.73494 0.0
H651 H 0.90622 0.25138 0.75789 0.0
C652 C 0.85191 0.86255 0.77653 0.0
C653 C 0.87244 0.85675 0.73294 0.0
C654 C 0.8511 0.91548 0.69994 0.0
C655 C 0.83069 0.92193 0.74399 0.0
N656 N 0.81942 0.90603 0.82855 0.0
N657 N 0.89949 0.88093 0.65916 0.0
C658 C 0.83354 0.89677 0.78368 0.0
C659 C 0.87463 0.88438 0.6967 0.0
N660 N 0.8489 0.83487 0.81022 0.0
N661 N 0.84655 0.93753 0.6599 0.0
H662 H 0.91692 0.85824 0.65553 0.0
H663 H 0.90534 0.90197 0.63443 0.0
H664 H 0.8311 0.96145 0.66019 0.0
H665 H 0.85636 0.93085 0.62509 0.0
H666 H 0.83077 0.83564 0.83986 0.0
H667 H 0.86305 0.81 0.80684 0.0
H668 H 0.8235 0.89042 0.86008 0.0
H669 H 0.80662 0.93123 0.83532 0.0
C670 C 0.08345 0.86482 0.75676 0.0
C671 C 0.08423 0.82581 0.75871 0.0
C672 C 0.15059 0.82786 0.74386 0.0
C673 C 0.14819 0.86579 0.7317 0.0
N674 N 0.10871 0.91799 0.71578 0.0
N675 N 0.11854 0.77006 0.74064 0.0
C676 C 0.11363 0.88383 0.73536 0.0
C677 C 0.11781 0.80715 0.74863 0.0
N678 N 0.05451 0.88382 0.77627 0.0
N679 N 0.18389 0.81166 0.75248 0.0
H680 H 0.09493 0.75389 0.73908 0.0
H681 H 0.14229 0.7563 0.72929 0.0
H682 H 0.20852 0.82636 0.75323 0.0
H683 H 0.1863 0.78467 0.76502 0.0
H684 H 0.05418 0.91245 0.7787 0.0
H685 H 0.03298 0.87078 0.79477 0.0
H686 H 0.08307 0.93088 0.71464 0.0
H687 H 0.12907 0.93126 0.6954 0.0
C688 C 0.71958 0.42207 0.69739 0.0
C689 C 0.69675 0.44939 0.67562 0.0
C690 C 0.64253 0.41131 0.69146 0.0
C691 C 0.66532 0.38412 0.71372 0.0
N692 N 0.72607 0.3574 0.71635 0.0
N693 N 0.64011 0.46187 0.63356 0.0
C694 C 0.70407 0.3874 0.70923 0.0
C695 C 0.65948 0.44092 0.66598 0.0
N696 N 0.75507 0.42945 0.71043 0.0
N697 N 0.60521 0.41121 0.69772 0.0
H698 H 0.65226 0.48369 0.61457 0.0
H699 H 0.61355 0.45522 0.62228 0.0
H700 H 0.59098 0.39175 0.71821 0.0
H701 H 0.58852 0.43286 0.6862 0.0
H702 H 0.77067 0.41145 0.73167 0.0
H703 H 0.76824 0.45431 0.70397 0.0
H704 H 0.75435 0.35779 0.70977 0.0
H705 H 0.71532 0.33122 0.72292 0.0
C706 C 0.5617 0.66306 0.68911 0.0
C707 C 0.55568 0.69834 0.70972 0.0
C708 C 0.62045 0.70064 0.7333 0.0
C709 C 0.62353 0.66232 0.72464 0.0
N710 N 0.59551 0.60605 0.69491 0.0
N711 N 0.57951 0.75022 0.75542 0.0
C712 C 0.59409 0.64326 0.70162 0.0
C713 C 0.58526 0.71745 0.73206 0.0
N714 N 0.5363 0.64849 0.65788 0.0
N715 N 0.65123 0.7208 0.74328 0.0
H716 H 0.55407 0.76335 0.75705 0.0
H717 H 0.59946 0.76287 0.77696 0.0
H718 H 0.67752 0.70914 0.74326 0.0
H719 H 0.65104 0.74939 0.74603 0.0
H720 H 0.54068 0.62425 0.6383 0.0
H721 H 0.51245 0.66267 0.648 0.0
H722 H 0.57283 0.59059 0.68404 0.0
H723 H 0.61833 0.59002 0.70327 0.0
C724 C 0.34753 0.56372 0.69392 0.0
C725 C 0.30964 0.55916 0.70475 0.0
C726 C 0.30548 0.62467 0.72332 0.0
C727 C 0.34427 0.62628 0.72659 0.0
N728 N 0.40329 0.59642 0.714 0.0
N729 N 0.25241 0.58602 0.73419 0.0
C730 C 0.36582 0.59591 0.71044 0.0
C731 C 0.2882 0.58998 0.71953 0.0
N732 N 0.3659 0.53722 0.66812 0.0
N733 N 0.28528 0.65634 0.7255 0.0
H734 H 0.23863 0.56097 0.735 0.0
H735 H 0.23736 0.6073 0.75025 0.0
H736 H 0.2977 0.68219 0.72777 0.0
H737 H 0.25696 0.65704 0.7196 0.0
H738 H 0.39285 0.54045 0.65562 0.0
H739 H 0.35279 0.51364 0.65509 0.0
H740 H 0.41954 0.57313 0.70852 0.0
H741 H 0.41823 0.61931 0.72507 0.0
C742 C 0.38881 0.35177 0.69902 0.0
C743 C 0.37449 0.34924 0.74758 0.0
C744 C 0.42769 0.31257 0.77142 0.0
C745 C 0.4448 0.31968 0.72581 0.0
N746 N 0.44337 0.34956 0.64704 0.0
N747 N 0.38824 0.3385 0.83313 0.0
C748 C 0.42592 0.34048 0.68975 0.0
C749 C 0.39622 0.33287 0.78475 0.0
N750 N 0.36681 0.36329 0.66156 0.0
N751 N 0.44069 0.28571 0.80165 0.0
H752 H 0.36787 0.35681 0.8446 0.0
H753 H 0.4051 0.329 0.86131 0.0
H754 H 0.46229 0.26838 0.79158 0.0
H755 H 0.42717 0.27805 0.83387 0.0
H756 H 0.37487 0.3624 0.62488 0.0
H757 H 0.3393 0.37056 0.6666 0.0
H758 H 0.43237 0.36781 0.62155 0.0
H759 H 0.47001 0.34065 0.6388 0.0
C760 C 0.63471 0.62782 0.28156 0.0
C761 C 0.6187 0.63957 0.23686 0.0
C762 C 0.64853 0.58922 0.19333 0.0
C763 C 0.66274 0.57551 0.23812 0.0
N764 N 0.66329 0.57772 0.32651 0.0
N765 N 0.6002 0.6242 0.15467 0.0
C766 C 0.65385 0.59353 0.2829 0.0
C767 C 0.62215 0.61772 0.19428 0.0
N768 N 0.63316 0.65002 0.32193 0.0
N769 N 0.66242 0.57738 0.1496 0.0
H770 H 0.5798 0.64446 0.15479 0.0
H771 H 0.59971 0.60697 0.1241 0.0
H772 H 0.68485 0.55976 0.1477 0.0
H773 H 0.65505 0.58887 0.11601 0.0
H774 H 0.64785 0.64482 0.35391 0.0
H775 H 0.61904 0.67501 0.32229 0.0
H776 H 0.65462 0.58784 0.36037 0.0
H777 H 0.67709 0.5526 0.32862 0.0
C778 C 0.38188 0.68791 0.2811 0.0
C779 C 0.41394 0.67138 0.301 0.0
C780 C 0.38748 0.61019 0.28763 0.0
C781 C 0.35509 0.627 0.26923 0.0
N782 N 0.31686 0.68139 0.26605 0.0
N783 N 0.443 0.61787 0.33575 0.0
C784 C 0.35077 0.66572 0.27198 0.0
C785 C 0.4152 0.63279 0.30866 0.0
N786 N 0.38165 0.72403 0.26713 0.0
N787 N 0.39294 0.57321 0.28236 0.0
H788 H 0.46347 0.63396 0.35179 0.0
H789 H 0.44369 0.5903 0.34613 0.0
H790 H 0.37372 0.55579 0.26627 0.0
H791 H 0.4178 0.56029 0.29036 0.0
H792 H 0.36011 0.73572 0.24734 0.0
H793 H 0.4041 0.74155 0.2705 0.0
H794 H 0.3118 0.70922 0.27241 0.0
H795 H 0.29312 0.66596 0.26014 0.0
C796 C 0.36161 0.41674 0.32068 0.0
C797 C 0.32295 0.41441 0.31449 0.0
C798 C 0.32957 0.3493 0.2941 0.0
C799 C 0.36783 0.35461 0.28723 0.0
N800 N 0.42118 0.39384 0.29488 0.0
N801 N 0.26965 0.37782 0.29303 0.0
C802 C 0.3844 0.38815 0.30193 0.0
C803 C 0.30658 0.38028 0.30177 0.0
N804 N 0.37635 0.44648 0.34401 0.0
N805 N 0.31531 0.31457 0.29232 0.0
H806 H 0.25147 0.39973 0.29709 0.0
H807 H 0.25741 0.35453 0.27794 0.0
H808 H 0.33193 0.2914 0.28729 0.0
H809 H 0.28802 0.30859 0.30111 0.0
H810 H 0.40409 0.4484 0.35322 0.0
H811 H 0.35998 0.46758 0.35826 0.0
H812 H 0.43366 0.41941 0.29932 0.0
H813 H 0.43895 0.37359 0.28186 0.0
C814 C 0.60958 0.29795 0.23217 0.0
C815 C 0.59188 0.30864 0.27629 0.0
C816 C 0.63768 0.35766 0.28597 0.0
C817 C 0.65042 0.35104 0.2373 0.0
N818 N 0.63909 0.32111 0.15949 0.0
N819 N 0.58723 0.35098 0.34397 0.0
C820 C 0.63385 0.32283 0.20909 0.0
C821 C 0.60534 0.3393 0.30287 0.0
N822 N 0.60345 0.26419 0.2119 0.0
N823 N 0.65713 0.37992 0.31678 0.0
H824 H 0.56463 0.33697 0.35853 0.0
H825 H 0.59341 0.37558 0.36172 0.0
H826 H 0.68191 0.39228 0.30682 0.0
H827 H 0.65067 0.38296 0.35381 0.0
H828 H 0.6183 0.2546 0.18167 0.0
H829 H 0.58653 0.24447 0.2279 0.0
H830 H 0.62489 0.30266 0.13721 0.0
H831 H 0.65376 0.34096 0.13994 0.0
C832 C 0.17179 0.18877 0.45658 0.0
C833 C 0.19837 0.21078 0.43257 0.0
C834 C 0.20527 0.24782 0.50707 0.0
C835 C 0.18225 0.22251 0.5324 0.0
N836 N 0.15283 0.16292 0.53383 0.0
N837 N 0.24336 0.25931 0.43515 0.0
C838 C 0.16818 0.19122 0.50789 0.0
C839 C 0.21603 0.23987 0.45782 0.0
N840 N 0.14933 0.16605 0.43024 0.0
N841 N 0.21561 0.27987 0.52919 0.0
H842 H 0.25087 0.25475 0.39867 0.0
H843 H 0.25994 0.27826 0.45328 0.0
H844 H 0.20818 0.28652 0.56509 0.0
H845 H 0.22924 0.301 0.51084 0.0
H846 H 0.12722 0.15202 0.44594 0.0
H847 H 0.15058 0.16408 0.39208 0.0
H848 H 0.14521 0.1381 0.51764 0.0
H849 H 0.15152 0.16264 0.57206 0.0
C850 C 0.79081 0.249 0.48982 0.0
C851 C 0.7717 0.22945 0.45246 0.0
C852 C 0.72972 0.20411 0.51411 0.0
C853 C 0.75307 0.21816 0.55114 0.0
N854 N 0.78967 0.27039 0.57397 0.0
N855 N 0.72071 0.19158 0.42745 0.0
C856 C 0.77855 0.24599 0.53903 0.0
C857 C 0.73998 0.20842 0.46407 0.0
N858 N 0.82238 0.26792 0.47925 0.0
N859 N 0.69722 0.18804 0.52738 0.0
H860 H 0.7265 0.1959 0.39038 0.0
H861 H 0.69987 0.1725 0.43351 0.0
H862 H 0.68845 0.18743 0.56389 0.0
H863 H 0.67752 0.17887 0.50268 0.0
H864 H 0.83953 0.27869 0.5062 0.0
H865 H 0.83347 0.2701 0.44411 0.0
H866 H 0.80632 0.29302 0.56635 0.0
H867 H 0.77773 0.27105 0.6088 0.0
C868 C 0.77556 0.75584 0.53533 0.0
C869 C 0.80447 0.77239 0.56201 0.0
C870 C 0.83036 0.79759 0.48686 0.0
C871 C 0.79934 0.78496 0.46058 0.0
N872 N 0.73854 0.75774 0.46169 0.0
N873 N 0.85371 0.81704 0.56518 0.0
C874 C 0.77079 0.76542 0.48514 0.0
C875 C 0.82982 0.79613 0.53843 0.0
N876 N 0.753 0.73092 0.55774 0.0
N877 N 0.86111 0.80941 0.46249 0.0
H878 H 0.85423 0.81683 0.60335 0.0
H879 H 0.8705 0.83711 0.54949 0.0
H880 H 0.86343 0.80875 0.42434 0.0
H881 H 0.88567 0.81574 0.4802 0.0
H882 H 0.73395 0.71499 0.53877 0.0
H883 H 0.75501 0.72466 0.59499 0.0
H884 H 0.71559 0.74688 0.47951 0.0
H885 H 0.73347 0.76508 0.42542 0.0
C886 C 0.22529 0.77032 0.47251 0.0
C887 C 0.20807 0.80029 0.44801 0.0
C888 C 0.20561 0.83481 0.52455 0.0
C889 C 0.22635 0.80682 0.54787 0.0
N890 N 0.26052 0.75018 0.54317 0.0
N891 N 0.19145 0.8646 0.44791 0.0
C892 C 0.23777 0.77525 0.52152 0.0
C893 C 0.20109 0.83361 0.47325 0.0
N894 N 0.22781 0.73668 0.45035 0.0
N895 N 0.18978 0.86244 0.55138 0.0
H896 H 0.1896 0.86527 0.40975 0.0
H897 H 0.1895 0.89048 0.4642 0.0
H898 H 0.19273 0.86489 0.58922 0.0
H899 H 0.17105 0.88104 0.53651 0.0
H900 H 0.23657 0.71306 0.46851 0.0
H901 H 0.21823 0.73148 0.41507 0.0
H902 H 0.27293 0.72862 0.52412 0.0
H903 H 0.26903 0.75256 0.57955 0.0
C904 C 0.6533 0.69277 0.98672 0.0
C905 C 0.6861 0.70242 0.96169 0.0
C906 C 0.70735 0.73604 0.03429 0.0
C907 C 0.67638 0.7228 0.06043 0.0
N908 N 0.62464 0.68114 0.06497 0.0
N909 N 0.74754 0.72795 0.96397 0.0
C910 C 0.65085 0.69882 0.0377 0.0
C911 C 0.71405 0.72284 0.98592 0.0
N912 N 0.62378 0.6793 0.96147 0.0
N913 N 0.73003 0.76139 0.05544 0.0
H914 H 0.75395 0.71794 0.92916 0.0
H915 H 0.77006 0.73932 0.98194 0.0
H916 H 0.72634 0.77064 0.09136 0.0
H917 H 0.7508 0.77504 0.03635 0.0
H918 H 0.59799 0.67533 0.97749 0.0
H919 H 0.62377 0.67608 0.92345 0.0
H920 H 0.60794 0.66041 0.05087 0.0
H921 H 0.62154 0.6851 0.10258 0.0
C922 C 0.26821 0.70853 0.98661 0.0
C923 C 0.26219 0.68385 0.94727 0.0
C924 C 0.22453 0.64475 0.00032 0.0
C925 C 0.23722 0.66511 0.04131 0.0
N926 N 0.26775 0.71811 0.0747 0.0
N927 N 0.23406 0.62915 0.91466 0.0
C928 C 0.25755 0.69796 0.03468 0.0
C929 C 0.23935 0.65262 0.95318 0.0
N930 N 0.28415 0.74192 0.97762 0.0
N931 N 0.19917 0.6174 0.00667 0.0
H932 H 0.24382 0.63459 0.8794 0.0
H933 H 0.22176 0.60342 0.918 0.0
H934 H 0.18843 0.61035 0.04084 0.0
H935 H 0.18647 0.60372 0.9778 0.0
H936 H 0.28697 0.76249 0.00387 0.0
H937 H 0.29177 0.75031 0.94239 0.0
H938 H 0.28636 0.73984 0.0734 0.0
H939 H 0.25819 0.71219 0.10998 0.0
C940 C 0.31633 0.31183 0.97103 0.0
C941 C 0.3042 0.28182 0.94229 0.0
C942 C 0.30527 0.24239 0.01495 0.0
C943 C 0.31288 0.27386 0.04445 0.0
N944 N 0.31446 0.34012 0.05082 0.0
N945 N 0.28179 0.21967 0.93733 0.0
C946 C 0.31491 0.30908 0.02249 0.0
C947 C 0.29677 0.24742 0.96443 0.0
N948 N 0.32976 0.34294 0.94935 0.0
N949 N 0.30862 0.20776 0.0338 0.0
H950 H 0.27648 0.2223 0.89991 0.0
H951 H 0.27226 0.19523 0.95276 0.0
H952 H 0.31638 0.20254 0.06978 0.0
H953 H 0.30705 0.18408 0.01239 0.0
H954 H 0.34305 0.36353 0.96911 0.0
H955 H 0.33019 0.34684 0.91153 0.0
H956 H 0.31299 0.36655 0.03608 0.0
H957 H 0.31122 0.33929 0.08885 0.0
C958 C 0.70725 0.2624 0.97969 0.0
C959 C 0.73177 0.28248 0.94895 0.0
C960 C 0.77468 0.28888 0.01703 0.0
C961 C 0.74609 0.27802 0.0493 0.0
N962 N 0.69635 0.23552 0.06019 0.0
N963 N 0.79102 0.31048 0.93556 0.0
C964 C 0.71573 0.25857 0.03024 0.0
C965 C 0.7667 0.29353 0.96644 0.0
N966 N 0.67548 0.24822 0.96078 0.0
N967 N 0.80915 0.2944 0.03526 0.0
H968 H 0.78607 0.3135 0.89811 0.0
H969 H 0.81524 0.32291 0.94728 0.0
H970 H 0.81518 0.28914 0.07203 0.0
H971 H 0.83205 0.30029 0.01361 0.0
H972 H 0.65439 0.23722 0.9821 0.0
H973 H 0.66956 0.24867 0.92337 0.0
H974 H 0.67487 0.21883 0.04843 0.0
H975 H 0.70493 0.23002 0.09594 0.0
C976 C 0.33345 0.1433 0.18853 0.0
C977 C 0.3217 0.13456 0.23669 0.0
C978 C 0.3764 0.16386 0.2714 0.0
C979 C 0.38501 0.17731 0.22398 0.0
N980 N 0.38334 0.16615 0.1373 0.0
N981 N 0.33988 0.12122 0.31968 0.0
C982 C 0.36764 0.16166 0.18244 0.0
C983 C 0.34601 0.13969 0.27677 0.0
N984 N 0.31115 0.13669 0.1493 0.0
N985 N 0.39547 0.17569 0.31143 0.0
H986 H 0.31831 0.10248 0.32376 0.0
H987 H 0.35813 0.12144 0.34903 0.0
H988 H 0.42008 0.19016 0.30888 0.0
H989 H 0.38667 0.17128 0.34733 0.0
H990 H 0.31708 0.14556 0.11389 0.0
H991 H 0.28571 0.12375 0.15226 0.0
H992 H 0.37358 0.1536 0.10559 0.0
H993 H 0.40848 0.17974 0.13299 0.0
C994 C 0.79788 0.35695 0.29167 0.0
C995 C 0.81749 0.38295 0.26412 0.0
C996 C 0.86996 0.34077 0.26459 0.0
C997 C 0.84521 0.31118 0.27489 0.0
N998 N 0.78065 0.29382 0.28362 0.0
N999 N 0.87467 0.40182 0.22855 0.0
C1000 C 0.80772 0.31982 0.28552 0.0
C1001 C 0.85478 0.37584 0.25293 0.0
N1002 N 0.76661 0.36687 0.31598 0.0
N1003 N 0.90716 0.33613 0.26722 0.0
H1004 H 0.86351 0.42772 0.22103 0.0
H1005 H 0.90092 0.39691 0.21443 0.0
H1006 H 0.91937 0.31209 0.28011 0.0
H1007 H 0.9256 0.35779 0.26249 0.0
H1008 H 0.75142 0.34817 0.33686 0.0
H1009 H 0.7586 0.3944 0.3187 0.0
H1010 H 0.7529 0.30037 0.28837 0.0
H1011 H 0.78505 0.26727 0.27041 0.0
C1012 C 0.67814 0.81568 0.31481 0.0
C1013 C 0.68448 0.85127 0.29438 0.0
C1014 C 0.61926 0.85554 0.27393 0.0
C1015 C 0.61426 0.81984 0.29324 0.0
N1016 N 0.63334 0.77516 0.35223 0.0
N1017 N 0.65806 0.9097 0.27022 0.0
C1018 C 0.64165 0.8041 0.32244 0.0
C1019 C 0.65404 0.87297 0.27905 0.0
N1020 N 0.70631 0.79129 0.32174 0.0
N1021 N 0.59143 0.87135 0.248 0.0
H1022 H 0.68278 0.92357 0.27584 0.0
H1023 H 0.63598 0.92695 0.26218 0.0
H1024 H 0.56563 0.85881 0.24548 0.0
H1025 H 0.59448 0.89557 0.22796 0.0
H1026 H 0.70204 0.76435 0.33355 0.0
H1027 H 0.73301 0.79592 0.30912 0.0
H1028 H 0.65248 0.76348 0.37605 0.0
H1029 H 0.60631 0.76586 0.35628 0.0
C1030 C 0.12783 0.65634 0.26337 0.0
C1031 C 0.14676 0.68947 0.27541 0.0
C1032 C 0.20181 0.65349 0.29225 0.0
C1033 C 0.18605 0.62299 0.26863 0.0
N1034 N 0.13408 0.59471 0.22978 0.0
N1035 N 0.20608 0.71907 0.28709 0.0
C1036 C 0.14885 0.62403 0.25387 0.0
C1037 C 0.18492 0.688 0.28668 0.0
N1038 N 0.09028 0.65519 0.26268 0.0
N1039 N 0.23428 0.6499 0.31673 0.0
H1040 H 0.19641 0.74463 0.27552 0.0
H1041 H 0.23453 0.71836 0.29199 0.0
H1042 H 0.24746 0.6245 0.32037 0.0
H1043 H 0.24572 0.6713 0.33708 0.0
H1044 H 0.07561 0.63089 0.25746 0.0
H1045 H 0.07382 0.67743 0.27279 0.0
H1046 H 0.10823 0.59546 0.21337 0.0
H1047 H 0.14878 0.57031 0.22454 0.0
C1048 C 0.30752 0.81363 0.81251 0.0
C1049 C 0.34579 0.80723 0.80429 0.0
C1050 C 0.35305 0.87127 0.77864 0.0
C1051 C 0.31495 0.87639 0.78554 0.0
N1052 N 0.26084 0.85934 0.83041 0.0
N1053 N 0.40651 0.83475 0.79928 0.0
C1054 C 0.29451 0.85018 0.81185 0.0
C1055 C 0.36928 0.83765 0.79388 0.0
N1056 N 0.28282 0.78534 0.81494 0.0
N1057 N 0.37297 0.89769 0.75509 0.0
H1058 H 0.41906 0.8114 0.81389 0.0
H1059 H 0.42428 0.85698 0.79479 0.0
H1060 H 0.36117 0.92285 0.74531 0.0
H1061 H 0.40017 0.8939 0.7439 0.0
H1062 H 0.25451 0.78956 0.81766 0.0
H1063 H 0.28953 0.75815 0.80707 0.0
H1064 H 0.24532 0.8414 0.85198 0.0
H1065 H 0.2507 0.88617 0.82813 0.0
C1066 C 0.16353 0.36084 0.69734 0.0
C1067 C 0.17551 0.36374 0.74642 0.0
C1068 C 0.11682 0.33971 0.77664 0.0
C1069 C 0.10886 0.32951 0.72787 0.0
N1070 N 0.11216 0.34749 0.64343 0.0
N1071 N 0.15859 0.37194 0.83127 0.0
C1072 C 0.1278 0.34687 0.6888 0.0
C1073 C 0.15024 0.35865 0.78576 0.0
N1074 N 0.18694 0.36837 0.65938 0.0
N1075 N 0.09348 0.33005 0.81374 0.0
H1076 H 0.18257 0.38691 0.83794 0.0
H1077 H 0.14074 0.37099 0.86116 0.0
H1078 H 0.06683 0.3208 0.80707 0.0
H1079 H 0.09998 0.33211 0.85076 0.0
H1080 H 0.18076 0.3627 0.6229 0.0
H1081 H 0.21336 0.37876 0.66458 0.0
H1082 H 0.12347 0.36144 0.61362 0.0
H1083 H 0.08591 0.33664 0.63759 0.0
C1084 C 0.69351 0.19566 0.78868 0.0
C1085 C 0.65512 0.20192 0.78339 0.0
C1086 C 0.64801 0.13703 0.76046 0.0
C1087 C 0.68595 0.13154 0.7689 0.0
N1088 N 0.74019 0.15157 0.81109 0.0
N1089 N 0.5944 0.17422 0.77941 0.0
C1090 C 0.7064 0.15928 0.79212 0.0
C1091 C 0.63164 0.17124 0.77414 0.0
N1092 N 0.71823 0.22367 0.78387 0.0
N1093 N 0.62819 0.1102 0.73781 0.0
H1094 H 0.58161 0.19787 0.79276 0.0
H1095 H 0.57675 0.1518 0.7759 0.0
H1096 H 0.63981 0.08465 0.72942 0.0
H1097 H 0.60124 0.11406 0.72586 0.0
H1098 H 0.74656 0.21957 0.78558 0.0
H1099 H 0.71087 0.2498 0.7715 0.0
H1100 H 0.75567 0.17116 0.82988 0.0
H1101 H 0.75056 0.12476 0.81181 0.0
C1102 C 0.83896 0.62673 0.78276 0.0
C1103 C 0.80749 0.64853 0.79424 0.0
C1104 C 0.84872 0.69869 0.81719 0.0
C1105 C 0.87714 0.68167 0.7906 0.0
N1106 N 0.90213 0.62771 0.75305 0.0
N1107 N 0.78336 0.70878 0.81677 0.0
C1108 C 0.87341 0.64462 0.77615 0.0
C1109 C 0.8125 0.68529 0.81133 0.0
N1110 N 0.8362 0.58938 0.77913 0.0
N1111 N 0.85592 0.7301 0.84268 0.0
H1112 H 0.75669 0.70233 0.80597 0.0
H1113 H 0.78648 0.73644 0.82587 0.0
H1114 H 0.88261 0.74064 0.84481 0.0
H1115 H 0.83644 0.74301 0.86498 0.0
H1116 H 0.85894 0.5723 0.77402 0.0
H1117 H 0.81188 0.57521 0.78663 0.0
H1118 H 0.90006 0.60206 0.73622 0.0
H1119 H 0.92765 0.64068 0.74945 0.0
C1120 C 0.27445 0.01629 0.4513 0.0
C1121 C 0.23991 0.01197 0.42789 0.0
C1122 C 0.21625 0.97677 0.49743 0.0
C1123 C 0.25055 0.9817 0.52141 0.0
N1124 N 0.31421 2e-05 0.51936 0.0
N1125 N 0.181 0.98216 0.42233 0.0
C1126 C 0.28033 -0.00044 0.49768 0.0
C1127 C 0.21182 0.99012 0.44893 0.0
N1128 N 0.30109 0.03733 0.42956 0.0
N1129 N 0.18759 0.96041 0.52172 0.0
H1130 H 0.17669 0.99217 0.38699 0.0
H1131 H 0.1611 0.96328 0.4333 0.0
H1132 H 0.18991 0.94924 0.55676 0.0
H1133 H 0.16075 0.9597 0.50862 0.0
H1134 H 0.32516 0.04558 0.4469 0.0
H1135 H 0.29852 0.04774 0.39407 0.0
H1136 H 0.33806 0.00923 0.50211 0.0
H1137 H 0.31906 0.98905 0.5541 0.0
C1138 C 0.94279 0.23812 0.48472 0.0
C1139 C 0.94253 0.20228 0.46422 0.0
C1140 C 0.97069 0.17752 0.53816 0.0
C1141 C 0.977 0.21396 0.55428 0.0
N1142 N 0.97161 0.27946 0.5425 0.0
N1143 N 0.9575 0.13771 0.46929 0.0
C1144 C 0.9634 0.24449 0.5278 0.0
C1145 C 0.95651 0.17178 0.49054 0.0
N1146 N 0.92277 0.26574 0.46366 0.0
N1147 N 0.97841 0.14861 0.56848 0.0
H1148 H 0.94701 0.13242 0.43444 0.0
H1149 H 0.97102 0.11526 0.48465 0.0
H1150 H 0.9887 0.15222 0.60384 0.0
H1151 H 0.97141 0.12149 0.56054 0.0
H1152 H 0.91905 0.29141 0.47991 0.0
H1153 H 0.90708 0.26196 0.43212 0.0
H1154 H 0.96615 0.30265 0.5213 0.0
H1155 H 0.986 0.28515 0.57465 0.0
C1156 C 0.81201 0.00165 0.45505 0.0
C1157 C 0.78508 0.97924 0.43273 0.0
C1158 C 0.74033 0.99583 0.4962 0.0
C1159 C 0.76834 0.01543 0.52084 0.0
N1160 N 0.83262 0.03107 0.52952 0.0
N1161 N 0.72584 0.94909 0.43615 0.0
C1162 C 0.80475 0.01671 0.50192 0.0
C1163 C 0.74976 0.97465 0.45435 0.0
N1164 N 0.84441 0.00876 0.43121 0.0
N1165 N 0.70471 -0.00196 0.51223 0.0
H1166 H 0.73161 0.933 0.40541 0.0
H1167 H 0.70145 0.94175 0.45376 0.0
H1168 H 0.69699 0.01278 0.54346 0.0
H1169 H 0.68252 0.9876 0.49259 0.0
H1170 H 0.86341 0.02816 0.44327 0.0
H1171 H 0.85092 -0.00248 0.39705 0.0
H1172 H 0.86027 0.0293 0.51961 0.0
H1173 H 0.82862 0.04173 0.56464 0.0
C1174 C 0.97694 0.78832 0.51263 0.0
C1175 C 0.98702 0.75434 0.5347 0.0
C1176 C 0.02434 0.73854 0.46291 0.0
C1177 C 0.01239 0.77151 0.4399 0.0
N1178 N 0.97181 0.82372 0.43759 0.0
N1179 N 0.01521 0.69454 0.52879 0.0
C1180 C 0.98681 0.79506 0.46313 0.0
C1181 C 0.00926 0.72863 0.50922 0.0
N1182 N 0.95906 0.81466 0.53953 0.0
N1183 N 0.05088 0.71735 0.44117 0.0
H1184 H 0.00542 0.68688 0.56332 0.0
H1185 H 0.02773 0.67311 0.50965 0.0
H1186 H 0.06134 0.72275 0.40624 0.0
H1187 H 0.064 0.69558 0.45871 0.0
H1188 H 0.95416 0.84122 0.52684 0.0
H1189 H 0.952 0.81127 0.57634 0.0
H1190 H 0.95027 0.83984 0.45085 0.0
H1191 H 0.97857 0.82917 0.40107 0.0
C1192 C 0.68746 0.47078 0.92697 0.0
C1193 C 0.71243 0.49855 0.91265 0.0
C1194 C 0.75241 0.48399 0.98169 0.0
C1195 C 0.72429 0.46106 0.00055 0.0
N1196 N 0.66457 0.43253 0.99307 0.0
N1197 N 0.76866 0.53261 0.92506 0.0
C1198 C 0.69183 0.45392 0.97342 0.0
C1199 C 0.74525 0.50511 0.93922 0.0
N1200 N 0.65962 0.46083 0.89612 0.0
N1201 N 0.78596 0.4852 0.00418 0.0
H1202 H 0.76531 0.54756 0.89276 0.0
H1203 H 0.79039 0.54194 0.94648 0.0
H1204 H 0.79199 0.4701 0.03568 0.0
H1205 H 0.80878 0.49859 0.98945 0.0
H1206 H 0.64235 0.43847 0.90239 0.0
H1207 H 0.65603 0.473 0.8618 0.0
H1208 H 0.63865 0.42962 0.97743 0.0
H1209 H 0.66693 0.41941 0.02692 0.0
C1210 C 0.49087 0.69219 0.99121 0.0
C1211 C 0.46626 0.71559 0.9662 0.0
C1212 C 0.46828 0.76024 0.03343 0.0
C1213 C 0.4906 0.73542 0.05998 0.0
N1214 N 0.51853 0.67538 0.06857 0.0
N1215 N 0.42832 0.77018 0.96373 0.0
C1216 C 0.50049 0.7006 0.04018 0.0
C1217 C 0.45404 0.74923 0.98733 0.0
N1218 N 0.50555 0.66233 0.96766 0.0
N1219 N 0.4617 0.79466 0.05172 0.0
H1220 H 0.41878 0.7642 0.92861 0.0
H1221 H 0.41495 0.79249 0.97981 0.0
H1222 H 0.47044 0.8029 0.08644 0.0
H1223 H 0.44937 0.81567 0.03171 0.0
H1224 H 0.52669 0.64632 0.98202 0.0
H1225 H 0.49889 0.65546 0.93162 0.0
H1226 H 0.52337 0.64833 0.05781 0.0
H1227 H 0.52592 0.68034 0.10485 0.0
C1228 C 0.23186 0.48527 0.03136 0.0
C1229 C 0.26377 0.48109 0.06071 0.0
C1230 C 0.29612 0.45088 0.99328 0.0
C1231 C 0.26402 0.45431 0.96412 0.0
N1232 N 0.19967 0.46907 0.95654 0.0
N1233 N 0.32305 0.45363 0.07446 0.0
C1234 C 0.23129 0.46978 0.98354 0.0
C1235 C 0.29481 0.46161 0.04322 0.0
N1236 N 0.20267 0.50516 0.04882 0.0
N1237 N 0.32827 0.43876 0.97257 0.0
H1238 H 0.32293 0.46168 0.11117 0.0
H1239 H 0.34488 0.43632 0.06543 0.0
H1240 H 0.33046 0.43084 0.93592 0.0
H1241 H 0.35353 0.43921 0.99044 0.0
H1242 H 0.18057 0.51346 0.0273 0.0
H1243 H 0.20131 0.51474 0.08486 0.0
H1244 H 0.17395 0.47629 0.97043 0.0
H1245 H 0.19876 0.45907 0.92069 0.0
C1246 C 0.53108 0.34747 0.98874 0.0
C1247 C 0.54492 0.3164 0.9633 0.0
C1248 C 0.51873 0.27525 0.02491 0.0
C1249 C 0.50683 0.30636 0.05193 0.0
N1250 N 0.50758 0.37188 0.06545 0.0
N1251 N 0.56049 0.25178 0.96317 0.0
C1252 C 0.5149 0.34249 0.03566 0.0
C1253 C 0.54142 0.28056 0.98324 0.0
N1254 N 0.53259 0.3815 0.96749 0.0
N1255 N 0.50718 0.24079 0.03778 0.0
H1256 H 0.57766 0.25455 0.93267 0.0
H1257 H 0.56192 0.2259 0.97948 0.0
H1258 H 0.49052 0.23568 0.06825 0.0
H1259 H 0.5117 0.21765 0.01603 0.0
H1260 H 0.51945 0.40457 0.98192 0.0
H1261 H 0.54477 0.3862 0.93335 0.0
H1262 H 0.51613 0.39859 0.05769 0.0
H1263 H 0.49573 0.36908 0.10016 0.0
loop_
_geom_bond_atom_site_label_1
_geom_bond_atom_site_label_2
_geom_bond_distance
_geom_bond_site_symmetry_2
_ccdc_geom_bond_type
Co0 O3 1.970 . S
Co0 N17 1.989 . S
Co0 O25 1.967 . S
Co0 O32 1.920 . S
Co1 O4 1.966 . S
Co1 N10 2.022 . S
Co1 N18 1.993 . S
Co1 O26 1.941 . S
C2 O3 1.258 . S
C2 O4 1.263 . S
O3 Co0 1.970 . S
O3 C2 1.258 . S
O4 Co1 1.966 . S
O4 C2 1.263 . S
C5 O6 1.235 . S
C5 O32 1.289 . S
O6 C5 1.235 . S
C7 C9 1.400 1_545 S
C7 N10 1.351 . S
C7 C12 1.501 . S
C8 C9 1.387 . S
C8 N11 1.341 . S
C9 C7 1.400 1_565 S
C9 C8 1.387 . S
N10 Co1 2.022 . S
N10 C7 1.351 . S
N10 N11 1.365 1_545 S
N11 C8 1.341 . S
N11 N10 1.365 1_565 S
N11 H31 0.862 1_565 S
C12 C7 1.501 . S
C12 H13 0.961 . S
C12 H14 0.961 . S
C12 H15 0.960 . S
H13 C12 0.961 . S
H14 C12 0.961 . S
H15 C12 0.960 . S
C16 N17 1.342 . S
C16 C20 1.401 . S
C16 C21 1.499 . S
N17 Co0 1.989 . S
N17 C16 1.342 . S
N17 N18 1.388 . S
N18 Co1 1.993 . S
N18 N17 1.388 . S
N18 C19 1.346 . S
C19 N18 1.346 . S
C19 C20 1.396 . S
C19 C29 1.510 1_545 S
C20 C16 1.401 . S
C20 C19 1.396 . S
C21 C16 1.499 . S
C21 H22 0.959 . S
C21 H23 0.960 . S
C21 H24 0.961 . S
H22 C21 0.959 . S
H23 C21 0.960 . S
H24 C21 0.961 . S
O25 Co0 1.967 . S
O25 C33 1.258 . S
O26 Co1 1.941 . S
O26 C33 1.266 . S
H27 C29 0.959 . S
H28 C29 0.961 . S
C29 C19 1.510 1_565 S
C29 H27 0.959 . S
C29 H28 0.961 . S
C29 H30 0.960 . S
H30 C29 0.960 . S
H31 N11 0.862 1_545 S
O32 Co0 1.920 . S
O32 C5 1.289 . S
C33 O25 1.258 . S
C33 O26 1.266 . S
Co34 O37 1.970 . S
Co34 N51 1.989 . S
Co34 O59 1.967 . S
Co34 O66 1.920 . S
Co35 O38 1.966 . S
Co35 N44 2.022 . S
Co35 N52 1.993 . S
Co35 O60 1.941 . S
C36 O37 1.258 . S
C36 O38 1.263 . S
O37 Co34 1.970 . S
O37 C36 1.258 . S
O38 Co35 1.966 . S
O38 C36 1.263 . S
C39 O40 1.235 . S
C39 O66 1.289 . S
O40 C39 1.235 . S
C41 C43 1.400 1_655 S
C41 N44 1.351 . S
C41 C46 1.501 . S
C42 C43 1.387 . S
C42 N45 1.341 . S
C43 C41 1.400 1_455 S
C43 C42 1.387 . S
N44 Co35 2.022 . S
N44 C41 1.351 . S
N44 N45 1.365 1_655 S
N45 C42 1.341 . S
N45 N44 1.365 1_455 S
N45 H65 0.862 1_455 S
C46 C41 1.501 . S
C46 H47 0.961 . S
C46 H48 0.961 . S
C46 H49 0.960 . S
H47 C46 0.961 . S
H48 C46 0.961 . S
H49 C46 0.960 . S
C50 N51 1.342 . S
C50 C54 1.401 . S
C50 C55 1.499 . S
N51 Co34 1.989 . S
N51 C50 1.342 . S
N51 N52 1.388 . S
N52 Co35 1.993 . S
N52 N51 1.388 . S
N52 C53 1.346 . S
C53 N52 1.346 . S
C53 C54 1.396 . S
C53 C63 1.510 1_655 S
C54 C50 1.401 . S
C54 C53 1.396 . S
C55 C50 1.499 . S
C55 H56 0.959 . S
C55 H57 0.960 . S
C55 H58 0.961 . S
H56 C55 0.959 . S
H57 C55 0.960 . S
H58 C55 0.961 . S
O59 Co34 1.967 . S
O59 C67 1.258 . S
O60 Co35 1.941 . S
O60 C67 1.266 . S
H61 C63 0.959 . S
H62 C63 0.961 . S
C63 C53 1.510 1_455 S
C63 H61 0.959 . S
C63 H62 0.961 . S
C63 H64 0.960 . S
H64 C63 0.960 . S
H65 N45 0.862 1_655 S
O66 Co34 1.920 . S
O66 C39 1.289 . S
C67 O59 1.258 . S
C67 O60 1.266 . S
Co68 O71 1.970 . S
Co68 N85 1.989 . S
Co68 O93 1.967 . S
Co68 O100 1.920 . S
Co69 O72 1.966 . S
Co69 N78 2.022 . S
Co69 N86 1.993 . S
Co69 O94 1.941 . S
C70 O71 1.258 . S
C70 O72 1.263 . S
O71 Co68 1.970 . S
O71 C70 1.258 . S
O72 Co69 1.966 . S
O72 C70 1.263 . S
C73 O74 1.235 . S
C73 O100 1.289 . S
O74 C73 1.235 . S
C75 C77 1.400 1_565 S
C75 N78 1.351 . S
C75 C80 1.501 . S
C76 C77 1.387 . S
C76 N79 1.341 . S
C77 C75 1.400 1_545 S
C77 C76 1.387 . S
N78 Co69 2.022 . S
N78 C75 1.351 . S
N78 N79 1.365 1_565 S
N79 C76 1.341 . S
N79 N78 1.365 1_545 S
N79 H99 0.862 1_545 S
C80 C75 1.501 . S
C80 H81 0.961 . S
C80 H82 0.961 . S
C80 H83 0.960 . S
H81 C80 0.961 . S
H82 C80 0.961 . S
H83 C80 0.960 . S
C84 N85 1.342 . S
C84 C88 1.401 . S
C84 C89 1.499 . S
N85 Co68 1.989 . S
N85 C84 1.342 . S
N85 N86 1.388 . S
N86 Co69 1.993 . S
N86 N85 1.388 . S
N86 C87 1.346 . S
C87 N86 1.346 . S
C87 C88 1.396 . S
C87 C97 1.510 1_565 S
C88 C84 1.401 . S
C88 C87 1.396 . S
C89 C84 1.499 . S
C89 H90 0.959 . S
C89 H91 0.960 . S
C89 H92 0.961 . S
H90 C89 0.959 . S
H91 C89 0.960 . S
H92 C89 0.961 . S
O93 Co68 1.967 . S
O93 C101 1.258 . S
O94 Co69 1.941 . S
O94 C101 1.266 . S
H95 C97 0.959 . S
H96 C97 0.961 . S
C97 C87 1.510 1_545 S
C97 H95 0.959 . S
C97 H96 0.961 . S
C97 H98 0.960 . S
H98 C97 0.960 . S
H99 N79 0.862 1_565 S
O100 Co68 1.920 . S
O100 C73 1.289 . S
C101 O93 1.258 . S
C101 O94 1.266 . S
Co102 O105 1.970 . S
Co102 N119 1.989 . S
Co102 O127 1.967 . S
Co102 O134 1.920 . S
Co103 O106 1.966 . S
Co103 N112 2.022 . S
Co103 N120 1.993 . S
Co103 O128 1.941 . S
C104 O105 1.258 . S
C104 O106 1.263 . S
O105 Co102 1.970 . S
O105 C104 1.258 . S
O106 Co103 1.966 . S
O106 C104 1.263 . S
C107 O108 1.235 . S
C107 O134 1.289 . S
O108 C107 1.235 . S
C109 C111 1.400 1_455 S
C109 N112 1.351 . S
C109 C114 1.501 . S
C110 C111 1.387 . S
C110 N113 1.341 . S
C111 C109 1.400 1_655 S
C111 C110 1.387 . S
N112 Co103 2.022 . S
N112 C109 1.351 . S
N112 N113 1.365 1_455 S
N113 C110 1.341 . S
N113 N112 1.365 1_655 S
N113 H133 0.862 1_655 S
C114 C109 1.501 . S
C114 H115 0.961 . S
C114 H116 0.961 . S
C114 H117 0.960 . S
H115 C114 0.961 . S
H116 C114 0.961 . S
H117 C114 0.960 . S
C118 N119 1.342 . S
C118 C122 1.401 . S
C118 C123 1.499 . S
N119 Co102 1.989 . S
N119 C118 1.342 . S
N119 N120 1.388 . S
N120 Co103 1.993 . S
N120 N119 1.388 . S
N120 C121 1.346 . S
C121 N120 1.346 . S
C121 C122 1.396 . S
C121 C131 1.510 1_455 S
C122 C118 1.401 . S
C122 C121 1.396 . S
C123 C118 1.499 . S
C123 H124 0.959 . S
C123 H125 0.960 . S
C123 H126 0.961 . S
H124 C123 0.959 . S
H125 C123 0.960 . S
H126 C123 0.961 . S
O127 Co102 1.967 . S
O127 C135 1.258 . S
O128 Co103 1.941 . S
O128 C135 1.266 . S
H129 C131 0.959 . S
H130 C131 0.961 . S
C131 C121 1.510 1_655 S
C131 H129 0.959 . S
C131 H130 0.961 . S
C131 H132 0.960 . S
H132 C131 0.960 . S
H133 N113 0.862 1_455 S
O134 Co102 1.920 . S
O134 C107 1.289 . S
C135 O127 1.258 . S
C135 O128 1.266 . S
Co136 O139 1.970 . S
Co136 N153 1.989 . S
Co136 O161 1.967 . S
Co136 O168 1.920 . S
Co137 O140 1.966 . S
Co137 N146 2.022 . S
Co137 N154 1.993 . S
Co137 O162 1.941 . S
C138 O139 1.258 . S
C138 O140 1.263 . S
O139 Co136 1.970 . S
O139 C138 1.258 . S
O140 Co137 1.966 . S
O140 C138 1.263 . S
C141 O142 1.235 . S
C141 O168 1.289 . S
O142 C141 1.235 . S
C143 C145 1.400 1_565 S
C143 N146 1.351 . S
C143 C148 1.501 . S
C144 C145 1.387 . S
C144 N147 1.341 . S
C145 C143 1.400 1_545 S
C145 C144 1.387 . S
N146 Co137 2.022 . S
N146 C143 1.351 . S
N146 N147 1.365 1_565 S
N147 C144 1.341 . S
N147 N146 1.365 1_545 S
N147 H167 0.862 1_545 S
C148 C143 1.501 . S
C148 H149 0.961 . S
C148 H150 0.961 . S
C148 H151 0.960 . S
H149 C148 0.961 . S
H150 C148 0.961 . S
H151 C148 0.960 . S
C152 N153 1.342 . S
C152 C156 1.401 . S
C152 C157 1.499 . S
N153 Co136 1.989 . S
N153 C152 1.342 . S
N153 N154 1.388 . S
N154 Co137 1.993 . S
N154 N153 1.388 . S
N154 C155 1.346 . S
C155 N154 1.346 . S
C155 C156 1.396 . S
C155 C165 1.510 1_565 S
C156 C152 1.401 . S
C156 C155 1.396 . S
C157 C152 1.499 . S
C157 H158 0.959 . S
C157 H159 0.960 . S
C157 H160 0.961 . S
H158 C157 0.959 . S
H159 C157 0.960 . S
H160 C157 0.961 . S
O161 Co136 1.967 . S
O161 C169 1.258 . S
O162 Co137 1.941 . S
O162 C169 1.266 . S
H163 C165 0.959 . S
H164 C165 0.961 . S
C165 C155 1.510 1_545 S
C165 H163 0.959 . S
C165 H164 0.961 . S
C165 H166 0.960 . S
H166 C165 0.960 . S
H167 N147 0.862 1_565 S
O168 Co136 1.920 . S
O168 C141 1.289 . S
C169 O161 1.258 . S
C169 O162 1.266 . S
Co170 O173 1.970 . S
Co170 N187 1.989 . S
Co170 O195 1.967 . S
Co170 O202 1.920 . S
Co171 O174 1.966 . S
Co171 N180 2.022 . S
Co171 N188 1.993 . S
Co171 O196 1.941 . S
C172 O173 1.258 . S
C172 O174 1.263 . S
O173 Co170 1.970 . S
O173 C172 1.258 . S
O174 Co171 1.966 . S
O174 C172 1.263 . S
C175 O176 1.235 . S
C175 O202 1.289 . S
O176 C175 1.235 . S
C177 C179 1.400 1_455 S
C177 N180 1.351 . S
C177 C182 1.501 . S
C178 C179 1.387 . S
C178 N181 1.341 . S
C179 C177 1.400 1_655 S
C179 C178 1.387 . S
N180 Co171 2.022 . S
N180 C177 1.351 . S
N180 N181 1.365 1_455 S
N181 C178 1.341 . S
N181 N180 1.365 1_655 S
N181 H201 0.862 1_655 S
C182 C177 1.501 . S
C182 H183 0.961 . S
C182 H184 0.961 . S
C182 H185 0.960 . S
H183 C182 0.961 . S
H184 C182 0.961 . S
H185 C182 0.960 . S
C186 N187 1.342 . S
C186 C190 1.401 . S
C186 C191 1.499 . S
N187 Co170 1.989 . S
N187 C186 1.342 . S
N187 N188 1.388 . S
N188 Co171 1.993 . S
N188 N187 1.388 . S
N188 C189 1.346 . S
C189 N188 1.346 . S
C189 C190 1.396 . S
C189 C199 1.510 1_455 S
C190 C186 1.401 . S
C190 C189 1.396 . S
C191 C186 1.499 . S
C191 H192 0.959 . S
C191 H193 0.960 . S
C191 H194 0.961 . S
H192 C191 0.959 . S
H193 C191 0.960 . S
H194 C191 0.961 . S
O195 Co170 1.967 . S
O195 C203 1.258 . S
O196 Co171 1.941 . S
O196 C203 1.266 . S
H197 C199 0.959 . S
H198 C199 0.961 . S
C199 C189 1.510 1_655 S
C199 H197 0.959 . S
C199 H198 0.961 . S
C199 H200 0.960 . S
H200 C199 0.960 . S
H201 N181 0.862 1_455 S
O202 Co170 1.920 . S
O202 C175 1.289 . S
C203 O195 1.258 . S
C203 O196 1.266 . S
Co204 O207 1.970 . S
Co204 N221 1.989 . S
Co204 O229 1.967 . S
Co204 O236 1.920 . S
Co205 O208 1.966 . S
Co205 N214 2.022 . S
Co205 N222 1.993 . S
Co205 O230 1.941 . S
C206 O207 1.258 . S
C206 O208 1.263 . S
O207 Co204 1.970 . S
O207 C206 1.258 . S
O208 Co205 1.966 . S
O208 C206 1.263 . S
C209 O210 1.235 . S
C209 O236 1.289 . S
O210 C209 1.235 . S
C211 C213 1.400 1_545 S
C211 N214 1.351 . S
C211 C216 1.501 . S
C212 C213 1.387 . S
C212 N215 1.341 . S
C213 C211 1.400 1_565 S
C213 C212 1.387 . S
N214 Co205 2.022 . S
N214 C211 1.351 . S
N214 N215 1.365 1_545 S
N215 C212 1.341 . S
N215 N214 1.365 1_565 S
N215 H235 0.862 1_565 S
C216 C211 1.501 . S
C216 H217 0.961 . S
C216 H218 0.961 . S
C216 H219 0.960 . S
H217 C216 0.961 . S
H218 C216 0.961 . S
H219 C216 0.960 . S
C220 N221 1.342 . S
C220 C224 1.401 . S
C220 C225 1.499 . S
N221 Co204 1.989 . S
N221 C220 1.342 . S
N221 N222 1.388 . S
N222 Co205 1.993 . S
N222 N221 1.388 . S
N222 C223 1.346 . S
C223 N222 1.346 . S
C223 C224 1.396 . S
C223 C233 1.510 1_545 S
C224 C220 1.401 . S
C224 C223 1.396 . S
C225 C220 1.499 . S
C225 H226 0.959 . S
C225 H227 0.960 . S
C225 H228 0.961 . S
H226 C225 0.959 . S
H227 C225 0.960 . S
H228 C225 0.961 . S
O229 Co204 1.967 . S
O229 C237 1.258 . S
O230 Co205 1.941 . S
O230 C237 1.266 . S
H231 C233 0.959 . S
H232 C233 0.961 . S
C233 C223 1.510 1_565 S
C233 H231 0.959 . S
C233 H232 0.961 . S
C233 H234 0.960 . S
H234 C233 0.960 . S
H235 N215 0.862 1_545 S
O236 Co204 1.920 . S
O236 C209 1.289 . S
C237 O229 1.258 . S
C237 O230 1.266 . S
Co238 O241 1.970 . S
Co238 N255 1.989 . S
Co238 O263 1.967 . S
Co238 O270 1.920 . S
Co239 O242 1.966 . S
Co239 N248 2.022 . S
Co239 N256 1.993 . S
Co239 O264 1.941 . S
C240 O241 1.258 . S
C240 O242 1.263 . S
O241 Co238 1.970 . S
O241 C240 1.258 . S
O242 Co239 1.966 . S
O242 C240 1.263 . S
C243 O244 1.235 . S
C243 O270 1.289 . S
O244 C243 1.235 . S
C245 C247 1.400 1_655 S
C245 N248 1.351 . S
C245 C250 1.501 . S
C246 C247 1.387 . S
C246 N249 1.341 . S
C247 C245 1.400 1_455 S
C247 C246 1.387 . S
N248 Co239 2.022 . S
N248 C245 1.351 . S
N248 N249 1.365 1_655 S
N249 C246 1.341 . S
N249 N248 1.365 1_455 S
N249 H269 0.862 1_455 S
C250 C245 1.501 . S
C250 H251 0.961 . S
C250 H252 0.961 . S
C250 H253 0.960 . S
H251 C250 0.961 . S
H252 C250 0.961 . S
H253 C250 0.960 . S
C254 N255 1.342 . S
C254 C258 1.401 . S
C254 C259 1.499 . S
N255 Co238 1.989 . S
N255 C254 1.342 . S
N255 N256 1.388 . S
N256 Co239 1.993 . S
N256 N255 1.388 . S
N256 C257 1.346 . S
C257 N256 1.346 . S
C257 C258 1.396 . S
C257 C267 1.510 1_655 S
C258 C254 1.401 . S
C258 C257 1.396 . S
C259 C254 1.499 . S
C259 H260 0.959 . S
C259 H261 0.960 . S
C259 H262 0.961 . S
H260 C259 0.959 . S
H261 C259 0.960 . S
H262 C259 0.961 . S
O263 Co238 1.967 . S
O263 C271 1.258 . S
O264 Co239 1.941 . S
O264 C271 1.266 . S
H265 C267 0.959 . S
H266 C267 0.961 . S
C267 C257 1.510 1_455 S
C267 H265 0.959 . S
C267 H266 0.961 . S
C267 H268 0.960 . S
H268 C267 0.960 . S
H269 N249 0.862 1_655 S
O270 Co238 1.920 . S
O270 C243 1.289 . S
C271 O263 1.258 . S
C271 O264 1.266 . S
Co272 O275 1.970 . S
Co272 N289 1.989 . S
Co272 O297 1.967 . S
Co272 O304 1.920 . S
Co273 O276 1.966 . S
Co273 N282 2.022 . S
Co273 N290 1.993 . S
Co273 O298 1.941 . S
C274 O275 1.258 . S
C274 O276 1.263 . S
O275 Co272 1.970 . S
O275 C274 1.258 . S
O276 Co273 1.966 . S
O276 C274 1.263 . S
C277 O278 1.235 . S
C277 O304 1.289 . S
O278 C277 1.235 . S
C279 C281 1.400 . S
C279 N282 1.351 . S
C279 C284 1.501 . S
C280 C281 1.387 . S
C280 N283 1.341 . S
C281 C279 1.400 . S
C281 C280 1.387 . S
N282 Co273 2.022 . S
N282 C279 1.351 . S
N282 N283 1.365 . S
N283 C280 1.341 . S
N283 N282 1.365 . S
N283 H303 0.862 . S
C284 C279 1.501 . S
C284 H285 0.961 . S
C284 H286 0.961 . S
C284 H287 0.960 . S
H285 C284 0.961 . S
H286 C284 0.961 . S
H287 C284 0.960 . S
C288 N289 1.342 . S
C288 C292 1.401 . S
C288 C293 1.499 . S
N289 Co272 1.989 . S
N289 C288 1.342 . S
N289 N290 1.388 . S
N290 Co273 1.993 . S
N290 N289 1.388 . S
N290 C291 1.346 . S
C291 N290 1.346 . S
C291 C292 1.396 . S
C291 C301 1.510 . S
C292 C288 1.401 . S
C292 C291 1.396 . S
C293 C288 1.499 . S
C293 H294 0.959 . S
C293 H295 0.960 . S
C293 H296 0.961 . S
H294 C293 0.959 . S
H295 C293 0.960 . S
H296 C293 0.961 . S
O297 Co272 1.967 . S
O297 C305 1.258 . S
O298 Co273 1.941 . S
O298 C305 1.266 . S
H299 C301 0.959 . S
H300 C301 0.961 . S
C301 C291 1.510 . S
C301 H299 0.959 . S
C301 H300 0.961 . S
C301 H302 0.960 . S
H302 C301 0.960 . S
H303 N283 0.862 . S
O304 Co272 1.920 . S
O304 C277 1.289 . S
C305 O297 1.258 . S
C305 O298 1.266 . S
Co306 O309 1.970 . S
Co306 N323 1.989 . S
Co306 O331 1.967 . S
Co306 O338 1.920 . S
Co307 O310 1.966 . S
Co307 N316 2.022 . S
Co307 N324 1.993 . S
Co307 O332 1.941 . S
C308 O309 1.258 . S
C308 O310 1.263 . S
O309 Co306 1.970 . S
O309 C308 1.258 . S
O310 Co307 1.966 . S
O310 C308 1.263 . S
C311 O312 1.235 . S
C311 O338 1.289 . S
O312 C311 1.235 . S
C313 C315 1.400 . S
C313 N316 1.351 . S
C313 C318 1.501 . S
C314 C315 1.387 . S
C314 N317 1.341 . S
C315 C313 1.400 . S
C315 C314 1.387 . S
N316 Co307 2.022 . S
N316 C313 1.351 . S
N316 N317 1.365 . S
N317 C314 1.341 . S
N317 N316 1.365 . S
N317 H337 0.862 . S
C318 C313 1.501 . S
C318 H319 0.961 . S
C318 H320 0.961 . S
C318 H321 0.960 . S
H319 C318 0.961 . S
H320 C318 0.961 . S
H321 C318 0.960 . S
C322 N323 1.342 . S
C322 C326 1.401 . S
C322 C327 1.499 . S
N323 Co306 1.989 . S
N323 C322 1.342 . S
N323 N324 1.388 . S
N324 Co307 1.993 . S
N324 N323 1.388 . S
N324 C325 1.346 . S
C325 N324 1.346 . S
C325 C326 1.396 . S
C325 C335 1.510 . S
C326 C322 1.401 . S
C326 C325 1.396 . S
C327 C322 1.499 . S
C327 H328 0.959 . S
C327 H329 0.960 . S
C327 H330 0.961 . S
H328 C327 0.959 . S
H329 C327 0.960 . S
H330 C327 0.961 . S
O331 Co306 1.967 . S
O331 C339 1.258 . S
O332 Co307 1.941 . S
O332 C339 1.266 . S
H333 C335 0.959 . S
H334 C335 0.961 . S
C335 C325 1.510 . S
C335 H333 0.959 . S
C335 H334 0.961 . S
C335 H336 0.960 . S
H336 C335 0.960 . S
H337 N317 0.862 . S
O338 Co306 1.920 . S
O338 C311 1.289 . S
C339 O331 1.258 . S
C339 O332 1.266 . S
Co340 O343 1.970 . S
Co340 N357 1.989 . S
Co340 O365 1.967 . S
Co340 O372 1.920 . S
Co341 O344 1.966 . S
Co341 N350 2.022 . S
Co341 N358 1.993 . S
Co341 O366 1.941 . S
C342 O343 1.258 . S
C342 O344 1.263 . S
O343 Co340 1.970 . S
O343 C342 1.258 . S
O344 Co341 1.966 . S
O344 C342 1.263 . S
C345 O346 1.235 . S
C345 O372 1.289 . S
O346 C345 1.235 . S
C347 C349 1.400 . S
C347 N350 1.351 . S
C347 C352 1.501 . S
C348 C349 1.387 . S
C348 N351 1.341 . S
C349 C347 1.400 . S
C349 C348 1.387 . S
N350 Co341 2.022 . S
N350 C347 1.351 . S
N350 N351 1.365 . S
N351 C348 1.341 . S
N351 N350 1.365 . S
N351 H371 0.862 . S
C352 C347 1.501 . S
C352 H353 0.961 . S
C352 H354 0.961 . S
C352 H355 0.960 . S
H353 C352 0.961 . S
H354 C352 0.961 . S
H355 C352 0.960 . S
C356 N357 1.342 . S
C356 C360 1.401 . S
C356 C361 1.499 . S
N357 Co340 1.989 . S
N357 C356 1.342 . S
N357 N358 1.388 . S
N358 Co341 1.993 . S
N358 N357 1.388 . S
N358 C359 1.346 . S
C359 N358 1.346 . S
C359 C360 1.396 . S
C359 C369 1.510 . S
C360 C356 1.401 . S
C360 C359 1.396 . S
C361 C356 1.499 . S
C361 H362 0.959 . S
C361 H363 0.960 . S
C361 H364 0.961 . S
H362 C361 0.959 . S
H363 C361 0.960 . S
H364 C361 0.961 . S
O365 Co340 1.967 . S
O365 C373 1.258 . S
O366 Co341 1.941 . S
O366 C373 1.266 . S
H367 C369 0.959 . S
H368 C369 0.961 . S
C369 C359 1.510 . S
C369 H367 0.959 . S
C369 H368 0.961 . S
C369 H370 0.960 . S
H370 C369 0.960 . S
H371 N351 0.862 . S
O372 Co340 1.920 . S
O372 C345 1.289 . S
C373 O365 1.258 . S
C373 O366 1.266 . S
Co374 O377 1.970 . S
Co374 N391 1.989 . S
Co374 O399 1.967 . S
Co374 O406 1.920 . S
Co375 O378 1.966 . S
Co375 N384 2.022 . S
Co375 N392 1.993 . S
Co375 O400 1.941 . S
C376 O377 1.258 . S
C376 O378 1.263 . S
O377 Co374 1.970 . S
O377 C376 1.258 . S
O378 Co375 1.966 . S
O378 C376 1.263 . S
C379 O380 1.235 . S
C379 O406 1.289 . S
O380 C379 1.235 . S
C381 C383 1.400 . S
C381 N384 1.351 . S
C381 C386 1.501 . S
C382 C383 1.387 . S
C382 N385 1.341 . S
C383 C381 1.400 . S
C383 C382 1.387 . S
N384 Co375 2.022 . S
N384 C381 1.351 . S
N384 N385 1.365 . S
N385 C382 1.341 . S
N385 N384 1.365 . S
N385 H405 0.862 . S
C386 C381 1.501 . S
C386 H387 0.961 . S
C386 H388 0.961 . S
C386 H389 0.960 . S
H387 C386 0.961 . S
H388 C386 0.961 . S
H389 C386 0.960 . S
C390 N391 1.342 . S
C390 C394 1.401 . S
C390 C395 1.499 . S
N391 Co374 1.989 . S
N391 C390 1.342 . S
N391 N392 1.388 . S
N392 Co375 1.993 . S
N392 N391 1.388 . S
N392 C393 1.346 . S
C393 N392 1.346 . S
C393 C394 1.396 . S
C393 C403 1.510 . S
C394 C390 1.401 . S
C394 C393 1.396 . S
C395 C390 1.499 . S
C395 H396 0.959 . S
C395 H397 0.960 . S
C395 H398 0.961 . S
H396 C395 0.959 . S
H397 C395 0.960 . S
H398 C395 0.961 . S
O399 Co374 1.967 . S
O399 C407 1.258 . S
O400 Co375 1.941 . S
O400 C407 1.266 . S
H401 C403 0.959 . S
H402 C403 0.961 . S
C403 C393 1.510 . S
C403 H401 0.959 . S
C403 H402 0.961 . S
C403 H404 0.960 . S
H404 C403 0.960 . S
H405 N385 0.862 . S
O406 Co374 1.920 . S
O406 C379 1.289 . S
C407 O399 1.258 . S
C407 O400 1.266 . S
Co408 O411 1.970 . S
Co408 N425 1.989 . S
Co408 O433 1.967 . S
Co408 O440 1.920 . S
Co409 O412 1.966 . S
Co409 N418 2.022 . S
Co409 N426 1.993 . S
Co409 O434 1.941 . S
C410 O411 1.258 . S
C410 O412 1.263 . S
O411 Co408 1.970 . S
O411 C410 1.258 . S
O412 Co409 1.966 . S
O412 C410 1.263 . S
C413 O414 1.235 . S
C413 O440 1.289 . S
O414 C413 1.235 . S
C415 C417 1.400 . S
C415 N418 1.351 . S
C415 C420 1.501 . S
C416 C417 1.387 . S
C416 N419 1.341 . S
C417 C415 1.400 . S
C417 C416 1.387 . S
N418 Co409 2.022 . S
N418 C415 1.351 . S
N418 N419 1.365 . S
N419 C416 1.341 . S
N419 N418 1.365 . S
N419 H439 0.862 . S
C420 C415 1.501 . S
C420 H421 0.961 . S
C420 H422 0.961 . S
C420 H423 0.960 . S
H421 C420 0.961 . S
H422 C420 0.961 . S
H423 C420 0.960 . S
C424 N425 1.342 . S
C424 C428 1.401 . S
C424 C429 1.499 . S
N425 Co408 1.989 . S
N425 C424 1.342 . S
N425 N426 1.388 . S
N426 Co409 1.993 . S
N426 N425 1.388 . S
N426 C427 1.346 . S
C427 N426 1.346 . S
C427 C428 1.396 . S
C427 C437 1.510 . S
C428 C424 1.401 . S
C428 C427 1.396 . S
C429 C424 1.499 . S
C429 H430 0.959 . S
C429 H431 0.960 . S
C429 H432 0.961 . S
H430 C429 0.959 . S
H431 C429 0.960 . S
H432 C429 0.961 . S
O433 Co408 1.967 . S
O433 C441 1.258 . S
O434 Co409 1.941 . S
O434 C441 1.266 . S
H435 C437 0.959 . S
H436 C437 0.961 . S
C437 C427 1.510 . S
C437 H435 0.959 . S
C437 H436 0.961 . S
C437 H438 0.960 . S
H438 C437 0.960 . S
H439 N419 0.862 . S
O440 Co408 1.920 . S
O440 C413 1.289 . S
C441 O433 1.258 . S
C441 O434 1.266 . S
Co442 O445 1.970 . S
Co442 N459 1.989 . S
Co442 O467 1.967 . S
Co442 O474 1.920 . S
Co443 O446 1.966 . S
Co443 N452 2.022 . S
Co443 N460 1.993 . S
Co443 O468 1.941 . S
C444 O445 1.258 . S
C444 O446 1.263 . S
O445 Co442 1.970 . S
O445 C444 1.258 . S
O446 Co443 1.966 . S
O446 C444 1.263 . S
C447 O448 1.235 . S
C447 O474 1.289 . S
O448 C447 1.235 . S
C449 C451 1.400 . S
C449 N452 1.351 . S
C449 C454 1.501 . S
C450 C451 1.387 . S
C450 N453 1.341 . S
C451 C449 1.400 . S
C451 C450 1.387 . S
N452 Co443 2.022 . S
N452 C449 1.351 . S
N452 N453 1.365 . S
N453 C450 1.341 . S
N453 N452 1.365 . S
N453 H473 0.862 . S
C454 C449 1.501 . S
C454 H455 0.961 . S
C454 H456 0.961 . S
C454 H457 0.960 . S
H455 C454 0.961 . S
H456 C454 0.961 . S
H457 C454 0.960 . S
C458 N459 1.342 . S
C458 C462 1.401 . S
C458 C463 1.499 . S
N459 Co442 1.989 . S
N459 C458 1.342 . S
N459 N460 1.388 . S
N460 Co443 1.993 . S
N460 N459 1.388 . S
N460 C461 1.346 . S
C461 N460 1.346 . S
C461 C462 1.396 . S
C461 C471 1.510 . S
C462 C458 1.401 . S
C462 C461 1.396 . S
C463 C458 1.499 . S
C463 H464 0.959 . S
C463 H465 0.960 . S
C463 H466 0.961 . S
H464 C463 0.959 . S
H465 C463 0.960 . S
H466 C463 0.961 . S
O467 Co442 1.967 . S
O467 C475 1.258 . S
O468 Co443 1.941 . S
O468 C475 1.266 . S
H469 C471 0.959 . S
H470 C471 0.961 . S
C471 C461 1.510 . S
C471 H469 0.959 . S
C471 H470 0.961 . S
C471 H472 0.960 . S
H472 C471 0.960 . S
H473 N453 0.862 . S
O474 Co442 1.920 . S
O474 C447 1.289 . S
C475 O467 1.258 . S
C475 O468 1.266 . S
Co476 O479 1.970 . S
Co476 N493 1.989 . S
Co476 O501 1.967 . S
Co476 O508 1.920 . S
Co477 O480 1.966 . S
Co477 N486 2.022 . S
Co477 N494 1.993 . S
Co477 O502 1.941 . S
C478 O479 1.258 . S
C478 O480 1.263 . S
O479 Co476 1.970 . S
O479 C478 1.258 . S
O480 Co477 1.966 . S
O480 C478 1.263 . S
C481 O482 1.235 . S
C481 O508 1.289 . S
O482 C481 1.235 . S
C483 C485 1.400 . S
C483 N486 1.351 . S
C483 C488 1.501 . S
C484 C485 1.387 . S
C484 N487 1.341 . S
C485 C483 1.400 . S
C485 C484 1.387 . S
N486 Co477 2.022 . S
N486 C483 1.351 . S
N486 N487 1.365 . S
N487 C484 1.341 . S
N487 N486 1.365 . S
N487 H507 0.862 . S
C488 C483 1.501 . S
C488 H489 0.961 . S
C488 H490 0.961 . S
C488 H491 0.960 . S
H489 C488 0.961 . S
H490 C488 0.961 . S
H491 C488 0.960 . S
C492 N493 1.342 . S
C492 C496 1.401 . S
C492 C497 1.499 . S
N493 Co476 1.989 . S
N493 C492 1.342 . S
N493 N494 1.388 . S
N494 Co477 1.993 . S
N494 N493 1.388 . S
N494 C495 1.346 . S
C495 N494 1.346 . S
C495 C496 1.396 . S
C495 C505 1.510 . S
C496 C492 1.401 . S
C496 C495 1.396 . S
C497 C492 1.499 . S
C497 H498 0.959 . S
C497 H499 0.960 . S
C497 H500 0.961 . S
H498 C497 0.959 . S
H499 C497 0.960 . S
H500 C497 0.961 . S
O501 Co476 1.967 . S
O501 C509 1.258 . S
O502 Co477 1.941 . S
O502 C509 1.266 . S
H503 C505 0.959 . S
H504 C505 0.961 . S
C505 C495 1.510 . S
C505 H503 0.959 . S
C505 H504 0.961 . S
C505 H506 0.960 . S
H506 C505 0.960 . S
H507 N487 0.862 . S
O508 Co476 1.920 . S
O508 C481 1.289 . S
C509 O501 1.258 . S
C509 O502 1.266 . S
Co510 O513 1.970 . S
Co510 N527 1.989 . S
Co510 O535 1.967 . S
Co510 O542 1.920 . S
Co511 O514 1.966 . S
Co511 N520 2.022 . S
Co511 N528 1.993 . S
Co511 O536 1.941 . S
C512 O513 1.258 . S
C512 O514 1.263 . S
O513 Co510 1.970 . S
O513 C512 1.258 . S
O514 Co511 1.966 . S
O514 C512 1.263 . S
C515 O516 1.235 . S
C515 O542 1.289 . S
O516 C515 1.235 . S
C517 C519 1.400 . S
C517 N520 1.351 . S
C517 C522 1.501 . S
C518 C519 1.387 . S
C518 N521 1.341 . S
C519 C517 1.400 . S
C519 C518 1.387 . S
N520 Co511 2.022 . S
N520 C517 1.351 . S
N520 N521 1.365 . S
N521 C518 1.341 . S
N521 N520 1.365 . S
N521 H541 0.862 . S
C522 C517 1.501 . S
C522 H523 0.961 . S
C522 H524 0.961 . S
C522 H525 0.960 . S
H523 C522 0.961 . S
H524 C522 0.961 . S
H525 C522 0.960 . S
C526 N527 1.342 . S
C526 C530 1.401 . S
C526 C531 1.499 . S
N527 Co510 1.989 . S
N527 C526 1.342 . S
N527 N528 1.388 . S
N528 Co511 1.993 . S
N528 N527 1.388 . S
N528 C529 1.346 . S
C529 N528 1.346 . S
C529 C530 1.396 . S
C529 C539 1.510 . S
C530 C526 1.401 . S
C530 C529 1.396 . S
C531 C526 1.499 . S
C531 H532 0.959 . S
C531 H533 0.960 . S
C531 H534 0.961 . S
H532 C531 0.959 . S
H533 C531 0.960 . S
H534 C531 0.961 . S
O535 Co510 1.967 . S
O535 C543 1.258 . S
O536 Co511 1.941 . S
O536 C543 1.266 . S
H537 C539 0.959 . S
H538 C539 0.961 . S
C539 C529 1.510 . S
C539 H537 0.959 . S
C539 H538 0.961 . S
C539 H540 0.960 . S
H540 C539 0.960 . S
H541 N521 0.862 . S
O542 Co510 1.920 . S
O542 C515 1.289 . S
C543 O535 1.258 . S
C543 O536 1.266 . S
C544 C545 1.363 . S
C544 C550 1.379 . S
C544 N552 1.356 . S
C545 C544 1.363 . S
C545 C551 1.363 . S
C546 C547 1.363 . S
C546 C551 1.379 . S
C546 N553 1.356 . S
C547 C546 1.363 . S
C547 C550 1.363 . S
N548 C550 1.356 . S
N548 H560 0.984 . S
N548 H561 0.985 . S
N549 C551 1.356 . S
N549 H554 0.984 . S
N549 H555 0.985 . S
C550 C544 1.379 . S
C550 C547 1.363 . S
C550 N548 1.356 . S
C551 C545 1.363 . S
C551 C546 1.379 . S
C551 N549 1.356 . S
N552 C544 1.356 . S
N552 H558 0.984 . S
N552 H559 0.984 . S
N553 C546 1.356 . S
N553 H556 0.984 . S
N553 H557 0.985 . S
H554 N549 0.984 . S
H555 N549 0.985 . S
H556 N553 0.984 . S
H557 N553 0.985 . S
H558 N552 0.984 . S
H559 N552 0.984 . S
H560 N548 0.984 . S
H561 N548 0.985 . S
C562 C563 1.363 . S
C562 C568 1.379 . S
C562 N570 1.356 . S
C563 C562 1.363 . S
C563 C569 1.363 . S
C564 C565 1.363 . S
C564 C569 1.379 . S
C564 N571 1.356 . S
C565 C564 1.363 . S
C565 C568 1.363 . S
N566 C568 1.356 . S
N566 H578 0.984 . S
N566 H579 0.985 . S
N567 C569 1.356 . S
N567 H572 0.984 . S
N567 H573 0.985 . S
C568 C562 1.379 . S
C568 C565 1.363 . S
C568 N566 1.356 . S
C569 C563 1.363 . S
C569 C564 1.379 . S
C569 N567 1.356 . S
N570 C562 1.356 . S
N570 H576 0.984 . S
N570 H577 0.984 . S
N571 C564 1.356 . S
N571 H574 0.984 . S
N571 H575 0.985 . S
H572 N567 0.984 . S
H573 N567 0.985 . S
H574 N571 0.984 . S
H575 N571 0.985 . S
H576 N570 0.984 . S
H577 N570 0.984 . S
H578 N566 0.984 . S
H579 N566 0.985 . S
C580 C581 1.363 . S
C580 C586 1.379 . S
C580 N588 1.356 . S
C581 C580 1.363 . S
C581 C587 1.363 . S
C582 C583 1.363 . S
C582 C587 1.379 . S
C582 N589 1.356 . S
C583 C582 1.363 . S
C583 C586 1.363 . S
N584 C586 1.356 . S
N584 H596 0.984 . S
N584 H597 0.985 . S
N585 C587 1.356 . S
N585 H590 0.984 . S
N585 H591 0.985 . S
C586 C580 1.379 . S
C586 C583 1.363 . S
C586 N584 1.356 . S
C587 C581 1.363 . S
C587 C582 1.379 . S
C587 N585 1.356 . S
N588 C580 1.356 . S
N588 H594 0.984 . S
N588 H595 0.984 . S
N589 C582 1.356 . S
N589 H592 0.984 . S
N589 H593 0.985 . S
H590 N585 0.984 . S
H591 N585 0.985 . S
H592 N589 0.984 . S
H593 N589 0.985 . S
H594 N588 0.984 . S
H595 N588 0.984 . S
H596 N584 0.984 . S
H597 N584 0.985 . S
C598 C599 1.363 . S
C598 C604 1.379 . S
C598 N606 1.356 . S
C599 C598 1.363 . S
C599 C605 1.363 . S
C600 C601 1.363 . S
C600 C605 1.379 . S
C600 N607 1.356 . S
C601 C600 1.363 . S
C601 C604 1.363 . S
N602 C604 1.356 . S
N602 H614 0.984 . S
N602 H615 0.985 . S
N603 C605 1.356 . S
N603 H608 0.984 . S
N603 H609 0.985 . S
C604 C598 1.379 . S
C604 C601 1.363 . S
C604 N602 1.356 . S
C605 C599 1.363 . S
C605 C600 1.379 . S
C605 N603 1.356 . S
N606 C598 1.356 . S
N606 H612 0.984 . S
N606 H613 0.984 . S
N607 C600 1.356 . S
N607 H610 0.984 . S
N607 H611 0.985 . S
H608 N603 0.984 . S
H609 N603 0.985 . S
H610 N607 0.984 . S
H611 N607 0.985 . S
H612 N606 0.984 . S
H613 N606 0.984 . S
H614 N602 0.984 . S
H615 N602 0.985 . S
C616 C617 1.363 . S
C616 C622 1.379 . S
C616 N624 1.356 . S
C617 C616 1.363 . S
C617 C623 1.363 . S
C618 C619 1.363 . S
C618 C623 1.379 . S
C618 N625 1.356 . S
C619 C618 1.363 . S
C619 C622 1.363 . S
N620 C622 1.356 . S
N620 H632 0.984 . S
N620 H633 0.985 . S
N621 C623 1.356 . S
N621 H626 0.984 . S
N621 H627 0.985 . S
C622 C616 1.379 . S
C622 C619 1.363 . S
C622 N620 1.356 . S
C623 C617 1.363 . S
C623 C618 1.379 . S
C623 N621 1.356 . S
N624 C616 1.356 . S
N624 H630 0.984 . S
N624 H631 0.984 . S
N625 C618 1.356 . S
N625 H628 0.984 . S
N625 H629 0.985 . S
H626 N621 0.984 . S
H627 N621 0.985 . S
H628 N625 0.984 . S
H629 N625 0.985 . S
H630 N624 0.984 . S
H631 N624 0.984 . S
H632 N620 0.984 . S
H633 N620 0.985 . S
C634 C635 1.363 . S
C634 C640 1.379 . S
C634 N642 1.356 . S
C635 C634 1.363 . S
C635 C641 1.363 . S
C636 C637 1.363 . S
C636 C641 1.379 . S
C636 N643 1.356 . S
C637 C636 1.363 . S
C637 C640 1.363 . S
N638 C640 1.356 . S
N638 H650 0.984 . S
N638 H651 0.985 . S
N639 C641 1.356 . S
N639 H644 0.984 . S
N639 H645 0.985 . S
C640 C634 1.379 . S
C640 C637 1.363 . S
C640 N638 1.356 . S
C641 C635 1.363 . S
C641 C636 1.379 . S
C641 N639 1.356 . S
N642 C634 1.356 . S
N642 H648 0.984 . S
N642 H649 0.984 . S
N643 C636 1.356 . S
N643 H646 0.984 . S
N643 H647 0.985 . S
H644 N639 0.984 . S
H645 N639 0.985 . S
H646 N643 0.984 . S
H647 N643 0.985 . S
H648 N642 0.984 . S
H649 N642 0.984 . S
H650 N638 0.984 . S
H651 N638 0.985 . S
C652 C653 1.363 . S
C652 C658 1.379 . S
C652 N660 1.356 . S
C653 C652 1.363 . S
C653 C659 1.363 . S
C654 C655 1.363 . S
C654 C659 1.379 . S
C654 N661 1.356 . S
C655 C654 1.363 . S
C655 C658 1.363 . S
N656 C658 1.356 . S
N656 H668 0.984 . S
N656 H669 0.985 . S
N657 C659 1.356 . S
N657 H662 0.984 . S
N657 H663 0.985 . S
C658 C652 1.379 . S
C658 C655 1.363 . S
C658 N656 1.356 . S
C659 C653 1.363 . S
C659 C654 1.379 . S
C659 N657 1.356 . S
N660 C652 1.356 . S
N660 H666 0.984 . S
N660 H667 0.984 . S
N661 C654 1.356 . S
N661 H664 0.984 . S
N661 H665 0.985 . S
H662 N657 0.984 . S
H663 N657 0.985 . S
H664 N661 0.984 . S
H665 N661 0.985 . S
H666 N660 0.984 . S
H667 N660 0.984 . S
H668 N656 0.984 . S
H669 N656 0.985 . S
C670 C671 1.363 . S
C670 C676 1.379 . S
C670 N678 1.356 . S
C671 C670 1.363 . S
C671 C677 1.363 . S
C672 C673 1.363 . S
C672 C677 1.379 . S
C672 N679 1.356 . S
C673 C672 1.363 . S
C673 C676 1.363 . S
N674 C676 1.356 . S
N674 H686 0.984 . S
N674 H687 0.985 . S
N675 C677 1.356 . S
N675 H680 0.984 . S
N675 H681 0.985 . S
C676 C670 1.379 . S
C676 C673 1.363 . S
C676 N674 1.356 . S
C677 C671 1.363 . S
C677 C672 1.379 . S
C677 N675 1.356 . S
N678 C670 1.356 . S
N678 H684 0.984 . S
N678 H685 0.984 . S
N679 C672 1.356 . S
N679 H682 0.984 . S
N679 H683 0.985 . S
H680 N675 0.984 . S
H681 N675 0.985 . S
H682 N679 0.984 . S
H683 N679 0.985 . S
H684 N678 0.984 . S
H685 N678 0.984 . S
H686 N674 0.984 . S
H687 N674 0.985 . S
C688 C689 1.363 . S
C688 C694 1.379 . S
C688 N696 1.356 . S
C689 C688 1.363 . S
C689 C695 1.363 . S
C690 C691 1.363 . S
C690 C695 1.379 . S
C690 N697 1.356 . S
C691 C690 1.363 . S
C691 C694 1.363 . S
N692 C694 1.356 . S
N692 H704 0.984 . S
N692 H705 0.985 . S
N693 C695 1.356 . S
N693 H698 0.984 . S
N693 H699 0.985 . S
C694 C688 1.379 . S
C694 C691 1.363 . S
C694 N692 1.356 . S
C695 C689 1.363 . S
C695 C690 1.379 . S
C695 N693 1.356 . S
N696 C688 1.356 . S
N696 H702 0.984 . S
N696 H703 0.984 . S
N697 C690 1.356 . S
N697 H700 0.984 . S
N697 H701 0.985 . S
H698 N693 0.984 . S
H699 N693 0.985 . S
H700 N697 0.984 . S
H701 N697 0.985 . S
H702 N696 0.984 . S
H703 N696 0.984 . S
H704 N692 0.984 . S
H705 N692 0.985 . S
C706 C707 1.363 . S
C706 C712 1.379 . S
C706 N714 1.356 . S
C707 C706 1.363 . S
C707 C713 1.363 . S
C708 C709 1.363 . S
C708 C713 1.379 . S
C708 N715 1.356 . S
C709 C708 1.363 . S
C709 C712 1.363 . S
N710 C712 1.356 . S
N710 H722 0.984 . S
N710 H723 0.985 . S
N711 C713 1.356 . S
N711 H716 0.984 . S
N711 H717 0.985 . S
C712 C706 1.379 . S
C712 C709 1.363 . S
C712 N710 1.356 . S
C713 C707 1.363 . S
C713 C708 1.379 . S
C713 N711 1.356 . S
N714 C706 1.356 . S
N714 H720 0.984 . S
N714 H721 0.984 . S
N715 C708 1.356 . S
N715 H718 0.984 . S
N715 H719 0.985 . S
H716 N711 0.984 . S
H717 N711 0.985 . S
H718 N715 0.984 . S
H719 N715 0.985 . S
H720 N714 0.984 . S
H721 N714 0.984 . S
H722 N710 0.984 . S
H723 N710 0.985 . S
C724 C725 1.363 . S
C724 C730 1.379 . S
C724 N732 1.356 . S
C725 C724 1.363 . S
C725 C731 1.363 . S
C726 C727 1.363 . S
C726 C731 1.379 . S
C726 N733 1.356 . S
C727 C726 1.363 . S
C727 C730 1.363 . S
N728 C730 1.356 . S
N728 H740 0.984 . S
N728 H741 0.985 . S
N729 C731 1.356 . S
N729 H734 0.984 . S
N729 H735 0.985 . S
C730 C724 1.379 . S
C730 C727 1.363 . S
C730 N728 1.356 . S
C731 C725 1.363 . S
C731 C726 1.379 . S
C731 N729 1.356 . S
N732 C724 1.356 . S
N732 H738 0.984 . S
N732 H739 0.984 . S
N733 C726 1.356 . S
N733 H736 0.984 . S
N733 H737 0.985 . S
H734 N729 0.984 . S
H735 N729 0.985 . S
H736 N733 0.984 . S
H737 N733 0.985 . S
H738 N732 0.984 . S
H739 N732 0.984 . S
H740 N728 0.984 . S
H741 N728 0.985 . S
C742 C743 1.363 . S
C742 C748 1.379 . S
C742 N750 1.356 . S
C743 C742 1.363 . S
C743 C749 1.363 . S
C744 C745 1.363 . S
C744 C749 1.379 . S
C744 N751 1.356 . S
C745 C744 1.363 . S
C745 C748 1.363 . S
N746 C748 1.356 . S
N746 H758 0.984 . S
N746 H759 0.985 . S
N747 C749 1.356 . S
N747 H752 0.984 . S
N747 H753 0.985 . S
C748 C742 1.379 . S
C748 C745 1.363 . S
C748 N746 1.356 . S
C749 C743 1.363 . S
C749 C744 1.379 . S
C749 N747 1.356 . S
N750 C742 1.356 . S
N750 H756 0.984 . S
N750 H757 0.984 . S
N751 C744 1.356 . S
N751 H754 0.984 . S
N751 H755 0.985 . S
H752 N747 0.984 . S
H753 N747 0.985 . S
H754 N751 0.984 . S
H755 N751 0.985 . S
H756 N750 0.984 . S
H757 N750 0.984 . S
H758 N746 0.984 . S
H759 N746 0.985 . S
C760 C761 1.363 . S
C760 C766 1.379 . S
C760 N768 1.356 . S
C761 C760 1.363 . S
C761 C767 1.363 . S
C762 C763 1.363 . S
C762 C767 1.379 . S
C762 N769 1.356 . S
C763 C762 1.363 . S
C763 C766 1.363 . S
N764 C766 1.356 . S
N764 H776 0.984 . S
N764 H777 0.985 . S
N765 C767 1.356 . S
N765 H770 0.984 . S
N765 H771 0.985 . S
C766 C760 1.379 . S
C766 C763 1.363 . S
C766 N764 1.356 . S
C767 C761 1.363 . S
C767 C762 1.379 . S
C767 N765 1.356 . S
N768 C760 1.356 . S
N768 H774 0.984 . S
N768 H775 0.984 . S
N769 C762 1.356 . S
N769 H772 0.984 . S
N769 H773 0.985 . S
H770 N765 0.984 . S
H771 N765 0.985 . S
H772 N769 0.984 . S
H773 N769 0.985 . S
H774 N768 0.984 . S
H775 N768 0.984 . S
H776 N764 0.984 . S
H777 N764 0.985 . S
C778 C779 1.363 . S
C778 C784 1.379 . S
C778 N786 1.356 . S
C779 C778 1.363 . S
C779 C785 1.363 . S
C780 C781 1.363 . S
C780 C785 1.379 . S
C780 N787 1.356 . S
C781 C780 1.363 . S
C781 C784 1.363 . S
N782 C784 1.356 . S
N782 H794 0.984 . S
N782 H795 0.985 . S
N783 C785 1.356 . S
N783 H788 0.984 . S
N783 H789 0.985 . S
C784 C778 1.379 . S
C784 C781 1.363 . S
C784 N782 1.356 . S
C785 C779 1.363 . S
C785 C780 1.379 . S
C785 N783 1.356 . S
N786 C778 1.356 . S
N786 H792 0.984 . S
N786 H793 0.984 . S
N787 C780 1.356 . S
N787 H790 0.984 . S
N787 H791 0.985 . S
H788 N783 0.984 . S
H789 N783 0.985 . S
H790 N787 0.984 . S
H791 N787 0.985 . S
H792 N786 0.984 . S
H793 N786 0.984 . S
H794 N782 0.984 . S
H795 N782 0.985 . S
C796 C797 1.363 . S
C796 C802 1.379 . S
C796 N804 1.356 . S
C797 C796 1.363 . S
C797 C803 1.363 . S
C798 C799 1.363 . S
C798 C803 1.379 . S
C798 N805 1.356 . S
C799 C798 1.363 . S
C799 C802 1.363 . S
N800 C802 1.356 . S
N800 H812 0.984 . S
N800 H813 0.985 . S
N801 C803 1.356 . S
N801 H806 0.984 . S
N801 H807 0.985 . S
C802 C796 1.379 . S
C802 C799 1.363 . S
C802 N800 1.356 . S
C803 C797 1.363 . S
C803 C798 1.379 . S
C803 N801 1.356 . S
N804 C796 1.356 . S
N804 H810 0.984 . S
N804 H811 0.984 . S
N805 C798 1.356 . S
N805 H808 0.984 . S
N805 H809 0.985 . S
H806 N801 0.984 . S
H807 N801 0.985 . S
H808 N805 0.984 . S
H809 N805 0.985 . S
H810 N804 0.984 . S
H811 N804 0.984 . S
H812 N800 0.984 . S
H813 N800 0.985 . S
C814 C815 1.363 . S
C814 C820 1.379 . S
C814 N822 1.356 . S
C815 C814 1.363 . S
C815 C821 1.363 . S
C816 C817 1.363 . S
C816 C821 1.379 . S
C816 N823 1.356 . S
C817 C816 1.363 . S
C817 C820 1.363 . S
N818 C820 1.356 . S
N818 H830 0.984 . S
N818 H831 0.985 . S
N819 C821 1.356 . S
N819 H824 0.984 . S
N819 H825 0.985 . S
C820 C814 1.379 . S
C820 C817 1.363 . S
C820 N818 1.356 . S
C821 C815 1.363 . S
C821 C816 1.379 . S
C821 N819 1.356 . S
N822 C814 1.356 . S
N822 H828 0.984 . S
N822 H829 0.984 . S
N823 C816 1.356 . S
N823 H826 0.984 . S
N823 H827 0.985 . S
H824 N819 0.984 . S
H825 N819 0.985 . S
H826 N823 0.984 . S
H827 N823 0.985 . S
H828 N822 0.984 . S
H829 N822 0.984 . S
H830 N818 0.984 . S
H831 N818 0.985 . S
C832 C833 1.363 . S
C832 C838 1.379 . S
C832 N840 1.356 . S
C833 C832 1.363 . S
C833 C839 1.363 . S
C834 C835 1.363 . S
C834 C839 1.379 . S
C834 N841 1.356 . S
C835 C834 1.363 . S
C835 C838 1.363 . S
N836 C838 1.356 . S
N836 H848 0.984 . S
N836 H849 0.985 . S
N837 C839 1.356 . S
N837 H842 0.984 . S
N837 H843 0.985 . S
C838 C832 1.379 . S
C838 C835 1.363 . S
C838 N836 1.356 . S
C839 C833 1.363 . S
C839 C834 1.379 . S
C839 N837 1.356 . S
N840 C832 1.356 . S
N840 H846 0.984 . S
N840 H847 0.984 . S
N841 C834 1.356 . S
N841 H844 0.984 . S
N841 H845 0.985 . S
H842 N837 0.984 . S
H843 N837 0.985 . S
H844 N841 0.984 . S
H845 N841 0.985 . S
H846 N840 0.984 . S
H847 N840 0.984 . S
H848 N836 0.984 . S
H849 N836 0.985 . S
C850 C851 1.363 . S
C850 C856 1.379 . S
C850 N858 1.356 . S
C851 C850 1.363 . S
C851 C857 1.363 . S
C852 C853 1.363 . S
C852 C857 1.379 . S
C852 N859 1.356 . S
C853 C852 1.363 . S
C853 C856 1.363 . S
N854 C856 1.356 . S
N854 H866 0.984 . S
N854 H867 0.985 . S
N855 C857 1.356 . S
N855 H860 0.984 . S
N855 H861 0.985 . S
C856 C850 1.379 . S
C856 C853 1.363 . S
C856 N854 1.356 . S
C857 C851 1.363 . S
C857 C852 1.379 . S
C857 N855 1.356 . S
N858 C850 1.356 . S
N858 H864 0.984 . S
N858 H865 0.984 . S
N859 C852 1.356 . S
N859 H862 0.984 . S
N859 H863 0.985 . S
H860 N855 0.984 . S
H861 N855 0.985 . S
H862 N859 0.984 . S
H863 N859 0.985 . S
H864 N858 0.984 . S
H865 N858 0.984 . S
H866 N854 0.984 . S
H867 N854 0.985 . S
C868 C869 1.363 . S
C868 C874 1.379 . S
C868 N876 1.356 . S
C869 C868 1.363 . S
C869 C875 1.363 . S
C870 C871 1.363 . S
C870 C875 1.379 . S
C870 N877 1.356 . S
C871 C870 1.363 . S
C871 C874 1.363 . S
N872 C874 1.356 . S
N872 H884 0.984 . S
N872 H885 0.985 . S
N873 C875 1.356 . S
N873 H878 0.984 . S
N873 H879 0.985 . S
C874 C868 1.379 . S
C874 C871 1.363 . S
C874 N872 1.356 . S
C875 C869 1.363 . S
C875 C870 1.379 . S
C875 N873 1.356 . S
N876 C868 1.356 . S
N876 H882 0.984 . S
N876 H883 0.984 . S
N877 C870 1.356 . S
N877 H880 0.984 . S
N877 H881 0.985 . S
H878 N873 0.984 . S
H879 N873 0.985 . S
H880 N877 0.984 . S
H881 N877 0.985 . S
H882 N876 0.984 . S
H883 N876 0.984 . S
H884 N872 0.984 . S
H885 N872 0.985 . S
C886 C887 1.363 . S
C886 C892 1.379 . S
C886 N894 1.356 . S
C887 C886 1.363 . S
C887 C893 1.363 . S
C888 C889 1.363 . S
C888 C893 1.379 . S
C888 N895 1.356 . S
C889 C888 1.363 . S
C889 C892 1.363 . S
N890 C892 1.356 . S
N890 H902 0.984 . S
N890 H903 0.985 . S
N891 C893 1.356 . S
N891 H896 0.984 . S
N891 H897 0.985 . S
C892 C886 1.379 . S
C892 C889 1.363 . S
C892 N890 1.356 . S
C893 C887 1.363 . S
C893 C888 1.379 . S
C893 N891 1.356 . S
N894 C886 1.356 . S
N894 H900 0.984 . S
N894 H901 0.984 . S
N895 C888 1.356 . S
N895 H898 0.984 . S
N895 H899 0.985 . S
H896 N891 0.984 . S
H897 N891 0.985 . S
H898 N895 0.984 . S
H899 N895 0.985 . S
H900 N894 0.984 . S
H901 N894 0.984 . S
H902 N890 0.984 . S
H903 N890 0.985 . S
C904 C905 1.363 . S
C904 C910 1.379 1_556 S
C904 N912 1.356 . S
C905 C904 1.363 . S
C905 C911 1.363 . S
C906 C907 1.363 . S
C906 C911 1.379 1_554 S
C906 N913 1.356 . S
C907 C906 1.363 . S
C907 C910 1.363 . S
N908 C910 1.356 . S
N908 H920 0.984 . S
N908 H921 0.985 . S
N909 C911 1.356 . S
N909 H914 0.984 . S
N909 H915 0.985 . S
C910 C904 1.379 1_554 S
C910 C907 1.363 . S
C910 N908 1.356 . S
C911 C905 1.363 . S
C911 C906 1.379 1_556 S
C911 N909 1.356 . S
N912 C904 1.356 . S
N912 H918 0.984 . S
N912 H919 0.984 . S
N913 C906 1.356 . S
N913 H916 0.984 . S
N913 H917 0.985 . S
H914 N909 0.984 . S
H915 N909 0.985 . S
H916 N913 0.984 . S
H917 N913 0.985 . S
H918 N912 0.984 . S
H919 N912 0.984 . S
H920 N908 0.984 . S
H921 N908 0.985 . S
C922 C923 1.363 1_554 S
C922 C928 1.379 . S
C922 N930 1.356 1_554 S
C923 C922 1.363 1_556 S
C923 C929 1.363 . S
C924 C925 1.363 1_556 S
C924 C929 1.379 . S
C924 N931 1.356 1_556 S
C925 C924 1.363 1_554 S
C925 C928 1.363 . S
N926 C928 1.356 . S
N926 H938 0.984 . S
N926 H939 0.985 . S
N927 C929 1.356 . S
N927 H932 0.984 . S
N927 H933 0.985 . S
C928 C922 1.379 . S
C928 C925 1.363 . S
C928 N926 1.356 . S
C929 C923 1.363 . S
C929 C924 1.379 . S
C929 N927 1.356 . S
N930 C922 1.356 1_556 S
N930 H936 0.984 1_556 S
N930 H937 0.984 . S
N931 C924 1.356 1_554 S
N931 H934 0.984 . S
N931 H935 0.985 1_554 S
H932 N927 0.984 . S
H933 N927 0.985 . S
H934 N931 0.984 . S
H935 N931 0.985 1_556 S
H936 N930 0.984 1_554 S
H937 N930 0.984 . S
H938 N926 0.984 . S
H939 N926 0.985 . S
C940 C941 1.363 . S
C940 C946 1.379 1_556 S
C940 N948 1.356 . S
C941 C940 1.363 . S
C941 C947 1.363 . S
C942 C943 1.363 . S
C942 C947 1.379 1_554 S
C942 N949 1.356 . S
C943 C942 1.363 . S
C943 C946 1.363 . S
N944 C946 1.356 . S
N944 H956 0.984 . S
N944 H957 0.985 . S
N945 C947 1.356 . S
N945 H950 0.984 . S
N945 H951 0.985 . S
C946 C940 1.379 1_554 S
C946 C943 1.363 . S
C946 N944 1.356 . S
C947 C941 1.363 . S
C947 C942 1.379 1_556 S
C947 N945 1.356 . S
N948 C940 1.356 . S
N948 H954 0.984 . S
N948 H955 0.984 . S
N949 C942 1.356 . S
N949 H952 0.984 . S
N949 H953 0.985 . S
H950 N945 0.984 . S
H951 N945 0.985 . S
H952 N949 0.984 . S
H953 N949 0.985 . S
H954 N948 0.984 . S
H955 N948 0.984 . S
H956 N944 0.984 . S
H957 N944 0.985 . S
C958 C959 1.379 . S
C958 C964 1.363 1_556 S
C958 N966 1.362 . S
C959 C958 1.379 . S
C959 C965 1.363 . S
C960 C961 1.379 . S
C960 C965 1.363 1_554 S
C960 N967 1.362 . S
C961 C960 1.379 . S
C961 C964 1.363 . S
N962 C964 1.356 . S
N962 H974 0.984 . S
N962 H975 0.985 . S
N963 C965 1.356 . S
N963 H968 0.984 . S
N963 H969 0.985 . S
C964 C958 1.363 1_554 S
C964 C961 1.363 . S
C964 N962 1.356 . S
C965 C959 1.363 . S
C965 C960 1.363 1_556 S
C965 N963 1.356 . S
N966 C958 1.362 . S
N966 H972 0.984 1_556 S
N966 H973 0.984 . S
N967 C960 1.362 . S
N967 H970 0.984 . S
N967 H971 0.985 1_554 S
H968 N963 0.984 . S
H969 N963 0.985 . S
H970 N967 0.984 . S
H971 N967 0.985 1_556 S
H972 N966 0.984 1_554 S
H973 N966 0.984 . S
H974 N962 0.984 . S
H975 N962 0.985 . S
C976 C977 1.363 . S
C976 C982 1.379 . S
C976 N984 1.356 . S
C977 C976 1.363 . S
C977 C983 1.363 . S
C978 C979 1.363 . S
C978 C983 1.379 . S
C978 N985 1.356 . S
C979 C978 1.363 . S
C979 C982 1.363 . S
N980 C982 1.356 . S
N980 H992 0.984 . S
N980 H993 0.985 . S
N981 C983 1.356 . S
N981 H986 0.984 . S
N981 H987 0.985 . S
C982 C976 1.379 . S
C982 C979 1.363 . S
C982 N980 1.356 . S
C983 C977 1.363 . S
C983 C978 1.379 . S
C983 N981 1.356 . S
N984 C976 1.356 . S
N984 H990 0.984 . S
N984 H991 0.984 . S
N985 C978 1.356 . S
N985 H988 0.984 . S
N985 H989 0.985 . S
H986 N981 0.984 . S
H987 N981 0.985 . S
H988 N985 0.984 . S
H989 N985 0.985 . S
H990 N984 0.984 . S
H991 N984 0.984 . S
H992 N980 0.984 . S
H993 N980 0.985 . S
C994 C995 1.363 . S
C994 C1000 1.379 . S
C994 N1002 1.356 . S
C995 C994 1.363 . S
C995 C1001 1.363 . S
C996 C997 1.363 . S
C996 C1001 1.379 . S
C996 N1003 1.356 . S
C997 C996 1.363 . S
C997 C1000 1.363 . S
N998 C1000 1.356 . S
N998 H1010 0.984 . S
N998 H1011 0.985 . S
N999 C1001 1.356 . S
N999 H1004 0.984 . S
N999 H1005 0.985 . S
C1000 C994 1.379 . S
C1000 C997 1.363 . S
C1000 N998 1.356 . S
C1001 C995 1.363 . S
C1001 C996 1.379 . S
C1001 N999 1.356 . S
N1002 C994 1.356 . S
N1002 H1008 0.984 . S
N1002 H1009 0.984 . S
N1003 C996 1.356 . S
N1003 H1006 0.984 . S
N1003 H1007 0.985 . S
H1004 N999 0.984 . S
H1005 N999 0.985 . S
H1006 N1003 0.984 . S
H1007 N1003 0.985 . S
H1008 N1002 0.984 . S
H1009 N1002 0.984 . S
H1010 N998 0.984 . S
H1011 N998 0.985 . S
C1012 C1013 1.363 . S
C1012 C1018 1.379 . S
C1012 N1020 1.356 . S
C1013 C1012 1.363 . S
C1013 C1019 1.363 . S
C1014 C1015 1.363 . S
C1014 C1019 1.379 . S
C1014 N1021 1.356 . S
C1015 C1014 1.363 . S
C1015 C1018 1.363 . S
N1016 C1018 1.356 . S
N1016 H1028 0.984 . S
N1016 H1029 0.985 . S
N1017 C1019 1.356 . S
N1017 H1022 0.984 . S
N1017 H1023 0.985 . S
C1018 C1012 1.379 . S
C1018 C1015 1.363 . S
C1018 N1016 1.356 . S
C1019 C1013 1.363 . S
C1019 C1014 1.379 . S
C1019 N1017 1.356 . S
N1020 C1012 1.356 . S
N1020 H1026 0.984 . S
N1020 H1027 0.984 . S
N1021 C1014 1.356 . S
N1021 H1024 0.984 . S
N1021 H1025 0.985 . S
H1022 N1017 0.984 . S
H1023 N1017 0.985 . S
H1024 N1021 0.984 . S
H1025 N1021 0.985 . S
H1026 N1020 0.984 . S
H1027 N1020 0.984 . S
H1028 N1016 0.984 . S
H1029 N1016 0.985 . S
C1030 C1031 1.363 . S
C1030 C1036 1.379 . S
C1030 N1038 1.356 . S
C1031 C1030 1.363 . S
C1031 C1037 1.363 . S
C1032 C1033 1.363 . S
C1032 C1037 1.379 . S
C1032 N1039 1.356 . S
C1033 C1032 1.363 . S
C1033 C1036 1.363 . S
N1034 C1036 1.356 . S
N1034 H1046 0.984 . S
N1034 H1047 0.985 . S
N1035 C1037 1.356 . S
N1035 H1040 0.984 . S
N1035 H1041 0.985 . S
C1036 C1030 1.379 . S
C1036 C1033 1.363 . S
C1036 N1034 1.356 . S
C1037 C1031 1.363 . S
C1037 C1032 1.379 . S
C1037 N1035 1.356 . S
N1038 C1030 1.356 . S
N1038 H1044 0.984 . S
N1038 H1045 0.984 . S
N1039 C1032 1.356 . S
N1039 H1042 0.984 . S
N1039 H1043 0.985 . S
H1040 N1035 0.984 . S
H1041 N1035 0.985 . S
H1042 N1039 0.984 . S
H1043 N1039 0.985 . S
H1044 N1038 0.984 . S
H1045 N1038 0.984 . S
H1046 N1034 0.984 . S
H1047 N1034 0.985 . S
C1048 C1049 1.363 . S
C1048 C1054 1.379 . S
C1048 N1056 1.356 . S
C1049 C1048 1.363 . S
C1049 C1055 1.363 . S
C1050 C1051 1.363 . S
C1050 C1055 1.379 . S
C1050 N1057 1.356 . S
C1051 C1050 1.363 . S
C1051 C1054 1.363 . S
N1052 C1054 1.356 . S
N1052 H1064 0.984 . S
N1052 H1065 0.985 . S
N1053 C1055 1.356 . S
N1053 H1058 0.984 . S
N1053 H1059 0.985 . S
C1054 C1048 1.379 . S
C1054 C1051 1.363 . S
C1054 N1052 1.356 . S
C1055 C1049 1.363 . S
C1055 C1050 1.379 . S
C1055 N1053 1.356 . S
N1056 C1048 1.356 . S
N1056 H1062 0.984 . S
N1056 H1063 0.984 . S
N1057 C1050 1.356 . S
N1057 H1060 0.984 . S
N1057 H1061 0.985 . S
H1058 N1053 0.984 . S
H1059 N1053 0.985 . S
H1060 N1057 0.984 . S
H1061 N1057 0.985 . S
H1062 N1056 0.984 . S
H1063 N1056 0.984 . S
H1064 N1052 0.984 . S
H1065 N1052 0.985 . S
C1066 C1067 1.363 . S
C1066 C1072 1.379 . S
C1066 N1074 1.356 . S
C1067 C1066 1.363 . S
C1067 C1073 1.363 . S
C1068 C1069 1.363 . S
C1068 C1073 1.379 . S
C1068 N1075 1.356 . S
C1069 C1068 1.363 . S
C1069 C1072 1.363 . S
N1070 C1072 1.356 . S
N1070 H1082 0.984 . S
N1070 H1083 0.985 . S
N1071 C1073 1.356 . S
N1071 H1076 0.984 . S
N1071 H1077 0.985 . S
C1072 C1066 1.379 . S
C1072 C1069 1.363 . S
C1072 N1070 1.356 . S
C1073 C1067 1.363 . S
C1073 C1068 1.379 . S
C1073 N1071 1.356 . S
N1074 C1066 1.356 . S
N1074 H1080 0.984 . S
N1074 H1081 0.984 . S
N1075 C1068 1.356 . S
N1075 H1078 0.984 . S
N1075 H1079 0.985 . S
H1076 N1071 0.984 . S
H1077 N1071 0.985 . S
H1078 N1075 0.984 . S
H1079 N1075 0.985 . S
H1080 N1074 0.984 . S
H1081 N1074 0.984 . S
H1082 N1070 0.984 . S
H1083 N1070 0.985 . S
C1084 C1085 1.363 . S
C1084 C1090 1.379 . S
C1084 N1092 1.356 . S
C1085 C1084 1.363 . S
C1085 C1091 1.363 . S
C1086 C1087 1.363 . S
C1086 C1091 1.379 . S
C1086 N1093 1.356 . S
C1087 C1086 1.363 . S
C1087 C1090 1.363 . S
N1088 C1090 1.356 . S
N1088 H1100 0.984 . S
N1088 H1101 0.985 . S
N1089 C1091 1.356 . S
N1089 H1094 0.984 . S
N1089 H1095 0.985 . S
C1090 C1084 1.379 . S
C1090 C1087 1.363 . S
C1090 N1088 1.356 . S
C1091 C1085 1.363 . S
C1091 C1086 1.379 . S
C1091 N1089 1.356 . S
N1092 C1084 1.356 . S
N1092 H1098 0.984 . S
N1092 H1099 0.984 . S
N1093 C1086 1.356 . S
N1093 H1096 0.984 . S
N1093 H1097 0.985 . S
H1094 N1089 0.984 . S
H1095 N1089 0.985 . S
H1096 N1093 0.984 . S
H1097 N1093 0.985 . S
H1098 N1092 0.984 . S
H1099 N1092 0.984 . S
H1100 N1088 0.984 . S
H1101 N1088 0.985 . S
C1102 C1103 1.363 . S
C1102 C1108 1.379 . S
C1102 N1110 1.356 . S
C1103 C1102 1.363 . S
C1103 C1109 1.363 . S
C1104 C1105 1.363 . S
C1104 C1109 1.379 . S
C1104 N1111 1.356 . S
C1105 C1104 1.363 . S
C1105 C1108 1.363 . S
N1106 C1108 1.356 . S
N1106 H1118 0.984 . S
N1106 H1119 0.985 . S
N1107 C1109 1.356 . S
N1107 H1112 0.984 . S
N1107 H1113 0.985 . S
C1108 C1102 1.379 . S
C1108 C1105 1.363 . S
C1108 N1106 1.356 . S
C1109 C1103 1.363 . S
C1109 C1104 1.379 . S
C1109 N1107 1.356 . S
N1110 C1102 1.356 . S
N1110 H1116 0.984 . S
N1110 H1117 0.984 . S
N1111 C1104 1.356 . S
N1111 H1114 0.984 . S
N1111 H1115 0.985 . S
H1112 N1107 0.984 . S
H1113 N1107 0.985 . S
H1114 N1111 0.984 . S
H1115 N1111 0.985 . S
H1116 N1110 0.984 . S
H1117 N1110 0.984 . S
H1118 N1106 0.984 . S
H1119 N1106 0.985 . S
C1120 C1121 1.363 . S
C1120 C1126 1.379 . S
C1120 N1128 1.356 . S
C1121 C1120 1.363 . S
C1121 C1127 1.363 1_545 S
C1122 C1123 1.363 . S
C1122 C1127 1.379 . S
C1122 N1129 1.356 . S
C1123 C1122 1.363 . S
C1123 C1126 1.363 1_565 S
N1124 C1126 1.356 . S
N1124 H1136 0.984 . S
N1124 H1137 0.985 . S
N1125 C1127 1.356 . S
N1125 H1130 0.984 . S
N1125 H1131 0.985 . S
C1126 C1120 1.379 . S
C1126 C1123 1.363 1_545 S
C1126 N1124 1.356 . S
C1127 C1121 1.363 1_565 S
C1127 C1122 1.379 . S
C1127 N1125 1.356 . S
N1128 C1120 1.356 . S
N1128 H1134 0.984 . S
N1128 H1135 0.984 . S
N1129 C1122 1.356 . S
N1129 H1132 0.984 . S
N1129 H1133 0.985 . S
H1130 N1125 0.984 . S
H1131 N1125 0.985 . S
H1132 N1129 0.984 . S
H1133 N1129 0.985 . S
H1134 N1128 0.984 . S
H1135 N1128 0.984 . S
H1136 N1124 0.984 . S
H1137 N1124 0.985 . S
C1138 C1139 1.363 1_455 S
C1138 C1144 1.379 . S
C1138 N1146 1.356 . S
C1139 C1138 1.363 1_655 S
C1139 C1145 1.363 . S
C1140 C1141 1.363 1_655 S
C1140 C1145 1.379 . S
C1140 N1147 1.356 . S
C1141 C1140 1.363 1_455 S
C1141 C1144 1.363 . S
N1142 C1144 1.356 . S
N1142 H1154 0.984 . S
N1142 H1155 0.985 . S
N1143 C1145 1.356 . S
N1143 H1148 0.984 . S
N1143 H1149 0.985 . S
C1144 C1138 1.379 . S
C1144 C1141 1.363 . S
C1144 N1142 1.356 . S
C1145 C1139 1.363 . S
C1145 C1140 1.379 . S
C1145 N1143 1.356 . S
N1146 C1138 1.356 . S
N1146 H1152 0.984 . S
N1146 H1153 0.969 1_455 S
N1147 C1140 1.356 . S
N1147 H1150 0.969 1_655 S
N1147 H1151 0.985 . S
H1148 N1143 0.984 . S
H1149 N1143 0.985 . S
H1150 N1147 0.969 1_455 S
H1151 N1147 0.985 . S
H1152 N1146 0.984 . S
H1153 N1146 0.969 1_655 S
H1154 N1142 0.984 . S
H1155 N1142 0.985 . S
C1156 C1157 1.363 1_545 S
C1156 C1162 1.379 . S
C1156 N1164 1.356 . S
C1157 C1156 1.363 1_565 S
C1157 C1163 1.363 . S
C1158 C1159 1.363 1_565 S
C1158 C1163 1.379 . S
C1158 N1165 1.356 . S
C1159 C1158 1.363 1_545 S
C1159 C1162 1.363 . S
N1160 C1162 1.356 . S
N1160 H1172 0.984 . S
N1160 H1173 0.985 . S
N1161 C1163 1.356 . S
N1161 H1166 0.984 . S
N1161 H1167 0.985 . S
C1162 C1156 1.379 . S
C1162 C1159 1.363 . S
C1162 N1160 1.356 . S
C1163 C1157 1.363 . S
C1163 C1158 1.379 . S
C1163 N1161 1.356 . S
N1164 C1156 1.356 . S
N1164 H1170 0.984 . S
N1164 H1171 0.984 . S
N1165 C1158 1.356 . S
N1165 H1168 0.984 . S
N1165 H1169 0.985 . S
H1166 N1161 0.984 . S
H1167 N1161 0.985 . S
H1168 N1165 0.984 . S
H1169 N1165 0.985 . S
H1170 N1164 0.984 . S
H1171 N1164 0.984 . S
H1172 N1160 0.984 . S
H1173 N1160 0.985 . S
C1174 C1175 1.363 . S
C1174 C1180 1.379 . S
C1174 N1182 1.356 . S
C1175 C1174 1.363 . S
C1175 C1181 1.363 1_655 S
C1176 C1177 1.363 . S
C1176 C1181 1.379 . S
C1176 N1183 1.356 . S
C1177 C1176 1.363 . S
C1177 C1180 1.363 1_455 S
N1178 C1180 1.356 . S
N1178 H1190 0.984 . S
N1178 H1191 0.969 1_655 S
N1179 C1181 1.356 . S
N1179 H1184 0.969 1_455 S
N1179 H1185 0.985 . S
C1180 C1174 1.379 . S
C1180 C1177 1.363 1_655 S
C1180 N1178 1.356 . S
C1181 C1175 1.363 1_455 S
C1181 C1176 1.379 . S
C1181 N1179 1.356 . S
N1182 C1174 1.356 . S
N1182 H1188 0.984 . S
N1182 H1189 0.984 . S
N1183 C1176 1.356 . S
N1183 H1186 0.984 . S
N1183 H1187 0.985 . S
H1184 N1179 0.969 1_655 S
H1185 N1179 0.985 . S
H1186 N1183 0.984 . S
H1187 N1183 0.985 . S
H1188 N1182 0.984 . S
H1189 N1182 0.984 . S
H1190 N1178 0.984 . S
H1191 N1178 0.969 1_455 S
C1192 C1193 1.363 . S
C1192 C1198 1.379 1_556 S
C1192 N1200 1.356 . S
C1193 C1192 1.363 . S
C1193 C1199 1.363 . S
C1194 C1195 1.363 . S
C1194 C1199 1.379 1_554 S
C1194 N1201 1.356 . S
C1195 C1194 1.363 . S
C1195 C1198 1.363 . S
N1196 C1198 1.356 . S
N1196 H1208 0.984 . S
N1196 H1209 0.985 . S
N1197 C1199 1.356 . S
N1197 H1202 0.984 . S
N1197 H1203 0.985 . S
C1198 C1192 1.379 1_554 S
C1198 C1195 1.363 . S
C1198 N1196 1.356 . S
C1199 C1193 1.363 . S
C1199 C1194 1.379 1_556 S
C1199 N1197 1.356 . S
N1200 C1192 1.356 . S
N1200 H1206 0.984 . S
N1200 H1207 0.984 . S
N1201 C1194 1.356 . S
N1201 H1204 0.984 . S
N1201 H1205 0.985 . S
H1202 N1197 0.984 . S
H1203 N1197 0.985 . S
H1204 N1201 0.984 . S
H1205 N1201 0.985 . S
H1206 N1200 0.984 . S
H1207 N1200 0.984 . S
H1208 N1196 0.984 . S
H1209 N1196 0.985 . S
C1210 C1211 1.363 . S
C1210 C1216 1.379 1_556 S
C1210 N1218 1.356 . S
C1211 C1210 1.363 . S
C1211 C1217 1.363 . S
C1212 C1213 1.363 . S
C1212 C1217 1.379 1_554 S
C1212 N1219 1.356 . S
C1213 C1212 1.363 . S
C1213 C1216 1.363 . S
N1214 C1216 1.356 . S
N1214 H1226 0.984 . S
N1214 H1227 0.985 . S
N1215 C1217 1.356 . S
N1215 H1220 0.984 . S
N1215 H1221 0.985 . S
C1216 C1210 1.379 1_554 S
C1216 C1213 1.363 . S
C1216 N1214 1.356 . S
C1217 C1211 1.363 . S
C1217 C1212 1.379 1_556 S
C1217 N1215 1.356 . S
N1218 C1210 1.356 . S
N1218 H1224 0.984 . S
N1218 H1225 0.984 . S
N1219 C1212 1.356 . S
N1219 H1222 0.984 . S
N1219 H1223 0.985 . S
H1220 N1215 0.984 . S
H1221 N1215 0.985 . S
H1222 N1219 0.984 . S
H1223 N1219 0.985 . S
H1224 N1218 0.984 . S
H1225 N1218 0.984 . S
H1226 N1214 0.984 . S
H1227 N1214 0.985 . S
C1228 C1229 1.363 . S
C1228 C1234 1.379 1_554 S
C1228 N1236 1.356 . S
C1229 C1228 1.363 . S
C1229 C1235 1.363 . S
C1230 C1231 1.363 . S
C1230 C1235 1.379 1_556 S
C1230 N1237 1.356 . S
C1231 C1230 1.363 . S
C1231 C1234 1.363 . S
N1232 C1234 1.356 . S
N1232 H1244 0.984 . S
N1232 H1245 0.985 . S
N1233 C1235 1.356 . S
N1233 H1238 0.984 . S
N1233 H1239 0.985 . S
C1234 C1228 1.379 1_556 S
C1234 C1231 1.363 . S
C1234 N1232 1.356 . S
C1235 C1229 1.363 . S
C1235 C1230 1.379 1_554 S
C1235 N1233 1.356 . S
N1236 C1228 1.356 . S
N1236 H1242 0.984 . S
N1236 H1243 0.984 . S
N1237 C1230 1.356 . S
N1237 H1240 0.984 . S
N1237 H1241 0.985 . S
H1238 N1233 0.984 . S
H1239 N1233 0.985 . S
H1240 N1237 0.984 . S
H1241 N1237 0.985 . S
H1242 N1236 0.984 . S
H1243 N1236 0.984 . S
H1244 N1232 0.984 . S
H1245 N1232 0.985 . S
C1246 C1247 1.363 . S
C1246 C1252 1.379 1_556 S
C1246 N1254 1.356 . S
C1247 C1246 1.363 . S
C1247 C1253 1.363 . S
C1248 C1249 1.363 . S
C1248 C1253 1.379 1_554 S
C1248 N1255 1.356 . S
C1249 C1248 1.363 . S
C1249 C1252 1.363 . S
N1250 C1252 1.356 . S
N1250 H1262 0.984 . S
N1250 H1263 0.985 . S
N1251 C1253 1.356 . S
N1251 H1256 0.984 . S
N1251 H1257 0.985 . S
C1252 C1246 1.379 1_554 S
C1252 C1249 1.363 . S
C1252 N1250 1.356 . S
C1253 C1247 1.363 . S
C1253 C1248 1.379 1_556 S
C1253 N1251 1.356 . S
N1254 C1246 1.356 . S
N1254 H1260 0.984 . S
N1254 H1261 0.984 . S
N1255 C1248 1.356 . S
N1255 H1258 0.984 . S
N1255 H1259 0.985 . S
H1256 N1251 0.984 . S
H1257 N1251 0.985 . S
H1258 N1255 0.984 . S
H1259 N1255 0.985 . S
H1260 N1254 0.984 . S
H1261 N1254 0.984 . S
H1262 N1250 0.984 . S
H1263 N1250 0.985 . S
C545 C9 2.191 . S
C547 C104 2.254 . S
C563 C2 2.254 . S
C565 C43 2.191 . S
C581 C77 2.191 . S
C583 C36 2.254 . S
C599 C70 2.254 . S
C601 C111 2.191 . S
C617 C172 2.254 . S
C619 C145 2.191 . S
C635 C206 2.254 . S
C637 C179 2.191 . S
C653 C240 2.254 . S
C655 C213 2.191 . S
C671 C247 2.191 . S
C673 C138 2.254 . S
C689 C281 2.191 . S
C691 C376 2.254 . S
C707 C315 2.191 . S
C709 C274 2.254 . S
C725 C349 2.191 . S
C727 C308 2.254 . S
C743 C342 2.254 . S
C745 C383 2.191 . S
C761 C444 2.254 . S
C763 C417 2.191 . S
C779 C451 2.191 . S
C781 C478 2.254 . S
C797 C485 2.191 . S
C799 C512 2.254 . S
C815 C519 2.191 . S
C817 C410 2.254 . S
C833 C5 1.242 . S
C835 C175 1.242 . S
C851 C39 1.242 . S
C853 C209 1.242 . S
C869 C243 1.242 . S
C871 C73 1.242 . S
C887 C107 1.242 . S
C889 C141 1.242 . S
C905 C277 1.242 . S
C907 C447 1.242 . S
C923 C311 1.242 . S
C925 C481 1.242 . S
C941 C345 1.242 . S
C943 C515 1.242 . S
C959 C379 1.242 . S
C961 C413 1.242 . S
C977 C33 0.598 . S
C979 C543 0.598 . S
C995 C441 0.598 . S
C997 C67 0.598 . S
C1013 C101 0.598 . S
C1015 C475 0.598 . S
C1031 C135 0.598 . S
C1033 C509 0.598 . S
C1049 C339 0.598 . S
C1051 C169 0.598 . S
C1067 C373 0.598 . S
C1069 C203 0.598 . S
C1085 C407 0.598 . S
C1087 C237 0.598 . S
C1103 C305 0.598 . S
C1105 C271 0.598 . S
C1121 C20 1.407 . S
C1123 C156 1.407 . S
C1139 C54 1.407 . S
C1141 C190 1.407 . S
C1157 C88 1.407 . S
C1159 C224 1.407 . S
C1175 C258 1.407 . S
C1177 C122 1.407 . S
C1193 C292 1.407 . S
C1195 C428 1.407 . S
C1211 C326 1.407 . S
C1213 C462 1.407 . S
C1229 C496 1.407 . S
C1231 C360 1.407 . S
C1247 C394 1.407 . S
C1249 C530 1.407 . S
