# Generated by pormake.
# Topology umq, (4)-cn, num edge types: 1
# Building blocks:
#     Node 0, Type 0, BuildingBlock: QUQFOY_clean_sbu_3, # of connection points: 4
#     Node 1, Type 0, BuildingBlock: QUQFOY_clean_sbu_3, # of connection points: 4
#     Node 2, Type 0, BuildingBlock: QUQFOY_clean_sbu_3, # of connection points: 4
#     Node 3, Type 0, BuildingBlock: QUQFOY_clean_sbu_3, # of connection points: 4
#     Node 4, Type 0, BuildingBlock: QUQFOY_clean_sbu_3, # of connection points: 4
#     Node 5, Type 0, BuildingBlock: QUQFOY_clean_sbu_3, # of connection points: 4
#     Node 6, Type 0, BuildingBlock: QUQFOY_clean_sbu_3, # of connection points: 4
#     Node 7, Type 0, BuildingBlock: QUQFOY_clean_sbu_3, # of connection points: 4
#     Node 8, Type 0, BuildingBlock: QUQFOY_clean_sbu_3, # of connection points: 4
#     Node 9, Type 0, BuildingBlock: QUQFOY_clean_sbu_3, # of connection points: 4
#     Node 10, Type 0, BuildingBlock: QUQFOY_clean_sbu_3, # of connection points: 4
#     Node 11, Type 0, BuildingBlock: QUQFOY_clean_sbu_3, # of connection points: 4
#     Node 12, Type 0, BuildingBlock: QUQFOY_clean_sbu_3, # of connection points: 4
#     Node 13, Type 0, BuildingBlock: QUQFOY_clean_sbu_3, # of connection points: 4
#     Node 14, Type 0, BuildingBlock: QUQFOY_clean_sbu_3, # of connection points: 4
#     Node 15, Type 0, BuildingBlock: QUQFOY_clean_sbu_3, # of connection points: 4
#     Node 16, Type 0, BuildingBlock: QUQFOY_clean_sbu_3, # of connection points: 4
#     Node 17, Type 0, BuildingBlock: QUQFOY_clean_sbu_3, # of connection points: 4
#     Node 18, Type 0, BuildingBlock: QUQFOY_clean_sbu_3, # of connection points: 4
#     Node 19, Type 0, BuildingBlock: QUQFOY_clean_sbu_3, # of connection points: 4
#     Node 20, Type 0, BuildingBlock: QUQFOY_clean_sbu_3, # of connection points: 4
#     Node 21, Type 0, BuildingBlock: QUQFOY_clean_sbu_3, # of connection points: 4
#     Node 22, Type 0, BuildingBlock: QUQFOY_clean_sbu_3, # of connection points: 4
#     Node 23, Type 0, BuildingBlock: QUQFOY_clean_sbu_3, # of connection points: 4
#     Node 24, Type 0, BuildingBlock: QUQFOY_clean_sbu_3, # of connection points: 4
#     Node 25, Type 0, BuildingBlock: QUQFOY_clean_sbu_3, # of connection points: 4
#     Node 26, Type 0, BuildingBlock: QUQFOY_clean_sbu_3, # of connection points: 4
#     Node 27, Type 0, BuildingBlock: QUQFOY_clean_sbu_3, # of connection points: 4
#     Node 28, Type 0, BuildingBlock: QUQFOY_clean_sbu_3, # of connection points: 4
#     Node 29, Type 0, BuildingBlock: QUQFOY_clean_sbu_3, # of connection points: 4
#     Node 30, Type 0, BuildingBlock: QUQFOY_clean_sbu_3, # of connection points: 4
#     Node 31, Type 0, BuildingBlock: QUQFOY_clean_sbu_3, # of connection points: 4
#     Edge 32, Type (0, 0), BuildingBlock: TEMPAE_clean_linker_10, # of connection points: 2
#     Edge 33, Type (0, 0), BuildingBlock: TEMPAE_clean_linker_10, # of connection points: 2
#     Edge 34, Type (0, 0), BuildingBlock: TEMPAE_clean_linker_10, # of connection points: 2
#     Edge 35, Type (0, 0), BuildingBlock: TEMPAE_clean_linker_10, # of connection points: 2
#     Edge 36, Type (0, 0), BuildingBlock: TEMPAE_clean_linker_10, # of connection points: 2
#     Edge 37, Type (0, 0), BuildingBlock: TEMPAE_clean_linker_10, # of connection points: 2
#     Edge 38, Type (0, 0), BuildingBlock: TEMPAE_clean_linker_10, # of connection points: 2
#     Edge 39, Type (0, 0), BuildingBlock: TEMPAE_clean_linker_10, # of connection points: 2
#     Edge 40, Type (0, 0), BuildingBlock: TEMPAE_clean_linker_10, # of connection points: 2
#     Edge 41, Type (0, 0), BuildingBlock: TEMPAE_clean_linker_10, # of connection points: 2
#     Edge 42, Type (0, 0), BuildingBlock: TEMPAE_clean_linker_10, # of connection points: 2
#     Edge 43, Type (0, 0), BuildingBlock: TEMPAE_clean_linker_10, # of connection points: 2
#     Edge 44, Type (0, 0), BuildingBlock: TEMPAE_clean_linker_10, # of connection points: 2
#     Edge 45, Type (0, 0), BuildingBlock: TEMPAE_clean_linker_10, # of connection points: 2
#     Edge 46, Type (0, 0), BuildingBlock: TEMPAE_clean_linker_10, # of connection points: 2
#     Edge 47, Type (0, 0), BuildingBlock: TEMPAE_clean_linker_10, # of connection points: 2
#     Edge 48, Type (0, 0), BuildingBlock: TEMPAE_clean_linker_10, # of connection points: 2
#     Edge 49, Type (0, 0), BuildingBlock: TEMPAE_clean_linker_10, # of connection points: 2
#     Edge 50, Type (0, 0), BuildingBlock: TEMPAE_clean_linker_10, # of connection points: 2
#     Edge 51, Type (0, 0), BuildingBlock: TEMPAE_clean_linker_10, # of connection points: 2
#     Edge 52, Type (0, 0), BuildingBlock: TEMPAE_clean_linker_10, # of connection points: 2
#     Edge 53, Type (0, 0), BuildingBlock: TEMPAE_clean_linker_10, # of connection points: 2
#     Edge 54, Type (0, 0), BuildingBlock: TEMPAE_clean_linker_10, # of connection points: 2
#     Edge 55, Type (0, 0), BuildingBlock: TEMPAE_clean_linker_10, # of connection points: 2
#     Edge 56, Type (0, 0), BuildingBlock: TEMPAE_clean_linker_10, # of connection points: 2
#     Edge 57, Type (0, 0), BuildingBlock: TEMPAE_clean_linker_10, # of connection points: 2
#     Edge 58, Type (0, 0), BuildingBlock: TEMPAE_clean_linker_10, # of connection points: 2
#     Edge 59, Type (0, 0), BuildingBlock: TEMPAE_clean_linker_10, # of connection points: 2
#     Edge 60, Type (0, 0), BuildingBlock: TEMPAE_clean_linker_10, # of connection points: 2
#     Edge 61, Type (0, 0), BuildingBlock: TEMPAE_clean_linker_10, # of connection points: 2
#     Edge 62, Type (0, 0), BuildingBlock: TEMPAE_clean_linker_10, # of connection points: 2
#     Edge 63, Type (0, 0), BuildingBlock: TEMPAE_clean_linker_10, # of connection points: 2
#     Edge 64, Type (0, 0), BuildingBlock: TEMPAE_clean_linker_10, # of connection points: 2
#     Edge 65, Type (0, 0), BuildingBlock: TEMPAE_clean_linker_10, # of connection points: 2
#     Edge 66, Type (0, 0), BuildingBlock: TEMPAE_clean_linker_10, # of connection points: 2
#     Edge 67, Type (0, 0), BuildingBlock: TEMPAE_clean_linker_10, # of connection points: 2
#     Edge 68, Type (0, 0), BuildingBlock: TEMPAE_clean_linker_10, # of connection points: 2
#     Edge 69, Type (0, 0), BuildingBlock: TEMPAE_clean_linker_10, # of connection points: 2
#     Edge 70, Type (0, 0), BuildingBlock: TEMPAE_clean_linker_10, # of connection points: 2
#     Edge 71, Type (0, 0), BuildingBlock: TEMPAE_clean_linker_10, # of connection points: 2
#     Edge 72, Type (0, 0), BuildingBlock: TEMPAE_clean_linker_10, # of connection points: 2
#     Edge 73, Type (0, 0), BuildingBlock: TEMPAE_clean_linker_10, # of connection points: 2
#     Edge 74, Type (0, 0), BuildingBlock: TEMPAE_clean_linker_10, # of connection points: 2
#     Edge 75, Type (0, 0), BuildingBlock: TEMPAE_clean_linker_10, # of connection points: 2
#     Edge 76, Type (0, 0), BuildingBlock: TEMPAE_clean_linker_10, # of connection points: 2
#     Edge 77, Type (0, 0), BuildingBlock: TEMPAE_clean_linker_10, # of connection points: 2
#     Edge 78, Type (0, 0), BuildingBlock: TEMPAE_clean_linker_10, # of connection points: 2
#     Edge 79, Type (0, 0), BuildingBlock: TEMPAE_clean_linker_10, # of connection points: 2
#     Edge 80, Type (0, 0), BuildingBlock: TEMPAE_clean_linker_10, # of connection points: 2
#     Edge 81, Type (0, 0), BuildingBlock: TEMPAE_clean_linker_10, # of connection points: 2
#     Edge 82, Type (0, 0), BuildingBlock: TEMPAE_clean_linker_10, # of connection points: 2
#     Edge 83, Type (0, 0), BuildingBlock: TEMPAE_clean_linker_10, # of connection points: 2
#     Edge 84, Type (0, 0), BuildingBlock: TEMPAE_clean_linker_10, # of connection points: 2
#     Edge 85, Type (0, 0), BuildingBlock: TEMPAE_clean_linker_10, # of connection points: 2
#     Edge 86, Type (0, 0), BuildingBlock: TEMPAE_clean_linker_10, # of connection points: 2
#     Edge 87, Type (0, 0), BuildingBlock: TEMPAE_clean_linker_10, # of connection points: 2
#     Edge 88, Type (0, 0), BuildingBlock: TEMPAE_clean_linker_10, # of connection points: 2
#     Edge 89, Type (0, 0), BuildingBlock: TEMPAE_clean_linker_10, # of connection points: 2
#     Edge 90, Type (0, 0), BuildingBlock: TEMPAE_clean_linker_10, # of connection points: 2
#     Edge 91, Type (0, 0), BuildingBlock: TEMPAE_clean_linker_10, # of connection points: 2
#     Edge 92, Type (0, 0), BuildingBlock: TEMPAE_clean_linker_10, # of connection points: 2
#     Edge 93, Type (0, 0), BuildingBlock: TEMPAE_clean_linker_10, # of connection points: 2
#     Edge 94, Type (0, 0), BuildingBlock: TEMPAE_clean_linker_10, # of connection points: 2
#     Edge 95, Type (0, 0), BuildingBlock: TEMPAE_clean_linker_10, # of connection points: 2
# Relax obj value: 0.064
# Max RMSD: 0.052
# Mean RMSD: 0.052
data_MOF--net-umq--node1-QUQFOY_clean_sbu_3--edge1-TEMPAE_clean_linker_10
_symmetry_space_group_name_H-M    P1
_symmetry_Int_Tables_number       1
_symmetry_cell_setting            triclinic
loop_
_symmetry_equiv_pos_as_xyz
'x, y, z'
_cell_length_a     68.745807
_cell_length_b     68.764014
_cell_length_c     46.692219
_cell_angle_alpha  90.081134
_cell_angle_beta   89.960263
_cell_angle_gamma 90.011329
loop_
_atom_site_label
_atom_site_type_symbol
_atom_site_fract_x
_atom_site_fract_y
_atom_site_fract_z
_atom_type_partial_charge
C0 C 0.22614 0.10465 0.08684 0.0
O1 O 0.2164 0.11976 0.09314 0.0
Cd2 Cd 0.20681 0.13006 0.14004 0.0
O3 O 0.2327 0.09352 0.10634 0.0
Cd4 Cd 0.23307 0.09425 0.15915 0.0
C5 C 0.25227 0.13931 0.16446 0.0
O6 O 0.19875 0.10127 0.16543 0.0
O7 O 0.21601 0.10333 0.20356 0.0
O8 O 0.23338 0.05905 0.15886 0.0
C9 C 0.19931 0.10417 0.19215 0.0
O10 O 0.23515 0.14586 0.16069 0.0
C11 C 0.24747 0.05738 0.17626 0.0
O12 O 0.25603 0.12127 0.16184 0.0
O13 O 0.25535 0.07301 0.18496 0.0
C14 C 0.89833 0.21461 0.09554 0.0
O15 O 0.88532 0.20235 0.1024 0.0
Cd16 Cd 0.87208 0.19744 0.14889 0.0
O17 O 0.90652 0.22531 0.11431 0.0
Cd18 Cd 0.90565 0.22834 0.16726 0.0
C19 C 0.85969 0.24503 0.16392 0.0
O20 O 0.9004 0.19451 0.17703 0.0
O21 O 0.89504 0.21311 0.21293 0.0
O22 O 0.94074 0.23061 0.1683 0.0
C23 C 0.89568 0.19593 0.20305 0.0
O24 O 0.85424 0.22744 0.16063 0.0
C25 C 0.94132 0.24558 0.18423 0.0
O26 O 0.87763 0.24954 0.16475 0.0
O27 O 0.92513 0.25296 0.19158 0.0
C28 C 0.76208 0.88572 0.09125 0.0
O29 O 0.77178 0.87014 0.0942 0.0
Cd30 Cd 0.78018 0.85479 0.13791 0.0
O31 O 0.7556 0.89495 0.11295 0.0
Cd32 Cd 0.75601 0.89048 0.1659 0.0
C33 C 0.73362 0.84656 0.1615 0.0
O34 O 0.78977 0.88085 0.1685 0.0
O35 O 0.77373 0.87766 0.2077 0.0
O36 O 0.75882 0.92547 0.16985 0.0
C37 C 0.7899 0.87642 0.19475 0.0
O38 O 0.74964 0.83987 0.15203 0.0
C39 C 0.74507 0.92759 0.18773 0.0
O40 O 0.73161 0.86456 0.1673 0.0
O41 O 0.73596 0.91233 0.19515 0.0
C42 C 0.09353 0.77269 0.09096 0.0
O43 O 0.10682 0.78484 0.09706 0.0
Cd44 Cd 0.122 0.78828 0.14261 0.0
O45 O 0.08646 0.76147 0.11 0.0
Cd46 Cd 0.09047 0.75723 0.16243 0.0
C47 C 0.13615 0.7409 0.15327 0.0
O48 O 0.09514 0.79111 0.17419 0.0
O49 O 0.10287 0.77134 0.20775 0.0
O50 O 0.05553 0.75472 0.16589 0.0
C51 C 0.10069 0.78881 0.19972 0.0
O52 O 0.14121 0.75865 0.1508 0.0
C53 C 0.05545 0.73983 0.18192 0.0
O54 O 0.11833 0.73612 0.15547 0.0
O55 O 0.07186 0.73248 0.18817 0.0
C56 C 0.21123 0.90272 0.38692 0.0
O57 O 0.19772 0.89027 0.38403 0.0
Cd58 Cd 0.19149 0.87192 0.34188 0.0
O59 O 0.22154 0.90802 0.36561 0.0
Cd60 Cd 0.22175 0.90291 0.31283 0.0
C61 C 0.23869 0.8578 0.32564 0.0
O62 O 0.18768 0.89589 0.30604 0.0
O63 O 0.206 0.88914 0.27014 0.0
O64 O 0.223 0.93759 0.30501 0.0
C65 C 0.18904 0.88936 0.28079 0.0
O66 O 0.22174 0.85348 0.33473 0.0
C67 C 0.23795 0.93718 0.28902 0.0
O68 O 0.24274 0.87485 0.31694 0.0
O69 O 0.24573 0.92068 0.28461 0.0
C70 C 0.09745 0.21467 0.38928 0.0
O71 O 0.11104 0.20263 0.38419 0.0
Cd72 Cd 0.12726 0.19882 0.33931 0.0
O73 O 0.09074 0.22552 0.36955 0.0
Cd74 Cd 0.09599 0.22948 0.31751 0.0
C75 C 0.14141 0.24611 0.32814 0.0
O76 O 0.10154 0.19557 0.30581 0.0
O77 O 0.10933 0.2158 0.27278 0.0
O78 O 0.06115 0.23135 0.31264 0.0
C79 C 0.10754 0.19823 0.28053 0.0
O80 O 0.14648 0.22841 0.33114 0.0
C81 C 0.06107 0.24634 0.29681 0.0
O82 O 0.12362 0.25081 0.32527 0.0
O83 O 0.07744 0.25403 0.29124 0.0
C84 C 0.77413 0.09761 0.38076 0.0
O85 O 0.78613 0.11118 0.37541 0.0
Cd86 Cd 0.79149 0.12553 0.32988 0.0
O87 O 0.76435 0.08951 0.36086 0.0
Cd88 Cd 0.76291 0.09131 0.3078 0.0
C89 C 0.74366 0.13621 0.31407 0.0
O90 O 0.79684 0.09785 0.30088 0.0
O91 O 0.77938 0.10356 0.26388 0.0
O92 O 0.76263 0.05614 0.30671 0.0
C93 C 0.79622 0.10283 0.27492 0.0
O94 O 0.76089 0.14237 0.31847 0.0
C95 C 0.74866 0.05462 0.28906 0.0
O96 O 0.74009 0.11813 0.31138 0.0
O97 O 0.74084 0.07034 0.28061 0.0
C98 C 0.88561 0.75841 0.37886 0.0
O99 O 0.87052 0.76796 0.37194 0.0
Cd100 Cd 0.86044 0.77632 0.32457 0.0
O101 O 0.89683 0.75133 0.35981 0.0
Cd102 Cd 0.89617 0.7496 0.30689 0.0
C103 C 0.85114 0.73025 0.30239 0.0
O104 O 0.88938 0.78375 0.29902 0.0
O105 O 0.88667 0.76567 0.26179 0.0
O106 O 0.9314 0.7494 0.30681 0.0
C107 C 0.88622 0.78264 0.27241 0.0
O108 O 0.84466 0.74747 0.3054 0.0
C109 C 0.93308 0.73486 0.2902 0.0
O110 O 0.86917 0.72651 0.30518 0.0
O111 O 0.91745 0.72671 0.28208 0.0
C112 C 0.77754 0.90504 0.88793 0.0
O113 O 0.7907 0.8923 0.88445 0.0
Cd114 Cd 0.79582 0.87387 0.842 0.0
O115 O 0.76682 0.91039 0.86712 0.0
Cd116 Cd 0.76552 0.90461 0.81453 0.0
C117 C 0.74858 0.85954 0.82741 0.0
O118 O 0.79956 0.89767 0.80572 0.0
O119 O 0.78014 0.89063 0.77124 0.0
O120 O 0.7642 0.93919 0.80602 0.0
C121 C 0.79743 0.89114 0.78057 0.0
O122 O 0.76567 0.85515 0.83573 0.0
C123 C 0.74891 0.93866 0.7908 0.0
O124 O 0.74441 0.87668 0.81927 0.0
O125 O 0.74097 0.92215 0.7872 0.0
C126 C 0.10067 0.77007 0.88149 0.0
O127 O 0.11559 0.78035 0.87617 0.0
Cd128 Cd 0.12872 0.78866 0.83078 0.0
O129 O 0.09049 0.76267 0.86142 0.0
Cd130 Cd 0.09202 0.76166 0.80815 0.0
C131 C 0.13716 0.74149 0.80962 0.0
O132 O 0.10102 0.79521 0.80206 0.0
O133 O 0.1023 0.77808 0.76371 0.0
O134 O 0.0568 0.76238 0.80546 0.0
C135 C 0.10455 0.79453 0.77551 0.0
O136 O 0.14378 0.75801 0.8172 0.0
C137 C 0.05531 0.74734 0.78979 0.0
O138 O 0.11902 0.7387 0.80592 0.0
O139 O 0.07099 0.73866 0.7832 0.0
C140 C 0.21811 0.09302 0.87798 0.0
O141 O 0.20451 0.10505 0.87316 0.0
Cd142 Cd 0.19953 0.12112 0.82906 0.0
O143 O 0.22924 0.08709 0.85791 0.0
Cd144 Cd 0.23075 0.09001 0.8046 0.0
C145 C 0.24687 0.13575 0.81436 0.0
O146 O 0.19653 0.09469 0.79674 0.0
O147 O 0.21446 0.10173 0.76062 0.0
O148 O 0.23248 0.05498 0.80206 0.0
C149 C 0.19748 0.10012 0.77097 0.0
O150 O 0.22961 0.13993 0.82225 0.0
C151 C 0.247 0.0543 0.78528 0.0
O152 O 0.25148 0.11851 0.80708 0.0
O153 O 0.25447 0.07044 0.77793 0.0
C154 C 0.88104 0.22233 0.88682 0.0
O155 O 0.8658 0.21264 0.88108 0.0
Cd156 Cd 0.85404 0.20473 0.83439 0.0
O157 O 0.89139 0.2297 0.86698 0.0
Cd158 Cd 0.88892 0.23198 0.81433 0.0
C159 C 0.84357 0.25117 0.81562 0.0
O160 O 0.88228 0.19782 0.80681 0.0
O161 O 0.87843 0.21597 0.76985 0.0
O162 O 0.92405 0.23243 0.81346 0.0
C163 C 0.87868 0.19898 0.78032 0.0
O164 O 0.83722 0.2339 0.81845 0.0
C165 C 0.92553 0.24653 0.79607 0.0
O166 O 0.86173 0.25484 0.8163 0.0
O167 O 0.9098 0.25445 0.78788 0.0
C168 C 0.76209 0.10631 0.59017 0.0
O169 O 0.7716 0.12141 0.59724 0.0
Cd170 Cd 0.78077 0.13072 0.6447 0.0
O171 O 0.75535 0.09479 0.60905 0.0
Cd172 Cd 0.75401 0.09491 0.66178 0.0
C173 C 0.73512 0.14009 0.66794 0.0
O174 O 0.78831 0.10125 0.66879 0.0
O175 O 0.77087 0.10308 0.70677 0.0
O176 O 0.753 0.05974 0.66037 0.0
C177 C 0.78766 0.10371 0.69559 0.0
O178 O 0.75235 0.14657 0.66506 0.0
C179 C 0.7388 0.05812 0.67761 0.0
O180 O 0.73131 0.12212 0.66456 0.0
O181 O 0.73118 0.07379 0.68668 0.0
C182 C 0.89465 0.77124 0.58772 0.0
O183 O 0.88248 0.7848 0.59215 0.0
Cd184 Cd 0.86564 0.78926 0.63594 0.0
O185 O 0.90028 0.76023 0.60804 0.0
Cd186 Cd 0.89648 0.75893 0.66117 0.0
C187 C 0.85143 0.7418 0.64975 0.0
O188 O 0.89097 0.79315 0.67002 0.0
O189 O 0.8836 0.77424 0.70495 0.0
O190 O 0.93146 0.75786 0.66461 0.0
C191 C 0.88518 0.79146 0.6956 0.0
O192 O 0.84705 0.759 0.64189 0.0
C193 C 0.93216 0.74366 0.68193 0.0
O194 O 0.86863 0.73751 0.65753 0.0
O195 O 0.91606 0.73594 0.68897 0.0
C196 C 0.23307 0.88426 0.59058 0.0
O197 O 0.22392 0.86858 0.59561 0.0
Cd198 Cd 0.21595 0.85593 0.64171 0.0
O199 O 0.23985 0.89455 0.61096 0.0
Cd200 Cd 0.24153 0.89147 0.6637 0.0
C201 C 0.26236 0.84691 0.66293 0.0
O202 O 0.2074 0.88375 0.66928 0.0
O203 O 0.22466 0.88006 0.70724 0.0
O204 O 0.2405 0.92661 0.66486 0.0
C205 C 0.20795 0.88006 0.69577 0.0
O206 O 0.24536 0.84012 0.65885 0.0
C207 C 0.25426 0.9287 0.6827 0.0
O208 O 0.26554 0.86516 0.66271 0.0
O209 O 0.26265 0.9133 0.69124 0.0
C210 C 0.09554 0.22001 0.59816 0.0
O211 O 0.11008 0.20917 0.60333 0.0
Cd212 Cd 0.12203 0.19855 0.64823 0.0
O213 O 0.08508 0.22699 0.61827 0.0
Cd214 Cd 0.08593 0.22621 0.67165 0.0
C215 C 0.13189 0.24462 0.67278 0.0
O216 O 0.09331 0.19219 0.67475 0.0
O217 O 0.09475 0.20734 0.71481 0.0
O218 O 0.0507 0.22708 0.67344 0.0
C219 C 0.09637 0.1914 0.70138 0.0
O220 O 0.13803 0.22809 0.6644 0.0
C221 C 0.04973 0.24143 0.69056 0.0
O222 O 0.11381 0.24797 0.67608 0.0
O223 O 0.06572 0.24904 0.69829 0.0
C224 C 0.71725 0.5918 0.58921 0.0
O225 O 0.70494 0.60478 0.59601 0.0
Cd226 Cd 0.70274 0.62052 0.64159 0.0
O227 O 0.7294 0.5854 0.60748 0.0
Cd228 Cd 0.73632 0.58984 0.65889 0.0
C229 C 0.75022 0.63614 0.64793 0.0
O230 O 0.70316 0.59457 0.6748 0.0
O231 O 0.72503 0.60164 0.70587 0.0
O232 O 0.73931 0.55506 0.66108 0.0
C233 C 0.7071 0.6003 0.69987 0.0
O234 O 0.73219 0.64041 0.64684 0.0
C235 C 0.75505 0.55488 0.67526 0.0
O236 O 0.7559 0.61856 0.64982 0.0
O237 O 0.76264 0.57125 0.68119 0.0
C238 C 0.40684 0.71263 0.60105 0.0
O239 O 0.39395 0.69972 0.60521 0.0
Cd240 Cd 0.37657 0.69541 0.6485 0.0
O241 O 0.41313 0.72315 0.62158 0.0
Cd242 Cd 0.40954 0.72386 0.67485 0.0
C243 C 0.3654 0.74354 0.66439 0.0
O244 O 0.40151 0.6901 0.68246 0.0
O245 O 0.39527 0.70888 0.718 0.0
O246 O 0.44452 0.72286 0.68012 0.0
C247 C 0.39535 0.69178 0.70784 0.0
O248 O 0.36003 0.72674 0.65592 0.0
C249 C 0.44561 0.73745 0.69674 0.0
O250 O 0.38285 0.74677 0.67212 0.0
O251 O 0.42981 0.74616 0.70263 0.0
C252 C 0.25736 0.38293 0.59504 0.0
O253 O 0.26634 0.36716 0.60012 0.0
Cd254 Cd 0.27746 0.35585 0.64563 0.0
O255 O 0.25234 0.39426 0.61535 0.0
Cd256 Cd 0.25406 0.39265 0.6682 0.0
C257 C 0.23279 0.34853 0.67413 0.0
O258 O 0.28821 0.38417 0.66999 0.0
O259 O 0.2731 0.3822 0.71012 0.0
O260 O 0.25514 0.42786 0.66952 0.0
C261 C 0.28907 0.38108 0.69662 0.0
O262 O 0.24937 0.34115 0.66874 0.0
C263 C 0.24179 0.42967 0.68814 0.0
O264 O 0.22991 0.36677 0.67222 0.0
O265 O 0.23373 0.41416 0.69689 0.0
C266 C 0.59827 0.27022 0.59193 0.0
O267 O 0.61271 0.28135 0.59634 0.0
Cd268 Cd 0.6254 0.29205 0.64097 0.0
O269 O 0.58843 0.26324 0.61266 0.0
Cd270 Cd 0.59031 0.26461 0.66587 0.0
C271 C 0.6363 0.2464 0.66556 0.0
O272 O 0.59741 0.29888 0.66922 0.0
O273 O 0.59986 0.28325 0.70877 0.0
O274 O 0.55513 0.26335 0.66946 0.0
C275 C 0.60091 0.29938 0.69578 0.0
O276 O 0.64226 0.2629 0.65684 0.0
C277 C 0.55473 0.24879 0.68617 0.0
O278 O 0.61828 0.24305 0.66943 0.0
O279 O 0.57098 0.24132 0.69294 0.0
C280 C 0.71556 0.40172 0.88089 0.0
O281 O 0.70196 0.3897 0.87585 0.0
Cd282 Cd 0.69663 0.37359 0.83152 0.0
O283 O 0.72688 0.40748 0.861 0.0
Cd284 Cd 0.72911 0.40382 0.80806 0.0
C285 C 0.74319 0.35728 0.81687 0.0
O286 O 0.69487 0.39964 0.7983 0.0
O287 O 0.71377 0.39292 0.76309 0.0
O288 O 0.73305 0.43855 0.80351 0.0
C289 C 0.69654 0.39423 0.77254 0.0
O290 O 0.72578 0.35339 0.82431 0.0
C291 C 0.74854 0.43772 0.78872 0.0
O292 O 0.74833 0.37452 0.81062 0.0
O293 O 0.75531 0.42092 0.78336 0.0
C294 C 0.61322 0.72208 0.8991 0.0
O295 O 0.62919 0.71329 0.89466 0.0
Cd296 Cd 0.64268 0.70498 0.84905 0.0
O297 O 0.60293 0.72825 0.87835 0.0
Cd298 Cd 0.60645 0.72939 0.82577 0.0
C299 C 0.65046 0.75148 0.82763 0.0
O300 O 0.61567 0.69555 0.82043 0.0
O301 O 0.61853 0.71298 0.78248 0.0
O302 O 0.57131 0.72773 0.82296 0.0
C303 C 0.61949 0.69632 0.79396 0.0
O304 O 0.65783 0.73477 0.83198 0.0
C305 C 0.56951 0.74162 0.80526 0.0
O306 O 0.63211 0.75398 0.82728 0.0
O307 O 0.58499 0.75027 0.79767 0.0
C308 C 0.2631 0.60247 0.88378 0.0
O309 O 0.27228 0.61801 0.87794 0.0
Cd310 Cd 0.28269 0.62864 0.83173 0.0
O311 O 0.25744 0.59102 0.864 0.0
Cd312 Cd 0.25806 0.59221 0.81103 0.0
C313 C 0.23743 0.63668 0.80598 0.0
O314 O 0.29231 0.59976 0.80755 0.0
O315 O 0.27649 0.60217 0.76809 0.0
O316 O 0.25815 0.55695 0.81006 0.0
C317 C 0.29275 0.60267 0.78085 0.0
O318 O 0.25426 0.64381 0.8102 0.0
C319 C 0.24442 0.55543 0.792 0.0
O320 O 0.23434 0.6185 0.80818 0.0
O321 O 0.23666 0.57112 0.78341 0.0
C322 C 0.39083 0.27197 0.8828 0.0
O323 O 0.37764 0.28407 0.87615 0.0
Cd324 Cd 0.36322 0.28728 0.83005 0.0
O325 O 0.39833 0.26075 0.86408 0.0
Cd326 Cd 0.39583 0.25635 0.8115 0.0
C327 C 0.35016 0.23948 0.81806 0.0
O328 O 0.39053 0.29005 0.79953 0.0
O329 O 0.38408 0.27001 0.76566 0.0
O330 O 0.43085 0.25535 0.81074 0.0
C331 C 0.38541 0.28755 0.77382 0.0
O332 O 0.34499 0.25719 0.82071 0.0
C333 C 0.43221 0.24074 0.79421 0.0
O334 O 0.36805 0.23475 0.81664 0.0
O335 O 0.41641 0.2327 0.7865 0.0
C336 C 0.26955 0.3966 0.38784 0.0
O337 O 0.28353 0.38493 0.38337 0.0
Cd338 Cd 0.28909 0.36829 0.33966 0.0
O339 O 0.25837 0.40191 0.36752 0.0
Cd340 Cd 0.25705 0.3982 0.31441 0.0
C341 C 0.24219 0.3522 0.32556 0.0
O342 O 0.29138 0.39376 0.30567 0.0
O343 O 0.27281 0.38606 0.2705 0.0
O344 O 0.2547 0.4331 0.31075 0.0
C345 C 0.28996 0.38783 0.28013 0.0
O346 O 0.25957 0.34859 0.33343 0.0
C347 C 0.24012 0.43325 0.29407 0.0
O348 O 0.23708 0.36921 0.31792 0.0
O349 O 0.23286 0.41686 0.2874 0.0
C350 C 0.59215 0.26694 0.38362 0.0
O351 O 0.60503 0.27969 0.37849 0.0
Cd352 Cd 0.62237 0.2828 0.33484 0.0
O353 O 0.58622 0.25541 0.36408 0.0
Cd354 Cd 0.59073 0.25217 0.31125 0.0
C355 C 0.63595 0.23501 0.32192 0.0
O356 O 0.59711 0.28599 0.30063 0.0
O357 O 0.60347 0.26606 0.26647 0.0
O358 O 0.55582 0.25186 0.30757 0.0
C359 C 0.60275 0.28352 0.27511 0.0
O360 O 0.64055 0.2523 0.32909 0.0
C361 C 0.55477 0.23716 0.29119 0.0
O362 O 0.61857 0.23063 0.31506 0.0
O363 O 0.57067 0.22876 0.28481 0.0
C364 C 0.71786 0.597 0.38085 0.0
O365 O 0.70785 0.61235 0.37754 0.0
Cd366 Cd 0.69659 0.62627 0.33434 0.0
O367 O 0.72346 0.58683 0.35952 0.0
Cd368 Cd 0.72094 0.58955 0.30638 0.0
C369 C 0.74234 0.63422 0.30727 0.0
O370 O 0.68728 0.59862 0.30714 0.0
O371 O 0.70059 0.60075 0.26576 0.0
O372 O 0.72004 0.55431 0.30274 0.0
C373 C 0.68536 0.60245 0.28088 0.0
O374 O 0.72649 0.64107 0.31715 0.0
C375 C 0.73364 0.5531 0.2844 0.0
O376 O 0.74437 0.61611 0.30244 0.0
O377 O 0.74155 0.56893 0.2766 0.0
C378 C 0.38207 0.72497 0.39713 0.0
O379 O 0.36657 0.71525 0.39328 0.0
Cd380 Cd 0.35199 0.7071 0.34833 0.0
O381 O 0.39126 0.73227 0.37604 0.0
Cd382 Cd 0.38596 0.73417 0.32379 0.0
C383 C 0.34077 0.75336 0.32893 0.0
O384 O 0.37847 0.69997 0.3173 0.0
O385 O 0.3736 0.71807 0.2805 0.0
O386 O 0.42093 0.73449 0.31847 0.0
C387 C 0.37379 0.70113 0.29117 0.0
O388 O 0.33461 0.73616 0.3333 0.0
C389 C 0.42149 0.7489 0.30152 0.0
O390 O 0.3589 0.75705 0.32758 0.0
O391 O 0.40538 0.75694 0.29548 0.0
C392 C 0.27005 0.59336 0.09296 0.0
O393 O 0.28318 0.60581 0.09839 0.0
Cd394 Cd 0.28647 0.6227 0.14249 0.0
O395 O 0.25852 0.58738 0.11246 0.0
Cd396 Cd 0.25502 0.59082 0.16535 0.0
C397 C 0.23839 0.63622 0.15382 0.0
O398 O 0.2886 0.59747 0.17681 0.0
O399 O 0.26831 0.60329 0.21071 0.0
O400 O 0.25465 0.55583 0.16888 0.0
C401 C 0.28584 0.60309 0.20228 0.0
O402 O 0.2558 0.64074 0.14714 0.0
C403 C 0.23932 0.55475 0.18396 0.0
O404 O 0.23385 0.61892 0.16084 0.0
O405 O 0.23075 0.57064 0.18981 0.0
C406 C 0.38733 0.27228 0.09332 0.0
O407 O 0.37306 0.28326 0.09943 0.0
Cd408 Cd 0.36163 0.29235 0.14555 0.0
O409 O 0.39765 0.26443 0.11281 0.0
Cd410 Cd 0.39726 0.26339 0.16605 0.0
C411 C 0.35097 0.24581 0.16668 0.0
O412 O 0.39058 0.29743 0.17238 0.0
O413 O 0.38943 0.28066 0.21101 0.0
O414 O 0.43247 0.26136 0.16719 0.0
C415 C 0.38792 0.29715 0.19915 0.0
O416 O 0.34495 0.26265 0.15966 0.0
C417 C 0.43302 0.24623 0.18277 0.0
O418 O 0.36902 0.24216 0.16934 0.0
O419 O 0.41682 0.23884 0.18998 0.0
C420 C 0.72507 0.38317 0.08671 0.0
O421 O 0.71473 0.36806 0.09032 0.0
Cd422 Cd 0.70647 0.35346 0.13465 0.0
O423 O 0.73211 0.39244 0.10798 0.0
Cd424 Cd 0.73191 0.38913 0.16106 0.0
C425 C 0.75344 0.3449 0.15667 0.0
O426 O 0.69811 0.38 0.16498 0.0
O427 O 0.71471 0.37708 0.20369 0.0
O428 O 0.72923 0.42413 0.16307 0.0
C429 C 0.69834 0.37587 0.19135 0.0
O430 O 0.73714 0.33849 0.14785 0.0
C431 C 0.74264 0.42664 0.18137 0.0
O432 O 0.75594 0.36287 0.16227 0.0
O433 O 0.75169 0.41156 0.1897 0.0
C434 C 0.58921 0.7167 0.10689 0.0
O435 O 0.60176 0.70436 0.11509 0.0
Cd436 Cd 0.61342 0.7006 0.16262 0.0
O437 O 0.58066 0.72787 0.12471 0.0
Cd438 Cd 0.5801 0.73168 0.17768 0.0
C439 C 0.62597 0.74842 0.17555 0.0
O440 O 0.58438 0.69795 0.18943 0.0
O441 O 0.59031 0.71738 0.22417 0.0
O442 O 0.54498 0.73374 0.17658 0.0
C443 C 0.58883 0.69997 0.21547 0.0
O444 O 0.63133 0.73072 0.17349 0.0
C445 C 0.54383 0.74863 0.19261 0.0
O446 O 0.60805 0.75304 0.17536 0.0
O447 O 0.55974 0.75617 0.20085 0.0
C448 C 0.3398 0.21512 0.18995 0.0
C449 C 0.33679 0.22995 0.16989 0.0
C450 C 0.32654 0.19969 0.19243 0.0
C451 C 0.3104 0.19881 0.17367 0.0
C452 C 0.30741 0.21373 0.15327 0.0
C453 C 0.32048 0.22931 0.15198 0.0
C454 C 0.32977 0.18437 0.21507 0.0
C455 C 0.29066 0.21304 0.13236 0.0
C456 C 0.28607 0.15084 0.15631 0.0
C457 C 0.2681 0.15316 0.17001 0.0
C458 C 0.30034 0.16536 0.1581 0.0
C459 C 0.29669 0.18219 0.17477 0.0
C460 C 0.27905 0.18393 0.19021 0.0
C461 C 0.26478 0.16952 0.18719 0.0
C462 C 0.31874 0.16325 0.14068 0.0
C463 C 0.27493 0.20135 0.20897 0.0
H464 H 0.35239 0.21574 0.2039 0.0
H465 H 0.31831 0.24069 0.13626 0.0
H466 H 0.31661 0.183 0.22869 0.0
H467 H 0.33224 0.17003 0.20482 0.0
H468 H 0.34243 0.18778 0.22898 0.0
H469 H 0.29079 0.2255 0.11726 0.0
H470 H 0.29125 0.19934 0.11978 0.0
H471 H 0.27663 0.21313 0.14411 0.0
H472 H 0.28852 0.1382 0.14286 0.0
H473 H 0.2509 0.17116 0.19798 0.0
H474 H 0.33172 0.16554 0.15435 0.0
H475 H 0.31904 0.17454 0.12372 0.0
H476 H 0.31988 0.14873 0.13034 0.0
H477 H 0.28756 0.20448 0.22302 0.0
H478 H 0.26184 0.19918 0.22257 0.0
H479 H 0.27253 0.21435 0.19539 0.0
C480 C 0.84875 0.27879 0.15367 0.0
C481 C 0.84498 0.26054 0.16573 0.0
C482 C 0.83444 0.29331 0.15341 0.0
C483 C 0.81619 0.28962 0.16635 0.0
C484 C 0.81263 0.27149 0.1797 0.0
C485 C 0.82698 0.25701 0.17879 0.0
C486 C 0.83855 0.31224 0.13818 0.0
C487 C 0.79353 0.26724 0.19442 0.0
C488 C 0.78329 0.33286 0.18148 0.0
C489 C 0.76978 0.3312 0.15918 0.0
C490 C 0.79839 0.31925 0.1844 0.0
C491 C 0.8003 0.30413 0.16395 0.0
C492 C 0.78694 0.30275 0.14099 0.0
C493 C 0.77165 0.31612 0.13918 0.0
C494 C 0.81206 0.3208 0.2096 0.0
C495 C 0.78883 0.2872 0.11826 0.0
H496 H 0.86265 0.28146 0.14341 0.0
H497 H 0.82417 0.24293 0.18839 0.0
H498 H 0.82853 0.3138 0.1197 0.0
H499 H 0.83587 0.32472 0.1527 0.0
H500 H 0.85375 0.31309 0.1302 0.0
H501 H 0.79386 0.25327 0.20633 0.0
H502 H 0.78985 0.27912 0.20959 0.0
H503 H 0.7817 0.26651 0.17831 0.0
H504 H 0.78172 0.34447 0.19704 0.0
H505 H 0.76128 0.31498 0.12176 0.0
H506 H 0.82724 0.32255 0.20199 0.0
H507 H 0.8115 0.3072 0.22234 0.0
H508 H 0.80841 0.33324 0.22383 0.0
H509 H 0.80352 0.28779 0.10843 0.0
H510 H 0.77779 0.28877 0.10105 0.0
H511 H 0.78716 0.27261 0.12805 0.0
C512 C 0.63722 0.78187 0.1637 0.0
C513 C 0.64081 0.76387 0.17668 0.0
C514 C 0.65174 0.79617 0.16243 0.0
C515 C 0.67004 0.79253 0.17522 0.0
C516 C 0.67341 0.7747 0.18954 0.0
C517 C 0.65883 0.76043 0.18967 0.0
C518 C 0.6478 0.81476 0.14625 0.0
C519 C 0.69256 0.77053 0.20411 0.0
C520 C 0.71479 0.81765 0.14578 0.0
C521 C 0.71707 0.83316 0.16495 0.0
C522 C 0.6993 0.80457 0.1486 0.0
C523 C 0.68614 0.80672 0.17172 0.0
C524 C 0.68847 0.82228 0.19133 0.0
C525 C 0.70378 0.83555 0.18742 0.0
C526 C 0.69698 0.78851 0.12675 0.0
C527 C 0.67503 0.82467 0.21668 0.0
H528 H 0.62331 0.78448 0.15347 0.0
H529 H 0.66153 0.74656 0.19996 0.0
H530 H 0.65087 0.82756 0.15999 0.0
H531 H 0.65764 0.81566 0.12745 0.0
H532 H 0.63253 0.81568 0.13861 0.0
H533 H 0.6921 0.75689 0.21682 0.0
H534 H 0.70423 0.76918 0.18782 0.0
H535 H 0.69657 0.78274 0.21851 0.0
H536 H 0.72499 0.81592 0.12823 0.0
H537 H 0.70566 0.84749 0.20236 0.0
H538 H 0.68223 0.7891 0.11716 0.0
H539 H 0.69848 0.77415 0.1373 0.0
H540 H 0.70791 0.78947 0.10928 0.0
H541 H 0.65982 0.82646 0.20926 0.0
H542 H 0.67898 0.83741 0.23014 0.0
H543 H 0.67549 0.8114 0.23015 0.0
C544 C 0.22366 0.66601 0.13272 0.0
C545 C 0.22328 0.6514 0.15357 0.0
C546 C 0.20932 0.6805 0.13211 0.0
C547 C 0.19471 0.68073 0.1535 0.0
C548 C 0.19446 0.66615 0.17488 0.0
C549 C 0.20858 0.65142 0.17435 0.0
C550 C 0.20968 0.69544 0.10843 0.0
C551 C 0.17947 0.66626 0.19853 0.0
C552 C 0.16914 0.72887 0.16645 0.0
C553 C 0.15113 0.7256 0.15332 0.0
C554 C 0.18336 0.71425 0.16714 0.0
C555 C 0.17966 0.69622 0.15347 0.0
C556 C 0.1616 0.693 0.13971 0.0
C557 C 0.1474 0.70764 0.14025 0.0
C558 C 0.20222 0.71798 0.18277 0.0
C559 C 0.15736 0.67421 0.12414 0.0
H560 H 0.23497 0.66586 0.11652 0.0
H561 H 0.20843 0.64019 0.19063 0.0
H562 H 0.1956 0.69535 0.09682 0.0
H563 H 0.2116 0.7102 0.1176 0.0
H564 H 0.22157 0.69274 0.09279 0.0
H565 H 0.18172 0.65426 0.2141 0.0
H566 H 0.18002 0.68031 0.21022 0.0
H567 H 0.16467 0.66487 0.18934 0.0
H568 H 0.17194 0.74274 0.17676 0.0
H569 H 0.1335 0.70519 0.12988 0.0
H570 H 0.21462 0.71705 0.16764 0.0
H571 H 0.20449 0.70668 0.19937 0.0
H572 H 0.2025 0.7325 0.19323 0.0
H573 H 0.16865 0.67156 0.10757 0.0
H574 H 0.14287 0.67431 0.11363 0.0
H575 H 0.1579 0.66183 0.13932 0.0
C576 C 0.26805 0.84271 0.30362 0.0
C577 C 0.25395 0.84279 0.32529 0.0
C578 C 0.28252 0.82836 0.30282 0.0
C579 C 0.28322 0.8142 0.32477 0.0
C580 C 0.2692 0.81446 0.34701 0.0
C581 C 0.25451 0.82859 0.34673 0.0
C582 C 0.29687 0.82816 0.27831 0.0
C583 C 0.26981 0.79992 0.3712 0.0
C584 C 0.30852 0.76587 0.31343 0.0
C585 C 0.32659 0.76927 0.32633 0.0
C586 C 0.2945 0.78062 0.31186 0.0
C587 C 0.29847 0.79895 0.32439 0.0
C588 C 0.31675 0.80248 0.33735 0.0
C589 C 0.33075 0.78764 0.33774 0.0
C590 C 0.2754 0.77653 0.29708 0.0
C591 C 0.32128 0.82168 0.35161 0.0
H592 H 0.26749 0.85364 0.28692 0.0
H593 H 0.24369 0.8288 0.36363 0.0
H594 H 0.3119 0.8298 0.28659 0.0
H595 H 0.29615 0.81398 0.26699 0.0
H596 H 0.29405 0.83996 0.26263 0.0
H597 H 0.25837 0.80268 0.38752 0.0
H598 H 0.26785 0.78499 0.36267 0.0
H599 H 0.28423 0.8004 0.38185 0.0
H600 H 0.3054 0.75167 0.30439 0.0
H601 H 0.34469 0.79018 0.34794 0.0
H602 H 0.27249 0.7878 0.28064 0.0
H603 H 0.26334 0.77715 0.31284 0.0
H604 H 0.2752 0.76201 0.2866 0.0
H605 H 0.31965 0.83375 0.33608 0.0
H606 H 0.33625 0.82212 0.36053 0.0
H607 H 0.31078 0.82435 0.36925 0.0
C608 C 0.21327 0.33566 0.30455 0.0
C609 C 0.22769 0.33643 0.32569 0.0
C610 C 0.19947 0.32063 0.30433 0.0
C611 C 0.19973 0.30651 0.32638 0.0
C612 C 0.21413 0.30742 0.34801 0.0
C613 C 0.22817 0.3222 0.34711 0.0
C614 C 0.1847 0.31979 0.28043 0.0
C615 C 0.2145 0.29298 0.37235 0.0
C616 C 0.15246 0.27962 0.34016 0.0
C617 C 0.15638 0.26143 0.32792 0.0
C618 C 0.1666 0.29432 0.3403 0.0
C619 C 0.1848 0.29091 0.32699 0.0
C620 C 0.18871 0.27263 0.31422 0.0
C621 C 0.17453 0.25796 0.31529 0.0
C622 C 0.16214 0.31341 0.35492 0.0
C623 C 0.20772 0.26867 0.29908 0.0
H624 H 0.21303 0.3466 0.28786 0.0
H625 H 0.23925 0.32294 0.3636 0.0
H626 H 0.18538 0.30542 0.26963 0.0
H627 H 0.16982 0.3214 0.28928 0.0
H628 H 0.18708 0.33134 0.26418 0.0
H629 H 0.22636 0.29603 0.38787 0.0
H630 H 0.2004 0.2933 0.38394 0.0
H631 H 0.21643 0.27804 0.36387 0.0
H632 H 0.13845 0.28222 0.35013 0.0
H633 H 0.17747 0.24392 0.30561 0.0
H634 H 0.16262 0.32543 0.33912 0.0
H635 H 0.17333 0.31655 0.37141 0.0
H636 H 0.14761 0.31341 0.36533 0.0
H637 H 0.20999 0.27954 0.28186 0.0
H638 H 0.20821 0.25389 0.28947 0.0
H639 H 0.22 0.27014 0.3143 0.0
C640 C 0.70964 0.14527 0.32638 0.0
C641 C 0.72744 0.15018 0.31368 0.0
C642 C 0.69442 0.15882 0.3279 0.0
C643 C 0.69689 0.17744 0.31552 0.0
C644 C 0.71466 0.18223 0.30187 0.0
C645 C 0.72989 0.16864 0.3016 0.0
C646 C 0.67593 0.15339 0.34344 0.0
C647 C 0.7176 0.20172 0.28763 0.0
C648 C 0.65112 0.20611 0.29877 0.0
C649 C 0.65118 0.21999 0.32075 0.0
C650 C 0.66609 0.19233 0.29653 0.0
C651 C 0.68103 0.19204 0.31739 0.0
C652 C 0.68085 0.20576 0.34005 0.0
C653 C 0.6661 0.21982 0.34115 0.0
C654 C 0.66614 0.17834 0.27156 0.0
C655 C 0.69618 0.2055 0.36321 0.0
H656 H 0.70785 0.13104 0.336 0.0
H657 H 0.74365 0.17236 0.29164 0.0
H658 H 0.67336 0.16369 0.36137 0.0
H659 H 0.6633 0.15454 0.32877 0.0
H660 H 0.67643 0.13839 0.35219 0.0
H661 H 0.7318 0.20267 0.27634 0.0
H662 H 0.70578 0.20443 0.27196 0.0
H663 H 0.71693 0.21349 0.30386 0.0
H664 H 0.63967 0.20641 0.28283 0.0
H665 H 0.66603 0.23051 0.35824 0.0
H666 H 0.66544 0.16315 0.27943 0.0
H667 H 0.67991 0.17985 0.25933 0.0
H668 H 0.65374 0.18083 0.25678 0.0
H669 H 0.69674 0.19093 0.37335 0.0
H670 H 0.69338 0.21655 0.38011 0.0
H671 H 0.71071 0.20833 0.35376 0.0
C672 C 0.76116 0.66344 0.32159 0.0
C673 C 0.75899 0.64743 0.30331 0.0
C674 C 0.77723 0.67581 0.31921 0.0
C675 C 0.79116 0.67243 0.29742 0.0
C676 C 0.78888 0.65646 0.27853 0.0
C677 C 0.77293 0.64391 0.28201 0.0
C678 C 0.77939 0.69241 0.34023 0.0
C679 C 0.80316 0.65279 0.25455 0.0
C680 C 0.8203 0.71773 0.28156 0.0
C681 C 0.8372 0.71435 0.2975 0.0
C682 C 0.80576 0.70352 0.27952 0.0
C683 C 0.80796 0.68582 0.29462 0.0
C684 C 0.82539 0.68203 0.30978 0.0
C685 C 0.83997 0.69629 0.31068 0.0
C686 C 0.78764 0.70785 0.26242 0.0
C687 C 0.82807 0.66354 0.32673 0.0
H688 H 0.7505 0.66601 0.3383 0.0
H689 H 0.77118 0.63155 0.2678 0.0
H690 H 0.79367 0.69145 0.35121 0.0
H691 H 0.77901 0.70649 0.3287 0.0
H692 H 0.76773 0.69246 0.35671 0.0
H693 H 0.7991 0.63995 0.24138 0.0
H694 H 0.80395 0.66573 0.24043 0.0
H695 H 0.81793 0.65042 0.2634 0.0
H696 H 0.81829 0.73166 0.27109 0.0
H697 H 0.85303 0.69375 0.32314 0.0
H698 H 0.77527 0.71045 0.27721 0.0
H699 H 0.78375 0.69525 0.2487 0.0
H700 H 0.78942 0.72088 0.24864 0.0
H701 H 0.81784 0.6635 0.34514 0.0
H702 H 0.84312 0.66202 0.33508 0.0
H703 H 0.82462 0.65065 0.31338 0.0
C704 C 0.7192 0.84461 0.80525 0.0
C705 C 0.73341 0.84443 0.82675 0.0
C706 C 0.70506 0.82994 0.80376 0.0
C707 C 0.70482 0.81517 0.82483 0.0
C708 C 0.71888 0.81522 0.84699 0.0
C709 C 0.73323 0.8297 0.84739 0.0
C710 C 0.69067 0.83001 0.77934 0.0
C711 C 0.71875 0.79999 0.87028 0.0
C712 C 0.65855 0.78622 0.83681 0.0
C713 C 0.66355 0.76829 0.82461 0.0
C714 C 0.6718 0.80175 0.8368 0.0
C715 C 0.69015 0.79937 0.82346 0.0
C716 C 0.69485 0.78155 0.80991 0.0
C717 C 0.6816 0.76609 0.81109 0.0
C718 C 0.66649 0.82037 0.85211 0.0
C719 C 0.71403 0.77869 0.79469 0.0
H720 H 0.71947 0.85595 0.78914 0.0
H721 H 0.74415 0.82968 0.86415 0.0
H722 H 0.69202 0.81632 0.76687 0.0
H723 H 0.6756 0.83061 0.78777 0.0
H724 H 0.6929 0.84249 0.76463 0.0
H725 H 0.73 0.80277 0.88687 0.0
H726 H 0.70428 0.79957 0.8808 0.0
H727 H 0.72138 0.78542 0.86085 0.0
H728 H 0.64464 0.78783 0.8475 0.0
H729 H 0.68537 0.75222 0.80148 0.0
H730 H 0.66792 0.83294 0.83743 0.0
H731 H 0.67669 0.82282 0.87018 0.0
H732 H 0.65141 0.82007 0.86068 0.0
H733 H 0.71652 0.79064 0.77917 0.0
H734 H 0.71469 0.76459 0.78306 0.0
H735 H 0.72611 0.77913 0.81042 0.0
C736 C 0.14795 0.71105 0.78511 0.0
C737 C 0.15079 0.72517 0.80636 0.0
C738 C 0.16121 0.69567 0.78175 0.0
C739 C 0.17717 0.69414 0.80075 0.0
C740 C 0.17981 0.70819 0.8226 0.0
C741 C 0.16676 0.72372 0.82482 0.0
C742 C 0.15833 0.68129 0.75766 0.0
C743 C 0.19635 0.70676 0.8438 0.0
C744 C 0.20301 0.64638 0.81382 0.0
C745 C 0.22104 0.64997 0.8009 0.0
C746 C 0.18817 0.66035 0.81294 0.0
C747 C 0.19133 0.67798 0.798 0.0
C748 C 0.20903 0.681 0.78314 0.0
C749 C 0.22385 0.66708 0.78523 0.0
C750 C 0.16971 0.65683 0.82971 0.0
C751 C 0.21268 0.69934 0.76622 0.0
H752 H 0.13564 0.7123 0.77074 0.0
H753 H 0.1688 0.73456 0.84144 0.0
H754 H 0.17132 0.68126 0.74354 0.0
H755 H 0.15676 0.66638 0.76638 0.0
H756 H 0.1453 0.68469 0.74452 0.0
H757 H 0.19571 0.71832 0.86041 0.0
H758 H 0.19604 0.69239 0.8546 0.0
H759 H 0.21048 0.70792 0.83244 0.0
H760 H 0.20092 0.63317 0.82611 0.0
H761 H 0.23777 0.66972 0.77501 0.0
H762 H 0.15675 0.65972 0.81626 0.0
H763 H 0.16912 0.66702 0.84815 0.0
H764 H 0.1688 0.64172 0.838 0.0
H765 H 0.2 0.70271 0.7524 0.0
H766 H 0.22587 0.69815 0.75256 0.0
H767 H 0.21467 0.71176 0.78112 0.0
C768 C 0.31735 0.22783 0.80326 0.0
C769 C 0.33515 0.22421 0.81681 0.0
C770 C 0.30295 0.21341 0.8018 0.0
C771 C 0.30623 0.19521 0.81509 0.0
C772 C 0.32412 0.19158 0.82911 0.0
C773 C 0.33852 0.20604 0.82937 0.0
C774 C 0.2843 0.2176 0.78589 0.0
C775 C 0.32791 0.17257 0.84427 0.0
C776 C 0.26163 0.16567 0.83517 0.0
C777 C 0.26185 0.15108 0.81422 0.0
C778 C 0.27616 0.17999 0.83595 0.0
C779 C 0.29084 0.18004 0.81465 0.0
C780 C 0.29086 0.16556 0.79306 0.0
C781 C 0.27654 0.15102 0.79341 0.0
C782 C 0.27599 0.19484 0.8598 0.0
C783 C 0.30592 0.16551 0.76949 0.0
H784 H 0.31483 0.24185 0.79333 0.0
H785 H 0.35225 0.20331 0.84006 0.0
H786 H 0.28187 0.20637 0.76917 0.0
H787 H 0.27177 0.21694 0.80084 0.0
H788 H 0.28443 0.23214 0.77554 0.0
H789 H 0.3424 0.17225 0.85478 0.0
H790 H 0.31657 0.17007 0.86079 0.0
H791 H 0.32707 0.16033 0.82884 0.0
H792 H 0.25036 0.16559 0.85143 0.0
H793 H 0.2766 0.13979 0.77708 0.0
H794 H 0.27456 0.20968 0.85079 0.0
H795 H 0.28997 0.19433 0.87166 0.0
H796 H 0.2639 0.1924 0.87519 0.0
H797 H 0.30578 0.17968 0.75815 0.0
H798 H 0.30339 0.15372 0.75363 0.0
H799 H 0.32065 0.16364 0.77875 0.0
C800 C 0.81185 0.26439 0.79886 0.0
C801 C 0.82951 0.26722 0.8132 0.0
C802 C 0.79783 0.27917 0.79785 0.0
C803 C 0.80135 0.2969 0.8124 0.0
C804 C 0.81922 0.29985 0.82681 0.0
C805 C 0.83326 0.28505 0.82663 0.0
C806 C 0.7792 0.27575 0.78148 0.0
C807 C 0.82327 0.31836 0.84319 0.0
C808 C 0.77229 0.3421 0.7944 0.0
C809 C 0.75772 0.3416 0.81537 0.0
C810 C 0.78634 0.32737 0.79274 0.0
C811 C 0.78613 0.31218 0.81316 0.0
C812 C 0.77151 0.31171 0.83454 0.0
C813 C 0.75725 0.32628 0.83508 0.0
C814 C 0.80133 0.32801 0.7691 0.0
C815 C 0.77116 0.29603 0.85715 0.0
H816 H 0.80904 0.2506 0.78833 0.0
H817 H 0.84686 0.28714 0.83798 0.0
H818 H 0.76667 0.27572 0.79646 0.0
H819 H 0.77678 0.28771 0.76596 0.0
H820 H 0.77933 0.26172 0.76966 0.0
H821 H 0.83789 0.31834 0.8533 0.0
H822 H 0.82225 0.33109 0.82872 0.0
H823 H 0.81215 0.32033 0.8602 0.0
H824 H 0.77252 0.35388 0.77899 0.0
H825 H 0.74604 0.32601 0.85142 0.0
H826 H 0.80102 0.31421 0.75673 0.0
H827 H 0.81611 0.32943 0.77838 0.0
H828 H 0.79889 0.34031 0.75412 0.0
H829 H 0.76958 0.28154 0.84694 0.0
H830 H 0.75908 0.29804 0.87269 0.0
H831 H 0.78513 0.29598 0.86904 0.0
C832 C 0.64748 0.21629 0.69039 0.0
C833 C 0.65045 0.23059 0.66951 0.0
C834 C 0.66073 0.20092 0.69364 0.0
C835 C 0.67685 0.19958 0.67486 0.0
C836 C 0.67981 0.21397 0.65366 0.0
C837 C 0.66673 0.22949 0.65156 0.0
C838 C 0.65751 0.18616 0.71707 0.0
C839 C 0.69656 0.21278 0.63275 0.0
C840 C 0.72251 0.17066 0.6896 0.0
C841 C 0.71922 0.15397 0.67309 0.0
C842 C 0.7082 0.18508 0.69205 0.0
C843 C 0.69055 0.18299 0.67677 0.0
C844 C 0.68691 0.16581 0.66089 0.0
C845 C 0.70123 0.15132 0.65962 0.0
C846 C 0.71232 0.20292 0.70995 0.0
C847 C 0.66848 0.16328 0.64371 0.0
H848 H 0.63492 0.21725 0.70438 0.0
H849 H 0.6689 0.24047 0.63521 0.0
H850 H 0.65504 0.17157 0.70758 0.0
H851 H 0.67067 0.18513 0.73073 0.0
H852 H 0.64484 0.18988 0.73082 0.0
H853 H 0.69645 0.22489 0.61703 0.0
H854 H 0.71059 0.21312 0.64446 0.0
H855 H 0.69594 0.1988 0.62086 0.0
H856 H 0.73639 0.17257 0.70025 0.0
H857 H 0.69878 0.13844 0.6467 0.0
H858 H 0.69969 0.20636 0.72386 0.0
H859 H 0.71474 0.2156 0.69574 0.0
H860 H 0.72541 0.20104 0.72363 0.0
H861 H 0.65552 0.16594 0.65731 0.0
H862 H 0.6673 0.14852 0.63418 0.0
H863 H 0.66817 0.17413 0.62613 0.0
C864 C 0.78283 0.64896 0.63427 0.0
C865 C 0.76477 0.65185 0.64751 0.0
C866 C 0.79684 0.66378 0.63385 0.0
C867 C 0.79289 0.68162 0.64786 0.0
C868 C 0.77473 0.68452 0.66153 0.0
C869 C 0.76074 0.66969 0.66078 0.0
C870 C 0.81582 0.66038 0.61832 0.0
C871 C 0.77021 0.70314 0.67739 0.0
C872 C 0.83658 0.71178 0.67004 0.0
C873 C 0.83636 0.72657 0.64946 0.0
C874 C 0.82227 0.69724 0.6701 0.0
C875 C 0.80784 0.69719 0.64847 0.0
C876 C 0.80775 0.71197 0.62738 0.0
C877 C 0.82185 0.72669 0.62843 0.0
C878 C 0.82249 0.68204 0.69342 0.0
C879 C 0.79294 0.71205 0.6035 0.0
H880 H 0.78586 0.63519 0.62383 0.0
H881 H 0.74682 0.67183 0.67125 0.0
H882 H 0.81818 0.67198 0.60218 0.0
H883 H 0.8281 0.66109 0.63366 0.0
H884 H 0.81621 0.64605 0.60732 0.0
H885 H 0.75556 0.70291 0.68743 0.0
H886 H 0.78123 0.70561 0.69439 0.0
H887 H 0.77099 0.71569 0.66255 0.0
H888 H 0.84775 0.71179 0.68643 0.0
H889 H 0.82181 0.73805 0.61235 0.0
H890 H 0.82456 0.6674 0.68392 0.0
H891 H 0.8083 0.68193 0.70478 0.0
H892 H 0.83422 0.68462 0.70932 0.0
H893 H 0.7937 0.69816 0.59142 0.0
H894 H 0.79523 0.72427 0.58832 0.0
H895 H 0.77805 0.7132 0.6125 0.0
C896 C 0.29678 0.83724 0.65407 0.0
C897 C 0.27865 0.83322 0.66639 0.0
C898 C 0.31171 0.82331 0.65441 0.0
C899 C 0.30853 0.80526 0.6682 0.0
C900 C 0.29054 0.80156 0.68193 0.0
C901 C 0.27568 0.81548 0.68043 0.0
C902 C 0.33051 0.82756 0.6389 0.0
C903 C 0.28681 0.78272 0.69759 0.0
C904 C 0.33631 0.76038 0.64464 0.0
C905 C 0.35114 0.75953 0.66514 0.0
C906 C 0.32267 0.77553 0.64496 0.0
C907 C 0.32354 0.78976 0.66688 0.0
C908 C 0.33841 0.78886 0.68779 0.0
C909 C 0.35226 0.7739 0.68638 0.0
C910 C 0.30733 0.7763 0.62183 0.0
C911 C 0.33943 0.80344 0.71196 0.0
H912 H 0.29899 0.85091 0.64299 0.0
H913 H 0.26168 0.81245 0.69015 0.0
H914 H 0.34308 0.82551 0.65345 0.0
H915 H 0.33231 0.81718 0.62087 0.0
H916 H 0.33097 0.8426 0.63024 0.0
H917 H 0.2728 0.78292 0.70946 0.0
H918 H 0.28647 0.77049 0.68209 0.0
H919 H 0.29875 0.77977 0.71296 0.0
H920 H 0.33558 0.74936 0.62805 0.0
H921 H 0.36367 0.77313 0.70236 0.0
H922 H 0.30762 0.79069 0.61112 0.0
H923 H 0.29269 0.7745 0.63146 0.0
H924 H 0.30941 0.7648 0.60537 0.0
H925 H 0.34074 0.81838 0.70327 0.0
H926 H 0.35191 0.80069 0.7265 0.0
H927 H 0.32579 0.8029 0.72466 0.0
C928 C 0.16198 0.2618 0.65829 0.0
C929 C 0.14598 0.26049 0.67671 0.0
C930 C 0.17518 0.27721 0.66055 0.0
C931 C 0.17265 0.29126 0.68243 0.0
C932 C 0.15675 0.28975 0.70158 0.0
C933 C 0.14333 0.27452 0.69814 0.0
C934 C 0.19166 0.2786 0.6392 0.0
C935 C 0.15401 0.30411 0.72573 0.0
C936 C 0.21941 0.31851 0.69628 0.0
C937 C 0.21641 0.33545 0.68029 0.0
C938 C 0.2046 0.30464 0.69917 0.0
C939 C 0.18672 0.30752 0.68479 0.0
C940 C 0.18335 0.32503 0.66964 0.0
C941 C 0.19819 0.33897 0.66798 0.0
C942 C 0.20848 0.28646 0.71633 0.0
C943 C 0.16469 0.3284 0.65334 0.0
H944 H 0.16388 0.25105 0.64151 0.0
H945 H 0.13097 0.27338 0.71247 0.0
H946 H 0.19124 0.2929 0.62822 0.0
H947 H 0.20583 0.27758 0.65044 0.0
H948 H 0.19103 0.26694 0.62274 0.0
H949 H 0.14129 0.30047 0.73939 0.0
H950 H 0.16724 0.30446 0.73934 0.0
H951 H 0.15197 0.31896 0.71701 0.0
H952 H 0.23349 0.31593 0.70604 0.0
H953 H 0.19597 0.35206 0.65546 0.0
H954 H 0.21056 0.27396 0.70159 0.0
H955 H 0.19589 0.28303 0.73032 0.0
H956 H 0.22171 0.28788 0.72984 0.0
H957 H 0.16394 0.31813 0.63501 0.0
H958 H 0.16364 0.34346 0.64493 0.0
H959 H 0.1519 0.32552 0.66716 0.0
C960 C 0.23198 0.08043 0.04774 0.0
C961 C 0.22928 0.09978 0.05644 0.0
C962 C 0.23266 0.07556 0.01853 0.0
C963 C 0.23088 0.09045 -0.00218 0.0
C964 C 0.22945 0.11012 0.00662 0.0
C965 C 0.22849 0.11451 0.03583 0.0
C966 C 0.23408 0.05445 0.00993 0.0
C967 C 0.22789 0.12649 0.98518 0.0
C968 C 0.24077 0.08641 0.91843 0.0
C969 C 0.22174 0.08731 0.90781 0.0
C970 C 0.24417 0.08578 0.94807 0.0
C971 C 0.22813 0.08571 0.96712 0.0
C972 C 0.20896 0.08449 0.95621 0.0
C973 C 0.206 0.08555 0.92664 0.0
C974 C 0.2648 0.08708 0.95891 0.0
C975 C 0.19147 0.08392 0.97579 0.0
H976 H 0.23261 0.069 0.06368 0.0
H977 H 0.22673 0.12951 0.04253 0.0
H978 H 0.21966 0.04935 0.00235 0.0
H979 H 0.2445 0.05252 -0.008 0.0
H980 H 0.23867 0.04509 0.02809 0.0
H981 H 0.22889 0.14102 -0.0045 0.0
H982 H 0.23956 0.12529 0.96886 0.0
H983 H 0.21374 0.12553 0.97383 0.0
H984 H 0.25294 0.08779 0.90379 0.0
H985 H 0.19128 0.08598 0.91829 0.0
H986 H 0.26699 0.0775 0.97772 0.0
H987 H 0.26781 0.10223 0.96585 0.0
H988 H 0.27551 0.0831 0.94206 0.0
H989 H 0.19374 0.07333 -0.00664 0.0
H990 H 0.17796 0.07998 0.9641 0.0
H991 H 0.18936 0.09846 0.98569 0.0
C992 C 0.87256 0.22486 0.93828 0.0
C993 C 0.88684 0.22469 0.91693 0.0
C994 C 0.87767 0.22542 0.96724 0.0
C995 C 0.89758 0.22533 0.97498 0.0
C996 C 0.9121 0.22592 0.95351 0.0
C997 C 0.90653 0.2258 0.92458 0.0
C998 C 0.86172 0.22523 -0.01047 0.0
C999 C 0.93345 0.22555 0.961 0.0
C1000 C 0.90484 0.23597 0.05364 0.0
C1001 C 0.90274 0.21726 0.06503 0.0
C1002 C 0.90469 0.23887 0.0239 0.0
C1003 C 0.9028 0.2226 0.00548 0.0
C1004 C 0.90267 0.20357 0.01699 0.0
C1005 C 0.90235 0.20115 0.04671 0.0
C1006 C 0.90469 0.25937 0.01241 0.0
C1007 C 0.90121 0.18582 -0.00198 0.0
H1008 H 0.85732 0.22429 0.93233 0.0
H1009 H 0.91758 0.22564 0.908 0.0
H1010 H 0.86181 0.21111 0.00098 0.0
H1011 H 0.86422 0.23683 0.00565 0.0
H1012 H 0.84708 0.22735 0.97996 0.0
H1013 H 0.94279 0.22889 0.94221 0.0
H1014 H 0.93671 0.23611 0.97833 0.0
H1015 H 0.93736 0.21089 0.96905 0.0
H1016 H 0.9051 0.24842 0.06792 0.0
H1017 H 0.90098 0.18666 0.05565 0.0
H1018 H 0.88967 0.26336 0.00597 0.0
H1019 H 0.91404 0.26056 -0.00686 0.0
H1020 H 0.90976 0.27002 0.02869 0.0
H1021 H 0.88626 0.18477 0.98918 0.0
H1022 H 0.90439 0.17221 0.00992 0.0
H1023 H 0.91141 0.18696 0.97968 0.0
C1024 C 0.7883 0.91176 0.93761 0.0
C1025 C 0.77336 0.9117 0.91727 0.0
C1026 C 0.78408 0.91278 0.96688 0.0
C1027 C 0.76443 0.91336 0.97589 0.0
C1028 C 0.74945 0.91565 0.95537 0.0
C1029 C 0.75412 0.91488 0.92611 0.0
C1030 C 0.80056 0.91088 0.98807 0.0
C1031 C 0.72836 0.91668 0.96416 0.0
C1032 C 0.75847 0.88014 0.03918 0.0
C1033 C 0.75903 0.89325 0.0621 0.0
C1034 C 0.75865 0.88671 0.01089 0.0
C1035 C 0.75971 0.90693 0.00539 0.0
C1036 C 0.75888 0.92033 0.02842 0.0
C1037 C 0.75845 0.91329 0.05668 0.0
C1038 C 0.7591 0.87187 0.98697 0.0
C1039 C 0.75984 0.94198 0.02343 0.0
H1040 H 0.80323 0.90971 0.93072 0.0
H1041 H 0.74254 0.915 0.91036 0.0
H1042 H 0.79847 0.92096 0.00638 0.0
H1043 H 0.80081 0.89584 -0.00332 0.0
H1044 H 0.8149 0.91392 0.97805 0.0
H1045 H 0.7192 0.92303 0.94695 0.0
H1046 H 0.72298 0.90178 0.96866 0.0
H1047 H 0.72653 0.92542 0.98396 0.0
H1048 H 0.75855 0.86463 0.04339 0.0
H1049 H 0.75882 0.92346 0.07445 0.0
H1050 H 0.7736 0.87205 0.97652 0.0
H1051 H 0.74812 0.87549 0.97042 0.0
H1052 H 0.75623 0.85689 -0.00522 0.0
H1053 H 0.77522 0.94631 0.02013 0.0
H1054 H 0.75408 0.95023 0.04207 0.0
H1055 H 0.75159 0.9462 0.004 0.0
C1056 C 0.07619 0.76627 0.92077 0.0
C1057 C 0.0956 0.7665 0.91161 0.0
C1058 C 0.07168 0.76543 0.95012 0.0
C1059 C 0.08698 0.7644 0.97036 0.0
C1060 C 0.10652 0.76323 0.96089 0.0
C1061 C 0.11058 0.76453 0.93166 0.0
C1062 C 0.05072 0.76687 0.95945 0.0
C1063 C 0.12327 0.76167 0.98172 0.0
C1064 C 0.08756 0.78735 0.04331 0.0
C1065 C 0.08729 0.77092 0.06095 0.0
C1066 C 0.08527 0.78557 0.01366 0.0
C1067 C 0.08322 0.76684 0.00142 0.0
C1068 C 0.08132 0.75037 0.01936 0.0
C1069 C 0.08321 0.75264 0.04911 0.0
C1070 C 0.08686 0.80357 -0.00468 0.0
C1071 C 0.07919 0.73017 0.00709 0.0
H1072 H 0.06462 0.7678 0.90516 0.0
H1073 H 0.12558 0.76439 0.92445 0.0
H1074 H 0.04757 0.7565 0.97702 0.0
H1075 H 0.04788 0.78173 0.96776 0.0
H1076 H 0.04054 0.76403 0.94145 0.0
H1077 H 0.13733 0.75881 0.97074 0.0
H1078 H 0.12465 0.77545 -0.00603 0.0
H1079 H 0.12058 0.74984 -0.00265 0.0
H1080 H 0.09038 0.80154 0.05259 0.0
H1081 H 0.08296 0.73993 0.06283 0.0
H1082 H 0.07569 0.80344 0.9782 0.0
H1083 H 0.10135 0.8039 0.98481 0.0
H1084 H 0.08518 0.8171 0.00812 0.0
H1085 H 0.06895 0.73008 0.98874 0.0
H1086 H 0.074 0.71964 0.02344 0.0
H1087 H 0.09353 0.72514 -0.00095 0.0
C1088 C 0.23598 0.91111 0.42386 0.0
C1089 C 0.21641 0.90892 0.41611 0.0
C1090 C 0.24143 0.91141 0.45283 0.0
C1091 C 0.2269 0.90974 0.47417 0.0
C1092 C 0.20702 0.91 0.46632 0.0
C1093 C 0.20201 0.90938 0.4373 0.0
C1094 C 0.26277 0.91136 0.46037 0.0
C1095 C 0.19104 0.90878 0.48845 0.0
C1096 C 0.23371 0.87742 0.53842 0.0
C1097 C 0.23476 0.89098 0.56073 0.0
C1098 C 0.23256 0.88346 0.50991 0.0
C1099 C 0.23214 0.9036 0.5036 0.0
C1100 C 0.2344 0.91738 0.52588 0.0
C1101 C 0.2358 0.91088 0.55431 0.0
C1102 C 0.23058 0.86824 0.4867 0.0
C1103 C 0.23402 0.93895 0.51999 0.0
H1104 H 0.24714 0.91082 0.40744 0.0
H1105 H 0.18684 0.90802 0.43124 0.0
H1106 H 0.26558 0.92018 0.47985 0.0
H1107 H 0.26743 0.89623 0.46494 0.0
H1108 H 0.27182 0.91704 0.44252 0.0
H1109 H 0.17658 0.91238 0.47926 0.0
H1110 H 0.1904 0.89378 0.49714 0.0
H1111 H 0.194 0.91878 0.50659 0.0
H1112 H 0.23322 0.86202 0.54332 0.0
H1113 H 0.23664 0.92141 0.57158 0.0
H1114 H 0.24105 0.8711 0.46911 0.0
H1115 H 0.21572 0.86885 0.47746 0.0
H1116 H 0.23312 0.85329 0.4949 0.0
H1117 H 0.24233 0.94251 0.50031 0.0
H1118 H 0.24006 0.94745 0.53818 0.0
H1119 H 0.21876 0.94363 0.51653 0.0
C1120 C 0.07238 0.2226 0.55719 0.0
C1121 C 0.09124 0.2245 0.56814 0.0
C1122 C 0.06914 0.22313 0.52748 0.0
C1123 C 0.08513 0.22595 0.50877 0.0
C1124 C 0.10386 0.22964 0.52012 0.0
C1125 C 0.10671 0.22862 0.54968 0.0
C1126 C 0.04899 0.21914 0.51615 0.0
C1127 C 0.12124 0.23317 0.50098 0.0
C1128 C 0.09179 0.20108 0.43779 0.0
C1129 C 0.09032 0.21677 0.41887 0.0
C1130 C 0.08813 0.20352 0.46704 0.0
C1131 C 0.08331 0.22222 0.47762 0.0
C1132 C 0.0803 0.23777 0.45831 0.0
C1133 C 0.08372 0.23482 0.42898 0.0
C1134 C 0.09105 0.18643 0.48687 0.0
C1135 C 0.07517 0.25789 0.46879 0.0
H1136 H 0.06045 0.2194 0.57163 0.0
H1137 H 0.12125 0.23033 0.55836 0.0
H1138 H 0.04563 0.22859 0.49757 0.0
H1139 H 0.04818 0.20383 0.5087 0.0
H1140 H 0.03771 0.22134 0.53289 0.0
H1141 H 0.13416 0.23817 0.51323 0.0
H1142 H 0.12513 0.21949 0.4897 0.0
H1143 H 0.11776 0.24421 0.48446 0.0
H1144 H 0.09652 0.18702 0.42988 0.0
H1145 H 0.08249 0.24696 0.41431 0.0
H1146 H 0.07901 0.18552 0.50263 0.0
H1147 H 0.10478 0.18839 0.49901 0.0
H1148 H 0.0919 0.17243 0.47501 0.0
H1149 H 0.06424 0.25725 0.48624 0.0
H1150 H 0.06943 0.26715 0.45124 0.0
H1151 H 0.0884 0.26496 0.47757 0.0
C1152 C 0.75881 0.11705 0.53976 0.0
C1153 C 0.75956 0.10185 0.5596 0.0
C1154 C 0.75865 0.11325 0.51034 0.0
C1155 C 0.75977 0.09377 0.50061 0.0
C1156 C 0.75956 0.0783 0.52055 0.0
C1157 C 0.75925 0.08254 0.54996 0.0
C1158 C 0.75839 0.13016 0.48971 0.0
C1159 C 0.76097 0.05738 0.51094 0.0
C1160 C 0.75178 0.08909 0.42079 0.0
C1161 C 0.77072 0.09233 0.41079 0.0
C1162 C 0.74799 0.08814 0.45029 0.0
C1163 C 0.76359 0.09008 0.46986 0.0
C1164 C 0.78292 0.09149 0.45962 0.0
C1165 C 0.78622 0.09288 0.43015 0.0
C1166 C 0.72718 0.08679 0.46043 0.0
C1167 C 0.80001 0.09308 0.4798 0.0
H1168 H 0.75875 0.13199 0.54726 0.0
H1169 H 0.75985 0.07077 0.56537 0.0
H1170 H 0.77277 0.13141 0.47905 0.0
H1171 H 0.74734 0.12776 0.47277 0.0
H1172 H 0.75519 0.14417 0.50063 0.0
H1173 H 0.75751 0.04709 0.52856 0.0
H1174 H 0.75101 0.05452 0.49273 0.0
H1175 H 0.77598 0.0544 0.5034 0.0
H1176 H 0.7398 0.08873 0.40571 0.0
H1177 H 0.80089 0.09515 0.42227 0.0
H1178 H 0.72229 0.10134 0.46781 0.0
H1179 H 0.72587 0.0767 0.47883 0.0
H1180 H 0.71727 0.08186 0.4431 0.0
H1181 H 0.79995 0.10761 0.49017 0.0
H1182 H 0.81413 0.0912 0.46852 0.0
H1183 H 0.79895 0.08201 0.497 0.0
C1184 C 0.90254 0.7482 0.54814 0.0
C1185 C 0.90072 0.76735 0.55805 0.0
C1186 C 0.90366 0.74427 0.51867 0.0
C1187 C 0.90327 0.75993 0.49901 0.0
C1188 C 0.90353 0.77932 0.50922 0.0
C1189 C 0.902 0.78279 0.53865 0.0
C1190 C 0.90335 0.72342 0.50861 0.0
C1191 C 0.9036 0.79644 0.48898 0.0
C1192 C 0.90964 0.75446 0.41866 0.0
C1193 C 0.8903 0.75613 0.40946 0.0
C1194 C 0.9142 0.75473 0.44799 0.0
C1195 C 0.89901 0.75638 0.46832 0.0
C1196 C 0.8794 0.75677 0.45906 0.0
C1197 C 0.87531 0.75683 0.42974 0.0
C1198 C 0.93526 0.75443 0.45707 0.0
C1199 C 0.86273 0.75814 0.48008 0.0
H1200 H 0.90154 0.73625 0.5632 0.0
H1201 H 0.90087 0.79762 0.54642 0.0
H1202 H 0.88843 0.71966 0.50139 0.0
H1203 H 0.91328 0.72127 0.49014 0.0
H1204 H 0.90753 0.7132 0.52596 0.0
H1205 H 0.90687 0.81031 0.50022 0.0
H1206 H 0.91448 0.79428 0.47171 0.0
H1207 H 0.8891 0.79777 0.47873 0.0
H1208 H 0.92125 0.75392 0.40297 0.0
H1209 H 0.86032 0.75781 0.42265 0.0
H1210 H 0.93743 0.74449 0.47548 0.0
H1211 H 0.93963 0.76921 0.46412 0.0
H1212 H 0.94503 0.74988 0.43931 0.0
H1213 H 0.86421 0.74689 0.49695 0.0
H1214 H 0.84836 0.75632 0.46952 0.0
H1215 H 0.86299 0.77255 0.49081 0.0
C1216 C 0.73591 0.57839 0.54773 0.0
C1217 C 0.71833 0.58521 0.5592 0.0
C1218 C 0.73803 0.57565 0.51811 0.0
C1219 C 0.72213 0.57966 0.49984 0.0
C1220 C 0.70382 0.58459 0.5117 0.0
C1221 C 0.70219 0.58748 0.54126 0.0
C1222 C 0.75774 0.57024 0.50627 0.0
C1223 C 0.68635 0.58856 0.49298 0.0
C1224 C 0.72788 0.60581 0.42981 0.0
C1225 C 0.72288 0.59128 0.41017 0.0
C1226 C 0.72934 0.6017 0.45899 0.0
C1227 C 0.72527 0.58265 0.46877 0.0
C1228 C 0.7216 0.56757 0.44879 0.0
C1229 C 0.72058 0.57207 0.41947 0.0
C1230 C 0.73376 0.61814 0.47951 0.0
C1231 C 0.71724 0.5471 0.45842 0.0
H1232 H 0.7484 0.57645 0.56161 0.0
H1233 H 0.68845 0.59235 0.55017 0.0
H1234 H 0.75634 0.56001 0.488 0.0
H1235 H 0.76508 0.58354 0.49825 0.0
H1236 H 0.76715 0.56355 0.52289 0.0
H1237 H 0.67266 0.5893 0.50559 0.0
H1238 H 0.68836 0.60266 0.48182 0.0
H1239 H 0.68481 0.57711 0.47638 0.0
H1240 H 0.72991 0.62062 0.42241 0.0
H1241 H 0.7167 0.56087 0.40413 0.0
H1242 H 0.74511 0.6137 0.49506 0.0
H1243 H 0.72046 0.62184 0.49186 0.0
H1244 H 0.7388 0.63143 0.46823 0.0
H1245 H 0.72677 0.54278 0.47648 0.0
H1246 H 0.71904 0.53647 0.44067 0.0
H1247 H 0.70197 0.54633 0.46605 0.0
C1248 C 0.37686 0.72579 0.44971 0.0
C1249 C 0.38964 0.72728 0.42647 0.0
C1250 C 0.38379 0.72603 0.47784 0.0
C1251 C 0.40406 0.72746 0.48285 0.0
C1252 C 0.417 0.72989 0.45954 0.0
C1253 C 0.40959 0.7299 0.4315 0.0
C1254 C 0.36943 0.72378 0.50214 0.0
C1255 C 0.43868 0.73136 0.46403 0.0
C1256 C 0.41307 0.73596 0.56145 0.0
C1257 C 0.41251 0.71674 0.57133 0.0
C1258 C 0.41238 0.73991 0.53197 0.0
C1259 C 0.4114 0.72423 0.51232 0.0
C1260 C 0.4134 0.7049 0.52225 0.0
C1261 C 0.41368 0.70137 0.55174 0.0
C1262 C 0.41043 0.76072 0.5222 0.0
C1263 C 0.41298 0.68779 0.50196 0.0
H1264 H 0.3614 0.72407 0.44588 0.0
H1265 H 0.4195 0.73107 0.41352 0.0
H1266 H 0.3716 0.70949 0.51267 0.0
H1267 H 0.37182 0.73522 0.51854 0.0
H1268 H 0.3541 0.72465 0.49472 0.0
H1269 H 0.44623 0.73701 0.44471 0.0
H1270 H 0.44213 0.74091 0.4825 0.0
H1271 H 0.44458 0.71671 0.46888 0.0
H1272 H 0.41217 0.74784 0.57668 0.0
H1273 H 0.41349 0.68651 0.5595 0.0
H1274 H 0.39487 0.76391 0.51794 0.0
H1275 H 0.41858 0.76322 0.50203 0.0
H1276 H 0.4157 0.77108 0.53873 0.0
H1277 H 0.39785 0.6854 0.49445 0.0
H1278 H 0.41812 0.67422 0.51241 0.0
H1279 H 0.42215 0.69065 0.48286 0.0
C1280 C 0.2461 0.40441 0.42701 0.0
C1281 C 0.26535 0.40233 0.41758 0.0
C1282 C 0.24181 0.40509 0.4564 0.0
C1283 C 0.25718 0.40389 0.47648 0.0
C1284 C 0.27671 0.40396 0.46686 0.0
C1285 C 0.28055 0.403 0.43748 0.0
C1286 C 0.22082 0.4052 0.46585 0.0
C1287 C 0.29357 0.40313 0.48757 0.0
C1288 C 0.25241 0.40811 0.55709 0.0
C1289 C 0.25383 0.38849 0.565 0.0
C1290 C 0.25216 0.4135 0.52808 0.0
C1291 C 0.25319 0.39888 0.50678 0.0
C1292 C 0.25305 0.37902 0.51478 0.0
C1293 C 0.25351 0.37409 0.5438 0.0
C1294 C 0.25222 0.4348 0.52036 0.0
C1295 C 0.25377 0.36294 0.4927 0.0
H1296 H 0.23432 0.40395 0.41159 0.0
H1297 H 0.29547 0.40173 0.43013 0.0
H1298 H 0.21641 0.3902 0.47173 0.0
H1299 H 0.21877 0.41452 0.48502 0.0
H1300 H 0.21102 0.41037 0.44855 0.0
H1301 H 0.30769 0.40614 0.47687 0.0
H1302 H 0.29153 0.41376 0.50519 0.0
H1303 H 0.2943 0.38842 0.49728 0.0
H1304 H 0.25259 0.4193 0.57347 0.0
H1305 H 0.25426 0.35889 0.54988 0.0
H1306 H 0.24271 0.43764 0.50165 0.0
H1307 H 0.2672 0.43924 0.51439 0.0
H1308 H 0.24737 0.44403 0.53856 0.0
H1309 H 0.24255 0.3653 0.47599 0.0
H1310 H 0.25144 0.34836 0.50236 0.0
H1311 H 0.26817 0.36299 0.48195 0.0
C1312 C 0.57401 0.26274 0.55345 0.0
C1313 C 0.59336 0.26522 0.56216 0.0
C1314 C 0.56941 0.26045 0.52429 0.0
C1315 C 0.5846 0.26035 0.50378 0.0
C1316 C 0.60422 0.26142 0.51288 0.0
C1317 C 0.60832 0.26404 0.54191 0.0
C1318 C 0.54835 0.25943 0.5154 0.0
C1319 C 0.62091 0.26096 0.49179 0.0
C1320 C 0.58259 0.24667 0.42558 0.0
C1321 C 0.58502 0.26503 0.41317 0.0
C1322 C 0.58043 0.2448 0.45538 0.0
C1323 C 0.58044 0.26173 0.4727 0.0
C1324 C 0.5806 0.28032 0.45972 0.0
C1325 C 0.58315 0.28173 0.43009 0.0
C1326 C 0.5802 0.22474 0.46841 0.0
C1327 C 0.58012 0.29875 0.47734 0.0
H1328 H 0.56244 0.26361 0.5692 0.0
H1329 H 0.62332 0.26558 0.54875 0.0
H1330 H 0.54375 0.27382 0.5071 0.0
H1331 H 0.54623 0.24866 0.49796 0.0
H1332 H 0.53874 0.25555 0.53366 0.0
H1333 H 0.63526 0.25987 0.50262 0.0
H1334 H 0.61936 0.24845 0.47694 0.0
H1335 H 0.62079 0.27442 0.47873 0.0
H1336 H 0.58397 0.23375 0.4124 0.0
H1337 H 0.58469 0.29595 0.42031 0.0
H1338 H 0.57007 0.22406 0.48689 0.0
H1339 H 0.59498 0.22119 0.47642 0.0
H1340 H 0.57595 0.21349 0.45249 0.0
H1341 H 0.56895 0.29775 0.49442 0.0
H1342 H 0.57703 0.31174 0.46398 0.0
H1343 H 0.59444 0.30086 0.48785 0.0
C1344 C 0.70359 0.40802 0.9301 0.0
C1345 C 0.71916 0.40743 0.9108 0.0
C1346 C 0.70688 0.40878 0.95962 0.0
C1347 C 0.72622 0.40852 0.96998 0.0
C1348 C 0.74196 0.40997 0.95053 0.0
C1349 C 0.73822 0.40953 0.92098 0.0
C1350 C 0.68965 0.40776 0.97966 0.0
C1351 C 0.76277 0.40988 0.96077 0.0
C1352 C 0.73016 0.40982 0.05101 0.0
C1353 C 0.72854 0.38996 0.05727 0.0
C1354 C 0.7306 0.41628 0.02246 0.0
C1355 C 0.72966 0.40245 1e-05 0.0
C1356 C 0.72953 0.38233 0.00641 0.0
C1357 C 0.7288 0.37636 0.03497 0.0
C1358 C 0.73075 0.43782 0.01646 0.0
C1359 C 0.72893 0.36705 0.98311 0.0
H1360 H 0.68882 0.40676 0.92215 0.0
H1361 H 0.75029 0.40917 0.90601 0.0
H1362 H 0.68844 0.39281 0.98843 0.0
H1363 H 0.69158 0.41786 -0.00202 0.0
H1364 H 0.6758 0.41135 0.96861 0.0
H1365 H 0.77287 0.41542 0.94407 0.0
H1366 H 0.76447 0.4188 0.98042 0.0
H1367 H 0.76708 0.39476 0.9661 0.0
H1368 H 0.73 0.42035 0.06832 0.0
H1369 H 0.72791 0.36097 0.03985 0.0
H1370 H 0.71579 0.44262 0.01104 0.0
H1371 H 0.74022 0.44128 -0.00209 0.0
H1372 H 0.73576 0.44631 0.03533 0.0
H1373 H 0.7147 0.36769 0.97193 0.0
H1374 H 0.73089 0.35212 -0.00831 0.0
H1375 H 0.74044 0.36982 0.96697 0.0
C1376 C 0.58381 0.73741 0.06391 0.0
C1377 C 0.58587 0.7189 0.07598 0.0
C1378 C 0.58498 0.73996 0.03413 0.0
C1379 C 0.58788 0.72352 0.01632 0.0
C1380 C 0.58803 0.70465 0.02837 0.0
C1381 C 0.58727 0.70259 0.05814 0.0
C1382 C 0.58489 0.76031 0.02208 0.0
C1383 C 0.5906 0.68672 0.01005 0.0
C1384 C 0.58655 0.72542 0.93517 0.0
C1385 C 0.60647 0.72476 0.92878 0.0
C1386 C 0.5801 0.72585 0.96371 0.0
C1387 C 0.59397 0.72599 0.9861 0.0
C1388 C 0.61408 0.72653 0.9796 0.0
C1389 C 0.62008 0.72568 0.95101 0.0
C1390 C 0.55857 0.72504 0.96987 0.0
C1391 C 0.62933 0.7271 0.00288 0.0
H1392 H 0.58276 0.75003 0.07778 0.0
H1393 H 0.58861 0.68824 0.06756 0.0
H1394 H 0.6 0.76458 0.01655 0.0
H1395 H 0.57615 0.76103 0.00215 0.0
H1396 H 0.57905 0.77103 0.03768 0.0
H1397 H 0.58745 0.67316 0.02211 0.0
H1398 H 0.58095 0.68731 -0.00896 0.0
H1399 H 0.60583 0.68601 0.00221 0.0
H1400 H 0.57601 0.72469 0.91794 0.0
H1401 H 0.63549 0.72546 0.94605 0.0
H1402 H 0.55452 0.73581 0.98654 0.0
H1403 H 0.55478 0.71043 0.97826 0.0
H1404 H 0.54972 0.72779 0.95039 0.0
H1405 H 0.62605 0.73887 0.01842 0.0
H1406 H 0.64419 0.72946 -0.00583 0.0
H1407 H 0.62924 0.71315 0.0148 0.0
C1408 C 0.24849 0.58433 0.05212 0.0
C1409 C 0.26725 0.58729 0.06301 0.0
C1410 C 0.24536 0.58305 0.02246 0.0
C1411 C 0.26144 0.58447 0.00361 0.0
C1412 C 0.28055 0.58538 0.01479 0.0
C1413 C 0.28321 0.58701 0.04439 0.0
C1414 C 0.22478 0.58205 0.01135 0.0
C1415 C 0.29813 0.58645 -0.00457 0.0
C1416 C 0.25885 0.57808 0.923 0.0
C1417 C 0.2597 0.59753 0.91406 0.0
C1418 C 0.25835 0.57342 0.95228 0.0
C1419 C 0.25841 0.5886 0.97278 0.0
C1420 C 0.25784 0.60823 0.96368 0.0
C1421 C 0.25868 0.61244 0.93443 0.0
C1422 C 0.25905 0.55235 0.9612 0.0
C1423 C 0.25749 0.62487 0.98486 0.0
H1424 H 0.23612 0.58453 0.06655 0.0
H1425 H 0.29775 0.58899 0.0529 0.0
H1426 H 0.22024 0.59672 0.00408 0.0
H1427 H 0.22374 0.57211 -0.00731 0.0
H1428 H 0.21445 0.57713 0.02814 0.0
H1429 H 0.31191 0.58409 0.00736 0.0
H1430 H 0.29711 0.57546 0.97808 0.0
H1431 H 0.29877 0.601 0.98523 0.0
H1432 H 0.25963 0.56653 0.90722 0.0
H1433 H 0.25901 0.62748 0.9275 0.0
H1434 H 0.24888 0.54954 0.97918 0.0
H1435 H 0.27392 0.5488 0.96879 0.0
H1436 H 0.25541 0.54243 0.94318 0.0
H1437 H 0.2459 0.62257 0.00104 0.0
H1438 H 0.25501 0.63911 0.97428 0.0
H1439 H 0.27158 0.62553 -0.00359 0.0
C1440 C 0.39674 0.28718 0.93014 0.0
C1441 C 0.39675 0.2705 0.91296 0.0
C1442 C 0.39926 0.28582 0.95978 0.0
C1443 C 0.40126 0.26727 0.97252 0.0
C1444 C 0.40266 0.25048 0.95504 0.0
C1445 C 0.40059 0.25233 0.92526 0.0
C1446 C 0.3982 0.30413 0.97762 0.0
C1447 C 0.4046 0.23045 0.96786 0.0
C1448 C 0.41055 0.26768 0.05264 0.0
C1449 C 0.39143 0.26837 0.06298 0.0
C1450 C 0.41419 0.26642 0.02307 0.0
C1451 C 0.3983 0.26539 0.00383 0.0
C1452 C 0.37903 0.26473 0.01451 0.0
C1453 C 0.37584 0.26649 0.04394 0.0
C1454 C 0.43488 0.26741 0.01241 0.0
C1455 C 0.36168 0.26317 -0.00523 0.0
H1456 H 0.39408 0.30127 0.92047 0.0
H1457 H 0.40062 0.23943 0.91188 0.0
H1458 H 0.38395 0.30475 0.98877 0.0
H1459 H 0.40972 0.30417 -0.00576 0.0
H1460 H 0.39974 0.31745 0.96435 0.0
H1461 H 0.40909 0.2195 0.95163 0.0
H1462 H 0.4153 0.23042 0.98562 0.0
H1463 H 0.39036 0.22594 0.9769 0.0
H1464 H 0.42258 0.26915 0.0675 0.0
H1465 H 0.36107 0.26673 0.05209 0.0
H1466 H 0.43759 0.28199 0.00304 0.0
H1467 H 0.43744 0.25652 -0.00472 0.0
H1468 H 0.44556 0.265 0.0299 0.0
H1469 H 0.36016 0.27682 0.98232 0.0
H1470 H 0.34792 0.26064 0.00668 0.0
H1471 H 0.36376 0.25112 0.97925 0.0
C1472 C 0.24237 0.02167 0.18028 0.0
C1473 C 0.2527 0.03832 0.18853 0.0
C1474 C 0.24396 0.00437 0.19584 0.0
C1475 C 0.25628 0.00373 0.22011 0.0
C1476 C 0.26819 0.01988 0.22681 0.0
C1477 C 0.26622 0.03707 0.21095 0.0
C1478 C 0.23112 0.98738 0.18784 0.0
C1479 C 0.28182 0.01957 0.25214 0.0
C1480 C 0.2352 0.97254 0.27881 0.0
C1481 C 0.24489 0.95488 0.27438 0.0
C1482 C 0.23958 0.98888 0.26221 0.0
C1483 C 0.2541 0.98754 0.24077 0.0
C1484 C 0.26486 0.97015 0.23748 0.0
C1485 C 0.26006 0.95393 0.2543 0.0
C1486 C 0.22782 0.00723 0.2665 0.0
C1487 C 0.28066 0.96832 0.21518 0.0
H1488 H 0.2321 0.02246 0.16271 0.0
H1489 H 0.27444 0.04984 0.21721 0.0
H1490 H 0.2396 0.97367 0.18758 0.0
H1491 H 0.21945 0.98575 0.2041 0.0
H1492 H 0.22421 0.98934 0.16653 0.0
H1493 H 0.29271 0.03148 0.25103 0.0
H1494 H 0.2733 0.02137 0.27216 0.0
H1495 H 0.28957 0.00545 0.25349 0.0
H1496 H 0.2236 0.97342 0.29449 0.0
H1497 H 0.26771 0.94033 0.25094 0.0
H1498 H 0.21885 0.01003 0.24719 0.0
H1499 H 0.23761 0.0199 0.26942 0.0
H1500 H 0.218 0.00629 0.28535 0.0
H1501 H 0.27395 0.96702 0.19366 0.0
H1502 H 0.28991 0.95531 0.21884 0.0
H1503 H 0.29004 0.98145 0.21503 0.0
C1504 C 0.96007 0.26751 0.21689 0.0
C1505 C 0.95987 0.25257 0.19639 0.0
C1506 C 0.97692 0.27146 0.2328 0.0
C1507 C 0.99376 0.26006 0.22819 0.0
C1508 C 0.99411 0.24621 0.20573 0.0
C1509 C 0.97716 0.2427 0.19 0.0
C1510 C 0.97619 0.28673 0.25602 0.0
C1511 C 0.01184 0.23383 0.19997 0.0
C1512 C 0.04337 0.2673 0.26163 0.0
C1513 C 0.04295 0.25303 0.28306 0.0
C1514 C 0.02686 0.271 0.2448 0.0
C1515 C 0.00975 0.26002 0.24947 0.0
C1516 C 0.00883 0.24675 0.2726 0.0
C1517 C 0.02543 0.24349 0.28918 0.0
C1518 C 0.0282 0.28562 0.22081 0.0
C1519 C 0.9908 0.23482 0.27845 0.0
H1520 H 0.9468 0.27539 0.22164 0.0
H1521 H 0.97717 0.23133 0.17389 0.0
H1522 H 0.97417 0.27956 0.27708 0.0
H1523 H 0.99001 0.29505 0.25694 0.0
H1524 H 0.96396 0.29704 0.25274 0.0
H1525 H 0.01045 0.22527 0.17988 0.0
H1526 H 0.02506 0.24301 0.19849 0.0
H1527 H 0.01399 0.22355 0.21801 0.0
H1528 H 0.05683 0.27488 0.25699 0.0
H1529 H 0.02494 0.23263 0.30599 0.0
H1530 H 0.01456 0.29414 0.21899 0.0
H1531 H 0.03042 0.27786 0.20023 0.0
H1532 H 0.04057 0.29581 0.22395 0.0
H1533 H 0.97781 0.24434 0.27975 0.0
H1534 H 0.99192 0.22641 0.29868 0.0
H1535 H 0.98841 0.22444 0.26055 0.0
C1536 C 0.75294 0.01873 0.28584 0.0
C1537 C 0.74307 0.03553 0.27707 0.0
C1538 C 0.7501 0.00096 0.27177 0.0
C1539 C 0.73699 -3e-05 0.24845 0.0
C1540 C 0.72597 0.01654 0.24077 0.0
C1541 C 0.72919 0.03419 0.25515 0.0
C1542 C 0.7621 0.9836 0.28068 0.0
C1543 C 0.71165 0.01593 0.2163 0.0
C1544 C 0.75216 0.96292 0.19296 0.0
C1545 C 0.74093 0.94675 0.20073 0.0
C1546 C 0.75027 0.98065 0.20747 0.0
C1547 C 0.73674 0.98228 0.23021 0.0
C1548 C 0.72453 0.96638 0.23706 0.0
C1549 C 0.72682 0.94872 0.22227 0.0
C1550 C 0.76355 -0.0027 0.19947 0.0
C1551 C 0.70976 0.96769 0.26091 0.0
H1552 H 0.76356 0.01961 0.30294 0.0
H1553 H 0.7214 0.0471 0.24842 0.0
H1554 H 0.75267 0.97069 0.28377 0.0
H1555 H 0.77267 0.98 0.26349 0.0
H1556 H 0.7703 0.98629 0.30079 0.0
H1557 H 0.70212 0.02897 0.21596 0.0
H1558 H 0.71969 0.01523 0.19571 0.0
H1559 H 0.70241 0.00273 0.21763 0.0
H1560 H 0.76298 0.96156 0.17619 0.0
H1561 H 0.718 0.9363 0.22823 0.0
H1562 H 0.7737 0.00033 0.21741 0.0
H1563 H 0.75497 0.0107 0.1957 0.0
H1564 H 0.77226 -0.00588 0.17997 0.0
H1565 H 0.71738 0.96802 0.28184 0.0
H1566 H 0.69958 0.95514 0.26083 0.0
H1567 H 0.70123 0.98133 0.25917 0.0
C1568 C 0.03757 0.71853 0.21649 0.0
C1569 C 0.03723 0.73283 0.1951 0.0
C1570 C 0.02084 0.71437 0.23263 0.0
C1571 C 0.00355 0.7249 0.22728 0.0
C1572 C 0.00279 0.73829 0.20431 0.0
C1573 C 0.01963 0.74204 0.18844 0.0
C1574 C 0.02206 0.69969 0.25656 0.0
C1575 C 0.98457 0.74975 0.19778 0.0
C1576 C 0.95351 0.71469 0.25727 0.0
C1577 C 0.95216 0.72922 0.27829 0.0
C1578 C 0.97083 0.71188 0.24188 0.0
C1579 C 0.98699 0.72402 0.24759 0.0
C1580 C 0.98617 0.73757 0.27042 0.0
C1581 C 0.96877 0.73995 0.28558 0.0
C1582 C 0.97133 0.69697 0.21814 0.0
C1583 C 0.00315 0.75073 0.2773 0.0
H1584 H 0.05111 0.71124 0.22159 0.0
H1585 H 0.01922 0.75294 0.1717 0.0
H1586 H 0.02309 0.70743 0.27736 0.0
H1587 H 0.00881 0.69049 0.25722 0.0
H1588 H 0.03501 0.69014 0.25432 0.0
H1589 H 0.98593 0.75836 0.17776 0.0
H1590 H 0.9719 0.73987 0.19569 0.0
H1591 H 0.98147 0.7599 0.21572 0.0
H1592 H 0.94077 0.70618 0.25177 0.0
H1593 H 0.96789 0.75104 0.30205 0.0
H1594 H 0.98541 0.68909 0.21795 0.0
H1595 H 0.96982 0.70442 0.1972 0.0
H1596 H 0.95933 0.68624 0.22019 0.0
H1597 H 0.01675 0.74217 0.27921 0.0
H1598 H 0.00089 0.75898 0.29751 0.0
H1599 H 0.00521 0.7613 0.25961 0.0
C1600 C 0.75149 0.9739 0.77979 0.0
C1601 C 0.74175 0.9562 0.77603 0.0
C1602 C 0.74691 0.99006 0.76296 0.0
C1603 C 0.73213 0.98848 0.74197 0.0
C1604 C 0.72135 0.97106 0.73935 0.0
C1605 C 0.72635 0.95503 0.7564 0.0
C1606 C 0.7587 0.00846 0.76653 0.0
C1607 C 0.70529 0.96898 0.71753 0.0
C1608 C 0.71984 0.03788 0.71211 0.0
C1609 C 0.73326 0.03906 0.68953 0.0
C1610 C 0.71786 0.02069 0.72799 0.0
C1611 C 0.72965 0.0045 0.7211 0.0
C1612 C 0.74174 0.00503 0.69655 0.0
C1613 C 0.74335 0.02233 0.68099 0.0
C1614 C 0.70447 0.02049 0.75362 0.0
C1615 C 0.75442 0.98797 0.68833 0.0
H1616 H 0.76328 0.97495 0.79511 0.0
H1617 H 0.71868 0.94139 0.75355 0.0
H1618 H 0.76739 0.01111 0.74688 0.0
H1619 H 0.74893 0.02114 0.76954 0.0
H1620 H 0.76879 0.00769 0.78506 0.0
H1621 H 0.69603 0.95606 0.72183 0.0
H1622 H 0.69596 0.98214 0.7172 0.0
H1623 H 0.71175 0.96735 0.69588 0.0
H1624 H 0.71179 0.0507 0.71857 0.0
H1625 H 0.75352 0.02307 0.66327 0.0
H1626 H 0.71317 0.02242 0.77342 0.0
H1627 H 0.69675 0.00637 0.75532 0.0
H1628 H 0.69355 0.03238 0.7526 0.0
H1629 H 0.76636 0.98645 0.70416 0.0
H1630 H 0.76097 0.98978 0.66674 0.0
H1631 H 0.74592 0.97426 0.6886 0.0
C1632 C 0.96799 0.74708 0.68699 0.0
C1633 C 0.95069 0.73797 0.69549 0.0
C1634 C 0.9851 0.74481 0.70283 0.0
C1635 C 0.98492 0.73307 0.7277 0.0
C1636 C 0.96794 0.72257 0.73509 0.0
C1637 C 0.95094 0.72519 0.71888 0.0
C1638 C 0.00297 0.75616 0.69408 0.0
C1639 C 0.96733 0.70963 0.76115 0.0
C1640 C 0.03524 0.7256 0.75856 0.0
C1641 C 0.0364 0.74133 0.77767 0.0
C1642 C 0.018 0.72173 0.74351 0.0
C1643 C 0.0017 0.73398 0.74759 0.0
C1644 C 0.0024 0.74899 0.76835 0.0
C1645 C 0.01974 0.75244 0.78321 0.0
C1646 C 0.01766 0.70535 0.72196 0.0
C1647 C 0.98528 0.76234 0.77343 0.0
H1648 H 0.96795 0.75679 0.66872 0.0
H1649 H 0.93763 0.71799 0.72543 0.0
H1650 H 0.00594 0.76764 0.71022 0.0
H1651 H 0.01587 0.7465 0.6933 0.0
H1652 H 0.00123 0.7632 0.67284 0.0
H1653 H 0.95449 0.69981 0.76089 0.0
H1654 H 0.98073 0.70071 0.76267 0.0
H1655 H 0.96653 0.71877 0.78072 0.0
H1656 H 0.04803 0.71682 0.75441 0.0
H1657 H 0.02048 0.76448 0.79818 0.0
H1658 H 0.01869 0.71145 0.70003 0.0
H1659 H 0.0038 0.69713 0.72332 0.0
H1660 H 0.02997 0.69511 0.7251 0.0
H1661 H 0.98289 0.77148 0.75418 0.0
H1662 H 0.98756 0.77208 0.79213 0.0
H1663 H 0.97184 0.75376 0.777 0.0
C1664 C 0.24805 0.96425 0.68644 0.0
C1665 C 0.25886 0.94798 0.69492 0.0
C1666 C 0.24974 0.98198 0.70097 0.0
C1667 C 0.2627 0.98351 0.72441 0.0
C1668 C 0.27477 0.9676 0.73167 0.0
C1669 C 0.27264 0.94993 0.71688 0.0
C1670 C 0.23662 -0.00136 0.69251 0.0
C1671 C 0.28902 0.96883 0.75618 0.0
C1672 C 0.26814 0.03511 0.75188 0.0
C1673 C 0.25358 0.03563 0.77294 0.0
C1674 C 0.27231 0.01782 0.73705 0.0
C1675 C 0.26153 0.00082 0.74334 0.0
C1676 C 0.24773 0.001 0.76585 0.0
C1677 C 0.24398 0.01839 0.78044 0.0
C1678 C 0.2874 0.01806 0.71356 0.0
C1679 C 0.23592 0.98316 0.77327 0.0
H1680 H 0.23751 0.96291 0.66929 0.0
H1681 H 0.28119 0.93744 0.72337 0.0
H1682 H 0.22579 0.00126 0.70972 0.0
H1683 H 0.24517 0.01219 0.68987 0.0
H1684 H 0.22867 -0.00432 0.67225 0.0
H1685 H 0.29962 0.95664 0.75581 0.0
H1686 H 0.29711 0.98279 0.75559 0.0
H1687 H 0.28098 0.96831 0.77677 0.0
H1688 H 0.27574 0.04837 0.74615 0.0
H1689 H 0.23285 0.01864 0.79689 0.0
H1690 H 0.28003 0.01789 0.69243 0.0
H1691 H 0.29675 0.00493 0.71469 0.0
H1692 H 0.29677 0.0312 0.71469 0.0
H1693 H 0.22608 0.97955 0.75519 0.0
H1694 H 0.22695 0.9853 0.79282 0.0
H1695 H 0.24561 0.97048 0.77667 0.0
C1696 C 0.94568 0.26536 0.76111 0.0
C1697 C 0.94452 0.25186 0.78356 0.0
C1698 C 0.96303 0.26779 0.74565 0.0
C1699 C 0.97942 0.25635 0.75277 0.0
C1700 C 0.97872 0.24382 0.77679 0.0
C1701 C 0.96128 0.24179 0.79195 0.0
C1702 C 0.96339 0.28159 0.72055 0.0
C1703 C -0.00406 0.23143 0.78519 0.0
C1704 C 0.01396 0.23748 0.69641 0.0
C1705 C 0.031 0.24772 0.70298 0.0
C1706 C -0.00333 0.24105 0.71136 0.0
C1707 C -0.00359 0.25532 0.73325 0.0
C1708 C 0.01316 0.26674 0.73849 0.0
C1709 C 0.03034 0.26273 0.72334 0.0
C1710 C 0.97907 0.2286 0.70505 0.0
C1711 C 0.0133 0.28233 0.76127 0.0
H1712 H 0.9328 0.27332 0.75468 0.0
H1713 H 0.96054 0.2315 0.80949 0.0
H1714 H 0.97715 0.29001 0.72014 0.0
H1715 H 0.96258 0.27315 0.70032 0.0
H1716 H 0.95095 0.2919 0.7211 0.0
H1717 H 0.9936 0.22384 0.8059 0.0
H1718 H -0.00138 0.22033 0.76837 0.0
H1719 H 0.00926 0.24046 0.78693 0.0
H1720 H 0.01433 0.22598 0.68051 0.0
H1721 H 0.04344 0.27084 0.72831 0.0
H1722 H 0.96605 0.23784 0.70174 0.0
H1723 H 0.97606 0.21901 0.72363 0.0
H1724 H 0.98116 0.21933 0.68578 0.0
H1725 H -0.00017 0.29119 0.76029 0.0
H1726 H 0.02608 0.29211 0.75917 0.0
H1727 H 0.01381 0.27543 0.78272 0.0
C1728 C 0.75329 0.51903 0.68045 0.0
C1729 C 0.76248 0.53657 0.6875 0.0
C1730 C 0.75635 0.50231 0.69682 0.0
C1731 C 0.76907 0.50317 0.72062 0.0
C1732 C 0.78018 0.52015 0.72568 0.0
C1733 C 0.77667 0.53679 0.70908 0.0
C1734 C 0.74437 0.4844 0.69042 0.0
C1735 C 0.79443 0.52134 0.75017 0.0
C1736 C 0.74792 0.47337 0.78039 0.0
C1737 C 0.75696 0.45539 0.77582 0.0
C1738 C 0.75297 0.48961 0.76402 0.0
C1739 C 0.76758 0.48784 0.74278 0.0
C1740 C 0.77815 0.47029 0.74011 0.0
C1741 C 0.77261 0.45415 0.75658 0.0
C1742 C 0.7414 0.50814 0.76775 0.0
C1743 C 0.79427 0.46805 0.7184 0.0
H1744 H 0.74261 0.51868 0.66337 0.0
H1745 H 0.78406 0.55025 0.71433 0.0
H1746 H 0.75367 0.47123 0.69036 0.0
H1747 H 0.73322 0.48248 0.70739 0.0
H1748 H 0.73684 0.48539 0.66943 0.0
H1749 H 0.80524 0.53313 0.74679 0.0
H1750 H 0.78643 0.52448 0.7703 0.0
H1751 H 0.80225 0.50737 0.75304 0.0
H1752 H 0.73604 0.47451 0.79558 0.0
H1753 H 0.77988 0.44033 0.75328 0.0
H1754 H 0.7322 0.51054 0.74854 0.0
H1755 H 0.75127 0.52081 0.76982 0.0
H1756 H 0.73179 0.50766 0.78687 0.0
H1757 H 0.78788 0.46474 0.69714 0.0
H1758 H 0.80423 0.45596 0.72418 0.0
H1759 H 0.80283 0.48166 0.71636 0.0
C1760 C 0.53398 0.73553 0.80008 0.0
C1761 C 0.55051 0.74616 0.79214 0.0
C1762 C 0.51653 0.73734 0.78487 0.0
C1763 C 0.5156 0.75016 0.76122 0.0
C1764 C 0.53181 0.76196 0.75435 0.0
C1765 C 0.54914 0.75979 0.7699 0.0
C1766 C 0.49952 0.72456 0.79296 0.0
C1767 C 0.53124 0.77597 0.72951 0.0
C1768 C 0.48113 0.73245 0.70392 0.0
C1769 C 0.4642 0.74292 0.71039 0.0
C1770 C 0.49829 0.73545 0.71941 0.0
C1771 C 0.49853 0.74931 0.74185 0.0
C1772 C 0.48186 0.76079 0.74733 0.0
C1773 C 0.46482 0.75742 0.73153 0.0
C1774 C 0.51582 0.72296 0.71282 0.0
C1775 C 0.48168 0.77586 0.77086 0.0
H1776 H 0.53488 0.7251 0.81743 0.0
H1777 H 0.56183 0.76817 0.7638 0.0
H1778 H 0.48606 0.73335 0.79494 0.0
H1779 H 0.49702 0.71362 0.77585 0.0
H1780 H 0.50198 0.71676 0.81346 0.0
H1781 H 0.54379 0.78616 0.72978 0.0
H1782 H 0.53161 0.7677 0.7091 0.0
H1783 H 0.51757 0.78453 0.72977 0.0
H1784 H 0.48079 0.72133 0.68744 0.0
H1785 H 0.45179 0.76565 0.73651 0.0
H1786 H 0.51875 0.71313 0.73115 0.0
H1787 H 0.5289 0.73217 0.70978 0.0
H1788 H 0.51372 0.71394 0.6933 0.0
H1789 H 0.48161 0.76848 0.79198 0.0
H1790 H 0.46871 0.78545 0.76961 0.0
H1791 H 0.49497 0.78499 0.7699 0.0
C1792 C 0.22339 0.45027 0.723 0.0
C1793 C 0.23717 0.44874 0.70094 0.0
C1794 C 0.221 0.46774 0.73815 0.0
C1795 C 0.23278 0.48391 0.73111 0.0
C1796 C 0.24585 0.48278 0.70772 0.0
C1797 C 0.24784 0.46521 0.69285 0.0
C1798 C 0.2067 0.46854 0.76266 0.0
C1799 C 0.25864 0.49976 0.69951 0.0
C1800 C 0.22478 0.5352 0.75819 0.0
C1801 C 0.23904 0.53643 0.77959 0.0
C1802 C 0.22165 0.51776 0.74326 0.0
C1803 C 0.23316 0.50132 0.74985 0.0
C1804 C 0.2467 0.50216 0.77264 0.0
C1805 C 0.24943 0.51972 0.78731 0.0
C1806 C 0.20686 0.51727 0.7194 0.0
C1807 C 0.25921 0.48489 0.78036 0.0
H1808 H 0.21499 0.43761 0.7292 0.0
H1809 H 0.25841 0.46416 0.67568 0.0
H1810 H 0.21474 0.4686 0.78326 0.0
H1811 H 0.198 0.48212 0.76178 0.0
H1812 H 0.19664 0.4559 0.76257 0.0
H1813 H 0.26687 0.497 0.67943 0.0
H1814 H 0.24975 0.51307 0.69666 0.0
H1815 H 0.2692 0.50269 0.71695 0.0
H1816 H 0.21659 0.54805 0.75229 0.0
H1817 H 0.26036 0.52054 0.80399 0.0
H1818 H 0.19787 0.5039 0.72068 0.0
H1819 H 0.21449 0.51703 0.69845 0.0
H1820 H 0.1971 0.53014 0.71991 0.0
H1821 H 0.25007 0.47178 0.78356 0.0
H1822 H 0.26786 0.48745 0.80011 0.0
H1823 H 0.26941 0.48172 0.76251 0.0
C1824 C 0.46802 0.24495 0.79045 0.0
C1825 C 0.45115 0.23516 0.78175 0.0
C1826 C 0.48535 0.24319 0.77494 0.0
C1827 C 0.48581 0.23124 0.75025 0.0
C1828 C 0.46937 0.21989 0.74294 0.0
C1829 C 0.45214 0.22203 0.75878 0.0
C1830 C 0.50262 0.25544 0.78361 0.0
C1831 C 0.46949 0.20664 0.71714 0.0
C1832 C 0.51905 0.25211 0.69382 0.0
C1833 C 0.53635 0.24198 0.6991 0.0
C1834 C 0.5021 0.24787 0.7092 0.0
C1835 C 0.50243 0.23302 0.73018 0.0
C1836 C 0.51943 0.22175 0.73408 0.0
C1837 C 0.53628 0.22644 0.71856 0.0
C1838 C 0.48421 0.2602 0.70433 0.0
C1839 C 0.5202 0.20556 0.75583 0.0
H1840 H 0.46742 0.25492 0.80845 0.0
H1841 H 0.43917 0.21428 0.75211 0.0
H1842 H 0.51603 0.24649 0.78426 0.0
H1843 H 0.50494 0.26707 0.7675 0.0
H1844 H 0.50056 0.26238 0.8049 0.0
H1845 H 0.45726 0.19609 0.7177 0.0
H1846 H 0.46812 0.2155 0.69741 0.0
H1847 H 0.48339 0.1985 0.71572 0.0
H1848 H 0.51896 0.26401 0.67862 0.0
H1849 H 0.54958 0.21841 0.72251 0.0
H1850 H 0.48134 0.26918 0.72365 0.0
H1851 H 0.47129 0.25085 0.70081 0.0
H1852 H 0.48585 0.27006 0.68566 0.0
H1853 H 0.52116 0.21187 0.77766 0.0
H1854 H 0.53301 0.19596 0.75248 0.0
H1855 H 0.50679 0.1966 0.75494 0.0
C1856 C 0.21806 0.5353 0.21681 0.0
C1857 C 0.2331 0.53604 0.19651 0.0
C1858 C 0.21453 0.51826 0.23254 0.0
C1859 C 0.22645 0.50178 0.22794 0.0
C1860 C 0.2406 0.50202 0.2059 0.0
C1861 C 0.24369 0.51913 0.19038 0.0
C1862 C 0.19899 0.51839 0.25538 0.0
C1863 C 0.25358 0.4847 0.2002 0.0
C1864 C 0.24255 0.46909 0.28809 0.0
C1865 C 0.23343 0.45155 0.28079 0.0
C1866 C 0.23926 0.486 0.2722 0.0
C1867 C 0.2264 0.48537 0.24855 0.0
C1868 C 0.21583 0.46817 0.24262 0.0
C1869 C 0.21955 0.45136 0.25878 0.0
C1870 C 0.25076 0.50409 0.27935 0.0
C1871 C 0.20166 0.4671 0.218 0.0
H1872 H 0.20968 0.54828 0.22143 0.0
H1873 H 0.25517 0.51952 0.17446 0.0
H1874 H 0.19088 0.50444 0.25554 0.0
H1875 H 0.2059 0.52013 0.2767 0.0
H1876 H 0.18853 0.53051 0.25231 0.0
H1877 H 0.26256 0.48661 0.18061 0.0
H1878 H 0.26349 0.48251 0.21868 0.0
H1879 H 0.24477 0.47129 0.19778 0.0
H1880 H 0.25311 0.4694 0.30533 0.0
H1881 H 0.21229 0.43788 0.25323 0.0
H1882 H 0.24102 0.51691 0.28065 0.0
H1883 H 0.26151 0.50693 0.2621 0.0
H1884 H 0.25872 0.50272 0.29995 0.0
H1885 H 0.19274 0.48051 0.21679 0.0
H1886 H 0.19183 0.45434 0.21989 0.0
H1887 H 0.20983 0.4658 0.19759 0.0
C1888 C 0.53565 0.21867 0.25458 0.0
C1889 C 0.53615 0.23172 0.27769 0.0
C1890 C 0.51871 0.21649 0.23808 0.0
C1891 C 0.50209 0.22773 0.24488 0.0
C1892 C 0.50209 0.23967 0.2696 0.0
C1893 C 0.51911 0.24146 0.28575 0.0
C1894 C 0.51909 0.20328 0.21226 0.0
C1895 C 0.48459 0.25179 0.27775 0.0
C1896 C 0.4689 0.24881 0.1888 0.0
C1897 C 0.45155 0.23881 0.19437 0.0
C1898 C 0.48597 0.24428 0.20368 0.0
C1899 C 0.48567 0.22931 0.22446 0.0
C1900 C 0.46868 0.21802 0.22833 0.0
C1901 C 0.45173 0.22298 0.2133 0.0
C1902 C 0.50386 0.25661 0.19881 0.0
C1903 C 0.46796 0.20165 0.24981 0.0
H1904 H 0.54875 0.21096 0.2484 0.0
H1905 H 0.51934 0.25136 0.30384 0.0
H1906 H 0.50522 0.19515 0.21021 0.0
H1907 H 0.5209 0.21215 0.19262 0.0
H1908 H 0.5313 0.19271 0.21332 0.0
H1909 H 0.48638 0.25894 0.29894 0.0
H1910 H 0.48227 0.26326 0.26139 0.0
H1911 H 0.4713 0.24267 0.27834 0.0
H1912 H 0.46891 0.26091 0.17394 0.0
H1913 H 0.4384 0.21502 0.21742 0.0
H1914 H 0.51684 0.24728 0.19564 0.0
H1915 H 0.50656 0.26578 0.21799 0.0
H1916 H 0.50231 0.2663 0.17993 0.0
H1917 H 0.48148 0.19288 0.24901 0.0
H1918 H 0.4553 0.19193 0.2461 0.0
H1919 H 0.46672 0.20781 0.27172 0.0
C1920 C 0.75394 0.53329 0.25076 0.0
C1921 C 0.73913 0.53428 0.27141 0.0
C1922 C 0.75781 0.51588 0.23611 0.0
C1923 C 0.74651 0.49919 0.24217 0.0
C1924 C 0.7322 0.49988 0.26397 0.0
C1925 C 0.72873 0.51742 0.27839 0.0
C1926 C 0.77335 0.5156 0.21325 0.0
C1927 C 0.71983 0.48237 0.27106 0.0
C1928 C 0.73518 0.46197 0.18502 0.0
C1929 C 0.74614 0.44597 0.19421 0.0
C1930 C 0.73597 0.47973 0.19964 0.0
C1931 C 0.7481 0.48156 0.22396 0.0
C1932 C 0.76016 0.46588 0.23226 0.0
C1933 C 0.75901 0.44819 0.21729 0.0
C1934 C 0.72292 0.49616 0.19004 0.0
C1935 C 0.77347 0.46741 0.25786 0.0
H1936 H 0.76214 0.54626 0.24542 0.0
H1937 H 0.71735 0.51805 0.29445 0.0
H1938 H 0.78286 0.50269 0.21579 0.0
H1939 H 0.76643 0.51454 0.19185 0.0
H1940 H 0.78252 0.5289 0.21376 0.0
H1941 H 0.71034 0.48491 0.28997 0.0
H1942 H 0.71048 0.47871 0.25246 0.0
H1943 H 0.72917 0.46956 0.27539 0.0
H1944 H 0.72532 0.46041 0.16705 0.0
H1945 H 0.7676 0.4359 0.22439 0.0
H1946 H 0.73143 0.50976 0.18759 0.0
H1947 H 0.71163 0.49888 0.20657 0.0
H1948 H 0.71555 0.49292 0.16942 0.0
H1949 H 0.78185 0.4812 0.25721 0.0
H1950 H 0.78383 0.45504 0.25904 0.0
H1951 H 0.76465 0.46758 0.27777 0.0
C1952 C 0.457 0.7446 0.29361 0.0
C1953 C 0.43983 0.75473 0.28749 0.0
C1954 C 0.47387 0.74762 0.27745 0.0
C1955 C 0.47359 0.76123 0.25473 0.0
C1956 C 0.45675 0.77255 0.24976 0.0
C1957 C 0.43997 0.7691 0.26617 0.0
C1958 C 0.49158 0.73529 0.28353 0.0
C1959 C 0.45605 0.78745 0.22609 0.0
C1960 C 0.52406 0.76968 0.22523 0.0
C1961 C 0.52491 0.75523 0.20403 0.0
C1962 C 0.5068 0.7731 0.24049 0.0
C1963 C 0.49017 0.76169 0.23443 0.0
C1964 C 0.49051 0.74835 0.21132 0.0
C1965 C 0.50788 0.74533 0.19632 0.0
C1966 C 0.50684 0.78779 0.26453 0.0
C1967 C 0.47303 0.73598 0.20404 0.0
H1968 H 0.45705 0.73362 0.31025 0.0
H1969 H 0.42677 0.7771 0.26149 0.0
H1970 H 0.49426 0.72531 0.26525 0.0
H1971 H 0.50466 0.7446 0.28593 0.0
H1972 H 0.48988 0.72643 0.30326 0.0
H1973 H 0.44345 0.79744 0.22847 0.0
H1974 H 0.46963 0.79617 0.22561 0.0
H1975 H 0.45478 0.77992 0.20514 0.0
H1976 H 0.53714 0.77756 0.23107 0.0
H1977 H 0.50837 0.73432 0.17969 0.0
H1978 H 0.50801 0.78008 0.28532 0.0
H1979 H 0.49309 0.79622 0.26483 0.0
H1980 H 0.51927 0.79805 0.26276 0.0
H1981 H 0.47058 0.72521 0.22136 0.0
H1982 H 0.47496 0.72797 0.18355 0.0
H1983 H 0.45976 0.74507 0.20247 0.0
C1984 C 0.18587 0.1233 0.23301 0.0
C1985 C 0.18286 0.11366 0.20693 0.0
C1986 C 0.17145 0.13531 0.24471 0.0
C1987 C 0.15351 0.13745 0.23017 0.0
C1988 C 0.14986 0.12664 0.20495 0.0
C1989 C 0.16466 0.11494 0.1935 0.0
C1990 C 0.17589 0.14665 0.27166 0.0
C1991 C 0.13074 0.12824 0.18924 0.0
C1992 C 0.11453 0.16295 0.27353 0.0
C1993 C 0.11689 0.18226 0.2645 0.0
C1994 C 0.12558 0.14791 0.26137 0.0
C1995 C 0.13946 0.1524 0.24001 0.0
C1996 C 0.14113 0.1717 0.22973 0.0
C1997 C 0.1297 0.18639 0.24197 0.0
C1998 C 0.12311 0.12744 0.27241 0.0
C1999 C 0.15583 0.17706 0.207 0.0
H2000 H 0.19989 0.12231 0.24354 0.0
H2001 H 0.16221 0.10736 0.17345 0.0
H2002 H 0.17649 0.16241 0.26663 0.0
H2003 H 0.16419 0.14454 0.28772 0.0
H2004 H 0.18997 0.14232 0.2814 0.0
H2005 H 0.12919 0.11686 0.17247 0.0
H2006 H 0.11837 0.12703 0.2044 0.0
H2007 H 0.12973 0.14269 0.17883 0.0
H2008 H 0.10449 0.15967 0.29077 0.0
H2009 H 0.13154 0.20128 0.23486 0.0
H2010 H 0.136 0.12334 0.28533 0.0
H2011 H 0.12211 0.11698 0.25434 0.0
H2012 H 0.10994 0.12591 0.28602 0.0
H2013 H 0.17075 0.17481 0.21543 0.0
H2014 H 0.15443 0.19245 0.20008 0.0
H2015 H 0.15414 0.16754 0.18798 0.0
C2016 C 0.88549 0.16122 0.20462 0.0
C2017 C 0.88512 0.17982 0.21699 0.0
C2018 C 0.87277 0.14661 0.21395 0.0
C2019 C 0.85933 0.15079 0.23604 0.0
C2020 C 0.85971 0.16916 0.2498 0.0
C2021 C 0.87271 0.18346 0.24019 0.0
C2022 C 0.873 0.12709 0.1991 0.0
C2023 C 0.84563 0.1741 0.27356 0.0
C2024 C 0.81057 0.12516 0.23841 0.0
C2025 C 0.81306 0.11275 0.26188 0.0
C2026 C 0.8258 0.13716 0.22911 0.0
C2027 C 0.84394 0.13654 0.24347 0.0
C2028 C 0.84689 0.12317 0.26601 0.0
C2029 C 0.83137 0.11146 0.27502 0.0
C2030 C 0.82217 0.15123 0.20488 0.0
C2031 C 0.86611 0.12188 0.28152 0.0
H2032 H 0.89518 0.1583 0.1868 0.0
H2033 H 0.87237 0.1978 0.24984 0.0
H2034 H 0.87312 0.11514 0.21504 0.0
H2035 H 0.85961 0.12542 0.18609 0.0
H2036 H 0.8858 0.1254 0.18476 0.0
H2037 H 0.84872 0.18851 0.28334 0.0
H2038 H 0.83058 0.17426 0.26498 0.0
H2039 H 0.84618 0.16287 0.29058 0.0
H2040 H 0.79646 0.12619 0.22818 0.0
H2041 H 0.8334 0.10176 0.29305 0.0
H2042 H 0.83352 0.1496 0.18814 0.0
H2043 H 0.82304 0.16637 0.21305 0.0
H2044 H 0.80768 0.14908 0.19485 0.0
H2045 H 0.87826 0.12059 0.26598 0.0
H2046 H 0.86667 0.10931 0.29642 0.0
H2047 H 0.86854 0.13539 0.29403 0.0
C2048 C 0.86472 0.79508 0.2336 0.0
C2049 C 0.87659 0.79882 0.25736 0.0
C2050 C 0.85246 0.80953 0.2226 0.0
C2051 C 0.8524 0.82822 0.23536 0.0
C2052 C 0.86548 0.83251 0.25787 0.0
C2053 C 0.87731 0.81767 0.26882 0.0
C2054 C 0.83861 0.80436 0.19867 0.0
C2055 C 0.86618 0.85242 0.27149 0.0
C2056 C 0.82484 0.86667 0.19382 0.0
C2057 C 0.80664 0.86613 0.20739 0.0
C2058 C 0.84028 0.85512 0.20358 0.0
C2059 C 0.83726 0.8425 0.22706 0.0
C2060 C 0.81914 0.84249 0.24152 0.0
C2061 C 0.80409 0.85447 0.23167 0.0
C2062 C 0.85956 0.85587 0.1881 0.0
C2063 C 0.81531 0.8291 0.26653 0.0
H2064 H 0.86411 0.78053 0.22467 0.0
H2065 H 0.88662 0.82065 0.28705 0.0
H2066 H 0.82345 0.80471 0.20684 0.0
H2067 H 0.83963 0.81517 0.18113 0.0
H2068 H 0.84151 0.78967 0.18969 0.0
H2069 H 0.87906 0.8542 0.28561 0.0
H2070 H 0.86651 0.86391 0.25483 0.0
H2071 H 0.85289 0.85474 0.28453 0.0
H2072 H 0.82689 0.87581 0.17516 0.0
H2073 H 0.79004 0.854 0.2422 0.0
H2074 H 0.86187 0.84208 0.17621 0.0
H2075 H 0.87167 0.85736 0.20364 0.0
H2076 H 0.86028 0.86811 0.17264 0.0
H2077 H 0.81636 0.81374 0.25935 0.0
H2078 H 0.80071 0.83144 0.27612 0.0
H2079 H 0.82645 0.8313 0.2834 0.0
C2080 C 0.17657 0.86683 0.24319 0.0
C2081 C 0.17316 0.87781 0.26799 0.0
C2082 C 0.16268 0.85357 0.23314 0.0
C2083 C 0.14489 0.85142 0.2481 0.0
C2084 C 0.14092 0.86321 0.27224 0.0
C2085 C 0.15515 0.87625 0.28198 0.0
C2086 C 0.16743 0.84125 0.20724 0.0
C2087 C 0.12198 0.8615 0.28844 0.0
C2088 C 0.10653 0.8243 0.20599 0.0
C2089 C 0.10935 0.8052 0.21566 0.0
C2090 C 0.11717 0.83979 0.21762 0.0
C2091 C 0.13106 0.836 0.23923 0.0
C2092 C 0.13308 0.81695 0.25033 0.0
C2093 C 0.12209 0.80176 0.2385 0.0
C2094 C 0.11439 0.85997 0.20559 0.0
C2095 C 0.14776 0.81237 0.27341 0.0
H2096 H 0.19042 0.86801 0.23221 0.0
H2097 H 0.1524 0.88479 0.30109 0.0
H2098 H 0.16811 0.82571 0.21353 0.0
H2099 H 0.15581 0.84267 0.19089 0.0
H2100 H 0.18153 0.84534 0.1973 0.0
H2101 H 0.12032 0.87311 0.30483 0.0
H2102 H 0.10948 0.86222 0.27347 0.0
H2103 H 0.12131 0.84719 0.29933 0.0
H2104 H 0.09652 0.82706 0.18851 0.0
H2105 H 0.12428 0.78704 0.24611 0.0
H2106 H 0.12727 0.86401 0.19257 0.0
H2107 H 0.11311 0.8708 0.22312 0.0
H2108 H 0.10126 0.86095 0.19181 0.0
H2109 H 0.16268 0.81427 0.26475 0.0
H2110 H 0.1463 0.79725 0.28148 0.0
H2111 H 0.14613 0.82256 0.29168 0.0
C2112 C 0.86448 0.80495 0.73475 0.0
C2113 C 0.87633 0.80809 0.71078 0.0
C2114 C 0.8536 0.82018 0.74667 0.0
C2115 C 0.85484 0.83899 0.73451 0.0
C2116 C 0.86777 0.84251 0.71153 0.0
C2117 C 0.8783 0.82696 0.6998 0.0
C2118 C 0.83991 0.81586 0.77118 0.0
C2119 C 0.86973 0.86246 0.69837 0.0
C2120 C 0.80893 0.86884 0.74202 0.0
C2121 C 0.81309 0.88005 0.76634 0.0
C2122 C 0.82272 0.85592 0.73081 0.0
C2123 C 0.84117 0.85437 0.74406 0.0
C2124 C 0.84588 0.8665 0.76754 0.0
C2125 C 0.83172 0.87917 0.77852 0.0
C2126 C 0.81716 0.84319 0.70571 0.0
C2127 C 0.86553 0.86546 0.78186 0.0
H2128 H 0.86296 0.79041 0.74339 0.0
H2129 H 0.88762 0.82949 0.68143 0.0
H2130 H 0.84226 0.8263 0.78896 0.0
H2131 H 0.82465 0.81759 0.76386 0.0
H2132 H 0.84176 0.80086 0.77956 0.0
H2133 H 0.88223 0.86334 0.68332 0.0
H2134 H 0.85625 0.86606 0.68644 0.0
H2135 H 0.87159 0.87366 0.71527 0.0
H2136 H 0.79459 0.86952 0.73244 0.0
H2137 H 0.83505 0.88791 0.79722 0.0
H2138 H 0.81692 0.82773 0.71251 0.0
H2139 H 0.8281 0.84451 0.68835 0.0
H2140 H 0.80264 0.84696 0.69689 0.0
H2141 H 0.86694 0.85142 0.79335 0.0
H2142 H 0.86771 0.87746 0.7975 0.0
H2143 H 0.87733 0.86604 0.76566 0.0
C2144 C 0.19333 0.85917 0.73374 0.0
C2145 C 0.19089 0.87149 0.71015 0.0
C2146 C 0.17761 0.8485 0.74465 0.0
C2147 C 0.159 0.85054 0.73199 0.0
C2148 C 0.15622 0.86394 0.70942 0.0
C2149 C 0.17226 0.87413 0.69856 0.0
C2150 C 0.18118 0.8342 0.76861 0.0
C2151 C 0.13649 0.86685 0.69589 0.0
C2152 C 0.12709 0.80584 0.73717 0.0
C2153 C 0.11607 0.80999 0.76168 0.0
C2154 C 0.14067 0.81925 0.72668 0.0
C2155 C 0.14299 0.83737 0.74075 0.0
C2156 C 0.13097 0.84215 0.76433 0.0
C2157 C 0.11775 0.82831 0.7747 0.0
C2158 C 0.15333 0.81357 0.70156 0.0
C2159 C 0.13269 0.86152 0.77939 0.0
H2160 H 0.20771 0.85708 0.74271 0.0
H2161 H 0.17032 0.8838 0.68046 0.0
H2162 H 0.17078 0.83674 0.78639 0.0
H2163 H 0.17875 0.81918 0.76067 0.0
H2164 H 0.19621 0.8352 0.77721 0.0
H2165 H 0.13626 0.87959 0.68127 0.0
H2166 H 0.13248 0.85371 0.68341 0.0
H2167 H 0.1252 0.86891 0.71261 0.0
H2168 H 0.12586 0.7917 0.72703 0.0
H2169 H 0.10913 0.83161 0.79355 0.0
H2170 H 0.16872 0.8126 0.70858 0.0
H2171 H 0.15258 0.82482 0.6846 0.0
H2172 H 0.14902 0.79936 0.69216 0.0
H2173 H 0.14668 0.86218 0.79119 0.0
H2174 H 0.12066 0.86394 0.79487 0.0
H2175 H 0.13273 0.87357 0.76361 0.0
C2176 C 0.11796 0.17718 0.73876 0.0
C2177 C 0.10706 0.1748 0.71367 0.0
C2178 C 0.13107 0.16282 0.74765 0.0
C2179 C 0.13302 0.14556 0.7313 0.0
C2180 C 0.12099 0.14247 0.70717 0.0
C2181 C 0.10823 0.15722 0.69849 0.0
C2182 C 0.14372 0.16666 0.7735 0.0
C2183 C 0.12233 0.12405 0.68964 0.0
C2184 C 0.18308 0.12292 0.73533 0.0
C2185 C 0.18049 0.10927 0.75724 0.0
C2186 C 0.16748 0.1343 0.72579 0.0
C2187 C 0.14883 0.13167 0.73814 0.0
C2188 C 0.14586 0.11693 0.75877 0.0
C2189 C 0.1618 0.10599 0.76827 0.0
C2190 C 0.17122 0.14996 0.7038 0.0
C2191 C 0.1261 0.1134 0.77189 0.0
H2192 H 0.11709 0.19074 0.75058 0.0
H2193 H 0.09967 0.15527 0.6792 0.0
H2194 H 0.1428 0.15435 0.78876 0.0
H2195 H 0.15914 0.16793 0.76668 0.0
H2196 H 0.13955 0.18023 0.78488 0.0
H2197 H 0.11016 0.12273 0.67413 0.0
H2198 H 0.13622 0.12394 0.67753 0.0
H2199 H 0.12232 0.11109 0.70378 0.0
H2200 H 0.19751 0.12549 0.72676 0.0
H2201 H 0.15973 0.0953 0.78504 0.0
H2202 H 0.16904 0.16447 0.71374 0.0
H2203 H 0.16075 0.14868 0.68584 0.0
H2204 H 0.18622 0.14928 0.69499 0.0
H2205 H 0.12233 0.12566 0.78634 0.0
H2206 H 0.12566 0.09971 0.78447 0.0
H2207 H 0.11475 0.11274 0.75502 0.0
C2208 C 0.87183 0.1635 0.77621 0.0
C2209 C 0.86998 0.18234 0.76506 0.0
C2210 C 0.86107 0.148 0.76479 0.0
C2211 C 0.84793 0.1516 0.74214 0.0
C2212 C 0.84686 0.17035 0.72973 0.0
C2213 C 0.85808 0.18548 0.74119 0.0
C2214 C 0.86298 0.12807 0.778 0.0
C2215 C 0.83291 0.17477 0.70562 0.0
C2216 C 0.82268 0.11293 0.69807 0.0
C2217 C 0.80415 0.11283 0.71066 0.0
C2218 C 0.83764 0.12451 0.70928 0.0
C2219 C 0.83378 0.13647 0.73328 0.0
C2220 C 0.81548 0.13546 0.74715 0.0
C2221 C 0.80092 0.12348 0.73581 0.0
C2222 C 0.85715 0.12481 0.69444 0.0
C2223 C 0.81079 0.14809 0.77275 0.0
H2224 H 0.8812 0.16099 0.79448 0.0
H2225 H 0.85663 0.20004 0.73248 0.0
H2226 H 0.84986 0.12486 0.79101 0.0
H2227 H 0.864 0.11673 0.76113 0.0
H2228 H 0.87595 0.12698 0.79209 0.0
H2229 H 0.83477 0.18975 0.69716 0.0
H2230 H 0.83496 0.16431 0.68777 0.0
H2231 H 0.81772 0.17315 0.71336 0.0
H2232 H 0.82527 0.10453 0.67877 0.0
H2233 H 0.78663 0.12341 0.74566 0.0
H2234 H 0.86914 0.12431 0.71032 0.0
H2235 H 0.8587 0.13855 0.68222 0.0
H2236 H 0.85884 0.11244 0.67931 0.0
H2237 H 0.82207 0.14641 0.78952 0.0
H2238 H 0.79639 0.14456 0.78223 0.0
H2239 H 0.81073 0.1636 0.76618 0.0
C2240 C 0.67256 0.60937 0.70944 0.0
C2241 C 0.69222 0.61027 0.71734 0.0
C2242 C 0.65869 0.6213 0.72274 0.0
C2243 C 0.66472 0.63454 0.74417 0.0
C2244 C 0.68433 0.63467 0.75341 0.0
C2245 C 0.69784 0.62242 0.73999 0.0
C2246 C 0.63782 0.62048 0.71276 0.0
C2247 C 0.69132 0.64863 0.77621 0.0
C2248 C 0.63859 0.68258 0.75325 0.0
C2249 C 0.62891 0.67978 0.77932 0.0
C2250 C 0.64978 0.66768 0.74106 0.0
C2251 C 0.65107 0.6495 0.75514 0.0
C2252 C 0.64044 0.64622 0.78061 0.0
C2253 C 0.62955 0.66147 0.79252 0.0
C2254 C 0.66098 0.67173 0.71386 0.0
C2255 C 0.64119 0.6269 0.79589 0.0
H2256 H 0.66812 0.59985 0.6921 0.0
H2257 H 0.71301 0.62313 0.74627 0.0
H2258 H 0.62777 0.61995 0.73134 0.0
H2259 H 0.63436 0.63383 0.70047 0.0
H2260 H 0.635 0.60767 0.69883 0.0
H2261 H 0.70667 0.6459 0.78242 0.0
H2262 H 0.69014 0.66377 0.76818 0.0
H2263 H 0.68206 0.64753 0.79559 0.0
H2264 H 0.6381 0.69669 0.74293 0.0
H2265 H 0.62193 0.65918 0.81257 0.0
H2266 H 0.65766 0.66053 0.69747 0.0
H2267 H 0.67683 0.67099 0.71826 0.0
H2268 H 0.65761 0.68628 0.70482 0.0
H2269 H 0.63851 0.61482 0.78063 0.0
H2270 H 0.63038 0.626 0.81353 0.0
H2271 H 0.65591 0.6247 0.80506 0.0
C2272 C 0.30829 0.62271 0.74267 0.0
C2273 C 0.31009 0.61149 0.76753 0.0
C2274 C 0.3239 0.63396 0.73275 0.0
C2275 C 0.34178 0.63366 0.74783 0.0
C2276 C 0.34408 0.62126 0.77172 0.0
C2277 C 0.32813 0.61042 0.78144 0.0
C2278 C 0.32088 0.64709 0.70723 0.0
C2279 C 0.36305 0.62023 0.78793 0.0
C2280 C 0.38416 0.65729 0.70935 0.0
C2281 C 0.38378 0.67609 0.72105 0.0
C2282 C 0.37116 0.64295 0.71881 0.0
C2283 C 0.35733 0.64767 0.74014 0.0
C2284 C 0.35749 0.66634 0.75296 0.0
C2285 C 0.37085 0.6803 0.7434 0.0
C2286 C 0.37167 0.62305 0.70511 0.0
C2287 C 0.34289 0.67194 0.77572 0.0
H2288 H 0.29437 0.62358 0.73185 0.0
H2289 H 0.32961 0.60158 0.80054 0.0
H2290 H 0.3216 0.66251 0.71421 0.0
H2291 H 0.33259 0.64483 0.69122 0.0
H2292 H 0.30662 0.64458 0.69669 0.0
H2293 H 0.36326 0.60802 0.80348 0.0
H2294 H 0.37543 0.6185 0.7729 0.0
H2295 H 0.36535 0.63401 0.79984 0.0
H2296 H 0.39425 0.65394 0.69218 0.0
H2297 H 0.37049 0.6948 0.75252 0.0
H2298 H 0.35853 0.621 0.69167 0.0
H2299 H 0.3715 0.61155 0.72176 0.0
H2300 H 0.38473 0.62101 0.69141 0.0
H2301 H 0.32799 0.67151 0.76657 0.0
H2302 H 0.34556 0.68673 0.78445 0.0
H2303 H 0.34331 0.66138 0.79364 0.0
C2304 C 0.36241 0.29919 0.73632 0.0
C2305 C 0.37575 0.30342 0.75811 0.0
C2306 C 0.35028 0.31373 0.72525 0.0
C2307 C 0.3518 0.33295 0.73596 0.0
C2308 C 0.36631 0.33759 0.7563 0.0
C2309 C 0.37804 0.32271 0.76731 0.0
C2310 C 0.33493 0.30821 0.70358 0.0
C2311 C 0.36866 0.35801 0.76771 0.0
C2312 C 0.32375 0.37064 0.69377 0.0
C2313 C 0.3062 0.37135 0.70911 0.0
C2314 C 0.33921 0.35896 0.70306 0.0
C2315 C 0.33691 0.34757 0.72801 0.0
C2316 C 0.31961 0.34902 0.74438 0.0
C2317 C 0.3045 0.36104 0.73484 0.0
C2318 C 0.35762 0.35811 0.68545 0.0
C2319 C 0.31662 0.33703 0.77112 0.0
H2320 H 0.36061 0.28431 0.72911 0.0
H2321 H 0.3885 0.32606 0.78398 0.0
H2322 H 0.3203 0.30967 0.71341 0.0
H2323 H 0.33546 0.31816 0.68492 0.0
H2324 H 0.33667 0.29303 0.69579 0.0
H2325 H 0.38237 0.35978 0.78002 0.0
H2326 H 0.36852 0.36871 0.74994 0.0
H2327 H 0.35628 0.36154 0.78205 0.0
H2328 H 0.32517 0.37875 0.67399 0.0
H2329 H 0.29098 0.36156 0.74679 0.0
H2330 H 0.35858 0.34381 0.6745 0.0
H2331 H 0.3706 0.35949 0.69941 0.0
H2332 H 0.35812 0.36972 0.66894 0.0
H2333 H 0.31643 0.32135 0.76544 0.0
H2334 H 0.30278 0.34064 0.78222 0.0
H2335 H 0.32883 0.33932 0.78627 0.0
C2336 C 0.61139 0.33411 0.69415 0.0
C2337 C 0.61091 0.31626 0.70864 0.0
C2338 C 0.62321 0.34939 0.70385 0.0
C2339 C 0.63502 0.34655 0.72828 0.0
C2340 C 0.63383 0.32892 0.7438 0.0
C2341 C 0.62162 0.31403 0.73393 0.0
C2342 C 0.62375 0.36818 0.68718 0.0
C2343 C 0.64631 0.3253 0.76988 0.0
C2344 C 0.68373 0.37168 0.73519 0.0
C2345 C 0.68016 0.38464 0.75777 0.0
C2346 C 0.66888 0.35978 0.72447 0.0
C2347 C 0.64995 0.36117 0.73627 0.0
C2348 C 0.64593 0.37526 0.75757 0.0
C2349 C 0.66115 0.38674 0.76827 0.0
C2350 C 0.67376 0.34484 0.70183 0.0
C2351 C 0.62581 0.37749 0.77014 0.0
H2352 H 0.60297 0.33594 0.67471 0.0
H2353 H 0.62129 0.30028 0.74523 0.0
H2354 H 0.62275 0.38083 0.70188 0.0
H2355 H 0.63779 0.36933 0.67559 0.0
H2356 H 0.61176 0.36908 0.67129 0.0
H2357 H 0.64282 0.31126 0.78045 0.0
H2358 H 0.66187 0.32514 0.76354 0.0
H2359 H 0.6444 0.33719 0.7857 0.0
H2360 H 0.69839 0.37002 0.72697 0.0
H2361 H 0.6583 0.39689 0.78556 0.0
H2362 H 0.66348 0.34592 0.68361 0.0
H2363 H 0.67226 0.33002 0.71097 0.0
H2364 H 0.68881 0.34653 0.69352 0.0
H2365 H 0.6147 0.37784 0.75292 0.0
H2366 H 0.62445 0.39092 0.78324 0.0
H2367 H 0.62251 0.36481 0.78398 0.0
C2368 C 0.3769 0.33167 0.20011 0.0
C2369 C 0.37799 0.31348 0.21354 0.0
C2370 C 0.36475 0.34634 0.2109 0.0
C2371 C 0.35325 0.34253 0.23538 0.0
C2372 C 0.35521 0.32461 0.25001 0.0
C2373 C 0.36771 0.31034 0.23903 0.0
C2374 C 0.36341 0.36545 0.19517 0.0
C2375 C 0.3431 0.31998 0.27615 0.0
C2376 C 0.32555 0.38116 0.27646 0.0
C2377 C 0.30667 0.37857 0.26571 0.0
C2378 C 0.34118 0.37027 0.26569 0.0
C2379 C 0.33772 0.35629 0.24405 0.0
C2380 C 0.31888 0.35432 0.23215 0.0
C2381 C 0.30359 0.36563 0.24297 0.0
C2382 C 0.36117 0.37309 0.2784 0.0
C2383 C 0.3146 0.33947 0.20911 0.0
H2384 H 0.38499 0.33422 0.18053 0.0
H2385 H 0.36854 0.29631 0.24954 0.0
H2386 H 0.34933 0.36624 0.18362 0.0
H2387 H 0.36387 0.37782 0.21045 0.0
H2388 H 0.37535 0.36722 0.17932 0.0
H2389 H 0.34741 0.30601 0.28624 0.0
H2390 H 0.34443 0.33174 0.2923 0.0
H2391 H 0.32754 0.31903 0.26999 0.0
H2392 H 0.32801 0.3913 0.29389 0.0
H2393 H 0.28904 0.36359 0.23456 0.0
H2394 H 0.37226 0.37427 0.26121 0.0
H2395 H 0.36501 0.36027 0.29163 0.0
H2396 H 0.36197 0.38628 0.29212 0.0
H2397 H 0.32468 0.34138 0.19078 0.0
H2398 H 0.29942 0.34049 0.2011 0.0
H2399 H 0.31694 0.32462 0.21772 0.0
C2400 C 0.61147 0.3185 0.26939 0.0
C2401 C 0.61275 0.29926 0.25955 0.0
C2402 C 0.62321 0.33313 0.25763 0.0
C2403 C 0.63669 0.32827 0.23588 0.0
C2404 C 0.63727 0.3091 0.22479 0.0
C2405 C 0.62515 0.29484 0.23662 0.0
C2406 C 0.62189 0.35352 0.26951 0.0
C2407 C 0.65154 0.30335 0.20166 0.0
C2408 C 0.66357 0.36553 0.19121 0.0
C2409 C 0.68173 0.36589 0.20487 0.0
C2410 C 0.64832 0.3541 0.20192 0.0
C2411 C 0.65149 0.34259 0.22655 0.0
C2412 C 0.66952 0.34359 0.24114 0.0
C2413 C 0.68439 0.35538 0.23023 0.0
C2414 C 0.62914 0.35371 0.1862 0.0
C2415 C 0.67347 0.33142 0.26742 0.0
H2416 H 0.60175 0.322 0.28694 0.0
H2417 H 0.62615 0.28 0.22889 0.0
H2418 H 0.63506 0.35671 0.28241 0.0
H2419 H 0.62135 0.36431 0.25188 0.0
H2420 H 0.6089 0.35551 0.28336 0.0
H2421 H 0.64921 0.28822 0.19404 0.0
H2422 H 0.65035 0.31333 0.18311 0.0
H2423 H 0.6666 0.30456 0.21004 0.0
H2424 H 0.66141 0.3738 0.17172 0.0
H2425 H 0.69839 0.35565 0.24089 0.0
H2426 H 0.61688 0.35549 0.20144 0.0
H2427 H 0.62728 0.33942 0.1755 0.0
H2428 H 0.6282 0.36529 0.16969 0.0
H2429 H 0.66206 0.33393 0.28381 0.0
H2430 H 0.68788 0.33466 0.27709 0.0
H2431 H 0.67302 0.31577 0.26163 0.0
C2432 C 0.65145 0.61434 0.28782 0.0
C2433 C 0.66823 0.61338 0.27077 0.0
C2434 C 0.63606 0.6268 0.28071 0.0
C2435 C 0.63767 0.63873 0.25619 0.0
C2436 C 0.65421 0.6372 0.23822 0.0
C2437 C 0.66926 0.6244 0.24562 0.0
C2438 C 0.61846 0.62776 0.30003 0.0
C2439 C 0.65645 0.64975 0.21189 0.0
C2440 C 0.59546 0.66465 0.22116 0.0
C2441 C 0.59839 0.68379 0.23063 0.0
C2442 C 0.60736 0.64948 0.2308 0.0
C2443 C 0.62269 0.65366 0.25003 0.0
C2444 C 0.62484 0.67271 0.26119 0.0
C2445 C 0.61253 0.68756 0.2515 0.0
C2446 C 0.60433 0.62926 0.21895 0.0
C2447 C 0.64106 0.67772 0.28172 0.0
H2448 H 0.65055 0.60571 0.3072 0.0
H2449 H 0.6822 0.62372 0.23239 0.0
H2450 H 0.61813 0.64199 0.31123 0.0
H2451 H 0.6049 0.62663 0.28725 0.0
H2452 H 0.6185 0.61604 0.31638 0.0
H2453 H 0.66985 0.64623 0.1996 0.0
H2454 H 0.64371 0.64792 0.19758 0.0
H2455 H 0.65703 0.66529 0.21827 0.0
H2456 H 0.5844 0.66168 0.20518 0.0
H2457 H 0.61486 0.70234 0.25886 0.0
H2458 H 0.60498 0.6183 0.23633 0.0
H2459 H 0.61613 0.62581 0.20354 0.0
H2460 H 0.59017 0.62784 0.20769 0.0
H2461 H 0.64127 0.66738 0.29991 0.0
H2462 H 0.63968 0.69273 0.29033 0.0
H2463 H 0.65525 0.67646 0.27053 0.0
C2464 C 0.32032 0.61387 0.20767 0.0
C2465 C 0.30115 0.61373 0.21798 0.0
C2466 C 0.33437 0.62617 0.21977 0.0
C2467 C 0.32899 0.63873 0.24245 0.0
C2468 C 0.30994 0.6379 0.25392 0.0
C2469 C 0.29627 0.62528 0.24166 0.0
C2470 C 0.35466 0.6264 0.20739 0.0
C2471 C 0.30366 0.65113 0.27807 0.0
C2472 C 0.36531 0.66589 0.28854 0.0
C2473 C 0.36458 0.68453 0.2764 0.0
C2474 C 0.35456 0.65048 0.27682 0.0
C2475 C 0.34264 0.65393 0.25268 0.0
C2476 C 0.34257 0.67248 0.23955 0.0
C2477 C 0.35367 0.68754 0.25147 0.0
C2478 C 0.35528 0.63079 0.29102 0.0
C2479 C 0.32997 0.67672 0.21381 0.0
H2480 H 0.3242 0.60483 0.1895 0.0
H2481 H 0.28149 0.62519 0.24978 0.0
H2482 H 0.35701 0.64018 0.19556 0.0
H2483 H 0.36566 0.62578 0.22473 0.0
H2484 H 0.35718 0.61407 0.19244 0.0
H2485 H 0.28871 0.6478 0.28571 0.0
H2486 H 0.31383 0.64987 0.29639 0.0
H2487 H 0.30404 0.66647 0.27074 0.0
H2488 H 0.37388 0.66346 0.30768 0.0
H2489 H 0.35309 0.7019 0.24197 0.0
H2490 H 0.35759 0.61919 0.27483 0.0
H2491 H 0.34118 0.62781 0.30171 0.0
H2492 H 0.36702 0.62988 0.30732 0.0
H2493 H 0.33283 0.66599 0.19656 0.0
H2494 H 0.33245 0.69156 0.20516 0.0
H2495 H 0.31441 0.67536 0.21984 0.0
loop_
_geom_bond_atom_site_label_1
_geom_bond_atom_site_label_2
_geom_bond_distance
_geom_bond_site_symmetry_2
_ccdc_geom_bond_type
C0 O1 1.306 . S
C0 O3 1.160 . S
O1 C0 1.306 . S
O1 Cd2 2.228 . S
Cd2 O1 2.228 . S
Cd2 O6 2.273 . S
Cd2 O10 2.277 . S
O3 C0 1.160 . S
O3 Cd4 2.203 . S
Cd4 O3 2.203 . S
Cd4 O6 2.411 . S
Cd4 O7 2.333 . S
Cd4 O8 2.352 . S
Cd4 O12 2.277 . S
Cd4 O13 2.356 . S
C5 O10 1.209 . S
C5 O12 1.226 . S
O6 Cd2 2.273 . S
O6 Cd4 2.411 . S
O6 C9 1.320 . S
O7 Cd4 2.333 . S
O7 C9 1.214 . S
O8 Cd4 2.352 . S
O8 C11 1.258 . S
C9 O6 1.320 . S
C9 O7 1.214 . S
O10 Cd2 2.277 . S
O10 C5 1.209 . S
C11 O8 1.258 . S
C11 O13 1.282 . S
O12 Cd4 2.277 . S
O12 C5 1.226 . S
O13 Cd4 2.356 . S
O13 C11 1.282 . S
C14 O15 1.306 . S
C14 O17 1.160 . S
O15 C14 1.306 . S
O15 Cd16 2.228 . S
Cd16 O15 2.228 . S
Cd16 O20 2.273 . S
Cd16 O24 2.277 . S
O17 C14 1.160 . S
O17 Cd18 2.203 . S
Cd18 O17 2.203 . S
Cd18 O20 2.411 . S
Cd18 O21 2.333 . S
Cd18 O22 2.352 . S
Cd18 O26 2.277 . S
Cd18 O27 2.356 . S
C19 O24 1.209 . S
C19 O26 1.226 . S
O20 Cd16 2.273 . S
O20 Cd18 2.411 . S
O20 C23 1.320 . S
O21 Cd18 2.333 . S
O21 C23 1.214 . S
O22 Cd18 2.352 . S
O22 C25 1.258 . S
C23 O20 1.320 . S
C23 O21 1.214 . S
O24 Cd16 2.277 . S
O24 C19 1.209 . S
C25 O22 1.258 . S
C25 O27 1.282 . S
O26 Cd18 2.277 . S
O26 C19 1.226 . S
O27 Cd18 2.356 . S
O27 C25 1.282 . S
C28 O29 1.306 . S
C28 O31 1.160 . S
O29 C28 1.306 . S
O29 Cd30 2.228 . S
Cd30 O29 2.228 . S
Cd30 O34 2.273 . S
Cd30 O38 2.277 . S
O31 C28 1.160 . S
O31 Cd32 2.203 . S
Cd32 O31 2.203 . S
Cd32 O34 2.411 . S
Cd32 O35 2.333 . S
Cd32 O36 2.352 . S
Cd32 O40 2.277 . S
Cd32 O41 2.356 . S
C33 O38 1.209 . S
C33 O40 1.226 . S
O34 Cd30 2.273 . S
O34 Cd32 2.411 . S
O34 C37 1.320 . S
O35 Cd32 2.333 . S
O35 C37 1.214 . S
O36 Cd32 2.352 . S
O36 C39 1.258 . S
C37 O34 1.320 . S
C37 O35 1.214 . S
O38 Cd30 2.277 . S
O38 C33 1.209 . S
C39 O36 1.258 . S
C39 O41 1.282 . S
O40 Cd32 2.277 . S
O40 C33 1.226 . S
O41 Cd32 2.356 . S
O41 C39 1.282 . S
C42 O43 1.306 . S
C42 O45 1.160 . S
O43 C42 1.306 . S
O43 Cd44 2.228 . S
Cd44 O43 2.228 . S
Cd44 O48 2.273 . S
Cd44 O52 2.277 . S
O45 C42 1.160 . S
O45 Cd46 2.203 . S
Cd46 O45 2.203 . S
Cd46 O48 2.411 . S
Cd46 O49 2.333 . S
Cd46 O50 2.352 . S
Cd46 O54 2.277 . S
Cd46 O55 2.356 . S
C47 O52 1.209 . S
C47 O54 1.226 . S
O48 Cd44 2.273 . S
O48 Cd46 2.411 . S
O48 C51 1.320 . S
O49 Cd46 2.333 . S
O49 C51 1.214 . S
O50 Cd46 2.352 . S
O50 C53 1.258 . S
C51 O48 1.320 . S
C51 O49 1.214 . S
O52 Cd44 2.277 . S
O52 C47 1.209 . S
C53 O50 1.258 . S
C53 O55 1.282 . S
O54 Cd46 2.277 . S
O54 C47 1.226 . S
O55 Cd46 2.356 . S
O55 C53 1.282 . S
C56 O57 1.306 . S
C56 O59 1.160 . S
O57 C56 1.306 . S
O57 Cd58 2.228 . S
Cd58 O57 2.228 . S
Cd58 O62 2.273 . S
Cd58 O66 2.277 . S
O59 C56 1.160 . S
O59 Cd60 2.203 . S
Cd60 O59 2.203 . S
Cd60 O62 2.411 . S
Cd60 O63 2.333 . S
Cd60 O64 2.352 . S
Cd60 O68 2.277 . S
Cd60 O69 2.356 . S
C61 O66 1.209 . S
C61 O68 1.226 . S
O62 Cd58 2.273 . S
O62 Cd60 2.411 . S
O62 C65 1.320 . S
O63 Cd60 2.333 . S
O63 C65 1.214 . S
O64 Cd60 2.352 . S
O64 C67 1.258 . S
C65 O62 1.320 . S
C65 O63 1.214 . S
O66 Cd58 2.277 . S
O66 C61 1.209 . S
C67 O64 1.258 . S
C67 O69 1.282 . S
O68 Cd60 2.277 . S
O68 C61 1.226 . S
O69 Cd60 2.356 . S
O69 C67 1.282 . S
C70 O71 1.306 . S
C70 O73 1.160 . S
O71 C70 1.306 . S
O71 Cd72 2.228 . S
Cd72 O71 2.228 . S
Cd72 O76 2.273 . S
Cd72 O80 2.277 . S
O73 C70 1.160 . S
O73 Cd74 2.203 . S
Cd74 O73 2.203 . S
Cd74 O76 2.411 . S
Cd74 O77 2.333 . S
Cd74 O78 2.352 . S
Cd74 O82 2.277 . S
Cd74 O83 2.356 . S
C75 O80 1.209 . S
C75 O82 1.226 . S
O76 Cd72 2.273 . S
O76 Cd74 2.411 . S
O76 C79 1.320 . S
O77 Cd74 2.333 . S
O77 C79 1.214 . S
O78 Cd74 2.352 . S
O78 C81 1.258 . S
C79 O76 1.320 . S
C79 O77 1.214 . S
O80 Cd72 2.277 . S
O80 C75 1.209 . S
C81 O78 1.258 . S
C81 O83 1.282 . S
O82 Cd74 2.277 . S
O82 C75 1.226 . S
O83 Cd74 2.356 . S
O83 C81 1.282 . S
C84 O85 1.306 . S
C84 O87 1.160 . S
O85 C84 1.306 . S
O85 Cd86 2.228 . S
Cd86 O85 2.228 . S
Cd86 O90 2.273 . S
Cd86 O94 2.277 . S
O87 C84 1.160 . S
O87 Cd88 2.203 . S
Cd88 O87 2.203 . S
Cd88 O90 2.411 . S
Cd88 O91 2.333 . S
Cd88 O92 2.352 . S
Cd88 O96 2.277 . S
Cd88 O97 2.356 . S
C89 O94 1.209 . S
C89 O96 1.226 . S
O90 Cd86 2.273 . S
O90 Cd88 2.411 . S
O90 C93 1.320 . S
O91 Cd88 2.333 . S
O91 C93 1.214 . S
O92 Cd88 2.352 . S
O92 C95 1.258 . S
C93 O90 1.320 . S
C93 O91 1.214 . S
O94 Cd86 2.277 . S
O94 C89 1.209 . S
C95 O92 1.258 . S
C95 O97 1.282 . S
O96 Cd88 2.277 . S
O96 C89 1.226 . S
O97 Cd88 2.356 . S
O97 C95 1.282 . S
C98 O99 1.306 . S
C98 O101 1.160 . S
O99 C98 1.306 . S
O99 Cd100 2.228 . S
Cd100 O99 2.228 . S
Cd100 O104 2.273 . S
Cd100 O108 2.277 . S
O101 C98 1.160 . S
O101 Cd102 2.203 . S
Cd102 O101 2.203 . S
Cd102 O104 2.411 . S
Cd102 O105 2.333 . S
Cd102 O106 2.352 . S
Cd102 O110 2.277 . S
Cd102 O111 2.356 . S
C103 O108 1.209 . S
C103 O110 1.226 . S
O104 Cd100 2.273 . S
O104 Cd102 2.411 . S
O104 C107 1.320 . S
O105 Cd102 2.333 . S
O105 C107 1.214 . S
O106 Cd102 2.352 . S
O106 C109 1.258 . S
C107 O104 1.320 . S
C107 O105 1.214 . S
O108 Cd100 2.277 . S
O108 C103 1.209 . S
C109 O106 1.258 . S
C109 O111 1.282 . S
O110 Cd102 2.277 . S
O110 C103 1.226 . S
O111 Cd102 2.356 . S
O111 C109 1.282 . S
C112 O113 1.306 . S
C112 O115 1.160 . S
O113 C112 1.306 . S
O113 Cd114 2.228 . S
Cd114 O113 2.228 . S
Cd114 O118 2.273 . S
Cd114 O122 2.277 . S
O115 C112 1.160 . S
O115 Cd116 2.203 . S
Cd116 O115 2.203 . S
Cd116 O118 2.411 . S
Cd116 O119 2.333 . S
Cd116 O120 2.352 . S
Cd116 O124 2.277 . S
Cd116 O125 2.356 . S
C117 O122 1.209 . S
C117 O124 1.226 . S
O118 Cd114 2.273 . S
O118 Cd116 2.411 . S
O118 C121 1.320 . S
O119 Cd116 2.333 . S
O119 C121 1.214 . S
O120 Cd116 2.352 . S
O120 C123 1.258 . S
C121 O118 1.320 . S
C121 O119 1.214 . S
O122 Cd114 2.277 . S
O122 C117 1.209 . S
C123 O120 1.258 . S
C123 O125 1.282 . S
O124 Cd116 2.277 . S
O124 C117 1.226 . S
O125 Cd116 2.356 . S
O125 C123 1.282 . S
C126 O127 1.306 . S
C126 O129 1.160 . S
O127 C126 1.306 . S
O127 Cd128 2.228 . S
Cd128 O127 2.228 . S
Cd128 O132 2.273 . S
Cd128 O136 2.277 . S
O129 C126 1.160 . S
O129 Cd130 2.203 . S
Cd130 O129 2.203 . S
Cd130 O132 2.411 . S
Cd130 O133 2.333 . S
Cd130 O134 2.352 . S
Cd130 O138 2.277 . S
Cd130 O139 2.356 . S
C131 O136 1.209 . S
C131 O138 1.226 . S
O132 Cd128 2.273 . S
O132 Cd130 2.411 . S
O132 C135 1.320 . S
O133 Cd130 2.333 . S
O133 C135 1.214 . S
O134 Cd130 2.352 . S
O134 C137 1.258 . S
C135 O132 1.320 . S
C135 O133 1.214 . S
O136 Cd128 2.277 . S
O136 C131 1.209 . S
C137 O134 1.258 . S
C137 O139 1.282 . S
O138 Cd130 2.277 . S
O138 C131 1.226 . S
O139 Cd130 2.356 . S
O139 C137 1.282 . S
C140 O141 1.306 . S
C140 O143 1.160 . S
O141 C140 1.306 . S
O141 Cd142 2.228 . S
Cd142 O141 2.228 . S
Cd142 O146 2.273 . S
Cd142 O150 2.277 . S
O143 C140 1.160 . S
O143 Cd144 2.203 . S
Cd144 O143 2.203 . S
Cd144 O146 2.411 . S
Cd144 O147 2.333 . S
Cd144 O148 2.352 . S
Cd144 O152 2.277 . S
Cd144 O153 2.356 . S
C145 O150 1.209 . S
C145 O152 1.226 . S
O146 Cd142 2.273 . S
O146 Cd144 2.411 . S
O146 C149 1.320 . S
O147 Cd144 2.333 . S
O147 C149 1.214 . S
O148 Cd144 2.352 . S
O148 C151 1.258 . S
C149 O146 1.320 . S
C149 O147 1.214 . S
O150 Cd142 2.277 . S
O150 C145 1.209 . S
C151 O148 1.258 . S
C151 O153 1.282 . S
O152 Cd144 2.277 . S
O152 C145 1.226 . S
O153 Cd144 2.356 . S
O153 C151 1.282 . S
C154 O155 1.306 . S
C154 O157 1.160 . S
O155 C154 1.306 . S
O155 Cd156 2.228 . S
Cd156 O155 2.228 . S
Cd156 O160 2.273 . S
Cd156 O164 2.277 . S
O157 C154 1.160 . S
O157 Cd158 2.203 . S
Cd158 O157 2.203 . S
Cd158 O160 2.411 . S
Cd158 O161 2.333 . S
Cd158 O162 2.352 . S
Cd158 O166 2.277 . S
Cd158 O167 2.356 . S
C159 O164 1.209 . S
C159 O166 1.226 . S
O160 Cd156 2.273 . S
O160 Cd158 2.411 . S
O160 C163 1.320 . S
O161 Cd158 2.333 . S
O161 C163 1.214 . S
O162 Cd158 2.352 . S
O162 C165 1.258 . S
C163 O160 1.320 . S
C163 O161 1.214 . S
O164 Cd156 2.277 . S
O164 C159 1.209 . S
C165 O162 1.258 . S
C165 O167 1.282 . S
O166 Cd158 2.277 . S
O166 C159 1.226 . S
O167 Cd158 2.356 . S
O167 C165 1.282 . S
C168 O169 1.306 . S
C168 O171 1.160 . S
O169 C168 1.306 . S
O169 Cd170 2.228 . S
Cd170 O169 2.228 . S
Cd170 O174 2.273 . S
Cd170 O178 2.277 . S
O171 C168 1.160 . S
O171 Cd172 2.203 . S
Cd172 O171 2.203 . S
Cd172 O174 2.411 . S
Cd172 O175 2.333 . S
Cd172 O176 2.352 . S
Cd172 O180 2.277 . S
Cd172 O181 2.356 . S
C173 O178 1.209 . S
C173 O180 1.226 . S
O174 Cd170 2.273 . S
O174 Cd172 2.411 . S
O174 C177 1.320 . S
O175 Cd172 2.333 . S
O175 C177 1.214 . S
O176 Cd172 2.352 . S
O176 C179 1.258 . S
C177 O174 1.320 . S
C177 O175 1.214 . S
O178 Cd170 2.277 . S
O178 C173 1.209 . S
C179 O176 1.258 . S
C179 O181 1.282 . S
O180 Cd172 2.277 . S
O180 C173 1.226 . S
O181 Cd172 2.356 . S
O181 C179 1.282 . S
C182 O183 1.306 . S
C182 O185 1.160 . S
O183 C182 1.306 . S
O183 Cd184 2.228 . S
Cd184 O183 2.228 . S
Cd184 O188 2.273 . S
Cd184 O192 2.277 . S
O185 C182 1.160 . S
O185 Cd186 2.203 . S
Cd186 O185 2.203 . S
Cd186 O188 2.411 . S
Cd186 O189 2.333 . S
Cd186 O190 2.352 . S
Cd186 O194 2.277 . S
Cd186 O195 2.356 . S
C187 O192 1.209 . S
C187 O194 1.226 . S
O188 Cd184 2.273 . S
O188 Cd186 2.411 . S
O188 C191 1.320 . S
O189 Cd186 2.333 . S
O189 C191 1.214 . S
O190 Cd186 2.352 . S
O190 C193 1.258 . S
C191 O188 1.320 . S
C191 O189 1.214 . S
O192 Cd184 2.277 . S
O192 C187 1.209 . S
C193 O190 1.258 . S
C193 O195 1.282 . S
O194 Cd186 2.277 . S
O194 C187 1.226 . S
O195 Cd186 2.356 . S
O195 C193 1.282 . S
C196 O197 1.306 . S
C196 O199 1.160 . S
O197 C196 1.306 . S
O197 Cd198 2.228 . S
Cd198 O197 2.228 . S
Cd198 O202 2.273 . S
Cd198 O206 2.277 . S
O199 C196 1.160 . S
O199 Cd200 2.203 . S
Cd200 O199 2.203 . S
Cd200 O202 2.411 . S
Cd200 O203 2.333 . S
Cd200 O204 2.352 . S
Cd200 O208 2.277 . S
Cd200 O209 2.356 . S
C201 O206 1.209 . S
C201 O208 1.226 . S
O202 Cd198 2.273 . S
O202 Cd200 2.411 . S
O202 C205 1.320 . S
O203 Cd200 2.333 . S
O203 C205 1.214 . S
O204 Cd200 2.352 . S
O204 C207 1.258 . S
C205 O202 1.320 . S
C205 O203 1.214 . S
O206 Cd198 2.277 . S
O206 C201 1.209 . S
C207 O204 1.258 . S
C207 O209 1.282 . S
O208 Cd200 2.277 . S
O208 C201 1.226 . S
O209 Cd200 2.356 . S
O209 C207 1.282 . S
C210 O211 1.306 . S
C210 O213 1.160 . S
O211 C210 1.306 . S
O211 Cd212 2.228 . S
Cd212 O211 2.228 . S
Cd212 O216 2.273 . S
Cd212 O220 2.277 . S
O213 C210 1.160 . S
O213 Cd214 2.203 . S
Cd214 O213 2.203 . S
Cd214 O216 2.411 . S
Cd214 O217 2.333 . S
Cd214 O218 2.352 . S
Cd214 O222 2.277 . S
Cd214 O223 2.356 . S
C215 O220 1.209 . S
C215 O222 1.226 . S
O216 Cd212 2.273 . S
O216 Cd214 2.411 . S
O216 C219 1.320 . S
O217 Cd214 2.333 . S
O217 C219 1.214 . S
O218 Cd214 2.352 . S
O218 C221 1.258 . S
C219 O216 1.320 . S
C219 O217 1.214 . S
O220 Cd212 2.277 . S
O220 C215 1.209 . S
C221 O218 1.258 . S
C221 O223 1.282 . S
O222 Cd214 2.277 . S
O222 C215 1.226 . S
O223 Cd214 2.356 . S
O223 C221 1.282 . S
C224 O225 1.306 . S
C224 O227 1.160 . S
O225 C224 1.306 . S
O225 Cd226 2.228 . S
Cd226 O225 2.228 . S
Cd226 O230 2.273 . S
Cd226 O234 2.277 . S
O227 C224 1.160 . S
O227 Cd228 2.203 . S
Cd228 O227 2.203 . S
Cd228 O230 2.411 . S
Cd228 O231 2.333 . S
Cd228 O232 2.352 . S
Cd228 O236 2.277 . S
Cd228 O237 2.356 . S
C229 O234 1.209 . S
C229 O236 1.226 . S
O230 Cd226 2.273 . S
O230 Cd228 2.411 . S
O230 C233 1.320 . S
O231 Cd228 2.333 . S
O231 C233 1.214 . S
O232 Cd228 2.352 . S
O232 C235 1.258 . S
C233 O230 1.320 . S
C233 O231 1.214 . S
O234 Cd226 2.277 . S
O234 C229 1.209 . S
C235 O232 1.258 . S
C235 O237 1.282 . S
O236 Cd228 2.277 . S
O236 C229 1.226 . S
O237 Cd228 2.356 . S
O237 C235 1.282 . S
C238 O239 1.306 . S
C238 O241 1.160 . S
O239 C238 1.306 . S
O239 Cd240 2.228 . S
Cd240 O239 2.228 . S
Cd240 O244 2.273 . S
Cd240 O248 2.277 . S
O241 C238 1.160 . S
O241 Cd242 2.203 . S
Cd242 O241 2.203 . S
Cd242 O244 2.411 . S
Cd242 O245 2.333 . S
Cd242 O246 2.352 . S
Cd242 O250 2.277 . S
Cd242 O251 2.356 . S
C243 O248 1.209 . S
C243 O250 1.226 . S
O244 Cd240 2.273 . S
O244 Cd242 2.411 . S
O244 C247 1.320 . S
O245 Cd242 2.333 . S
O245 C247 1.214 . S
O246 Cd242 2.352 . S
O246 C249 1.258 . S
C247 O244 1.320 . S
C247 O245 1.214 . S
O248 Cd240 2.277 . S
O248 C243 1.209 . S
C249 O246 1.258 . S
C249 O251 1.282 . S
O250 Cd242 2.277 . S
O250 C243 1.226 . S
O251 Cd242 2.356 . S
O251 C249 1.282 . S
C252 O253 1.306 . S
C252 O255 1.160 . S
O253 C252 1.306 . S
O253 Cd254 2.228 . S
Cd254 O253 2.228 . S
Cd254 O258 2.273 . S
Cd254 O262 2.277 . S
O255 C252 1.160 . S
O255 Cd256 2.203 . S
Cd256 O255 2.203 . S
Cd256 O258 2.411 . S
Cd256 O259 2.333 . S
Cd256 O260 2.352 . S
Cd256 O264 2.277 . S
Cd256 O265 2.356 . S
C257 O262 1.209 . S
C257 O264 1.226 . S
O258 Cd254 2.273 . S
O258 Cd256 2.411 . S
O258 C261 1.320 . S
O259 Cd256 2.333 . S
O259 C261 1.214 . S
O260 Cd256 2.352 . S
O260 C263 1.258 . S
C261 O258 1.320 . S
C261 O259 1.214 . S
O262 Cd254 2.277 . S
O262 C257 1.209 . S
C263 O260 1.258 . S
C263 O265 1.282 . S
O264 Cd256 2.277 . S
O264 C257 1.226 . S
O265 Cd256 2.356 . S
O265 C263 1.282 . S
C266 O267 1.306 . S
C266 O269 1.160 . S
O267 C266 1.306 . S
O267 Cd268 2.228 . S
Cd268 O267 2.228 . S
Cd268 O272 2.273 . S
Cd268 O276 2.277 . S
O269 C266 1.160 . S
O269 Cd270 2.203 . S
Cd270 O269 2.203 . S
Cd270 O272 2.411 . S
Cd270 O273 2.333 . S
Cd270 O274 2.352 . S
Cd270 O278 2.277 . S
Cd270 O279 2.356 . S
C271 O276 1.209 . S
C271 O278 1.226 . S
O272 Cd268 2.273 . S
O272 Cd270 2.411 . S
O272 C275 1.320 . S
O273 Cd270 2.333 . S
O273 C275 1.214 . S
O274 Cd270 2.352 . S
O274 C277 1.258 . S
C275 O272 1.320 . S
C275 O273 1.214 . S
O276 Cd268 2.277 . S
O276 C271 1.209 . S
C277 O274 1.258 . S
C277 O279 1.282 . S
O278 Cd270 2.277 . S
O278 C271 1.226 . S
O279 Cd270 2.356 . S
O279 C277 1.282 . S
C280 O281 1.306 . S
C280 O283 1.160 . S
O281 C280 1.306 . S
O281 Cd282 2.228 . S
Cd282 O281 2.228 . S
Cd282 O286 2.273 . S
Cd282 O290 2.277 . S
O283 C280 1.160 . S
O283 Cd284 2.203 . S
Cd284 O283 2.203 . S
Cd284 O286 2.411 . S
Cd284 O287 2.333 . S
Cd284 O288 2.352 . S
Cd284 O292 2.277 . S
Cd284 O293 2.356 . S
C285 O290 1.209 . S
C285 O292 1.226 . S
O286 Cd282 2.273 . S
O286 Cd284 2.411 . S
O286 C289 1.320 . S
O287 Cd284 2.333 . S
O287 C289 1.214 . S
O288 Cd284 2.352 . S
O288 C291 1.258 . S
C289 O286 1.320 . S
C289 O287 1.214 . S
O290 Cd282 2.277 . S
O290 C285 1.209 . S
C291 O288 1.258 . S
C291 O293 1.282 . S
O292 Cd284 2.277 . S
O292 C285 1.226 . S
O293 Cd284 2.356 . S
O293 C291 1.282 . S
C294 O295 1.306 . S
C294 O297 1.160 . S
O295 C294 1.306 . S
O295 Cd296 2.228 . S
Cd296 O295 2.228 . S
Cd296 O300 2.273 . S
Cd296 O304 2.277 . S
O297 C294 1.160 . S
O297 Cd298 2.203 . S
Cd298 O297 2.203 . S
Cd298 O300 2.411 . S
Cd298 O301 2.333 . S
Cd298 O302 2.352 . S
Cd298 O306 2.277 . S
Cd298 O307 2.356 . S
C299 O304 1.209 . S
C299 O306 1.226 . S
O300 Cd296 2.273 . S
O300 Cd298 2.411 . S
O300 C303 1.320 . S
O301 Cd298 2.333 . S
O301 C303 1.214 . S
O302 Cd298 2.352 . S
O302 C305 1.258 . S
C303 O300 1.320 . S
C303 O301 1.214 . S
O304 Cd296 2.277 . S
O304 C299 1.209 . S
C305 O302 1.258 . S
C305 O307 1.282 . S
O306 Cd298 2.277 . S
O306 C299 1.226 . S
O307 Cd298 2.356 . S
O307 C305 1.282 . S
C308 O309 1.306 . S
C308 O311 1.160 . S
O309 C308 1.306 . S
O309 Cd310 2.228 . S
Cd310 O309 2.228 . S
Cd310 O314 2.273 . S
Cd310 O318 2.277 . S
O311 C308 1.160 . S
O311 Cd312 2.203 . S
Cd312 O311 2.203 . S
Cd312 O314 2.411 . S
Cd312 O315 2.333 . S
Cd312 O316 2.352 . S
Cd312 O320 2.277 . S
Cd312 O321 2.356 . S
C313 O318 1.209 . S
C313 O320 1.226 . S
O314 Cd310 2.273 . S
O314 Cd312 2.411 . S
O314 C317 1.320 . S
O315 Cd312 2.333 . S
O315 C317 1.214 . S
O316 Cd312 2.352 . S
O316 C319 1.258 . S
C317 O314 1.320 . S
C317 O315 1.214 . S
O318 Cd310 2.277 . S
O318 C313 1.209 . S
C319 O316 1.258 . S
C319 O321 1.282 . S
O320 Cd312 2.277 . S
O320 C313 1.226 . S
O321 Cd312 2.356 . S
O321 C319 1.282 . S
C322 O323 1.306 . S
C322 O325 1.160 . S
O323 C322 1.306 . S
O323 Cd324 2.228 . S
Cd324 O323 2.228 . S
Cd324 O328 2.273 . S
Cd324 O332 2.277 . S
O325 C322 1.160 . S
O325 Cd326 2.203 . S
Cd326 O325 2.203 . S
Cd326 O328 2.411 . S
Cd326 O329 2.333 . S
Cd326 O330 2.352 . S
Cd326 O334 2.277 . S
Cd326 O335 2.356 . S
C327 O332 1.209 . S
C327 O334 1.226 . S
O328 Cd324 2.273 . S
O328 Cd326 2.411 . S
O328 C331 1.320 . S
O329 Cd326 2.333 . S
O329 C331 1.214 . S
O330 Cd326 2.352 . S
O330 C333 1.258 . S
C331 O328 1.320 . S
C331 O329 1.214 . S
O332 Cd324 2.277 . S
O332 C327 1.209 . S
C333 O330 1.258 . S
C333 O335 1.282 . S
O334 Cd326 2.277 . S
O334 C327 1.226 . S
O335 Cd326 2.356 . S
O335 C333 1.282 . S
C336 O337 1.306 . S
C336 O339 1.160 . S
O337 C336 1.306 . S
O337 Cd338 2.228 . S
Cd338 O337 2.228 . S
Cd338 O342 2.273 . S
Cd338 O346 2.277 . S
O339 C336 1.160 . S
O339 Cd340 2.203 . S
Cd340 O339 2.203 . S
Cd340 O342 2.411 . S
Cd340 O343 2.333 . S
Cd340 O344 2.352 . S
Cd340 O348 2.277 . S
Cd340 O349 2.356 . S
C341 O346 1.209 . S
C341 O348 1.226 . S
O342 Cd338 2.273 . S
O342 Cd340 2.411 . S
O342 C345 1.320 . S
O343 Cd340 2.333 . S
O343 C345 1.214 . S
O344 Cd340 2.352 . S
O344 C347 1.258 . S
C345 O342 1.320 . S
C345 O343 1.214 . S
O346 Cd338 2.277 . S
O346 C341 1.209 . S
C347 O344 1.258 . S
C347 O349 1.282 . S
O348 Cd340 2.277 . S
O348 C341 1.226 . S
O349 Cd340 2.356 . S
O349 C347 1.282 . S
C350 O351 1.306 . S
C350 O353 1.160 . S
O351 C350 1.306 . S
O351 Cd352 2.228 . S
Cd352 O351 2.228 . S
Cd352 O356 2.273 . S
Cd352 O360 2.277 . S
O353 C350 1.160 . S
O353 Cd354 2.203 . S
Cd354 O353 2.203 . S
Cd354 O356 2.411 . S
Cd354 O357 2.333 . S
Cd354 O358 2.352 . S
Cd354 O362 2.277 . S
Cd354 O363 2.356 . S
C355 O360 1.209 . S
C355 O362 1.226 . S
O356 Cd352 2.273 . S
O356 Cd354 2.411 . S
O356 C359 1.320 . S
O357 Cd354 2.333 . S
O357 C359 1.214 . S
O358 Cd354 2.352 . S
O358 C361 1.258 . S
C359 O356 1.320 . S
C359 O357 1.214 . S
O360 Cd352 2.277 . S
O360 C355 1.209 . S
C361 O358 1.258 . S
C361 O363 1.282 . S
O362 Cd354 2.277 . S
O362 C355 1.226 . S
O363 Cd354 2.356 . S
O363 C361 1.282 . S
C364 O365 1.306 . S
C364 O367 1.160 . S
O365 C364 1.306 . S
O365 Cd366 2.228 . S
Cd366 O365 2.228 . S
Cd366 O370 2.273 . S
Cd366 O374 2.277 . S
O367 C364 1.160 . S
O367 Cd368 2.203 . S
Cd368 O367 2.203 . S
Cd368 O370 2.411 . S
Cd368 O371 2.333 . S
Cd368 O372 2.352 . S
Cd368 O376 2.277 . S
Cd368 O377 2.356 . S
C369 O374 1.209 . S
C369 O376 1.226 . S
O370 Cd366 2.273 . S
O370 Cd368 2.411 . S
O370 C373 1.320 . S
O371 Cd368 2.333 . S
O371 C373 1.214 . S
O372 Cd368 2.352 . S
O372 C375 1.258 . S
C373 O370 1.320 . S
C373 O371 1.214 . S
O374 Cd366 2.277 . S
O374 C369 1.209 . S
C375 O372 1.258 . S
C375 O377 1.282 . S
O376 Cd368 2.277 . S
O376 C369 1.226 . S
O377 Cd368 2.356 . S
O377 C375 1.282 . S
C378 O379 1.306 . S
C378 O381 1.160 . S
O379 C378 1.306 . S
O379 Cd380 2.228 . S
Cd380 O379 2.228 . S
Cd380 O384 2.273 . S
Cd380 O388 2.277 . S
O381 C378 1.160 . S
O381 Cd382 2.203 . S
Cd382 O381 2.203 . S
Cd382 O384 2.411 . S
Cd382 O385 2.333 . S
Cd382 O386 2.352 . S
Cd382 O390 2.277 . S
Cd382 O391 2.356 . S
C383 O388 1.209 . S
C383 O390 1.226 . S
O384 Cd380 2.273 . S
O384 Cd382 2.411 . S
O384 C387 1.320 . S
O385 Cd382 2.333 . S
O385 C387 1.214 . S
O386 Cd382 2.352 . S
O386 C389 1.258 . S
C387 O384 1.320 . S
C387 O385 1.214 . S
O388 Cd380 2.277 . S
O388 C383 1.209 . S
C389 O386 1.258 . S
C389 O391 1.282 . S
O390 Cd382 2.277 . S
O390 C383 1.226 . S
O391 Cd382 2.356 . S
O391 C389 1.282 . S
C392 O393 1.306 . S
C392 O395 1.160 . S
O393 C392 1.306 . S
O393 Cd394 2.228 . S
Cd394 O393 2.228 . S
Cd394 O398 2.273 . S
Cd394 O402 2.277 . S
O395 C392 1.160 . S
O395 Cd396 2.203 . S
Cd396 O395 2.203 . S
Cd396 O398 2.411 . S
Cd396 O399 2.333 . S
Cd396 O400 2.352 . S
Cd396 O404 2.277 . S
Cd396 O405 2.356 . S
C397 O402 1.209 . S
C397 O404 1.226 . S
O398 Cd394 2.273 . S
O398 Cd396 2.411 . S
O398 C401 1.320 . S
O399 Cd396 2.333 . S
O399 C401 1.214 . S
O400 Cd396 2.352 . S
O400 C403 1.258 . S
C401 O398 1.320 . S
C401 O399 1.214 . S
O402 Cd394 2.277 . S
O402 C397 1.209 . S
C403 O400 1.258 . S
C403 O405 1.282 . S
O404 Cd396 2.277 . S
O404 C397 1.226 . S
O405 Cd396 2.356 . S
O405 C403 1.282 . S
C406 O407 1.306 . S
C406 O409 1.160 . S
O407 C406 1.306 . S
O407 Cd408 2.228 . S
Cd408 O407 2.228 . S
Cd408 O412 2.273 . S
Cd408 O416 2.277 . S
O409 C406 1.160 . S
O409 Cd410 2.203 . S
Cd410 O409 2.203 . S
Cd410 O412 2.411 . S
Cd410 O413 2.333 . S
Cd410 O414 2.352 . S
Cd410 O418 2.277 . S
Cd410 O419 2.356 . S
C411 O416 1.209 . S
C411 O418 1.226 . S
O412 Cd408 2.273 . S
O412 Cd410 2.411 . S
O412 C415 1.320 . S
O413 Cd410 2.333 . S
O413 C415 1.214 . S
O414 Cd410 2.352 . S
O414 C417 1.258 . S
C415 O412 1.320 . S
C415 O413 1.214 . S
O416 Cd408 2.277 . S
O416 C411 1.209 . S
C417 O414 1.258 . S
C417 O419 1.282 . S
O418 Cd410 2.277 . S
O418 C411 1.226 . S
O419 Cd410 2.356 . S
O419 C417 1.282 . S
C420 O421 1.306 . S
C420 O423 1.160 . S
O421 C420 1.306 . S
O421 Cd422 2.228 . S
Cd422 O421 2.228 . S
Cd422 O426 2.273 . S
Cd422 O430 2.277 . S
O423 C420 1.160 . S
O423 Cd424 2.203 . S
Cd424 O423 2.203 . S
Cd424 O426 2.411 . S
Cd424 O427 2.333 . S
Cd424 O428 2.352 . S
Cd424 O432 2.277 . S
Cd424 O433 2.356 . S
C425 O430 1.209 . S
C425 O432 1.226 . S
O426 Cd422 2.273 . S
O426 Cd424 2.411 . S
O426 C429 1.320 . S
O427 Cd424 2.333 . S
O427 C429 1.214 . S
O428 Cd424 2.352 . S
O428 C431 1.258 . S
C429 O426 1.320 . S
C429 O427 1.214 . S
O430 Cd422 2.277 . S
O430 C425 1.209 . S
C431 O428 1.258 . S
C431 O433 1.282 . S
O432 Cd424 2.277 . S
O432 C425 1.226 . S
O433 Cd424 2.356 . S
O433 C431 1.282 . S
C434 O435 1.306 . S
C434 O437 1.160 . S
O435 C434 1.306 . S
O435 Cd436 2.228 . S
Cd436 O435 2.228 . S
Cd436 O440 2.273 . S
Cd436 O444 2.277 . S
O437 C434 1.160 . S
O437 Cd438 2.203 . S
Cd438 O437 2.203 . S
Cd438 O440 2.411 . S
Cd438 O441 2.333 . S
Cd438 O442 2.352 . S
Cd438 O446 2.277 . S
Cd438 O447 2.356 . S
C439 O444 1.209 . S
C439 O446 1.226 . S
O440 Cd436 2.273 . S
O440 Cd438 2.411 . S
O440 C443 1.320 . S
O441 Cd438 2.333 . S
O441 C443 1.214 . S
O442 Cd438 2.352 . S
O442 C445 1.258 . S
C443 O440 1.320 . S
C443 O441 1.214 . S
O444 Cd436 2.277 . S
O444 C439 1.209 . S
C445 O442 1.258 . S
C445 O447 1.282 . S
O446 Cd438 2.277 . S
O446 C439 1.226 . S
O447 Cd438 2.356 . S
O447 C445 1.282 . S
C448 C449 1.391 . S
C448 C450 1.394 . S
C448 H464 0.931 . S
C449 C448 1.391 . S
C449 C453 1.376 . S
C450 C448 1.394 . S
C450 C451 1.369 . S
C450 C454 1.531 . S
C451 C450 1.369 . S
C451 C452 1.410 . S
C451 C459 1.503 . S
C452 C451 1.410 . S
C452 C453 1.392 . S
C452 C455 1.511 . S
C453 C449 1.376 . S
C453 C452 1.392 . S
C453 H465 0.929 . S
C454 C450 1.531 . S
C454 H466 0.960 . S
C454 H467 0.962 . S
C454 H468 0.960 . S
C455 C452 1.511 . S
C455 H469 0.961 . S
C455 H470 0.961 . S
C455 H471 0.961 . S
C456 C457 1.370 . S
C456 C458 1.363 . S
C456 H472 0.931 . S
C457 C456 1.370 . S
C457 C461 1.408 . S
C458 C456 1.363 . S
C458 C459 1.370 . S
C458 C462 1.524 . S
C459 C451 1.503 . S
C459 C458 1.370 . S
C459 C460 1.403 . S
C460 C459 1.403 . S
C460 C461 1.404 . S
C460 C463 1.539 . S
C461 C457 1.408 . S
C461 C460 1.404 . S
C461 H473 0.930 . S
C462 C458 1.524 . S
C462 H474 0.956 . S
C462 H475 0.961 . S
C462 H476 0.961 . S
C463 C460 1.539 . S
C463 H477 0.958 . S
C463 H478 0.961 . S
C463 H479 0.960 . S
H464 C448 0.931 . S
H465 C453 0.929 . S
H466 C454 0.960 . S
H467 C454 0.962 . S
H468 C454 0.960 . S
H469 C455 0.961 . S
H470 C455 0.961 . S
H471 C455 0.961 . S
H472 C456 0.931 . S
H473 C461 0.930 . S
H474 C462 0.956 . S
H475 C462 0.961 . S
H476 C462 0.961 . S
H477 C463 0.958 . S
H478 C463 0.961 . S
H479 C463 0.960 . S
C480 C481 1.391 . S
C480 C482 1.394 . S
C480 H496 0.931 . S
C481 C480 1.391 . S
C481 C485 1.376 . S
C482 C480 1.394 . S
C482 C483 1.369 . S
C482 C486 1.531 . S
C483 C482 1.369 . S
C483 C484 1.410 . S
C483 C491 1.503 . S
C484 C483 1.410 . S
C484 C485 1.392 . S
C484 C487 1.511 . S
C485 C481 1.376 . S
C485 C484 1.392 . S
C485 H497 0.929 . S
C486 C482 1.531 . S
C486 H498 0.960 . S
C486 H499 0.962 . S
C486 H500 0.960 . S
C487 C484 1.511 . S
C487 H501 0.961 . S
C487 H502 0.961 . S
C487 H503 0.961 . S
C488 C489 1.370 . S
C488 C490 1.363 . S
C488 H504 0.931 . S
C489 C488 1.370 . S
C489 C493 1.408 . S
C490 C488 1.363 . S
C490 C491 1.370 . S
C490 C494 1.524 . S
C491 C483 1.503 . S
C491 C490 1.370 . S
C491 C492 1.403 . S
C492 C491 1.403 . S
C492 C493 1.404 . S
C492 C495 1.539 . S
C493 C489 1.408 . S
C493 C492 1.404 . S
C493 H505 0.930 . S
C494 C490 1.524 . S
C494 H506 0.956 . S
C494 H507 0.961 . S
C494 H508 0.961 . S
C495 C492 1.539 . S
C495 H509 0.958 . S
C495 H510 0.961 . S
C495 H511 0.960 . S
H496 C480 0.931 . S
H497 C485 0.929 . S
H498 C486 0.960 . S
H499 C486 0.962 . S
H500 C486 0.960 . S
H501 C487 0.961 . S
H502 C487 0.961 . S
H503 C487 0.961 . S
H504 C488 0.931 . S
H505 C493 0.930 . S
H506 C494 0.956 . S
H507 C494 0.961 . S
H508 C494 0.961 . S
H509 C495 0.958 . S
H510 C495 0.961 . S
H511 C495 0.960 . S
C512 C513 1.391 . S
C512 C514 1.394 . S
C512 H528 0.931 . S
C513 C512 1.391 . S
C513 C517 1.376 . S
C514 C512 1.394 . S
C514 C515 1.369 . S
C514 C518 1.531 . S
C515 C514 1.369 . S
C515 C516 1.410 . S
C515 C523 1.503 . S
C516 C515 1.410 . S
C516 C517 1.392 . S
C516 C519 1.511 . S
C517 C513 1.376 . S
C517 C516 1.392 . S
C517 H529 0.929 . S
C518 C514 1.531 . S
C518 H530 0.960 . S
C518 H531 0.962 . S
C518 H532 0.960 . S
C519 C516 1.511 . S
C519 H533 0.961 . S
C519 H534 0.961 . S
C519 H535 0.961 . S
C520 C521 1.370 . S
C520 C522 1.363 . S
C520 H536 0.931 . S
C521 C520 1.370 . S
C521 C525 1.408 . S
C522 C520 1.363 . S
C522 C523 1.370 . S
C522 C526 1.524 . S
C523 C515 1.503 . S
C523 C522 1.370 . S
C523 C524 1.403 . S
C524 C523 1.403 . S
C524 C525 1.404 . S
C524 C527 1.539 . S
C525 C521 1.408 . S
C525 C524 1.404 . S
C525 H537 0.930 . S
C526 C522 1.524 . S
C526 H538 0.956 . S
C526 H539 0.961 . S
C526 H540 0.961 . S
C527 C524 1.539 . S
C527 H541 0.958 . S
C527 H542 0.961 . S
C527 H543 0.960 . S
H528 C512 0.931 . S
H529 C517 0.929 . S
H530 C518 0.960 . S
H531 C518 0.962 . S
H532 C518 0.960 . S
H533 C519 0.961 . S
H534 C519 0.961 . S
H535 C519 0.961 . S
H536 C520 0.931 . S
H537 C525 0.930 . S
H538 C526 0.956 . S
H539 C526 0.961 . S
H540 C526 0.961 . S
H541 C527 0.958 . S
H542 C527 0.961 . S
H543 C527 0.960 . S
C544 C545 1.391 . S
C544 C546 1.394 . S
C544 H560 0.931 . S
C545 C544 1.391 . S
C545 C549 1.376 . S
C546 C544 1.394 . S
C546 C547 1.369 . S
C546 C550 1.531 . S
C547 C546 1.369 . S
C547 C548 1.410 . S
C547 C555 1.503 . S
C548 C547 1.410 . S
C548 C549 1.392 . S
C548 C551 1.511 . S
C549 C545 1.376 . S
C549 C548 1.392 . S
C549 H561 0.929 . S
C550 C546 1.531 . S
C550 H562 0.960 . S
C550 H563 0.962 . S
C550 H564 0.960 . S
C551 C548 1.511 . S
C551 H565 0.961 . S
C551 H566 0.961 . S
C551 H567 0.961 . S
C552 C553 1.370 . S
C552 C554 1.363 . S
C552 H568 0.931 . S
C553 C552 1.370 . S
C553 C557 1.408 . S
C554 C552 1.363 . S
C554 C555 1.370 . S
C554 C558 1.524 . S
C555 C547 1.503 . S
C555 C554 1.370 . S
C555 C556 1.403 . S
C556 C555 1.403 . S
C556 C557 1.404 . S
C556 C559 1.539 . S
C557 C553 1.408 . S
C557 C556 1.404 . S
C557 H569 0.930 . S
C558 C554 1.524 . S
C558 H570 0.956 . S
C558 H571 0.961 . S
C558 H572 0.961 . S
C559 C556 1.539 . S
C559 H573 0.958 . S
C559 H574 0.961 . S
C559 H575 0.960 . S
H560 C544 0.931 . S
H561 C549 0.929 . S
H562 C550 0.960 . S
H563 C550 0.962 . S
H564 C550 0.960 . S
H565 C551 0.961 . S
H566 C551 0.961 . S
H567 C551 0.961 . S
H568 C552 0.931 . S
H569 C557 0.930 . S
H570 C558 0.956 . S
H571 C558 0.961 . S
H572 C558 0.961 . S
H573 C559 0.958 . S
H574 C559 0.961 . S
H575 C559 0.960 . S
C576 C577 1.391 . S
C576 C578 1.394 . S
C576 H592 0.931 . S
C577 C576 1.391 . S
C577 C581 1.376 . S
C578 C576 1.394 . S
C578 C579 1.369 . S
C578 C582 1.531 . S
C579 C578 1.369 . S
C579 C580 1.410 . S
C579 C587 1.503 . S
C580 C579 1.410 . S
C580 C581 1.392 . S
C580 C583 1.511 . S
C581 C577 1.376 . S
C581 C580 1.392 . S
C581 H593 0.929 . S
C582 C578 1.531 . S
C582 H594 0.960 . S
C582 H595 0.962 . S
C582 H596 0.960 . S
C583 C580 1.511 . S
C583 H597 0.961 . S
C583 H598 0.961 . S
C583 H599 0.961 . S
C584 C585 1.370 . S
C584 C586 1.363 . S
C584 H600 0.931 . S
C585 C584 1.370 . S
C585 C589 1.408 . S
C586 C584 1.363 . S
C586 C587 1.370 . S
C586 C590 1.524 . S
C587 C579 1.503 . S
C587 C586 1.370 . S
C587 C588 1.403 . S
C588 C587 1.403 . S
C588 C589 1.404 . S
C588 C591 1.539 . S
C589 C585 1.408 . S
C589 C588 1.404 . S
C589 H601 0.930 . S
C590 C586 1.524 . S
C590 H602 0.956 . S
C590 H603 0.961 . S
C590 H604 0.961 . S
C591 C588 1.539 . S
C591 H605 0.958 . S
C591 H606 0.961 . S
C591 H607 0.960 . S
H592 C576 0.931 . S
H593 C581 0.929 . S
H594 C582 0.960 . S
H595 C582 0.962 . S
H596 C582 0.960 . S
H597 C583 0.961 . S
H598 C583 0.961 . S
H599 C583 0.961 . S
H600 C584 0.931 . S
H601 C589 0.930 . S
H602 C590 0.956 . S
H603 C590 0.961 . S
H604 C590 0.961 . S
H605 C591 0.958 . S
H606 C591 0.961 . S
H607 C591 0.960 . S
C608 C609 1.391 . S
C608 C610 1.394 . S
C608 H624 0.931 . S
C609 C608 1.391 . S
C609 C613 1.376 . S
C610 C608 1.394 . S
C610 C611 1.369 . S
C610 C614 1.531 . S
C611 C610 1.369 . S
C611 C612 1.410 . S
C611 C619 1.503 . S
C612 C611 1.410 . S
C612 C613 1.392 . S
C612 C615 1.511 . S
C613 C609 1.376 . S
C613 C612 1.392 . S
C613 H625 0.929 . S
C614 C610 1.531 . S
C614 H626 0.960 . S
C614 H627 0.962 . S
C614 H628 0.960 . S
C615 C612 1.511 . S
C615 H629 0.961 . S
C615 H630 0.961 . S
C615 H631 0.961 . S
C616 C617 1.370 . S
C616 C618 1.363 . S
C616 H632 0.931 . S
C617 C616 1.370 . S
C617 C621 1.408 . S
C618 C616 1.363 . S
C618 C619 1.370 . S
C618 C622 1.524 . S
C619 C611 1.503 . S
C619 C618 1.370 . S
C619 C620 1.403 . S
C620 C619 1.403 . S
C620 C621 1.404 . S
C620 C623 1.539 . S
C621 C617 1.408 . S
C621 C620 1.404 . S
C621 H633 0.930 . S
C622 C618 1.524 . S
C622 H634 0.956 . S
C622 H635 0.961 . S
C622 H636 0.961 . S
C623 C620 1.539 . S
C623 H637 0.958 . S
C623 H638 0.961 . S
C623 H639 0.960 . S
H624 C608 0.931 . S
H625 C613 0.929 . S
H626 C614 0.960 . S
H627 C614 0.962 . S
H628 C614 0.960 . S
H629 C615 0.961 . S
H630 C615 0.961 . S
H631 C615 0.961 . S
H632 C616 0.931 . S
H633 C621 0.930 . S
H634 C622 0.956 . S
H635 C622 0.961 . S
H636 C622 0.961 . S
H637 C623 0.958 . S
H638 C623 0.961 . S
H639 C623 0.960 . S
C640 C641 1.391 . S
C640 C642 1.394 . S
C640 H656 0.931 . S
C641 C640 1.391 . S
C641 C645 1.376 . S
C642 C640 1.394 . S
C642 C643 1.369 . S
C642 C646 1.531 . S
C643 C642 1.369 . S
C643 C644 1.410 . S
C643 C651 1.503 . S
C644 C643 1.410 . S
C644 C645 1.392 . S
C644 C647 1.511 . S
C645 C641 1.376 . S
C645 C644 1.392 . S
C645 H657 0.929 . S
C646 C642 1.531 . S
C646 H658 0.960 . S
C646 H659 0.962 . S
C646 H660 0.960 . S
C647 C644 1.511 . S
C647 H661 0.961 . S
C647 H662 0.961 . S
C647 H663 0.961 . S
C648 C649 1.370 . S
C648 C650 1.363 . S
C648 H664 0.931 . S
C649 C648 1.370 . S
C649 C653 1.408 . S
C650 C648 1.363 . S
C650 C651 1.370 . S
C650 C654 1.524 . S
C651 C643 1.503 . S
C651 C650 1.370 . S
C651 C652 1.403 . S
C652 C651 1.403 . S
C652 C653 1.404 . S
C652 C655 1.539 . S
C653 C649 1.408 . S
C653 C652 1.404 . S
C653 H665 0.930 . S
C654 C650 1.524 . S
C654 H666 0.956 . S
C654 H667 0.961 . S
C654 H668 0.961 . S
C655 C652 1.539 . S
C655 H669 0.958 . S
C655 H670 0.961 . S
C655 H671 0.960 . S
H656 C640 0.931 . S
H657 C645 0.929 . S
H658 C646 0.960 . S
H659 C646 0.962 . S
H660 C646 0.960 . S
H661 C647 0.961 . S
H662 C647 0.961 . S
H663 C647 0.961 . S
H664 C648 0.931 . S
H665 C653 0.930 . S
H666 C654 0.956 . S
H667 C654 0.961 . S
H668 C654 0.961 . S
H669 C655 0.958 . S
H670 C655 0.961 . S
H671 C655 0.960 . S
C672 C673 1.391 . S
C672 C674 1.394 . S
C672 H688 0.931 . S
C673 C672 1.391 . S
C673 C677 1.376 . S
C674 C672 1.394 . S
C674 C675 1.369 . S
C674 C678 1.531 . S
C675 C674 1.369 . S
C675 C676 1.410 . S
C675 C683 1.503 . S
C676 C675 1.410 . S
C676 C677 1.392 . S
C676 C679 1.511 . S
C677 C673 1.376 . S
C677 C676 1.392 . S
C677 H689 0.929 . S
C678 C674 1.531 . S
C678 H690 0.960 . S
C678 H691 0.962 . S
C678 H692 0.960 . S
C679 C676 1.511 . S
C679 H693 0.961 . S
C679 H694 0.961 . S
C679 H695 0.961 . S
C680 C681 1.370 . S
C680 C682 1.363 . S
C680 H696 0.931 . S
C681 C680 1.370 . S
C681 C685 1.408 . S
C682 C680 1.363 . S
C682 C683 1.370 . S
C682 C686 1.524 . S
C683 C675 1.503 . S
C683 C682 1.370 . S
C683 C684 1.403 . S
C684 C683 1.403 . S
C684 C685 1.404 . S
C684 C687 1.539 . S
C685 C681 1.408 . S
C685 C684 1.404 . S
C685 H697 0.930 . S
C686 C682 1.524 . S
C686 H698 0.956 . S
C686 H699 0.961 . S
C686 H700 0.961 . S
C687 C684 1.539 . S
C687 H701 0.958 . S
C687 H702 0.961 . S
C687 H703 0.960 . S
H688 C672 0.931 . S
H689 C677 0.929 . S
H690 C678 0.960 . S
H691 C678 0.962 . S
H692 C678 0.960 . S
H693 C679 0.961 . S
H694 C679 0.961 . S
H695 C679 0.961 . S
H696 C680 0.931 . S
H697 C685 0.930 . S
H698 C686 0.956 . S
H699 C686 0.961 . S
H700 C686 0.961 . S
H701 C687 0.958 . S
H702 C687 0.961 . S
H703 C687 0.960 . S
C704 C705 1.391 . S
C704 C706 1.394 . S
C704 H720 0.931 . S
C705 C704 1.391 . S
C705 C709 1.376 . S
C706 C704 1.394 . S
C706 C707 1.369 . S
C706 C710 1.531 . S
C707 C706 1.369 . S
C707 C708 1.410 . S
C707 C715 1.503 . S
C708 C707 1.410 . S
C708 C709 1.392 . S
C708 C711 1.511 . S
C709 C705 1.376 . S
C709 C708 1.392 . S
C709 H721 0.929 . S
C710 C706 1.531 . S
C710 H722 0.960 . S
C710 H723 0.962 . S
C710 H724 0.960 . S
C711 C708 1.511 . S
C711 H725 0.961 . S
C711 H726 0.961 . S
C711 H727 0.961 . S
C712 C713 1.370 . S
C712 C714 1.363 . S
C712 H728 0.931 . S
C713 C712 1.370 . S
C713 C717 1.408 . S
C714 C712 1.363 . S
C714 C715 1.370 . S
C714 C718 1.524 . S
C715 C707 1.503 . S
C715 C714 1.370 . S
C715 C716 1.403 . S
C716 C715 1.403 . S
C716 C717 1.404 . S
C716 C719 1.539 . S
C717 C713 1.408 . S
C717 C716 1.404 . S
C717 H729 0.930 . S
C718 C714 1.524 . S
C718 H730 0.956 . S
C718 H731 0.961 . S
C718 H732 0.961 . S
C719 C716 1.539 . S
C719 H733 0.958 . S
C719 H734 0.961 . S
C719 H735 0.960 . S
H720 C704 0.931 . S
H721 C709 0.929 . S
H722 C710 0.960 . S
H723 C710 0.962 . S
H724 C710 0.960 . S
H725 C711 0.961 . S
H726 C711 0.961 . S
H727 C711 0.961 . S
H728 C712 0.931 . S
H729 C717 0.930 . S
H730 C718 0.956 . S
H731 C718 0.961 . S
H732 C718 0.961 . S
H733 C719 0.958 . S
H734 C719 0.961 . S
H735 C719 0.960 . S
C736 C737 1.391 . S
C736 C738 1.394 . S
C736 H752 0.931 . S
C737 C736 1.391 . S
C737 C741 1.376 . S
C738 C736 1.394 . S
C738 C739 1.369 . S
C738 C742 1.531 . S
C739 C738 1.369 . S
C739 C740 1.410 . S
C739 C747 1.503 . S
C740 C739 1.410 . S
C740 C741 1.392 . S
C740 C743 1.511 . S
C741 C737 1.376 . S
C741 C740 1.392 . S
C741 H753 0.929 . S
C742 C738 1.531 . S
C742 H754 0.960 . S
C742 H755 0.962 . S
C742 H756 0.960 . S
C743 C740 1.511 . S
C743 H757 0.961 . S
C743 H758 0.961 . S
C743 H759 0.961 . S
C744 C745 1.370 . S
C744 C746 1.363 . S
C744 H760 0.931 . S
C745 C744 1.370 . S
C745 C749 1.408 . S
C746 C744 1.363 . S
C746 C747 1.370 . S
C746 C750 1.524 . S
C747 C739 1.503 . S
C747 C746 1.370 . S
C747 C748 1.403 . S
C748 C747 1.403 . S
C748 C749 1.404 . S
C748 C751 1.539 . S
C749 C745 1.408 . S
C749 C748 1.404 . S
C749 H761 0.930 . S
C750 C746 1.524 . S
C750 H762 0.956 . S
C750 H763 0.961 . S
C750 H764 0.961 . S
C751 C748 1.539 . S
C751 H765 0.958 . S
C751 H766 0.961 . S
C751 H767 0.960 . S
H752 C736 0.931 . S
H753 C741 0.929 . S
H754 C742 0.960 . S
H755 C742 0.962 . S
H756 C742 0.960 . S
H757 C743 0.961 . S
H758 C743 0.961 . S
H759 C743 0.961 . S
H760 C744 0.931 . S
H761 C749 0.930 . S
H762 C750 0.956 . S
H763 C750 0.961 . S
H764 C750 0.961 . S
H765 C751 0.958 . S
H766 C751 0.961 . S
H767 C751 0.960 . S
C768 C769 1.391 . S
C768 C770 1.394 . S
C768 H784 0.931 . S
C769 C768 1.391 . S
C769 C773 1.376 . S
C770 C768 1.394 . S
C770 C771 1.369 . S
C770 C774 1.531 . S
C771 C770 1.369 . S
C771 C772 1.410 . S
C771 C779 1.503 . S
C772 C771 1.410 . S
C772 C773 1.392 . S
C772 C775 1.511 . S
C773 C769 1.376 . S
C773 C772 1.392 . S
C773 H785 0.929 . S
C774 C770 1.531 . S
C774 H786 0.960 . S
C774 H787 0.962 . S
C774 H788 0.960 . S
C775 C772 1.511 . S
C775 H789 0.961 . S
C775 H790 0.961 . S
C775 H791 0.961 . S
C776 C777 1.370 . S
C776 C778 1.363 . S
C776 H792 0.931 . S
C777 C776 1.370 . S
C777 C781 1.408 . S
C778 C776 1.363 . S
C778 C779 1.370 . S
C778 C782 1.524 . S
C779 C771 1.503 . S
C779 C778 1.370 . S
C779 C780 1.403 . S
C780 C779 1.403 . S
C780 C781 1.404 . S
C780 C783 1.539 . S
C781 C777 1.408 . S
C781 C780 1.404 . S
C781 H793 0.930 . S
C782 C778 1.524 . S
C782 H794 0.956 . S
C782 H795 0.961 . S
C782 H796 0.961 . S
C783 C780 1.539 . S
C783 H797 0.958 . S
C783 H798 0.961 . S
C783 H799 0.960 . S
H784 C768 0.931 . S
H785 C773 0.929 . S
H786 C774 0.960 . S
H787 C774 0.962 . S
H788 C774 0.960 . S
H789 C775 0.961 . S
H790 C775 0.961 . S
H791 C775 0.961 . S
H792 C776 0.931 . S
H793 C781 0.930 . S
H794 C782 0.956 . S
H795 C782 0.961 . S
H796 C782 0.961 . S
H797 C783 0.958 . S
H798 C783 0.961 . S
H799 C783 0.960 . S
C800 C801 1.391 . S
C800 C802 1.394 . S
C800 H816 0.931 . S
C801 C800 1.391 . S
C801 C805 1.376 . S
C802 C800 1.394 . S
C802 C803 1.369 . S
C802 C806 1.531 . S
C803 C802 1.369 . S
C803 C804 1.410 . S
C803 C811 1.503 . S
C804 C803 1.410 . S
C804 C805 1.392 . S
C804 C807 1.511 . S
C805 C801 1.376 . S
C805 C804 1.392 . S
C805 H817 0.929 . S
C806 C802 1.531 . S
C806 H818 0.960 . S
C806 H819 0.962 . S
C806 H820 0.960 . S
C807 C804 1.511 . S
C807 H821 0.961 . S
C807 H822 0.961 . S
C807 H823 0.961 . S
C808 C809 1.370 . S
C808 C810 1.363 . S
C808 H824 0.931 . S
C809 C808 1.370 . S
C809 C813 1.408 . S
C810 C808 1.363 . S
C810 C811 1.370 . S
C810 C814 1.524 . S
C811 C803 1.503 . S
C811 C810 1.370 . S
C811 C812 1.403 . S
C812 C811 1.403 . S
C812 C813 1.404 . S
C812 C815 1.539 . S
C813 C809 1.408 . S
C813 C812 1.404 . S
C813 H825 0.930 . S
C814 C810 1.524 . S
C814 H826 0.956 . S
C814 H827 0.961 . S
C814 H828 0.961 . S
C815 C812 1.539 . S
C815 H829 0.958 . S
C815 H830 0.961 . S
C815 H831 0.960 . S
H816 C800 0.931 . S
H817 C805 0.929 . S
H818 C806 0.960 . S
H819 C806 0.962 . S
H820 C806 0.960 . S
H821 C807 0.961 . S
H822 C807 0.961 . S
H823 C807 0.961 . S
H824 C808 0.931 . S
H825 C813 0.930 . S
H826 C814 0.956 . S
H827 C814 0.961 . S
H828 C814 0.961 . S
H829 C815 0.958 . S
H830 C815 0.961 . S
H831 C815 0.960 . S
C832 C833 1.391 . S
C832 C834 1.394 . S
C832 H848 0.931 . S
C833 C832 1.391 . S
C833 C837 1.376 . S
C834 C832 1.394 . S
C834 C835 1.369 . S
C834 C838 1.531 . S
C835 C834 1.369 . S
C835 C836 1.410 . S
C835 C843 1.503 . S
C836 C835 1.410 . S
C836 C837 1.392 . S
C836 C839 1.511 . S
C837 C833 1.376 . S
C837 C836 1.392 . S
C837 H849 0.929 . S
C838 C834 1.531 . S
C838 H850 0.960 . S
C838 H851 0.962 . S
C838 H852 0.960 . S
C839 C836 1.511 . S
C839 H853 0.961 . S
C839 H854 0.961 . S
C839 H855 0.961 . S
C840 C841 1.370 . S
C840 C842 1.363 . S
C840 H856 0.931 . S
C841 C840 1.370 . S
C841 C845 1.408 . S
C842 C840 1.363 . S
C842 C843 1.370 . S
C842 C846 1.524 . S
C843 C835 1.503 . S
C843 C842 1.370 . S
C843 C844 1.403 . S
C844 C843 1.403 . S
C844 C845 1.404 . S
C844 C847 1.539 . S
C845 C841 1.408 . S
C845 C844 1.404 . S
C845 H857 0.930 . S
C846 C842 1.524 . S
C846 H858 0.956 . S
C846 H859 0.961 . S
C846 H860 0.961 . S
C847 C844 1.539 . S
C847 H861 0.958 . S
C847 H862 0.961 . S
C847 H863 0.960 . S
H848 C832 0.931 . S
H849 C837 0.929 . S
H850 C838 0.960 . S
H851 C838 0.962 . S
H852 C838 0.960 . S
H853 C839 0.961 . S
H854 C839 0.961 . S
H855 C839 0.961 . S
H856 C840 0.931 . S
H857 C845 0.930 . S
H858 C846 0.956 . S
H859 C846 0.961 . S
H860 C846 0.961 . S
H861 C847 0.958 . S
H862 C847 0.961 . S
H863 C847 0.960 . S
C864 C865 1.391 . S
C864 C866 1.394 . S
C864 H880 0.931 . S
C865 C864 1.391 . S
C865 C869 1.376 . S
C866 C864 1.394 . S
C866 C867 1.369 . S
C866 C870 1.531 . S
C867 C866 1.369 . S
C867 C868 1.410 . S
C867 C875 1.503 . S
C868 C867 1.410 . S
C868 C869 1.392 . S
C868 C871 1.511 . S
C869 C865 1.376 . S
C869 C868 1.392 . S
C869 H881 0.929 . S
C870 C866 1.531 . S
C870 H882 0.960 . S
C870 H883 0.962 . S
C870 H884 0.960 . S
C871 C868 1.511 . S
C871 H885 0.961 . S
C871 H886 0.961 . S
C871 H887 0.961 . S
C872 C873 1.370 . S
C872 C874 1.363 . S
C872 H888 0.931 . S
C873 C872 1.370 . S
C873 C877 1.408 . S
C874 C872 1.363 . S
C874 C875 1.370 . S
C874 C878 1.524 . S
C875 C867 1.503 . S
C875 C874 1.370 . S
C875 C876 1.403 . S
C876 C875 1.403 . S
C876 C877 1.404 . S
C876 C879 1.539 . S
C877 C873 1.408 . S
C877 C876 1.404 . S
C877 H889 0.930 . S
C878 C874 1.524 . S
C878 H890 0.956 . S
C878 H891 0.961 . S
C878 H892 0.961 . S
C879 C876 1.539 . S
C879 H893 0.958 . S
C879 H894 0.961 . S
C879 H895 0.960 . S
H880 C864 0.931 . S
H881 C869 0.929 . S
H882 C870 0.960 . S
H883 C870 0.962 . S
H884 C870 0.960 . S
H885 C871 0.961 . S
H886 C871 0.961 . S
H887 C871 0.961 . S
H888 C872 0.931 . S
H889 C877 0.930 . S
H890 C878 0.956 . S
H891 C878 0.961 . S
H892 C878 0.961 . S
H893 C879 0.958 . S
H894 C879 0.961 . S
H895 C879 0.960 . S
C896 C897 1.391 . S
C896 C898 1.394 . S
C896 H912 0.931 . S
C897 C896 1.391 . S
C897 C901 1.376 . S
C898 C896 1.394 . S
C898 C899 1.369 . S
C898 C902 1.531 . S
C899 C898 1.369 . S
C899 C900 1.410 . S
C899 C907 1.503 . S
C900 C899 1.410 . S
C900 C901 1.392 . S
C900 C903 1.511 . S
C901 C897 1.376 . S
C901 C900 1.392 . S
C901 H913 0.929 . S
C902 C898 1.531 . S
C902 H914 0.960 . S
C902 H915 0.962 . S
C902 H916 0.960 . S
C903 C900 1.511 . S
C903 H917 0.961 . S
C903 H918 0.961 . S
C903 H919 0.961 . S
C904 C905 1.370 . S
C904 C906 1.363 . S
C904 H920 0.931 . S
C905 C904 1.370 . S
C905 C909 1.408 . S
C906 C904 1.363 . S
C906 C907 1.370 . S
C906 C910 1.524 . S
C907 C899 1.503 . S
C907 C906 1.370 . S
C907 C908 1.403 . S
C908 C907 1.403 . S
C908 C909 1.404 . S
C908 C911 1.539 . S
C909 C905 1.408 . S
C909 C908 1.404 . S
C909 H921 0.930 . S
C910 C906 1.524 . S
C910 H922 0.956 . S
C910 H923 0.961 . S
C910 H924 0.961 . S
C911 C908 1.539 . S
C911 H925 0.958 . S
C911 H926 0.961 . S
C911 H927 0.960 . S
H912 C896 0.931 . S
H913 C901 0.929 . S
H914 C902 0.960 . S
H915 C902 0.962 . S
H916 C902 0.960 . S
H917 C903 0.961 . S
H918 C903 0.961 . S
H919 C903 0.961 . S
H920 C904 0.931 . S
H921 C909 0.930 . S
H922 C910 0.956 . S
H923 C910 0.961 . S
H924 C910 0.961 . S
H925 C911 0.958 . S
H926 C911 0.961 . S
H927 C911 0.960 . S
C928 C929 1.391 . S
C928 C930 1.394 . S
C928 H944 0.931 . S
C929 C928 1.391 . S
C929 C933 1.376 . S
C930 C928 1.394 . S
C930 C931 1.369 . S
C930 C934 1.531 . S
C931 C930 1.369 . S
C931 C932 1.410 . S
C931 C939 1.503 . S
C932 C931 1.410 . S
C932 C933 1.392 . S
C932 C935 1.511 . S
C933 C929 1.376 . S
C933 C932 1.392 . S
C933 H945 0.929 . S
C934 C930 1.531 . S
C934 H946 0.960 . S
C934 H947 0.962 . S
C934 H948 0.960 . S
C935 C932 1.511 . S
C935 H949 0.961 . S
C935 H950 0.961 . S
C935 H951 0.961 . S
C936 C937 1.370 . S
C936 C938 1.363 . S
C936 H952 0.931 . S
C937 C936 1.370 . S
C937 C941 1.408 . S
C938 C936 1.363 . S
C938 C939 1.370 . S
C938 C942 1.524 . S
C939 C931 1.503 . S
C939 C938 1.370 . S
C939 C940 1.403 . S
C940 C939 1.403 . S
C940 C941 1.404 . S
C940 C943 1.539 . S
C941 C937 1.408 . S
C941 C940 1.404 . S
C941 H953 0.930 . S
C942 C938 1.524 . S
C942 H954 0.956 . S
C942 H955 0.961 . S
C942 H956 0.961 . S
C943 C940 1.539 . S
C943 H957 0.958 . S
C943 H958 0.961 . S
C943 H959 0.960 . S
H944 C928 0.931 . S
H945 C933 0.929 . S
H946 C934 0.960 . S
H947 C934 0.962 . S
H948 C934 0.960 . S
H949 C935 0.961 . S
H950 C935 0.961 . S
H951 C935 0.961 . S
H952 C936 0.931 . S
H953 C941 0.930 . S
H954 C942 0.956 . S
H955 C942 0.961 . S
H956 C942 0.961 . S
H957 C943 0.958 . S
H958 C943 0.961 . S
H959 C943 0.960 . S
C960 C961 1.391 . S
C960 C962 1.394 . S
C960 H976 0.931 . S
C961 C960 1.391 . S
C961 C965 1.376 . S
C962 C960 1.394 . S
C962 C963 1.369 . S
C962 C966 1.531 . S
C963 C962 1.369 . S
C963 C964 1.410 . S
C963 C971 1.503 1_554 S
C964 C963 1.410 . S
C964 C965 1.392 . S
C964 C967 1.511 . S
C965 C961 1.376 . S
C965 C964 1.392 . S
C965 H977 0.929 . S
C966 C962 1.531 . S
C966 H978 0.960 1_554 S
C966 H979 0.962 . S
C966 H980 0.960 . S
C967 C964 1.511 . S
C967 H981 0.961 . S
C967 H982 0.961 1_554 S
C967 H983 0.961 . S
C968 C969 1.370 . S
C968 C970 1.363 . S
C968 H984 0.931 . S
C969 C968 1.370 . S
C969 C973 1.408 . S
C970 C968 1.363 . S
C970 C971 1.370 . S
C970 C974 1.524 . S
C971 C963 1.503 1_556 S
C971 C970 1.370 . S
C971 C972 1.403 . S
C972 C971 1.403 . S
C972 C973 1.404 . S
C972 C975 1.539 . S
C973 C969 1.408 . S
C973 C972 1.404 . S
C973 H985 0.930 . S
C974 C970 1.524 . S
C974 H986 0.956 . S
C974 H987 0.961 1_556 S
C974 H988 0.961 . S
C975 C972 1.539 . S
C975 H989 0.958 . S
C975 H990 0.961 . S
C975 H991 0.971 . S
H976 C960 0.931 . S
H977 C965 0.929 . S
H978 C966 0.960 1_556 S
H979 C966 0.962 . S
H980 C966 0.960 . S
H981 C967 0.961 . S
H982 C967 0.961 1_556 S
H983 C967 0.961 . S
H984 C968 0.931 . S
H985 C973 0.930 . S
H986 C974 0.956 . S
H987 C974 0.961 1_554 S
H988 C974 0.961 . S
H989 C975 0.958 . S
H990 C975 0.961 . S
H991 C975 0.971 . S
C992 C993 1.391 . S
C992 C994 1.394 . S
C992 H1008 0.931 . S
C993 C992 1.391 . S
C993 C997 1.376 . S
C994 C992 1.394 . S
C994 C995 1.369 . S
C994 C998 1.531 . S
C995 C994 1.369 . S
C995 C996 1.410 . S
C995 C1003 1.503 1_556 S
C996 C995 1.410 . S
C996 C997 1.392 . S
C996 C999 1.511 . S
C997 C993 1.376 . S
C997 C996 1.392 . S
C997 H1009 0.929 . S
C998 C994 1.531 . S
C998 H1010 0.960 1_556 S
C998 H1011 0.962 . S
C998 H1012 0.960 . S
C999 C996 1.511 . S
C999 H1013 0.961 . S
C999 H1014 0.961 1_556 S
C999 H1015 0.961 . S
C1000 C1001 1.370 . S
C1000 C1002 1.363 . S
C1000 H1016 0.931 . S
C1001 C1000 1.370 . S
C1001 C1005 1.408 . S
C1002 C1000 1.363 . S
C1002 C1003 1.370 . S
C1002 C1006 1.524 . S
C1003 C995 1.503 1_554 S
C1003 C1002 1.370 . S
C1003 C1004 1.403 . S
C1004 C1003 1.403 . S
C1004 C1005 1.404 . S
C1004 C1007 1.539 . S
C1005 C1001 1.408 . S
C1005 C1004 1.404 . S
C1005 H1017 0.930 . S
C1006 C1002 1.524 . S
C1006 H1018 0.956 . S
C1006 H1019 0.961 1_554 S
C1006 H1020 0.961 . S
C1007 C1004 1.539 . S
C1007 H1021 0.958 . S
C1007 H1022 0.961 . S
C1007 H1023 0.971 . S
H1008 C992 0.931 . S
H1009 C997 0.929 . S
H1010 C998 0.960 1_554 S
H1011 C998 0.962 . S
H1012 C998 0.960 . S
H1013 C999 0.961 . S
H1014 C999 0.961 1_554 S
H1015 C999 0.961 . S
H1016 C1000 0.931 . S
H1017 C1005 0.930 . S
H1018 C1006 0.956 . S
H1019 C1006 0.961 1_556 S
H1020 C1006 0.961 . S
H1021 C1007 0.958 . S
H1022 C1007 0.961 . S
H1023 C1007 0.971 . S
C1024 C1025 1.391 . S
C1024 C1026 1.394 . S
C1024 H1040 0.931 . S
C1025 C1024 1.391 . S
C1025 C1029 1.376 . S
C1026 C1024 1.394 . S
C1026 C1027 1.369 . S
C1026 C1030 1.531 . S
C1027 C1026 1.369 . S
C1027 C1028 1.410 . S
C1027 C1035 1.503 1_556 S
C1028 C1027 1.410 . S
C1028 C1029 1.392 . S
C1028 C1031 1.511 . S
C1029 C1025 1.376 . S
C1029 C1028 1.392 . S
C1029 H1041 0.929 . S
C1030 C1026 1.531 . S
C1030 H1042 0.960 1_556 S
C1030 H1043 0.962 . S
C1030 H1044 0.960 . S
C1031 C1028 1.511 . S
C1031 H1045 0.961 . S
C1031 H1046 0.961 1_556 S
C1031 H1047 0.961 . S
C1032 C1033 1.370 . S
C1032 C1034 1.363 . S
C1032 H1048 0.931 . S
C1033 C1032 1.370 . S
C1033 C1037 1.408 . S
C1034 C1032 1.363 . S
C1034 C1035 1.370 . S
C1034 C1038 1.524 . S
C1035 C1027 1.503 1_554 S
C1035 C1034 1.370 . S
C1035 C1036 1.403 . S
C1036 C1035 1.403 . S
C1036 C1037 1.404 . S
C1036 C1039 1.539 . S
C1037 C1033 1.408 . S
C1037 C1036 1.404 . S
C1037 H1049 0.930 . S
C1038 C1034 1.524 . S
C1038 H1050 0.956 . S
C1038 H1051 0.961 1_554 S
C1038 H1052 0.961 . S
C1039 C1036 1.539 . S
C1039 H1053 0.958 . S
C1039 H1054 0.961 . S
C1039 H1055 0.971 . S
H1040 C1024 0.931 . S
H1041 C1029 0.929 . S
H1042 C1030 0.960 1_554 S
H1043 C1030 0.962 . S
H1044 C1030 0.960 . S
H1045 C1031 0.961 . S
H1046 C1031 0.961 1_554 S
H1047 C1031 0.961 . S
H1048 C1032 0.931 . S
H1049 C1037 0.930 . S
H1050 C1038 0.956 . S
H1051 C1038 0.961 1_556 S
H1052 C1038 0.961 . S
H1053 C1039 0.958 . S
H1054 C1039 0.961 . S
H1055 C1039 0.971 . S
C1056 C1057 1.391 . S
C1056 C1058 1.394 . S
C1056 H1072 0.931 . S
C1057 C1056 1.391 . S
C1057 C1061 1.376 . S
C1058 C1056 1.394 . S
C1058 C1059 1.369 . S
C1058 C1062 1.531 . S
C1059 C1058 1.369 . S
C1059 C1060 1.410 . S
C1059 C1067 1.503 1_556 S
C1060 C1059 1.410 . S
C1060 C1061 1.392 . S
C1060 C1063 1.511 . S
C1061 C1057 1.376 . S
C1061 C1060 1.392 . S
C1061 H1073 0.929 . S
C1062 C1058 1.531 . S
C1062 H1074 0.960 1_556 S
C1062 H1075 0.962 . S
C1062 H1076 0.960 . S
C1063 C1060 1.511 . S
C1063 H1077 0.961 . S
C1063 H1078 0.961 1_556 S
C1063 H1079 0.961 . S
C1064 C1065 1.370 . S
C1064 C1066 1.363 . S
C1064 H1080 0.931 . S
C1065 C1064 1.370 . S
C1065 C1069 1.408 . S
C1066 C1064 1.363 . S
C1066 C1067 1.370 . S
C1066 C1070 1.524 . S
C1067 C1059 1.503 1_554 S
C1067 C1066 1.370 . S
C1067 C1068 1.403 . S
C1068 C1067 1.403 . S
C1068 C1069 1.404 . S
C1068 C1071 1.539 . S
C1069 C1065 1.408 . S
C1069 C1068 1.404 . S
C1069 H1081 0.930 . S
C1070 C1066 1.524 . S
C1070 H1082 0.956 . S
C1070 H1083 0.961 1_554 S
C1070 H1084 0.961 . S
C1071 C1068 1.539 . S
C1071 H1085 0.958 . S
C1071 H1086 0.961 . S
C1071 H1087 0.971 . S
H1072 C1056 0.931 . S
H1073 C1061 0.929 . S
H1074 C1062 0.960 1_554 S
H1075 C1062 0.962 . S
H1076 C1062 0.960 . S
H1077 C1063 0.961 . S
H1078 C1063 0.961 1_554 S
H1079 C1063 0.961 . S
H1080 C1064 0.931 . S
H1081 C1069 0.930 . S
H1082 C1070 0.956 . S
H1083 C1070 0.961 1_556 S
H1084 C1070 0.961 . S
H1085 C1071 0.958 . S
H1086 C1071 0.961 . S
H1087 C1071 0.971 . S
C1088 C1089 1.391 . S
C1088 C1090 1.394 . S
C1088 H1104 0.931 . S
C1089 C1088 1.391 . S
C1089 C1093 1.376 . S
C1090 C1088 1.394 . S
C1090 C1091 1.369 . S
C1090 C1094 1.531 . S
C1091 C1090 1.369 . S
C1091 C1092 1.410 . S
C1091 C1099 1.503 . S
C1092 C1091 1.410 . S
C1092 C1093 1.392 . S
C1092 C1095 1.511 . S
C1093 C1089 1.376 . S
C1093 C1092 1.392 . S
C1093 H1105 0.929 . S
C1094 C1090 1.531 . S
C1094 H1106 0.960 . S
C1094 H1107 0.962 . S
C1094 H1108 0.960 . S
C1095 C1092 1.511 . S
C1095 H1109 0.961 . S
C1095 H1110 0.961 . S
C1095 H1111 0.961 . S
C1096 C1097 1.370 . S
C1096 C1098 1.363 . S
C1096 H1112 0.931 . S
C1097 C1096 1.370 . S
C1097 C1101 1.408 . S
C1098 C1096 1.363 . S
C1098 C1099 1.370 . S
C1098 C1102 1.524 . S
C1099 C1091 1.503 . S
C1099 C1098 1.370 . S
C1099 C1100 1.403 . S
C1100 C1099 1.403 . S
C1100 C1101 1.404 . S
C1100 C1103 1.539 . S
C1101 C1097 1.408 . S
C1101 C1100 1.404 . S
C1101 H1113 0.930 . S
C1102 C1098 1.524 . S
C1102 H1114 0.956 . S
C1102 H1115 0.961 . S
C1102 H1116 0.961 . S
C1103 C1100 1.539 . S
C1103 H1117 0.958 . S
C1103 H1118 0.961 . S
C1103 H1119 0.960 . S
H1104 C1088 0.931 . S
H1105 C1093 0.929 . S
H1106 C1094 0.960 . S
H1107 C1094 0.962 . S
H1108 C1094 0.960 . S
H1109 C1095 0.961 . S
H1110 C1095 0.961 . S
H1111 C1095 0.961 . S
H1112 C1096 0.931 . S
H1113 C1101 0.930 . S
H1114 C1102 0.956 . S
H1115 C1102 0.961 . S
H1116 C1102 0.961 . S
H1117 C1103 0.958 . S
H1118 C1103 0.961 . S
H1119 C1103 0.960 . S
C1120 C1121 1.391 . S
C1120 C1122 1.394 . S
C1120 H1136 0.931 . S
C1121 C1120 1.391 . S
C1121 C1125 1.376 . S
C1122 C1120 1.394 . S
C1122 C1123 1.369 . S
C1122 C1126 1.531 . S
C1123 C1122 1.369 . S
C1123 C1124 1.410 . S
C1123 C1131 1.503 . S
C1124 C1123 1.410 . S
C1124 C1125 1.392 . S
C1124 C1127 1.511 . S
C1125 C1121 1.376 . S
C1125 C1124 1.392 . S
C1125 H1137 0.929 . S
C1126 C1122 1.531 . S
C1126 H1138 0.960 . S
C1126 H1139 0.962 . S
C1126 H1140 0.960 . S
C1127 C1124 1.511 . S
C1127 H1141 0.961 . S
C1127 H1142 0.961 . S
C1127 H1143 0.961 . S
C1128 C1129 1.370 . S
C1128 C1130 1.363 . S
C1128 H1144 0.931 . S
C1129 C1128 1.370 . S
C1129 C1133 1.408 . S
C1130 C1128 1.363 . S
C1130 C1131 1.370 . S
C1130 C1134 1.524 . S
C1131 C1123 1.503 . S
C1131 C1130 1.370 . S
C1131 C1132 1.403 . S
C1132 C1131 1.403 . S
C1132 C1133 1.404 . S
C1132 C1135 1.539 . S
C1133 C1129 1.408 . S
C1133 C1132 1.404 . S
C1133 H1145 0.930 . S
C1134 C1130 1.524 . S
C1134 H1146 0.956 . S
C1134 H1147 0.961 . S
C1134 H1148 0.961 . S
C1135 C1132 1.539 . S
C1135 H1149 0.958 . S
C1135 H1150 0.961 . S
C1135 H1151 0.960 . S
H1136 C1120 0.931 . S
H1137 C1125 0.929 . S
H1138 C1126 0.960 . S
H1139 C1126 0.962 . S
H1140 C1126 0.960 . S
H1141 C1127 0.961 . S
H1142 C1127 0.961 . S
H1143 C1127 0.961 . S
H1144 C1128 0.931 . S
H1145 C1133 0.930 . S
H1146 C1134 0.956 . S
H1147 C1134 0.961 . S
H1148 C1134 0.961 . S
H1149 C1135 0.958 . S
H1150 C1135 0.961 . S
H1151 C1135 0.960 . S
C1152 C1153 1.391 . S
C1152 C1154 1.394 . S
C1152 H1168 0.931 . S
C1153 C1152 1.391 . S
C1153 C1157 1.376 . S
C1154 C1152 1.394 . S
C1154 C1155 1.369 . S
C1154 C1158 1.531 . S
C1155 C1154 1.369 . S
C1155 C1156 1.410 . S
C1155 C1163 1.503 . S
C1156 C1155 1.410 . S
C1156 C1157 1.392 . S
C1156 C1159 1.511 . S
C1157 C1153 1.376 . S
C1157 C1156 1.392 . S
C1157 H1169 0.929 . S
C1158 C1154 1.531 . S
C1158 H1170 0.960 . S
C1158 H1171 0.962 . S
C1158 H1172 0.960 . S
C1159 C1156 1.511 . S
C1159 H1173 0.961 . S
C1159 H1174 0.961 . S
C1159 H1175 0.961 . S
C1160 C1161 1.370 . S
C1160 C1162 1.363 . S
C1160 H1176 0.931 . S
C1161 C1160 1.370 . S
C1161 C1165 1.408 . S
C1162 C1160 1.363 . S
C1162 C1163 1.370 . S
C1162 C1166 1.524 . S
C1163 C1155 1.503 . S
C1163 C1162 1.370 . S
C1163 C1164 1.403 . S
C1164 C1163 1.403 . S
C1164 C1165 1.404 . S
C1164 C1167 1.539 . S
C1165 C1161 1.408 . S
C1165 C1164 1.404 . S
C1165 H1177 0.930 . S
C1166 C1162 1.524 . S
C1166 H1178 0.956 . S
C1166 H1179 0.961 . S
C1166 H1180 0.961 . S
C1167 C1164 1.539 . S
C1167 H1181 0.958 . S
C1167 H1182 0.961 . S
C1167 H1183 0.960 . S
H1168 C1152 0.931 . S
H1169 C1157 0.929 . S
H1170 C1158 0.960 . S
H1171 C1158 0.962 . S
H1172 C1158 0.960 . S
H1173 C1159 0.961 . S
H1174 C1159 0.961 . S
H1175 C1159 0.961 . S
H1176 C1160 0.931 . S
H1177 C1165 0.930 . S
H1178 C1166 0.956 . S
H1179 C1166 0.961 . S
H1180 C1166 0.961 . S
H1181 C1167 0.958 . S
H1182 C1167 0.961 . S
H1183 C1167 0.960 . S
C1184 C1185 1.391 . S
C1184 C1186 1.394 . S
C1184 H1200 0.931 . S
C1185 C1184 1.391 . S
C1185 C1189 1.376 . S
C1186 C1184 1.394 . S
C1186 C1187 1.369 . S
C1186 C1190 1.531 . S
C1187 C1186 1.369 . S
C1187 C1188 1.410 . S
C1187 C1195 1.503 . S
C1188 C1187 1.410 . S
C1188 C1189 1.392 . S
C1188 C1191 1.511 . S
C1189 C1185 1.376 . S
C1189 C1188 1.392 . S
C1189 H1201 0.929 . S
C1190 C1186 1.531 . S
C1190 H1202 0.960 . S
C1190 H1203 0.962 . S
C1190 H1204 0.960 . S
C1191 C1188 1.511 . S
C1191 H1205 0.961 . S
C1191 H1206 0.961 . S
C1191 H1207 0.961 . S
C1192 C1193 1.370 . S
C1192 C1194 1.363 . S
C1192 H1208 0.931 . S
C1193 C1192 1.370 . S
C1193 C1197 1.408 . S
C1194 C1192 1.363 . S
C1194 C1195 1.370 . S
C1194 C1198 1.524 . S
C1195 C1187 1.503 . S
C1195 C1194 1.370 . S
C1195 C1196 1.403 . S
C1196 C1195 1.403 . S
C1196 C1197 1.404 . S
C1196 C1199 1.539 . S
C1197 C1193 1.408 . S
C1197 C1196 1.404 . S
C1197 H1209 0.930 . S
C1198 C1194 1.524 . S
C1198 H1210 0.956 . S
C1198 H1211 0.961 . S
C1198 H1212 0.961 . S
C1199 C1196 1.539 . S
C1199 H1213 0.958 . S
C1199 H1214 0.961 . S
C1199 H1215 0.960 . S
H1200 C1184 0.931 . S
H1201 C1189 0.929 . S
H1202 C1190 0.960 . S
H1203 C1190 0.962 . S
H1204 C1190 0.960 . S
H1205 C1191 0.961 . S
H1206 C1191 0.961 . S
H1207 C1191 0.961 . S
H1208 C1192 0.931 . S
H1209 C1197 0.930 . S
H1210 C1198 0.956 . S
H1211 C1198 0.961 . S
H1212 C1198 0.961 . S
H1213 C1199 0.958 . S
H1214 C1199 0.961 . S
H1215 C1199 0.960 . S
C1216 C1217 1.391 . S
C1216 C1218 1.394 . S
C1216 H1232 0.931 . S
C1217 C1216 1.391 . S
C1217 C1221 1.376 . S
C1218 C1216 1.394 . S
C1218 C1219 1.369 . S
C1218 C1222 1.531 . S
C1219 C1218 1.369 . S
C1219 C1220 1.410 . S
C1219 C1227 1.503 . S
C1220 C1219 1.410 . S
C1220 C1221 1.392 . S
C1220 C1223 1.511 . S
C1221 C1217 1.376 . S
C1221 C1220 1.392 . S
C1221 H1233 0.929 . S
C1222 C1218 1.531 . S
C1222 H1234 0.960 . S
C1222 H1235 0.962 . S
C1222 H1236 0.960 . S
C1223 C1220 1.511 . S
C1223 H1237 0.961 . S
C1223 H1238 0.961 . S
C1223 H1239 0.961 . S
C1224 C1225 1.370 . S
C1224 C1226 1.363 . S
C1224 H1240 0.931 . S
C1225 C1224 1.370 . S
C1225 C1229 1.408 . S
C1226 C1224 1.363 . S
C1226 C1227 1.370 . S
C1226 C1230 1.524 . S
C1227 C1219 1.503 . S
C1227 C1226 1.370 . S
C1227 C1228 1.403 . S
C1228 C1227 1.403 . S
C1228 C1229 1.404 . S
C1228 C1231 1.539 . S
C1229 C1225 1.408 . S
C1229 C1228 1.404 . S
C1229 H1241 0.930 . S
C1230 C1226 1.524 . S
C1230 H1242 0.956 . S
C1230 H1243 0.961 . S
C1230 H1244 0.961 . S
C1231 C1228 1.539 . S
C1231 H1245 0.958 . S
C1231 H1246 0.961 . S
C1231 H1247 0.960 . S
H1232 C1216 0.931 . S
H1233 C1221 0.929 . S
H1234 C1222 0.960 . S
H1235 C1222 0.962 . S
H1236 C1222 0.960 . S
H1237 C1223 0.961 . S
H1238 C1223 0.961 . S
H1239 C1223 0.961 . S
H1240 C1224 0.931 . S
H1241 C1229 0.930 . S
H1242 C1230 0.956 . S
H1243 C1230 0.961 . S
H1244 C1230 0.961 . S
H1245 C1231 0.958 . S
H1246 C1231 0.961 . S
H1247 C1231 0.960 . S
C1248 C1249 1.391 . S
C1248 C1250 1.394 . S
C1248 H1264 0.931 . S
C1249 C1248 1.391 . S
C1249 C1253 1.376 . S
C1250 C1248 1.394 . S
C1250 C1251 1.369 . S
C1250 C1254 1.531 . S
C1251 C1250 1.369 . S
C1251 C1252 1.410 . S
C1251 C1259 1.503 . S
C1252 C1251 1.410 . S
C1252 C1253 1.392 . S
C1252 C1255 1.511 . S
C1253 C1249 1.376 . S
C1253 C1252 1.392 . S
C1253 H1265 0.929 . S
C1254 C1250 1.531 . S
C1254 H1266 0.960 . S
C1254 H1267 0.962 . S
C1254 H1268 0.960 . S
C1255 C1252 1.511 . S
C1255 H1269 0.961 . S
C1255 H1270 0.961 . S
C1255 H1271 0.961 . S
C1256 C1257 1.370 . S
C1256 C1258 1.363 . S
C1256 H1272 0.931 . S
C1257 C1256 1.370 . S
C1257 C1261 1.408 . S
C1258 C1256 1.363 . S
C1258 C1259 1.370 . S
C1258 C1262 1.524 . S
C1259 C1251 1.503 . S
C1259 C1258 1.370 . S
C1259 C1260 1.403 . S
C1260 C1259 1.403 . S
C1260 C1261 1.404 . S
C1260 C1263 1.539 . S
C1261 C1257 1.408 . S
C1261 C1260 1.404 . S
C1261 H1273 0.930 . S
C1262 C1258 1.524 . S
C1262 H1274 0.956 . S
C1262 H1275 0.961 . S
C1262 H1276 0.961 . S
C1263 C1260 1.539 . S
C1263 H1277 0.958 . S
C1263 H1278 0.961 . S
C1263 H1279 0.960 . S
H1264 C1248 0.931 . S
H1265 C1253 0.929 . S
H1266 C1254 0.960 . S
H1267 C1254 0.962 . S
H1268 C1254 0.960 . S
H1269 C1255 0.961 . S
H1270 C1255 0.961 . S
H1271 C1255 0.961 . S
H1272 C1256 0.931 . S
H1273 C1261 0.930 . S
H1274 C1262 0.956 . S
H1275 C1262 0.961 . S
H1276 C1262 0.961 . S
H1277 C1263 0.958 . S
H1278 C1263 0.961 . S
H1279 C1263 0.960 . S
C1280 C1281 1.391 . S
C1280 C1282 1.394 . S
C1280 H1296 0.931 . S
C1281 C1280 1.391 . S
C1281 C1285 1.376 . S
C1282 C1280 1.394 . S
C1282 C1283 1.369 . S
C1282 C1286 1.531 . S
C1283 C1282 1.369 . S
C1283 C1284 1.410 . S
C1283 C1291 1.503 . S
C1284 C1283 1.410 . S
C1284 C1285 1.392 . S
C1284 C1287 1.511 . S
C1285 C1281 1.376 . S
C1285 C1284 1.392 . S
C1285 H1297 0.929 . S
C1286 C1282 1.531 . S
C1286 H1298 0.960 . S
C1286 H1299 0.962 . S
C1286 H1300 0.960 . S
C1287 C1284 1.511 . S
C1287 H1301 0.961 . S
C1287 H1302 0.961 . S
C1287 H1303 0.961 . S
C1288 C1289 1.370 . S
C1288 C1290 1.363 . S
C1288 H1304 0.931 . S
C1289 C1288 1.370 . S
C1289 C1293 1.408 . S
C1290 C1288 1.363 . S
C1290 C1291 1.370 . S
C1290 C1294 1.524 . S
C1291 C1283 1.503 . S
C1291 C1290 1.370 . S
C1291 C1292 1.403 . S
C1292 C1291 1.403 . S
C1292 C1293 1.404 . S
C1292 C1295 1.539 . S
C1293 C1289 1.408 . S
C1293 C1292 1.404 . S
C1293 H1305 0.930 . S
C1294 C1290 1.524 . S
C1294 H1306 0.956 . S
C1294 H1307 0.961 . S
C1294 H1308 0.961 . S
C1295 C1292 1.539 . S
C1295 H1309 0.958 . S
C1295 H1310 0.961 . S
C1295 H1311 0.960 . S
H1296 C1280 0.931 . S
H1297 C1285 0.929 . S
H1298 C1286 0.960 . S
H1299 C1286 0.962 . S
H1300 C1286 0.960 . S
H1301 C1287 0.961 . S
H1302 C1287 0.961 . S
H1303 C1287 0.961 . S
H1304 C1288 0.931 . S
H1305 C1293 0.930 . S
H1306 C1294 0.956 . S
H1307 C1294 0.961 . S
H1308 C1294 0.961 . S
H1309 C1295 0.958 . S
H1310 C1295 0.961 . S
H1311 C1295 0.960 . S
C1312 C1313 1.391 . S
C1312 C1314 1.394 . S
C1312 H1328 0.931 . S
C1313 C1312 1.391 . S
C1313 C1317 1.376 . S
C1314 C1312 1.394 . S
C1314 C1315 1.369 . S
C1314 C1318 1.531 . S
C1315 C1314 1.369 . S
C1315 C1316 1.410 . S
C1315 C1323 1.503 . S
C1316 C1315 1.410 . S
C1316 C1317 1.392 . S
C1316 C1319 1.511 . S
C1317 C1313 1.376 . S
C1317 C1316 1.392 . S
C1317 H1329 0.929 . S
C1318 C1314 1.531 . S
C1318 H1330 0.960 . S
C1318 H1331 0.962 . S
C1318 H1332 0.960 . S
C1319 C1316 1.511 . S
C1319 H1333 0.961 . S
C1319 H1334 0.961 . S
C1319 H1335 0.961 . S
C1320 C1321 1.370 . S
C1320 C1322 1.363 . S
C1320 H1336 0.931 . S
C1321 C1320 1.370 . S
C1321 C1325 1.408 . S
C1322 C1320 1.363 . S
C1322 C1323 1.370 . S
C1322 C1326 1.524 . S
C1323 C1315 1.503 . S
C1323 C1322 1.370 . S
C1323 C1324 1.403 . S
C1324 C1323 1.403 . S
C1324 C1325 1.404 . S
C1324 C1327 1.539 . S
C1325 C1321 1.408 . S
C1325 C1324 1.404 . S
C1325 H1337 0.930 . S
C1326 C1322 1.524 . S
C1326 H1338 0.956 . S
C1326 H1339 0.961 . S
C1326 H1340 0.961 . S
C1327 C1324 1.539 . S
C1327 H1341 0.958 . S
C1327 H1342 0.961 . S
C1327 H1343 0.960 . S
H1328 C1312 0.931 . S
H1329 C1317 0.929 . S
H1330 C1318 0.960 . S
H1331 C1318 0.962 . S
H1332 C1318 0.960 . S
H1333 C1319 0.961 . S
H1334 C1319 0.961 . S
H1335 C1319 0.961 . S
H1336 C1320 0.931 . S
H1337 C1325 0.930 . S
H1338 C1326 0.956 . S
H1339 C1326 0.961 . S
H1340 C1326 0.961 . S
H1341 C1327 0.958 . S
H1342 C1327 0.961 . S
H1343 C1327 0.960 . S
C1344 C1345 1.391 . S
C1344 C1346 1.394 . S
C1344 H1360 0.931 . S
C1345 C1344 1.391 . S
C1345 C1349 1.376 . S
C1346 C1344 1.394 . S
C1346 C1347 1.369 . S
C1346 C1350 1.531 . S
C1347 C1346 1.369 . S
C1347 C1348 1.410 . S
C1347 C1355 1.503 1_556 S
C1348 C1347 1.410 . S
C1348 C1349 1.392 . S
C1348 C1351 1.511 . S
C1349 C1345 1.376 . S
C1349 C1348 1.392 . S
C1349 H1361 0.929 . S
C1350 C1346 1.531 . S
C1350 H1362 0.960 1_556 S
C1350 H1363 0.962 . S
C1350 H1364 0.960 . S
C1351 C1348 1.511 . S
C1351 H1365 0.961 . S
C1351 H1366 0.961 1_556 S
C1351 H1367 0.961 . S
C1352 C1353 1.370 . S
C1352 C1354 1.363 . S
C1352 H1368 0.931 . S
C1353 C1352 1.370 . S
C1353 C1357 1.408 . S
C1354 C1352 1.363 . S
C1354 C1355 1.370 . S
C1354 C1358 1.524 . S
C1355 C1347 1.503 1_554 S
C1355 C1354 1.370 . S
C1355 C1356 1.403 . S
C1356 C1355 1.403 . S
C1356 C1357 1.404 . S
C1356 C1359 1.539 . S
C1357 C1353 1.408 . S
C1357 C1356 1.404 . S
C1357 H1369 0.930 . S
C1358 C1354 1.524 . S
C1358 H1370 0.956 . S
C1358 H1371 0.961 1_554 S
C1358 H1372 0.961 . S
C1359 C1356 1.539 . S
C1359 H1373 0.958 . S
C1359 H1374 0.961 . S
C1359 H1375 0.971 . S
H1360 C1344 0.931 . S
H1361 C1349 0.929 . S
H1362 C1350 0.960 1_554 S
H1363 C1350 0.962 . S
H1364 C1350 0.960 . S
H1365 C1351 0.961 . S
H1366 C1351 0.961 1_554 S
H1367 C1351 0.961 . S
H1368 C1352 0.931 . S
H1369 C1357 0.930 . S
H1370 C1358 0.956 . S
H1371 C1358 0.961 1_556 S
H1372 C1358 0.961 . S
H1373 C1359 0.958 . S
H1374 C1359 0.961 . S
H1375 C1359 0.971 . S
C1376 C1377 1.391 . S
C1376 C1378 1.394 . S
C1376 H1392 0.931 . S
C1377 C1376 1.391 . S
C1377 C1381 1.376 . S
C1378 C1376 1.394 . S
C1378 C1379 1.369 . S
C1378 C1382 1.531 . S
C1379 C1378 1.369 . S
C1379 C1380 1.410 . S
C1379 C1387 1.503 1_554 S
C1380 C1379 1.410 . S
C1380 C1381 1.392 . S
C1380 C1383 1.511 . S
C1381 C1377 1.376 . S
C1381 C1380 1.392 . S
C1381 H1393 0.929 . S
C1382 C1378 1.531 . S
C1382 H1394 0.960 1_554 S
C1382 H1395 0.962 . S
C1382 H1396 0.960 . S
C1383 C1380 1.511 . S
C1383 H1397 0.961 . S
C1383 H1398 0.961 1_554 S
C1383 H1399 0.961 . S
C1384 C1385 1.370 . S
C1384 C1386 1.363 . S
C1384 H1400 0.931 . S
C1385 C1384 1.370 . S
C1385 C1389 1.408 . S
C1386 C1384 1.363 . S
C1386 C1387 1.370 . S
C1386 C1390 1.524 . S
C1387 C1379 1.503 1_556 S
C1387 C1386 1.370 . S
C1387 C1388 1.403 . S
C1388 C1387 1.403 . S
C1388 C1389 1.404 . S
C1388 C1391 1.539 . S
C1389 C1385 1.408 . S
C1389 C1388 1.404 . S
C1389 H1401 0.930 . S
C1390 C1386 1.524 . S
C1390 H1402 0.956 . S
C1390 H1403 0.961 1_556 S
C1390 H1404 0.961 . S
C1391 C1388 1.539 . S
C1391 H1405 0.958 . S
C1391 H1406 0.961 . S
C1391 H1407 0.971 . S
H1392 C1376 0.931 . S
H1393 C1381 0.929 . S
H1394 C1382 0.960 1_556 S
H1395 C1382 0.962 . S
H1396 C1382 0.960 . S
H1397 C1383 0.961 . S
H1398 C1383 0.961 1_556 S
H1399 C1383 0.961 . S
H1400 C1384 0.931 . S
H1401 C1389 0.930 . S
H1402 C1390 0.956 . S
H1403 C1390 0.961 1_554 S
H1404 C1390 0.961 . S
H1405 C1391 0.958 . S
H1406 C1391 0.961 . S
H1407 C1391 0.971 . S
C1408 C1409 1.391 . S
C1408 C1410 1.394 . S
C1408 H1424 0.931 . S
C1409 C1408 1.391 . S
C1409 C1413 1.376 . S
C1410 C1408 1.394 . S
C1410 C1411 1.369 . S
C1410 C1414 1.531 . S
C1411 C1410 1.369 . S
C1411 C1412 1.410 . S
C1411 C1419 1.503 1_554 S
C1412 C1411 1.410 . S
C1412 C1413 1.392 . S
C1412 C1415 1.511 . S
C1413 C1409 1.376 . S
C1413 C1412 1.392 . S
C1413 H1425 0.929 . S
C1414 C1410 1.531 . S
C1414 H1426 0.960 1_554 S
C1414 H1427 0.962 . S
C1414 H1428 0.960 . S
C1415 C1412 1.511 . S
C1415 H1429 0.961 . S
C1415 H1430 0.961 1_554 S
C1415 H1431 0.961 . S
C1416 C1417 1.370 . S
C1416 C1418 1.363 . S
C1416 H1432 0.931 . S
C1417 C1416 1.370 . S
C1417 C1421 1.408 . S
C1418 C1416 1.363 . S
C1418 C1419 1.370 . S
C1418 C1422 1.524 . S
C1419 C1411 1.503 1_556 S
C1419 C1418 1.370 . S
C1419 C1420 1.403 . S
C1420 C1419 1.403 . S
C1420 C1421 1.404 . S
C1420 C1423 1.539 . S
C1421 C1417 1.408 . S
C1421 C1420 1.404 . S
C1421 H1433 0.930 . S
C1422 C1418 1.524 . S
C1422 H1434 0.956 . S
C1422 H1435 0.961 1_556 S
C1422 H1436 0.961 . S
C1423 C1420 1.539 . S
C1423 H1437 0.958 . S
C1423 H1438 0.961 . S
C1423 H1439 0.971 . S
H1424 C1408 0.931 . S
H1425 C1413 0.929 . S
H1426 C1414 0.960 1_556 S
H1427 C1414 0.962 . S
H1428 C1414 0.960 . S
H1429 C1415 0.961 . S
H1430 C1415 0.961 1_556 S
H1431 C1415 0.961 . S
H1432 C1416 0.931 . S
H1433 C1421 0.930 . S
H1434 C1422 0.956 . S
H1435 C1422 0.961 1_554 S
H1436 C1422 0.961 . S
H1437 C1423 0.958 . S
H1438 C1423 0.961 . S
H1439 C1423 0.971 . S
C1440 C1441 1.391 . S
C1440 C1442 1.394 . S
C1440 H1456 0.931 . S
C1441 C1440 1.391 . S
C1441 C1445 1.376 . S
C1442 C1440 1.394 . S
C1442 C1443 1.369 . S
C1442 C1446 1.531 . S
C1443 C1442 1.369 . S
C1443 C1444 1.410 . S
C1443 C1451 1.503 1_556 S
C1444 C1443 1.410 . S
C1444 C1445 1.392 . S
C1444 C1447 1.511 . S
C1445 C1441 1.376 . S
C1445 C1444 1.392 . S
C1445 H1457 0.929 . S
C1446 C1442 1.531 . S
C1446 H1458 0.960 1_556 S
C1446 H1459 0.962 . S
C1446 H1460 0.960 . S
C1447 C1444 1.511 . S
C1447 H1461 0.961 . S
C1447 H1462 0.961 1_556 S
C1447 H1463 0.961 . S
C1448 C1449 1.370 . S
C1448 C1450 1.363 . S
C1448 H1464 0.931 . S
C1449 C1448 1.370 . S
C1449 C1453 1.408 . S
C1450 C1448 1.363 . S
C1450 C1451 1.370 . S
C1450 C1454 1.524 . S
C1451 C1443 1.503 1_554 S
C1451 C1450 1.370 . S
C1451 C1452 1.403 . S
C1452 C1451 1.403 . S
C1452 C1453 1.404 . S
C1452 C1455 1.539 . S
C1453 C1449 1.408 . S
C1453 C1452 1.404 . S
C1453 H1465 0.930 . S
C1454 C1450 1.524 . S
C1454 H1466 0.956 . S
C1454 H1467 0.961 1_554 S
C1454 H1468 0.961 . S
C1455 C1452 1.539 . S
C1455 H1469 0.958 . S
C1455 H1470 0.961 . S
C1455 H1471 0.971 . S
H1456 C1440 0.931 . S
H1457 C1445 0.929 . S
H1458 C1446 0.960 1_554 S
H1459 C1446 0.962 . S
H1460 C1446 0.960 . S
H1461 C1447 0.961 . S
H1462 C1447 0.961 1_554 S
H1463 C1447 0.961 . S
H1464 C1448 0.931 . S
H1465 C1453 0.930 . S
H1466 C1454 0.956 . S
H1467 C1454 0.961 1_556 S
H1468 C1454 0.961 . S
H1469 C1455 0.958 . S
H1470 C1455 0.961 . S
H1471 C1455 0.971 . S
C1472 C1473 1.391 . S
C1472 C1474 1.394 . S
C1472 H1488 0.931 . S
C1473 C1472 1.391 . S
C1473 C1477 1.376 . S
C1474 C1472 1.394 . S
C1474 C1475 1.369 . S
C1474 C1478 1.531 1_545 S
C1475 C1474 1.369 . S
C1475 C1476 1.410 . S
C1475 C1483 1.503 1_545 S
C1476 C1475 1.410 . S
C1476 C1477 1.392 . S
C1476 C1479 1.511 . S
C1477 C1473 1.376 . S
C1477 C1476 1.392 . S
C1477 H1489 0.929 . S
C1478 C1474 1.531 1_565 S
C1478 H1490 0.960 . S
C1478 H1491 0.962 . S
C1478 H1492 0.960 . S
C1479 C1476 1.511 . S
C1479 H1493 0.961 . S
C1479 H1494 0.961 . S
C1479 H1495 0.961 . S
C1480 C1481 1.370 . S
C1480 C1482 1.363 . S
C1480 H1496 0.931 . S
C1481 C1480 1.370 . S
C1481 C1485 1.408 . S
C1482 C1480 1.363 . S
C1482 C1483 1.370 . S
C1482 C1486 1.524 1_565 S
C1483 C1475 1.503 1_565 S
C1483 C1482 1.370 . S
C1483 C1484 1.403 . S
C1484 C1483 1.403 . S
C1484 C1485 1.404 . S
C1484 C1487 1.539 . S
C1485 C1481 1.408 . S
C1485 C1484 1.404 . S
C1485 H1497 0.930 . S
C1486 C1482 1.524 1_545 S
C1486 H1498 0.956 . S
C1486 H1499 0.961 . S
C1486 H1500 0.961 . S
C1487 C1484 1.539 . S
C1487 H1501 0.958 . S
C1487 H1502 0.961 . S
C1487 H1503 0.960 . S
H1488 C1472 0.931 . S
H1489 C1477 0.929 . S
H1490 C1478 0.960 . S
H1491 C1478 0.962 . S
H1492 C1478 0.960 . S
H1493 C1479 0.961 . S
H1494 C1479 0.961 . S
H1495 C1479 0.961 . S
H1496 C1480 0.931 . S
H1497 C1485 0.930 . S
H1498 C1486 0.956 . S
H1499 C1486 0.961 . S
H1500 C1486 0.961 . S
H1501 C1487 0.958 . S
H1502 C1487 0.961 . S
H1503 C1487 0.960 . S
C1504 C1505 1.391 . S
C1504 C1506 1.394 . S
C1504 H1520 0.931 . S
C1505 C1504 1.391 . S
C1505 C1509 1.376 . S
C1506 C1504 1.394 . S
C1506 C1507 1.369 . S
C1506 C1510 1.531 . S
C1507 C1506 1.369 . S
C1507 C1508 1.410 . S
C1507 C1515 1.503 1_655 S
C1508 C1507 1.410 . S
C1508 C1509 1.392 . S
C1508 C1511 1.511 1_655 S
C1509 C1505 1.376 . S
C1509 C1508 1.392 . S
C1509 H1521 0.929 . S
C1510 C1506 1.531 . S
C1510 H1522 0.960 . S
C1510 H1523 0.962 . S
C1510 H1524 0.960 . S
C1511 C1508 1.511 1_455 S
C1511 H1525 0.961 . S
C1511 H1526 0.961 . S
C1511 H1527 0.961 . S
C1512 C1513 1.370 . S
C1512 C1514 1.363 . S
C1512 H1528 0.931 . S
C1513 C1512 1.370 . S
C1513 C1517 1.408 . S
C1514 C1512 1.363 . S
C1514 C1515 1.370 . S
C1514 C1518 1.524 1_455 S
C1515 C1507 1.503 1_455 S
C1515 C1514 1.370 . S
C1515 C1516 1.403 . S
C1516 C1515 1.403 . S
C1516 C1517 1.404 . S
C1516 C1519 1.539 . S
C1517 C1513 1.408 . S
C1517 C1516 1.404 . S
C1517 H1529 0.930 . S
C1518 C1514 1.524 1_655 S
C1518 H1530 0.956 . S
C1518 H1531 0.961 . S
C1518 H1532 0.961 1_655 S
C1519 C1516 1.539 . S
C1519 H1533 0.958 . S
C1519 H1534 0.961 . S
C1519 H1535 0.960 . S
H1520 C1504 0.931 . S
H1521 C1509 0.929 . S
H1522 C1510 0.960 . S
H1523 C1510 0.962 . S
H1524 C1510 0.960 . S
H1525 C1511 0.961 . S
H1526 C1511 0.961 . S
H1527 C1511 0.961 . S
H1528 C1512 0.931 . S
H1529 C1517 0.930 . S
H1530 C1518 0.956 . S
H1531 C1518 0.961 . S
H1532 C1518 0.961 1_455 S
H1533 C1519 0.958 . S
H1534 C1519 0.961 . S
H1535 C1519 0.960 . S
C1536 C1537 1.391 . S
C1536 C1538 1.394 . S
C1536 H1552 0.931 . S
C1537 C1536 1.391 . S
C1537 C1541 1.376 . S
C1538 C1536 1.394 . S
C1538 C1539 1.369 . S
C1538 C1542 1.531 1_545 S
C1539 C1538 1.369 . S
C1539 C1540 1.410 . S
C1539 C1547 1.503 1_545 S
C1540 C1539 1.410 . S
C1540 C1541 1.392 . S
C1540 C1543 1.511 . S
C1541 C1537 1.376 . S
C1541 C1540 1.392 . S
C1541 H1553 0.929 . S
C1542 C1538 1.531 1_565 S
C1542 H1554 0.960 . S
C1542 H1555 0.962 . S
C1542 H1556 0.960 . S
C1543 C1540 1.511 . S
C1543 H1557 0.961 . S
C1543 H1558 0.961 . S
C1543 H1559 0.961 . S
C1544 C1545 1.370 . S
C1544 C1546 1.363 . S
C1544 H1560 0.931 . S
C1545 C1544 1.370 . S
C1545 C1549 1.408 . S
C1546 C1544 1.363 . S
C1546 C1547 1.370 . S
C1546 C1550 1.524 . S
C1547 C1539 1.503 1_565 S
C1547 C1546 1.370 . S
C1547 C1548 1.403 . S
C1548 C1547 1.403 . S
C1548 C1549 1.404 . S
C1548 C1551 1.543 1_565 S
C1549 C1545 1.408 . S
C1549 C1548 1.404 . S
C1549 H1561 0.930 . S
C1550 C1546 1.524 . S
C1550 H1562 0.956 . S
C1550 H1563 0.961 . S
C1550 H1564 0.961 . S
C1551 C1548 1.543 1_545 S
C1551 H1565 0.960 1_545 S
C1551 H1566 0.962 1_545 S
C1551 H1567 0.954 . S
H1552 C1536 0.931 . S
H1553 C1541 0.929 . S
H1554 C1542 0.960 . S
H1555 C1542 0.962 . S
H1556 C1542 0.960 . S
H1557 C1543 0.961 . S
H1558 C1543 0.961 . S
H1559 C1543 0.961 . S
H1560 C1544 0.931 . S
H1561 C1549 0.930 . S
H1562 C1550 0.956 . S
H1563 C1550 0.961 . S
H1564 C1550 0.961 . S
H1565 C1551 0.960 1_565 S
H1566 C1551 0.962 1_565 S
H1567 C1551 0.954 . S
C1568 C1569 1.391 . S
C1568 C1570 1.394 . S
C1568 H1584 0.931 . S
C1569 C1568 1.391 . S
C1569 C1573 1.376 . S
C1570 C1568 1.394 . S
C1570 C1571 1.369 . S
C1570 C1574 1.539 . S
C1571 C1570 1.369 . S
C1571 C1572 1.410 . S
C1571 C1579 1.503 1_455 S
C1572 C1571 1.410 . S
C1572 C1573 1.392 . S
C1572 C1575 1.511 . S
C1573 C1569 1.376 . S
C1573 C1572 1.392 . S
C1573 H1585 0.929 . S
C1574 C1570 1.539 . S
C1574 H1586 0.955 1_455 S
C1574 H1587 0.953 1_455 S
C1574 H1588 0.967 . S
C1575 C1572 1.511 . S
C1575 H1589 0.961 . S
C1575 H1590 0.961 . S
C1575 H1591 0.961 . S
C1576 C1577 1.370 . S
C1576 C1578 1.363 . S
C1576 H1592 0.931 . S
C1577 C1576 1.370 . S
C1577 C1581 1.408 . S
C1578 C1576 1.363 . S
C1578 C1579 1.370 . S
C1578 C1582 1.524 . S
C1579 C1571 1.503 1_655 S
C1579 C1578 1.370 . S
C1579 C1580 1.403 . S
C1580 C1579 1.403 . S
C1580 C1581 1.404 . S
C1580 C1583 1.539 1_655 S
C1581 C1577 1.408 . S
C1581 C1580 1.404 . S
C1581 H1593 0.930 . S
C1582 C1578 1.524 . S
C1582 H1594 0.956 . S
C1582 H1595 0.961 . S
C1582 H1596 0.961 . S
C1583 C1580 1.539 1_455 S
C1583 H1597 0.958 . S
C1583 H1598 0.961 . S
C1583 H1599 0.960 . S
H1584 C1568 0.931 . S
H1585 C1573 0.929 . S
H1586 C1574 0.955 1_655 S
H1587 C1574 0.953 1_655 S
H1588 C1574 0.967 . S
H1589 C1575 0.961 . S
H1590 C1575 0.961 . S
H1591 C1575 0.961 . S
H1592 C1576 0.931 . S
H1593 C1581 0.930 . S
H1594 C1582 0.956 . S
H1595 C1582 0.961 . S
H1596 C1582 0.961 . S
H1597 C1583 0.958 . S
H1598 C1583 0.961 . S
H1599 C1583 0.960 . S
C1600 C1601 1.391 . S
C1600 C1602 1.394 . S
C1600 H1616 0.931 . S
C1601 C1600 1.391 . S
C1601 C1605 1.376 . S
C1602 C1600 1.394 . S
C1602 C1603 1.369 . S
C1602 C1606 1.531 . S
C1603 C1602 1.369 . S
C1603 C1604 1.410 . S
C1603 C1611 1.503 1_565 S
C1604 C1603 1.410 . S
C1604 C1605 1.392 . S
C1604 C1607 1.511 1_565 S
C1605 C1601 1.376 . S
C1605 C1604 1.392 . S
C1605 H1617 0.929 . S
C1606 C1602 1.531 . S
C1606 H1618 0.960 . S
C1606 H1619 0.962 . S
C1606 H1620 0.960 . S
C1607 C1604 1.511 1_545 S
C1607 H1621 0.961 . S
C1607 H1622 0.961 . S
C1607 H1623 0.951 1_545 S
C1608 C1609 1.370 . S
C1608 C1610 1.363 . S
C1608 H1624 0.931 . S
C1609 C1608 1.370 . S
C1609 C1613 1.408 . S
C1610 C1608 1.363 . S
C1610 C1611 1.370 . S
C1610 C1614 1.524 . S
C1611 C1603 1.503 1_545 S
C1611 C1610 1.370 . S
C1611 C1612 1.403 . S
C1612 C1611 1.403 . S
C1612 C1613 1.404 . S
C1612 C1615 1.539 1_545 S
C1613 C1609 1.408 . S
C1613 C1612 1.404 . S
C1613 H1625 0.930 . S
C1614 C1610 1.524 . S
C1614 H1626 0.956 . S
C1614 H1627 0.961 . S
C1614 H1628 0.961 . S
C1615 C1612 1.539 1_565 S
C1615 H1629 0.958 . S
C1615 H1630 0.986 . S
C1615 H1631 0.960 . S
H1616 C1600 0.931 . S
H1617 C1605 0.929 . S
H1618 C1606 0.960 . S
H1619 C1606 0.962 . S
H1620 C1606 0.960 . S
H1621 C1607 0.961 . S
H1622 C1607 0.961 . S
H1623 C1607 0.951 1_565 S
H1624 C1608 0.931 . S
H1625 C1613 0.930 . S
H1626 C1614 0.956 . S
H1627 C1614 0.961 . S
H1628 C1614 0.961 . S
H1629 C1615 0.958 . S
H1630 C1615 0.986 . S
H1631 C1615 0.960 . S
C1632 C1633 1.391 . S
C1632 C1634 1.394 . S
C1632 H1648 0.931 . S
C1633 C1632 1.391 . S
C1633 C1637 1.376 . S
C1634 C1632 1.394 . S
C1634 C1635 1.369 . S
C1634 C1638 1.531 1_655 S
C1635 C1634 1.369 . S
C1635 C1636 1.410 . S
C1635 C1643 1.503 1_655 S
C1636 C1635 1.410 . S
C1636 C1637 1.392 . S
C1636 C1639 1.511 . S
C1637 C1633 1.376 . S
C1637 C1636 1.392 . S
C1637 H1649 0.929 . S
C1638 C1634 1.531 1_455 S
C1638 H1650 0.960 . S
C1638 H1651 0.962 . S
C1638 H1652 0.960 . S
C1639 C1636 1.511 . S
C1639 H1653 0.961 . S
C1639 H1654 0.961 . S
C1639 H1655 0.961 . S
C1640 C1641 1.370 . S
C1640 C1642 1.363 . S
C1640 H1656 0.931 . S
C1641 C1640 1.370 . S
C1641 C1645 1.408 . S
C1642 C1640 1.363 . S
C1642 C1643 1.370 . S
C1642 C1646 1.524 . S
C1643 C1635 1.503 1_455 S
C1643 C1642 1.370 . S
C1643 C1644 1.403 . S
C1644 C1643 1.403 . S
C1644 C1645 1.404 . S
C1644 C1647 1.539 . S
C1645 C1641 1.408 . S
C1645 C1644 1.404 . S
C1645 H1657 0.930 . S
C1646 C1642 1.524 . S
C1646 H1658 0.956 . S
C1646 H1659 0.961 1_455 S
C1646 H1660 0.961 . S
C1647 C1644 1.539 . S
C1647 H1661 0.958 . S
C1647 H1662 0.961 . S
C1647 H1663 0.960 . S
H1648 C1632 0.931 . S
H1649 C1637 0.929 . S
H1650 C1638 0.960 . S
H1651 C1638 0.962 . S
H1652 C1638 0.960 . S
H1653 C1639 0.961 . S
H1654 C1639 0.961 . S
H1655 C1639 0.961 . S
H1656 C1640 0.931 . S
H1657 C1645 0.930 . S
H1658 C1646 0.956 . S
H1659 C1646 0.961 1_655 S
H1660 C1646 0.961 . S
H1661 C1647 0.958 . S
H1662 C1647 0.961 . S
H1663 C1647 0.960 . S
C1664 C1665 1.391 . S
C1664 C1666 1.394 . S
C1664 H1680 0.931 . S
C1665 C1664 1.391 . S
C1665 C1669 1.376 . S
C1666 C1664 1.394 . S
C1666 C1667 1.369 . S
C1666 C1670 1.531 . S
C1667 C1666 1.369 . S
C1667 C1668 1.410 . S
C1667 C1675 1.503 1_565 S
C1668 C1667 1.410 . S
C1668 C1669 1.392 . S
C1668 C1671 1.511 . S
C1669 C1665 1.376 . S
C1669 C1668 1.392 . S
C1669 H1681 0.929 . S
C1670 C1666 1.531 . S
C1670 H1682 0.960 . S
C1670 H1683 0.962 . S
C1670 H1684 0.960 . S
C1671 C1668 1.511 . S
C1671 H1685 0.961 . S
C1671 H1686 0.961 1_565 S
C1671 H1687 0.961 . S
C1672 C1673 1.370 . S
C1672 C1674 1.363 . S
C1672 H1688 0.931 . S
C1673 C1672 1.370 . S
C1673 C1677 1.408 . S
C1674 C1672 1.363 . S
C1674 C1675 1.370 . S
C1674 C1678 1.524 . S
C1675 C1667 1.503 1_545 S
C1675 C1674 1.370 . S
C1675 C1676 1.403 . S
C1676 C1675 1.403 . S
C1676 C1677 1.404 . S
C1676 C1679 1.539 1_545 S
C1677 C1673 1.408 . S
C1677 C1676 1.404 . S
C1677 H1689 0.930 . S
C1678 C1674 1.524 . S
C1678 H1690 0.956 . S
C1678 H1691 0.961 . S
C1678 H1692 0.961 . S
C1679 C1676 1.539 1_565 S
C1679 H1693 0.958 . S
C1679 H1694 0.961 . S
C1679 H1695 0.960 . S
H1680 C1664 0.931 . S
H1681 C1669 0.929 . S
H1682 C1670 0.960 . S
H1683 C1670 0.962 . S
H1684 C1670 0.960 . S
H1685 C1671 0.961 . S
H1686 C1671 0.961 1_545 S
H1687 C1671 0.961 . S
H1688 C1672 0.931 . S
H1689 C1677 0.930 . S
H1690 C1678 0.956 . S
H1691 C1678 0.961 . S
H1692 C1678 0.961 . S
H1693 C1679 0.958 . S
H1694 C1679 0.961 . S
H1695 C1679 0.960 . S
C1696 C1697 1.391 . S
C1696 C1698 1.394 . S
C1696 H1712 0.931 . S
C1697 C1696 1.391 . S
C1697 C1701 1.376 . S
C1698 C1696 1.394 . S
C1698 C1699 1.369 . S
C1698 C1702 1.531 . S
C1699 C1698 1.369 . S
C1699 C1700 1.410 . S
C1699 C1707 1.503 1_655 S
C1700 C1699 1.410 . S
C1700 C1701 1.392 . S
C1700 C1703 1.511 1_655 S
C1701 C1697 1.376 . S
C1701 C1700 1.392 . S
C1701 H1713 0.929 . S
C1702 C1698 1.531 . S
C1702 H1714 0.960 . S
C1702 H1715 0.962 . S
C1702 H1716 0.960 . S
C1703 C1700 1.511 1_455 S
C1703 H1717 0.946 1_455 S
C1703 H1718 0.961 . S
C1703 H1719 0.961 . S
C1704 C1705 1.370 . S
C1704 C1706 1.363 . S
C1704 H1720 0.931 . S
C1705 C1704 1.370 . S
C1705 C1709 1.408 . S
C1706 C1704 1.363 . S
C1706 C1707 1.370 . S
C1706 C1710 1.524 1_455 S
C1707 C1699 1.503 1_455 S
C1707 C1706 1.370 . S
C1707 C1708 1.403 . S
C1708 C1707 1.403 . S
C1708 C1709 1.404 . S
C1708 C1711 1.539 . S
C1709 C1705 1.408 . S
C1709 C1708 1.404 . S
C1709 H1721 0.930 . S
C1710 C1706 1.524 1_655 S
C1710 H1722 0.956 . S
C1710 H1723 0.961 . S
C1710 H1724 0.961 . S
C1711 C1708 1.539 . S
C1711 H1725 0.958 . S
C1711 H1726 0.961 . S
C1711 H1727 0.960 . S
H1712 C1696 0.931 . S
H1713 C1701 0.929 . S
H1714 C1702 0.960 . S
H1715 C1702 0.962 . S
H1716 C1702 0.960 . S
H1717 C1703 0.946 1_655 S
H1718 C1703 0.961 . S
H1719 C1703 0.961 . S
H1720 C1704 0.931 . S
H1721 C1709 0.930 . S
H1722 C1710 0.956 . S
H1723 C1710 0.961 . S
H1724 C1710 0.961 . S
H1725 C1711 0.958 . S
H1726 C1711 0.961 . S
H1727 C1711 0.960 . S
C1728 C1729 1.391 . S
C1728 C1730 1.394 . S
C1728 H1744 0.931 . S
C1729 C1728 1.391 . S
C1729 C1733 1.376 . S
C1730 C1728 1.394 . S
C1730 C1731 1.369 . S
C1730 C1734 1.531 . S
C1731 C1730 1.369 . S
C1731 C1732 1.410 . S
C1731 C1739 1.503 . S
C1732 C1731 1.410 . S
C1732 C1733 1.392 . S
C1732 C1735 1.511 . S
C1733 C1729 1.376 . S
C1733 C1732 1.392 . S
C1733 H1745 0.929 . S
C1734 C1730 1.531 . S
C1734 H1746 0.960 . S
C1734 H1747 0.962 . S
C1734 H1748 0.960 . S
C1735 C1732 1.511 . S
C1735 H1749 0.961 . S
C1735 H1750 0.961 . S
C1735 H1751 0.961 . S
C1736 C1737 1.370 . S
C1736 C1738 1.363 . S
C1736 H1752 0.931 . S
C1737 C1736 1.370 . S
C1737 C1741 1.408 . S
C1738 C1736 1.363 . S
C1738 C1739 1.370 . S
C1738 C1742 1.524 . S
C1739 C1731 1.503 . S
C1739 C1738 1.370 . S
C1739 C1740 1.403 . S
C1740 C1739 1.403 . S
C1740 C1741 1.404 . S
C1740 C1743 1.539 . S
C1741 C1737 1.408 . S
C1741 C1740 1.404 . S
C1741 H1753 0.930 . S
C1742 C1738 1.524 . S
C1742 H1754 0.956 . S
C1742 H1755 0.961 . S
C1742 H1756 0.961 . S
C1743 C1740 1.539 . S
C1743 H1757 0.958 . S
C1743 H1758 0.961 . S
C1743 H1759 0.960 . S
H1744 C1728 0.931 . S
H1745 C1733 0.929 . S
H1746 C1734 0.960 . S
H1747 C1734 0.962 . S
H1748 C1734 0.960 . S
H1749 C1735 0.961 . S
H1750 C1735 0.961 . S
H1751 C1735 0.961 . S
H1752 C1736 0.931 . S
H1753 C1741 0.930 . S
H1754 C1742 0.956 . S
H1755 C1742 0.961 . S
H1756 C1742 0.961 . S
H1757 C1743 0.958 . S
H1758 C1743 0.961 . S
H1759 C1743 0.960 . S
C1760 C1761 1.391 . S
C1760 C1762 1.394 . S
C1760 H1776 0.931 . S
C1761 C1760 1.391 . S
C1761 C1765 1.376 . S
C1762 C1760 1.394 . S
C1762 C1763 1.369 . S
C1762 C1766 1.531 . S
C1763 C1762 1.369 . S
C1763 C1764 1.410 . S
C1763 C1771 1.503 . S
C1764 C1763 1.410 . S
C1764 C1765 1.392 . S
C1764 C1767 1.511 . S
C1765 C1761 1.376 . S
C1765 C1764 1.392 . S
C1765 H1777 0.929 . S
C1766 C1762 1.531 . S
C1766 H1778 0.960 . S
C1766 H1779 0.962 . S
C1766 H1780 0.960 . S
C1767 C1764 1.511 . S
C1767 H1781 0.961 . S
C1767 H1782 0.961 . S
C1767 H1783 0.961 . S
C1768 C1769 1.370 . S
C1768 C1770 1.363 . S
C1768 H1784 0.931 . S
C1769 C1768 1.370 . S
C1769 C1773 1.408 . S
C1770 C1768 1.363 . S
C1770 C1771 1.370 . S
C1770 C1774 1.524 . S
C1771 C1763 1.503 . S
C1771 C1770 1.370 . S
C1771 C1772 1.403 . S
C1772 C1771 1.403 . S
C1772 C1773 1.404 . S
C1772 C1775 1.539 . S
C1773 C1769 1.408 . S
C1773 C1772 1.404 . S
C1773 H1785 0.930 . S
C1774 C1770 1.524 . S
C1774 H1786 0.956 . S
C1774 H1787 0.961 . S
C1774 H1788 0.961 . S
C1775 C1772 1.539 . S
C1775 H1789 0.958 . S
C1775 H1790 0.961 . S
C1775 H1791 0.960 . S
H1776 C1760 0.931 . S
H1777 C1765 0.929 . S
H1778 C1766 0.960 . S
H1779 C1766 0.962 . S
H1780 C1766 0.960 . S
H1781 C1767 0.961 . S
H1782 C1767 0.961 . S
H1783 C1767 0.961 . S
H1784 C1768 0.931 . S
H1785 C1773 0.930 . S
H1786 C1774 0.956 . S
H1787 C1774 0.961 . S
H1788 C1774 0.961 . S
H1789 C1775 0.958 . S
H1790 C1775 0.961 . S
H1791 C1775 0.960 . S
C1792 C1793 1.391 . S
C1792 C1794 1.394 . S
C1792 H1808 0.931 . S
C1793 C1792 1.391 . S
C1793 C1797 1.376 . S
C1794 C1792 1.394 . S
C1794 C1795 1.369 . S
C1794 C1798 1.531 . S
C1795 C1794 1.369 . S
C1795 C1796 1.410 . S
C1795 C1803 1.503 . S
C1796 C1795 1.410 . S
C1796 C1797 1.392 . S
C1796 C1799 1.511 . S
C1797 C1793 1.376 . S
C1797 C1796 1.392 . S
C1797 H1809 0.929 . S
C1798 C1794 1.531 . S
C1798 H1810 0.960 . S
C1798 H1811 0.962 . S
C1798 H1812 0.960 . S
C1799 C1796 1.511 . S
C1799 H1813 0.961 . S
C1799 H1814 0.961 . S
C1799 H1815 0.961 . S
C1800 C1801 1.370 . S
C1800 C1802 1.363 . S
C1800 H1816 0.931 . S
C1801 C1800 1.370 . S
C1801 C1805 1.408 . S
C1802 C1800 1.363 . S
C1802 C1803 1.370 . S
C1802 C1806 1.524 . S
C1803 C1795 1.503 . S
C1803 C1802 1.370 . S
C1803 C1804 1.403 . S
C1804 C1803 1.403 . S
C1804 C1805 1.404 . S
C1804 C1807 1.539 . S
C1805 C1801 1.408 . S
C1805 C1804 1.404 . S
C1805 H1817 0.930 . S
C1806 C1802 1.524 . S
C1806 H1818 0.956 . S
C1806 H1819 0.961 . S
C1806 H1820 0.961 . S
C1807 C1804 1.539 . S
C1807 H1821 0.958 . S
C1807 H1822 0.961 . S
C1807 H1823 0.960 . S
H1808 C1792 0.931 . S
H1809 C1797 0.929 . S
H1810 C1798 0.960 . S
H1811 C1798 0.962 . S
H1812 C1798 0.960 . S
H1813 C1799 0.961 . S
H1814 C1799 0.961 . S
H1815 C1799 0.961 . S
H1816 C1800 0.931 . S
H1817 C1805 0.930 . S
H1818 C1806 0.956 . S
H1819 C1806 0.961 . S
H1820 C1806 0.961 . S
H1821 C1807 0.958 . S
H1822 C1807 0.961 . S
H1823 C1807 0.960 . S
C1824 C1825 1.391 . S
C1824 C1826 1.394 . S
C1824 H1840 0.931 . S
C1825 C1824 1.391 . S
C1825 C1829 1.376 . S
C1826 C1824 1.394 . S
C1826 C1827 1.369 . S
C1826 C1830 1.531 . S
C1827 C1826 1.369 . S
C1827 C1828 1.410 . S
C1827 C1835 1.503 . S
C1828 C1827 1.410 . S
C1828 C1829 1.392 . S
C1828 C1831 1.511 . S
C1829 C1825 1.376 . S
C1829 C1828 1.392 . S
C1829 H1841 0.929 . S
C1830 C1826 1.531 . S
C1830 H1842 0.960 . S
C1830 H1843 0.962 . S
C1830 H1844 0.960 . S
C1831 C1828 1.511 . S
C1831 H1845 0.961 . S
C1831 H1846 0.961 . S
C1831 H1847 0.961 . S
C1832 C1833 1.370 . S
C1832 C1834 1.363 . S
C1832 H1848 0.931 . S
C1833 C1832 1.370 . S
C1833 C1837 1.408 . S
C1834 C1832 1.363 . S
C1834 C1835 1.370 . S
C1834 C1838 1.524 . S
C1835 C1827 1.503 . S
C1835 C1834 1.370 . S
C1835 C1836 1.403 . S
C1836 C1835 1.403 . S
C1836 C1837 1.404 . S
C1836 C1839 1.539 . S
C1837 C1833 1.408 . S
C1837 C1836 1.404 . S
C1837 H1849 0.930 . S
C1838 C1834 1.524 . S
C1838 H1850 0.956 . S
C1838 H1851 0.961 . S
C1838 H1852 0.961 . S
C1839 C1836 1.539 . S
C1839 H1853 0.958 . S
C1839 H1854 0.961 . S
C1839 H1855 0.960 . S
H1840 C1824 0.931 . S
H1841 C1829 0.929 . S
H1842 C1830 0.960 . S
H1843 C1830 0.962 . S
H1844 C1830 0.960 . S
H1845 C1831 0.961 . S
H1846 C1831 0.961 . S
H1847 C1831 0.961 . S
H1848 C1832 0.931 . S
H1849 C1837 0.930 . S
H1850 C1838 0.956 . S
H1851 C1838 0.961 . S
H1852 C1838 0.961 . S
H1853 C1839 0.958 . S
H1854 C1839 0.961 . S
H1855 C1839 0.960 . S
C1856 C1857 1.391 . S
C1856 C1858 1.394 . S
C1856 H1872 0.931 . S
C1857 C1856 1.391 . S
C1857 C1861 1.376 . S
C1858 C1856 1.394 . S
C1858 C1859 1.369 . S
C1858 C1862 1.531 . S
C1859 C1858 1.369 . S
C1859 C1860 1.410 . S
C1859 C1867 1.503 . S
C1860 C1859 1.410 . S
C1860 C1861 1.392 . S
C1860 C1863 1.511 . S
C1861 C1857 1.376 . S
C1861 C1860 1.392 . S
C1861 H1873 0.929 . S
C1862 C1858 1.531 . S
C1862 H1874 0.960 . S
C1862 H1875 0.962 . S
C1862 H1876 0.960 . S
C1863 C1860 1.511 . S
C1863 H1877 0.961 . S
C1863 H1878 0.961 . S
C1863 H1879 0.961 . S
C1864 C1865 1.370 . S
C1864 C1866 1.363 . S
C1864 H1880 0.931 . S
C1865 C1864 1.370 . S
C1865 C1869 1.408 . S
C1866 C1864 1.363 . S
C1866 C1867 1.370 . S
C1866 C1870 1.524 . S
C1867 C1859 1.503 . S
C1867 C1866 1.370 . S
C1867 C1868 1.403 . S
C1868 C1867 1.403 . S
C1868 C1869 1.404 . S
C1868 C1871 1.539 . S
C1869 C1865 1.408 . S
C1869 C1868 1.404 . S
C1869 H1881 0.930 . S
C1870 C1866 1.524 . S
C1870 H1882 0.956 . S
C1870 H1883 0.961 . S
C1870 H1884 0.961 . S
C1871 C1868 1.539 . S
C1871 H1885 0.958 . S
C1871 H1886 0.961 . S
C1871 H1887 0.960 . S
H1872 C1856 0.931 . S
H1873 C1861 0.929 . S
H1874 C1862 0.960 . S
H1875 C1862 0.962 . S
H1876 C1862 0.960 . S
H1877 C1863 0.961 . S
H1878 C1863 0.961 . S
H1879 C1863 0.961 . S
H1880 C1864 0.931 . S
H1881 C1869 0.930 . S
H1882 C1870 0.956 . S
H1883 C1870 0.961 . S
H1884 C1870 0.961 . S
H1885 C1871 0.958 . S
H1886 C1871 0.961 . S
H1887 C1871 0.960 . S
C1888 C1889 1.391 . S
C1888 C1890 1.394 . S
C1888 H1904 0.931 . S
C1889 C1888 1.391 . S
C1889 C1893 1.376 . S
C1890 C1888 1.394 . S
C1890 C1891 1.369 . S
C1890 C1894 1.531 . S
C1891 C1890 1.369 . S
C1891 C1892 1.410 . S
C1891 C1899 1.503 . S
C1892 C1891 1.410 . S
C1892 C1893 1.392 . S
C1892 C1895 1.511 . S
C1893 C1889 1.376 . S
C1893 C1892 1.392 . S
C1893 H1905 0.929 . S
C1894 C1890 1.531 . S
C1894 H1906 0.960 . S
C1894 H1907 0.962 . S
C1894 H1908 0.960 . S
C1895 C1892 1.511 . S
C1895 H1909 0.961 . S
C1895 H1910 0.961 . S
C1895 H1911 0.961 . S
C1896 C1897 1.370 . S
C1896 C1898 1.363 . S
C1896 H1912 0.931 . S
C1897 C1896 1.370 . S
C1897 C1901 1.408 . S
C1898 C1896 1.363 . S
C1898 C1899 1.370 . S
C1898 C1902 1.524 . S
C1899 C1891 1.503 . S
C1899 C1898 1.370 . S
C1899 C1900 1.403 . S
C1900 C1899 1.403 . S
C1900 C1901 1.404 . S
C1900 C1903 1.539 . S
C1901 C1897 1.408 . S
C1901 C1900 1.404 . S
C1901 H1913 0.930 . S
C1902 C1898 1.524 . S
C1902 H1914 0.956 . S
C1902 H1915 0.961 . S
C1902 H1916 0.961 . S
C1903 C1900 1.539 . S
C1903 H1917 0.958 . S
C1903 H1918 0.961 . S
C1903 H1919 0.960 . S
H1904 C1888 0.931 . S
H1905 C1893 0.929 . S
H1906 C1894 0.960 . S
H1907 C1894 0.962 . S
H1908 C1894 0.960 . S
H1909 C1895 0.961 . S
H1910 C1895 0.961 . S
H1911 C1895 0.961 . S
H1912 C1896 0.931 . S
H1913 C1901 0.930 . S
H1914 C1902 0.956 . S
H1915 C1902 0.961 . S
H1916 C1902 0.961 . S
H1917 C1903 0.958 . S
H1918 C1903 0.961 . S
H1919 C1903 0.960 . S
C1920 C1921 1.391 . S
C1920 C1922 1.394 . S
C1920 H1936 0.931 . S
C1921 C1920 1.391 . S
C1921 C1925 1.376 . S
C1922 C1920 1.394 . S
C1922 C1923 1.369 . S
C1922 C1926 1.531 . S
C1923 C1922 1.369 . S
C1923 C1924 1.410 . S
C1923 C1931 1.503 . S
C1924 C1923 1.410 . S
C1924 C1925 1.392 . S
C1924 C1927 1.511 . S
C1925 C1921 1.376 . S
C1925 C1924 1.392 . S
C1925 H1937 0.929 . S
C1926 C1922 1.531 . S
C1926 H1938 0.960 . S
C1926 H1939 0.962 . S
C1926 H1940 0.960 . S
C1927 C1924 1.511 . S
C1927 H1941 0.961 . S
C1927 H1942 0.961 . S
C1927 H1943 0.961 . S
C1928 C1929 1.370 . S
C1928 C1930 1.363 . S
C1928 H1944 0.931 . S
C1929 C1928 1.370 . S
C1929 C1933 1.408 . S
C1930 C1928 1.363 . S
C1930 C1931 1.370 . S
C1930 C1934 1.524 . S
C1931 C1923 1.503 . S
C1931 C1930 1.370 . S
C1931 C1932 1.403 . S
C1932 C1931 1.403 . S
C1932 C1933 1.404 . S
C1932 C1935 1.539 . S
C1933 C1929 1.408 . S
C1933 C1932 1.404 . S
C1933 H1945 0.930 . S
C1934 C1930 1.524 . S
C1934 H1946 0.956 . S
C1934 H1947 0.961 . S
C1934 H1948 0.961 . S
C1935 C1932 1.539 . S
C1935 H1949 0.958 . S
C1935 H1950 0.961 . S
C1935 H1951 0.960 . S
H1936 C1920 0.931 . S
H1937 C1925 0.929 . S
H1938 C1926 0.960 . S
H1939 C1926 0.962 . S
H1940 C1926 0.960 . S
H1941 C1927 0.961 . S
H1942 C1927 0.961 . S
H1943 C1927 0.961 . S
H1944 C1928 0.931 . S
H1945 C1933 0.930 . S
H1946 C1934 0.956 . S
H1947 C1934 0.961 . S
H1948 C1934 0.961 . S
H1949 C1935 0.958 . S
H1950 C1935 0.961 . S
H1951 C1935 0.960 . S
C1952 C1953 1.391 . S
C1952 C1954 1.394 . S
C1952 H1968 0.931 . S
C1953 C1952 1.391 . S
C1953 C1957 1.376 . S
C1954 C1952 1.394 . S
C1954 C1955 1.369 . S
C1954 C1958 1.531 . S
C1955 C1954 1.369 . S
C1955 C1956 1.410 . S
C1955 C1963 1.503 . S
C1956 C1955 1.410 . S
C1956 C1957 1.392 . S
C1956 C1959 1.511 . S
C1957 C1953 1.376 . S
C1957 C1956 1.392 . S
C1957 H1969 0.929 . S
C1958 C1954 1.531 . S
C1958 H1970 0.960 . S
C1958 H1971 0.962 . S
C1958 H1972 0.960 . S
C1959 C1956 1.511 . S
C1959 H1973 0.961 . S
C1959 H1974 0.961 . S
C1959 H1975 0.961 . S
C1960 C1961 1.370 . S
C1960 C1962 1.363 . S
C1960 H1976 0.931 . S
C1961 C1960 1.370 . S
C1961 C1965 1.408 . S
C1962 C1960 1.363 . S
C1962 C1963 1.370 . S
C1962 C1966 1.524 . S
C1963 C1955 1.503 . S
C1963 C1962 1.370 . S
C1963 C1964 1.403 . S
C1964 C1963 1.403 . S
C1964 C1965 1.404 . S
C1964 C1967 1.539 . S
C1965 C1961 1.408 . S
C1965 C1964 1.404 . S
C1965 H1977 0.930 . S
C1966 C1962 1.524 . S
C1966 H1978 0.956 . S
C1966 H1979 0.961 . S
C1966 H1980 0.961 . S
C1967 C1964 1.539 . S
C1967 H1981 0.958 . S
C1967 H1982 0.961 . S
C1967 H1983 0.960 . S
H1968 C1952 0.931 . S
H1969 C1957 0.929 . S
H1970 C1958 0.960 . S
H1971 C1958 0.962 . S
H1972 C1958 0.960 . S
H1973 C1959 0.961 . S
H1974 C1959 0.961 . S
H1975 C1959 0.961 . S
H1976 C1960 0.931 . S
H1977 C1965 0.930 . S
H1978 C1966 0.956 . S
H1979 C1966 0.961 . S
H1980 C1966 0.961 . S
H1981 C1967 0.958 . S
H1982 C1967 0.961 . S
H1983 C1967 0.960 . S
C1984 C1985 1.391 . S
C1984 C1986 1.394 . S
C1984 H2000 0.931 . S
C1985 C1984 1.391 . S
C1985 C1989 1.376 . S
C1986 C1984 1.394 . S
C1986 C1987 1.369 . S
C1986 C1990 1.531 . S
C1987 C1986 1.369 . S
C1987 C1988 1.410 . S
C1987 C1995 1.503 . S
C1988 C1987 1.410 . S
C1988 C1989 1.392 . S
C1988 C1991 1.511 . S
C1989 C1985 1.376 . S
C1989 C1988 1.392 . S
C1989 H2001 0.929 . S
C1990 C1986 1.531 . S
C1990 H2002 0.960 . S
C1990 H2003 0.962 . S
C1990 H2004 0.960 . S
C1991 C1988 1.511 . S
C1991 H2005 0.961 . S
C1991 H2006 0.961 . S
C1991 H2007 0.961 . S
C1992 C1993 1.370 . S
C1992 C1994 1.363 . S
C1992 H2008 0.931 . S
C1993 C1992 1.370 . S
C1993 C1997 1.408 . S
C1994 C1992 1.363 . S
C1994 C1995 1.370 . S
C1994 C1998 1.524 . S
C1995 C1987 1.503 . S
C1995 C1994 1.370 . S
C1995 C1996 1.403 . S
C1996 C1995 1.403 . S
C1996 C1997 1.404 . S
C1996 C1999 1.539 . S
C1997 C1993 1.408 . S
C1997 C1996 1.404 . S
C1997 H2009 0.930 . S
C1998 C1994 1.524 . S
C1998 H2010 0.956 . S
C1998 H2011 0.961 . S
C1998 H2012 0.961 . S
C1999 C1996 1.539 . S
C1999 H2013 0.958 . S
C1999 H2014 0.961 . S
C1999 H2015 0.960 . S
H2000 C1984 0.931 . S
H2001 C1989 0.929 . S
H2002 C1990 0.960 . S
H2003 C1990 0.962 . S
H2004 C1990 0.960 . S
H2005 C1991 0.961 . S
H2006 C1991 0.961 . S
H2007 C1991 0.961 . S
H2008 C1992 0.931 . S
H2009 C1997 0.930 . S
H2010 C1998 0.956 . S
H2011 C1998 0.961 . S
H2012 C1998 0.961 . S
H2013 C1999 0.958 . S
H2014 C1999 0.961 . S
H2015 C1999 0.960 . S
C2016 C2017 1.391 . S
C2016 C2018 1.394 . S
C2016 H2032 0.931 . S
C2017 C2016 1.391 . S
C2017 C2021 1.376 . S
C2018 C2016 1.394 . S
C2018 C2019 1.369 . S
C2018 C2022 1.531 . S
C2019 C2018 1.369 . S
C2019 C2020 1.410 . S
C2019 C2027 1.503 . S
C2020 C2019 1.410 . S
C2020 C2021 1.392 . S
C2020 C2023 1.511 . S
C2021 C2017 1.376 . S
C2021 C2020 1.392 . S
C2021 H2033 0.929 . S
C2022 C2018 1.531 . S
C2022 H2034 0.960 . S
C2022 H2035 0.962 . S
C2022 H2036 0.960 . S
C2023 C2020 1.511 . S
C2023 H2037 0.961 . S
C2023 H2038 0.961 . S
C2023 H2039 0.961 . S
C2024 C2025 1.370 . S
C2024 C2026 1.363 . S
C2024 H2040 0.931 . S
C2025 C2024 1.370 . S
C2025 C2029 1.408 . S
C2026 C2024 1.363 . S
C2026 C2027 1.370 . S
C2026 C2030 1.524 . S
C2027 C2019 1.503 . S
C2027 C2026 1.370 . S
C2027 C2028 1.403 . S
C2028 C2027 1.403 . S
C2028 C2029 1.404 . S
C2028 C2031 1.539 . S
C2029 C2025 1.408 . S
C2029 C2028 1.404 . S
C2029 H2041 0.930 . S
C2030 C2026 1.524 . S
C2030 H2042 0.956 . S
C2030 H2043 0.961 . S
C2030 H2044 0.961 . S
C2031 C2028 1.539 . S
C2031 H2045 0.958 . S
C2031 H2046 0.961 . S
C2031 H2047 0.960 . S
H2032 C2016 0.931 . S
H2033 C2021 0.929 . S
H2034 C2022 0.960 . S
H2035 C2022 0.962 . S
H2036 C2022 0.960 . S
H2037 C2023 0.961 . S
H2038 C2023 0.961 . S
H2039 C2023 0.961 . S
H2040 C2024 0.931 . S
H2041 C2029 0.930 . S
H2042 C2030 0.956 . S
H2043 C2030 0.961 . S
H2044 C2030 0.961 . S
H2045 C2031 0.958 . S
H2046 C2031 0.961 . S
H2047 C2031 0.960 . S
C2048 C2049 1.391 . S
C2048 C2050 1.394 . S
C2048 H2064 0.931 . S
C2049 C2048 1.391 . S
C2049 C2053 1.376 . S
C2050 C2048 1.394 . S
C2050 C2051 1.369 . S
C2050 C2054 1.531 . S
C2051 C2050 1.369 . S
C2051 C2052 1.410 . S
C2051 C2059 1.503 . S
C2052 C2051 1.410 . S
C2052 C2053 1.392 . S
C2052 C2055 1.511 . S
C2053 C2049 1.376 . S
C2053 C2052 1.392 . S
C2053 H2065 0.929 . S
C2054 C2050 1.531 . S
C2054 H2066 0.960 . S
C2054 H2067 0.962 . S
C2054 H2068 0.960 . S
C2055 C2052 1.511 . S
C2055 H2069 0.961 . S
C2055 H2070 0.961 . S
C2055 H2071 0.961 . S
C2056 C2057 1.370 . S
C2056 C2058 1.363 . S
C2056 H2072 0.931 . S
C2057 C2056 1.370 . S
C2057 C2061 1.408 . S
C2058 C2056 1.363 . S
C2058 C2059 1.370 . S
C2058 C2062 1.524 . S
C2059 C2051 1.503 . S
C2059 C2058 1.370 . S
C2059 C2060 1.403 . S
C2060 C2059 1.403 . S
C2060 C2061 1.404 . S
C2060 C2063 1.539 . S
C2061 C2057 1.408 . S
C2061 C2060 1.404 . S
C2061 H2073 0.930 . S
C2062 C2058 1.524 . S
C2062 H2074 0.956 . S
C2062 H2075 0.961 . S
C2062 H2076 0.961 . S
C2063 C2060 1.539 . S
C2063 H2077 0.958 . S
C2063 H2078 0.961 . S
C2063 H2079 0.960 . S
H2064 C2048 0.931 . S
H2065 C2053 0.929 . S
H2066 C2054 0.960 . S
H2067 C2054 0.962 . S
H2068 C2054 0.960 . S
H2069 C2055 0.961 . S
H2070 C2055 0.961 . S
H2071 C2055 0.961 . S
H2072 C2056 0.931 . S
H2073 C2061 0.930 . S
H2074 C2062 0.956 . S
H2075 C2062 0.961 . S
H2076 C2062 0.961 . S
H2077 C2063 0.958 . S
H2078 C2063 0.961 . S
H2079 C2063 0.960 . S
C2080 C2081 1.391 . S
C2080 C2082 1.394 . S
C2080 H2096 0.931 . S
C2081 C2080 1.391 . S
C2081 C2085 1.376 . S
C2082 C2080 1.394 . S
C2082 C2083 1.369 . S
C2082 C2086 1.531 . S
C2083 C2082 1.369 . S
C2083 C2084 1.410 . S
C2083 C2091 1.503 . S
C2084 C2083 1.410 . S
C2084 C2085 1.392 . S
C2084 C2087 1.511 . S
C2085 C2081 1.376 . S
C2085 C2084 1.392 . S
C2085 H2097 0.929 . S
C2086 C2082 1.531 . S
C2086 H2098 0.960 . S
C2086 H2099 0.962 . S
C2086 H2100 0.960 . S
C2087 C2084 1.511 . S
C2087 H2101 0.961 . S
C2087 H2102 0.961 . S
C2087 H2103 0.961 . S
C2088 C2089 1.370 . S
C2088 C2090 1.363 . S
C2088 H2104 0.931 . S
C2089 C2088 1.370 . S
C2089 C2093 1.408 . S
C2090 C2088 1.363 . S
C2090 C2091 1.370 . S
C2090 C2094 1.524 . S
C2091 C2083 1.503 . S
C2091 C2090 1.370 . S
C2091 C2092 1.403 . S
C2092 C2091 1.403 . S
C2092 C2093 1.404 . S
C2092 C2095 1.539 . S
C2093 C2089 1.408 . S
C2093 C2092 1.404 . S
C2093 H2105 0.930 . S
C2094 C2090 1.524 . S
C2094 H2106 0.956 . S
C2094 H2107 0.961 . S
C2094 H2108 0.961 . S
C2095 C2092 1.539 . S
C2095 H2109 0.958 . S
C2095 H2110 0.961 . S
C2095 H2111 0.960 . S
H2096 C2080 0.931 . S
H2097 C2085 0.929 . S
H2098 C2086 0.960 . S
H2099 C2086 0.962 . S
H2100 C2086 0.960 . S
H2101 C2087 0.961 . S
H2102 C2087 0.961 . S
H2103 C2087 0.961 . S
H2104 C2088 0.931 . S
H2105 C2093 0.930 . S
H2106 C2094 0.956 . S
H2107 C2094 0.961 . S
H2108 C2094 0.961 . S
H2109 C2095 0.958 . S
H2110 C2095 0.961 . S
H2111 C2095 0.960 . S
C2112 C2113 1.391 . S
C2112 C2114 1.394 . S
C2112 H2128 0.931 . S
C2113 C2112 1.391 . S
C2113 C2117 1.376 . S
C2114 C2112 1.394 . S
C2114 C2115 1.369 . S
C2114 C2118 1.531 . S
C2115 C2114 1.369 . S
C2115 C2116 1.410 . S
C2115 C2123 1.503 . S
C2116 C2115 1.410 . S
C2116 C2117 1.392 . S
C2116 C2119 1.511 . S
C2117 C2113 1.376 . S
C2117 C2116 1.392 . S
C2117 H2129 0.929 . S
C2118 C2114 1.531 . S
C2118 H2130 0.960 . S
C2118 H2131 0.962 . S
C2118 H2132 0.960 . S
C2119 C2116 1.511 . S
C2119 H2133 0.961 . S
C2119 H2134 0.961 . S
C2119 H2135 0.961 . S
C2120 C2121 1.370 . S
C2120 C2122 1.363 . S
C2120 H2136 0.931 . S
C2121 C2120 1.370 . S
C2121 C2125 1.408 . S
C2122 C2120 1.363 . S
C2122 C2123 1.370 . S
C2122 C2126 1.524 . S
C2123 C2115 1.503 . S
C2123 C2122 1.370 . S
C2123 C2124 1.403 . S
C2124 C2123 1.403 . S
C2124 C2125 1.404 . S
C2124 C2127 1.539 . S
C2125 C2121 1.408 . S
C2125 C2124 1.404 . S
C2125 H2137 0.930 . S
C2126 C2122 1.524 . S
C2126 H2138 0.956 . S
C2126 H2139 0.961 . S
C2126 H2140 0.961 . S
C2127 C2124 1.539 . S
C2127 H2141 0.958 . S
C2127 H2142 0.961 . S
C2127 H2143 0.960 . S
H2128 C2112 0.931 . S
H2129 C2117 0.929 . S
H2130 C2118 0.960 . S
H2131 C2118 0.962 . S
H2132 C2118 0.960 . S
H2133 C2119 0.961 . S
H2134 C2119 0.961 . S
H2135 C2119 0.961 . S
H2136 C2120 0.931 . S
H2137 C2125 0.930 . S
H2138 C2126 0.956 . S
H2139 C2126 0.961 . S
H2140 C2126 0.961 . S
H2141 C2127 0.958 . S
H2142 C2127 0.961 . S
H2143 C2127 0.960 . S
C2144 C2145 1.391 . S
C2144 C2146 1.394 . S
C2144 H2160 0.931 . S
C2145 C2144 1.391 . S
C2145 C2149 1.376 . S
C2146 C2144 1.394 . S
C2146 C2147 1.369 . S
C2146 C2150 1.531 . S
C2147 C2146 1.369 . S
C2147 C2148 1.410 . S
C2147 C2155 1.503 . S
C2148 C2147 1.410 . S
C2148 C2149 1.392 . S
C2148 C2151 1.511 . S
C2149 C2145 1.376 . S
C2149 C2148 1.392 . S
C2149 H2161 0.929 . S
C2150 C2146 1.531 . S
C2150 H2162 0.960 . S
C2150 H2163 0.962 . S
C2150 H2164 0.960 . S
C2151 C2148 1.511 . S
C2151 H2165 0.961 . S
C2151 H2166 0.961 . S
C2151 H2167 0.961 . S
C2152 C2153 1.370 . S
C2152 C2154 1.363 . S
C2152 H2168 0.931 . S
C2153 C2152 1.370 . S
C2153 C2157 1.408 . S
C2154 C2152 1.363 . S
C2154 C2155 1.370 . S
C2154 C2158 1.524 . S
C2155 C2147 1.503 . S
C2155 C2154 1.370 . S
C2155 C2156 1.403 . S
C2156 C2155 1.403 . S
C2156 C2157 1.404 . S
C2156 C2159 1.539 . S
C2157 C2153 1.408 . S
C2157 C2156 1.404 . S
C2157 H2169 0.930 . S
C2158 C2154 1.524 . S
C2158 H2170 0.956 . S
C2158 H2171 0.961 . S
C2158 H2172 0.961 . S
C2159 C2156 1.539 . S
C2159 H2173 0.958 . S
C2159 H2174 0.961 . S
C2159 H2175 0.960 . S
H2160 C2144 0.931 . S
H2161 C2149 0.929 . S
H2162 C2150 0.960 . S
H2163 C2150 0.962 . S
H2164 C2150 0.960 . S
H2165 C2151 0.961 . S
H2166 C2151 0.961 . S
H2167 C2151 0.961 . S
H2168 C2152 0.931 . S
H2169 C2157 0.930 . S
H2170 C2158 0.956 . S
H2171 C2158 0.961 . S
H2172 C2158 0.961 . S
H2173 C2159 0.958 . S
H2174 C2159 0.961 . S
H2175 C2159 0.960 . S
C2176 C2177 1.391 . S
C2176 C2178 1.394 . S
C2176 H2192 0.931 . S
C2177 C2176 1.391 . S
C2177 C2181 1.376 . S
C2178 C2176 1.394 . S
C2178 C2179 1.369 . S
C2178 C2182 1.531 . S
C2179 C2178 1.369 . S
C2179 C2180 1.410 . S
C2179 C2187 1.503 . S
C2180 C2179 1.410 . S
C2180 C2181 1.392 . S
C2180 C2183 1.511 . S
C2181 C2177 1.376 . S
C2181 C2180 1.392 . S
C2181 H2193 0.929 . S
C2182 C2178 1.531 . S
C2182 H2194 0.960 . S
C2182 H2195 0.962 . S
C2182 H2196 0.960 . S
C2183 C2180 1.511 . S
C2183 H2197 0.961 . S
C2183 H2198 0.961 . S
C2183 H2199 0.961 . S
C2184 C2185 1.370 . S
C2184 C2186 1.363 . S
C2184 H2200 0.931 . S
C2185 C2184 1.370 . S
C2185 C2189 1.408 . S
C2186 C2184 1.363 . S
C2186 C2187 1.370 . S
C2186 C2190 1.524 . S
C2187 C2179 1.503 . S
C2187 C2186 1.370 . S
C2187 C2188 1.403 . S
C2188 C2187 1.403 . S
C2188 C2189 1.404 . S
C2188 C2191 1.539 . S
C2189 C2185 1.408 . S
C2189 C2188 1.404 . S
C2189 H2201 0.930 . S
C2190 C2186 1.524 . S
C2190 H2202 0.956 . S
C2190 H2203 0.961 . S
C2190 H2204 0.961 . S
C2191 C2188 1.539 . S
C2191 H2205 0.958 . S
C2191 H2206 0.961 . S
C2191 H2207 0.960 . S
H2192 C2176 0.931 . S
H2193 C2181 0.929 . S
H2194 C2182 0.960 . S
H2195 C2182 0.962 . S
H2196 C2182 0.960 . S
H2197 C2183 0.961 . S
H2198 C2183 0.961 . S
H2199 C2183 0.961 . S
H2200 C2184 0.931 . S
H2201 C2189 0.930 . S
H2202 C2190 0.956 . S
H2203 C2190 0.961 . S
H2204 C2190 0.961 . S
H2205 C2191 0.958 . S
H2206 C2191 0.961 . S
H2207 C2191 0.960 . S
C2208 C2209 1.391 . S
C2208 C2210 1.394 . S
C2208 H2224 0.931 . S
C2209 C2208 1.391 . S
C2209 C2213 1.376 . S
C2210 C2208 1.394 . S
C2210 C2211 1.369 . S
C2210 C2214 1.531 . S
C2211 C2210 1.369 . S
C2211 C2212 1.410 . S
C2211 C2219 1.503 . S
C2212 C2211 1.410 . S
C2212 C2213 1.392 . S
C2212 C2215 1.511 . S
C2213 C2209 1.376 . S
C2213 C2212 1.392 . S
C2213 H2225 0.929 . S
C2214 C2210 1.531 . S
C2214 H2226 0.960 . S
C2214 H2227 0.962 . S
C2214 H2228 0.960 . S
C2215 C2212 1.511 . S
C2215 H2229 0.961 . S
C2215 H2230 0.961 . S
C2215 H2231 0.961 . S
C2216 C2217 1.370 . S
C2216 C2218 1.363 . S
C2216 H2232 0.931 . S
C2217 C2216 1.370 . S
C2217 C2221 1.408 . S
C2218 C2216 1.363 . S
C2218 C2219 1.370 . S
C2218 C2222 1.524 . S
C2219 C2211 1.503 . S
C2219 C2218 1.370 . S
C2219 C2220 1.403 . S
C2220 C2219 1.403 . S
C2220 C2221 1.404 . S
C2220 C2223 1.539 . S
C2221 C2217 1.408 . S
C2221 C2220 1.404 . S
C2221 H2233 0.930 . S
C2222 C2218 1.524 . S
C2222 H2234 0.956 . S
C2222 H2235 0.961 . S
C2222 H2236 0.961 . S
C2223 C2220 1.539 . S
C2223 H2237 0.958 . S
C2223 H2238 0.961 . S
C2223 H2239 0.960 . S
H2224 C2208 0.931 . S
H2225 C2213 0.929 . S
H2226 C2214 0.960 . S
H2227 C2214 0.962 . S
H2228 C2214 0.960 . S
H2229 C2215 0.961 . S
H2230 C2215 0.961 . S
H2231 C2215 0.961 . S
H2232 C2216 0.931 . S
H2233 C2221 0.930 . S
H2234 C2222 0.956 . S
H2235 C2222 0.961 . S
H2236 C2222 0.961 . S
H2237 C2223 0.958 . S
H2238 C2223 0.961 . S
H2239 C2223 0.960 . S
C2240 C2241 1.391 . S
C2240 C2242 1.394 . S
C2240 H2256 0.931 . S
C2241 C2240 1.391 . S
C2241 C2245 1.376 . S
C2242 C2240 1.394 . S
C2242 C2243 1.369 . S
C2242 C2246 1.531 . S
C2243 C2242 1.369 . S
C2243 C2244 1.410 . S
C2243 C2251 1.503 . S
C2244 C2243 1.410 . S
C2244 C2245 1.392 . S
C2244 C2247 1.511 . S
C2245 C2241 1.376 . S
C2245 C2244 1.392 . S
C2245 H2257 0.929 . S
C2246 C2242 1.531 . S
C2246 H2258 0.960 . S
C2246 H2259 0.962 . S
C2246 H2260 0.960 . S
C2247 C2244 1.511 . S
C2247 H2261 0.961 . S
C2247 H2262 0.961 . S
C2247 H2263 0.961 . S
C2248 C2249 1.370 . S
C2248 C2250 1.363 . S
C2248 H2264 0.931 . S
C2249 C2248 1.370 . S
C2249 C2253 1.408 . S
C2250 C2248 1.363 . S
C2250 C2251 1.370 . S
C2250 C2254 1.524 . S
C2251 C2243 1.503 . S
C2251 C2250 1.370 . S
C2251 C2252 1.403 . S
C2252 C2251 1.403 . S
C2252 C2253 1.404 . S
C2252 C2255 1.539 . S
C2253 C2249 1.408 . S
C2253 C2252 1.404 . S
C2253 H2265 0.930 . S
C2254 C2250 1.524 . S
C2254 H2266 0.956 . S
C2254 H2267 0.961 . S
C2254 H2268 0.961 . S
C2255 C2252 1.539 . S
C2255 H2269 0.958 . S
C2255 H2270 0.961 . S
C2255 H2271 0.960 . S
H2256 C2240 0.931 . S
H2257 C2245 0.929 . S
H2258 C2246 0.960 . S
H2259 C2246 0.962 . S
H2260 C2246 0.960 . S
H2261 C2247 0.961 . S
H2262 C2247 0.961 . S
H2263 C2247 0.961 . S
H2264 C2248 0.931 . S
H2265 C2253 0.930 . S
H2266 C2254 0.956 . S
H2267 C2254 0.961 . S
H2268 C2254 0.961 . S
H2269 C2255 0.958 . S
H2270 C2255 0.961 . S
H2271 C2255 0.960 . S
C2272 C2273 1.391 . S
C2272 C2274 1.394 . S
C2272 H2288 0.931 . S
C2273 C2272 1.391 . S
C2273 C2277 1.376 . S
C2274 C2272 1.394 . S
C2274 C2275 1.369 . S
C2274 C2278 1.531 . S
C2275 C2274 1.369 . S
C2275 C2276 1.410 . S
C2275 C2283 1.503 . S
C2276 C2275 1.410 . S
C2276 C2277 1.392 . S
C2276 C2279 1.511 . S
C2277 C2273 1.376 . S
C2277 C2276 1.392 . S
C2277 H2289 0.929 . S
C2278 C2274 1.531 . S
C2278 H2290 0.960 . S
C2278 H2291 0.962 . S
C2278 H2292 0.960 . S
C2279 C2276 1.511 . S
C2279 H2293 0.961 . S
C2279 H2294 0.961 . S
C2279 H2295 0.961 . S
C2280 C2281 1.370 . S
C2280 C2282 1.363 . S
C2280 H2296 0.931 . S
C2281 C2280 1.370 . S
C2281 C2285 1.408 . S
C2282 C2280 1.363 . S
C2282 C2283 1.370 . S
C2282 C2286 1.524 . S
C2283 C2275 1.503 . S
C2283 C2282 1.370 . S
C2283 C2284 1.403 . S
C2284 C2283 1.403 . S
C2284 C2285 1.404 . S
C2284 C2287 1.539 . S
C2285 C2281 1.408 . S
C2285 C2284 1.404 . S
C2285 H2297 0.930 . S
C2286 C2282 1.524 . S
C2286 H2298 0.956 . S
C2286 H2299 0.961 . S
C2286 H2300 0.961 . S
C2287 C2284 1.539 . S
C2287 H2301 0.958 . S
C2287 H2302 0.961 . S
C2287 H2303 0.960 . S
H2288 C2272 0.931 . S
H2289 C2277 0.929 . S
H2290 C2278 0.960 . S
H2291 C2278 0.962 . S
H2292 C2278 0.960 . S
H2293 C2279 0.961 . S
H2294 C2279 0.961 . S
H2295 C2279 0.961 . S
H2296 C2280 0.931 . S
H2297 C2285 0.930 . S
H2298 C2286 0.956 . S
H2299 C2286 0.961 . S
H2300 C2286 0.961 . S
H2301 C2287 0.958 . S
H2302 C2287 0.961 . S
H2303 C2287 0.960 . S
C2304 C2305 1.391 . S
C2304 C2306 1.394 . S
C2304 H2320 0.931 . S
C2305 C2304 1.391 . S
C2305 C2309 1.376 . S
C2306 C2304 1.394 . S
C2306 C2307 1.369 . S
C2306 C2310 1.531 . S
C2307 C2306 1.369 . S
C2307 C2308 1.410 . S
C2307 C2315 1.503 . S
C2308 C2307 1.410 . S
C2308 C2309 1.392 . S
C2308 C2311 1.511 . S
C2309 C2305 1.376 . S
C2309 C2308 1.392 . S
C2309 H2321 0.929 . S
C2310 C2306 1.531 . S
C2310 H2322 0.960 . S
C2310 H2323 0.962 . S
C2310 H2324 0.960 . S
C2311 C2308 1.511 . S
C2311 H2325 0.961 . S
C2311 H2326 0.961 . S
C2311 H2327 0.961 . S
C2312 C2313 1.370 . S
C2312 C2314 1.363 . S
C2312 H2328 0.931 . S
C2313 C2312 1.370 . S
C2313 C2317 1.408 . S
C2314 C2312 1.363 . S
C2314 C2315 1.370 . S
C2314 C2318 1.524 . S
C2315 C2307 1.503 . S
C2315 C2314 1.370 . S
C2315 C2316 1.403 . S
C2316 C2315 1.403 . S
C2316 C2317 1.404 . S
C2316 C2319 1.539 . S
C2317 C2313 1.408 . S
C2317 C2316 1.404 . S
C2317 H2329 0.930 . S
C2318 C2314 1.524 . S
C2318 H2330 0.956 . S
C2318 H2331 0.961 . S
C2318 H2332 0.961 . S
C2319 C2316 1.539 . S
C2319 H2333 0.958 . S
C2319 H2334 0.961 . S
C2319 H2335 0.960 . S
H2320 C2304 0.931 . S
H2321 C2309 0.929 . S
H2322 C2310 0.960 . S
H2323 C2310 0.962 . S
H2324 C2310 0.960 . S
H2325 C2311 0.961 . S
H2326 C2311 0.961 . S
H2327 C2311 0.961 . S
H2328 C2312 0.931 . S
H2329 C2317 0.930 . S
H2330 C2318 0.956 . S
H2331 C2318 0.961 . S
H2332 C2318 0.961 . S
H2333 C2319 0.958 . S
H2334 C2319 0.961 . S
H2335 C2319 0.960 . S
C2336 C2337 1.391 . S
C2336 C2338 1.394 . S
C2336 H2352 0.931 . S
C2337 C2336 1.391 . S
C2337 C2341 1.376 . S
C2338 C2336 1.394 . S
C2338 C2339 1.369 . S
C2338 C2342 1.531 . S
C2339 C2338 1.369 . S
C2339 C2340 1.410 . S
C2339 C2347 1.503 . S
C2340 C2339 1.410 . S
C2340 C2341 1.392 . S
C2340 C2343 1.511 . S
C2341 C2337 1.376 . S
C2341 C2340 1.392 . S
C2341 H2353 0.929 . S
C2342 C2338 1.531 . S
C2342 H2354 0.960 . S
C2342 H2355 0.962 . S
C2342 H2356 0.960 . S
C2343 C2340 1.511 . S
C2343 H2357 0.961 . S
C2343 H2358 0.961 . S
C2343 H2359 0.961 . S
C2344 C2345 1.370 . S
C2344 C2346 1.363 . S
C2344 H2360 0.931 . S
C2345 C2344 1.370 . S
C2345 C2349 1.408 . S
C2346 C2344 1.363 . S
C2346 C2347 1.370 . S
C2346 C2350 1.524 . S
C2347 C2339 1.503 . S
C2347 C2346 1.370 . S
C2347 C2348 1.403 . S
C2348 C2347 1.403 . S
C2348 C2349 1.404 . S
C2348 C2351 1.539 . S
C2349 C2345 1.408 . S
C2349 C2348 1.404 . S
C2349 H2361 0.930 . S
C2350 C2346 1.524 . S
C2350 H2362 0.956 . S
C2350 H2363 0.961 . S
C2350 H2364 0.961 . S
C2351 C2348 1.539 . S
C2351 H2365 0.958 . S
C2351 H2366 0.961 . S
C2351 H2367 0.960 . S
H2352 C2336 0.931 . S
H2353 C2341 0.929 . S
H2354 C2342 0.960 . S
H2355 C2342 0.962 . S
H2356 C2342 0.960 . S
H2357 C2343 0.961 . S
H2358 C2343 0.961 . S
H2359 C2343 0.961 . S
H2360 C2344 0.931 . S
H2361 C2349 0.930 . S
H2362 C2350 0.956 . S
H2363 C2350 0.961 . S
H2364 C2350 0.961 . S
H2365 C2351 0.958 . S
H2366 C2351 0.961 . S
H2367 C2351 0.960 . S
C2368 C2369 1.391 . S
C2368 C2370 1.394 . S
C2368 H2384 0.931 . S
C2369 C2368 1.391 . S
C2369 C2373 1.376 . S
C2370 C2368 1.394 . S
C2370 C2371 1.369 . S
C2370 C2374 1.531 . S
C2371 C2370 1.369 . S
C2371 C2372 1.410 . S
C2371 C2379 1.503 . S
C2372 C2371 1.410 . S
C2372 C2373 1.392 . S
C2372 C2375 1.511 . S
C2373 C2369 1.376 . S
C2373 C2372 1.392 . S
C2373 H2385 0.929 . S
C2374 C2370 1.531 . S
C2374 H2386 0.960 . S
C2374 H2387 0.962 . S
C2374 H2388 0.960 . S
C2375 C2372 1.511 . S
C2375 H2389 0.961 . S
C2375 H2390 0.961 . S
C2375 H2391 0.961 . S
C2376 C2377 1.370 . S
C2376 C2378 1.363 . S
C2376 H2392 0.931 . S
C2377 C2376 1.370 . S
C2377 C2381 1.408 . S
C2378 C2376 1.363 . S
C2378 C2379 1.370 . S
C2378 C2382 1.524 . S
C2379 C2371 1.503 . S
C2379 C2378 1.370 . S
C2379 C2380 1.403 . S
C2380 C2379 1.403 . S
C2380 C2381 1.404 . S
C2380 C2383 1.539 . S
C2381 C2377 1.408 . S
C2381 C2380 1.404 . S
C2381 H2393 0.930 . S
C2382 C2378 1.524 . S
C2382 H2394 0.956 . S
C2382 H2395 0.961 . S
C2382 H2396 0.961 . S
C2383 C2380 1.539 . S
C2383 H2397 0.958 . S
C2383 H2398 0.961 . S
C2383 H2399 0.960 . S
H2384 C2368 0.931 . S
H2385 C2373 0.929 . S
H2386 C2374 0.960 . S
H2387 C2374 0.962 . S
H2388 C2374 0.960 . S
H2389 C2375 0.961 . S
H2390 C2375 0.961 . S
H2391 C2375 0.961 . S
H2392 C2376 0.931 . S
H2393 C2381 0.930 . S
H2394 C2382 0.956 . S
H2395 C2382 0.961 . S
H2396 C2382 0.961 . S
H2397 C2383 0.958 . S
H2398 C2383 0.961 . S
H2399 C2383 0.960 . S
C2400 C2401 1.391 . S
C2400 C2402 1.394 . S
C2400 H2416 0.931 . S
C2401 C2400 1.391 . S
C2401 C2405 1.376 . S
C2402 C2400 1.394 . S
C2402 C2403 1.369 . S
C2402 C2406 1.531 . S
C2403 C2402 1.369 . S
C2403 C2404 1.410 . S
C2403 C2411 1.503 . S
C2404 C2403 1.410 . S
C2404 C2405 1.392 . S
C2404 C2407 1.511 . S
C2405 C2401 1.376 . S
C2405 C2404 1.392 . S
C2405 H2417 0.929 . S
C2406 C2402 1.531 . S
C2406 H2418 0.960 . S
C2406 H2419 0.962 . S
C2406 H2420 0.960 . S
C2407 C2404 1.511 . S
C2407 H2421 0.961 . S
C2407 H2422 0.961 . S
C2407 H2423 0.961 . S
C2408 C2409 1.370 . S
C2408 C2410 1.363 . S
C2408 H2424 0.931 . S
C2409 C2408 1.370 . S
C2409 C2413 1.408 . S
C2410 C2408 1.363 . S
C2410 C2411 1.370 . S
C2410 C2414 1.524 . S
C2411 C2403 1.503 . S
C2411 C2410 1.370 . S
C2411 C2412 1.403 . S
C2412 C2411 1.403 . S
C2412 C2413 1.404 . S
C2412 C2415 1.539 . S
C2413 C2409 1.408 . S
C2413 C2412 1.404 . S
C2413 H2425 0.930 . S
C2414 C2410 1.524 . S
C2414 H2426 0.956 . S
C2414 H2427 0.961 . S
C2414 H2428 0.961 . S
C2415 C2412 1.539 . S
C2415 H2429 0.958 . S
C2415 H2430 0.961 . S
C2415 H2431 0.960 . S
H2416 C2400 0.931 . S
H2417 C2405 0.929 . S
H2418 C2406 0.960 . S
H2419 C2406 0.962 . S
H2420 C2406 0.960 . S
H2421 C2407 0.961 . S
H2422 C2407 0.961 . S
H2423 C2407 0.961 . S
H2424 C2408 0.931 . S
H2425 C2413 0.930 . S
H2426 C2414 0.956 . S
H2427 C2414 0.961 . S
H2428 C2414 0.961 . S
H2429 C2415 0.958 . S
H2430 C2415 0.961 . S
H2431 C2415 0.960 . S
C2432 C2433 1.391 . S
C2432 C2434 1.394 . S
C2432 H2448 0.931 . S
C2433 C2432 1.391 . S
C2433 C2437 1.376 . S
C2434 C2432 1.394 . S
C2434 C2435 1.369 . S
C2434 C2438 1.531 . S
C2435 C2434 1.369 . S
C2435 C2436 1.410 . S
C2435 C2443 1.503 . S
C2436 C2435 1.410 . S
C2436 C2437 1.392 . S
C2436 C2439 1.511 . S
C2437 C2433 1.376 . S
C2437 C2436 1.392 . S
C2437 H2449 0.929 . S
C2438 C2434 1.531 . S
C2438 H2450 0.960 . S
C2438 H2451 0.962 . S
C2438 H2452 0.960 . S
C2439 C2436 1.511 . S
C2439 H2453 0.961 . S
C2439 H2454 0.961 . S
C2439 H2455 0.961 . S
C2440 C2441 1.370 . S
C2440 C2442 1.363 . S
C2440 H2456 0.931 . S
C2441 C2440 1.370 . S
C2441 C2445 1.408 . S
C2442 C2440 1.363 . S
C2442 C2443 1.370 . S
C2442 C2446 1.524 . S
C2443 C2435 1.503 . S
C2443 C2442 1.370 . S
C2443 C2444 1.403 . S
C2444 C2443 1.403 . S
C2444 C2445 1.404 . S
C2444 C2447 1.539 . S
C2445 C2441 1.408 . S
C2445 C2444 1.404 . S
C2445 H2457 0.930 . S
C2446 C2442 1.524 . S
C2446 H2458 0.956 . S
C2446 H2459 0.961 . S
C2446 H2460 0.961 . S
C2447 C2444 1.539 . S
C2447 H2461 0.958 . S
C2447 H2462 0.961 . S
C2447 H2463 0.960 . S
H2448 C2432 0.931 . S
H2449 C2437 0.929 . S
H2450 C2438 0.960 . S
H2451 C2438 0.962 . S
H2452 C2438 0.960 . S
H2453 C2439 0.961 . S
H2454 C2439 0.961 . S
H2455 C2439 0.961 . S
H2456 C2440 0.931 . S
H2457 C2445 0.930 . S
H2458 C2446 0.956 . S
H2459 C2446 0.961 . S
H2460 C2446 0.961 . S
H2461 C2447 0.958 . S
H2462 C2447 0.961 . S
H2463 C2447 0.960 . S
C2464 C2465 1.391 . S
C2464 C2466 1.394 . S
C2464 H2480 0.931 . S
C2465 C2464 1.391 . S
C2465 C2469 1.376 . S
C2466 C2464 1.394 . S
C2466 C2467 1.369 . S
C2466 C2470 1.531 . S
C2467 C2466 1.369 . S
C2467 C2468 1.410 . S
C2467 C2475 1.503 . S
C2468 C2467 1.410 . S
C2468 C2469 1.392 . S
C2468 C2471 1.511 . S
C2469 C2465 1.376 . S
C2469 C2468 1.392 . S
C2469 H2481 0.929 . S
C2470 C2466 1.531 . S
C2470 H2482 0.960 . S
C2470 H2483 0.962 . S
C2470 H2484 0.960 . S
C2471 C2468 1.511 . S
C2471 H2485 0.961 . S
C2471 H2486 0.961 . S
C2471 H2487 0.961 . S
C2472 C2473 1.370 . S
C2472 C2474 1.363 . S
C2472 H2488 0.931 . S
C2473 C2472 1.370 . S
C2473 C2477 1.408 . S
C2474 C2472 1.363 . S
C2474 C2475 1.370 . S
C2474 C2478 1.524 . S
C2475 C2467 1.503 . S
C2475 C2474 1.370 . S
C2475 C2476 1.403 . S
C2476 C2475 1.403 . S
C2476 C2477 1.404 . S
C2476 C2479 1.539 . S
C2477 C2473 1.408 . S
C2477 C2476 1.404 . S
C2477 H2489 0.930 . S
C2478 C2474 1.524 . S
C2478 H2490 0.956 . S
C2478 H2491 0.961 . S
C2478 H2492 0.961 . S
C2479 C2476 1.539 . S
C2479 H2493 0.958 . S
C2479 H2494 0.961 . S
C2479 H2495 0.960 . S
H2480 C2464 0.931 . S
H2481 C2469 0.929 . S
H2482 C2470 0.960 . S
H2483 C2470 0.962 . S
H2484 C2470 0.960 . S
H2485 C2471 0.961 . S
H2486 C2471 0.961 . S
H2487 C2471 0.961 . S
H2488 C2472 0.931 . S
H2489 C2477 0.930 . S
H2490 C2478 0.956 . S
H2491 C2478 0.961 . S
H2492 C2478 0.961 . S
H2493 C2479 0.958 . S
H2494 C2479 0.961 . S
H2495 C2479 0.960 . S
C449 C411 1.558 . S
C457 C5 1.562 . S
C481 C19 1.555 . S
C489 C425 1.561 . S
C513 C439 1.563 . S
C521 C33 1.564 . S
C545 C397 1.560 . S
C553 C47 1.564 . S
C577 C61 1.561 . S
C585 C383 1.563 . S
C609 C341 1.554 . S
C617 C75 1.561 . S
C641 C89 1.557 . S
C649 C355 1.562 . S
C673 C369 1.563 . S
C681 C103 1.565 . S
C705 C117 1.558 . S
C713 C299 1.562 . S
C737 C131 1.557 . S
C745 C313 1.562 . S
C769 C327 1.559 . S
C777 C145 1.563 . S
C801 C159 1.555 . S
C809 C285 1.561 . S
C833 C271 1.559 . S
C841 C173 1.563 . S
C865 C229 1.556 . S
C873 C187 1.561 . S
C897 C201 1.561 . S
C905 C243 1.564 . S
C929 C215 1.559 . S
C937 C257 1.563 . S
C961 C0 1.403 . S
C969 C140 1.399 . S
C993 C154 1.403 . S
C1001 C14 1.402 . S
C1025 C112 1.415 . S
C1033 C28 1.405 . S
C1057 C126 1.381 . S
C1065 C42 1.390 . S
C1089 C56 1.411 . S
C1097 C196 1.404 . S
C1121 C210 1.378 . S
C1129 C70 1.389 . S
C1153 C168 1.381 . S
C1161 C84 1.393 . S
C1185 C182 1.371 . S
C1193 C98 1.388 . S
C1217 C224 1.410 . S
C1225 C364 1.402 . S
C1249 C378 1.391 . S
C1257 C238 1.397 . S
C1281 C336 1.372 . S
C1289 C252 1.387 . S
C1313 C266 1.380 . S
C1321 C350 1.390 . S
C1345 C280 1.370 . S
C1353 C420 1.387 . S
C1377 C434 1.374 . S
C1385 C294 1.388 . S
C1409 C392 1.374 . S
C1417 C308 1.389 . S
C1441 C322 1.374 . S
C1449 C406 1.387 . S
C1473 C11 1.492 . S
C1481 C67 1.484 . S
C1505 C25 1.502 . S
C1513 C81 1.489 . S
C1537 C95 1.473 . S
C1545 C39 1.492 . S
C1569 C53 1.470 . S
C1577 C109 1.496 . S
C1601 C123 1.470 . S
C1609 C179 1.493 . S
C1633 C193 1.498 . S
C1641 C137 1.494 . S
C1665 C207 1.470 . S
C1673 C151 1.496 . S
C1697 C165 1.496 . S
C1705 C221 1.484 . S
C1729 C235 1.499 . S
C1737 C291 1.484 . S
C1761 C305 1.504 . S
C1769 C249 1.486 . S
C1793 C263 1.477 . S
C1801 C319 1.498 . S
C1825 C333 1.504 . S
C1833 C277 1.486 . S
C1857 C403 1.504 . S
C1865 C347 1.486 . S
C1889 C361 1.487 . S
C1897 C417 1.484 . S
C1921 C375 1.504 . S
C1929 C431 1.486 . S
C1953 C389 1.470 . S
C1961 C445 1.493 . S
C1985 C9 1.396 . S
C1993 C79 1.395 . S
C2017 C23 1.396 . S
C2025 C93 1.398 . S
C2049 C107 1.398 . S
C2057 C37 1.397 . S
C2081 C65 1.397 . S
C2089 C51 1.396 . S
C2113 C191 1.387 . S
C2121 C121 1.396 . S
C2145 C205 1.396 . S
C2153 C135 1.398 . S
C2177 C219 1.398 . S
C2185 C149 1.397 . S
C2209 C163 1.393 . S
C2217 C177 1.394 . S
C2241 C233 1.386 . S
C2249 C303 1.395 . S
C2273 C317 1.386 . S
C2281 C247 1.394 . S
C2305 C331 1.395 . S
C2313 C261 1.395 . S
C2337 C275 1.397 . S
C2345 C289 1.398 . S
C2369 C415 1.392 . S
C2377 C345 1.393 . S
C2401 C359 1.387 . S
C2409 C429 1.394 . S
C2433 C373 1.396 . S
C2441 C443 1.395 . S
C2465 C401 1.396 . S
C2473 C387 1.394 . S
