# Generated by pormake.
# Topology sxc, (6)-cn, num edge types: 1
# Building blocks:
#     Node 0, Type 0, BuildingBlock: CUKXOW_clean_sbu_0, # of connection points: 6
#     Node 1, Type 0, BuildingBlock: CUKXOW_clean_sbu_0, # of connection points: 6
#     Node 2, Type 0, BuildingBlock: CUKXOW_clean_sbu_0, # of connection points: 6
#     Edge 3, Type (0, 0), BuildingBlock: XUDNAN_clean_linker_2, # of connection points: 2
#     Edge 4, Type (0, 0), BuildingBlock: XUDNAN_clean_linker_2, # of connection points: 2
#     Edge 5, Type (0, 0), BuildingBlock: XUDNAN_clean_linker_2, # of connection points: 2
#     Edge 6, Type (0, 0), BuildingBlock: XUDNAN_clean_linker_2, # of connection points: 2
#     Edge 7, Type (0, 0), BuildingBlock: XUDNAN_clean_linker_2, # of connection points: 2
#     Edge 8, Type (0, 0), BuildingBlock: XUDNAN_clean_linker_2, # of connection points: 2
#     Edge 9, Type (0, 0), BuildingBlock: XUDNAN_clean_linker_2, # of connection points: 2
#     Edge 10, Type (0, 0), BuildingBlock: XUDNAN_clean_linker_2, # of connection points: 2
#     Edge 11, Type (0, 0), BuildingBlock: XUDNAN_clean_linker_2, # of connection points: 2
# Relax obj value: 0.039
# Max RMSD: 0.097
# Mean RMSD: 0.061
data_MOF--net-sxc--node1-CUKXOW_clean_sbu_0--edge1-XUDNAN_clean_linker_2
_symmetry_space_group_name_H-M    P1
_symmetry_Int_Tables_number       1
_symmetry_cell_setting            triclinic
loop_
_symmetry_equiv_pos_as_xyz
'x, y, z'
_cell_length_a     14.413835
_cell_length_b     17.423998
_cell_length_c     45.707759
_cell_angle_alpha  88.043435
_cell_angle_beta   101.62578
_cell_angle_gamma 125.77593
loop_
_atom_site_label
_atom_site_type_symbol
_atom_site_fract_x
_atom_site_fract_y
_atom_site_fract_z
_atom_type_partial_charge
Tb0 Tb 1.05898 0.16408 0.01292 0.0
C1 C 0.15261 0.10483 0.07049 0.0
Tb2 Tb 0.18605 0.069 0.00646 0.0
O3 O 0.88207 1.03342 0.01152 0.0
O4 O 1.01406 1.02382 0.0081 0.0
O5 O 0.12242 0.16128 0.06005 0.0
C6 C 0.19316 0.92377 0.99591 0.0
O7 O 0.16945 0.05612 0.05311 0.0
C8 C 0.33393 0.26121 0.01024 0.0
C9 C 0.09566 0.13193 0.94935 0.0
O10 O 0.25042 0.98309 0.02024 0.0
O11 O 0.13678 0.94905 0.97755 0.0
O12 O 0.36523 0.20526 0.00768 0.0
O13 O 0.22679 0.20507 0.01118 0.0
O14 O 0.12072 0.07264 0.95964 0.0
O15 O 0.08297 0.18279 0.96689 0.0
C16 C 1.01881 0.29453 0.01345 0.0
O17 O 0.96418 0.22163 0.99353 0.0
O18 O 0.09423 0.2924 0.03393 0.0
C19 C 0.90547 0.97273 0.00862 0.0
Tb20 Tb 0.16302 0.14448 0.34415 0.0
C21 C 0.10869 1.03609 0.28286 0.0
Tb22 Tb 1.0456 0.92974 0.34061 0.0
O23 O 0.3296 0.17735 0.33668 0.0
O24 O 0.21747 0.05575 0.35563 0.0
O25 O 0.11851 0.10845 0.29567 0.0
C26 C 1.01858 0.76633 0.34592 0.0
O27 O 0.09414 0.9643 0.29758 0.0
C28 C 0.8794 0.95777 0.33234 0.0
C29 C 0.10791 0.03896 0.40261 0.0
O30 O 1.03688 0.81123 0.32207 0.0
O31 O 1.01339 0.81258 0.36629 0.0
O32 O 0.86031 0.87515 0.3313 0.0
O33 O 0.98929 1.01868 0.33624 0.0
O34 O 0.09589 0.96747 0.38861 0.0
O35 O 0.12361 0.1127 0.38882 0.0
C36 C 0.20038 0.31139 0.34891 0.0
O37 O 0.25257 0.28438 0.36824 0.0
O38 O 0.12913 0.24523 0.32683 0.0
C39 C 0.30827 0.09739 0.34501 0.0
Tb40 Tb 0.11299 0.20017 0.66938 0.0
C41 C 0.08092 0.13603 0.73377 0.0
Tb42 Tb 1.05208 1.02791 0.67897 0.0
O43 O 0.9423 0.1544 0.643 0.0
O44 O 0.95111 0.08151 0.6787 0.0
O45 O 0.14456 0.2085 0.71878 0.0
C46 C 0.98037 0.84788 0.67878 0.0
O47 O 1.01295 0.04941 0.7198 0.0
C48 C 0.28314 0.15059 0.69345 0.0
C49 C 0.07738 0.0847 0.61422 0.0
O50 O 1.05966 0.91599 0.6994 0.0
O51 O 0.93728 0.88071 0.65913 0.0
O52 O 0.21874 0.08759 0.70969 0.0
O53 O 0.21588 0.14768 0.67027 0.0
O54 O 1.02086 1.01364 0.63021 0.0
O55 O 0.13957 0.17266 0.62684 0.0
C56 C 0.22676 0.38901 0.67693 0.0
O57 O 0.17648 0.33644 0.65145 0.0
O58 O 0.20711 0.33291 0.69769 0.0
C59 C 0.88096 0.08608 0.6585 0.0
H60 H 0.14868 0.46418 0.04926 0.0
H61 H 0.89118 0.31363 0.96564 0.0
H62 H 0.91633 0.46138 0.95158 0.0
H63 H 1.05826 0.6191 0.06131 0.0
H64 H 0.20671 0.71929 0.07729 0.0
H65 H 0.1631 0.60001 0.08153 0.0
H66 H 0.333 0.6372 0.0579 0.0
H67 H 0.37532 0.75586 0.053 0.0
H68 H 0.34116 0.67846 0.02117 0.0
H69 H 0.98389 0.62557 0.94386 0.0
H70 H 1.05947 0.79406 0.94725 0.0
H71 H 0.26611 0.83987 0.03699 0.0
C72 C 0.09568 0.46211 0.02837 0.0
C73 C 1.01815 0.37791 0.00847 0.0
C74 C 0.95081 0.37755 0.9812 0.0
C75 C 0.96505 0.46115 0.97292 0.0
C76 C 1.04575 0.54393 0.99237 0.0
C77 C 0.10755 0.5449 0.0199 0.0
C78 C 0.18766 0.64395 0.0366 0.0
C79 C 0.15175 0.64567 0.06592 0.0
C80 C 0.31697 0.68103 0.04253 0.0
C81 C 0.16251 0.69845 0.01386 0.0
C82 C 0.08156 0.63921 0.98838 0.0
C83 C 1.04621 0.67264 0.96381 0.0
C84 C 0.09031 0.76854 0.96589 0.0
C85 C 0.16826 0.82954 0.9924 0.0
C86 C 0.20698 0.79465 0.01644 0.0
H87 H 0.53148 0.19573 0.3327 0.0
H88 H 0.25706 0.92489 0.35737 0.0
H89 H 0.37261 0.86358 0.35564 0.0
H90 H 0.62185 0.10562 0.28291 0.0
H91 H 0.77678 0.19839 0.29522 0.0
H92 H 0.67196 0.22199 0.29727 0.0
H93 H 0.7625 0.27732 0.35393 0.0
H94 H 0.86765 0.25405 0.35194 0.0
H95 H 0.77496 0.19905 0.37847 0.0
H96 H 0.51051 0.82835 0.34971 0.0
H97 H 0.67095 0.8219 0.34403 0.0
H98 H 0.87452 0.11898 0.32716 0.0
C99 C 0.49602 0.12352 0.3377 0.0
C100 C 0.38324 0.06416 0.34463 0.0
C101 C 0.3412 0.97083 0.35145 0.0
C102 C 0.40688 0.9356 0.35066 0.0
C103 C 0.51673 0.99518 0.34364 0.0
C104 C 0.56251 0.08767 0.33769 0.0
C105 C 0.68549 0.13662 0.3318 0.0
C106 C 0.68918 0.16745 0.2999 0.0
C107 C 0.77812 0.2218 0.35545 0.0
C108 C 0.70055 0.0566 0.33512 0.0
C109 C 0.60084 0.97586 0.34168 0.0
C110 C 0.5894 0.89133 0.34488 0.0
C111 C 0.68172 0.88854 0.34149 0.0
C112 C 0.7866 0.96982 0.33527 0.0
C113 C 0.7963 0.05569 0.33214 0.0
H114 H 0.83018 0.70028 0.63659 0.0
H115 H 0.97634 0.77384 0.73214 0.0
H116 H 0.78242 0.65352 0.74204 0.0
H117 H 0.62537 0.71028 0.63425 0.0
H118 H 0.50495 0.61102 0.60785 0.0
H119 H 0.65293 0.66116 0.60584 0.0
H120 H 0.6251 0.50121 0.61205 0.0
H121 H 0.47265 0.44694 0.61074 0.0
H122 H 0.559 0.43227 0.64164 0.0
H123 H 0.57632 0.58478 0.74095 0.0
H124 H 0.36173 0.4998 0.72973 0.0
H125 H 0.3499 0.48093 0.63449 0.0
C126 C 0.82236 0.68464 0.65948 0.0
C127 C 0.91405 0.74787 0.68359 0.0
C128 C 0.90472 0.72669 0.7134 0.0
C129 C 0.79431 0.65946 0.71922 0.0
C130 C 0.69885 0.6123 0.69478 0.0
C131 C 0.71211 0.61897 0.66537 0.0
C132 C 0.59568 0.57367 0.64319 0.0
C133 C 0.59494 0.64329 0.62155 0.0
C134 C 0.56101 0.48311 0.62591 0.0
C135 C 0.51801 0.55016 0.66465 0.0
C136 C 0.5787 0.57227 0.69423 0.0
C137 C 0.52658 0.56284 0.71792 0.0
C138 C 0.40562 0.51772 0.71128 0.0
C139 C 0.33995 0.4814 0.68136 0.0
C140 C 0.3981 0.50666 0.65763 0.0
H141 H 0.72655 0.11682 0.62387 0.0
H142 H 0.80868 1.03661 0.71105 0.0
H143 H 0.68266 0.06546 0.7298 0.0
H144 H 0.71247 0.29867 0.64849 0.0
H145 H 0.58554 0.26817 0.62032 0.0
H146 H 0.68042 0.23989 0.61231 0.0
H147 H 0.50507 0.062 0.59899 0.0
H148 H 0.40915 0.09046 0.60589 0.0
H149 H 0.41352 1.00062 0.62544 0.0
H150 H 0.57343 0.12385 0.74154 0.0
H151 H 0.42702 0.15404 0.74173 0.0
H152 H 0.38957 0.17717 0.64582 0.0
C153 C 0.71525 0.10282 0.64663 0.0
C154 C 0.7793 0.07589 0.6661 0.0
C155 C 0.76176 0.05791 0.6957 0.0
C156 C 0.69126 0.0752 0.70673 0.0
C157 C 0.63569 0.10758 0.68765 0.0
C158 C 0.64184 0.11696 0.65786 0.0
C159 C 0.56602 0.14694 0.64193 0.0
C160 C 0.64061 0.24419 0.63006 0.0
C161 C 0.46757 0.07043 0.61657 0.0
C162 C 0.51759 0.15354 0.66761 0.0
C163 C 0.56263 0.13347 0.6939 0.0
C164 C 0.53542 0.13768 0.721 0.0
C165 C 0.45312 0.15596 0.72092 0.0
C166 C 0.39601 0.16679 0.69378 0.0
C167 C 0.43226 0.16967 0.66693 0.0
H168 H 0.91748 0.8111 0.01087 0.0
H169 H 0.67635 0.88783 0.00299 0.0
H170 H 0.51381 0.7215 0.00258 0.0
H171 H 0.70317 0.58061 0.96207 0.0
H172 H 0.75334 0.51882 0.98429 0.0
H173 H 0.85284 0.64541 0.9831 0.0
H174 H 0.8976 0.66825 0.041 0.0
H175 H 0.7948 0.54201 0.04205 0.0
H176 H 0.77876 0.62338 0.0597 0.0
H177 H 0.37152 0.54764 0.00386 0.0
H178 H 0.25912 0.37421 0.0052 0.0
H179 H 0.57706 0.39388 0.01258 0.0
C180 C 0.83043 0.79273 0.0089 0.0
C181 C 0.81218 0.86548 0.00702 0.0
C182 C 0.69551 0.83608 0.00458 0.0
C183 C 0.60102 0.74059 0.00436 0.0
C184 C 0.62109 0.67148 0.00658 0.0
C185 C 0.73234 0.69524 0.00863 0.0
C186 C 0.72573 0.60381 0.01057 0.0
C187 C 0.76079 0.58601 0.98338 0.0
C188 C 0.80387 0.60975 0.0401 0.0
C189 C 0.59469 0.5268 0.00972 0.0
C190 C 0.53687 0.56857 0.0073 0.0
C191 C 0.41624 0.51431 0.00589 0.0
C192 C 0.35251 0.41511 0.00692 0.0
C193 C 0.40758 0.36871 0.00956 0.0
C194 C 0.53129 0.42628 0.0108 0.0
H195 H 0.13065 0.39174 0.30722 0.0
H196 H 0.26025 0.40849 0.40278 0.0
H197 H 0.21846 0.52306 0.41256 0.0
H198 H 0.24794 0.64388 0.30613 0.0
H199 H 0.12319 0.61736 0.27786 0.0
H200 H 0.16979 0.54114 0.2789 0.0
H201 H 0.95964 0.39646 0.28184 0.0
H202 H 0.91352 0.47281 0.28161 0.0
H203 H 0.89687 0.39937 0.31176 0.0
H204 H 0.14356 0.62104 0.41199 0.0
H205 H 0.07644 0.72284 0.40081 0.0
H206 H 1.00705 0.64891 0.30532 0.0
C207 C 0.15266 0.4214 0.33012 0.0
C208 C 0.1987 0.39237 0.35431 0.0
C209 C 0.2261 0.43141 0.38402 0.0
C210 C 0.20158 0.49545 0.38977 0.0
C211 C 0.15175 0.51998 0.36545 0.0
C212 C 0.13059 0.48627 0.33617 0.0
C213 C 0.07775 0.5244 0.31405 0.0
C214 C 0.15958 0.58534 0.293 0.0
C215 C 0.95467 0.44342 0.29627 0.0
C216 C 0.07159 0.58436 0.3355 0.0
C217 C 0.11276 0.57947 0.36505 0.0
C218 C 0.11245 0.62649 0.38896 0.0
C219 C 0.07317 0.68319 0.38239 0.0
C220 C 1.03705 0.6931 0.35223 0.0
C221 C 1.03428 0.64199 0.32854 0.0
H222 H 0.09173 0.14385 0.23912 0.0
H223 H 0.15751 0.93084 0.25585 0.0
H224 H 0.18404 0.93172 0.20439 0.0
H225 H 0.92555 0.04835 0.16317 0.0
H226 H 0.98344 0.16285 0.14944 0.0
H227 H 0.97358 0.14885 0.18816 0.0
H228 H 0.19571 0.28441 0.20503 0.0
H229 H 0.20635 0.29853 0.16633 0.0
H230 H 0.29962 0.27639 0.19172 0.0
H231 H 0.20285 0.95352 0.15173 0.0
H232 H 0.20218 0.98864 0.09924 0.0
H233 H 0.11998 0.18529 0.11493 0.0
C234 C 0.11207 0.0977 0.23195 0.0
C235 C 0.1223 1.03718 0.25157 0.0
C236 C 0.14826 0.97734 0.24125 0.0
C237 C 0.16422 0.97763 0.21207 0.0
C238 C 0.15347 1.03778 0.19331 0.0
C239 C 0.12725 0.09632 0.20263 0.0
C240 C 0.11672 0.15145 0.17735 0.0
C241 C 0.99242 0.12634 0.16904 0.0
C242 C 0.21019 0.25908 0.18561 0.0
C243 C 0.14061 0.11419 0.15246 0.0
C244 C 0.16254 0.04934 0.16236 0.0
C245 C 0.1859 1.00424 0.14364 0.0
C246 C 0.18539 1.02491 0.1138 0.0
C247 C 0.16095 0.0898 0.10278 0.0
C248 C 0.13931 0.13558 0.12258 0.0
H249 H 0.16749 0.17996 0.44519 0.0
H250 H 1.02746 0.88156 0.43222 0.0
H251 H 1.00718 0.86408 0.48437 0.0
H252 H 0.33465 0.2229 0.52188 0.0
H253 H 0.3052 0.30163 0.53481 0.0
H254 H 0.31006 0.293 0.49604 0.0
H255 H 0.10118 0.25065 0.47926 0.0
H256 H 0.09565 0.25907 0.51796 0.0
H257 H 0.98282 0.15147 0.49358 0.0
H258 H 0.99506 0.87419 0.53645 0.0
H259 H 0.99908 0.9138 0.58789 0.0
H260 H 0.1524 0.20702 0.56998 0.0
C261 C 0.13284 0.11115 0.4534 0.0
C262 C 0.09942 1.03229 0.43449 0.0
C263 C 1.05462 0.94342 0.44614 0.0
C264 C 1.0423 0.93243 0.47581 0.0
C265 C 0.07583 1.011 0.4938 0.0
C266 C 0.12092 0.0989 0.48333 0.0
C267 C 0.15078 0.17129 0.50798 0.0
C268 C 0.28304 0.25198 0.51562 0.0
C269 C 0.07826 0.2104 0.49916 0.0
C270 C 0.11404 0.10959 0.53365 0.0
C271 C 0.07086 1.01741 0.52472 0.0
C272 C 1.02911 0.94619 0.54385 0.0
C273 C 1.0315 0.9695 0.57304 0.0
C274 C 0.076 0.06351 0.58302 0.0
C275 C 0.11829 0.13464 0.56303 0.0
H276 H 1.03491 1.012 0.77642 0.0
H277 H 0.13589 0.29661 0.76271 0.0
H278 H 0.14127 0.32362 0.81601 0.0
H279 H 0.85361 0.95876 0.82932 0.0
H280 H 0.90324 0.89746 0.85204 0.0
H281 H 0.90058 0.89853 0.81246 0.0
H282 H 0.12128 0.9686 0.82417 0.0
H283 H 0.1246 0.96757 0.86376 0.0
H284 H 0.22526 0.07671 0.8491 0.0
H285 H 0.13352 0.31869 0.87055 0.0
H286 H 0.13128 0.2883 0.92365 0.0
H287 H 1.04812 1.01061 0.90255 0.0
C288 C 1.0571 0.07966 0.78462 0.0
C289 C 0.08399 0.15205 0.76551 0.0
C290 C 0.11493 0.24032 0.77707 0.0
C291 C 0.11771 0.2561 0.80723 0.0
C292 C 0.09094 0.18331 0.82554 0.0
C293 C 1.06262 0.09725 0.81478 0.0
C294 C 1.04428 1.03293 0.83956 0.0
C295 C 0.9179 0.94152 0.83294 0.0
C296 C 0.13423 1.01016 0.84443 0.0
C297 C 1.06661 0.09624 0.86593 0.0
C298 C 0.09177 0.18212 0.85727 0.0
C299 C 0.11424 0.25182 0.87762 0.0
C300 C 0.11228 0.23372 0.9077 0.0
C301 C 0.08975 0.1472 0.91722 0.0
C302 C 1.06621 0.07761 0.89595 0.0
loop_
_geom_bond_atom_site_label_1
_geom_bond_atom_site_label_2
_geom_bond_distance
_geom_bond_site_symmetry_2
_ccdc_geom_bond_type
Tb0 O3 2.452 1_545 S
Tb0 O4 2.596 1_545 S
Tb0 O5 2.374 1_655 S
Tb0 O13 2.343 1_655 S
Tb0 O15 2.353 1_554 S
Tb0 O17 2.427 1_654 S
Tb0 O18 2.513 1_655 S
C1 O5 1.251 . S
C1 O7 1.263 . S
Tb2 O4 2.343 1_445 S
Tb2 O7 2.353 . S
Tb2 O10 2.427 1_545 S
Tb2 O11 2.513 1_544 S
Tb2 O12 2.453 . S
Tb2 O13 2.596 . S
Tb2 O14 2.374 1_554 S
O3 Tb0 2.452 1_565 S
O3 C19 1.250 . S
O4 Tb0 2.596 1_565 S
O4 Tb2 2.343 1_665 S
O4 C19 1.259 . S
O5 Tb0 2.374 1_455 S
O5 C1 1.251 . S
C6 O10 1.275 . S
C6 O11 1.246 1_554 S
O7 C1 1.263 . S
O7 Tb2 2.353 . S
C8 O12 1.245 . S
C8 O13 1.259 . S
C9 O14 1.250 . S
C9 O15 1.263 1_455 S
O10 Tb2 2.427 1_565 S
O10 C6 1.275 . S
O11 Tb2 2.513 1_566 S
O11 C6 1.246 1_556 S
O12 Tb2 2.453 . S
O12 C8 1.245 . S
O13 Tb0 2.343 1_455 S
O13 Tb2 2.596 . S
O13 C8 1.259 . S
O14 Tb2 2.374 1_556 S
O14 C9 1.250 . S
O15 Tb0 2.353 1_556 S
O15 C9 1.263 1_655 S
C16 O17 1.275 1_554 S
C16 O18 1.246 . S
O17 Tb0 2.427 1_456 S
O17 C16 1.275 1_556 S
O18 Tb0 2.513 1_455 S
O18 C16 1.246 . S
C19 O3 1.250 . S
C19 O4 1.259 . S
Tb20 O23 2.453 . S
Tb20 O24 2.596 1_545 S
Tb20 O25 2.374 . S
Tb20 O33 2.343 1_455 S
Tb20 O35 2.353 . S
Tb20 O37 2.427 . S
Tb20 O38 2.513 . S
C21 O25 1.251 . S
C21 O27 1.263 1_445 S
Tb22 O24 2.343 1_655 S
Tb22 O27 2.353 . S
Tb22 O30 2.427 . S
Tb22 O31 2.513 1_655 S
Tb22 O32 2.453 . S
Tb22 O33 2.596 1_565 S
Tb22 O34 2.374 . S
O23 Tb20 2.453 . S
O23 C39 1.245 . S
O24 Tb20 2.596 1_565 S
O24 Tb22 2.343 1_455 S
O24 C39 1.259 1_565 S
O25 Tb20 2.374 . S
O25 C21 1.251 . S
C26 O30 1.275 1_455 S
C26 O31 1.246 . S
O27 C21 1.263 1_665 S
O27 Tb22 2.353 . S
C28 O32 1.245 . S
C28 O33 1.259 1_565 S
C29 O34 1.250 1_445 S
C29 O35 1.263 . S
O30 Tb22 2.427 . S
O30 C26 1.275 1_655 S
O31 Tb22 2.513 1_455 S
O31 C26 1.246 . S
O32 Tb22 2.453 . S
O32 C28 1.245 . S
O33 Tb20 2.343 1_655 S
O33 Tb22 2.596 1_545 S
O33 C28 1.259 1_545 S
O34 Tb22 2.374 . S
O34 C29 1.250 1_665 S
O35 Tb20 2.353 . S
O35 C29 1.263 . S
C36 O37 1.275 . S
C36 O38 1.246 . S
O37 Tb20 2.427 . S
O37 C36 1.275 . S
O38 Tb20 2.513 . S
O38 C36 1.246 . S
C39 O23 1.245 . S
C39 O24 1.259 1_545 S
Tb40 O43 2.453 1_455 S
Tb40 O44 2.596 1_455 S
Tb40 O45 2.374 . S
Tb40 O53 2.343 . S
Tb40 O55 2.353 . S
Tb40 O57 2.427 . S
Tb40 O58 2.513 . S
C41 O45 1.251 . S
C41 O47 1.263 . S
Tb42 O44 2.343 1_565 S
Tb42 O47 2.353 1_665 S
Tb42 O50 2.427 . S
Tb42 O51 2.513 . S
Tb42 O52 2.453 1_665 S
Tb42 O53 2.596 1_665 S
Tb42 O54 2.374 1_565 S
O43 Tb40 2.453 1_655 S
O43 C59 1.245 . S
O44 Tb40 2.596 1_655 S
O44 Tb42 2.343 1_545 S
O44 C59 1.259 . S
O45 Tb40 2.374 . S
O45 C41 1.251 . S
C46 O50 1.275 . S
C46 O51 1.246 . S
O47 C41 1.263 . S
O47 Tb42 2.353 1_445 S
C48 O52 1.245 . S
C48 O53 1.259 . S
C49 O54 1.250 1_455 S
C49 O55 1.263 . S
O50 Tb42 2.427 . S
O50 C46 1.275 . S
O51 Tb42 2.513 . S
O51 C46 1.246 . S
O52 Tb42 2.453 1_445 S
O52 C48 1.245 . S
O53 Tb40 2.343 . S
O53 Tb42 2.596 1_445 S
O53 C48 1.259 . S
O54 Tb42 2.374 1_545 S
O54 C49 1.250 1_655 S
O55 Tb40 2.353 . S
O55 C49 1.263 . S
C56 O57 1.275 . S
C56 O58 1.246 . S
O57 Tb40 2.427 . S
O57 C56 1.275 . S
O58 Tb40 2.513 . S
O58 C56 1.246 . S
C59 O43 1.245 . S
C59 O44 1.259 . S
H60 C72 0.930 . S
H61 C74 0.930 . S
H62 C75 0.930 . S
H63 C79 0.959 . S
H64 C79 0.959 . S
H65 C79 0.961 . S
H66 C80 0.960 . S
H67 C80 0.961 . S
H68 C80 0.959 . S
H69 C83 0.929 . S
H70 C84 0.931 . S
H71 C86 0.930 . S
C72 H60 0.930 . S
C72 C73 1.399 . S
C72 C77 1.399 . S
C73 C72 1.399 . S
C73 C74 1.376 1_554 S
C74 H61 0.930 . S
C74 C73 1.376 1_556 S
C74 C75 1.388 . S
C75 H62 0.930 . S
C75 C74 1.388 . S
C75 C76 1.390 1_556 S
C76 C75 1.390 1_554 S
C76 C77 1.394 . S
C76 C82 1.465 . S
C77 C72 1.399 . S
C77 C76 1.394 . S
C77 C78 1.516 . S
C78 C77 1.516 . S
C78 C79 1.502 1_455 S
C78 C80 1.561 . S
C78 C81 1.526 . S
C79 H63 0.959 . S
C79 H64 0.959 . S
C79 H65 0.961 . S
C79 C78 1.502 1_655 S
C80 H66 0.960 . S
C80 H67 0.961 . S
C80 H68 0.959 . S
C80 C78 1.561 . S
C81 C78 1.526 . S
C81 C82 1.396 . S
C81 C86 1.390 . S
C82 C76 1.465 . S
C82 C81 1.396 . S
C82 C83 1.399 1_554 S
C83 H69 0.929 . S
C83 C82 1.399 1_556 S
C83 C84 1.385 . S
C84 H70 0.931 . S
C84 C83 1.385 . S
C84 C85 1.389 1_556 S
C85 C84 1.389 1_554 S
C85 C86 1.387 . S
C86 H71 0.930 . S
C86 C81 1.390 . S
C86 C85 1.387 . S
H87 C99 0.930 . S
H88 C101 0.930 . S
H89 C102 0.930 . S
H90 C106 0.959 . S
H91 C106 0.959 . S
H92 C106 0.961 . S
H93 C107 0.960 . S
H94 C107 0.961 . S
H95 C107 0.959 . S
H96 C110 0.929 . S
H97 C111 0.931 . S
H98 C113 0.930 . S
C99 H87 0.930 . S
C99 C100 1.399 1_545 S
C99 C104 1.399 . S
C100 C99 1.399 1_565 S
C100 C101 1.376 . S
C101 H88 0.930 . S
C101 C100 1.376 . S
C101 C102 1.388 . S
C102 H89 0.930 . S
C102 C101 1.388 . S
C102 C103 1.390 . S
C103 C102 1.390 . S
C103 C104 1.394 1_565 S
C103 C109 1.465 . S
C104 C99 1.399 . S
C104 C103 1.394 1_545 S
C104 C105 1.516 . S
C105 C104 1.516 . S
C105 C106 1.502 . S
C105 C107 1.561 . S
C105 C108 1.526 . S
C106 H90 0.959 . S
C106 H91 0.959 . S
C106 H92 0.961 . S
C106 C105 1.502 . S
C107 H93 0.960 . S
C107 H94 0.961 . S
C107 H95 0.959 . S
C107 C105 1.561 . S
C108 C105 1.526 . S
C108 C109 1.396 1_545 S
C108 C113 1.390 . S
C109 C103 1.465 . S
C109 C108 1.396 1_565 S
C109 C110 1.399 . S
C110 H96 0.929 . S
C110 C109 1.399 . S
C110 C111 1.385 . S
C111 H97 0.931 . S
C111 C110 1.385 . S
C111 C112 1.389 1_565 S
C112 C111 1.389 1_545 S
C112 C113 1.387 . S
C113 H98 0.930 . S
C113 C108 1.390 . S
C113 C112 1.387 . S
H114 C126 0.930 . S
H115 C128 0.930 . S
H116 C129 0.930 . S
H117 C133 0.959 . S
H118 C133 0.959 . S
H119 C133 0.961 . S
H120 C134 0.960 . S
H121 C134 0.961 . S
H122 C134 0.959 . S
H123 C137 0.929 . S
H124 C138 0.931 . S
H125 C140 0.930 . S
C126 H114 0.930 . S
C126 C127 1.399 . S
C126 C131 1.399 . S
C127 C126 1.399 . S
C127 C128 1.376 . S
C128 H115 0.930 . S
C128 C127 1.376 . S
C128 C129 1.388 . S
C129 H116 0.930 . S
C129 C128 1.388 . S
C129 C130 1.390 . S
C130 C129 1.390 . S
C130 C131 1.394 . S
C130 C136 1.465 . S
C131 C126 1.399 . S
C131 C130 1.394 . S
C131 C132 1.516 . S
C132 C131 1.516 . S
C132 C133 1.502 . S
C132 C134 1.561 . S
C132 C135 1.526 . S
C133 H117 0.959 . S
C133 H118 0.959 . S
C133 H119 0.961 . S
C133 C132 1.502 . S
C134 H120 0.960 . S
C134 H121 0.961 . S
C134 H122 0.959 . S
C134 C132 1.561 . S
C135 C132 1.526 . S
C135 C136 1.396 . S
C135 C140 1.390 . S
C136 C130 1.465 . S
C136 C135 1.396 . S
C136 C137 1.399 . S
C137 H123 0.929 . S
C137 C136 1.399 . S
C137 C138 1.385 . S
C138 H124 0.931 . S
C138 C137 1.385 . S
C138 C139 1.389 . S
C139 C138 1.389 . S
C139 C140 1.387 . S
C140 H125 0.930 . S
C140 C135 1.390 . S
C140 C139 1.387 . S
H141 C153 0.930 . S
H142 C155 0.930 . S
H143 C156 0.930 . S
H144 C160 0.959 . S
H145 C160 0.959 . S
H146 C160 0.961 . S
H147 C161 0.960 . S
H148 C161 0.961 . S
H149 C161 0.959 . S
H150 C164 0.929 . S
H151 C165 0.931 1_565 S
H152 C167 0.930 . S
C153 H141 0.930 . S
C153 C154 1.399 . S
C153 C158 1.399 . S
C154 C153 1.399 . S
C154 C155 1.376 1_545 S
C155 H142 0.930 . S
C155 C154 1.376 1_565 S
C155 C156 1.388 . S
C156 H143 0.930 . S
C156 C155 1.388 . S
C156 C157 1.390 1_565 S
C157 C156 1.390 1_545 S
C157 C158 1.394 . S
C157 C163 1.465 . S
C158 C153 1.399 . S
C158 C157 1.394 . S
C158 C159 1.516 . S
C159 C158 1.516 . S
C159 C160 1.502 . S
C159 C161 1.561 . S
C159 C162 1.526 . S
C160 H144 0.959 . S
C160 H145 0.959 . S
C160 H146 0.961 . S
C160 C159 1.502 . S
C161 H147 0.960 . S
C161 H148 0.961 . S
C161 H149 0.959 . S
C161 C159 1.561 . S
C162 C159 1.526 . S
C162 C163 1.396 . S
C162 C167 1.390 . S
C163 C157 1.465 . S
C163 C162 1.396 . S
C163 C164 1.399 1_545 S
C164 H150 0.929 . S
C164 C163 1.399 1_565 S
C164 C165 1.385 1_565 S
C165 H151 0.931 1_545 S
C165 C164 1.385 1_545 S
C165 C166 1.389 . S
C166 C165 1.389 . S
C166 C167 1.387 . S
C167 H152 0.930 . S
C167 C162 1.390 . S
C167 C166 1.387 . S
H168 C180 0.930 . S
H169 C182 0.930 . S
H170 C183 0.930 . S
H171 C187 0.959 . S
H172 C187 0.959 . S
H173 C187 0.961 . S
H174 C188 0.960 . S
H175 C188 0.961 . S
H176 C188 0.959 . S
H177 C191 0.929 . S
H178 C192 0.931 . S
H179 C194 0.930 . S
C180 H168 0.930 . S
C180 C181 1.399 1_556 S
C180 C185 1.401 . S
C181 C180 1.399 1_554 S
C181 C182 1.376 . S
C182 H169 0.930 . S
C182 C181 1.376 . S
C182 C183 1.388 . S
C183 H170 0.930 . S
C183 C182 1.388 . S
C183 C184 1.390 . S
C184 C183 1.390 . S
C184 C185 1.390 1_554 S
C184 C190 1.465 . S
C185 C180 1.401 . S
C185 C184 1.390 1_556 S
C185 C186 1.518 . S
C186 C185 1.518 . S
C186 C187 1.502 . S
C186 C188 1.561 . S
C186 C189 1.535 . S
C187 H171 0.959 . S
C187 H172 0.959 . S
C187 H173 0.961 . S
C187 C186 1.502 . S
C188 H174 0.960 . S
C188 H175 0.961 . S
C188 H176 0.959 . S
C188 C186 1.561 . S
C189 C186 1.535 . S
C189 C190 1.386 1_556 S
C189 C194 1.390 . S
C190 C184 1.465 . S
C190 C189 1.386 1_554 S
C190 C191 1.399 . S
C191 H177 0.929 . S
C191 C190 1.399 . S
C191 C192 1.385 . S
C192 H178 0.931 . S
C192 C191 1.385 . S
C192 C193 1.389 . S
C193 C192 1.389 . S
C193 C194 1.387 1_554 S
C194 H179 0.930 . S
C194 C189 1.390 . S
C194 C193 1.387 1_556 S
H195 C207 0.930 . S
H196 C209 0.930 . S
H197 C210 0.930 . S
H198 C214 0.959 . S
H199 C214 0.959 . S
H200 C214 0.961 . S
H201 C215 0.960 . S
H202 C215 0.961 . S
H203 C215 0.959 . S
H204 C218 0.929 . S
H205 C219 0.931 . S
H206 C221 0.930 . S
C207 H195 0.930 . S
C207 C208 1.399 1_455 S
C207 C212 1.399 . S
C208 C207 1.399 1_655 S
C208 C209 1.376 . S
C209 H196 0.930 . S
C209 C208 1.376 . S
C209 C210 1.388 . S
C210 H197 0.930 . S
C210 C209 1.388 . S
C210 C211 1.390 . S
C211 C210 1.390 . S
C211 C212 1.394 1_655 S
C211 C217 1.465 . S
C212 C207 1.399 . S
C212 C211 1.394 1_455 S
C212 C213 1.516 . S
C213 C212 1.516 . S
C213 C214 1.502 . S
C213 C215 1.561 1_455 S
C213 C216 1.526 . S
C214 H198 0.959 . S
C214 H199 0.959 . S
C214 H200 0.961 . S
C214 C213 1.502 . S
C215 H201 0.960 . S
C215 H202 0.961 . S
C215 H203 0.959 . S
C215 C213 1.561 1_655 S
C216 C213 1.526 . S
C216 C217 1.396 1_455 S
C216 C221 1.390 . S
C217 C211 1.465 . S
C217 C216 1.396 1_655 S
C217 C218 1.399 . S
C218 H204 0.929 . S
C218 C217 1.399 . S
C218 C219 1.385 . S
C219 H205 0.931 . S
C219 C218 1.385 . S
C219 C220 1.389 1_655 S
C220 C219 1.389 1_455 S
C220 C221 1.387 . S
C221 H206 0.930 . S
C221 C216 1.390 . S
C221 C220 1.387 . S
H222 C234 0.930 . S
H223 C236 0.931 1_655 S
H224 C237 0.930 . S
H225 C241 0.959 1_655 S
H226 C241 0.959 . S
H227 C241 0.961 . S
H228 C242 0.960 . S
H229 C242 0.961 . S
H230 C242 0.959 . S
H231 C245 0.929 . S
H232 C246 0.931 . S
H233 C248 0.930 . S
C234 H222 0.930 . S
C234 C235 1.399 1_545 S
C234 C239 1.399 . S
C235 C234 1.399 1_565 S
C235 C236 1.376 . S
C236 H223 0.931 1_455 S
C236 C235 1.376 . S
C236 C237 1.388 . S
C237 H224 0.930 . S
C237 C236 1.388 . S
C237 C238 1.390 . S
C238 C237 1.390 . S
C238 C239 1.394 1_565 S
C238 C244 1.465 . S
C239 C234 1.399 . S
C239 C238 1.394 1_545 S
C239 C240 1.516 . S
C240 C239 1.516 . S
C240 C241 1.502 . S
C240 C242 1.561 . S
C240 C243 1.526 . S
C241 H225 0.959 1_455 S
C241 H226 0.959 . S
C241 H227 0.961 . S
C241 C240 1.502 . S
C242 H228 0.960 . S
C242 H229 0.961 . S
C242 H230 0.959 . S
C242 C240 1.561 . S
C243 C240 1.526 . S
C243 C244 1.396 1_545 S
C243 C248 1.390 . S
C244 C238 1.465 . S
C244 C243 1.396 1_565 S
C244 C245 1.399 . S
C245 H231 0.929 . S
C245 C244 1.399 . S
C245 C246 1.385 . S
C246 H232 0.931 . S
C246 C245 1.385 . S
C246 C247 1.389 1_565 S
C247 C246 1.389 1_545 S
C247 C248 1.387 . S
C248 H233 0.930 . S
C248 C243 1.390 . S
C248 C247 1.387 . S
H249 C261 0.930 . S
H250 C263 0.930 . S
H251 C264 0.930 . S
H252 C268 0.959 . S
H253 C268 0.959 . S
H254 C268 0.961 . S
H255 C269 0.960 . S
H256 C269 0.961 . S
H257 C269 0.959 . S
H258 C272 0.929 . S
H259 C273 0.931 . S
H260 C275 0.930 . S
C261 H249 0.930 . S
C261 C262 1.399 1_455 S
C261 C266 1.399 . S
C262 C261 1.399 1_655 S
C262 C263 1.376 1_545 S
C263 H250 0.930 . S
C263 C262 1.376 1_565 S
C263 C264 1.388 . S
C264 H251 0.930 . S
C264 C263 1.388 . S
C264 C265 1.390 1_565 S
C265 C264 1.390 1_545 S
C265 C266 1.394 1_655 S
C265 C271 1.465 . S
C266 C261 1.399 . S
C266 C265 1.394 1_455 S
C266 C267 1.516 . S
C267 C266 1.516 . S
C267 C268 1.502 . S
C267 C269 1.561 . S
C267 C270 1.526 . S
C268 H252 0.959 . S
C268 H253 0.959 . S
C268 H254 0.961 . S
C268 C267 1.502 . S
C269 H255 0.960 . S
C269 H256 0.961 . S
C269 H257 0.959 . S
C269 C267 1.561 . S
C270 C267 1.526 . S
C270 C271 1.396 1_455 S
C270 C275 1.390 . S
C271 C265 1.465 . S
C271 C270 1.396 1_655 S
C271 C272 1.399 1_545 S
C272 H258 0.929 . S
C272 C271 1.399 1_565 S
C272 C273 1.385 . S
C273 H259 0.931 . S
C273 C272 1.385 . S
C273 C274 1.389 1_665 S
C274 C273 1.389 1_445 S
C274 C275 1.387 . S
C275 H260 0.930 . S
C275 C270 1.390 . S
C275 C274 1.387 . S
H276 C288 0.930 1_565 S
H277 C290 0.930 . S
H278 C291 0.930 . S
H279 C295 0.959 1_545 S
H280 C295 0.959 . S
H281 C295 0.961 . S
H282 C296 0.960 . S
H283 C296 0.961 . S
H284 C296 0.959 1_455 S
H285 C299 0.929 . S
H286 C300 0.931 . S
H287 C302 0.930 1_665 S
C288 H276 0.930 1_545 S
C288 C289 1.399 1_655 S
C288 C293 1.399 1_655 S
C289 C288 1.399 1_455 S
C289 C290 1.376 . S
C290 H277 0.930 . S
C290 C289 1.376 . S
C290 C291 1.388 . S
C291 H278 0.930 . S
C291 C290 1.388 . S
C291 C292 1.390 . S
C292 C291 1.390 . S
C292 C293 1.394 . S
C292 C298 1.465 . S
C293 C288 1.399 1_455 S
C293 C292 1.394 . S
C293 C294 1.516 1_445 S
C294 C293 1.516 1_665 S
C294 C295 1.502 . S
C294 C296 1.561 . S
C294 C297 1.526 1_665 S
C295 H279 0.959 1_565 S
C295 H280 0.959 . S
C295 H281 0.961 . S
C295 C294 1.502 . S
C296 H282 0.960 . S
C296 H283 0.961 . S
C296 H284 0.959 1_655 S
C296 C294 1.561 . S
C297 C294 1.526 1_445 S
C297 C298 1.396 . S
C297 C302 1.390 . S
C298 C292 1.465 . S
C298 C297 1.396 . S
C298 C299 1.399 . S
C299 H285 0.929 . S
C299 C298 1.399 . S
C299 C300 1.385 . S
C300 H286 0.931 . S
C300 C299 1.385 . S
C300 C301 1.389 . S
C301 C300 1.389 . S
C301 C302 1.387 . S
C302 H287 0.930 1_445 S
C302 C297 1.390 . S
C302 C301 1.387 . S
C73 C16 1.268 . S
C85 C6 1.216 . S
C100 C39 1.872 1_565 S
C112 C28 1.833 1_545 S
C127 C46 0.820 . S
C139 C56 0.804 . S
C154 C59 1.884 . S
C166 C48 1.809 . S
C181 C19 2.396 . S
C193 C8 2.367 . S
C208 C36 1.265 1_655 S
C220 C26 1.207 . S
C235 C21 1.514 1_565 S
C247 C1 1.513 . S
C262 C29 1.513 1_655 S
C274 C49 1.483 . S
C289 C41 1.482 . S
C301 C9 1.523 . S
