# Generated by pormake.
# Topology uka, (4)-cn, num edge types: 1
# Building blocks:
#     Node 0, Type 0, BuildingBlock: QUQFOY_clean_sbu_1, # of connection points: 4
#     Node 1, Type 0, BuildingBlock: QUQFOY_clean_sbu_1, # of connection points: 4
#     Node 2, Type 0, BuildingBlock: QUQFOY_clean_sbu_1, # of connection points: 4
#     Node 3, Type 0, BuildingBlock: QUQFOY_clean_sbu_1, # of connection points: 4
#     Node 4, Type 0, BuildingBlock: QUQFOY_clean_sbu_1, # of connection points: 4
#     Node 5, Type 0, BuildingBlock: QUQFOY_clean_sbu_1, # of connection points: 4
#     Node 6, Type 0, BuildingBlock: QUQFOY_clean_sbu_1, # of connection points: 4
#     Node 7, Type 0, BuildingBlock: QUQFOY_clean_sbu_1, # of connection points: 4
#     Node 8, Type 0, BuildingBlock: QUQFOY_clean_sbu_1, # of connection points: 4
#     Node 9, Type 0, BuildingBlock: QUQFOY_clean_sbu_1, # of connection points: 4
#     Node 10, Type 0, BuildingBlock: QUQFOY_clean_sbu_1, # of connection points: 4
#     Node 11, Type 0, BuildingBlock: QUQFOY_clean_sbu_1, # of connection points: 4
#     Node 12, Type 0, BuildingBlock: QUQFOY_clean_sbu_1, # of connection points: 4
#     Node 13, Type 0, BuildingBlock: QUQFOY_clean_sbu_1, # of connection points: 4
#     Node 14, Type 0, BuildingBlock: QUQFOY_clean_sbu_1, # of connection points: 4
#     Node 15, Type 0, BuildingBlock: QUQFOY_clean_sbu_1, # of connection points: 4
#     Node 16, Type 0, BuildingBlock: QUQFOY_clean_sbu_1, # of connection points: 4
#     Node 17, Type 0, BuildingBlock: QUQFOY_clean_sbu_1, # of connection points: 4
#     Node 18, Type 0, BuildingBlock: QUQFOY_clean_sbu_1, # of connection points: 4
#     Node 19, Type 0, BuildingBlock: QUQFOY_clean_sbu_1, # of connection points: 4
#     Node 20, Type 0, BuildingBlock: QUQFOY_clean_sbu_1, # of connection points: 4
#     Node 21, Type 0, BuildingBlock: QUQFOY_clean_sbu_1, # of connection points: 4
#     Node 22, Type 0, BuildingBlock: QUQFOY_clean_sbu_1, # of connection points: 4
#     Node 23, Type 0, BuildingBlock: QUQFOY_clean_sbu_1, # of connection points: 4
#     Node 24, Type 0, BuildingBlock: QUQFOY_clean_sbu_1, # of connection points: 4
#     Node 25, Type 0, BuildingBlock: QUQFOY_clean_sbu_1, # of connection points: 4
#     Node 26, Type 0, BuildingBlock: QUQFOY_clean_sbu_1, # of connection points: 4
#     Node 27, Type 0, BuildingBlock: QUQFOY_clean_sbu_1, # of connection points: 4
#     Node 28, Type 0, BuildingBlock: QUQFOY_clean_sbu_1, # of connection points: 4
#     Node 29, Type 0, BuildingBlock: QUQFOY_clean_sbu_1, # of connection points: 4
#     Node 30, Type 0, BuildingBlock: QUQFOY_clean_sbu_1, # of connection points: 4
#     Node 31, Type 0, BuildingBlock: QUQFOY_clean_sbu_1, # of connection points: 4
#     Edge 32, Type (0, 0), BuildingBlock: UVAHIK_clean_linker_0, # of connection points: 2
#     Edge 33, Type (0, 0), BuildingBlock: UVAHIK_clean_linker_0, # of connection points: 2
#     Edge 34, Type (0, 0), BuildingBlock: UVAHIK_clean_linker_0, # of connection points: 2
#     Edge 35, Type (0, 0), BuildingBlock: UVAHIK_clean_linker_0, # of connection points: 2
#     Edge 36, Type (0, 0), BuildingBlock: UVAHIK_clean_linker_0, # of connection points: 2
#     Edge 37, Type (0, 0), BuildingBlock: UVAHIK_clean_linker_0, # of connection points: 2
#     Edge 38, Type (0, 0), BuildingBlock: UVAHIK_clean_linker_0, # of connection points: 2
#     Edge 39, Type (0, 0), BuildingBlock: UVAHIK_clean_linker_0, # of connection points: 2
#     Edge 40, Type (0, 0), BuildingBlock: UVAHIK_clean_linker_0, # of connection points: 2
#     Edge 41, Type (0, 0), BuildingBlock: UVAHIK_clean_linker_0, # of connection points: 2
#     Edge 42, Type (0, 0), BuildingBlock: UVAHIK_clean_linker_0, # of connection points: 2
#     Edge 43, Type (0, 0), BuildingBlock: UVAHIK_clean_linker_0, # of connection points: 2
#     Edge 44, Type (0, 0), BuildingBlock: UVAHIK_clean_linker_0, # of connection points: 2
#     Edge 45, Type (0, 0), BuildingBlock: UVAHIK_clean_linker_0, # of connection points: 2
#     Edge 46, Type (0, 0), BuildingBlock: UVAHIK_clean_linker_0, # of connection points: 2
#     Edge 47, Type (0, 0), BuildingBlock: UVAHIK_clean_linker_0, # of connection points: 2
#     Edge 48, Type (0, 0), BuildingBlock: UVAHIK_clean_linker_0, # of connection points: 2
#     Edge 49, Type (0, 0), BuildingBlock: UVAHIK_clean_linker_0, # of connection points: 2
#     Edge 50, Type (0, 0), BuildingBlock: UVAHIK_clean_linker_0, # of connection points: 2
#     Edge 51, Type (0, 0), BuildingBlock: UVAHIK_clean_linker_0, # of connection points: 2
#     Edge 52, Type (0, 0), BuildingBlock: UVAHIK_clean_linker_0, # of connection points: 2
#     Edge 53, Type (0, 0), BuildingBlock: UVAHIK_clean_linker_0, # of connection points: 2
#     Edge 54, Type (0, 0), BuildingBlock: UVAHIK_clean_linker_0, # of connection points: 2
#     Edge 55, Type (0, 0), BuildingBlock: UVAHIK_clean_linker_0, # of connection points: 2
#     Edge 56, Type (0, 0), BuildingBlock: UVAHIK_clean_linker_0, # of connection points: 2
#     Edge 57, Type (0, 0), BuildingBlock: UVAHIK_clean_linker_0, # of connection points: 2
#     Edge 58, Type (0, 0), BuildingBlock: UVAHIK_clean_linker_0, # of connection points: 2
#     Edge 59, Type (0, 0), BuildingBlock: UVAHIK_clean_linker_0, # of connection points: 2
#     Edge 60, Type (0, 0), BuildingBlock: UVAHIK_clean_linker_0, # of connection points: 2
#     Edge 61, Type (0, 0), BuildingBlock: UVAHIK_clean_linker_0, # of connection points: 2
#     Edge 62, Type (0, 0), BuildingBlock: UVAHIK_clean_linker_0, # of connection points: 2
#     Edge 63, Type (0, 0), BuildingBlock: UVAHIK_clean_linker_0, # of connection points: 2
#     Edge 64, Type (0, 0), BuildingBlock: UVAHIK_clean_linker_0, # of connection points: 2
#     Edge 65, Type (0, 0), BuildingBlock: UVAHIK_clean_linker_0, # of connection points: 2
#     Edge 66, Type (0, 0), BuildingBlock: UVAHIK_clean_linker_0, # of connection points: 2
#     Edge 67, Type (0, 0), BuildingBlock: UVAHIK_clean_linker_0, # of connection points: 2
#     Edge 68, Type (0, 0), BuildingBlock: UVAHIK_clean_linker_0, # of connection points: 2
#     Edge 69, Type (0, 0), BuildingBlock: UVAHIK_clean_linker_0, # of connection points: 2
#     Edge 70, Type (0, 0), BuildingBlock: UVAHIK_clean_linker_0, # of connection points: 2
#     Edge 71, Type (0, 0), BuildingBlock: UVAHIK_clean_linker_0, # of connection points: 2
#     Edge 72, Type (0, 0), BuildingBlock: UVAHIK_clean_linker_0, # of connection points: 2
#     Edge 73, Type (0, 0), BuildingBlock: UVAHIK_clean_linker_0, # of connection points: 2
#     Edge 74, Type (0, 0), BuildingBlock: UVAHIK_clean_linker_0, # of connection points: 2
#     Edge 75, Type (0, 0), BuildingBlock: UVAHIK_clean_linker_0, # of connection points: 2
#     Edge 76, Type (0, 0), BuildingBlock: UVAHIK_clean_linker_0, # of connection points: 2
#     Edge 77, Type (0, 0), BuildingBlock: UVAHIK_clean_linker_0, # of connection points: 2
#     Edge 78, Type (0, 0), BuildingBlock: UVAHIK_clean_linker_0, # of connection points: 2
#     Edge 79, Type (0, 0), BuildingBlock: UVAHIK_clean_linker_0, # of connection points: 2
#     Edge 80, Type (0, 0), BuildingBlock: UVAHIK_clean_linker_0, # of connection points: 2
#     Edge 81, Type (0, 0), BuildingBlock: UVAHIK_clean_linker_0, # of connection points: 2
#     Edge 82, Type (0, 0), BuildingBlock: UVAHIK_clean_linker_0, # of connection points: 2
#     Edge 83, Type (0, 0), BuildingBlock: UVAHIK_clean_linker_0, # of connection points: 2
#     Edge 84, Type (0, 0), BuildingBlock: UVAHIK_clean_linker_0, # of connection points: 2
#     Edge 85, Type (0, 0), BuildingBlock: UVAHIK_clean_linker_0, # of connection points: 2
#     Edge 86, Type (0, 0), BuildingBlock: UVAHIK_clean_linker_0, # of connection points: 2
#     Edge 87, Type (0, 0), BuildingBlock: UVAHIK_clean_linker_0, # of connection points: 2
#     Edge 88, Type (0, 0), BuildingBlock: UVAHIK_clean_linker_0, # of connection points: 2
#     Edge 89, Type (0, 0), BuildingBlock: UVAHIK_clean_linker_0, # of connection points: 2
#     Edge 90, Type (0, 0), BuildingBlock: UVAHIK_clean_linker_0, # of connection points: 2
#     Edge 91, Type (0, 0), BuildingBlock: UVAHIK_clean_linker_0, # of connection points: 2
#     Edge 92, Type (0, 0), BuildingBlock: UVAHIK_clean_linker_0, # of connection points: 2
#     Edge 93, Type (0, 0), BuildingBlock: UVAHIK_clean_linker_0, # of connection points: 2
#     Edge 94, Type (0, 0), BuildingBlock: UVAHIK_clean_linker_0, # of connection points: 2
#     Edge 95, Type (0, 0), BuildingBlock: UVAHIK_clean_linker_0, # of connection points: 2
# Relax obj value: 0.058
# Max RMSD: 0.095
# Mean RMSD: 0.095
data_MOF--net-uka--node1-QUQFOY_clean_sbu_1--edge1-UVAHIK_clean_linker_0
_symmetry_space_group_name_H-M    P1
_symmetry_Int_Tables_number       1
_symmetry_cell_setting            triclinic
loop_
_symmetry_equiv_pos_as_xyz
'x, y, z'
_cell_length_a     80.868514
_cell_length_b     80.901388
_cell_length_c     56.480625
_cell_angle_alpha  89.999183
_cell_angle_beta   90.000982
_cell_angle_gamma 89.994589
loop_
_atom_site_label
_atom_site_type_symbol
_atom_site_fract_x
_atom_site_fract_y
_atom_site_fract_z
_atom_type_partial_charge
O0 O 0.13731 0.26468 0.31015 0.0
Cd1 Cd 0.14631 0.28688 0.29864 0.0
Cd2 Cd 0.11713 0.28653 0.2744 0.0
O3 O 0.11619 0.26211 0.28579 0.0
O4 O 0.17007 0.28556 0.30715 0.0
O5 O 0.16115 0.28642 0.27012 0.0
C6 C 0.17328 0.28478 0.28483 0.0
C7 C 0.10893 0.29367 0.236 0.0
C8 C 0.12543 0.2562 0.30194 0.0
C9 C 0.12217 0.31197 0.31357 0.0
O10 O 0.1125 0.30483 0.29907 0.0
O11 O 0.13715 0.30745 0.31544 0.0
O12 O 0.09838 0.28924 0.25186 0.0
O13 O 0.12442 0.29333 0.24161 0.0
O14 O 0.9834 0.88705 0.56033 0.0
Cd15 Cd 0.96071 0.89446 0.5485 0.0
Cd16 Cd 0.96383 0.86756 0.52112 0.0
O17 O 0.98822 0.86845 0.53272 0.0
O18 O 0.95981 0.9183 0.5565 0.0
O19 O 0.96055 0.90885 0.51967 0.0
C20 C 0.96092 0.92126 0.53411 0.0
C21 C 0.95743 0.86137 0.48177 0.0
C22 C 0.9931 0.87683 0.55045 0.0
C23 C 0.93769 0.86764 0.55977 0.0
O24 O 0.946 0.85948 0.54465 0.0
O25 O 0.94069 0.88283 0.5634 0.0
O26 O 0.96359 0.85042 0.49579 0.0
O27 O 0.9556 0.87623 0.48976 0.0
O28 O 0.35986 0.73361 0.80866 0.0
Cd29 Cd 0.35382 0.71091 0.79517 0.0
Cd30 Cd 0.38044 0.71642 0.76948 0.0
O31 O 0.37744 0.74066 0.78069 0.0
O32 O 0.32989 0.70863 0.80199 0.0
O33 O 0.34009 0.71095 0.76571 0.0
C34 C 0.32737 0.71034 0.77956 0.0
C35 C 0.38676 0.70962 0.73037 0.0
C36 C 0.36903 0.74439 0.79895 0.0
C37 C 0.382 0.69006 0.80738 0.0
O38 O 0.38984 0.69981 0.79375 0.0
O39 O 0.36637 0.69108 0.80915 0.0
O40 O 0.39732 0.71699 0.74382 0.0
O41 O 0.37215 0.70687 0.73876 0.0
O42 O 0.51342 0.11234 0.05489 0.0
Cd43 Cd 0.53628 0.10314 0.04688 0.0
Cd44 Cd 0.53783 0.13242 0.02125 0.0
O45 O 0.51344 0.13464 0.0324 0.0
O46 O 0.53445 0.07954 0.056 0.0
O47 O 0.53772 0.08786 0.01895 0.0
C48 C 0.53519 0.07596 0.03378 0.0
C49 C 0.54537 0.14103 0.98315 0.0
C50 C 0.50613 0.12504 0.04685 0.0
C51 C 0.56185 0.12692 0.06224 0.0
O52 O 0.55624 0.13618 0.04594 0.0
O53 O 0.55589 0.11261 0.06571 0.0
O54 O 0.54139 0.15144 0.99942 0.0
O55 O 0.54437 0.12548 0.98815 0.0
O56 O 0.13868 0.73187 0.19077 0.0
Cd57 Cd 0.14792 0.7098 0.20236 0.0
Cd58 Cd 0.11888 0.70993 0.22688 0.0
O59 O 0.11767 0.7343 0.21536 0.0
O60 O 0.17168 0.71135 0.19391 0.0
O61 O 0.1627 0.71047 0.23092 0.0
C62 C 0.17484 0.71222 0.21624 0.0
C63 C 0.11063 0.70298 0.26533 0.0
C64 C 0.12676 0.74026 0.19908 0.0
C65 C 0.12396 0.68449 0.18769 0.0
O66 O 0.11432 0.69154 0.20232 0.0
O67 O 0.13889 0.68914 0.18565 0.0
O68 O 0.10009 0.70724 0.24935 0.0
O69 O 0.12613 0.70334 0.25978 0.0
O70 O 0.51518 0.88663 0.44502 0.0
Cd71 Cd 0.53769 0.89557 0.45547 0.0
Cd72 Cd 0.5384 0.86632 0.47957 0.0
O73 O 0.51405 0.86474 0.46819 0.0
O74 O 0.53624 0.91928 0.44679 0.0
O75 O 0.53778 0.91052 0.48385 0.0
C76 C 0.53588 0.92259 0.4691 0.0
C77 C 0.54535 0.859 0.51833 0.0
C78 C 0.50737 0.87423 0.45299 0.0
C79 C 0.56328 0.87165 0.44014 0.0
O80 O 0.55674 0.86182 0.45499 0.0
O81 O 0.5581 0.88641 0.43813 0.0
O82 O 0.54079 0.8481 0.50304 0.0
O83 O 0.54547 0.87432 0.51187 0.0
O84 O 0.35974 0.26658 0.69106 0.0
Cd85 Cd 0.35123 0.28867 0.70354 0.0
Cd86 Cd 0.37827 0.28603 0.73124 0.0
O87 O 0.37806 0.26175 0.71906 0.0
O88 O 0.32748 0.28864 0.69479 0.0
O89 O 0.33637 0.2877 0.73189 0.0
C90 C 0.32422 0.28699 0.71702 0.0
C91 C 0.38548 0.29221 0.77036 0.0
C92 C 0.37012 0.25701 0.70084 0.0
C93 C 0.37733 0.31251 0.6929 0.0
O94 O 0.38568 0.30421 0.70783 0.0
O95 O 0.36219 0.30925 0.68921 0.0
O96 O 0.39611 0.28637 0.75559 0.0
O97 O 0.37036 0.29379 0.76331 0.0
O98 O 0.98495 0.11447 0.94432 0.0
Cd99 Cd 0.96268 0.10303 0.94956 0.0
Cd100 Cd 0.95636 0.13197 0.97553 0.0
O101 O 0.98085 0.13644 0.96672 0.0
O102 O 0.96707 0.07991 0.9397 0.0
O103 O 0.96106 0.08697 0.97658 0.0
C104 C 0.9653 0.07569 0.96155 0.0
C105 C 0.94712 0.14156 0.01248 0.0
C106 C 0.99012 0.1279 0.95325 0.0
C107 C 0.93553 0.12442 0.93171 0.0
O108 O 0.93898 0.13396 0.9489 0.0
O109 O 0.9433 0.11093 0.92884 0.0
O110 O 0.95066 0.1515 0.99544 0.0
O111 O 0.94917 0.12594 0.00882 0.0
O112 O 0.86079 0.7328 0.69625 0.0
Cd113 Cd 0.85413 0.71036 0.71007 0.0
Cd114 Cd 0.88009 0.71616 0.73677 0.0
O115 O 0.87737 0.74034 0.72518 0.0
O116 O 0.83031 0.70833 0.70225 0.0
O117 O 0.83977 0.71094 0.7389 0.0
C118 C 0.82734 0.71038 0.72451 0.0
C119 C 0.88646 0.70952 0.77597 0.0
C120 C 0.86965 0.74374 0.70617 0.0
C121 C 0.88246 0.68977 0.69885 0.0
O122 O 0.88989 0.69974 0.71262 0.0
O123 O 0.86683 0.69035 0.69683 0.0
O124 O 0.89697 0.71689 0.76245 0.0
O125 O 0.87186 0.70667 0.76762 0.0
O126 O 0.01462 0.11023 0.44166 0.0
Cd127 Cd 0.03689 0.10155 0.45326 0.0
Cd128 Cd 0.03535 0.12984 0.47982 0.0
O129 O 0.01109 0.13037 0.46746 0.0
O130 O 0.03622 0.07774 0.44506 0.0
O131 O 0.03659 0.08699 0.48198 0.0
C132 C 0.03532 0.0747 0.46744 0.0
C133 C 0.04165 0.13897 0.51816 0.0
C134 C 0.0057 0.12158 0.45045 0.0
C135 C 0.06149 0.12653 0.44081 0.0
O136 O 0.05401 0.13532 0.45607 0.0
O137 O 0.05729 0.11163 0.43724 0.0
O138 O 0.03708 0.14904 0.50177 0.0
O139 O 0.0418 0.12338 0.51321 0.0
O140 O 0.63613 0.26326 0.19403 0.0
Cd141 Cd 0.6434 0.2862 0.20505 0.0
Cd142 Cd 0.61518 0.28412 0.2301 0.0
O143 O 0.61594 0.2595 0.21961 0.0
O144 O 0.66728 0.28664 0.19717 0.0
O145 O 0.65778 0.28704 0.23395 0.0
C146 C 0.67021 0.28616 0.2196 0.0
C147 C 0.60848 0.29133 0.26898 0.0
C148 C 0.62518 0.25402 0.20316 0.0
C149 C 0.6172 0.30924 0.19031 0.0
O150 O 0.60825 0.30151 0.20516 0.0
O151 O 0.63248 0.30589 0.18826 0.0
O152 O 0.59759 0.2853 0.25474 0.0
O153 O 0.62351 0.2927 0.26144 0.0
O154 O 0.48213 0.88619 0.93793 0.0
Cd155 Cd 0.46021 0.89545 0.95004 0.0
Cd156 Cd 0.46161 0.86863 0.97863 0.0
O157 O 0.48598 0.86824 0.96674 0.0
O158 O 0.46097 0.91927 0.94196 0.0
O159 O 0.46118 0.90985 0.97883 0.0
C160 C 0.46227 0.92219 0.96434 0.0
C161 C 0.45562 0.86121 0.01776 0.0
C162 C 0.49123 0.87572 0.9484 0.0
C163 C 0.43519 0.8704 0.94008 0.0
O164 O 0.44299 0.8619 0.95538 0.0
O165 O 0.43929 0.88524 0.9358 0.0
O166 O 0.46091 0.85057 0.00259 0.0
O167 O 0.45437 0.87642 0.01104 0.0
O168 O 0.86408 0.25929 0.80598 0.0
Cd169 Cd 0.85614 0.2825 0.79731 0.0
Cd170 Cd 0.8838 0.28193 0.77011 0.0
O171 O 0.88306 0.25685 0.77822 0.0
O172 O 0.8324 0.28232 0.8061 0.0
O173 O 0.84123 0.28435 0.76908 0.0
C174 C 0.82907 0.28279 0.78378 0.0
C175 C 0.89149 0.29058 0.73213 0.0
C176 C 0.87461 0.25058 0.79496 0.0
C177 C 0.88233 0.30532 0.81231 0.0
O178 O 0.89093 0.29829 0.79637 0.0
O179 O 0.86717 0.30169 0.81501 0.0
O180 O 0.90194 0.28385 0.74639 0.0
O181 O 0.87631 0.29184 0.73905 0.0
O182 O 0.48399 0.11036 0.55932 0.0
Cd183 Cd 0.46122 0.10314 0.54758 0.0
Cd184 Cd 0.4647 0.13022 0.52018 0.0
O185 O 0.4891 0.12887 0.53168 0.0
O186 O 0.46014 0.07938 0.55592 0.0
O187 O 0.46084 0.08856 0.51895 0.0
C188 C 0.46116 0.07626 0.53357 0.0
C189 C 0.45831 0.1377 0.48124 0.0
C190 C 0.49384 0.12043 0.54944 0.0
C191 C 0.43863 0.13019 0.55911 0.0
O192 O 0.44705 0.13825 0.54401 0.0
O193 O 0.44138 0.11494 0.56266 0.0
O194 O 0.46472 0.14808 0.49589 0.0
O195 O 0.45628 0.12264 0.4883 0.0
O196 O 0.63546 0.73881 0.30901 0.0
Cd197 Cd 0.6423 0.71599 0.29673 0.0
Cd198 Cd 0.61645 0.72056 0.269 0.0
O199 O 0.61934 0.74508 0.27894 0.0
O200 O 0.66604 0.71413 0.30503 0.0
O201 O 0.65686 0.7158 0.26811 0.0
C202 C 0.66918 0.71552 0.28272 0.0
C203 C 0.61056 0.71314 0.22994 0.0
C204 C 0.62685 0.74932 0.29777 0.0
C205 C 0.61413 0.69494 0.30788 0.0
O206 O 0.60654 0.70443 0.2936 0.0
O207 O 0.62969 0.69612 0.31036 0.0
O208 O 0.59988 0.72074 0.24291 0.0
O209 O 0.62504 0.71041 0.23878 0.0
O210 O 0.01453 0.88655 0.05841 0.0
Cd211 Cd 0.03709 0.89463 0.04705 0.0
Cd212 Cd 0.03508 0.86661 0.02062 0.0
O213 O 0.01077 0.8664 0.03272 0.0
O214 O 0.03696 0.91848 0.05499 0.0
O215 O 0.03749 0.90902 0.01817 0.0
C216 C 0.0364 0.92141 0.03256 0.0
C217 C 0.0415 0.85833 0.982 0.0
C218 C 0.00544 0.87535 0.0496 0.0
C219 C 0.0611 0.86912 0.05974 0.0
O220 O 0.0535 0.8605 0.0444 0.0
O221 O 0.05717 0.8841 0.06332 0.0
O222 O 0.03658 0.84793 0.99777 0.0
O223 O 0.04192 0.87378 0.98777 0.0
O224 O 0.63696 0.762 0.81058 0.0
Cd225 Cd 0.64528 0.78462 0.79973 0.0
Cd226 Cd 0.61817 0.78309 0.77222 0.0
O227 O 0.61884 0.75831 0.78197 0.0
O228 O 0.66904 0.7845 0.80841 0.0
O229 O 0.66012 0.78482 0.77131 0.0
C230 C 0.6723 0.78376 0.78607 0.0
C231 C 0.61133 0.79058 0.73346 0.0
C232 C 0.62677 0.7528 0.79975 0.0
C233 C 0.61912 0.80801 0.81251 0.0
O234 O 0.61061 0.80022 0.79722 0.0
O235 O 0.63433 0.80469 0.81545 0.0
O236 O 0.60057 0.78423 0.74759 0.0
O237 O 0.62634 0.79212 0.74099 0.0
O238 O 0.48257 0.38674 0.06096 0.0
Cd239 Cd 0.46053 0.39582 0.04908 0.0
Cd240 Cd 0.46201 0.36893 0.02084 0.0
O241 O 0.48649 0.36869 0.03231 0.0
O242 O 0.46115 0.41957 0.05756 0.0
O243 O 0.4613 0.41047 0.02054 0.0
C244 C 0.46238 0.42269 0.03523 0.0
C245 C 0.45552 0.36207 0.9817 0.0
C246 C 0.49173 0.3763 0.05054 0.0
C247 C 0.43591 0.37048 0.05973 0.0
O248 O 0.44374 0.36195 0.04449 0.0
O249 O 0.43979 0.38543 0.06364 0.0
O250 O 0.4611 0.35122 0.99634 0.0
O251 O 0.4543 0.37717 0.98893 0.0
O252 O 0.85905 0.23203 0.31228 0.0
Cd253 Cd 0.85036 0.20993 0.30012 0.0
Cd254 Cd 0.87756 0.21189 0.27244 0.0
O255 O 0.87827 0.23599 0.28521 0.0
O256 O 0.82652 0.21028 0.3082 0.0
O257 O 0.83592 0.21058 0.27133 0.0
C258 C 0.82357 0.21154 0.28582 0.0
C259 C 0.88502 0.20633 0.23318 0.0
C260 C 0.87004 0.24113 0.30295 0.0
C261 C 0.87579 0.18541 0.31091 0.0
O262 O 0.88418 0.19315 0.29545 0.0
O263 O 0.86089 0.18937 0.31511 0.0
O264 O 0.89573 0.21094 0.24869 0.0
O265 O 0.86972 0.20556 0.23967 0.0
O266 O 0.01276 0.6132 0.55687 0.0
Cd267 Cd 0.03551 0.60346 0.5494 0.0
Cd268 Cd 0.03838 0.63238 0.52389 0.0
O269 O 0.01382 0.63515 0.53376 0.0
O270 O 0.0331 0.5799 0.55837 0.0
O271 O 0.03712 0.5882 0.52146 0.0
C272 C 0.03419 0.57632 0.53619 0.0
C273 C 0.04664 0.64054 0.48589 0.0
C274 C 0.00597 0.62598 0.54822 0.0
C275 C 0.06126 0.62669 0.56601 0.0
O276 O 0.05616 0.63612 0.54956 0.0
O277 O 0.05505 0.61241 0.56886 0.0
O278 O 0.04265 0.65115 0.50189 0.0
O279 O 0.0454 0.62505 0.49117 0.0
O280 O 0.6383 0.23271 0.6869 0.0
Cd281 Cd 0.64766 0.21064 0.69816 0.0
Cd282 Cd 0.62024 0.21146 0.7264 0.0
O283 O 0.61945 0.23587 0.71474 0.0
O284 O 0.67148 0.21176 0.69012 0.0
O285 O 0.66208 0.21112 0.72698 0.0
C286 C 0.67441 0.21262 0.71255 0.0
C287 C 0.61178 0.20505 0.76501 0.0
C288 C 0.62738 0.24147 0.697 0.0
C289 C 0.62299 0.18552 0.68699 0.0
O290 O 0.61442 0.19285 0.70266 0.0
O291 O 0.63773 0.18998 0.68272 0.0
O292 O 0.60142 0.20968 0.74903 0.0
O293 O 0.62727 0.20482 0.75944 0.0
O294 O 0.01732 0.38563 0.93941 0.0
Cd295 Cd 0.03904 0.39596 0.95038 0.0
Cd296 Cd 0.04014 0.36778 0.97759 0.0
O297 O 0.01582 0.36566 0.96591 0.0
O298 O 0.03672 0.41967 0.94215 0.0
O299 O 0.03822 0.41053 0.97907 0.0
C300 C 0.03608 0.4227 0.96455 0.0
C301 C 0.04684 0.3591 0.01602 0.0
C302 C 0.00945 0.37379 0.94891 0.0
C303 C 0.06563 0.37291 0.93808 0.0
O304 O 0.05911 0.36363 0.95367 0.0
O305 O 0.06003 0.38732 0.93427 0.0
O306 O 0.04306 0.34874 0.99959 0.0
O307 O 0.04616 0.37466 0.01096 0.0
O308 O 0.85988 0.76528 0.19288 0.0
Cd309 Cd 0.85159 0.78769 0.20454 0.0
Cd310 Cd 0.87887 0.7856 0.23191 0.0
O311 O 0.87876 0.7612 0.22037 0.0
O312 O 0.82779 0.7877 0.1962 0.0
O313 O 0.83698 0.78755 0.23318 0.0
C314 C 0.82469 0.78669 0.21856 0.0
C315 C 0.88647 0.79216 0.27076 0.0
C316 C 0.87053 0.75602 0.20265 0.0
C317 C 0.87759 0.81139 0.19264 0.0
O318 O 0.88602 0.80352 0.20793 0.0
O319 O 0.86249 0.8079 0.1891 0.0
O320 O 0.89697 0.78629 0.25583 0.0
O321 O 0.87127 0.79361 0.26402 0.0
O322 O 0.48343 0.61101 0.44281 0.0
Cd323 Cd 0.46081 0.60206 0.45257 0.0
Cd324 Cd 0.4605 0.63032 0.47958 0.0
O325 O 0.48478 0.63192 0.46777 0.0
O326 O 0.46187 0.57838 0.44365 0.0
O327 O 0.46035 0.58705 0.4808 0.0
C328 C 0.4621 0.575 0.46596 0.0
C329 C 0.45408 0.63801 0.51844 0.0
C330 C 0.49135 0.623 0.45179 0.0
C331 C 0.43534 0.62666 0.4398 0.0
O332 O 0.44186 0.63558 0.45579 0.0
O333 O 0.44059 0.61213 0.43581 0.0
O334 O 0.45873 0.6487 0.50292 0.0
O335 O 0.45363 0.62265 0.51219 0.0
O336 O 0.36099 0.23474 0.19413 0.0
Cd337 Cd 0.35477 0.21198 0.20718 0.0
Cd338 Cd 0.38161 0.2172 0.23293 0.0
O339 O 0.37889 0.2415 0.22184 0.0
O340 O 0.33099 0.20984 0.19919 0.0
O341 O 0.34032 0.2118 0.23597 0.0
C342 C 0.32793 0.21135 0.2215 0.0
C343 C 0.38794 0.2103 0.27202 0.0
C344 C 0.37037 0.24538 0.20375 0.0
C345 C 0.3829 0.19108 0.19464 0.0
O346 O 0.39082 0.2006 0.2085 0.0
O347 O 0.36729 0.19226 0.19285 0.0
O348 O 0.39856 0.21752 0.25852 0.0
O349 O 0.37328 0.20772 0.26369 0.0
O350 O 0.51379 0.61188 0.94548 0.0
Cd351 Cd 0.53678 0.60359 0.95479 0.0
Cd352 Cd 0.5372 0.63299 0.979 0.0
O353 O 0.51264 0.63392 0.96837 0.0
O354 O 0.53584 0.57987 0.94607 0.0
O355 O 0.53802 0.5886 0.98308 0.0
C356 C 0.53613 0.5765 0.96837 0.0
C357 C 0.54448 0.64109 0.01734 0.0
C358 C 0.50587 0.62417 0.95361 0.0
C359 C 0.56141 0.62822 0.93849 0.0
O360 O 0.55504 0.63781 0.9538 0.0
O361 O 0.55647 0.61338 0.93645 0.0
O362 O 0.53945 0.65162 0.00182 0.0
O363 O 0.5449 0.62568 0.01136 0.0
O364 O 0.13647 0.76244 0.68982 0.0
Cd365 Cd 0.14609 0.78479 0.69937 0.0
Cd366 Cd 0.11842 0.78511 0.7281 0.0
O367 O 0.11739 0.76046 0.71758 0.0
O368 O 0.16973 0.78327 0.69036 0.0
O369 O 0.16114 0.78496 0.72755 0.0
C370 C 0.17314 0.78299 0.71266 0.0
C371 C 0.10949 0.79236 0.76619 0.0
C372 C 0.12538 0.75415 0.70039 0.0
C373 C 0.12165 0.81009 0.6874 0.0
O374 O 0.11307 0.80337 0.70361 0.0
O375 O 0.13621 0.80513 0.68299 0.0
O376 O 0.09931 0.78761 0.75007 0.0
O377 O 0.12507 0.79225 0.7611 0.0
O378 O 0.98753 0.3862 0.44187 0.0
Cd379 Cd 0.96486 0.39409 0.4531 0.0
Cd380 Cd 0.96754 0.36798 0.48214 0.0
O381 O 0.99211 0.36882 0.47116 0.0
O382 O 0.96422 0.41786 0.44477 0.0
O383 O 0.96448 0.40861 0.48174 0.0
C384 C 0.96505 0.42093 0.46717 0.0
C385 C 0.96091 0.36193 0.5215 0.0
C386 C 0.99714 0.37645 0.45283 0.0
C387 C 0.94178 0.36732 0.4428 0.0
O388 O 0.94993 0.3595 0.45848 0.0
O389 O 0.94487 0.38239 0.43845 0.0
O390 O 0.96721 0.35096 0.50765 0.0
O391 O 0.95901 0.37672 0.51334 0.0
O392 O 0.36213 0.76267 0.30637 0.0
Cd393 Cd 0.35598 0.78558 0.29371 0.0
Cd394 Cd 0.38262 0.78033 0.26755 0.0
O395 O 0.37974 0.75597 0.27826 0.0
O396 O 0.33224 0.78783 0.30189 0.0
O397 O 0.34144 0.78596 0.26502 0.0
C398 C 0.3291 0.78641 0.27958 0.0
C399 C 0.38879 0.78758 0.22855 0.0
C400 C 0.3713 0.75201 0.2964 0.0
C401 C 0.38433 0.8063 0.30598 0.0
O402 O 0.39211 0.79669 0.29206 0.0
O403 O 0.36871 0.80523 0.3079 0.0
O404 O 0.39941 0.78009 0.24177 0.0
O405 O 0.3742 0.79019 0.23708 0.0
O406 O 0.988 0.61157 0.06122 0.0
Cd407 Cd 0.96517 0.60375 0.05059 0.0
Cd408 Cd 0.96745 0.63045 0.02211 0.0
O409 O 0.99218 0.62935 0.03229 0.0
O410 O 0.96465 0.57994 0.05874 0.0
O411 O 0.96438 0.58931 0.02185 0.0
C412 C 0.96514 0.57693 0.03631 0.0
C413 C 0.96012 0.63786 0.98346 0.0
C414 C 0.99747 0.62146 0.05026 0.0
C415 C 0.94223 0.63039 0.06228 0.0
O416 O 0.95019 0.63842 0.04663 0.0
O417 O 0.94537 0.61526 0.06614 0.0
O418 O 0.96676 0.64829 0.99781 0.0
O419 O 0.95839 0.62279 0.99061 0.0
O420 O 0.13749 0.23965 0.80178 0.0
Cd421 Cd 0.14217 0.21595 0.79018 0.0
Cd422 Cd 0.11525 0.22278 0.76702 0.0
O423 O 0.12043 0.24732 0.77351 0.0
O424 O 0.16579 0.21287 0.79854 0.0
O425 O 0.15675 0.21408 0.76158 0.0
C426 C 0.16903 0.21358 0.77621 0.0
C427 C 0.10731 0.21254 0.73013 0.0
C428 C 0.12928 0.25091 0.79139 0.0
C429 C 0.11335 0.19954 0.80854 0.0
O430 O 0.106 0.21017 0.79577 0.0
O431 O 0.12885 0.19742 0.80659 0.0
O432 O 0.09737 0.22128 0.74287 0.0
O433 O 0.12218 0.21026 0.73786 0.0
O434 O 0.51561 0.38743 0.56053 0.0
Cd435 Cd 0.53794 0.39511 0.54767 0.0
Cd436 Cd 0.53524 0.36712 0.52258 0.0
O437 O 0.51087 0.36786 0.53432 0.0
O438 O 0.53828 0.41903 0.5552 0.0
O439 O 0.53752 0.40928 0.51856 0.0
C440 C 0.53696 0.42179 0.53279 0.0
C441 C 0.54168 0.35982 0.48362 0.0
C442 C 0.50604 0.37667 0.55164 0.0
C443 C 0.56145 0.36918 0.56097 0.0
O444 O 0.55317 0.36023 0.54675 0.0
O445 O 0.55831 0.38449 0.56306 0.0
O446 O 0.53582 0.3492 0.4984 0.0
O447 O 0.54322 0.37494 0.49062 0.0
C448 C 0.07229 0.13298 0.40061 0.0
C449 C 0.07359 0.13464 0.42527 0.0
C450 C 0.08076 0.14385 0.38564 0.0
C451 C 0.09844 0.18607 0.38875 0.0
H452 H 0.11053 0.17774 0.32336 0.0
C453 C 0.13093 0.23473 0.33263 0.0
C454 C 0.12198 0.23982 0.31255 0.0
C455 C 0.12683 0.22019 0.34441 0.0
C456 C 0.10716 0.18016 0.3416 0.0
H457 H 0.08589 0.14763 0.45372 0.0
H458 H 0.10168 0.16573 0.42775 0.0
H459 H 0.10159 0.15472 0.34854 0.0
H460 H 0.1023 0.23305 0.2883 0.0
H461 H 0.09524 0.20729 0.30901 0.0
H462 H 0.10436 0.21137 0.38192 0.0
C463 C 0.09346 0.15675 0.4198 0.0
C464 C 0.102 0.16703 0.35603 0.0
C465 C 0.08462 0.14624 0.43472 0.0
C466 C 0.10936 0.22952 0.30379 0.0
C467 C 0.10538 0.21477 0.31551 0.0
C468 C 0.10386 0.19902 0.37452 0.0
C469 C 0.09096 0.15632 0.39512 0.0
C470 C 0.09752 0.16984 0.37982 0.0
C471 C 0.11383 0.21026 0.33625 0.0
C472 C 0.10821 0.19621 0.35085 0.0
H473 H 0.0637 0.1242 0.39296 0.0
H474 H 0.07842 0.14312 0.3668 0.0
H475 H 0.09458 0.18894 0.40663 0.0
H476 H 0.1408 0.24227 0.33983 0.0
H477 H 0.13355 0.21688 0.36032 0.0
C478 C 0.01423 0.88265 0.58155 0.0
C479 C 0.00968 0.87409 0.56087 0.0
C480 C 0.02888 0.87883 0.59331 0.0
C481 C 0.06943 0.85923 0.5899 0.0
H482 H 0.06037 0.84637 0.65473 0.0
C483 C 0.11511 0.8214 0.64745 0.0
C484 C 0.11369 0.8225 0.67216 0.0
C485 C 0.10459 0.83061 0.63286 0.0
C486 C 0.06334 0.8503 0.63691 0.0
H487 H 0.01754 0.85555 0.53548 0.0
H488 H 0.04337 0.84894 0.5562 0.0
H489 H 0.03823 0.85712 0.63037 0.0
H490 H 0.10154 0.83511 0.7011 0.0
H491 H 0.08404 0.85206 0.67579 0.0
H492 H 0.09465 0.85257 0.59654 0.0
C493 C 0.03545 0.85857 0.56318 0.0
C494 C 0.05055 0.85634 0.62288 0.0
C495 C 0.02064 0.8623 0.55144 0.0
C496 C 0.1027 0.83396 0.68205 0.0
C497 C 0.09255 0.8435 0.66751 0.0
C498 C 0.08239 0.85343 0.60413 0.0
C499 C 0.0394 0.86648 0.58459 0.0
C500 C 0.05342 0.86075 0.59924 0.0
C501 C 0.09272 0.84132 0.64276 0.0
C502 C 0.07947 0.84877 0.62782 0.0
H503 H 0.0062 0.89193 0.58922 0.0
H504 H 0.03176 0.8852 0.60968 0.0
H505 H 0.07191 0.86262 0.57169 0.0
H506 H 0.12344 0.81253 0.63946 0.0
H507 H 0.10508 0.82849 0.61395 0.0
C508 C 0.42206 0.86469 0.90103 0.0
C509 C 0.42251 0.86218 0.9256 0.0
C510 C 0.41253 0.85436 0.88662 0.0
C511 C 0.39475 0.81217 0.88898 0.0
H512 H 0.37884 0.82311 0.82611 0.0
C513 C 0.36258 0.76399 0.83179 0.0
C514 C 0.3708 0.76078 0.81032 0.0
C515 C 0.36588 0.77836 0.84452 0.0
C516 C 0.38321 0.81997 0.84367 0.0
H517 H 0.41227 0.84816 0.95472 0.0
H518 H 0.39471 0.83092 0.92992 0.0
H519 H 0.38908 0.8451 0.85208 0.0
H520 H 0.38801 0.77076 0.78455 0.0
H521 H 0.39368 0.79609 0.80695 0.0
H522 H 0.38869 0.78713 0.88067 0.0
C523 C 0.40235 0.84018 0.92146 0.0
C524 C 0.38914 0.8325 0.85853 0.0
C525 C 0.41225 0.85017 0.93575 0.0
C526 C 0.38156 0.77283 0.80109 0.0
C527 C 0.38475 0.78734 0.81381 0.0
C528 C 0.38855 0.79979 0.87437 0.0
C529 C 0.40298 0.84157 0.89661 0.0
C530 C 0.39518 0.82873 0.88133 0.0
C531 C 0.37732 0.78993 0.83599 0.0
C532 C 0.38289 0.80352 0.85153 0.0
H533 H 0.42998 0.87384 0.8928 0.0
H534 H 0.41348 0.85581 0.86762 0.0
H535 H 0.39972 0.80857 0.906 0.0
H536 H 0.35409 0.75508 0.83934 0.0
H537 H 0.35992 0.78017 0.86151 0.0
C538 C 0.38527 0.17378 0.15793 0.0
C539 C 0.39224 0.17973 0.17909 0.0
C540 C 0.39498 0.16504 0.14169 0.0
C541 C 0.43419 0.14209 0.1355 0.0
H542 H 0.43431 0.15862 0.07102 0.0
C543 C 0.48308 0.14514 0.05452 0.0
C544 C 0.48945 0.12902 0.05596 0.0
C545 C 0.46853 0.14931 0.06656 0.0
C546 C 0.43436 0.15384 0.08893 0.0
H547 H 0.41454 0.18044 0.2004 0.0
H548 H 0.43136 0.16508 0.17229 0.0
H549 H 0.41384 0.16897 0.09927 0.0
H550 H 0.48485 0.1043 0.06937 0.0
H551 H 0.45945 0.11151 0.08996 0.0
H552 H 0.4551 0.12753 0.12567 0.0
C553 C 0.41844 0.16718 0.16817 0.0
C554 C 0.42255 0.15962 0.10502 0.0
C555 C 0.40883 0.17606 0.18423 0.0
C556 C 0.48041 0.11691 0.06824 0.0
C557 C 0.46587 0.12104 0.08011 0.0
C558 C 0.44592 0.13626 0.11945 0.0
C559 C 0.41173 0.16189 0.14652 0.0
C560 C 0.42262 0.15408 0.12862 0.0
C561 C 0.46008 0.1374 0.08012 0.0
C562 C 0.44637 0.14231 0.09611 0.0
H563 H 0.37253 0.17648 0.15345 0.0
H564 H 0.38948 0.16099 0.12519 0.0
H565 H 0.43445 0.13751 0.15353 0.0
H566 H 0.48976 0.15473 0.04518 0.0
H567 H 0.46443 0.16205 0.06632 0.0
C568 C 0.11043 0.76677 0.19737 0.0
C569 C 0.12305 0.75655 0.18841 0.0
C570 C 0.10616 0.78141 0.18559 0.0
C571 C 0.10343 0.79665 0.12659 0.0
H572 H 0.10203 0.84129 0.15144 0.0
C573 C 0.0838 0.84892 0.06572 0.0
C574 C 0.07311 0.86081 0.07521 0.0
C575 C 0.09267 0.83843 0.08063 0.0
C576 C 0.10219 0.82888 0.14429 0.0
H577 H 0.14155 0.75413 0.16069 0.0
H578 H 0.13378 0.77932 0.14008 0.0
H579 H 0.11139 0.81854 0.17683 0.0
H580 H 0.06381 0.87176 0.10754 0.0
H581 H 0.07858 0.85287 0.13372 0.0
H582 H 0.09352 0.80637 0.09464 0.0
C583 C 0.1273 0.77604 0.15621 0.0
C584 C 0.10758 0.81592 0.15883 0.0
C585 C 0.13171 0.76161 0.16805 0.0
C586 C 0.07213 0.86274 0.09985 0.0
C587 C 0.08064 0.8519 0.11484 0.0
C588 C 0.09777 0.80945 0.11227 0.0
C589 C 0.11431 0.78588 0.16459 0.0
C590 C 0.10833 0.79974 0.14995 0.0
C591 C 0.09052 0.83918 0.10536 0.0
C592 C 0.09719 0.82579 0.12078 0.0
H593 H 0.1036 0.76326 0.21307 0.0
H594 H 0.09602 0.78883 0.19225 0.0
H595 H 0.1037 0.7842 0.11951 0.0
H596 H 0.08483 0.84733 0.04672 0.0
H597 H 0.10065 0.82924 0.07266 0.0
C598 C 0.38679 0.82445 0.34186 0.0
C599 C 0.3938 0.81776 0.32118 0.0
C600 C 0.39653 0.83354 0.35768 0.0
C601 C 0.43623 0.85592 0.36288 0.0
H602 H 0.43515 0.84202 0.4286 0.0
C603 C 0.48387 0.8546 0.44564 0.0
C604 C 0.49087 0.8704 0.4431 0.0
C605 C 0.46943 0.85043 0.43335 0.0
C606 C 0.43555 0.84606 0.41033 0.0
H607 H 0.41626 0.81604 0.30031 0.0
H608 H 0.43313 0.83191 0.32771 0.0
H609 H 0.41474 0.8311 0.40075 0.0
H610 H 0.4875 0.89461 0.42725 0.0
H611 H 0.46226 0.88742 0.40622 0.0
H612 H 0.45744 0.87024 0.37201 0.0
C613 C 0.42015 0.83017 0.33176 0.0
C614 C 0.42376 0.83996 0.39445 0.0
C615 C 0.4105 0.82098 0.31611 0.0
C616 C 0.48257 0.88224 0.42929 0.0
C617 C 0.46813 0.87811 0.41716 0.0
C618 C 0.44795 0.86204 0.37872 0.0
C619 C 0.41337 0.83627 0.35292 0.0
C620 C 0.42425 0.84452 0.37044 0.0
C621 C 0.46169 0.86202 0.41843 0.0
C622 C 0.44798 0.85692 0.40252 0.0
H623 H 0.37397 0.82214 0.34627 0.0
H624 H 0.39097 0.83821 0.37379 0.0
H625 H 0.43681 0.85977 0.34453 0.0
H626 H 0.48996 0.84521 0.45617 0.0
H627 H 0.46485 0.83788 0.43459 0.0
C628 C 0.36641 0.23704 0.66764 0.0
C629 C 0.3737 0.24087 0.68959 0.0
C630 C 0.37112 0.22292 0.65526 0.0
C631 C 0.38895 0.18222 0.65682 0.0
H632 H 0.40875 0.19419 0.59669 0.0
C633 C 0.42603 0.13618 0.59849 0.0
C634 C 0.4268 0.13922 0.57406 0.0
C635 C 0.41738 0.14697 0.61338 0.0
C636 C 0.40292 0.19048 0.61311 0.0
H637 H 0.39086 0.23227 0.71643 0.0
H638 H 0.39894 0.20726 0.69464 0.0
H639 H 0.39754 0.21558 0.62209 0.0
H640 H 0.41803 0.15485 0.54563 0.0
H641 H 0.40201 0.173 0.5712 0.0
H642 H 0.39391 0.15702 0.64758 0.0
C643 C 0.38966 0.21539 0.68716 0.0
C644 C 0.39667 0.20281 0.62776 0.0
C645 C 0.3851 0.22971 0.69952 0.0
C646 C 0.41775 0.15239 0.56448 0.0
C647 C 0.40875 0.16289 0.57922 0.0
C648 C 0.39495 0.16975 0.64188 0.0
C649 C 0.38302 0.21219 0.66466 0.0
C650 C 0.38965 0.19881 0.64969 0.0
C651 C 0.40907 0.16079 0.60397 0.0
C652 C 0.40201 0.17374 0.61978 0.0
H653 H 0.35751 0.24527 0.65949 0.0
H654 H 0.36581 0.22062 0.63795 0.0
H655 H 0.38351 0.17891 0.67369 0.0
H656 H 0.43303 0.12613 0.60628 0.0
H657 H 0.41801 0.14496 0.6323 0.0
C658 C 0.09309 0.20131 0.84106 0.0
C659 C 0.104 0.1916 0.82772 0.0
C660 C 0.08329 0.19421 0.85853 0.0
C661 C 0.07577 0.15579 0.89342 0.0
H662 H 0.03155 0.17425 0.89646 0.0
C663 C 0.01747 0.12415 0.9332 0.0
C664 C 0.00649 0.13428 0.94599 0.0
C665 C 0.03169 0.13082 0.9229 0.0
C666 C 0.04393 0.16912 0.8961 0.0
H667 H 0.11378 0.16698 0.82254 0.0
H668 H 0.0958 0.15415 0.8524 0.0
H669 H 0.05158 0.1861 0.86955 0.0
H670 H 0.00247 0.15907 0.95947 0.0
H671 H 0.02721 0.17073 0.94118 0.0
H672 H 0.06745 0.13815 0.91928 0.0
C673 C 0.09515 0.16739 0.84981 0.0
C674 C 0.05548 0.17594 0.8807 0.0
C675 C 0.10536 0.17466 0.83262 0.0
C676 C 0.0106 0.15096 0.94961 0.0
C677 C 0.02473 0.15765 0.93911 0.0
C678 C 0.06403 0.14876 0.90865 0.0
C679 C 0.08374 0.17707 0.86263 0.0
C680 C 0.07161 0.16948 0.87923 0.0
C681 C 0.03509 0.14776 0.92503 0.0
C682 C 0.04804 0.15546 0.91018 0.0
H683 H 0.09213 0.2145 0.83795 0.0
H684 H 0.07516 0.20219 0.86859 0.0
H685 H 0.08809 0.15056 0.89289 0.0
H686 H 0.01473 0.11121 0.93027 0.0
H687 H 0.03944 0.12295 0.91206 0.0
C688 C 0.92442 0.86227 0.59891 0.0
C689 C 0.92563 0.8588 0.57463 0.0
C690 C 0.91539 0.85183 0.61383 0.0
C691 C 0.90031 0.8085 0.61467 0.0
H692 H 0.88053 0.82151 0.67441 0.0
C693 C 0.86504 0.76238 0.67161 0.0
C694 C 0.87211 0.75979 0.69406 0.0
C695 C 0.86919 0.77626 0.65829 0.0
C696 C 0.88603 0.81779 0.65775 0.0
H697 H 0.91726 0.84273 0.54644 0.0
H698 H 0.9006 0.82518 0.57202 0.0
H699 H 0.89128 0.84274 0.64753 0.0
H700 H 0.88815 0.77042 0.72084 0.0
H701 H 0.89524 0.79496 0.69743 0.0
H702 H 0.89474 0.78364 0.62469 0.0
C703 C 0.90728 0.83537 0.57995 0.0
C704 C 0.89225 0.82989 0.64238 0.0
C705 C 0.91667 0.84552 0.56519 0.0
C706 C 0.88256 0.77201 0.70357 0.0
C707 C 0.88657 0.78607 0.69026 0.0
C708 C 0.89383 0.79653 0.62975 0.0
C709 C 0.90711 0.83793 0.60462 0.0
C710 C 0.89955 0.82538 0.62065 0.0
C711 C 0.88031 0.78798 0.66723 0.0
C712 C 0.88671 0.80104 0.65142 0.0
H713 H 0.93134 0.8724 0.60661 0.0
H714 H 0.91568 0.85419 0.63269 0.0
H715 H 0.90628 0.80439 0.59857 0.0
H716 H 0.85684 0.75331 0.66377 0.0
H717 H 0.86414 0.77757 0.64062 0.0
C718 C 0.97863 0.13702 0.44878 0.0
C719 C 0.98941 0.125 0.4395 0.0
C720 C 0.96399 0.14106 0.43679 0.0
C721 C 0.94923 0.14442 0.37744 0.0
H722 H 0.90436 0.14387 0.40159 0.0
C723 C 0.89668 0.16322 0.31639 0.0
C724 C 0.88437 0.17336 0.32605 0.0
C725 C 0.90739 0.15449 0.33116 0.0
C726 C 0.91683 0.14426 0.39464 0.0
H727 H 0.99286 0.10731 0.41093 0.0
H728 H 0.96768 0.11468 0.39001 0.0
H729 H 0.92724 0.13491 0.42704 0.0
H730 H 0.87291 0.18172 0.35856 0.0
H731 H 0.89211 0.16717 0.38448 0.0
H732 H 0.93939 0.15448 0.34565 0.0
C733 C 0.97051 0.12088 0.40653 0.0
C734 C 0.92987 0.13909 0.40921 0.0
C735 C 0.98494 0.1167 0.41856 0.0
C736 C 0.88225 0.17384 0.35071 0.0
C737 C 0.89328 0.16546 0.36555 0.0
C738 C 0.93634 0.14985 0.36309 0.0
C739 C 0.96009 0.13329 0.41527 0.0
C740 C 0.94614 0.13904 0.40059 0.0
C741 C 0.9064 0.15619 0.35594 0.0
C742 C 0.91991 0.14973 0.37135 0.0
H743 H 0.98168 0.14357 0.46492 0.0
H744 H 0.95612 0.15074 0.44375 0.0
H745 H 0.96174 0.14469 0.37055 0.0
H746 H 0.89844 0.16257 0.29739 0.0
H747 H 0.91691 0.14697 0.32305 0.0
C748 C 0.58678 0.14392 0.07021 0.0
C749 C 0.57397 0.13394 0.07881 0.0
C750 C 0.59604 0.15364 0.08572 0.0
C751 C 0.60209 0.16457 0.1499 0.0
H752 H 0.61011 0.20785 0.12273 0.0
C753 C 0.6098 0.22697 0.20123 0.0
C754 C 0.62266 0.23727 0.19323 0.0
C755 C 0.6064 0.21205 0.18961 0.0
C756 C 0.60812 0.19577 0.13051 0.0
H757 H 0.56126 0.12546 0.11025 0.0
H758 H 0.57674 0.1431 0.13732 0.0
H759 H 0.60008 0.18578 0.09769 0.0
H760 H 0.64273 0.23938 0.16779 0.0
H761 H 0.63659 0.21361 0.14753 0.0
H762 H 0.6093 0.1753 0.18319 0.0
C763 C 0.58014 0.14311 0.11878 0.0
C764 C 0.6025 0.183 0.11611 0.0
C765 C 0.57121 0.13299 0.10329 0.0
C766 C 0.6326 0.23189 0.17429 0.0
C767 C 0.62912 0.21711 0.16265 0.0
C768 C 0.60747 0.17753 0.16446 0.0
C769 C 0.59222 0.15408 0.11005 0.0
C770 C 0.59939 0.16719 0.12552 0.0
C771 C 0.61574 0.20729 0.16977 0.0
C772 C 0.61053 0.19323 0.15482 0.0
H773 H 0.58919 0.14472 0.05137 0.0
H774 H 0.60566 0.16142 0.0784 0.0
H775 H 0.59998 0.15256 0.15778 0.0
H776 H 0.60198 0.23072 0.21584 0.0
H777 H 0.59596 0.20468 0.19534 0.0
C778 C 0.51155 0.87701 0.91526 0.0
C779 C 0.50769 0.87189 0.93838 0.0
C780 C 0.52662 0.87282 0.90497 0.0
C781 C 0.56043 0.84226 0.90985 0.0
H782 H 0.57929 0.86957 0.86025 0.0
C783 C 0.61574 0.82136 0.85212 0.0
C784 C 0.61073 0.81979 0.82839 0.0
C785 C 0.6061 0.83034 0.86817 0.0
C786 C 0.57425 0.86193 0.87425 0.0
H787 H 0.51692 0.85884 0.96917 0.0
H788 H 0.54361 0.85191 0.95143 0.0
H789 H 0.55711 0.88056 0.88495 0.0
H790 H 0.59243 0.82719 0.80245 0.0
H791 H 0.57593 0.84338 0.83033 0.0
H792 H 0.57771 0.82366 0.89895 0.0
C793 C 0.53475 0.85883 0.94102 0.0
C794 C 0.56145 0.86812 0.88827 0.0
C795 C 0.51949 0.86285 0.95125 0.0
C796 C 0.59654 0.8282 0.82065 0.0
C797 C 0.58715 0.83749 0.83654 0.0
C798 C 0.57348 0.83621 0.89613 0.0
C799 C 0.53843 0.8636 0.91761 0.0
C800 C 0.55392 0.85813 0.90564 0.0
C801 C 0.59159 0.83824 0.86055 0.0
C802 C 0.5801 0.8458 0.87773 0.0
H803 H 0.5027 0.8839 0.90476 0.0
H804 H 0.52873 0.87638 0.88674 0.0
H805 H 0.5549 0.83411 0.92282 0.0
H806 H 0.62657 0.81489 0.85857 0.0
H807 H 0.6097 0.83075 0.88664 0.0
C808 C 0.86979 0.22747 0.8234 0.0
C809 C 0.87741 0.2333 0.80266 0.0
C810 C 0.87324 0.21171 0.83203 0.0
C811 C 0.90587 0.18003 0.83018 0.0
H812 H 0.87463 0.15667 0.87016 0.0
C813 C 0.92645 0.12618 0.88949 0.0
C814 C 0.92395 0.13034 0.91339 0.0
C815 C 0.918 0.13469 0.87164 0.0
C816 C 0.88341 0.16294 0.85879 0.0
H817 H 0.89405 0.22678 0.77404 0.0
H818 H 0.89981 0.19897 0.78884 0.0
H819 H 0.86502 0.17939 0.84526 0.0
H820 H 0.90966 0.14553 0.93748 0.0
H821 H 0.89458 0.16003 0.90636 0.0
H822 H 0.92428 0.16369 0.84412 0.0
C823 C 0.89143 0.20679 0.79873 0.0
C824 C 0.87797 0.17604 0.84468 0.0
C825 C 0.88808 0.22271 0.79019 0.0
C826 C 0.91185 0.14212 0.9192 0.0
C827 C 0.90318 0.15035 0.9014 0.0
C828 C 0.91124 0.16675 0.844 0.0
C829 C 0.88427 0.20121 0.82002 0.0
C830 C 0.88928 0.18523 0.831 0.0
C831 C 0.90665 0.14718 0.87746 0.0
C832 C 0.90018 0.15852 0.85911 0.0
H833 H 0.86152 0.23528 0.83352 0.0
H834 H 0.86773 0.20808 0.84871 0.0
H835 H 0.91499 0.18685 0.82011 0.0
H836 H 0.93577 0.11721 0.88451 0.0
H837 H 0.92085 0.13203 0.85329 0.0
C838 C 0.61658 0.17377 0.64729 0.0
C839 C 0.61483 0.17311 0.67198 0.0
C840 C 0.6059 0.16474 0.6327 0.0
C841 C 0.56392 0.14657 0.63629 0.0
H842 H 0.57283 0.13304 0.57166 0.0
C843 C 0.51473 0.11446 0.5808 0.0
C844 C 0.51042 0.12297 0.55997 0.0
C845 C 0.52936 0.11815 0.5927 0.0
C846 C 0.57025 0.13678 0.5897 0.0
H847 H 0.60185 0.16143 0.70098 0.0
H848 H 0.58406 0.14473 0.67575 0.0
H849 H 0.5956 0.14269 0.59676 0.0
H850 H 0.51868 0.14125 0.53446 0.0
H851 H 0.5445 0.1476 0.5554 0.0
H852 H 0.53869 0.14044 0.62934 0.0
C853 C 0.59297 0.15284 0.66743 0.0
C854 C 0.58323 0.14235 0.60408 0.0
C855 C 0.6033 0.16223 0.68194 0.0
C856 C 0.5216 0.13455 0.55053 0.0
C857 C 0.53639 0.13813 0.5624 0.0
C858 C 0.5511 0.14074 0.62213 0.0
C859 C 0.59352 0.15463 0.64262 0.0
C860 C 0.5802 0.14743 0.62756 0.0
C861 C 0.54011 0.13029 0.58395 0.0
C862 C 0.5541 0.13589 0.59871 0.0
H863 H 0.62532 0.18221 0.63923 0.0
H864 H 0.60671 0.16655 0.61375 0.0
H865 H 0.56087 0.15086 0.65391 0.0
H866 H 0.50652 0.10535 0.5885 0.0
H867 H 0.53204 0.11185 0.60919 0.0
C868 C 0.6168 0.77868 0.29484 0.0
C869 C 0.62494 0.76617 0.30758 0.0
C870 C 0.61401 0.79416 0.30518 0.0
C871 C 0.62459 0.81978 0.35854 0.0
H872 H 0.58023 0.83687 0.34975 0.0
C873 C 0.5854 0.85145 0.42978 0.0
C874 C 0.57573 0.86517 0.42347 0.0
C875 C 0.59511 0.84346 0.41286 0.0
C876 C 0.59279 0.83248 0.35203 0.0
H877 H 0.63701 0.76031 0.34087 0.0
H878 H 0.63164 0.7868 0.35906 0.0
H879 H 0.59019 0.81478 0.32427 0.0
H880 H 0.56922 0.88182 0.39486 0.0
H881 H 0.58585 0.86744 0.36501 0.0
H882 H 0.62652 0.83667 0.38769 0.0
C883 C 0.62777 0.78499 0.34089 0.0
C884 C 0.59855 0.81982 0.33737 0.0
C885 C 0.63071 0.76965 0.3305 0.0
C886 C 0.57662 0.87131 0.40022 0.0
C887 C 0.58606 0.86308 0.38314 0.0
C888 C 0.61871 0.83223 0.37346 0.0
C889 C 0.61916 0.79739 0.32855 0.0
C890 C 0.61431 0.81289 0.34099 0.0
C891 C 0.59506 0.84886 0.38923 0.0
C892 C 0.60258 0.83832 0.37076 0.0
H893 H 0.61234 0.77643 0.27704 0.0
H894 H 0.60756 0.80349 0.29499 0.0
H895 H 0.63697 0.81509 0.36143 0.0
H896 H 0.58497 0.8465 0.44759 0.0
H897 H 0.60182 0.83243 0.41794 0.0
C898 C 0.89878 0.83318 0.1864 0.0
C899 C 0.88618 0.82321 0.17716 0.0
C900 C 0.90923 0.84192 0.17127 0.0
C901 C 0.91723 0.85262 0.10755 0.0
H902 H 0.96264 0.85223 0.12964 0.0
C903 C 0.9784 0.8599 0.05169 0.0
C904 C 0.9891 0.87215 0.06053 0.0
C905 C 0.96386 0.85588 0.06392 0.0
C906 C 0.94999 0.85248 0.12332 0.0
H907 H 0.87399 0.81509 0.14509 0.0
H908 H 0.89276 0.82962 0.11849 0.0
H909 H 0.94089 0.84212 0.15535 0.0
H910 H 0.99243 0.89035 0.08846 0.0
H911 H 0.96743 0.883 0.10984 0.0
H912 H 0.92691 0.86226 0.07485 0.0
C913 C 0.89434 0.83121 0.13738 0.0
C914 C 0.93744 0.84687 0.13813 0.0
C915 C 0.88357 0.82284 0.1526 0.0
C916 C 0.98458 0.88077 0.08118 0.0
C917 C 0.97025 0.87662 0.09346 0.0
C918 C 0.92993 0.85796 0.09249 0.0
C919 C 0.9077 0.84038 0.14652 0.0
C920 C 0.92084 0.84697 0.1306 0.0
C921 C 0.95998 0.86392 0.08524 0.0
C922 C 0.94637 0.85802 0.1004 0.0
H923 H 0.9009 0.83377 0.20533 0.0
H924 H 0.91895 0.84936 0.17905 0.0
H925 H 0.90462 0.85301 0.10115 0.0
H926 H 0.9815 0.85309 0.03578 0.0
H927 H 0.9561 0.84597 0.05738 0.0
C928 C 0.58346 0.64843 0.92798 0.0
C929 C 0.57338 0.63506 0.92144 0.0
C930 C 0.59277 0.65679 0.91098 0.0
C931 C 0.58897 0.67014 0.85153 0.0
H932 H 0.63439 0.68468 0.85829 0.0
C933 C 0.61407 0.7245 0.79609 0.0
C934 C 0.6237 0.73591 0.80881 0.0
C935 C 0.61052 0.70894 0.8057 0.0
C936 C 0.62166 0.68081 0.85617 0.0
H937 H 0.56562 0.61948 0.89225 0.0
H938 H 0.58153 0.63457 0.86225 0.0
H939 H 0.6238 0.66273 0.88378 0.0
H940 H 0.63743 0.73978 0.84138 0.0
H941 H 0.63077 0.71322 0.85837 0.0
H942 H 0.58626 0.68903 0.82543 0.0
C943 C 0.5824 0.63832 0.88063 0.0
C944 C 0.61569 0.66814 0.87062 0.0
C945 C 0.57338 0.62969 0.89777 0.0
C946 C 0.63002 0.73129 0.83101 0.0
C947 C 0.62632 0.7159 0.8407 0.0
C948 C 0.59483 0.68304 0.83738 0.0
C949 C 0.59188 0.65215 0.88706 0.0
C950 C 0.59917 0.66304 0.86887 0.0
C951 C 0.61637 0.70455 0.82834 0.0
C952 C 0.6111 0.68893 0.8401 0.0
H953 H 0.58367 0.6528 0.94611 0.0
H954 H 0.59988 0.66751 0.91631 0.0
H955 H 0.57612 0.66651 0.85003 0.0
H956 H 0.60914 0.72765 0.77884 0.0
H957 H 0.60301 0.70045 0.79552 0.0
C958 C 0.61482 0.32226 0.15035 0.0
C959 C 0.60929 0.32097 0.17388 0.0
C960 C 0.60562 0.33118 0.13372 0.0
C961 C 0.57446 0.3631 0.12546 0.0
H962 H 0.555 0.33472 0.07765 0.0
C963 C 0.51217 0.37819 0.08346 0.0
C964 C 0.50823 0.37263 0.06058 0.0
C965 C 0.52722 0.37409 0.09389 0.0
C966 C 0.56058 0.34301 0.09038 0.0
H967 H 0.59052 0.32878 0.19886 0.0
H968 H 0.5748 0.3449 0.16996 0.0
H969 H 0.57739 0.3243 0.10236 0.0
H970 H 0.51734 0.35892 0.03029 0.0
H971 H 0.54399 0.35213 0.04827 0.0
H972 H 0.55776 0.38183 0.11371 0.0
C973 C 0.58609 0.33883 0.16436 0.0
C974 C 0.57338 0.33699 0.10458 0.0
C975 C 0.59502 0.32958 0.18083 0.0
C976 C 0.51996 0.36328 0.04803 0.0
C977 C 0.53521 0.35934 0.0584 0.0
C978 C 0.56191 0.36925 0.11094 0.0
C979 C 0.59105 0.3393 0.14056 0.0
C980 C 0.57999 0.34679 0.12275 0.0
C981 C 0.53893 0.36451 0.08162 0.0
C982 C 0.55432 0.35906 0.09387 0.0
H983 H 0.62571 0.31562 0.14451 0.0
H984 H 0.60961 0.33138 0.11541 0.0
H985 H 0.5795 0.37089 0.13928 0.0
H986 H 0.50339 0.38533 0.09372 0.0
H987 H 0.52936 0.37798 0.11197 0.0
C988 C 0.88566 0.26805 0.30429 0.0
C989 C 0.87397 0.25718 0.3142 0.0
C990 C 0.8905 0.28229 0.31659 0.0
C991 C 0.89774 0.29492 0.37583 0.0
H992 H 0.89596 0.34067 0.35558 0.0
C993 C 0.92066 0.34523 0.43813 0.0
C994 C 0.92982 0.35818 0.42818 0.0
C995 C 0.91132 0.3348 0.42373 0.0
C996 C 0.89673 0.32794 0.3614 0.0
H997 H 0.85762 0.25321 0.34422 0.0
H998 H 0.86641 0.27772 0.3657 0.0
H999 H 0.88494 0.31891 0.32979 0.0
H1000 H 0.93595 0.37093 0.39563 0.0
H1001 H 0.92038 0.3522 0.37021 0.0
H1002 H 0.9102 0.30339 0.40668 0.0
C1003 C 0.87171 0.27526 0.34843 0.0
C1004 C 0.89037 0.31555 0.34665 0.0
C1005 C 0.86672 0.26123 0.33608 0.0
C1006 C 0.92888 0.36105 0.40371 0.0
C1007 C 0.91989 0.35032 0.38917 0.0
C1008 C 0.90437 0.30716 0.3903 0.0
C1009 C 0.88387 0.28569 0.33903 0.0
C1010 C 0.89075 0.29899 0.35391 0.0
C1011 C 0.9114 0.33674 0.39894 0.0
C1012 C 0.90385 0.32389 0.38344 0.0
H1013 H 0.89141 0.26532 0.28742 0.0
H1014 H 0.89998 0.29019 0.30913 0.0
H1015 H 0.89835 0.28215 0.38161 0.0
H1016 H 0.92104 0.34292 0.45702 0.0
H1017 H 0.90446 0.32488 0.43204 0.0
C1018 C 0.90958 0.67785 0.68675 0.0
C1019 C 0.89244 0.67908 0.68311 0.0
C1020 C 0.91968 0.67058 0.66971 0.0
C1021 C 0.92148 0.64385 0.61749 0.0
H1022 H 0.9597 0.67094 0.60262 0.0
C1023 C 0.98301 0.64665 0.55235 0.0
C1024 C 0.98936 0.63078 0.55677 0.0
C1025 C 0.96858 0.65197 0.56368 0.0
C1026 C 0.94896 0.66335 0.60622 0.0
H1027 H 0.8723 0.67251 0.65951 0.0
H1028 H 0.89011 0.65965 0.62965 0.0
H1029 H 0.9398 0.68049 0.6318 0.0
H1030 H 0.9848 0.60759 0.575 0.0
H1031 H 0.95983 0.61691 0.59483 0.0
H1032 H 0.93092 0.62655 0.59207 0.0
C1033 C 0.89565 0.66444 0.64571 0.0
C1034 C 0.93768 0.66871 0.6232 0.0
C1035 C 0.88547 0.67178 0.66281 0.0
C1036 C 0.98034 0.61996 0.57138 0.0
C1037 C 0.96592 0.62525 0.58262 0.0
C1038 C 0.93288 0.6384 0.60053 0.0
C1039 C 0.9129 0.66435 0.64865 0.0
C1040 C 0.92403 0.65888 0.62937 0.0
C1041 C 0.9602 0.64149 0.57954 0.0
C1042 C 0.94688 0.64799 0.59501 0.0
H1043 H 0.91533 0.68314 0.70232 0.0
H1044 H 0.93292 0.6703 0.67269 0.0
H1045 H 0.91102 0.63608 0.62188 0.0
H1046 H 0.98958 0.65524 0.54105 0.0
H1047 H 0.96432 0.66449 0.56071 0.0
C1048 C 0.57507 0.36656 0.60046 0.0
C1049 C 0.57345 0.36119 0.5769 0.0
C1050 C 0.584 0.35712 0.6168 0.0
C1051 C 0.61528 0.32527 0.62432 0.0
H1052 H 0.58639 0.30561 0.67134 0.0
C1053 C 0.62925 0.26217 0.66446 0.0
C1054 C 0.62364 0.25802 0.68723 0.0
C1055 C 0.62533 0.27739 0.65442 0.0
C1056 C 0.59483 0.31123 0.65884 0.0
H1057 H 0.58076 0.3425 0.5515 0.0
H1058 H 0.59693 0.32636 0.57987 0.0
H1059 H 0.57647 0.32858 0.64732 0.0
H1060 H 0.60996 0.26685 0.7177 0.0
H1061 H 0.60348 0.2938 0.70041 0.0
H1062 H 0.63367 0.30804 0.63561 0.0
C1063 C 0.5911 0.33771 0.58573 0.0
C1064 C 0.58909 0.32437 0.64503 0.0
C1065 C 0.58183 0.34689 0.56956 0.0
C1066 C 0.61434 0.26965 0.70003 0.0
C1067 C 0.6106 0.28507 0.69007 0.0
C1068 C 0.62116 0.31238 0.63845 0.0
C1069 C 0.59181 0.34247 0.6096 0.0
C1070 C 0.59908 0.33107 0.62714 0.0
C1071 C 0.6159 0.28905 0.66699 0.0
C1072 C 0.61077 0.30472 0.65521 0.0
H1073 H 0.56859 0.37747 0.60659 0.0
H1074 H 0.58437 0.36095 0.63517 0.0
H1075 H 0.62321 0.33036 0.61069 0.0
H1076 H 0.63634 0.25345 0.65401 0.0
H1077 H 0.62928 0.27972 0.63642 0.0
C1078 C 0.98825 0.37526 0.91698 0.0
C1079 C 0.99306 0.36927 0.93928 0.0
C1080 C 0.97318 0.37064 0.90704 0.0
C1081 C 0.94139 0.33791 0.91039 0.0
H1082 H 0.91969 0.36646 0.86475 0.0
C1083 C 0.88579 0.31706 0.85293 0.0
C1084 C 0.89055 0.31665 0.829 0.0
C1085 C 0.89529 0.32574 0.86948 0.0
C1086 C 0.92552 0.35846 0.87767 0.0
H1087 H 0.98554 0.35412 0.96904 0.0
H1088 H 0.95885 0.34639 0.95198 0.0
H1089 H 0.94179 0.37751 0.88954 0.0
H1090 H 0.90824 0.32575 0.80331 0.0
H1091 H 0.92446 0.34144 0.83212 0.0
H1092 H 0.92496 0.31889 0.89832 0.0
C1093 C 0.96696 0.35437 0.94189 0.0
C1094 C 0.93828 0.36469 0.89172 0.0
C1095 C 0.98223 0.35883 0.95173 0.0
C1096 C 0.90433 0.32586 0.82166 0.0
C1097 C 0.91355 0.33487 0.83808 0.0
C1098 C 0.92837 0.33179 0.89667 0.0
C1099 C 0.96233 0.36008 0.91927 0.0
C1100 C 0.94685 0.35431 0.90757 0.0
C1101 C 0.90937 0.3345 0.86219 0.0
C1102 C 0.92074 0.34187 0.87966 0.0
H1103 H 0.99634 0.38323 0.9068 0.0
H1104 H 0.97035 0.37497 0.88937 0.0
H1105 H 0.94773 0.32948 0.92217 0.0
H1106 H 0.87527 0.30995 0.85906 0.0
H1107 H 0.8919 0.32529 0.88803 0.0
C1108 C 0.92076 0.65205 0.06752 0.0
C1109 C 0.93033 0.63931 0.07725 0.0
C1110 C 0.91141 0.66232 0.08215 0.0
C1111 C 0.89752 0.66904 0.14484 0.0
H1112 H 0.89781 0.71478 0.12426 0.0
C1113 C 0.88609 0.72905 0.20162 0.0
C1114 C 0.87421 0.73976 0.19183 0.0
C1115 C 0.89089 0.71474 0.18944 0.0
C1116 C 0.89757 0.70203 0.13014 0.0
H1117 H 0.9372 0.62678 0.10965 0.0
H1118 H 0.9216 0.64525 0.13547 0.0
H1119 H 0.90984 0.69373 0.09905 0.0
H1120 H 0.85735 0.74328 0.16226 0.0
H1121 H 0.86605 0.71865 0.14099 0.0
H1122 H 0.88594 0.67792 0.1767 0.0
C1123 C 0.92081 0.64707 0.11652 0.0
C1124 C 0.9043 0.68988 0.1156 0.0
C1125 C 0.92981 0.63649 0.10175 0.0
C1126 C 0.86663 0.73541 0.17028 0.0
C1127 C 0.87156 0.72131 0.15806 0.0
C1128 C 0.89106 0.68134 0.15966 0.0
C1129 C 0.91189 0.66044 0.10694 0.0
C1130 C 0.90426 0.67318 0.12258 0.0
C1131 C 0.88399 0.71109 0.16724 0.0
C1132 C 0.89094 0.69788 0.15227 0.0
H1133 H 0.92083 0.65432 0.04862 0.0
H1134 H 0.90422 0.67206 0.07399 0.0
H1135 H 0.89713 0.65632 0.15078 0.0
H1136 H 0.8921 0.73201 0.21823 0.0
H1137 H 0.90058 0.70702 0.19674 0.0
C1138 C 0.58778 0.68041 0.31765 0.0
C1139 C 0.60451 0.68338 0.32277 0.0
C1140 C 0.5781 0.67093 0.33289 0.0
C1141 C 0.57467 0.65925 0.39502 0.0
H1142 H 0.54091 0.62968 0.37092 0.0
C1143 C 0.51609 0.61575 0.42747 0.0
C1144 C 0.50785 0.62711 0.44216 0.0
C1145 C 0.53049 0.62028 0.41556 0.0
C1146 C 0.55043 0.63767 0.37807 0.0
H1147 H 0.62437 0.67828 0.34756 0.0
H1148 H 0.60733 0.66167 0.37433 0.0
H1149 H 0.56138 0.64108 0.34396 0.0
H1150 H 0.50883 0.65181 0.457 0.0
H1151 H 0.53386 0.65986 0.43578 0.0
H1152 H 0.5635 0.65602 0.42913 0.0
C1153 C 0.60175 0.66679 0.35851 0.0
C1154 C 0.56205 0.64434 0.36254 0.0
C1155 C 0.61151 0.67619 0.34311 0.0
C1156 C 0.51488 0.64279 0.44578 0.0
C1157 C 0.52927 0.64737 0.4337 0.0
C1158 C 0.56299 0.65259 0.4106 0.0
C1159 C 0.58489 0.66425 0.35368 0.0
C1160 C 0.57405 0.65549 0.37073 0.0
C1161 C 0.53694 0.63632 0.41789 0.0
C1162 C 0.55054 0.64198 0.4022 0.0
H1163 H 0.58201 0.68574 0.30211 0.0
H1164 H 0.5651 0.66936 0.32881 0.0
H1165 H 0.58373 0.6679 0.40182 0.0
H1166 H 0.51113 0.60348 0.42459 0.0
H1167 H 0.53631 0.61137 0.40392 0.0
C1168 C 0.41337 0.34989 0.06492 0.0
C1169 C 0.4235 0.36221 0.07461 0.0
C1170 C 0.40373 0.33994 0.07962 0.0
C1171 C 0.3909 0.33301 0.14288 0.0
H1172 H 0.39056 0.28736 0.12192 0.0
C1173 C 0.38337 0.27361 0.20129 0.0
C1174 C 0.37227 0.26175 0.19236 0.0
C1175 C 0.38669 0.28804 0.18843 0.0
C1176 C 0.39041 0.30009 0.1279 0.0
H1177 H 0.431 0.3744 0.10699 0.0
H1178 H 0.41495 0.35645 0.13288 0.0
H1179 H 0.4015 0.30852 0.096 0.0
H1180 H 0.35512 0.25633 0.16375 0.0
H1181 H 0.36121 0.28124 0.14132 0.0
H1182 H 0.38067 0.32397 0.17557 0.0
C1183 C 0.4139 0.35474 0.11394 0.0
C1184 C 0.39655 0.31231 0.11295 0.0
C1185 C 0.42317 0.36502 0.09912 0.0
C1186 C 0.36387 0.26509 0.17108 0.0
C1187 C 0.36731 0.27935 0.1582 0.0
C1188 C 0.38504 0.32064 0.15808 0.0
C1189 C 0.40448 0.34168 0.10442 0.0
C1190 C 0.39689 0.32897 0.12015 0.0
C1191 C 0.37907 0.29071 0.16642 0.0
C1192 C 0.38474 0.3041 0.15063 0.0
H1193 H 0.4133 0.34764 0.04601 0.0
H1194 H 0.39617 0.33046 0.07151 0.0
H1195 H 0.39078 0.34568 0.149 0.0
H1196 H 0.38997 0.27145 0.21769 0.0
H1197 H 0.39587 0.29663 0.19503 0.0
C1198 C 0.4808 0.61546 0.93105 0.0
C1199 C 0.48913 0.6276 0.94428 0.0
C1200 C 0.46616 0.61924 0.91919 0.0
C1201 C 0.44561 0.63465 0.8806 0.0
H1202 H 0.41235 0.66571 0.90214 0.0
C1203 C 0.4081 0.67526 0.8175 0.0
C1204 C 0.39142 0.67854 0.82256 0.0
C1205 C 0.41773 0.6661 0.83322 0.0
C1206 C 0.42138 0.65681 0.89599 0.0
H1207 H 0.48807 0.65294 0.95667 0.0
H1208 H 0.46261 0.65967 0.93555 0.0
H1209 H 0.4329 0.65518 0.9301 0.0
H1210 H 0.37156 0.67427 0.84765 0.0
H1211 H 0.38854 0.65827 0.8753 0.0
H1212 H 0.43436 0.63652 0.84643 0.0
C1213 C 0.46732 0.64716 0.93457 0.0
C1214 C 0.43324 0.65092 0.91193 0.0
C1215 C 0.48195 0.64333 0.94659 0.0
C1216 C 0.38438 0.67191 0.84325 0.0
C1217 C 0.39411 0.66286 0.85915 0.0
C1218 C 0.43381 0.64055 0.8647 0.0
C1219 C 0.45955 0.63529 0.92013 0.0
C1220 C 0.4457 0.64005 0.90427 0.0
C1221 C 0.41094 0.6601 0.85443 0.0
C1222 C 0.42183 0.652 0.87208 0.0
H1223 H 0.48587 0.60313 0.92921 0.0
H1224 H 0.46029 0.60973 0.90864 0.0
H1225 H 0.45512 0.62642 0.87401 0.0
H1226 H 0.41388 0.68015 0.80168 0.0
H1227 H 0.43071 0.66434 0.8292 0.0
C1228 C 0.11125 0.72658 0.70476 0.0
C1229 C 0.12164 0.73724 0.69193 0.0
C1230 C 0.10749 0.71082 0.69597 0.0
C1231 C 0.11982 0.68052 0.64887 0.0
H1232 H 0.07383 0.66728 0.65244 0.0
C1233 C 0.08416 0.64584 0.57679 0.0
C1234 C 0.07303 0.63337 0.58348 0.0
C1235 C 0.09307 0.6545 0.59391 0.0
C1236 C 0.0868 0.67061 0.65171 0.0
H1237 H 0.13635 0.73965 0.65995 0.0
H1238 H 0.12937 0.71274 0.64437 0.0
H1239 H 0.08344 0.69065 0.67585 0.0
H1240 H 0.06306 0.6196 0.61315 0.0
H1241 H 0.07833 0.63521 0.64326 0.0
H1242 H 0.12272 0.66122 0.62318 0.0
C1243 C 0.12449 0.71615 0.66154 0.0
C1244 C 0.09234 0.684 0.66517 0.0
C1245 C 0.12836 0.73174 0.67039 0.0
C1246 C 0.07165 0.62908 0.60752 0.0
C1247 C 0.0803 0.63803 0.62472 0.0
C1248 C 0.1142 0.66733 0.63512 0.0
C1249 C 0.11393 0.70549 0.67409 0.0
C1250 C 0.10879 0.6895 0.66328 0.0
C1251 C 0.09075 0.65109 0.61806 0.0
C1252 C 0.09753 0.66259 0.63591 0.0
H1253 H 0.10598 0.73041 0.72151 0.0
H1254 H 0.09946 0.70288 0.70625 0.0
H1255 H 0.13269 0.6841 0.64747 0.0
H1256 H 0.08545 0.64937 0.55837 0.0
H1257 H 0.10096 0.66461 0.58834 0.0
C1258 C 0.02583 0.36454 0.45603 0.0
C1259 C 0.01395 0.37357 0.44329 0.0
C1260 C 0.04134 0.36121 0.44606 0.0
C1261 C 0.0684 0.37221 0.39433 0.0
H1262 H 0.08443 0.32738 0.40203 0.0
C1263 C 0.10149 0.33374 0.32343 0.0
C1264 C 0.11524 0.32423 0.33014 0.0
C1265 C 0.09299 0.34313 0.3402 0.0
C1266 C 0.08031 0.34005 0.40008 0.0
H1267 H 0.00918 0.38645 0.41026 0.0
H1268 H 0.03565 0.38016 0.39268 0.0
H1269 H 0.06182 0.33721 0.42675 0.0
H1270 H 0.13134 0.3176 0.35933 0.0
H1271 H 0.11601 0.33365 0.38892 0.0
H1272 H 0.08609 0.37443 0.36622 0.0
C1273 C 0.03338 0.37603 0.41062 0.0
C1274 C 0.06736 0.34574 0.41429 0.0
C1275 C 0.01804 0.37951 0.42066 0.0
C1276 C 0.12084 0.32493 0.35367 0.0
C1277 C 0.11207 0.33402 0.3706 0.0
C1278 C 0.08112 0.36641 0.37983 0.0
C1279 C 0.04521 0.3667 0.42304 0.0
C1280 C 0.06085 0.36171 0.41105 0.0
C1281 C 0.09786 0.34288 0.36405 0.0
C1282 C 0.08686 0.35014 0.38216 0.0
H1283 H 0.0231 0.35991 0.4736 0.0
H1284 H 0.05021 0.35418 0.45629 0.0
H1285 H 0.06405 0.38475 0.39178 0.0
H1286 H 0.09693 0.3334 0.3054 0.0
H1287 H 0.08197 0.34975 0.33478 0.0
C1288 C 0.42393 0.63214 0.3996 0.0
C1289 C 0.42286 0.63416 0.42422 0.0
C1290 C 0.4146 0.64219 0.3845 0.0
C1291 C 0.39461 0.68334 0.38648 0.0
H1292 H 0.38282 0.67317 0.32153 0.0
C1293 C 0.36402 0.73169 0.32796 0.0
C1294 C 0.373 0.73546 0.30733 0.0
C1295 C 0.36715 0.71719 0.34047 0.0
C1296 C 0.38603 0.6761 0.33967 0.0
H1297 H 0.41015 0.64689 0.45256 0.0
H1298 H 0.393 0.66359 0.42642 0.0
H1299 H 0.39262 0.65107 0.34768 0.0
H1300 H 0.39146 0.72631 0.28271 0.0
H1301 H 0.39688 0.70078 0.30474 0.0
H1302 H 0.38793 0.70827 0.37855 0.0
C1303 C 0.40164 0.65497 0.41855 0.0
C1304 C 0.39171 0.6635 0.35464 0.0
C1305 C 0.4113 0.64527 0.43358 0.0
C1306 C 0.3844 0.72382 0.29861 0.0
C1307 C 0.38745 0.70918 0.31112 0.0
C1308 C 0.3887 0.69578 0.37172 0.0
C1309 C 0.40379 0.65419 0.39382 0.0
C1310 C 0.39624 0.66701 0.37822 0.0
C1311 C 0.37923 0.70604 0.33256 0.0
C1312 C 0.38451 0.69234 0.34814 0.0
H1313 H 0.43287 0.62369 0.392 0.0
H1314 H 0.41672 0.64124 0.36563 0.0
H1315 H 0.39844 0.68676 0.40418 0.0
H1316 H 0.355 0.74026 0.33506 0.0
H1317 H 0.36053 0.71495 0.35684 0.0
C1318 C 0.01881 0.61795 0.08173 0.0
C1319 C 0.01441 0.6242 0.05938 0.0
C1320 C 0.03429 0.62129 0.09143 0.0
C1321 C 0.06822 0.65164 0.08766 0.0
H1322 H 0.08755 0.62236 0.13451 0.0
C1323 C 0.12236 0.67181 0.14744 0.0
C1324 C 0.117 0.67226 0.17111 0.0
C1325 C 0.11344 0.66286 0.13053 0.0
C1326 C 0.08241 0.63055 0.12123 0.0
H1327 H 0.02315 0.63828 0.02922 0.0
H1328 H 0.05049 0.64377 0.04593 0.0
H1329 H 0.06519 0.61236 0.10925 0.0
H1330 H 0.099 0.66278 0.19605 0.0
H1331 H 0.08379 0.64665 0.16667 0.0
H1332 H 0.08544 0.66984 0.09995 0.0
C1333 C 0.04176 0.6366 0.05621 0.0
C1334 C 0.06951 0.62492 0.1069 0.0
C1335 C 0.02612 0.63341 0.04657 0.0
C1336 C 0.10338 0.66262 0.17792 0.0
C1337 C 0.09473 0.65337 0.16115 0.0
C1338 C 0.08134 0.65715 0.10168 0.0
C1339 C 0.04595 0.63079 0.07895 0.0
C1340 C 0.06175 0.63563 0.09066 0.0
C1341 C 0.09933 0.65389 0.13719 0.0
C1342 C 0.08811 0.64685 0.11917 0.0
H1343 H 0.01009 0.61087 0.09217 0.0
H1344 H 0.0368 0.61691 0.10918 0.0
H1345 H 0.06252 0.66032 0.07557 0.0
H1346 H 0.13275 0.67925 0.1417 0.0
H1347 H 0.11717 0.66343 0.11212 0.0
C1348 C 0.13823 0.27106 0.82226 0.0
C1349 C 0.12868 0.26762 0.80204 0.0
C1350 C 0.13563 0.28551 0.83518 0.0
C1351 C 0.11669 0.32663 0.83673 0.0
H1352 H 0.10448 0.31431 0.9007 0.0
C1353 C 0.07769 0.36851 0.898 0.0
C1354 C 0.07845 0.36592 0.92254 0.0
C1355 C 0.08739 0.35899 0.8827 0.0
C1356 C 0.10827 0.31821 0.8832 0.0
H1357 H 0.10994 0.27736 0.77835 0.0
H1358 H 0.10546 0.30277 0.80106 0.0
H1359 H 0.11533 0.29358 0.8741 0.0
H1360 H 0.09097 0.35271 0.9506 0.0
H1361 H 0.10879 0.33697 0.92417 0.0
H1362 H 0.10971 0.35135 0.84588 0.0
C1363 C 0.11491 0.29417 0.80684 0.0
C1364 C 0.11439 0.30621 0.86786 0.0
C1365 C 0.11743 0.27961 0.79392 0.0
C1366 C 0.09006 0.35477 0.93168 0.0
C1367 C 0.10011 0.34562 0.91646 0.0
C1368 C 0.11083 0.33879 0.85229 0.0
C1369 C 0.12354 0.2969 0.82807 0.0
C1370 C 0.11845 0.31023 0.84442 0.0
C1371 C 0.09831 0.34696 0.89172 0.0
C1372 C 0.1063 0.33468 0.87567 0.0
H1373 H 0.14717 0.26222 0.82887 0.0
H1374 H 0.14256 0.28743 0.85137 0.0
H1375 H 0.11979 0.33001 0.81871 0.0
H1376 H 0.06871 0.37698 0.89054 0.0
H1377 H 0.0855 0.36036 0.86383 0.0
C1378 C 0.48586 0.3819 0.58419 0.0
C1379 C 0.48975 0.37377 0.5629 0.0
C1380 C 0.47152 0.37795 0.59661 0.0
C1381 C 0.43045 0.36041 0.59493 0.0
H1382 H 0.44101 0.34363 0.65742 0.0
C1383 C 0.38356 0.32468 0.65338 0.0
C1384 C 0.38606 0.32457 0.67796 0.0
C1385 C 0.39446 0.33327 0.63859 0.0
C1386 C 0.43767 0.34866 0.64032 0.0
H1387 H 0.48106 0.35582 0.5372 0.0
H1388 H 0.45567 0.34906 0.55902 0.0
H1389 H 0.46295 0.35385 0.63217 0.0
H1390 H 0.40074 0.33447 0.70666 0.0
H1391 H 0.419 0.35045 0.68117 0.0
H1392 H 0.40506 0.35558 0.60325 0.0
C1393 C 0.46392 0.35843 0.56598 0.0
C1394 C 0.45033 0.35435 0.62576 0.0
C1395 C 0.47845 0.36224 0.55361 0.0
C1396 C 0.39869 0.33427 0.6877 0.0
C1397 C 0.40927 0.34323 0.67302 0.0
C1398 C 0.41764 0.35499 0.60974 0.0
C1399 C 0.46062 0.36595 0.58789 0.0
C1400 C 0.44686 0.3602 0.60295 0.0
C1401 C 0.40784 0.34218 0.6482 0.0
C1402 C 0.4211 0.34898 0.63265 0.0
H1403 H 0.4942 0.39092 0.59184 0.0
H1404 H 0.46916 0.38395 0.61343 0.0
H1405 H 0.42753 0.36495 0.57738 0.0
H1406 H 0.37396 0.31715 0.64548 0.0
H1407 H 0.39295 0.33205 0.61963 0.0
C1408 C 0.30799 0.22049 0.25279 0.0
C1409 C 0.31091 0.21489 0.22962 0.0
C1410 C 0.29262 0.22715 0.25896 0.0
C1411 C 0.25758 0.24843 0.23093 0.0
H1412 H 0.23649 0.2427 0.29199 0.0
C1413 C 0.19267 0.27449 0.25353 0.0
C1414 C 0.19002 0.28005 0.27678 0.0
C1415 C 0.20769 0.26709 0.24728 0.0
C1416 C 0.24235 0.24461 0.27497 0.0
H1417 H 0.29963 0.21072 0.19526 0.0
H1418 H 0.2728 0.22207 0.20615 0.0
H1419 H 0.26143 0.22705 0.28269 0.0
H1420 H 0.20142 0.28329 0.31125 0.0
H1421 H 0.22767 0.27076 0.30021 0.0
H1422 H 0.23857 0.26606 0.22325 0.0
C1423 C 0.28249 0.22169 0.21939 0.0
C1424 C 0.2566 0.23558 0.26962 0.0
C1425 C 0.29783 0.21504 0.21323 0.0
C1426 C 0.20302 0.279 0.29323 0.0
C1427 C 0.21802 0.27167 0.28697 0.0
C1428 C 0.24334 0.25748 0.23629 0.0
C1429 C 0.27989 0.22832 0.24206 0.0
C1430 C 0.26438 0.2374 0.24755 0.0
C1431 C 0.22035 0.26517 0.26415 0.0
C1432 C 0.23559 0.25572 0.25841 0.0
H1433 H 0.31782 0.2206 0.26581 0.0
H1434 H 0.29102 0.2322 0.27657 0.0
H1435 H 0.26346 0.25035 0.21393 0.0
H1436 H 0.18287 0.27505 0.24049 0.0
H1437 H 0.20907 0.26216 0.22956 0.0
C1438 C 0.97018 0.9408 0.50237 0.0
C1439 C 0.96485 0.93812 0.52574 0.0
C1440 C 0.97711 0.95596 0.49585 0.0
C1441 C 0.99945 0.99076 0.52285 0.0
H1442 H 0.9932 0.01161 0.46173 0.0
C1443 C 0.02543 0.05542 0.49912 0.0
C1444 C 0.03078 0.05798 0.47573 0.0
C1445 C 0.01813 0.04043 0.50565 0.0
C1446 C 0.99525 0.00581 0.47876 0.0
H1447 H 0.96147 0.94965 0.5601 0.0
H1448 H 0.97327 0.97614 0.54858 0.0
H1449 H 0.97736 0.98693 0.4717 0.0
H1450 H 0.03374 0.04643 0.44132 0.0
H1451 H 0.02135 0.02022 0.45285 0.0
H1452 H 0.01738 0.0096 0.52989 0.0
C1453 C 0.97248 0.9664 0.53547 0.0
C1454 C 0.98612 0.99171 0.48449 0.0
C1455 C 0.96557 0.95126 0.54199 0.0
C1456 C 0.02963 0.0449 0.45944 0.0
C1457 C 0.02238 0.02992 0.46597 0.0
C1458 C 0.0086 0.00485 0.51711 0.0
C1459 C 0.97883 0.96874 0.51256 0.0
C1460 C 0.98811 0.98403 0.50661 0.0
C1461 C 0.01608 0.0277 0.48893 0.0
C1462 C 0.00663 0.01252 0.49499 0.0
H1463 H 0.96984 0.9309 0.48946 0.0
H1464 H 0.98192 0.95736 0.47806 0.0
H1465 H 0.00152 0.98495 0.53987 0.0
H1466 H 0.02608 0.06528 0.51206 0.0
H1467 H 0.01336 0.03912 0.52347 0.0
C1468 C 0.30814 0.71909 0.74713 0.0
C1469 C 0.31055 0.71392 0.77063 0.0
C1470 C 0.29295 0.72575 0.74009 0.0
C1471 C 0.24904 0.73108 0.75812 0.0
H1472 H 0.25228 0.77145 0.72136 0.0
C1473 C 0.19278 0.77358 0.74418 0.0
C1474 C 0.18995 0.77847 0.72066 0.0
C1475 C 0.20785 0.76639 0.75062 0.0
C1476 C 0.25117 0.76015 0.7315 0.0
H1477 H 0.2986 0.71063 0.80471 0.0
H1478 H 0.27226 0.72229 0.79249 0.0
H1479 H 0.27724 0.75578 0.73045 0.0
H1480 H 0.20104 0.78063 0.68581 0.0
H1481 H 0.22729 0.76821 0.69708 0.0
H1482 H 0.22297 0.73555 0.75931 0.0
C1483 C 0.28201 0.72118 0.77944 0.0
C1484 C 0.26545 0.7511 0.73658 0.0
C1485 C 0.29716 0.71451 0.78647 0.0
C1486 C 0.20282 0.77696 0.70408 0.0
C1487 C 0.2179 0.76987 0.71055 0.0
C1488 C 0.23477 0.74016 0.7531 0.0
C1489 C 0.27989 0.72736 0.75638 0.0
C1490 C 0.26456 0.73646 0.74997 0.0
C1491 C 0.22041 0.76407 0.73371 0.0
C1492 C 0.23568 0.75481 0.73976 0.0
H1493 H 0.31819 0.71876 0.73448 0.0
H1494 H 0.2916 0.73009 0.72205 0.0
H1495 H 0.2479 0.71977 0.76824 0.0
H1496 H 0.18311 0.77457 0.75737 0.0
H1497 H 0.20955 0.76229 0.76872 0.0
C1498 C 0.52714 0.056 0.00191 0.0
C1499 C 0.53117 0.05906 0.0257 0.0
C1500 C 0.52032 0.04081 0.9952 0.0
C1501 C 0.49633 0.00651 0.02099 0.0
H1502 H 0.50543 0.98485 0.96119 0.0
C1503 C 0.47158 0.94151 0.99637 0.0
C1504 C 0.46691 0.93888 0.9727 0.0
C1505 C 0.47872 0.95651 0.00323 0.0
C1506 C 0.50261 0.99087 0.97784 0.0
H1507 H 0.53233 0.04822 0.0608 0.0
H1508 H 0.52081 0.02167 0.04901 0.0
H1509 H 0.52083 0.00964 0.97203 0.0
H1510 H 0.4651 0.95029 0.93802 0.0
H1511 H 0.47731 0.97647 0.95008 0.0
H1512 H 0.47814 0.98771 0.02681 0.0
C1513 C 0.52248 0.03113 0.03565 0.0
C1514 C 0.51147 0.00505 0.98406 0.0
C1515 C 0.52922 0.04629 0.04235 0.0
C1516 C 0.46866 0.95187 0.95636 0.0
C1517 C 0.4758 0.96683 0.96321 0.0
C1518 C 0.4875 0.99231 0.01479 0.0
C1519 C 0.51746 0.02839 0.01215 0.0
C1520 C 0.50843 0.01304 0.00571 0.0
C1521 C 0.48133 0.96915 0.98655 0.0
C1522 C 0.4905 0.98437 0.99311 0.0
H1523 H 0.52843 0.06561 0.98869 0.0
H1524 H 0.51653 0.03913 0.97697 0.0
H1525 H 0.49345 0.01254 0.0376 0.0
H1526 H 0.47043 0.93173 0.00937 0.0
H1527 H 0.48289 0.9579 0.02134 0.0
C1528 C 0.19407 0.72277 0.2476 0.0
C1529 C 0.19151 0.71718 0.22433 0.0
C1530 C 0.20898 0.73035 0.25389 0.0
C1531 C 0.24344 0.75324 0.22635 0.0
H1532 H 0.26465 0.74746 0.2873 0.0
C1533 C 0.30903 0.77746 0.24834 0.0
C1534 C 0.31204 0.78295 0.27155 0.0
C1535 C 0.29364 0.77083 0.24222 0.0
C1536 C 0.25873 0.7494 0.27033 0.0
H1537 H 0.20298 0.71413 0.18987 0.0
H1538 H 0.22905 0.72698 0.20099 0.0
H1539 H 0.23984 0.73164 0.27795 0.0
H1540 H 0.30088 0.78699 0.30601 0.0
H1541 H 0.274 0.7757 0.29521 0.0
H1542 H 0.2624 0.77092 0.21867 0.0
C1543 C 0.2194 0.72593 0.2142 0.0
C1544 C 0.24455 0.74028 0.26495 0.0
C1545 C 0.20451 0.71842 0.20791 0.0
C1546 C 0.29901 0.78275 0.28802 0.0
C1547 C 0.28364 0.77614 0.28191 0.0
C1548 C 0.25763 0.76234 0.23171 0.0
C1549 C 0.22164 0.73244 0.23705 0.0
C1550 C 0.23678 0.74203 0.24285 0.0
C1551 C 0.28096 0.76959 0.25919 0.0
C1552 C 0.26546 0.7605 0.25374 0.0
H1553 H 0.18426 0.72206 0.26062 0.0
H1554 H 0.21029 0.73527 0.27163 0.0
H1555 H 0.23755 0.75514 0.20933 0.0
H1556 H 0.31882 0.7774 0.23526 0.0
H1557 H 0.29198 0.76585 0.22458 0.0
C1558 C 0.52987 0.95225 0.46063 0.0
C1559 C 0.53126 0.93934 0.47716 0.0
C1560 C 0.52253 0.96722 0.46698 0.0
C1561 C 0.5088 0.99263 0.51781 0.0
H1562 H 0.47728 0.00994 0.47231 0.0
C1563 C 0.46568 0.0463 0.54191 0.0
C1564 C 0.46496 0.05931 0.52545 0.0
C1565 C 0.47255 0.03109 0.53563 0.0
C1566 C 0.48611 0.00533 0.48512 0.0
H1567 H 0.52689 0.93233 0.51368 0.0
H1568 H 0.51399 0.95848 0.52477 0.0
H1569 H 0.49321 0.98524 0.4627 0.0
H1570 H 0.46989 0.06621 0.48902 0.0
H1571 H 0.4819 0.03963 0.47803 0.0
H1572 H 0.50169 0.01272 0.54022 0.0
C1573 C 0.51865 0.95705 0.50691 0.0
C1574 C 0.4953 0.99122 0.4796 0.0
C1575 C 0.52606 0.94207 0.50057 0.0
C1576 C 0.47023 0.05642 0.5021 0.0
C1577 C 0.47712 0.04119 0.49581 0.0
C1578 C 0.4996 0.00672 0.52334 0.0
C1579 C 0.51635 0.9696 0.48998 0.0
C1580 C 0.5068 0.98474 0.49585 0.0
C1581 C 0.47885 0.02856 0.51274 0.0
C1582 C 0.48815 0.01324 0.50705 0.0
H1583 H 0.53387 0.95059 0.44248 0.0
H1584 H 0.52132 0.97679 0.45368 0.0
H1585 H 0.51768 0.98807 0.5306 0.0
H1586 H 0.46161 0.04807 0.56001 0.0
H1587 H 0.47336 0.02147 0.54891 0.0
C1588 C 0.18937 0.22215 0.74512 0.0
C1589 C 0.1862 0.21647 0.76819 0.0
C1590 C 0.20487 0.22864 0.73925 0.0
C1591 C 0.23972 0.24945 0.76844 0.0
H1592 H 0.26112 0.24495 0.7074 0.0
C1593 C 0.30462 0.27612 0.74764 0.0
C1594 C 0.30741 0.28218 0.72467 0.0
C1595 C 0.28959 0.26856 0.75339 0.0
C1596 C 0.25517 0.24651 0.72444 0.0
H1597 H 0.19722 0.21179 0.80257 0.0
H1598 H 0.22429 0.22279 0.79219 0.0
H1599 H 0.23621 0.22902 0.71586 0.0
H1600 H 0.2962 0.2861 0.69021 0.0
H1601 H 0.26992 0.27326 0.70039 0.0
H1602 H 0.2586 0.26701 0.77697 0.0
C1603 C 0.21469 0.22265 0.77882 0.0
C1604 C 0.24094 0.23731 0.7293 0.0
C1605 C 0.19921 0.2162 0.78469 0.0
C1606 C 0.2945 0.28145 0.70803 0.0
C1607 C 0.27949 0.27394 0.71378 0.0
C1608 C 0.25393 0.25866 0.76357 0.0
C1609 C 0.2175 0.22953 0.75634 0.0
C1610 C 0.23304 0.23869 0.75136 0.0
C1611 C 0.27704 0.26695 0.73629 0.0
C1612 C 0.2618 0.25734 0.74148 0.0
H1613 H 0.17959 0.22257 0.73202 0.0
H1614 H 0.20662 0.23385 0.72177 0.0
H1615 H 0.23374 0.25106 0.78544 0.0
H1616 H 0.31435 0.27642 0.76082 0.0
H1617 H 0.28813 0.26326 0.77087 0.0
C1618 C 0.97291 0.04651 0.95225 0.0
C1619 C 0.96978 0.05882 0.96923 0.0
C1620 C 0.97972 0.03137 0.95895 0.0
C1621 C 0.98867 0.0045 0.01058 0.0
H1622 H 0.02368 0.98783 0.97008 0.0
C1623 C 0.03051 0.9512 0.04027 0.0
C1624 C 0.03249 0.93822 0.02396 0.0
C1625 C 0.0238 0.96629 0.03312 0.0
C1626 C 0.01386 0.99227 0.98146 0.0
H1627 H 0.97062 0.06463 0.00668 0.0
H1628 H 0.98271 0.03825 0.01838 0.0
H1629 H 0.00877 0.01283 0.95883 0.0
H1630 H 0.02993 0.93124 0.98707 0.0
H1631 H 0.01827 0.95769 0.97455 0.0
H1632 H 0.9939 0.984 0.03331 0.0
C1633 C 0.97975 0.04022 0.9999 0.0
C1634 C 0.00525 0.00655 0.97499 0.0
C1635 C 0.97282 0.05536 0.9932 0.0
C1636 C 0.02858 0.94101 1.00005 0.0
C1637 C 0.0219 0.95615 0.99288 0.0
C1638 C 0.99733 0.99027 0.01709 0.0
C1639 C 0.98366 0.02822 0.98275 0.0
C1640 C 0.99254 0.01282 0.98946 0.0
C1641 C 0.01897 0.96875 0.00951 0.0
C1642 C 0.01004 0.98403 0.00263 0.0
H1643 H 0.97057 0.04875 0.93364 0.0
H1644 H 0.98219 0.02224 0.94537 0.0
H1645 H 0.97881 0.00885 0.02195 0.0
H1646 H 0.0335 0.94951 0.05881 0.0
H1647 H 0.02201 0.9759 0.04623 0.0
C1648 C 0.79732 0.71484 0.7162 0.0
C1649 C 0.8104 0.71438 0.73259 0.0
C1650 C 0.78213 0.72181 0.72237 0.0
C1651 C 0.76502 0.75265 0.76341 0.0
H1652 H 0.72276 0.7366 0.74057 0.0
C1653 C 0.70218 0.77867 0.79455 0.0
C1654 C 0.6892 0.77958 0.77805 0.0
C1655 C 0.71736 0.77172 0.78827 0.0
C1656 C 0.7345 0.74137 0.74678 0.0
H1657 H 0.8174 0.71983 0.76883 0.0
H1658 H 0.79073 0.73172 0.77974 0.0
H1659 H 0.7478 0.72074 0.73261 0.0
H1660 H 0.6823 0.7748 0.74158 0.0
H1661 H 0.70893 0.76281 0.73051 0.0
H1662 H 0.7517 0.77326 0.77764 0.0
C1663 C 0.79238 0.72702 0.76194 0.0
C1664 C 0.74883 0.73223 0.74232 0.0
C1665 C 0.8076 0.72004 0.75576 0.0
C1666 C 0.69205 0.77428 0.75471 0.0
C1667 C 0.70723 0.76724 0.74844 0.0
C1668 C 0.75068 0.76177 0.76789 0.0
C1669 C 0.77964 0.72846 0.74508 0.0
C1670 C 0.76426 0.73776 0.75061 0.0
C1671 C 0.71989 0.76547 0.76534 0.0
C1672 C 0.73526 0.75624 0.75963 0.0
H1673 H 0.79906 0.71059 0.69819 0.0
H1674 H 0.77263 0.72277 0.70892 0.0
H1675 H 0.77675 0.75745 0.76961 0.0
H1676 H 0.70039 0.78266 0.81269 0.0
H1677 H 0.72681 0.77048 0.80174 0.0
C1678 C 0.70023 0.28128 0.21207 0.0
C1679 C 0.68704 0.28233 0.22822 0.0
C1680 C 0.71533 0.27442 0.2189 0.0
C1681 C 0.73169 0.24441 0.26149 0.0
H1682 H 0.77435 0.2595 0.23885 0.0
C1683 C 0.79377 0.21734 0.29382 0.0
C1684 C 0.80685 0.21613 0.27752 0.0
C1685 C 0.7788 0.22461 0.28726 0.0
C1686 C 0.7625 0.255 0.24502 0.0
H1687 H 0.67972 0.27805 0.26464 0.0
H1688 H 0.70622 0.26625 0.27668 0.0
H1689 H 0.74961 0.27561 0.23003 0.0
H1690 H 0.81414 0.22067 0.24114 0.0
H1691 H 0.78785 0.23315 0.22958 0.0
H1692 H 0.74456 0.22377 0.27642 0.0
C1693 C 0.70475 0.27046 0.2586 0.0
C1694 C 0.74834 0.26428 0.24008 0.0
C1695 C 0.68963 0.27738 0.25177 0.0
C1696 C 0.8043 0.22144 0.25412 0.0
C1697 C 0.78932 0.22875 0.24757 0.0
C1698 C 0.74584 0.23512 0.26642 0.0
C1699 C 0.71758 0.26844 0.24203 0.0
C1700 C 0.73277 0.25909 0.24826 0.0
C1701 C 0.77657 0.23083 0.26426 0.0
C1702 C 0.76141 0.2403 0.25822 0.0
H1703 H 0.69865 0.28501 0.19379 0.0
H1704 H 0.72492 0.27299 0.20568 0.0
H1705 H 0.71984 0.23988 0.26763 0.0
H1706 H 0.79533 0.21336 0.31199 0.0
H1707 H 0.76928 0.22608 0.30058 0.0
C1708 C 0.69363 0.22174 0.74481 0.0
C1709 C 0.69108 0.21719 0.72108 0.0
C1710 C 0.70863 0.2288 0.75186 0.0
C1711 C 0.74342 0.25247 0.72693 0.0
H1712 H 0.76459 0.24302 0.78698 0.0
C1713 C 0.80902 0.2754 0.75168 0.0
C1714 C 0.81206 0.27942 0.77548 0.0
C1715 C 0.79367 0.26904 0.74481 0.0
C1716 C 0.75869 0.24599 0.77029 0.0
H1717 H 0.70261 0.21554 0.68646 0.0
H1718 H 0.7288 0.22758 0.69885 0.0
H1719 H 0.73959 0.22808 0.77588 0.0
H1720 H 0.80101 0.2811 0.81041 0.0
H1721 H 0.77419 0.27035 0.79834 0.0
H1722 H 0.76254 0.27035 0.72132 0.0
C1723 C 0.7191 0.22605 0.71189 0.0
C1724 C 0.7444 0.23737 0.76391 0.0
C1725 C 0.70413 0.21901 0.70486 0.0
C1726 C 0.79911 0.27799 0.79195 0.0
C1727 C 0.78378 0.27168 0.78509 0.0
C1728 C 0.75771 0.2611 0.73332 0.0
C1729 C 0.72136 0.23145 0.73531 0.0
C1730 C 0.73664 0.24046 0.74212 0.0
C1731 C 0.78105 0.26663 0.76162 0.0
C1732 C 0.76552 0.25794 0.75506 0.0
H1733 H 0.6838 0.22055 0.75772 0.0
H1734 H 0.70997 0.23287 0.77003 0.0
H1735 H 0.73755 0.25537 0.7102 0.0
H1736 H 0.81876 0.2763 0.73858 0.0
H1737 H 0.79199 0.26522 0.72659 0.0
C1738 C 0.80514 0.77698 0.25002 0.0
C1739 C 0.80785 0.78246 0.22673 0.0
C1740 C 0.78998 0.76994 0.25638 0.0
C1741 C 0.75497 0.74799 0.22896 0.0
H1742 H 0.734 0.75425 0.29 0.0
C1743 C 0.68921 0.72445 0.25142 0.0
C1744 C 0.68622 0.71903 0.27467 0.0
C1745 C 0.70461 0.73101 0.24521 0.0
C1746 C 0.73984 0.75218 0.27299 0.0
H1747 H 0.79642 0.78594 0.19233 0.0
H1748 H 0.76993 0.774 0.20356 0.0
H1749 H 0.75906 0.76962 0.28047 0.0
H1750 H 0.69741 0.71508 0.30913 0.0
H1751 H 0.72431 0.72623 0.29816 0.0
H1752 H 0.73571 0.7306 0.22146 0.0
C1753 C 0.77964 0.77473 0.21674 0.0
C1754 C 0.75416 0.76104 0.26752 0.0
C1755 C 0.79477 0.78172 0.21038 0.0
C1756 C 0.69927 0.71927 0.29111 0.0
C1757 C 0.71465 0.7258 0.2849 0.0
C1758 C 0.74064 0.73914 0.23443 0.0
C1759 C 0.77724 0.76828 0.23958 0.0
C1760 C 0.76186 0.75909 0.24541 0.0
C1761 C 0.71732 0.73224 0.26212 0.0
C1762 C 0.7329 0.74114 0.2565 0.0
H1763 H 0.81499 0.77732 0.263 0.0
H1764 H 0.78855 0.76506 0.27411 0.0
H1765 H 0.76079 0.74595 0.21194 0.0
H1766 H 0.6794 0.72448 0.23836 0.0
H1767 H 0.70625 0.7359 0.22752 0.0
C1768 C 0.4685 0.45236 0.04367 0.0
C1769 C 0.46701 0.43945 0.02716 0.0
C1770 C 0.4757 0.46737 0.03718 0.0
C1771 C 0.48833 0.49299 0.98609 0.0
H1772 H 0.52076 0.51033 0.03024 0.0
C1773 C 0.53078 0.5467 0.96004 0.0
C1774 C 0.53219 0.55961 0.97657 0.0
C1775 C 0.52395 0.53154 0.96662 0.0
C1776 C 0.51166 0.50572 0.01781 0.0
H1777 H 0.47107 0.43248 0.99054 0.0
H1778 H 0.48367 0.45872 0.9792 0.0
H1779 H 0.50512 0.48556 0.04045 0.0
H1780 H 0.52848 0.56642 0.01331 0.0
H1781 H 0.51646 0.53994 0.02482 0.0
H1782 H 0.49482 0.51316 0.96348 0.0
C1783 C 0.47922 0.45724 0.99716 0.0
C1784 C 0.50265 0.49157 0.02368 0.0
C1785 C 0.47199 0.4422 0.00365 0.0
C1786 C 0.5276 0.55669 1.00019 0.0
C1787 C 0.52071 0.54151 0.00677 0.0
C1788 C 0.49733 0.50714 0.98023 0.0
C1789 C 0.48158 0.46981 0.01404 0.0
C1790 C 0.49087 0.48505 0.0079 0.0
C1791 C 0.51832 0.52896 0.98986 0.0
C1792 C 0.50912 0.51367 0.99601 0.0
H1793 H 0.46468 0.45068 0.06189 0.0
H1794 H 0.47701 0.47695 0.05045 0.0
H1795 H 0.47922 0.48839 0.97368 0.0
H1796 H 0.53433 0.5485 0.94173 0.0
H1797 H 0.52266 0.52199 0.95332 0.0
C1798 C 0.97288 0.44079 0.49929 0.0
C1799 C 0.96875 0.43786 0.47549 0.0
C1800 C 0.97941 0.45605 0.50619 0.0
C1801 C 0.98569 0.49945 0.48679 0.0
H1802 H 0.02417 0.49705 0.52766 0.0
C1803 C 0.0267 0.55637 0.50402 0.0
C1804 C 0.03027 0.55944 0.52796 0.0
C1805 C 0.0201 0.54115 0.49705 0.0
C1806 C 0.01339 0.49793 0.51635 0.0
H1807 H 0.96725 0.44896 0.44058 0.0
H1808 H 0.97868 0.47545 0.45257 0.0
H1809 H 0.00911 0.47187 0.51783 0.0
H1810 H 0.03071 0.54864 0.56312 0.0
H1811 H 0.01931 0.52215 0.55097 0.0
H1812 H 0.99004 0.52552 0.48526 0.0
C1813 C 0.97685 0.46604 0.46595 0.0
C1814 C 0.00469 0.48353 0.51083 0.0
C1815 C 0.97032 0.45081 0.45906 0.0
C1816 C 0.02806 0.54667 0.54454 0.0
C1817 C 0.02156 0.53146 0.53756 0.0
C1818 C 0.99442 0.51386 0.49227 0.0
C1819 C 0.98192 0.46867 0.48944 0.0
C1820 C 0.99072 0.48412 0.49602 0.0
C1821 C 0.01707 0.52869 0.51387 0.0
C1822 C 0.00835 0.51326 0.50713 0.0
H1823 H 0.97177 0.43107 0.51239 0.0
H1824 H 0.98289 0.45781 0.52453 0.0
H1825 H 0.97489 0.50036 0.47553 0.0
H1826 H 0.02827 0.56597 0.49084 0.0
H1827 H 0.017 0.53926 0.47859 0.0
C1828 C 0.02663 0.44183 0.99673 0.0
C1829 C 0.03119 0.43929 0.973 0.0
C1830 C 0.01945 0.45677 0.00377 0.0
C1831 C 0.99579 0.49164 0.97879 0.0
H1832 H 0.00497 0.5125 0.03914 0.0
C1833 C 0.97305 0.55721 0.00405 0.0
C1834 C 0.96866 0.56002 0.02778 0.0
C1835 C 0.97944 0.5419 0.99706 0.0
C1836 C 0.00209 0.50669 0.02236 0.0
H1837 H 0.03271 0.45079 0.93836 0.0
H1838 H 0.02052 0.4769 0.95072 0.0
H1839 H 0.01993 0.48754 0.02797 0.0
H1840 H 0.96641 0.54862 0.06242 0.0
H1841 H 0.97728 0.5219 0.05013 0.0
H1842 H 0.97801 0.51086 0.97315 0.0
C1843 C 0.02209 0.46722 0.96378 0.0
C1844 C 0.01071 0.49241 0.01594 0.0
C1845 C 0.02922 0.4523 0.95675 0.0
C1846 C 0.9698 0.5469 0.04403 0.0
C1847 C 0.97617 0.53163 0.03705 0.0
C1848 C 0.98718 0.50593 0.9852 0.0
C1849 C 0.01672 0.46948 0.98721 0.0
C1850 C 0.0077 0.48475 0.99405 0.0
C1851 C 0.98155 0.52912 0.01367 0.0
C1852 C 0.99024 0.51362 0.00706 0.0
H1853 H 0.02792 0.43202 0.00966 0.0
H1854 H 0.01539 0.45809 0.02194 0.0
H1855 H 0.99294 0.48585 0.96199 0.0
H1856 H 0.97237 0.56707 0.99112 0.0
H1857 H 0.98352 0.54038 0.97893 0.0
C1858 C 0.52729 0.44097 0.50084 0.0
C1859 C 0.53267 0.43852 0.52423 0.0
C1860 C 0.52012 0.456 0.49414 0.0
C1861 C 0.49723 0.49057 0.52069 0.0
H1862 H 0.50391 0.5117 0.45986 0.0
C1863 C 0.4714 0.55531 0.49746 0.0
C1864 C 0.46644 0.55816 0.47398 0.0
C1865 C 0.47857 0.54022 0.50386 0.0
C1866 C 0.50172 0.50581 0.4768 0.0
H1867 H 0.53588 0.45029 0.55846 0.0
H1868 H 0.52363 0.47651 0.54666 0.0
H1869 H 0.51976 0.48704 0.4699 0.0
H1870 H 0.46397 0.54703 0.4392 0.0
H1871 H 0.47608 0.52064 0.45049 0.0
H1872 H 0.47914 0.50928 0.52758 0.0
C1873 C 0.52458 0.46672 0.53365 0.0
C1874 C 0.51087 0.49172 0.48256 0.0
C1875 C 0.53173 0.45173 0.54033 0.0
C1876 C 0.4678 0.54527 0.45741 0.0
C1877 C 0.47489 0.53019 0.46382 0.0
C1878 C 0.48805 0.50463 0.51491 0.0
C1879 C 0.51821 0.46884 0.51072 0.0
C1880 C 0.50876 0.48398 0.5046 0.0
C1881 C 0.48084 0.52768 0.48691 0.0
C1882 C 0.49019 0.51243 0.4929 0.0
H1883 H 0.52779 0.43102 0.48803 0.0
H1884 H 0.5153 0.45725 0.47633 0.0
H1885 H 0.49509 0.48469 0.53764 0.0
H1886 H 0.47059 0.56502 0.51061 0.0
H1887 H 0.48307 0.53872 0.52179 0.0
C1888 C 0.05519 0.33608 0.04297 0.0
C1889 C 0.05267 0.35309 0.03936 0.0
C1890 C 0.06176 0.33025 0.06425 0.0
C1891 C 0.0673 0.34045 0.12695 0.0
H1892 H 0.10144 0.30677 0.1244 0.0
C1893 C 0.08622 0.30218 0.20857 0.0
C1894 C 0.10321 0.29988 0.21272 0.0
C1895 C 0.08065 0.30914 0.1874 0.0
C1896 C 0.09201 0.31625 0.12541 0.0
H1897 H 0.05479 0.37731 0.05551 0.0
H1898 H 0.06613 0.36704 0.09297 0.0
H1899 H 0.09054 0.31843 0.08767 0.0
H1900 H 0.12768 0.30283 0.19762 0.0
H1901 H 0.1179 0.31483 0.16034 0.0
H1902 H 0.06868 0.33817 0.16469 0.0
C1903 C 0.06302 0.35826 0.0792 0.0
C1904 C 0.08566 0.32283 0.10439 0.0
C1905 C 0.05655 0.36413 0.05776 0.0
C1906 C 0.11451 0.3044 0.19494 0.0
C1907 C 0.10891 0.31124 0.17361 0.0
C1908 C 0.07354 0.33375 0.14797 0.0
C1909 C 0.06588 0.34126 0.08253 0.0
C1910 C 0.07314 0.33489 0.10492 0.0
C1911 C 0.09193 0.31387 0.16974 0.0
C1912 C 0.08586 0.32149 0.14742 0.0
H1913 H 0.05233 0.32721 0.0292 0.0
H1914 H 0.06356 0.31706 0.06641 0.0
H1915 H 0.05761 0.34967 0.12793 0.0
H1916 H 0.07715 0.29885 0.22187 0.0
H1917 H 0.06748 0.31075 0.1848 0.0
C1918 C 0.88344 0.81066 0.30614 0.0
C1919 C 0.8922 0.79828 0.29403 0.0
C1920 C 0.89022 0.81814 0.3263 0.0
C1921 C 0.93099 0.82423 0.35595 0.0
H1922 H 0.90422 0.83989 0.40829 0.0
C1923 C 0.95731 0.84188 0.44751 0.0
C1924 C 0.95149 0.85651 0.45801 0.0
C1925 C 0.95037 0.83607 0.42645 0.0
C1926 C 0.91181 0.83573 0.39365 0.0
H1927 H 0.91441 0.7833 0.2943 0.0
H1928 H 0.92585 0.79568 0.32992 0.0
H1929 H 0.89094 0.8262 0.37476 0.0
H1930 H 0.93406 0.87671 0.45447 0.0
H1931 H 0.92167 0.86634 0.41772 0.0
H1932 H 0.95189 0.83325 0.37536 0.0
C1933 C 0.91408 0.80019 0.32344 0.0
C1934 C 0.90422 0.8279 0.3744 0.0
C1935 C 0.90744 0.79293 0.30313 0.0
C1936 C 0.93886 0.86546 0.44669 0.0
C1937 C 0.93169 0.85947 0.4258 0.0
C1938 C 0.93857 0.83183 0.37532 0.0
C1939 C 0.90581 0.81322 0.33495 0.0
C1940 C 0.91372 0.8219 0.35536 0.0
C1941 C 0.93727 0.84462 0.41565 0.0
C1942 C 0.92908 0.83757 0.39442 0.0
H1943 H 0.87172 0.81512 0.2994 0.0
H1944 H 0.88351 0.82819 0.33452 0.0
H1945 H 0.93872 0.82023 0.34139 0.0
H1946 H 0.96701 0.83471 0.45584 0.0
H1947 H 0.95484 0.82455 0.41908 0.0
C1948 C 0.40617 0.70954 0.69601 0.0
C1949 C 0.39191 0.70327 0.70696 0.0
C1950 C 0.41244 0.70217 0.67553 0.0
C1951 C 0.40262 0.67188 0.62759 0.0
H1952 H 0.45042 0.67036 0.62219 0.0
C1953 C 0.43717 0.63412 0.55527 0.0
C1954 C 0.44846 0.64356 0.54204 0.0
C1955 C 0.43035 0.64046 0.5762 0.0
C1956 C 0.43706 0.67071 0.62348 0.0
H1957 H 0.37275 0.68462 0.70471 0.0
H1958 H 0.38394 0.67138 0.66936 0.0
H1959 H 0.4378 0.68364 0.65639 0.0
H1960 H 0.46198 0.66669 0.54078 0.0
H1961 H 0.45047 0.6775 0.57759 0.0
H1962 H 0.40207 0.65855 0.59475 0.0
C1963 C 0.39013 0.68224 0.67622 0.0
C1964 C 0.42978 0.67845 0.64297 0.0
C1965 C 0.3837 0.68981 0.69654 0.0
C1966 C 0.45331 0.65913 0.5506 0.0
C1967 C 0.44675 0.66531 0.57169 0.0
C1968 C 0.40994 0.66391 0.60824 0.0
C1969 C 0.40479 0.68811 0.66571 0.0
C1970 C 0.41245 0.67939 0.64515 0.0
C1971 C 0.43499 0.65618 0.58447 0.0
C1972 C 0.42723 0.66344 0.60587 0.0
H1973 H 0.41269 0.71999 0.70352 0.0
H1974 H 0.42345 0.7074 0.6676 0.0
H1975 H 0.38926 0.67248 0.62845 0.0
H1976 H 0.43313 0.62213 0.549 0.0
H1977 H 0.42137 0.63315 0.58582 0.0
C1978 C 0.58869 0.19755 0.79235 0.0
C1979 C 0.60577 0.19917 0.78832 0.0
C1980 C 0.58279 0.19076 0.81344 0.0
C1981 C 0.59345 0.18289 0.87544 0.0
H1982 H 0.55805 0.15058 0.87186 0.0
C1983 C 0.5549 0.16389 0.95672 0.0
C1984 C 0.5518 0.14695 0.96009 0.0
C1985 C 0.56201 0.1696 0.93573 0.0
C1986 C 0.56801 0.15949 0.87314 0.0
H1987 H 0.63006 0.19525 0.80358 0.0
H1988 H 0.61968 0.18356 0.84075 0.0
H1989 H 0.56984 0.16191 0.83546 0.0
H1990 H 0.55346 0.12274 0.94382 0.0
H1991 H 0.56571 0.13279 0.90684 0.0
H1992 H 0.59152 0.18058 0.91313 0.0
C1993 C 0.6109 0.18753 0.82743 0.0
C1994 C 0.57466 0.16608 0.85232 0.0
C1995 C 0.61683 0.1942 0.80617 0.0
C1996 C 0.55567 0.13586 0.94175 0.0
C1997 C 0.56266 0.14161 0.92058 0.0
C1998 C 0.58668 0.17642 0.89626 0.0
C1999 C 0.59381 0.18552 0.83113 0.0
C2000 C 0.58735 0.17796 0.85325 0.0
C2001 C 0.56607 0.15853 0.91749 0.0
C2002 C 0.5738 0.16475 0.89534 0.0
H2003 H 0.5798 0.20124 0.77901 0.0
H2004 H 0.56955 0.18963 0.81592 0.0
H2005 H 0.60316 0.19207 0.87672 0.0
H2006 H 0.55209 0.17279 0.97047 0.0
H2007 H 0.56425 0.18272 0.93373 0.0
C2008 C 0.05617 0.66308 0.4589 0.0
C2009 C 0.05314 0.64617 0.46273 0.0
C2010 C 0.06309 0.66855 0.43766 0.0
C2011 C 0.06859 0.65759 0.37522 0.0
H2012 H 0.10315 0.69086 0.37715 0.0
C2013 C 0.08788 0.69483 0.2929 0.0
C2014 C 0.10488 0.69698 0.28871 0.0
C2015 C 0.08227 0.68812 0.3142 0.0
C2016 C 0.09361 0.68148 0.37632 0.0
H2017 H 0.05482 0.62177 0.44706 0.0
H2018 H 0.06679 0.6314 0.40968 0.0
H2019 H 0.09209 0.67968 0.4141 0.0
H2020 H 0.12934 0.69401 0.30385 0.0
H2021 H 0.11949 0.68242 0.34135 0.0
H2022 H 0.07003 0.65947 0.33745 0.0
C2023 C 0.06379 0.64039 0.42324 0.0
C2024 C 0.08717 0.67518 0.39746 0.0
C2025 C 0.05697 0.63487 0.44464 0.0
C2026 C 0.11616 0.69255 0.30656 0.0
C2027 C 0.11052 0.68594 0.32802 0.0
C2028 C 0.07493 0.66399 0.35408 0.0
C2029 C 0.06706 0.65728 0.41963 0.0
C2030 C 0.07449 0.66328 0.39715 0.0
C2031 C 0.09352 0.68347 0.33194 0.0
C2032 C 0.0874 0.67611 0.3544 0.0
H2033 H 0.05338 0.67214 0.47244 0.0
H2034 H 0.06521 0.68167 0.43529 0.0
H2035 H 0.05878 0.6485 0.3744 0.0
H2036 H 0.07883 0.69811 0.27955 0.0
H2037 H 0.06909 0.68663 0.31683 0.0
C2038 C 0.59147 0.79106 0.69967 0.0
C2039 C 0.60612 0.79689 0.71005 0.0
C2040 C 0.58536 0.79822 0.67895 0.0
C2041 C 0.59622 0.82677 0.62929 0.0
H2042 H 0.54849 0.82949 0.62358 0.0
C2043 C 0.56235 0.86344 0.55496 0.0
C2044 C 0.55107 0.85377 0.54204 0.0
C2045 C 0.56909 0.8575 0.57617 0.0
C2046 C 0.56184 0.82881 0.62496 0.0
H2047 H 0.62607 0.81459 0.70664 0.0
H2048 H 0.61513 0.82755 0.67087 0.0
H2049 H 0.56068 0.817 0.65869 0.0
H2050 H 0.53755 0.83064 0.54157 0.0
H2051 H 0.54889 0.82055 0.57894 0.0
H2052 H 0.59718 0.83905 0.59562 0.0
C2053 C 0.60852 0.81715 0.67835 0.0
C2054 C 0.56887 0.82151 0.64498 0.0
C2055 C 0.61481 0.80975 0.6989 0.0
C2056 C 0.54621 0.83836 0.55114 0.0
C2057 C 0.55267 0.8326 0.57254 0.0
C2058 C 0.58916 0.83434 0.60942 0.0
C2059 C 0.59354 0.81167 0.66832 0.0
C2060 C 0.58617 0.82011 0.64728 0.0
C2061 C 0.56437 0.84197 0.58506 0.0
C2062 C 0.5719 0.83521 0.60694 0.0
H2063 H 0.58459 0.78105 0.70775 0.0
H2064 H 0.57409 0.79326 0.67143 0.0
H2065 H 0.60956 0.82579 0.63021 0.0
H2066 H 0.56639 0.87532 0.54826 0.0
H2067 H 0.57804 0.86499 0.58559 0.0
C2068 C 0.38232 0.31078 0.80562 0.0
C2069 C 0.391 0.29821 0.7938 0.0
C2070 C 0.389 0.31821 0.82589 0.0
C2071 C 0.42955 0.32362 0.85648 0.0
H2072 H 0.40249 0.34049 0.90772 0.0
C2073 C 0.4551 0.34188 0.94828 0.0
C2074 C 0.44963 0.35689 0.95805 0.0
C2075 C 0.44823 0.33588 0.92728 0.0
C2076 C 0.41017 0.33599 0.89339 0.0
H2077 H 0.41292 0.28283 0.7947 0.0
H2078 H 0.42414 0.29508 0.83055 0.0
H2079 H 0.38933 0.32671 0.87417 0.0
H2080 H 0.43285 0.37752 0.95332 0.0
H2081 H 0.42057 0.3668 0.91668 0.0
H2082 H 0.4504 0.33239 0.87625 0.0
C2083 C 0.41255 0.2998 0.82376 0.0
C2084 C 0.40264 0.3281 0.87412 0.0
C2085 C 0.40602 0.2926 0.80332 0.0
C2086 C 0.43739 0.36598 0.94609 0.0
C2087 C 0.43027 0.3598 0.92528 0.0
C2088 C 0.43705 0.33126 0.87589 0.0
C2089 C 0.4044 0.31304 0.83496 0.0
C2090 C 0.41225 0.32168 0.85546 0.0
C2091 C 0.43553 0.34461 0.91582 0.0
C2092 C 0.42746 0.33745 0.89458 0.0
H2093 H 0.37078 0.31546 0.79855 0.0
H2094 H 0.38239 0.32843 0.83385 0.0
H2095 H 0.43738 0.3193 0.84222 0.0
H2096 H 0.4645 0.3346 0.95711 0.0
H2097 H 0.45246 0.3241 0.92045 0.0
C2098 C 0.9073 0.2019 0.20321 0.0
C2099 C 0.89046 0.20112 0.20926 0.0
C2100 C 0.91289 0.1958 0.18153 0.0
C2101 C 0.90177 0.1668 0.13361 0.0
H2102 H 0.93686 0.18957 0.10009 0.0
C2103 C 0.93674 0.13754 0.05412 0.0
C2104 C 0.94058 0.14809 0.03514 0.0
C2105 C 0.93027 0.14396 0.07524 0.0
C2106 C 0.92697 0.1831 0.10909 0.0
H2107 H 0.8662 0.19358 0.19701 0.0
H2108 H 0.87595 0.18311 0.15883 0.0
H2109 H 0.9256 0.20154 0.13611 0.0
H2110 H 0.94049 0.17364 0.02339 0.0
H2111 H 0.9291 0.18471 0.05983 0.0
H2112 H 0.90297 0.14851 0.10622 0.0
C2113 C 0.88486 0.18825 0.17109 0.0
C2114 C 0.92062 0.18989 0.12992 0.0
C2115 C 0.87926 0.19438 0.19287 0.0
C2116 C 0.93779 0.16515 0.0377 0.0
C2117 C 0.93132 0.17153 0.05869 0.0
C2118 C 0.90812 0.16001 0.1127 0.0
C2119 C 0.90178 0.18877 0.16525 0.0
C2120 C 0.90799 0.18181 0.14252 0.0
C2121 C 0.92751 0.16105 0.07777 0.0
C2122 C 0.92081 0.16807 0.10019 0.0
H2123 H 0.9163 0.20694 0.21545 0.0
H2124 H 0.92602 0.19621 0.17781 0.0
H2125 H 0.89218 0.16016 0.14301 0.0
H2126 H 0.93874 0.12434 0.0527 0.0
H2127 H 0.92764 0.13555 0.08968 0.0
C2128 C 0.95854 0.65883 0.95113 0.0
C2129 C 0.95346 0.64357 0.96046 0.0
C2130 C 0.95078 0.66548 0.93122 0.0
C2131 C 0.92216 0.65567 0.88139 0.0
H2132 H 0.91603 0.70323 0.88152 0.0
C2133 C 0.88328 0.69017 0.81039 0.0
C2134 C 0.89165 0.70336 0.79949 0.0
C2135 C 0.88964 0.68287 0.83097 0.0
C2136 C 0.91767 0.68994 0.88123 0.0
H2137 H 0.93657 0.62304 0.9558 0.0
H2138 H 0.92267 0.63482 0.92131 0.0
H2139 H 0.92986 0.68997 0.91475 0.0
H2140 H 0.91282 0.7197 0.80214 0.0
H2141 H 0.92365 0.70726 0.83827 0.0
H2142 H 0.90966 0.65578 0.84787 0.0
C2143 C 0.93288 0.64156 0.92911 0.0
C2144 C 0.92572 0.68232 0.90019 0.0
C2145 C 0.94084 0.63478 0.94891 0.0
C2146 C 0.90608 0.70957 0.81013 0.0
C2147 C 0.91227 0.70246 0.83085 0.0
C2148 C 0.91391 0.66331 0.86252 0.0
C2149 C 0.93752 0.65718 0.92031 0.0
C2150 C 0.92833 0.6651 0.90038 0.0
C2151 C 0.90432 0.68883 0.84123 0.0
C2152 C 0.91179 0.68055 0.86211 0.0
H2153 H 0.96834 0.66583 0.95952 0.0
H2154 H 0.95506 0.67728 0.92458 0.0
H2155 H 0.92404 0.64243 0.88076 0.0
H2156 H 0.8722 0.68505 0.80252 0.0
H2157 H 0.8832 0.67245 0.83872 0.0
C2158 C 0.11247 0.19709 0.69218 0.0
C2159 C 0.10138 0.2046 0.70806 0.0
C2160 C 0.10659 0.189 0.67191 0.0
C2161 C 0.06982 0.1683 0.6478 0.0
H2162 H 0.0883 0.17866 0.58622 0.0
C2163 C 0.05145 0.13475 0.56008 0.0
C2164 C 0.04771 0.1454 0.54114 0.0
C2165 C 0.05828 0.141 0.58107 0.0
C2166 C 0.08306 0.17562 0.60333 0.0
H2167 H 0.07545 0.20942 0.71517 0.0
H2168 H 0.06527 0.19519 0.68006 0.0
H2169 H 0.10004 0.19139 0.62174 0.0
H2170 H 0.04809 0.17099 0.52953 0.0
H2171 H 0.06013 0.18175 0.56587 0.0
H2172 H 0.05275 0.1526 0.62932 0.0
C2173 C 0.07847 0.19556 0.68325 0.0
C2174 C 0.08985 0.1828 0.62363 0.0
C2175 C 0.08434 0.20384 0.70326 0.0
C2176 C 0.05077 0.16242 0.54376 0.0
C2177 C 0.0578 0.1686 0.56451 0.0
C2178 C 0.06319 0.16091 0.62751 0.0
C2179 C 0.08951 0.18803 0.66739 0.0
C2180 C 0.08312 0.17943 0.64604 0.0
C2181 C 0.06176 0.15797 0.58331 0.0
C2182 C 0.06956 0.16472 0.60504 0.0
H2183 H 0.12566 0.19742 0.69543 0.0
H2184 H 0.11537 0.18326 0.65999 0.0
H2185 H 0.06449 0.16538 0.66489 0.0
H2186 H 0.04926 0.12158 0.55859 0.0
H2187 H 0.06123 0.13254 0.59532 0.0
C2188 C 0.542 0.33928 0.45064 0.0
C2189 C 0.54757 0.35433 0.4601 0.0
C2190 C 0.54891 0.33295 0.42989 0.0
C2191 C 0.57599 0.34359 0.37846 0.0
H2192 H 0.58066 0.29591 0.3752 0.0
C2193 C 0.61267 0.30964 0.30433 0.0
C2194 C 0.60347 0.29737 0.29263 0.0
C2195 C 0.60679 0.31665 0.32541 0.0
C2196 C 0.57942 0.30924 0.37588 0.0
H2197 H 0.56449 0.37477 0.45494 0.0
H2198 H 0.577 0.36349 0.41908 0.0
H2199 H 0.56828 0.30849 0.41011 0.0
H2200 H 0.58128 0.28238 0.29422 0.0
H2201 H 0.57132 0.29424 0.33132 0.0
H2202 H 0.58758 0.34416 0.34428 0.0
C2203 C 0.56701 0.35671 0.42735 0.0
C2204 C 0.57218 0.31649 0.39579 0.0
C2205 C 0.55986 0.36319 0.44795 0.0
C2206 C 0.58864 0.29181 0.30284 0.0
C2207 C 0.58295 0.29857 0.32409 0.0
C2208 C 0.58348 0.33632 0.35867 0.0
C2209 C 0.56184 0.34133 0.41827 0.0
C2210 C 0.57011 0.33375 0.39724 0.0
C2211 C 0.59181 0.31125 0.33537 0.0
C2212 C 0.58506 0.31906 0.35708 0.0
H2213 H 0.53243 0.33224 0.4595 0.0
H2214 H 0.5442 0.32135 0.42312 0.0
H2215 H 0.57448 0.35688 0.37874 0.0
H2216 H 0.62409 0.31424 0.29679 0.0
H2217 H 0.6139 0.32635 0.33386 0.0
C2218 C 0.45545 0.84038 0.05034 0.0
C2219 C 0.45009 0.85568 0.04143 0.0
C2220 C 0.44891 0.83409 0.07137 0.0
C2221 C 0.41163 0.83453 0.1072 0.0
H2222 H 0.43959 0.8153 0.15565 0.0
C2223 C 0.38547 0.80762 0.19501 0.0
C2224 C 0.39388 0.79422 0.20526 0.0
C2225 C 0.39183 0.81548 0.17487 0.0
C2226 C 0.43154 0.82035 0.14214 0.0
H2227 H 0.43389 0.87656 0.04776 0.0
H2228 H 0.4222 0.86537 0.08451 0.0
H2229 H 0.45214 0.829 0.12175 0.0
H2230 H 0.41498 0.7779 0.20167 0.0
H2231 H 0.42564 0.79102 0.16608 0.0
H2232 H 0.39101 0.82543 0.12708 0.0
C2233 C 0.43154 0.85833 0.07518 0.0
C2234 C 0.43878 0.82834 0.12282 0.0
C2235 C 0.43833 0.86478 0.0543 0.0
C2236 C 0.40829 0.7883 0.19429 0.0
C2237 C 0.41451 0.79597 0.17401 0.0
C2238 C 0.40435 0.82634 0.1264 0.0
C2239 C 0.43667 0.84285 0.08377 0.0
C2240 C 0.42891 0.83541 0.10507 0.0
C2241 C 0.40664 0.80996 0.16438 0.0
C2242 C 0.41423 0.819 0.14404 0.0
H2243 H 0.46449 0.83308 0.0408 0.0
H2244 H 0.45302 0.82208 0.0775 0.0
H2245 H 0.40373 0.83973 0.09361 0.0
H2246 H 0.3744 0.81255 0.20319 0.0
H2247 H 0.38547 0.82627 0.16812 0.0
C2248 C 0.94229 0.36605 0.55656 0.0
C2249 C 0.95498 0.35714 0.54531 0.0
C2250 C 0.93524 0.36014 0.57759 0.0
C2251 C 0.94267 0.33288 0.6284 0.0
H2252 H 0.89512 0.32669 0.62963 0.0
C2253 C 0.91252 0.29268 0.69994 0.0
C2254 C 0.89721 0.29758 0.70936 0.0
C2255 C 0.91899 0.30047 0.67992 0.0
C2256 C 0.90838 0.32855 0.62981 0.0
H2257 H 0.9707 0.33549 0.54771 0.0
H2258 H 0.95873 0.32549 0.58468 0.0
H2259 H 0.90802 0.34053 0.5959 0.0
H2260 H 0.87648 0.31425 0.70486 0.0
H2261 H 0.88797 0.32822 0.6702 0.0
H2262 H 0.94319 0.32123 0.6623 0.0
C2263 C 0.95412 0.33692 0.57717 0.0
C2264 C 0.91575 0.33648 0.61045 0.0
C2265 C 0.96094 0.34263 0.55598 0.0
C2266 C 0.88826 0.31013 0.69789 0.0
C2267 C 0.89486 0.31812 0.67799 0.0
C2268 C 0.93531 0.32518 0.64787 0.0
C2269 C 0.94099 0.34543 0.58795 0.0
C2270 C 0.933 0.33847 0.6094 0.0
C2271 C 0.91047 0.31358 0.66899 0.0
C2272 C 0.91809 0.3226 0.64867 0.0
H2273 H 0.93737 0.3772 0.54864 0.0
H2274 H 0.92519 0.36698 0.58564 0.0
H2275 H 0.95598 0.33444 0.62817 0.0
H2276 H 0.91964 0.28294 0.70825 0.0
H2277 H 0.93078 0.29625 0.67315 0.0
C2278 C 0.38438 0.191 0.30642 0.0
C2279 C 0.39302 0.20402 0.29553 0.0
C2280 C 0.39056 0.18362 0.32705 0.0
C2281 C 0.4184 0.19033 0.37755 0.0
H2282 H 0.42397 0.14271 0.37738 0.0
C2283 C 0.45769 0.15863 0.4488 0.0
C2284 C 0.45219 0.14347 0.45798 0.0
C2285 C 0.45038 0.16538 0.42859 0.0
C2286 C 0.4223 0.15598 0.37792 0.0
H2287 H 0.41447 0.21999 0.29822 0.0
H2288 H 0.42499 0.20741 0.33447 0.0
H2289 H 0.41013 0.15624 0.34417 0.0
H2290 H 0.43504 0.12322 0.45278 0.0
H2291 H 0.42194 0.13518 0.41779 0.0
H2292 H 0.43023 0.19021 0.41133 0.0
C2293 C 0.41354 0.2028 0.32699 0.0
C2294 C 0.41438 0.16372 0.35886 0.0
C2295 C 0.40753 0.20998 0.30621 0.0
C2296 C 0.43963 0.13487 0.446 0.0
C2297 C 0.43212 0.14175 0.42591 0.0
C2298 C 0.42613 0.1826 0.3967 0.0
C2299 C 0.40531 0.18934 0.33737 0.0
C2300 C 0.41254 0.18099 0.35836 0.0
C2301 C 0.43717 0.15728 0.41724 0.0
C2302 C 0.42843 0.16534 0.39702 0.0
H2303 H 0.37322 0.18608 0.29852 0.0
H2304 H 0.38391 0.17334 0.33481 0.0
H2305 H 0.41697 0.20364 0.37776 0.0
H2306 H 0.46745 0.16548 0.45752 0.0
H2307 H 0.45497 0.1771 0.42208 0.0
C2308 C 0.56157 0.63739 0.05408 0.0
C2309 C 0.55036 0.64685 0.04072 0.0
C2310 C 0.56838 0.64377 0.07499 0.0
C2311 C 0.56141 0.67411 0.12205 0.0
H2312 H 0.60915 0.67541 0.12835 0.0
C2313 C 0.59165 0.71296 0.19503 0.0
C2314 C 0.60567 0.70661 0.2065 0.0
C2315 C 0.58561 0.70552 0.17447 0.0
C2316 C 0.5958 0.67495 0.12711 0.0
H2317 H 0.53707 0.67011 0.03916 0.0
H2318 H 0.54859 0.68099 0.0759 0.0
H2319 H 0.59665 0.66158 0.0943 0.0
H2320 H 0.62467 0.68776 0.20509 0.0
H2321 H 0.61388 0.67442 0.16954 0.0
H2322 H 0.56035 0.68709 0.1549 0.0
C2323 C 0.55223 0.66875 0.07013 0.0
C2324 C 0.58866 0.66703 0.10756 0.0
C2325 C 0.54568 0.66253 0.04907 0.0
C2326 C 0.6139 0.693 0.19652 0.0
C2327 C 0.6077 0.68537 0.1761 0.0
C2328 C 0.56851 0.6818 0.14171 0.0
C2329 C 0.56383 0.65955 0.08312 0.0
C2330 C 0.57141 0.66675 0.1047 0.0
C2331 C 0.59325 0.69133 0.16506 0.0
C2332 C 0.58581 0.68258 0.14436 0.0
H2333 H 0.56548 0.62531 0.04799 0.0
H2334 H 0.57724 0.6364 0.08478 0.0
H2335 H 0.54807 0.67389 0.12041 0.0
H2336 H 0.58513 0.72353 0.20219 0.0
H2337 H 0.57478 0.71082 0.16613 0.0
C2338 C 0.11407 0.80322 0.80746 0.0
C2339 C 0.10323 0.79873 0.7891 0.0
C2340 C 0.10793 0.81019 0.82842 0.0
C2341 C 0.07226 0.83332 0.8517 0.0
H2342 H 0.08634 0.81718 0.9131 0.0
C2343 C 0.05277 0.86348 0.94111 0.0
C2344 C 0.04765 0.85238 0.9588 0.0
C2345 C 0.05983 0.85762 0.92006 0.0
C2346 C 0.08229 0.82181 0.89606 0.0
H2347 H 0.07744 0.79792 0.77845 0.0
H2348 H 0.06685 0.8101 0.8148 0.0
H2349 H 0.09848 0.80549 0.87715 0.0
H2350 H 0.04567 0.8264 0.96804 0.0
H2351 H 0.05799 0.81627 0.93151 0.0
H2352 H 0.05595 0.84953 0.87061 0.0
C2353 C 0.08007 0.80832 0.81299 0.0
C2354 C 0.08935 0.81522 0.87552 0.0
C2355 C 0.08615 0.80121 0.79223 0.0
C2356 C 0.04947 0.83532 0.95481 0.0
C2357 C 0.05666 0.82949 0.93395 0.0
C2358 C 0.06535 0.84005 0.87225 0.0
C2359 C 0.09088 0.813 0.83124 0.0
C2360 C 0.08423 0.82073 0.85311 0.0
C2361 C 0.06208 0.84056 0.91645 0.0
C2362 C 0.07011 0.83419 0.89464 0.0
H2363 H 0.12728 0.8015 0.80556 0.0
H2364 H 0.11655 0.81372 0.8422 0.0
H2365 H 0.0682 0.83793 0.83465 0.0
H2366 H 0.05157 0.8767 0.94368 0.0
H2367 H 0.06392 0.86643 0.90687 0.0
loop_
_geom_bond_atom_site_label_1
_geom_bond_atom_site_label_2
_geom_bond_distance
_geom_bond_site_symmetry_2
_ccdc_geom_bond_type
O0 Cd1 2.223 . S
O0 C8 1.315 . S
Cd1 O0 2.223 . S
Cd1 O4 2.297 . S
Cd1 O5 2.439 . S
Cd1 O11 2.240 . S
Cd2 O3 2.240 . S
Cd2 O10 2.223 . S
Cd2 O12 2.297 . S
Cd2 O13 2.439 . S
O3 Cd2 2.240 . S
O3 C8 1.279 . S
O4 Cd1 2.297 . S
O4 C6 1.247 . S
O5 Cd1 2.439 . S
O5 C6 1.208 . S
C6 O4 1.247 . S
C6 O5 1.208 . S
C7 O12 1.247 . S
C7 O13 1.208 . S
C8 O0 1.315 . S
C8 O3 1.279 . S
C9 O10 1.315 . S
C9 O11 1.279 . S
O10 Cd2 2.223 . S
O10 C9 1.315 . S
O11 Cd1 2.240 . S
O11 C9 1.279 . S
O12 Cd2 2.297 . S
O12 C7 1.247 . S
O13 Cd2 2.439 . S
O13 C7 1.208 . S
O14 Cd15 2.223 . S
O14 C22 1.315 . S
Cd15 O14 2.223 . S
Cd15 O18 2.297 . S
Cd15 O19 2.439 . S
Cd15 O25 2.240 . S
Cd16 O17 2.240 . S
Cd16 O24 2.223 . S
Cd16 O26 2.297 . S
Cd16 O27 2.439 . S
O17 Cd16 2.240 . S
O17 C22 1.279 . S
O18 Cd15 2.297 . S
O18 C20 1.247 . S
O19 Cd15 2.439 . S
O19 C20 1.208 . S
C20 O18 1.247 . S
C20 O19 1.208 . S
C21 O26 1.247 . S
C21 O27 1.208 . S
C22 O14 1.315 . S
C22 O17 1.279 . S
C23 O24 1.315 . S
C23 O25 1.279 . S
O24 Cd16 2.223 . S
O24 C23 1.315 . S
O25 Cd15 2.240 . S
O25 C23 1.279 . S
O26 Cd16 2.297 . S
O26 C21 1.247 . S
O27 Cd16 2.439 . S
O27 C21 1.208 . S
O28 Cd29 2.223 . S
O28 C36 1.315 . S
Cd29 O28 2.223 . S
Cd29 O32 2.297 . S
Cd29 O33 2.439 . S
Cd29 O39 2.240 . S
Cd30 O31 2.240 . S
Cd30 O38 2.223 . S
Cd30 O40 2.297 . S
Cd30 O41 2.439 . S
O31 Cd30 2.240 . S
O31 C36 1.279 . S
O32 Cd29 2.297 . S
O32 C34 1.247 . S
O33 Cd29 2.439 . S
O33 C34 1.208 . S
C34 O32 1.247 . S
C34 O33 1.208 . S
C35 O40 1.247 . S
C35 O41 1.208 . S
C36 O28 1.315 . S
C36 O31 1.279 . S
C37 O38 1.315 . S
C37 O39 1.279 . S
O38 Cd30 2.223 . S
O38 C37 1.315 . S
O39 Cd29 2.240 . S
O39 C37 1.279 . S
O40 Cd30 2.297 . S
O40 C35 1.247 . S
O41 Cd30 2.439 . S
O41 C35 1.208 . S
O42 Cd43 2.223 . S
O42 C50 1.315 . S
Cd43 O42 2.223 . S
Cd43 O46 2.297 . S
Cd43 O47 2.439 . S
Cd43 O53 2.240 . S
Cd44 O45 2.240 . S
Cd44 O52 2.223 . S
Cd44 O54 2.297 1_554 S
Cd44 O55 2.439 1_554 S
O45 Cd44 2.240 . S
O45 C50 1.279 . S
O46 Cd43 2.297 . S
O46 C48 1.247 . S
O47 Cd43 2.439 . S
O47 C48 1.208 . S
C48 O46 1.247 . S
C48 O47 1.208 . S
C49 O54 1.247 . S
C49 O55 1.208 . S
C50 O42 1.315 . S
C50 O45 1.279 . S
C51 O52 1.315 . S
C51 O53 1.279 . S
O52 Cd44 2.223 . S
O52 C51 1.315 . S
O53 Cd43 2.240 . S
O53 C51 1.279 . S
O54 Cd44 2.297 1_556 S
O54 C49 1.247 . S
O55 Cd44 2.439 1_556 S
O55 C49 1.208 . S
O56 Cd57 2.223 . S
O56 C64 1.315 . S
Cd57 O56 2.223 . S
Cd57 O60 2.297 . S
Cd57 O61 2.439 . S
Cd57 O67 2.240 . S
Cd58 O59 2.240 . S
Cd58 O66 2.223 . S
Cd58 O68 2.297 . S
Cd58 O69 2.439 . S
O59 Cd58 2.240 . S
O59 C64 1.279 . S
O60 Cd57 2.297 . S
O60 C62 1.247 . S
O61 Cd57 2.439 . S
O61 C62 1.208 . S
C62 O60 1.247 . S
C62 O61 1.208 . S
C63 O68 1.247 . S
C63 O69 1.208 . S
C64 O56 1.315 . S
C64 O59 1.279 . S
C65 O66 1.315 . S
C65 O67 1.279 . S
O66 Cd58 2.223 . S
O66 C65 1.315 . S
O67 Cd57 2.240 . S
O67 C65 1.279 . S
O68 Cd58 2.297 . S
O68 C63 1.247 . S
O69 Cd58 2.439 . S
O69 C63 1.208 . S
O70 Cd71 2.223 . S
O70 C78 1.315 . S
Cd71 O70 2.223 . S
Cd71 O74 2.297 . S
Cd71 O75 2.439 . S
Cd71 O81 2.240 . S
Cd72 O73 2.240 . S
Cd72 O80 2.223 . S
Cd72 O82 2.297 . S
Cd72 O83 2.439 . S
O73 Cd72 2.240 . S
O73 C78 1.279 . S
O74 Cd71 2.297 . S
O74 C76 1.247 . S
O75 Cd71 2.439 . S
O75 C76 1.208 . S
C76 O74 1.247 . S
C76 O75 1.208 . S
C77 O82 1.247 . S
C77 O83 1.208 . S
C78 O70 1.315 . S
C78 O73 1.279 . S
C79 O80 1.315 . S
C79 O81 1.279 . S
O80 Cd72 2.223 . S
O80 C79 1.315 . S
O81 Cd71 2.240 . S
O81 C79 1.279 . S
O82 Cd72 2.297 . S
O82 C77 1.247 . S
O83 Cd72 2.439 . S
O83 C77 1.208 . S
O84 Cd85 2.223 . S
O84 C92 1.315 . S
Cd85 O84 2.223 . S
Cd85 O88 2.297 . S
Cd85 O89 2.439 . S
Cd85 O95 2.240 . S
Cd86 O87 2.240 . S
Cd86 O94 2.223 . S
Cd86 O96 2.297 . S
Cd86 O97 2.439 . S
O87 Cd86 2.240 . S
O87 C92 1.279 . S
O88 Cd85 2.297 . S
O88 C90 1.247 . S
O89 Cd85 2.439 . S
O89 C90 1.208 . S
C90 O88 1.247 . S
C90 O89 1.208 . S
C91 O96 1.247 . S
C91 O97 1.208 . S
C92 O84 1.315 . S
C92 O87 1.279 . S
C93 O94 1.315 . S
C93 O95 1.279 . S
O94 Cd86 2.223 . S
O94 C93 1.315 . S
O95 Cd85 2.240 . S
O95 C93 1.279 . S
O96 Cd86 2.297 . S
O96 C91 1.247 . S
O97 Cd86 2.439 . S
O97 C91 1.208 . S
O98 Cd99 2.223 . S
O98 C106 1.315 . S
Cd99 O98 2.223 . S
Cd99 O102 2.297 . S
Cd99 O103 2.439 . S
Cd99 O109 2.240 . S
Cd100 O101 2.240 . S
Cd100 O108 2.223 . S
Cd100 O110 2.297 1_556 S
Cd100 O111 2.439 1_556 S
O101 Cd100 2.240 . S
O101 C106 1.279 . S
O102 Cd99 2.297 . S
O102 C104 1.247 . S
O103 Cd99 2.439 . S
O103 C104 1.208 . S
C104 O102 1.247 . S
C104 O103 1.208 . S
C105 O110 1.247 . S
C105 O111 1.208 . S
C106 O98 1.315 . S
C106 O101 1.279 . S
C107 O108 1.315 . S
C107 O109 1.279 . S
O108 Cd100 2.223 . S
O108 C107 1.315 . S
O109 Cd99 2.240 . S
O109 C107 1.279 . S
O110 Cd100 2.297 1_554 S
O110 C105 1.247 . S
O111 Cd100 2.439 1_554 S
O111 C105 1.208 . S
O112 Cd113 2.223 . S
O112 C120 1.315 . S
Cd113 O112 2.223 . S
Cd113 O116 2.297 . S
Cd113 O117 2.439 . S
Cd113 O123 2.240 . S
Cd114 O115 2.240 . S
Cd114 O122 2.223 . S
Cd114 O124 2.297 . S
Cd114 O125 2.439 . S
O115 Cd114 2.240 . S
O115 C120 1.279 . S
O116 Cd113 2.297 . S
O116 C118 1.247 . S
O117 Cd113 2.439 . S
O117 C118 1.208 . S
C118 O116 1.247 . S
C118 O117 1.208 . S
C119 O124 1.247 . S
C119 O125 1.208 . S
C120 O112 1.315 . S
C120 O115 1.279 . S
C121 O122 1.315 . S
C121 O123 1.279 . S
O122 Cd114 2.223 . S
O122 C121 1.315 . S
O123 Cd113 2.240 . S
O123 C121 1.279 . S
O124 Cd114 2.297 . S
O124 C119 1.247 . S
O125 Cd114 2.439 . S
O125 C119 1.208 . S
O126 Cd127 2.223 . S
O126 C134 1.315 . S
Cd127 O126 2.223 . S
Cd127 O130 2.297 . S
Cd127 O131 2.439 . S
Cd127 O137 2.240 . S
Cd128 O129 2.240 . S
Cd128 O136 2.223 . S
Cd128 O138 2.297 . S
Cd128 O139 2.439 . S
O129 Cd128 2.240 . S
O129 C134 1.279 . S
O130 Cd127 2.297 . S
O130 C132 1.247 . S
O131 Cd127 2.439 . S
O131 C132 1.208 . S
C132 O130 1.247 . S
C132 O131 1.208 . S
C133 O138 1.247 . S
C133 O139 1.208 . S
C134 O126 1.315 . S
C134 O129 1.279 . S
C135 O136 1.315 . S
C135 O137 1.279 . S
O136 Cd128 2.223 . S
O136 C135 1.315 . S
O137 Cd127 2.240 . S
O137 C135 1.279 . S
O138 Cd128 2.297 . S
O138 C133 1.247 . S
O139 Cd128 2.439 . S
O139 C133 1.208 . S
O140 Cd141 2.223 . S
O140 C148 1.315 . S
Cd141 O140 2.223 . S
Cd141 O144 2.297 . S
Cd141 O145 2.439 . S
Cd141 O151 2.240 . S
Cd142 O143 2.240 . S
Cd142 O150 2.223 . S
Cd142 O152 2.297 . S
Cd142 O153 2.439 . S
O143 Cd142 2.240 . S
O143 C148 1.279 . S
O144 Cd141 2.297 . S
O144 C146 1.247 . S
O145 Cd141 2.439 . S
O145 C146 1.208 . S
C146 O144 1.247 . S
C146 O145 1.208 . S
C147 O152 1.247 . S
C147 O153 1.208 . S
C148 O140 1.315 . S
C148 O143 1.279 . S
C149 O150 1.315 . S
C149 O151 1.279 . S
O150 Cd142 2.223 . S
O150 C149 1.315 . S
O151 Cd141 2.240 . S
O151 C149 1.279 . S
O152 Cd142 2.297 . S
O152 C147 1.247 . S
O153 Cd142 2.439 . S
O153 C147 1.208 . S
O154 Cd155 2.223 . S
O154 C162 1.315 . S
Cd155 O154 2.223 . S
Cd155 O158 2.297 . S
Cd155 O159 2.439 . S
Cd155 O165 2.240 . S
Cd156 O157 2.240 . S
Cd156 O164 2.223 . S
Cd156 O166 2.297 1_556 S
Cd156 O167 2.439 1_556 S
O157 Cd156 2.240 . S
O157 C162 1.279 . S
O158 Cd155 2.297 . S
O158 C160 1.247 . S
O159 Cd155 2.439 . S
O159 C160 1.208 . S
C160 O158 1.247 . S
C160 O159 1.208 . S
C161 O166 1.247 . S
C161 O167 1.208 . S
C162 O154 1.315 . S
C162 O157 1.279 . S
C163 O164 1.315 . S
C163 O165 1.279 . S
O164 Cd156 2.223 . S
O164 C163 1.315 . S
O165 Cd155 2.240 . S
O165 C163 1.279 . S
O166 Cd156 2.297 1_554 S
O166 C161 1.247 . S
O167 Cd156 2.439 1_554 S
O167 C161 1.208 . S
O168 Cd169 2.223 . S
O168 C176 1.315 . S
Cd169 O168 2.223 . S
Cd169 O172 2.297 . S
Cd169 O173 2.439 . S
Cd169 O179 2.240 . S
Cd170 O171 2.240 . S
Cd170 O178 2.223 . S
Cd170 O180 2.297 . S
Cd170 O181 2.439 . S
O171 Cd170 2.240 . S
O171 C176 1.279 . S
O172 Cd169 2.297 . S
O172 C174 1.247 . S
O173 Cd169 2.439 . S
O173 C174 1.208 . S
C174 O172 1.247 . S
C174 O173 1.208 . S
C175 O180 1.247 . S
C175 O181 1.208 . S
C176 O168 1.315 . S
C176 O171 1.279 . S
C177 O178 1.315 . S
C177 O179 1.279 . S
O178 Cd170 2.223 . S
O178 C177 1.315 . S
O179 Cd169 2.240 . S
O179 C177 1.279 . S
O180 Cd170 2.297 . S
O180 C175 1.247 . S
O181 Cd170 2.439 . S
O181 C175 1.208 . S
O182 Cd183 2.223 . S
O182 C190 1.315 . S
Cd183 O182 2.223 . S
Cd183 O186 2.297 . S
Cd183 O187 2.439 . S
Cd183 O193 2.240 . S
Cd184 O185 2.240 . S
Cd184 O192 2.223 . S
Cd184 O194 2.297 . S
Cd184 O195 2.439 . S
O185 Cd184 2.240 . S
O185 C190 1.279 . S
O186 Cd183 2.297 . S
O186 C188 1.247 . S
O187 Cd183 2.439 . S
O187 C188 1.208 . S
C188 O186 1.247 . S
C188 O187 1.208 . S
C189 O194 1.247 . S
C189 O195 1.208 . S
C190 O182 1.315 . S
C190 O185 1.279 . S
C191 O192 1.315 . S
C191 O193 1.279 . S
O192 Cd184 2.223 . S
O192 C191 1.315 . S
O193 Cd183 2.240 . S
O193 C191 1.279 . S
O194 Cd184 2.297 . S
O194 C189 1.247 . S
O195 Cd184 2.439 . S
O195 C189 1.208 . S
O196 Cd197 2.223 . S
O196 C204 1.315 . S
Cd197 O196 2.223 . S
Cd197 O200 2.297 . S
Cd197 O201 2.439 . S
Cd197 O207 2.240 . S
Cd198 O199 2.240 . S
Cd198 O206 2.223 . S
Cd198 O208 2.297 . S
Cd198 O209 2.439 . S
O199 Cd198 2.240 . S
O199 C204 1.279 . S
O200 Cd197 2.297 . S
O200 C202 1.247 . S
O201 Cd197 2.439 . S
O201 C202 1.208 . S
C202 O200 1.247 . S
C202 O201 1.208 . S
C203 O208 1.247 . S
C203 O209 1.208 . S
C204 O196 1.315 . S
C204 O199 1.279 . S
C205 O206 1.315 . S
C205 O207 1.279 . S
O206 Cd198 2.223 . S
O206 C205 1.315 . S
O207 Cd197 2.240 . S
O207 C205 1.279 . S
O208 Cd198 2.297 . S
O208 C203 1.247 . S
O209 Cd198 2.439 . S
O209 C203 1.208 . S
O210 Cd211 2.223 . S
O210 C218 1.315 . S
Cd211 O210 2.223 . S
Cd211 O214 2.297 . S
Cd211 O215 2.439 . S
Cd211 O221 2.240 . S
Cd212 O213 2.240 . S
Cd212 O220 2.223 . S
Cd212 O222 2.297 1_554 S
Cd212 O223 2.439 1_554 S
O213 Cd212 2.240 . S
O213 C218 1.279 . S
O214 Cd211 2.297 . S
O214 C216 1.247 . S
O215 Cd211 2.439 . S
O215 C216 1.208 . S
C216 O214 1.247 . S
C216 O215 1.208 . S
C217 O222 1.247 . S
C217 O223 1.208 . S
C218 O210 1.315 . S
C218 O213 1.279 . S
C219 O220 1.315 . S
C219 O221 1.279 . S
O220 Cd212 2.223 . S
O220 C219 1.315 . S
O221 Cd211 2.240 . S
O221 C219 1.279 . S
O222 Cd212 2.297 1_556 S
O222 C217 1.247 . S
O223 Cd212 2.439 1_556 S
O223 C217 1.208 . S
O224 Cd225 2.223 . S
O224 C232 1.315 . S
Cd225 O224 2.223 . S
Cd225 O228 2.297 . S
Cd225 O229 2.439 . S
Cd225 O235 2.240 . S
Cd226 O227 2.240 . S
Cd226 O234 2.223 . S
Cd226 O236 2.297 . S
Cd226 O237 2.439 . S
O227 Cd226 2.240 . S
O227 C232 1.279 . S
O228 Cd225 2.297 . S
O228 C230 1.247 . S
O229 Cd225 2.439 . S
O229 C230 1.208 . S
C230 O228 1.247 . S
C230 O229 1.208 . S
C231 O236 1.247 . S
C231 O237 1.208 . S
C232 O224 1.315 . S
C232 O227 1.279 . S
C233 O234 1.315 . S
C233 O235 1.279 . S
O234 Cd226 2.223 . S
O234 C233 1.315 . S
O235 Cd225 2.240 . S
O235 C233 1.279 . S
O236 Cd226 2.297 . S
O236 C231 1.247 . S
O237 Cd226 2.439 . S
O237 C231 1.208 . S
O238 Cd239 2.223 . S
O238 C246 1.315 . S
Cd239 O238 2.223 . S
Cd239 O242 2.297 . S
Cd239 O243 2.439 . S
Cd239 O249 2.240 . S
Cd240 O241 2.240 . S
Cd240 O248 2.223 . S
Cd240 O250 2.297 1_554 S
Cd240 O251 2.439 1_554 S
O241 Cd240 2.240 . S
O241 C246 1.279 . S
O242 Cd239 2.297 . S
O242 C244 1.247 . S
O243 Cd239 2.439 . S
O243 C244 1.208 . S
C244 O242 1.247 . S
C244 O243 1.208 . S
C245 O250 1.247 . S
C245 O251 1.208 . S
C246 O238 1.315 . S
C246 O241 1.279 . S
C247 O248 1.315 . S
C247 O249 1.279 . S
O248 Cd240 2.223 . S
O248 C247 1.315 . S
O249 Cd239 2.240 . S
O249 C247 1.279 . S
O250 Cd240 2.297 1_556 S
O250 C245 1.247 . S
O251 Cd240 2.439 1_556 S
O251 C245 1.208 . S
O252 Cd253 2.223 . S
O252 C260 1.315 . S
Cd253 O252 2.223 . S
Cd253 O256 2.297 . S
Cd253 O257 2.439 . S
Cd253 O263 2.240 . S
Cd254 O255 2.240 . S
Cd254 O262 2.223 . S
Cd254 O264 2.297 . S
Cd254 O265 2.439 . S
O255 Cd254 2.240 . S
O255 C260 1.279 . S
O256 Cd253 2.297 . S
O256 C258 1.247 . S
O257 Cd253 2.439 . S
O257 C258 1.208 . S
C258 O256 1.247 . S
C258 O257 1.208 . S
C259 O264 1.247 . S
C259 O265 1.208 . S
C260 O252 1.315 . S
C260 O255 1.279 . S
C261 O262 1.315 . S
C261 O263 1.279 . S
O262 Cd254 2.223 . S
O262 C261 1.315 . S
O263 Cd253 2.240 . S
O263 C261 1.279 . S
O264 Cd254 2.297 . S
O264 C259 1.247 . S
O265 Cd254 2.439 . S
O265 C259 1.208 . S
O266 Cd267 2.223 . S
O266 C274 1.315 . S
Cd267 O266 2.223 . S
Cd267 O270 2.297 . S
Cd267 O271 2.439 . S
Cd267 O277 2.240 . S
Cd268 O269 2.240 . S
Cd268 O276 2.223 . S
Cd268 O278 2.297 . S
Cd268 O279 2.439 . S
O269 Cd268 2.240 . S
O269 C274 1.279 . S
O270 Cd267 2.297 . S
O270 C272 1.247 . S
O271 Cd267 2.439 . S
O271 C272 1.208 . S
C272 O270 1.247 . S
C272 O271 1.208 . S
C273 O278 1.247 . S
C273 O279 1.208 . S
C274 O266 1.315 . S
C274 O269 1.279 . S
C275 O276 1.315 . S
C275 O277 1.279 . S
O276 Cd268 2.223 . S
O276 C275 1.315 . S
O277 Cd267 2.240 . S
O277 C275 1.279 . S
O278 Cd268 2.297 . S
O278 C273 1.247 . S
O279 Cd268 2.439 . S
O279 C273 1.208 . S
O280 Cd281 2.223 . S
O280 C288 1.315 . S
Cd281 O280 2.223 . S
Cd281 O284 2.297 . S
Cd281 O285 2.439 . S
Cd281 O291 2.240 . S
Cd282 O283 2.240 . S
Cd282 O290 2.223 . S
Cd282 O292 2.297 . S
Cd282 O293 2.439 . S
O283 Cd282 2.240 . S
O283 C288 1.279 . S
O284 Cd281 2.297 . S
O284 C286 1.247 . S
O285 Cd281 2.439 . S
O285 C286 1.208 . S
C286 O284 1.247 . S
C286 O285 1.208 . S
C287 O292 1.247 . S
C287 O293 1.208 . S
C288 O280 1.315 . S
C288 O283 1.279 . S
C289 O290 1.315 . S
C289 O291 1.279 . S
O290 Cd282 2.223 . S
O290 C289 1.315 . S
O291 Cd281 2.240 . S
O291 C289 1.279 . S
O292 Cd282 2.297 . S
O292 C287 1.247 . S
O293 Cd282 2.439 . S
O293 C287 1.208 . S
O294 Cd295 2.223 . S
O294 C302 1.315 . S
Cd295 O294 2.223 . S
Cd295 O298 2.297 . S
Cd295 O299 2.439 . S
Cd295 O305 2.240 . S
Cd296 O297 2.240 . S
Cd296 O304 2.223 . S
Cd296 O306 2.297 1_556 S
Cd296 O307 2.439 1_556 S
O297 Cd296 2.240 . S
O297 C302 1.279 . S
O298 Cd295 2.297 . S
O298 C300 1.247 . S
O299 Cd295 2.439 . S
O299 C300 1.208 . S
C300 O298 1.247 . S
C300 O299 1.208 . S
C301 O306 1.247 . S
C301 O307 1.208 . S
C302 O294 1.315 . S
C302 O297 1.279 . S
C303 O304 1.315 . S
C303 O305 1.279 . S
O304 Cd296 2.223 . S
O304 C303 1.315 . S
O305 Cd295 2.240 . S
O305 C303 1.279 . S
O306 Cd296 2.297 1_554 S
O306 C301 1.247 . S
O307 Cd296 2.439 1_554 S
O307 C301 1.208 . S
O308 Cd309 2.223 . S
O308 C316 1.315 . S
Cd309 O308 2.223 . S
Cd309 O312 2.297 . S
Cd309 O313 2.439 . S
Cd309 O319 2.240 . S
Cd310 O311 2.240 . S
Cd310 O318 2.223 . S
Cd310 O320 2.297 . S
Cd310 O321 2.439 . S
O311 Cd310 2.240 . S
O311 C316 1.279 . S
O312 Cd309 2.297 . S
O312 C314 1.247 . S
O313 Cd309 2.439 . S
O313 C314 1.208 . S
C314 O312 1.247 . S
C314 O313 1.208 . S
C315 O320 1.247 . S
C315 O321 1.208 . S
C316 O308 1.315 . S
C316 O311 1.279 . S
C317 O318 1.315 . S
C317 O319 1.279 . S
O318 Cd310 2.223 . S
O318 C317 1.315 . S
O319 Cd309 2.240 . S
O319 C317 1.279 . S
O320 Cd310 2.297 . S
O320 C315 1.247 . S
O321 Cd310 2.439 . S
O321 C315 1.208 . S
O322 Cd323 2.223 . S
O322 C330 1.315 . S
Cd323 O322 2.223 . S
Cd323 O326 2.297 . S
Cd323 O327 2.439 . S
Cd323 O333 2.240 . S
Cd324 O325 2.240 . S
Cd324 O332 2.223 . S
Cd324 O334 2.297 . S
Cd324 O335 2.439 . S
O325 Cd324 2.240 . S
O325 C330 1.279 . S
O326 Cd323 2.297 . S
O326 C328 1.247 . S
O327 Cd323 2.439 . S
O327 C328 1.208 . S
C328 O326 1.247 . S
C328 O327 1.208 . S
C329 O334 1.247 . S
C329 O335 1.208 . S
C330 O322 1.315 . S
C330 O325 1.279 . S
C331 O332 1.315 . S
C331 O333 1.279 . S
O332 Cd324 2.223 . S
O332 C331 1.315 . S
O333 Cd323 2.240 . S
O333 C331 1.279 . S
O334 Cd324 2.297 . S
O334 C329 1.247 . S
O335 Cd324 2.439 . S
O335 C329 1.208 . S
O336 Cd337 2.223 . S
O336 C344 1.315 . S
Cd337 O336 2.223 . S
Cd337 O340 2.297 . S
Cd337 O341 2.439 . S
Cd337 O347 2.240 . S
Cd338 O339 2.240 . S
Cd338 O346 2.223 . S
Cd338 O348 2.297 . S
Cd338 O349 2.439 . S
O339 Cd338 2.240 . S
O339 C344 1.279 . S
O340 Cd337 2.297 . S
O340 C342 1.247 . S
O341 Cd337 2.439 . S
O341 C342 1.208 . S
C342 O340 1.247 . S
C342 O341 1.208 . S
C343 O348 1.247 . S
C343 O349 1.208 . S
C344 O336 1.315 . S
C344 O339 1.279 . S
C345 O346 1.315 . S
C345 O347 1.279 . S
O346 Cd338 2.223 . S
O346 C345 1.315 . S
O347 Cd337 2.240 . S
O347 C345 1.279 . S
O348 Cd338 2.297 . S
O348 C343 1.247 . S
O349 Cd338 2.439 . S
O349 C343 1.208 . S
O350 Cd351 2.223 . S
O350 C358 1.315 . S
Cd351 O350 2.223 . S
Cd351 O354 2.297 . S
Cd351 O355 2.439 . S
Cd351 O361 2.240 . S
Cd352 O353 2.240 . S
Cd352 O360 2.223 . S
Cd352 O362 2.297 1_556 S
Cd352 O363 2.439 1_556 S
O353 Cd352 2.240 . S
O353 C358 1.279 . S
O354 Cd351 2.297 . S
O354 C356 1.247 . S
O355 Cd351 2.439 . S
O355 C356 1.208 . S
C356 O354 1.247 . S
C356 O355 1.208 . S
C357 O362 1.247 . S
C357 O363 1.208 . S
C358 O350 1.315 . S
C358 O353 1.279 . S
C359 O360 1.315 . S
C359 O361 1.279 . S
O360 Cd352 2.223 . S
O360 C359 1.315 . S
O361 Cd351 2.240 . S
O361 C359 1.279 . S
O362 Cd352 2.297 1_554 S
O362 C357 1.247 . S
O363 Cd352 2.439 1_554 S
O363 C357 1.208 . S
O364 Cd365 2.223 . S
O364 C372 1.315 . S
Cd365 O364 2.223 . S
Cd365 O368 2.297 . S
Cd365 O369 2.439 . S
Cd365 O375 2.240 . S
Cd366 O367 2.240 . S
Cd366 O374 2.223 . S
Cd366 O376 2.297 . S
Cd366 O377 2.439 . S
O367 Cd366 2.240 . S
O367 C372 1.279 . S
O368 Cd365 2.297 . S
O368 C370 1.247 . S
O369 Cd365 2.439 . S
O369 C370 1.208 . S
C370 O368 1.247 . S
C370 O369 1.208 . S
C371 O376 1.247 . S
C371 O377 1.208 . S
C372 O364 1.315 . S
C372 O367 1.279 . S
C373 O374 1.315 . S
C373 O375 1.279 . S
O374 Cd366 2.223 . S
O374 C373 1.315 . S
O375 Cd365 2.240 . S
O375 C373 1.279 . S
O376 Cd366 2.297 . S
O376 C371 1.247 . S
O377 Cd366 2.439 . S
O377 C371 1.208 . S
O378 Cd379 2.223 . S
O378 C386 1.315 . S
Cd379 O378 2.223 . S
Cd379 O382 2.297 . S
Cd379 O383 2.439 . S
Cd379 O389 2.240 . S
Cd380 O381 2.240 . S
Cd380 O388 2.223 . S
Cd380 O390 2.297 . S
Cd380 O391 2.439 . S
O381 Cd380 2.240 . S
O381 C386 1.279 . S
O382 Cd379 2.297 . S
O382 C384 1.247 . S
O383 Cd379 2.439 . S
O383 C384 1.208 . S
C384 O382 1.247 . S
C384 O383 1.208 . S
C385 O390 1.247 . S
C385 O391 1.208 . S
C386 O378 1.315 . S
C386 O381 1.279 . S
C387 O388 1.315 . S
C387 O389 1.279 . S
O388 Cd380 2.223 . S
O388 C387 1.315 . S
O389 Cd379 2.240 . S
O389 C387 1.279 . S
O390 Cd380 2.297 . S
O390 C385 1.247 . S
O391 Cd380 2.439 . S
O391 C385 1.208 . S
O392 Cd393 2.223 . S
O392 C400 1.315 . S
Cd393 O392 2.223 . S
Cd393 O396 2.297 . S
Cd393 O397 2.439 . S
Cd393 O403 2.240 . S
Cd394 O395 2.240 . S
Cd394 O402 2.223 . S
Cd394 O404 2.297 . S
Cd394 O405 2.439 . S
O395 Cd394 2.240 . S
O395 C400 1.279 . S
O396 Cd393 2.297 . S
O396 C398 1.247 . S
O397 Cd393 2.439 . S
O397 C398 1.208 . S
C398 O396 1.247 . S
C398 O397 1.208 . S
C399 O404 1.247 . S
C399 O405 1.208 . S
C400 O392 1.315 . S
C400 O395 1.279 . S
C401 O402 1.315 . S
C401 O403 1.279 . S
O402 Cd394 2.223 . S
O402 C401 1.315 . S
O403 Cd393 2.240 . S
O403 C401 1.279 . S
O404 Cd394 2.297 . S
O404 C399 1.247 . S
O405 Cd394 2.439 . S
O405 C399 1.208 . S
O406 Cd407 2.223 . S
O406 C414 1.315 . S
Cd407 O406 2.223 . S
Cd407 O410 2.297 . S
Cd407 O411 2.439 . S
Cd407 O417 2.240 . S
Cd408 O409 2.240 . S
Cd408 O416 2.223 . S
Cd408 O418 2.297 1_554 S
Cd408 O419 2.439 1_554 S
O409 Cd408 2.240 . S
O409 C414 1.279 . S
O410 Cd407 2.297 . S
O410 C412 1.247 . S
O411 Cd407 2.439 . S
O411 C412 1.208 . S
C412 O410 1.247 . S
C412 O411 1.208 . S
C413 O418 1.247 . S
C413 O419 1.208 . S
C414 O406 1.315 . S
C414 O409 1.279 . S
C415 O416 1.315 . S
C415 O417 1.279 . S
O416 Cd408 2.223 . S
O416 C415 1.315 . S
O417 Cd407 2.240 . S
O417 C415 1.279 . S
O418 Cd408 2.297 1_556 S
O418 C413 1.247 . S
O419 Cd408 2.439 1_556 S
O419 C413 1.208 . S
O420 Cd421 2.223 . S
O420 C428 1.315 . S
Cd421 O420 2.223 . S
Cd421 O424 2.297 . S
Cd421 O425 2.439 . S
Cd421 O431 2.240 . S
Cd422 O423 2.240 . S
Cd422 O430 2.223 . S
Cd422 O432 2.297 . S
Cd422 O433 2.439 . S
O423 Cd422 2.240 . S
O423 C428 1.279 . S
O424 Cd421 2.297 . S
O424 C426 1.247 . S
O425 Cd421 2.439 . S
O425 C426 1.208 . S
C426 O424 1.247 . S
C426 O425 1.208 . S
C427 O432 1.247 . S
C427 O433 1.208 . S
C428 O420 1.315 . S
C428 O423 1.279 . S
C429 O430 1.315 . S
C429 O431 1.279 . S
O430 Cd422 2.223 . S
O430 C429 1.315 . S
O431 Cd421 2.240 . S
O431 C429 1.279 . S
O432 Cd422 2.297 . S
O432 C427 1.247 . S
O433 Cd422 2.439 . S
O433 C427 1.208 . S
O434 Cd435 2.223 . S
O434 C442 1.315 . S
Cd435 O434 2.223 . S
Cd435 O438 2.297 . S
Cd435 O439 2.439 . S
Cd435 O445 2.240 . S
Cd436 O437 2.240 . S
Cd436 O444 2.223 . S
Cd436 O446 2.297 . S
Cd436 O447 2.439 . S
O437 Cd436 2.240 . S
O437 C442 1.279 . S
O438 Cd435 2.297 . S
O438 C440 1.247 . S
O439 Cd435 2.439 . S
O439 C440 1.208 . S
C440 O438 1.247 . S
C440 O439 1.208 . S
C441 O446 1.247 . S
C441 O447 1.208 . S
C442 O434 1.315 . S
C442 O437 1.279 . S
C443 O444 1.315 . S
C443 O445 1.279 . S
O444 Cd436 2.223 . S
O444 C443 1.315 . S
O445 Cd435 2.240 . S
O445 C443 1.279 . S
O446 Cd436 2.297 . S
O446 C441 1.247 . S
O447 Cd436 2.439 . S
O447 C441 1.208 . S
C448 C449 1.349 . S
C448 C450 1.327 . S
C448 H473 0.950 . S
C449 C448 1.349 . S
C449 C465 1.349 . S
C450 C448 1.327 . S
C450 C469 1.429 . S
C450 H474 0.950 . S
C451 C468 1.574 . S
C451 C470 1.368 . S
C451 H475 0.949 . S
H452 C456 0.949 . S
C453 C454 1.349 . S
C453 C455 1.327 . S
C453 H476 0.950 . S
C454 C453 1.349 . S
C454 C466 1.349 . S
C455 C453 1.327 . S
C455 C471 1.429 . S
C455 H477 0.950 . S
C456 H452 0.949 . S
C456 C464 1.574 . S
C456 C472 1.368 . S
H457 C465 0.950 . S
H458 C463 0.950 . S
H459 C464 0.949 . S
H460 C466 0.950 . S
H461 C467 0.950 . S
H462 C468 0.949 . S
C463 H458 0.950 . S
C463 C465 1.327 . S
C463 C469 1.429 . S
C464 C456 1.574 . S
C464 H459 0.949 . S
C464 C470 1.368 . S
C465 C449 1.349 . S
C465 H457 0.950 . S
C465 C463 1.327 . S
C466 C454 1.349 . S
C466 H460 0.950 . S
C466 C467 1.327 . S
C467 H461 0.950 . S
C467 C466 1.327 . S
C467 C471 1.429 . S
C468 C451 1.574 . S
C468 H462 0.949 . S
C468 C472 1.368 . S
C469 C450 1.429 . S
C469 C463 1.429 . S
C469 C470 1.523 . S
C470 C451 1.368 . S
C470 C464 1.368 . S
C470 C469 1.523 . S
C471 C455 1.429 . S
C471 C467 1.429 . S
C471 C472 1.523 . S
C472 C456 1.368 . S
C472 C468 1.368 . S
C472 C471 1.523 . S
H473 C448 0.950 . S
H474 C450 0.950 . S
H475 C451 0.949 . S
H476 C453 0.950 . S
H477 C455 0.950 . S
C478 C479 1.349 . S
C478 C480 1.327 1_655 S
C478 H503 0.950 . S
C479 C478 1.349 . S
C479 C495 1.349 1_655 S
C480 C478 1.327 1_455 S
C480 C499 1.429 . S
C480 H504 0.950 . S
C481 C498 1.574 . S
C481 C500 1.368 . S
C481 H505 0.949 . S
H482 C486 0.949 . S
C483 C484 1.349 . S
C483 C485 1.327 . S
C483 H506 0.950 . S
C484 C483 1.349 . S
C484 C496 1.349 . S
C485 C483 1.327 . S
C485 C501 1.429 . S
C485 H507 0.950 . S
C486 H482 0.949 . S
C486 C494 1.574 . S
C486 C502 1.368 . S
H487 C495 0.950 . S
H488 C493 0.950 . S
H489 C494 0.949 . S
H490 C496 0.950 . S
H491 C497 0.950 . S
H492 C498 0.949 . S
C493 H488 0.950 . S
C493 C495 1.327 . S
C493 C499 1.429 . S
C494 C486 1.574 . S
C494 H489 0.949 . S
C494 C500 1.368 . S
C495 C479 1.349 1_455 S
C495 H487 0.950 . S
C495 C493 1.327 . S
C496 C484 1.349 . S
C496 H490 0.950 . S
C496 C497 1.327 . S
C497 H491 0.950 . S
C497 C496 1.327 . S
C497 C501 1.429 . S
C498 C481 1.574 . S
C498 H492 0.949 . S
C498 C502 1.368 . S
C499 C480 1.429 . S
C499 C493 1.429 . S
C499 C500 1.523 . S
C500 C481 1.368 . S
C500 C494 1.368 . S
C500 C499 1.523 . S
C501 C485 1.429 . S
C501 C497 1.429 . S
C501 C502 1.523 . S
C502 C486 1.368 . S
C502 C498 1.368 . S
C502 C501 1.523 . S
H503 C478 0.950 . S
H504 C480 0.950 . S
H505 C481 0.949 . S
H506 C483 0.950 . S
H507 C485 0.950 . S
C508 C509 1.349 . S
C508 C510 1.327 . S
C508 H533 0.950 . S
C509 C508 1.349 . S
C509 C525 1.349 . S
C510 C508 1.327 . S
C510 C529 1.429 . S
C510 H534 0.950 . S
C511 C528 1.574 . S
C511 C530 1.368 . S
C511 H535 0.949 . S
H512 C516 0.949 . S
C513 C514 1.349 . S
C513 C515 1.327 . S
C513 H536 0.950 . S
C514 C513 1.349 . S
C514 C526 1.349 . S
C515 C513 1.327 . S
C515 C531 1.429 . S
C515 H537 0.950 . S
C516 H512 0.949 . S
C516 C524 1.574 . S
C516 C532 1.368 . S
H517 C525 0.950 . S
H518 C523 0.950 . S
H519 C524 0.949 . S
H520 C526 0.950 . S
H521 C527 0.950 . S
H522 C528 0.949 . S
C523 H518 0.950 . S
C523 C525 1.327 . S
C523 C529 1.429 . S
C524 C516 1.574 . S
C524 H519 0.949 . S
C524 C530 1.368 . S
C525 C509 1.349 . S
C525 H517 0.950 . S
C525 C523 1.327 . S
C526 C514 1.349 . S
C526 H520 0.950 . S
C526 C527 1.327 . S
C527 H521 0.950 . S
C527 C526 1.327 . S
C527 C531 1.429 . S
C528 C511 1.574 . S
C528 H522 0.949 . S
C528 C532 1.368 . S
C529 C510 1.429 . S
C529 C523 1.429 . S
C529 C530 1.523 . S
C530 C511 1.368 . S
C530 C524 1.368 . S
C530 C529 1.523 . S
C531 C515 1.429 . S
C531 C527 1.429 . S
C531 C532 1.523 . S
C532 C516 1.368 . S
C532 C528 1.368 . S
C532 C531 1.523 . S
H533 C508 0.950 . S
H534 C510 0.950 . S
H535 C511 0.949 . S
H536 C513 0.950 . S
H537 C515 0.950 . S
C538 C539 1.349 . S
C538 C540 1.327 . S
C538 H563 0.950 . S
C539 C538 1.349 . S
C539 C555 1.349 . S
C540 C538 1.327 . S
C540 C559 1.429 . S
C540 H564 0.950 . S
C541 C558 1.574 . S
C541 C560 1.368 . S
C541 H565 0.949 . S
H542 C546 0.949 . S
C543 C544 1.349 . S
C543 C545 1.327 . S
C543 H566 0.950 . S
C544 C543 1.349 . S
C544 C556 1.349 . S
C545 C543 1.327 . S
C545 C561 1.429 . S
C545 H567 0.950 . S
C546 H542 0.949 . S
C546 C554 1.574 . S
C546 C562 1.368 . S
H547 C555 0.950 . S
H548 C553 0.950 . S
H549 C554 0.949 . S
H550 C556 0.950 . S
H551 C557 0.950 . S
H552 C558 0.949 . S
C553 H548 0.950 . S
C553 C555 1.327 . S
C553 C559 1.429 . S
C554 C546 1.574 . S
C554 H549 0.949 . S
C554 C560 1.368 . S
C555 C539 1.349 . S
C555 H547 0.950 . S
C555 C553 1.327 . S
C556 C544 1.349 . S
C556 H550 0.950 . S
C556 C557 1.327 . S
C557 H551 0.950 . S
C557 C556 1.327 . S
C557 C561 1.429 . S
C558 C541 1.574 . S
C558 H552 0.949 . S
C558 C562 1.368 . S
C559 C540 1.429 . S
C559 C553 1.429 . S
C559 C560 1.523 . S
C560 C541 1.368 . S
C560 C554 1.368 . S
C560 C559 1.523 . S
C561 C545 1.429 . S
C561 C557 1.429 . S
C561 C562 1.523 . S
C562 C546 1.368 . S
C562 C558 1.368 . S
C562 C561 1.523 . S
H563 C538 0.950 . S
H564 C540 0.950 . S
H565 C541 0.949 . S
H566 C543 0.950 . S
H567 C545 0.950 . S
C568 C569 1.349 . S
C568 C570 1.327 . S
C568 H593 0.950 . S
C569 C568 1.349 . S
C569 C585 1.349 . S
C570 C568 1.327 . S
C570 C589 1.429 . S
C570 H594 0.950 . S
C571 C588 1.574 . S
C571 C590 1.368 . S
C571 H595 0.949 . S
H572 C576 0.949 . S
C573 C574 1.349 . S
C573 C575 1.327 . S
C573 H596 0.950 . S
C574 C573 1.349 . S
C574 C586 1.349 . S
C575 C573 1.327 . S
C575 C591 1.429 . S
C575 H597 0.950 . S
C576 H572 0.949 . S
C576 C584 1.574 . S
C576 C592 1.368 . S
H577 C585 0.950 . S
H578 C583 0.950 . S
H579 C584 0.949 . S
H580 C586 0.950 . S
H581 C587 0.950 . S
H582 C588 0.949 . S
C583 H578 0.950 . S
C583 C585 1.327 . S
C583 C589 1.429 . S
C584 C576 1.574 . S
C584 H579 0.949 . S
C584 C590 1.368 . S
C585 C569 1.349 . S
C585 H577 0.950 . S
C585 C583 1.327 . S
C586 C574 1.349 . S
C586 H580 0.950 . S
C586 C587 1.327 . S
C587 H581 0.950 . S
C587 C586 1.327 . S
C587 C591 1.429 . S
C588 C571 1.574 . S
C588 H582 0.949 . S
C588 C592 1.368 . S
C589 C570 1.429 . S
C589 C583 1.429 . S
C589 C590 1.523 . S
C590 C571 1.368 . S
C590 C584 1.368 . S
C590 C589 1.523 . S
C591 C575 1.429 . S
C591 C587 1.429 . S
C591 C592 1.523 . S
C592 C576 1.368 . S
C592 C588 1.368 . S
C592 C591 1.523 . S
H593 C568 0.950 . S
H594 C570 0.950 . S
H595 C571 0.949 . S
H596 C573 0.950 . S
H597 C575 0.950 . S
C598 C599 1.349 . S
C598 C600 1.327 . S
C598 H623 0.950 . S
C599 C598 1.349 . S
C599 C615 1.349 . S
C600 C598 1.327 . S
C600 C619 1.429 . S
C600 H624 0.950 . S
C601 C618 1.574 . S
C601 C620 1.368 . S
C601 H625 0.949 . S
H602 C606 0.949 . S
C603 C604 1.349 . S
C603 C605 1.327 . S
C603 H626 0.950 . S
C604 C603 1.349 . S
C604 C616 1.349 . S
C605 C603 1.327 . S
C605 C621 1.429 . S
C605 H627 0.950 . S
C606 H602 0.949 . S
C606 C614 1.574 . S
C606 C622 1.368 . S
H607 C615 0.950 . S
H608 C613 0.950 . S
H609 C614 0.949 . S
H610 C616 0.950 . S
H611 C617 0.950 . S
H612 C618 0.949 . S
C613 H608 0.950 . S
C613 C615 1.327 . S
C613 C619 1.429 . S
C614 C606 1.574 . S
C614 H609 0.949 . S
C614 C620 1.368 . S
C615 C599 1.349 . S
C615 H607 0.950 . S
C615 C613 1.327 . S
C616 C604 1.349 . S
C616 H610 0.950 . S
C616 C617 1.327 . S
C617 H611 0.950 . S
C617 C616 1.327 . S
C617 C621 1.429 . S
C618 C601 1.574 . S
C618 H612 0.949 . S
C618 C622 1.368 . S
C619 C600 1.429 . S
C619 C613 1.429 . S
C619 C620 1.523 . S
C620 C601 1.368 . S
C620 C614 1.368 . S
C620 C619 1.523 . S
C621 C605 1.429 . S
C621 C617 1.429 . S
C621 C622 1.523 . S
C622 C606 1.368 . S
C622 C618 1.368 . S
C622 C621 1.523 . S
H623 C598 0.950 . S
H624 C600 0.950 . S
H625 C601 0.949 . S
H626 C603 0.950 . S
H627 C605 0.950 . S
C628 C629 1.349 . S
C628 C630 1.327 . S
C628 H653 0.950 . S
C629 C628 1.349 . S
C629 C645 1.349 . S
C630 C628 1.327 . S
C630 C649 1.429 . S
C630 H654 0.950 . S
C631 C648 1.574 . S
C631 C650 1.368 . S
C631 H655 0.949 . S
H632 C636 0.949 . S
C633 C634 1.349 . S
C633 C635 1.327 . S
C633 H656 0.950 . S
C634 C633 1.349 . S
C634 C646 1.349 . S
C635 C633 1.327 . S
C635 C651 1.429 . S
C635 H657 0.950 . S
C636 H632 0.949 . S
C636 C644 1.574 . S
C636 C652 1.368 . S
H637 C645 0.950 . S
H638 C643 0.950 . S
H639 C644 0.949 . S
H640 C646 0.950 . S
H641 C647 0.950 . S
H642 C648 0.949 . S
C643 H638 0.950 . S
C643 C645 1.327 . S
C643 C649 1.429 . S
C644 C636 1.574 . S
C644 H639 0.949 . S
C644 C650 1.368 . S
C645 C629 1.349 . S
C645 H637 0.950 . S
C645 C643 1.327 . S
C646 C634 1.349 . S
C646 H640 0.950 . S
C646 C647 1.327 . S
C647 H641 0.950 . S
C647 C646 1.327 . S
C647 C651 1.429 . S
C648 C631 1.574 . S
C648 H642 0.949 . S
C648 C652 1.368 . S
C649 C630 1.429 . S
C649 C643 1.429 . S
C649 C650 1.523 . S
C650 C631 1.368 . S
C650 C644 1.368 . S
C650 C649 1.523 . S
C651 C635 1.429 . S
C651 C647 1.429 . S
C651 C652 1.523 . S
C652 C636 1.368 . S
C652 C648 1.368 . S
C652 C651 1.523 . S
H653 C628 0.950 . S
H654 C630 0.950 . S
H655 C631 0.949 . S
H656 C633 0.950 . S
H657 C635 0.950 . S
C658 C659 1.349 . S
C658 C660 1.327 . S
C658 H683 0.950 . S
C659 C658 1.349 . S
C659 C675 1.349 . S
C660 C658 1.327 . S
C660 C679 1.429 . S
C660 H684 0.950 . S
C661 C678 1.574 . S
C661 C680 1.368 . S
C661 H685 0.949 . S
H662 C666 0.949 . S
C663 C664 1.349 1_455 S
C663 C665 1.327 . S
C663 H686 0.950 . S
C664 C663 1.349 1_655 S
C664 C676 1.349 . S
C665 C663 1.327 . S
C665 C681 1.429 . S
C665 H687 0.950 . S
C666 H662 0.949 . S
C666 C674 1.574 . S
C666 C682 1.368 . S
H667 C675 0.950 . S
H668 C673 0.950 . S
H669 C674 0.949 . S
H670 C676 0.950 . S
H671 C677 0.950 . S
H672 C678 0.949 . S
C673 H668 0.950 . S
C673 C675 1.327 . S
C673 C679 1.429 . S
C674 C666 1.574 . S
C674 H669 0.949 . S
C674 C680 1.368 . S
C675 C659 1.349 . S
C675 H667 0.950 . S
C675 C673 1.327 . S
C676 C664 1.349 . S
C676 H670 0.950 . S
C676 C677 1.327 1_655 S
C677 H671 0.950 . S
C677 C676 1.327 1_455 S
C677 C681 1.429 . S
C678 C661 1.574 . S
C678 H672 0.949 . S
C678 C682 1.368 . S
C679 C660 1.429 . S
C679 C673 1.429 . S
C679 C680 1.523 . S
C680 C661 1.368 . S
C680 C674 1.368 . S
C680 C679 1.523 . S
C681 C665 1.429 . S
C681 C677 1.429 . S
C681 C682 1.523 . S
C682 C666 1.368 . S
C682 C678 1.368 . S
C682 C681 1.523 . S
H683 C658 0.950 . S
H684 C660 0.950 . S
H685 C661 0.949 . S
H686 C663 0.950 . S
H687 C665 0.950 . S
C688 C689 1.349 . S
C688 C690 1.327 . S
C688 H713 0.950 . S
C689 C688 1.349 . S
C689 C705 1.349 . S
C690 C688 1.327 . S
C690 C709 1.429 . S
C690 H714 0.950 . S
C691 C708 1.574 . S
C691 C710 1.368 . S
C691 H715 0.949 . S
H692 C696 0.949 . S
C693 C694 1.349 . S
C693 C695 1.327 . S
C693 H716 0.950 . S
C694 C693 1.349 . S
C694 C706 1.349 . S
C695 C693 1.327 . S
C695 C711 1.429 . S
C695 H717 0.950 . S
C696 H692 0.949 . S
C696 C704 1.574 . S
C696 C712 1.368 . S
H697 C705 0.950 . S
H698 C703 0.950 . S
H699 C704 0.949 . S
H700 C706 0.950 . S
H701 C707 0.950 . S
H702 C708 0.949 . S
C703 H698 0.950 . S
C703 C705 1.327 . S
C703 C709 1.429 . S
C704 C696 1.574 . S
C704 H699 0.949 . S
C704 C710 1.368 . S
C705 C689 1.349 . S
C705 H697 0.950 . S
C705 C703 1.327 . S
C706 C694 1.349 . S
C706 H700 0.950 . S
C706 C707 1.327 . S
C707 H701 0.950 . S
C707 C706 1.327 . S
C707 C711 1.429 . S
C708 C691 1.574 . S
C708 H702 0.949 . S
C708 C712 1.368 . S
C709 C690 1.429 . S
C709 C703 1.429 . S
C709 C710 1.523 . S
C710 C691 1.368 . S
C710 C704 1.368 . S
C710 C709 1.523 . S
C711 C695 1.429 . S
C711 C707 1.429 . S
C711 C712 1.523 . S
C712 C696 1.368 . S
C712 C708 1.368 . S
C712 C711 1.523 . S
H713 C688 0.950 . S
H714 C690 0.950 . S
H715 C691 0.949 . S
H716 C693 0.950 . S
H717 C695 0.950 . S
C718 C719 1.349 1_655 S
C718 C720 1.327 . S
C718 H743 0.950 . S
C719 C718 1.349 1_455 S
C719 C735 1.349 . S
C720 C718 1.327 . S
C720 C739 1.429 . S
C720 H744 0.950 . S
C721 C738 1.574 . S
C721 C740 1.368 . S
C721 H745 0.949 . S
H722 C726 0.949 . S
C723 C724 1.349 . S
C723 C725 1.327 . S
C723 H746 0.950 . S
C724 C723 1.349 . S
C724 C736 1.349 . S
C725 C723 1.327 . S
C725 C741 1.429 . S
C725 H747 0.950 . S
C726 H722 0.949 . S
C726 C734 1.574 . S
C726 C742 1.368 . S
H727 C735 0.950 . S
H728 C733 0.950 . S
H729 C734 0.949 . S
H730 C736 0.950 . S
H731 C737 0.950 . S
H732 C738 0.949 . S
C733 H728 0.950 . S
C733 C735 1.327 1_655 S
C733 C739 1.429 . S
C734 C726 1.574 . S
C734 H729 0.949 . S
C734 C740 1.368 . S
C735 C719 1.349 . S
C735 H727 0.950 . S
C735 C733 1.327 1_455 S
C736 C724 1.349 . S
C736 H730 0.950 . S
C736 C737 1.327 . S
C737 H731 0.950 . S
C737 C736 1.327 . S
C737 C741 1.429 . S
C738 C721 1.574 . S
C738 H732 0.949 . S
C738 C742 1.368 . S
C739 C720 1.429 . S
C739 C733 1.429 . S
C739 C740 1.523 . S
C740 C721 1.368 . S
C740 C734 1.368 . S
C740 C739 1.523 . S
C741 C725 1.429 . S
C741 C737 1.429 . S
C741 C742 1.523 . S
C742 C726 1.368 . S
C742 C738 1.368 . S
C742 C741 1.523 . S
H743 C718 0.950 . S
H744 C720 0.950 . S
H745 C721 0.949 . S
H746 C723 0.950 . S
H747 C725 0.950 . S
C748 C749 1.349 . S
C748 C750 1.327 . S
C748 H773 0.950 . S
C749 C748 1.349 . S
C749 C765 1.349 . S
C750 C748 1.327 . S
C750 C769 1.429 . S
C750 H774 0.950 . S
C751 C768 1.574 . S
C751 C770 1.368 . S
C751 H775 0.949 . S
H752 C756 0.949 . S
C753 C754 1.349 . S
C753 C755 1.327 . S
C753 H776 0.950 . S
C754 C753 1.349 . S
C754 C766 1.349 . S
C755 C753 1.327 . S
C755 C771 1.429 . S
C755 H777 0.950 . S
C756 H752 0.949 . S
C756 C764 1.574 . S
C756 C772 1.368 . S
H757 C765 0.950 . S
H758 C763 0.950 . S
H759 C764 0.949 . S
H760 C766 0.950 . S
H761 C767 0.950 . S
H762 C768 0.949 . S
C763 H758 0.950 . S
C763 C765 1.327 . S
C763 C769 1.429 . S
C764 C756 1.574 . S
C764 H759 0.949 . S
C764 C770 1.368 . S
C765 C749 1.349 . S
C765 H757 0.950 . S
C765 C763 1.327 . S
C766 C754 1.349 . S
C766 H760 0.950 . S
C766 C767 1.327 . S
C767 H761 0.950 . S
C767 C766 1.327 . S
C767 C771 1.429 . S
C768 C751 1.574 . S
C768 H762 0.949 . S
C768 C772 1.368 . S
C769 C750 1.429 . S
C769 C763 1.429 . S
C769 C770 1.523 . S
C770 C751 1.368 . S
C770 C764 1.368 . S
C770 C769 1.523 . S
C771 C755 1.429 . S
C771 C767 1.429 . S
C771 C772 1.523 . S
C772 C756 1.368 . S
C772 C768 1.368 . S
C772 C771 1.523 . S
H773 C748 0.950 . S
H774 C750 0.950 . S
H775 C751 0.949 . S
H776 C753 0.950 . S
H777 C755 0.950 . S
C778 C779 1.349 . S
C778 C780 1.327 . S
C778 H803 0.950 . S
C779 C778 1.349 . S
C779 C795 1.349 . S
C780 C778 1.327 . S
C780 C799 1.429 . S
C780 H804 0.950 . S
C781 C798 1.574 . S
C781 C800 1.368 . S
C781 H805 0.949 . S
H782 C786 0.949 . S
C783 C784 1.349 . S
C783 C785 1.327 . S
C783 H806 0.950 . S
C784 C783 1.349 . S
C784 C796 1.349 . S
C785 C783 1.327 . S
C785 C801 1.429 . S
C785 H807 0.950 . S
C786 H782 0.949 . S
C786 C794 1.574 . S
C786 C802 1.368 . S
H787 C795 0.950 . S
H788 C793 0.950 . S
H789 C794 0.949 . S
H790 C796 0.950 . S
H791 C797 0.950 . S
H792 C798 0.949 . S
C793 H788 0.950 . S
C793 C795 1.327 . S
C793 C799 1.429 . S
C794 C786 1.574 . S
C794 H789 0.949 . S
C794 C800 1.368 . S
C795 C779 1.349 . S
C795 H787 0.950 . S
C795 C793 1.327 . S
C796 C784 1.349 . S
C796 H790 0.950 . S
C796 C797 1.327 . S
C797 H791 0.950 . S
C797 C796 1.327 . S
C797 C801 1.429 . S
C798 C781 1.574 . S
C798 H792 0.949 . S
C798 C802 1.368 . S
C799 C780 1.429 . S
C799 C793 1.429 . S
C799 C800 1.523 . S
C800 C781 1.368 . S
C800 C794 1.368 . S
C800 C799 1.523 . S
C801 C785 1.429 . S
C801 C797 1.429 . S
C801 C802 1.523 . S
C802 C786 1.368 . S
C802 C798 1.368 . S
C802 C801 1.523 . S
H803 C778 0.950 . S
H804 C780 0.950 . S
H805 C781 0.949 . S
H806 C783 0.950 . S
H807 C785 0.950 . S
C808 C809 1.349 . S
C808 C810 1.327 . S
C808 H833 0.950 . S
C809 C808 1.349 . S
C809 C825 1.349 . S
C810 C808 1.327 . S
C810 C829 1.429 . S
C810 H834 0.950 . S
C811 C828 1.574 . S
C811 C830 1.368 . S
C811 H835 0.949 . S
H812 C816 0.949 . S
C813 C814 1.349 . S
C813 C815 1.327 . S
C813 H836 0.950 . S
C814 C813 1.349 . S
C814 C826 1.349 . S
C815 C813 1.327 . S
C815 C831 1.429 . S
C815 H837 0.950 . S
C816 H812 0.949 . S
C816 C824 1.574 . S
C816 C832 1.368 . S
H817 C825 0.950 . S
H818 C823 0.950 . S
H819 C824 0.949 . S
H820 C826 0.950 . S
H821 C827 0.950 . S
H822 C828 0.949 . S
C823 H818 0.950 . S
C823 C825 1.327 . S
C823 C829 1.429 . S
C824 C816 1.574 . S
C824 H819 0.949 . S
C824 C830 1.368 . S
C825 C809 1.349 . S
C825 H817 0.950 . S
C825 C823 1.327 . S
C826 C814 1.349 . S
C826 H820 0.950 . S
C826 C827 1.327 . S
C827 H821 0.950 . S
C827 C826 1.327 . S
C827 C831 1.429 . S
C828 C811 1.574 . S
C828 H822 0.949 . S
C828 C832 1.368 . S
C829 C810 1.429 . S
C829 C823 1.429 . S
C829 C830 1.523 . S
C830 C811 1.368 . S
C830 C824 1.368 . S
C830 C829 1.523 . S
C831 C815 1.429 . S
C831 C827 1.429 . S
C831 C832 1.523 . S
C832 C816 1.368 . S
C832 C828 1.368 . S
C832 C831 1.523 . S
H833 C808 0.950 . S
H834 C810 0.950 . S
H835 C811 0.949 . S
H836 C813 0.950 . S
H837 C815 0.950 . S
C838 C839 1.349 . S
C838 C840 1.327 . S
C838 H863 0.950 . S
C839 C838 1.349 . S
C839 C855 1.349 . S
C840 C838 1.327 . S
C840 C859 1.429 . S
C840 H864 0.950 . S
C841 C858 1.574 . S
C841 C860 1.368 . S
C841 H865 0.949 . S
H842 C846 0.949 . S
C843 C844 1.349 . S
C843 C845 1.327 . S
C843 H866 0.950 . S
C844 C843 1.349 . S
C844 C856 1.349 . S
C845 C843 1.327 . S
C845 C861 1.429 . S
C845 H867 0.950 . S
C846 H842 0.949 . S
C846 C854 1.574 . S
C846 C862 1.368 . S
H847 C855 0.950 . S
H848 C853 0.950 . S
H849 C854 0.949 . S
H850 C856 0.950 . S
H851 C857 0.950 . S
H852 C858 0.949 . S
C853 H848 0.950 . S
C853 C855 1.327 . S
C853 C859 1.429 . S
C854 C846 1.574 . S
C854 H849 0.949 . S
C854 C860 1.368 . S
C855 C839 1.349 . S
C855 H847 0.950 . S
C855 C853 1.327 . S
C856 C844 1.349 . S
C856 H850 0.950 . S
C856 C857 1.327 . S
C857 H851 0.950 . S
C857 C856 1.327 . S
C857 C861 1.429 . S
C858 C841 1.574 . S
C858 H852 0.949 . S
C858 C862 1.368 . S
C859 C840 1.429 . S
C859 C853 1.429 . S
C859 C860 1.523 . S
C860 C841 1.368 . S
C860 C854 1.368 . S
C860 C859 1.523 . S
C861 C845 1.429 . S
C861 C857 1.429 . S
C861 C862 1.523 . S
C862 C846 1.368 . S
C862 C858 1.368 . S
C862 C861 1.523 . S
H863 C838 0.950 . S
H864 C840 0.950 . S
H865 C841 0.949 . S
H866 C843 0.950 . S
H867 C845 0.950 . S
C868 C869 1.349 . S
C868 C870 1.327 . S
C868 H893 0.950 . S
C869 C868 1.349 . S
C869 C885 1.349 . S
C870 C868 1.327 . S
C870 C889 1.429 . S
C870 H894 0.950 . S
C871 C888 1.574 . S
C871 C890 1.368 . S
C871 H895 0.949 . S
H872 C876 0.949 . S
C873 C874 1.349 . S
C873 C875 1.327 . S
C873 H896 0.950 . S
C874 C873 1.349 . S
C874 C886 1.349 . S
C875 C873 1.327 . S
C875 C891 1.429 . S
C875 H897 0.950 . S
C876 H872 0.949 . S
C876 C884 1.574 . S
C876 C892 1.368 . S
H877 C885 0.950 . S
H878 C883 0.950 . S
H879 C884 0.949 . S
H880 C886 0.950 . S
H881 C887 0.950 . S
H882 C888 0.949 . S
C883 H878 0.950 . S
C883 C885 1.327 . S
C883 C889 1.429 . S
C884 C876 1.574 . S
C884 H879 0.949 . S
C884 C890 1.368 . S
C885 C869 1.349 . S
C885 H877 0.950 . S
C885 C883 1.327 . S
C886 C874 1.349 . S
C886 H880 0.950 . S
C886 C887 1.327 . S
C887 H881 0.950 . S
C887 C886 1.327 . S
C887 C891 1.429 . S
C888 C871 1.574 . S
C888 H882 0.949 . S
C888 C892 1.368 . S
C889 C870 1.429 . S
C889 C883 1.429 . S
C889 C890 1.523 . S
C890 C871 1.368 . S
C890 C884 1.368 . S
C890 C889 1.523 . S
C891 C875 1.429 . S
C891 C887 1.429 . S
C891 C892 1.523 . S
C892 C876 1.368 . S
C892 C888 1.368 . S
C892 C891 1.523 . S
H893 C868 0.950 . S
H894 C870 0.950 . S
H895 C871 0.949 . S
H896 C873 0.950 . S
H897 C875 0.950 . S
C898 C899 1.349 . S
C898 C900 1.327 . S
C898 H923 0.950 . S
C899 C898 1.349 . S
C899 C915 1.349 . S
C900 C898 1.327 . S
C900 C919 1.429 . S
C900 H924 0.950 . S
C901 C918 1.574 . S
C901 C920 1.368 . S
C901 H925 0.949 . S
H902 C906 0.949 . S
C903 C904 1.349 1_655 S
C903 C905 1.327 . S
C903 H926 0.950 . S
C904 C903 1.349 1_455 S
C904 C916 1.349 . S
C905 C903 1.327 . S
C905 C921 1.429 . S
C905 H927 0.950 . S
C906 H902 0.949 . S
C906 C914 1.574 . S
C906 C922 1.368 . S
H907 C915 0.950 . S
H908 C913 0.950 . S
H909 C914 0.949 . S
H910 C916 0.950 . S
H911 C917 0.950 . S
H912 C918 0.949 . S
C913 H908 0.950 . S
C913 C915 1.327 . S
C913 C919 1.429 . S
C914 C906 1.574 . S
C914 H909 0.949 . S
C914 C920 1.368 . S
C915 C899 1.349 . S
C915 H907 0.950 . S
C915 C913 1.327 . S
C916 C904 1.349 . S
C916 H910 0.950 . S
C916 C917 1.327 1_455 S
C917 H911 0.950 . S
C917 C916 1.327 1_655 S
C917 C921 1.429 . S
C918 C901 1.574 . S
C918 H912 0.949 . S
C918 C922 1.368 . S
C919 C900 1.429 . S
C919 C913 1.429 . S
C919 C920 1.523 . S
C920 C901 1.368 . S
C920 C914 1.368 . S
C920 C919 1.523 . S
C921 C905 1.429 . S
C921 C917 1.429 . S
C921 C922 1.523 . S
C922 C906 1.368 . S
C922 C918 1.368 . S
C922 C921 1.523 . S
H923 C898 0.950 . S
H924 C900 0.950 . S
H925 C901 0.949 . S
H926 C903 0.950 . S
H927 C905 0.950 . S
C928 C929 1.349 . S
C928 C930 1.327 . S
C928 H953 0.950 . S
C929 C928 1.349 . S
C929 C945 1.349 . S
C930 C928 1.327 . S
C930 C949 1.429 . S
C930 H954 0.950 . S
C931 C948 1.574 . S
C931 C950 1.368 . S
C931 H955 0.949 . S
H932 C936 0.949 . S
C933 C934 1.349 . S
C933 C935 1.327 . S
C933 H956 0.950 . S
C934 C933 1.349 . S
C934 C946 1.349 . S
C935 C933 1.327 . S
C935 C951 1.429 . S
C935 H957 0.950 . S
C936 H932 0.949 . S
C936 C944 1.574 . S
C936 C952 1.368 . S
H937 C945 0.950 . S
H938 C943 0.950 . S
H939 C944 0.949 . S
H940 C946 0.950 . S
H941 C947 0.950 . S
H942 C948 0.949 . S
C943 H938 0.950 . S
C943 C945 1.327 . S
C943 C949 1.429 . S
C944 C936 1.574 . S
C944 H939 0.949 . S
C944 C950 1.368 . S
C945 C929 1.349 . S
C945 H937 0.950 . S
C945 C943 1.327 . S
C946 C934 1.349 . S
C946 H940 0.950 . S
C946 C947 1.327 . S
C947 H941 0.950 . S
C947 C946 1.327 . S
C947 C951 1.429 . S
C948 C931 1.574 . S
C948 H942 0.949 . S
C948 C952 1.368 . S
C949 C930 1.429 . S
C949 C943 1.429 . S
C949 C950 1.523 . S
C950 C931 1.368 . S
C950 C944 1.368 . S
C950 C949 1.523 . S
C951 C935 1.429 . S
C951 C947 1.429 . S
C951 C952 1.523 . S
C952 C936 1.368 . S
C952 C948 1.368 . S
C952 C951 1.523 . S
H953 C928 0.950 . S
H954 C930 0.950 . S
H955 C931 0.949 . S
H956 C933 0.950 . S
H957 C935 0.950 . S
C958 C959 1.349 . S
C958 C960 1.327 . S
C958 H983 0.950 . S
C959 C958 1.349 . S
C959 C975 1.349 . S
C960 C958 1.327 . S
C960 C979 1.429 . S
C960 H984 0.950 . S
C961 C978 1.574 . S
C961 C980 1.368 . S
C961 H985 0.949 . S
H962 C966 0.949 . S
C963 C964 1.349 . S
C963 C965 1.327 . S
C963 H986 0.950 . S
C964 C963 1.349 . S
C964 C976 1.349 . S
C965 C963 1.327 . S
C965 C981 1.429 . S
C965 H987 0.950 . S
C966 H962 0.949 . S
C966 C974 1.574 . S
C966 C982 1.368 . S
H967 C975 0.950 . S
H968 C973 0.950 . S
H969 C974 0.949 . S
H970 C976 0.950 . S
H971 C977 0.950 . S
H972 C978 0.949 . S
C973 H968 0.950 . S
C973 C975 1.327 . S
C973 C979 1.429 . S
C974 C966 1.574 . S
C974 H969 0.949 . S
C974 C980 1.368 . S
C975 C959 1.349 . S
C975 H967 0.950 . S
C975 C973 1.327 . S
C976 C964 1.349 . S
C976 H970 0.950 . S
C976 C977 1.327 . S
C977 H971 0.950 . S
C977 C976 1.327 . S
C977 C981 1.429 . S
C978 C961 1.574 . S
C978 H972 0.949 . S
C978 C982 1.368 . S
C979 C960 1.429 . S
C979 C973 1.429 . S
C979 C980 1.523 . S
C980 C961 1.368 . S
C980 C974 1.368 . S
C980 C979 1.523 . S
C981 C965 1.429 . S
C981 C977 1.429 . S
C981 C982 1.523 . S
C982 C966 1.368 . S
C982 C978 1.368 . S
C982 C981 1.523 . S
H983 C958 0.950 . S
H984 C960 0.950 . S
H985 C961 0.949 . S
H986 C963 0.950 . S
H987 C965 0.950 . S
C988 C989 1.349 . S
C988 C990 1.327 . S
C988 H1013 0.950 . S
C989 C988 1.349 . S
C989 C1005 1.349 . S
C990 C988 1.327 . S
C990 C1009 1.429 . S
C990 H1014 0.950 . S
C991 C1008 1.574 . S
C991 C1010 1.368 . S
C991 H1015 0.949 . S
H992 C996 0.949 . S
C993 C994 1.349 . S
C993 C995 1.327 . S
C993 H1016 0.950 . S
C994 C993 1.349 . S
C994 C1006 1.349 . S
C995 C993 1.327 . S
C995 C1011 1.429 . S
C995 H1017 0.950 . S
C996 H992 0.949 . S
C996 C1004 1.574 . S
C996 C1012 1.368 . S
H997 C1005 0.950 . S
H998 C1003 0.950 . S
H999 C1004 0.949 . S
H1000 C1006 0.950 . S
H1001 C1007 0.950 . S
H1002 C1008 0.949 . S
C1003 H998 0.950 . S
C1003 C1005 1.327 . S
C1003 C1009 1.429 . S
C1004 C996 1.574 . S
C1004 H999 0.949 . S
C1004 C1010 1.368 . S
C1005 C989 1.349 . S
C1005 H997 0.950 . S
C1005 C1003 1.327 . S
C1006 C994 1.349 . S
C1006 H1000 0.950 . S
C1006 C1007 1.327 . S
C1007 H1001 0.950 . S
C1007 C1006 1.327 . S
C1007 C1011 1.429 . S
C1008 C991 1.574 . S
C1008 H1002 0.949 . S
C1008 C1012 1.368 . S
C1009 C990 1.429 . S
C1009 C1003 1.429 . S
C1009 C1010 1.523 . S
C1010 C991 1.368 . S
C1010 C1004 1.368 . S
C1010 C1009 1.523 . S
C1011 C995 1.429 . S
C1011 C1007 1.429 . S
C1011 C1012 1.523 . S
C1012 C996 1.368 . S
C1012 C1008 1.368 . S
C1012 C1011 1.523 . S
H1013 C988 0.950 . S
H1014 C990 0.950 . S
H1015 C991 0.949 . S
H1016 C993 0.950 . S
H1017 C995 0.950 . S
C1018 C1019 1.349 . S
C1018 C1020 1.327 . S
C1018 H1043 0.950 . S
C1019 C1018 1.349 . S
C1019 C1035 1.349 . S
C1020 C1018 1.327 . S
C1020 C1039 1.429 . S
C1020 H1044 0.950 . S
C1021 C1038 1.574 . S
C1021 C1040 1.368 . S
C1021 H1045 0.949 . S
H1022 C1026 0.949 . S
C1023 C1024 1.349 1_655 S
C1023 C1025 1.327 . S
C1023 H1046 0.950 . S
C1024 C1023 1.349 1_455 S
C1024 C1036 1.349 . S
C1025 C1023 1.327 . S
C1025 C1041 1.429 . S
C1025 H1047 0.950 . S
C1026 H1022 0.949 . S
C1026 C1034 1.574 . S
C1026 C1042 1.368 . S
H1027 C1035 0.950 . S
H1028 C1033 0.950 . S
H1029 C1034 0.949 . S
H1030 C1036 0.950 . S
H1031 C1037 0.950 . S
H1032 C1038 0.949 . S
C1033 H1028 0.950 . S
C1033 C1035 1.327 . S
C1033 C1039 1.429 . S
C1034 C1026 1.574 . S
C1034 H1029 0.949 . S
C1034 C1040 1.368 . S
C1035 C1019 1.349 . S
C1035 H1027 0.950 . S
C1035 C1033 1.327 . S
C1036 C1024 1.349 . S
C1036 H1030 0.950 . S
C1036 C1037 1.327 1_455 S
C1037 H1031 0.950 . S
C1037 C1036 1.327 1_655 S
C1037 C1041 1.429 . S
C1038 C1021 1.574 . S
C1038 H1032 0.949 . S
C1038 C1042 1.368 . S
C1039 C1020 1.429 . S
C1039 C1033 1.429 . S
C1039 C1040 1.523 . S
C1040 C1021 1.368 . S
C1040 C1034 1.368 . S
C1040 C1039 1.523 . S
C1041 C1025 1.429 . S
C1041 C1037 1.429 . S
C1041 C1042 1.523 . S
C1042 C1026 1.368 . S
C1042 C1038 1.368 . S
C1042 C1041 1.523 . S
H1043 C1018 0.950 . S
H1044 C1020 0.950 . S
H1045 C1021 0.949 . S
H1046 C1023 0.950 . S
H1047 C1025 0.950 . S
C1048 C1049 1.349 . S
C1048 C1050 1.327 . S
C1048 H1073 0.950 . S
C1049 C1048 1.349 . S
C1049 C1065 1.349 . S
C1050 C1048 1.327 . S
C1050 C1069 1.429 . S
C1050 H1074 0.950 . S
C1051 C1068 1.574 . S
C1051 C1070 1.368 . S
C1051 H1075 0.949 . S
H1052 C1056 0.949 . S
C1053 C1054 1.349 . S
C1053 C1055 1.327 . S
C1053 H1076 0.950 . S
C1054 C1053 1.349 . S
C1054 C1066 1.349 . S
C1055 C1053 1.327 . S
C1055 C1071 1.429 . S
C1055 H1077 0.950 . S
C1056 H1052 0.949 . S
C1056 C1064 1.574 . S
C1056 C1072 1.368 . S
H1057 C1065 0.950 . S
H1058 C1063 0.950 . S
H1059 C1064 0.949 . S
H1060 C1066 0.950 . S
H1061 C1067 0.950 . S
H1062 C1068 0.949 . S
C1063 H1058 0.950 . S
C1063 C1065 1.327 . S
C1063 C1069 1.429 . S
C1064 C1056 1.574 . S
C1064 H1059 0.949 . S
C1064 C1070 1.368 . S
C1065 C1049 1.349 . S
C1065 H1057 0.950 . S
C1065 C1063 1.327 . S
C1066 C1054 1.349 . S
C1066 H1060 0.950 . S
C1066 C1067 1.327 . S
C1067 H1061 0.950 . S
C1067 C1066 1.327 . S
C1067 C1071 1.429 . S
C1068 C1051 1.574 . S
C1068 H1062 0.949 . S
C1068 C1072 1.368 . S
C1069 C1050 1.429 . S
C1069 C1063 1.429 . S
C1069 C1070 1.523 . S
C1070 C1051 1.368 . S
C1070 C1064 1.368 . S
C1070 C1069 1.523 . S
C1071 C1055 1.429 . S
C1071 C1067 1.429 . S
C1071 C1072 1.523 . S
C1072 C1056 1.368 . S
C1072 C1068 1.368 . S
C1072 C1071 1.523 . S
H1073 C1048 0.950 . S
H1074 C1050 0.950 . S
H1075 C1051 0.949 . S
H1076 C1053 0.950 . S
H1077 C1055 0.950 . S
C1078 C1079 1.349 1_655 S
C1078 C1080 1.327 . S
C1078 H1103 0.944 1_655 S
C1079 C1078 1.349 1_455 S
C1079 C1095 1.349 . S
C1080 C1078 1.327 . S
C1080 C1099 1.429 . S
C1080 H1104 0.950 . S
C1081 C1098 1.574 . S
C1081 C1100 1.368 . S
C1081 H1105 0.949 . S
H1082 C1086 0.949 . S
C1083 C1084 1.349 . S
C1083 C1085 1.327 . S
C1083 H1106 0.950 . S
C1084 C1083 1.349 . S
C1084 C1096 1.349 . S
C1085 C1083 1.327 . S
C1085 C1101 1.429 . S
C1085 H1107 0.950 . S
C1086 H1082 0.949 . S
C1086 C1094 1.574 . S
C1086 C1102 1.368 . S
H1087 C1095 0.950 . S
H1088 C1093 0.950 . S
H1089 C1094 0.949 . S
H1090 C1096 0.950 . S
H1091 C1097 0.950 . S
H1092 C1098 0.949 . S
C1093 H1088 0.950 . S
C1093 C1095 1.327 1_655 S
C1093 C1099 1.429 . S
C1094 C1086 1.574 . S
C1094 H1089 0.949 . S
C1094 C1100 1.368 . S
C1095 C1079 1.349 . S
C1095 H1087 0.950 . S
C1095 C1093 1.327 1_455 S
C1096 C1084 1.349 . S
C1096 H1090 0.950 . S
C1096 C1097 1.327 . S
C1097 H1091 0.950 . S
C1097 C1096 1.327 . S
C1097 C1101 1.429 . S
C1098 C1081 1.574 . S
C1098 H1092 0.949 . S
C1098 C1102 1.368 . S
C1099 C1080 1.429 . S
C1099 C1093 1.429 . S
C1099 C1100 1.523 . S
C1100 C1081 1.368 . S
C1100 C1094 1.368 . S
C1100 C1099 1.523 . S
C1101 C1085 1.429 . S
C1101 C1097 1.429 . S
C1101 C1102 1.523 . S
C1102 C1086 1.368 . S
C1102 C1098 1.368 . S
C1102 C1101 1.523 . S
H1103 C1078 0.944 1_455 S
H1104 C1080 0.950 . S
H1105 C1081 0.949 . S
H1106 C1083 0.950 . S
H1107 C1085 0.950 . S
C1108 C1109 1.349 . S
C1108 C1110 1.327 . S
C1108 H1133 0.950 . S
C1109 C1108 1.349 . S
C1109 C1125 1.349 . S
C1110 C1108 1.327 . S
C1110 C1129 1.429 . S
C1110 H1134 0.950 . S
C1111 C1128 1.574 . S
C1111 C1130 1.368 . S
C1111 H1135 0.949 . S
H1112 C1116 0.949 . S
C1113 C1114 1.349 . S
C1113 C1115 1.327 . S
C1113 H1136 0.950 . S
C1114 C1113 1.349 . S
C1114 C1126 1.349 . S
C1115 C1113 1.327 . S
C1115 C1131 1.429 . S
C1115 H1137 0.950 . S
C1116 H1112 0.949 . S
C1116 C1124 1.574 . S
C1116 C1132 1.368 . S
H1117 C1125 0.950 . S
H1118 C1123 0.950 . S
H1119 C1124 0.949 . S
H1120 C1126 0.950 . S
H1121 C1127 0.950 . S
H1122 C1128 0.949 . S
C1123 H1118 0.950 . S
C1123 C1125 1.327 . S
C1123 C1129 1.429 . S
C1124 C1116 1.574 . S
C1124 H1119 0.949 . S
C1124 C1130 1.368 . S
C1125 C1109 1.349 . S
C1125 H1117 0.950 . S
C1125 C1123 1.327 . S
C1126 C1114 1.349 . S
C1126 H1120 0.950 . S
C1126 C1127 1.327 . S
C1127 H1121 0.950 . S
C1127 C1126 1.327 . S
C1127 C1131 1.429 . S
C1128 C1111 1.574 . S
C1128 H1122 0.949 . S
C1128 C1132 1.368 . S
C1129 C1110 1.429 . S
C1129 C1123 1.429 . S
C1129 C1130 1.523 . S
C1130 C1111 1.368 . S
C1130 C1124 1.368 . S
C1130 C1129 1.523 . S
C1131 C1115 1.429 . S
C1131 C1127 1.429 . S
C1131 C1132 1.523 . S
C1132 C1116 1.368 . S
C1132 C1128 1.368 . S
C1132 C1131 1.523 . S
H1133 C1108 0.950 . S
H1134 C1110 0.950 . S
H1135 C1111 0.949 . S
H1136 C1113 0.950 . S
H1137 C1115 0.950 . S
C1138 C1139 1.349 . S
C1138 C1140 1.327 . S
C1138 H1163 0.950 . S
C1139 C1138 1.349 . S
C1139 C1155 1.349 . S
C1140 C1138 1.327 . S
C1140 C1159 1.429 . S
C1140 H1164 0.950 . S
C1141 C1158 1.574 . S
C1141 C1160 1.368 . S
C1141 H1165 0.949 . S
H1142 C1146 0.949 . S
C1143 C1144 1.349 . S
C1143 C1145 1.327 . S
C1143 H1166 0.950 . S
C1144 C1143 1.349 . S
C1144 C1156 1.349 . S
C1145 C1143 1.327 . S
C1145 C1161 1.429 . S
C1145 H1167 0.950 . S
C1146 H1142 0.949 . S
C1146 C1154 1.574 . S
C1146 C1162 1.368 . S
H1147 C1155 0.950 . S
H1148 C1153 0.950 . S
H1149 C1154 0.949 . S
H1150 C1156 0.950 . S
H1151 C1157 0.950 . S
H1152 C1158 0.949 . S
C1153 H1148 0.950 . S
C1153 C1155 1.327 . S
C1153 C1159 1.429 . S
C1154 C1146 1.574 . S
C1154 H1149 0.949 . S
C1154 C1160 1.368 . S
C1155 C1139 1.349 . S
C1155 H1147 0.950 . S
C1155 C1153 1.327 . S
C1156 C1144 1.349 . S
C1156 H1150 0.950 . S
C1156 C1157 1.327 . S
C1157 H1151 0.950 . S
C1157 C1156 1.327 . S
C1157 C1161 1.429 . S
C1158 C1141 1.574 . S
C1158 H1152 0.949 . S
C1158 C1162 1.368 . S
C1159 C1140 1.429 . S
C1159 C1153 1.429 . S
C1159 C1160 1.523 . S
C1160 C1141 1.368 . S
C1160 C1154 1.368 . S
C1160 C1159 1.523 . S
C1161 C1145 1.429 . S
C1161 C1157 1.429 . S
C1161 C1162 1.523 . S
C1162 C1146 1.368 . S
C1162 C1158 1.368 . S
C1162 C1161 1.523 . S
H1163 C1138 0.950 . S
H1164 C1140 0.950 . S
H1165 C1141 0.949 . S
H1166 C1143 0.950 . S
H1167 C1145 0.950 . S
C1168 C1169 1.349 . S
C1168 C1170 1.327 . S
C1168 H1193 0.950 . S
C1169 C1168 1.349 . S
C1169 C1185 1.349 . S
C1170 C1168 1.327 . S
C1170 C1189 1.429 . S
C1170 H1194 0.950 . S
C1171 C1188 1.574 . S
C1171 C1190 1.368 . S
C1171 H1195 0.949 . S
H1172 C1176 0.949 . S
C1173 C1174 1.349 . S
C1173 C1175 1.327 . S
C1173 H1196 0.950 . S
C1174 C1173 1.349 . S
C1174 C1186 1.349 . S
C1175 C1173 1.327 . S
C1175 C1191 1.429 . S
C1175 H1197 0.950 . S
C1176 H1172 0.949 . S
C1176 C1184 1.574 . S
C1176 C1192 1.368 . S
H1177 C1185 0.950 . S
H1178 C1183 0.950 . S
H1179 C1184 0.949 . S
H1180 C1186 0.950 . S
H1181 C1187 0.950 . S
H1182 C1188 0.949 . S
C1183 H1178 0.950 . S
C1183 C1185 1.327 . S
C1183 C1189 1.429 . S
C1184 C1176 1.574 . S
C1184 H1179 0.949 . S
C1184 C1190 1.368 . S
C1185 C1169 1.349 . S
C1185 H1177 0.950 . S
C1185 C1183 1.327 . S
C1186 C1174 1.349 . S
C1186 H1180 0.950 . S
C1186 C1187 1.327 . S
C1187 H1181 0.950 . S
C1187 C1186 1.327 . S
C1187 C1191 1.429 . S
C1188 C1171 1.574 . S
C1188 H1182 0.949 . S
C1188 C1192 1.368 . S
C1189 C1170 1.429 . S
C1189 C1183 1.429 . S
C1189 C1190 1.523 . S
C1190 C1171 1.368 . S
C1190 C1184 1.368 . S
C1190 C1189 1.523 . S
C1191 C1175 1.429 . S
C1191 C1187 1.429 . S
C1191 C1192 1.523 . S
C1192 C1176 1.368 . S
C1192 C1188 1.368 . S
C1192 C1191 1.523 . S
H1193 C1168 0.950 . S
H1194 C1170 0.950 . S
H1195 C1171 0.949 . S
H1196 C1173 0.950 . S
H1197 C1175 0.950 . S
C1198 C1199 1.349 . S
C1198 C1200 1.327 . S
C1198 H1223 0.950 . S
C1199 C1198 1.349 . S
C1199 C1215 1.349 . S
C1200 C1198 1.327 . S
C1200 C1219 1.429 . S
C1200 H1224 0.950 . S
C1201 C1218 1.574 . S
C1201 C1220 1.368 . S
C1201 H1225 0.949 . S
H1202 C1206 0.949 . S
C1203 C1204 1.349 . S
C1203 C1205 1.327 . S
C1203 H1226 0.950 . S
C1204 C1203 1.349 . S
C1204 C1216 1.349 . S
C1205 C1203 1.327 . S
C1205 C1221 1.429 . S
C1205 H1227 0.950 . S
C1206 H1202 0.949 . S
C1206 C1214 1.574 . S
C1206 C1222 1.368 . S
H1207 C1215 0.950 . S
H1208 C1213 0.950 . S
H1209 C1214 0.949 . S
H1210 C1216 0.950 . S
H1211 C1217 0.950 . S
H1212 C1218 0.949 . S
C1213 H1208 0.950 . S
C1213 C1215 1.327 . S
C1213 C1219 1.429 . S
C1214 C1206 1.574 . S
C1214 H1209 0.949 . S
C1214 C1220 1.368 . S
C1215 C1199 1.349 . S
C1215 H1207 0.950 . S
C1215 C1213 1.327 . S
C1216 C1204 1.349 . S
C1216 H1210 0.950 . S
C1216 C1217 1.327 . S
C1217 H1211 0.950 . S
C1217 C1216 1.327 . S
C1217 C1221 1.429 . S
C1218 C1201 1.574 . S
C1218 H1212 0.949 . S
C1218 C1222 1.368 . S
C1219 C1200 1.429 . S
C1219 C1213 1.429 . S
C1219 C1220 1.523 . S
C1220 C1201 1.368 . S
C1220 C1214 1.368 . S
C1220 C1219 1.523 . S
C1221 C1205 1.429 . S
C1221 C1217 1.429 . S
C1221 C1222 1.523 . S
C1222 C1206 1.368 . S
C1222 C1218 1.368 . S
C1222 C1221 1.523 . S
H1223 C1198 0.950 . S
H1224 C1200 0.950 . S
H1225 C1201 0.949 . S
H1226 C1203 0.950 . S
H1227 C1205 0.950 . S
C1228 C1229 1.349 . S
C1228 C1230 1.327 . S
C1228 H1253 0.950 . S
C1229 C1228 1.349 . S
C1229 C1245 1.349 . S
C1230 C1228 1.327 . S
C1230 C1249 1.429 . S
C1230 H1254 0.950 . S
C1231 C1248 1.574 . S
C1231 C1250 1.368 . S
C1231 H1255 0.949 . S
H1232 C1236 0.949 . S
C1233 C1234 1.349 . S
C1233 C1235 1.327 . S
C1233 H1256 0.950 . S
C1234 C1233 1.349 . S
C1234 C1246 1.349 . S
C1235 C1233 1.327 . S
C1235 C1251 1.429 . S
C1235 H1257 0.950 . S
C1236 H1232 0.949 . S
C1236 C1244 1.574 . S
C1236 C1252 1.368 . S
H1237 C1245 0.950 . S
H1238 C1243 0.950 . S
H1239 C1244 0.949 . S
H1240 C1246 0.950 . S
H1241 C1247 0.950 . S
H1242 C1248 0.949 . S
C1243 H1238 0.950 . S
C1243 C1245 1.327 . S
C1243 C1249 1.429 . S
C1244 C1236 1.574 . S
C1244 H1239 0.949 . S
C1244 C1250 1.368 . S
C1245 C1229 1.349 . S
C1245 H1237 0.950 . S
C1245 C1243 1.327 . S
C1246 C1234 1.349 . S
C1246 H1240 0.950 . S
C1246 C1247 1.327 . S
C1247 H1241 0.950 . S
C1247 C1246 1.327 . S
C1247 C1251 1.429 . S
C1248 C1231 1.574 . S
C1248 H1242 0.949 . S
C1248 C1252 1.368 . S
C1249 C1230 1.429 . S
C1249 C1243 1.429 . S
C1249 C1250 1.523 . S
C1250 C1231 1.368 . S
C1250 C1244 1.368 . S
C1250 C1249 1.523 . S
C1251 C1235 1.429 . S
C1251 C1247 1.429 . S
C1251 C1252 1.523 . S
C1252 C1236 1.368 . S
C1252 C1248 1.368 . S
C1252 C1251 1.523 . S
H1253 C1228 0.950 . S
H1254 C1230 0.950 . S
H1255 C1231 0.949 . S
H1256 C1233 0.950 . S
H1257 C1235 0.950 . S
C1258 C1259 1.349 . S
C1258 C1260 1.327 1_655 S
C1258 H1283 0.950 . S
C1259 C1258 1.349 . S
C1259 C1275 1.349 1_655 S
C1260 C1258 1.327 1_455 S
C1260 C1279 1.429 . S
C1260 H1284 0.950 . S
C1261 C1278 1.574 . S
C1261 C1280 1.368 . S
C1261 H1285 0.949 . S
H1262 C1266 0.949 . S
C1263 C1264 1.349 . S
C1263 C1265 1.327 . S
C1263 H1286 0.950 . S
C1264 C1263 1.349 . S
C1264 C1276 1.349 . S
C1265 C1263 1.327 . S
C1265 C1281 1.429 . S
C1265 H1287 0.950 . S
C1266 H1262 0.949 . S
C1266 C1274 1.574 . S
C1266 C1282 1.368 . S
H1267 C1275 0.961 . S
H1268 C1273 0.950 . S
H1269 C1274 0.949 . S
H1270 C1276 0.950 . S
H1271 C1277 0.950 . S
H1272 C1278 0.949 . S
C1273 H1268 0.950 . S
C1273 C1275 1.327 . S
C1273 C1279 1.429 . S
C1274 C1266 1.574 . S
C1274 H1269 0.949 . S
C1274 C1280 1.368 . S
C1275 C1259 1.349 1_455 S
C1275 H1267 0.961 . S
C1275 C1273 1.327 . S
C1276 C1264 1.349 . S
C1276 H1270 0.950 . S
C1276 C1277 1.327 . S
C1277 H1271 0.950 . S
C1277 C1276 1.327 . S
C1277 C1281 1.429 . S
C1278 C1261 1.574 . S
C1278 H1272 0.949 . S
C1278 C1282 1.368 . S
C1279 C1260 1.429 . S
C1279 C1273 1.429 . S
C1279 C1280 1.523 . S
C1280 C1261 1.368 . S
C1280 C1274 1.368 . S
C1280 C1279 1.523 . S
C1281 C1265 1.429 . S
C1281 C1277 1.429 . S
C1281 C1282 1.523 . S
C1282 C1266 1.368 . S
C1282 C1278 1.368 . S
C1282 C1281 1.523 . S
H1283 C1258 0.950 . S
H1284 C1260 0.950 . S
H1285 C1261 0.949 . S
H1286 C1263 0.950 . S
H1287 C1265 0.950 . S
C1288 C1289 1.349 . S
C1288 C1290 1.327 . S
C1288 H1313 0.950 . S
C1289 C1288 1.349 . S
C1289 C1305 1.349 . S
C1290 C1288 1.327 . S
C1290 C1309 1.429 . S
C1290 H1314 0.950 . S
C1291 C1308 1.574 . S
C1291 C1310 1.368 . S
C1291 H1315 0.949 . S
H1292 C1296 0.949 . S
C1293 C1294 1.349 . S
C1293 C1295 1.327 . S
C1293 H1316 0.950 . S
C1294 C1293 1.349 . S
C1294 C1306 1.349 . S
C1295 C1293 1.327 . S
C1295 C1311 1.429 . S
C1295 H1317 0.950 . S
C1296 H1292 0.949 . S
C1296 C1304 1.574 . S
C1296 C1312 1.368 . S
H1297 C1305 0.950 . S
H1298 C1303 0.950 . S
H1299 C1304 0.949 . S
H1300 C1306 0.950 . S
H1301 C1307 0.950 . S
H1302 C1308 0.949 . S
C1303 H1298 0.950 . S
C1303 C1305 1.327 . S
C1303 C1309 1.429 . S
C1304 C1296 1.574 . S
C1304 H1299 0.949 . S
C1304 C1310 1.368 . S
C1305 C1289 1.349 . S
C1305 H1297 0.950 . S
C1305 C1303 1.327 . S
C1306 C1294 1.349 . S
C1306 H1300 0.950 . S
C1306 C1307 1.327 . S
C1307 H1301 0.950 . S
C1307 C1306 1.327 . S
C1307 C1311 1.429 . S
C1308 C1291 1.574 . S
C1308 H1302 0.949 . S
C1308 C1312 1.368 . S
C1309 C1290 1.429 . S
C1309 C1303 1.429 . S
C1309 C1310 1.523 . S
C1310 C1291 1.368 . S
C1310 C1304 1.368 . S
C1310 C1309 1.523 . S
C1311 C1295 1.429 . S
C1311 C1307 1.429 . S
C1311 C1312 1.523 . S
C1312 C1296 1.368 . S
C1312 C1308 1.368 . S
C1312 C1311 1.523 . S
H1313 C1288 0.950 . S
H1314 C1290 0.950 . S
H1315 C1291 0.949 . S
H1316 C1293 0.950 . S
H1317 C1295 0.950 . S
C1318 C1319 1.372 . S
C1318 C1320 1.282 1_655 S
C1318 H1343 0.974 . S
C1319 C1318 1.372 . S
C1319 C1335 1.368 . S
C1320 C1318 1.282 1_455 S
C1320 C1339 1.429 . S
C1320 H1344 0.950 . S
C1321 C1338 1.574 . S
C1321 C1340 1.368 . S
C1321 H1345 0.949 . S
H1322 C1326 0.949 . S
C1323 C1324 1.349 . S
C1323 C1325 1.327 . S
C1323 H1346 0.950 . S
C1324 C1323 1.349 . S
C1324 C1336 1.349 . S
C1325 C1323 1.327 . S
C1325 C1341 1.429 . S
C1325 H1347 0.950 . S
C1326 H1322 0.949 . S
C1326 C1334 1.574 . S
C1326 C1342 1.368 . S
H1327 C1335 0.970 . S
H1328 C1333 0.950 . S
H1329 C1334 0.949 . S
H1330 C1336 0.950 . S
H1331 C1337 0.950 . S
H1332 C1338 0.949 . S
C1333 H1328 0.950 . S
C1333 C1335 1.290 1_455 S
C1333 C1339 1.429 . S
C1334 C1326 1.574 . S
C1334 H1329 0.949 . S
C1334 C1340 1.368 . S
C1335 C1319 1.368 . S
C1335 H1327 0.970 . S
C1335 C1333 1.290 1_655 S
C1336 C1324 1.349 . S
C1336 H1330 0.950 . S
C1336 C1337 1.327 . S
C1337 H1331 0.950 . S
C1337 C1336 1.327 . S
C1337 C1341 1.429 . S
C1338 C1321 1.574 . S
C1338 H1332 0.949 . S
C1338 C1342 1.368 . S
C1339 C1320 1.429 . S
C1339 C1333 1.429 . S
C1339 C1340 1.523 . S
C1340 C1321 1.368 . S
C1340 C1334 1.368 . S
C1340 C1339 1.523 . S
C1341 C1325 1.429 . S
C1341 C1337 1.429 . S
C1341 C1342 1.523 . S
C1342 C1326 1.368 . S
C1342 C1338 1.368 . S
C1342 C1341 1.523 . S
H1343 C1318 0.974 . S
H1344 C1320 0.950 . S
H1345 C1321 0.949 . S
H1346 C1323 0.950 . S
H1347 C1325 0.950 . S
C1348 C1349 1.349 . S
C1348 C1350 1.327 . S
C1348 H1373 0.950 . S
C1349 C1348 1.349 . S
C1349 C1365 1.349 . S
C1350 C1348 1.327 . S
C1350 C1369 1.429 . S
C1350 H1374 0.950 . S
C1351 C1368 1.574 . S
C1351 C1370 1.368 . S
C1351 H1375 0.949 . S
H1352 C1356 0.949 . S
C1353 C1354 1.349 . S
C1353 C1355 1.327 . S
C1353 H1376 0.950 . S
C1354 C1353 1.349 . S
C1354 C1366 1.349 . S
C1355 C1353 1.327 . S
C1355 C1371 1.429 . S
C1355 H1377 0.950 . S
C1356 H1352 0.949 . S
C1356 C1364 1.574 . S
C1356 C1372 1.368 . S
H1357 C1365 0.950 . S
H1358 C1363 0.950 . S
H1359 C1364 0.949 . S
H1360 C1366 0.950 . S
H1361 C1367 0.950 . S
H1362 C1368 0.949 . S
C1363 H1358 0.950 . S
C1363 C1365 1.327 . S
C1363 C1369 1.429 . S
C1364 C1356 1.574 . S
C1364 H1359 0.949 . S
C1364 C1370 1.368 . S
C1365 C1349 1.349 . S
C1365 H1357 0.950 . S
C1365 C1363 1.327 . S
C1366 C1354 1.349 . S
C1366 H1360 0.950 . S
C1366 C1367 1.327 . S
C1367 H1361 0.950 . S
C1367 C1366 1.327 . S
C1367 C1371 1.429 . S
C1368 C1351 1.574 . S
C1368 H1362 0.949 . S
C1368 C1372 1.368 . S
C1369 C1350 1.429 . S
C1369 C1363 1.429 . S
C1369 C1370 1.523 . S
C1370 C1351 1.368 . S
C1370 C1364 1.368 . S
C1370 C1369 1.523 . S
C1371 C1355 1.429 . S
C1371 C1367 1.429 . S
C1371 C1372 1.523 . S
C1372 C1356 1.368 . S
C1372 C1368 1.368 . S
C1372 C1371 1.523 . S
H1373 C1348 0.950 . S
H1374 C1350 0.950 . S
H1375 C1351 0.949 . S
H1376 C1353 0.950 . S
H1377 C1355 0.950 . S
C1378 C1379 1.349 . S
C1378 C1380 1.327 . S
C1378 H1403 0.950 . S
C1379 C1378 1.349 . S
C1379 C1395 1.349 . S
C1380 C1378 1.327 . S
C1380 C1399 1.429 . S
C1380 H1404 0.950 . S
C1381 C1398 1.574 . S
C1381 C1400 1.368 . S
C1381 H1405 0.949 . S
H1382 C1386 0.949 . S
C1383 C1384 1.349 . S
C1383 C1385 1.327 . S
C1383 H1406 0.950 . S
C1384 C1383 1.349 . S
C1384 C1396 1.349 . S
C1385 C1383 1.327 . S
C1385 C1401 1.429 . S
C1385 H1407 0.950 . S
C1386 H1382 0.949 . S
C1386 C1394 1.574 . S
C1386 C1402 1.368 . S
H1387 C1395 0.950 . S
H1388 C1393 0.950 . S
H1389 C1394 0.949 . S
H1390 C1396 0.950 . S
H1391 C1397 0.950 . S
H1392 C1398 0.949 . S
C1393 H1388 0.950 . S
C1393 C1395 1.327 . S
C1393 C1399 1.429 . S
C1394 C1386 1.574 . S
C1394 H1389 0.949 . S
C1394 C1400 1.368 . S
C1395 C1379 1.349 . S
C1395 H1387 0.950 . S
C1395 C1393 1.327 . S
C1396 C1384 1.349 . S
C1396 H1390 0.950 . S
C1396 C1397 1.327 . S
C1397 H1391 0.950 . S
C1397 C1396 1.327 . S
C1397 C1401 1.429 . S
C1398 C1381 1.574 . S
C1398 H1392 0.949 . S
C1398 C1402 1.368 . S
C1399 C1380 1.429 . S
C1399 C1393 1.429 . S
C1399 C1400 1.523 . S
C1400 C1381 1.368 . S
C1400 C1394 1.368 . S
C1400 C1399 1.523 . S
C1401 C1385 1.429 . S
C1401 C1397 1.429 . S
C1401 C1402 1.523 . S
C1402 C1386 1.368 . S
C1402 C1398 1.368 . S
C1402 C1401 1.523 . S
H1403 C1378 0.950 . S
H1404 C1380 0.950 . S
H1405 C1381 0.949 . S
H1406 C1383 0.950 . S
H1407 C1385 0.950 . S
C1408 C1409 1.349 . S
C1408 C1410 1.327 . S
C1408 H1433 0.950 . S
C1409 C1408 1.349 . S
C1409 C1425 1.349 . S
C1410 C1408 1.327 . S
C1410 C1429 1.429 . S
C1410 H1434 0.950 . S
C1411 C1428 1.574 . S
C1411 C1430 1.368 . S
C1411 H1435 0.949 . S
H1412 C1416 0.949 . S
C1413 C1414 1.349 . S
C1413 C1415 1.327 . S
C1413 H1436 0.950 . S
C1414 C1413 1.349 . S
C1414 C1426 1.349 . S
C1415 C1413 1.327 . S
C1415 C1431 1.429 . S
C1415 H1437 0.950 . S
C1416 H1412 0.949 . S
C1416 C1424 1.574 . S
C1416 C1432 1.368 . S
H1417 C1425 0.950 . S
H1418 C1423 0.950 . S
H1419 C1424 0.949 . S
H1420 C1426 0.950 . S
H1421 C1427 0.950 . S
H1422 C1428 0.949 . S
C1423 H1418 0.950 . S
C1423 C1425 1.327 . S
C1423 C1429 1.429 . S
C1424 C1416 1.574 . S
C1424 H1419 0.949 . S
C1424 C1430 1.368 . S
C1425 C1409 1.349 . S
C1425 H1417 0.950 . S
C1425 C1423 1.327 . S
C1426 C1414 1.349 . S
C1426 H1420 0.950 . S
C1426 C1427 1.327 . S
C1427 H1421 0.950 . S
C1427 C1426 1.327 . S
C1427 C1431 1.429 . S
C1428 C1411 1.574 . S
C1428 H1422 0.949 . S
C1428 C1432 1.368 . S
C1429 C1410 1.429 . S
C1429 C1423 1.429 . S
C1429 C1430 1.523 . S
C1430 C1411 1.368 . S
C1430 C1424 1.368 . S
C1430 C1429 1.523 . S
C1431 C1415 1.429 . S
C1431 C1427 1.429 . S
C1431 C1432 1.523 . S
C1432 C1416 1.368 . S
C1432 C1428 1.368 . S
C1432 C1431 1.523 . S
H1433 C1408 0.950 . S
H1434 C1410 0.950 . S
H1435 C1411 0.949 . S
H1436 C1413 0.950 . S
H1437 C1415 0.950 . S
C1438 C1439 1.349 . S
C1438 C1440 1.327 . S
C1438 H1463 0.950 . S
C1439 C1438 1.349 . S
C1439 C1455 1.349 . S
C1440 C1438 1.327 . S
C1440 C1459 1.429 . S
C1440 H1464 0.950 . S
C1441 C1458 1.574 1_565 S
C1441 C1460 1.368 1_455 S
C1441 H1465 0.949 . S
H1442 C1446 0.949 . S
C1443 C1444 1.349 . S
C1443 C1445 1.327 . S
C1443 H1466 0.950 . S
C1444 C1443 1.349 . S
C1444 C1456 1.349 . S
C1445 C1443 1.327 . S
C1445 C1461 1.429 . S
C1445 H1467 0.950 . S
C1446 H1442 0.949 . S
C1446 C1454 1.574 1_545 S
C1446 C1462 1.368 1_655 S
H1447 C1455 0.950 . S
H1448 C1453 0.950 . S
H1449 C1454 0.949 . S
H1450 C1456 0.950 . S
H1451 C1457 0.950 . S
H1452 C1458 0.949 . S
C1453 H1448 0.950 . S
C1453 C1455 1.327 . S
C1453 C1459 1.429 . S
C1454 C1446 1.574 1_565 S
C1454 H1449 0.949 . S
C1454 C1460 1.368 . S
C1455 C1439 1.349 . S
C1455 H1447 0.950 . S
C1455 C1453 1.327 . S
C1456 C1444 1.349 . S
C1456 H1450 0.950 . S
C1456 C1457 1.327 . S
C1457 H1451 0.950 . S
C1457 C1456 1.327 . S
C1457 C1461 1.429 . S
C1458 C1441 1.574 1_545 S
C1458 H1452 0.949 . S
C1458 C1462 1.368 . S
C1459 C1440 1.429 . S
C1459 C1453 1.429 . S
C1459 C1460 1.523 . S
C1460 C1441 1.368 1_655 S
C1460 C1454 1.368 . S
C1460 C1459 1.523 . S
C1461 C1445 1.429 . S
C1461 C1457 1.429 . S
C1461 C1462 1.523 . S
C1462 C1446 1.368 1_455 S
C1462 C1458 1.368 . S
C1462 C1461 1.523 . S
H1463 C1438 0.950 . S
H1464 C1440 0.950 . S
H1465 C1441 0.949 . S
H1466 C1443 0.950 . S
H1467 C1445 0.950 . S
C1468 C1469 1.349 . S
C1468 C1470 1.327 . S
C1468 H1493 0.950 . S
C1469 C1468 1.349 . S
C1469 C1485 1.349 . S
C1470 C1468 1.327 . S
C1470 C1489 1.429 . S
C1470 H1494 0.950 . S
C1471 C1488 1.574 . S
C1471 C1490 1.368 . S
C1471 H1495 0.949 . S
H1472 C1476 0.949 . S
C1473 C1474 1.349 . S
C1473 C1475 1.327 . S
C1473 H1496 0.950 . S
C1474 C1473 1.349 . S
C1474 C1486 1.349 . S
C1475 C1473 1.327 . S
C1475 C1491 1.429 . S
C1475 H1497 0.950 . S
C1476 H1472 0.949 . S
C1476 C1484 1.574 . S
C1476 C1492 1.368 . S
H1477 C1485 0.950 . S
H1478 C1483 0.950 . S
H1479 C1484 0.949 . S
H1480 C1486 0.950 . S
H1481 C1487 0.950 . S
H1482 C1488 0.949 . S
C1483 H1478 0.950 . S
C1483 C1485 1.327 . S
C1483 C1489 1.429 . S
C1484 C1476 1.574 . S
C1484 H1479 0.949 . S
C1484 C1490 1.368 . S
C1485 C1469 1.349 . S
C1485 H1477 0.950 . S
C1485 C1483 1.327 . S
C1486 C1474 1.349 . S
C1486 H1480 0.950 . S
C1486 C1487 1.327 . S
C1487 H1481 0.950 . S
C1487 C1486 1.327 . S
C1487 C1491 1.429 . S
C1488 C1471 1.574 . S
C1488 H1482 0.949 . S
C1488 C1492 1.368 . S
C1489 C1470 1.429 . S
C1489 C1483 1.429 . S
C1489 C1490 1.523 . S
C1490 C1471 1.368 . S
C1490 C1484 1.368 . S
C1490 C1489 1.523 . S
C1491 C1475 1.429 . S
C1491 C1487 1.429 . S
C1491 C1492 1.523 . S
C1492 C1476 1.368 . S
C1492 C1488 1.368 . S
C1492 C1491 1.523 . S
H1493 C1468 0.950 . S
H1494 C1470 0.950 . S
H1495 C1471 0.949 . S
H1496 C1473 0.950 . S
H1497 C1475 0.950 . S
C1498 C1499 1.349 . S
C1498 C1500 1.327 . S
C1498 H1523 0.950 . S
C1499 C1498 1.349 . S
C1499 C1515 1.349 . S
C1500 C1498 1.327 . S
C1500 C1519 1.429 . S
C1500 H1524 0.950 1_554 S
C1501 C1518 1.574 1_545 S
C1501 C1520 1.368 . S
C1501 H1525 0.949 . S
H1502 C1506 0.949 . S
C1503 C1504 1.349 . S
C1503 C1505 1.327 . S
C1503 H1526 0.950 . S
C1504 C1503 1.349 . S
C1504 C1516 1.349 . S
C1505 C1503 1.327 . S
C1505 C1521 1.429 . S
C1505 H1527 0.950 1_556 S
C1506 H1502 0.949 . S
C1506 C1514 1.574 1_565 S
C1506 C1522 1.368 . S
H1507 C1515 0.950 . S
H1508 C1513 0.950 . S
H1509 C1514 0.949 . S
H1510 C1516 0.950 . S
H1511 C1517 0.950 . S
H1512 C1518 0.949 . S
C1513 H1508 0.950 . S
C1513 C1515 1.327 . S
C1513 C1519 1.429 . S
C1514 C1506 1.574 1_545 S
C1514 H1509 0.949 . S
C1514 C1520 1.368 1_556 S
C1515 C1499 1.349 . S
C1515 H1507 0.950 . S
C1515 C1513 1.327 . S
C1516 C1504 1.349 . S
C1516 H1510 0.950 . S
C1516 C1517 1.327 . S
C1517 H1511 0.950 . S
C1517 C1516 1.327 . S
C1517 C1521 1.429 . S
C1518 C1501 1.574 1_565 S
C1518 H1512 0.949 . S
C1518 C1522 1.368 1_554 S
C1519 C1500 1.429 . S
C1519 C1513 1.429 . S
C1519 C1520 1.523 . S
C1520 C1501 1.368 . S
C1520 C1514 1.368 1_554 S
C1520 C1519 1.523 . S
C1521 C1505 1.429 . S
C1521 C1517 1.429 . S
C1521 C1522 1.523 . S
C1522 C1506 1.368 . S
C1522 C1518 1.368 1_556 S
C1522 C1521 1.523 . S
H1523 C1498 0.950 . S
H1524 C1500 0.950 1_556 S
H1525 C1501 0.949 . S
H1526 C1503 0.950 . S
H1527 C1505 0.950 1_554 S
C1528 C1529 1.349 . S
C1528 C1530 1.327 . S
C1528 H1553 0.950 . S
C1529 C1528 1.349 . S
C1529 C1545 1.349 . S
C1530 C1528 1.327 . S
C1530 C1549 1.429 . S
C1530 H1554 0.950 . S
C1531 C1548 1.574 . S
C1531 C1550 1.368 . S
C1531 H1555 0.949 . S
H1532 C1536 0.949 . S
C1533 C1534 1.349 . S
C1533 C1535 1.327 . S
C1533 H1556 0.950 . S
C1534 C1533 1.349 . S
C1534 C1546 1.349 . S
C1535 C1533 1.327 . S
C1535 C1551 1.429 . S
C1535 H1557 0.950 . S
C1536 H1532 0.949 . S
C1536 C1544 1.574 . S
C1536 C1552 1.368 . S
H1537 C1545 0.950 . S
H1538 C1543 0.950 . S
H1539 C1544 0.949 . S
H1540 C1546 0.950 . S
H1541 C1547 0.950 . S
H1542 C1548 0.949 . S
C1543 H1538 0.950 . S
C1543 C1545 1.327 . S
C1543 C1549 1.429 . S
C1544 C1536 1.574 . S
C1544 H1539 0.949 . S
C1544 C1550 1.368 . S
C1545 C1529 1.349 . S
C1545 H1537 0.950 . S
C1545 C1543 1.327 . S
C1546 C1534 1.349 . S
C1546 H1540 0.950 . S
C1546 C1547 1.327 . S
C1547 H1541 0.950 . S
C1547 C1546 1.327 . S
C1547 C1551 1.429 . S
C1548 C1531 1.574 . S
C1548 H1542 0.949 . S
C1548 C1552 1.368 . S
C1549 C1530 1.429 . S
C1549 C1543 1.429 . S
C1549 C1550 1.523 . S
C1550 C1531 1.368 . S
C1550 C1544 1.368 . S
C1550 C1549 1.523 . S
C1551 C1535 1.429 . S
C1551 C1547 1.429 . S
C1551 C1552 1.523 . S
C1552 C1536 1.368 . S
C1552 C1548 1.368 . S
C1552 C1551 1.523 . S
H1553 C1528 0.950 . S
H1554 C1530 0.950 . S
H1555 C1531 0.949 . S
H1556 C1533 0.950 . S
H1557 C1535 0.950 . S
C1558 C1559 1.349 . S
C1558 C1560 1.327 . S
C1558 H1583 0.950 . S
C1559 C1558 1.349 . S
C1559 C1575 1.349 . S
C1560 C1558 1.327 . S
C1560 C1579 1.429 . S
C1560 H1584 0.950 . S
C1561 C1578 1.574 1_565 S
C1561 C1580 1.368 . S
C1561 H1585 0.949 . S
H1562 C1566 0.949 . S
C1563 C1564 1.349 . S
C1563 C1565 1.327 . S
C1563 H1586 0.950 . S
C1564 C1563 1.349 . S
C1564 C1576 1.349 . S
C1565 C1563 1.327 . S
C1565 C1581 1.429 . S
C1565 H1587 0.950 . S
C1566 H1562 0.949 . S
C1566 C1574 1.574 1_545 S
C1566 C1582 1.368 . S
H1567 C1575 0.950 . S
H1568 C1573 0.950 . S
H1569 C1574 0.949 . S
H1570 C1576 0.950 . S
H1571 C1577 0.950 . S
H1572 C1578 0.949 . S
C1573 H1568 0.950 . S
C1573 C1575 1.327 . S
C1573 C1579 1.429 . S
C1574 C1566 1.574 1_565 S
C1574 H1569 0.949 . S
C1574 C1580 1.368 . S
C1575 C1559 1.349 . S
C1575 H1567 0.950 . S
C1575 C1573 1.327 . S
C1576 C1564 1.349 . S
C1576 H1570 0.950 . S
C1576 C1577 1.327 . S
C1577 H1571 0.950 . S
C1577 C1576 1.327 . S
C1577 C1581 1.429 . S
C1578 C1561 1.574 1_545 S
C1578 H1572 0.949 . S
C1578 C1582 1.368 . S
C1579 C1560 1.429 . S
C1579 C1573 1.429 . S
C1579 C1580 1.523 . S
C1580 C1561 1.368 . S
C1580 C1574 1.368 . S
C1580 C1579 1.523 . S
C1581 C1565 1.429 . S
C1581 C1577 1.429 . S
C1581 C1582 1.523 . S
C1582 C1566 1.368 . S
C1582 C1578 1.368 . S
C1582 C1581 1.523 . S
H1583 C1558 0.950 . S
H1584 C1560 0.950 . S
H1585 C1561 0.949 . S
H1586 C1563 0.950 . S
H1587 C1565 0.950 . S
C1588 C1589 1.349 . S
C1588 C1590 1.327 . S
C1588 H1613 0.950 . S
C1589 C1588 1.349 . S
C1589 C1605 1.349 . S
C1590 C1588 1.327 . S
C1590 C1609 1.429 . S
C1590 H1614 0.950 . S
C1591 C1608 1.574 . S
C1591 C1610 1.368 . S
C1591 H1615 0.949 . S
H1592 C1596 0.949 . S
C1593 C1594 1.349 . S
C1593 C1595 1.327 . S
C1593 H1616 0.950 . S
C1594 C1593 1.349 . S
C1594 C1606 1.349 . S
C1595 C1593 1.327 . S
C1595 C1611 1.429 . S
C1595 H1617 0.950 . S
C1596 H1592 0.949 . S
C1596 C1604 1.574 . S
C1596 C1612 1.368 . S
H1597 C1605 0.950 . S
H1598 C1603 0.950 . S
H1599 C1604 0.949 . S
H1600 C1606 0.950 . S
H1601 C1607 0.950 . S
H1602 C1608 0.949 . S
C1603 H1598 0.950 . S
C1603 C1605 1.327 . S
C1603 C1609 1.429 . S
C1604 C1596 1.574 . S
C1604 H1599 0.949 . S
C1604 C1610 1.368 . S
C1605 C1589 1.349 . S
C1605 H1597 0.950 . S
C1605 C1603 1.327 . S
C1606 C1594 1.349 . S
C1606 H1600 0.950 . S
C1606 C1607 1.327 . S
C1607 H1601 0.950 . S
C1607 C1606 1.327 . S
C1607 C1611 1.429 . S
C1608 C1591 1.574 . S
C1608 H1602 0.949 . S
C1608 C1612 1.368 . S
C1609 C1590 1.429 . S
C1609 C1603 1.429 . S
C1609 C1610 1.523 . S
C1610 C1591 1.368 . S
C1610 C1604 1.368 . S
C1610 C1609 1.523 . S
C1611 C1595 1.429 . S
C1611 C1607 1.429 . S
C1611 C1612 1.523 . S
C1612 C1596 1.368 . S
C1612 C1608 1.368 . S
C1612 C1611 1.523 . S
H1613 C1588 0.950 . S
H1614 C1590 0.950 . S
H1615 C1591 0.949 . S
H1616 C1593 0.950 . S
H1617 C1595 0.950 . S
C1618 C1619 1.349 . S
C1618 C1620 1.327 . S
C1618 H1643 0.950 . S
C1619 C1618 1.349 . S
C1619 C1635 1.349 . S
C1620 C1618 1.327 . S
C1620 C1639 1.429 . S
C1620 H1644 0.950 . S
C1621 C1638 1.574 1_645 S
C1621 C1640 1.368 1_554 S
C1621 H1645 0.949 . S
H1622 C1626 0.949 . S
C1623 C1624 1.349 . S
C1623 C1625 1.327 . S
C1623 H1646 0.950 . S
C1624 C1623 1.349 . S
C1624 C1636 1.349 . S
C1625 C1623 1.327 . S
C1625 C1641 1.429 . S
C1625 H1647 0.950 . S
C1626 H1622 0.949 . S
C1626 C1634 1.574 1_465 S
C1626 C1642 1.368 1_556 S
H1627 C1635 0.950 1_554 S
H1628 C1633 0.950 . S
H1629 C1634 0.949 . S
H1630 C1636 0.950 1_556 S
H1631 C1637 0.950 . S
H1632 C1638 0.949 . S
C1633 H1628 0.950 . S
C1633 C1635 1.327 1_554 S
C1633 C1639 1.429 1_554 S
C1634 C1626 1.574 1_645 S
C1634 H1629 0.949 . S
C1634 C1640 1.368 . S
C1635 C1619 1.349 . S
C1635 H1627 0.950 1_556 S
C1635 C1633 1.327 1_556 S
C1636 C1624 1.349 . S
C1636 H1630 0.950 1_554 S
C1636 C1637 1.327 1_554 S
C1637 H1631 0.950 . S
C1637 C1636 1.327 1_556 S
C1637 C1641 1.429 1_556 S
C1638 C1621 1.574 1_465 S
C1638 H1632 0.949 . S
C1638 C1642 1.368 . S
C1639 C1620 1.429 . S
C1639 C1633 1.429 1_556 S
C1639 C1640 1.523 . S
C1640 C1621 1.368 1_556 S
C1640 C1634 1.368 . S
C1640 C1639 1.523 . S
C1641 C1625 1.429 . S
C1641 C1637 1.429 1_554 S
C1641 C1642 1.523 . S
C1642 C1626 1.368 1_554 S
C1642 C1638 1.368 . S
C1642 C1641 1.523 . S
H1643 C1618 0.950 . S
H1644 C1620 0.950 . S
H1645 C1621 0.949 . S
H1646 C1623 0.950 . S
H1647 C1625 0.950 . S
C1648 C1649 1.349 . S
C1648 C1650 1.327 . S
C1648 H1673 0.950 . S
C1649 C1648 1.349 . S
C1649 C1665 1.349 . S
C1650 C1648 1.327 . S
C1650 C1669 1.429 . S
C1650 H1674 0.950 . S
C1651 C1668 1.574 . S
C1651 C1670 1.368 . S
C1651 H1675 0.949 . S
H1652 C1656 0.949 . S
C1653 C1654 1.349 . S
C1653 C1655 1.327 . S
C1653 H1676 0.950 . S
C1654 C1653 1.349 . S
C1654 C1666 1.349 . S
C1655 C1653 1.327 . S
C1655 C1671 1.429 . S
C1655 H1677 0.950 . S
C1656 H1652 0.949 . S
C1656 C1664 1.574 . S
C1656 C1672 1.368 . S
H1657 C1665 0.950 . S
H1658 C1663 0.950 . S
H1659 C1664 0.949 . S
H1660 C1666 0.950 . S
H1661 C1667 0.950 . S
H1662 C1668 0.949 . S
C1663 H1658 0.950 . S
C1663 C1665 1.327 . S
C1663 C1669 1.429 . S
C1664 C1656 1.574 . S
C1664 H1659 0.949 . S
C1664 C1670 1.368 . S
C1665 C1649 1.349 . S
C1665 H1657 0.950 . S
C1665 C1663 1.327 . S
C1666 C1654 1.349 . S
C1666 H1660 0.950 . S
C1666 C1667 1.327 . S
C1667 H1661 0.950 . S
C1667 C1666 1.327 . S
C1667 C1671 1.429 . S
C1668 C1651 1.574 . S
C1668 H1662 0.949 . S
C1668 C1672 1.368 . S
C1669 C1650 1.429 . S
C1669 C1663 1.429 . S
C1669 C1670 1.523 . S
C1670 C1651 1.368 . S
C1670 C1664 1.368 . S
C1670 C1669 1.523 . S
C1671 C1655 1.429 . S
C1671 C1667 1.429 . S
C1671 C1672 1.523 . S
C1672 C1656 1.368 . S
C1672 C1668 1.368 . S
C1672 C1671 1.523 . S
H1673 C1648 0.950 . S
H1674 C1650 0.950 . S
H1675 C1651 0.949 . S
H1676 C1653 0.950 . S
H1677 C1655 0.950 . S
C1678 C1679 1.349 . S
C1678 C1680 1.327 . S
C1678 H1703 0.950 . S
C1679 C1678 1.349 . S
C1679 C1695 1.349 . S
C1680 C1678 1.327 . S
C1680 C1699 1.429 . S
C1680 H1704 0.950 . S
C1681 C1698 1.574 . S
C1681 C1700 1.368 . S
C1681 H1705 0.949 . S
H1682 C1686 0.949 . S
C1683 C1684 1.349 . S
C1683 C1685 1.327 . S
C1683 H1706 0.950 . S
C1684 C1683 1.349 . S
C1684 C1696 1.349 . S
C1685 C1683 1.327 . S
C1685 C1701 1.429 . S
C1685 H1707 0.950 . S
C1686 H1682 0.949 . S
C1686 C1694 1.574 . S
C1686 C1702 1.368 . S
H1687 C1695 0.950 . S
H1688 C1693 0.950 . S
H1689 C1694 0.949 . S
H1690 C1696 0.950 . S
H1691 C1697 0.950 . S
H1692 C1698 0.949 . S
C1693 H1688 0.950 . S
C1693 C1695 1.327 . S
C1693 C1699 1.429 . S
C1694 C1686 1.574 . S
C1694 H1689 0.949 . S
C1694 C1700 1.368 . S
C1695 C1679 1.349 . S
C1695 H1687 0.950 . S
C1695 C1693 1.327 . S
C1696 C1684 1.349 . S
C1696 H1690 0.950 . S
C1696 C1697 1.327 . S
C1697 H1691 0.950 . S
C1697 C1696 1.327 . S
C1697 C1701 1.429 . S
C1698 C1681 1.574 . S
C1698 H1692 0.949 . S
C1698 C1702 1.368 . S
C1699 C1680 1.429 . S
C1699 C1693 1.429 . S
C1699 C1700 1.523 . S
C1700 C1681 1.368 . S
C1700 C1694 1.368 . S
C1700 C1699 1.523 . S
C1701 C1685 1.429 . S
C1701 C1697 1.429 . S
C1701 C1702 1.523 . S
C1702 C1686 1.368 . S
C1702 C1698 1.368 . S
C1702 C1701 1.523 . S
H1703 C1678 0.950 . S
H1704 C1680 0.950 . S
H1705 C1681 0.949 . S
H1706 C1683 0.950 . S
H1707 C1685 0.950 . S
C1708 C1709 1.349 . S
C1708 C1710 1.327 . S
C1708 H1733 0.950 . S
C1709 C1708 1.349 . S
C1709 C1725 1.349 . S
C1710 C1708 1.327 . S
C1710 C1729 1.429 . S
C1710 H1734 0.950 . S
C1711 C1728 1.574 . S
C1711 C1730 1.368 . S
C1711 H1735 0.949 . S
H1712 C1716 0.949 . S
C1713 C1714 1.349 . S
C1713 C1715 1.327 . S
C1713 H1736 0.950 . S
C1714 C1713 1.349 . S
C1714 C1726 1.349 . S
C1715 C1713 1.327 . S
C1715 C1731 1.429 . S
C1715 H1737 0.950 . S
C1716 H1712 0.949 . S
C1716 C1724 1.574 . S
C1716 C1732 1.368 . S
H1717 C1725 0.950 . S
H1718 C1723 0.950 . S
H1719 C1724 0.949 . S
H1720 C1726 0.950 . S
H1721 C1727 0.950 . S
H1722 C1728 0.949 . S
C1723 H1718 0.950 . S
C1723 C1725 1.327 . S
C1723 C1729 1.429 . S
C1724 C1716 1.574 . S
C1724 H1719 0.949 . S
C1724 C1730 1.368 . S
C1725 C1709 1.349 . S
C1725 H1717 0.950 . S
C1725 C1723 1.327 . S
C1726 C1714 1.349 . S
C1726 H1720 0.950 . S
C1726 C1727 1.327 . S
C1727 H1721 0.950 . S
C1727 C1726 1.327 . S
C1727 C1731 1.429 . S
C1728 C1711 1.574 . S
C1728 H1722 0.949 . S
C1728 C1732 1.368 . S
C1729 C1710 1.429 . S
C1729 C1723 1.429 . S
C1729 C1730 1.523 . S
C1730 C1711 1.368 . S
C1730 C1724 1.368 . S
C1730 C1729 1.523 . S
C1731 C1715 1.429 . S
C1731 C1727 1.429 . S
C1731 C1732 1.523 . S
C1732 C1716 1.368 . S
C1732 C1728 1.368 . S
C1732 C1731 1.523 . S
H1733 C1708 0.950 . S
H1734 C1710 0.950 . S
H1735 C1711 0.949 . S
H1736 C1713 0.950 . S
H1737 C1715 0.950 . S
C1738 C1739 1.349 . S
C1738 C1740 1.327 . S
C1738 H1763 0.950 . S
C1739 C1738 1.349 . S
C1739 C1755 1.349 . S
C1740 C1738 1.327 . S
C1740 C1759 1.429 . S
C1740 H1764 0.950 . S
C1741 C1758 1.574 . S
C1741 C1760 1.368 . S
C1741 H1765 0.949 . S
H1742 C1746 0.949 . S
C1743 C1744 1.349 . S
C1743 C1745 1.327 . S
C1743 H1766 0.950 . S
C1744 C1743 1.349 . S
C1744 C1756 1.349 . S
C1745 C1743 1.327 . S
C1745 C1761 1.429 . S
C1745 H1767 0.950 . S
C1746 H1742 0.949 . S
C1746 C1754 1.574 . S
C1746 C1762 1.368 . S
H1747 C1755 0.950 . S
H1748 C1753 0.950 . S
H1749 C1754 0.949 . S
H1750 C1756 0.950 . S
H1751 C1757 0.950 . S
H1752 C1758 0.949 . S
C1753 H1748 0.950 . S
C1753 C1755 1.327 . S
C1753 C1759 1.429 . S
C1754 C1746 1.574 . S
C1754 H1749 0.949 . S
C1754 C1760 1.368 . S
C1755 C1739 1.349 . S
C1755 H1747 0.950 . S
C1755 C1753 1.327 . S
C1756 C1744 1.349 . S
C1756 H1750 0.950 . S
C1756 C1757 1.327 . S
C1757 H1751 0.950 . S
C1757 C1756 1.327 . S
C1757 C1761 1.429 . S
C1758 C1741 1.574 . S
C1758 H1752 0.949 . S
C1758 C1762 1.368 . S
C1759 C1740 1.429 . S
C1759 C1753 1.429 . S
C1759 C1760 1.523 . S
C1760 C1741 1.368 . S
C1760 C1754 1.368 . S
C1760 C1759 1.523 . S
C1761 C1745 1.429 . S
C1761 C1757 1.429 . S
C1761 C1762 1.523 . S
C1762 C1746 1.368 . S
C1762 C1758 1.368 . S
C1762 C1761 1.523 . S
H1763 C1738 0.950 . S
H1764 C1740 0.950 . S
H1765 C1741 0.949 . S
H1766 C1743 0.950 . S
H1767 C1745 0.950 . S
C1768 C1769 1.349 . S
C1768 C1770 1.327 . S
C1768 H1793 0.950 . S
C1769 C1768 1.349 . S
C1769 C1785 1.349 . S
C1770 C1768 1.327 . S
C1770 C1789 1.429 . S
C1770 H1794 0.950 . S
C1771 C1788 1.574 . S
C1771 C1790 1.368 1_556 S
C1771 H1795 0.949 . S
H1772 C1776 0.949 . S
C1773 C1774 1.349 . S
C1773 C1775 1.327 . S
C1773 H1796 0.950 . S
C1774 C1773 1.349 . S
C1774 C1786 1.349 . S
C1775 C1773 1.327 . S
C1775 C1791 1.429 . S
C1775 H1797 0.950 . S
C1776 H1772 0.949 . S
C1776 C1784 1.574 . S
C1776 C1792 1.368 1_554 S
H1777 C1785 0.950 . S
H1778 C1783 0.950 1_556 S
H1779 C1784 0.949 . S
H1780 C1786 0.950 . S
H1781 C1787 0.950 1_554 S
H1782 C1788 0.949 . S
C1783 H1778 0.950 1_554 S
C1783 C1785 1.327 . S
C1783 C1789 1.429 . S
C1784 C1776 1.574 . S
C1784 H1779 0.949 . S
C1784 C1790 1.368 . S
C1785 C1769 1.349 . S
C1785 H1777 0.950 . S
C1785 C1783 1.327 . S
C1786 C1774 1.349 . S
C1786 H1780 0.950 . S
C1786 C1787 1.327 . S
C1787 H1781 0.950 1_556 S
C1787 C1786 1.327 . S
C1787 C1791 1.429 . S
C1788 C1771 1.574 . S
C1788 H1782 0.949 . S
C1788 C1792 1.368 . S
C1789 C1770 1.429 . S
C1789 C1783 1.429 . S
C1789 C1790 1.523 . S
C1790 C1771 1.368 1_554 S
C1790 C1784 1.368 . S
C1790 C1789 1.523 . S
C1791 C1775 1.429 . S
C1791 C1787 1.429 . S
C1791 C1792 1.523 . S
C1792 C1776 1.368 1_556 S
C1792 C1788 1.368 . S
C1792 C1791 1.523 . S
H1793 C1768 0.950 . S
H1794 C1770 0.950 . S
H1795 C1771 0.949 . S
H1796 C1773 0.950 . S
H1797 C1775 0.950 . S
C1798 C1799 1.349 . S
C1798 C1800 1.327 . S
C1798 H1823 0.950 . S
C1799 C1798 1.349 . S
C1799 C1815 1.349 . S
C1800 C1798 1.327 . S
C1800 C1819 1.429 . S
C1800 H1824 0.950 . S
C1801 C1818 1.574 . S
C1801 C1820 1.368 . S
C1801 H1825 0.949 . S
H1802 C1806 0.949 . S
C1803 C1804 1.349 . S
C1803 C1805 1.327 . S
C1803 H1826 0.950 . S
C1804 C1803 1.349 . S
C1804 C1816 1.349 . S
C1805 C1803 1.327 . S
C1805 C1821 1.429 . S
C1805 H1827 0.950 . S
C1806 H1802 0.949 . S
C1806 C1814 1.574 . S
C1806 C1822 1.368 . S
H1807 C1815 0.950 . S
H1808 C1813 0.950 . S
H1809 C1814 0.949 . S
H1810 C1816 0.950 . S
H1811 C1817 0.950 . S
H1812 C1818 0.949 . S
C1813 H1808 0.950 . S
C1813 C1815 1.327 . S
C1813 C1819 1.429 . S
C1814 C1806 1.574 . S
C1814 H1809 0.949 . S
C1814 C1820 1.368 1_455 S
C1815 C1799 1.349 . S
C1815 H1807 0.950 . S
C1815 C1813 1.327 . S
C1816 C1804 1.349 . S
C1816 H1810 0.950 . S
C1816 C1817 1.327 . S
C1817 H1811 0.950 . S
C1817 C1816 1.327 . S
C1817 C1821 1.429 . S
C1818 C1801 1.574 . S
C1818 H1812 0.949 . S
C1818 C1822 1.368 1_655 S
C1819 C1800 1.429 . S
C1819 C1813 1.429 . S
C1819 C1820 1.523 . S
C1820 C1801 1.368 . S
C1820 C1814 1.368 1_655 S
C1820 C1819 1.523 . S
C1821 C1805 1.429 . S
C1821 C1817 1.429 . S
C1821 C1822 1.523 . S
C1822 C1806 1.368 . S
C1822 C1818 1.368 1_455 S
C1822 C1821 1.523 . S
H1823 C1798 0.950 . S
H1824 C1800 0.950 . S
H1825 C1801 0.949 . S
H1826 C1803 0.950 . S
H1827 C1805 0.950 . S
C1828 C1829 1.349 . S
C1828 C1830 1.319 1_556 S
C1828 H1853 0.950 1_556 S
C1829 C1828 1.349 . S
C1829 C1845 1.349 . S
C1830 C1828 1.319 1_554 S
C1830 C1849 1.413 1_554 S
C1830 H1854 0.975 . S
C1831 C1848 1.574 . S
C1831 C1850 1.368 1_655 S
C1831 H1855 0.949 . S
H1832 C1836 0.949 . S
C1833 C1834 1.349 . S
C1833 C1835 1.319 1_554 S
C1833 H1856 0.950 1_554 S
C1834 C1833 1.349 . S
C1834 C1846 1.349 . S
C1835 C1833 1.319 1_556 S
C1835 C1851 1.413 1_556 S
C1835 H1857 0.975 . S
C1836 H1832 0.949 . S
C1836 C1844 1.574 . S
C1836 C1852 1.368 1_455 S
H1837 C1845 0.950 . S
H1838 C1843 0.950 . S
H1839 C1844 0.949 . S
H1840 C1846 0.950 . S
H1841 C1847 0.950 . S
H1842 C1848 0.949 . S
C1843 H1838 0.950 . S
C1843 C1845 1.327 . S
C1843 C1849 1.429 . S
C1844 C1836 1.574 . S
C1844 H1839 0.949 . S
C1844 C1850 1.368 1_554 S
C1845 C1829 1.349 . S
C1845 H1837 0.950 . S
C1845 C1843 1.327 . S
C1846 C1834 1.349 . S
C1846 H1840 0.950 . S
C1846 C1847 1.327 . S
C1847 H1841 0.950 . S
C1847 C1846 1.327 . S
C1847 C1851 1.429 . S
C1848 C1831 1.574 . S
C1848 H1842 0.949 . S
C1848 C1852 1.368 1_556 S
C1849 C1830 1.413 1_556 S
C1849 C1843 1.429 . S
C1849 C1850 1.523 . S
C1850 C1831 1.368 1_455 S
C1850 C1844 1.368 1_556 S
C1850 C1849 1.523 . S
C1851 C1835 1.413 1_554 S
C1851 C1847 1.429 . S
C1851 C1852 1.523 . S
C1852 C1836 1.368 1_655 S
C1852 C1848 1.368 1_554 S
C1852 C1851 1.523 . S
H1853 C1828 0.950 1_554 S
H1854 C1830 0.975 . S
H1855 C1831 0.949 . S
H1856 C1833 0.950 1_556 S
H1857 C1835 0.975 . S
C1858 C1859 1.349 . S
C1858 C1860 1.327 . S
C1858 H1883 0.950 . S
C1859 C1858 1.349 . S
C1859 C1875 1.349 . S
C1860 C1858 1.327 . S
C1860 C1879 1.429 . S
C1860 H1884 0.950 . S
C1861 C1878 1.574 . S
C1861 C1880 1.368 . S
C1861 H1885 0.949 . S
H1862 C1866 0.949 . S
C1863 C1864 1.349 . S
C1863 C1865 1.327 . S
C1863 H1886 0.950 . S
C1864 C1863 1.349 . S
C1864 C1876 1.349 . S
C1865 C1863 1.327 . S
C1865 C1881 1.429 . S
C1865 H1887 0.950 . S
C1866 H1862 0.949 . S
C1866 C1874 1.574 . S
C1866 C1882 1.368 . S
H1867 C1875 0.950 . S
H1868 C1873 0.950 . S
H1869 C1874 0.949 . S
H1870 C1876 0.950 . S
H1871 C1877 0.950 . S
H1872 C1878 0.949 . S
C1873 H1868 0.950 . S
C1873 C1875 1.327 . S
C1873 C1879 1.429 . S
C1874 C1866 1.574 . S
C1874 H1869 0.949 . S
C1874 C1880 1.368 . S
C1875 C1859 1.349 . S
C1875 H1867 0.950 . S
C1875 C1873 1.327 . S
C1876 C1864 1.349 . S
C1876 H1870 0.950 . S
C1876 C1877 1.327 . S
C1877 H1871 0.950 . S
C1877 C1876 1.327 . S
C1877 C1881 1.429 . S
C1878 C1861 1.574 . S
C1878 H1872 0.949 . S
C1878 C1882 1.368 . S
C1879 C1860 1.429 . S
C1879 C1873 1.429 . S
C1879 C1880 1.523 . S
C1880 C1861 1.368 . S
C1880 C1874 1.368 . S
C1880 C1879 1.523 . S
C1881 C1865 1.429 . S
C1881 C1877 1.429 . S
C1881 C1882 1.523 . S
C1882 C1866 1.368 . S
C1882 C1878 1.368 . S
C1882 C1881 1.523 . S
H1883 C1858 0.950 . S
H1884 C1860 0.950 . S
H1885 C1861 0.949 . S
H1886 C1863 0.950 . S
H1887 C1865 0.950 . S
C1888 C1889 1.349 . S
C1888 C1890 1.327 . S
C1888 H1913 0.950 . S
C1889 C1888 1.349 . S
C1889 C1905 1.349 . S
C1890 C1888 1.327 . S
C1890 C1909 1.429 . S
C1890 H1914 0.950 . S
C1891 C1908 1.574 . S
C1891 C1910 1.368 . S
C1891 H1915 0.949 . S
H1892 C1896 0.949 . S
C1893 C1894 1.349 . S
C1893 C1895 1.327 . S
C1893 H1916 0.950 . S
C1894 C1893 1.349 . S
C1894 C1906 1.349 . S
C1895 C1893 1.327 . S
C1895 C1911 1.429 . S
C1895 H1917 0.950 . S
C1896 H1892 0.949 . S
C1896 C1904 1.574 . S
C1896 C1912 1.368 . S
H1897 C1905 0.950 . S
H1898 C1903 0.950 . S
H1899 C1904 0.949 . S
H1900 C1906 0.950 . S
H1901 C1907 0.950 . S
H1902 C1908 0.949 . S
C1903 H1898 0.950 . S
C1903 C1905 1.327 . S
C1903 C1909 1.429 . S
C1904 C1896 1.574 . S
C1904 H1899 0.949 . S
C1904 C1910 1.368 . S
C1905 C1889 1.349 . S
C1905 H1897 0.950 . S
C1905 C1903 1.327 . S
C1906 C1894 1.349 . S
C1906 H1900 0.950 . S
C1906 C1907 1.327 . S
C1907 H1901 0.950 . S
C1907 C1906 1.327 . S
C1907 C1911 1.429 . S
C1908 C1891 1.574 . S
C1908 H1902 0.949 . S
C1908 C1912 1.368 . S
C1909 C1890 1.429 . S
C1909 C1903 1.429 . S
C1909 C1910 1.523 . S
C1910 C1891 1.368 . S
C1910 C1904 1.368 . S
C1910 C1909 1.523 . S
C1911 C1895 1.429 . S
C1911 C1907 1.429 . S
C1911 C1912 1.523 . S
C1912 C1896 1.368 . S
C1912 C1908 1.368 . S
C1912 C1911 1.523 . S
H1913 C1888 0.950 . S
H1914 C1890 0.950 . S
H1915 C1891 0.949 . S
H1916 C1893 0.950 . S
H1917 C1895 0.950 . S
C1918 C1919 1.349 . S
C1918 C1920 1.327 . S
C1918 H1943 0.950 . S
C1919 C1918 1.349 . S
C1919 C1935 1.349 . S
C1920 C1918 1.327 . S
C1920 C1939 1.429 . S
C1920 H1944 0.950 . S
C1921 C1938 1.574 . S
C1921 C1940 1.368 . S
C1921 H1945 0.949 . S
H1922 C1926 0.949 . S
C1923 C1924 1.349 . S
C1923 C1925 1.327 . S
C1923 H1946 0.950 . S
C1924 C1923 1.349 . S
C1924 C1936 1.349 . S
C1925 C1923 1.327 . S
C1925 C1941 1.429 . S
C1925 H1947 0.950 . S
C1926 H1922 0.949 . S
C1926 C1934 1.574 . S
C1926 C1942 1.368 . S
H1927 C1935 0.950 . S
H1928 C1933 0.950 . S
H1929 C1934 0.949 . S
H1930 C1936 0.950 . S
H1931 C1937 0.950 . S
H1932 C1938 0.949 . S
C1933 H1928 0.950 . S
C1933 C1935 1.327 . S
C1933 C1939 1.429 . S
C1934 C1926 1.574 . S
C1934 H1929 0.949 . S
C1934 C1940 1.368 . S
C1935 C1919 1.349 . S
C1935 H1927 0.950 . S
C1935 C1933 1.327 . S
C1936 C1924 1.349 . S
C1936 H1930 0.950 . S
C1936 C1937 1.327 . S
C1937 H1931 0.950 . S
C1937 C1936 1.327 . S
C1937 C1941 1.429 . S
C1938 C1921 1.574 . S
C1938 H1932 0.949 . S
C1938 C1942 1.368 . S
C1939 C1920 1.429 . S
C1939 C1933 1.429 . S
C1939 C1940 1.523 . S
C1940 C1921 1.368 . S
C1940 C1934 1.368 . S
C1940 C1939 1.523 . S
C1941 C1925 1.429 . S
C1941 C1937 1.429 . S
C1941 C1942 1.523 . S
C1942 C1926 1.368 . S
C1942 C1938 1.368 . S
C1942 C1941 1.523 . S
H1943 C1918 0.950 . S
H1944 C1920 0.950 . S
H1945 C1921 0.949 . S
H1946 C1923 0.950 . S
H1947 C1925 0.950 . S
C1948 C1949 1.349 . S
C1948 C1950 1.327 . S
C1948 H1973 0.950 . S
C1949 C1948 1.349 . S
C1949 C1965 1.349 . S
C1950 C1948 1.327 . S
C1950 C1969 1.429 . S
C1950 H1974 0.950 . S
C1951 C1968 1.574 . S
C1951 C1970 1.368 . S
C1951 H1975 0.949 . S
H1952 C1956 0.949 . S
C1953 C1954 1.349 . S
C1953 C1955 1.327 . S
C1953 H1976 0.950 . S
C1954 C1953 1.349 . S
C1954 C1966 1.349 . S
C1955 C1953 1.327 . S
C1955 C1971 1.429 . S
C1955 H1977 0.950 . S
C1956 H1952 0.949 . S
C1956 C1964 1.574 . S
C1956 C1972 1.368 . S
H1957 C1965 0.950 . S
H1958 C1963 0.950 . S
H1959 C1964 0.949 . S
H1960 C1966 0.950 . S
H1961 C1967 0.950 . S
H1962 C1968 0.949 . S
C1963 H1958 0.950 . S
C1963 C1965 1.327 . S
C1963 C1969 1.429 . S
C1964 C1956 1.574 . S
C1964 H1959 0.949 . S
C1964 C1970 1.368 . S
C1965 C1949 1.349 . S
C1965 H1957 0.950 . S
C1965 C1963 1.327 . S
C1966 C1954 1.349 . S
C1966 H1960 0.950 . S
C1966 C1967 1.327 . S
C1967 H1961 0.950 . S
C1967 C1966 1.327 . S
C1967 C1971 1.429 . S
C1968 C1951 1.574 . S
C1968 H1962 0.949 . S
C1968 C1972 1.368 . S
C1969 C1950 1.429 . S
C1969 C1963 1.429 . S
C1969 C1970 1.523 . S
C1970 C1951 1.368 . S
C1970 C1964 1.368 . S
C1970 C1969 1.523 . S
C1971 C1955 1.429 . S
C1971 C1967 1.429 . S
C1971 C1972 1.523 . S
C1972 C1956 1.368 . S
C1972 C1968 1.368 . S
C1972 C1971 1.523 . S
H1973 C1948 0.950 . S
H1974 C1950 0.950 . S
H1975 C1951 0.949 . S
H1976 C1953 0.950 . S
H1977 C1955 0.950 . S
C1978 C1979 1.349 . S
C1978 C1980 1.327 . S
C1978 H2003 0.950 . S
C1979 C1978 1.349 . S
C1979 C1995 1.349 . S
C1980 C1978 1.327 . S
C1980 C1999 1.429 . S
C1980 H2004 0.950 . S
C1981 C1998 1.574 . S
C1981 C2000 1.368 . S
C1981 H2005 0.949 . S
H1982 C1986 0.949 . S
C1983 C1984 1.349 . S
C1983 C1985 1.327 . S
C1983 H2006 0.950 . S
C1984 C1983 1.349 . S
C1984 C1996 1.349 . S
C1985 C1983 1.327 . S
C1985 C2001 1.429 . S
C1985 H2007 0.950 . S
C1986 H1982 0.949 . S
C1986 C1994 1.574 . S
C1986 C2002 1.368 . S
H1987 C1995 0.950 . S
H1988 C1993 0.950 . S
H1989 C1994 0.949 . S
H1990 C1996 0.950 . S
H1991 C1997 0.950 . S
H1992 C1998 0.949 . S
C1993 H1988 0.950 . S
C1993 C1995 1.327 . S
C1993 C1999 1.429 . S
C1994 C1986 1.574 . S
C1994 H1989 0.949 . S
C1994 C2000 1.368 . S
C1995 C1979 1.349 . S
C1995 H1987 0.950 . S
C1995 C1993 1.327 . S
C1996 C1984 1.349 . S
C1996 H1990 0.950 . S
C1996 C1997 1.327 . S
C1997 H1991 0.950 . S
C1997 C1996 1.327 . S
C1997 C2001 1.429 . S
C1998 C1981 1.574 . S
C1998 H1992 0.949 . S
C1998 C2002 1.368 . S
C1999 C1980 1.429 . S
C1999 C1993 1.429 . S
C1999 C2000 1.523 . S
C2000 C1981 1.368 . S
C2000 C1994 1.368 . S
C2000 C1999 1.523 . S
C2001 C1985 1.429 . S
C2001 C1997 1.429 . S
C2001 C2002 1.523 . S
C2002 C1986 1.368 . S
C2002 C1998 1.368 . S
C2002 C2001 1.523 . S
H2003 C1978 0.950 . S
H2004 C1980 0.950 . S
H2005 C1981 0.949 . S
H2006 C1983 0.950 . S
H2007 C1985 0.950 . S
C2008 C2009 1.349 . S
C2008 C2010 1.327 . S
C2008 H2033 0.950 . S
C2009 C2008 1.349 . S
C2009 C2025 1.349 . S
C2010 C2008 1.327 . S
C2010 C2029 1.429 . S
C2010 H2034 0.950 . S
C2011 C2028 1.574 . S
C2011 C2030 1.368 . S
C2011 H2035 0.949 . S
H2012 C2016 0.949 . S
C2013 C2014 1.349 . S
C2013 C2015 1.327 . S
C2013 H2036 0.950 . S
C2014 C2013 1.349 . S
C2014 C2026 1.349 . S
C2015 C2013 1.327 . S
C2015 C2031 1.429 . S
C2015 H2037 0.950 . S
C2016 H2012 0.949 . S
C2016 C2024 1.574 . S
C2016 C2032 1.368 . S
H2017 C2025 0.950 . S
H2018 C2023 0.950 . S
H2019 C2024 0.949 . S
H2020 C2026 0.950 . S
H2021 C2027 0.950 . S
H2022 C2028 0.949 . S
C2023 H2018 0.950 . S
C2023 C2025 1.327 . S
C2023 C2029 1.429 . S
C2024 C2016 1.574 . S
C2024 H2019 0.949 . S
C2024 C2030 1.368 . S
C2025 C2009 1.349 . S
C2025 H2017 0.950 . S
C2025 C2023 1.327 . S
C2026 C2014 1.349 . S
C2026 H2020 0.950 . S
C2026 C2027 1.327 . S
C2027 H2021 0.950 . S
C2027 C2026 1.327 . S
C2027 C2031 1.429 . S
C2028 C2011 1.574 . S
C2028 H2022 0.949 . S
C2028 C2032 1.368 . S
C2029 C2010 1.429 . S
C2029 C2023 1.429 . S
C2029 C2030 1.523 . S
C2030 C2011 1.368 . S
C2030 C2024 1.368 . S
C2030 C2029 1.523 . S
C2031 C2015 1.429 . S
C2031 C2027 1.429 . S
C2031 C2032 1.523 . S
C2032 C2016 1.368 . S
C2032 C2028 1.368 . S
C2032 C2031 1.523 . S
H2033 C2008 0.950 . S
H2034 C2010 0.950 . S
H2035 C2011 0.949 . S
H2036 C2013 0.950 . S
H2037 C2015 0.950 . S
C2038 C2039 1.349 . S
C2038 C2040 1.327 . S
C2038 H2063 0.950 . S
C2039 C2038 1.349 . S
C2039 C2055 1.349 . S
C2040 C2038 1.327 . S
C2040 C2059 1.429 . S
C2040 H2064 0.950 . S
C2041 C2058 1.574 . S
C2041 C2060 1.368 . S
C2041 H2065 0.949 . S
H2042 C2046 0.949 . S
C2043 C2044 1.349 . S
C2043 C2045 1.327 . S
C2043 H2066 0.950 . S
C2044 C2043 1.349 . S
C2044 C2056 1.349 . S
C2045 C2043 1.327 . S
C2045 C2061 1.429 . S
C2045 H2067 0.950 . S
C2046 H2042 0.949 . S
C2046 C2054 1.574 . S
C2046 C2062 1.368 . S
H2047 C2055 0.950 . S
H2048 C2053 0.950 . S
H2049 C2054 0.949 . S
H2050 C2056 0.950 . S
H2051 C2057 0.950 . S
H2052 C2058 0.949 . S
C2053 H2048 0.950 . S
C2053 C2055 1.327 . S
C2053 C2059 1.429 . S
C2054 C2046 1.574 . S
C2054 H2049 0.949 . S
C2054 C2060 1.368 . S
C2055 C2039 1.349 . S
C2055 H2047 0.950 . S
C2055 C2053 1.327 . S
C2056 C2044 1.349 . S
C2056 H2050 0.950 . S
C2056 C2057 1.327 . S
C2057 H2051 0.950 . S
C2057 C2056 1.327 . S
C2057 C2061 1.429 . S
C2058 C2041 1.574 . S
C2058 H2052 0.949 . S
C2058 C2062 1.368 . S
C2059 C2040 1.429 . S
C2059 C2053 1.429 . S
C2059 C2060 1.523 . S
C2060 C2041 1.368 . S
C2060 C2054 1.368 . S
C2060 C2059 1.523 . S
C2061 C2045 1.429 . S
C2061 C2057 1.429 . S
C2061 C2062 1.523 . S
C2062 C2046 1.368 . S
C2062 C2058 1.368 . S
C2062 C2061 1.523 . S
H2063 C2038 0.950 . S
H2064 C2040 0.950 . S
H2065 C2041 0.949 . S
H2066 C2043 0.950 . S
H2067 C2045 0.950 . S
C2068 C2069 1.349 . S
C2068 C2070 1.327 . S
C2068 H2093 0.950 . S
C2069 C2068 1.349 . S
C2069 C2085 1.349 . S
C2070 C2068 1.327 . S
C2070 C2089 1.429 . S
C2070 H2094 0.950 . S
C2071 C2088 1.574 . S
C2071 C2090 1.368 . S
C2071 H2095 0.949 . S
H2072 C2076 0.949 . S
C2073 C2074 1.349 . S
C2073 C2075 1.327 . S
C2073 H2096 0.950 . S
C2074 C2073 1.349 . S
C2074 C2086 1.349 . S
C2075 C2073 1.327 . S
C2075 C2091 1.429 . S
C2075 H2097 0.950 . S
C2076 H2072 0.949 . S
C2076 C2084 1.574 . S
C2076 C2092 1.368 . S
H2077 C2085 0.950 . S
H2078 C2083 0.950 . S
H2079 C2084 0.949 . S
H2080 C2086 0.950 . S
H2081 C2087 0.950 . S
H2082 C2088 0.949 . S
C2083 H2078 0.950 . S
C2083 C2085 1.327 . S
C2083 C2089 1.429 . S
C2084 C2076 1.574 . S
C2084 H2079 0.949 . S
C2084 C2090 1.368 . S
C2085 C2069 1.349 . S
C2085 H2077 0.950 . S
C2085 C2083 1.327 . S
C2086 C2074 1.349 . S
C2086 H2080 0.950 . S
C2086 C2087 1.327 . S
C2087 H2081 0.950 . S
C2087 C2086 1.327 . S
C2087 C2091 1.429 . S
C2088 C2071 1.574 . S
C2088 H2082 0.949 . S
C2088 C2092 1.368 . S
C2089 C2070 1.429 . S
C2089 C2083 1.429 . S
C2089 C2090 1.523 . S
C2090 C2071 1.368 . S
C2090 C2084 1.368 . S
C2090 C2089 1.523 . S
C2091 C2075 1.429 . S
C2091 C2087 1.429 . S
C2091 C2092 1.523 . S
C2092 C2076 1.368 . S
C2092 C2088 1.368 . S
C2092 C2091 1.523 . S
H2093 C2068 0.950 . S
H2094 C2070 0.950 . S
H2095 C2071 0.949 . S
H2096 C2073 0.950 . S
H2097 C2075 0.950 . S
C2098 C2099 1.349 . S
C2098 C2100 1.327 . S
C2098 H2123 0.950 . S
C2099 C2098 1.349 . S
C2099 C2115 1.349 . S
C2100 C2098 1.327 . S
C2100 C2119 1.429 . S
C2100 H2124 0.950 . S
C2101 C2118 1.574 . S
C2101 C2120 1.368 . S
C2101 H2125 0.949 . S
H2102 C2106 0.949 . S
C2103 C2104 1.349 . S
C2103 C2105 1.327 . S
C2103 H2126 0.950 . S
C2104 C2103 1.349 . S
C2104 C2116 1.349 . S
C2105 C2103 1.327 . S
C2105 C2121 1.429 . S
C2105 H2127 0.950 . S
C2106 H2102 0.949 . S
C2106 C2114 1.574 . S
C2106 C2122 1.368 . S
H2107 C2115 0.950 . S
H2108 C2113 0.950 . S
H2109 C2114 0.949 . S
H2110 C2116 0.950 . S
H2111 C2117 0.950 . S
H2112 C2118 0.949 . S
C2113 H2108 0.950 . S
C2113 C2115 1.327 . S
C2113 C2119 1.429 . S
C2114 C2106 1.574 . S
C2114 H2109 0.949 . S
C2114 C2120 1.368 . S
C2115 C2099 1.349 . S
C2115 H2107 0.950 . S
C2115 C2113 1.327 . S
C2116 C2104 1.349 . S
C2116 H2110 0.950 . S
C2116 C2117 1.327 . S
C2117 H2111 0.950 . S
C2117 C2116 1.327 . S
C2117 C2121 1.429 . S
C2118 C2101 1.574 . S
C2118 H2112 0.949 . S
C2118 C2122 1.368 . S
C2119 C2100 1.429 . S
C2119 C2113 1.429 . S
C2119 C2120 1.523 . S
C2120 C2101 1.368 . S
C2120 C2114 1.368 . S
C2120 C2119 1.523 . S
C2121 C2105 1.429 . S
C2121 C2117 1.429 . S
C2121 C2122 1.523 . S
C2122 C2106 1.368 . S
C2122 C2118 1.368 . S
C2122 C2121 1.523 . S
H2123 C2098 0.950 . S
H2124 C2100 0.950 . S
H2125 C2101 0.949 . S
H2126 C2103 0.950 . S
H2127 C2105 0.950 . S
C2128 C2129 1.349 . S
C2128 C2130 1.327 . S
C2128 H2153 0.950 . S
C2129 C2128 1.349 . S
C2129 C2145 1.349 . S
C2130 C2128 1.327 . S
C2130 C2149 1.429 . S
C2130 H2154 0.950 . S
C2131 C2148 1.574 . S
C2131 C2150 1.368 . S
C2131 H2155 0.949 . S
H2132 C2136 0.949 . S
C2133 C2134 1.349 . S
C2133 C2135 1.327 . S
C2133 H2156 0.950 . S
C2134 C2133 1.349 . S
C2134 C2146 1.349 . S
C2135 C2133 1.327 . S
C2135 C2151 1.429 . S
C2135 H2157 0.950 . S
C2136 H2132 0.949 . S
C2136 C2144 1.574 . S
C2136 C2152 1.368 . S
H2137 C2145 0.950 . S
H2138 C2143 0.950 . S
H2139 C2144 0.949 . S
H2140 C2146 0.950 . S
H2141 C2147 0.950 . S
H2142 C2148 0.949 . S
C2143 H2138 0.950 . S
C2143 C2145 1.327 . S
C2143 C2149 1.429 . S
C2144 C2136 1.574 . S
C2144 H2139 0.949 . S
C2144 C2150 1.368 . S
C2145 C2129 1.349 . S
C2145 H2137 0.950 . S
C2145 C2143 1.327 . S
C2146 C2134 1.349 . S
C2146 H2140 0.950 . S
C2146 C2147 1.327 . S
C2147 H2141 0.950 . S
C2147 C2146 1.327 . S
C2147 C2151 1.429 . S
C2148 C2131 1.574 . S
C2148 H2142 0.949 . S
C2148 C2152 1.368 . S
C2149 C2130 1.429 . S
C2149 C2143 1.429 . S
C2149 C2150 1.523 . S
C2150 C2131 1.368 . S
C2150 C2144 1.368 . S
C2150 C2149 1.523 . S
C2151 C2135 1.429 . S
C2151 C2147 1.429 . S
C2151 C2152 1.523 . S
C2152 C2136 1.368 . S
C2152 C2148 1.368 . S
C2152 C2151 1.523 . S
H2153 C2128 0.950 . S
H2154 C2130 0.950 . S
H2155 C2131 0.949 . S
H2156 C2133 0.950 . S
H2157 C2135 0.950 . S
C2158 C2159 1.349 . S
C2158 C2160 1.327 . S
C2158 H2183 0.950 . S
C2159 C2158 1.349 . S
C2159 C2175 1.349 . S
C2160 C2158 1.327 . S
C2160 C2179 1.429 . S
C2160 H2184 0.950 . S
C2161 C2178 1.574 . S
C2161 C2180 1.368 . S
C2161 H2185 0.949 . S
H2162 C2166 0.949 . S
C2163 C2164 1.349 . S
C2163 C2165 1.327 . S
C2163 H2186 0.950 . S
C2164 C2163 1.349 . S
C2164 C2176 1.349 . S
C2165 C2163 1.327 . S
C2165 C2181 1.429 . S
C2165 H2187 0.950 . S
C2166 H2162 0.949 . S
C2166 C2174 1.574 . S
C2166 C2182 1.368 . S
H2167 C2175 0.950 . S
H2168 C2173 0.950 . S
H2169 C2174 0.949 . S
H2170 C2176 0.950 . S
H2171 C2177 0.950 . S
H2172 C2178 0.949 . S
C2173 H2168 0.950 . S
C2173 C2175 1.327 . S
C2173 C2179 1.429 . S
C2174 C2166 1.574 . S
C2174 H2169 0.949 . S
C2174 C2180 1.368 . S
C2175 C2159 1.349 . S
C2175 H2167 0.950 . S
C2175 C2173 1.327 . S
C2176 C2164 1.349 . S
C2176 H2170 0.950 . S
C2176 C2177 1.327 . S
C2177 H2171 0.950 . S
C2177 C2176 1.327 . S
C2177 C2181 1.429 . S
C2178 C2161 1.574 . S
C2178 H2172 0.949 . S
C2178 C2182 1.368 . S
C2179 C2160 1.429 . S
C2179 C2173 1.429 . S
C2179 C2180 1.523 . S
C2180 C2161 1.368 . S
C2180 C2174 1.368 . S
C2180 C2179 1.523 . S
C2181 C2165 1.429 . S
C2181 C2177 1.429 . S
C2181 C2182 1.523 . S
C2182 C2166 1.368 . S
C2182 C2178 1.368 . S
C2182 C2181 1.523 . S
H2183 C2158 0.950 . S
H2184 C2160 0.950 . S
H2185 C2161 0.949 . S
H2186 C2163 0.950 . S
H2187 C2165 0.950 . S
C2188 C2189 1.349 . S
C2188 C2190 1.327 . S
C2188 H2213 0.950 . S
C2189 C2188 1.349 . S
C2189 C2205 1.349 . S
C2190 C2188 1.327 . S
C2190 C2209 1.429 . S
C2190 H2214 0.950 . S
C2191 C2208 1.574 . S
C2191 C2210 1.368 . S
C2191 H2215 0.949 . S
H2192 C2196 0.949 . S
C2193 C2194 1.349 . S
C2193 C2195 1.327 . S
C2193 H2216 0.950 . S
C2194 C2193 1.349 . S
C2194 C2206 1.349 . S
C2195 C2193 1.327 . S
C2195 C2211 1.429 . S
C2195 H2217 0.950 . S
C2196 H2192 0.949 . S
C2196 C2204 1.574 . S
C2196 C2212 1.368 . S
H2197 C2205 0.950 . S
H2198 C2203 0.950 . S
H2199 C2204 0.949 . S
H2200 C2206 0.950 . S
H2201 C2207 0.950 . S
H2202 C2208 0.949 . S
C2203 H2198 0.950 . S
C2203 C2205 1.327 . S
C2203 C2209 1.429 . S
C2204 C2196 1.574 . S
C2204 H2199 0.949 . S
C2204 C2210 1.368 . S
C2205 C2189 1.349 . S
C2205 H2197 0.950 . S
C2205 C2203 1.327 . S
C2206 C2194 1.349 . S
C2206 H2200 0.950 . S
C2206 C2207 1.327 . S
C2207 H2201 0.950 . S
C2207 C2206 1.327 . S
C2207 C2211 1.429 . S
C2208 C2191 1.574 . S
C2208 H2202 0.949 . S
C2208 C2212 1.368 . S
C2209 C2190 1.429 . S
C2209 C2203 1.429 . S
C2209 C2210 1.523 . S
C2210 C2191 1.368 . S
C2210 C2204 1.368 . S
C2210 C2209 1.523 . S
C2211 C2195 1.429 . S
C2211 C2207 1.429 . S
C2211 C2212 1.523 . S
C2212 C2196 1.368 . S
C2212 C2208 1.368 . S
C2212 C2211 1.523 . S
H2213 C2188 0.950 . S
H2214 C2190 0.950 . S
H2215 C2191 0.949 . S
H2216 C2193 0.950 . S
H2217 C2195 0.950 . S
C2218 C2219 1.349 . S
C2218 C2220 1.327 . S
C2218 H2243 0.950 . S
C2219 C2218 1.349 . S
C2219 C2235 1.349 . S
C2220 C2218 1.327 . S
C2220 C2239 1.429 . S
C2220 H2244 0.950 . S
C2221 C2238 1.574 . S
C2221 C2240 1.368 . S
C2221 H2245 0.949 . S
H2222 C2226 0.949 . S
C2223 C2224 1.349 . S
C2223 C2225 1.327 . S
C2223 H2246 0.950 . S
C2224 C2223 1.349 . S
C2224 C2236 1.349 . S
C2225 C2223 1.327 . S
C2225 C2241 1.429 . S
C2225 H2247 0.950 . S
C2226 H2222 0.949 . S
C2226 C2234 1.574 . S
C2226 C2242 1.368 . S
H2227 C2235 0.950 . S
H2228 C2233 0.950 . S
H2229 C2234 0.949 . S
H2230 C2236 0.950 . S
H2231 C2237 0.950 . S
H2232 C2238 0.949 . S
C2233 H2228 0.950 . S
C2233 C2235 1.327 . S
C2233 C2239 1.429 . S
C2234 C2226 1.574 . S
C2234 H2229 0.949 . S
C2234 C2240 1.368 . S
C2235 C2219 1.349 . S
C2235 H2227 0.950 . S
C2235 C2233 1.327 . S
C2236 C2224 1.349 . S
C2236 H2230 0.950 . S
C2236 C2237 1.327 . S
C2237 H2231 0.950 . S
C2237 C2236 1.327 . S
C2237 C2241 1.429 . S
C2238 C2221 1.574 . S
C2238 H2232 0.949 . S
C2238 C2242 1.368 . S
C2239 C2220 1.429 . S
C2239 C2233 1.429 . S
C2239 C2240 1.523 . S
C2240 C2221 1.368 . S
C2240 C2234 1.368 . S
C2240 C2239 1.523 . S
C2241 C2225 1.429 . S
C2241 C2237 1.429 . S
C2241 C2242 1.523 . S
C2242 C2226 1.368 . S
C2242 C2238 1.368 . S
C2242 C2241 1.523 . S
H2243 C2218 0.950 . S
H2244 C2220 0.950 . S
H2245 C2221 0.949 . S
H2246 C2223 0.950 . S
H2247 C2225 0.950 . S
C2248 C2249 1.349 . S
C2248 C2250 1.327 . S
C2248 H2273 0.950 . S
C2249 C2248 1.349 . S
C2249 C2265 1.349 . S
C2250 C2248 1.327 . S
C2250 C2269 1.429 . S
C2250 H2274 0.950 . S
C2251 C2268 1.574 . S
C2251 C2270 1.368 . S
C2251 H2275 0.949 . S
H2252 C2256 0.949 . S
C2253 C2254 1.349 . S
C2253 C2255 1.327 . S
C2253 H2276 0.950 . S
C2254 C2253 1.349 . S
C2254 C2266 1.349 . S
C2255 C2253 1.327 . S
C2255 C2271 1.429 . S
C2255 H2277 0.950 . S
C2256 H2252 0.949 . S
C2256 C2264 1.574 . S
C2256 C2272 1.368 . S
H2257 C2265 0.950 . S
H2258 C2263 0.950 . S
H2259 C2264 0.949 . S
H2260 C2266 0.950 . S
H2261 C2267 0.950 . S
H2262 C2268 0.949 . S
C2263 H2258 0.950 . S
C2263 C2265 1.327 . S
C2263 C2269 1.429 . S
C2264 C2256 1.574 . S
C2264 H2259 0.949 . S
C2264 C2270 1.368 . S
C2265 C2249 1.349 . S
C2265 H2257 0.950 . S
C2265 C2263 1.327 . S
C2266 C2254 1.349 . S
C2266 H2260 0.950 . S
C2266 C2267 1.327 . S
C2267 H2261 0.950 . S
C2267 C2266 1.327 . S
C2267 C2271 1.429 . S
C2268 C2251 1.574 . S
C2268 H2262 0.949 . S
C2268 C2272 1.368 . S
C2269 C2250 1.429 . S
C2269 C2263 1.429 . S
C2269 C2270 1.523 . S
C2270 C2251 1.368 . S
C2270 C2264 1.368 . S
C2270 C2269 1.523 . S
C2271 C2255 1.429 . S
C2271 C2267 1.429 . S
C2271 C2272 1.523 . S
C2272 C2256 1.368 . S
C2272 C2268 1.368 . S
C2272 C2271 1.523 . S
H2273 C2248 0.950 . S
H2274 C2250 0.950 . S
H2275 C2251 0.949 . S
H2276 C2253 0.950 . S
H2277 C2255 0.950 . S
C2278 C2279 1.349 . S
C2278 C2280 1.327 . S
C2278 H2303 0.950 . S
C2279 C2278 1.349 . S
C2279 C2295 1.349 . S
C2280 C2278 1.327 . S
C2280 C2299 1.429 . S
C2280 H2304 0.950 . S
C2281 C2298 1.574 . S
C2281 C2300 1.368 . S
C2281 H2305 0.949 . S
H2282 C2286 0.949 . S
C2283 C2284 1.349 . S
C2283 C2285 1.327 . S
C2283 H2306 0.950 . S
C2284 C2283 1.349 . S
C2284 C2296 1.349 . S
C2285 C2283 1.327 . S
C2285 C2301 1.429 . S
C2285 H2307 0.950 . S
C2286 H2282 0.949 . S
C2286 C2294 1.574 . S
C2286 C2302 1.368 . S
H2287 C2295 0.950 . S
H2288 C2293 0.950 . S
H2289 C2294 0.949 . S
H2290 C2296 0.950 . S
H2291 C2297 0.950 . S
H2292 C2298 0.949 . S
C2293 H2288 0.950 . S
C2293 C2295 1.327 . S
C2293 C2299 1.429 . S
C2294 C2286 1.574 . S
C2294 H2289 0.949 . S
C2294 C2300 1.368 . S
C2295 C2279 1.349 . S
C2295 H2287 0.950 . S
C2295 C2293 1.327 . S
C2296 C2284 1.349 . S
C2296 H2290 0.950 . S
C2296 C2297 1.327 . S
C2297 H2291 0.950 . S
C2297 C2296 1.327 . S
C2297 C2301 1.429 . S
C2298 C2281 1.574 . S
C2298 H2292 0.949 . S
C2298 C2302 1.368 . S
C2299 C2280 1.429 . S
C2299 C2293 1.429 . S
C2299 C2300 1.523 . S
C2300 C2281 1.368 . S
C2300 C2294 1.368 . S
C2300 C2299 1.523 . S
C2301 C2285 1.429 . S
C2301 C2297 1.429 . S
C2301 C2302 1.523 . S
C2302 C2286 1.368 . S
C2302 C2298 1.368 . S
C2302 C2301 1.523 . S
H2303 C2278 0.950 . S
H2304 C2280 0.950 . S
H2305 C2281 0.949 . S
H2306 C2283 0.950 . S
H2307 C2285 0.950 . S
C2308 C2309 1.349 . S
C2308 C2310 1.327 . S
C2308 H2333 0.950 . S
C2309 C2308 1.349 . S
C2309 C2325 1.349 . S
C2310 C2308 1.327 . S
C2310 C2329 1.429 . S
C2310 H2334 0.950 . S
C2311 C2328 1.574 . S
C2311 C2330 1.368 . S
C2311 H2335 0.949 . S
H2312 C2316 0.949 . S
C2313 C2314 1.349 . S
C2313 C2315 1.327 . S
C2313 H2336 0.950 . S
C2314 C2313 1.349 . S
C2314 C2326 1.349 . S
C2315 C2313 1.327 . S
C2315 C2331 1.429 . S
C2315 H2337 0.950 . S
C2316 H2312 0.949 . S
C2316 C2324 1.574 . S
C2316 C2332 1.368 . S
H2317 C2325 0.950 . S
H2318 C2323 0.950 . S
H2319 C2324 0.949 . S
H2320 C2326 0.950 . S
H2321 C2327 0.950 . S
H2322 C2328 0.949 . S
C2323 H2318 0.950 . S
C2323 C2325 1.327 . S
C2323 C2329 1.429 . S
C2324 C2316 1.574 . S
C2324 H2319 0.949 . S
C2324 C2330 1.368 . S
C2325 C2309 1.349 . S
C2325 H2317 0.950 . S
C2325 C2323 1.327 . S
C2326 C2314 1.349 . S
C2326 H2320 0.950 . S
C2326 C2327 1.327 . S
C2327 H2321 0.950 . S
C2327 C2326 1.327 . S
C2327 C2331 1.429 . S
C2328 C2311 1.574 . S
C2328 H2322 0.949 . S
C2328 C2332 1.368 . S
C2329 C2310 1.429 . S
C2329 C2323 1.429 . S
C2329 C2330 1.523 . S
C2330 C2311 1.368 . S
C2330 C2324 1.368 . S
C2330 C2329 1.523 . S
C2331 C2315 1.429 . S
C2331 C2327 1.429 . S
C2331 C2332 1.523 . S
C2332 C2316 1.368 . S
C2332 C2328 1.368 . S
C2332 C2331 1.523 . S
H2333 C2308 0.950 . S
H2334 C2310 0.950 . S
H2335 C2311 0.949 . S
H2336 C2313 0.950 . S
H2337 C2315 0.950 . S
C2338 C2339 1.349 . S
C2338 C2340 1.327 . S
C2338 H2363 0.950 . S
C2339 C2338 1.349 . S
C2339 C2355 1.349 . S
C2340 C2338 1.327 . S
C2340 C2359 1.429 . S
C2340 H2364 0.950 . S
C2341 C2358 1.574 . S
C2341 C2360 1.368 . S
C2341 H2365 0.949 . S
H2342 C2346 0.949 . S
C2343 C2344 1.349 . S
C2343 C2345 1.327 . S
C2343 H2366 0.950 . S
C2344 C2343 1.349 . S
C2344 C2356 1.349 . S
C2345 C2343 1.327 . S
C2345 C2361 1.429 . S
C2345 H2367 0.950 . S
C2346 H2342 0.949 . S
C2346 C2354 1.574 . S
C2346 C2362 1.368 . S
H2347 C2355 0.950 . S
H2348 C2353 0.950 . S
H2349 C2354 0.949 . S
H2350 C2356 0.950 . S
H2351 C2357 0.950 . S
H2352 C2358 0.949 . S
C2353 H2348 0.950 . S
C2353 C2355 1.327 . S
C2353 C2359 1.429 . S
C2354 C2346 1.574 . S
C2354 H2349 0.949 . S
C2354 C2360 1.368 . S
C2355 C2339 1.349 . S
C2355 H2347 0.950 . S
C2355 C2353 1.327 . S
C2356 C2344 1.349 . S
C2356 H2350 0.950 . S
C2356 C2357 1.327 . S
C2357 H2351 0.950 . S
C2357 C2356 1.327 . S
C2357 C2361 1.429 . S
C2358 C2341 1.574 . S
C2358 H2352 0.949 . S
C2358 C2362 1.368 . S
C2359 C2340 1.429 . S
C2359 C2353 1.429 . S
C2359 C2360 1.523 . S
C2360 C2341 1.368 . S
C2360 C2354 1.368 . S
C2360 C2359 1.523 . S
C2361 C2345 1.429 . S
C2361 C2357 1.429 . S
C2361 C2362 1.523 . S
C2362 C2346 1.368 . S
C2362 C2358 1.368 . S
C2362 C2361 1.523 . S
H2363 C2338 0.950 . S
H2364 C2340 0.950 . S
H2365 C2341 0.949 . S
H2366 C2343 0.950 . S
H2367 C2345 0.950 . S
C449 C135 1.495 . S
C454 C8 1.560 . S
C479 C22 1.560 . S
C484 C373 1.495 . S
C509 C163 1.495 . S
C514 C36 1.560 . S
C539 C345 1.495 . S
C544 C50 1.560 . S
C569 C64 1.560 . S
C574 C219 1.495 . S
C599 C401 1.495 . S
C604 C78 1.560 . S
C629 C92 1.560 . S
C634 C191 1.495 . S
C659 C429 1.495 . S
C664 C106 1.560 . S
C689 C23 1.495 . S
C694 C120 1.560 . S
C719 C134 1.560 . S
C724 C261 1.495 . S
C749 C51 1.495 . S
C754 C148 1.560 . S
C779 C162 1.560 . S
C784 C233 1.495 . S
C809 C176 1.560 . S
C814 C107 1.495 . S
C839 C289 1.495 . S
C844 C190 1.560 . S
C869 C204 1.560 . S
C874 C79 1.495 . S
C899 C317 1.495 . S
C904 C218 1.560 . S
C929 C359 1.495 . S
C934 C232 1.560 . S
C959 C149 1.495 . S
C964 C246 1.560 . S
C989 C260 1.560 . S
C994 C387 1.495 . S
C1019 C121 1.495 . S
C1024 C274 1.560 . S
C1049 C443 1.495 . S
C1054 C288 1.560 . S
C1079 C302 1.560 . S
C1084 C177 1.495 . S
C1109 C415 1.495 . S
C1114 C316 1.560 . S
C1139 C205 1.495 . S
C1144 C330 1.560 . S
C1169 C247 1.495 . S
C1174 C344 1.560 . S
C1199 C358 1.560 . S
C1204 C37 1.495 . S
C1229 C372 1.560 . S
C1234 C275 1.495 . S
C1259 C386 1.560 . S
C1264 C9 1.495 . S
C1289 C331 1.495 . S
C1294 C400 1.560 . S
C1319 C414 1.560 . S
C1324 C65 1.495 . S
C1349 C428 1.560 . S
C1354 C303 1.495 . S
C1379 C442 1.560 . S
C1384 C93 1.495 . S
C1409 C342 1.364 . S
C1414 C6 1.364 . S
C1439 C20 1.364 . S
C1444 C132 1.364 . S
C1469 C34 1.364 . S
C1474 C370 1.364 . S
C1499 C48 1.364 . S
C1504 C160 1.364 . S
C1529 C62 1.364 . S
C1534 C398 1.364 . S
C1559 C76 1.364 . S
C1564 C188 1.364 . S
C1589 C426 1.364 . S
C1594 C90 1.364 . S
C1619 C104 1.364 . S
C1624 C216 1.364 . S
C1649 C118 1.364 . S
C1654 C230 1.364 . S
C1679 C146 1.364 . S
C1684 C258 1.364 . S
C1709 C286 1.364 . S
C1714 C174 1.364 . S
C1739 C314 1.364 . S
C1744 C202 1.364 . S
C1769 C244 1.364 . S
C1774 C356 1.364 . S
C1799 C384 1.364 . S
C1804 C272 1.364 . S
C1829 C300 1.364 . S
C1834 C412 1.364 . S
C1859 C440 1.364 . S
C1864 C328 1.364 . S
C1889 C301 1.305 . S
C1894 C7 1.305 . S
C1919 C315 1.305 . S
C1924 C21 1.305 . S
C1949 C35 1.305 . S
C1954 C329 1.305 . S
C1979 C287 1.305 . S
C1984 C49 1.305 . S
C2009 C273 1.305 . S
C2014 C63 1.305 . S
C2039 C231 1.305 . S
C2044 C77 1.305 . S
C2069 C91 1.305 . S
C2074 C245 1.305 . S
C2099 C259 1.305 . S
C2104 C105 1.305 . S
C2129 C413 1.305 . S
C2134 C119 1.305 . S
C2159 C427 1.305 . S
C2164 C133 1.305 . S
C2189 C441 1.305 . S
C2194 C147 1.305 . S
C2219 C161 1.305 . S
C2224 C399 1.305 . S
C2249 C385 1.305 . S
C2254 C175 1.305 . S
C2279 C343 1.305 . S
C2284 C189 1.305 . S
C2309 C357 1.305 . S
C2314 C203 1.305 . S
C2339 C371 1.305 . S
C2344 C217 1.305 . S
