# Generated by pormake.
# Topology mok, (4)-cn, num edge types: 1
# Building blocks:
#     Node 0, Type 0, BuildingBlock: AZAVOO_clean_sbu_0, # of connection points: 4
#     Node 1, Type 0, BuildingBlock: AZAVOO_clean_sbu_0, # of connection points: 4
#     Node 2, Type 0, BuildingBlock: AZAVOO_clean_sbu_0, # of connection points: 4
#     Node 3, Type 0, BuildingBlock: AZAVOO_clean_sbu_0, # of connection points: 4
#     Node 4, Type 0, BuildingBlock: AZAVOO_clean_sbu_0, # of connection points: 4
#     Node 5, Type 0, BuildingBlock: AZAVOO_clean_sbu_0, # of connection points: 4
#     Node 6, Type 0, BuildingBlock: AZAVOO_clean_sbu_0, # of connection points: 4
#     Node 7, Type 0, BuildingBlock: AZAVOO_clean_sbu_0, # of connection points: 4
#     Edge 8, Type (0, 0), BuildingBlock: UVAHIK_clean_linker_0, # of connection points: 2
#     Edge 9, Type (0, 0), BuildingBlock: UVAHIK_clean_linker_0, # of connection points: 2
#     Edge 10, Type (0, 0), BuildingBlock: UVAHIK_clean_linker_0, # of connection points: 2
#     Edge 11, Type (0, 0), BuildingBlock: UVAHIK_clean_linker_0, # of connection points: 2
#     Edge 12, Type (0, 0), BuildingBlock: UVAHIK_clean_linker_0, # of connection points: 2
#     Edge 13, Type (0, 0), BuildingBlock: UVAHIK_clean_linker_0, # of connection points: 2
#     Edge 14, Type (0, 0), BuildingBlock: UVAHIK_clean_linker_0, # of connection points: 2
#     Edge 15, Type (0, 0), BuildingBlock: UVAHIK_clean_linker_0, # of connection points: 2
#     Edge 16, Type (0, 0), BuildingBlock: UVAHIK_clean_linker_0, # of connection points: 2
#     Edge 17, Type (0, 0), BuildingBlock: UVAHIK_clean_linker_0, # of connection points: 2
#     Edge 18, Type (0, 0), BuildingBlock: UVAHIK_clean_linker_0, # of connection points: 2
#     Edge 19, Type (0, 0), BuildingBlock: UVAHIK_clean_linker_0, # of connection points: 2
#     Edge 20, Type (0, 0), BuildingBlock: UVAHIK_clean_linker_0, # of connection points: 2
#     Edge 21, Type (0, 0), BuildingBlock: UVAHIK_clean_linker_0, # of connection points: 2
#     Edge 22, Type (0, 0), BuildingBlock: UVAHIK_clean_linker_0, # of connection points: 2
#     Edge 23, Type (0, 0), BuildingBlock: UVAHIK_clean_linker_0, # of connection points: 2
# Relax obj value: 0.033
# Max RMSD: 0.042
# Mean RMSD: 0.042
data_MOF--net-mok--node1-AZAVOO_clean_sbu_0--edge1-UVAHIK_clean_linker_0
_symmetry_space_group_name_H-M    P1
_symmetry_Int_Tables_number       1
_symmetry_cell_setting            triclinic
loop_
_symmetry_equiv_pos_as_xyz
'x, y, z'
_cell_length_a     56.104738
_cell_length_b     27.600242
_cell_length_c     34.440905
_cell_angle_alpha  89.965429
_cell_angle_beta   90.081629
_cell_angle_gamma 90.013329
loop_
_atom_site_label
_atom_site_type_symbol
_atom_site_fract_x
_atom_site_fract_y
_atom_site_fract_z
_atom_type_partial_charge
Mg0 Mg 0.57356 0.32155 -0.0043 0.0
O1 O 0.61155 0.29295 0.00601 0.0
O2 O 0.61192 0.25625 0.06389 0.0
Mg3 Mg 0.57423 0.25739 0.08852 0.0
C4 C 0.62248 0.27033 0.03307 0.0
C5 C 0.59899 0.36868 0.92503 0.0
O6 O 0.61259 0.38529 0.95312 0.0
O7 O 0.56111 0.24602 0.97978 0.0
O8 O 0.56191 0.2092 0.03767 0.0
O9 O 0.58257 0.38895 0.02757 0.0
O10 O 0.56726 0.32346 0.05499 0.0
C11 C 0.55803 0.20873 0.00108 0.0
C12 C 0.57597 0.36638 0.05871 0.0
O13 O 0.58228 0.33933 0.93321 0.0
Mg14 Mg 0.43147 0.65759 0.99229 0.0
O15 O 0.39271 0.67864 0.00607 0.0
O16 O 0.39232 0.71228 0.06511 0.0
Mg17 Mg 0.43049 0.71594 0.08746 0.0
C18 C 0.3816 0.69793 0.03449 0.0
C19 C 0.40535 0.61221 0.92215 0.0
O20 O 0.39376 0.59176 0.95095 0.0
O21 O 0.4401 0.73591 0.97895 0.0
O22 O 0.43979 0.76918 0.0381 0.0
O23 O 0.42652 0.58658 0.02105 0.0
O24 O 0.43904 0.6525 0.05135 0.0
C25 C 0.4425 0.77236 0.00133 0.0
C26 C 0.43243 0.60779 0.05317 0.0
O27 O 0.42153 0.643 0.92971 0.0
Mg28 Mg 0.57193 0.66047 0.4855 0.0
O29 O 0.60978 0.68885 0.47398 0.0
O30 O 0.60979 0.72277 0.41501 0.0
Mg31 Mg 0.57196 0.71987 0.39076 0.0
C32 C 0.62053 0.71027 0.44615 0.0
C33 C 0.56701 0.61427 0.56298 0.0
O34 O 0.5493 0.59795 0.54164 0.0
O35 O 0.55938 0.73656 0.49914 0.0
O36 O 0.5595 0.77037 0.44009 0.0
O37 O 0.581 0.59163 0.45596 0.0
O38 O 0.56534 0.65537 0.42638 0.0
C39 C 0.55587 0.77265 0.4767 0.0
C40 C 0.57418 0.61239 0.42411 0.0
O41 O 0.58109 0.64521 0.54827 0.0
Mg42 Mg 0.42039 0.316 0.48295 0.0
O43 O 0.38114 0.29394 0.47439 0.0
O44 O 0.37896 0.25524 0.41747 0.0
Mg45 Mg 0.41606 0.25031 0.39113 0.0
C46 C 0.3692 0.27195 0.44813 0.0
C47 C 0.42434 0.37647 0.55383 0.0
O48 O 0.4386 0.39573 0.52781 0.0
O49 O 0.42986 0.23893 0.49972 0.0
O50 O 0.42772 0.20168 0.44215 0.0
O51 O 0.41436 0.38443 0.45096 0.0
O52 O 0.42585 0.3162 0.42309 0.0
C53 C 0.43177 0.2011 0.47869 0.0
C54 C 0.41949 0.36089 0.4196 0.0
O55 O 0.41316 0.33795 0.54512 0.0
Mg56 Mg 0.07938 0.82912 -0.00452 0.0
O57 O 0.11766 0.80247 0.0069 0.0
O58 O 0.11788 0.76842 0.06586 0.0
Mg59 Mg 0.08033 0.77086 0.09078 0.0
C60 C 0.12853 0.78125 0.03477 0.0
C61 C 0.10297 0.87382 0.92231 0.0
O62 O 0.11522 0.89595 0.94958 0.0
O63 O 0.06734 0.75236 0.98312 0.0
O64 O 0.06745 0.71937 0.0424 0.0
O65 O 0.08748 0.89943 0.02366 0.0
O66 O 0.07355 0.83545 0.05494 0.0
C67 C 0.06377 0.71661 0.00583 0.0
C68 C 0.08153 0.87925 0.05617 0.0
O69 O 0.08766 0.84213 0.93197 0.0
Mg70 Mg 0.92868 0.17518 0.00542 0.0
O71 O 0.88897 0.19391 0.01263 0.0
O72 O 0.88509 0.23387 0.06874 0.0
Mg73 Mg 0.92193 0.24455 0.09515 0.0
C74 C 0.87616 0.215 0.03818 0.0
C75 C 0.93157 0.11028 0.93562 0.0
O76 O 0.94523 0.08965 0.96188 0.0
O77 O 0.93669 0.25221 0.98668 0.0
O78 O 0.93292 0.29184 0.04294 0.0
O79 O 0.92346 0.10798 0.0392 0.0
O80 O 0.93357 0.17808 0.06556 0.0
C81 C 0.93745 0.29115 0.00657 0.0
C82 C 0.92755 0.13332 0.07009 0.0
O83 O 0.92172 0.15045 0.94373 0.0
Mg84 Mg 0.06402 0.16801 0.48528 0.0
O85 O 0.10332 0.19035 0.47768 0.0
O86 O 0.10621 0.22847 0.42055 0.0
Mg87 Mg 0.06923 0.23463 0.39388 0.0
C88 C 0.1156 0.21172 0.45154 0.0
C89 C 0.06151 0.10637 0.55694 0.0
O90 O 0.04766 0.08477 0.53146 0.0
O91 O 0.05419 0.24491 0.50213 0.0
O92 O 0.05738 0.28274 0.44493 0.0
O93 O 0.07091 0.10007 0.45326 0.0
O94 O 0.05931 0.16809 0.42505 0.0
C95 C 0.05278 0.28301 0.48127 0.0
C96 C 0.06644 0.12385 0.42169 0.0
O97 O 0.07133 0.14616 0.54759 0.0
Mg98 Mg 0.92327 0.83576 0.49592 0.0
O99 O 0.88447 0.81421 0.48246 0.0
O100 O 0.88386 0.78306 0.42253 0.0
Mg101 Mg 0.92178 0.78179 0.3991 0.0
C102 C 0.87327 0.79576 0.45369 0.0
C103 C 0.89856 0.87833 0.56852 0.0
O104 O 0.88676 0.90077 0.54087 0.0
O105 O 0.93282 0.75716 0.5066 0.0
O106 O 0.93235 0.72674 0.44648 0.0
O107 O 0.91749 0.90802 0.46944 0.0
O108 O 0.93006 0.84393 0.43686 0.0
C109 C 0.9355 0.72196 0.48305 0.0
C110 C 0.92318 0.88853 0.43656 0.0
O111 O 0.9142 0.84714 0.55931 0.0
C112 C 0.83962 0.21278 -0.00404 0.0
C113 C 0.85002 0.21667 0.03301 0.0
C114 C 0.81482 0.21493 0.99157 0.0
C115 C 0.75942 0.19191 0.04305 0.0
H116 H 0.7307 0.29069 0.978 0.0
C117 C 0.66172 0.24638 0.06163 0.0
C118 C 0.6483 0.26053 0.02907 0.0
C119 C 0.6861 0.23757 0.05838 0.0
C120 C 0.73835 0.26223 -0.00431 0.0
H121 H 0.84262 0.22493 0.09449 0.0
H122 H 0.79945 0.22749 0.08682 0.0
H123 H 0.77397 0.28042 0.97824 0.0
H124 H 0.64998 0.276 0.96735 0.0
H125 H 0.69256 0.25924 0.96147 0.0
H126 H 0.7241 0.1731 0.0604 0.0
C127 C 0.81047 0.22326 0.06122 0.0
C128 C 0.76313 0.25651 -0.00412 0.0
C129 C 0.83517 0.2221 0.06554 0.0
C130 C 0.65985 0.26535 -0.00693 0.0
C131 C 0.68428 0.25596 0.98972 0.0
C132 C 0.73469 0.19705 0.04244 0.0
C133 C 0.80008 0.21985 0.02425 0.0
C134 C 0.77387 0.22211 0.02029 0.0
C135 C 0.69772 0.242 0.0224 0.0
C136 C 0.72385 0.23317 0.01959 0.0
H137 H 0.85064 0.20871 0.97037 0.0
H138 H 0.80714 0.2122 0.96278 0.0
H139 H 0.76732 0.16468 0.06173 0.0
H140 H 0.65348 0.2428 0.08988 0.0
H141 H 0.6959 0.22811 0.08442 0.0
C142 C 0.16621 0.77434 -0.00435 0.0
C143 C 0.15446 0.77212 0.03168 0.0
C144 C 0.19079 0.76603 -0.00668 0.0
C145 C 0.2451 0.77427 0.05102 0.0
H146 H 0.272 0.68023 0.97989 0.0
C147 C 0.34219 0.71326 0.06582 0.0
C148 C 0.35547 0.7045 0.032 0.0
C149 C 0.31768 0.72114 0.06376 0.0
C150 C 0.26485 0.70719 -0.0005 0.0
H151 H 0.15935 0.75955 0.09343 0.0
H152 H 0.20213 0.74598 0.0893 0.0
H153 H 0.22909 0.69592 0.97912 0.0
H154 H 0.35335 0.6966 0.96944 0.0
H155 H 0.31054 0.71186 0.96567 0.0
H156 H 0.28058 0.78654 0.07108 0.0
C157 C 0.19232 0.75391 0.06293 0.0
C158 C 0.24028 0.71602 -0.00092 0.0
C159 C 0.1678 0.76145 0.06521 0.0
C160 C 0.34359 0.70314 -0.00395 0.0
C161 C 0.31903 0.71168 -0.00608 0.0
C162 C 0.26961 0.76598 0.05112 0.0
C163 C 0.20407 0.75625 0.02703 0.0
C164 C 0.23018 0.74907 0.02529 0.0
C165 C 0.3058 0.72121 0.02776 0.0
C166 C 0.27979 0.73171 0.02586 0.0
H167 H 0.15642 0.78233 0.96928 0.0
H168 H 0.1995 0.76817 0.96531 0.0
H169 H 0.23777 0.80051 0.07111 0.0
H170 H 0.35072 0.71388 0.09405 0.0
H171 H 0.30803 0.72702 0.09055 0.0
C172 C 0.83375 0.78229 0.42193 0.0
C173 C 0.84712 0.78938 0.45601 0.0
C174 C 0.80908 0.77645 0.42365 0.0
C175 C 0.76083 0.7357 0.48574 0.0
H176 H 0.72087 0.80988 0.41558 0.0
C177 C 0.65783 0.71895 0.48602 0.0
C178 C 0.64632 0.72076 0.44976 0.0
C179 C 0.68215 0.72952 0.48915 0.0
C180 C 0.73175 0.78839 0.43504 0.0
H181 H 0.84505 0.7955 0.51873 0.0
H182 H 0.80174 0.78427 0.52169 0.0
H183 H 0.76371 0.82402 0.41668 0.0
H184 H 0.65148 0.73403 0.38823 0.0
H185 H 0.69381 0.75085 0.39345 0.0
H186 H 0.72907 0.69874 0.50317 0.0
C187 C 0.81052 0.78359 0.49369 0.0
C188 C 0.75628 0.79675 0.43579 0.0
C189 C 0.83524 0.79021 0.49195 0.0
C190 C 0.65971 0.73282 0.41669 0.0
C191 C 0.68401 0.74281 0.41974 0.0
C192 C 0.73628 0.72686 0.48467 0.0
C193 C 0.79724 0.77693 0.4595 0.0
C194 C 0.77108 0.77015 0.46082 0.0
C195 C 0.69555 0.74165 0.45602 0.0
C196 C 0.72147 0.7527 0.45894 0.0
H197 H 0.84231 0.78162 0.39376 0.0
H198 H 0.79928 0.77091 0.39689 0.0
H199 H 0.77191 0.71445 0.5051 0.0
H200 H 0.64799 0.71 0.51209 0.0
H201 H 0.69035 0.72881 0.51762 0.0
C202 C 0.15245 0.21334 0.49324 0.0
C203 C 0.14171 0.21595 0.45635 0.0
C204 C 0.17723 0.2174 0.49711 0.0
C205 C 0.23222 0.19607 0.44443 0.0
H206 H 0.26112 0.29689 0.50719 0.0
C207 C 0.32909 0.25192 0.42107 0.0
C208 C 0.34321 0.26509 0.45309 0.0
C209 C 0.30471 0.24405 0.42535 0.0
C210 C 0.25339 0.26794 0.4901 0.0
H211 H 0.14854 0.22429 0.39468 0.0
H212 H 0.19164 0.23017 0.40148 0.0
H213 H 0.21786 0.28522 0.50867 0.0
H214 H 0.34268 0.28064 0.51481 0.0
H215 H 0.29999 0.26572 0.52252 0.0
H216 H 0.26741 0.17818 0.42592 0.0
C217 C 0.1809 0.22545 0.42733 0.0
C218 C 0.22865 0.26141 0.49092 0.0
C219 C 0.15622 0.22235 0.42352 0.0
C220 C 0.33227 0.27067 0.48954 0.0
C221 C 0.3078 0.26226 0.49392 0.0
C222 C 0.25689 0.20209 0.44399 0.0
C223 C 0.19163 0.223 0.46409 0.0
C224 C 0.21786 0.22622 0.46731 0.0
C225 C 0.29375 0.24849 0.46188 0.0
C226 C 0.26776 0.239 0.46593 0.0
H227 H 0.1417 0.20859 0.51906 0.0
H228 H 0.18518 0.21538 0.52575 0.0
H229 H 0.22429 0.16822 0.42639 0.0
H230 H 0.33685 0.24791 0.39247 0.0
H231 H 0.2944 0.23486 0.39979 0.0
C232 C 0.56623 0.36967 0.12927 0.0
C233 C 0.57866 0.38866 0.09733 0.0
C234 C 0.56737 0.3926 0.1653 0.0
C235 C 0.60261 0.4742 0.2255 0.0
H236 H 0.54208 0.50713 0.27308 0.0
C237 C 0.59149 0.547 0.38263 0.0
C238 C 0.5769 0.5881 0.3863 0.0
C239 C 0.59317 0.52284 0.34711 0.0
C240 C 0.55909 0.49819 0.26005 0.0
H241 H 0.60273 0.44535 0.07825 0.0
H242 H 0.60504 0.48503 0.14167 0.0
H243 H 0.54263 0.46258 0.21177 0.0
H244 H 0.55282 0.63647 0.3558 0.0
H245 H 0.55544 0.59362 0.29394 0.0
H246 H 0.61903 0.5096 0.2741 0.0
C247 C 0.59432 0.45259 0.1386 0.0
C248 C 0.5594 0.47246 0.22524 0.0
C249 C 0.59289 0.43007 0.10236 0.0
C250 C 0.56424 0.60495 0.35378 0.0
C251 C 0.56563 0.58036 0.31849 0.0
C252 C 0.6023 0.49931 0.26072 0.0
C253 C 0.58125 0.43448 0.17016 0.0
C254 C 0.58115 0.46047 0.20758 0.0
C255 C 0.57998 0.53896 0.31495 0.0
C256 C 0.58052 0.5118 0.27807 0.0
H257 H 0.55509 0.33784 0.12622 0.0
H258 H 0.55727 0.37783 0.18934 0.0
H259 H 0.61958 0.46517 0.21241 0.0
H260 H 0.60149 0.53333 0.40722 0.0
H261 H 0.60426 0.49082 0.34504 0.0
C262 C 0.43397 0.60672 0.12582 0.0
C263 C 0.43044 0.5821 0.09064 0.0
C264 C 0.43189 0.58233 0.16115 0.0
C265 C 0.408 0.46913 0.20491 0.0
H266 H 0.44973 0.5051 0.29003 0.0
C267 C 0.42038 0.35824 0.34684 0.0
C268 C 0.41835 0.38498 0.38139 0.0
C269 C 0.42062 0.38182 0.31095 0.0
C270 C 0.43789 0.49496 0.26652 0.0
H271 H 0.42252 0.51222 0.06483 0.0
H272 H 0.41983 0.46922 0.12632 0.0
H273 H 0.45338 0.54652 0.22786 0.0
H274 H 0.41481 0.45733 0.40541 0.0
H275 H 0.41579 0.49842 0.34268 0.0
H276 H 0.39316 0.41632 0.24367 0.0
C277 C 0.42341 0.50777 0.1268 0.0
C278 C 0.43986 0.5188 0.23096 0.0
C279 C 0.42513 0.53237 0.09148 0.0
C280 C 0.41633 0.43567 0.37931 0.0
C281 C 0.41699 0.45925 0.3435 0.0
C282 C 0.40632 0.44475 0.24034 0.0
C283 C 0.42668 0.53249 0.1621 0.0
C284 C 0.42482 0.50644 0.19976 0.0
C285 C 0.4193 0.43253 0.30909 0.0
C286 C 0.42114 0.45775 0.27146 0.0
H287 H 0.43826 0.64487 0.12629 0.0
H288 H 0.43415 0.60278 0.18771 0.0
H289 H 0.39587 0.45916 0.18179 0.0
H290 H 0.42207 0.31924 0.34743 0.0
H291 H 0.42255 0.36055 0.2847 0.0
C292 C 0.38793 0.55375 0.87436 0.0
C293 C 0.4022 0.59452 0.88201 0.0
C294 C 0.38781 0.5327 0.83747 0.0
C295 C 0.4272 0.52081 0.75359 0.0
H296 H 0.37197 0.46545 0.70232 0.0
C297 C 0.43263 0.44457 0.59932 0.0
C298 C 0.42072 0.40087 0.59149 0.0
C299 C 0.42905 0.46871 0.63433 0.0
C300 C 0.38757 0.48031 0.71655 0.0
H301 H 0.4261 0.64739 0.85632 0.0
H302 H 0.42563 0.61102 0.79194 0.0
H303 H 0.36698 0.50933 0.7635 0.0
H304 H 0.39564 0.34822 0.61422 0.0
H305 H 0.38962 0.39029 0.67593 0.0
H306 H 0.44786 0.49157 0.70718 0.0
C307 C 0.41499 0.59465 0.81467 0.0
C308 C 0.3847 0.50553 0.75144 0.0
C309 C 0.41515 0.61562 0.85149 0.0
C310 C 0.4051 0.38181 0.61947 0.0
C311 C 0.40152 0.40605 0.65464 0.0
C312 C 0.43006 0.49563 0.71889 0.0
C313 C 0.40191 0.55213 0.8076 0.0
C314 C 0.4045 0.52624 0.77018 0.0
C315 C 0.41354 0.44969 0.66244 0.0
C316 C 0.41029 0.47531 0.69986 0.0
H317 H 0.37768 0.53675 0.89725 0.0
H318 H 0.37761 0.49987 0.83291 0.0
H319 H 0.44288 0.53531 0.76782 0.0
H320 H 0.44467 0.46045 0.5783 0.0
H321 H 0.43828 0.50265 0.63919 0.0
C322 C 0.58342 0.37676 0.85743 0.0
C323 C 0.60022 0.39014 0.88577 0.0
C324 C 0.5819 0.4022 0.82257 0.0
C325 C 0.61257 0.48484 0.75621 0.0
H326 H 0.54824 0.52568 0.73081 0.0
C327 C 0.59107 0.60825 0.62432 0.0
C328 C 0.57124 0.59404 0.60208 0.0
C329 C 0.59556 0.58659 0.66034 0.0
C330 C 0.56628 0.51425 0.73728 0.0
H331 H 0.62971 0.4385 0.8986 0.0
H332 H 0.6271 0.4828 0.83719 0.0
H333 H 0.5554 0.47862 0.78942 0.0
H334 H 0.54043 0.54651 0.60036 0.0
H335 H 0.54839 0.50855 0.66252 0.0
H336 H 0.62336 0.51967 0.70346 0.0
C337 C 0.61505 0.4528 0.84229 0.0
C338 C 0.57037 0.48731 0.77083 0.0
C339 C 0.61649 0.42748 0.87742 0.0
C340 C 0.55582 0.55844 0.6168 0.0
C341 C 0.56031 0.53684 0.65261 0.0
C342 C 0.60845 0.5116 0.72234 0.0
C343 C 0.59723 0.44132 0.81515 0.0
C344 C 0.59346 0.47167 0.78029 0.0
C345 C 0.58028 0.55045 0.67474 0.0
C346 C 0.58518 0.52588 0.71222 0.0
H347 H 0.57076 0.34788 0.86275 0.0
H348 H 0.5683 0.39204 0.80174 0.0
H349 H 0.63055 0.4732 0.76294 0.0
H350 H 0.60327 0.63564 0.61374 0.0
H351 H 0.61096 0.59818 0.67692 0.0
C352 C 0.08824 0.95588 0.09319 0.0
C353 C 0.08397 0.90567 0.09323 0.0
C354 C 0.08899 0.98166 0.12804 0.0
C355 C 0.099 0.97022 0.23218 0.0
H356 H 0.05498 0.07778 0.24218 0.0
C357 C 0.07548 0.05156 0.38084 0.0
C358 C 0.07057 0.10135 0.38339 0.0
C359 C 0.07903 0.02966 0.34482 0.0
C360 C 0.06775 0.04853 0.23977 0.0
H361 H 0.07774 0.8431 0.13001 0.0
H362 H 0.07969 0.88798 0.19081 0.0
H363 H 0.05884 0.03639 0.18006 0.0
H364 H 0.06568 0.16722 0.34998 0.0
H365 H 0.07293 0.12966 0.28737 0.0
H366 H 0.10828 0.98252 0.29153 0.0
C367 C 0.08234 0.90724 0.16374 0.0
C368 C 0.06985 0.02475 0.20419 0.0
C369 C 0.08116 0.8816 0.12888 0.0
C370 C 0.06951 0.12888 0.34915 0.0
C371 C 0.07345 0.10714 0.31312 0.0
C372 C 0.09721 0.99448 0.26761 0.0
C373 C 0.08591 0.95755 0.16355 0.0
C374 C 0.08522 0.98498 0.2003 0.0
C375 C 0.07809 0.05717 0.31046 0.0
C376 C 0.08126 0.03346 0.27205 0.0
H377 H 0.09042 0.97551 0.06618 0.0
H378 H 0.09185 0.02047 0.12727 0.0
H379 H 0.11113 0.93986 0.22967 0.0
H380 H 0.07622 0.0292 0.40667 0.0
H381 H 0.08203 0.99093 0.34396 0.0
C382 C 0.9236 0.89303 0.36395 0.0
C383 C 0.92099 0.91616 0.4 0.0
C384 C 0.92173 0.91937 0.32951 0.0
C385 C 0.93145 0.03786 0.28865 0.0
H386 H 0.89048 0.99377 0.20504 0.0
C387 C 0.92604 0.14016 0.14269 0.0
C388 C 0.92448 0.1117 0.10899 0.0
C389 C 0.92337 0.11907 0.17931 0.0
C390 C 0.90223 0.0063 0.2279 0.0
H391 H 0.91464 0.98528 0.42822 0.0
H392 H 0.91203 0.03154 0.36776 0.0
H393 H 0.89024 0.95114 0.26708 0.0
H394 H 0.91921 0.03871 0.08726 0.0
H395 H 0.91552 0.00172 0.15087 0.0
H396 H 0.94438 0.09152 0.24922 0.0
C397 C 0.9152 0.99286 0.3664 0.0
C398 C 0.90194 0.98203 0.26344 0.0
C399 C 0.91664 0.96634 0.40089 0.0
C400 C 0.9203 0.06176 0.11265 0.0
C401 C 0.91797 0.04058 0.1492 0.0
C402 C 0.93204 0.0617 0.25289 0.0
C403 C 0.91767 0.9695 0.33047 0.0
C404 C 0.91673 -0.00269 0.29392 0.0
C405 C 0.91945 0.06894 0.18303 0.0
C406 C 0.91764 0.04583 0.2219 0.0
H407 H 0.92721 0.85466 0.36214 0.0
H408 H 0.92399 0.90072 0.30208 0.0
H409 H 0.94316 0.04998 0.31172 0.0
H410 H 0.92935 0.17867 0.14093 0.0
H411 H 0.92432 0.14214 0.20468 0.0
C412 C 0.8834 0.93637 0.61852 0.0
C413 C 0.89655 0.89463 0.60924 0.0
C414 C 0.88461 0.95622 0.65579 0.0
C415 C 0.92619 0.96166 0.73764 0.0
H416 H 0.8739 0.02406 0.79152 0.0
C417 C 0.93726 0.04022 0.89087 0.0
C418 C 0.92677 0.08543 0.89845 0.0
C419 C 0.93229 0.0156 0.85647 0.0
C420 C 0.8887 0.00715 0.77659 0.0
H421 H 0.91976 0.8388 0.63251 0.0
H422 H 0.92156 0.87302 0.6976 0.0
H423 H 0.86627 0.98076 0.73081 0.0
H424 H 0.90282 0.14037 0.87585 0.0
H425 H 0.89438 0.09749 0.81529 0.0
H426 H 0.94869 0.98835 0.78291 0.0
C427 C 0.91081 0.8911 0.67583 0.0
C428 C 0.88432 0.98227 0.74194 0.0
C429 C 0.90966 0.87135 0.6386 0.0
C430 C 0.91121 0.1056 0.87081 0.0
C431 C 0.90622 0.08089 0.8363 0.0
C432 C 0.93056 0.98646 0.77215 0.0
C433 C 0.89893 0.9346 0.68447 0.0
C434 C 0.90304 0.95925 0.72212 0.0
C435 C 0.91675 0.03564 0.82878 0.0
C436 C 0.91189 0.00949 0.79202 0.0
H437 H 0.87306 0.95509 0.59657 0.0
H438 H 0.87531 0.98986 0.66149 0.0
H439 H 0.94111 0.94532 0.72262 0.0
H440 H 0.94922 0.0235 0.91164 0.0
H441 H 0.94043 0.98051 0.85177 0.0
C442 C 0.09013 0.86843 0.85294 0.0
C443 C 0.10393 0.89114 0.88173 0.0
C444 C 0.08793 0.88913 0.81615 0.0
C445 C 0.11249 0.98163 0.74936 0.0
H446 H 0.04711 0.98787 0.71288 0.0
C447 C 0.08282 0.10346 0.62103 0.0
C448 C 0.06671 0.08274 0.59451 0.0
C449 C 0.08839 0.07957 0.6557 0.0
C450 C 0.0655 0.98599 0.72239 0.0
H451 H 0.12755 0.95162 0.8937 0.0
H452 H 0.1235 0.98799 0.82949 0.0
H453 H 0.05626 0.94454 0.77252 0.0
H454 H 0.04378 0.02085 0.58361 0.0
H455 H 0.05359 0.97927 0.64372 0.0
H456 H 0.12162 0.0235 0.69912 0.0
C457 C 0.11445 0.9541 0.83535 0.0
C458 C 0.07076 0.96103 0.75653 0.0
C459 C 0.1167 0.93332 0.87219 0.0
C460 C 0.05617 0.03795 0.60348 0.0
C461 C 0.06172 0.01416 0.63804 0.0
C462 C 0.10721 0.00664 0.71508 0.0
C463 C 0.09944 0.93301 0.80738 0.0
C464 C 0.0943 0.95843 0.77036 0.0
C465 C 0.07791 0.03461 0.66452 0.0
C466 C 0.08365 0.00896 0.70121 0.0
H467 H 0.08029 0.83558 0.85921 0.0
H468 H 0.07666 0.87146 0.79488 0.0
H469 H 0.13081 0.98002 0.75922 0.0
H470 H 0.09125 0.13793 0.61491 0.0
H471 H 0.10072 0.09649 0.67576 0.0
C472 C 0.4464 0.86229 0.00553 0.0
C473 C 0.45011 0.81921 0.98474 0.0
C474 C 0.45601 0.90586 0.99231 0.0
C475 C 0.50817 0.94871 0.94349 0.0
H476 H 0.4774 0.07393 0.95348 0.0
C477 C 0.53289 0.16605 0.95166 0.0
C478 C 0.54849 0.16399 0.9836 0.0
C479 C 0.52134 0.12412 0.9387 0.0
C480 C 0.48616 0.03928 0.9497 0.0
H481 H 0.46582 0.78831 0.93281 0.0
H482 H 0.48321 0.86466 0.91024 0.0
H483 H 0.45329 0.0001 0.95425 0.0
H484 H 0.56556 0.11635 0.02525 0.0
H485 H 0.54584 0.04315 0.00214 0.0
H486 H 0.54117 0.98773 0.94175 0.0
C487 C 0.47266 0.86452 0.93656 0.0
C488 C 0.47239 -0.00288 0.95039 0.0
C489 C 0.46269 0.82097 0.94947 0.0
C490 C 0.55349 0.11899 0.00075 0.0
C491 C 0.54236 0.07707 0.98732 0.0
C492 C 0.52195 0.99082 0.94332 0.0
C493 C 0.46979 0.90713 0.95831 0.0
C494 C 0.48338 0.95145 0.94872 0.0
C495 C 0.52571 0.07944 0.9569 0.0
C496 C 0.51112 0.03632 0.94786 0.0
H497 H 0.43663 0.86212 0.03265 0.0
H498 H 0.45375 0.93809 0.00987 0.0
H499 H 0.51709 0.91394 0.94241 0.0
H500 H 0.52869 0.20036 0.93798 0.0
H501 H 0.50853 0.12675 0.91523 0.0
C502 C 0.53222 0.81722 0.52696 0.0
C503 C 0.54604 0.81792 0.49292 0.0
C504 C 0.52052 0.85915 0.53944 0.0
C505 C 0.51832 0.99187 0.52846 0.0
H506 H 0.4496 0.97704 0.53239 0.0
C507 C 0.43602 0.11119 0.4782 0.0
C508 C 0.44076 0.15581 0.49619 0.0
C509 C 0.44727 0.06907 0.49103 0.0
C510 C 0.46877 0.98162 0.53206 0.0
H511 H 0.55969 0.86352 0.44673 0.0
H512 H 0.53962 0.9367 0.46886 0.0
H513 H 0.47503 0.90511 0.53091 0.0
H514 H 0.46 0.19102 0.543 0.0
H515 H 0.4802 0.11718 0.56484 0.0
H516 H 0.51203 0.06833 0.52751 0.0
C517 C 0.53771 0.9038 0.48575 0.0
C518 C 0.48332 0.94056 0.53144 0.0
C519 C 0.54903 0.86182 0.4729 0.0
C520 C 0.456 0.15708 0.52862 0.0
C521 C 0.4676 0.11497 0.54104 0.0
C522 C 0.5038 0.03292 0.52958 0.0
C523 C 0.52289 0.90259 0.51857 0.0
C524 C 0.50815 0.94538 0.52804 0.0
C525 C 0.46374 0.07084 0.52174 0.0
C526 C 0.47887 0.02811 0.5298 0.0
H527 H 0.52958 0.78384 0.54294 0.0
H528 H 0.50918 0.85739 0.56484 0.0
H529 H 0.53744 -0.00355 0.52604 0.0
H530 H 0.42424 0.10909 0.45331 0.0
H531 H 0.44414 0.03562 0.47537 0.0
C532 C 0.05613 0.6277 0.01041 0.0
C533 C 0.05358 0.67142 0.98997 0.0
C534 C 0.04437 0.586 -0.0021 0.0
C535 C 0.98967 0.55051 0.95213 0.0
H536 H 0.01742 0.42193 0.95663 0.0
C537 C 0.96137 0.3344 0.95592 0.0
C538 C 0.94606 0.33623 0.98818 0.0
C539 C 0.97298 0.37629 0.94311 0.0
C540 C 0.00944 0.45756 0.9544 0.0
H541 H 0.03739 0.70542 0.93959 0.0
H542 H 0.01628 0.63241 0.91829 0.0
H543 H 0.04335 0.49301 0.95813 0.0
H544 H 0.92928 0.38381 0.0301 0.0
H545 H 0.94926 0.45685 0.00743 0.0
H546 H 0.95567 0.51505 0.95093 0.0
C547 C 0.0276 0.63056 0.94375 0.0
C548 C 0.02427 0.49816 0.95555 0.0
C549 C 0.03973 0.67218 0.95589 0.0
C550 C 0.94114 0.38124 0.00538 0.0
C551 C 0.95243 0.42314 0.9922 0.0
C552 C 0.97481 0.50988 0.95147 0.0
C553 C 0.02955 0.58734 0.96502 0.0
C554 C 0.01446 0.54495 0.95574 0.0
C555 C 0.96911 0.42077 0.96187 0.0
C556 C 0.98455 0.46309 0.95391 0.0
H557 H 0.06677 0.62597 0.03665 0.0
H558 H 0.04597 0.55326 0.01508 0.0
H559 H 0.98166 0.58622 0.95246 0.0
H560 H 0.9655 0.3002 0.94208 0.0
H561 H 0.98569 0.37361 0.91956 0.0
C562 C 0.02764 0.32719 0.52973 0.0
C563 C 0.04381 0.32836 0.4986 0.0
C564 C 0.01622 0.36964 0.5418 0.0
C565 C 0.01745 0.50306 0.53561 0.0
H566 H 0.9488 0.49376 0.52418 0.0
C567 C 0.94064 0.63254 0.47602 0.0
C568 C 0.94403 0.67486 0.49797 0.0
C569 C 0.95093 0.58892 0.48776 0.0
C570 C 0.96791 0.49676 0.52807 0.0
H571 H 0.06208 0.37507 0.45768 0.0
H572 H 0.04254 0.44914 0.47924 0.0
H573 H 0.97288 0.41995 0.5253 0.0
H574 H 0.96009 0.70433 0.55022 0.0
H575 H 0.97864 0.62796 0.57019 0.0
H576 H 0.01258 0.57999 0.53648 0.0
C577 C 0.03853 0.41552 0.49411 0.0
C578 C 0.98166 0.45461 0.52899 0.0
C579 C 0.04958 0.37308 0.48158 0.0
C580 C 0.95715 0.67226 0.53274 0.0
C581 C 0.96781 0.62871 0.54413 0.0
C582 C 0.00367 0.54519 0.53522 0.0
C583 C 0.02122 0.41398 0.5235 0.0
C584 C 0.00662 0.4575 0.53128 0.0
C585 C 0.9651 0.58687 0.52137 0.0
C586 C 0.97887 0.54244 0.52996 0.0
H587 H 0.02282 0.29316 0.5433 0.0
H588 H 0.00295 0.36762 0.56457 0.0
H589 H 0.03667 0.50616 0.53752 0.0
H590 H 0.93051 0.63336 0.44923 0.0
H591 H 0.94878 0.5573 0.46945 0.0
loop_
_geom_bond_atom_site_label_1
_geom_bond_atom_site_label_2
_geom_bond_distance
_geom_bond_site_symmetry_2
_ccdc_geom_bond_type
Mg0 O1 2.028 1_554 S
Mg0 O7 1.986 1_554 S
Mg0 O9 2.114 . S
Mg0 O10 2.251 . S
Mg0 O13 2.010 1_554 S
O1 Mg0 2.028 1_556 S
O1 C4 1.250 1_556 S
O2 Mg3 2.028 . S
O2 C4 1.248 . S
Mg3 O2 2.028 . S
Mg3 O8 2.032 . S
Mg3 O10 2.079 . S
C4 O1 1.250 1_554 S
C4 O2 1.248 . S
C5 O6 1.264 . S
C5 O13 1.249 . S
O6 C5 1.264 . S
O7 Mg0 1.986 1_556 S
O7 C11 1.246 1_556 S
O8 Mg3 2.032 . S
O8 C11 1.259 . S
O9 Mg0 2.114 . S
O9 C12 1.252 . S
O10 Mg0 2.251 . S
O10 Mg3 2.079 . S
O10 C12 1.273 . S
C11 O7 1.246 1_554 S
C11 O8 1.259 . S
C12 O9 1.252 . S
C12 O10 1.273 . S
O13 Mg0 2.010 1_556 S
O13 C5 1.249 . S
Mg14 O15 2.028 1_554 S
Mg14 O21 1.986 1_554 S
Mg14 O23 2.114 . S
Mg14 O24 2.251 . S
Mg14 O27 2.010 1_554 S
O15 Mg14 2.028 1_556 S
O15 C18 1.250 1_556 S
O16 Mg17 2.028 . S
O16 C18 1.248 . S
Mg17 O16 2.028 . S
Mg17 O22 2.032 . S
Mg17 O24 2.079 . S
C18 O15 1.250 1_554 S
C18 O16 1.248 . S
C19 O20 1.264 . S
C19 O27 1.249 . S
O20 C19 1.264 . S
O21 Mg14 1.986 1_556 S
O21 C25 1.246 1_556 S
O22 Mg17 2.032 . S
O22 C25 1.259 . S
O23 Mg14 2.114 . S
O23 C26 1.252 . S
O24 Mg14 2.251 . S
O24 Mg17 2.079 . S
O24 C26 1.273 . S
C25 O21 1.246 1_554 S
C25 O22 1.259 . S
C26 O23 1.252 . S
C26 O24 1.273 . S
O27 Mg14 2.010 1_556 S
O27 C19 1.249 . S
Mg28 O29 2.028 . S
Mg28 O35 1.986 . S
Mg28 O37 2.114 . S
Mg28 O38 2.251 . S
Mg28 O41 2.010 . S
O29 Mg28 2.028 . S
O29 C32 1.250 . S
O30 Mg31 2.028 . S
O30 C32 1.248 . S
Mg31 O30 2.028 . S
Mg31 O36 2.032 . S
Mg31 O38 2.079 . S
C32 O29 1.250 . S
C32 O30 1.248 . S
C33 O34 1.264 . S
C33 O41 1.249 . S
O34 C33 1.264 . S
O35 Mg28 1.986 . S
O35 C39 1.246 . S
O36 Mg31 2.032 . S
O36 C39 1.259 . S
O37 Mg28 2.114 . S
O37 C40 1.252 . S
O38 Mg28 2.251 . S
O38 Mg31 2.079 . S
O38 C40 1.273 . S
C39 O35 1.246 . S
C39 O36 1.259 . S
C40 O37 1.252 . S
C40 O38 1.273 . S
O41 Mg28 2.010 . S
O41 C33 1.249 . S
Mg42 O43 2.028 . S
Mg42 O49 1.986 . S
Mg42 O51 2.114 . S
Mg42 O52 2.251 . S
Mg42 O55 2.010 . S
O43 Mg42 2.028 . S
O43 C46 1.250 . S
O44 Mg45 2.028 . S
O44 C46 1.248 . S
Mg45 O44 2.028 . S
Mg45 O50 2.032 . S
Mg45 O52 2.079 . S
C46 O43 1.250 . S
C46 O44 1.248 . S
C47 O48 1.264 . S
C47 O55 1.249 . S
O48 C47 1.264 . S
O49 Mg42 1.986 . S
O49 C53 1.246 . S
O50 Mg45 2.032 . S
O50 C53 1.259 . S
O51 Mg42 2.114 . S
O51 C54 1.252 . S
O52 Mg42 2.251 . S
O52 Mg45 2.079 . S
O52 C54 1.273 . S
C53 O49 1.246 . S
C53 O50 1.259 . S
C54 O51 1.252 . S
C54 O52 1.273 . S
O55 Mg42 2.010 . S
O55 C47 1.249 . S
Mg56 O57 2.028 1_554 S
Mg56 O63 1.986 1_554 S
Mg56 O65 2.114 . S
Mg56 O66 2.251 . S
Mg56 O69 2.010 1_554 S
O57 Mg56 2.028 1_556 S
O57 C60 1.250 1_556 S
O58 Mg59 2.028 . S
O58 C60 1.248 . S
Mg59 O58 2.028 . S
Mg59 O64 2.032 . S
Mg59 O66 2.079 . S
C60 O57 1.250 1_554 S
C60 O58 1.248 . S
C61 O62 1.264 . S
C61 O69 1.249 . S
O62 C61 1.264 . S
O63 Mg56 1.986 1_556 S
O63 C67 1.246 1_556 S
O64 Mg59 2.032 . S
O64 C67 1.259 . S
O65 Mg56 2.114 . S
O65 C68 1.252 . S
O66 Mg56 2.251 . S
O66 Mg59 2.079 . S
O66 C68 1.273 . S
C67 O63 1.246 1_554 S
C67 O64 1.259 . S
C68 O65 1.252 . S
C68 O66 1.273 . S
O69 Mg56 2.010 1_556 S
O69 C61 1.249 . S
Mg70 O71 2.028 1_554 S
Mg70 O77 1.986 1_554 S
Mg70 O79 2.114 . S
Mg70 O80 2.251 . S
Mg70 O83 2.010 1_554 S
O71 Mg70 2.028 1_556 S
O71 C74 1.250 1_556 S
O72 Mg73 2.028 . S
O72 C74 1.248 . S
Mg73 O72 2.028 . S
Mg73 O78 2.032 . S
Mg73 O80 2.079 . S
C74 O71 1.250 1_554 S
C74 O72 1.248 . S
C75 O76 1.264 . S
C75 O83 1.249 . S
O76 C75 1.264 . S
O77 Mg70 1.986 1_556 S
O77 C81 1.246 1_556 S
O78 Mg73 2.032 . S
O78 C81 1.259 . S
O79 Mg70 2.114 . S
O79 C82 1.252 . S
O80 Mg70 2.251 . S
O80 Mg73 2.079 . S
O80 C82 1.273 . S
C81 O77 1.246 1_554 S
C81 O78 1.259 . S
C82 O79 1.252 . S
C82 O80 1.273 . S
O83 Mg70 2.010 1_556 S
O83 C75 1.249 . S
Mg84 O85 2.028 . S
Mg84 O91 1.986 . S
Mg84 O93 2.114 . S
Mg84 O94 2.251 . S
Mg84 O97 2.010 . S
O85 Mg84 2.028 . S
O85 C88 1.250 . S
O86 Mg87 2.028 . S
O86 C88 1.248 . S
Mg87 O86 2.028 . S
Mg87 O92 2.032 . S
Mg87 O94 2.079 . S
C88 O85 1.250 . S
C88 O86 1.248 . S
C89 O90 1.264 . S
C89 O97 1.249 . S
O90 C89 1.264 . S
O91 Mg84 1.986 . S
O91 C95 1.246 . S
O92 Mg87 2.032 . S
O92 C95 1.259 . S
O93 Mg84 2.114 . S
O93 C96 1.252 . S
O94 Mg84 2.251 . S
O94 Mg87 2.079 . S
O94 C96 1.273 . S
C95 O91 1.246 . S
C95 O92 1.259 . S
C96 O93 1.252 . S
C96 O94 1.273 . S
O97 Mg84 2.010 . S
O97 C89 1.249 . S
Mg98 O99 2.028 . S
Mg98 O105 1.986 . S
Mg98 O107 2.114 . S
Mg98 O108 2.251 . S
Mg98 O111 2.010 . S
O99 Mg98 2.028 . S
O99 C102 1.250 . S
O100 Mg101 2.028 . S
O100 C102 1.248 . S
Mg101 O100 2.028 . S
Mg101 O106 2.032 . S
Mg101 O108 2.079 . S
C102 O99 1.250 . S
C102 O100 1.248 . S
C103 O104 1.264 . S
C103 O111 1.249 . S
O104 C103 1.264 . S
O105 Mg98 1.986 . S
O105 C109 1.246 . S
O106 Mg101 2.032 . S
O106 C109 1.259 . S
O107 Mg98 2.114 . S
O107 C110 1.252 . S
O108 Mg98 2.251 . S
O108 Mg101 2.079 . S
O108 C110 1.273 . S
C109 O105 1.246 . S
C109 O106 1.259 . S
C110 O107 1.252 . S
C110 O108 1.273 . S
O111 Mg98 2.010 . S
O111 C103 1.249 . S
C112 C113 1.349 1_556 S
C112 C114 1.327 . S
C112 H137 0.950 . S
C113 C112 1.349 1_554 S
C113 C129 1.349 . S
C114 C112 1.327 . S
C114 C133 1.429 1_556 S
C114 H138 0.950 . S
C115 C132 1.574 . S
C115 C134 1.368 . S
C115 H139 0.949 . S
H116 C120 0.949 . S
C117 C118 1.349 . S
C117 C119 1.327 . S
C117 H140 0.950 . S
C118 C117 1.349 . S
C118 C130 1.349 1_554 S
C119 C117 1.327 . S
C119 C135 1.429 . S
C119 H141 0.950 . S
C120 H116 0.949 . S
C120 C128 1.574 . S
C120 C136 1.368 1_556 S
H121 C129 0.950 . S
H122 C127 0.950 . S
H123 C128 0.949 . S
H124 C130 0.950 . S
H125 C131 0.950 . S
H126 C132 0.949 . S
C127 H122 0.950 . S
C127 C129 1.327 . S
C127 C133 1.429 . S
C128 C120 1.574 . S
C128 H123 0.949 . S
C128 C134 1.368 1_556 S
C129 C113 1.349 . S
C129 H121 0.950 . S
C129 C127 1.327 . S
C130 C118 1.349 1_556 S
C130 H124 0.950 . S
C130 C131 1.327 . S
C131 H125 0.950 . S
C131 C130 1.327 . S
C131 C135 1.429 1_556 S
C132 C115 1.574 . S
C132 H126 0.949 . S
C132 C136 1.368 . S
C133 C114 1.429 1_554 S
C133 C127 1.429 . S
C133 C134 1.523 . S
C134 C115 1.368 . S
C134 C128 1.368 1_554 S
C134 C133 1.523 . S
C135 C119 1.429 . S
C135 C131 1.429 1_554 S
C135 C136 1.523 . S
C136 C120 1.368 1_554 S
C136 C132 1.368 . S
C136 C135 1.523 . S
H137 C112 0.950 . S
H138 C114 0.950 . S
H139 C115 0.949 . S
H140 C117 0.950 . S
H141 C119 0.950 . S
C142 C143 1.349 1_556 S
C142 C144 1.327 . S
C142 H167 0.950 . S
C143 C142 1.349 1_554 S
C143 C159 1.349 . S
C144 C142 1.327 . S
C144 C163 1.429 1_556 S
C144 H168 0.950 . S
C145 C162 1.574 . S
C145 C164 1.368 . S
C145 H169 0.949 . S
H146 C150 0.949 . S
C147 C148 1.349 . S
C147 C149 1.327 . S
C147 H170 0.950 . S
C148 C147 1.349 . S
C148 C160 1.349 1_554 S
C149 C147 1.327 . S
C149 C165 1.429 . S
C149 H171 0.950 . S
C150 H146 0.949 . S
C150 C158 1.574 . S
C150 C166 1.368 1_556 S
H151 C159 0.950 . S
H152 C157 0.950 . S
H153 C158 0.949 . S
H154 C160 0.950 . S
H155 C161 0.950 . S
H156 C162 0.949 . S
C157 H152 0.950 . S
C157 C159 1.327 . S
C157 C163 1.429 . S
C158 C150 1.574 . S
C158 H153 0.949 . S
C158 C164 1.368 1_556 S
C159 C143 1.349 . S
C159 H151 0.950 . S
C159 C157 1.327 . S
C160 C148 1.349 1_556 S
C160 H154 0.950 . S
C160 C161 1.327 . S
C161 H155 0.950 . S
C161 C160 1.327 . S
C161 C165 1.429 1_556 S
C162 C145 1.574 . S
C162 H156 0.949 . S
C162 C166 1.368 . S
C163 C144 1.429 1_554 S
C163 C157 1.429 . S
C163 C164 1.523 . S
C164 C145 1.368 . S
C164 C158 1.368 1_554 S
C164 C163 1.523 . S
C165 C149 1.429 . S
C165 C161 1.429 1_554 S
C165 C166 1.523 . S
C166 C150 1.368 1_554 S
C166 C162 1.368 . S
C166 C165 1.523 . S
H167 C142 0.950 . S
H168 C144 0.950 . S
H169 C145 0.949 . S
H170 C147 0.950 . S
H171 C149 0.950 . S
C172 C173 1.349 . S
C172 C174 1.327 . S
C172 H197 0.950 . S
C173 C172 1.349 . S
C173 C189 1.349 . S
C174 C172 1.327 . S
C174 C193 1.429 . S
C174 H198 0.950 . S
C175 C192 1.574 . S
C175 C194 1.368 . S
C175 H199 0.949 . S
H176 C180 0.949 . S
C177 C178 1.349 . S
C177 C179 1.327 . S
C177 H200 0.950 . S
C178 C177 1.349 . S
C178 C190 1.349 . S
C179 C177 1.327 . S
C179 C195 1.429 . S
C179 H201 0.950 . S
C180 H176 0.949 . S
C180 C188 1.574 . S
C180 C196 1.368 . S
H181 C189 0.950 . S
H182 C187 0.950 . S
H183 C188 0.949 . S
H184 C190 0.950 . S
H185 C191 0.950 . S
H186 C192 0.949 . S
C187 H182 0.950 . S
C187 C189 1.327 . S
C187 C193 1.429 . S
C188 C180 1.574 . S
C188 H183 0.949 . S
C188 C194 1.368 . S
C189 C173 1.349 . S
C189 H181 0.950 . S
C189 C187 1.327 . S
C190 C178 1.349 . S
C190 H184 0.950 . S
C190 C191 1.327 . S
C191 H185 0.950 . S
C191 C190 1.327 . S
C191 C195 1.429 . S
C192 C175 1.574 . S
C192 H186 0.949 . S
C192 C196 1.368 . S
C193 C174 1.429 . S
C193 C187 1.429 . S
C193 C194 1.523 . S
C194 C175 1.368 . S
C194 C188 1.368 . S
C194 C193 1.523 . S
C195 C179 1.429 . S
C195 C191 1.429 . S
C195 C196 1.523 . S
C196 C180 1.368 . S
C196 C192 1.368 . S
C196 C195 1.523 . S
H197 C172 0.950 . S
H198 C174 0.950 . S
H199 C175 0.949 . S
H200 C177 0.950 . S
H201 C179 0.950 . S
C202 C203 1.349 . S
C202 C204 1.327 . S
C202 H227 0.950 . S
C203 C202 1.349 . S
C203 C219 1.349 . S
C204 C202 1.327 . S
C204 C223 1.429 . S
C204 H228 0.950 . S
C205 C222 1.574 . S
C205 C224 1.368 . S
C205 H229 0.949 . S
H206 C210 0.949 . S
C207 C208 1.349 . S
C207 C209 1.327 . S
C207 H230 0.950 . S
C208 C207 1.349 . S
C208 C220 1.349 . S
C209 C207 1.327 . S
C209 C225 1.429 . S
C209 H231 0.950 . S
C210 H206 0.949 . S
C210 C218 1.574 . S
C210 C226 1.368 . S
H211 C219 0.950 . S
H212 C217 0.950 . S
H213 C218 0.949 . S
H214 C220 0.950 . S
H215 C221 0.950 . S
H216 C222 0.949 . S
C217 H212 0.950 . S
C217 C219 1.327 . S
C217 C223 1.429 . S
C218 C210 1.574 . S
C218 H213 0.949 . S
C218 C224 1.368 . S
C219 C203 1.349 . S
C219 H211 0.950 . S
C219 C217 1.327 . S
C220 C208 1.349 . S
C220 H214 0.950 . S
C220 C221 1.327 . S
C221 H215 0.950 . S
C221 C220 1.327 . S
C221 C225 1.429 . S
C222 C205 1.574 . S
C222 H216 0.949 . S
C222 C226 1.368 . S
C223 C204 1.429 . S
C223 C217 1.429 . S
C223 C224 1.523 . S
C224 C205 1.368 . S
C224 C218 1.368 . S
C224 C223 1.523 . S
C225 C209 1.429 . S
C225 C221 1.429 . S
C225 C226 1.523 . S
C226 C210 1.368 . S
C226 C222 1.368 . S
C226 C225 1.523 . S
H227 C202 0.950 . S
H228 C204 0.950 . S
H229 C205 0.949 . S
H230 C207 0.950 . S
H231 C209 0.950 . S
C232 C233 1.349 . S
C232 C234 1.327 . S
C232 H257 0.950 . S
C233 C232 1.349 . S
C233 C249 1.349 . S
C234 C232 1.327 . S
C234 C253 1.429 . S
C234 H258 0.950 . S
C235 C252 1.574 . S
C235 C254 1.368 . S
C235 H259 0.949 . S
H236 C240 0.949 . S
C237 C238 1.349 . S
C237 C239 1.327 . S
C237 H260 0.950 . S
C238 C237 1.349 . S
C238 C250 1.349 . S
C239 C237 1.327 . S
C239 C255 1.429 . S
C239 H261 0.950 . S
C240 H236 0.949 . S
C240 C248 1.574 . S
C240 C256 1.368 . S
H241 C249 0.950 . S
H242 C247 0.950 . S
H243 C248 0.949 . S
H244 C250 0.950 . S
H245 C251 0.950 . S
H246 C252 0.949 . S
C247 H242 0.950 . S
C247 C249 1.327 . S
C247 C253 1.429 . S
C248 C240 1.574 . S
C248 H243 0.949 . S
C248 C254 1.368 . S
C249 C233 1.349 . S
C249 H241 0.950 . S
C249 C247 1.327 . S
C250 C238 1.349 . S
C250 H244 0.950 . S
C250 C251 1.327 . S
C251 H245 0.950 . S
C251 C250 1.327 . S
C251 C255 1.429 . S
C252 C235 1.574 . S
C252 H246 0.949 . S
C252 C256 1.368 . S
C253 C234 1.429 . S
C253 C247 1.429 . S
C253 C254 1.523 . S
C254 C235 1.368 . S
C254 C248 1.368 . S
C254 C253 1.523 . S
C255 C239 1.429 . S
C255 C251 1.429 . S
C255 C256 1.523 . S
C256 C240 1.368 . S
C256 C252 1.368 . S
C256 C255 1.523 . S
H257 C232 0.950 . S
H258 C234 0.950 . S
H259 C235 0.949 . S
H260 C237 0.950 . S
H261 C239 0.950 . S
C262 C263 1.349 . S
C262 C264 1.327 . S
C262 H287 0.950 . S
C263 C262 1.349 . S
C263 C279 1.349 . S
C264 C262 1.327 . S
C264 C283 1.429 . S
C264 H288 0.950 . S
C265 C282 1.574 . S
C265 C284 1.368 . S
C265 H289 0.949 . S
H266 C270 0.949 . S
C267 C268 1.349 . S
C267 C269 1.327 . S
C267 H290 0.950 . S
C268 C267 1.349 . S
C268 C280 1.349 . S
C269 C267 1.327 . S
C269 C285 1.429 . S
C269 H291 0.950 . S
C270 H266 0.949 . S
C270 C278 1.574 . S
C270 C286 1.368 . S
H271 C279 0.950 . S
H272 C277 0.950 . S
H273 C278 0.949 . S
H274 C280 0.950 . S
H275 C281 0.950 . S
H276 C282 0.949 . S
C277 H272 0.950 . S
C277 C279 1.327 . S
C277 C283 1.429 . S
C278 C270 1.574 . S
C278 H273 0.949 . S
C278 C284 1.368 . S
C279 C263 1.349 . S
C279 H271 0.950 . S
C279 C277 1.327 . S
C280 C268 1.349 . S
C280 H274 0.950 . S
C280 C281 1.327 . S
C281 H275 0.950 . S
C281 C280 1.327 . S
C281 C285 1.429 . S
C282 C265 1.574 . S
C282 H276 0.949 . S
C282 C286 1.368 . S
C283 C264 1.429 . S
C283 C277 1.429 . S
C283 C284 1.523 . S
C284 C265 1.368 . S
C284 C278 1.368 . S
C284 C283 1.523 . S
C285 C269 1.429 . S
C285 C281 1.429 . S
C285 C286 1.523 . S
C286 C270 1.368 . S
C286 C282 1.368 . S
C286 C285 1.523 . S
H287 C262 0.950 . S
H288 C264 0.950 . S
H289 C265 0.949 . S
H290 C267 0.950 . S
H291 C269 0.950 . S
C292 C293 1.349 . S
C292 C294 1.327 . S
C292 H317 0.950 . S
C293 C292 1.349 . S
C293 C309 1.349 . S
C294 C292 1.327 . S
C294 C313 1.429 . S
C294 H318 0.950 . S
C295 C312 1.574 . S
C295 C314 1.368 . S
C295 H319 0.949 . S
H296 C300 0.949 . S
C297 C298 1.349 . S
C297 C299 1.327 . S
C297 H320 0.950 . S
C298 C297 1.349 . S
C298 C310 1.349 . S
C299 C297 1.327 . S
C299 C315 1.429 . S
C299 H321 0.950 . S
C300 H296 0.949 . S
C300 C308 1.574 . S
C300 C316 1.368 . S
H301 C309 0.950 . S
H302 C307 0.950 . S
H303 C308 0.949 . S
H304 C310 0.950 . S
H305 C311 0.950 . S
H306 C312 0.949 . S
C307 H302 0.950 . S
C307 C309 1.327 . S
C307 C313 1.429 . S
C308 C300 1.574 . S
C308 H303 0.949 . S
C308 C314 1.368 . S
C309 C293 1.349 . S
C309 H301 0.950 . S
C309 C307 1.327 . S
C310 C298 1.349 . S
C310 H304 0.950 . S
C310 C311 1.327 . S
C311 H305 0.950 . S
C311 C310 1.327 . S
C311 C315 1.429 . S
C312 C295 1.574 . S
C312 H306 0.949 . S
C312 C316 1.368 . S
C313 C294 1.429 . S
C313 C307 1.429 . S
C313 C314 1.523 . S
C314 C295 1.368 . S
C314 C308 1.368 . S
C314 C313 1.523 . S
C315 C299 1.429 . S
C315 C311 1.429 . S
C315 C316 1.523 . S
C316 C300 1.368 . S
C316 C312 1.368 . S
C316 C315 1.523 . S
H317 C292 0.950 . S
H318 C294 0.950 . S
H319 C295 0.949 . S
H320 C297 0.950 . S
H321 C299 0.950 . S
C322 C323 1.349 . S
C322 C324 1.327 . S
C322 H347 0.950 . S
C323 C322 1.349 . S
C323 C339 1.349 . S
C324 C322 1.327 . S
C324 C343 1.429 . S
C324 H348 0.950 . S
C325 C342 1.574 . S
C325 C344 1.368 . S
C325 H349 0.949 . S
H326 C330 0.949 . S
C327 C328 1.349 . S
C327 C329 1.327 . S
C327 H350 0.950 . S
C328 C327 1.349 . S
C328 C340 1.349 . S
C329 C327 1.327 . S
C329 C345 1.429 . S
C329 H351 0.950 . S
C330 H326 0.949 . S
C330 C338 1.574 . S
C330 C346 1.368 . S
H331 C339 0.950 . S
H332 C337 0.950 . S
H333 C338 0.949 . S
H334 C340 0.950 . S
H335 C341 0.950 . S
H336 C342 0.949 . S
C337 H332 0.950 . S
C337 C339 1.327 . S
C337 C343 1.429 . S
C338 C330 1.574 . S
C338 H333 0.949 . S
C338 C344 1.368 . S
C339 C323 1.349 . S
C339 H331 0.950 . S
C339 C337 1.327 . S
C340 C328 1.349 . S
C340 H334 0.950 . S
C340 C341 1.327 . S
C341 H335 0.950 . S
C341 C340 1.327 . S
C341 C345 1.429 . S
C342 C325 1.574 . S
C342 H336 0.949 . S
C342 C346 1.368 . S
C343 C324 1.429 . S
C343 C337 1.429 . S
C343 C344 1.523 . S
C344 C325 1.368 . S
C344 C338 1.368 . S
C344 C343 1.523 . S
C345 C329 1.429 . S
C345 C341 1.429 . S
C345 C346 1.523 . S
C346 C330 1.368 . S
C346 C342 1.368 . S
C346 C345 1.523 . S
H347 C322 0.950 . S
H348 C324 0.950 . S
H349 C325 0.949 . S
H350 C327 0.950 . S
H351 C329 0.950 . S
C352 C353 1.349 . S
C352 C354 1.327 . S
C352 H377 0.950 . S
C353 C352 1.349 . S
C353 C369 1.349 . S
C354 C352 1.327 . S
C354 C373 1.429 . S
C354 H378 0.950 . S
C355 C372 1.574 . S
C355 C374 1.368 . S
C355 H379 0.949 . S
H356 C360 0.949 . S
C357 C358 1.349 . S
C357 C359 1.327 . S
C357 H380 0.950 . S
C358 C357 1.349 . S
C358 C370 1.349 . S
C359 C357 1.327 . S
C359 C375 1.429 . S
C359 H381 0.950 . S
C360 H356 0.949 . S
C360 C368 1.574 . S
C360 C376 1.368 . S
H361 C369 0.950 . S
H362 C367 0.950 . S
H363 C368 0.949 . S
H364 C370 0.950 . S
H365 C371 0.950 . S
H366 C372 0.949 . S
C367 H362 0.950 . S
C367 C369 1.327 . S
C367 C373 1.429 . S
C368 C360 1.574 . S
C368 H363 0.949 . S
C368 C374 1.368 1_545 S
C369 C353 1.349 . S
C369 H361 0.950 . S
C369 C367 1.327 . S
C370 C358 1.349 . S
C370 H364 0.950 . S
C370 C371 1.327 . S
C371 H365 0.950 . S
C371 C370 1.327 . S
C371 C375 1.429 . S
C372 C355 1.574 . S
C372 H366 0.949 . S
C372 C376 1.368 1_565 S
C373 C354 1.429 . S
C373 C367 1.429 . S
C373 C374 1.523 . S
C374 C355 1.368 . S
C374 C368 1.368 1_565 S
C374 C373 1.523 . S
C375 C359 1.429 . S
C375 C371 1.429 . S
C375 C376 1.523 . S
C376 C360 1.368 . S
C376 C372 1.368 1_545 S
C376 C375 1.523 . S
H377 C352 0.950 . S
H378 C354 0.950 . S
H379 C355 0.949 . S
H380 C357 0.950 . S
H381 C359 0.950 . S
C382 C383 1.349 . S
C382 C384 1.327 . S
C382 H407 0.950 . S
C383 C382 1.349 . S
C383 C399 1.349 . S
C384 C382 1.327 . S
C384 C403 1.429 . S
C384 H408 0.950 . S
C385 C402 1.574 . S
C385 C404 1.368 1_545 S
C385 H409 0.949 . S
H386 C390 0.949 . S
C387 C388 1.349 . S
C387 C389 1.327 . S
C387 H410 0.950 . S
C388 C387 1.349 . S
C388 C400 1.349 . S
C389 C387 1.327 . S
C389 C405 1.429 . S
C389 H411 0.950 . S
C390 H386 0.949 . S
C390 C398 1.574 . S
C390 C406 1.368 1_565 S
H391 C399 0.950 . S
H392 C397 0.950 . S
H393 C398 0.949 . S
H394 C400 0.950 . S
H395 C401 0.950 . S
H396 C402 0.949 . S
C397 H392 0.950 . S
C397 C399 1.327 . S
C397 C403 1.429 . S
C398 C390 1.574 . S
C398 H393 0.949 . S
C398 C404 1.368 . S
C399 C383 1.349 . S
C399 H391 0.950 . S
C399 C397 1.327 . S
C400 C388 1.349 . S
C400 H394 0.950 . S
C400 C401 1.327 . S
C401 H395 0.950 . S
C401 C400 1.327 . S
C401 C405 1.429 . S
C402 C385 1.574 . S
C402 H396 0.949 . S
C402 C406 1.368 . S
C403 C384 1.429 . S
C403 C397 1.429 . S
C403 C404 1.523 . S
C404 C385 1.368 1_565 S
C404 C398 1.368 . S
C404 C403 1.523 . S
C405 C389 1.429 . S
C405 C401 1.429 . S
C405 C406 1.523 . S
C406 C390 1.368 1_545 S
C406 C402 1.368 . S
C406 C405 1.523 . S
H407 C382 0.950 . S
H408 C384 0.950 . S
H409 C385 0.949 . S
H410 C387 0.950 . S
H411 C389 0.950 . S
C412 C413 1.349 . S
C412 C414 1.327 . S
C412 H437 0.950 . S
C413 C412 1.349 . S
C413 C429 1.349 . S
C414 C412 1.327 . S
C414 C433 1.429 . S
C414 H438 0.966 . S
C415 C432 1.574 . S
C415 C434 1.368 . S
C415 H439 0.949 . S
H416 C420 0.949 . S
C417 C418 1.349 . S
C417 C419 1.327 . S
C417 H440 0.950 . S
C418 C417 1.349 . S
C418 C430 1.349 . S
C419 C417 1.327 . S
C419 C435 1.429 . S
C419 H441 0.966 . S
C420 H416 0.949 . S
C420 C428 1.574 . S
C420 C436 1.368 . S
H421 C429 0.950 . S
H422 C427 0.950 . S
H423 C428 0.949 . S
H424 C430 0.950 . S
H425 C431 0.950 . S
H426 C432 0.949 . S
C427 H422 0.950 . S
C427 C429 1.327 . S
C427 C433 1.429 . S
C428 C420 1.574 . S
C428 H423 0.949 . S
C428 C434 1.368 1_545 S
C429 C413 1.349 . S
C429 H421 0.950 . S
C429 C427 1.327 . S
C430 C418 1.349 . S
C430 H424 0.950 . S
C430 C431 1.327 . S
C431 H425 0.950 . S
C431 C430 1.327 . S
C431 C435 1.429 . S
C432 C415 1.574 . S
C432 H426 0.949 . S
C432 C436 1.368 1_565 S
C433 C414 1.429 . S
C433 C427 1.429 . S
C433 C434 1.523 . S
C434 C415 1.368 . S
C434 C428 1.368 1_565 S
C434 C433 1.523 . S
C435 C419 1.429 . S
C435 C431 1.429 . S
C435 C436 1.523 . S
C436 C420 1.368 . S
C436 C432 1.368 1_545 S
C436 C435 1.523 . S
H437 C412 0.950 . S
H438 C414 0.966 . S
H439 C415 0.949 . S
H440 C417 0.950 . S
H441 C419 0.966 . S
C442 C443 1.349 . S
C442 C444 1.327 . S
C442 H467 0.950 . S
C443 C442 1.349 . S
C443 C459 1.349 . S
C444 C442 1.327 . S
C444 C463 1.429 . S
C444 H468 0.950 . S
C445 C462 1.574 . S
C445 C464 1.368 1_545 S
C445 H469 0.949 . S
H446 C450 0.949 . S
C447 C448 1.349 . S
C447 C449 1.327 . S
C447 H470 0.950 . S
C448 C447 1.349 . S
C448 C460 1.349 . S
C449 C447 1.327 . S
C449 C465 1.429 . S
C449 H471 0.950 . S
C450 H446 0.949 . S
C450 C458 1.574 . S
C450 C466 1.368 1_565 S
H451 C459 0.950 . S
H452 C457 0.950 . S
H453 C458 0.949 . S
H454 C460 0.950 . S
H455 C461 0.950 . S
H456 C462 0.949 . S
C457 H452 0.950 . S
C457 C459 1.327 . S
C457 C463 1.429 . S
C458 C450 1.574 . S
C458 H453 0.949 . S
C458 C464 1.368 . S
C459 C443 1.349 . S
C459 H451 0.950 . S
C459 C457 1.327 . S
C460 C448 1.349 . S
C460 H454 0.950 . S
C460 C461 1.327 . S
C461 H455 0.950 . S
C461 C460 1.327 . S
C461 C465 1.429 . S
C462 C445 1.574 . S
C462 H456 0.949 . S
C462 C466 1.368 . S
C463 C444 1.429 . S
C463 C457 1.429 . S
C463 C464 1.523 . S
C464 C445 1.368 1_565 S
C464 C458 1.368 . S
C464 C463 1.523 . S
C465 C449 1.429 . S
C465 C461 1.429 . S
C465 C466 1.523 . S
C466 C450 1.368 1_545 S
C466 C462 1.368 . S
C466 C465 1.523 . S
H467 C442 0.950 . S
H468 C444 0.950 . S
H469 C445 0.949 . S
H470 C447 0.950 . S
H471 C449 0.950 . S
C472 C473 1.349 . S
C472 C474 1.327 . S
C472 H497 0.950 . S
C473 C472 1.349 . S
C473 C489 1.349 1_554 S
C474 C472 1.327 . S
C474 C493 1.429 . S
C474 H498 0.950 . S
C475 C492 1.574 1_565 S
C475 C494 1.368 1_556 S
C475 H499 0.949 . S
H476 C480 0.949 . S
C477 C478 1.349 1_556 S
C477 C479 1.327 . S
C477 H500 0.950 . S
C478 C477 1.349 1_554 S
C478 C490 1.349 . S
C479 C477 1.327 . S
C479 C495 1.429 1_556 S
C479 H501 0.950 . S
C480 H476 0.949 . S
C480 C488 1.574 1_545 S
C480 C496 1.368 . S
H481 C489 0.950 . S
H482 C487 0.950 . S
H483 C488 0.949 . S
H484 C490 0.950 . S
H485 C491 0.950 . S
H486 C492 0.949 . S
C487 H482 0.950 . S
C487 C489 1.327 . S
C487 C493 1.429 1_556 S
C488 C480 1.574 1_565 S
C488 H483 0.949 . S
C488 C494 1.368 . S
C489 C473 1.349 1_556 S
C489 H481 0.950 . S
C489 C487 1.327 . S
C490 C478 1.349 . S
C490 H484 0.950 . S
C490 C491 1.327 . S
C491 H485 0.950 . S
C491 C490 1.327 . S
C491 C495 1.429 . S
C492 C475 1.574 1_545 S
C492 H486 0.949 . S
C492 C496 1.368 1_556 S
C493 C474 1.429 . S
C493 C487 1.429 1_554 S
C493 C494 1.523 . S
C494 C475 1.368 1_554 S
C494 C488 1.368 . S
C494 C493 1.523 . S
C495 C479 1.429 1_554 S
C495 C491 1.429 . S
C495 C496 1.523 . S
C496 C480 1.368 . S
C496 C492 1.368 1_554 S
C496 C495 1.523 . S
H497 C472 0.950 . S
H498 C474 0.950 . S
H499 C475 0.949 . S
H500 C477 0.950 . S
H501 C479 0.950 . S
C502 C503 1.349 . S
C502 C504 1.327 . S
C502 H527 0.950 . S
C503 C502 1.349 . S
C503 C519 1.349 . S
C504 C502 1.327 . S
C504 C523 1.429 . S
C504 H528 0.950 . S
C505 C522 1.574 1_565 S
C505 C524 1.368 . S
C505 H529 0.949 . S
H506 C510 0.949 . S
C507 C508 1.349 . S
C507 C509 1.327 . S
C507 H530 0.950 . S
C508 C507 1.349 . S
C508 C520 1.349 . S
C509 C507 1.327 . S
C509 C525 1.429 . S
C509 H531 0.950 . S
C510 H506 0.949 . S
C510 C518 1.574 1_545 S
C510 C526 1.368 . S
H511 C519 0.950 . S
H512 C517 0.950 . S
H513 C518 0.949 . S
H514 C520 0.950 . S
H515 C521 0.950 . S
H516 C522 0.949 . S
C517 H512 0.950 . S
C517 C519 1.327 . S
C517 C523 1.429 . S
C518 C510 1.574 1_565 S
C518 H513 0.949 . S
C518 C524 1.368 . S
C519 C503 1.349 . S
C519 H511 0.950 . S
C519 C517 1.327 . S
C520 C508 1.349 . S
C520 H514 0.950 . S
C520 C521 1.327 . S
C521 H515 0.950 . S
C521 C520 1.327 . S
C521 C525 1.429 . S
C522 C505 1.574 1_545 S
C522 H516 0.949 . S
C522 C526 1.368 . S
C523 C504 1.429 . S
C523 C517 1.429 . S
C523 C524 1.523 . S
C524 C505 1.368 . S
C524 C518 1.368 . S
C524 C523 1.523 . S
C525 C509 1.429 . S
C525 C521 1.429 . S
C525 C526 1.523 . S
C526 C510 1.368 . S
C526 C522 1.368 . S
C526 C525 1.523 . S
H527 C502 0.950 . S
H528 C504 0.950 . S
H529 C505 0.949 . S
H530 C507 0.950 . S
H531 C509 0.950 . S
C532 C533 1.349 . S
C532 C534 1.327 . S
C532 H557 0.950 . S
C533 C532 1.349 . S
C533 C549 1.349 1_554 S
C534 C532 1.327 . S
C534 C553 1.429 . S
C534 H558 0.950 . S
C535 C552 1.574 . S
C535 C554 1.368 1_556 S
C535 H559 0.949 . S
H536 C540 0.949 . S
C537 C538 1.349 1_556 S
C537 C539 1.327 . S
C537 H560 0.950 . S
C538 C537 1.349 1_554 S
C538 C550 1.349 . S
C539 C537 1.327 . S
C539 C555 1.429 1_556 S
C539 H561 0.950 . S
C540 H536 0.949 . S
C540 C548 1.574 . S
C540 C556 1.368 . S
H541 C549 0.950 . S
H542 C547 0.950 . S
H543 C548 0.949 . S
H544 C550 0.950 . S
H545 C551 0.950 . S
H546 C552 0.949 . S
C547 H542 0.950 . S
C547 C549 1.327 . S
C547 C553 1.429 1_556 S
C548 C540 1.574 . S
C548 H543 0.949 . S
C548 C554 1.368 1_655 S
C549 C533 1.349 1_556 S
C549 H541 0.950 . S
C549 C547 1.327 . S
C550 C538 1.349 . S
C550 H544 0.950 . S
C550 C551 1.327 . S
C551 H545 0.950 . S
C551 C550 1.327 . S
C551 C555 1.429 . S
C552 C535 1.574 . S
C552 H546 0.949 . S
C552 C556 1.368 1_456 S
C553 C534 1.429 . S
C553 C547 1.429 1_554 S
C553 C554 1.523 . S
C554 C535 1.368 1_554 S
C554 C548 1.368 1_455 S
C554 C553 1.523 . S
C555 C539 1.429 1_554 S
C555 C551 1.429 . S
C555 C556 1.523 . S
C556 C540 1.368 . S
C556 C552 1.368 1_654 S
C556 C555 1.523 . S
H557 C532 0.950 . S
H558 C534 0.950 . S
H559 C535 0.949 . S
H560 C537 0.950 . S
H561 C539 0.950 . S
C562 C563 1.349 . S
C562 C564 1.327 . S
C562 H587 0.950 . S
C563 C562 1.349 . S
C563 C579 1.349 . S
C564 C562 1.327 . S
C564 C583 1.429 . S
C564 H588 0.950 . S
C565 C582 1.574 . S
C565 C584 1.368 1_655 S
C565 H589 0.949 . S
H566 C570 0.949 . S
C567 C568 1.349 . S
C567 C569 1.327 . S
C567 H590 0.950 . S
C568 C567 1.349 . S
C568 C580 1.349 . S
C569 C567 1.327 . S
C569 C585 1.429 . S
C569 H591 0.950 . S
C570 H566 0.949 . S
C570 C578 1.574 . S
C570 C586 1.368 1_455 S
H571 C579 0.950 . S
H572 C577 0.950 . S
H573 C578 0.949 . S
H574 C580 0.950 . S
H575 C581 0.950 . S
H576 C582 0.949 . S
C577 H572 0.950 . S
C577 C579 1.327 . S
C577 C583 1.429 . S
C578 C570 1.574 . S
C578 H573 0.949 . S
C578 C584 1.368 . S
C579 C563 1.349 . S
C579 H571 0.950 . S
C579 C577 1.327 . S
C580 C568 1.349 . S
C580 H574 0.950 . S
C580 C581 1.327 . S
C581 H575 0.950 . S
C581 C580 1.327 . S
C581 C585 1.429 . S
C582 C565 1.574 . S
C582 H576 0.949 . S
C582 C586 1.368 . S
C583 C564 1.429 . S
C583 C577 1.429 . S
C583 C584 1.523 . S
C584 C565 1.368 1_455 S
C584 C578 1.368 . S
C584 C583 1.523 . S
C585 C569 1.429 . S
C585 C581 1.429 . S
C585 C586 1.523 . S
C586 C570 1.368 1_655 S
C586 C582 1.368 . S
C586 C585 1.523 . S
H587 C562 0.950 . S
H588 C564 0.950 . S
H589 C565 0.949 . S
H590 C567 0.950 . S
H591 C569 0.950 . S
C113 C74 1.483 . S
C118 C4 1.483 . S
C143 C60 1.483 . S
C148 C18 1.483 . S
C173 C102 1.483 . S
C178 C32 1.483 . S
C203 C88 1.483 . S
C208 C46 1.483 . S
C233 C12 1.368 . S
C238 C40 1.368 . S
C263 C26 1.368 . S
C268 C54 1.368 . S
C293 C19 1.219 . S
C298 C47 1.219 . S
C323 C5 1.219 . S
C328 C33 1.219 . S
C353 C68 1.368 . S
C358 C96 1.368 . S
C383 C110 1.368 . S
C388 C82 1.368 . S
C413 C103 1.219 . S
C418 C75 1.219 . S
C443 C61 1.219 . S
C448 C89 1.219 . S
C473 C25 1.510 . S
C478 C11 1.510 . S
C503 C39 1.510 . S
C508 C53 1.510 . S
C533 C67 1.510 . S
C538 C81 1.510 . S
C563 C95 1.510 . S
C568 C109 1.510 . S
