# Generated by pormake.
# Topology wjt, (5)-cn, num edge types: 1
# Building blocks:
#     Node 0, Type 0, BuildingBlock: XOMCOT_clean_sbu_1, # of connection points: 5
#     Node 1, Type 0, BuildingBlock: XOMCOT_clean_sbu_1, # of connection points: 5
#     Node 2, Type 0, BuildingBlock: XOMCOT_clean_sbu_1, # of connection points: 5
#     Node 3, Type 0, BuildingBlock: XOMCOT_clean_sbu_1, # of connection points: 5
#     Node 4, Type 0, BuildingBlock: XOMCOT_clean_sbu_1, # of connection points: 5
#     Node 5, Type 0, BuildingBlock: XOMCOT_clean_sbu_1, # of connection points: 5
#     Node 6, Type 0, BuildingBlock: XOMCOT_clean_sbu_1, # of connection points: 5
#     Node 7, Type 0, BuildingBlock: XOMCOT_clean_sbu_1, # of connection points: 5
#     Node 8, Type 0, BuildingBlock: XOMCOT_clean_sbu_1, # of connection points: 5
#     Node 9, Type 0, BuildingBlock: XOMCOT_clean_sbu_1, # of connection points: 5
#     Node 10, Type 0, BuildingBlock: XOMCOT_clean_sbu_1, # of connection points: 5
#     Node 11, Type 0, BuildingBlock: XOMCOT_clean_sbu_1, # of connection points: 5
#     Edge 12, Type (0, 0), BuildingBlock: ZUJKAS_clean_linker_0, # of connection points: 2
#     Edge 13, Type (0, 0), BuildingBlock: ZUJKAS_clean_linker_0, # of connection points: 2
#     Edge 14, Type (0, 0), BuildingBlock: ZUJKAS_clean_linker_0, # of connection points: 2
#     Edge 15, Type (0, 0), BuildingBlock: ZUJKAS_clean_linker_0, # of connection points: 2
#     Edge 16, Type (0, 0), BuildingBlock: ZUJKAS_clean_linker_0, # of connection points: 2
#     Edge 17, Type (0, 0), BuildingBlock: ZUJKAS_clean_linker_0, # of connection points: 2
#     Edge 18, Type (0, 0), BuildingBlock: ZUJKAS_clean_linker_0, # of connection points: 2
#     Edge 19, Type (0, 0), BuildingBlock: ZUJKAS_clean_linker_0, # of connection points: 2
#     Edge 20, Type (0, 0), BuildingBlock: ZUJKAS_clean_linker_0, # of connection points: 2
#     Edge 21, Type (0, 0), BuildingBlock: ZUJKAS_clean_linker_0, # of connection points: 2
#     Edge 22, Type (0, 0), BuildingBlock: ZUJKAS_clean_linker_0, # of connection points: 2
#     Edge 23, Type (0, 0), BuildingBlock: ZUJKAS_clean_linker_0, # of connection points: 2
#     Edge 24, Type (0, 0), BuildingBlock: ZUJKAS_clean_linker_0, # of connection points: 2
#     Edge 25, Type (0, 0), BuildingBlock: ZUJKAS_clean_linker_0, # of connection points: 2
#     Edge 26, Type (0, 0), BuildingBlock: ZUJKAS_clean_linker_0, # of connection points: 2
#     Edge 27, Type (0, 0), BuildingBlock: ZUJKAS_clean_linker_0, # of connection points: 2
#     Edge 28, Type (0, 0), BuildingBlock: ZUJKAS_clean_linker_0, # of connection points: 2
#     Edge 29, Type (0, 0), BuildingBlock: ZUJKAS_clean_linker_0, # of connection points: 2
#     Edge 30, Type (0, 0), BuildingBlock: ZUJKAS_clean_linker_0, # of connection points: 2
#     Edge 31, Type (0, 0), BuildingBlock: ZUJKAS_clean_linker_0, # of connection points: 2
#     Edge 32, Type (0, 0), BuildingBlock: ZUJKAS_clean_linker_0, # of connection points: 2
#     Edge 33, Type (0, 0), BuildingBlock: ZUJKAS_clean_linker_0, # of connection points: 2
#     Edge 34, Type (0, 0), BuildingBlock: ZUJKAS_clean_linker_0, # of connection points: 2
#     Edge 35, Type (0, 0), BuildingBlock: ZUJKAS_clean_linker_0, # of connection points: 2
#     Edge 36, Type (0, 0), BuildingBlock: ZUJKAS_clean_linker_0, # of connection points: 2
#     Edge 37, Type (0, 0), BuildingBlock: ZUJKAS_clean_linker_0, # of connection points: 2
#     Edge 38, Type (0, 0), BuildingBlock: ZUJKAS_clean_linker_0, # of connection points: 2
#     Edge 39, Type (0, 0), BuildingBlock: ZUJKAS_clean_linker_0, # of connection points: 2
#     Edge 40, Type (0, 0), BuildingBlock: ZUJKAS_clean_linker_0, # of connection points: 2
#     Edge 41, Type (0, 0), BuildingBlock: ZUJKAS_clean_linker_0, # of connection points: 2
# Relax obj value: 0.211
# Max RMSD: 0.161
# Mean RMSD: 0.161
data_MOF--net-wjt--node1-XOMCOT_clean_sbu_1--edge1-ZUJKAS_clean_linker_0
_symmetry_space_group_name_H-M    P1
_symmetry_Int_Tables_number       1
_symmetry_cell_setting            triclinic
loop_
_symmetry_equiv_pos_as_xyz
'x, y, z'
_cell_length_a     87.938701
_cell_length_b     87.962435
_cell_length_c     21.526005
_cell_angle_alpha  90.004701
_cell_angle_beta   89.973006
_cell_angle_gamma 119.95919
loop_
_atom_site_label
_atom_site_type_symbol
_atom_site_fract_x
_atom_site_fract_y
_atom_site_fract_z
_atom_type_partial_charge
C0 C 0.29376 0.4336 0.2787 0.0
C1 C 0.28995 0.42885 0.34004 0.0
N2 N 0.29953 0.42159 0.35857 0.0
N3 N 0.30561 0.42926 0.2586 0.0
C4 C 0.30881 0.4219 0.30818 0.0
H5 H 0.28875 0.44046 0.2514 0.0
Co6 Co 0.31637 0.43453 0.18157 0.0
C7 C 0.33186 0.41133 0.16638 0.0
O8 O 0.34413 0.42307 0.13019 0.0
N9 N 0.32707 0.44008 0.1022 0.0
C10 C 0.34454 0.45268 0.02065 0.0
C11 C 0.34211 0.45429 0.08278 0.0
C12 C 0.32062 0.43014 0.05042 0.0
N13 N 0.33097 0.43751 0.00048 0.0
O14 O 0.29379 0.42008 0.14335 0.0
H15 H 0.351 0.46526 0.11108 0.0
H16 H 0.30865 0.41756 0.04929 0.0
O17 O 0.32008 0.41426 0.18889 0.0
C18 C 0.28761 0.42961 0.124 0.0
O19 O 0.29729 0.4467 0.13086 0.0
N20 N 0.33785 0.45 0.22069 0.0
C21 C 0.36853 0.47717 0.27211 0.0
C22 C 0.36484 0.45976 0.27644 0.0
C23 C 0.34933 0.44628 0.25063 0.0
C24 C 0.34059 0.46668 0.22099 0.0
C25 C 0.35605 0.48054 0.24499 0.0
H26 H 0.34667 0.43302 0.25585 0.0
H27 H 0.33099 0.46931 0.19979 0.0
H28 H 0.31818 0.41735 0.30798 0.0
H29 H 0.2816 0.43152 0.36964 0.0
H30 H 0.35523 0.46216 0.99212 0.0
H31 H 0.37402 0.45664 0.29848 0.0
H32 H 0.35825 0.49379 0.2422 0.0
C33 C 0.86098 0.31369 0.57708 0.0
C34 C 0.85674 0.31027 0.63888 0.0
N35 N 0.86835 0.30656 0.6657 0.0
N36 N 0.8752 0.31217 0.56509 0.0
C37 C 0.87932 0.30766 0.61982 0.0
H38 H 0.85455 0.3177 0.54341 0.0
Co39 Co 0.88684 0.31775 0.48958 0.0
C40 C 0.9177 0.31391 0.51537 0.0
O41 O 0.91326 0.30255 0.46974 0.0
N42 N 0.8983 0.32342 0.41351 0.0
C43 C 0.91777 0.33638 0.33788 0.0
C44 C 0.91476 0.33638 0.40059 0.0
C45 C 0.89157 0.31579 0.35835 0.0
N46 N 0.90316 0.32336 0.3116 0.0
O47 O 0.87794 0.29313 0.47368 0.0
H48 H 0.9239 0.34535 0.43454 0.0
H49 H 0.87823 0.30522 0.35218 0.0
O50 O 0.90796 0.32041 0.52854 0.0
C51 C 0.86181 0.28534 0.45784 0.0
O52 O 0.85388 0.29461 0.45383 0.0
N53 N 0.89416 0.34145 0.50396 0.0
C54 C 0.89918 0.37486 0.52816 0.0
C55 C 0.90625 0.36726 0.56773 0.0
C56 C 0.90354 0.3505 0.55495 0.0
C57 C 0.88746 0.34869 0.46437 0.0
C58 C 0.88996 0.36544 0.47522 0.0
H59 H 0.9082 0.34449 0.58781 0.0
H60 H 0.87968 0.34119 0.42501 0.0
H61 H 0.8907 0.3062 0.6268 0.0
H62 H 0.84624 0.31096 0.66256 0.0
H63 H 0.92975 0.34525 0.31354 0.0
H64 H 0.91313 0.37383 0.60984 0.0
H65 H 0.88441 0.37079 0.44294 0.0
C66 C 0.54603 0.86181 0.89772 0.0
C67 C 0.54345 0.85671 0.95894 0.0
N68 N 0.55869 0.86646 0.98945 0.0
N69 N 0.56274 0.87481 0.89006 0.0
C70 C 0.57019 0.87726 0.9465 0.0
H71 H 0.53631 0.85658 0.86112 0.0
Co72 Co 0.57222 0.88604 0.81587 0.0
C73 C 0.59458 0.92323 0.84938 0.0
O74 O 0.58685 0.92678 0.80391 0.0
N75 N 0.58188 0.8964 0.73912 0.0
C76 C 0.60169 0.90892 0.66372 0.0
C77 C 0.59888 0.90815 0.72653 0.0
C78 C 0.57499 0.8895 0.6831 0.0
N79 N 0.58664 0.89707 0.63647 0.0
O80 O 0.58718 0.87594 0.81411 0.0
H81 H 0.60914 0.91465 0.76064 0.0
H82 H 0.56236 0.87781 0.67714 0.0
O83 O 0.59027 0.90724 0.86048 0.0
C84 C 0.57869 0.86013 0.79492 0.0
O85 O 0.56194 0.85337 0.7819 0.0
N86 N 0.55611 0.89465 0.81694 0.0
C87 C 0.52738 0.90007 0.83 0.0
C88 C 0.54035 0.90565 0.87603 0.0
C89 C 0.55441 0.90263 0.86904 0.0
C90 C 0.54362 0.88922 0.77161 0.0
C91 C 0.52937 0.89205 0.77667 0.0
H92 H 0.56333 0.90576 0.90764 0.0
H93 H 0.54386 0.88158 0.7331 0.0
H94 H 0.58364 0.88711 0.95626 0.0
H95 H 0.53132 0.84666 0.97939 0.0
H96 H 0.61413 0.91687 0.64047 0.0
H97 H 0.53913 0.91134 0.91904 0.0
H98 H 0.51963 0.88736 0.74005 0.0
C99 C 0.68708 0.54377 0.23034 0.0
C100 C 0.68915 0.54062 0.29135 0.0
N101 N 0.69284 0.55505 0.32452 0.0
N102 N 0.68936 0.56004 0.22531 0.0
C103 C 0.69303 0.56669 0.28324 0.0
H104 H 0.6837 0.53465 0.19215 0.0
Co105 Co 0.68668 0.56924 0.152 0.0
C106 C 0.67288 0.59237 0.18677 0.0
O107 O 0.66122 0.58451 0.14251 0.0
N108 N 0.68493 0.5785 0.07564 0.0
C109 C 0.69124 0.59784 -0.00078 0.0
C110 C 0.69089 0.5956 0.06229 0.0
C111 C 0.6828 0.5709 0.01943 0.0
N112 N 0.68625 0.58226 0.97224 0.0
O113 O 0.71172 0.58383 0.14585 0.0
H114 H 0.69607 0.60617 0.09573 0.0
H115 H 0.68082 0.55787 0.0129 0.0
O116 O 0.68443 0.58782 0.19724 0.0
C117 C 0.71798 0.57503 0.12044 0.0
O118 O 0.707 0.55877 0.10378 0.0
N119 N 0.662 0.55336 0.15783 0.0
C120 C 0.62825 0.52488 0.1792 0.0
C121 C 0.63614 0.53867 0.22196 0.0
C122 C 0.65304 0.55257 0.21099 0.0
C123 C 0.65443 0.53999 0.11577 0.0
C124 C 0.63747 0.52583 0.12487 0.0
H125 H 0.65928 0.56211 0.24753 0.0
H126 H 0.66192 0.53937 0.07743 0.0
H127 H 0.69503 0.57949 0.2954 0.0
H128 H 0.68779 0.52857 0.30995 0.0
H129 H 0.69579 0.61018 0.9753 0.0
H130 H 0.6296 0.53838 0.26496 0.0
H131 H 0.63212 0.51514 0.09171 0.0
C132 C 0.14493 0.71442 0.61732 0.0
C133 C 0.14437 0.71818 0.67903 0.0
N134 N 0.12767 0.70849 0.69902 0.0
N135 N 0.12866 0.70247 0.59855 0.0
C136 C 0.11842 0.69923 0.64907 0.0
H137 H 0.15658 0.71943 0.58881 0.0
Co138 Co 0.1229 0.69136 0.52236 0.0
C139 C 0.08413 0.67539 0.50929 0.0
O140 O 0.08374 0.66302 0.47401 0.0
N141 N 0.11749 0.68029 0.44368 0.0
C142 C 0.11349 0.66309 0.36209 0.0
C143 C 0.1176 0.66571 0.42417 0.0
C144 C 0.11333 0.68625 0.39215 0.0
N145 N 0.11089 0.67609 0.34208 0.0
O146 O 0.13078 0.71376 0.48288 0.0
H147 H 0.12062 0.65742 0.45222 0.0
H148 H 0.11203 0.69785 0.39126 0.0
O149 O 0.09884 0.68748 0.53067 0.0
C150 C 0.14585 0.71932 0.45833 0.0
O151 O 0.15307 0.70938 0.46213 0.0
N152 N 0.11721 0.67011 0.56274 0.0
C153 C 0.11473 0.64045 0.61984 0.0
C154 C 0.10072 0.64376 0.62266 0.0
C155 C 0.10225 0.65875 0.5941 0.0
C156 C 0.13135 0.66768 0.56358 0.0
C157 C 0.13029 0.65276 0.59055 0.0
H158 H 0.09149 0.66121 0.59892 0.0
H159 H 0.14342 0.67722 0.54128 0.0
H160 H 0.10454 0.68978 0.64984 0.0
H161 H 0.15557 0.72654 0.70781 0.0
H162 H 0.11309 0.65279 0.3334 0.0
H163 H 0.08862 0.63474 0.64614 0.0
H164 H 0.14158 0.65092 0.58884 0.0
C165 C 0.43676 0.14388 0.9335 0.0
C166 C 0.43256 0.14417 0.99487 0.0
N167 N 0.42592 0.12784 0.01794 0.0
N168 N 0.43267 0.12743 0.918 0.0
C169 C 0.42606 0.11794 0.97036 0.0
H170 H 0.44285 0.15505 0.90259 0.0
Co171 Co 0.4368 0.12071 0.84143 0.0
C172 C 0.4136 0.08204 0.83341 0.0
O173 O 0.42541 0.08119 0.79854 0.0
N174 N 0.44116 0.11438 0.76205 0.0
C175 C 0.45314 0.11022 0.67714 0.0
C176 C 0.45551 0.11438 0.73925 0.0
C177 C 0.43028 0.11006 0.71257 0.0
N178 N 0.4373 0.10766 0.66042 0.0
O179 O 0.42198 0.12856 0.804 0.0
H180 H 0.46727 0.11759 0.76479 0.0
H181 H 0.41746 0.10893 0.71439 0.0
O182 O 0.41646 0.09695 0.85349 0.0
C183 C 0.4309 0.14318 0.77591 0.0
O184 O 0.44808 0.15039 0.77465 0.0
N185 N 0.45261 0.11496 0.87965 0.0
C186 C 0.48009 0.11209 0.93335 0.0
C187 C 0.46256 0.09865 0.94022 0.0
C188 C 0.449 0.10038 0.91348 0.0
C189 C 0.46938 0.12863 0.87635 0.0
C190 C 0.48333 0.12734 0.90133 0.0
H191 H 0.43572 0.09014 0.9219 0.0
H192 H 0.47198 0.14045 0.85197 0.0
H193 H 0.42165 0.10409 0.97395 0.0
H194 H 0.43497 0.15565 0.02123 0.0
H195 H 0.46271 0.11003 0.64603 0.0
H196 H 0.45923 0.08697 0.96693 0.0
H197 H 0.49653 0.13812 0.89433 0.0
C198 C 0.55085 0.69051 0.42867 0.0
C199 C 0.55021 0.69405 0.36688 0.0
N200 N 0.56567 0.698 0.34061 0.0
N201 N 0.56663 0.69222 0.44136 0.0
C202 C 0.57545 0.69695 0.38697 0.0
H203 H 0.54028 0.68635 0.46192 0.0
Co204 Co 0.57259 0.68676 0.51753 0.0
C205 C 0.60736 0.69079 0.49155 0.0
O206 O 0.61438 0.7027 0.53542 0.0
N207 N 0.57834 0.6813 0.59421 0.0
C208 C 0.5853 0.66889 0.6705 0.0
C209 C 0.58218 0.66861 0.60777 0.0
C210 C 0.57913 0.68905 0.64906 0.0
N211 N 0.58342 0.68182 0.69625 0.0
O212 O 0.58822 0.7114 0.53311 0.0
H213 H 0.58258 0.65966 0.5742 0.0
H214 H 0.5762 0.69954 0.65458 0.0
O215 O 0.59105 0.68395 0.47924 0.0
C216 C 0.57988 0.71929 0.54771 0.0
O217 O 0.56266 0.71016 0.55025 0.0
N218 N 0.55627 0.66299 0.50354 0.0
C219 C 0.52772 0.62967 0.47856 0.0
C220 C 0.54201 0.63772 0.43733 0.0
C221 C 0.55618 0.65434 0.45078 0.0
C222 C 0.54275 0.65532 0.54482 0.0
C223 C 0.52853 0.63857 0.53382 0.0
H224 H 0.56655 0.66067 0.41689 0.0
H225 H 0.54275 0.66246 0.58573 0.0
H226 H 0.58843 0.69868 0.38067 0.0
H227 H 0.53906 0.69336 0.34292 0.0
H228 H 0.58876 0.66033 0.69514 0.0
H229 H 0.54195 0.6317 0.39343 0.0
H230 H 0.51808 0.6329 0.56783 0.0
C231 C 0.86419 0.57422 0.73586 0.0
C232 C 0.86381 0.57783 0.67395 0.0
N233 N 0.87956 0.58235 0.64887 0.0
N234 N 0.88013 0.57654 0.75 0.0
C235 C 0.88924 0.58156 0.69618 0.0
H236 H 0.85332 0.56964 0.76793 0.0
Co237 Co 0.88666 0.57145 0.82565 0.0
C238 C 0.92521 0.59755 0.8403 0.0
O239 O 0.9268 0.58862 0.88618 0.0
N240 N 0.8927 0.56584 0.90345 0.0
C241 C 0.8965 0.55154 0.98182 0.0
C242 C 0.89324 0.55124 0.91931 0.0
C243 C 0.89561 0.57472 0.95766 0.0
N244 N 0.89793 0.5663 0.00599 0.0
O245 O 0.87861 0.58564 0.86692 0.0
H246 H 0.89104 0.54071 0.88826 0.0
H247 H 0.89565 0.58699 0.96196 0.0
O248 O 0.91025 0.59205 0.81444 0.0
C249 C 0.86377 0.57613 0.89309 0.0
O250 O 0.85657 0.55898 0.88933 0.0
N251 N 0.89275 0.55634 0.78429 0.0
C252 C 0.89623 0.52952 0.72841 0.0
C253 C 0.91088 0.5463 0.73688 0.0
C254 C 0.90888 0.55956 0.76474 0.0
C255 C 0.87829 0.54034 0.77429 0.0
C256 C 0.87972 0.52672 0.74694 0.0
H257 H 0.92036 0.57226 0.76988 0.0
H258 H 0.86557 0.53803 0.78946 0.0
H259 H 0.90241 0.58371 0.69118 0.0
H260 H 0.85264 0.57683 0.64918 0.0
H261 H 0.89752 0.54151 0.0075 0.0
H262 H 0.92382 0.54922 0.72188 0.0
H263 H 0.86803 0.514 0.74201 0.0
C264 C 0.29207 0.86276 0.04532 0.0
C265 C 0.28808 0.86242 0.98345 0.0
N266 N 0.29954 0.87805 0.95824 0.0
N267 N 0.30593 0.87855 0.05923 0.0
C268 C 0.31014 0.88763 0.00537 0.0
H269 H 0.28567 0.85191 0.0774 0.0
Co270 Co 0.31776 0.88478 0.13438 0.0
C271 C 0.33052 0.92334 0.15113 0.0
O272 O 0.34135 0.92473 0.19558 0.0
N273 N 0.32958 0.89045 0.21153 0.0
C274 C 0.34749 0.89329 0.28936 0.0
C275 C 0.34436 0.8902 0.22682 0.0
C276 C 0.32396 0.89364 0.266 0.0
N277 N 0.3346 0.89541 0.31396 0.0
O278 O 0.29566 0.87678 0.17659 0.0
H279 H 0.35226 0.88747 0.19536 0.0
H280 H 0.31201 0.8942 0.27078 0.0
O281 O 0.32087 0.90848 0.12485 0.0
C282 C 0.29021 0.86189 0.20249 0.0
O283 O 0.30008 0.85459 0.19877 0.0
N284 N 0.33882 0.89083 0.09195 0.0
C285 C 0.36868 0.8941 0.03306 0.0
C286 C 0.36701 0.90891 0.04466 0.0
C287 C 0.35196 0.90701 0.07396 0.0
C288 C 0.33996 0.87626 0.07925 0.0
C289 C 0.35477 0.87758 0.05023 0.0
H290 H 0.35109 0.91862 0.08145 0.0
H291 H 0.3294 0.86351 0.09331 0.0
H292 H 0.3214 0.90064 9e-05 0.0
H293 H 0.27783 0.85132 0.95868 0.0
H294 H 0.35827 0.89364 0.31484 0.0
H295 H 0.37722 0.92189 0.03095 0.0
H296 H 0.35547 0.86576 0.04289 0.0
C297 C 0.4305 0.28881 0.38032 0.0
C298 C 0.42672 0.28482 0.31852 0.0
N299 N 0.42218 0.29608 0.29385 0.0
N300 N 0.42826 0.30245 0.39487 0.0
C301 C 0.4231 0.30655 0.34137 0.0
H302 H 0.43513 0.28249 0.41207 0.0
Co303 Co 0.43358 0.31392 0.47082 0.0
C304 C 0.4087 0.32774 0.48614 0.0
O305 O 0.41867 0.33881 0.52916 0.0
N306 N 0.4394 0.32539 0.54906 0.0
C307 C 0.45375 0.34319 0.62802 0.0
C308 C 0.45415 0.3403 0.56552 0.0
C309 C 0.43029 0.31952 0.60293 0.0
N310 N 0.43875 0.33006 0.65164 0.0
O311 O 0.41915 0.29167 0.51147 0.0
H312 H 0.46482 0.34858 0.53489 0.0
H313 H 0.41782 0.30749 0.60669 0.0
O314 O 0.41322 0.31741 0.46087 0.0
C315 C 0.42846 0.28611 0.53772 0.0
O316 O 0.44564 0.29597 0.53522 0.0
N317 N 0.44893 0.33507 0.42976 0.0
C318 C 0.47606 0.36515 0.37438 0.0
C319 C 0.45913 0.36286 0.37916 0.0
C320 C 0.44569 0.34768 0.40685 0.0
C321 C 0.46506 0.33668 0.4224 0.0
C322 C 0.47887 0.35168 0.39559 0.0
H323 H 0.43285 0.34627 0.40896 0.0
H324 H 0.46731 0.32639 0.4393 0.0
H325 H 0.42093 0.31757 0.33674 0.0
H326 H 0.42762 0.27462 0.29353 0.0
H327 H 0.46384 0.35409 0.65406 0.0
H328 H 0.45636 0.37287 0.36285 0.0
H329 H 0.49164 0.35274 0.39164 0.0
C330 C 0.14523 0.46049 0.76007 0.0
C331 C 0.15038 0.46191 0.69907 0.0
N332 N 0.14001 0.44641 0.67092 0.0
N333 N 0.13164 0.44422 0.77004 0.0
C334 C 0.12883 0.43588 0.71517 0.0
H335 H 0.15085 0.4707 0.79492 0.0
Co336 Co 0.12047 0.43595 0.84543 0.0
C337 C 0.08306 0.41577 0.81259 0.0
O338 O 0.08062 0.4247 0.85664 0.0
N339 N 0.11021 0.42744 0.92331 0.0
C340 C 0.09678 0.40894 0.00162 0.0
C341 C 0.09708 0.4112 0.93853 0.0
C342 C 0.11832 0.43428 0.97791 0.0
N343 N 0.11023 0.42346 0.02629 0.0
O344 O 0.12939 0.41999 0.84931 0.0
H345 H 0.08924 0.40087 0.90605 0.0
H346 H 0.1307 0.44639 0.9815 0.0
O347 O 0.09858 0.41837 0.80262 0.0
C348 C 0.14531 0.42837 0.86759 0.0
O349 O 0.15242 0.44525 0.87879 0.0
N350 N 0.11311 0.45309 0.8423 0.0
C351 C 0.10814 0.4821 0.82847 0.0
C352 C 0.10361 0.46971 0.78075 0.0
C353 C 0.10624 0.45543 0.78844 0.0
C354 C 0.1176 0.46503 0.88917 0.0
C355 C 0.11491 0.47936 0.88376 0.0
H356 H 0.10344 0.44666 0.74957 0.0
H357 H 0.1241 0.46415 0.93005 0.0
H358 H 0.11884 0.42233 0.70795 0.0
H359 H 0.16061 0.47359 0.67684 0.0
H360 H 0.08826 0.39698 0.02667 0.0
H361 H 0.09887 0.47139 0.73635 0.0
H362 H 0.1186 0.48847 0.92217 0.0
C363 C 0.69452 0.14382 0.08059 0.0
C364 C 0.69806 0.14797 0.01878 0.0
N365 N 0.70198 0.13643 0.9926 0.0
N366 N 0.6962 0.12974 0.09338 0.0
C367 C 0.70092 0.12561 0.03903 0.0
H368 H 0.69035 0.15025 0.11376 0.0
Co369 Co 0.69065 0.11835 0.16957 0.0
C370 C 0.69509 0.08777 0.14444 0.0
O371 O 0.70713 0.09284 0.18793 0.0
N372 N 0.68508 0.10715 0.24629 0.0
C373 C 0.67262 0.08772 0.32235 0.0
C374 C 0.67241 0.09061 0.25963 0.0
C375 C 0.69276 0.11406 0.30128 0.0
N376 N 0.6855 0.10249 0.34831 0.0
O377 O 0.71531 0.12761 0.18587 0.0
H378 H 0.66353 0.08127 0.2259 0.0
H379 H 0.70324 0.12746 0.30702 0.0
O380 O 0.68816 0.09716 0.13194 0.0
C381 C 0.72287 0.14378 0.20097 0.0
O382 O 0.71338 0.15148 0.20409 0.0
N383 N 0.66686 0.11065 0.15458 0.0
C384 C 0.63352 0.10526 0.12749 0.0
C385 C 0.64182 0.09917 0.0871 0.0
C386 C 0.6585 0.10195 0.10159 0.0
C387 C 0.65886 0.1164 0.19493 0.0
C388 C 0.64205 0.1136 0.18271 0.0
H389 H 0.66506 0.09798 0.06843 0.0
H390 H 0.66583 0.12376 0.23572 0.0
H391 H 0.7026 0.11433 0.03279 0.0
H392 H 0.69737 0.15842 0.99473 0.0
H393 H 0.66407 0.07566 0.34683 0.0
H394 H 0.63567 0.09274 0.04387 0.0
H395 H 0.63616 0.11872 0.21456 0.0
H396 H 0.26496 0.39557 0.08518 0.0
H397 H 0.23582 0.38441 0.03697 0.0
H398 H 0.24146 0.43585 0.05195 0.0
H399 H 0.27015 0.44699 0.09922 0.0
H400 H 0.20738 0.40438 0.09695 0.0
H401 H 0.22802 0.40061 0.85519 0.0
H402 H 0.23427 0.39172 0.91946 0.0
H403 H 0.24396 0.41501 0.91139 0.0
C404 C 0.25991 0.40443 0.07826 0.0
C405 C 0.26991 0.42218 0.09587 0.0
C406 C 0.24331 0.39806 0.0507 0.0
C407 C 0.23653 0.40934 0.04096 0.0
C408 C 0.24644 0.42692 0.05918 0.0
H409 H 0.1803 0.44318 0.85416 0.0
H410 H 0.19913 0.43214 0.89109 0.0
C411 C 0.26291 0.43328 0.08605 0.0
C412 C 0.2193 0.40346 0.01089 0.0
H413 H 0.20179 0.40134 0.86749 0.0
C414 C 0.2058 0.40306 0.04692 0.0
C415 C 0.21741 0.40187 0.94566 0.0
C416 C 0.23162 0.4023 0.9052 0.0
C417 C 0.19111 0.40258 0.01912 0.0
C418 C 0.18988 0.4024 0.95353 0.0
C419 C 0.2027 0.40136 0.91774 0.0
C420 C 0.17778 0.40714 0.92203 0.0
C421 C 0.17786 0.40393 0.05987 0.0
C422 C 0.15941 0.39648 0.92501 0.0
C423 C 0.1485 0.40279 0.90332 0.0
C424 C 0.15591 0.41987 0.8791 0.0
C425 C 0.17422 0.43 0.873 0.0
C426 C 0.18502 0.42368 0.89388 0.0
H427 H 0.18145 0.40526 0.10984 0.0
H428 H 0.17661 0.41541 0.04589 0.0
H429 H 0.16481 0.39199 0.05408 0.0
H430 H 0.15355 0.3836 0.94618 0.0
H431 H 0.13441 0.39476 0.90883 0.0
H432 H 0.74413 0.17864 0.18755 0.0
H433 H 0.77354 0.19686 0.22877 0.0
H434 H 0.77363 0.15074 0.29636 0.0
H435 H 0.74376 0.1322 0.25455 0.0
H436 H 0.78203 0.17622 0.38706 0.0
H437 H 0.82237 0.20722 0.17939 0.0
H438 H 0.8026 0.20837 0.17639 0.0
H439 H 0.80133 0.18727 0.17525 0.0
C440 C 0.75052 0.17229 0.21 0.0
C441 C 0.74166 0.154 0.21783 0.0
C442 C 0.76744 0.18274 0.2331 0.0
C443 C 0.77597 0.17519 0.26481 0.0
C444 C 0.76738 0.15683 0.27131 0.0
H445 H 0.87417 0.26461 0.40837 0.0
H446 H 0.85626 0.23454 0.3675 0.0
C447 C 0.75039 0.14626 0.2473 0.0
C448 C 0.79278 0.18695 0.29708 0.0
H449 H 0.83124 0.22526 0.27391 0.0
C450 C 0.79306 0.18663 0.36226 0.0
C451 C 0.80738 0.20038 0.26502 0.0
C452 C 0.80849 0.20071 0.19509 0.0
C453 C 0.80662 0.20039 0.39605 0.0
C454 C 0.82008 0.21493 0.36382 0.0
C455 C 0.8208 0.21428 0.29879 0.0
C456 C 0.83142 0.23198 0.39536 0.0
C457 C 0.80588 0.1997 0.46603 0.0
C458 C 0.82344 0.24046 0.42461 0.0
C459 C 0.83353 0.25749 0.44717 0.0
C460 C 0.85189 0.26651 0.44123 0.0
C461 C 0.86005 0.25787 0.41412 0.0
C462 C 0.84984 0.24075 0.39065 0.0
H463 H 0.79945 0.18592 0.48283 0.0
H464 H 0.8192 0.20714 0.48674 0.0
H465 H 0.79796 0.20552 0.48273 0.0
H466 H 0.80928 0.23419 0.42752 0.0
H467 H 0.82687 0.2638 0.4678 0.0
H468 H 0.56786 0.7417 0.529 0.0
H469 H 0.57913 0.77093 0.57242 0.0
H470 H 0.62273 0.76841 0.65286 0.0
H471 H 0.61137 0.7388 0.60863 0.0
H472 H 0.60384 0.77657 0.73845 0.0
H473 H 0.62012 0.81966 0.53388 0.0
H474 H 0.59904 0.80036 0.52472 0.0
H475 H 0.61839 0.79832 0.53002 0.0
C476 C 0.58009 0.74752 0.55464 0.0
C477 C 0.58877 0.73802 0.56533 0.0
C478 C 0.5866 0.76431 0.57909 0.0
C479 C 0.60193 0.77202 0.61516 0.0
C480 C 0.61101 0.7628 0.62447 0.0
H481 H 0.61272 0.871 0.75946 0.0
H482 H 0.62429 0.85205 0.72411 0.0
C483 C 0.60457 0.74596 0.59904 0.0
C484 C 0.6068 0.7886 0.64873 0.0
H485 H 0.60965 0.82833 0.62526 0.0
C486 C 0.60569 0.78813 0.71384 0.0
C487 C 0.6095 0.80385 0.61698 0.0
C488 C 0.61202 0.80565 0.54754 0.0
C489 C 0.60536 0.80169 0.74727 0.0
C490 C 0.60596 0.81595 0.71468 0.0
C491 C 0.60895 0.8173 0.65033 0.0
C492 C 0.60042 0.82771 0.74416 0.0
C493 C 0.60341 0.80015 0.81693 0.0
C494 C 0.58329 0.82035 0.76748 0.0
C495 C 0.57669 0.83104 0.78688 0.0
C496 C 0.58707 0.8494 0.78373 0.0
C497 C 0.60452 0.85689 0.76306 0.0
C498 C 0.6111 0.84609 0.74268 0.0
H499 H 0.60952 0.79274 0.83623 0.0
H500 H 0.60947 0.81326 0.83937 0.0
H501 H 0.58925 0.79284 0.82901 0.0
H502 H 0.57465 0.80625 0.7678 0.0
H503 H 0.56318 0.8249 0.80248 0.0
H504 H 0.8673 0.60902 0.8818 0.0
H505 H 0.84884 0.61937 0.93158 0.0
H506 H 0.8205 0.57014 0.02921 0.0
H507 H 0.83865 0.55989 0.98045 0.0
H508 H 0.81215 0.60309 0.91938 0.0
H509 H 0.82941 0.60538 0.16668 0.0
H510 H 0.84346 0.6056 0.10496 0.0
H511 H 0.82534 0.58516 0.13203 0.0
C512 C 0.85735 0.60061 0.91488 0.0
C513 C 0.85439 0.58363 0.92712 0.0
C514 C 0.84681 0.6065 0.94315 0.0
C515 C 0.83346 0.59564 0.98497 0.0
C516 C 0.83094 0.57893 -0.00166 0.0
H517 H 0.73467 0.55655 0.10555 0.0
H518 H 0.76515 0.56729 0.07717 0.0
C519 C 0.84126 0.57302 0.96986 0.0
C520 C 0.8208 0.60058 0.01042 0.0
H521 H 0.79911 0.59807 0.1451 0.0
C522 C 0.80968 0.60268 0.96888 0.0
C523 C 0.81759 0.60014 0.07504 0.0
C524 C 0.82973 0.59914 0.1222 0.0
C525 C 0.79445 0.60253 0.98994 0.0
C526 C 0.79033 0.60025 0.05396 0.0
C527 C 0.80227 0.59977 0.09596 0.0
C528 C 0.77231 0.59463 0.07593 0.0
C529 C 0.78201 0.6032 0.94333 0.0
C530 C 0.7663 0.60655 0.08577 0.0
C531 C 0.74871 0.60041 0.10269 0.0
C532 C 0.73698 0.58229 0.10906 0.0
C533 C 0.7433 0.57057 0.10056 0.0
C534 C 0.76075 0.57668 0.08449 0.0
H535 H 0.78761 0.60614 0.89567 0.0
H536 H 0.7696 0.59038 0.94265 0.0
H537 H 0.7787 0.61337 0.95713 0.0
H538 H 0.77508 0.62049 0.07932 0.0
H539 H 0.74418 0.60972 0.1087 0.0
H540 H 0.17167 0.72892 0.37334 0.0
H541 H 0.19075 0.75793 0.3302 0.0
H542 H 0.16171 0.77805 0.42808 0.0
H543 H 0.14234 0.74866 0.47221 0.0
H544 H 0.18389 0.78143 0.25887 0.0
H545 H 0.21336 0.80809 0.49091 0.0
H546 H 0.20027 0.78478 0.4772 0.0
H547 H 0.18992 0.79789 0.48203 0.0
C548 C 0.16917 0.73943 0.38538 0.0
C549 C 0.15562 0.73654 0.42675 0.0
C550 C 0.18006 0.75602 0.36036 0.0
C551 C 0.1778 0.77021 0.37637 0.0
C552 C 0.16379 0.7673 0.41559 0.0
H553 H 0.2614 0.86636 0.1911 0.0
H554 H 0.232 0.84753 0.23593 0.0
C555 C 0.15269 0.75052 0.44045 0.0
C556 C 0.19109 0.78802 0.35468 0.0
H557 H 0.22849 0.82447 0.4035 0.0
C558 C 0.19339 0.79114 0.29044 0.0
C559 C 0.20351 0.80057 0.39607 0.0
C560 C 0.20181 0.79778 0.46545 0.0
C561 C 0.2084 0.80583 0.26634 0.0
C562 C 0.22139 0.81778 0.30767 0.0
C563 C 0.21846 0.81533 0.37197 0.0
C564 C 0.23928 0.8307 0.28549 0.0
C565 C 0.21097 0.80769 0.19687 0.0
C566 C 0.25319 0.82784 0.30006 0.0
C567 C 0.2698 0.83845 0.27467 0.0
C568 C 0.273 0.85231 0.23433 0.0
C569 C 0.25931 0.85578 0.22201 0.0
C570 C 0.24252 0.84498 0.24728 0.0
H571 H 0.20033 0.79641 0.17136 0.0
H572 H 0.21122 0.81985 0.18135 0.0
H573 H 0.22373 0.80883 0.18403 0.0
H574 H 0.25102 0.81693 0.32943 0.0
H575 H 0.28008 0.83551 0.28563 0.0
H576 H 0.3962 0.25662 0.51822 0.0
H577 H 0.38588 0.22713 0.56183 0.0
H578 H 0.43337 0.24747 0.66993 0.0
H579 H 0.44359 0.27657 0.62716 0.0
H580 H 0.40327 0.20819 0.54706 0.0
H581 H 0.39625 0.21711 0.79681 0.0
H582 H 0.39664 0.23211 0.73857 0.0
H583 H 0.41683 0.23437 0.7682 0.0
C584 C 0.40418 0.2548 0.55242 0.0
C585 C 0.42071 0.26887 0.56919 0.0
C586 C 0.39832 0.23798 0.57714 0.0
C587 C 0.40873 0.23513 0.61991 0.0
C588 C 0.4249 0.24937 0.6382 0.0
H589 H 0.4448 0.16744 0.68452 0.0
H590 H 0.43377 0.18583 0.64342 0.0
C591 C 0.43081 0.26601 0.61319 0.0
C592 C 0.40406 0.2172 0.64073 0.0
H593 H 0.40461 0.1952 0.77061 0.0
C594 C 0.40303 0.20511 0.59597 0.0
C595 C 0.4034 0.21295 0.70446 0.0
C596 C 0.40314 0.22477 0.75469 0.0
C597 C 0.40315 0.18976 0.6133 0.0
C598 C 0.40457 0.18657 0.67689 0.0
C599 C 0.40378 0.19774 0.72177 0.0
C600 C 0.40974 0.17361 0.69705 0.0
C601 C 0.40259 0.17753 0.56312 0.0
C602 C 0.39994 0.16057 0.74135 0.0
C603 C 0.40629 0.14991 0.76516 0.0
C604 C 0.42268 0.15244 0.74592 0.0
C605 C 0.43215 0.16518 0.70046 0.0
C606 C 0.42577 0.17562 0.67639 0.0
H607 H 0.39514 0.17792 0.52203 0.0
H608 H 0.41617 0.18177 0.54764 0.0
H609 H 0.3965 0.1638 0.58012 0.0
H610 H 0.38763 0.15892 0.75847 0.0
H611 H 0.39877 0.14027 0.80046 0.0
H612 H 0.52533 0.60177 0.41167 0.0
H613 H 0.49876 0.57558 0.37669 0.0
H614 H 0.46709 0.59218 0.47678 0.0
H615 H 0.49333 0.61902 0.50752 0.0
H616 H 0.47287 0.54851 0.43237 0.0
H617 H 0.44517 0.58445 0.30994 0.0
H618 H 0.46721 0.59534 0.34021 0.0
H619 H 0.44888 0.59032 0.39046 0.0
C620 C 0.51273 0.60004 0.42554 0.0
C621 C 0.51164 0.61278 0.46198 0.0
C622 C 0.49752 0.58492 0.40597 0.0
C623 C 0.48086 0.58207 0.42276 0.0
C624 C 0.47974 0.5943 0.46156 0.0
H625 H 0.38329 0.48153 0.38723 0.0
H626 H 0.41074 0.50661 0.42446 0.0
C627 C 0.49489 0.60956 0.4802 0.0
C628 C 0.46468 0.56642 0.39942 0.0
H629 H 0.42581 0.55388 0.32571 0.0
C630 C 0.46263 0.54968 0.40867 0.0
C631 C 0.45143 0.56793 0.36735 0.0
C632 C 0.45336 0.58549 0.35079 0.0
C633 C 0.44762 0.53444 0.38765 0.0
C634 C 0.43396 0.5359 0.35851 0.0
C635 C 0.43614 0.55267 0.34865 0.0
C636 C 0.41746 0.52038 0.33633 0.0
C637 C 0.44684 0.51701 0.39546 0.0
C638 C 0.41172 0.51995 0.27509 0.0
C639 C 0.39583 0.50591 0.25447 0.0
C640 C 0.38544 0.49186 0.29439 0.0
C641 C 0.3912 0.49213 0.35542 0.0
C642 C 0.40695 0.50638 0.3765 0.0
H643 H 0.46019 0.51868 0.39939 0.0
H644 H 0.43964 0.51068 0.43885 0.0
H645 H 0.43998 0.50809 0.3559 0.0
H646 H 0.41952 0.53054 0.24313 0.0
H647 H 0.39171 0.50595 0.20708 0.0
H648 H 0.92271 0.52221 0.74901 0.0
H649 H 0.9253 0.49763 0.70872 0.0
H650 H 0.87629 0.47851 0.61102 0.0
H651 H 0.874 0.50347 0.64863 0.0
H652 H 0.90342 0.463 0.7288 0.0
H653 H 0.90705 0.47637 0.47618 0.0
H654 H 0.90979 0.49247 0.53371 0.0
H655 H 0.88816 0.47537 0.51209 0.0
C656 C 0.91267 0.51301 0.71781 0.0
C657 C 0.89817 0.51491 0.70194 0.0
C658 C 0.91411 0.49887 0.69522 0.0
C659 C 0.90113 0.48634 0.6561 0.0
C660 C 0.88667 0.4882 0.64001 0.0
H661 H 0.87412 0.38443 0.51344 0.0
H662 H 0.8758 0.41202 0.54304 0.0
C663 C 0.88526 0.50238 0.66233 0.0
C664 C 0.90223 0.47083 0.63496 0.0
H665 H 0.90147 0.44783 0.50586 0.0
C666 C 0.90319 0.45979 0.68003 0.0
C667 C 0.90192 0.46664 0.57128 0.0
C668 C 0.90185 0.47843 0.52051 0.0
C669 C 0.90334 0.44444 0.66327 0.0
C670 C 0.90268 0.44009 0.59972 0.0
C671 C 0.90193 0.4512 0.55457 0.0
C672 C 0.90219 0.42374 0.57939 0.0
C673 C 0.90367 0.43269 0.71368 0.0
C674 C 0.91662 0.42132 0.58902 0.0
C675 C 0.91579 0.4056 0.57152 0.0
C676 C 0.90051 0.392 0.54398 0.0
C677 C 0.88621 0.39467 0.53353 0.0
C678 C 0.88708 0.4104 0.55079 0.0
H679 H 0.90079 0.43613 0.76017 0.0
H680 H 0.89399 0.41873 0.70376 0.0
H681 H 0.91689 0.43401 0.71535 0.0
H682 H 0.9285 0.43158 0.61021 0.0
H683 H 0.92715 0.40412 0.57942 0.0
H684 H 0.4935 0.87555 0.80045 0.0
H685 H 0.46669 0.87604 0.82554 0.0
H686 H 0.49734 0.92658 0.91286 0.0
H687 H 0.52433 0.92658 0.88546 0.0
H688 H 0.45506 0.87675 0.94145 0.0
H689 H 0.46358 0.93458 0.80918 0.0
H690 H 0.4768 0.92451 0.79476 0.0
H691 H 0.48178 0.93933 0.85905 0.0
C692 C 0.49463 0.88703 0.82339 0.0
C693 C 0.51115 0.90108 0.84059 0.0
C694 C 0.47924 0.8872 0.83823 0.0
C695 C 0.47998 0.90142 0.87047 0.0
C696 C 0.49643 0.91561 0.88686 0.0
H697 H 0.40279 0.91957 0.05501 0.0
H698 H 0.42953 0.9215 0.01275 0.0
C699 C 0.51185 0.91549 0.8718 0.0
C700 C 0.46351 0.90078 0.89081 0.0
H701 H 0.4406 0.92272 0.88451 0.0
C702 C 0.45184 0.88673 0.92853 0.0
C703 C 0.45934 0.91385 0.87419 0.0
C704 C 0.47095 0.92883 0.83159 0.0
C705 C 0.43629 0.88554 0.95095 0.0
C706 C 0.43218 0.89865 0.93464 0.0
C707 C 0.44381 0.9127 0.89692 0.0
C708 C 0.41591 0.89801 0.95698 0.0
C709 C 0.42456 0.87048 0.99314 0.0
C710 C 0.39939 0.88437 0.9385 0.0
C711 C 0.38407 0.88328 0.96218 0.0
C712 C 0.38496 0.89584 0.00481 0.0
C713 C 0.40158 0.90977 0.02184 0.0
C714 C 0.41689 0.91086 -0.00203 0.0
H715 H 0.43141 0.86376 0.01212 0.0
H716 H 0.41975 0.87511 0.03249 0.0
H717 H 0.41298 0.86071 0.96648 0.0
H718 H 0.39835 0.87449 0.90602 0.0
H719 H 0.37151 0.87259 0.94708 0.0
H720 H 0.61865 0.50736 0.28953 0.0
H721 H 0.59143 0.48052 0.31463 0.0
H722 H 0.57234 0.47914 0.12896 0.0
H723 H 0.59982 0.50599 0.10316 0.0
H724 H 0.55792 0.47366 0.31564 0.0
H725 H 0.56506 0.43016 0.14524 0.0
H726 H 0.58278 0.45188 0.16321 0.0
H727 H 0.56548 0.44904 0.11163 0.0
C728 C 0.60861 0.50144 0.25411 0.0
C729 C 0.61136 0.50883 0.19437 0.0
C730 C 0.59308 0.48604 0.26846 0.0
C731 C 0.57991 0.47765 0.2235 0.0
C732 C 0.58247 0.48513 0.164 0.0
H733 H 0.47635 0.38334 0.2704 0.0
H734 H 0.50081 0.41095 0.2306 0.0
C735 C 0.59813 0.50051 0.14939 0.0
C736 C 0.56353 0.46121 0.23985 0.0
H737 H 0.5389 0.41758 0.20444 0.0
C738 C 0.55374 0.46143 0.29111 0.0
C739 C 0.55809 0.44522 0.20789 0.0
C740 C 0.56845 0.44394 0.15428 0.0
C741 C 0.53882 0.44609 0.3117 0.0
C742 C 0.53355 0.43013 0.28029 0.0
C743 C 0.543 0.42992 0.22815 0.0
C744 C 0.51884 0.41337 0.30335 0.0
C745 C 0.52885 0.44695 0.36735 0.0
C746 C 0.52101 0.40561 0.35696 0.0
C747 C 0.50716 0.38988 0.37956 0.0
C748 C 0.49083 0.38166 0.34909 0.0
C749 C 0.48872 0.38945 0.29514 0.0
C750 C 0.50267 0.40514 0.27222 0.0
H751 H 0.53277 0.46067 0.37996 0.0
H752 H 0.5145 0.43957 0.35821 0.0
H753 H 0.53145 0.44073 0.40774 0.0
H754 H 0.53343 0.41178 0.38143 0.0
H755 H 0.50913 0.38431 0.42156 0.0
H756 H 0.13033 0.51536 0.87269 0.0
H757 H 0.12984 0.54222 0.85022 0.0
H758 H 0.08435 0.5132 0.73384 0.0
H759 H 0.08382 0.48603 0.76018 0.0
H760 H 0.1352 0.55802 0.74559 0.0
H761 H 0.06925 0.54266 0.82408 0.0
H762 H 0.07842 0.52894 0.84341 0.0
H763 H 0.06779 0.52659 0.76957 0.0
C764 C 0.11982 0.5145 0.84403 0.0
C765 C 0.10708 0.49836 0.8185 0.0
C766 C 0.11969 0.52998 0.8306 0.0
C767 C 0.10694 0.5298 0.79088 0.0
C768 C 0.09408 0.51372 0.76587 0.0
H769 H 0.12272 0.61755 0.56432 0.0
H770 H 0.12069 0.591 0.60848 0.0
C771 C 0.094 0.49816 0.78015 0.0
C772 C 0.10799 0.54656 0.77169 0.0
H773 H 0.08374 0.5668 0.75255 0.0
C774 C 0.12397 0.55998 0.74788 0.0
C775 C 0.09348 0.54935 0.77548 0.0
C776 C 0.07635 0.53618 0.80518 0.0
C777 C 0.12573 0.57582 0.72624 0.0
C778 C 0.11089 0.57811 0.72602 0.0
C779 C 0.09505 0.56495 0.75165 0.0
C780 C 0.1115 0.59393 0.69864 0.0
C781 C 0.14358 0.59001 0.70468 0.0
C782 C 0.10622 0.60402 0.73347 0.0
C783 C 0.10701 0.61902 0.70772 0.0
C784 C 0.11323 0.62425 0.64687 0.0
C785 C 0.11819 0.61398 0.61174 0.0
C786 C 0.11713 0.59886 0.63709 0.0
H787 H 0.15425 0.58872 0.72717 0.0
H788 H 0.14469 0.58881 0.65379 0.0
H789 H 0.14567 0.60329 0.71488 0.0
H790 H 0.1017 0.60042 0.78088 0.0
H791 H 0.10312 0.62673 0.7358 0.0
H792 H 0.62589 0.11558 0.01854 0.0
H793 H 0.59896 0.11558 0.99054 0.0
H794 H 0.57614 0.09202 0.16726 0.0
H795 H 0.60347 0.09276 0.19645 0.0
H796 H 0.56682 0.09093 0.97364 0.0
H797 H 0.56723 0.13207 0.1692 0.0
H798 H 0.58554 0.12886 0.15301 0.0
H799 H 0.56676 0.11247 0.19502 0.0
C800 C 0.61509 0.11036 0.0513 0.0
C801 C 0.61675 0.10422 0.10972 0.0
C802 C 0.59971 0.11039 0.03535 0.0
C803 C 0.58558 0.10412 0.0772 0.0
C804 C 0.58702 0.09744 0.1349 0.0
H805 H 0.48229 0.08204 0.94439 0.0
H806 H 0.50678 0.07923 0.9833 0.0
C807 C 0.60256 0.09773 0.15138 0.0
C808 C 0.56939 0.1045 0.05971 0.0
H809 H 0.54168 0.11901 0.10624 0.0
C810 C 0.56135 0.09711 0.00263 0.0
C811 C 0.56236 0.11279 0.09701 0.0
C812 C 0.57102 0.12215 0.15662 0.0
C813 C 0.54663 0.09787 0.98158 0.0
C814 C 0.53923 0.1056 0.01988 0.0
C815 C 0.5472 0.11291 0.07714 0.0
C816 C 0.52374 0.107 0.00028 0.0
C817 C 0.53965 0.09097 0.91745 0.0
C818 C 0.52465 0.1234 9e-05 0.0
C819 C 0.51039 0.12498 0.97999 0.0
C820 C 0.49489 0.11022 0.95877 0.0
C821 C 0.49388 0.09372 0.96059 0.0
C822 C 0.50805 0.09212 0.98184 0.0
H823 H 0.54977 0.09056 0.88771 0.0
H824 H 0.52844 0.07738 0.92129 0.0
H825 H 0.53504 0.09917 0.89388 0.0
H826 H 0.53652 0.13508 0.01477 0.0
H827 H 0.51159 0.13784 0.98111 0.0
H828 H 0.30839 0.38216 0.23293 0.0
H829 H 0.31411 0.3604 0.28281 0.0
H830 H 0.36705 0.3875 0.21134 0.0
H831 H 0.36112 0.40837 0.15882 0.0
H832 H 0.35558 0.35445 0.20603 0.0
H833 H 0.33976 0.36881 0.44124 0.0
H834 H 0.32172 0.35991 0.38782 0.0
H835 H 0.34045 0.38128 0.37393 0.0
C836 C 0.32115 0.38327 0.22724 0.0
C837 C 0.33431 0.39705 0.19212 0.0
C838 C 0.32448 0.37094 0.25633 0.0
C839 C 0.34118 0.3725 0.25231 0.0
C840 C 0.35405 0.38593 0.2154 0.0
H841 H 0.4033 0.3553 0.5034 0.0
H842 H 0.38379 0.36224 0.44636 0.0
C843 C 0.35063 0.39793 0.18534 0.0
C844 C 0.3459 0.36089 0.28792 0.0
H845 H 0.35068 0.34948 0.4353 0.0
C846 C 0.3544 0.35325 0.25619 0.0
C847 C 0.34435 0.35928 0.35344 0.0
C848 C 0.33622 0.36786 0.39129 0.0
C849 C 0.36248 0.34522 0.28808 0.0
C850 C 0.36127 0.34396 0.35374 0.0
C851 C 0.35164 0.35045 0.38506 0.0
C852 C 0.37189 0.33841 0.39148 0.0
C853 C 0.37328 0.3394 0.25119 0.0
C854 C 0.37154 0.32243 0.38114 0.0
C855 C 0.38315 0.31859 0.41296 0.0
C856 C 0.39492 0.33042 0.45704 0.0
C857 C 0.39444 0.34584 0.46987 0.0
C858 C 0.3832 0.34984 0.43722 0.0
H859 H 0.37614 0.34501 0.20355 0.0
H860 H 0.38596 0.34332 0.27465 0.0
H861 H 0.36592 0.3249 0.24673 0.0
H862 H 0.36256 0.31309 0.34764 0.0
H863 H 0.38311 0.30653 0.40238 0.0
H864 H 0.04921 0.40755 0.82892 0.0
H865 H 0.02363 0.38783 0.76809 0.0
H866 H 0.05564 0.37516 0.65168 0.0
H867 H 0.08179 0.39521 0.71298 0.0
H868 H 0.02186 0.3913 0.62868 0.0
H869 H 0.01062 0.32655 0.71319 0.0
H870 H 0.02222 0.34609 0.76012 0.0
H871 H 0.03244 0.34354 0.69202 0.0
C872 C 0.05096 0.40057 0.79066 0.0
C873 C 0.06763 0.40301 0.77586 0.0
C874 C 0.03625 0.38927 0.75592 0.0
C875 C 0.03773 0.38001 0.70564 0.0
C876 C 0.05425 0.38212 0.69075 0.0
H877 H 0.94465 0.30803 0.48449 0.0
H878 H 0.97467 0.32313 0.52575 0.0
C879 C 0.06914 0.39358 0.72568 0.0
C880 C 0.02183 0.36882 0.66823 0.0
H881 H 0.98837 0.32654 0.6521 0.0
C882 C 0.01468 0.37711 0.63285 0.0
C883 C 0.01253 0.35034 0.6738 0.0
C884 C 0.01971 0.34096 0.71184 0.0
C885 C 0.99814 0.36748 0.60482 0.0
C886 C 0.98833 0.34909 0.61342 0.0
C887 C 0.99586 0.34066 0.64605 0.0
C888 C 0.96985 0.33872 0.59203 0.0
C889 C 0.99112 0.37712 0.56725 0.0
C890 C 0.95707 0.34204 0.61716 0.0
C891 C 0.93995 0.33345 0.59393 0.0
C892 C 0.93522 0.3213 0.54505 0.0
C893 C 0.94785 0.31735 0.522 0.0
C894 C 0.96502 0.32597 0.54542 0.0
H895 H 1.00185 0.39004 0.55087 0.0
H896 H 0.9836 0.36927 0.52635 0.0
H897 H 0.98216 0.37951 0.5967 0.0
H898 H 0.96044 0.35158 0.65403 0.0
H899 H 0.93055 0.33664 0.61345 0.0
H900 H 0.66734 0.07165 0.06439 0.0
H901 H 0.65338 0.04163 0.02554 0.0
H902 H 0.69165 0.03337 0.12145 0.0
H903 H 0.70579 0.06355 0.16119 0.0
H904 H 0.68378 0.02091 0.99088 0.0
H905 H 0.62448 0.99724 0.13856 0.0
H906 H 0.6305 0.01723 0.09724 0.0
H907 H 0.64493 0.01697 0.15582 0.0
C908 C 0.67292 0.06357 0.07713 0.0
C909 C 0.68766 0.07005 0.11632 0.0
C910 C 0.66483 0.04634 0.05509 0.0
C911 C 0.6713 0.0352 0.0715 0.0
C912 C 0.68637 0.04173 0.10872 0.0
H913 H 0.6057 0.92316 0.96909 0.0
H914 H 0.62656 0.94894 0.03018 0.0
C915 C 0.69444 0.05899 0.13125 0.0
C916 C 0.66217 0.01677 0.04933 0.0
H917 H 0.62226 0.97916 0.05206 0.0
C918 C 0.67045 0.01166 0.00501 0.0
C919 C 0.64488 0.00463 0.06853 0.0
C920 C 0.63568 0.00919 0.1181 0.0
C921 C 0.66143 0.99509 0.97641 0.0
C922 C 0.6437 0.98344 0.9924 0.0
C923 C 0.63583 0.98812 0.03967 0.0
C924 C 0.63246 0.96748 0.95521 0.0
C925 C 0.67076 0.99039 0.9279 0.0
C926 C 0.6289 0.96938 0.89317 0.0
C927 C 0.61697 0.95486 0.85881 0.0
C928 C 0.60834 0.93802 0.88553 0.0
C929 C 0.61226 0.93596 0.94721 0.0
C930 C 0.62411 0.95065 0.98209 0.0
H931 H 0.68523 0.99799 0.93428 0.0
H932 H 0.66637 0.97616 0.92928 0.0
H933 H 0.66773 0.99352 0.88119 0.0
H934 H 0.63493 0.98225 0.87182 0.0
H935 H 0.61429 0.95689 0.81134 0.0
H936 H 0.64198 0.7007 0.51069 0.0
H937 H 0.65813 0.68703 0.46791 0.0
H938 H 0.6123 0.65075 0.36416 0.0
H939 H 0.5961 0.66425 0.40633 0.0
H940 H 0.62897 0.63528 0.43877 0.0
H941 H 0.67555 0.68946 0.28432 0.0
H942 H 0.6735 0.69484 0.36345 0.0
H943 H 0.65534 0.68786 0.31121 0.0
C944 C 0.63538 0.68993 0.47825 0.0
C945 C 0.61771 0.68359 0.46203 0.0
C946 C 0.64465 0.68215 0.45384 0.0
C947 C 0.63641 0.6679 0.4128 0.0
C948 C 0.61889 0.66172 0.39586 0.0
H949 H 0.65912 0.61232 0.14989 0.0
H950 H 0.65364 0.63218 0.21226 0.0
C951 C 0.60966 0.66951 0.41993 0.0
C952 C 0.64574 0.65899 0.3884 0.0
H953 H 0.67678 0.66337 0.28323 0.0
C954 C 0.63962 0.64148 0.4055 0.0
C955 C 0.65959 0.66714 0.34498 0.0
C956 C 0.66641 0.68584 0.32437 0.0
C957 C 0.64657 0.63168 0.37863 0.0
C958 C 0.66005 0.63965 0.33373 0.0
C959 C 0.66659 0.65736 0.31822 0.0
C960 C 0.66551 0.62911 0.29571 0.0
C961 C 0.63876 0.61259 0.39581 0.0
C962 C 0.67448 0.62111 0.32151 0.0
C963 C 0.67776 0.60971 0.28554 0.0
C964 C 0.67193 0.60608 0.22364 0.0
C965 C 0.66363 0.61471 0.19762 0.0
C966 C 0.66054 0.62615 0.23312 0.0
H967 H 0.62707 0.60791 0.42632 0.0
H968 H 0.6349 0.60433 0.35331 0.0
H969 H 0.64874 0.61068 0.42063 0.0
H970 H 0.67854 0.62335 0.36971 0.0
H971 H 0.68414 0.60321 0.30681 0.0
H972 H 0.07801 0.69873 0.57511 0.0
H973 H 0.05055 0.69259 0.62635 0.0
H974 H 0.02556 0.63937 0.55815 0.0
H975 H 0.05227 0.64568 0.50425 0.0
H976 H 1.0033 0.64991 0.55336 0.0
H977 H 0.03453 0.66772 0.78655 0.0
H978 H 0.04298 0.68547 0.73191 0.0
H979 H 0.0462 0.66706 0.71885 0.0
C980 C 0.06654 0.68582 0.57042 0.0
C981 C 0.06738 0.67269 0.5358 0.0
C982 C 0.0509 0.68225 0.6003 0.0
C983 C 0.03601 0.66535 0.59762 0.0
C984 C 0.03677 0.65251 0.5612 0.0
H985 H 0.95849 0.60376 0.85637 0.0
H986 H 0.98448 0.62314 0.79687 0.0
C987 C 0.05216 0.65615 0.53034 0.0
C988 C 0.01975 0.66041 0.63409 0.0
H989 H 0.00416 0.65611 0.78226 0.0
C990 C 1.00348 0.65137 0.60343 0.0
C991 C 0.01994 0.66231 0.69952 0.0
C992 C 0.03681 0.67102 0.73633 0.0
C993 C 0.98754 0.64311 0.63634 0.0
C994 C 0.98776 0.64471 0.70191 0.0
C995 C 0.00396 0.65485 0.7321 0.0
C996 C 0.97183 0.6341 0.74084 0.0
C997 C 0.97084 0.63174 0.60063 0.0
C998 C 0.95594 0.63395 0.73062 0.0
C999 C 0.94076 0.6224 0.76386 0.0
C1000 C 0.94135 0.61122 0.80931 0.0
C1001 C 0.9575 0.61219 0.82189 0.0
C1002 C 0.97247 0.62335 0.78779 0.0
H1003 H 0.97353 0.62863 0.55327 0.0
H1004 H 0.96242 0.6192 0.62534 0.0
H1005 H 0.9634 0.6388 0.59547 0.0
H1006 H 0.95516 0.6425 0.6962 0.0
H1007 H 0.92854 0.62205 0.75342 0.0
H1008 H 0.40964 0.04943 0.82521 0.0
H1009 H 0.38797 0.02275 0.87572 0.0
H1010 H 0.36242 0.04982 0.94997 0.0
H1011 H 0.38495 0.0772 0.90167 0.0
H1012 H 0.36465 0.03144 0.03638 0.0
H1013 H 0.33957 0.98703 0.83663 0.0
H1014 H 0.36292 0.99668 0.83651 0.0
H1015 H 0.35321 0.01043 0.82667 0.0
C1016 C 0.39928 0.04976 0.85137 0.0
C1017 C 0.39901 0.0655 0.85904 0.0
C1018 C 0.3867 0.03433 0.87984 0.0
C1019 C 0.37314 0.03399 0.91532 0.0
C1020 C 0.37261 0.04964 0.92227 0.0
H1021 H 0.3098 0.92677 0.06258 0.0
H1022 H 0.31547 0.95376 0.00922 0.0
C1023 C 0.38546 0.06527 0.89455 0.0
C1024 C 0.36081 0.01769 0.94965 0.0
H1025 H 0.3397 0.9731 0.93587 0.0
C1026 C 0.35882 0.0187 0.01402 0.0
C1027 C 0.35253 1.00096 0.92086 0.0
C1028 C 0.35201 0.99878 0.85123 0.0
C1029 C 0.35025 0.0035 0.05079 0.0
C1030 C 0.34422 0.98684 0.02298 0.0
C1031 C 0.34473 0.9858 0.95795 0.0
C1032 C 0.33924 0.97074 0.06038 0.0
C1033 C 0.34804 0.00559 0.11921 0.0
C1034 C 0.35056 0.97117 0.1072 0.0
C1035 C 0.34714 0.95591 0.13854 0.0
C1036 C 0.33257 0.93963 0.12265 0.0
C1037 C 0.32109 0.93912 0.07616 0.0
C1038 C 0.32435 0.95454 0.04552 0.0
H1039 H 0.34582 0.01681 0.12733 0.0
H1040 H 0.33688 0.99359 0.13945 0.0
H1041 H 0.36027 0.00855 0.14407 0.0
H1042 H 0.36252 0.98322 0.11806 0.0
H1043 H 0.35643 0.95682 0.17342 0.0
H1044 H 0.32889 0.42417 0.40959 0.0
H1045 H 0.33381 0.42116 0.51936 0.0
H1046 H 0.28041 0.40726 0.56056 0.0
H1047 H 0.27527 0.40995 0.45035 0.0
H1048 H 0.32886 0.44322 0.60675 0.0
H1049 H 0.28923 0.37243 0.66665 0.0
H1050 H 0.29642 0.38007 0.58832 0.0
H1051 H 0.27831 0.38131 0.62122 0.0
C1052 C 0.31801 0.41993 0.44155 0.0
C1053 C 0.30169 0.41738 0.42136 0.0
C1054 C 0.32088 0.41827 0.5043 0.0
C1055 C 0.30743 0.41386 0.54776 0.0
C1056 C 0.29087 0.41042 0.52747 0.0
H1057 H 0.29941 0.42006 0.94372 0.0
H1058 H 0.29412 0.41267 0.83317 0.0
C1059 C 0.28801 0.41216 0.46471 0.0
C1060 C 0.31145 0.41537 0.61476 0.0
H1061 H 0.30101 0.39251 0.751 0.0
C1062 C 0.32295 0.43212 0.6383 0.0
C1063 C 0.30349 0.40087 0.65548 0.0
C1064 C 0.29125 0.3826 0.63183 0.0
C1065 C 0.32641 0.43489 0.70199 0.0
C1066 C 0.31853 0.42039 0.74299 0.0
C1067 C 0.30712 0.40357 0.71935 0.0
C1068 C 0.3215 0.4227 0.81077 0.0
C1069 C 0.33792 0.45345 0.7249 0.0
C1070 C 0.33856 0.4302 0.835 0.0
C1071 C 0.34161 0.43462 0.89779 0.0
C1072 C 0.32761 0.43127 0.93755 0.0
C1073 C 0.31041 0.42272 0.91403 0.0
C1074 C 0.30739 0.41851 0.851 0.0
H1075 H 0.33905 0.46329 0.69006 0.0
H1076 H 0.33273 0.45575 0.76876 0.0
H1077 H 0.35131 0.45571 0.73397 0.0
H1078 H 0.34957 0.43313 0.80495 0.0
H1079 H 0.35493 0.4409 0.91518 0.0
H1080 H 0.91653 0.34569 0.21465 0.0
H1081 H 0.90993 0.33854 0.10468 0.0
H1082 H 0.87659 0.28394 0.15166 0.0
H1083 H 0.8829 0.29113 0.26204 0.0
H1084 H 0.91487 0.31717 0.02698 0.0
H1085 H 0.84365 0.29393 0.05192 0.0
H1086 H 0.85916 0.3052 0.11347 0.0
H1087 H 0.85147 0.28238 0.09877 0.0
C1088 C 0.90792 0.33215 0.20145 0.0
C1089 C 0.9001 0.31899 0.24678 0.0
C1090 C 0.90412 0.32808 0.1387 0.0
C1091 C 0.89253 0.31076 0.12012 0.0
C1092 C 0.88521 0.29746 0.16512 0.0
H1093 H 0.88124 0.28744 0.71895 0.0
H1094 H 0.88639 0.28574 0.83008 0.0
C1095 C 0.88884 0.30156 0.22803 0.0
C1096 C 0.88789 0.30688 0.05367 0.0
H1097 H 0.85373 0.29261 0.95185 0.0
C1098 C 0.9015 0.31168 0.01045 0.0
C1099 C 0.87042 0.29982 0.03243 0.0
C1100 C 0.85534 0.29517 0.07641 0.0
C1101 C 0.8982 0.31013 0.94635 0.0
C1102 C 0.88074 0.30314 0.92512 0.0
C1103 C 0.86707 0.29783 0.9684 0.0
C1104 C 0.87657 0.30288 0.85841 0.0
C1105 C 0.91353 0.31679 0.90208 0.0
C1106 C 0.86873 0.31249 0.8379 0.0
C1107 C 0.8656 0.31329 0.77487 0.0
C1108 C 0.87031 0.30454 0.731 0.0
C1109 C 0.87772 0.29451 0.75173 0.0
C1110 C 0.8807 0.29357 0.81505 0.0
H1111 H 0.92625 0.32524 0.92583 0.0
H1112 H 0.91401 0.30547 0.88152 0.0
H1113 H 0.91212 0.32442 0.86366 0.0
H1114 H 0.86545 0.31978 0.87061 0.0
H1115 H 0.86008 0.32129 0.76035 0.0
H1116 H 0.53487 0.85821 0.08146 0.0
H1117 H 0.54063 0.86089 0.19307 0.0
H1118 H 0.59504 0.87757 0.15796 0.0
H1119 H 0.58937 0.8749 0.04605 0.0
H1120 H 0.55501 0.84573 0.27358 0.0
H1121 H 0.5966 0.91835 0.25705 0.0
H1122 H 0.58262 0.90515 0.19436 0.0
H1123 H 0.60322 0.90611 0.20828 0.0
C1124 C 0.54799 0.86217 0.09747 0.0
C1125 C 0.56172 0.86653 0.05504 0.0
C1126 C 0.55126 0.86374 0.16118 0.0
C1127 C 0.56829 0.86969 0.1834 0.0
C1128 C 0.58188 0.87329 0.14142 0.0
H1129 H 0.61136 0.89975 0.55468 0.0
H1130 H 0.60703 0.89173 0.44495 0.0
C1131 C 0.57863 0.87179 0.07766 0.0
C1132 C 0.57193 0.87296 0.25037 0.0
H1133 H 0.59376 0.9057 0.35591 0.0
C1134 C 0.56352 0.85882 0.29173 0.0
C1135 C 0.58301 0.89007 0.27352 0.0
C1136 C 0.59179 0.90584 0.23118 0.0
C1137 C 0.56593 0.86136 0.35605 0.0
C1138 C 0.57683 0.8785 0.37912 0.0
C1139 C 0.58544 0.89258 0.33773 0.0
C1140 C 0.57913 0.88231 0.4462 0.0
C1141 C 0.55691 0.84573 0.39877 0.0
C1142 C 0.56486 0.87975 0.48282 0.0
C1143 C 0.5673 0.88448 0.54542 0.0
C1144 C 0.58409 0.89193 0.57222 0.0
C1145 C 0.59832 0.89433 0.5353 0.0
C1146 C 0.59586 0.88961 0.47275 0.0
H1147 H 0.55274 0.83321 0.3737 0.0
H1148 H 0.56566 0.84679 0.43775 0.0
H1149 H 0.54503 0.84522 0.41875 0.0
H1150 H 0.55191 0.87448 0.46263 0.0
H1151 H 0.55615 0.88269 0.5725 0.0
H1152 H 0.70635 0.60574 0.88363 0.0
H1153 H 0.70767 0.59981 0.77378 0.0
H1154 H 0.66998 0.54514 0.80346 0.0
H1155 H 0.66797 0.55107 0.91316 0.0
H1156 H 0.71747 0.57724 0.72068 0.0
H1157 H 0.64889 0.5583 0.65877 0.0
H1158 H 0.65897 0.56918 0.73076 0.0
H1159 H 0.65077 0.54604 0.72205 0.0
C1160 C 0.69808 0.59251 0.8668 0.0
C1161 C 0.68693 0.57889 0.90719 0.0
C1162 C 0.69899 0.58912 0.80408 0.0
C1163 C 0.68878 0.5721 0.78059 0.0
C1164 C 0.67775 0.55843 0.82065 0.0
H1165 H 0.67707 0.52927 0.4101 0.0
H1166 H 0.6775 0.53285 0.52274 0.0
C1167 C 0.67675 0.56181 0.88338 0.0
C1168 C 0.68989 0.56867 0.71418 0.0
H1169 H 0.66583 0.55466 0.58096 0.0
C1170 C 0.7062 0.57232 0.69003 0.0
C1171 C 0.67513 0.56226 0.67461 0.0
C1172 C 0.65748 0.55886 0.69759 0.0
C1173 C 0.70812 0.56962 0.62705 0.0
C1174 C 0.69339 0.56327 0.58757 0.0
C1175 C 0.67705 0.55946 0.61178 0.0
C1176 C 0.69466 0.56099 0.52038 0.0
C1177 C 0.72582 0.57343 0.60323 0.0
C1178 C 0.70428 0.57566 0.48222 0.0
C1179 C 0.70409 0.57366 0.41789 0.0
C1180 C 0.69424 0.55696 0.39088 0.0
C1181 C 0.68497 0.54226 0.42954 0.0
C1182 C 0.68512 0.54428 0.4938 0.0
H1183 H 0.73468 0.57432 0.64161 0.0
H1184 H 0.72442 0.56312 0.57012 0.0
H1185 H 0.73212 0.58616 0.57819 0.0
H1186 H 0.71151 0.58869 0.50206 0.0
H1187 H 0.71146 0.58518 0.38926 0.0
H1188 H 0.12303 0.70771 0.28719 0.0
H1189 H 0.12102 0.71323 0.17708 0.0
H1190 H 0.09035 0.65748 0.14397 0.0
H1191 H 0.09258 0.65192 0.25409 0.0
H1192 H 0.11816 0.67316 0.06838 0.0
H1193 H 0.08305 0.71077 0.06502 0.0
H1194 H 0.10162 0.72009 0.11623 0.0
H1195 H 0.08328 0.69866 0.1324 0.0
C1196 C 0.11548 0.69666 0.2567 0.0
C1197 C 0.10799 0.67938 0.27903 0.0
C1198 C 0.11428 0.69983 0.19382 0.0
C1199 C 0.10533 0.68577 0.15245 0.0
C1200 C 0.09727 0.66852 0.17517 0.0
H1201 H 0.10062 0.67924 0.75005 0.0
H1202 H 0.09307 0.67401 0.85997 0.0
C1203 C 0.09861 0.66535 0.23789 0.0
C1204 C 0.10614 0.68896 0.08469 0.0
H1205 H 0.09855 0.7117 0.97186 0.0
C1206 C 0.11364 0.68139 0.04722 0.0
C1207 C 0.10035 0.69981 0.05727 0.0
C1208 C 0.09147 0.70766 0.09474 0.0
C1209 C 0.11591 0.68468 0.98332 0.0
C1210 C 0.1104 0.69574 0.95613 0.0
C1211 C 0.10275 0.70323 0.99319 0.0
C1212 C 0.11302 0.6999 0.88927 0.0
C1213 C 0.1246 0.67668 0.94547 0.0
C1214 C 0.12632 0.71642 0.86947 0.0
C1215 C 0.13066 0.71951 0.80651 0.0
C1216 C 0.12171 0.70613 0.76248 0.0
C1217 C 0.1077 0.6899 0.78242 0.0
C1218 C 0.10341 0.68683 0.8453 0.0
H1219 H 0.13071 0.67087 0.97521 0.0
H1220 H 0.11464 0.66614 0.91551 0.0
H1221 H 0.13485 0.6867 0.91472 0.0
H1222 H 0.13384 0.72665 0.90298 0.0
H1223 H 0.14131 0.7322 0.79247 0.0
H1224 H 0.41739 0.12055 0.61426 0.0
H1225 H 0.40924 0.12036 0.50555 0.0
H1226 H 0.43454 0.09082 0.4563 0.0
H1227 H 0.44257 0.09079 0.56526 0.0
H1228 H 0.43624 0.13559 0.41234 0.0
H1229 H 0.38702 0.06628 0.35954 0.0
H1230 H 0.39139 0.07501 0.43763 0.0
H1231 H 0.40625 0.06948 0.40029 0.0
C1232 C 0.42077 0.11357 0.58063 0.0
C1233 C 0.43063 0.10567 0.59817 0.0
C1234 C 0.41617 0.11354 0.51855 0.0
C1235 C 0.42113 0.10542 0.47321 0.0
C1236 C 0.43034 0.09691 0.49088 0.0
H1237 H 0.431 0.10393 0.07931 0.0
H1238 H 0.42735 0.09777 0.19073 0.0
C1239 C 0.43507 0.09704 0.55289 0.0
C1240 C 0.41868 0.10772 0.40672 0.0
H1241 H 0.3999 0.08542 0.27294 0.0
C1242 C 0.42811 0.12468 0.38186 0.0
C1243 C 0.40818 0.09341 0.36741 0.0
C1244 C 0.3975 0.07501 0.39246 0.0
C1245 C 0.4279 0.12767 0.31803 0.0
C1246 C 0.41754 0.11333 0.27833 0.0
C1247 C 0.40776 0.09639 0.30352 0.0
C1248 C 0.41765 0.11557 0.21015 0.0
C1249 C 0.43948 0.14604 0.2935 0.0
C1250 C 0.41284 0.12716 0.18386 0.0
C1251 C 0.4151 0.13084 0.12032 0.0
C1252 C 0.42186 0.12271 0.0819 0.0
C1253 C 0.42565 0.1103 0.10774 0.0
C1254 C 0.42361 0.1068 0.17138 0.0
H1255 H 0.44976 0.15447 0.32752 0.0
H1256 H 0.44601 0.14585 0.24958 0.0
H1257 H 0.43133 0.15215 0.28397 0.0
H1258 H 0.40779 0.13372 0.21275 0.0
H1259 H 0.4118 0.14022 0.10127 0.0
H1260 H 0.59803 0.7169 0.28914 0.0
H1261 H 0.60527 0.71972 0.17816 0.0
H1262 H 0.55036 0.68719 0.13418 0.0
H1263 H 0.54308 0.68445 0.24419 0.0
H1264 H 0.59998 0.69429 0.09767 0.0
H1265 H 0.56428 0.72709 0.01433 0.0
H1266 H 0.56845 0.72582 0.09574 0.0
H1267 H 0.55 0.70776 0.05782 0.0
C1268 C 0.58752 0.71047 0.25569 0.0
C1269 C 0.56997 0.70056 0.27546 0.0
C1270 C 0.59166 0.71215 0.19237 0.0
C1271 C 0.57832 0.70397 0.14781 0.0
C1272 C 0.56082 0.6941 0.16753 0.0
H1273 H 0.57619 0.66029 0.79491 0.0
H1274 H 0.57777 0.66807 0.90449 0.0
C1275 C 0.55667 0.69251 0.23059 0.0
C1276 C 0.58261 0.70452 0.08097 0.0
H1277 H 0.57034 0.71077 0.93725 0.0
C1278 C 0.59375 0.69819 0.06258 0.0
C1279 C 0.5748 0.70996 0.03517 0.0
C1280 C 0.56388 0.71822 0.05185 0.0
C1281 C 0.59641 0.69613 -0.00041 0.0
C1282 C 0.58731 0.70007 0.95396 0.0
C1283 C 0.57707 0.70745 0.97225 0.0
C1284 C 0.58734 0.69566 0.8875 0.0
C1285 C 0.60881 0.68959 0.98272 0.0
C1286 C 0.59175 0.70847 0.84135 0.0
C1287 C 0.59062 0.70398 0.77857 0.0
C1288 C 0.58508 0.68659 0.76086 0.0
C1289 C 0.5808 0.67383 0.80716 0.0
C1290 C 0.58177 0.6783 0.86983 0.0
H1291 H 0.61904 0.69316 0.01893 0.0
H1292 H 0.60132 0.67507 0.9793 0.0
H1293 H 0.61536 0.69501 0.93748 0.0
H1294 H 0.59597 0.72193 0.85393 0.0
H1295 H 0.59415 0.71411 0.74388 0.0
H1296 H 0.91205 0.59925 0.05332 0.0
H1297 H 0.91414 0.60737 0.16317 0.0
H1298 H 0.89029 0.55283 0.2147 0.0
H1299 H 0.8881 0.54464 0.10567 0.0
H1300 H 0.88741 0.59767 0.24611 0.0
H1301 H 0.93236 0.5753 0.32983 0.0
H1302 H 0.92955 0.57808 0.2483 0.0
H1303 H 0.91415 0.55829 0.28813 0.0
C1304 C 0.9073 0.589 0.08807 0.0
C1305 C 0.89998 0.57129 0.0706 0.0
C1306 C 0.9086 0.59367 0.1508 0.0
C1307 C 0.9027 0.58074 0.19716 0.0
C1308 C 0.89542 0.56308 0.17985 0.0
H1309 H 0.85756 0.5699 0.55019 0.0
H1310 H 0.86554 0.57319 0.44088 0.0
C1311 C 0.89415 0.55841 0.11733 0.0
C1312 C 0.90292 0.58538 0.26348 0.0
H1313 H 0.91407 0.57807 0.40769 0.0
C1314 C 0.89351 0.59368 0.2814 0.0
C1315 C 0.91117 0.5805 0.30945 0.0
C1316 C 0.92254 0.57272 0.29289 0.0
C1317 C 0.89116 0.59617 0.34431 0.0
C1318 C 0.89812 0.58988 0.39037 0.0
C1319 C 0.90852 0.58266 0.37238 0.0
C1320 C 0.89347 0.5892 0.45691 0.0
C1321 C 0.88097 0.60523 0.36077 0.0
C1322 C 0.90656 0.59684 0.5026 0.0
C1323 C 0.90201 0.59493 0.56561 0.0
C1324 C 0.88431 0.58525 0.58401 0.0
C1325 C 0.87128 0.57776 0.53791 0.0
C1326 C 0.87582 0.57965 0.47517 0.0
H1327 H 0.88194 0.61438 0.32336 0.0
H1328 H 0.86691 0.59524 0.36638 0.0
H1329 H 0.88573 0.61269 0.40488 0.0
H1330 H 0.92028 0.60416 0.48951 0.0
H1331 H 0.91236 0.60098 0.59985 0.0
H1332 H 0.3448 0.88357 0.41246 0.0
H1333 H 0.33857 0.88534 0.52175 0.0
H1334 H 0.31172 0.91337 0.47242 0.0
H1335 H 0.3179 0.9116 0.36242 0.0
H1336 H 0.34708 0.91378 0.59855 0.0
H1337 H 0.27475 0.87164 0.57198 0.0
H1338 H 0.28993 0.87363 0.51186 0.0
H1339 H 0.28499 0.89091 0.52394 0.0
C1340 C 0.33778 0.89032 0.42476 0.0
C1341 C 0.33176 0.89736 0.37868 0.0
C1342 C 0.33417 0.89126 0.48728 0.0
C1343 C 0.32449 0.89927 0.50509 0.0
C1344 C 0.31891 0.90682 0.45952 0.0
H1345 H 0.31365 0.91066 0.90813 0.0
H1346 H 0.31917 0.91832 0.79765 0.0
C1347 C 0.32244 0.90579 0.39676 0.0
C1348 C 0.31993 0.89916 0.57139 0.0
H1349 H 0.28546 0.88134 0.67272 0.0
C1350 C 0.33361 0.90688 0.61488 0.0
C1351 C 0.30233 0.89004 0.59232 0.0
C1352 C 0.28712 0.88095 0.54781 0.0
C1353 C 0.33021 0.90518 0.67895 0.0
C1354 C 0.31262 0.89578 0.69991 0.0
C1355 C 0.29892 0.88863 0.65637 0.0
C1356 C 0.30825 0.89148 0.76638 0.0
C1357 C 0.34549 0.91262 0.72358 0.0
C1358 C 0.29977 0.87386 0.78509 0.0
C1359 C 0.29654 0.86947 0.8478 0.0
C1360 C 0.30172 0.88261 0.89327 0.0
C1361 C 0.30976 0.90026 0.87428 0.0
C1362 C 0.31292 0.90466 0.81127 0.0
H1363 H 0.35813 0.91653 0.69972 0.0
H1364 H 0.34658 0.92443 0.74645 0.0
H1365 H 0.34346 0.90292 0.76032 0.0
H1366 H 0.29609 0.8635 0.75118 0.0
H1367 H 0.29054 0.85578 0.86065 0.0
H1368 H 0.4056 0.31179 0.698 0.0
H1369 H 0.39715 0.30591 0.80767 0.0
H1370 H 0.45164 0.33559 0.86077 0.0
H1371 H 0.46016 0.34142 0.752 0.0
H1372 H 0.40609 0.28848 0.89159 0.0
H1373 H 0.42968 0.35605 0.97454 0.0
H1374 H 0.42695 0.35042 0.89304 0.0
H1375 H 0.44655 0.35444 0.93341 0.0
C1376 C 0.41577 0.3171 0.73305 0.0
C1377 C 0.43357 0.32716 0.7161 0.0
C1378 C 0.41091 0.31381 0.79569 0.0
C1379 C 0.42374 0.32062 0.84244 0.0
C1380 C 0.44148 0.33066 0.82561 0.0
H1381 H 0.43408 0.28613 0.19451 0.0
H1382 H 0.43061 0.2908 0.08544 0.0
C1383 C 0.44633 0.33396 0.76323 0.0
C1384 C 0.4189 0.31631 0.9087 0.0
H1385 H 0.42655 0.33491 0.05275 0.0
C1386 C 0.41026 0.29861 0.92678 0.0
C1387 C 0.424 0.3295 0.95456 0.0
C1388 C 0.43213 0.34865 0.93783 0.0
C1389 C 0.40769 0.29383 0.98974 0.0
C1390 C 0.41425 0.30711 0.03568 0.0
C1391 C 0.42176 0.32473 0.01753 0.0
C1392 C 0.41499 0.30314 0.10218 0.0
C1393 C 0.39831 0.2746 0.00639 0.0
C1394 C 0.40763 0.30881 0.14821 0.0
C1395 C 0.40963 0.30618 0.21114 0.0
C1396 C 0.41915 0.29793 0.22911 0.0
C1397 C 0.42635 0.29216 0.18265 0.0
C1398 C 0.42435 0.29481 0.12001 0.0
H1399 H 0.38903 0.26652 0.96916 0.0
H1400 H 0.40809 0.27023 0.01181 0.0
H1401 H 0.39094 0.27209 0.05065 0.0
H1402 H 0.40046 0.3154 0.13545 0.0
H1403 H 0.4038 0.31066 0.24563 0.0
H1404 H 0.11229 0.423 0.60279 0.0
H1405 H 0.11171 0.41814 0.49119 0.0
H1406 H 0.16693 0.45615 0.47958 0.0
H1407 H 0.16765 0.46104 0.59174 0.0
H1408 H 0.14667 0.46242 0.39769 0.0
H1409 H 0.13022 0.39305 0.38236 0.0
H1410 H 0.1156 0.39592 0.43281 0.0
H1411 H 0.13848 0.40582 0.45265 0.0
C1412 C 0.12442 0.43001 0.5769 0.0
C1413 C 0.14002 0.44243 0.60612 0.0
C1414 C 0.12407 0.42719 0.51308 0.0
C1415 C 0.13933 0.4366 0.4774 0.0
C1416 C 0.15504 0.4487 0.50651 0.0
H1417 H 0.14366 0.44228 0.06939 0.0
H1418 H 0.15304 0.44594 0.17803 0.0
C1419 C 0.15539 0.45155 0.57042 0.0
C1420 C 0.13835 0.43503 0.40906 0.0
H1421 H 0.12407 0.40508 0.29146 0.0
C1422 C 0.14206 0.44997 0.37417 0.0
C1423 C 0.13237 0.41877 0.37878 0.0
C1424 C 0.12911 0.40252 0.41355 0.0
C1425 C 0.13894 0.44886 0.31006 0.0
C1426 C 0.13216 0.43242 0.28033 0.0
C1427 C 0.12919 0.41764 0.31471 0.0
C1428 C 0.12678 0.43003 0.21458 0.0
C1429 C 0.14204 0.46506 0.2752 0.0
C1430 C 0.10897 0.41968 0.19949 0.0
C1431 C 0.10358 0.41762 0.13771 0.0
C1432 C 0.11591 0.42584 0.08993 0.0
C1433 C 0.1338 0.43609 0.10521 0.0
C1434 C 0.1392 0.43812 0.16714 0.0
H1435 H 0.14448 0.476 0.30699 0.0
H1436 H 0.15368 0.46954 0.24464 0.0
H1437 H 0.1306 0.46209 0.24532 0.0
H1438 H 0.09922 0.41338 0.23567 0.0
H1439 H 0.08972 0.40978 0.12733 0.0
H1440 H 0.71779 0.1239 0.39605 0.0
H1441 H 0.7256 0.12979 0.50611 0.0
H1442 H 0.67169 0.09424 0.55651 0.0
H1443 H 0.66392 0.08814 0.44687 0.0
H1444 H 0.71449 0.14428 0.58927 0.0
H1445 H 0.69665 0.07794 0.67111 0.0
H1446 H 0.69851 0.08346 0.58965 0.0
H1447 H 0.67859 0.07766 0.63153 0.0
C1448 C 0.70765 0.1173 0.4307 0.0
C1449 C 0.69025 0.10552 0.41294 0.0
C1450 C 0.71213 0.1206 0.4935 0.0
C1451 C 0.6993 0.1122 0.53961 0.0
C1452 C 0.68193 0.10045 0.52188 0.0
H1453 H 0.68833 0.1454 0.89626 0.0
H1454 H 0.69095 0.14076 0.78627 0.0
C1455 C 0.67747 0.09703 0.45919 0.0
C1456 C 0.70371 0.11661 0.60606 0.0
H1457 H 0.6979 0.09818 0.74982 0.0
C1458 C 0.71114 0.13423 0.62429 0.0
C1459 C 0.69973 0.10358 0.65172 0.0
C1460 C 0.69312 0.08464 0.63489 0.0
C1461 C 0.71369 0.13901 0.68719 0.0
C1462 C 0.70822 0.12577 0.73302 0.0
C1463 C 0.70183 0.1083 0.71469 0.0
C1464 C 0.70772 0.12954 0.79984 0.0
C1465 C 0.72202 0.15819 0.70382 0.0
C1466 C 0.71594 0.12441 0.84434 0.0
C1467 C 0.71434 0.12694 0.90765 0.0
C1468 C 0.70446 0.13461 0.92745 0.0
C1469 C 0.69637 0.13983 0.88263 0.0
C1470 C 0.69788 0.13721 0.81958 0.0
H1471 H 0.73088 0.16663 0.66622 0.0
H1472 H 0.71159 0.16166 0.70993 0.0
H1473 H 0.72965 0.1612 0.74763 0.0
H1474 H 0.72349 0.11833 0.8301 0.0
H1475 H 0.72079 0.12287 0.94108 0.0
loop_
_geom_bond_atom_site_label_1
_geom_bond_atom_site_label_2
_geom_bond_distance
_geom_bond_site_symmetry_2
_ccdc_geom_bond_type
C0 C1 1.351 . S
C0 N3 1.368 . S
C0 H5 0.931 . S
C1 C0 1.351 . S
C1 N2 1.373 . S
C1 H29 0.930 . S
N2 C1 1.373 . S
N2 C4 1.340 . S
N3 C0 1.368 . S
N3 C4 1.321 . S
N3 Co6 2.135 . S
C4 N2 1.340 . S
C4 N3 1.321 . S
C4 H28 0.930 . S
H5 C0 0.931 . S
Co6 N3 2.135 . S
Co6 N9 2.121 . S
Co6 O14 2.055 . S
Co6 O17 2.039 . S
Co6 N20 2.140 . S
C7 O8 1.227 . S
C7 O17 1.265 . S
O8 C7 1.227 . S
N9 Co6 2.121 . S
N9 C11 1.375 . S
N9 C12 1.313 . S
C10 C11 1.338 . S
C10 N13 1.377 . S
C10 H30 0.930 . S
C11 N9 1.375 . S
C11 C10 1.338 . S
C11 H15 0.931 . S
C12 N9 1.313 . S
C12 N13 1.344 . S
C12 H16 0.930 . S
N13 C10 1.377 . S
N13 C12 1.344 . S
O14 Co6 2.055 . S
O14 C18 1.253 . S
H15 C11 0.931 . S
H16 C12 0.930 . S
O17 Co6 2.039 . S
O17 C7 1.265 . S
C18 O14 1.253 . S
C18 O19 1.227 . S
O19 C18 1.227 . S
N20 Co6 2.140 . S
N20 C23 1.346 . S
N20 C24 1.345 . S
C21 C22 1.387 . S
C21 C25 1.391 . S
C22 C21 1.387 . S
C22 C23 1.369 . S
C22 H31 0.929 . S
C23 N20 1.346 . S
C23 C22 1.369 . S
C23 H26 0.928 . S
C24 N20 1.345 . S
C24 C25 1.371 . S
C24 H27 0.931 . S
C25 C21 1.391 . S
C25 C24 1.371 . S
C25 H32 0.930 . S
H26 C23 0.928 . S
H27 C24 0.931 . S
H28 C4 0.930 . S
H29 C1 0.930 . S
H30 C10 0.930 . S
H31 C22 0.929 . S
H32 C25 0.930 . S
C33 C34 1.351 . S
C33 N36 1.368 . S
C33 H38 0.931 . S
C34 C33 1.351 . S
C34 N35 1.373 . S
C34 H62 0.930 . S
N35 C34 1.373 . S
N35 C37 1.340 . S
N36 C33 1.368 . S
N36 C37 1.321 . S
N36 Co39 2.135 . S
C37 N35 1.340 . S
C37 N36 1.321 . S
C37 H61 0.930 . S
H38 C33 0.931 . S
Co39 N36 2.135 . S
Co39 N42 2.121 . S
Co39 O47 2.055 . S
Co39 O50 2.039 . S
Co39 N53 2.140 . S
C40 O41 1.227 . S
C40 O50 1.265 . S
O41 C40 1.227 . S
N42 Co39 2.121 . S
N42 C44 1.375 . S
N42 C45 1.313 . S
C43 C44 1.338 . S
C43 N46 1.377 . S
C43 H63 0.930 . S
C44 N42 1.375 . S
C44 C43 1.338 . S
C44 H48 0.931 . S
C45 N42 1.313 . S
C45 N46 1.344 . S
C45 H49 0.930 . S
N46 C43 1.377 . S
N46 C45 1.344 . S
O47 Co39 2.055 . S
O47 C51 1.253 . S
H48 C44 0.931 . S
H49 C45 0.930 . S
O50 Co39 2.039 . S
O50 C40 1.265 . S
C51 O47 1.253 . S
C51 O52 1.227 . S
O52 C51 1.227 . S
N53 Co39 2.140 . S
N53 C56 1.346 . S
N53 C57 1.345 . S
C54 C55 1.387 . S
C54 C58 1.391 . S
C55 C54 1.387 . S
C55 C56 1.369 . S
C55 H64 0.929 . S
C56 N53 1.346 . S
C56 C55 1.369 . S
C56 H59 0.928 . S
C57 N53 1.345 . S
C57 C58 1.371 . S
C57 H60 0.931 . S
C58 C54 1.391 . S
C58 C57 1.371 . S
C58 H65 0.930 . S
H59 C56 0.928 . S
H60 C57 0.931 . S
H61 C37 0.930 . S
H62 C34 0.930 . S
H63 C43 0.930 . S
H64 C55 0.929 . S
H65 C58 0.930 . S
C66 C67 1.351 . S
C66 N69 1.368 . S
C66 H71 0.931 1_554 S
C67 C66 1.351 . S
C67 N68 1.373 . S
C67 H95 0.930 . S
N68 C67 1.373 . S
N68 C70 1.340 . S
N69 C66 1.368 . S
N69 C70 1.321 . S
N69 Co72 2.135 1_554 S
C70 N68 1.340 . S
C70 N69 1.321 . S
C70 H94 0.930 . S
H71 C66 0.931 1_556 S
Co72 N69 2.135 1_556 S
Co72 N75 2.121 . S
Co72 O80 2.055 . S
Co72 O83 2.039 . S
Co72 N86 2.140 . S
C73 O74 1.227 . S
C73 O83 1.265 . S
O74 C73 1.227 . S
N75 Co72 2.121 . S
N75 C77 1.375 . S
N75 C78 1.313 . S
C76 C77 1.338 . S
C76 N79 1.377 . S
C76 H96 0.930 . S
C77 N75 1.375 . S
C77 C76 1.338 . S
C77 H81 0.931 . S
C78 N75 1.313 . S
C78 N79 1.344 . S
C78 H82 0.930 . S
N79 C76 1.377 . S
N79 C78 1.344 . S
O80 Co72 2.055 . S
O80 C84 1.253 . S
H81 C77 0.931 . S
H82 C78 0.930 . S
O83 Co72 2.039 . S
O83 C73 1.265 . S
C84 O80 1.253 . S
C84 O85 1.227 . S
O85 C84 1.227 . S
N86 Co72 2.140 . S
N86 C89 1.346 . S
N86 C90 1.345 . S
C87 C88 1.387 . S
C87 C91 1.391 . S
C88 C87 1.387 . S
C88 C89 1.369 . S
C88 H97 0.929 1_556 S
C89 N86 1.346 . S
C89 C88 1.369 . S
C89 H92 0.918 1_556 S
C90 N86 1.345 . S
C90 C91 1.371 . S
C90 H93 0.931 . S
C91 C87 1.391 . S
C91 C90 1.371 . S
C91 H98 0.930 . S
H92 C89 0.918 1_554 S
H93 C90 0.931 . S
H94 C70 0.930 . S
H95 C67 0.930 . S
H96 C76 0.930 . S
H97 C88 0.929 1_554 S
H98 C91 0.930 . S
C99 C100 1.351 . S
C99 N102 1.368 . S
C99 H104 0.931 . S
C100 C99 1.351 . S
C100 N101 1.373 . S
C100 H128 0.930 . S
N101 C100 1.373 . S
N101 C103 1.340 . S
N102 C99 1.368 . S
N102 C103 1.321 . S
N102 Co105 2.135 . S
C103 N101 1.340 . S
C103 N102 1.321 . S
C103 H127 0.930 . S
H104 C99 0.931 . S
Co105 N102 2.135 . S
Co105 N108 2.121 . S
Co105 O113 2.055 . S
Co105 O116 2.039 . S
Co105 N119 2.140 . S
C106 O107 1.227 . S
C106 O116 1.265 . S
O107 C106 1.227 . S
N108 Co105 2.121 . S
N108 C110 1.375 . S
N108 C111 1.313 . S
C109 C110 1.338 . S
C109 N112 1.377 . S
C109 H129 0.930 . S
C110 N108 1.375 . S
C110 C109 1.338 . S
C110 H114 0.931 . S
C111 N108 1.313 . S
C111 N112 1.344 . S
C111 H115 0.930 . S
N112 C109 1.377 . S
N112 C111 1.344 . S
O113 Co105 2.055 . S
O113 C117 1.253 . S
H114 C110 0.931 . S
H115 C111 0.930 . S
O116 Co105 2.039 . S
O116 C106 1.265 . S
C117 O113 1.253 . S
C117 O118 1.227 . S
O118 C117 1.227 . S
N119 Co105 2.140 . S
N119 C122 1.346 . S
N119 C123 1.345 . S
C120 C121 1.387 . S
C120 C124 1.391 . S
C121 C120 1.387 . S
C121 C122 1.369 . S
C121 H130 0.929 . S
C122 N119 1.346 . S
C122 C121 1.369 . S
C122 H125 0.928 . S
C123 N119 1.345 . S
C123 C124 1.371 . S
C123 H126 0.931 . S
C124 C120 1.391 . S
C124 C123 1.371 . S
C124 H131 0.930 . S
H125 C122 0.928 . S
H126 C123 0.931 . S
H127 C103 0.930 . S
H128 C100 0.930 . S
H129 C109 0.930 . S
H130 C121 0.929 . S
H131 C124 0.930 . S
C132 C133 1.351 . S
C132 N135 1.368 . S
C132 H137 0.931 . S
C133 C132 1.351 . S
C133 N134 1.373 . S
C133 H161 0.930 . S
N134 C133 1.373 . S
N134 C136 1.340 . S
N135 C132 1.368 . S
N135 C136 1.321 . S
N135 Co138 2.135 . S
C136 N134 1.340 . S
C136 N135 1.321 . S
C136 H160 0.930 . S
H137 C132 0.931 . S
Co138 N135 2.135 . S
Co138 N141 2.121 . S
Co138 O146 2.055 . S
Co138 O149 2.039 . S
Co138 N152 2.140 . S
C139 O140 1.227 . S
C139 O149 1.265 . S
O140 C139 1.227 . S
N141 Co138 2.121 . S
N141 C143 1.375 . S
N141 C144 1.313 . S
C142 C143 1.338 . S
C142 N145 1.377 . S
C142 H162 0.930 . S
C143 N141 1.375 . S
C143 C142 1.338 . S
C143 H147 0.931 . S
C144 N141 1.313 . S
C144 N145 1.344 . S
C144 H148 0.930 . S
N145 C142 1.377 . S
N145 C144 1.344 . S
O146 Co138 2.055 . S
O146 C150 1.253 . S
H147 C143 0.931 . S
H148 C144 0.930 . S
O149 Co138 2.039 . S
O149 C139 1.265 . S
C150 O146 1.253 . S
C150 O151 1.227 . S
O151 C150 1.227 . S
N152 Co138 2.140 . S
N152 C155 1.346 . S
N152 C156 1.345 . S
C153 C154 1.387 . S
C153 C157 1.391 . S
C154 C153 1.387 . S
C154 C155 1.369 . S
C154 H163 0.929 . S
C155 N152 1.346 . S
C155 C154 1.369 . S
C155 H158 0.928 . S
C156 N152 1.345 . S
C156 C157 1.371 . S
C156 H159 0.931 . S
C157 C153 1.391 . S
C157 C156 1.371 . S
C157 H164 0.930 . S
H158 C155 0.928 . S
H159 C156 0.931 . S
H160 C136 0.930 . S
H161 C133 0.930 . S
H162 C142 0.930 . S
H163 C154 0.929 . S
H164 C157 0.930 . S
C165 C166 1.351 . S
C165 N168 1.368 . S
C165 H170 0.931 1_554 S
C166 C165 1.351 . S
C166 N167 1.373 . S
C166 H194 0.930 . S
N167 C166 1.373 . S
N167 C169 1.340 . S
N168 C165 1.368 . S
N168 C169 1.321 . S
N168 Co171 2.135 1_554 S
C169 N167 1.340 . S
C169 N168 1.321 . S
C169 H193 0.930 . S
H170 C165 0.931 1_556 S
Co171 N168 2.135 1_556 S
Co171 N174 2.121 . S
Co171 O179 2.055 . S
Co171 O182 2.039 . S
Co171 N185 2.140 . S
C172 O173 1.227 . S
C172 O182 1.265 . S
O173 C172 1.227 . S
N174 Co171 2.121 . S
N174 C176 1.375 . S
N174 C177 1.313 . S
C175 C176 1.338 . S
C175 N178 1.377 . S
C175 H195 0.930 . S
C176 N174 1.375 . S
C176 C175 1.338 . S
C176 H180 0.931 . S
C177 N174 1.313 . S
C177 N178 1.344 . S
C177 H181 0.930 . S
N178 C175 1.377 . S
N178 C177 1.344 . S
O179 Co171 2.055 . S
O179 C183 1.253 . S
H180 C176 0.931 . S
H181 C177 0.930 . S
O182 Co171 2.039 . S
O182 C172 1.265 . S
C183 O179 1.253 . S
C183 O184 1.227 . S
O184 C183 1.227 . S
N185 Co171 2.140 . S
N185 C188 1.346 . S
N185 C189 1.345 . S
C186 C187 1.387 . S
C186 C190 1.391 . S
C187 C186 1.387 . S
C187 C188 1.369 . S
C187 H196 0.929 1_556 S
C188 N185 1.346 . S
C188 C187 1.369 . S
C188 H191 0.919 1_556 S
C189 N185 1.345 . S
C189 C190 1.371 . S
C189 H192 0.931 . S
C190 C186 1.391 . S
C190 C189 1.371 . S
C190 H197 0.930 . S
H191 C188 0.919 1_554 S
H192 C189 0.931 . S
H193 C169 0.930 . S
H194 C166 0.930 . S
H195 C175 0.930 . S
H196 C187 0.929 1_554 S
H197 C190 0.930 . S
C198 C199 1.351 . S
C198 N201 1.368 . S
C198 H203 0.931 . S
C199 C198 1.351 . S
C199 N200 1.373 . S
C199 H227 0.930 . S
N200 C199 1.373 . S
N200 C202 1.340 . S
N201 C198 1.368 . S
N201 C202 1.321 . S
N201 Co204 2.135 . S
C202 N200 1.340 . S
C202 N201 1.321 . S
C202 H226 0.930 . S
H203 C198 0.931 . S
Co204 N201 2.135 . S
Co204 N207 2.121 . S
Co204 O212 2.055 . S
Co204 O215 2.039 . S
Co204 N218 2.140 . S
C205 O206 1.227 . S
C205 O215 1.265 . S
O206 C205 1.227 . S
N207 Co204 2.121 . S
N207 C209 1.375 . S
N207 C210 1.313 . S
C208 C209 1.338 . S
C208 N211 1.377 . S
C208 H228 0.930 . S
C209 N207 1.375 . S
C209 C208 1.338 . S
C209 H213 0.931 . S
C210 N207 1.313 . S
C210 N211 1.344 . S
C210 H214 0.930 . S
N211 C208 1.377 . S
N211 C210 1.344 . S
O212 Co204 2.055 . S
O212 C216 1.253 . S
H213 C209 0.931 . S
H214 C210 0.930 . S
O215 Co204 2.039 . S
O215 C205 1.265 . S
C216 O212 1.253 . S
C216 O217 1.227 . S
O217 C216 1.227 . S
N218 Co204 2.140 . S
N218 C221 1.346 . S
N218 C222 1.345 . S
C219 C220 1.387 . S
C219 C223 1.391 . S
C220 C219 1.387 . S
C220 C221 1.369 . S
C220 H229 0.929 . S
C221 N218 1.346 . S
C221 C220 1.369 . S
C221 H224 0.928 . S
C222 N218 1.345 . S
C222 C223 1.371 . S
C222 H225 0.931 . S
C223 C219 1.391 . S
C223 C222 1.371 . S
C223 H230 0.930 . S
H224 C221 0.928 . S
H225 C222 0.931 . S
H226 C202 0.930 . S
H227 C199 0.930 . S
H228 C208 0.930 . S
H229 C220 0.929 . S
H230 C223 0.930 . S
C231 C232 1.351 . S
C231 N234 1.368 . S
C231 H236 0.931 . S
C232 C231 1.351 . S
C232 N233 1.373 . S
C232 H260 0.930 . S
N233 C232 1.373 . S
N233 C235 1.340 . S
N234 C231 1.368 . S
N234 C235 1.321 . S
N234 Co237 2.135 . S
C235 N233 1.340 . S
C235 N234 1.321 . S
C235 H259 0.930 . S
H236 C231 0.931 . S
Co237 N234 2.135 . S
Co237 N240 2.121 . S
Co237 O245 2.055 . S
Co237 O248 2.039 . S
Co237 N251 2.140 . S
C238 O239 1.227 . S
C238 O248 1.265 . S
O239 C238 1.227 . S
N240 Co237 2.121 . S
N240 C242 1.375 . S
N240 C243 1.313 . S
C241 C242 1.338 . S
C241 N244 1.377 . S
C241 H261 0.930 . S
C242 N240 1.375 . S
C242 C241 1.338 . S
C242 H246 0.931 . S
C243 N240 1.313 . S
C243 N244 1.344 . S
C243 H247 0.930 . S
N244 C241 1.377 . S
N244 C243 1.344 . S
O245 Co237 2.055 . S
O245 C249 1.253 . S
H246 C242 0.931 . S
H247 C243 0.930 . S
O248 Co237 2.039 . S
O248 C238 1.265 . S
C249 O245 1.253 . S
C249 O250 1.227 . S
O250 C249 1.227 . S
N251 Co237 2.140 . S
N251 C254 1.346 . S
N251 C255 1.345 . S
C252 C253 1.387 . S
C252 C256 1.391 . S
C253 C252 1.387 . S
C253 C254 1.369 . S
C253 H262 0.929 . S
C254 N251 1.346 . S
C254 C253 1.369 . S
C254 H257 0.928 . S
C255 N251 1.345 . S
C255 C256 1.371 . S
C255 H258 0.931 . S
C256 C252 1.391 . S
C256 C255 1.371 . S
C256 H263 0.930 . S
H257 C254 0.928 . S
H258 C255 0.931 . S
H259 C235 0.930 . S
H260 C232 0.930 . S
H261 C241 0.930 . S
H262 C253 0.929 . S
H263 C256 0.930 . S
C264 C265 1.351 . S
C264 N267 1.368 . S
C264 H269 0.931 1_556 S
C265 C264 1.351 . S
C265 N266 1.373 . S
C265 H293 0.930 . S
N266 C265 1.373 . S
N266 C268 1.340 . S
N267 C264 1.368 . S
N267 C268 1.321 . S
N267 Co270 2.135 1_556 S
C268 N266 1.340 . S
C268 N267 1.321 . S
C268 H292 0.930 . S
H269 C264 0.931 1_554 S
Co270 N267 2.135 1_554 S
Co270 N273 2.121 . S
Co270 O278 2.055 . S
Co270 O281 2.039 . S
Co270 N284 2.140 . S
C271 O272 1.227 . S
C271 O281 1.265 . S
O272 C271 1.227 . S
N273 Co270 2.121 . S
N273 C275 1.375 . S
N273 C276 1.313 . S
C274 C275 1.338 . S
C274 N277 1.377 . S
C274 H294 0.930 . S
C275 N273 1.375 . S
C275 C274 1.338 . S
C275 H279 0.931 . S
C276 N273 1.313 . S
C276 N277 1.344 . S
C276 H280 0.930 . S
N277 C274 1.377 . S
N277 C276 1.344 . S
O278 Co270 2.055 . S
O278 C282 1.253 . S
H279 C275 0.931 . S
H280 C276 0.930 . S
O281 Co270 2.039 . S
O281 C271 1.265 . S
C282 O278 1.253 . S
C282 O283 1.227 . S
O283 C282 1.227 . S
N284 Co270 2.140 . S
N284 C287 1.346 . S
N284 C288 1.345 . S
C285 C286 1.387 . S
C285 C289 1.391 . S
C286 C285 1.387 . S
C286 C287 1.369 . S
C286 H295 0.929 1_554 S
C287 N284 1.346 . S
C287 C286 1.369 . S
C287 H290 0.920 1_554 S
C288 N284 1.345 . S
C288 C289 1.371 . S
C288 H291 0.931 . S
C289 C285 1.391 . S
C289 C288 1.371 . S
C289 H296 0.930 . S
H290 C287 0.920 1_556 S
H291 C288 0.931 . S
H292 C268 0.930 . S
H293 C265 0.930 . S
H294 C274 0.930 . S
H295 C286 0.929 1_556 S
H296 C289 0.930 . S
C297 C298 1.351 . S
C297 N300 1.368 . S
C297 H302 0.931 . S
C298 C297 1.351 . S
C298 N299 1.373 . S
C298 H326 0.930 . S
N299 C298 1.373 . S
N299 C301 1.340 . S
N300 C297 1.368 . S
N300 C301 1.321 . S
N300 Co303 2.135 . S
C301 N299 1.340 . S
C301 N300 1.321 . S
C301 H325 0.930 . S
H302 C297 0.931 . S
Co303 N300 2.135 . S
Co303 N306 2.121 . S
Co303 O311 2.055 . S
Co303 O314 2.039 . S
Co303 N317 2.140 . S
C304 O305 1.227 . S
C304 O314 1.265 . S
O305 C304 1.227 . S
N306 Co303 2.121 . S
N306 C308 1.375 . S
N306 C309 1.313 . S
C307 C308 1.338 . S
C307 N310 1.377 . S
C307 H327 0.930 . S
C308 N306 1.375 . S
C308 C307 1.338 . S
C308 H312 0.931 . S
C309 N306 1.313 . S
C309 N310 1.344 . S
C309 H313 0.930 . S
N310 C307 1.377 . S
N310 C309 1.344 . S
O311 Co303 2.055 . S
O311 C315 1.253 . S
H312 C308 0.931 . S
H313 C309 0.930 . S
O314 Co303 2.039 . S
O314 C304 1.265 . S
C315 O311 1.253 . S
C315 O316 1.227 . S
O316 C315 1.227 . S
N317 Co303 2.140 . S
N317 C320 1.346 . S
N317 C321 1.345 . S
C318 C319 1.387 . S
C318 C322 1.391 . S
C319 C318 1.387 . S
C319 C320 1.369 . S
C319 H328 0.929 . S
C320 N317 1.346 . S
C320 C319 1.369 . S
C320 H323 0.928 . S
C321 N317 1.345 . S
C321 C322 1.371 . S
C321 H324 0.931 . S
C322 C318 1.391 . S
C322 C321 1.371 . S
C322 H329 0.930 . S
H323 C320 0.928 . S
H324 C321 0.931 . S
H325 C301 0.930 . S
H326 C298 0.930 . S
H327 C307 0.930 . S
H328 C319 0.929 . S
H329 C322 0.930 . S
C330 C331 1.351 . S
C330 N333 1.368 . S
C330 H335 0.931 . S
C331 C330 1.351 . S
C331 N332 1.373 . S
C331 H359 0.930 . S
N332 C331 1.373 . S
N332 C334 1.340 . S
N333 C330 1.368 . S
N333 C334 1.321 . S
N333 Co336 2.135 . S
C334 N332 1.340 . S
C334 N333 1.321 . S
C334 H358 0.930 . S
H335 C330 0.931 . S
Co336 N333 2.135 . S
Co336 N339 2.121 . S
Co336 O344 2.055 . S
Co336 O347 2.039 . S
Co336 N350 2.140 . S
C337 O338 1.227 . S
C337 O347 1.265 . S
O338 C337 1.227 . S
N339 Co336 2.121 . S
N339 C341 1.375 . S
N339 C342 1.313 . S
C340 C341 1.338 . S
C340 N343 1.377 . S
C340 H360 0.930 . S
C341 N339 1.375 . S
C341 C340 1.338 . S
C341 H345 0.931 . S
C342 N339 1.313 . S
C342 N343 1.344 . S
C342 H346 0.930 . S
N343 C340 1.377 . S
N343 C342 1.344 . S
O344 Co336 2.055 . S
O344 C348 1.253 . S
H345 C341 0.931 . S
H346 C342 0.930 . S
O347 Co336 2.039 . S
O347 C337 1.265 . S
C348 O344 1.253 . S
C348 O349 1.227 . S
O349 C348 1.227 . S
N350 Co336 2.140 . S
N350 C353 1.346 . S
N350 C354 1.345 . S
C351 C352 1.387 . S
C351 C355 1.391 . S
C352 C351 1.387 . S
C352 C353 1.369 . S
C352 H361 0.929 . S
C353 N350 1.346 . S
C353 C352 1.369 . S
C353 H356 0.928 . S
C354 N350 1.345 . S
C354 C355 1.371 . S
C354 H357 0.931 . S
C355 C351 1.391 . S
C355 C354 1.371 . S
C355 H362 0.930 . S
H356 C353 0.928 . S
H357 C354 0.931 . S
H358 C334 0.930 . S
H359 C331 0.930 . S
H360 C340 0.930 . S
H361 C352 0.929 . S
H362 C355 0.930 . S
C363 C364 1.351 . S
C363 N366 1.368 . S
C363 H368 0.931 1_556 S
C364 C363 1.351 . S
C364 N365 1.373 . S
C364 H392 0.930 . S
N365 C364 1.373 . S
N365 C367 1.340 . S
N366 C363 1.368 . S
N366 C367 1.321 . S
N366 Co369 2.135 1_556 S
C367 N365 1.340 . S
C367 N366 1.321 . S
C367 H391 0.930 . S
H368 C363 0.931 1_554 S
Co369 N366 2.135 1_554 S
Co369 N372 2.121 . S
Co369 O377 2.055 . S
Co369 O380 2.039 . S
Co369 N383 2.140 . S
C370 O371 1.227 . S
C370 O380 1.265 . S
O371 C370 1.227 . S
N372 Co369 2.121 . S
N372 C374 1.375 . S
N372 C375 1.313 . S
C373 C374 1.338 . S
C373 N376 1.377 . S
C373 H393 0.930 . S
C374 N372 1.375 . S
C374 C373 1.338 . S
C374 H378 0.931 . S
C375 N372 1.313 . S
C375 N376 1.344 . S
C375 H379 0.930 . S
N376 C373 1.377 . S
N376 C375 1.344 . S
O377 Co369 2.055 . S
O377 C381 1.253 . S
H378 C374 0.931 . S
H379 C375 0.930 . S
O380 Co369 2.039 . S
O380 C370 1.265 . S
C381 O377 1.253 . S
C381 O382 1.227 . S
O382 C381 1.227 . S
N383 Co369 2.140 . S
N383 C386 1.346 . S
N383 C387 1.345 . S
C384 C385 1.387 . S
C384 C388 1.391 . S
C385 C384 1.387 . S
C385 C386 1.369 . S
C385 H394 0.929 1_554 S
C386 N383 1.346 . S
C386 C385 1.369 . S
C386 H389 0.920 1_554 S
C387 N383 1.345 . S
C387 C388 1.371 . S
C387 H390 0.931 . S
C388 C384 1.391 . S
C388 C387 1.371 . S
C388 H395 0.930 . S
H389 C386 0.920 1_556 S
H390 C387 0.931 . S
H391 C367 0.930 . S
H392 C364 0.930 . S
H393 C373 0.930 . S
H394 C385 0.929 1_556 S
H395 C388 0.930 . S
H396 C404 0.929 . S
H397 C406 0.930 . S
H398 C408 0.930 . S
H399 C411 0.929 . S
H400 C414 0.930 . S
H401 C416 0.960 . S
H402 C416 0.960 . S
H403 C416 0.960 . S
C404 H396 0.929 . S
C404 C405 1.377 . S
C404 C406 1.384 . S
C405 C404 1.377 . S
C405 C411 1.390 . S
C406 H397 0.930 . S
C406 C404 1.384 . S
C406 C407 1.372 . S
C407 C406 1.372 . S
C407 C408 1.400 . S
C407 C412 1.490 . S
C408 H398 0.930 . S
C408 C407 1.400 . S
C408 C411 1.386 . S
H409 C425 0.930 . S
H410 C426 0.931 . S
C411 H399 0.929 . S
C411 C405 1.390 . S
C411 C408 1.386 . S
C412 C407 1.490 . S
C412 C414 1.395 . S
C412 C415 1.403 1_554 S
H413 C419 0.930 . S
C414 H400 0.930 . S
C414 C412 1.395 . S
C414 C417 1.403 . S
C415 C412 1.403 1_556 S
C415 C416 1.524 . S
C415 C419 1.400 . S
C416 H401 0.960 . S
C416 H402 0.960 . S
C416 H403 0.960 . S
C416 C415 1.524 . S
C417 C414 1.403 . S
C417 C418 1.392 1_554 S
C417 C421 1.495 . S
C418 C417 1.392 1_556 S
C418 C419 1.385 . S
C418 C420 1.478 . S
C419 H413 0.930 . S
C419 C415 1.400 . S
C419 C418 1.385 . S
C420 C418 1.478 . S
C420 C422 1.381 . S
C420 C426 1.383 . S
C421 C417 1.495 . S
C421 H427 0.959 . S
C421 H428 0.961 . S
C421 H429 0.960 . S
C422 C420 1.381 . S
C422 C423 1.394 . S
C422 H430 0.930 . S
C423 C422 1.394 . S
C423 C424 1.383 . S
C423 H431 0.929 . S
C424 C423 1.383 . S
C424 C425 1.377 . S
C425 H409 0.930 . S
C425 C424 1.377 . S
C425 C426 1.379 . S
C426 H410 0.931 . S
C426 C420 1.383 . S
C426 C425 1.379 . S
H427 C421 0.959 . S
H428 C421 0.961 . S
H429 C421 0.960 . S
H430 C422 0.930 . S
H431 C423 0.929 . S
H432 C440 0.929 . S
H433 C442 0.930 . S
H434 C444 0.930 . S
H435 C447 0.929 . S
H436 C450 0.930 . S
H437 C452 0.960 . S
H438 C452 0.960 . S
H439 C452 0.960 . S
C440 H432 0.929 . S
C440 C441 1.377 . S
C440 C442 1.384 . S
C441 C440 1.377 . S
C441 C447 1.390 . S
C442 H433 0.930 . S
C442 C440 1.384 . S
C442 C443 1.372 . S
C443 C442 1.372 . S
C443 C444 1.400 . S
C443 C448 1.490 . S
C444 H434 0.930 . S
C444 C443 1.400 . S
C444 C447 1.386 . S
H445 C461 0.930 . S
H446 C462 0.931 . S
C447 H435 0.929 . S
C447 C441 1.390 . S
C447 C444 1.386 . S
C448 C443 1.490 . S
C448 C450 1.395 . S
C448 C451 1.403 . S
H449 C455 0.930 . S
C450 H436 0.930 . S
C450 C448 1.395 . S
C450 C453 1.403 . S
C451 C448 1.403 . S
C451 C452 1.524 . S
C451 C455 1.400 . S
C452 H437 0.960 . S
C452 H438 0.960 . S
C452 H439 0.960 . S
C452 C451 1.524 . S
C453 C450 1.403 . S
C453 C454 1.392 . S
C453 C457 1.495 . S
C454 C453 1.392 . S
C454 C455 1.385 . S
C454 C456 1.478 . S
C455 H449 0.930 . S
C455 C451 1.400 . S
C455 C454 1.385 . S
C456 C454 1.478 . S
C456 C458 1.381 . S
C456 C462 1.383 . S
C457 C453 1.495 . S
C457 H463 0.959 . S
C457 H464 0.961 . S
C457 H465 0.960 . S
C458 C456 1.381 . S
C458 C459 1.394 . S
C458 H466 0.930 . S
C459 C458 1.394 . S
C459 C460 1.383 . S
C459 H467 0.929 . S
C460 C459 1.383 . S
C460 C461 1.377 . S
C461 H445 0.930 . S
C461 C460 1.377 . S
C461 C462 1.379 . S
C462 H446 0.931 . S
C462 C456 1.383 . S
C462 C461 1.379 . S
H463 C457 0.959 . S
H464 C457 0.961 . S
H465 C457 0.960 . S
H466 C458 0.930 . S
H467 C459 0.929 . S
H468 C476 0.929 . S
H469 C478 0.930 . S
H470 C480 0.930 . S
H471 C483 0.929 . S
H472 C486 0.930 . S
H473 C488 0.960 . S
H474 C488 0.960 . S
H475 C488 0.960 . S
C476 H468 0.929 . S
C476 C477 1.377 . S
C476 C478 1.384 . S
C477 C476 1.377 . S
C477 C483 1.390 . S
C478 H469 0.930 . S
C478 C476 1.384 . S
C478 C479 1.372 . S
C479 C478 1.372 . S
C479 C480 1.400 . S
C479 C484 1.490 . S
C480 H470 0.930 . S
C480 C479 1.400 . S
C480 C483 1.386 . S
H481 C497 0.930 . S
H482 C498 0.931 . S
C483 H471 0.929 . S
C483 C477 1.390 . S
C483 C480 1.386 . S
C484 C479 1.490 . S
C484 C486 1.395 . S
C484 C487 1.403 . S
H485 C491 0.930 . S
C486 H472 0.930 . S
C486 C484 1.395 . S
C486 C489 1.403 . S
C487 C484 1.403 . S
C487 C488 1.524 . S
C487 C491 1.400 . S
C488 H473 0.960 . S
C488 H474 0.960 . S
C488 H475 0.960 . S
C488 C487 1.524 . S
C489 C486 1.403 . S
C489 C490 1.392 . S
C489 C493 1.495 . S
C490 C489 1.392 . S
C490 C491 1.385 . S
C490 C492 1.478 . S
C491 H485 0.930 . S
C491 C487 1.400 . S
C491 C490 1.385 . S
C492 C490 1.478 . S
C492 C494 1.381 . S
C492 C498 1.383 . S
C493 C489 1.495 . S
C493 H499 0.959 . S
C493 H500 0.961 . S
C493 H501 0.960 . S
C494 C492 1.381 . S
C494 C495 1.394 . S
C494 H502 0.930 . S
C495 C494 1.394 . S
C495 C496 1.383 . S
C495 H503 0.929 . S
C496 C495 1.383 . S
C496 C497 1.377 . S
C497 H481 0.930 . S
C497 C496 1.377 . S
C497 C498 1.379 . S
C498 H482 0.931 . S
C498 C492 1.383 . S
C498 C497 1.379 . S
H499 C493 0.959 . S
H500 C493 0.961 . S
H501 C493 0.960 . S
H502 C494 0.930 . S
H503 C495 0.929 . S
H504 C512 0.929 . S
H505 C514 0.930 . S
H506 C516 0.930 . S
H507 C519 0.929 . S
H508 C522 0.930 . S
H509 C524 0.960 . S
H510 C524 0.960 1_556 S
H511 C524 0.960 . S
C512 H504 0.929 . S
C512 C513 1.377 . S
C512 C514 1.384 . S
C513 C512 1.377 . S
C513 C519 1.390 . S
C514 H505 0.930 . S
C514 C512 1.384 . S
C514 C515 1.372 . S
C515 C514 1.372 . S
C515 C516 1.400 . S
C515 C520 1.490 . S
C516 H506 0.930 . S
C516 C515 1.400 . S
C516 C519 1.386 . S
H517 C533 0.930 . S
H518 C534 0.931 . S
C519 H507 0.929 . S
C519 C513 1.390 . S
C519 C516 1.386 . S
C520 C515 1.490 . S
C520 C522 1.395 . S
C520 C523 1.403 1_556 S
H521 C527 0.930 . S
C522 H508 0.930 . S
C522 C520 1.395 . S
C522 C525 1.403 . S
C523 C520 1.403 1_554 S
C523 C524 1.524 . S
C523 C527 1.400 . S
C524 H509 0.960 . S
C524 H510 0.960 1_554 S
C524 H511 0.960 . S
C524 C523 1.524 . S
C525 C522 1.403 . S
C525 C526 1.392 1_556 S
C525 C529 1.495 . S
C526 C525 1.392 1_554 S
C526 C527 1.385 . S
C526 C528 1.478 . S
C527 H521 0.930 . S
C527 C523 1.400 . S
C527 C526 1.385 . S
C528 C526 1.478 . S
C528 C530 1.381 . S
C528 C534 1.383 . S
C529 C525 1.495 . S
C529 H535 0.959 . S
C529 H536 0.951 1_556 S
C529 H537 0.960 . S
C530 C528 1.381 . S
C530 C531 1.394 . S
C530 H538 0.930 . S
C531 C530 1.394 . S
C531 C532 1.383 . S
C531 H539 0.929 . S
C532 C531 1.383 . S
C532 C533 1.377 . S
C533 H517 0.930 . S
C533 C532 1.377 . S
C533 C534 1.379 . S
C534 H518 0.931 . S
C534 C528 1.383 . S
C534 C533 1.379 . S
H535 C529 0.959 . S
H536 C529 0.951 1_554 S
H537 C529 0.960 . S
H538 C530 0.930 . S
H539 C531 0.929 . S
H540 C548 0.929 . S
H541 C550 0.930 . S
H542 C552 0.930 . S
H543 C555 0.929 . S
H544 C558 0.930 . S
H545 C560 0.960 . S
H546 C560 0.960 . S
H547 C560 0.960 . S
C548 H540 0.929 . S
C548 C549 1.377 . S
C548 C550 1.384 . S
C549 C548 1.377 . S
C549 C555 1.390 . S
C550 H541 0.930 . S
C550 C548 1.384 . S
C550 C551 1.372 . S
C551 C550 1.372 . S
C551 C552 1.400 . S
C551 C556 1.490 . S
C552 H542 0.930 . S
C552 C551 1.400 . S
C552 C555 1.386 . S
H553 C569 0.930 . S
H554 C570 0.931 . S
C555 H543 0.929 . S
C555 C549 1.390 . S
C555 C552 1.386 . S
C556 C551 1.490 . S
C556 C558 1.395 . S
C556 C559 1.403 . S
H557 C563 0.930 . S
C558 H544 0.930 . S
C558 C556 1.395 . S
C558 C561 1.403 . S
C559 C556 1.403 . S
C559 C560 1.524 . S
C559 C563 1.400 . S
C560 H545 0.960 . S
C560 H546 0.960 . S
C560 H547 0.960 . S
C560 C559 1.524 . S
C561 C558 1.403 . S
C561 C562 1.392 . S
C561 C565 1.495 . S
C562 C561 1.392 . S
C562 C563 1.385 . S
C562 C564 1.478 . S
C563 H557 0.930 . S
C563 C559 1.400 . S
C563 C562 1.385 . S
C564 C562 1.478 . S
C564 C566 1.381 . S
C564 C570 1.383 . S
C565 C561 1.495 . S
C565 H571 0.959 . S
C565 H572 0.961 . S
C565 H573 0.960 . S
C566 C564 1.381 . S
C566 C567 1.394 . S
C566 H574 0.930 . S
C567 C566 1.394 . S
C567 C568 1.383 . S
C567 H575 0.929 . S
C568 C567 1.383 . S
C568 C569 1.377 . S
C569 H553 0.930 . S
C569 C568 1.377 . S
C569 C570 1.379 . S
C570 H554 0.931 . S
C570 C564 1.383 . S
C570 C569 1.379 . S
H571 C565 0.959 . S
H572 C565 0.961 . S
H573 C565 0.960 . S
H574 C566 0.930 . S
H575 C567 0.929 . S
H576 C584 0.929 . S
H577 C586 0.930 . S
H578 C588 0.930 . S
H579 C591 0.929 . S
H580 C594 0.930 . S
H581 C596 0.960 . S
H582 C596 0.960 . S
H583 C596 0.960 . S
C584 H576 0.929 . S
C584 C585 1.377 . S
C584 C586 1.384 . S
C585 C584 1.377 . S
C585 C591 1.390 . S
C586 H577 0.930 . S
C586 C584 1.384 . S
C586 C587 1.372 . S
C587 C586 1.372 . S
C587 C588 1.400 . S
C587 C592 1.490 . S
C588 H578 0.930 . S
C588 C587 1.400 . S
C588 C591 1.386 . S
H589 C605 0.930 . S
H590 C606 0.931 . S
C591 H579 0.929 . S
C591 C585 1.390 . S
C591 C588 1.386 . S
C592 C587 1.490 . S
C592 C594 1.395 . S
C592 C595 1.403 . S
H593 C599 0.930 . S
C594 H580 0.930 . S
C594 C592 1.395 . S
C594 C597 1.403 . S
C595 C592 1.403 . S
C595 C596 1.524 . S
C595 C599 1.400 . S
C596 H581 0.960 . S
C596 H582 0.960 . S
C596 H583 0.960 . S
C596 C595 1.524 . S
C597 C594 1.403 . S
C597 C598 1.392 . S
C597 C601 1.495 . S
C598 C597 1.392 . S
C598 C599 1.385 . S
C598 C600 1.478 . S
C599 H593 0.930 . S
C599 C595 1.400 . S
C599 C598 1.385 . S
C600 C598 1.478 . S
C600 C602 1.381 . S
C600 C606 1.383 . S
C601 C597 1.495 . S
C601 H607 0.959 . S
C601 H608 0.961 . S
C601 H609 0.960 . S
C602 C600 1.381 . S
C602 C603 1.394 . S
C602 H610 0.930 . S
C603 C602 1.394 . S
C603 C604 1.383 . S
C603 H611 0.929 . S
C604 C603 1.383 . S
C604 C605 1.377 . S
C605 H589 0.930 . S
C605 C604 1.377 . S
C605 C606 1.379 . S
C606 H590 0.931 . S
C606 C600 1.383 . S
C606 C605 1.379 . S
H607 C601 0.959 . S
H608 C601 0.961 . S
H609 C601 0.960 . S
H610 C602 0.930 . S
H611 C603 0.929 . S
H612 C620 0.929 . S
H613 C622 0.930 . S
H614 C624 0.930 . S
H615 C627 0.929 . S
H616 C630 0.930 . S
H617 C632 0.960 . S
H618 C632 0.960 . S
H619 C632 0.960 . S
C620 H612 0.929 . S
C620 C621 1.377 . S
C620 C622 1.384 . S
C621 C620 1.377 . S
C621 C627 1.390 . S
C622 H613 0.930 . S
C622 C620 1.384 . S
C622 C623 1.372 . S
C623 C622 1.372 . S
C623 C624 1.400 . S
C623 C628 1.490 . S
C624 H614 0.930 . S
C624 C623 1.400 . S
C624 C627 1.386 . S
H625 C641 0.930 . S
H626 C642 0.931 . S
C627 H615 0.929 . S
C627 C621 1.390 . S
C627 C624 1.386 . S
C628 C623 1.490 . S
C628 C630 1.395 . S
C628 C631 1.403 . S
H629 C635 0.930 . S
C630 H616 0.930 . S
C630 C628 1.395 . S
C630 C633 1.403 . S
C631 C628 1.403 . S
C631 C632 1.524 . S
C631 C635 1.400 . S
C632 H617 0.960 . S
C632 H618 0.960 . S
C632 H619 0.960 . S
C632 C631 1.524 . S
C633 C630 1.403 . S
C633 C634 1.392 . S
C633 C637 1.495 . S
C634 C633 1.392 . S
C634 C635 1.385 . S
C634 C636 1.478 . S
C635 H629 0.930 . S
C635 C631 1.400 . S
C635 C634 1.385 . S
C636 C634 1.478 . S
C636 C638 1.381 . S
C636 C642 1.383 . S
C637 C633 1.495 . S
C637 H643 0.959 . S
C637 H644 0.961 . S
C637 H645 0.960 . S
C638 C636 1.381 . S
C638 C639 1.394 . S
C638 H646 0.930 . S
C639 C638 1.394 . S
C639 C640 1.383 . S
C639 H647 0.929 . S
C640 C639 1.383 . S
C640 C641 1.377 . S
C641 H625 0.930 . S
C641 C640 1.377 . S
C641 C642 1.379 . S
C642 H626 0.931 . S
C642 C636 1.383 . S
C642 C641 1.379 . S
H643 C637 0.959 . S
H644 C637 0.961 . S
H645 C637 0.960 . S
H646 C638 0.930 . S
H647 C639 0.929 . S
H648 C656 0.929 . S
H649 C658 0.930 . S
H650 C660 0.930 . S
H651 C663 0.929 . S
H652 C666 0.930 . S
H653 C668 0.960 . S
H654 C668 0.960 . S
H655 C668 0.960 . S
C656 H648 0.929 . S
C656 C657 1.377 . S
C656 C658 1.384 . S
C657 C656 1.377 . S
C657 C663 1.390 . S
C658 H649 0.930 . S
C658 C656 1.384 . S
C658 C659 1.372 . S
C659 C658 1.372 . S
C659 C660 1.400 . S
C659 C664 1.490 . S
C660 H650 0.930 . S
C660 C659 1.400 . S
C660 C663 1.386 . S
H661 C677 0.930 . S
H662 C678 0.931 . S
C663 H651 0.929 . S
C663 C657 1.390 . S
C663 C660 1.386 . S
C664 C659 1.490 . S
C664 C666 1.395 . S
C664 C667 1.403 . S
H665 C671 0.930 . S
C666 H652 0.930 . S
C666 C664 1.395 . S
C666 C669 1.403 . S
C667 C664 1.403 . S
C667 C668 1.524 . S
C667 C671 1.400 . S
C668 H653 0.960 . S
C668 H654 0.960 . S
C668 H655 0.960 . S
C668 C667 1.524 . S
C669 C666 1.403 . S
C669 C670 1.392 . S
C669 C673 1.495 . S
C670 C669 1.392 . S
C670 C671 1.385 . S
C670 C672 1.478 . S
C671 H665 0.930 . S
C671 C667 1.400 . S
C671 C670 1.385 . S
C672 C670 1.478 . S
C672 C674 1.381 . S
C672 C678 1.383 . S
C673 C669 1.495 . S
C673 H679 0.959 . S
C673 H680 0.961 . S
C673 H681 0.960 . S
C674 C672 1.381 . S
C674 C675 1.394 . S
C674 H682 0.930 . S
C675 C674 1.394 . S
C675 C676 1.383 . S
C675 H683 0.929 . S
C676 C675 1.383 . S
C676 C677 1.377 . S
C677 H661 0.930 . S
C677 C676 1.377 . S
C677 C678 1.379 . S
C678 H662 0.931 . S
C678 C672 1.383 . S
C678 C677 1.379 . S
H679 C673 0.959 . S
H680 C673 0.961 . S
H681 C673 0.960 . S
H682 C674 0.930 . S
H683 C675 0.929 . S
H684 C692 0.929 . S
H685 C694 0.930 . S
H686 C696 0.930 . S
H687 C699 0.929 . S
H688 C702 0.930 . S
H689 C704 0.960 . S
H690 C704 0.960 . S
H691 C704 0.960 . S
C692 H684 0.929 . S
C692 C693 1.377 . S
C692 C694 1.384 . S
C693 C692 1.377 . S
C693 C699 1.390 . S
C694 H685 0.930 . S
C694 C692 1.384 . S
C694 C695 1.372 . S
C695 C694 1.372 . S
C695 C696 1.400 . S
C695 C700 1.490 . S
C696 H686 0.930 . S
C696 C695 1.400 . S
C696 C699 1.386 . S
H697 C713 0.930 . S
H698 C714 0.931 . S
C699 H687 0.929 . S
C699 C693 1.390 . S
C699 C696 1.386 . S
C700 C695 1.490 . S
C700 C702 1.395 1_556 S
C700 C703 1.403 . S
H701 C707 0.930 . S
C702 H688 0.930 . S
C702 C700 1.395 1_554 S
C702 C705 1.403 . S
C703 C700 1.403 . S
C703 C704 1.524 . S
C703 C707 1.400 . S
C704 H689 0.960 . S
C704 H690 0.960 . S
C704 H691 0.960 . S
C704 C703 1.524 . S
C705 C702 1.403 . S
C705 C706 1.392 . S
C705 C709 1.495 . S
C706 C705 1.392 . S
C706 C707 1.385 1_554 S
C706 C708 1.478 . S
C707 H701 0.930 . S
C707 C703 1.400 . S
C707 C706 1.385 1_556 S
C708 C706 1.478 . S
C708 C710 1.381 . S
C708 C714 1.383 . S
C709 C705 1.495 . S
C709 H715 0.959 . S
C709 H716 0.961 . S
C709 H717 0.960 . S
C710 C708 1.381 . S
C710 C711 1.394 . S
C710 H718 0.930 . S
C711 C710 1.394 . S
C711 C712 1.383 . S
C711 H719 0.929 . S
C712 C711 1.383 . S
C712 C713 1.377 . S
C713 H697 0.930 . S
C713 C712 1.377 . S
C713 C714 1.379 . S
C714 H698 0.931 . S
C714 C708 1.383 . S
C714 C713 1.379 . S
H715 C709 0.959 . S
H716 C709 0.961 . S
H717 C709 0.960 . S
H718 C710 0.930 . S
H719 C711 0.929 . S
H720 C728 0.929 . S
H721 C730 0.930 . S
H722 C732 0.930 . S
H723 C735 0.929 . S
H724 C738 0.930 . S
H725 C740 0.960 . S
H726 C740 0.960 . S
H727 C740 0.960 . S
C728 H720 0.929 . S
C728 C729 1.377 . S
C728 C730 1.384 . S
C729 C728 1.377 . S
C729 C735 1.390 . S
C730 H721 0.930 . S
C730 C728 1.384 . S
C730 C731 1.372 . S
C731 C730 1.372 . S
C731 C732 1.400 . S
C731 C736 1.490 . S
C732 H722 0.930 . S
C732 C731 1.400 . S
C732 C735 1.386 . S
H733 C749 0.930 . S
H734 C750 0.931 . S
C735 H723 0.929 . S
C735 C729 1.390 . S
C735 C732 1.386 . S
C736 C731 1.490 . S
C736 C738 1.395 . S
C736 C739 1.403 . S
H737 C743 0.930 . S
C738 H724 0.930 . S
C738 C736 1.395 . S
C738 C741 1.403 . S
C739 C736 1.403 . S
C739 C740 1.524 . S
C739 C743 1.400 . S
C740 H725 0.960 . S
C740 H726 0.960 . S
C740 H727 0.960 . S
C740 C739 1.524 . S
C741 C738 1.403 . S
C741 C742 1.392 . S
C741 C745 1.495 . S
C742 C741 1.392 . S
C742 C743 1.385 . S
C742 C744 1.478 . S
C743 H737 0.930 . S
C743 C739 1.400 . S
C743 C742 1.385 . S
C744 C742 1.478 . S
C744 C746 1.381 . S
C744 C750 1.383 . S
C745 C741 1.495 . S
C745 H751 0.959 . S
C745 H752 0.961 . S
C745 H753 0.960 . S
C746 C744 1.381 . S
C746 C747 1.394 . S
C746 H754 0.930 . S
C747 C746 1.394 . S
C747 C748 1.383 . S
C747 H755 0.929 . S
C748 C747 1.383 . S
C748 C749 1.377 . S
C749 H733 0.930 . S
C749 C748 1.377 . S
C749 C750 1.379 . S
C750 H734 0.931 . S
C750 C744 1.383 . S
C750 C749 1.379 . S
H751 C745 0.959 . S
H752 C745 0.961 . S
H753 C745 0.960 . S
H754 C746 0.930 . S
H755 C747 0.929 . S
H756 C764 0.929 . S
H757 C766 0.930 . S
H758 C768 0.930 . S
H759 C771 0.929 . S
H760 C774 0.930 . S
H761 C776 0.960 . S
H762 C776 0.960 . S
H763 C776 0.960 . S
C764 H756 0.929 . S
C764 C765 1.377 . S
C764 C766 1.384 . S
C765 C764 1.377 . S
C765 C771 1.390 . S
C766 H757 0.930 . S
C766 C764 1.384 . S
C766 C767 1.372 . S
C767 C766 1.372 . S
C767 C768 1.400 . S
C767 C772 1.490 . S
C768 H758 0.930 . S
C768 C767 1.400 . S
C768 C771 1.386 . S
H769 C785 0.930 . S
H770 C786 0.931 . S
C771 H759 0.929 . S
C771 C765 1.390 . S
C771 C768 1.386 . S
C772 C767 1.490 . S
C772 C774 1.395 . S
C772 C775 1.403 . S
H773 C779 0.930 . S
C774 H760 0.930 . S
C774 C772 1.395 . S
C774 C777 1.403 . S
C775 C772 1.403 . S
C775 C776 1.524 . S
C775 C779 1.400 . S
C776 H761 0.960 . S
C776 H762 0.960 . S
C776 H763 0.960 . S
C776 C775 1.524 . S
C777 C774 1.403 . S
C777 C778 1.392 . S
C777 C781 1.495 . S
C778 C777 1.392 . S
C778 C779 1.385 . S
C778 C780 1.478 . S
C779 H773 0.930 . S
C779 C775 1.400 . S
C779 C778 1.385 . S
C780 C778 1.478 . S
C780 C782 1.381 . S
C780 C786 1.383 . S
C781 C777 1.495 . S
C781 H787 0.959 . S
C781 H788 0.961 . S
C781 H789 0.960 . S
C782 C780 1.381 . S
C782 C783 1.394 . S
C782 H790 0.930 . S
C783 C782 1.394 . S
C783 C784 1.383 . S
C783 H791 0.929 . S
C784 C783 1.383 . S
C784 C785 1.377 . S
C785 H769 0.930 . S
C785 C784 1.377 . S
C785 C786 1.379 . S
C786 H770 0.931 . S
C786 C780 1.383 . S
C786 C785 1.379 . S
H787 C781 0.959 . S
H788 C781 0.961 . S
H789 C781 0.960 . S
H790 C782 0.930 . S
H791 C783 0.929 . S
H792 C800 0.918 1_556 S
H793 C802 0.930 . S
H794 C804 0.930 . S
H795 C807 0.929 . S
H796 C810 0.930 . S
H797 C812 0.960 . S
H798 C812 0.960 . S
H799 C812 0.960 . S
C800 H792 0.918 1_554 S
C800 C801 1.393 . S
C800 C802 1.380 1_554 S
C801 C800 1.393 . S
C801 C807 1.390 . S
C802 H793 0.930 . S
C802 C800 1.380 1_556 S
C802 C803 1.372 1_556 S
C803 C802 1.372 1_554 S
C803 C804 1.400 . S
C803 C808 1.490 . S
C804 H794 0.930 . S
C804 C803 1.400 . S
C804 C807 1.386 . S
H805 C821 0.930 1_554 S
H806 C822 0.931 1_554 S
C807 H795 0.929 . S
C807 C801 1.390 . S
C807 C804 1.386 . S
C808 C803 1.490 . S
C808 C810 1.395 1_554 S
C808 C811 1.403 . S
H809 C815 0.930 . S
C810 H796 0.930 . S
C810 C808 1.395 1_556 S
C810 C813 1.403 . S
C811 C808 1.403 . S
C811 C812 1.524 . S
C811 C815 1.400 . S
C812 H797 0.960 . S
C812 H798 0.960 . S
C812 H799 0.960 . S
C812 C811 1.524 . S
C813 C810 1.403 . S
C813 C814 1.392 . S
C813 C817 1.495 . S
C814 C813 1.392 . S
C814 C815 1.385 1_556 S
C814 C816 1.478 . S
C815 H809 0.930 . S
C815 C811 1.400 . S
C815 C814 1.385 1_554 S
C816 C814 1.478 . S
C816 C818 1.381 . S
C816 C822 1.383 . S
C817 C813 1.495 . S
C817 H823 0.959 . S
C817 H824 0.961 . S
C817 H825 0.960 . S
C818 C816 1.381 . S
C818 C819 1.394 . S
C818 H826 0.930 . S
C819 C818 1.394 . S
C819 C820 1.383 . S
C819 H827 0.929 . S
C820 C819 1.383 . S
C820 C821 1.377 . S
C821 H805 0.930 1_556 S
C821 C820 1.377 . S
C821 C822 1.380 . S
C822 H806 0.931 1_556 S
C822 C816 1.383 . S
C822 C821 1.380 . S
H823 C817 0.959 . S
H824 C817 0.961 . S
H825 C817 0.960 . S
H826 C818 0.930 . S
H827 C819 0.929 . S
H828 C836 0.929 . S
H829 C838 0.930 . S
H830 C840 0.930 . S
H831 C843 0.929 . S
H832 C846 0.930 . S
H833 C848 0.960 . S
H834 C848 0.960 . S
H835 C848 0.960 . S
C836 H828 0.929 . S
C836 C837 1.377 . S
C836 C838 1.384 . S
C837 C836 1.377 . S
C837 C843 1.390 . S
C838 H829 0.930 . S
C838 C836 1.384 . S
C838 C839 1.372 . S
C839 C838 1.372 . S
C839 C840 1.400 . S
C839 C844 1.490 . S
C840 H830 0.930 . S
C840 C839 1.400 . S
C840 C843 1.386 . S
H841 C857 0.930 . S
H842 C858 0.931 . S
C843 H831 0.929 . S
C843 C837 1.390 . S
C843 C840 1.386 . S
C844 C839 1.490 . S
C844 C846 1.395 . S
C844 C847 1.403 . S
H845 C851 0.930 . S
C846 H832 0.930 . S
C846 C844 1.395 . S
C846 C849 1.403 . S
C847 C844 1.403 . S
C847 C848 1.524 . S
C847 C851 1.400 . S
C848 H833 0.960 . S
C848 H834 0.960 . S
C848 H835 0.960 . S
C848 C847 1.524 . S
C849 C846 1.403 . S
C849 C850 1.392 . S
C849 C853 1.495 . S
C850 C849 1.392 . S
C850 C851 1.385 . S
C850 C852 1.478 . S
C851 H845 0.930 . S
C851 C847 1.400 . S
C851 C850 1.385 . S
C852 C850 1.478 . S
C852 C854 1.381 . S
C852 C858 1.383 . S
C853 C849 1.495 . S
C853 H859 0.959 . S
C853 H860 0.961 . S
C853 H861 0.960 . S
C854 C852 1.381 . S
C854 C855 1.394 . S
C854 H862 0.930 . S
C855 C854 1.394 . S
C855 C856 1.383 . S
C855 H863 0.929 . S
C856 C855 1.383 . S
C856 C857 1.377 . S
C857 H841 0.930 . S
C857 C856 1.377 . S
C857 C858 1.379 . S
C858 H842 0.931 . S
C858 C852 1.383 . S
C858 C857 1.379 . S
H859 C853 0.959 . S
H860 C853 0.961 . S
H861 C853 0.960 . S
H862 C854 0.930 . S
H863 C855 0.929 . S
H864 C872 0.929 . S
H865 C874 0.930 . S
H866 C876 0.930 . S
H867 C879 0.929 . S
H868 C882 0.930 . S
H869 C884 0.960 . S
H870 C884 0.960 . S
H871 C884 0.960 . S
C872 H864 0.929 . S
C872 C873 1.377 . S
C872 C874 1.384 . S
C873 C872 1.377 . S
C873 C879 1.390 . S
C874 H865 0.930 . S
C874 C872 1.384 . S
C874 C875 1.372 . S
C875 C874 1.372 . S
C875 C876 1.400 . S
C875 C880 1.490 . S
C876 H866 0.930 . S
C876 C875 1.400 . S
C876 C879 1.386 . S
H877 C893 0.930 . S
H878 C894 0.931 . S
C879 H867 0.929 . S
C879 C873 1.390 . S
C879 C876 1.386 . S
C880 C875 1.490 . S
C880 C882 1.395 . S
C880 C883 1.403 . S
H881 C887 0.930 . S
C882 H868 0.930 . S
C882 C880 1.395 . S
C882 C885 1.403 1_455 S
C883 C880 1.403 . S
C883 C884 1.524 . S
C883 C887 1.400 1_455 S
C884 H869 0.960 . S
C884 H870 0.960 . S
C884 H871 0.960 . S
C884 C883 1.524 . S
C885 C882 1.403 1_655 S
C885 C886 1.392 . S
C885 C889 1.495 . S
C886 C885 1.392 . S
C886 C887 1.385 . S
C886 C888 1.478 . S
C887 H881 0.930 . S
C887 C883 1.400 1_655 S
C887 C886 1.385 . S
C888 C886 1.478 . S
C888 C890 1.381 . S
C888 C894 1.383 . S
C889 C885 1.495 . S
C889 H895 0.959 . S
C889 H896 0.961 . S
C889 H897 0.960 . S
C890 C888 1.381 . S
C890 C891 1.394 . S
C890 H898 0.930 . S
C891 C890 1.394 . S
C891 C892 1.383 . S
C891 H899 0.929 . S
C892 C891 1.383 . S
C892 C893 1.377 . S
C893 H877 0.930 . S
C893 C892 1.377 . S
C893 C894 1.379 . S
C894 H878 0.931 . S
C894 C888 1.383 . S
C894 C893 1.379 . S
H895 C889 0.959 . S
H896 C889 0.961 . S
H897 C889 0.960 . S
H898 C890 0.930 . S
H899 C891 0.929 . S
H900 C908 0.929 . S
H901 C910 0.930 . S
H902 C912 0.930 . S
H903 C915 0.929 . S
H904 C918 0.930 . S
H905 C920 0.960 . S
H906 C920 0.960 1_556 S
H907 C920 0.960 . S
C908 H900 0.929 . S
C908 C909 1.377 1_556 S
C908 C910 1.384 . S
C909 C908 1.377 1_554 S
C909 C915 1.390 . S
C910 H901 0.930 . S
C910 C908 1.384 . S
C910 C911 1.372 1_556 S
C911 C910 1.372 1_554 S
C911 C912 1.400 . S
C911 C916 1.490 . S
C912 H902 0.930 . S
C912 C911 1.400 . S
C912 C915 1.386 . S
H913 C929 0.930 . S
H914 C930 0.931 . S
C915 H903 0.929 . S
C915 C909 1.390 . S
C915 C912 1.386 . S
C916 C911 1.490 . S
C916 C918 1.395 1_554 S
C916 C919 1.403 . S
H917 C923 0.930 . S
C918 H904 0.930 . S
C918 C916 1.395 1_556 S
C918 C921 1.403 1_545 S
C919 C916 1.403 . S
C919 C920 1.524 . S
C919 C923 1.400 1_545 S
C920 H905 0.960 . S
C920 H906 0.960 1_554 S
C920 H907 0.960 . S
C920 C919 1.524 . S
C921 C918 1.403 1_565 S
C921 C922 1.392 . S
C921 C925 1.495 . S
C922 C921 1.392 . S
C922 C923 1.384 1_556 S
C922 C924 1.478 . S
C923 H917 0.930 . S
C923 C919 1.400 1_565 S
C923 C922 1.384 1_554 S
C924 C922 1.478 . S
C924 C926 1.381 . S
C924 C930 1.383 1_556 S
C925 C921 1.495 . S
C925 H931 0.959 . S
C925 H932 0.961 . S
C925 H933 0.960 . S
C926 C924 1.381 . S
C926 C927 1.394 . S
C926 H934 0.930 . S
C927 C926 1.394 . S
C927 C928 1.383 . S
C927 H935 0.929 . S
C928 C927 1.383 . S
C928 C929 1.377 1_556 S
C929 H913 0.930 . S
C929 C928 1.377 1_554 S
C929 C930 1.379 . S
C930 H914 0.931 . S
C930 C924 1.383 1_554 S
C930 C929 1.379 . S
H931 C925 0.959 . S
H932 C925 0.961 . S
H933 C925 0.960 . S
H934 C926 0.930 . S
H935 C927 0.929 . S
H936 C944 0.929 . S
H937 C946 0.930 . S
H938 C948 0.930 . S
H939 C951 0.929 . S
H940 C954 0.930 . S
H941 C956 0.960 . S
H942 C956 0.960 . S
H943 C956 0.960 . S
C944 H936 0.929 . S
C944 C945 1.377 . S
C944 C946 1.384 . S
C945 C944 1.377 . S
C945 C951 1.390 . S
C946 H937 0.930 . S
C946 C944 1.384 . S
C946 C947 1.372 . S
C947 C946 1.372 . S
C947 C948 1.400 . S
C947 C952 1.490 . S
C948 H938 0.930 . S
C948 C947 1.400 . S
C948 C951 1.386 . S
H949 C965 0.930 . S
H950 C966 0.931 . S
C951 H939 0.929 . S
C951 C945 1.390 . S
C951 C948 1.386 . S
C952 C947 1.490 . S
C952 C954 1.395 . S
C952 C955 1.403 . S
H953 C959 0.930 . S
C954 H940 0.930 . S
C954 C952 1.395 . S
C954 C957 1.403 . S
C955 C952 1.403 . S
C955 C956 1.524 . S
C955 C959 1.400 . S
C956 H941 0.960 . S
C956 H942 0.960 . S
C956 H943 0.960 . S
C956 C955 1.524 . S
C957 C954 1.403 . S
C957 C958 1.392 . S
C957 C961 1.495 . S
C958 C957 1.392 . S
C958 C959 1.385 . S
C958 C960 1.478 . S
C959 H953 0.930 . S
C959 C955 1.400 . S
C959 C958 1.385 . S
C960 C958 1.478 . S
C960 C962 1.381 . S
C960 C966 1.383 . S
C961 C957 1.495 . S
C961 H967 0.959 . S
C961 H968 0.961 . S
C961 H969 0.960 . S
C962 C960 1.381 . S
C962 C963 1.394 . S
C962 H970 0.930 . S
C963 C962 1.394 . S
C963 C964 1.383 . S
C963 H971 0.929 . S
C964 C963 1.383 . S
C964 C965 1.377 . S
C965 H949 0.930 . S
C965 C964 1.377 . S
C965 C966 1.379 . S
C966 H950 0.931 . S
C966 C960 1.383 . S
C966 C965 1.379 . S
H967 C961 0.959 . S
H968 C961 0.961 . S
H969 C961 0.960 . S
H970 C962 0.930 . S
H971 C963 0.929 . S
H972 C980 0.929 . S
H973 C982 0.930 . S
H974 C984 0.930 . S
H975 C987 0.929 . S
H976 C990 0.930 . S
H977 C992 0.960 . S
H978 C992 0.960 . S
H979 C992 0.960 . S
C980 H972 0.929 . S
C980 C981 1.377 . S
C980 C982 1.384 . S
C981 C980 1.377 . S
C981 C987 1.390 . S
C982 H973 0.930 . S
C982 C980 1.384 . S
C982 C983 1.372 . S
C983 C982 1.372 . S
C983 C984 1.400 . S
C983 C988 1.490 . S
C984 H974 0.930 . S
C984 C983 1.400 . S
C984 C987 1.386 . S
H985 C1001 0.930 . S
H986 C1002 0.931 . S
C987 H975 0.929 . S
C987 C981 1.390 . S
C987 C984 1.386 . S
C988 C983 1.490 . S
C988 C990 1.395 . S
C988 C991 1.403 . S
H989 C995 0.930 . S
C990 H976 0.930 . S
C990 C988 1.395 . S
C990 C993 1.403 1_455 S
C991 C988 1.403 . S
C991 C992 1.524 . S
C991 C995 1.400 1_455 S
C992 H977 0.960 . S
C992 H978 0.960 . S
C992 H979 0.960 . S
C992 C991 1.524 . S
C993 C990 1.403 1_655 S
C993 C994 1.392 . S
C993 C997 1.495 . S
C994 C993 1.392 . S
C994 C995 1.385 . S
C994 C996 1.478 . S
C995 H989 0.930 . S
C995 C991 1.400 1_655 S
C995 C994 1.385 . S
C996 C994 1.478 . S
C996 C998 1.381 . S
C996 C1002 1.383 . S
C997 C993 1.495 . S
C997 H1003 0.959 . S
C997 H1004 0.961 . S
C997 H1005 0.960 . S
C998 C996 1.381 . S
C998 C999 1.394 . S
C998 H1006 0.930 . S
C999 C998 1.394 . S
C999 C1000 1.383 . S
C999 H1007 0.929 . S
C1000 C999 1.383 . S
C1000 C1001 1.377 . S
C1001 H985 0.930 . S
C1001 C1000 1.377 . S
C1001 C1002 1.379 . S
C1002 H986 0.931 . S
C1002 C996 1.383 . S
C1002 C1001 1.379 . S
H1003 C997 0.959 . S
H1004 C997 0.961 . S
H1005 C997 0.960 . S
H1006 C998 0.930 . S
H1007 C999 0.929 . S
H1008 C1016 0.929 . S
H1009 C1018 0.930 1_554 S
H1010 C1020 0.930 . S
H1011 C1023 0.929 . S
H1012 C1026 0.930 . S
H1013 C1028 0.960 1_565 S
H1014 C1028 0.960 . S
H1015 C1028 0.960 . S
C1016 H1008 0.929 . S
C1016 C1017 1.377 . S
C1016 C1018 1.384 . S
C1017 C1016 1.377 . S
C1017 C1023 1.390 . S
C1018 H1009 0.930 1_556 S
C1018 C1016 1.384 . S
C1018 C1019 1.372 . S
C1019 C1018 1.372 . S
C1019 C1020 1.400 . S
C1019 C1024 1.490 . S
C1020 H1010 0.930 . S
C1020 C1019 1.400 . S
C1020 C1023 1.386 . S
H1021 C1037 0.930 . S
H1022 C1038 0.931 . S
C1023 H1011 0.929 . S
C1023 C1017 1.390 . S
C1023 C1020 1.386 . S
C1024 C1019 1.490 . S
C1024 C1026 1.395 1_556 S
C1024 C1027 1.403 . S
H1025 C1031 0.930 . S
C1026 H1012 0.930 . S
C1026 C1024 1.395 1_554 S
C1026 C1029 1.403 1_545 S
C1027 C1024 1.403 . S
C1027 C1028 1.524 . S
C1027 C1031 1.400 1_545 S
C1028 H1013 0.960 1_545 S
C1028 H1014 0.960 . S
C1028 H1015 0.960 . S
C1028 C1027 1.524 . S
C1029 C1026 1.403 1_565 S
C1029 C1030 1.392 . S
C1029 C1033 1.495 . S
C1030 C1029 1.392 . S
C1030 C1031 1.385 1_554 S
C1030 C1032 1.478 . S
C1031 H1025 0.930 . S
C1031 C1027 1.400 1_565 S
C1031 C1030 1.385 1_556 S
C1032 C1030 1.478 . S
C1032 C1034 1.381 . S
C1032 C1038 1.383 . S
C1033 C1029 1.495 . S
C1033 H1039 0.959 1_565 S
C1033 H1040 0.961 . S
C1033 H1041 0.960 . S
C1034 C1032 1.381 . S
C1034 C1035 1.394 . S
C1034 H1042 0.930 . S
C1035 C1034 1.394 . S
C1035 C1036 1.383 . S
C1035 H1043 0.929 . S
C1036 C1035 1.383 . S
C1036 C1037 1.377 . S
C1037 H1021 0.930 . S
C1037 C1036 1.377 . S
C1037 C1038 1.379 . S
C1038 H1022 0.931 . S
C1038 C1032 1.383 . S
C1038 C1037 1.379 . S
H1039 C1033 0.959 1_545 S
H1040 C1033 0.961 . S
H1041 C1033 0.960 . S
H1042 C1034 0.930 . S
H1043 C1035 0.929 . S
H1044 C1052 0.929 . S
H1045 C1054 0.930 . S
H1046 C1056 0.930 . S
H1047 C1059 0.929 . S
H1048 C1062 0.930 . S
H1049 C1064 0.960 . S
H1050 C1064 0.960 . S
H1051 C1064 0.960 . S
C1052 H1044 0.929 . S
C1052 C1053 1.377 . S
C1052 C1054 1.384 . S
C1053 C1052 1.377 . S
C1053 C1059 1.390 . S
C1054 H1045 0.930 . S
C1054 C1052 1.384 . S
C1054 C1055 1.372 . S
C1055 C1054 1.372 . S
C1055 C1056 1.400 . S
C1055 C1060 1.490 . S
C1056 H1046 0.930 . S
C1056 C1055 1.400 . S
C1056 C1059 1.386 . S
H1057 C1073 0.939 . S
H1058 C1074 0.931 . S
C1059 H1047 0.929 . S
C1059 C1053 1.390 . S
C1059 C1056 1.386 . S
C1060 C1055 1.490 . S
C1060 C1062 1.395 . S
C1060 C1063 1.403 . S
H1061 C1067 0.930 . S
C1062 H1048 0.930 . S
C1062 C1060 1.395 . S
C1062 C1065 1.403 . S
C1063 C1060 1.403 . S
C1063 C1064 1.524 . S
C1063 C1067 1.400 . S
C1064 H1049 0.960 . S
C1064 H1050 0.960 . S
C1064 H1051 0.960 . S
C1064 C1063 1.524 . S
C1065 C1062 1.403 . S
C1065 C1066 1.392 . S
C1065 C1069 1.495 . S
C1066 C1065 1.392 . S
C1066 C1067 1.385 . S
C1066 C1068 1.478 . S
C1067 H1061 0.930 . S
C1067 C1063 1.400 . S
C1067 C1066 1.385 . S
C1068 C1066 1.478 . S
C1068 C1070 1.381 . S
C1068 C1074 1.383 . S
C1069 C1065 1.495 . S
C1069 H1075 0.959 . S
C1069 H1076 0.961 . S
C1069 H1077 0.960 . S
C1070 C1068 1.381 . S
C1070 C1071 1.394 . S
C1070 H1078 0.930 . S
C1071 C1070 1.394 . S
C1071 C1072 1.383 1_556 S
C1071 H1079 0.929 . S
C1072 C1071 1.383 1_554 S
C1072 C1073 1.377 1_554 S
C1073 H1057 0.939 . S
C1073 C1072 1.377 1_556 S
C1073 C1074 1.379 . S
C1074 H1058 0.931 . S
C1074 C1068 1.383 . S
C1074 C1073 1.379 . S
H1075 C1069 0.959 . S
H1076 C1069 0.961 . S
H1077 C1069 0.960 . S
H1078 C1070 0.930 . S
H1079 C1071 0.929 . S
H1080 C1088 0.929 . S
H1081 C1090 0.930 . S
H1082 C1092 0.930 . S
H1083 C1095 0.929 . S
H1084 C1098 0.930 . S
H1085 C1100 0.960 . S
H1086 C1100 0.960 . S
H1087 C1100 0.960 . S
C1088 H1080 0.929 . S
C1088 C1089 1.377 . S
C1088 C1090 1.384 . S
C1089 C1088 1.377 . S
C1089 C1095 1.390 . S
C1090 H1081 0.930 . S
C1090 C1088 1.384 . S
C1090 C1091 1.372 . S
C1091 C1090 1.372 . S
C1091 C1092 1.400 . S
C1091 C1096 1.490 . S
C1092 H1082 0.930 . S
C1092 C1091 1.400 . S
C1092 C1095 1.386 . S
H1093 C1109 0.930 . S
H1094 C1110 0.931 . S
C1095 H1083 0.929 . S
C1095 C1089 1.390 . S
C1095 C1092 1.386 . S
C1096 C1091 1.490 . S
C1096 C1098 1.395 . S
C1096 C1099 1.403 . S
H1097 C1103 0.930 . S
C1098 H1084 0.930 . S
C1098 C1096 1.395 . S
C1098 C1101 1.403 . S
C1099 C1096 1.403 . S
C1099 C1100 1.524 . S
C1099 C1103 1.400 . S
C1100 H1085 0.960 . S
C1100 H1086 0.960 . S
C1100 H1087 0.960 . S
C1100 C1099 1.524 . S
C1101 C1098 1.403 . S
C1101 C1102 1.392 . S
C1101 C1105 1.495 . S
C1102 C1101 1.392 . S
C1102 C1103 1.385 . S
C1102 C1104 1.478 1_554 S
C1103 H1097 0.930 . S
C1103 C1099 1.400 . S
C1103 C1102 1.385 . S
C1104 C1102 1.478 1_556 S
C1104 C1106 1.381 . S
C1104 C1110 1.383 . S
C1105 C1101 1.495 . S
C1105 H1111 0.959 . S
C1105 H1112 0.961 1_554 S
C1105 H1113 0.960 1_554 S
C1106 C1104 1.381 . S
C1106 C1107 1.394 . S
C1106 H1114 0.930 . S
C1107 C1106 1.394 . S
C1107 C1108 1.383 . S
C1107 H1115 0.929 . S
C1108 C1107 1.383 . S
C1108 C1109 1.377 . S
C1109 H1093 0.930 . S
C1109 C1108 1.377 . S
C1109 C1110 1.379 . S
C1110 H1094 0.931 . S
C1110 C1104 1.383 . S
C1110 C1109 1.379 . S
H1111 C1105 0.959 . S
H1112 C1105 0.961 1_556 S
H1113 C1105 0.960 1_556 S
H1114 C1106 0.930 . S
H1115 C1107 0.929 . S
H1116 C1124 0.929 . S
H1117 C1126 0.930 . S
H1118 C1128 0.930 . S
H1119 C1131 0.929 . S
H1120 C1134 0.930 . S
H1121 C1136 0.960 . S
H1122 C1136 0.960 . S
H1123 C1136 0.960 . S
C1124 H1116 0.929 . S
C1124 C1125 1.377 . S
C1124 C1126 1.384 . S
C1125 C1124 1.377 . S
C1125 C1131 1.390 . S
C1126 H1117 0.930 . S
C1126 C1124 1.384 . S
C1126 C1127 1.372 . S
C1127 C1126 1.372 . S
C1127 C1128 1.400 . S
C1127 C1132 1.490 . S
C1128 H1118 0.930 . S
C1128 C1127 1.400 . S
C1128 C1131 1.386 . S
H1129 C1145 0.930 . S
H1130 C1146 0.931 . S
C1131 H1119 0.929 . S
C1131 C1125 1.390 . S
C1131 C1128 1.386 . S
C1132 C1127 1.490 . S
C1132 C1134 1.395 . S
C1132 C1135 1.403 . S
H1133 C1139 0.930 . S
C1134 H1120 0.930 . S
C1134 C1132 1.395 . S
C1134 C1137 1.403 . S
C1135 C1132 1.403 . S
C1135 C1136 1.524 . S
C1135 C1139 1.400 . S
C1136 H1121 0.960 . S
C1136 H1122 0.960 . S
C1136 H1123 0.960 . S
C1136 C1135 1.524 . S
C1137 C1134 1.403 . S
C1137 C1138 1.392 . S
C1137 C1141 1.495 . S
C1138 C1137 1.392 . S
C1138 C1139 1.385 . S
C1138 C1140 1.478 . S
C1139 H1133 0.930 . S
C1139 C1135 1.400 . S
C1139 C1138 1.385 . S
C1140 C1138 1.478 . S
C1140 C1142 1.381 . S
C1140 C1146 1.383 . S
C1141 C1137 1.495 . S
C1141 H1147 0.959 . S
C1141 H1148 0.961 . S
C1141 H1149 0.960 . S
C1142 C1140 1.381 . S
C1142 C1143 1.394 . S
C1142 H1150 0.930 . S
C1143 C1142 1.394 . S
C1143 C1144 1.383 . S
C1143 H1151 0.929 . S
C1144 C1143 1.383 . S
C1144 C1145 1.377 . S
C1145 H1129 0.930 . S
C1145 C1144 1.377 . S
C1145 C1146 1.379 . S
C1146 H1130 0.931 . S
C1146 C1140 1.383 . S
C1146 C1145 1.379 . S
H1147 C1141 0.959 . S
H1148 C1141 0.961 . S
H1149 C1141 0.960 . S
H1150 C1142 0.930 . S
H1151 C1143 0.929 . S
H1152 C1160 0.929 . S
H1153 C1162 0.930 . S
H1154 C1164 0.930 . S
H1155 C1167 0.929 . S
H1156 C1170 0.930 . S
H1157 C1172 0.960 . S
H1158 C1172 0.960 . S
H1159 C1172 0.960 . S
C1160 H1152 0.929 . S
C1160 C1161 1.377 1_556 S
C1160 C1162 1.384 . S
C1161 C1160 1.377 1_554 S
C1161 C1167 1.390 1_554 S
C1162 H1153 0.930 . S
C1162 C1160 1.384 . S
C1162 C1163 1.372 . S
C1163 C1162 1.372 . S
C1163 C1164 1.400 . S
C1163 C1168 1.490 . S
C1164 H1154 0.930 . S
C1164 C1163 1.400 . S
C1164 C1167 1.386 . S
H1165 C1181 0.930 . S
H1166 C1182 0.931 . S
C1167 H1155 0.929 . S
C1167 C1161 1.390 1_556 S
C1167 C1164 1.386 . S
C1168 C1163 1.490 . S
C1168 C1170 1.395 . S
C1168 C1171 1.403 . S
H1169 C1175 0.930 . S
C1170 H1156 0.930 . S
C1170 C1168 1.395 . S
C1170 C1173 1.403 . S
C1171 C1168 1.403 . S
C1171 C1172 1.524 . S
C1171 C1175 1.400 . S
C1172 H1157 0.960 . S
C1172 H1158 0.960 . S
C1172 H1159 0.960 . S
C1172 C1171 1.524 . S
C1173 C1170 1.403 . S
C1173 C1174 1.392 . S
C1173 C1177 1.495 . S
C1174 C1173 1.392 . S
C1174 C1175 1.385 . S
C1174 C1176 1.478 . S
C1175 H1169 0.930 . S
C1175 C1171 1.400 . S
C1175 C1174 1.385 . S
C1176 C1174 1.478 . S
C1176 C1178 1.381 . S
C1176 C1182 1.383 . S
C1177 C1173 1.495 . S
C1177 H1183 0.959 . S
C1177 H1184 0.961 . S
C1177 H1185 0.960 . S
C1178 C1176 1.381 . S
C1178 C1179 1.394 . S
C1178 H1186 0.930 . S
C1179 C1178 1.394 . S
C1179 C1180 1.383 . S
C1179 H1187 0.929 . S
C1180 C1179 1.383 . S
C1180 C1181 1.377 . S
C1181 H1165 0.930 . S
C1181 C1180 1.377 . S
C1181 C1182 1.379 . S
C1182 H1166 0.931 . S
C1182 C1176 1.383 . S
C1182 C1181 1.379 . S
H1183 C1177 0.959 . S
H1184 C1177 0.961 . S
H1185 C1177 0.960 . S
H1186 C1178 0.930 . S
H1187 C1179 0.929 . S
H1188 C1196 0.929 . S
H1189 C1198 0.930 . S
H1190 C1200 0.930 . S
H1191 C1203 0.929 . S
H1192 C1206 0.930 . S
H1193 C1208 0.960 . S
H1194 C1208 0.960 . S
H1195 C1208 0.960 . S
C1196 H1188 0.929 . S
C1196 C1197 1.377 . S
C1196 C1198 1.384 . S
C1197 C1196 1.377 . S
C1197 C1203 1.390 . S
C1198 H1189 0.930 . S
C1198 C1196 1.384 . S
C1198 C1199 1.372 . S
C1199 C1198 1.372 . S
C1199 C1200 1.400 . S
C1199 C1204 1.490 . S
C1200 H1190 0.930 . S
C1200 C1199 1.400 . S
C1200 C1203 1.386 . S
H1201 C1217 0.930 . S
H1202 C1218 0.931 . S
C1203 H1191 0.929 . S
C1203 C1197 1.390 . S
C1203 C1200 1.386 . S
C1204 C1199 1.490 . S
C1204 C1206 1.395 . S
C1204 C1207 1.403 . S
H1205 C1211 0.930 . S
C1206 H1192 0.930 . S
C1206 C1204 1.395 . S
C1206 C1209 1.403 . S
C1207 C1204 1.403 . S
C1207 C1208 1.524 . S
C1207 C1211 1.400 . S
C1208 H1193 0.960 . S
C1208 H1194 0.960 . S
C1208 H1195 0.960 . S
C1208 C1207 1.524 . S
C1209 C1206 1.403 . S
C1209 C1210 1.392 . S
C1209 C1213 1.495 . S
C1210 C1209 1.392 . S
C1210 C1211 1.385 . S
C1210 C1212 1.478 1_554 S
C1211 H1205 0.930 . S
C1211 C1207 1.400 . S
C1211 C1210 1.385 . S
C1212 C1210 1.478 1_556 S
C1212 C1214 1.381 . S
C1212 C1218 1.383 . S
C1213 C1209 1.495 . S
C1213 H1219 0.959 . S
C1213 H1220 0.961 1_554 S
C1213 H1221 0.960 1_554 S
C1214 C1212 1.381 . S
C1214 C1215 1.394 . S
C1214 H1222 0.930 . S
C1215 C1214 1.394 . S
C1215 C1216 1.383 . S
C1215 H1223 0.929 . S
C1216 C1215 1.383 . S
C1216 C1217 1.377 . S
C1217 H1201 0.930 . S
C1217 C1216 1.377 . S
C1217 C1218 1.379 . S
C1218 H1202 0.931 . S
C1218 C1212 1.383 . S
C1218 C1217 1.379 . S
H1219 C1213 0.959 . S
H1220 C1213 0.961 1_556 S
H1221 C1213 0.960 1_556 S
H1222 C1214 0.930 . S
H1223 C1215 0.929 . S
H1224 C1232 0.929 . S
H1225 C1234 0.930 . S
H1226 C1236 0.930 . S
H1227 C1239 0.929 . S
H1228 C1242 0.930 . S
H1229 C1244 0.960 . S
H1230 C1244 0.960 . S
H1231 C1244 0.960 . S
C1232 H1224 0.929 . S
C1232 C1233 1.377 . S
C1232 C1234 1.384 . S
C1233 C1232 1.377 . S
C1233 C1239 1.390 . S
C1234 H1225 0.930 . S
C1234 C1232 1.384 . S
C1234 C1235 1.372 . S
C1235 C1234 1.372 . S
C1235 C1236 1.400 . S
C1235 C1240 1.490 . S
C1236 H1226 0.930 . S
C1236 C1235 1.400 . S
C1236 C1239 1.386 . S
H1237 C1253 0.930 . S
H1238 C1254 0.931 . S
C1239 H1227 0.929 . S
C1239 C1233 1.390 . S
C1239 C1236 1.386 . S
C1240 C1235 1.490 . S
C1240 C1242 1.395 . S
C1240 C1243 1.403 . S
H1241 C1247 0.930 . S
C1242 H1228 0.930 . S
C1242 C1240 1.395 . S
C1242 C1245 1.403 . S
C1243 C1240 1.403 . S
C1243 C1244 1.524 . S
C1243 C1247 1.400 . S
C1244 H1229 0.960 . S
C1244 H1230 0.960 . S
C1244 H1231 0.960 . S
C1244 C1243 1.524 . S
C1245 C1242 1.403 . S
C1245 C1246 1.392 . S
C1245 C1249 1.495 . S
C1246 C1245 1.392 . S
C1246 C1247 1.385 . S
C1246 C1248 1.478 . S
C1247 H1241 0.930 . S
C1247 C1243 1.400 . S
C1247 C1246 1.385 . S
C1248 C1246 1.478 . S
C1248 C1250 1.381 . S
C1248 C1254 1.383 . S
C1249 C1245 1.495 . S
C1249 H1255 0.959 . S
C1249 H1256 0.961 . S
C1249 H1257 0.960 . S
C1250 C1248 1.381 . S
C1250 C1251 1.394 . S
C1250 H1258 0.930 . S
C1251 C1250 1.394 . S
C1251 C1252 1.383 . S
C1251 H1259 0.929 . S
C1252 C1251 1.383 . S
C1252 C1253 1.377 . S
C1253 H1237 0.930 . S
C1253 C1252 1.377 . S
C1253 C1254 1.379 . S
C1254 H1238 0.931 . S
C1254 C1248 1.383 . S
C1254 C1253 1.379 . S
H1255 C1249 0.959 . S
H1256 C1249 0.961 . S
H1257 C1249 0.960 . S
H1258 C1250 0.930 . S
H1259 C1251 0.929 . S
H1260 C1268 0.929 . S
H1261 C1270 0.930 . S
H1262 C1272 0.930 . S
H1263 C1275 0.929 . S
H1264 C1278 0.930 . S
H1265 C1280 0.960 . S
H1266 C1280 0.960 . S
H1267 C1280 0.960 1_554 S
C1268 H1260 0.929 . S
C1268 C1269 1.377 . S
C1268 C1270 1.384 . S
C1269 C1268 1.377 . S
C1269 C1275 1.390 . S
C1270 H1261 0.930 . S
C1270 C1268 1.384 . S
C1270 C1271 1.372 . S
C1271 C1270 1.372 . S
C1271 C1272 1.400 . S
C1271 C1276 1.490 1_554 S
C1272 H1262 0.930 . S
C1272 C1271 1.400 . S
C1272 C1275 1.386 . S
H1273 C1289 0.930 . S
H1274 C1290 0.931 . S
C1275 H1263 0.929 . S
C1275 C1269 1.390 . S
C1275 C1272 1.386 . S
C1276 C1271 1.490 1_556 S
C1276 C1278 1.395 . S
C1276 C1279 1.403 . S
H1277 C1283 0.930 . S
C1278 H1264 0.930 . S
C1278 C1276 1.395 . S
C1278 C1281 1.403 . S
C1279 C1276 1.403 . S
C1279 C1280 1.524 . S
C1279 C1283 1.400 . S
C1280 H1265 0.960 . S
C1280 H1266 0.960 . S
C1280 H1267 0.960 1_556 S
C1280 C1279 1.524 . S
C1281 C1278 1.403 . S
C1281 C1282 1.392 . S
C1281 C1285 1.495 . S
C1282 C1281 1.392 . S
C1282 C1283 1.385 . S
C1282 C1284 1.478 . S
C1283 H1277 0.930 . S
C1283 C1279 1.400 . S
C1283 C1282 1.385 . S
C1284 C1282 1.478 . S
C1284 C1286 1.381 . S
C1284 C1290 1.383 . S
C1285 C1281 1.495 . S
C1285 H1291 0.959 . S
C1285 H1292 0.961 . S
C1285 H1293 0.960 . S
C1286 C1284 1.381 . S
C1286 C1287 1.394 . S
C1286 H1294 0.930 . S
C1287 C1286 1.394 . S
C1287 C1288 1.383 . S
C1287 H1295 0.929 . S
C1288 C1287 1.383 . S
C1288 C1289 1.377 . S
C1289 H1273 0.930 . S
C1289 C1288 1.377 . S
C1289 C1290 1.379 . S
C1290 H1274 0.931 . S
C1290 C1284 1.383 . S
C1290 C1289 1.379 . S
H1291 C1285 0.959 . S
H1292 C1285 0.961 . S
H1293 C1285 0.960 . S
H1294 C1286 0.930 . S
H1295 C1287 0.929 . S
H1296 C1304 0.929 . S
H1297 C1306 0.930 . S
H1298 C1308 0.930 . S
H1299 C1311 0.929 . S
H1300 C1314 0.930 . S
H1301 C1316 0.960 . S
H1302 C1316 0.960 . S
H1303 C1316 0.960 . S
C1304 H1296 0.929 . S
C1304 C1305 1.377 1_554 S
C1304 C1306 1.384 . S
C1305 C1304 1.377 1_556 S
C1305 C1311 1.390 1_556 S
C1306 H1297 0.930 . S
C1306 C1304 1.384 . S
C1306 C1307 1.372 . S
C1307 C1306 1.372 . S
C1307 C1308 1.400 . S
C1307 C1312 1.490 . S
C1308 H1298 0.930 . S
C1308 C1307 1.400 . S
C1308 C1311 1.386 . S
H1309 C1325 0.930 . S
H1310 C1326 0.931 . S
C1311 H1299 0.929 . S
C1311 C1305 1.390 1_554 S
C1311 C1308 1.386 . S
C1312 C1307 1.490 . S
C1312 C1314 1.395 . S
C1312 C1315 1.403 . S
H1313 C1319 0.930 . S
C1314 H1300 0.930 . S
C1314 C1312 1.395 . S
C1314 C1317 1.403 . S
C1315 C1312 1.403 . S
C1315 C1316 1.524 . S
C1315 C1319 1.400 . S
C1316 H1301 0.960 . S
C1316 H1302 0.960 . S
C1316 H1303 0.960 . S
C1316 C1315 1.524 . S
C1317 C1314 1.403 . S
C1317 C1318 1.392 . S
C1317 C1321 1.495 . S
C1318 C1317 1.392 . S
C1318 C1319 1.385 . S
C1318 C1320 1.478 . S
C1319 H1313 0.930 . S
C1319 C1315 1.400 . S
C1319 C1318 1.385 . S
C1320 C1318 1.478 . S
C1320 C1322 1.381 . S
C1320 C1326 1.383 . S
C1321 C1317 1.495 . S
C1321 H1327 0.959 . S
C1321 H1328 0.961 . S
C1321 H1329 0.960 . S
C1322 C1320 1.381 . S
C1322 C1323 1.394 . S
C1322 H1330 0.930 . S
C1323 C1322 1.394 . S
C1323 C1324 1.383 . S
C1323 H1331 0.929 . S
C1324 C1323 1.383 . S
C1324 C1325 1.377 . S
C1325 H1309 0.930 . S
C1325 C1324 1.377 . S
C1325 C1326 1.379 . S
C1326 H1310 0.931 . S
C1326 C1320 1.383 . S
C1326 C1325 1.379 . S
H1327 C1321 0.959 . S
H1328 C1321 0.961 . S
H1329 C1321 0.960 . S
H1330 C1322 0.930 . S
H1331 C1323 0.929 . S
H1332 C1340 0.929 . S
H1333 C1342 0.930 . S
H1334 C1344 0.930 . S
H1335 C1347 0.929 . S
H1336 C1350 0.930 . S
H1337 C1352 0.960 . S
H1338 C1352 0.960 . S
H1339 C1352 0.960 . S
C1340 H1332 0.929 . S
C1340 C1341 1.377 . S
C1340 C1342 1.384 . S
C1341 C1340 1.377 . S
C1341 C1347 1.390 . S
C1342 H1333 0.930 . S
C1342 C1340 1.384 . S
C1342 C1343 1.372 . S
C1343 C1342 1.372 . S
C1343 C1344 1.400 . S
C1343 C1348 1.490 . S
C1344 H1334 0.930 . S
C1344 C1343 1.400 . S
C1344 C1347 1.386 . S
H1345 C1361 0.930 . S
H1346 C1362 0.931 . S
C1347 H1335 0.929 . S
C1347 C1341 1.390 . S
C1347 C1344 1.386 . S
C1348 C1343 1.490 . S
C1348 C1350 1.395 . S
C1348 C1351 1.403 . S
H1349 C1355 0.930 . S
C1350 H1336 0.930 . S
C1350 C1348 1.395 . S
C1350 C1353 1.403 . S
C1351 C1348 1.403 . S
C1351 C1352 1.524 . S
C1351 C1355 1.400 . S
C1352 H1337 0.960 . S
C1352 H1338 0.960 . S
C1352 H1339 0.960 . S
C1352 C1351 1.524 . S
C1353 C1350 1.403 . S
C1353 C1354 1.392 . S
C1353 C1357 1.495 . S
C1354 C1353 1.392 . S
C1354 C1355 1.385 . S
C1354 C1356 1.478 . S
C1355 H1349 0.930 . S
C1355 C1351 1.400 . S
C1355 C1354 1.385 . S
C1356 C1354 1.478 . S
C1356 C1358 1.381 . S
C1356 C1362 1.383 . S
C1357 C1353 1.495 . S
C1357 H1363 0.959 . S
C1357 H1364 0.961 . S
C1357 H1365 0.960 . S
C1358 C1356 1.381 . S
C1358 C1359 1.394 . S
C1358 H1366 0.930 . S
C1359 C1358 1.394 . S
C1359 C1360 1.383 . S
C1359 H1367 0.929 . S
C1360 C1359 1.383 . S
C1360 C1361 1.377 . S
C1361 H1345 0.930 . S
C1361 C1360 1.377 . S
C1361 C1362 1.379 . S
C1362 H1346 0.931 . S
C1362 C1356 1.383 . S
C1362 C1361 1.379 . S
H1363 C1357 0.959 . S
H1364 C1357 0.961 . S
H1365 C1357 0.960 . S
H1366 C1358 0.930 . S
H1367 C1359 0.929 . S
H1368 C1376 0.929 . S
H1369 C1378 0.930 . S
H1370 C1380 0.930 . S
H1371 C1383 0.929 . S
H1372 C1386 0.930 . S
H1373 C1388 0.960 . S
H1374 C1388 0.960 . S
H1375 C1388 0.960 . S
C1376 H1368 0.929 . S
C1376 C1377 1.377 . S
C1376 C1378 1.384 . S
C1377 C1376 1.377 . S
C1377 C1383 1.390 . S
C1378 H1369 0.930 . S
C1378 C1376 1.384 . S
C1378 C1379 1.372 . S
C1379 C1378 1.372 . S
C1379 C1380 1.400 . S
C1379 C1384 1.490 . S
C1380 H1370 0.930 . S
C1380 C1379 1.400 . S
C1380 C1383 1.386 . S
H1381 C1397 0.930 . S
H1382 C1398 0.931 . S
C1383 H1371 0.929 . S
C1383 C1377 1.390 . S
C1383 C1380 1.386 . S
C1384 C1379 1.490 . S
C1384 C1386 1.395 . S
C1384 C1387 1.403 . S
H1385 C1391 0.930 . S
C1386 H1372 0.930 . S
C1386 C1384 1.395 . S
C1386 C1389 1.403 . S
C1387 C1384 1.403 . S
C1387 C1388 1.524 . S
C1387 C1391 1.400 . S
C1388 H1373 0.960 . S
C1388 H1374 0.960 . S
C1388 H1375 0.960 . S
C1388 C1387 1.524 . S
C1389 C1386 1.403 . S
C1389 C1390 1.392 . S
C1389 C1393 1.495 . S
C1390 C1389 1.392 . S
C1390 C1391 1.385 . S
C1390 C1392 1.478 1_556 S
C1391 H1385 0.930 . S
C1391 C1387 1.400 . S
C1391 C1390 1.385 . S
C1392 C1390 1.478 1_554 S
C1392 C1394 1.381 . S
C1392 C1398 1.383 . S
C1393 C1389 1.495 . S
C1393 H1399 0.959 . S
C1393 H1400 0.961 . S
C1393 H1401 0.968 . S
C1394 C1392 1.381 . S
C1394 C1395 1.394 . S
C1394 H1402 0.930 . S
C1395 C1394 1.394 . S
C1395 C1396 1.383 . S
C1395 H1403 0.929 . S
C1396 C1395 1.383 . S
C1396 C1397 1.377 . S
C1397 H1381 0.930 . S
C1397 C1396 1.377 . S
C1397 C1398 1.379 . S
C1398 H1382 0.931 . S
C1398 C1392 1.383 . S
C1398 C1397 1.379 . S
H1399 C1393 0.959 . S
H1400 C1393 0.961 . S
H1401 C1393 0.968 . S
H1402 C1394 0.930 . S
H1403 C1395 0.929 . S
H1404 C1412 0.929 . S
H1405 C1414 0.930 . S
H1406 C1416 0.930 . S
H1407 C1419 0.929 . S
H1408 C1422 0.930 . S
H1409 C1424 0.960 . S
H1410 C1424 0.960 . S
H1411 C1424 0.960 . S
C1412 H1404 0.929 . S
C1412 C1413 1.377 . S
C1412 C1414 1.384 . S
C1413 C1412 1.377 . S
C1413 C1419 1.390 . S
C1414 H1405 0.930 . S
C1414 C1412 1.384 . S
C1414 C1415 1.372 . S
C1415 C1414 1.372 . S
C1415 C1416 1.400 . S
C1415 C1420 1.490 . S
C1416 H1406 0.930 . S
C1416 C1415 1.400 . S
C1416 C1419 1.386 . S
H1417 C1433 0.925 1_556 S
H1418 C1434 0.931 . S
C1419 H1407 0.929 . S
C1419 C1413 1.390 . S
C1419 C1416 1.386 . S
C1420 C1415 1.490 . S
C1420 C1422 1.395 . S
C1420 C1423 1.403 . S
H1421 C1427 0.930 . S
C1422 H1408 0.930 . S
C1422 C1420 1.395 . S
C1422 C1425 1.403 . S
C1423 C1420 1.403 . S
C1423 C1424 1.524 . S
C1423 C1427 1.400 . S
C1424 H1409 0.960 . S
C1424 H1410 0.960 . S
C1424 H1411 0.960 . S
C1424 C1423 1.524 . S
C1425 C1422 1.403 . S
C1425 C1426 1.392 . S
C1425 C1429 1.495 . S
C1426 C1425 1.392 . S
C1426 C1427 1.385 . S
C1426 C1428 1.478 . S
C1427 H1421 0.930 . S
C1427 C1423 1.400 . S
C1427 C1426 1.385 . S
C1428 C1426 1.478 . S
C1428 C1430 1.381 . S
C1428 C1434 1.383 . S
C1429 C1425 1.495 . S
C1429 H1435 0.959 . S
C1429 H1436 0.961 . S
C1429 H1437 0.960 . S
C1430 C1428 1.381 . S
C1430 C1431 1.394 . S
C1430 H1438 0.930 . S
C1431 C1430 1.394 . S
C1431 C1432 1.383 1_554 S
C1431 H1439 0.929 . S
C1432 C1431 1.383 1_556 S
C1432 C1433 1.377 1_556 S
C1433 H1417 0.925 1_554 S
C1433 C1432 1.377 1_554 S
C1433 C1434 1.379 . S
C1434 H1418 0.931 . S
C1434 C1428 1.383 . S
C1434 C1433 1.379 . S
H1435 C1429 0.959 . S
H1436 C1429 0.961 . S
H1437 C1429 0.960 . S
H1438 C1430 0.930 . S
H1439 C1431 0.929 . S
H1440 C1448 0.929 . S
H1441 C1450 0.930 . S
H1442 C1452 0.930 . S
H1443 C1455 0.929 . S
H1444 C1458 0.930 . S
H1445 C1460 0.960 . S
H1446 C1460 0.960 . S
H1447 C1460 0.960 . S
C1448 H1440 0.929 . S
C1448 C1449 1.377 . S
C1448 C1450 1.384 . S
C1449 C1448 1.377 . S
C1449 C1455 1.390 . S
C1450 H1441 0.930 . S
C1450 C1448 1.384 . S
C1450 C1451 1.372 . S
C1451 C1450 1.372 . S
C1451 C1452 1.400 . S
C1451 C1456 1.490 . S
C1452 H1442 0.930 . S
C1452 C1451 1.400 . S
C1452 C1455 1.386 . S
H1453 C1469 0.930 . S
H1454 C1470 0.931 . S
C1455 H1443 0.929 . S
C1455 C1449 1.390 . S
C1455 C1452 1.386 . S
C1456 C1451 1.490 . S
C1456 C1458 1.395 . S
C1456 C1459 1.403 . S
H1457 C1463 0.930 . S
C1458 H1444 0.930 . S
C1458 C1456 1.395 . S
C1458 C1461 1.403 . S
C1459 C1456 1.403 . S
C1459 C1460 1.524 . S
C1459 C1463 1.400 . S
C1460 H1445 0.960 . S
C1460 H1446 0.960 . S
C1460 H1447 0.960 . S
C1460 C1459 1.524 . S
C1461 C1458 1.403 . S
C1461 C1462 1.392 . S
C1461 C1465 1.495 . S
C1462 C1461 1.392 . S
C1462 C1463 1.385 . S
C1462 C1464 1.478 . S
C1463 H1457 0.930 . S
C1463 C1459 1.400 . S
C1463 C1462 1.385 . S
C1464 C1462 1.478 . S
C1464 C1466 1.381 . S
C1464 C1470 1.383 . S
C1465 C1461 1.495 . S
C1465 H1471 0.959 . S
C1465 H1472 0.961 . S
C1465 H1473 0.960 . S
C1466 C1464 1.381 . S
C1466 C1467 1.394 . S
C1466 H1474 0.930 . S
C1467 C1466 1.394 . S
C1467 C1468 1.383 . S
C1467 H1475 0.929 . S
C1468 C1467 1.383 . S
C1468 C1469 1.377 . S
C1469 H1453 0.930 . S
C1469 C1468 1.377 . S
C1469 C1470 1.379 . S
C1470 H1454 0.931 . S
C1470 C1464 1.383 . S
C1470 C1469 1.379 . S
H1471 C1465 0.959 . S
H1472 C1465 0.961 . S
H1473 C1465 0.960 . S
H1474 C1466 0.930 . S
H1475 C1467 0.929 . S
C405 C18 1.258 . S
C424 C348 1.231 . S
C441 C381 1.265 . S
C460 C51 1.276 . S
C477 C216 1.260 . S
C496 C84 1.285 . S
C513 C249 1.263 . S
C532 C117 1.231 . S
C549 C150 1.259 . S
C568 C282 1.287 . S
C585 C315 1.261 . S
C604 C183 1.227 . S
C621 C219 1.599 . S
C640 C21 1.589 . S
C657 C252 1.598 . S
C676 C54 1.589 . S
C693 C87 1.601 . S
C712 C285 1.604 . S
C729 C120 1.601 . S
C748 C318 1.593 . S
C765 C351 1.600 . S
C784 C153 1.604 . S
C801 C384 1.601 . S
C820 C186 1.596 . S
C837 C7 1.249 . S
C856 C304 1.257 . S
C873 C337 1.255 . S
C892 C40 1.225 . S
C909 C370 1.246 . S
C928 C73 1.272 . S
C945 C205 1.253 . S
C964 C106 1.227 . S
C981 C139 1.253 . S
C1000 C238 1.246 . S
C1017 C172 1.248 . S
C1036 C271 1.258 . S
C1053 N2 0.887 . S
C1072 N13 0.886 . S
C1089 N46 0.887 . S
C1108 N35 0.893 . S
C1125 N68 0.881 . S
C1144 N79 0.897 . S
C1161 N112 0.879 . S
C1180 N101 0.882 . S
C1197 N145 0.884 . S
C1216 N134 0.867 . S
C1233 N178 0.884 . S
C1252 N167 0.867 . S
C1269 N200 0.882 . S
C1288 N211 0.861 . S
C1305 N244 0.879 . S
C1324 N233 0.866 . S
C1341 N277 0.887 . S
C1360 N266 0.894 . S
C1377 N310 0.879 . S
C1396 N299 0.874 . S
C1413 N332 0.887 . S
C1432 N343 0.897 . S
C1449 N376 0.879 . S
C1468 N365 0.863 . S
