# Generated by pormake.
# Topology yft, (5)-cn, num edge types: 1
# Building blocks:
#     Node 0, Type 0, BuildingBlock: BEQFEK_clean_sbu_0, # of connection points: 5
#     Node 1, Type 0, BuildingBlock: BEQFEK_clean_sbu_0, # of connection points: 5
#     Node 2, Type 0, BuildingBlock: BEQFEK_clean_sbu_0, # of connection points: 5
#     Node 3, Type 0, BuildingBlock: BEQFEK_clean_sbu_0, # of connection points: 5
#     Node 4, Type 0, BuildingBlock: BEQFEK_clean_sbu_0, # of connection points: 5
#     Node 5, Type 0, BuildingBlock: BEQFEK_clean_sbu_0, # of connection points: 5
#     Node 6, Type 0, BuildingBlock: BEQFEK_clean_sbu_0, # of connection points: 5
#     Node 7, Type 0, BuildingBlock: BEQFEK_clean_sbu_0, # of connection points: 5
#     Node 8, Type 0, BuildingBlock: BEQFEK_clean_sbu_0, # of connection points: 5
#     Node 9, Type 0, BuildingBlock: BEQFEK_clean_sbu_0, # of connection points: 5
#     Node 10, Type 0, BuildingBlock: BEQFEK_clean_sbu_0, # of connection points: 5
#     Node 11, Type 0, BuildingBlock: BEQFEK_clean_sbu_0, # of connection points: 5
#     Node 12, Type 0, BuildingBlock: BEQFEK_clean_sbu_0, # of connection points: 5
#     Node 13, Type 0, BuildingBlock: BEQFEK_clean_sbu_0, # of connection points: 5
#     Node 14, Type 0, BuildingBlock: BEQFEK_clean_sbu_0, # of connection points: 5
#     Node 15, Type 0, BuildingBlock: BEQFEK_clean_sbu_0, # of connection points: 5
#     Node 16, Type 0, BuildingBlock: BEQFEK_clean_sbu_0, # of connection points: 5
#     Node 17, Type 0, BuildingBlock: BEQFEK_clean_sbu_0, # of connection points: 5
#     Node 18, Type 0, BuildingBlock: BEQFEK_clean_sbu_0, # of connection points: 5
#     Node 19, Type 0, BuildingBlock: BEQFEK_clean_sbu_0, # of connection points: 5
#     Node 20, Type 0, BuildingBlock: BEQFEK_clean_sbu_0, # of connection points: 5
#     Node 21, Type 0, BuildingBlock: BEQFEK_clean_sbu_0, # of connection points: 5
#     Node 22, Type 0, BuildingBlock: BEQFEK_clean_sbu_0, # of connection points: 5
#     Node 23, Type 0, BuildingBlock: BEQFEK_clean_sbu_0, # of connection points: 5
#     Node 24, Type 0, BuildingBlock: BEQFEK_clean_sbu_0, # of connection points: 5
#     Node 25, Type 0, BuildingBlock: BEQFEK_clean_sbu_0, # of connection points: 5
#     Node 26, Type 0, BuildingBlock: BEQFEK_clean_sbu_0, # of connection points: 5
#     Node 27, Type 0, BuildingBlock: BEQFEK_clean_sbu_0, # of connection points: 5
#     Node 28, Type 0, BuildingBlock: BEQFEK_clean_sbu_0, # of connection points: 5
#     Node 29, Type 0, BuildingBlock: BEQFEK_clean_sbu_0, # of connection points: 5
#     Node 30, Type 0, BuildingBlock: BEQFEK_clean_sbu_0, # of connection points: 5
#     Node 31, Type 0, BuildingBlock: BEQFEK_clean_sbu_0, # of connection points: 5
#     Edge 32, Type (0, 0), BuildingBlock: XIVTED_clean_linker_0, # of connection points: 2
#     Edge 33, Type (0, 0), BuildingBlock: XIVTED_clean_linker_0, # of connection points: 2
#     Edge 34, Type (0, 0), BuildingBlock: XIVTED_clean_linker_0, # of connection points: 2
#     Edge 35, Type (0, 0), BuildingBlock: XIVTED_clean_linker_0, # of connection points: 2
#     Edge 36, Type (0, 0), BuildingBlock: XIVTED_clean_linker_0, # of connection points: 2
#     Edge 37, Type (0, 0), BuildingBlock: XIVTED_clean_linker_0, # of connection points: 2
#     Edge 38, Type (0, 0), BuildingBlock: XIVTED_clean_linker_0, # of connection points: 2
#     Edge 39, Type (0, 0), BuildingBlock: XIVTED_clean_linker_0, # of connection points: 2
#     Edge 40, Type (0, 0), BuildingBlock: XIVTED_clean_linker_0, # of connection points: 2
#     Edge 41, Type (0, 0), BuildingBlock: XIVTED_clean_linker_0, # of connection points: 2
#     Edge 42, Type (0, 0), BuildingBlock: XIVTED_clean_linker_0, # of connection points: 2
#     Edge 43, Type (0, 0), BuildingBlock: XIVTED_clean_linker_0, # of connection points: 2
#     Edge 44, Type (0, 0), BuildingBlock: XIVTED_clean_linker_0, # of connection points: 2
#     Edge 45, Type (0, 0), BuildingBlock: XIVTED_clean_linker_0, # of connection points: 2
#     Edge 46, Type (0, 0), BuildingBlock: XIVTED_clean_linker_0, # of connection points: 2
#     Edge 47, Type (0, 0), BuildingBlock: XIVTED_clean_linker_0, # of connection points: 2
#     Edge 48, Type (0, 0), BuildingBlock: XIVTED_clean_linker_0, # of connection points: 2
#     Edge 49, Type (0, 0), BuildingBlock: XIVTED_clean_linker_0, # of connection points: 2
#     Edge 50, Type (0, 0), BuildingBlock: XIVTED_clean_linker_0, # of connection points: 2
#     Edge 51, Type (0, 0), BuildingBlock: XIVTED_clean_linker_0, # of connection points: 2
#     Edge 52, Type (0, 0), BuildingBlock: XIVTED_clean_linker_0, # of connection points: 2
#     Edge 53, Type (0, 0), BuildingBlock: XIVTED_clean_linker_0, # of connection points: 2
#     Edge 54, Type (0, 0), BuildingBlock: XIVTED_clean_linker_0, # of connection points: 2
#     Edge 55, Type (0, 0), BuildingBlock: XIVTED_clean_linker_0, # of connection points: 2
#     Edge 56, Type (0, 0), BuildingBlock: XIVTED_clean_linker_0, # of connection points: 2
#     Edge 57, Type (0, 0), BuildingBlock: XIVTED_clean_linker_0, # of connection points: 2
#     Edge 58, Type (0, 0), BuildingBlock: XIVTED_clean_linker_0, # of connection points: 2
#     Edge 59, Type (0, 0), BuildingBlock: XIVTED_clean_linker_0, # of connection points: 2
#     Edge 60, Type (0, 0), BuildingBlock: XIVTED_clean_linker_0, # of connection points: 2
#     Edge 61, Type (0, 0), BuildingBlock: XIVTED_clean_linker_0, # of connection points: 2
#     Edge 62, Type (0, 0), BuildingBlock: XIVTED_clean_linker_0, # of connection points: 2
#     Edge 63, Type (0, 0), BuildingBlock: XIVTED_clean_linker_0, # of connection points: 2
#     Edge 64, Type (0, 0), BuildingBlock: XIVTED_clean_linker_0, # of connection points: 2
#     Edge 65, Type (0, 0), BuildingBlock: XIVTED_clean_linker_0, # of connection points: 2
#     Edge 66, Type (0, 0), BuildingBlock: XIVTED_clean_linker_0, # of connection points: 2
#     Edge 67, Type (0, 0), BuildingBlock: XIVTED_clean_linker_0, # of connection points: 2
#     Edge 68, Type (0, 0), BuildingBlock: XIVTED_clean_linker_0, # of connection points: 2
#     Edge 69, Type (0, 0), BuildingBlock: XIVTED_clean_linker_0, # of connection points: 2
#     Edge 70, Type (0, 0), BuildingBlock: XIVTED_clean_linker_0, # of connection points: 2
#     Edge 71, Type (0, 0), BuildingBlock: XIVTED_clean_linker_0, # of connection points: 2
#     Edge 72, Type (0, 0), BuildingBlock: XIVTED_clean_linker_0, # of connection points: 2
#     Edge 73, Type (0, 0), BuildingBlock: XIVTED_clean_linker_0, # of connection points: 2
#     Edge 74, Type (0, 0), BuildingBlock: XIVTED_clean_linker_0, # of connection points: 2
#     Edge 75, Type (0, 0), BuildingBlock: XIVTED_clean_linker_0, # of connection points: 2
#     Edge 76, Type (0, 0), BuildingBlock: XIVTED_clean_linker_0, # of connection points: 2
#     Edge 77, Type (0, 0), BuildingBlock: XIVTED_clean_linker_0, # of connection points: 2
#     Edge 78, Type (0, 0), BuildingBlock: XIVTED_clean_linker_0, # of connection points: 2
#     Edge 79, Type (0, 0), BuildingBlock: XIVTED_clean_linker_0, # of connection points: 2
#     Edge 80, Type (0, 0), BuildingBlock: XIVTED_clean_linker_0, # of connection points: 2
#     Edge 81, Type (0, 0), BuildingBlock: XIVTED_clean_linker_0, # of connection points: 2
#     Edge 82, Type (0, 0), BuildingBlock: XIVTED_clean_linker_0, # of connection points: 2
#     Edge 83, Type (0, 0), BuildingBlock: XIVTED_clean_linker_0, # of connection points: 2
#     Edge 84, Type (0, 0), BuildingBlock: XIVTED_clean_linker_0, # of connection points: 2
#     Edge 85, Type (0, 0), BuildingBlock: XIVTED_clean_linker_0, # of connection points: 2
#     Edge 86, Type (0, 0), BuildingBlock: XIVTED_clean_linker_0, # of connection points: 2
#     Edge 87, Type (0, 0), BuildingBlock: XIVTED_clean_linker_0, # of connection points: 2
#     Edge 88, Type (0, 0), BuildingBlock: XIVTED_clean_linker_0, # of connection points: 2
#     Edge 89, Type (0, 0), BuildingBlock: XIVTED_clean_linker_0, # of connection points: 2
#     Edge 90, Type (0, 0), BuildingBlock: XIVTED_clean_linker_0, # of connection points: 2
#     Edge 91, Type (0, 0), BuildingBlock: XIVTED_clean_linker_0, # of connection points: 2
#     Edge 92, Type (0, 0), BuildingBlock: XIVTED_clean_linker_0, # of connection points: 2
#     Edge 93, Type (0, 0), BuildingBlock: XIVTED_clean_linker_0, # of connection points: 2
#     Edge 94, Type (0, 0), BuildingBlock: XIVTED_clean_linker_0, # of connection points: 2
#     Edge 95, Type (0, 0), BuildingBlock: XIVTED_clean_linker_0, # of connection points: 2
#     Edge 96, Type (0, 0), BuildingBlock: XIVTED_clean_linker_0, # of connection points: 2
#     Edge 97, Type (0, 0), BuildingBlock: XIVTED_clean_linker_0, # of connection points: 2
#     Edge 98, Type (0, 0), BuildingBlock: XIVTED_clean_linker_0, # of connection points: 2
#     Edge 99, Type (0, 0), BuildingBlock: XIVTED_clean_linker_0, # of connection points: 2
#     Edge 100, Type (0, 0), BuildingBlock: XIVTED_clean_linker_0, # of connection points: 2
#     Edge 101, Type (0, 0), BuildingBlock: XIVTED_clean_linker_0, # of connection points: 2
#     Edge 102, Type (0, 0), BuildingBlock: XIVTED_clean_linker_0, # of connection points: 2
#     Edge 103, Type (0, 0), BuildingBlock: XIVTED_clean_linker_0, # of connection points: 2
#     Edge 104, Type (0, 0), BuildingBlock: XIVTED_clean_linker_0, # of connection points: 2
#     Edge 105, Type (0, 0), BuildingBlock: XIVTED_clean_linker_0, # of connection points: 2
#     Edge 106, Type (0, 0), BuildingBlock: XIVTED_clean_linker_0, # of connection points: 2
#     Edge 107, Type (0, 0), BuildingBlock: XIVTED_clean_linker_0, # of connection points: 2
#     Edge 108, Type (0, 0), BuildingBlock: XIVTED_clean_linker_0, # of connection points: 2
#     Edge 109, Type (0, 0), BuildingBlock: XIVTED_clean_linker_0, # of connection points: 2
#     Edge 110, Type (0, 0), BuildingBlock: XIVTED_clean_linker_0, # of connection points: 2
#     Edge 111, Type (0, 0), BuildingBlock: XIVTED_clean_linker_0, # of connection points: 2
# Relax obj value: 0.344
# Max RMSD: 0.209
# Mean RMSD: 0.209
data_MOF--net-yft--node1-BEQFEK_clean_sbu_0--edge1-XIVTED_clean_linker_0
_symmetry_space_group_name_H-M    P1
_symmetry_Int_Tables_number       1
_symmetry_cell_setting            triclinic
loop_
_symmetry_equiv_pos_as_xyz
'x, y, z'
_cell_length_a     49.145598
_cell_length_b     49.134642
_cell_length_c     80.78619
_cell_angle_alpha  90.021777
_cell_angle_beta   90.004596
_cell_angle_gamma 90.00176
loop_
_atom_site_label
_atom_site_type_symbol
_atom_site_fract_x
_atom_site_fract_y
_atom_site_fract_z
_atom_type_partial_charge
Co0 Co 0.36757 0.18527 0.18179 0.0
Co1 Co 0.31773 0.16322 0.16155 0.0
C2 C 0.37289 0.13767 0.15907 0.0
O3 O 0.38296 0.15406 0.16962 0.0
O4 O 0.348 0.13905 0.1548 0.0
C5 C 0.41574 0.18744 0.2026 0.0
O6 O 0.41772 0.16115 0.1999 0.0
C7 C 0.27485 0.12572 0.14933 0.0
C8 C 0.2462 0.15541 0.13845 0.0
C9 C 0.25035 0.12777 0.14072 0.0
N10 N 0.28449 0.15102 0.15192 0.0
N11 N 0.26718 0.1686 0.14544 0.0
C12 C 0.28957 0.1004 0.15438 0.0
H13 H 0.31107 0.10478 0.15741 0.0
H14 H 0.27982 0.09193 0.16564 0.0
H15 H 0.28854 0.08492 0.14438 0.0
C16 C 0.32768 0.18448 0.20831 0.0
N17 N 0.33575 0.17587 0.1933 0.0
N18 N 0.31456 0.16701 0.18493 0.0
C19 C 0.29223 0.16974 0.19443 0.0
C20 C 0.29966 0.18142 0.20945 0.0
C21 C 0.34542 0.20123 0.21944 0.0
H22 H 0.35135 0.22021 0.21294 0.0
H23 H 0.36423 0.18969 0.2223 0.0
H24 H 0.33514 0.20659 0.2312 0.0
O25 O 0.35903 0.21516 0.16626 0.0
O26 O 0.32428 0.19932 0.15162 0.0
H27 H 0.25923 0.18173 0.17882 0.0
H28 H 0.24878 0.16749 0.19845 0.0
C29 C 0.26379 0.16594 0.18823 0.0
H30 H 0.2619 0.14567 0.18231 0.0
H31 H 0.26989 0.18965 0.14559 0.0
O32 O 0.39576 0.2005 0.19658 0.0
C33 C 0.34131 0.21801 0.15491 0.0
Co34 Co 0.05162 0.11406 0.4301 0.0
Co35 Co 0.07586 0.06526 0.40995 0.0
C36 C 0.10036 0.12093 0.4084 0.0
O37 O 0.08296 0.13033 0.41858 0.0
O38 O 0.09999 0.09608 0.40392 0.0
C39 C 0.04739 0.16215 0.45074 0.0
O40 O 0.07363 0.16488 0.44814 0.0
C41 C 0.11626 0.02535 0.39866 0.0
C42 C 0.08982 0.99199 0.38981 0.0
C43 C 0.11678 -0.00048 0.39175 0.0
N44 N 0.09014 0.03271 0.4007 0.0
N45 N 0.07445 0.0128 0.39524 0.0
C46 C 0.13993 0.04207 0.40432 0.0
H47 H 0.14668 0.05533 0.39399 0.0
H48 H 0.13384 0.05527 0.41485 0.0
H49 H 0.15719 0.02886 0.40804 0.0
C50 C 0.0536 0.07436 0.45674 0.0
N51 N 0.06157 0.08254 0.44164 0.0
N52 N 0.07121 0.06164 0.43331 0.0
C53 C 0.06964 0.03935 0.44297 0.0
C54 C 0.05804 0.04654 0.45805 0.0
C55 C 0.03651 0.09162 0.46796 0.0
H56 H 0.01727 0.09699 0.46155 0.0
H57 H 0.04752 0.11078 0.47074 0.0
H58 H 0.0316 0.08123 0.47975 0.0
O59 O 0.02275 0.10467 0.4141 0.0
O60 O 0.04001 0.07075 0.3993 0.0
H61 H 0.05922 0.00524 0.42784 0.0
H62 H 0.0745 -0.00376 0.44743 0.0
C63 C 0.07495 0.011 0.43704 0.0
H64 H 0.09515 0.01008 0.43097 0.0
H65 H 0.05323 0.01327 0.39546 0.0
O66 O 0.03501 0.14171 0.44474 0.0
C67 C 0.02073 0.08716 0.40257 0.0
Co68 Co 0.12715 0.80349 0.68267 0.0
Co69 Co 0.17675 0.8275 0.6629 0.0
C70 C 0.12111 0.85179 0.66052 0.0
O71 O 0.11139 0.83461 0.67071 0.0
O72 O 0.14611 0.85147 0.65642 0.0
C73 C 0.0786 0.80045 0.70292 0.0
O74 O 0.07696 0.82685 0.70053 0.0
C75 C 0.21678 0.86543 0.64806 0.0
C76 C 0.25036 0.83692 0.64243 0.0
C77 C 0.24259 0.86391 0.64103 0.0
N78 N 0.20992 0.84046 0.6535 0.0
N79 N 0.23005 0.82357 0.65004 0.0
C80 C 0.1975 0.88903 0.64792 0.0
H81 H 0.17879 0.88316 0.64114 0.0
H82 H 0.19155 0.89405 0.66081 0.0
H83 H 0.20615 0.9072 0.64177 0.0
C84 C 0.16625 0.80531 0.7096 0.0
N85 N 0.1585 0.81341 0.69444 0.0
N86 N 0.17964 0.8231 0.68635 0.0
C87 C 0.20161 0.82154 0.6963 0.0
C88 C 0.19401 0.80972 0.71123 0.0
C89 C 0.14868 0.7881 0.72056 0.0
H90 H 0.14335 0.769 0.71397 0.0
H91 H 0.12953 0.79916 0.72326 0.0
H92 H 0.15881 0.78295 0.7324 0.0
O93 O 0.13655 0.77437 0.66686 0.0
O94 O 0.17081 0.79168 0.6524 0.0
H95 H 0.23721 0.81024 0.6828 0.0
H96 H 0.24402 0.82872 0.70161 0.0
C97 C 0.23013 0.82713 0.69082 0.0
H98 H 0.23084 0.84635 0.68365 0.0
H99 H 0.22968 0.80276 0.65258 0.0
O100 O 0.09875 0.78745 0.69705 0.0
C101 C 0.15426 0.77244 0.65544 0.0
Co102 Co 0.43857 0.87625 0.93136 0.0
Co103 Co 0.41473 0.92504 0.91085 0.0
C104 C 0.39048 0.86938 0.90907 0.0
O105 O 0.40757 0.85996 0.91941 0.0
O106 O 0.39088 0.89425 0.90468 0.0
C107 C 0.441 0.82879 0.95251 0.0
O108 O 0.4146 0.82736 0.95012 0.0
C109 C 0.37684 0.96517 0.89607 0.0
C110 C 0.40576 -0.00214 0.88937 0.0
C111 C 0.37853 0.99071 0.88871 0.0
N112 N 0.40196 0.95788 0.901 0.0
N113 N 0.41909 0.97747 0.8969 0.0
C114 C 0.35264 0.94671 0.89698 0.0
H115 H 0.35787 0.92674 0.89147 0.0
H116 H 0.34723 0.94326 0.91015 0.0
H117 H 0.33487 0.95492 0.89019 0.0
C118 C 0.43629 0.91649 0.95774 0.0
N119 N 0.42845 0.90806 0.94266 0.0
N120 N 0.41865 0.92878 0.93424 0.0
C121 C 0.41979 0.95115 0.94387 0.0
C122 C 0.43151 0.94427 0.95895 0.0
C123 C 0.45357 0.89955 0.96902 0.0
H124 H 0.4726 0.89381 0.9625 0.0
H125 H 0.44251 0.88055 0.97213 0.0
H126 H 0.45881 0.91033 0.98063 0.0
O127 O 0.46801 0.88511 0.91563 0.0
O128 O 0.45076 0.91885 0.90071 0.0
H129 H 0.43053 0.98619 0.92967 0.0
H130 H 0.41234 0.99377 0.94849 0.0
C131 C 0.41388 0.97937 0.93794 0.0
H132 H 0.39452 0.97958 0.93089 0.0
H133 H 0.44001 0.97674 0.89906 0.0
O134 O 0.45427 0.84845 0.94627 0.0
C135 C 0.47003 0.9025 0.90403 0.0
Co136 Co 0.36512 0.80107 0.30729 0.0
Co137 Co 0.32026 0.82984 0.32874 0.0
C138 C 0.37783 0.84739 0.33054 0.0
O139 O 0.38421 0.82888 0.32025 0.0
O140 O 0.35319 0.8512 0.33485 0.0
C141 C 0.41162 0.7977 0.28587 0.0
O142 O 0.41298 0.82412 0.28826 0.0
C143 C 0.28073 0.86938 0.34323 0.0
C144 C 0.2504 0.84041 0.3531 0.0
C145 C 0.25639 0.86789 0.35204 0.0
N146 N 0.28854 0.84387 0.33936 0.0
N147 N 0.27023 0.82677 0.34527 0.0
C148 C 0.29699 0.89426 0.33923 0.0
H149 H 0.31836 0.8889 0.3364 0.0
H150 H 0.28817 0.9042 0.32813 0.0
H151 H 0.29634 0.90891 0.34968 0.0
C152 C 0.32477 0.80829 0.2816 0.0
N153 N 0.33451 0.81526 0.29653 0.0
N154 N 0.31508 0.82659 0.30537 0.0
C155 C 0.29215 0.82702 0.29623 0.0
C156 C 0.29735 0.81502 0.28096 0.0
C157 C 0.33973 0.78965 0.27007 0.0
H158 H 0.34371 0.77003 0.27643 0.0
H159 H 0.35964 0.79886 0.26687 0.0
H160 H 0.32828 0.78569 0.25851 0.0
O161 O 0.35374 0.77164 0.32225 0.0
O162 O 0.3244 0.79309 0.33852 0.0
H163 H 0.25832 0.81836 0.31199 0.0
H164 H 0.24931 0.83533 0.29292 0.0
C165 C 0.26469 0.83413 0.30296 0.0
H166 H 0.26572 0.85398 0.30945 0.0
H167 H 0.27142 0.80566 0.34411 0.0
O168 O 0.39186 0.78448 0.29203 0.0
C169 C 0.3376 0.77182 0.33454 0.0
Co170 Co 0.43379 0.11721 0.55839 0.0
Co171 Co 0.4124 0.06633 0.57781 0.0
C172 C 0.38573 0.12099 0.58078 0.0
O173 O 0.40225 0.13166 0.57053 0.0
O174 O 0.38732 0.09594 0.58473 0.0
C175 C 0.43714 0.16727 0.53931 0.0
O176 O 0.41128 0.17052 0.54291 0.0
C177 C 0.37421 0.02421 0.58912 0.0
C178 C 0.4025 0.99179 0.59709 0.0
C179 C 0.37515 -0.00181 0.59576 0.0
N180 N 0.39986 0.03274 0.58664 0.0
N181 N 0.41667 0.01335 0.59155 0.0
C182 C 0.34957 0.04021 0.58431 0.0
H183 H 0.34313 0.05294 0.59496 0.0
H184 H 0.35441 0.05392 0.57379 0.0
H185 H 0.33253 0.02648 0.5809 0.0
C186 C 0.43312 0.07887 0.5311 0.0
N187 N 0.42479 0.08592 0.54633 0.0
N188 N 0.41665 0.06408 0.55434 0.0
C189 C 0.41978 0.0423 0.54436 0.0
C190 C 0.43092 0.05088 0.52942 0.0
C191 C 0.44787 0.09777 0.51967 0.0
H192 H 0.46771 0.10347 0.52524 0.0
H193 H 0.43574 0.1166 0.51799 0.0
H194 H 0.45143 0.08821 0.50741 0.0
O195 O 0.46343 0.10822 0.57398 0.0
O196 O 0.44817 0.07277 0.58823 0.0
H197 H 0.43466 0.00948 0.55913 0.0
H198 H 0.4196 -0.00116 0.53982 0.0
C199 C 0.41795 0.01347 0.55023 0.0
H200 H 0.39825 0.01023 0.5566 0.0
H201 H 0.43782 0.01478 0.591 0.0
O202 O 0.44939 0.14596 0.54415 0.0
C203 C 0.46656 0.09023 0.58514 0.0
Co204 Co 0.12505 0.18729 0.81142 0.0
Co205 Co 0.17564 0.16413 0.8303 0.0
C206 C 0.12065 0.13899 0.83377 0.0
O207 O 0.11027 0.15599 0.82371 0.0
O208 O 0.14581 0.13967 0.8375 0.0
C209 C 0.07589 0.18986 0.79165 0.0
O210 O 0.07398 0.16358 0.79438 0.0
C211 C 0.21746 0.12531 0.84103 0.0
C212 C 0.25062 0.1531 0.84855 0.0
C213 C 0.24376 0.12585 0.84724 0.0
N214 N 0.20921 0.1511 0.83876 0.0
N215 N 0.22902 0.1676 0.84341 0.0
C216 C 0.20099 0.10093 0.83629 0.0
H217 H 0.18867 0.09441 0.8471 0.0
H218 H 0.18688 0.10612 0.82603 0.0
H219 H 0.21437 0.08381 0.83254 0.0
C220 C 0.16287 0.18601 0.78382 0.0
N221 N 0.15582 0.1777 0.79907 0.0
N222 N 0.17739 0.16833 0.80684 0.0
C223 C 0.19897 0.17035 0.79663 0.0
C224 C 0.19064 0.18213 0.78183 0.0
C225 C 0.14468 0.20307 0.77315 0.0
H226 H 0.13935 0.22205 0.77985 0.0
H227 H 0.12558 0.19177 0.77066 0.0
H228 H 0.15432 0.20842 0.76119 0.0
O229 O 0.13496 0.21669 0.82697 0.0
O230 O 0.17013 0.19995 0.84086 0.0
H231 H 0.234 0.18164 0.81071 0.0
H232 H 0.24176 0.16601 0.79104 0.0
C233 C 0.22779 0.16558 0.80184 0.0
H234 H 0.22947 0.14553 0.80804 0.0
H235 H 0.22789 0.18878 0.84288 0.0
O236 O 0.09614 0.2029 0.79735 0.0
C237 C 0.15323 0.21897 0.83803 0.0
Co238 Co 0.05396 0.87617 0.06125 0.0
Co239 Co 0.07613 0.92653 0.08084 0.0
C240 C 0.10254 0.87198 0.08346 0.0
O241 O 0.08569 0.8616 0.07329 0.0
O242 O 0.10136 0.897 0.0875 0.0
C243 C 0.05173 0.82695 0.04144 0.0
O244 O 0.07787 0.82479 0.04456 0.0
C245 C 0.11371 0.96893 0.09248 0.0
C246 C 0.08488 0.00102 0.10027 0.0
C247 C 0.11232 0.99494 0.0991 0.0
N248 N 0.08821 0.96009 0.08987 0.0
N249 N 0.07108 0.97926 0.09469 0.0
C250 C 0.13862 0.95331 0.08773 0.0
H251 H 0.13405 0.93947 0.07722 0.0
H252 H 0.15545 0.9673 0.08432 0.0
H253 H 0.14524 0.94075 0.09841 0.0
C254 C 0.05396 0.91525 0.03426 0.0
N255 N 0.06263 0.90773 0.04935 0.0
N256 N 0.07161 0.92919 0.05742 0.0
C257 C 0.069 0.95115 0.04757 0.0
C258 C 0.05724 0.94318 0.03268 0.0
C259 C 0.03721 0.89711 0.02337 0.0
H260 H 0.01836 0.8912 0.03003 0.0
H261 H 0.04883 0.8783 0.02064 0.0
H262 H 0.03161 0.90706 0.01154 0.0
O263 O 0.02449 0.88473 0.077 0.0
O264 O 0.04057 0.91968 0.09139 0.0
H265 H 0.05719 0.98554 0.06207 0.0
H266 H 0.07288 0.99417 0.04256 0.0
C267 C 0.0734 0.97984 0.05317 0.0
H268 H 0.09337 0.98154 0.05947 0.0
H269 H 0.04996 0.97758 0.09397 0.0
O270 O 0.03872 0.84744 0.04684 0.0
C271 C 0.02191 0.90248 0.08836 0.0
Co272 Co 0.62627 0.80222 0.81062 0.0
Co273 Co 0.67608 0.82615 0.82995 0.0
C274 C 0.62101 0.85143 0.83224 0.0
O275 O 0.61104 0.834 0.82229 0.0
O276 O 0.64603 0.85094 0.83633 0.0
C277 C 0.57754 0.79892 0.7905 0.0
O278 O 0.57544 0.82524 0.79308 0.0
C279 C 0.71751 0.86505 0.84127 0.0
C280 C 0.75032 0.8372 0.84926 0.0
C281 C 0.74353 0.86445 0.84789 0.0
N282 N 0.70933 0.83927 0.83883 0.0
N283 N 0.72892 0.82273 0.84377 0.0
C284 C 0.70125 0.88946 0.83635 0.0
H285 H 0.68844 0.89587 0.84697 0.0
H286 H 0.68763 0.88437 0.82583 0.0
H287 H 0.7148 0.90663 0.8329 0.0
C288 C 0.6653 0.80246 0.7836 0.0
N289 N 0.65762 0.81127 0.79863 0.0
N290 N 0.67886 0.82098 0.8066 0.0
C291 C 0.70084 0.81871 0.79673 0.0
C292 C 0.69312 0.80645 0.78195 0.0
C293 C 0.64755 0.78503 0.77287 0.0
H294 H 0.64187 0.76632 0.77974 0.0
H295 H 0.62858 0.79625 0.76993 0.0
H296 H 0.65768 0.77918 0.76115 0.0
O297 O 0.63546 0.77341 0.8267 0.0
O298 O 0.66999 0.79078 0.84091 0.0
H299 H 0.73559 0.80814 0.81126 0.0
H300 H 0.74372 0.82362 0.79161 0.0
C301 C 0.72942 0.824 0.80225 0.0
H302 H 0.73061 0.84415 0.80838 0.0
H303 H 0.72779 0.80156 0.84322 0.0
O304 O 0.59783 0.78612 0.79635 0.0
C305 C 0.65324 0.77163 0.8381 0.0
Co306 Co 0.93737 0.87509 0.5607 0.0
Co307 Co 0.91527 0.92508 0.58078 0.0
C308 C 0.88839 0.87077 0.58263 0.0
O309 O 0.90544 0.86054 0.57253 0.0
O310 O 0.88958 0.8957 0.5869 0.0
C311 C 0.93988 0.82552 0.54116 0.0
O312 O 0.914 0.82272 0.54486 0.0
C313 C 0.87847 0.96889 0.59167 0.0
C314 C 0.90769 -0.00297 0.6035 0.0
C315 C 0.88028 0.99361 0.60002 0.0
N316 N 0.90363 0.95838 0.59039 0.0
N317 N 0.92096 0.97525 0.59753 0.0
C318 C 0.85389 0.95609 0.58402 0.0
H319 H 0.86002 0.94204 0.57392 0.0
H320 H 0.83995 0.97191 0.57911 0.0
H321 H 0.84295 0.9441 0.59357 0.0
C322 C 0.93756 0.915 0.53414 0.0
N323 N 0.92893 0.90713 0.54916 0.0
N324 N 0.92023 0.92845 0.55749 0.0
C325 C 0.92319 0.95072 0.54794 0.0
C326 C 0.93461 0.94302 0.5329 0.0
C327 C 0.9539 0.89695 0.52297 0.0
H328 H 0.97291 0.89086 0.5294 0.0
H329 H 0.94212 0.87821 0.52027 0.0
H330 H 0.95921 0.90704 0.51115 0.0
O331 O 0.96687 0.88296 0.57662 0.0
O332 O 0.95059 0.91741 0.59135 0.0
H333 H 0.93464 0.98357 0.56383 0.0
H334 H 0.92178 0.99423 0.54387 0.0
C335 C 0.91943 0.97923 0.55404 0.0
H336 H 0.89884 0.9814 0.55948 0.0
H337 H 0.94188 0.97193 0.59827 0.0
O338 O 0.95258 0.84655 0.54605 0.0
C339 C 0.96929 0.90032 0.58821 0.0
Co340 Co 0.86168 0.19038 0.31309 0.0
Co341 Co 0.81138 0.16689 0.33215 0.0
C342 C 0.86618 0.14125 0.33491 0.0
O343 O 0.87632 0.15868 0.32504 0.0
O344 O 0.8411 0.1418 0.33888 0.0
C345 C 0.90973 0.19123 0.29249 0.0
O346 O 0.91011 0.16478 0.29487 0.0
C347 C 0.76923 0.1289 0.34381 0.0
C348 C 0.73638 0.15747 0.35073 0.0
C349 C 0.74299 0.1301 0.3501 0.0
N350 N 0.77769 0.15444 0.34086 0.0
N351 N 0.75805 0.17141 0.34514 0.0
C352 C 0.78548 0.10406 0.33972 0.0
H353 H 0.79931 0.10828 0.32916 0.0
H354 H 0.77194 0.08669 0.33666 0.0
H355 H 0.79808 0.09847 0.35059 0.0
C356 C 0.82341 0.18933 0.28566 0.0
N357 N 0.83059 0.18116 0.30091 0.0
N358 N 0.80914 0.17161 0.30873 0.0
C359 C 0.78749 0.17338 0.29854 0.0
C360 C 0.7957 0.18505 0.28368 0.0
C361 C 0.84147 0.20636 0.27489 0.0
H362 H 0.84764 0.22494 0.28175 0.0
H363 H 0.86015 0.19469 0.2719 0.0
H364 H 0.83141 0.21243 0.26318 0.0
O365 O 0.85238 0.21975 0.32885 0.0
O366 O 0.81757 0.20251 0.34285 0.0
H367 H 0.75208 0.18439 0.31232 0.0
H368 H 0.7449 0.16781 0.29287 0.0
C369 C 0.75876 0.16811 0.30372 0.0
H370 H 0.75748 0.14829 0.31022 0.0
H371 H 0.75936 0.19253 0.34411 0.0
O372 O 0.89065 0.2053 0.29875 0.0
C373 C 0.83433 0.22168 0.34008 0.0
Co374 Co 0.55345 0.11543 0.06044 0.0
Co375 Co 0.57771 0.06459 0.07853 0.0
C376 C 0.60241 0.11961 0.08244 0.0
O377 O 0.58487 0.13005 0.07274 0.0
O378 O 0.60232 0.09427 0.08576 0.0
C379 C 0.55057 0.16474 0.04082 0.0
O380 O 0.57707 0.166 0.04284 0.0
C381 C 0.61632 0.02231 0.0891 0.0
C382 C 0.58818 0.98893 0.09575 0.0
C383 C 0.61547 -0.00424 0.09491 0.0
N384 N 0.59064 0.03071 0.08659 0.0
N385 N 0.57393 0.01077 0.09073 0.0
C386 C 0.64091 0.03893 0.08504 0.0
H387 H 0.63626 0.05328 0.07481 0.0
H388 H 0.65826 0.02567 0.08153 0.0
H389 H 0.64677 0.051 0.09609 0.0
C390 C 0.55415 0.07826 0.03246 0.0
N391 N 0.56288 0.08503 0.04767 0.0
N392 N 0.57281 0.06338 0.0551 0.0
C393 C 0.57083 0.04206 0.04467 0.0
C394 C 0.55844 0.05062 0.03011 0.0
C395 C 0.53646 0.09646 0.02218 0.0
H396 H 0.51784 0.1017 0.02928 0.0
H397 H 0.54756 0.11562 0.01954 0.0
H398 H 0.5305 0.08689 0.0103 0.0
O399 O 0.52448 0.10498 0.0761 0.0
O400 O 0.54223 0.06984 0.08954 0.0
H401 H 0.5604 0.00612 0.05812 0.0
H402 H 0.57643 -0.00032 0.03842 0.0
C403 C 0.57639 0.01318 0.04944 0.0
H404 H 0.59641 0.01178 0.0557 0.0
H405 H 0.55278 0.01198 0.08995 0.0
O406 O 0.53749 0.14476 0.04683 0.0
C407 C 0.52289 0.08651 0.08708 0.0
Co408 Co 0.62632 0.18944 0.67797 0.0
Co409 Co 0.67534 0.16731 0.65718 0.0
C410 C 0.62036 0.14188 0.65504 0.0
O411 O 0.61078 0.15864 0.66554 0.0
O412 O 0.64522 0.14267 0.65062 0.0
C413 C 0.57929 0.18928 0.6995 0.0
O414 O 0.57894 0.16291 0.69681 0.0
C415 C 0.71803 0.12988 0.6456 0.0
C416 C 0.7464 0.15865 0.63359 0.0
C417 C 0.74252 0.13127 0.63698 0.0
N418 N 0.70811 0.15525 0.64713 0.0
N419 N 0.7251 0.17231 0.63987 0.0
C420 C 0.70496 0.10551 0.65331 0.0
H421 H 0.69124 0.11184 0.66354 0.0
H422 H 0.72062 0.09126 0.65809 0.0
H423 H 0.69258 0.09481 0.64384 0.0
C424 C 0.66652 0.18699 0.70433 0.0
N425 N 0.65824 0.17943 0.68917 0.0
N426 N 0.67923 0.17073 0.68055 0.0
C427 C 0.7017 0.17268 0.69002 0.0
C428 C 0.69448 0.18335 0.70536 0.0
C429 C 0.64903 0.20315 0.71593 0.0
H430 H 0.64259 0.22225 0.70974 0.0
H431 H 0.63047 0.19128 0.71889 0.0
H432 H 0.65966 0.20828 0.72761 0.0
O433 O 0.63468 0.21989 0.66276 0.0
O434 O 0.66853 0.20354 0.64756 0.0
H435 H 0.73427 0.18435 0.67399 0.0
H436 H 0.7453 0.17075 0.6937 0.0
C437 C 0.73003 0.16887 0.68364 0.0
H438 H 0.73187 0.14844 0.67793 0.0
H439 H 0.7222 0.19332 0.63927 0.0
O440 O 0.59813 0.20361 0.69318 0.0
C441 C 0.65204 0.22255 0.65118 0.0
Co442 Co 0.56213 0.87046 0.43435 0.0
Co443 Co 0.57959 0.92259 0.41459 0.0
C444 C 0.60996 0.86899 0.41246 0.0
O445 O 0.59548 0.85772 0.42356 0.0
O446 O 0.60545 0.89334 0.40777 0.0
C447 C 0.55919 0.82038 0.45356 0.0
O448 O 0.58509 0.81725 0.45003 0.0
C449 C 0.61546 0.96713 0.40283 0.0
C450 C 0.58492 0.99454 0.39164 0.0
C451 C 0.61267 0.99145 0.39411 0.0
N452 N 0.5905 0.95654 0.40526 0.0
N453 N 0.5724 0.97314 0.39862 0.0
C454 C 0.64121 0.95335 0.40804 0.0
H455 H 0.63747 0.93188 0.41144 0.0
H456 H 0.64949 0.96382 0.41912 0.0
H457 H 0.65657 0.95438 0.39799 0.0
C458 C 0.55841 0.91015 0.46104 0.0
N459 N 0.56765 0.90309 0.44601 0.0
N460 N 0.57487 0.92513 0.43787 0.0
C461 C 0.5702 0.94701 0.44751 0.0
C462 C 0.55918 0.93826 0.46243 0.0
C463 C 0.54469 0.89077 0.47264 0.0
H464 H 0.52526 0.88377 0.46708 0.0
H465 H 0.55786 0.87271 0.47455 0.0
H466 H 0.54047 0.90047 0.48479 0.0
O467 O 0.534 0.87563 0.41713 0.0
O468 O 0.54418 0.91429 0.40437 0.0
H469 H 0.55457 0.97805 0.43163 0.0
H470 H 0.5669 0.99061 0.45125 0.0
C471 C 0.57056 0.97565 0.44121 0.0
H472 H 0.59056 0.97997 0.43543 0.0
H473 H 0.55147 0.96958 0.39857 0.0
O474 O 0.54688 0.84165 0.44869 0.0
C475 C 0.52869 0.89388 0.40644 0.0
Co476 Co 0.86357 0.80211 0.18198 0.0
Co477 Co 0.81474 0.82575 0.16154 0.0
C478 C 0.87034 0.85015 0.1597 0.0
O479 O 0.87979 0.8331 0.17006 0.0
O480 O 0.84547 0.84967 0.15531 0.0
C481 C 0.91067 0.80013 0.20337 0.0
O482 O 0.91162 0.82661 0.2012 0.0
C483 C 0.77508 0.86393 0.14684 0.0
C484 C 0.74203 0.83548 0.14003 0.0
C485 C 0.74959 0.86261 0.13941 0.0
N486 N 0.78198 0.8387 0.15175 0.0
N487 N 0.76218 0.82184 0.1476 0.0
C488 C 0.79403 0.88776 0.1477 0.0
H489 H 0.81306 0.88271 0.14101 0.0
H490 H 0.79944 0.89176 0.16081 0.0
H491 H 0.78536 0.90631 0.142 0.0
C492 C 0.8235 0.80415 0.20839 0.0
N493 N 0.83184 0.81215 0.19333 0.0
N494 N 0.81104 0.82184 0.18493 0.0
C495 C 0.7887 0.82046 0.19456 0.0
C496 C 0.7957 0.80871 0.20962 0.0
C497 C 0.84059 0.78685 0.21958 0.0
H498 H 0.84657 0.768 0.21294 0.0
H499 H 0.85943 0.79807 0.22282 0.0
H500 H 0.82986 0.78125 0.23114 0.0
O501 O 0.85471 0.77261 0.16628 0.0
O502 O 0.82085 0.78969 0.15138 0.0
H503 H 0.75377 0.80949 0.18032 0.0
H504 H 0.74602 0.82749 0.1992 0.0
C505 C 0.76043 0.82615 0.18864 0.0
H506 H 0.76005 0.84556 0.18165 0.0
H507 H 0.76263 0.8009 0.14971 0.0
O508 O 0.89142 0.78659 0.19687 0.0
C509 C 0.83727 0.77047 0.15472 0.0
Co510 Co 0.93742 0.11561 0.9322 0.0
Co511 Co 0.91338 0.06666 0.91194 0.0
C512 C 0.88935 0.12247 0.90988 0.0
O513 O 0.90639 0.13191 0.92026 0.0
O514 O 0.88975 0.09757 0.90554 0.0
C515 C 0.94029 0.16323 0.95324 0.0
O516 O 0.91385 0.16476 0.95103 0.0
C517 C 0.87538 0.02476 0.89881 0.0
C518 C 0.9051 0.99543 0.88864 0.0
C519 C 0.87745 0.00031 0.89015 0.0
N520 N 0.9007 0.03371 0.90214 0.0
N521 N 0.91828 0.01598 0.89609 0.0
C522 C 0.85005 0.04008 0.90314 0.0
H523 H 0.85468 0.06147 0.9063 0.0
H524 H 0.84048 0.03052 0.91413 0.0
H525 H 0.83535 0.03938 0.89272 0.0
C526 C 0.93565 0.07546 0.95863 0.0
N527 N 0.92735 0.08389 0.94364 0.0
N528 N 0.91757 0.06309 0.93527 0.0
C529 C 0.91936 0.04065 0.94477 0.0
C530 C 0.9313 0.0476 0.95979 0.0
C531 C 0.95306 0.09252 0.96977 0.0
H532 H 0.97201 0.09819 0.96314 0.0
H533 H 0.94205 0.11155 0.97288 0.0
H534 H 0.95847 0.08186 0.98139 0.0
O535 O 0.96681 0.1066 0.91642 0.0
O536 O 0.94934 0.07268 0.90176 0.0
H537 H 0.92994 0.00682 0.92945 0.0
H538 H 0.91449 -0.00254 0.94893 0.0
C539 C 0.91411 0.0124 0.93863 0.0
H540 H 0.89398 0.0116 0.93245 0.0
H541 H 0.93936 0.01816 0.8968 0.0
O542 O 0.95336 0.14346 0.94696 0.0
C543 C 0.96868 0.08903 0.90491 0.0
Co544 Co 0.8661 0.68793 0.68124 0.0
Co545 Co 0.81693 0.66409 0.66097 0.0
C546 C 0.87269 0.64014 0.6586 0.0
O547 O 0.88213 0.65708 0.66905 0.0
O548 O 0.84777 0.64052 0.65428 0.0
C549 C 0.9142 0.69055 0.70193 0.0
O550 O 0.91592 0.6642 0.69936 0.0
C551 C 0.77451 0.6267 0.64759 0.0
C552 C 0.74478 0.65702 0.63858 0.0
C553 C 0.74962 0.62929 0.63946 0.0
N554 N 0.7837 0.65181 0.65127 0.0
N555 N 0.76575 0.66975 0.64588 0.0
C556 C 0.78997 0.60112 0.6511 0.0
H557 H 0.8116 0.60551 0.65373 0.0
H558 H 0.78118 0.59113 0.66219 0.0
H559 H 0.78845 0.58686 0.64048 0.0
C560 C 0.82625 0.68574 0.70778 0.0
N561 N 0.83453 0.67765 0.69272 0.0
N562 N 0.81368 0.66788 0.68439 0.0
C563 C 0.79137 0.66939 0.69403 0.0
C564 C 0.79843 0.68124 0.70906 0.0
C565 C 0.84337 0.70314 0.7189 0.0
H566 H 0.84888 0.72217 0.71231 0.0
H567 H 0.86247 0.69218 0.72188 0.0
H568 H 0.83283 0.7084 0.73059 0.0
O569 O 0.85686 0.71756 0.66572 0.0
O570 O 0.82289 0.70027 0.65102 0.0
H571 H 0.75704 0.68004 0.67915 0.0
H572 H 0.74839 0.66374 0.69848 0.0
C573 C 0.76308 0.66395 0.68804 0.0
H574 H 0.76241 0.64404 0.68161 0.0
H575 H 0.768 0.69077 0.647 0.0
O576 O 0.89418 0.70364 0.69598 0.0
C577 C 0.8392 0.71961 0.65428 0.0
Co578 Co 0.55296 0.61607 0.93233 0.0
Co579 Co 0.57769 0.56661 0.91281 0.0
C580 C 0.60235 0.622 0.91092 0.0
O581 O 0.58466 0.63175 0.92078 0.0
O582 O 0.60221 0.59699 0.90682 0.0
C583 C 0.54983 0.66407 0.95307 0.0
O584 O 0.57634 0.66537 0.95112 0.0
C585 C 0.6153 0.52616 0.89812 0.0
C586 C 0.58632 0.49311 0.89219 0.0
C587 C 0.61344 0.50046 0.89097 0.0
N588 N 0.59037 0.53337 0.90344 0.0
N589 N 0.5732 0.51355 0.89981 0.0
C590 C 0.63923 0.54503 0.89821 0.0
H591 H 0.63377 0.56397 0.89156 0.0
H592 H 0.6442 0.55063 0.91117 0.0
H593 H 0.65731 0.53615 0.89208 0.0
C594 C 0.5533 0.57651 0.95908 0.0
N595 N 0.56217 0.5845 0.94412 0.0
N596 N 0.57243 0.56351 0.93615 0.0
C597 C 0.57064 0.54145 0.94598 0.0
C598 C 0.55795 0.54878 0.96069 0.0
C599 C 0.53531 0.59381 0.96974 0.0
H600 H 0.51692 0.59969 0.96262 0.0
H601 H 0.54633 0.61272 0.97311 0.0
H602 H 0.52897 0.58327 0.98122 0.0
O603 O 0.52426 0.60701 0.91616 0.0
O604 O 0.54231 0.57292 0.90189 0.0
H605 H 0.56061 0.50552 0.9324 0.0
H606 H 0.57871 0.49923 0.9514 0.0
C607 C 0.57709 0.51305 0.94057 0.0
H608 H 0.59653 0.51279 0.93361 0.0
H609 H 0.55237 0.51425 0.90224 0.0
O610 O 0.53677 0.64437 0.9467 0.0
C611 C 0.5229 0.58938 0.90466 0.0
Co612 Co 0.62475 0.30303 0.18187 0.0
Co613 Co 0.67388 0.32586 0.16132 0.0
C614 C 0.6182 0.35049 0.1592 0.0
O615 O 0.60856 0.33393 0.1698 0.0
O616 O 0.64304 0.3495 0.15478 0.0
C617 C 0.5771 0.30005 0.20303 0.0
O618 O 0.57488 0.32638 0.20053 0.0
C619 C 0.71579 0.36411 0.14873 0.0
C620 C 0.74491 0.33486 0.13786 0.0
C621 C 0.74018 0.36244 0.14 0.0
N622 N 0.70674 0.33865 0.15152 0.0
N623 N 0.72433 0.32134 0.14505 0.0
C624 C 0.70064 0.38922 0.15372 0.0
H625 H 0.67924 0.38448 0.15681 0.0
H626 H 0.7103 0.39799 0.16492 0.0
H627 H 0.70133 0.40459 0.14366 0.0
C628 C 0.66473 0.30576 0.20838 0.0
N629 N 0.6565 0.31325 0.1932 0.0
N630 N 0.67745 0.32231 0.18469 0.0
C631 C 0.69983 0.32073 0.19426 0.0
C632 C 0.69263 0.30982 0.20952 0.0
C633 C 0.64737 0.28934 0.21989 0.0
H634 H 0.64174 0.2699 0.21379 0.0
H635 H 0.62836 0.30069 0.22255 0.0
H636 H 0.65779 0.28482 0.23174 0.0
O637 O 0.6336 0.27327 0.1663 0.0
O638 O 0.66783 0.28963 0.15144 0.0
H639 H 0.73317 0.30928 0.17877 0.0
H640 H 0.7432 0.32434 0.19828 0.0
C641 C 0.72816 0.32518 0.18804 0.0
H642 H 0.72947 0.34532 0.18191 0.0
H643 H 0.72208 0.30024 0.14533 0.0
O644 O 0.59708 0.28726 0.1968 0.0
C645 C 0.65116 0.27067 0.15484 0.0
Co646 Co 0.93292 0.37436 0.43299 0.0
Co647 Co 0.91429 0.42606 0.41321 0.0
C648 C 0.88429 0.37229 0.41167 0.0
O649 O 0.89941 0.3612 0.42251 0.0
O650 O 0.88829 0.3967 0.40694 0.0
C651 C 0.93555 0.3248 0.4525 0.0
O652 O 0.90947 0.32233 0.44926 0.0
C653 C 0.87724 0.46732 0.3993 0.0
C654 C 0.90636 0.49964 0.39227 0.0
C655 C 0.87902 0.49284 0.39192 0.0
N656 N 0.90241 0.45969 0.40391 0.0
N657 N 0.91968 0.47907 0.39965 0.0
C658 C 0.85308 0.4488 0.4001 0.0
H659 H 0.85681 0.43097 0.39199 0.0
H660 H 0.8506 0.44116 0.41294 0.0
H661 H 0.83408 0.45867 0.39589 0.0
C662 C 0.93664 0.4142 0.45965 0.0
N663 N 0.92744 0.40703 0.44461 0.0
N664 N 0.91957 0.42889 0.43651 0.0
C665 C 0.92352 0.45077 0.44627 0.0
C666 C 0.93489 0.44228 0.46115 0.0
C667 C 0.95205 0.39519 0.47071 0.0
H668 H 0.97067 0.38815 0.46422 0.0
H669 H 0.93929 0.3771 0.47337 0.0
H670 H 0.95796 0.40489 0.48255 0.0
O671 O 0.96056 0.3797 0.41554 0.0
O672 O 0.94952 0.41794 0.40255 0.0
H673 H 0.93727 0.48477 0.43211 0.0
H674 H 0.92089 0.49384 0.45131 0.0
C675 C 0.92039 0.47959 0.44065 0.0
H676 H 0.90084 0.48202 0.43396 0.0
H677 H 0.94067 0.47796 0.40146 0.0
O678 O 0.94832 0.34559 0.44732 0.0
C679 C 0.96534 0.39776 0.40464 0.0
Co680 Co 0.86274 0.30258 0.80971 0.0
Co681 Co 0.81257 0.32609 0.82886 0.0
C682 C 0.86766 0.3516 0.8314 0.0
O683 O 0.87781 0.33435 0.8214 0.0
O684 O 0.84261 0.35088 0.83543 0.0
C685 C 0.91168 0.29918 0.78984 0.0
O686 O 0.91373 0.32552 0.79235 0.0
C687 C 0.77133 0.36529 0.83996 0.0
C688 C 0.73798 0.33782 0.84759 0.0
C689 C 0.74517 0.36499 0.8464 0.0
N690 N 0.7792 0.33943 0.83748 0.0
N691 N 0.75927 0.32311 0.84217 0.0
C692 C 0.78804 0.38953 0.83529 0.0
H693 H 0.80095 0.39543 0.84598 0.0
H694 H 0.80159 0.38445 0.82474 0.0
H695 H 0.77483 0.40703 0.83198 0.0
C696 C 0.82444 0.30359 0.7823 0.0
N697 N 0.83163 0.31169 0.79757 0.0
N698 N 0.81014 0.321 0.80546 0.0
C699 C 0.78844 0.31903 0.79533 0.0
C700 C 0.79667 0.30758 0.78041 0.0
C701 C 0.84261 0.28689 0.77141 0.0
H702 H 0.84815 0.2678 0.77793 0.0
H703 H 0.86161 0.29837 0.76894 0.0
H704 H 0.83288 0.28171 0.75944 0.0
O705 O 0.85341 0.2738 0.82578 0.0
O706 O 0.81854 0.29072 0.83989 0.0
H707 H 0.75348 0.30787 0.80949 0.0
H708 H 0.74563 0.32363 0.78988 0.0
C709 C 0.75969 0.32394 0.80063 0.0
H710 H 0.75818 0.34395 0.8069 0.0
H711 H 0.76013 0.30193 0.84154 0.0
O712 O 0.89132 0.28641 0.79562 0.0
C713 C 0.83554 0.27176 0.8371 0.0
Co714 Co 0.93858 0.61418 0.06185 0.0
Co715 Co 0.91474 0.56425 0.08111 0.0
C716 C 0.88929 0.61923 0.08344 0.0
O717 O 0.90676 0.62926 0.07353 0.0
O718 O 0.8898 0.59419 0.08751 0.0
C719 C 0.94195 0.66296 0.04174 0.0
O720 O 0.91565 0.66517 0.04431 0.0
C721 C 0.87634 0.52221 0.09232 0.0
C722 C 0.90467 0.48954 0.09989 0.0
C723 C 0.87733 0.496 0.09866 0.0
N724 N 0.90198 0.53079 0.08989 0.0
N725 N 0.91881 0.51128 0.09458 0.0
C726 C 0.85167 0.53823 0.08758 0.0
H727 H 0.85653 0.55222 0.07721 0.0
H728 H 0.83471 0.52451 0.084 0.0
H729 H 0.84509 0.55065 0.09834 0.0
C730 C 0.93759 0.57543 0.03461 0.0
N731 N 0.92945 0.58291 0.04982 0.0
N732 N 0.91976 0.56163 0.05775 0.0
C733 C 0.92138 0.53981 0.04768 0.0
C734 C 0.93312 0.54771 0.0328 0.0
C735 C 0.95466 0.59324 0.02372 0.0
H736 H 0.97359 0.59889 0.03038 0.0
H737 H 0.94334 0.61224 0.02097 0.0
H738 H 0.96011 0.58317 0.0119 0.0
O739 O 0.96744 0.60505 0.07792 0.0
O740 O 0.95007 0.5705 0.09209 0.0
H741 H 0.93171 0.50459 0.06184 0.0
H742 H 0.9157 0.49712 0.04225 0.0
C743 C 0.91577 0.5112 0.053 0.0
H744 H 0.89574 0.51018 0.05927 0.0
H745 H 0.93996 0.51268 0.09394 0.0
O746 O 0.95467 0.64262 0.04759 0.0
C747 C 0.96921 0.58728 0.08931 0.0
Co748 Co 0.62571 0.68952 0.31232 0.0
Co749 Co 0.6754 0.6639 0.33101 0.0
C750 C 0.61995 0.6399 0.33369 0.0
O751 O 0.61036 0.65793 0.32402 0.0
O752 O 0.64503 0.6395 0.33766 0.0
C753 C 0.57796 0.69192 0.29145 0.0
O754 O 0.57764 0.66531 0.29302 0.0
C755 C 0.71712 0.62483 0.34214 0.0
C756 C 0.75048 0.65282 0.34905 0.0
C757 C 0.74353 0.62556 0.34821 0.0
N758 N 0.70892 0.65056 0.3395 0.0
N759 N 0.72886 0.66717 0.3438 0.0
C760 C 0.70048 0.6003 0.33797 0.0
H761 H 0.68822 0.59447 0.34895 0.0
H762 H 0.68632 0.60499 0.32765 0.0
H763 H 0.71375 0.5829 0.33455 0.0
C764 C 0.66385 0.68847 0.28489 0.0
N765 N 0.65641 0.67973 0.29997 0.0
N766 N 0.67757 0.66914 0.30761 0.0
C767 C 0.69924 0.67073 0.29743 0.0
C768 C 0.69142 0.68346 0.28283 0.0
C769 C 0.64637 0.70674 0.27452 0.0
H770 H 0.64059 0.72495 0.28185 0.0
H771 H 0.62744 0.69578 0.27115 0.0
H772 H 0.6567 0.7134 0.26303 0.0
O773 O 0.63604 0.71824 0.32825 0.0
O774 O 0.67037 0.69949 0.34196 0.0
H775 H 0.73511 0.68013 0.31122 0.0
H776 H 0.74157 0.6639 0.29159 0.0
C777 C 0.72782 0.66433 0.30249 0.0
H778 H 0.72847 0.64429 0.30876 0.0
H779 H 0.7278 0.68832 0.34296 0.0
O780 O 0.59691 0.70551 0.29825 0.0
C781 C 0.65428 0.7193 0.33941 0.0
Co782 Co 0.55578 0.37753 0.55903 0.0
Co783 Co 0.57502 0.42892 0.57875 0.0
C784 C 0.60463 0.37514 0.58029 0.0
O785 O 0.5892 0.36424 0.56952 0.0
O786 O 0.60104 0.39959 0.58509 0.0
C787 C 0.55218 0.32784 0.53952 0.0
O788 O 0.57816 0.3246 0.5428 0.0
C789 C 0.61287 0.47112 0.59002 0.0
C790 C 0.5846 0.50294 0.5989 0.0
C791 C 0.61195 0.49684 0.59708 0.0
N792 N 0.58722 0.46244 0.5878 0.0
N793 N 0.57042 0.48146 0.59322 0.0
C794 C 0.63745 0.45559 0.58455 0.0
H795 H 0.63228 0.44233 0.57387 0.0
H796 H 0.65421 0.46964 0.58111 0.0
H797 H 0.64446 0.44245 0.59487 0.0
C798 C 0.55219 0.41733 0.53241 0.0
N799 N 0.56158 0.41002 0.54738 0.0
N800 N 0.56964 0.43178 0.5555 0.0
C801 C 0.56557 0.45376 0.54585 0.0
C802 C 0.55397 0.44542 0.53101 0.0
C803 C 0.53647 0.39846 0.52141 0.0
H804 H 0.51781 0.39168 0.52796 0.0
H805 H 0.54899 0.38021 0.51872 0.0
H806 H 0.53058 0.40819 0.50957 0.0
O807 O 0.52812 0.38326 0.57642 0.0
O808 O 0.53986 0.42119 0.58951 0.0
H809 H 0.55255 0.48703 0.56092 0.0
H810 H 0.56673 0.49707 0.54122 0.0
C811 C 0.56859 0.48252 0.55166 0.0
H812 H 0.58872 0.48521 0.55762 0.0
H813 H 0.54926 0.47982 0.59296 0.0
O814 O 0.53998 0.34895 0.54473 0.0
C815 C 0.52366 0.40133 0.58737 0.0
Co816 Co 0.12525 0.29722 0.30805 0.0
Co817 Co 0.17154 0.32625 0.32798 0.0
C818 C 0.11469 0.34618 0.3296 0.0
O819 O 0.10739 0.32704 0.31997 0.0
O820 O 0.13953 0.34928 0.33371 0.0
C821 C 0.07837 0.293 0.28697 0.0
O822 O 0.07731 0.31957 0.28869 0.0
C823 C 0.2111 0.36724 0.3395 0.0
C824 C 0.24465 0.3406 0.34789 0.0
C825 C 0.23712 0.36759 0.34617 0.0
N826 N 0.2037 0.34115 0.33733 0.0
N827 N 0.22371 0.32537 0.34255 0.0
C828 C 0.19431 0.39104 0.33417 0.0
H829 H 0.18048 0.38507 0.32393 0.0
H830 H 0.20749 0.40818 0.3302 0.0
H831 H 0.18171 0.39795 0.34477 0.0
C832 C 0.16483 0.30111 0.28157 0.0
N833 N 0.15589 0.30926 0.29647 0.0
N834 N 0.17582 0.32102 0.30466 0.0
C835 C 0.19826 0.32072 0.29506 0.0
C836 C 0.1922 0.3077 0.28023 0.0
C837 C 0.14915 0.2819 0.27077 0.0
H838 H 0.14445 0.26312 0.27785 0.0
H839 H 0.12957 0.29151 0.26724 0.0
H840 H 0.16037 0.27634 0.25938 0.0
O841 O 0.13617 0.26908 0.32401 0.0
O842 O 0.1673 0.29047 0.33904 0.0
H843 H 0.23329 0.31341 0.31007 0.0
H844 H 0.2407 0.32931 0.29045 0.0
C845 C 0.22606 0.32856 0.30091 0.0
H846 H 0.22527 0.34881 0.30693 0.0
H847 H 0.22328 0.30415 0.34215 0.0
O848 O 0.0979 0.27994 0.29352 0.0
C849 C 0.15302 0.26948 0.33595 0.0
Co850 Co 0.43659 0.37699 0.06157 0.0
Co851 Co 0.41205 0.42683 0.08059 0.0
C852 C 0.38783 0.37142 0.08361 0.0
O853 O 0.40537 0.36156 0.07368 0.0
O854 O 0.38774 0.39661 0.08735 0.0
C855 C 0.43995 0.32853 0.04117 0.0
O856 O 0.41344 0.32704 0.04305 0.0
C857 C 0.37306 0.46849 0.09172 0.0
C858 C 0.401 0.50171 0.09896 0.0
C859 C 0.37374 0.49484 0.09788 0.0
N860 N 0.3988 0.46024 0.08923 0.0
N861 N 0.41539 0.48008 0.09373 0.0
C862 C 0.34857 0.45198 0.08729 0.0
H863 H 0.35343 0.4379 0.07695 0.0
H864 H 0.33129 0.46534 0.08379 0.0
H865 H 0.34247 0.43962 0.09817 0.0
C866 C 0.4357 0.41545 0.0343 0.0
N867 N 0.42693 0.4079 0.04936 0.0
N868 N 0.41687 0.42914 0.05717 0.0
C869 C 0.41876 0.45096 0.04714 0.0
C870 C 0.43129 0.44318 0.03245 0.0
C871 C 0.45359 0.39783 0.02377 0.0
H872 H 0.47219 0.3924 0.03083 0.0
H873 H 0.44264 0.37872 0.02077 0.0
H874 H 0.4596 0.40794 0.01207 0.0
O875 O 0.46548 0.38695 0.07736 0.0
O876 O 0.44765 0.42134 0.09148 0.0
H877 H 0.42881 0.48632 0.06126 0.0
H878 H 0.41287 0.49357 0.04163 0.0
C879 C 0.41294 0.47956 0.05241 0.0
H880 H 0.39287 0.48049 0.05863 0.0
H881 H 0.43655 0.47898 0.09302 0.0
O882 O 0.45282 0.34837 0.04752 0.0
C883 C 0.46707 0.40489 0.08867 0.0
Co884 Co 0.36506 0.68632 0.81029 0.0
Co885 Co 0.31557 0.66308 0.83048 0.0
C886 C 0.37127 0.63868 0.83289 0.0
O887 O 0.38098 0.65537 0.8224 0.0
O888 O 0.34634 0.63944 0.83714 0.0
C889 C 0.41352 0.68922 0.78997 0.0
O890 O 0.41582 0.66304 0.79295 0.0
C891 C 0.27338 0.62545 0.84383 0.0
C892 C 0.24309 0.65552 0.85247 0.0
C893 C 0.24831 0.62785 0.85174 0.0
N894 N 0.28234 0.65062 0.84008 0.0
N895 N 0.26406 0.6684 0.84527 0.0
C896 C 0.28925 0.59996 0.84071 0.0
H897 H 0.31104 0.60444 0.83879 0.0
H898 H 0.28143 0.59005 0.82933 0.0
H899 H 0.28695 0.58559 0.85122 0.0
C900 C 0.32544 0.68441 0.78364 0.0
N901 N 0.33347 0.67633 0.79876 0.0
N902 N 0.31239 0.66705 0.80706 0.0
C903 C 0.29016 0.66899 0.79738 0.0
C904 C 0.29755 0.68052 0.78232 0.0
C905 C 0.34297 0.70128 0.77247 0.0
H906 H 0.34842 0.72053 0.77886 0.0
H907 H 0.36206 0.69009 0.76979 0.0
H908 H 0.33275 0.70618 0.76062 0.0
O909 O 0.35605 0.71583 0.82596 0.0
O910 O 0.32174 0.69909 0.8406 0.0
H911 H 0.25605 0.68069 0.81215 0.0
H912 H 0.24706 0.66438 0.79287 0.0
C913 C 0.26171 0.66433 0.80334 0.0
H914 H 0.2605 0.64452 0.80985 0.0
H915 H 0.26609 0.68945 0.84408 0.0
O916 O 0.3931 0.70208 0.79559 0.0
C917 C 0.33842 0.71813 0.8374 0.0
Co918 Co 0.05633 0.61411 0.56025 0.0
Co919 Co 0.08001 0.56544 0.58099 0.0
C920 C 0.10369 0.62155 0.58293 0.0
O921 O 0.087 0.63079 0.57228 0.0
O922 O 0.10316 0.59673 0.58742 0.0
C923 C 0.05215 0.66269 0.54007 0.0
O924 O 0.07815 0.66586 0.54332 0.0
C925 C 0.11889 0.52436 0.59408 0.0
C926 C 0.08995 0.49496 0.60495 0.0
C927 C 0.11748 0.50018 0.60304 0.0
N928 N 0.09333 0.53286 0.59097 0.0
N929 N 0.07622 0.51507 0.59742 0.0
C930 C 0.14383 0.53989 0.58923 0.0
H931 H 0.13875 0.56104 0.58574 0.0
H932 H 0.15328 0.52996 0.57832 0.0
H933 H 0.15881 0.53993 0.59952 0.0
C934 C 0.05908 0.57372 0.53398 0.0
N935 N 0.06685 0.5823 0.54904 0.0
N936 N 0.07623 0.56157 0.55763 0.0
C937 C 0.07459 0.539 0.54822 0.0
C938 C 0.06327 0.54581 0.533 0.0
C939 C 0.04223 0.59073 0.5225 0.0
H940 H 0.02261 0.59572 0.52859 0.0
H941 H 0.05302 0.6101 0.51995 0.0
H942 H 0.03808 0.58026 0.51062 0.0
O943 O 0.02691 0.60501 0.57595 0.0
O944 O 0.04381 0.57122 0.59098 0.0
H945 H 0.06342 0.50582 0.5639 0.0
H946 H 0.07856 0.49559 0.54447 0.0
C947 C 0.07928 0.51081 0.55462 0.0
H948 H 0.09942 0.50978 0.56077 0.0
H949 H 0.05508 0.51693 0.59696 0.0
O950 O 0.03994 0.64163 0.54536 0.0
C951 C 0.02463 0.58762 0.58753 0.0
Co952 Co 0.12435 0.69064 0.18229 0.0
Co953 Co 0.17471 0.66625 0.16361 0.0
C954 C 0.11931 0.64147 0.16079 0.0
O955 O 0.10906 0.65896 0.17058 0.0
O956 O 0.14446 0.64189 0.15705 0.0
C957 C 0.07627 0.69342 0.20288 0.0
O958 O 0.07562 0.66681 0.20133 0.0
C959 C 0.21467 0.62735 0.15003 0.0
C960 C 0.24858 0.65515 0.14385 0.0
C961 C 0.24051 0.62819 0.14301 0.0
N962 N 0.20806 0.6527 0.15488 0.0
N963 N 0.2284 0.66917 0.15114 0.0
C964 C 0.19504 0.60405 0.15026 0.0
H965 H 0.17773 0.60887 0.14196 0.0
H966 H 0.18678 0.60152 0.16296 0.0
H967 H 0.20425 0.58476 0.14596 0.0
C968 C 0.16245 0.69033 0.20976 0.0
N969 N 0.15528 0.68139 0.19467 0.0
N970 N 0.17678 0.67155 0.18701 0.0
C971 C 0.19841 0.67388 0.19717 0.0
C972 C 0.1902 0.68635 0.21179 0.0
C973 C 0.14441 0.70794 0.22019 0.0
H974 H 0.13871 0.72641 0.21309 0.0
H975 H 0.1255 0.69665 0.22316 0.0
H976 H 0.1543 0.71419 0.23192 0.0
O977 O 0.13424 0.71934 0.16626 0.0
O978 O 0.16922 0.70171 0.15258 0.0
H979 H 0.2341 0.68507 0.18373 0.0
H980 H 0.24083 0.66787 0.20301 0.0
C981 C 0.22717 0.66854 0.19207 0.0
H982 H 0.22843 0.64892 0.18534 0.0
H983 H 0.2282 0.69013 0.15319 0.0
O984 O 0.09552 0.70674 0.19624 0.0
C985 C 0.15248 0.72098 0.15512 0.0
Co986 Co 0.05092 0.37574 0.92991 0.0
Co987 Co 0.07359 0.42587 0.91035 0.0
C988 C 0.09943 0.37106 0.90771 0.0
O989 O 0.08247 0.36083 0.91786 0.0
O990 O 0.09843 0.39608 0.90364 0.0
C991 C 0.04909 0.32758 0.95064 0.0
O992 O 0.07554 0.32642 0.94836 0.0
C993 C 0.11202 0.46766 0.89909 0.0
C994 C 0.08396 0.50028 0.89109 0.0
C995 C 0.11126 0.49373 0.89252 0.0
N996 N 0.08631 0.45925 0.90143 0.0
N997 N 0.06964 0.47873 0.89649 0.0
C998 C 0.13652 0.45164 0.90416 0.0
H999 H 0.13135 0.43785 0.91457 0.0
H1000 H 0.15343 0.46536 0.90782 0.0
H1001 H 0.14332 0.43902 0.89354 0.0
C1002 C 0.05229 0.41461 0.95708 0.0
N1003 N 0.06021 0.40711 0.94183 0.0
N1004 N 0.06944 0.42845 0.93377 0.0
C1005 C 0.06776 0.45033 0.94377 0.0
C1006 C 0.05642 0.44242 0.95877 0.0
C1007 C 0.03558 0.39672 0.96813 0.0
H1008 H 0.01667 0.39071 0.96156 0.0
H1009 H 0.0472 0.37793 0.97094 0.0
H1010 H 0.0301 0.40687 0.97991 0.0
O1011 O 0.0214 0.38476 0.91424 0.0
O1012 O 0.03779 0.41962 0.89992 0.0
H1013 H 0.05669 0.48507 0.92938 0.0
H1014 H 0.07254 0.49324 0.94893 0.0
C1015 C 0.07276 0.47897 0.93827 0.0
H1016 H 0.09276 0.48029 0.932 0.0
H1017 H 0.04847 0.47743 0.89702 0.0
O1018 O 0.03567 0.34711 0.94437 0.0
C1019 C 0.01893 0.40264 0.90296 0.0
Co1020 Co 0.36511 0.29642 0.68321 0.0
Co1021 Co 0.3187 0.32475 0.66297 0.0
C1022 C 0.3754 0.3451 0.66142 0.0
O1023 O 0.38289 0.32616 0.67114 0.0
O1024 O 0.35057 0.34783 0.6572 0.0
C1025 C 0.41184 0.29263 0.70458 0.0
O1026 O 0.41268 0.31923 0.70298 0.0
C1027 C 0.2789 0.36523 0.65094 0.0
C1028 C 0.24562 0.3381 0.64275 0.0
C1029 C 0.25293 0.36519 0.64419 0.0
N1030 N 0.28647 0.33926 0.65342 0.0
N1031 N 0.26661 0.32318 0.64832 0.0
C1032 C 0.29548 0.38931 0.65607 0.0
H1033 H 0.30935 0.38371 0.66637 0.0
H1034 H 0.28213 0.40642 0.6599 0.0
H1035 H 0.30802 0.39607 0.64542 0.0
C1036 C 0.32554 0.30123 0.70968 0.0
N1037 N 0.33442 0.30873 0.69465 0.0
N1038 N 0.31445 0.32015 0.68632 0.0
C1039 C 0.29205 0.32028 0.69595 0.0
C1040 C 0.29818 0.30791 0.71096 0.0
C1041 C 0.34127 0.28254 0.72077 0.0
H1042 H 0.34599 0.26346 0.71399 0.0
H1043 H 0.36083 0.29234 0.72414 0.0
H1044 H 0.33006 0.27747 0.73226 0.0
O1045 O 0.35416 0.26777 0.66755 0.0
O1046 O 0.32311 0.28872 0.65224 0.0
H1047 H 0.25703 0.31247 0.68102 0.0
H1048 H 0.2496 0.32895 0.70048 0.0
C1049 C 0.26424 0.3279 0.69003 0.0
H1050 H 0.265 0.34796 0.68378 0.0
H1051 H 0.26719 0.30199 0.64895 0.0
O1052 O 0.39251 0.27947 0.69787 0.0
C1053 C 0.33733 0.26782 0.6556 0.0
Co1054 Co 0.43483 0.61518 0.42979 0.0
Co1055 Co 0.41036 0.56638 0.40962 0.0
C1056 C 0.38673 0.62249 0.40772 0.0
O1057 O 0.40387 0.63191 0.41806 0.0
O1058 O 0.38703 0.59757 0.4034 0.0
C1059 C 0.43997 0.66306 0.45076 0.0
O1060 O 0.41375 0.66644 0.44836 0.0
C1061 C 0.37121 0.52743 0.39507 0.0
C1062 C 0.39896 0.49381 0.38822 0.0
C1063 C 0.372 0.50194 0.38758 0.0
N1064 N 0.39659 0.53379 0.39998 0.0
N1065 N 0.41302 0.51364 0.39583 0.0
C1066 C 0.3478 0.54689 0.39593 0.0
H1067 H 0.35304 0.56554 0.38891 0.0
H1068 H 0.34436 0.55291 0.409 0.0
H1069 H 0.3289 0.53836 0.39058 0.0
C1070 C 0.43208 0.57538 0.45643 0.0
N1071 N 0.42437 0.58365 0.44129 0.0
N1072 N 0.41433 0.5629 0.433 0.0
C1073 C 0.41522 0.54068 0.44275 0.0
C1074 C 0.427 0.54768 0.4578 0.0
C1075 C 0.44949 0.59232 0.46764 0.0
H1076 H 0.4688 0.59739 0.46122 0.0
H1077 H 0.43881 0.61166 0.47045 0.0
H1078 H 0.45424 0.58183 0.47943 0.0
O1079 O 0.46379 0.60575 0.41385 0.0
O1080 O 0.4465 0.57153 0.39938 0.0
H1081 H 0.42563 0.50544 0.42862 0.0
H1082 H 0.4076 0.49814 0.44755 0.0
C1083 C 0.4091 0.51243 0.43694 0.0
H1084 H 0.38967 0.51225 0.42997 0.0
H1085 H 0.43396 0.51365 0.39793 0.0
O1086 O 0.45178 0.64248 0.44452 0.0
C1087 C 0.46582 0.58797 0.40247 0.0
H1088 H 0.52656 0.31856 0.21209 0.0
H1089 H 0.46644 0.16854 0.21103 0.0
H1090 H 0.57557 0.2457 0.21025 0.0
H1091 H 0.41745 0.24147 0.21064 0.0
H1092 H 0.50638 0.19618 0.21751 0.0
H1093 H 0.48673 0.29063 0.21836 0.0
C1094 C 0.52907 0.29675 0.21332 0.0
C1095 C 0.55429 0.28439 0.21023 0.0
C1096 C 0.4868 0.20609 0.21628 0.0
C1097 C 0.50877 0.25229 0.21722 0.0
C1098 C 0.46396 0.19029 0.21262 0.0
C1099 C 0.4387 0.20279 0.20988 0.0
C1100 C 0.48434 0.23457 0.21714 0.0
C1101 C 0.43665 0.23103 0.21229 0.0
C1102 C 0.50629 0.28079 0.21685 0.0
C1103 C 0.55639 0.25606 0.21218 0.0
N1104 N 0.45926 0.24601 0.2155 0.0
N1105 N 0.53384 0.24093 0.21527 0.0
H1106 H 0.9933 0.16235 0.45874 0.0
H1107 H 0.98912 0.32381 0.46167 0.0
H1108 H 0.06473 0.21349 0.4589 0.0
H1109 H 0.91776 0.27283 0.45855 0.0
H1110 H 0.01665 0.28354 0.46725 0.0
H1111 H 0.96544 0.20203 0.46522 0.0
C1112 C 0.00321 0.18186 0.4604 0.0
C1113 C 0.03134 0.18472 0.4579 0.0
C1114 C 0.99491 0.28118 0.46561 0.0
C1115 C -0.00053 0.2303 0.46519 0.0
C1116 C 0.97914 0.30419 0.46243 0.0
C1117 C 0.95117 0.3016 0.45925 0.0
C1118 C 0.98266 0.25537 0.4655 0.0
C1119 C 0.93931 0.27573 0.46068 0.0
C1120 C 0.98725 0.20453 0.4641 0.0
C1121 C 0.04308 0.2104 0.46048 0.0
N1122 N 0.9552 0.25355 0.46341 0.0
N1123 N 0.02703 0.2323 0.4637 0.0
H1124 H 0.02812 0.8199 0.71132 0.0
H1125 H 0.96449 0.67099 0.71066 0.0
H1126 H 0.07549 0.74595 0.7096 0.0
H1127 H 0.91716 0.74496 0.70894 0.0
H1128 H 0.005 0.69799 0.71683 0.0
H1129 H 0.98748 0.79282 0.71701 0.0
C1130 C 0.03009 0.79802 0.71244 0.0
C1131 C 0.05514 0.78513 0.70961 0.0
C1132 C 0.98566 0.70828 0.71536 0.0
C1133 C 0.00867 0.754 0.71596 0.0
C1134 C 0.96249 0.69285 0.71188 0.0
C1135 C 0.93751 0.70578 0.70891 0.0
C1136 C 0.98383 0.73682 0.71581 0.0
C1137 C 0.93611 0.73416 0.71082 0.0
C1138 C 0.00684 0.78255 0.71564 0.0
C1139 C 0.05649 0.75672 0.71138 0.0
N1140 N 0.95903 0.74876 0.71389 0.0
N1141 N 0.03351 0.74209 0.71418 0.0
H1142 H 0.56952 0.71417 0.96212 0.0
H1143 H 0.42105 0.77873 0.96139 0.0
H1144 H 0.49528 0.6674 0.95949 0.0
H1145 H 0.49534 0.82554 0.95962 0.0
H1146 H 0.44776 0.73804 0.9676 0.0
H1147 H 0.54265 0.75486 0.96808 0.0
C1148 C 0.54761 0.71233 0.9631 0.0
C1149 C 0.53459 0.68746 0.95992 0.0
C1150 C 0.45818 0.75731 0.96611 0.0
C1151 C 0.50371 0.73398 0.9666 0.0
C1152 C 0.44292 0.78058 0.96262 0.0
C1153 C 0.45603 0.80545 0.9596 0.0
C1154 C 0.48673 0.75894 0.96654 0.0
C1155 C 0.48441 0.80667 0.96152 0.0
C1156 C 0.53226 0.7356 0.96646 0.0
C1157 C 0.50615 0.68626 0.96152 0.0
N1158 N 0.49884 0.78366 0.96461 0.0
N1159 N 0.49165 0.70927 0.96449 0.0
H1160 H 0.46163 0.81798 0.27726 0.0
H1161 H 0.52894 0.67081 0.28149 0.0
H1162 H 0.41604 0.743 0.27995 0.0
H1163 H 0.57375 0.74622 0.28453 0.0
H1164 H 0.48821 0.69652 0.2739 0.0
H1165 H 0.5031 0.79166 0.27268 0.0
C1166 C 0.46021 0.79601 0.27656 0.0
C1167 C 0.43542 0.78265 0.27939 0.0
C1168 C 0.50707 0.7074 0.27598 0.0
C1169 C 0.48286 0.7524 0.27434 0.0
C1170 C 0.53035 0.69272 0.28028 0.0
C1171 C 0.55463 0.70644 0.28401 0.0
C1172 C 0.5081 0.73597 0.27543 0.0
C1173 C 0.55532 0.73483 0.28209 0.0
C1174 C 0.48394 0.78098 0.274 0.0
C1175 C 0.43481 0.75415 0.27815 0.0
N1176 N 0.5323 0.74868 0.27816 0.0
N1177 N 0.45825 0.73995 0.276 0.0
H1178 H 0.49851 0.32842 0.53058 0.0
H1179 H 0.49065 0.16685 0.52998 0.0
H1180 H 0.56862 0.27561 0.53281 0.0
H1181 H 0.4206 0.21963 0.53313 0.0
H1182 H 0.5191 0.20635 0.52407 0.0
H1183 H 0.46995 0.28904 0.52457 0.0
C1184 C 0.50799 0.30859 0.52955 0.0
C1185 C 0.53593 0.30521 0.53259 0.0
C1186 C 0.49744 0.20926 0.5258 0.0
C1187 C 0.50325 0.26001 0.52581 0.0
C1188 C 0.48115 0.1867 0.52917 0.0
C1189 C 0.45327 0.19003 0.53244 0.0
C1190 C 0.48584 0.23536 0.52578 0.0
C1191 C 0.44205 0.21616 0.53094 0.0
C1192 C 0.49164 0.2861 0.52612 0.0
C1193 C 0.54713 0.27911 0.5308 0.0
N1194 N 0.45846 0.2379 0.52798 0.0
N1195 N 0.53067 0.25743 0.5278 0.0
H1196 H 0.07457 0.24347 0.78265 0.0
H1197 H 0.91312 0.24515 0.78178 0.0
H1198 H 0.02457 0.1713 0.78452 0.0
H1199 H 0.96311 0.31738 0.7827 0.0
H1200 H 0.95356 0.21789 0.77618 0.0
H1201 H 0.03429 0.27038 0.77609 0.0
C1202 C 0.05517 0.23319 0.78143 0.0
C1203 C 0.05282 0.20517 0.78452 0.0
C1204 C 0.95565 0.23975 0.77734 0.0
C1205 C 0.00657 0.23594 0.77714 0.0
C1206 C 0.93255 0.25535 0.78054 0.0
C1207 C 0.93485 0.28353 0.7831 0.0
C1208 C 0.98127 0.25236 0.77682 0.0
C1209 C 0.96045 0.29568 0.78106 0.0
C1210 C 0.03216 0.2486 0.77768 0.0
C1211 C 0.02727 0.1929 0.78248 0.0
N1212 N 0.98276 0.27995 0.77833 0.0
N1213 N 0.00504 0.20845 0.7792 0.0
H1214 H -0.00184 0.82556 0.0323 0.0
H1215 H -0.00407 0.66402 0.03353 0.0
H1216 H 0.07012 0.77534 0.03488 0.0
H1217 H 0.9239 0.7143 0.03418 0.0
H1218 H 0.02325 0.7042 0.02738 0.0
H1219 H 0.9711 0.78512 0.02632 0.0
C1220 C 0.00836 0.80608 0.03134 0.0
C1221 C 0.03637 0.80373 0.03448 0.0
C1222 C 0.00142 0.70641 0.02861 0.0
C1223 C 0.00541 0.75731 0.02777 0.0
C1224 C 0.98578 0.68346 0.03212 0.0
C1225 C 0.95764 0.68592 0.03476 0.0
C1226 C 0.98889 0.73205 0.02784 0.0
C1227 C 0.94557 0.71152 0.03249 0.0
C1228 C 0.99286 0.78298 0.02793 0.0
C1229 C 0.04853 0.77805 0.03279 0.0
N1230 N 0.96133 0.73368 0.02944 0.0
N1231 N 0.0329 0.75576 0.02983 0.0
H1232 H 0.57631 0.74501 0.78212 0.0
H1233 H 0.41484 0.74305 0.78137 0.0
H1234 H 0.52622 0.81717 0.78307 0.0
H1235 H 0.46494 0.67093 0.78287 0.0
H1236 H 0.45523 0.77022 0.77545 0.0
H1237 H 0.53605 0.71784 0.77589 0.0
C1238 C 0.5569 0.75522 0.78076 0.0
C1239 C 0.55452 0.78334 0.7835 0.0
C1240 C 0.45735 0.7484 0.77681 0.0
C1241 C 0.50829 0.75227 0.7765 0.0
C1242 C 0.43428 0.73284 0.78018 0.0
C1243 C 0.43661 0.70474 0.78301 0.0
C1244 C 0.48299 0.73581 0.77638 0.0
C1245 C 0.46224 0.69258 0.78104 0.0
C1246 C 0.5339 0.73966 0.7772 0.0
C1247 C 0.52895 0.79551 0.7813 0.0
N1248 N 0.48451 0.70826 0.77813 0.0
N1249 N 0.50673 0.77983 0.77821 0.0
H1250 H -0.00205 0.66309 0.53222 0.0
H1251 H 0.99333 0.8248 0.53165 0.0
H1252 H 0.06922 0.71446 0.53275 0.0
H1253 H 0.92218 0.77354 0.53494 0.0
H1254 H 0.02083 0.78472 0.52549 0.0
H1255 H 0.96988 0.70302 0.52665 0.0
C1256 C 0.00778 0.6827 0.53088 0.0
C1257 C 0.03594 0.68552 0.53332 0.0
C1258 C -0.00086 0.78227 0.52731 0.0
C1259 C 0.00383 0.73137 0.52707 0.0
C1260 C 0.98338 0.80517 0.53082 0.0
C1261 C 0.95548 0.80245 0.53418 0.0
C1262 C 0.98696 0.75642 0.52726 0.0
C1263 C 0.94368 0.77656 0.53267 0.0
C1264 C 0.99171 0.70552 0.52772 0.0
C1265 C 0.04756 0.71137 0.5312 0.0
N1266 N 0.95956 0.75448 0.52959 0.0
N1267 N 0.0314 0.73337 0.52847 0.0
H1268 H 0.91343 0.24458 0.28319 0.0
H1269 H 0.07444 0.23838 0.2808 0.0
H1270 H 0.95963 0.1699 0.28461 0.0
H1271 H 0.02806 0.31292 0.27875 0.0
H1272 H 0.0327 0.21261 0.27611 0.0
H1273 H 0.95469 0.26918 0.2756 0.0
C1274 C 0.9322 0.23327 0.28167 0.0
C1275 C 0.93323 0.20523 0.2849 0.0
C1276 C 0.03169 0.23462 0.27641 0.0
C1277 C 0.98062 0.23334 0.27636 0.0
C1278 C 0.05554 0.24937 0.27907 0.0
C1279 C 0.05463 0.27783 0.28056 0.0
C1280 C 0.00672 0.24841 0.27538 0.0
C1281 C 0.02967 0.29099 0.27795 0.0
C1282 C 0.95576 0.24735 0.27731 0.0
C1283 C 0.95798 0.19158 0.28246 0.0
N1284 N 0.00661 0.27614 0.27579 0.0
N1285 N 0.98081 0.20585 0.27862 0.0
H1286 H 0.57002 0.21535 0.03268 0.0
H1287 H 0.42082 0.27824 0.03207 0.0
H1288 H 0.49624 0.16768 0.0338 0.0
H1289 H 0.49451 0.32588 0.03477 0.0
H1290 H 0.44818 0.23791 0.026 0.0
H1291 H 0.54289 0.25589 0.02677 0.0
C1292 C 0.54817 0.2133 0.03139 0.0
C1293 C 0.53532 0.18821 0.03412 0.0
C1294 C 0.45833 0.25728 0.02767 0.0
C1295 C 0.50415 0.23452 0.0275 0.0
C1296 C 0.4427 0.28034 0.03109 0.0
C1297 C 0.45544 0.30533 0.03432 0.0
C1298 C 0.48687 0.25926 0.02753 0.0
C1299 C 0.48385 0.3069 0.0327 0.0
C1300 C 0.53268 0.23648 0.02805 0.0
C1301 C 0.50697 0.18672 0.03213 0.0
N1302 N 0.49864 0.28409 0.02968 0.0
N1303 N 0.49231 0.20963 0.02919 0.0
H1304 H 0.53029 0.16701 0.70851 0.0
H1305 H 0.46125 0.31312 0.71427 0.0
H1306 H 0.57451 0.24293 0.70804 0.0
H1307 H 0.41672 0.23776 0.7096 0.0
H1308 H 0.50279 0.28708 0.71924 0.0
H1309 H 0.48902 0.19185 0.71606 0.0
C1310 C 0.53146 0.18883 0.7103 0.0
C1311 C 0.55574 0.203 0.70726 0.0
C1312 C 0.48384 0.27624 0.7174 0.0
C1313 C 0.50857 0.23155 0.71577 0.0
C1314 C 0.46007 0.29111 0.71461 0.0
C1315 C 0.43559 0.27759 0.71111 0.0
C1316 C 0.4831 0.24767 0.71663 0.0
C1317 C 0.43526 0.24904 0.7119 0.0
C1318 C 0.50786 0.20302 0.71457 0.0
C1319 C 0.5561 0.23124 0.70993 0.0
N1320 N 0.45874 0.23502 0.7143 0.0
N1321 N 0.53278 0.24463 0.71378 0.0
H1322 H 0.42372 0.71412 0.46039 0.0
H1323 H 0.57603 0.76819 0.46001 0.0
H1324 H 0.49445 0.6622 0.45762 0.0
H1325 H 0.50532 0.82022 0.46209 0.0
H1326 H 0.54684 0.72891 0.46536 0.0
H1327 H 0.45332 0.75249 0.46719 0.0
C1328 C 0.44541 0.71066 0.4615 0.0
C1329 C 0.45668 0.68505 0.45805 0.0
C1330 C 0.53777 0.74898 0.46491 0.0
C1331 C 0.4907 0.72891 0.46567 0.0
C1332 C 0.55446 0.77144 0.4619 0.0
C1333 C 0.54303 0.79745 0.4602 0.0
C1334 C 0.50945 0.75257 0.46614 0.0
C1335 C 0.51496 0.80046 0.46296 0.0
C1336 C 0.46233 0.73261 0.46536 0.0
C1337 C 0.48491 0.68172 0.45986 0.0
N1338 N 0.49908 0.77824 0.46551 0.0
N1339 N 0.50098 0.70349 0.46327 0.0
H1340 H 0.02667 0.67302 0.21232 0.0
H1341 H 0.96042 0.8207 0.21234 0.0
H1342 H 0.07239 0.74789 0.20935 0.0
H1343 H 0.91451 0.74585 0.21046 0.0
H1344 H 0.00144 0.79445 0.21843 0.0
H1345 H 0.98582 0.69935 0.21875 0.0
C1346 C 0.02825 0.69495 0.21332 0.0
C1347 C 0.05283 0.70832 0.2099 0.0
C1348 C 0.9823 0.7838 0.21696 0.0
C1349 C 0.00616 0.73857 0.21713 0.0
C1350 C 0.95884 0.7988 0.21353 0.0
C1351 C 0.93414 0.78539 0.21049 0.0
C1352 C 0.98102 0.75523 0.21729 0.0
C1353 C 0.93326 0.75699 0.21237 0.0
C1354 C 0.00489 0.70999 0.21695 0.0
C1355 C 0.05373 0.73676 0.21155 0.0
N1356 N 0.95645 0.74282 0.21538 0.0
N1357 N 0.03064 0.75096 0.21479 0.0
H1358 H 0.06924 0.27762 0.9596 0.0
H1359 H 0.92076 0.21348 0.96209 0.0
H1360 H 0.99498 0.3245 0.95825 0.0
H1361 H 0.99482 0.16638 0.95976 0.0
H1362 H 0.9478 0.25421 0.96761 0.0
H1363 H 0.04266 0.23713 0.9665 0.0
C1364 C 0.04741 0.27953 0.96105 0.0
C1365 C 0.03424 0.30434 0.95796 0.0
C1366 C 0.95811 0.23488 0.96616 0.0
C1367 C 0.0037 0.25807 0.96571 0.0
C1368 C 0.94266 0.21158 0.96306 0.0
C1369 C 0.95559 0.18661 0.96006 0.0
C1370 C 0.98667 0.23317 0.9662 0.0
C1371 C 0.98402 0.18533 0.96165 0.0
C1372 C 0.03223 0.25637 0.96495 0.0
C1373 C 0.00593 0.30565 0.96018 0.0
N1374 N -0.00137 0.20837 0.96433 0.0
N1375 N 0.99157 0.28276 0.96367 0.0
H1376 H 0.51921 0.06763 0.11882 0.0
H1377 H 0.36463 0.11434 0.12878 0.0
H1378 H 0.47139 0.10285 0.07947 0.0
H1379 H 0.42359 0.12025 0.16826 0.0
H1380 H 0.3994 0.09357 0.11118 0.0
H1381 H 0.47973 0.07129 0.13731 0.0
C1382 C 0.50027 0.07566 0.11401 0.0
C1383 C 0.49857 0.08536 0.0977 0.0
C1384 C 0.40447 0.09891 0.12382 0.0
C1385 C 0.45358 0.08908 0.11857 0.0
C1386 C 0.38466 0.11061 0.1339 0.0
C1387 C 0.39143 0.11951 0.14989 0.0
C1388 C 0.43102 0.09575 0.12987 0.0
C1389 C 0.41768 0.1141 0.1559 0.0
C1390 C 0.47787 0.07775 0.12454 0.0
C1391 C 0.47361 0.09556 0.09205 0.0
N1392 N 0.43667 0.10281 0.1458 0.0
N1393 N 0.45207 0.09726 0.1025 0.0
H1394 H 0.17437 0.267 0.36728 0.0
H1395 H 0.11586 0.17146 0.41891 0.0
H1396 H 0.13553 0.21768 0.32986 0.0
H1397 H 0.12598 0.11464 0.37861 0.0
H1398 H 0.13754 0.20662 0.40221 0.0
H1399 H 0.1711 0.22881 0.38665 0.0
C1400 C 0.16542 0.24807 0.36308 0.0
C1401 C 0.15462 0.24568 0.34706 0.0
C1402 C 0.1359 0.18626 0.3972 0.0
C1403 C 0.15061 0.20221 0.36913 0.0
C1404 C 0.12332 0.1662 0.4067 0.0
C1405 C 0.11882 0.14021 0.40005 0.0
C1406 C 0.14365 0.18032 0.38087 0.0
C1407 C 0.12894 0.13446 0.38419 0.0
C1408 C 0.16339 0.22639 0.37418 0.0
C1409 C 0.14357 0.22059 0.34221 0.0
N1410 N 0.14026 0.15459 0.37496 0.0
N1411 N 0.14169 0.19987 0.35325 0.0
H1412 H 0.07098 0.86938 0.67048 0.0
H1413 H 0.0196 0.88113 0.57998 0.0
H1414 H 0.12729 0.87299 0.62954 0.0
H1415 H 0.97515 0.91911 0.61986 0.0
H1416 H 0.05942 0.87779 0.59802 0.0
H1417 H 0.0356 0.88859 0.65268 0.0
C1418 C 0.07605 0.87482 0.65785 0.0
C1419 C 0.10197 0.86931 0.65139 0.0
C1420 C 0.04107 0.88723 0.60273 0.0
C1421 C 0.06156 0.89054 0.63095 0.0
C1422 C 0.0183 0.88892 0.59251 0.0
C1423 C 0.99401 0.90013 0.59853 0.0
C1424 C 0.03929 0.89622 0.61919 0.0
C1425 C 0.99349 0.91021 0.61478 0.0
C1426 C 0.05589 0.88577 0.64772 0.0
C1427 C 0.10754 0.87683 0.63498 0.0
N1428 N 0.01568 0.90756 0.62468 0.0
N1429 N 0.08727 0.88647 0.62518 0.0
H1430 H 0.35571 0.76891 0.82878 0.0
H1431 H 0.3741 0.81879 0.91908 0.0
H1432 H 0.32096 0.72357 0.86934 0.0
H1433 H 0.36716 0.8758 0.87864 0.0
H1434 H 0.35353 0.78369 0.90163 0.0
H1435 H 0.35981 0.80857 0.84689 0.0
C1436 C 0.34872 0.76742 0.84146 0.0
C1437 C 0.33827 0.74291 0.84765 0.0
C1438 C 0.35594 0.80406 0.89672 0.0
C1439 C 0.34316 0.78796 0.86842 0.0
C1440 C 0.36771 0.82407 0.90665 0.0
C1441 C 0.37268 0.85011 0.90021 0.0
C1442 C 0.34977 0.81002 0.88016 0.0
C1443 C 0.36384 0.85593 0.88407 0.0
C1444 C 0.35086 0.79008 0.85174 0.0
C1445 C 0.32922 0.7421 0.86413 0.0
N1446 N 0.35339 0.83583 0.87444 0.0
N1447 N 0.33238 0.76418 0.87407 0.0
H1448 H 0.50696 0.84602 0.39631 0.0
H1449 H 0.3745 0.88876 0.35365 0.0
H1450 H 0.49743 0.93298 0.39129 0.0
H1451 H 0.43211 0.83736 0.32797 0.0
H1452 H 0.4116 0.90413 0.37195 0.0
H1453 H 0.47015 0.8394 0.37635 0.0
C1454 C 0.49688 0.86371 0.39116 0.0
C1455 C 0.50522 0.89007 0.39537 0.0
C1456 C 0.41593 0.8899 0.36205 0.0
C1457 C 0.46311 0.88257 0.37282 0.0
C1458 C 0.39491 0.88113 0.35163 0.0
C1459 C 0.4001 0.86142 0.33941 0.0
C1460 C 0.44185 0.87834 0.36036 0.0
C1461 C 0.42698 0.85229 0.33732 0.0
C1462 C 0.47609 0.8599 0.37975 0.0
C1463 C 0.4916 0.91233 0.38823 0.0
N1464 N 0.44669 0.86033 0.34795 0.0
N1465 N 0.47091 0.9081 0.37732 0.0
H1466 H 0.36724 0.17125 0.57167 0.0
H1467 H 0.35076 0.21548 0.66338 0.0
H1468 H 0.3631 0.11239 0.61124 0.0
H1469 H 0.31974 0.26502 0.6235 0.0
H1470 H 0.35293 0.17669 0.64452 0.0
H1471 H 0.34657 0.20509 0.5899 0.0
C1472 C 0.3614 0.16528 0.58408 0.0
C1473 C 0.36732 0.13914 0.59006 0.0
C1474 C 0.34518 0.19591 0.63996 0.0
C1475 C 0.34426 0.17785 0.61104 0.0
C1476 C 0.34413 0.2181 0.65068 0.0
C1477 C 0.33545 0.24356 0.64491 0.0
C1478 C 0.33812 0.19939 0.62326 0.0
C1479 C 0.32675 0.24576 0.62842 0.0
C1480 C 0.34958 0.1846 0.59447 0.0
C1481 C 0.35911 0.1324 0.60618 0.0
N1482 N 0.32883 0.22407 0.61805 0.0
N1483 N 0.34859 0.15186 0.61626 0.0
H1484 H 0.97383 0.06959 0.87337 0.0
H1485 H 0.12826 0.11764 0.86463 0.0
H1486 H 0.01964 0.10692 0.91293 0.0
H1487 H 0.07063 0.12037 0.82433 0.0
H1488 H 0.093 0.09773 0.88231 0.0
H1489 H 0.0139 0.07315 0.85542 0.0
C1490 C 0.99243 0.07814 0.87835 0.0
C1491 C 0.99336 0.08838 0.89456 0.0
C1492 C 0.08835 0.10217 0.86949 0.0
C1493 C 0.03911 0.092 0.87426 0.0
C1494 C 0.10845 0.11332 0.85936 0.0
C1495 C 0.10215 0.12104 0.84309 0.0
C1496 C 0.06204 0.09836 0.86317 0.0
C1497 C 0.07616 0.11505 0.8369 0.0
C1498 C 0.01519 0.08015 0.86812 0.0
C1499 C 0.01797 0.09919 0.90041 0.0
N1500 N 0.05691 0.10428 0.84701 0.0
N1501 N 0.03988 0.10082 0.89023 0.0
H1502 H 0.17158 0.72505 0.12342 0.0
H1503 H 0.12519 0.87994 0.11396 0.0
H1504 H 0.13564 0.77234 0.16279 0.0
H1505 H 0.12067 0.82168 0.07404 0.0
H1506 H 0.1454 0.84483 0.13159 0.0
H1507 H 0.16825 0.7648 0.10513 0.0
C1508 C 0.16342 0.74391 0.12828 0.0
C1509 C 0.15346 0.74538 0.14454 0.0
C1510 C 0.14051 0.84 0.11885 0.0
C1511 C 0.15014 0.79072 0.12388 0.0
C1512 C 0.12917 0.86002 0.10875 0.0
C1513 C 0.12081 0.85352 0.09261 0.0
C1514 C 0.14385 0.81353 0.11266 0.0
C1515 C 0.12645 0.82737 0.0865 0.0
C1516 C 0.16153 0.76648 0.11786 0.0
C1517 C 0.14313 0.77027 0.15025 0.0
N1518 N 0.13737 0.80819 0.0966 0.0
N1519 N 0.14164 0.79198 0.1399 0.0
H1520 H 0.52089 0.88526 0.9126 0.0
H1521 H 0.57088 0.86889 0.82219 0.0
H1522 H 0.47552 0.92047 0.87218 0.0
H1523 H 0.6278 0.87439 0.86275 0.0
H1524 H 0.5359 0.88936 0.83975 0.0
H1525 H 0.56064 0.88173 0.89453 0.0
C1526 C 0.5194 0.89246 0.89996 0.0
C1527 C 0.49484 0.90286 0.89379 0.0
C1528 C 0.55623 0.88668 0.84467 0.0
C1529 C 0.54004 0.89866 0.87308 0.0
C1530 C 0.57617 0.87499 0.83467 0.0
C1531 C 0.60213 0.86961 0.84112 0.0
C1532 C 0.56215 0.89235 0.86132 0.0
C1533 C 0.60798 0.87805 0.85733 0.0
C1534 C 0.54212 0.89065 0.8897 0.0
C1535 C 0.49406 0.9122 0.87738 0.0
N1536 N 0.58793 0.8884 0.86703 0.0
N1537 N 0.51621 0.90938 0.86746 0.0
H1538 H 0.8697 0.82112 0.57247 0.0
H1539 H 0.85663 0.77043 0.66283 0.0
H1540 H 0.8662 0.87764 0.61333 0.0
H1541 H 0.81997 0.7254 0.62273 0.0
H1542 H 0.85931 0.8104 0.6449 0.0
H1543 H 0.84941 0.78618 0.59011 0.0
C1544 C 0.86404 0.82635 0.58504 0.0
C1545 C 0.87 0.85215 0.59154 0.0
C1546 C 0.85026 0.79191 0.64011 0.0
C1547 C 0.84749 0.81221 0.61183 0.0
C1548 C 0.84894 0.76906 0.65028 0.0
C1549 C 0.8384 0.74453 0.64416 0.0
C1550 C 0.8416 0.78999 0.62359 0.0
C1551 C 0.82839 0.74391 0.62789 0.0
C1552 C 0.85246 0.80643 0.59509 0.0
C1553 C 0.86211 0.85794 0.60786 0.0
N1554 N 0.83073 0.76619 0.61803 0.0
N1555 N 0.85188 0.83788 0.6176 0.0
H1556 H 0.85977 0.11801 0.3654 0.0
H1557 H 0.01478 0.06985 0.37055 0.0
H1558 H 0.91557 0.12284 0.32425 0.0
H1559 H 0.96983 0.1032 0.41173 0.0
H1560 H 0.97396 0.07422 0.35323 0.0
H1561 H 0.89562 0.09663 0.38198 0.0
C1562 C 0.87929 0.11387 0.35971 0.0
C1563 C 0.88492 0.12261 0.34354 0.0
C1564 C 0.97303 0.08014 0.36614 0.0
C1565 C 0.92575 0.09826 0.36236 0.0
C1566 C -0.00378 0.07765 0.37601 0.0
C1567 C -0.00428 0.08662 0.39249 0.0
C1568 C 0.94916 0.09115 0.37294 0.0
C1569 C 0.97116 0.0965 0.39898 0.0
C1570 C 0.89974 0.10186 0.3692 0.0
C1571 C 0.91058 0.11678 0.33677 0.0
N1572 N 0.94886 0.09863 0.38916 0.0
N1573 N 0.93018 0.1052 0.34628 0.0
H1574 H 0.63242 0.22048 0.16374 0.0
H1575 H 0.62826 0.10959 0.11184 0.0
H1576 H 0.67035 0.26369 0.12335 0.0
H1577 H 0.61655 0.17195 0.07487 0.0
H1578 H 0.6478 0.14381 0.13038 0.0
H1579 H 0.62909 0.18014 0.1462 0.0
C1580 C 0.64039 0.22133 0.15124 0.0
C1581 C 0.65151 0.24547 0.14493 0.0
C1582 C 0.64119 0.14986 0.11814 0.0
C1583 C 0.648 0.19938 0.12486 0.0
C1584 C 0.63034 0.13033 0.10747 0.0
C1585 C 0.62019 0.1381 0.09194 0.0
C1586 C 0.64199 0.17721 0.11313 0.0
C1587 C 0.62363 0.16522 0.08688 0.0
C1588 C 0.63881 0.1982 0.14131 0.0
C1589 C 0.66163 0.24546 0.12868 0.0
N1590 N 0.634 0.1839 0.09754 0.0
N1591 N 0.65909 0.2229 0.11906 0.0
H1592 H 0.57097 0.12335 0.66569 0.0
H1593 H 0.51644 0.10919 0.57597 0.0
H1594 H 0.62565 0.12079 0.62392 0.0
H1595 H 0.47395 0.07157 0.61673 0.0
H1596 H 0.55692 0.11327 0.59337 0.0
H1597 H 0.53537 0.10308 0.6485 0.0
C1598 C 0.57565 0.11796 0.653 0.0
C1599 C 0.60116 0.12406 0.64614 0.0
C1600 C 0.53888 0.10372 0.59842 0.0
C1601 C 0.56044 0.10154 0.62638 0.0
C1602 C 0.51573 0.10159 0.58856 0.0
C1603 C 0.49178 0.09032 0.59501 0.0
C1604 C 0.53784 0.09514 0.61498 0.0
C1605 C 0.49202 0.08049 0.61132 0.0
C1606 C 0.55535 0.10638 0.64322 0.0
C1607 C 0.60622 0.11653 0.62967 0.0
N1608 N 0.51457 0.08362 0.62088 0.0
N1609 N 0.5858 0.10625 0.62021 0.0
H1610 H 0.67653 0.72353 0.37035 0.0
H1611 H 0.62904 0.87777 0.38113 0.0
H1612 H 0.63686 0.77075 0.3323 0.0
H1613 H 0.63264 0.82036 0.42153 0.0
H1614 H 0.64838 0.84323 0.36279 0.0
H1615 H 0.67559 0.76347 0.38856 0.0
C1616 C 0.66799 0.74239 0.36575 0.0
C1617 C 0.6563 0.74376 0.34992 0.0
C1618 C 0.6455 0.83848 0.37577 0.0
C1619 C 0.65569 0.78938 0.37049 0.0
C1620 C 0.63468 0.85822 0.38628 0.0
C1621 C 0.62868 0.85169 0.4028 0.0
C1622 C 0.65063 0.81227 0.38189 0.0
C1623 C 0.63649 0.82604 0.40879 0.0
C1624 C 0.6675 0.7651 0.37613 0.0
C1625 C 0.64563 0.76871 0.34453 0.0
N1626 N 0.64673 0.80707 0.39827 0.0
N1627 N 0.64546 0.79053 0.35484 0.0
H1628 H 0.92067 0.86695 0.16988 0.0
H1629 H 0.97145 0.88442 0.07971 0.0
H1630 H 0.86413 0.87305 0.12915 0.0
H1631 H 0.01613 0.92012 0.12026 0.0
H1632 H 0.93169 0.8802 0.0977 0.0
H1633 H 0.95588 0.88747 0.15249 0.0
C1634 C 0.91552 0.87316 0.1574 0.0
C1635 C 0.88958 0.86797 0.15086 0.0
C1636 C 0.95006 0.88937 0.10258 0.0
C1637 C 0.92979 0.89079 0.13088 0.0
C1638 C 0.97278 0.89158 0.09237 0.0
C1639 C -0.00287 0.90235 0.09859 0.0
C1640 C 0.95194 0.89735 0.11922 0.0
C1641 C -0.00227 0.9116 0.11503 0.0
C1642 C 0.93558 0.88489 0.1475 0.0
C1643 C 0.88391 0.87655 0.13465 0.0
N1644 N 0.97558 0.90839 0.12491 0.0
N1645 N 0.90407 0.88697 0.12507 0.0
H1646 H 0.87389 0.17361 0.91948 0.0
H1647 H 0.85214 0.22064 0.82889 0.0
H1648 H 0.86493 0.11537 0.87981 0.0
H1649 H 0.81914 0.26756 0.86935 0.0
H1650 H 0.8568 0.18161 0.84743 0.0
H1651 H 0.8529 0.20832 0.90192 0.0
C1652 C 0.867 0.16799 0.9072 0.0
C1653 C 0.87152 0.1417 0.90099 0.0
C1654 C 0.84811 0.2003 0.85218 0.0
C1655 C 0.84808 0.18132 0.88083 0.0
C1656 C 0.84563 0.2226 0.84165 0.0
C1657 C 0.83551 0.24736 0.84768 0.0
C1658 C 0.84109 0.20303 0.86894 0.0
C1659 C 0.82712 0.2488 0.86426 0.0
C1660 C 0.85498 0.18777 0.89722 0.0
C1661 C 0.86201 0.13544 0.88505 0.0
N1662 N 0.83061 0.22706 0.87444 0.0
N1663 N 0.85131 0.15531 0.87536 0.0
H1664 H 0.97394 0.60472 0.57857 0.0
H1665 H 0.923 0.6233 0.66876 0.0
H1666 H 0.01872 0.57037 0.6195 0.0
H1667 H 0.86657 0.61743 0.62796 0.0
H1668 H 0.95818 0.60265 0.65143 0.0
H1669 H 0.93406 0.60903 0.59645 0.0
C1670 C 0.97527 0.59785 0.59129 0.0
C1671 C -0.00031 0.58748 0.59764 0.0
C1672 C 0.93792 0.60533 0.6464 0.0
C1673 C 0.95435 0.59261 0.61816 0.0
C1674 C 0.91787 0.61715 0.65626 0.0
C1675 C 0.89197 0.62242 0.64969 0.0
C1676 C 0.93217 0.59939 0.62977 0.0
C1677 C 0.88633 0.61387 0.63347 0.0
C1678 C 0.95247 0.60013 0.60144 0.0
C1679 C 0.00027 0.57859 0.61415 0.0
N1680 N 0.90648 0.60335 0.62392 0.0
N1681 N 0.97805 0.58186 0.62396 0.0
H1682 H 0.61829 0.67288 0.92066 0.0
H1683 H 0.63666 0.72039 0.83004 0.0
H1684 H 0.62666 0.61484 0.88085 0.0
H1685 H 0.67062 0.76748 0.87014 0.0
H1686 H 0.63319 0.6812 0.84855 0.0
H1687 H 0.63877 0.70774 0.903 0.0
C1688 C 0.62502 0.66732 0.90834 0.0
C1689 C 0.62044 0.64106 0.90212 0.0
C1690 C 0.64183 0.69998 0.85323 0.0
C1691 C 0.6432 0.68086 0.88182 0.0
C1692 C 0.6436 0.72237 0.84272 0.0
C1693 C 0.65365 0.74721 0.84866 0.0
C1694 C 0.64949 0.70269 0.86988 0.0
C1695 C 0.66265 0.74866 0.86512 0.0
C1696 C 0.63672 0.6872 0.89829 0.0
C1697 C 0.62968 0.63488 0.88612 0.0
N1698 N 0.65985 0.72681 0.87529 0.0
N1699 N 0.64003 0.65484 0.87635 0.0
H1700 H 0.6258 0.37498 0.12919 0.0
H1701 H 0.47088 0.42164 0.12086 0.0
H1702 H 0.56733 0.36683 0.16878 0.0
H1703 H 0.5186 0.38957 0.08048 0.0
H1704 H 0.51053 0.41685 0.13913 0.0
H1705 H 0.59072 0.39644 0.11213 0.0
C1706 C 0.6058 0.3783 0.13445 0.0
C1707 C 0.59928 0.36864 0.15031 0.0
C1708 C 0.51233 0.41133 0.1262 0.0
C1709 C 0.55933 0.3932 0.13091 0.0
C1710 C 0.48983 0.41409 0.11579 0.0
C1711 C 0.49146 0.40558 0.09923 0.0
C1712 C 0.53663 0.40055 0.11987 0.0
C1713 C 0.51644 0.39594 0.09324 0.0
C1714 C 0.58582 0.39041 0.12468 0.0
C1715 C 0.57305 0.37358 0.15651 0.0
N1716 N 0.53806 0.39358 0.10358 0.0
N1717 N 0.5539 0.38529 0.14672 0.0
H1718 H 0.81347 0.227 0.37132 0.0
H1719 H 0.86436 0.38048 0.38049 0.0
H1720 H 0.85301 0.27248 0.33245 0.0
H1721 H 0.86198 0.32377 0.42128 0.0
H1722 H 0.84406 0.34578 0.36265 0.0
H1723 H 0.81637 0.26713 0.3893 0.0
C1724 C 0.82238 0.24553 0.36649 0.0
C1725 C 0.83343 0.24635 0.35048 0.0
C1726 C 0.84742 0.34122 0.37561 0.0
C1727 C 0.83628 0.29219 0.3708 0.0
C1728 C 0.85878 0.36105 0.38584 0.0
C1729 C 0.86532 0.35479 0.40232 0.0
C1730 C 0.84228 0.31517 0.38197 0.0
C1731 C 0.85766 0.32926 0.40857 0.0
C1732 C 0.82401 0.26834 0.37674 0.0
C1733 C 0.84467 0.27088 0.34481 0.0
N1734 N 0.84685 0.3102 0.39832 0.0
N1735 N 0.84591 0.29282 0.355 0.0
H1736 H 0.91738 0.37001 0.82126 0.0
H1737 H 0.96846 0.3844 0.91154 0.0
H1738 H 0.86097 0.3737 0.86215 0.0
H1739 H 0.0128 0.42148 0.87132 0.0
H1740 H 0.92851 0.38089 0.89364 0.0
H1741 H 0.95234 0.39047 0.83885 0.0
C1742 C 0.91218 0.37572 0.83383 0.0
C1743 C 0.88639 0.36984 0.84035 0.0
C1744 C 0.94684 0.39021 0.88882 0.0
C1745 C 0.92636 0.39253 0.86056 0.0
C1746 C 0.96969 0.39201 0.89897 0.0
C1747 C 0.99401 0.40294 0.89281 0.0
C1748 C 0.94857 0.39878 0.87228 0.0
C1749 C 0.99444 0.4128 0.87651 0.0
C1750 C 0.93212 0.3874 0.84384 0.0
C1751 C 0.88065 0.37777 0.85666 0.0
N1752 N 0.97218 0.40999 0.86667 0.0
N1753 N 0.90072 0.38811 0.86637 0.0
H1754 H 0.87159 0.66918 0.07323 0.0
H1755 H 0.85446 0.71969 0.16346 0.0
H1756 H 0.8662 0.61252 0.11391 0.0
H1757 H 0.81944 0.76472 0.12284 0.0
H1758 H 0.85816 0.67981 0.14551 0.0
H1759 H 0.85078 0.70416 0.09064 0.0
C1760 C 0.86545 0.66394 0.08571 0.0
C1761 C 0.87096 0.63806 0.09223 0.0
C1762 C 0.84924 0.69828 0.14061 0.0
C1763 C 0.84783 0.67805 0.11226 0.0
C1764 C 0.84733 0.72108 0.1508 0.0
C1765 C 0.83694 0.74558 0.14454 0.0
C1766 C 0.84134 0.70022 0.12395 0.0
C1767 C 0.82769 0.74622 0.12811 0.0
C1768 C 0.85356 0.68388 0.09562 0.0
C1769 C 0.86245 0.63227 0.10843 0.0
N1770 N 0.83061 0.72399 0.11825 0.0
N1771 N 0.8519 0.65234 0.11805 0.0
H1772 H 0.47297 0.56379 0.3722 0.0
H1773 H 0.57124 0.62173 0.32201 0.0
H1774 H 0.51542 0.61027 0.40951 0.0
H1775 H 0.62409 0.61768 0.36458 0.0
H1776 H 0.53499 0.60082 0.33824 0.0
H1777 H 0.51302 0.56721 0.35427 0.0
C1778 C 0.49078 0.57451 0.37667 0.0
C1779 C 0.49068 0.58728 0.39222 0.0
C1780 C 0.55476 0.6036 0.34389 0.0
C1781 C 0.53631 0.59134 0.3718 0.0
C1782 C 0.57541 0.6157 0.33465 0.0
C1783 C 0.60058 0.62158 0.34202 0.0
C1784 C 0.55921 0.59784 0.3607 0.0
C1785 C 0.60496 0.61344 0.35845 0.0
C1786 C 0.51352 0.57657 0.3664 0.0
C1787 C 0.51442 0.60062 0.39747 0.0
N1788 N 0.58419 0.60262 0.36739 0.0
N1789 N 0.53625 0.60241 0.38724 0.0
H1790 H 0.63198 0.27243 0.65989 0.0
H1791 H 0.62777 0.32754 0.56989 0.0
H1792 H 0.67344 0.2304 0.6203 0.0
H1793 H 0.62293 0.38147 0.61197 0.0
H1794 H 0.64729 0.29248 0.58774 0.0
H1795 H 0.62982 0.31319 0.6426 0.0
C1796 C 0.64079 0.27185 0.6476 0.0
C1797 C 0.65256 0.24792 0.64142 0.0
C1798 C 0.6426 0.31222 0.59298 0.0
C1799 C 0.65006 0.29436 0.62159 0.0
C1800 C 0.63151 0.33224 0.58279 0.0
C1801 C 0.62335 0.35727 0.58952 0.0
C1802 C 0.64488 0.31709 0.61004 0.0
C1803 C 0.62877 0.36238 0.6063 0.0
C1804 C 0.63977 0.29517 0.6378 0.0
C1805 C 0.664 0.24839 0.6255 0.0
N1806 N 0.63856 0.34217 0.6161 0.0
N1807 N 0.66202 0.27111 0.616 0.0
H1808 H 0.98805 0.34992 0.39533 0.0
H1809 H 0.12001 0.38683 0.35303 0.0
H1810 H 0.99526 0.43674 0.38831 0.0
H1811 H 0.05992 0.34106 0.32558 0.0
H1812 H 0.08333 0.40438 0.37089 0.0
H1813 H 0.02474 0.34304 0.37534 0.0
C1814 C -0.00242 0.36754 0.38974 0.0
C1815 C 0.98862 0.39393 0.39341 0.0
C1816 C 0.07839 0.39099 0.36066 0.0
C1817 C 0.03063 0.38611 0.37084 0.0
C1818 C 0.09918 0.38096 0.3505 0.0
C1819 C 0.09312 0.36202 0.33798 0.0
C1820 C 0.05176 0.38153 0.35836 0.0
C1821 C 0.06571 0.35523 0.33522 0.0
C1822 C 0.01832 0.36357 0.37832 0.0
C1823 C 0.00157 0.41608 0.38569 0.0
N1824 N 0.04615 0.36442 0.34562 0.0
N1825 N 0.02222 0.4117 0.37476 0.0
H1826 H 0.36198 0.38019 0.11315 0.0
H1827 H 0.36029 0.26801 0.16397 0.0
H1828 H 0.37454 0.31903 0.07551 0.0
H1829 H 0.32201 0.22536 0.12347 0.0
H1830 H 0.36321 0.30869 0.14671 0.0
H1831 H 0.34328 0.34513 0.1314 0.0
C1832 C 0.36025 0.35953 0.10857 0.0
C1833 C 0.3704 0.35236 0.09293 0.0
C1834 C 0.35353 0.29066 0.14173 0.0
C1835 C 0.34957 0.3123 0.1138 0.0
C1836 C 0.35219 0.26734 0.1515 0.0
C1837 C 0.34104 0.24329 0.14509 0.0
C1838 C 0.34406 0.28975 0.12534 0.0
C1839 C 0.33075 0.24353 0.12888 0.0
C1840 C 0.34988 0.33952 0.11907 0.0
C1841 C 0.36744 0.32531 0.08761 0.0
N1842 N 0.33303 0.26628 0.11941 0.0
N1843 N 0.35753 0.30616 0.09811 0.0
H1844 H 0.36386 0.61562 0.86332 0.0
H1845 H 0.51931 0.57144 0.8727 0.0
H1846 H 0.42217 0.62219 0.82354 0.0
H1847 H 0.47139 0.60573 0.91233 0.0
H1848 H 0.47971 0.57496 0.85432 0.0
H1849 H 0.39932 0.59589 0.88087 0.0
C1850 C 0.3839 0.61224 0.85813 0.0
C1851 C 0.39027 0.62101 0.84205 0.0
C1852 C 0.47786 0.5813 0.86712 0.0
C1853 C 0.43064 0.59847 0.86201 0.0
C1854 C 0.50035 0.57929 0.87759 0.0
C1855 C 0.49864 0.5887 0.89396 0.0
C1856 C 0.45348 0.59224 0.8732 0.0
C1857 C 0.47363 0.59866 0.89971 0.0
C1858 C 0.40411 0.60115 0.86818 0.0
C1859 C 0.41656 0.6161 0.83596 0.0
N1860 N 0.452 0.60026 0.88931 0.0
N1861 N 0.43592 0.60539 0.84602 0.0
H1862 H 0.13762 0.72136 0.66381 0.0
H1863 H 0.11956 0.67247 0.57319 0.0
H1864 H 0.17155 0.76769 0.6234 0.0
H1865 H 0.12681 0.6151 0.61342 0.0
H1866 H 0.13969 0.70758 0.59082 0.0
H1867 H 0.13377 0.68194 0.64549 0.0
C1868 C 0.14449 0.72312 0.65111 0.0
C1869 C 0.15464 0.74783 0.64503 0.0
C1870 C 0.13743 0.68714 0.59564 0.0
C1871 C 0.15003 0.70304 0.62402 0.0
C1872 C 0.12591 0.66712 0.58561 0.0
C1873 C 0.12115 0.64096 0.59194 0.0
C1874 C 0.14359 0.68106 0.61219 0.0
C1875 C 0.12994 0.63507 0.60808 0.0
C1876 C 0.14249 0.7006 0.64071 0.0
C1877 C 0.16353 0.74899 0.62854 0.0
N1878 N 0.14016 0.65516 0.6178 0.0
N1879 N 0.16051 0.72702 0.61848 0.0
H1880 H 0.12751 0.61762 0.13066 0.0
H1881 H 0.97314 0.56975 0.12133 0.0
H1882 H 0.06867 0.62431 0.17014 0.0
H1883 H 0.02047 0.60423 0.08152 0.0
H1884 H 0.01261 0.57447 0.13973 0.0
H1885 H 0.09268 0.59649 0.11323 0.0
C1886 C 0.10751 0.61394 0.13583 0.0
C1887 C 0.10079 0.6231 0.15177 0.0
C1888 C 0.01437 0.58056 0.12689 0.0
C1889 C 0.06112 0.59901 0.13195 0.0
C1890 C 0.99196 0.57786 0.1164 0.0
C1891 C 0.99352 0.58701 0.09998 0.0
C1892 C 0.03853 0.59192 0.12076 0.0
C1893 C 0.01834 0.59734 0.09418 0.0
C1894 C 0.08765 0.60207 0.12584 0.0
C1895 C 0.07454 0.61789 0.15782 0.0
N1896 N 0.0399 0.59961 0.1046 0.0
N1897 N 0.05551 0.6064 0.14783 0.0
H1898 H 0.1226 0.3786 0.87732 0.0
H1899 H 0.17188 0.22434 0.86975 0.0
H1900 H 0.1177 0.32111 0.91761 0.0
H1901 H 0.13611 0.26988 0.82959 0.0
H1902 H 0.16754 0.26457 0.88758 0.0
H1903 H 0.14394 0.34345 0.8602 0.0
C1904 C 0.12669 0.35884 0.88272 0.0
C1905 C 0.11794 0.35255 0.8988 0.0
C1906 C 0.1611 0.26578 0.87478 0.0
C1907 C 0.14233 0.31255 0.87935 0.0
C1908 C 0.16358 0.24294 0.86462 0.0
C1909 C 0.15393 0.24376 0.84828 0.0
C1910 C 0.14942 0.28963 0.86841 0.0
C1911 C 0.14338 0.26832 0.84221 0.0
C1912 C 0.13871 0.33881 0.87291 0.0
C1913 C 0.12376 0.32663 0.90517 0.0
N1914 N 0.14129 0.29029 0.85231 0.0
N1915 N 0.13537 0.30743 0.89536 0.0
H1916 H 0.49662 0.44063 0.6052 0.0
H1917 H 0.4301 0.34289 0.66686 0.0
H1918 H 0.4976 0.35432 0.59505 0.0
H1919 H 0.36967 0.38427 0.6372 0.0
H1920 H 0.46563 0.36186 0.64924 0.0
H1921 H 0.45893 0.43316 0.62492 0.0
C1922 C 0.48886 0.42023 0.60706 0.0
C1923 C 0.50016 0.39802 0.59851 0.0
C1924 C 0.44458 0.36726 0.64694 0.0
C1925 C 0.45804 0.3896 0.62094 0.0
C1926 C 0.42425 0.35647 0.65692 0.0
C1927 C 0.39675 0.36153 0.65329 0.0
C1928 C 0.43745 0.38353 0.63345 0.0
C1929 C 0.39058 0.37958 0.64031 0.0
C1930 C 0.46745 0.4161 0.61819 0.0
C1931 C 0.48939 0.372 0.6013 0.0
N1932 N 0.41086 0.38967 0.63061 0.0
N1933 N 0.46915 0.36845 0.61247 0.0
H1934 H 0.34925 0.71924 0.32618 0.0
H1935 H 0.37163 0.67377 0.41721 0.0
H1936 H 0.32198 0.76901 0.36697 0.0
H1937 H 0.36202 0.61528 0.37774 0.0
H1938 H 0.35095 0.70849 0.39958 0.0
H1939 H 0.35208 0.68028 0.34487 0.0
C1940 C 0.34354 0.72187 0.33903 0.0
C1941 C 0.33574 0.74743 0.34511 0.0
C1942 C 0.3528 0.6879 0.39492 0.0
C1943 C 0.33923 0.70311 0.36656 0.0
C1944 C 0.36465 0.6681 0.40496 0.0
C1945 C 0.36893 0.64173 0.39883 0.0
C1946 C 0.34581 0.68139 0.37854 0.0
C1947 C 0.35929 0.63541 0.38293 0.0
C1948 C 0.34499 0.6996 0.34967 0.0
C1949 C 0.32826 0.74967 0.36182 0.0
N1950 N 0.34874 0.65529 0.37318 0.0
N1951 N 0.33073 0.72789 0.37207 0.0
H1952 H 0.11575 0.04899 0.09302 0.0
H1953 H 0.24064 0.07557 0.15271 0.0
H1954 H 0.1588 0.98293 0.11643 0.0
H1955 H 0.21759 0.13126 0.1138 0.0
H1956 H 0.20938 0.04191 0.14126 0.0
H1957 H 0.15109 0.08043 0.10238 0.0
C1958 C 0.13281 0.04113 0.10004 0.0
C1959 C 0.13462 0.01339 0.10383 0.0
C1960 C 0.21152 0.0614 0.13514 0.0
C1961 C 0.1748 0.04916 0.1148 0.0
C1962 C 0.22963 0.08061 0.14157 0.0
C1963 C 0.23231 0.10622 0.13403 0.0
C1964 C 0.19558 0.06809 0.12132 0.0
C1965 C 0.21625 0.11183 0.12006 0.0
C1966 C 0.15298 0.05901 0.10533 0.0
C1967 C 0.157 0.00414 0.11301 0.0
N1968 N 0.19851 0.09301 0.11422 0.0
N1969 N 0.17618 0.02208 0.11835 0.0
H1970 H 0.22508 0.86375 0.37949 0.0
H1971 H 0.16398 0.0142 0.37589 0.0
H1972 H 0.24836 0.92118 0.3416 0.0
H1973 H 0.12267 0.94569 0.39781 0.0
H1974 H 0.20126 0.98374 0.36752 0.0
H1975 H 0.19366 0.89731 0.39073 0.0
C1976 C 0.22385 0.88353 0.37362 0.0
C1977 C 0.2396 0.88963 0.35961 0.0
C1978 C 0.18411 0.97552 0.37429 0.0
C1979 C 0.20355 0.9282 0.37248 0.0
C1980 C 0.16302 0.99285 0.37917 0.0
C1981 C 0.1404 0.98235 0.38762 0.0
C1982 C 0.18259 0.94768 0.37812 0.0
C1983 C 0.13977 0.95451 0.39128 0.0
C1984 C 0.20589 0.90266 0.38006 0.0
C1985 C 0.2372 0.91569 0.35262 0.0
N1986 N 0.16058 0.93815 0.38656 0.0
N1987 N 0.21938 0.93404 0.3591 0.0
H1988 H 0.27363 0.85829 0.61353 0.0
H1989 H 0.32864 0.01135 0.61281 0.0
H1990 H 0.25012 0.91734 0.65038 0.0
H1991 H 0.37104 0.94394 0.59036 0.0
H1992 H 0.29354 0.97967 0.62266 0.0
H1993 H 0.30362 0.89211 0.60098 0.0
C1994 C 0.27453 0.87851 0.61885 0.0
C1995 C 0.25895 0.8852 0.63281 0.0
C1996 C 0.31042 0.97193 0.61545 0.0
C1997 C 0.29329 0.92395 0.61856 0.0
C1998 C 0.33026 0.98998 0.6097 0.0
C1999 C 0.35257 0.98017 0.60066 0.0
C2000 C 0.31288 0.94404 0.61195 0.0
C2001 C 0.35413 0.95225 0.59731 0.0
C2002 C 0.29164 0.89778 0.61169 0.0
C2003 C 0.26102 0.91164 0.63928 0.0
N2004 N 0.33452 0.93515 0.60291 0.0
N2005 N 0.27791 0.93011 0.63209 0.0
H2006 H 0.23091 0.0793 0.86428 0.0
H2007 H 0.38286 0.02175 0.86113 0.0
H2008 H 0.29755 0.12107 0.8406 0.0
H2009 H 0.32597 -0.00086 0.8994 0.0
H2010 H 0.34874 0.05239 0.84947 0.0
H2011 H 0.2626 0.04352 0.87318 0.0
C2012 C 0.2521 0.08065 0.8607 0.0
C2013 C 0.26171 0.10297 0.85161 0.0
C2014 C 0.34361 0.04045 0.8603 0.0
C2015 C 0.29784 0.06252 0.86179 0.0
C2016 C 0.36303 0.02298 0.86695 0.0
C2017 C 0.35703 0.00748 0.88105 0.0
C2018 C 0.31798 0.04254 0.86783 0.0
C2019 C 0.33111 0.00998 0.88818 0.0
C2020 C 0.27016 0.06042 0.8659 0.0
C2021 C 0.28942 0.10416 0.84763 0.0
N2022 N 0.31247 0.02722 0.88148 0.0
N2023 N 0.30653 0.08418 0.85271 0.0
H2024 H 0.88189 0.96884 0.86273 0.0
H2025 H 0.7302 0.91095 0.86489 0.0
H2026 H 0.82447 0.99123 0.90084 0.0
H2027 H 0.79751 0.86918 0.84191 0.0
H2028 H 0.76167 0.9467 0.87419 0.0
H2029 H 0.84814 0.93803 0.85107 0.0
C2030 C 0.86211 0.96751 0.86859 0.0
C2031 C 0.856 0.98302 0.88271 0.0
C2032 C 0.76942 0.9298 0.86699 0.0
C2033 C 0.81719 0.94774 0.86932 0.0
C2034 C 0.7515 0.90959 0.86156 0.0
C2035 C 0.76136 0.8873 0.85253 0.0
C2036 C 0.79721 0.92769 0.86315 0.0
C2037 C 0.78918 0.88608 0.84887 0.0
C2038 C 0.84286 0.94992 0.86189 0.0
C2039 C 0.82995 0.98044 0.8897 0.0
N2040 N 0.80614 0.90604 0.85415 0.0
N2041 N 0.81147 0.96308 0.88293 0.0
H2042 H 0.88564 0.04827 0.60269 0.0
H2043 H 0.7317 0.07748 0.62885 0.0
H2044 H 0.8264 0.98409 0.60835 0.0
H2045 H 0.79711 0.13568 0.63333 0.0
H2046 H 0.7646 0.04324 0.61976 0.0
H2047 H 0.8518 0.08109 0.61183 0.0
C2048 C 0.86542 0.04107 0.60573 0.0
C2049 C 0.85879 0.01339 0.60449 0.0
C2050 C 0.77171 0.06345 0.62289 0.0
C2051 C 0.81982 0.05097 0.61512 0.0
C2052 C 0.75298 0.08296 0.62829 0.0
C2053 C 0.76171 0.10941 0.6322 0.0
C2054 C 0.79923 0.07061 0.62119 0.0
C2055 C 0.78943 0.11556 0.63048 0.0
C2056 C 0.84609 0.05985 0.61098 0.0
C2057 C 0.83224 0.00527 0.60862 0.0
N2058 N 0.80714 0.09636 0.6251 0.0
N2059 N 0.81368 0.02402 0.61377 0.0
H2060 H 0.66466 0.00287 0.40592 0.0
H2061 H 0.68906 0.12533 0.3439 0.0
H2062 H 0.60819 0.02359 0.36693 0.0
H2063 H 0.75562 0.08481 0.36843 0.0
H2064 H 0.65813 0.09007 0.35396 0.0
H2065 H 0.69763 0.03431 0.39397 0.0
C2066 C 0.65929 0.01342 0.39467 0.0
C2067 C 0.63368 0.00997 0.38724 0.0
C2068 C 0.67955 0.0887 0.35701 0.0
C2069 C 0.67105 0.04693 0.37393 0.0
C2070 C 0.69715 0.10883 0.35131 0.0
C2071 C 0.72489 0.10771 0.3552 0.0
C2072 C 0.68968 0.06764 0.36699 0.0
C2073 C 0.73441 0.08604 0.3649 0.0
C2074 C 0.67812 0.03164 0.38795 0.0
C2075 C 0.62764 0.02549 0.37312 0.0
N2076 N 0.71675 0.06691 0.37062 0.0
N2077 N 0.64611 0.04335 0.36697 0.0
H2078 H 0.74099 0.91495 0.15041 0.0
H2079 H 0.62049 0.94227 0.08755 0.0
H2080 H 0.71956 0.85897 0.11138 0.0
H2081 H 0.66103 0.0078 0.11311 0.0
H2082 H 0.65573 0.91093 0.09711 0.0
H2083 H 0.71126 0.94921 0.13782 0.0
C2084 C 0.73063 0.91013 0.13895 0.0
C2085 C 0.73326 0.88435 0.13166 0.0
C2086 C 0.65715 0.93223 0.10047 0.0
C2087 C 0.69839 0.92287 0.11768 0.0
C2088 C 0.63703 0.95006 0.09505 0.0
C2089 C 0.63809 0.9776 0.09945 0.0
C2090 C 0.67815 0.94192 0.11067 0.0
C2091 C 0.65981 0.98675 0.10923 0.0
C2092 C 0.71347 0.92958 0.13188 0.0
C2093 C 0.71822 0.87867 0.11733 0.0
N2094 N 0.67891 0.96885 0.11469 0.0
N2095 N 0.70133 0.89772 0.11085 0.0
H2096 H 0.65925 0.4832 0.61312 0.0
H2097 H 0.71593 0.63537 0.61313 0.0
H2098 H 0.61552 0.55136 0.59255 0.0
H2099 H 0.7412 0.57568 0.64923 0.0
H2100 H 0.68422 0.6023 0.60163 0.0
H2101 H 0.69502 0.5145 0.62251 0.0
C2102 C 0.65744 0.50467 0.61034 0.0
C2103 C 0.63462 0.51478 0.60192 0.0
C2104 C 0.69693 0.59639 0.61197 0.0
C2105 C 0.67507 0.55048 0.61269 0.0
C2106 C 0.71505 0.61524 0.61858 0.0
C2107 C 0.73168 0.60828 0.63206 0.0
C2108 C 0.69536 0.57025 0.61884 0.0
C2109 C 0.72959 0.58183 0.63854 0.0
C2110 C 0.67767 0.5225 0.61582 0.0
C2111 C 0.63284 0.54282 0.599 0.0
N2112 N 0.71173 0.56374 0.63186 0.0
N2113 N 0.65286 0.5597 0.60433 0.0
H2114 H 0.75921 0.41097 0.8637 0.0
H2115 H 0.60773 0.47005 0.86322 0.0
H2116 H 0.69124 0.37068 0.84047 0.0
H2117 H 0.6665 0.49179 0.90063 0.0
H2118 H 0.64111 0.43945 0.85078 0.0
H2119 H 0.72832 0.44695 0.87332 0.0
C2120 C 0.7379 0.41 0.86037 0.0
C2121 C 0.72768 0.38804 0.85118 0.0
C2122 C 0.64682 0.45118 0.86159 0.0
C2123 C 0.69245 0.42871 0.86219 0.0
C2124 C 0.62782 0.46864 0.86869 0.0
C2125 C 0.63455 0.48386 0.88278 0.0
C2126 C 0.67277 0.4488 0.86868 0.0
C2127 C 0.66079 0.48114 0.88944 0.0
C2128 C 0.72029 0.43034 0.86598 0.0
C2129 C 0.69984 0.38731 0.84754 0.0
N2130 N 0.67901 0.46389 0.88232 0.0
N2131 N 0.68318 0.40739 0.85302 0.0
H2132 H 0.87335 0.44225 0.09183 0.0
H2133 H 0.74933 0.41477 0.1519 0.0
H2134 H 0.83083 0.50795 0.11598 0.0
H2135 H 0.77219 0.35946 0.11272 0.0
H2136 H 0.78002 0.4488 0.14029 0.0
H2137 H 0.83784 0.41081 0.10088 0.0
C2138 C 0.85635 0.45004 0.09894 0.0
C2139 C 0.85478 0.47767 0.10306 0.0
C2140 C 0.77795 0.42932 0.13413 0.0
C2141 C 0.81439 0.44187 0.11369 0.0
C2142 C 0.76017 0.40989 0.14066 0.0
C2143 C 0.75766 0.38426 0.13312 0.0
C2144 C 0.79372 0.42283 0.1202 0.0
C2145 C 0.77344 0.37889 0.119 0.0
C2146 C 0.83608 0.43215 0.10405 0.0
C2147 C 0.83246 0.48682 0.11233 0.0
N2148 N 0.79088 0.39791 0.11307 0.0
N2149 N 0.81319 0.46886 0.11751 0.0
H2150 H 0.73102 0.58008 0.36638 0.0
H2151 H 0.88271 0.52178 0.36345 0.0
H2152 H 0.79714 0.62024 0.3412 0.0
H2153 H 0.82722 0.50331 0.40327 0.0
H2154 H 0.84841 0.55179 0.35133 0.0
H2155 H 0.76299 0.54506 0.37604 0.0
C2156 C 0.75214 0.5812 0.36264 0.0
C2157 C 0.76154 0.60288 0.35291 0.0
C2158 C 0.84362 0.54088 0.3626 0.0
C2159 C 0.79798 0.56329 0.36394 0.0
C2160 C 0.86315 0.52378 0.36952 0.0
C2161 C 0.85753 0.50953 0.38416 0.0
C2162 C 0.81829 0.54382 0.3704 0.0
C2163 C 0.83198 0.51304 0.39161 0.0
C2164 C 0.77037 0.56142 0.36827 0.0
C2165 C 0.78918 0.60382 0.34871 0.0
N2166 N 0.81322 0.52984 0.38463 0.0
N2167 N 0.80643 0.58427 0.35421 0.0
H2168 H 0.22358 0.41445 0.36277 0.0
H2169 H 0.37528 0.47277 0.35923 0.0
H2170 H 0.29056 0.37327 0.33907 0.0
H2171 H 0.31942 0.49386 0.39838 0.0
H2172 H 0.34068 0.44301 0.34727 0.0
H2173 H 0.25499 0.45075 0.37148 0.0
C2174 C 0.24477 0.41336 0.35915 0.0
C2175 C 0.25462 0.391 0.35017 0.0
C2176 C 0.33586 0.45446 0.35835 0.0
C2177 C 0.29033 0.43204 0.36004 0.0
C2178 C 0.35556 0.47143 0.36517 0.0
C2179 C 0.35002 0.48616 0.37964 0.0
C2180 C 0.31042 0.45207 0.36609 0.0
C2181 C 0.3242 0.48357 0.3869 0.0
C2182 C 0.26265 0.43387 0.36422 0.0
C2183 C 0.28227 0.39017 0.34604 0.0
N2184 N 0.3053 0.46676 0.38005 0.0
N2185 N 0.29917 0.41041 0.35098 0.0
H2186 H 0.3687 0.54834 0.09066 0.0
H2187 H 0.24857 0.57558 0.15371 0.0
H2188 H 0.32794 0.48257 0.11581 0.0
H2189 H 0.27014 0.63177 0.11485 0.0
H2190 H 0.27784 0.54115 0.14084 0.0
H2191 H 0.33344 0.5796 0.10026 0.0
C2192 C 0.3521 0.54049 0.09808 0.0
C2193 C 0.35102 0.51291 0.10237 0.0
C2194 C 0.27575 0.56087 0.13499 0.0
C2195 C 0.31092 0.54852 0.11366 0.0
C2196 C 0.25885 0.58041 0.14223 0.0
C2197 C 0.25643 0.60631 0.13508 0.0
C2198 C 0.29077 0.56759 0.12078 0.0
C2199 C 0.27135 0.61198 0.1207 0.0
C2200 C 0.33196 0.55827 0.10352 0.0
C2201 C 0.3292 0.50367 0.11204 0.0
N2202 N 0.28799 0.59284 0.11407 0.0
N2203 N 0.31009 0.52154 0.11756 0.0
H2204 H 0.21478 0.63312 0.87821 0.0
H2205 H 0.15838 0.48075 0.87609 0.0
H2206 H 0.24016 0.5746 0.84143 0.0
H2207 H 0.11519 0.54789 0.89828 0.0
H2208 H 0.19415 0.51243 0.86719 0.0
H2209 H 0.18338 0.5995 0.88948 0.0
C2210 C 0.21398 0.61312 0.87258 0.0
C2211 C 0.23054 0.60662 0.85898 0.0
C2212 C 0.17693 0.52012 0.87413 0.0
C2213 C 0.19459 0.568 0.87189 0.0
C2214 C 0.1567 0.50206 0.87933 0.0
C2215 C 0.13401 0.51179 0.88803 0.0
C2216 C 0.17444 0.54793 0.87783 0.0
C2217 C 0.1324 0.53965 0.89157 0.0
C2218 C 0.19605 0.59395 0.87904 0.0
C2219 C 0.22857 0.58035 0.85223 0.0
N2220 N 0.15239 0.55676 0.8865 0.0
N2221 N 0.21089 0.56196 0.85876 0.0
H2222 H 0.26618 0.41198 0.62739 0.0
H2223 H 0.11432 0.46954 0.63086 0.0
H2224 H 0.1993 0.37034 0.65088 0.0
H2225 H 0.17037 0.49155 0.59193 0.0
H2226 H 0.14873 0.43939 0.64241 0.0
H2227 H 0.23453 0.44789 0.61842 0.0
C2228 C 0.24496 0.41069 0.6309 0.0
C2229 C 0.23523 0.38834 0.63992 0.0
C2230 C 0.15357 0.45107 0.63143 0.0
C2231 C 0.19922 0.42893 0.62975 0.0
C2232 C 0.13394 0.46828 0.62479 0.0
C2233 C 0.13943 0.48344 0.61045 0.0
C2234 C 0.17903 0.44889 0.62373 0.0
C2235 C 0.16533 0.48099 0.60322 0.0
C2236 C 0.22694 0.43098 0.62567 0.0
C2237 C 0.20752 0.38725 0.64389 0.0
N2238 N 0.18419 0.46396 0.60993 0.0
N2239 N 0.19049 0.40728 0.63881 0.0
H2240 H 0.26887 0.22378 0.19909 0.0
H2241 H 0.22796 0.26954 0.29069 0.0
H2242 H 0.29227 0.17965 0.24293 0.0
H2243 H 0.19897 0.30986 0.24674 0.0
H2244 H 0.25444 0.23844 0.27346 0.0
H2245 H 0.24431 0.25643 0.2163 0.0
C2246 C 0.2683 0.22073 0.21237 0.0
C2247 C 0.28213 0.1989 0.21969 0.0
C2248 C 0.24257 0.25425 0.26755 0.0
C2249 C 0.25492 0.23651 0.23946 0.0
C2250 C 0.22777 0.27219 0.27738 0.0
C2251 C 0.21163 0.29233 0.27002 0.0
C2252 C 0.24103 0.25643 0.25026 0.0
C2253 C 0.21143 0.29464 0.25278 0.0
C2254 C 0.25458 0.23951 0.22219 0.0
C2255 C 0.28154 0.19615 0.23691 0.0
N2256 N 0.22582 0.27674 0.24342 0.0
N2257 N 0.26818 0.21485 0.24626 0.0
H2258 H 0.97692 0.97502 0.54202 0.0
H2259 H 0.01714 0.01281 0.44895 0.0
H2260 H 0.93098 0.94904 0.49942 0.0
H2261 H 0.06204 0.04059 0.49154 0.0
H2262 H 0.98637 0.98785 0.46718 0.0
H2263 H 0.00834 -0.00075 0.5238 0.0
C2264 C 0.97322 0.97493 0.5288 0.0
C2265 C 0.95128 0.96043 0.52211 0.0
C2266 C 0.00308 -0.00085 0.47258 0.0
C2267 C 0.98742 0.9873 0.5012 0.0
C2268 C 0.0208 0.0131 0.46217 0.0
C2269 C 0.0422 0.0284 0.46885 0.0
C2270 C 0.00674 0.0007 0.48978 0.0
C2271 C 0.04581 0.02877 0.48602 0.0
C2272 C 0.99128 0.98848 0.5184 0.0
C2273 C 0.94762 0.96026 0.50495 0.0
N2274 N 0.02812 0.01519 0.49595 0.0
N2275 N 0.96562 0.97345 0.49503 0.0
H2276 H 0.2908 0.67721 0.74887 0.0
H2277 H 0.2001 0.81279 0.74475 0.0
H2278 H 0.26557 0.72252 0.79189 0.0
H2279 H 0.22667 0.76824 0.70174 0.0
H2280 H 0.22444 0.7802 0.76239 0.0
H2281 H 0.2665 0.70988 0.73128 0.0
C2282 C 0.27966 0.69378 0.75456 0.0
C2283 C 0.27977 0.69715 0.77174 0.0
C2284 C 0.2252 0.77772 0.74908 0.0
C2285 C 0.25262 0.73476 0.75193 0.0
C2286 C 0.21155 0.79641 0.73908 0.0
C2287 C 0.21181 0.79323 0.72188 0.0
C2288 C 0.23897 0.7557 0.74174 0.0
C2289 C 0.22646 0.77155 0.71499 0.0
C2290 C 0.26603 0.71252 0.74458 0.0
C2291 C 0.26549 0.71907 0.77865 0.0
N2292 N 0.23938 0.7535 0.72495 0.0
N2293 N 0.25256 0.73715 0.76871 0.0
H2294 H 0.42792 0.95102 0.9924 0.0
H2295 H 0.56029 0.04637 -0.00356 0.0
H2296 H 0.47208 0.97798 0.94934 0.0
H2297 H 0.51735 0.01743 0.03948 0.0
H2298 H 0.52782 0.02186 0.97877 0.0
H2299 H 0.45948 0.97684 0.00995 0.0
C2300 C 0.44399 0.96284 0.9867 0.0
C2301 C 0.44739 0.96276 0.96952 0.0
C2302 C 0.52564 0.02067 0.99209 0.0
C2303 C 0.48372 0.99169 0.98928 0.0
C2304 C 0.54425 0.03444 0.0021 0.0
C2305 C 0.54154 0.03344 0.01931 0.0
C2306 C 0.50421 0.00603 -0.00056 0.0
C2307 C 0.52029 0.01819 0.0262 0.0
C2308 C 0.46209 0.97736 -0.00335 0.0
C2309 C 0.46863 0.97798 0.96258 0.0
N2310 N 0.50236 0.00512 0.01624 0.0
N2311 N 0.48611 0.99175 0.9725 0.0
H2312 H 0.28828 0.81923 0.24777 0.0
H2313 H 0.1955 0.685 0.24541 0.0
H2314 H 0.26298 0.77556 0.29137 0.0
H2315 H 0.22232 0.72795 0.20188 0.0
H2316 H 0.2193 0.71855 0.26268 0.0
H2317 H 0.26186 0.78747 0.23071 0.0
C2318 C 0.27657 0.80332 0.25371 0.0
C2319 C 0.27744 0.80001 0.27089 0.0
C2320 C 0.22019 0.7205 0.24934 0.0
C2321 C 0.24797 0.76333 0.25167 0.0
C2322 C 0.20686 0.70125 0.23956 0.0
C2323 C 0.20745 0.70365 0.22232 0.0
C2324 C 0.23398 0.74226 0.24174 0.0
C2325 C 0.22193 0.72522 0.21518 0.0
C2326 C 0.26175 0.78505 0.24403 0.0
C2327 C 0.2624 0.77891 0.27813 0.0
N2328 N 0.23458 0.74377 0.22493 0.0
N2329 N 0.24841 0.7612 0.26846 0.0
H2330 H 0.41709 0.01169 0.50689 0.0
H2331 H 0.57265 0.97856 0.48418 0.0
H2332 H 0.48584 0.05208 0.5291 0.0
H2333 H 0.50431 0.93495 0.46386 0.0
H2334 H 0.54104 0.00637 0.50057 0.0
H2335 H 0.44861 0.98356 0.49057 0.0
C2336 C 0.43883 0.01465 0.50819 0.0
C2337 C 0.44906 0.03427 0.51906 0.0
C2338 C 0.53295 0.9906 0.4926 0.0
C2339 C 0.48504 0.00245 0.50077 0.0
C2340 C 0.55097 0.97482 0.48333 0.0
C2341 C 0.5409 0.95444 0.47294 0.0
C2342 C 0.50477 0.98594 0.4913 0.0
C2343 C 0.51273 0.95031 0.47199 0.0
C2344 C 0.45679 -0.00133 0.49897 0.0
C2345 C 0.4773 0.03737 0.52057 0.0
N2346 N 0.49559 0.96596 0.48106 0.0
N2347 N 0.49433 0.02164 0.51151 0.0
H2348 H 0.29137 0.31187 0.74435 0.0
H2349 H 0.19581 0.17976 0.74823 0.0
H2350 H 0.26263 0.26909 0.70119 0.0
H2351 H 0.22276 0.22403 0.79127 0.0
H2352 H 0.22004 0.21245 0.73059 0.0
H2353 H 0.26487 0.28085 0.76186 0.0
C2354 C 0.27895 0.29627 0.73862 0.0
C2355 C 0.27881 0.29302 0.72143 0.0
C2356 C 0.22084 0.21488 0.7439 0.0
C2357 C 0.2492 0.25722 0.74113 0.0
C2358 C 0.20725 0.19614 0.7539 0.0
C2359 C 0.20778 0.19914 0.7711 0.0
C2360 C 0.23487 0.23672 0.75127 0.0
C2361 C 0.22239 0.22084 0.77801 0.0
C2362 C 0.26406 0.27846 0.74854 0.0
C2363 C 0.26285 0.27237 0.71445 0.0
N2364 N 0.23535 0.23886 0.76806 0.0
N2365 N 0.2488 0.25509 0.72434 0.0
H2366 H 0.01531 0.97517 0.04234 0.0
H2367 H 0.97209 0.01425 0.94997 0.0
H2368 H 0.05949 0.949 -0.0009 0.0
H2369 H 0.92832 0.04088 0.99327 0.0
H2370 H 0.00342 0.98891 0.96767 0.0
H2371 H 0.98333 -0.00046 0.02459 0.0
C2372 C 0.01851 0.97507 0.02907 0.0
C2373 C 0.04015 0.9605 0.02208 0.0
C2374 C 0.98683 4e-05 0.97333 0.0
C2375 C 0.00331 0.98755 0.00169 0.0
C2376 C 0.96879 0.01421 0.96323 0.0
C2377 C 0.94754 0.02928 0.97027 0.0
C2378 C 0.98365 0.00115 0.99058 0.0
C2379 C 0.94443 0.02924 0.98747 0.0
C2380 C 0.00011 0.98869 0.01894 0.0
C2381 C 0.04312 0.96029 0.00486 0.0
N2382 N 0.96242 0.01546 -0.00291 0.0
N2383 N 0.0248 0.97359 0.99521 0.0
H2384 H 0.76486 0.72185 0.69929 0.0
H2385 H 0.72636 0.76554 0.79167 0.0
H2386 H 0.79205 0.67843 0.74258 0.0
H2387 H 0.69855 0.80847 0.74835 0.0
H2388 H 0.75115 0.73382 0.77394 0.0
H2389 H 0.73951 0.75313 0.717 0.0
C2390 C 0.76494 0.71862 0.71256 0.0
C2391 C 0.78016 0.69746 0.71958 0.0
C2392 C 0.73985 0.75028 0.76827 0.0
C2393 C 0.75203 0.73356 0.73991 0.0
C2394 C 0.726 0.76854 0.77838 0.0
C2395 C 0.71081 0.78972 0.77136 0.0
C2396 C 0.73833 0.75317 0.75102 0.0
C2397 C 0.7103 0.79245 0.75414 0.0
C2398 C 0.75076 0.73663 0.72266 0.0
C2399 C 0.78029 0.69445 0.73679 0.0
N2400 N 0.72383 0.77427 0.7445 0.0
N2401 N 0.7665 0.71243 0.74642 0.0
H2402 H 0.69918 0.31515 0.24287 0.0
H2403 H 0.79142 0.18101 0.25012 0.0
H2404 H 0.7253 0.2678 0.20087 0.0
H2405 H 0.76224 0.22651 0.29212 0.0
H2406 H 0.76752 0.21271 0.23167 0.0
H2407 H 0.72372 0.28379 0.26119 0.0
C2408 C 0.71057 0.2984 0.23756 0.0
C2409 C 0.71061 0.29405 0.22046 0.0
C2410 C 0.7661 0.2156 0.24493 0.0
C2411 C 0.73805 0.25793 0.24111 0.0
C2412 C 0.77951 0.19742 0.25539 0.0
C2413 C 0.77836 0.20112 0.27253 0.0
C2414 C 0.75168 0.23764 0.25177 0.0
C2415 C 0.76314 0.22283 0.27891 0.0
C2416 C 0.72434 0.2804 0.24795 0.0
C2417 C 0.72523 0.27196 0.21404 0.0
N2418 N 0.75046 0.24038 0.26852 0.0
N2419 N 0.73829 0.25461 0.22438 0.0
H2420 H 0.70114 0.17748 0.73865 0.0
H2421 H 0.79228 0.31222 0.74689 0.0
H2422 H 0.72671 0.22591 0.69701 0.0
H2423 H 0.76351 0.26571 0.78856 0.0
H2424 H 0.76857 0.28071 0.72822 0.0
H2425 H 0.72541 0.2087 0.7572 0.0
C2426 C 0.71235 0.19444 0.73346 0.0
C2427 C 0.71232 0.19912 0.71639 0.0
C2428 C 0.7672 0.27755 0.74146 0.0
C2429 C 0.73945 0.23509 0.73731 0.0
C2430 C 0.78051 0.29561 0.75204 0.0
C2431 C 0.77943 0.29157 0.76916 0.0
C2432 C 0.75295 0.25528 0.74813 0.0
C2433 C 0.76437 0.26964 0.77538 0.0
C2434 C 0.72596 0.21236 0.74399 0.0
C2435 C 0.7267 0.22148 0.71014 0.0
N2436 N 0.75179 0.25221 0.76486 0.0
N2437 N 0.73963 0.23875 0.72062 0.0
H2438 H 0.76198 0.76818 0.19991 0.0
H2439 H 0.72602 0.7233 0.2924 0.0
H2440 H 0.78943 0.81162 0.24314 0.0
H2441 H 0.69574 0.68178 0.24917 0.0
H2442 H 0.7505 0.75507 0.27457 0.0
H2443 H 0.73701 0.7367 0.21767 0.0
C2444 C 0.76216 0.7714 0.21317 0.0
C2445 C 0.77739 0.79259 0.22017 0.0
C2446 C 0.73874 0.7389 0.26894 0.0
C2447 C 0.74974 0.75625 0.24056 0.0
C2448 C 0.72509 0.72058 0.2791 0.0
C2449 C 0.70927 0.69982 0.27214 0.0
C2450 C 0.73639 0.73646 0.25169 0.0
C2451 C 0.70802 0.69747 0.2549 0.0
C2452 C 0.74821 0.75326 0.22331 0.0
C2453 C 0.77766 0.79558 0.23738 0.0
N2454 N 0.72136 0.71569 0.24522 0.0
N2455 N 0.76413 0.77746 0.24704 0.0
H2456 H 0.47157 0.47689 0.04251 0.0
H2457 H 0.5182 0.51447 0.95056 0.0
H2458 H 0.43017 0.44835 -0.0012 0.0
H2459 H 0.55928 0.54331 0.9943 0.0
H2460 H 0.48648 0.48911 0.96796 0.0
H2461 H 0.50355 0.50185 0.02508 0.0
C2462 C 0.46894 0.47641 0.02919 0.0
C2463 C 0.44811 0.46097 0.02198 0.0
C2464 C 0.50256 0.50073 0.97379 0.0
C2465 C 0.485 0.48868 0.00198 0.0
C2466 C 0.52084 0.51491 0.96387 0.0
C2467 C 0.54147 0.53059 0.97111 0.0
C2468 C 0.50486 0.50244 0.99107 0.0
C2469 C 0.5437 0.53119 0.98835 0.0
C2470 C 0.48736 0.49037 0.01925 0.0
C2471 C 0.4459 0.46031 0.00473 0.0
N2472 N 0.52548 0.51737 -0.0022 0.0
N2473 N 0.46424 0.47393 0.99526 0.0
H2474 H 0.06773 0.53821 0.49967 0.0
H2475 H 0.93194 0.44795 0.4947 0.0
H2476 H 0.02148 0.5134 0.54239 0.0
H2477 H 0.97826 0.47276 0.45202 0.0
H2478 H 0.96475 0.47157 0.51256 0.0
H2479 H 0.03601 0.51294 0.48193 0.0
C2480 C 0.05115 0.52696 0.50527 0.0
C2481 C 0.04721 0.5275 0.5224 0.0
C2482 C 0.96764 0.47203 0.49928 0.0
C2483 C 0.01069 0.49923 0.50241 0.0
C2484 C 0.94885 0.45874 0.48915 0.0
C2485 C 0.95238 0.45884 0.47198 0.0
C2486 C 0.99008 0.48532 0.49209 0.0
C2487 C 0.97468 0.47271 0.46524 0.0
C2488 C 0.03296 0.51276 0.4952 0.0
C2489 C 0.02533 0.51304 0.52919 0.0
N2490 N 0.99276 0.48537 0.47532 0.0
N2491 N 0.00776 0.49958 0.51916 0.0
H2492 H 0.06073 0.44739 0.9923 0.0
H2493 H 0.92904 0.54315 -0.00075 0.0
H2494 H 0.01502 0.47587 0.95021 0.0
H2495 H 0.97397 0.5136 0.04137 0.0
H2496 H 0.9601 0.5182 0.98092 0.0
H2497 H 0.02959 0.47225 0.01062 0.0
C2498 C 0.04437 0.4593 0.98698 0.0
C2499 C 0.04046 0.46 0.96984 0.0
C2500 C 0.96301 0.51694 0.99418 0.0
C2501 C 0.00463 0.48785 0.99048 0.0
C2502 C 0.94521 0.53098 0.00457 0.0
C2503 C 0.94894 0.53003 0.02172 0.0
C2504 C 0.98468 0.50207 0.00109 0.0
C2505 C 0.97028 0.51439 0.02817 0.0
C2506 C 0.02652 0.47328 -0.00263 0.0
C2507 C 0.01886 0.47529 0.9634 0.0
N2508 N 0.98746 0.50109 0.01783 0.0
N2509 N 0.00166 0.48857 0.97374 0.0
H2510 H 0.46736 0.51377 0.44817 0.0
H2511 H 0.51082 0.47582 0.54064 0.0
H2512 H 0.4237 0.54125 0.49131 0.0
H2513 H 0.55608 0.4513 0.49746 0.0
H2514 H 0.47817 0.49926 0.52285 0.0
H2515 H 0.49855 0.48856 0.46598 0.0
C2516 C 0.46403 0.51391 0.46143 0.0
C2517 C 0.44288 0.52923 0.46838 0.0
C2518 C 0.49532 0.48896 0.51723 0.0
C2519 C 0.47888 0.50128 0.48884 0.0
C2520 C 0.51408 0.47587 0.52738 0.0
C2521 C 0.53622 0.46205 0.52041 0.0
C2522 C 0.4987 0.48803 0.49999 0.0
C2523 C 0.5393 0.462 0.50321 0.0
C2524 C 0.482 0.49983 0.4716 0.0
C2525 C 0.43973 0.52942 0.48558 0.0
N2526 N 0.52065 0.47477 0.49353 0.0
N2527 N 0.45769 0.51574 0.49528 0.0
loop_
_geom_bond_atom_site_label_1
_geom_bond_atom_site_label_2
_geom_bond_distance
_geom_bond_site_symmetry_2
_ccdc_geom_bond_type
Co0 O3 1.970 . S
Co0 N17 1.989 . S
Co0 O25 1.967 . S
Co0 O32 1.920 . S
Co1 O4 1.966 . S
Co1 N10 2.022 . S
Co1 N18 1.993 . S
Co1 O26 1.941 . S
C2 O3 1.258 . S
C2 O4 1.263 . S
O3 Co0 1.970 . S
O3 C2 1.258 . S
O4 Co1 1.966 . S
O4 C2 1.263 . S
C5 O6 1.235 . S
C5 O32 1.289 . S
O6 C5 1.235 . S
C7 C9 1.400 . S
C7 N10 1.351 . S
C7 C12 1.501 . S
C8 C9 1.387 . S
C8 N11 1.341 . S
C9 C7 1.400 . S
C9 C8 1.387 . S
N10 Co1 2.022 . S
N10 C7 1.351 . S
N10 N11 1.365 . S
N11 C8 1.341 . S
N11 N10 1.365 . S
N11 H31 0.862 . S
C12 C7 1.501 . S
C12 H13 0.961 . S
C12 H14 0.961 . S
C12 H15 0.960 . S
H13 C12 0.961 . S
H14 C12 0.961 . S
H15 C12 0.960 . S
C16 N17 1.342 . S
C16 C20 1.401 . S
C16 C21 1.499 . S
N17 Co0 1.989 . S
N17 C16 1.342 . S
N17 N18 1.388 . S
N18 Co1 1.993 . S
N18 N17 1.388 . S
N18 C19 1.346 . S
C19 N18 1.346 . S
C19 C20 1.396 . S
C19 C29 1.510 . S
C20 C16 1.401 . S
C20 C19 1.396 . S
C21 C16 1.499 . S
C21 H22 0.959 . S
C21 H23 0.960 . S
C21 H24 0.961 . S
H22 C21 0.959 . S
H23 C21 0.960 . S
H24 C21 0.961 . S
O25 Co0 1.967 . S
O25 C33 1.258 . S
O26 Co1 1.941 . S
O26 C33 1.266 . S
H27 C29 0.959 . S
H28 C29 0.961 . S
C29 C19 1.510 . S
C29 H27 0.959 . S
C29 H28 0.961 . S
C29 H30 0.960 . S
H30 C29 0.960 . S
H31 N11 0.862 . S
O32 Co0 1.920 . S
O32 C5 1.289 . S
C33 O25 1.258 . S
C33 O26 1.266 . S
Co34 O37 1.970 . S
Co34 N51 1.989 . S
Co34 O59 1.967 . S
Co34 O66 1.920 . S
Co35 O38 1.966 . S
Co35 N44 2.022 . S
Co35 N52 1.993 . S
Co35 O60 1.941 . S
C36 O37 1.258 . S
C36 O38 1.263 . S
O37 Co34 1.970 . S
O37 C36 1.258 . S
O38 Co35 1.966 . S
O38 C36 1.263 . S
C39 O40 1.235 . S
C39 O66 1.289 . S
O40 C39 1.235 . S
C41 C43 1.400 . S
C41 N44 1.351 . S
C41 C46 1.501 . S
C42 C43 1.387 . S
C42 N45 1.341 . S
C43 C41 1.400 . S
C43 C42 1.387 . S
N44 Co35 2.022 . S
N44 C41 1.351 . S
N44 N45 1.365 . S
N45 C42 1.341 . S
N45 N44 1.365 . S
N45 H65 0.862 . S
C46 C41 1.501 . S
C46 H47 0.961 . S
C46 H48 0.961 . S
C46 H49 0.960 . S
H47 C46 0.961 . S
H48 C46 0.961 . S
H49 C46 0.960 . S
C50 N51 1.342 . S
C50 C54 1.401 . S
C50 C55 1.499 . S
N51 Co34 1.989 . S
N51 C50 1.342 . S
N51 N52 1.388 . S
N52 Co35 1.993 . S
N52 N51 1.388 . S
N52 C53 1.346 . S
C53 N52 1.346 . S
C53 C54 1.396 . S
C53 C63 1.510 . S
C54 C50 1.401 . S
C54 C53 1.396 . S
C55 C50 1.499 . S
C55 H56 0.959 . S
C55 H57 0.960 . S
C55 H58 0.961 . S
H56 C55 0.959 . S
H57 C55 0.960 . S
H58 C55 0.961 . S
O59 Co34 1.967 . S
O59 C67 1.258 . S
O60 Co35 1.941 . S
O60 C67 1.266 . S
H61 C63 0.959 . S
H62 C63 0.961 . S
C63 C53 1.510 . S
C63 H61 0.959 . S
C63 H62 0.961 . S
C63 H64 0.960 . S
H64 C63 0.960 . S
H65 N45 0.862 . S
O66 Co34 1.920 . S
O66 C39 1.289 . S
C67 O59 1.258 . S
C67 O60 1.266 . S
Co68 O71 1.970 . S
Co68 N85 1.989 . S
Co68 O93 1.967 . S
Co68 O100 1.920 . S
Co69 O72 1.966 . S
Co69 N78 2.022 . S
Co69 N86 1.993 . S
Co69 O94 1.941 . S
C70 O71 1.258 . S
C70 O72 1.263 . S
O71 Co68 1.970 . S
O71 C70 1.258 . S
O72 Co69 1.966 . S
O72 C70 1.263 . S
C73 O74 1.235 . S
C73 O100 1.289 . S
O74 C73 1.235 . S
C75 C77 1.400 . S
C75 N78 1.351 . S
C75 C80 1.501 . S
C76 C77 1.387 . S
C76 N79 1.341 . S
C77 C75 1.400 . S
C77 C76 1.387 . S
N78 Co69 2.022 . S
N78 C75 1.351 . S
N78 N79 1.365 . S
N79 C76 1.341 . S
N79 N78 1.365 . S
N79 H99 0.862 . S
C80 C75 1.501 . S
C80 H81 0.961 . S
C80 H82 0.961 . S
C80 H83 0.960 . S
H81 C80 0.961 . S
H82 C80 0.961 . S
H83 C80 0.960 . S
C84 N85 1.342 . S
C84 C88 1.401 . S
C84 C89 1.499 . S
N85 Co68 1.989 . S
N85 C84 1.342 . S
N85 N86 1.388 . S
N86 Co69 1.993 . S
N86 N85 1.388 . S
N86 C87 1.346 . S
C87 N86 1.346 . S
C87 C88 1.396 . S
C87 C97 1.510 . S
C88 C84 1.401 . S
C88 C87 1.396 . S
C89 C84 1.499 . S
C89 H90 0.959 . S
C89 H91 0.960 . S
C89 H92 0.961 . S
H90 C89 0.959 . S
H91 C89 0.960 . S
H92 C89 0.961 . S
O93 Co68 1.967 . S
O93 C101 1.258 . S
O94 Co69 1.941 . S
O94 C101 1.266 . S
H95 C97 0.959 . S
H96 C97 0.961 . S
C97 C87 1.510 . S
C97 H95 0.959 . S
C97 H96 0.961 . S
C97 H98 0.960 . S
H98 C97 0.960 . S
H99 N79 0.862 . S
O100 Co68 1.920 . S
O100 C73 1.289 . S
C101 O93 1.258 . S
C101 O94 1.266 . S
Co102 O105 1.970 . S
Co102 N119 1.989 . S
Co102 O127 1.967 . S
Co102 O134 1.920 . S
Co103 O106 1.966 . S
Co103 N112 2.022 . S
Co103 N120 1.993 . S
Co103 O128 1.941 . S
C104 O105 1.258 . S
C104 O106 1.263 . S
O105 Co102 1.970 . S
O105 C104 1.258 . S
O106 Co103 1.966 . S
O106 C104 1.263 . S
C107 O108 1.235 . S
C107 O134 1.289 . S
O108 C107 1.235 . S
C109 C111 1.400 . S
C109 N112 1.351 . S
C109 C114 1.501 . S
C110 C111 1.387 . S
C110 N113 1.341 . S
C111 C109 1.400 . S
C111 C110 1.387 . S
N112 Co103 2.022 . S
N112 C109 1.351 . S
N112 N113 1.365 . S
N113 C110 1.341 . S
N113 N112 1.365 . S
N113 H133 0.862 . S
C114 C109 1.501 . S
C114 H115 0.961 . S
C114 H116 0.961 . S
C114 H117 0.960 . S
H115 C114 0.961 . S
H116 C114 0.961 . S
H117 C114 0.960 . S
C118 N119 1.342 . S
C118 C122 1.401 . S
C118 C123 1.499 . S
N119 Co102 1.989 . S
N119 C118 1.342 . S
N119 N120 1.388 . S
N120 Co103 1.993 . S
N120 N119 1.388 . S
N120 C121 1.346 . S
C121 N120 1.346 . S
C121 C122 1.396 . S
C121 C131 1.510 . S
C122 C118 1.401 . S
C122 C121 1.396 . S
C123 C118 1.499 . S
C123 H124 0.959 . S
C123 H125 0.960 . S
C123 H126 0.961 . S
H124 C123 0.959 . S
H125 C123 0.960 . S
H126 C123 0.961 . S
O127 Co102 1.967 . S
O127 C135 1.258 . S
O128 Co103 1.941 . S
O128 C135 1.266 . S
H129 C131 0.959 . S
H130 C131 0.961 . S
C131 C121 1.510 . S
C131 H129 0.959 . S
C131 H130 0.961 . S
C131 H132 0.960 . S
H132 C131 0.960 . S
H133 N113 0.862 . S
O134 Co102 1.920 . S
O134 C107 1.289 . S
C135 O127 1.258 . S
C135 O128 1.266 . S
Co136 O139 1.970 . S
Co136 N153 1.989 . S
Co136 O161 1.967 . S
Co136 O168 1.920 . S
Co137 O140 1.966 . S
Co137 N146 2.022 . S
Co137 N154 1.993 . S
Co137 O162 1.941 . S
C138 O139 1.258 . S
C138 O140 1.263 . S
O139 Co136 1.970 . S
O139 C138 1.258 . S
O140 Co137 1.966 . S
O140 C138 1.263 . S
C141 O142 1.235 . S
C141 O168 1.289 . S
O142 C141 1.235 . S
C143 C145 1.400 . S
C143 N146 1.351 . S
C143 C148 1.501 . S
C144 C145 1.387 . S
C144 N147 1.341 . S
C145 C143 1.400 . S
C145 C144 1.387 . S
N146 Co137 2.022 . S
N146 C143 1.351 . S
N146 N147 1.365 . S
N147 C144 1.341 . S
N147 N146 1.365 . S
N147 H167 0.862 . S
C148 C143 1.501 . S
C148 H149 0.961 . S
C148 H150 0.961 . S
C148 H151 0.960 . S
H149 C148 0.961 . S
H150 C148 0.961 . S
H151 C148 0.960 . S
C152 N153 1.342 . S
C152 C156 1.401 . S
C152 C157 1.499 . S
N153 Co136 1.989 . S
N153 C152 1.342 . S
N153 N154 1.388 . S
N154 Co137 1.993 . S
N154 N153 1.388 . S
N154 C155 1.346 . S
C155 N154 1.346 . S
C155 C156 1.396 . S
C155 C165 1.510 . S
C156 C152 1.401 . S
C156 C155 1.396 . S
C157 C152 1.499 . S
C157 H158 0.959 . S
C157 H159 0.960 . S
C157 H160 0.961 . S
H158 C157 0.959 . S
H159 C157 0.960 . S
H160 C157 0.961 . S
O161 Co136 1.967 . S
O161 C169 1.258 . S
O162 Co137 1.941 . S
O162 C169 1.266 . S
H163 C165 0.959 . S
H164 C165 0.961 . S
C165 C155 1.510 . S
C165 H163 0.959 . S
C165 H164 0.961 . S
C165 H166 0.960 . S
H166 C165 0.960 . S
H167 N147 0.862 . S
O168 Co136 1.920 . S
O168 C141 1.289 . S
C169 O161 1.258 . S
C169 O162 1.266 . S
Co170 O173 1.970 . S
Co170 N187 1.989 . S
Co170 O195 1.967 . S
Co170 O202 1.920 . S
Co171 O174 1.966 . S
Co171 N180 2.022 . S
Co171 N188 1.993 . S
Co171 O196 1.941 . S
C172 O173 1.258 . S
C172 O174 1.263 . S
O173 Co170 1.970 . S
O173 C172 1.258 . S
O174 Co171 1.966 . S
O174 C172 1.263 . S
C175 O176 1.235 . S
C175 O202 1.289 . S
O176 C175 1.235 . S
C177 C179 1.400 . S
C177 N180 1.351 . S
C177 C182 1.501 . S
C178 C179 1.387 . S
C178 N181 1.341 . S
C179 C177 1.400 . S
C179 C178 1.387 . S
N180 Co171 2.022 . S
N180 C177 1.351 . S
N180 N181 1.365 . S
N181 C178 1.341 . S
N181 N180 1.365 . S
N181 H201 0.862 . S
C182 C177 1.501 . S
C182 H183 0.961 . S
C182 H184 0.961 . S
C182 H185 0.960 . S
H183 C182 0.961 . S
H184 C182 0.961 . S
H185 C182 0.960 . S
C186 N187 1.342 . S
C186 C190 1.401 . S
C186 C191 1.499 . S
N187 Co170 1.989 . S
N187 C186 1.342 . S
N187 N188 1.388 . S
N188 Co171 1.993 . S
N188 N187 1.388 . S
N188 C189 1.346 . S
C189 N188 1.346 . S
C189 C190 1.396 . S
C189 C199 1.510 . S
C190 C186 1.401 . S
C190 C189 1.396 . S
C191 C186 1.499 . S
C191 H192 0.959 . S
C191 H193 0.960 . S
C191 H194 0.961 . S
H192 C191 0.959 . S
H193 C191 0.960 . S
H194 C191 0.961 . S
O195 Co170 1.967 . S
O195 C203 1.258 . S
O196 Co171 1.941 . S
O196 C203 1.266 . S
H197 C199 0.959 . S
H198 C199 0.961 . S
C199 C189 1.510 . S
C199 H197 0.959 . S
C199 H198 0.961 . S
C199 H200 0.960 . S
H200 C199 0.960 . S
H201 N181 0.862 . S
O202 Co170 1.920 . S
O202 C175 1.289 . S
C203 O195 1.258 . S
C203 O196 1.266 . S
Co204 O207 1.970 . S
Co204 N221 1.989 . S
Co204 O229 1.967 . S
Co204 O236 1.920 . S
Co205 O208 1.966 . S
Co205 N214 2.022 . S
Co205 N222 1.993 . S
Co205 O230 1.941 . S
C206 O207 1.258 . S
C206 O208 1.263 . S
O207 Co204 1.970 . S
O207 C206 1.258 . S
O208 Co205 1.966 . S
O208 C206 1.263 . S
C209 O210 1.235 . S
C209 O236 1.289 . S
O210 C209 1.235 . S
C211 C213 1.400 . S
C211 N214 1.351 . S
C211 C216 1.501 . S
C212 C213 1.387 . S
C212 N215 1.341 . S
C213 C211 1.400 . S
C213 C212 1.387 . S
N214 Co205 2.022 . S
N214 C211 1.351 . S
N214 N215 1.365 . S
N215 C212 1.341 . S
N215 N214 1.365 . S
N215 H235 0.862 . S
C216 C211 1.501 . S
C216 H217 0.961 . S
C216 H218 0.961 . S
C216 H219 0.960 . S
H217 C216 0.961 . S
H218 C216 0.961 . S
H219 C216 0.960 . S
C220 N221 1.342 . S
C220 C224 1.401 . S
C220 C225 1.499 . S
N221 Co204 1.989 . S
N221 C220 1.342 . S
N221 N222 1.388 . S
N222 Co205 1.993 . S
N222 N221 1.388 . S
N222 C223 1.346 . S
C223 N222 1.346 . S
C223 C224 1.396 . S
C223 C233 1.510 . S
C224 C220 1.401 . S
C224 C223 1.396 . S
C225 C220 1.499 . S
C225 H226 0.959 . S
C225 H227 0.960 . S
C225 H228 0.961 . S
H226 C225 0.959 . S
H227 C225 0.960 . S
H228 C225 0.961 . S
O229 Co204 1.967 . S
O229 C237 1.258 . S
O230 Co205 1.941 . S
O230 C237 1.266 . S
H231 C233 0.959 . S
H232 C233 0.961 . S
C233 C223 1.510 . S
C233 H231 0.959 . S
C233 H232 0.961 . S
C233 H234 0.960 . S
H234 C233 0.960 . S
H235 N215 0.862 . S
O236 Co204 1.920 . S
O236 C209 1.289 . S
C237 O229 1.258 . S
C237 O230 1.266 . S
Co238 O241 1.970 . S
Co238 N255 1.989 . S
Co238 O263 1.967 . S
Co238 O270 1.920 . S
Co239 O242 1.966 . S
Co239 N248 2.022 . S
Co239 N256 1.993 . S
Co239 O264 1.941 . S
C240 O241 1.258 . S
C240 O242 1.263 . S
O241 Co238 1.970 . S
O241 C240 1.258 . S
O242 Co239 1.966 . S
O242 C240 1.263 . S
C243 O244 1.235 . S
C243 O270 1.289 . S
O244 C243 1.235 . S
C245 C247 1.400 . S
C245 N248 1.351 . S
C245 C250 1.501 . S
C246 C247 1.387 . S
C246 N249 1.341 . S
C247 C245 1.400 . S
C247 C246 1.387 . S
N248 Co239 2.022 . S
N248 C245 1.351 . S
N248 N249 1.365 . S
N249 C246 1.341 . S
N249 N248 1.365 . S
N249 H269 0.862 . S
C250 C245 1.501 . S
C250 H251 0.961 . S
C250 H252 0.961 . S
C250 H253 0.960 . S
H251 C250 0.961 . S
H252 C250 0.961 . S
H253 C250 0.960 . S
C254 N255 1.342 . S
C254 C258 1.401 . S
C254 C259 1.499 . S
N255 Co238 1.989 . S
N255 C254 1.342 . S
N255 N256 1.388 . S
N256 Co239 1.993 . S
N256 N255 1.388 . S
N256 C257 1.346 . S
C257 N256 1.346 . S
C257 C258 1.396 . S
C257 C267 1.510 . S
C258 C254 1.401 . S
C258 C257 1.396 . S
C259 C254 1.499 . S
C259 H260 0.959 . S
C259 H261 0.960 . S
C259 H262 0.961 . S
H260 C259 0.959 . S
H261 C259 0.960 . S
H262 C259 0.961 . S
O263 Co238 1.967 . S
O263 C271 1.258 . S
O264 Co239 1.941 . S
O264 C271 1.266 . S
H265 C267 0.959 . S
H266 C267 0.961 . S
C267 C257 1.510 . S
C267 H265 0.959 . S
C267 H266 0.961 . S
C267 H268 0.960 . S
H268 C267 0.960 . S
H269 N249 0.862 . S
O270 Co238 1.920 . S
O270 C243 1.289 . S
C271 O263 1.258 . S
C271 O264 1.266 . S
Co272 O275 1.970 . S
Co272 N289 1.989 . S
Co272 O297 1.967 . S
Co272 O304 1.920 . S
Co273 O276 1.966 . S
Co273 N282 2.022 . S
Co273 N290 1.993 . S
Co273 O298 1.941 . S
C274 O275 1.258 . S
C274 O276 1.263 . S
O275 Co272 1.970 . S
O275 C274 1.258 . S
O276 Co273 1.966 . S
O276 C274 1.263 . S
C277 O278 1.235 . S
C277 O304 1.289 . S
O278 C277 1.235 . S
C279 C281 1.400 . S
C279 N282 1.351 . S
C279 C284 1.501 . S
C280 C281 1.387 . S
C280 N283 1.341 . S
C281 C279 1.400 . S
C281 C280 1.387 . S
N282 Co273 2.022 . S
N282 C279 1.351 . S
N282 N283 1.365 . S
N283 C280 1.341 . S
N283 N282 1.365 . S
N283 H303 0.862 . S
C284 C279 1.501 . S
C284 H285 0.961 . S
C284 H286 0.961 . S
C284 H287 0.960 . S
H285 C284 0.961 . S
H286 C284 0.961 . S
H287 C284 0.960 . S
C288 N289 1.342 . S
C288 C292 1.401 . S
C288 C293 1.499 . S
N289 Co272 1.989 . S
N289 C288 1.342 . S
N289 N290 1.388 . S
N290 Co273 1.993 . S
N290 N289 1.388 . S
N290 C291 1.346 . S
C291 N290 1.346 . S
C291 C292 1.396 . S
C291 C301 1.510 . S
C292 C288 1.401 . S
C292 C291 1.396 . S
C293 C288 1.499 . S
C293 H294 0.959 . S
C293 H295 0.960 . S
C293 H296 0.961 . S
H294 C293 0.959 . S
H295 C293 0.960 . S
H296 C293 0.961 . S
O297 Co272 1.967 . S
O297 C305 1.258 . S
O298 Co273 1.941 . S
O298 C305 1.266 . S
H299 C301 0.959 . S
H300 C301 0.961 . S
C301 C291 1.510 . S
C301 H299 0.959 . S
C301 H300 0.961 . S
C301 H302 0.960 . S
H302 C301 0.960 . S
H303 N283 0.862 . S
O304 Co272 1.920 . S
O304 C277 1.289 . S
C305 O297 1.258 . S
C305 O298 1.266 . S
Co306 O309 1.970 . S
Co306 N323 1.989 . S
Co306 O331 1.967 . S
Co306 O338 1.920 . S
Co307 O310 1.966 . S
Co307 N316 2.022 . S
Co307 N324 1.993 . S
Co307 O332 1.941 . S
C308 O309 1.258 . S
C308 O310 1.263 . S
O309 Co306 1.970 . S
O309 C308 1.258 . S
O310 Co307 1.966 . S
O310 C308 1.263 . S
C311 O312 1.235 . S
C311 O338 1.289 . S
O312 C311 1.235 . S
C313 C315 1.400 . S
C313 N316 1.351 . S
C313 C318 1.501 . S
C314 C315 1.387 . S
C314 N317 1.341 . S
C315 C313 1.400 . S
C315 C314 1.387 . S
N316 Co307 2.022 . S
N316 C313 1.351 . S
N316 N317 1.365 . S
N317 C314 1.341 . S
N317 N316 1.365 . S
N317 H337 0.862 . S
C318 C313 1.501 . S
C318 H319 0.961 . S
C318 H320 0.961 . S
C318 H321 0.960 . S
H319 C318 0.961 . S
H320 C318 0.961 . S
H321 C318 0.960 . S
C322 N323 1.342 . S
C322 C326 1.401 . S
C322 C327 1.499 . S
N323 Co306 1.989 . S
N323 C322 1.342 . S
N323 N324 1.388 . S
N324 Co307 1.993 . S
N324 N323 1.388 . S
N324 C325 1.346 . S
C325 N324 1.346 . S
C325 C326 1.396 . S
C325 C335 1.510 . S
C326 C322 1.401 . S
C326 C325 1.396 . S
C327 C322 1.499 . S
C327 H328 0.959 . S
C327 H329 0.960 . S
C327 H330 0.961 . S
H328 C327 0.959 . S
H329 C327 0.960 . S
H330 C327 0.961 . S
O331 Co306 1.967 . S
O331 C339 1.258 . S
O332 Co307 1.941 . S
O332 C339 1.266 . S
H333 C335 0.959 . S
H334 C335 0.961 . S
C335 C325 1.510 . S
C335 H333 0.959 . S
C335 H334 0.961 . S
C335 H336 0.960 . S
H336 C335 0.960 . S
H337 N317 0.862 . S
O338 Co306 1.920 . S
O338 C311 1.289 . S
C339 O331 1.258 . S
C339 O332 1.266 . S
Co340 O343 1.970 . S
Co340 N357 1.989 . S
Co340 O365 1.967 . S
Co340 O372 1.920 . S
Co341 O344 1.966 . S
Co341 N350 2.022 . S
Co341 N358 1.993 . S
Co341 O366 1.941 . S
C342 O343 1.258 . S
C342 O344 1.263 . S
O343 Co340 1.970 . S
O343 C342 1.258 . S
O344 Co341 1.966 . S
O344 C342 1.263 . S
C345 O346 1.235 . S
C345 O372 1.289 . S
O346 C345 1.235 . S
C347 C349 1.400 . S
C347 N350 1.351 . S
C347 C352 1.501 . S
C348 C349 1.387 . S
C348 N351 1.341 . S
C349 C347 1.400 . S
C349 C348 1.387 . S
N350 Co341 2.022 . S
N350 C347 1.351 . S
N350 N351 1.365 . S
N351 C348 1.341 . S
N351 N350 1.365 . S
N351 H371 0.862 . S
C352 C347 1.501 . S
C352 H353 0.961 . S
C352 H354 0.961 . S
C352 H355 0.960 . S
H353 C352 0.961 . S
H354 C352 0.961 . S
H355 C352 0.960 . S
C356 N357 1.342 . S
C356 C360 1.401 . S
C356 C361 1.499 . S
N357 Co340 1.989 . S
N357 C356 1.342 . S
N357 N358 1.388 . S
N358 Co341 1.993 . S
N358 N357 1.388 . S
N358 C359 1.346 . S
C359 N358 1.346 . S
C359 C360 1.396 . S
C359 C369 1.510 . S
C360 C356 1.401 . S
C360 C359 1.396 . S
C361 C356 1.499 . S
C361 H362 0.959 . S
C361 H363 0.960 . S
C361 H364 0.961 . S
H362 C361 0.959 . S
H363 C361 0.960 . S
H364 C361 0.961 . S
O365 Co340 1.967 . S
O365 C373 1.258 . S
O366 Co341 1.941 . S
O366 C373 1.266 . S
H367 C369 0.959 . S
H368 C369 0.961 . S
C369 C359 1.510 . S
C369 H367 0.959 . S
C369 H368 0.961 . S
C369 H370 0.960 . S
H370 C369 0.960 . S
H371 N351 0.862 . S
O372 Co340 1.920 . S
O372 C345 1.289 . S
C373 O365 1.258 . S
C373 O366 1.266 . S
Co374 O377 1.970 . S
Co374 N391 1.989 . S
Co374 O399 1.967 . S
Co374 O406 1.920 . S
Co375 O378 1.966 . S
Co375 N384 2.022 . S
Co375 N392 1.993 . S
Co375 O400 1.941 . S
C376 O377 1.258 . S
C376 O378 1.263 . S
O377 Co374 1.970 . S
O377 C376 1.258 . S
O378 Co375 1.966 . S
O378 C376 1.263 . S
C379 O380 1.235 . S
C379 O406 1.289 . S
O380 C379 1.235 . S
C381 C383 1.400 . S
C381 N384 1.351 . S
C381 C386 1.501 . S
C382 C383 1.387 . S
C382 N385 1.341 . S
C383 C381 1.400 . S
C383 C382 1.387 . S
N384 Co375 2.022 . S
N384 C381 1.351 . S
N384 N385 1.365 . S
N385 C382 1.341 . S
N385 N384 1.365 . S
N385 H405 0.862 . S
C386 C381 1.501 . S
C386 H387 0.961 . S
C386 H388 0.961 . S
C386 H389 0.960 . S
H387 C386 0.961 . S
H388 C386 0.961 . S
H389 C386 0.960 . S
C390 N391 1.342 . S
C390 C394 1.401 . S
C390 C395 1.499 . S
N391 Co374 1.989 . S
N391 C390 1.342 . S
N391 N392 1.388 . S
N392 Co375 1.993 . S
N392 N391 1.388 . S
N392 C393 1.346 . S
C393 N392 1.346 . S
C393 C394 1.396 . S
C393 C403 1.510 . S
C394 C390 1.401 . S
C394 C393 1.396 . S
C395 C390 1.499 . S
C395 H396 0.959 . S
C395 H397 0.960 . S
C395 H398 0.961 . S
H396 C395 0.959 . S
H397 C395 0.960 . S
H398 C395 0.961 . S
O399 Co374 1.967 . S
O399 C407 1.258 . S
O400 Co375 1.941 . S
O400 C407 1.266 . S
H401 C403 0.959 . S
H402 C403 0.961 . S
C403 C393 1.510 . S
C403 H401 0.959 . S
C403 H402 0.961 . S
C403 H404 0.960 . S
H404 C403 0.960 . S
H405 N385 0.862 . S
O406 Co374 1.920 . S
O406 C379 1.289 . S
C407 O399 1.258 . S
C407 O400 1.266 . S
Co408 O411 1.970 . S
Co408 N425 1.989 . S
Co408 O433 1.967 . S
Co408 O440 1.920 . S
Co409 O412 1.966 . S
Co409 N418 2.022 . S
Co409 N426 1.993 . S
Co409 O434 1.941 . S
C410 O411 1.258 . S
C410 O412 1.263 . S
O411 Co408 1.970 . S
O411 C410 1.258 . S
O412 Co409 1.966 . S
O412 C410 1.263 . S
C413 O414 1.235 . S
C413 O440 1.289 . S
O414 C413 1.235 . S
C415 C417 1.400 . S
C415 N418 1.351 . S
C415 C420 1.501 . S
C416 C417 1.387 . S
C416 N419 1.341 . S
C417 C415 1.400 . S
C417 C416 1.387 . S
N418 Co409 2.022 . S
N418 C415 1.351 . S
N418 N419 1.365 . S
N419 C416 1.341 . S
N419 N418 1.365 . S
N419 H439 0.862 . S
C420 C415 1.501 . S
C420 H421 0.961 . S
C420 H422 0.961 . S
C420 H423 0.960 . S
H421 C420 0.961 . S
H422 C420 0.961 . S
H423 C420 0.960 . S
C424 N425 1.342 . S
C424 C428 1.401 . S
C424 C429 1.499 . S
N425 Co408 1.989 . S
N425 C424 1.342 . S
N425 N426 1.388 . S
N426 Co409 1.993 . S
N426 N425 1.388 . S
N426 C427 1.346 . S
C427 N426 1.346 . S
C427 C428 1.396 . S
C427 C437 1.510 . S
C428 C424 1.401 . S
C428 C427 1.396 . S
C429 C424 1.499 . S
C429 H430 0.959 . S
C429 H431 0.960 . S
C429 H432 0.961 . S
H430 C429 0.959 . S
H431 C429 0.960 . S
H432 C429 0.961 . S
O433 Co408 1.967 . S
O433 C441 1.258 . S
O434 Co409 1.941 . S
O434 C441 1.266 . S
H435 C437 0.959 . S
H436 C437 0.961 . S
C437 C427 1.510 . S
C437 H435 0.959 . S
C437 H436 0.961 . S
C437 H438 0.960 . S
H438 C437 0.960 . S
H439 N419 0.862 . S
O440 Co408 1.920 . S
O440 C413 1.289 . S
C441 O433 1.258 . S
C441 O434 1.266 . S
Co442 O445 1.970 . S
Co442 N459 1.989 . S
Co442 O467 1.967 . S
Co442 O474 1.920 . S
Co443 O446 1.966 . S
Co443 N452 2.022 . S
Co443 N460 1.993 . S
Co443 O468 1.941 . S
C444 O445 1.258 . S
C444 O446 1.263 . S
O445 Co442 1.970 . S
O445 C444 1.258 . S
O446 Co443 1.966 . S
O446 C444 1.263 . S
C447 O448 1.235 . S
C447 O474 1.289 . S
O448 C447 1.235 . S
C449 C451 1.400 . S
C449 N452 1.351 . S
C449 C454 1.501 . S
C450 C451 1.387 . S
C450 N453 1.341 . S
C451 C449 1.400 . S
C451 C450 1.387 . S
N452 Co443 2.022 . S
N452 C449 1.351 . S
N452 N453 1.365 . S
N453 C450 1.341 . S
N453 N452 1.365 . S
N453 H473 0.862 . S
C454 C449 1.501 . S
C454 H455 0.961 . S
C454 H456 0.961 . S
C454 H457 0.960 . S
H455 C454 0.961 . S
H456 C454 0.961 . S
H457 C454 0.960 . S
C458 N459 1.342 . S
C458 C462 1.401 . S
C458 C463 1.499 . S
N459 Co442 1.989 . S
N459 C458 1.342 . S
N459 N460 1.388 . S
N460 Co443 1.993 . S
N460 N459 1.388 . S
N460 C461 1.346 . S
C461 N460 1.346 . S
C461 C462 1.396 . S
C461 C471 1.510 . S
C462 C458 1.401 . S
C462 C461 1.396 . S
C463 C458 1.499 . S
C463 H464 0.959 . S
C463 H465 0.960 . S
C463 H466 0.961 . S
H464 C463 0.959 . S
H465 C463 0.960 . S
H466 C463 0.961 . S
O467 Co442 1.967 . S
O467 C475 1.258 . S
O468 Co443 1.941 . S
O468 C475 1.266 . S
H469 C471 0.959 . S
H470 C471 0.961 . S
C471 C461 1.510 . S
C471 H469 0.959 . S
C471 H470 0.961 . S
C471 H472 0.960 . S
H472 C471 0.960 . S
H473 N453 0.862 . S
O474 Co442 1.920 . S
O474 C447 1.289 . S
C475 O467 1.258 . S
C475 O468 1.266 . S
Co476 O479 1.970 . S
Co476 N493 1.989 . S
Co476 O501 1.967 . S
Co476 O508 1.920 . S
Co477 O480 1.966 . S
Co477 N486 2.022 . S
Co477 N494 1.993 . S
Co477 O502 1.941 . S
C478 O479 1.258 . S
C478 O480 1.263 . S
O479 Co476 1.970 . S
O479 C478 1.258 . S
O480 Co477 1.966 . S
O480 C478 1.263 . S
C481 O482 1.235 . S
C481 O508 1.289 . S
O482 C481 1.235 . S
C483 C485 1.400 . S
C483 N486 1.351 . S
C483 C488 1.501 . S
C484 C485 1.387 . S
C484 N487 1.341 . S
C485 C483 1.400 . S
C485 C484 1.387 . S
N486 Co477 2.022 . S
N486 C483 1.351 . S
N486 N487 1.365 . S
N487 C484 1.341 . S
N487 N486 1.365 . S
N487 H507 0.862 . S
C488 C483 1.501 . S
C488 H489 0.961 . S
C488 H490 0.961 . S
C488 H491 0.960 . S
H489 C488 0.961 . S
H490 C488 0.961 . S
H491 C488 0.960 . S
C492 N493 1.342 . S
C492 C496 1.401 . S
C492 C497 1.499 . S
N493 Co476 1.989 . S
N493 C492 1.342 . S
N493 N494 1.388 . S
N494 Co477 1.993 . S
N494 N493 1.388 . S
N494 C495 1.346 . S
C495 N494 1.346 . S
C495 C496 1.396 . S
C495 C505 1.510 . S
C496 C492 1.401 . S
C496 C495 1.396 . S
C497 C492 1.499 . S
C497 H498 0.959 . S
C497 H499 0.960 . S
C497 H500 0.961 . S
H498 C497 0.959 . S
H499 C497 0.960 . S
H500 C497 0.961 . S
O501 Co476 1.967 . S
O501 C509 1.258 . S
O502 Co477 1.941 . S
O502 C509 1.266 . S
H503 C505 0.959 . S
H504 C505 0.961 . S
C505 C495 1.510 . S
C505 H503 0.959 . S
C505 H504 0.961 . S
C505 H506 0.960 . S
H506 C505 0.960 . S
H507 N487 0.862 . S
O508 Co476 1.920 . S
O508 C481 1.289 . S
C509 O501 1.258 . S
C509 O502 1.266 . S
Co510 O513 1.970 . S
Co510 N527 1.989 . S
Co510 O535 1.967 . S
Co510 O542 1.920 . S
Co511 O514 1.966 . S
Co511 N520 2.022 . S
Co511 N528 1.993 . S
Co511 O536 1.941 . S
C512 O513 1.258 . S
C512 O514 1.263 . S
O513 Co510 1.970 . S
O513 C512 1.258 . S
O514 Co511 1.966 . S
O514 C512 1.263 . S
C515 O516 1.235 . S
C515 O542 1.289 . S
O516 C515 1.235 . S
C517 C519 1.400 . S
C517 N520 1.351 . S
C517 C522 1.501 . S
C518 C519 1.387 . S
C518 N521 1.341 . S
C519 C517 1.400 . S
C519 C518 1.387 . S
N520 Co511 2.022 . S
N520 C517 1.351 . S
N520 N521 1.365 . S
N521 C518 1.341 . S
N521 N520 1.365 . S
N521 H541 0.862 . S
C522 C517 1.501 . S
C522 H523 0.961 . S
C522 H524 0.961 . S
C522 H525 0.960 . S
H523 C522 0.961 . S
H524 C522 0.961 . S
H525 C522 0.960 . S
C526 N527 1.342 . S
C526 C530 1.401 . S
C526 C531 1.499 . S
N527 Co510 1.989 . S
N527 C526 1.342 . S
N527 N528 1.388 . S
N528 Co511 1.993 . S
N528 N527 1.388 . S
N528 C529 1.346 . S
C529 N528 1.346 . S
C529 C530 1.396 . S
C529 C539 1.510 . S
C530 C526 1.401 . S
C530 C529 1.396 . S
C531 C526 1.499 . S
C531 H532 0.959 . S
C531 H533 0.960 . S
C531 H534 0.961 . S
H532 C531 0.959 . S
H533 C531 0.960 . S
H534 C531 0.961 . S
O535 Co510 1.967 . S
O535 C543 1.258 . S
O536 Co511 1.941 . S
O536 C543 1.266 . S
H537 C539 0.959 . S
H538 C539 0.961 . S
C539 C529 1.510 . S
C539 H537 0.959 . S
C539 H538 0.961 . S
C539 H540 0.960 . S
H540 C539 0.960 . S
H541 N521 0.862 . S
O542 Co510 1.920 . S
O542 C515 1.289 . S
C543 O535 1.258 . S
C543 O536 1.266 . S
Co544 O547 1.970 . S
Co544 N561 1.989 . S
Co544 O569 1.967 . S
Co544 O576 1.920 . S
Co545 O548 1.966 . S
Co545 N554 2.022 . S
Co545 N562 1.993 . S
Co545 O570 1.941 . S
C546 O547 1.258 . S
C546 O548 1.263 . S
O547 Co544 1.970 . S
O547 C546 1.258 . S
O548 Co545 1.966 . S
O548 C546 1.263 . S
C549 O550 1.235 . S
C549 O576 1.289 . S
O550 C549 1.235 . S
C551 C553 1.400 . S
C551 N554 1.351 . S
C551 C556 1.501 . S
C552 C553 1.387 . S
C552 N555 1.341 . S
C553 C551 1.400 . S
C553 C552 1.387 . S
N554 Co545 2.022 . S
N554 C551 1.351 . S
N554 N555 1.365 . S
N555 C552 1.341 . S
N555 N554 1.365 . S
N555 H575 0.862 . S
C556 C551 1.501 . S
C556 H557 0.961 . S
C556 H558 0.961 . S
C556 H559 0.960 . S
H557 C556 0.961 . S
H558 C556 0.961 . S
H559 C556 0.960 . S
C560 N561 1.342 . S
C560 C564 1.401 . S
C560 C565 1.499 . S
N561 Co544 1.989 . S
N561 C560 1.342 . S
N561 N562 1.388 . S
N562 Co545 1.993 . S
N562 N561 1.388 . S
N562 C563 1.346 . S
C563 N562 1.346 . S
C563 C564 1.396 . S
C563 C573 1.510 . S
C564 C560 1.401 . S
C564 C563 1.396 . S
C565 C560 1.499 . S
C565 H566 0.959 . S
C565 H567 0.960 . S
C565 H568 0.961 . S
H566 C565 0.959 . S
H567 C565 0.960 . S
H568 C565 0.961 . S
O569 Co544 1.967 . S
O569 C577 1.258 . S
O570 Co545 1.941 . S
O570 C577 1.266 . S
H571 C573 0.959 . S
H572 C573 0.961 . S
C573 C563 1.510 . S
C573 H571 0.959 . S
C573 H572 0.961 . S
C573 H574 0.960 . S
H574 C573 0.960 . S
H575 N555 0.862 . S
O576 Co544 1.920 . S
O576 C549 1.289 . S
C577 O569 1.258 . S
C577 O570 1.266 . S
Co578 O581 1.970 . S
Co578 N595 1.989 . S
Co578 O603 1.967 . S
Co578 O610 1.920 . S
Co579 O582 1.966 . S
Co579 N588 2.022 . S
Co579 N596 1.993 . S
Co579 O604 1.941 . S
C580 O581 1.258 . S
C580 O582 1.263 . S
O581 Co578 1.970 . S
O581 C580 1.258 . S
O582 Co579 1.966 . S
O582 C580 1.263 . S
C583 O584 1.235 . S
C583 O610 1.289 . S
O584 C583 1.235 . S
C585 C587 1.400 . S
C585 N588 1.351 . S
C585 C590 1.501 . S
C586 C587 1.387 . S
C586 N589 1.341 . S
C587 C585 1.400 . S
C587 C586 1.387 . S
N588 Co579 2.022 . S
N588 C585 1.351 . S
N588 N589 1.365 . S
N589 C586 1.341 . S
N589 N588 1.365 . S
N589 H609 0.862 . S
C590 C585 1.501 . S
C590 H591 0.961 . S
C590 H592 0.961 . S
C590 H593 0.960 . S
H591 C590 0.961 . S
H592 C590 0.961 . S
H593 C590 0.960 . S
C594 N595 1.342 . S
C594 C598 1.401 . S
C594 C599 1.499 . S
N595 Co578 1.989 . S
N595 C594 1.342 . S
N595 N596 1.388 . S
N596 Co579 1.993 . S
N596 N595 1.388 . S
N596 C597 1.346 . S
C597 N596 1.346 . S
C597 C598 1.396 . S
C597 C607 1.510 . S
C598 C594 1.401 . S
C598 C597 1.396 . S
C599 C594 1.499 . S
C599 H600 0.959 . S
C599 H601 0.960 . S
C599 H602 0.961 . S
H600 C599 0.959 . S
H601 C599 0.960 . S
H602 C599 0.961 . S
O603 Co578 1.967 . S
O603 C611 1.258 . S
O604 Co579 1.941 . S
O604 C611 1.266 . S
H605 C607 0.959 . S
H606 C607 0.961 . S
C607 C597 1.510 . S
C607 H605 0.959 . S
C607 H606 0.961 . S
C607 H608 0.960 . S
H608 C607 0.960 . S
H609 N589 0.862 . S
O610 Co578 1.920 . S
O610 C583 1.289 . S
C611 O603 1.258 . S
C611 O604 1.266 . S
Co612 O615 1.970 . S
Co612 N629 1.989 . S
Co612 O637 1.967 . S
Co612 O644 1.920 . S
Co613 O616 1.966 . S
Co613 N622 2.022 . S
Co613 N630 1.993 . S
Co613 O638 1.941 . S
C614 O615 1.258 . S
C614 O616 1.263 . S
O615 Co612 1.970 . S
O615 C614 1.258 . S
O616 Co613 1.966 . S
O616 C614 1.263 . S
C617 O618 1.235 . S
C617 O644 1.289 . S
O618 C617 1.235 . S
C619 C621 1.400 . S
C619 N622 1.351 . S
C619 C624 1.501 . S
C620 C621 1.387 . S
C620 N623 1.341 . S
C621 C619 1.400 . S
C621 C620 1.387 . S
N622 Co613 2.022 . S
N622 C619 1.351 . S
N622 N623 1.365 . S
N623 C620 1.341 . S
N623 N622 1.365 . S
N623 H643 0.862 . S
C624 C619 1.501 . S
C624 H625 0.961 . S
C624 H626 0.961 . S
C624 H627 0.960 . S
H625 C624 0.961 . S
H626 C624 0.961 . S
H627 C624 0.960 . S
C628 N629 1.342 . S
C628 C632 1.401 . S
C628 C633 1.499 . S
N629 Co612 1.989 . S
N629 C628 1.342 . S
N629 N630 1.388 . S
N630 Co613 1.993 . S
N630 N629 1.388 . S
N630 C631 1.346 . S
C631 N630 1.346 . S
C631 C632 1.396 . S
C631 C641 1.510 . S
C632 C628 1.401 . S
C632 C631 1.396 . S
C633 C628 1.499 . S
C633 H634 0.959 . S
C633 H635 0.960 . S
C633 H636 0.961 . S
H634 C633 0.959 . S
H635 C633 0.960 . S
H636 C633 0.961 . S
O637 Co612 1.967 . S
O637 C645 1.258 . S
O638 Co613 1.941 . S
O638 C645 1.266 . S
H639 C641 0.959 . S
H640 C641 0.961 . S
C641 C631 1.510 . S
C641 H639 0.959 . S
C641 H640 0.961 . S
C641 H642 0.960 . S
H642 C641 0.960 . S
H643 N623 0.862 . S
O644 Co612 1.920 . S
O644 C617 1.289 . S
C645 O637 1.258 . S
C645 O638 1.266 . S
Co646 O649 1.970 . S
Co646 N663 1.989 . S
Co646 O671 1.967 . S
Co646 O678 1.920 . S
Co647 O650 1.966 . S
Co647 N656 2.022 . S
Co647 N664 1.993 . S
Co647 O672 1.941 . S
C648 O649 1.258 . S
C648 O650 1.263 . S
O649 Co646 1.970 . S
O649 C648 1.258 . S
O650 Co647 1.966 . S
O650 C648 1.263 . S
C651 O652 1.235 . S
C651 O678 1.289 . S
O652 C651 1.235 . S
C653 C655 1.400 . S
C653 N656 1.351 . S
C653 C658 1.501 . S
C654 C655 1.387 . S
C654 N657 1.341 . S
C655 C653 1.400 . S
C655 C654 1.387 . S
N656 Co647 2.022 . S
N656 C653 1.351 . S
N656 N657 1.365 . S
N657 C654 1.341 . S
N657 N656 1.365 . S
N657 H677 0.862 . S
C658 C653 1.501 . S
C658 H659 0.961 . S
C658 H660 0.961 . S
C658 H661 0.960 . S
H659 C658 0.961 . S
H660 C658 0.961 . S
H661 C658 0.960 . S
C662 N663 1.342 . S
C662 C666 1.401 . S
C662 C667 1.499 . S
N663 Co646 1.989 . S
N663 C662 1.342 . S
N663 N664 1.388 . S
N664 Co647 1.993 . S
N664 N663 1.388 . S
N664 C665 1.346 . S
C665 N664 1.346 . S
C665 C666 1.396 . S
C665 C675 1.510 . S
C666 C662 1.401 . S
C666 C665 1.396 . S
C667 C662 1.499 . S
C667 H668 0.959 . S
C667 H669 0.960 . S
C667 H670 0.961 . S
H668 C667 0.959 . S
H669 C667 0.960 . S
H670 C667 0.961 . S
O671 Co646 1.967 . S
O671 C679 1.258 . S
O672 Co647 1.941 . S
O672 C679 1.266 . S
H673 C675 0.959 . S
H674 C675 0.961 . S
C675 C665 1.510 . S
C675 H673 0.959 . S
C675 H674 0.961 . S
C675 H676 0.960 . S
H676 C675 0.960 . S
H677 N657 0.862 . S
O678 Co646 1.920 . S
O678 C651 1.289 . S
C679 O671 1.258 . S
C679 O672 1.266 . S
Co680 O683 1.970 . S
Co680 N697 1.989 . S
Co680 O705 1.967 . S
Co680 O712 1.920 . S
Co681 O684 1.966 . S
Co681 N690 2.022 . S
Co681 N698 1.993 . S
Co681 O706 1.941 . S
C682 O683 1.258 . S
C682 O684 1.263 . S
O683 Co680 1.970 . S
O683 C682 1.258 . S
O684 Co681 1.966 . S
O684 C682 1.263 . S
C685 O686 1.235 . S
C685 O712 1.289 . S
O686 C685 1.235 . S
C687 C689 1.400 . S
C687 N690 1.351 . S
C687 C692 1.501 . S
C688 C689 1.387 . S
C688 N691 1.341 . S
C689 C687 1.400 . S
C689 C688 1.387 . S
N690 Co681 2.022 . S
N690 C687 1.351 . S
N690 N691 1.365 . S
N691 C688 1.341 . S
N691 N690 1.365 . S
N691 H711 0.862 . S
C692 C687 1.501 . S
C692 H693 0.961 . S
C692 H694 0.961 . S
C692 H695 0.960 . S
H693 C692 0.961 . S
H694 C692 0.961 . S
H695 C692 0.960 . S
C696 N697 1.342 . S
C696 C700 1.401 . S
C696 C701 1.499 . S
N697 Co680 1.989 . S
N697 C696 1.342 . S
N697 N698 1.388 . S
N698 Co681 1.993 . S
N698 N697 1.388 . S
N698 C699 1.346 . S
C699 N698 1.346 . S
C699 C700 1.396 . S
C699 C709 1.510 . S
C700 C696 1.401 . S
C700 C699 1.396 . S
C701 C696 1.499 . S
C701 H702 0.959 . S
C701 H703 0.960 . S
C701 H704 0.961 . S
H702 C701 0.959 . S
H703 C701 0.960 . S
H704 C701 0.961 . S
O705 Co680 1.967 . S
O705 C713 1.258 . S
O706 Co681 1.941 . S
O706 C713 1.266 . S
H707 C709 0.959 . S
H708 C709 0.961 . S
C709 C699 1.510 . S
C709 H707 0.959 . S
C709 H708 0.961 . S
C709 H710 0.960 . S
H710 C709 0.960 . S
H711 N691 0.862 . S
O712 Co680 1.920 . S
O712 C685 1.289 . S
C713 O705 1.258 . S
C713 O706 1.266 . S
Co714 O717 1.970 . S
Co714 N731 1.989 . S
Co714 O739 1.967 . S
Co714 O746 1.920 . S
Co715 O718 1.966 . S
Co715 N724 2.022 . S
Co715 N732 1.993 . S
Co715 O740 1.941 . S
C716 O717 1.258 . S
C716 O718 1.263 . S
O717 Co714 1.970 . S
O717 C716 1.258 . S
O718 Co715 1.966 . S
O718 C716 1.263 . S
C719 O720 1.235 . S
C719 O746 1.289 . S
O720 C719 1.235 . S
C721 C723 1.400 . S
C721 N724 1.351 . S
C721 C726 1.501 . S
C722 C723 1.387 . S
C722 N725 1.341 . S
C723 C721 1.400 . S
C723 C722 1.387 . S
N724 Co715 2.022 . S
N724 C721 1.351 . S
N724 N725 1.365 . S
N725 C722 1.341 . S
N725 N724 1.365 . S
N725 H745 0.862 . S
C726 C721 1.501 . S
C726 H727 0.961 . S
C726 H728 0.961 . S
C726 H729 0.960 . S
H727 C726 0.961 . S
H728 C726 0.961 . S
H729 C726 0.960 . S
C730 N731 1.342 . S
C730 C734 1.401 . S
C730 C735 1.499 . S
N731 Co714 1.989 . S
N731 C730 1.342 . S
N731 N732 1.388 . S
N732 Co715 1.993 . S
N732 N731 1.388 . S
N732 C733 1.346 . S
C733 N732 1.346 . S
C733 C734 1.396 . S
C733 C743 1.510 . S
C734 C730 1.401 . S
C734 C733 1.396 . S
C735 C730 1.499 . S
C735 H736 0.959 . S
C735 H737 0.960 . S
C735 H738 0.961 . S
H736 C735 0.959 . S
H737 C735 0.960 . S
H738 C735 0.961 . S
O739 Co714 1.967 . S
O739 C747 1.258 . S
O740 Co715 1.941 . S
O740 C747 1.266 . S
H741 C743 0.959 . S
H742 C743 0.961 . S
C743 C733 1.510 . S
C743 H741 0.959 . S
C743 H742 0.961 . S
C743 H744 0.960 . S
H744 C743 0.960 . S
H745 N725 0.862 . S
O746 Co714 1.920 . S
O746 C719 1.289 . S
C747 O739 1.258 . S
C747 O740 1.266 . S
Co748 O751 1.970 . S
Co748 N765 1.989 . S
Co748 O773 1.967 . S
Co748 O780 1.920 . S
Co749 O752 1.966 . S
Co749 N758 2.022 . S
Co749 N766 1.993 . S
Co749 O774 1.941 . S
C750 O751 1.258 . S
C750 O752 1.263 . S
O751 Co748 1.970 . S
O751 C750 1.258 . S
O752 Co749 1.966 . S
O752 C750 1.263 . S
C753 O754 1.235 . S
C753 O780 1.289 . S
O754 C753 1.235 . S
C755 C757 1.400 . S
C755 N758 1.351 . S
C755 C760 1.501 . S
C756 C757 1.387 . S
C756 N759 1.341 . S
C757 C755 1.400 . S
C757 C756 1.387 . S
N758 Co749 2.022 . S
N758 C755 1.351 . S
N758 N759 1.365 . S
N759 C756 1.341 . S
N759 N758 1.365 . S
N759 H779 0.862 . S
C760 C755 1.501 . S
C760 H761 0.961 . S
C760 H762 0.961 . S
C760 H763 0.960 . S
H761 C760 0.961 . S
H762 C760 0.961 . S
H763 C760 0.960 . S
C764 N765 1.342 . S
C764 C768 1.401 . S
C764 C769 1.499 . S
N765 Co748 1.989 . S
N765 C764 1.342 . S
N765 N766 1.388 . S
N766 Co749 1.993 . S
N766 N765 1.388 . S
N766 C767 1.346 . S
C767 N766 1.346 . S
C767 C768 1.396 . S
C767 C777 1.510 . S
C768 C764 1.401 . S
C768 C767 1.396 . S
C769 C764 1.499 . S
C769 H770 0.959 . S
C769 H771 0.960 . S
C769 H772 0.961 . S
H770 C769 0.959 . S
H771 C769 0.960 . S
H772 C769 0.961 . S
O773 Co748 1.967 . S
O773 C781 1.258 . S
O774 Co749 1.941 . S
O774 C781 1.266 . S
H775 C777 0.959 . S
H776 C777 0.961 . S
C777 C767 1.510 . S
C777 H775 0.959 . S
C777 H776 0.961 . S
C777 H778 0.960 . S
H778 C777 0.960 . S
H779 N759 0.862 . S
O780 Co748 1.920 . S
O780 C753 1.289 . S
C781 O773 1.258 . S
C781 O774 1.266 . S
Co782 O785 1.970 . S
Co782 N799 1.989 . S
Co782 O807 1.967 . S
Co782 O814 1.920 . S
Co783 O786 1.966 . S
Co783 N792 2.022 . S
Co783 N800 1.993 . S
Co783 O808 1.941 . S
C784 O785 1.258 . S
C784 O786 1.263 . S
O785 Co782 1.970 . S
O785 C784 1.258 . S
O786 Co783 1.966 . S
O786 C784 1.263 . S
C787 O788 1.235 . S
C787 O814 1.289 . S
O788 C787 1.235 . S
C789 C791 1.400 . S
C789 N792 1.351 . S
C789 C794 1.501 . S
C790 C791 1.387 . S
C790 N793 1.341 . S
C791 C789 1.400 . S
C791 C790 1.387 . S
N792 Co783 2.022 . S
N792 C789 1.351 . S
N792 N793 1.365 . S
N793 C790 1.341 . S
N793 N792 1.365 . S
N793 H813 0.862 . S
C794 C789 1.501 . S
C794 H795 0.961 . S
C794 H796 0.961 . S
C794 H797 0.960 . S
H795 C794 0.961 . S
H796 C794 0.961 . S
H797 C794 0.960 . S
C798 N799 1.342 . S
C798 C802 1.401 . S
C798 C803 1.499 . S
N799 Co782 1.989 . S
N799 C798 1.342 . S
N799 N800 1.388 . S
N800 Co783 1.993 . S
N800 N799 1.388 . S
N800 C801 1.346 . S
C801 N800 1.346 . S
C801 C802 1.396 . S
C801 C811 1.510 . S
C802 C798 1.401 . S
C802 C801 1.396 . S
C803 C798 1.499 . S
C803 H804 0.959 . S
C803 H805 0.960 . S
C803 H806 0.961 . S
H804 C803 0.959 . S
H805 C803 0.960 . S
H806 C803 0.961 . S
O807 Co782 1.967 . S
O807 C815 1.258 . S
O808 Co783 1.941 . S
O808 C815 1.266 . S
H809 C811 0.959 . S
H810 C811 0.961 . S
C811 C801 1.510 . S
C811 H809 0.959 . S
C811 H810 0.961 . S
C811 H812 0.960 . S
H812 C811 0.960 . S
H813 N793 0.862 . S
O814 Co782 1.920 . S
O814 C787 1.289 . S
C815 O807 1.258 . S
C815 O808 1.266 . S
Co816 O819 1.970 . S
Co816 N833 1.989 . S
Co816 O841 1.967 . S
Co816 O848 1.920 . S
Co817 O820 1.966 . S
Co817 N826 2.022 . S
Co817 N834 1.993 . S
Co817 O842 1.941 . S
C818 O819 1.258 . S
C818 O820 1.263 . S
O819 Co816 1.970 . S
O819 C818 1.258 . S
O820 Co817 1.966 . S
O820 C818 1.263 . S
C821 O822 1.235 . S
C821 O848 1.289 . S
O822 C821 1.235 . S
C823 C825 1.400 . S
C823 N826 1.351 . S
C823 C828 1.501 . S
C824 C825 1.387 . S
C824 N827 1.341 . S
C825 C823 1.400 . S
C825 C824 1.387 . S
N826 Co817 2.022 . S
N826 C823 1.351 . S
N826 N827 1.365 . S
N827 C824 1.341 . S
N827 N826 1.365 . S
N827 H847 0.862 . S
C828 C823 1.501 . S
C828 H829 0.961 . S
C828 H830 0.961 . S
C828 H831 0.960 . S
H829 C828 0.961 . S
H830 C828 0.961 . S
H831 C828 0.960 . S
C832 N833 1.342 . S
C832 C836 1.401 . S
C832 C837 1.499 . S
N833 Co816 1.989 . S
N833 C832 1.342 . S
N833 N834 1.388 . S
N834 Co817 1.993 . S
N834 N833 1.388 . S
N834 C835 1.346 . S
C835 N834 1.346 . S
C835 C836 1.396 . S
C835 C845 1.510 . S
C836 C832 1.401 . S
C836 C835 1.396 . S
C837 C832 1.499 . S
C837 H838 0.959 . S
C837 H839 0.960 . S
C837 H840 0.961 . S
H838 C837 0.959 . S
H839 C837 0.960 . S
H840 C837 0.961 . S
O841 Co816 1.967 . S
O841 C849 1.258 . S
O842 Co817 1.941 . S
O842 C849 1.266 . S
H843 C845 0.959 . S
H844 C845 0.961 . S
C845 C835 1.510 . S
C845 H843 0.959 . S
C845 H844 0.961 . S
C845 H846 0.960 . S
H846 C845 0.960 . S
H847 N827 0.862 . S
O848 Co816 1.920 . S
O848 C821 1.289 . S
C849 O841 1.258 . S
C849 O842 1.266 . S
Co850 O853 1.970 . S
Co850 N867 1.989 . S
Co850 O875 1.967 . S
Co850 O882 1.920 . S
Co851 O854 1.966 . S
Co851 N860 2.022 . S
Co851 N868 1.993 . S
Co851 O876 1.941 . S
C852 O853 1.258 . S
C852 O854 1.263 . S
O853 Co850 1.970 . S
O853 C852 1.258 . S
O854 Co851 1.966 . S
O854 C852 1.263 . S
C855 O856 1.235 . S
C855 O882 1.289 . S
O856 C855 1.235 . S
C857 C859 1.400 . S
C857 N860 1.351 . S
C857 C862 1.501 . S
C858 C859 1.387 . S
C858 N861 1.341 . S
C859 C857 1.400 . S
C859 C858 1.387 . S
N860 Co851 2.022 . S
N860 C857 1.351 . S
N860 N861 1.365 . S
N861 C858 1.341 . S
N861 N860 1.365 . S
N861 H881 0.862 . S
C862 C857 1.501 . S
C862 H863 0.961 . S
C862 H864 0.961 . S
C862 H865 0.960 . S
H863 C862 0.961 . S
H864 C862 0.961 . S
H865 C862 0.960 . S
C866 N867 1.342 . S
C866 C870 1.401 . S
C866 C871 1.499 . S
N867 Co850 1.989 . S
N867 C866 1.342 . S
N867 N868 1.388 . S
N868 Co851 1.993 . S
N868 N867 1.388 . S
N868 C869 1.346 . S
C869 N868 1.346 . S
C869 C870 1.396 . S
C869 C879 1.510 . S
C870 C866 1.401 . S
C870 C869 1.396 . S
C871 C866 1.499 . S
C871 H872 0.959 . S
C871 H873 0.960 . S
C871 H874 0.961 . S
H872 C871 0.959 . S
H873 C871 0.960 . S
H874 C871 0.961 . S
O875 Co850 1.967 . S
O875 C883 1.258 . S
O876 Co851 1.941 . S
O876 C883 1.266 . S
H877 C879 0.959 . S
H878 C879 0.961 . S
C879 C869 1.510 . S
C879 H877 0.959 . S
C879 H878 0.961 . S
C879 H880 0.960 . S
H880 C879 0.960 . S
H881 N861 0.862 . S
O882 Co850 1.920 . S
O882 C855 1.289 . S
C883 O875 1.258 . S
C883 O876 1.266 . S
Co884 O887 1.970 . S
Co884 N901 1.989 . S
Co884 O909 1.967 . S
Co884 O916 1.920 . S
Co885 O888 1.966 . S
Co885 N894 2.022 . S
Co885 N902 1.993 . S
Co885 O910 1.941 . S
C886 O887 1.258 . S
C886 O888 1.263 . S
O887 Co884 1.970 . S
O887 C886 1.258 . S
O888 Co885 1.966 . S
O888 C886 1.263 . S
C889 O890 1.235 . S
C889 O916 1.289 . S
O890 C889 1.235 . S
C891 C893 1.400 . S
C891 N894 1.351 . S
C891 C896 1.501 . S
C892 C893 1.387 . S
C892 N895 1.341 . S
C893 C891 1.400 . S
C893 C892 1.387 . S
N894 Co885 2.022 . S
N894 C891 1.351 . S
N894 N895 1.365 . S
N895 C892 1.341 . S
N895 N894 1.365 . S
N895 H915 0.862 . S
C896 C891 1.501 . S
C896 H897 0.961 . S
C896 H898 0.961 . S
C896 H899 0.960 . S
H897 C896 0.961 . S
H898 C896 0.961 . S
H899 C896 0.960 . S
C900 N901 1.342 . S
C900 C904 1.401 . S
C900 C905 1.499 . S
N901 Co884 1.989 . S
N901 C900 1.342 . S
N901 N902 1.388 . S
N902 Co885 1.993 . S
N902 N901 1.388 . S
N902 C903 1.346 . S
C903 N902 1.346 . S
C903 C904 1.396 . S
C903 C913 1.510 . S
C904 C900 1.401 . S
C904 C903 1.396 . S
C905 C900 1.499 . S
C905 H906 0.959 . S
C905 H907 0.960 . S
C905 H908 0.961 . S
H906 C905 0.959 . S
H907 C905 0.960 . S
H908 C905 0.961 . S
O909 Co884 1.967 . S
O909 C917 1.258 . S
O910 Co885 1.941 . S
O910 C917 1.266 . S
H911 C913 0.959 . S
H912 C913 0.961 . S
C913 C903 1.510 . S
C913 H911 0.959 . S
C913 H912 0.961 . S
C913 H914 0.960 . S
H914 C913 0.960 . S
H915 N895 0.862 . S
O916 Co884 1.920 . S
O916 C889 1.289 . S
C917 O909 1.258 . S
C917 O910 1.266 . S
Co918 O921 1.970 . S
Co918 N935 1.989 . S
Co918 O943 1.967 . S
Co918 O950 1.920 . S
Co919 O922 1.966 . S
Co919 N928 2.022 . S
Co919 N936 1.993 . S
Co919 O944 1.941 . S
C920 O921 1.258 . S
C920 O922 1.263 . S
O921 Co918 1.970 . S
O921 C920 1.258 . S
O922 Co919 1.966 . S
O922 C920 1.263 . S
C923 O924 1.235 . S
C923 O950 1.289 . S
O924 C923 1.235 . S
C925 C927 1.400 . S
C925 N928 1.351 . S
C925 C930 1.501 . S
C926 C927 1.387 . S
C926 N929 1.341 . S
C927 C925 1.400 . S
C927 C926 1.387 . S
N928 Co919 2.022 . S
N928 C925 1.351 . S
N928 N929 1.365 . S
N929 C926 1.341 . S
N929 N928 1.365 . S
N929 H949 0.862 . S
C930 C925 1.501 . S
C930 H931 0.961 . S
C930 H932 0.961 . S
C930 H933 0.960 . S
H931 C930 0.961 . S
H932 C930 0.961 . S
H933 C930 0.960 . S
C934 N935 1.342 . S
C934 C938 1.401 . S
C934 C939 1.499 . S
N935 Co918 1.989 . S
N935 C934 1.342 . S
N935 N936 1.388 . S
N936 Co919 1.993 . S
N936 N935 1.388 . S
N936 C937 1.346 . S
C937 N936 1.346 . S
C937 C938 1.396 . S
C937 C947 1.510 . S
C938 C934 1.401 . S
C938 C937 1.396 . S
C939 C934 1.499 . S
C939 H940 0.959 . S
C939 H941 0.960 . S
C939 H942 0.961 . S
H940 C939 0.959 . S
H941 C939 0.960 . S
H942 C939 0.961 . S
O943 Co918 1.967 . S
O943 C951 1.258 . S
O944 Co919 1.941 . S
O944 C951 1.266 . S
H945 C947 0.959 . S
H946 C947 0.961 . S
C947 C937 1.510 . S
C947 H945 0.959 . S
C947 H946 0.961 . S
C947 H948 0.960 . S
H948 C947 0.960 . S
H949 N929 0.862 . S
O950 Co918 1.920 . S
O950 C923 1.289 . S
C951 O943 1.258 . S
C951 O944 1.266 . S
Co952 O955 1.970 . S
Co952 N969 1.989 . S
Co952 O977 1.967 . S
Co952 O984 1.920 . S
Co953 O956 1.966 . S
Co953 N962 2.022 . S
Co953 N970 1.993 . S
Co953 O978 1.941 . S
C954 O955 1.258 . S
C954 O956 1.263 . S
O955 Co952 1.970 . S
O955 C954 1.258 . S
O956 Co953 1.966 . S
O956 C954 1.263 . S
C957 O958 1.235 . S
C957 O984 1.289 . S
O958 C957 1.235 . S
C959 C961 1.400 . S
C959 N962 1.351 . S
C959 C964 1.501 . S
C960 C961 1.387 . S
C960 N963 1.341 . S
C961 C959 1.400 . S
C961 C960 1.387 . S
N962 Co953 2.022 . S
N962 C959 1.351 . S
N962 N963 1.365 . S
N963 C960 1.341 . S
N963 N962 1.365 . S
N963 H983 0.862 . S
C964 C959 1.501 . S
C964 H965 0.961 . S
C964 H966 0.961 . S
C964 H967 0.960 . S
H965 C964 0.961 . S
H966 C964 0.961 . S
H967 C964 0.960 . S
C968 N969 1.342 . S
C968 C972 1.401 . S
C968 C973 1.499 . S
N969 Co952 1.989 . S
N969 C968 1.342 . S
N969 N970 1.388 . S
N970 Co953 1.993 . S
N970 N969 1.388 . S
N970 C971 1.346 . S
C971 N970 1.346 . S
C971 C972 1.396 . S
C971 C981 1.510 . S
C972 C968 1.401 . S
C972 C971 1.396 . S
C973 C968 1.499 . S
C973 H974 0.959 . S
C973 H975 0.960 . S
C973 H976 0.961 . S
H974 C973 0.959 . S
H975 C973 0.960 . S
H976 C973 0.961 . S
O977 Co952 1.967 . S
O977 C985 1.258 . S
O978 Co953 1.941 . S
O978 C985 1.266 . S
H979 C981 0.959 . S
H980 C981 0.961 . S
C981 C971 1.510 . S
C981 H979 0.959 . S
C981 H980 0.961 . S
C981 H982 0.960 . S
H982 C981 0.960 . S
H983 N963 0.862 . S
O984 Co952 1.920 . S
O984 C957 1.289 . S
C985 O977 1.258 . S
C985 O978 1.266 . S
Co986 O989 1.970 . S
Co986 N1003 1.989 . S
Co986 O1011 1.967 . S
Co986 O1018 1.920 . S
Co987 O990 1.966 . S
Co987 N996 2.022 . S
Co987 N1004 1.993 . S
Co987 O1012 1.941 . S
C988 O989 1.258 . S
C988 O990 1.263 . S
O989 Co986 1.970 . S
O989 C988 1.258 . S
O990 Co987 1.966 . S
O990 C988 1.263 . S
C991 O992 1.235 . S
C991 O1018 1.289 . S
O992 C991 1.235 . S
C993 C995 1.400 . S
C993 N996 1.351 . S
C993 C998 1.501 . S
C994 C995 1.387 . S
C994 N997 1.341 . S
C995 C993 1.400 . S
C995 C994 1.387 . S
N996 Co987 2.022 . S
N996 C993 1.351 . S
N996 N997 1.365 . S
N997 C994 1.341 . S
N997 N996 1.365 . S
N997 H1017 0.862 . S
C998 C993 1.501 . S
C998 H999 0.961 . S
C998 H1000 0.961 . S
C998 H1001 0.960 . S
H999 C998 0.961 . S
H1000 C998 0.961 . S
H1001 C998 0.960 . S
C1002 N1003 1.342 . S
C1002 C1006 1.401 . S
C1002 C1007 1.499 . S
N1003 Co986 1.989 . S
N1003 C1002 1.342 . S
N1003 N1004 1.388 . S
N1004 Co987 1.993 . S
N1004 N1003 1.388 . S
N1004 C1005 1.346 . S
C1005 N1004 1.346 . S
C1005 C1006 1.396 . S
C1005 C1015 1.510 . S
C1006 C1002 1.401 . S
C1006 C1005 1.396 . S
C1007 C1002 1.499 . S
C1007 H1008 0.959 . S
C1007 H1009 0.960 . S
C1007 H1010 0.961 . S
H1008 C1007 0.959 . S
H1009 C1007 0.960 . S
H1010 C1007 0.961 . S
O1011 Co986 1.967 . S
O1011 C1019 1.258 . S
O1012 Co987 1.941 . S
O1012 C1019 1.266 . S
H1013 C1015 0.959 . S
H1014 C1015 0.961 . S
C1015 C1005 1.510 . S
C1015 H1013 0.959 . S
C1015 H1014 0.961 . S
C1015 H1016 0.960 . S
H1016 C1015 0.960 . S
H1017 N997 0.862 . S
O1018 Co986 1.920 . S
O1018 C991 1.289 . S
C1019 O1011 1.258 . S
C1019 O1012 1.266 . S
Co1020 O1023 1.970 . S
Co1020 N1037 1.989 . S
Co1020 O1045 1.967 . S
Co1020 O1052 1.920 . S
Co1021 O1024 1.966 . S
Co1021 N1030 2.022 . S
Co1021 N1038 1.993 . S
Co1021 O1046 1.941 . S
C1022 O1023 1.258 . S
C1022 O1024 1.263 . S
O1023 Co1020 1.970 . S
O1023 C1022 1.258 . S
O1024 Co1021 1.966 . S
O1024 C1022 1.263 . S
C1025 O1026 1.235 . S
C1025 O1052 1.289 . S
O1026 C1025 1.235 . S
C1027 C1029 1.400 . S
C1027 N1030 1.351 . S
C1027 C1032 1.501 . S
C1028 C1029 1.387 . S
C1028 N1031 1.341 . S
C1029 C1027 1.400 . S
C1029 C1028 1.387 . S
N1030 Co1021 2.022 . S
N1030 C1027 1.351 . S
N1030 N1031 1.365 . S
N1031 C1028 1.341 . S
N1031 N1030 1.365 . S
N1031 H1051 0.862 . S
C1032 C1027 1.501 . S
C1032 H1033 0.961 . S
C1032 H1034 0.961 . S
C1032 H1035 0.960 . S
H1033 C1032 0.961 . S
H1034 C1032 0.961 . S
H1035 C1032 0.960 . S
C1036 N1037 1.342 . S
C1036 C1040 1.401 . S
C1036 C1041 1.499 . S
N1037 Co1020 1.989 . S
N1037 C1036 1.342 . S
N1037 N1038 1.388 . S
N1038 Co1021 1.993 . S
N1038 N1037 1.388 . S
N1038 C1039 1.346 . S
C1039 N1038 1.346 . S
C1039 C1040 1.396 . S
C1039 C1049 1.510 . S
C1040 C1036 1.401 . S
C1040 C1039 1.396 . S
C1041 C1036 1.499 . S
C1041 H1042 0.959 . S
C1041 H1043 0.960 . S
C1041 H1044 0.961 . S
H1042 C1041 0.959 . S
H1043 C1041 0.960 . S
H1044 C1041 0.961 . S
O1045 Co1020 1.967 . S
O1045 C1053 1.258 . S
O1046 Co1021 1.941 . S
O1046 C1053 1.266 . S
H1047 C1049 0.959 . S
H1048 C1049 0.961 . S
C1049 C1039 1.510 . S
C1049 H1047 0.959 . S
C1049 H1048 0.961 . S
C1049 H1050 0.960 . S
H1050 C1049 0.960 . S
H1051 N1031 0.862 . S
O1052 Co1020 1.920 . S
O1052 C1025 1.289 . S
C1053 O1045 1.258 . S
C1053 O1046 1.266 . S
Co1054 O1057 1.970 . S
Co1054 N1071 1.989 . S
Co1054 O1079 1.967 . S
Co1054 O1086 1.920 . S
Co1055 O1058 1.966 . S
Co1055 N1064 2.022 . S
Co1055 N1072 1.993 . S
Co1055 O1080 1.941 . S
C1056 O1057 1.258 . S
C1056 O1058 1.263 . S
O1057 Co1054 1.970 . S
O1057 C1056 1.258 . S
O1058 Co1055 1.966 . S
O1058 C1056 1.263 . S
C1059 O1060 1.235 . S
C1059 O1086 1.289 . S
O1060 C1059 1.235 . S
C1061 C1063 1.400 . S
C1061 N1064 1.351 . S
C1061 C1066 1.501 . S
C1062 C1063 1.387 . S
C1062 N1065 1.341 . S
C1063 C1061 1.400 . S
C1063 C1062 1.387 . S
N1064 Co1055 2.022 . S
N1064 C1061 1.351 . S
N1064 N1065 1.365 . S
N1065 C1062 1.341 . S
N1065 N1064 1.365 . S
N1065 H1085 0.862 . S
C1066 C1061 1.501 . S
C1066 H1067 0.961 . S
C1066 H1068 0.961 . S
C1066 H1069 0.960 . S
H1067 C1066 0.961 . S
H1068 C1066 0.961 . S
H1069 C1066 0.960 . S
C1070 N1071 1.342 . S
C1070 C1074 1.401 . S
C1070 C1075 1.499 . S
N1071 Co1054 1.989 . S
N1071 C1070 1.342 . S
N1071 N1072 1.388 . S
N1072 Co1055 1.993 . S
N1072 N1071 1.388 . S
N1072 C1073 1.346 . S
C1073 N1072 1.346 . S
C1073 C1074 1.396 . S
C1073 C1083 1.510 . S
C1074 C1070 1.401 . S
C1074 C1073 1.396 . S
C1075 C1070 1.499 . S
C1075 H1076 0.959 . S
C1075 H1077 0.960 . S
C1075 H1078 0.961 . S
H1076 C1075 0.959 . S
H1077 C1075 0.960 . S
H1078 C1075 0.961 . S
O1079 Co1054 1.967 . S
O1079 C1087 1.258 . S
O1080 Co1055 1.941 . S
O1080 C1087 1.266 . S
H1081 C1083 0.959 . S
H1082 C1083 0.961 . S
C1083 C1073 1.510 . S
C1083 H1081 0.959 . S
C1083 H1082 0.961 . S
C1083 H1084 0.960 . S
H1084 C1083 0.960 . S
H1085 N1065 0.862 . S
O1086 Co1054 1.920 . S
O1086 C1059 1.289 . S
C1087 O1079 1.258 . S
C1087 O1080 1.266 . S
H1088 C1094 0.930 . S
H1089 C1098 0.930 . S
H1090 C1103 0.929 . S
H1091 C1101 0.929 . S
H1092 C1096 0.929 . S
H1093 C1102 0.929 . S
C1094 H1088 0.930 . S
C1094 C1095 1.367 . S
C1094 C1102 1.378 . S
C1095 C1094 1.367 . S
C1095 C1103 1.433 . S
C1096 H1092 0.929 . S
C1096 C1098 1.378 . S
C1096 C1100 1.350 . S
C1097 C1100 1.463 . S
C1097 C1102 1.350 . S
C1097 N1105 1.427 . S
C1098 H1089 0.930 . S
C1098 C1096 1.378 . S
C1098 C1099 1.367 . S
C1099 C1098 1.367 . S
C1099 C1101 1.433 . S
C1100 C1096 1.350 . S
C1100 C1097 1.463 . S
C1100 N1104 1.427 . S
C1101 H1091 0.929 . S
C1101 C1099 1.433 . S
C1101 N1104 1.384 . S
C1102 H1093 0.929 . S
C1102 C1094 1.378 . S
C1102 C1097 1.350 . S
C1103 H1090 0.929 . S
C1103 C1095 1.433 . S
C1103 N1105 1.384 . S
N1104 C1100 1.427 . S
N1104 C1101 1.384 . S
N1105 C1097 1.427 . S
N1105 C1103 1.384 . S
H1106 C1112 0.930 . S
H1107 C1116 0.930 . S
H1108 C1121 0.929 . S
H1109 C1119 0.929 . S
H1110 C1114 0.929 1_455 S
H1111 C1120 0.929 1_655 S
C1112 H1106 0.930 . S
C1112 C1113 1.367 . S
C1112 C1120 1.378 . S
C1113 C1112 1.367 . S
C1113 C1121 1.433 . S
C1114 H1110 0.929 1_655 S
C1114 C1116 1.378 . S
C1114 C1118 1.350 . S
C1115 C1118 1.463 1_455 S
C1115 C1120 1.350 . S
C1115 N1123 1.427 . S
C1116 H1107 0.930 . S
C1116 C1114 1.378 . S
C1116 C1117 1.367 . S
C1117 C1116 1.367 . S
C1117 C1119 1.433 . S
C1118 C1114 1.350 . S
C1118 C1115 1.463 1_655 S
C1118 N1122 1.427 . S
C1119 H1109 0.929 . S
C1119 C1117 1.433 . S
C1119 N1122 1.384 . S
C1120 H1111 0.929 1_455 S
C1120 C1112 1.378 . S
C1120 C1115 1.350 . S
C1121 H1108 0.929 . S
C1121 C1113 1.433 . S
C1121 N1123 1.384 . S
N1122 C1118 1.427 . S
N1122 C1119 1.384 . S
N1123 C1115 1.427 . S
N1123 C1121 1.384 . S
H1124 C1130 0.930 . S
H1125 C1134 0.930 . S
H1126 C1139 0.929 . S
H1127 C1137 0.929 . S
H1128 C1132 0.929 . S
H1129 C1138 0.929 . S
C1130 H1124 0.930 . S
C1130 C1131 1.367 . S
C1130 C1138 1.378 . S
C1131 C1130 1.367 . S
C1131 C1139 1.433 . S
C1132 H1128 0.929 . S
C1132 C1134 1.378 . S
C1132 C1136 1.350 . S
C1133 C1136 1.463 1_455 S
C1133 C1138 1.350 . S
C1133 N1141 1.427 . S
C1134 H1125 0.930 . S
C1134 C1132 1.378 . S
C1134 C1135 1.367 . S
C1135 C1134 1.367 . S
C1135 C1137 1.433 . S
C1136 C1132 1.350 . S
C1136 C1133 1.463 1_655 S
C1136 N1140 1.427 . S
C1137 H1127 0.929 . S
C1137 C1135 1.433 . S
C1137 N1140 1.384 . S
C1138 H1129 0.929 . S
C1138 C1130 1.378 . S
C1138 C1133 1.350 . S
C1139 H1126 0.929 . S
C1139 C1131 1.433 . S
C1139 N1141 1.384 . S
N1140 C1136 1.427 . S
N1140 C1137 1.384 . S
N1141 C1133 1.427 . S
N1141 C1139 1.384 . S
H1142 C1148 0.930 . S
H1143 C1152 0.930 . S
H1144 C1157 0.929 . S
H1145 C1155 0.929 . S
H1146 C1150 0.929 . S
H1147 C1156 0.929 . S
C1148 H1142 0.930 . S
C1148 C1149 1.367 . S
C1148 C1156 1.378 . S
C1149 C1148 1.367 . S
C1149 C1157 1.433 . S
C1150 H1146 0.929 . S
C1150 C1152 1.378 . S
C1150 C1154 1.350 . S
C1151 C1154 1.463 . S
C1151 C1156 1.350 . S
C1151 N1159 1.427 . S
C1152 H1143 0.930 . S
C1152 C1150 1.378 . S
C1152 C1153 1.367 . S
C1153 C1152 1.367 . S
C1153 C1155 1.433 . S
C1154 C1150 1.350 . S
C1154 C1151 1.463 . S
C1154 N1158 1.427 . S
C1155 H1145 0.929 . S
C1155 C1153 1.433 . S
C1155 N1158 1.384 . S
C1156 H1147 0.929 . S
C1156 C1148 1.378 . S
C1156 C1151 1.350 . S
C1157 H1144 0.929 . S
C1157 C1149 1.433 . S
C1157 N1159 1.384 . S
N1158 C1154 1.427 . S
N1158 C1155 1.384 . S
N1159 C1151 1.427 . S
N1159 C1157 1.384 . S
H1160 C1166 0.930 . S
H1161 C1170 0.930 . S
H1162 C1175 0.929 . S
H1163 C1173 0.929 . S
H1164 C1168 0.929 . S
H1165 C1174 0.929 . S
C1166 H1160 0.930 . S
C1166 C1167 1.367 . S
C1166 C1174 1.378 . S
C1167 C1166 1.367 . S
C1167 C1175 1.433 . S
C1168 H1164 0.929 . S
C1168 C1170 1.378 . S
C1168 C1172 1.350 . S
C1169 C1172 1.463 . S
C1169 C1174 1.350 . S
C1169 N1177 1.427 . S
C1170 H1161 0.930 . S
C1170 C1168 1.378 . S
C1170 C1171 1.367 . S
C1171 C1170 1.367 . S
C1171 C1173 1.433 . S
C1172 C1168 1.350 . S
C1172 C1169 1.463 . S
C1172 N1176 1.427 . S
C1173 H1163 0.929 . S
C1173 C1171 1.433 . S
C1173 N1176 1.384 . S
C1174 H1165 0.929 . S
C1174 C1166 1.378 . S
C1174 C1169 1.350 . S
C1175 H1162 0.929 . S
C1175 C1167 1.433 . S
C1175 N1177 1.384 . S
N1176 C1172 1.427 . S
N1176 C1173 1.384 . S
N1177 C1169 1.427 . S
N1177 C1175 1.384 . S
H1178 C1184 0.930 . S
H1179 C1188 0.930 . S
H1180 C1193 0.929 . S
H1181 C1191 0.929 . S
H1182 C1186 0.929 . S
H1183 C1192 0.929 . S
C1184 H1178 0.930 . S
C1184 C1185 1.367 . S
C1184 C1192 1.378 . S
C1185 C1184 1.367 . S
C1185 C1193 1.433 . S
C1186 H1182 0.929 . S
C1186 C1188 1.378 . S
C1186 C1190 1.350 . S
C1187 C1190 1.463 . S
C1187 C1192 1.350 . S
C1187 N1195 1.427 . S
C1188 H1179 0.930 . S
C1188 C1186 1.378 . S
C1188 C1189 1.367 . S
C1189 C1188 1.367 . S
C1189 C1191 1.433 . S
C1190 C1186 1.350 . S
C1190 C1187 1.463 . S
C1190 N1194 1.427 . S
C1191 H1181 0.929 . S
C1191 C1189 1.433 . S
C1191 N1194 1.384 . S
C1192 H1183 0.929 . S
C1192 C1184 1.378 . S
C1192 C1187 1.350 . S
C1193 H1180 0.929 . S
C1193 C1185 1.433 . S
C1193 N1195 1.384 . S
N1194 C1190 1.427 . S
N1194 C1191 1.384 . S
N1195 C1187 1.427 . S
N1195 C1193 1.384 . S
H1196 C1202 0.930 . S
H1197 C1206 0.930 . S
H1198 C1211 0.929 . S
H1199 C1209 0.929 . S
H1200 C1204 0.929 . S
H1201 C1210 0.929 . S
C1202 H1196 0.930 . S
C1202 C1203 1.367 . S
C1202 C1210 1.378 . S
C1203 C1202 1.367 . S
C1203 C1211 1.433 . S
C1204 H1200 0.929 . S
C1204 C1206 1.378 . S
C1204 C1208 1.350 . S
C1205 C1208 1.463 1_455 S
C1205 C1210 1.350 . S
C1205 N1213 1.427 . S
C1206 H1197 0.930 . S
C1206 C1204 1.378 . S
C1206 C1207 1.367 . S
C1207 C1206 1.367 . S
C1207 C1209 1.433 . S
C1208 C1204 1.350 . S
C1208 C1205 1.463 1_655 S
C1208 N1212 1.427 . S
C1209 H1199 0.929 . S
C1209 C1207 1.433 . S
C1209 N1212 1.384 . S
C1210 H1201 0.929 . S
C1210 C1202 1.378 . S
C1210 C1205 1.350 . S
C1211 H1198 0.929 . S
C1211 C1203 1.433 . S
C1211 N1213 1.384 . S
N1212 C1208 1.427 . S
N1212 C1209 1.384 . S
N1213 C1205 1.427 . S
N1213 C1211 1.384 . S
H1214 C1220 0.930 . S
H1215 C1224 0.930 . S
H1216 C1229 0.929 . S
H1217 C1227 0.929 . S
H1218 C1222 0.929 1_455 S
H1219 C1228 0.929 1_655 S
C1220 H1214 0.930 . S
C1220 C1221 1.367 . S
C1220 C1228 1.378 . S
C1221 C1220 1.367 . S
C1221 C1229 1.433 . S
C1222 H1218 0.929 1_655 S
C1222 C1224 1.378 . S
C1222 C1226 1.350 . S
C1223 C1226 1.463 1_455 S
C1223 C1228 1.350 . S
C1223 N1231 1.427 . S
C1224 H1215 0.930 . S
C1224 C1222 1.378 . S
C1224 C1225 1.367 . S
C1225 C1224 1.367 . S
C1225 C1227 1.433 . S
C1226 C1222 1.350 . S
C1226 C1223 1.463 1_655 S
C1226 N1230 1.427 . S
C1227 H1217 0.929 . S
C1227 C1225 1.433 . S
C1227 N1230 1.384 . S
C1228 H1219 0.929 1_455 S
C1228 C1220 1.378 . S
C1228 C1223 1.350 . S
C1229 H1216 0.929 . S
C1229 C1221 1.433 . S
C1229 N1231 1.384 . S
N1230 C1226 1.427 . S
N1230 C1227 1.384 . S
N1231 C1223 1.427 . S
N1231 C1229 1.384 . S
H1232 C1238 0.930 . S
H1233 C1242 0.930 . S
H1234 C1247 0.929 . S
H1235 C1245 0.929 . S
H1236 C1240 0.929 . S
H1237 C1246 0.929 . S
C1238 H1232 0.930 . S
C1238 C1239 1.367 . S
C1238 C1246 1.378 . S
C1239 C1238 1.367 . S
C1239 C1247 1.433 . S
C1240 H1236 0.929 . S
C1240 C1242 1.378 . S
C1240 C1244 1.350 . S
C1241 C1244 1.463 . S
C1241 C1246 1.350 . S
C1241 N1249 1.427 . S
C1242 H1233 0.930 . S
C1242 C1240 1.378 . S
C1242 C1243 1.367 . S
C1243 C1242 1.367 . S
C1243 C1245 1.433 . S
C1244 C1240 1.350 . S
C1244 C1241 1.463 . S
C1244 N1248 1.427 . S
C1245 H1235 0.929 . S
C1245 C1243 1.433 . S
C1245 N1248 1.384 . S
C1246 H1237 0.929 . S
C1246 C1238 1.378 . S
C1246 C1241 1.350 . S
C1247 H1234 0.929 . S
C1247 C1239 1.433 . S
C1247 N1249 1.384 . S
N1248 C1244 1.427 . S
N1248 C1245 1.384 . S
N1249 C1241 1.427 . S
N1249 C1247 1.384 . S
H1250 C1256 0.930 . S
H1251 C1260 0.930 . S
H1252 C1265 0.929 . S
H1253 C1263 0.929 . S
H1254 C1258 0.929 . S
H1255 C1264 0.929 . S
C1256 H1250 0.930 . S
C1256 C1257 1.367 . S
C1256 C1264 1.378 1_455 S
C1257 C1256 1.367 . S
C1257 C1265 1.433 . S
C1258 H1254 0.929 . S
C1258 C1260 1.378 1_455 S
C1258 C1262 1.350 1_455 S
C1259 C1262 1.463 1_455 S
C1259 C1264 1.350 1_455 S
C1259 N1267 1.427 . S
C1260 H1251 0.930 . S
C1260 C1258 1.378 1_655 S
C1260 C1261 1.367 . S
C1261 C1260 1.367 . S
C1261 C1263 1.433 . S
C1262 C1258 1.350 1_655 S
C1262 C1259 1.463 1_655 S
C1262 N1266 1.427 . S
C1263 H1253 0.929 . S
C1263 C1261 1.433 . S
C1263 N1266 1.384 . S
C1264 H1255 0.929 . S
C1264 C1256 1.378 1_655 S
C1264 C1259 1.350 1_655 S
C1265 H1252 0.929 . S
C1265 C1257 1.433 . S
C1265 N1267 1.384 . S
N1266 C1262 1.427 . S
N1266 C1263 1.384 . S
N1267 C1259 1.427 . S
N1267 C1265 1.384 . S
H1268 C1274 0.930 . S
H1269 C1278 0.930 . S
H1270 C1283 0.929 . S
H1271 C1281 0.929 . S
H1272 C1276 0.929 . S
H1273 C1282 0.929 . S
C1274 H1268 0.930 . S
C1274 C1275 1.367 . S
C1274 C1282 1.378 . S
C1275 C1274 1.367 . S
C1275 C1283 1.433 . S
C1276 H1272 0.929 . S
C1276 C1278 1.378 . S
C1276 C1280 1.350 . S
C1277 C1280 1.463 1_655 S
C1277 C1282 1.350 . S
C1277 N1285 1.427 . S
C1278 H1269 0.930 . S
C1278 C1276 1.378 . S
C1278 C1279 1.367 . S
C1279 C1278 1.367 . S
C1279 C1281 1.433 . S
C1280 C1276 1.350 . S
C1280 C1277 1.463 1_455 S
C1280 N1284 1.427 . S
C1281 H1271 0.929 . S
C1281 C1279 1.433 . S
C1281 N1284 1.384 . S
C1282 H1273 0.929 . S
C1282 C1274 1.378 . S
C1282 C1277 1.350 . S
C1283 H1270 0.929 . S
C1283 C1275 1.433 . S
C1283 N1285 1.384 . S
N1284 C1280 1.427 . S
N1284 C1281 1.384 . S
N1285 C1277 1.427 . S
N1285 C1283 1.384 . S
H1286 C1292 0.930 . S
H1287 C1296 0.930 . S
H1288 C1301 0.929 . S
H1289 C1299 0.929 . S
H1290 C1294 0.929 . S
H1291 C1300 0.929 . S
C1292 H1286 0.930 . S
C1292 C1293 1.367 . S
C1292 C1300 1.378 . S
C1293 C1292 1.367 . S
C1293 C1301 1.433 . S
C1294 H1290 0.929 . S
C1294 C1296 1.378 . S
C1294 C1298 1.350 . S
C1295 C1298 1.463 . S
C1295 C1300 1.350 . S
C1295 N1303 1.427 . S
C1296 H1287 0.930 . S
C1296 C1294 1.378 . S
C1296 C1297 1.367 . S
C1297 C1296 1.367 . S
C1297 C1299 1.433 . S
C1298 C1294 1.350 . S
C1298 C1295 1.463 . S
C1298 N1302 1.427 . S
C1299 H1289 0.929 . S
C1299 C1297 1.433 . S
C1299 N1302 1.384 . S
C1300 H1291 0.929 . S
C1300 C1292 1.378 . S
C1300 C1295 1.350 . S
C1301 H1288 0.929 . S
C1301 C1293 1.433 . S
C1301 N1303 1.384 . S
N1302 C1298 1.427 . S
N1302 C1299 1.384 . S
N1303 C1295 1.427 . S
N1303 C1301 1.384 . S
H1304 C1310 0.930 . S
H1305 C1314 0.930 . S
H1306 C1319 0.929 . S
H1307 C1317 0.929 . S
H1308 C1312 0.929 . S
H1309 C1318 0.929 . S
C1310 H1304 0.930 . S
C1310 C1311 1.367 . S
C1310 C1318 1.378 . S
C1311 C1310 1.367 . S
C1311 C1319 1.433 . S
C1312 H1308 0.929 . S
C1312 C1314 1.378 . S
C1312 C1316 1.350 . S
C1313 C1316 1.463 . S
C1313 C1318 1.350 . S
C1313 N1321 1.427 . S
C1314 H1305 0.930 . S
C1314 C1312 1.378 . S
C1314 C1315 1.367 . S
C1315 C1314 1.367 . S
C1315 C1317 1.433 . S
C1316 C1312 1.350 . S
C1316 C1313 1.463 . S
C1316 N1320 1.427 . S
C1317 H1307 0.929 . S
C1317 C1315 1.433 . S
C1317 N1320 1.384 . S
C1318 H1309 0.929 . S
C1318 C1310 1.378 . S
C1318 C1313 1.350 . S
C1319 H1306 0.929 . S
C1319 C1311 1.433 . S
C1319 N1321 1.384 . S
N1320 C1316 1.427 . S
N1320 C1317 1.384 . S
N1321 C1313 1.427 . S
N1321 C1319 1.384 . S
H1322 C1328 0.930 . S
H1323 C1332 0.930 . S
H1324 C1337 0.929 . S
H1325 C1335 0.929 . S
H1326 C1330 0.929 . S
H1327 C1336 0.929 . S
C1328 H1322 0.930 . S
C1328 C1329 1.367 . S
C1328 C1336 1.378 . S
C1329 C1328 1.367 . S
C1329 C1337 1.433 . S
C1330 H1326 0.929 . S
C1330 C1332 1.378 . S
C1330 C1334 1.350 . S
C1331 C1334 1.463 . S
C1331 C1336 1.350 . S
C1331 N1339 1.427 . S
C1332 H1323 0.930 . S
C1332 C1330 1.378 . S
C1332 C1333 1.367 . S
C1333 C1332 1.367 . S
C1333 C1335 1.433 . S
C1334 C1330 1.350 . S
C1334 C1331 1.463 . S
C1334 N1338 1.427 . S
C1335 H1325 0.929 . S
C1335 C1333 1.433 . S
C1335 N1338 1.384 . S
C1336 H1327 0.929 . S
C1336 C1328 1.378 . S
C1336 C1331 1.350 . S
C1337 H1324 0.929 . S
C1337 C1329 1.433 . S
C1337 N1339 1.384 . S
N1338 C1334 1.427 . S
N1338 C1335 1.384 . S
N1339 C1331 1.427 . S
N1339 C1337 1.384 . S
H1340 C1346 0.930 . S
H1341 C1350 0.930 . S
H1342 C1355 0.929 . S
H1343 C1353 0.929 . S
H1344 C1348 0.929 . S
H1345 C1354 0.929 . S
C1346 H1340 0.930 . S
C1346 C1347 1.367 . S
C1346 C1354 1.378 . S
C1347 C1346 1.367 . S
C1347 C1355 1.433 . S
C1348 H1344 0.929 . S
C1348 C1350 1.378 . S
C1348 C1352 1.350 . S
C1349 C1352 1.463 1_455 S
C1349 C1354 1.350 . S
C1349 N1357 1.427 . S
C1350 H1341 0.930 . S
C1350 C1348 1.378 . S
C1350 C1351 1.367 . S
C1351 C1350 1.367 . S
C1351 C1353 1.433 . S
C1352 C1348 1.350 . S
C1352 C1349 1.463 1_655 S
C1352 N1356 1.427 . S
C1353 H1343 0.929 . S
C1353 C1351 1.433 . S
C1353 N1356 1.384 . S
C1354 H1345 0.929 . S
C1354 C1346 1.378 . S
C1354 C1349 1.350 . S
C1355 H1342 0.929 . S
C1355 C1347 1.433 . S
C1355 N1357 1.384 . S
N1356 C1352 1.427 . S
N1356 C1353 1.384 . S
N1357 C1349 1.427 . S
N1357 C1355 1.384 . S
H1358 C1364 0.930 . S
H1359 C1368 0.930 . S
H1360 C1373 0.929 . S
H1361 C1371 0.929 . S
H1362 C1366 0.929 . S
H1363 C1372 0.929 . S
C1364 H1358 0.930 . S
C1364 C1365 1.367 . S
C1364 C1372 1.378 . S
C1365 C1364 1.367 . S
C1365 C1373 1.433 . S
C1366 H1362 0.929 . S
C1366 C1368 1.378 . S
C1366 C1370 1.350 . S
C1367 C1370 1.463 1_455 S
C1367 C1372 1.350 . S
C1367 N1375 1.427 . S
C1368 H1359 0.930 . S
C1368 C1366 1.378 . S
C1368 C1369 1.367 . S
C1369 C1368 1.367 . S
C1369 C1371 1.433 . S
C1370 C1366 1.350 . S
C1370 C1367 1.463 1_655 S
C1370 N1374 1.427 . S
C1371 H1361 0.929 . S
C1371 C1369 1.433 . S
C1371 N1374 1.384 . S
C1372 H1363 0.929 . S
C1372 C1364 1.378 . S
C1372 C1367 1.350 . S
C1373 H1360 0.929 . S
C1373 C1365 1.433 . S
C1373 N1375 1.384 . S
N1374 C1370 1.427 . S
N1374 C1371 1.384 . S
N1375 C1367 1.427 . S
N1375 C1373 1.384 . S
H1376 C1382 0.930 . S
H1377 C1386 0.930 . S
H1378 C1391 0.929 . S
H1379 C1389 0.929 . S
H1380 C1384 0.929 . S
H1381 C1390 0.929 . S
C1382 H1376 0.930 . S
C1382 C1383 1.367 . S
C1382 C1390 1.378 . S
C1383 C1382 1.367 . S
C1383 C1391 1.433 . S
C1384 H1380 0.929 . S
C1384 C1386 1.378 . S
C1384 C1388 1.350 . S
C1385 C1388 1.463 . S
C1385 C1390 1.350 . S
C1385 N1393 1.427 . S
C1386 H1377 0.930 . S
C1386 C1384 1.378 . S
C1386 C1387 1.367 . S
C1387 C1386 1.367 . S
C1387 C1389 1.433 . S
C1388 C1384 1.350 . S
C1388 C1385 1.463 . S
C1388 N1392 1.427 . S
C1389 H1379 0.929 . S
C1389 C1387 1.433 . S
C1389 N1392 1.384 . S
C1390 H1381 0.929 . S
C1390 C1382 1.378 . S
C1390 C1385 1.350 . S
C1391 H1378 0.929 . S
C1391 C1383 1.433 . S
C1391 N1393 1.384 . S
N1392 C1388 1.427 . S
N1392 C1389 1.384 . S
N1393 C1385 1.427 . S
N1393 C1391 1.384 . S
H1394 C1400 0.930 . S
H1395 C1404 0.930 . S
H1396 C1409 0.929 . S
H1397 C1407 0.929 . S
H1398 C1402 0.929 . S
H1399 C1408 0.929 . S
C1400 H1394 0.930 . S
C1400 C1401 1.367 . S
C1400 C1408 1.378 . S
C1401 C1400 1.367 . S
C1401 C1409 1.433 . S
C1402 H1398 0.929 . S
C1402 C1404 1.378 . S
C1402 C1406 1.350 . S
C1403 C1406 1.463 . S
C1403 C1408 1.350 . S
C1403 N1411 1.427 . S
C1404 H1395 0.930 . S
C1404 C1402 1.378 . S
C1404 C1405 1.367 . S
C1405 C1404 1.367 . S
C1405 C1407 1.433 . S
C1406 C1402 1.350 . S
C1406 C1403 1.463 . S
C1406 N1410 1.427 . S
C1407 H1397 0.929 . S
C1407 C1405 1.433 . S
C1407 N1410 1.384 . S
C1408 H1399 0.929 . S
C1408 C1400 1.378 . S
C1408 C1403 1.350 . S
C1409 H1396 0.929 . S
C1409 C1401 1.433 . S
C1409 N1411 1.384 . S
N1410 C1406 1.427 . S
N1410 C1407 1.384 . S
N1411 C1403 1.427 . S
N1411 C1409 1.384 . S
H1412 C1418 0.930 . S
H1413 C1422 0.930 . S
H1414 C1427 0.929 . S
H1415 C1425 0.929 . S
H1416 C1420 0.929 . S
H1417 C1426 0.929 . S
C1418 H1412 0.930 . S
C1418 C1419 1.367 . S
C1418 C1426 1.378 . S
C1419 C1418 1.367 . S
C1419 C1427 1.433 . S
C1420 H1416 0.929 . S
C1420 C1422 1.378 1_455 S
C1420 C1424 1.350 . S
C1421 C1424 1.463 . S
C1421 C1426 1.350 . S
C1421 N1429 1.427 . S
C1422 H1413 0.930 . S
C1422 C1420 1.378 1_655 S
C1422 C1423 1.367 . S
C1423 C1422 1.367 . S
C1423 C1425 1.433 . S
C1424 C1420 1.350 . S
C1424 C1421 1.463 . S
C1424 N1428 1.427 . S
C1425 H1415 0.929 . S
C1425 C1423 1.433 . S
C1425 N1428 1.384 1_655 S
C1426 H1417 0.929 . S
C1426 C1418 1.378 . S
C1426 C1421 1.350 . S
C1427 H1414 0.929 . S
C1427 C1419 1.433 . S
C1427 N1429 1.384 . S
N1428 C1424 1.427 . S
N1428 C1425 1.384 1_455 S
N1429 C1421 1.427 . S
N1429 C1427 1.384 . S
H1430 C1436 0.930 . S
H1431 C1440 0.930 . S
H1432 C1445 0.929 . S
H1433 C1443 0.929 . S
H1434 C1438 0.929 . S
H1435 C1444 0.929 . S
C1436 H1430 0.930 . S
C1436 C1437 1.367 . S
C1436 C1444 1.378 . S
C1437 C1436 1.367 . S
C1437 C1445 1.433 . S
C1438 H1434 0.929 . S
C1438 C1440 1.378 . S
C1438 C1442 1.350 . S
C1439 C1442 1.463 . S
C1439 C1444 1.350 . S
C1439 N1447 1.427 . S
C1440 H1431 0.930 . S
C1440 C1438 1.378 . S
C1440 C1441 1.367 . S
C1441 C1440 1.367 . S
C1441 C1443 1.433 . S
C1442 C1438 1.350 . S
C1442 C1439 1.463 . S
C1442 N1446 1.427 . S
C1443 H1433 0.929 . S
C1443 C1441 1.433 . S
C1443 N1446 1.384 . S
C1444 H1435 0.929 . S
C1444 C1436 1.378 . S
C1444 C1439 1.350 . S
C1445 H1432 0.929 . S
C1445 C1437 1.433 . S
C1445 N1447 1.384 . S
N1446 C1442 1.427 . S
N1446 C1443 1.384 . S
N1447 C1439 1.427 . S
N1447 C1445 1.384 . S
H1448 C1454 0.930 . S
H1449 C1458 0.930 . S
H1450 C1463 0.929 . S
H1451 C1461 0.929 . S
H1452 C1456 0.929 . S
H1453 C1462 0.929 . S
C1454 H1448 0.930 . S
C1454 C1455 1.367 . S
C1454 C1462 1.378 . S
C1455 C1454 1.367 . S
C1455 C1463 1.433 . S
C1456 H1452 0.929 . S
C1456 C1458 1.378 . S
C1456 C1460 1.350 . S
C1457 C1460 1.463 . S
C1457 C1462 1.350 . S
C1457 N1465 1.427 . S
C1458 H1449 0.930 . S
C1458 C1456 1.378 . S
C1458 C1459 1.367 . S
C1459 C1458 1.367 . S
C1459 C1461 1.433 . S
C1460 C1456 1.350 . S
C1460 C1457 1.463 . S
C1460 N1464 1.427 . S
C1461 H1451 0.929 . S
C1461 C1459 1.433 . S
C1461 N1464 1.384 . S
C1462 H1453 0.929 . S
C1462 C1454 1.378 . S
C1462 C1457 1.350 . S
C1463 H1450 0.929 . S
C1463 C1455 1.433 . S
C1463 N1465 1.384 . S
N1464 C1460 1.427 . S
N1464 C1461 1.384 . S
N1465 C1457 1.427 . S
N1465 C1463 1.384 . S
H1466 C1472 0.930 . S
H1467 C1476 0.930 . S
H1468 C1481 0.929 . S
H1469 C1479 0.929 . S
H1470 C1474 0.929 . S
H1471 C1480 0.929 . S
C1472 H1466 0.930 . S
C1472 C1473 1.367 . S
C1472 C1480 1.378 . S
C1473 C1472 1.367 . S
C1473 C1481 1.433 . S
C1474 H1470 0.929 . S
C1474 C1476 1.378 . S
C1474 C1478 1.350 . S
C1475 C1478 1.463 . S
C1475 C1480 1.350 . S
C1475 N1483 1.427 . S
C1476 H1467 0.930 . S
C1476 C1474 1.378 . S
C1476 C1477 1.367 . S
C1477 C1476 1.367 . S
C1477 C1479 1.433 . S
C1478 C1474 1.350 . S
C1478 C1475 1.463 . S
C1478 N1482 1.427 . S
C1479 H1469 0.929 . S
C1479 C1477 1.433 . S
C1479 N1482 1.384 . S
C1480 H1471 0.929 . S
C1480 C1472 1.378 . S
C1480 C1475 1.350 . S
C1481 H1468 0.929 . S
C1481 C1473 1.433 . S
C1481 N1483 1.384 . S
N1482 C1478 1.427 . S
N1482 C1479 1.384 . S
N1483 C1475 1.427 . S
N1483 C1481 1.384 . S
H1484 C1490 0.930 . S
H1485 C1494 0.930 . S
H1486 C1499 0.929 1_655 S
H1487 C1497 0.929 . S
H1488 C1492 0.929 . S
H1489 C1498 0.929 . S
C1490 H1484 0.930 . S
C1490 C1491 1.367 . S
C1490 C1498 1.378 1_655 S
C1491 C1490 1.367 . S
C1491 C1499 1.433 1_655 S
C1492 H1488 0.929 . S
C1492 C1494 1.378 . S
C1492 C1496 1.350 . S
C1493 C1496 1.463 . S
C1493 C1498 1.350 . S
C1493 N1501 1.427 . S
C1494 H1485 0.930 . S
C1494 C1492 1.378 . S
C1494 C1495 1.367 . S
C1495 C1494 1.367 . S
C1495 C1497 1.433 . S
C1496 C1492 1.350 . S
C1496 C1493 1.463 . S
C1496 N1500 1.427 . S
C1497 H1487 0.929 . S
C1497 C1495 1.433 . S
C1497 N1500 1.384 . S
C1498 H1489 0.929 . S
C1498 C1490 1.378 1_455 S
C1498 C1493 1.350 . S
C1499 H1486 0.929 1_455 S
C1499 C1491 1.433 1_455 S
C1499 N1501 1.384 . S
N1500 C1496 1.427 . S
N1500 C1497 1.384 . S
N1501 C1493 1.427 . S
N1501 C1499 1.384 . S
H1502 C1508 0.930 . S
H1503 C1512 0.930 . S
H1504 C1517 0.929 . S
H1505 C1515 0.929 . S
H1506 C1510 0.929 . S
H1507 C1516 0.929 . S
C1508 H1502 0.930 . S
C1508 C1509 1.367 . S
C1508 C1516 1.378 . S
C1509 C1508 1.367 . S
C1509 C1517 1.433 . S
C1510 H1506 0.929 . S
C1510 C1512 1.378 . S
C1510 C1514 1.350 . S
C1511 C1514 1.463 . S
C1511 C1516 1.350 . S
C1511 N1519 1.427 . S
C1512 H1503 0.930 . S
C1512 C1510 1.378 . S
C1512 C1513 1.367 . S
C1513 C1512 1.367 . S
C1513 C1515 1.433 . S
C1514 C1510 1.350 . S
C1514 C1511 1.463 . S
C1514 N1518 1.427 . S
C1515 H1505 0.929 . S
C1515 C1513 1.433 . S
C1515 N1518 1.384 . S
C1516 H1507 0.929 . S
C1516 C1508 1.378 . S
C1516 C1511 1.350 . S
C1517 H1504 0.929 . S
C1517 C1509 1.433 . S
C1517 N1519 1.384 . S
N1518 C1514 1.427 . S
N1518 C1515 1.384 . S
N1519 C1511 1.427 . S
N1519 C1517 1.384 . S
H1520 C1526 0.930 . S
H1521 C1530 0.930 . S
H1522 C1535 0.929 . S
H1523 C1533 0.929 . S
H1524 C1528 0.929 . S
H1525 C1534 0.929 . S
C1526 H1520 0.930 . S
C1526 C1527 1.367 . S
C1526 C1534 1.378 . S
C1527 C1526 1.367 . S
C1527 C1535 1.433 . S
C1528 H1524 0.929 . S
C1528 C1530 1.378 . S
C1528 C1532 1.350 . S
C1529 C1532 1.463 . S
C1529 C1534 1.350 . S
C1529 N1537 1.427 . S
C1530 H1521 0.930 . S
C1530 C1528 1.378 . S
C1530 C1531 1.367 . S
C1531 C1530 1.367 . S
C1531 C1533 1.433 . S
C1532 C1528 1.350 . S
C1532 C1529 1.463 . S
C1532 N1536 1.427 . S
C1533 H1523 0.929 . S
C1533 C1531 1.433 . S
C1533 N1536 1.384 . S
C1534 H1525 0.929 . S
C1534 C1526 1.378 . S
C1534 C1529 1.350 . S
C1535 H1522 0.929 . S
C1535 C1527 1.433 . S
C1535 N1537 1.384 . S
N1536 C1532 1.427 . S
N1536 C1533 1.384 . S
N1537 C1529 1.427 . S
N1537 C1535 1.384 . S
H1538 C1544 0.930 . S
H1539 C1548 0.930 . S
H1540 C1553 0.929 . S
H1541 C1551 0.929 . S
H1542 C1546 0.929 . S
H1543 C1552 0.929 . S
C1544 H1538 0.930 . S
C1544 C1545 1.367 . S
C1544 C1552 1.378 . S
C1545 C1544 1.367 . S
C1545 C1553 1.433 . S
C1546 H1542 0.929 . S
C1546 C1548 1.378 . S
C1546 C1550 1.350 . S
C1547 C1550 1.463 . S
C1547 C1552 1.350 . S
C1547 N1555 1.427 . S
C1548 H1539 0.930 . S
C1548 C1546 1.378 . S
C1548 C1549 1.367 . S
C1549 C1548 1.367 . S
C1549 C1551 1.433 . S
C1550 C1546 1.350 . S
C1550 C1547 1.463 . S
C1550 N1554 1.427 . S
C1551 H1541 0.929 . S
C1551 C1549 1.433 . S
C1551 N1554 1.384 . S
C1552 H1543 0.929 . S
C1552 C1544 1.378 . S
C1552 C1547 1.350 . S
C1553 H1540 0.929 . S
C1553 C1545 1.433 . S
C1553 N1555 1.384 . S
N1554 C1550 1.427 . S
N1554 C1551 1.384 . S
N1555 C1547 1.427 . S
N1555 C1553 1.384 . S
H1556 C1562 0.930 . S
H1557 C1566 0.930 . S
H1558 C1571 0.929 . S
H1559 C1569 0.923 1_455 S
H1560 C1564 0.929 . S
H1561 C1570 0.929 . S
C1562 H1556 0.930 . S
C1562 C1563 1.367 . S
C1562 C1570 1.378 . S
C1563 C1562 1.367 . S
C1563 C1571 1.433 . S
C1564 H1560 0.929 . S
C1564 C1566 1.378 1_655 S
C1564 C1568 1.350 . S
C1565 C1568 1.463 . S
C1565 C1570 1.350 . S
C1565 N1573 1.427 . S
C1566 H1557 0.930 . S
C1566 C1564 1.378 1_455 S
C1566 C1567 1.367 . S
C1567 C1566 1.367 . S
C1567 C1569 1.433 1_455 S
C1568 C1564 1.350 . S
C1568 C1565 1.463 . S
C1568 N1572 1.427 . S
C1569 H1559 0.923 1_655 S
C1569 C1567 1.433 1_655 S
C1569 N1572 1.384 . S
C1570 H1561 0.929 . S
C1570 C1562 1.378 . S
C1570 C1565 1.350 . S
C1571 H1558 0.929 . S
C1571 C1563 1.433 . S
C1571 N1573 1.384 . S
N1572 C1568 1.427 . S
N1572 C1569 1.384 . S
N1573 C1565 1.427 . S
N1573 C1571 1.384 . S
H1574 C1580 0.930 . S
H1575 C1584 0.930 . S
H1576 C1589 0.929 . S
H1577 C1587 0.929 . S
H1578 C1582 0.929 . S
H1579 C1588 0.929 . S
C1580 H1574 0.930 . S
C1580 C1581 1.367 . S
C1580 C1588 1.378 . S
C1581 C1580 1.367 . S
C1581 C1589 1.433 . S
C1582 H1578 0.929 . S
C1582 C1584 1.378 . S
C1582 C1586 1.350 . S
C1583 C1586 1.463 . S
C1583 C1588 1.350 . S
C1583 N1591 1.427 . S
C1584 H1575 0.930 . S
C1584 C1582 1.378 . S
C1584 C1585 1.367 . S
C1585 C1584 1.367 . S
C1585 C1587 1.433 . S
C1586 C1582 1.350 . S
C1586 C1583 1.463 . S
C1586 N1590 1.427 . S
C1587 H1577 0.929 . S
C1587 C1585 1.433 . S
C1587 N1590 1.384 . S
C1588 H1579 0.929 . S
C1588 C1580 1.378 . S
C1588 C1583 1.350 . S
C1589 H1576 0.929 . S
C1589 C1581 1.433 . S
C1589 N1591 1.384 . S
N1590 C1586 1.427 . S
N1590 C1587 1.384 . S
N1591 C1583 1.427 . S
N1591 C1589 1.384 . S
H1592 C1598 0.930 . S
H1593 C1602 0.930 . S
H1594 C1607 0.929 . S
H1595 C1605 0.929 . S
H1596 C1600 0.929 . S
H1597 C1606 0.929 . S
C1598 H1592 0.930 . S
C1598 C1599 1.367 . S
C1598 C1606 1.378 . S
C1599 C1598 1.367 . S
C1599 C1607 1.433 . S
C1600 H1596 0.929 . S
C1600 C1602 1.378 . S
C1600 C1604 1.350 . S
C1601 C1604 1.463 . S
C1601 C1606 1.350 . S
C1601 N1609 1.427 . S
C1602 H1593 0.930 . S
C1602 C1600 1.378 . S
C1602 C1603 1.367 . S
C1603 C1602 1.367 . S
C1603 C1605 1.433 . S
C1604 C1600 1.350 . S
C1604 C1601 1.463 . S
C1604 N1608 1.427 . S
C1605 H1595 0.929 . S
C1605 C1603 1.433 . S
C1605 N1608 1.384 . S
C1606 H1597 0.929 . S
C1606 C1598 1.378 . S
C1606 C1601 1.350 . S
C1607 H1594 0.929 . S
C1607 C1599 1.433 . S
C1607 N1609 1.384 . S
N1608 C1604 1.427 . S
N1608 C1605 1.384 . S
N1609 C1601 1.427 . S
N1609 C1607 1.384 . S
H1610 C1616 0.930 . S
H1611 C1620 0.930 . S
H1612 C1625 0.929 . S
H1613 C1623 0.929 . S
H1614 C1618 0.929 . S
H1615 C1624 0.929 . S
C1616 H1610 0.930 . S
C1616 C1617 1.367 . S
C1616 C1624 1.378 . S
C1617 C1616 1.367 . S
C1617 C1625 1.433 . S
C1618 H1614 0.929 . S
C1618 C1620 1.378 . S
C1618 C1622 1.350 . S
C1619 C1622 1.463 . S
C1619 C1624 1.350 . S
C1619 N1627 1.427 . S
C1620 H1611 0.930 . S
C1620 C1618 1.378 . S
C1620 C1621 1.367 . S
C1621 C1620 1.367 . S
C1621 C1623 1.433 . S
C1622 C1618 1.350 . S
C1622 C1619 1.463 . S
C1622 N1626 1.427 . S
C1623 H1613 0.929 . S
C1623 C1621 1.433 . S
C1623 N1626 1.384 . S
C1624 H1615 0.929 . S
C1624 C1616 1.378 . S
C1624 C1619 1.350 . S
C1625 H1612 0.929 . S
C1625 C1617 1.433 . S
C1625 N1627 1.384 . S
N1626 C1622 1.427 . S
N1626 C1623 1.384 . S
N1627 C1619 1.427 . S
N1627 C1625 1.384 . S
H1628 C1634 0.930 . S
H1629 C1638 0.930 . S
H1630 C1643 0.929 . S
H1631 C1641 0.929 . S
H1632 C1636 0.929 . S
H1633 C1642 0.929 . S
C1634 H1628 0.930 . S
C1634 C1635 1.367 . S
C1634 C1642 1.378 . S
C1635 C1634 1.367 . S
C1635 C1643 1.433 . S
C1636 H1632 0.929 . S
C1636 C1638 1.378 1_655 S
C1636 C1640 1.350 . S
C1637 C1640 1.463 . S
C1637 C1642 1.350 . S
C1637 N1645 1.427 . S
C1638 H1629 0.930 . S
C1638 C1636 1.378 1_455 S
C1638 C1639 1.367 . S
C1639 C1638 1.367 . S
C1639 C1641 1.433 . S
C1640 C1636 1.350 . S
C1640 C1637 1.463 . S
C1640 N1644 1.427 . S
C1641 H1631 0.929 . S
C1641 C1639 1.433 . S
C1641 N1644 1.384 1_455 S
C1642 H1633 0.929 . S
C1642 C1634 1.378 . S
C1642 C1637 1.350 . S
C1643 H1630 0.929 . S
C1643 C1635 1.433 . S
C1643 N1645 1.384 . S
N1644 C1640 1.427 . S
N1644 C1641 1.384 1_655 S
N1645 C1637 1.427 . S
N1645 C1643 1.384 . S
H1646 C1652 0.930 . S
H1647 C1656 0.930 . S
H1648 C1661 0.929 . S
H1649 C1659 0.929 . S
H1650 C1654 0.929 . S
H1651 C1660 0.929 . S
C1652 H1646 0.930 . S
C1652 C1653 1.367 . S
C1652 C1660 1.378 . S
C1653 C1652 1.367 . S
C1653 C1661 1.433 . S
C1654 H1650 0.929 . S
C1654 C1656 1.378 . S
C1654 C1658 1.350 . S
C1655 C1658 1.463 . S
C1655 C1660 1.350 . S
C1655 N1663 1.427 . S
C1656 H1647 0.930 . S
C1656 C1654 1.378 . S
C1656 C1657 1.367 . S
C1657 C1656 1.367 . S
C1657 C1659 1.433 . S
C1658 C1654 1.350 . S
C1658 C1655 1.463 . S
C1658 N1662 1.427 . S
C1659 H1649 0.929 . S
C1659 C1657 1.433 . S
C1659 N1662 1.384 . S
C1660 H1651 0.929 . S
C1660 C1652 1.378 . S
C1660 C1655 1.350 . S
C1661 H1648 0.929 . S
C1661 C1653 1.433 . S
C1661 N1663 1.384 . S
N1662 C1658 1.427 . S
N1662 C1659 1.384 . S
N1663 C1655 1.427 . S
N1663 C1661 1.384 . S
H1664 C1670 0.930 . S
H1665 C1674 0.930 . S
H1666 C1679 0.929 . S
H1667 C1677 0.929 . S
H1668 C1672 0.929 . S
H1669 C1678 0.929 . S
C1670 H1664 0.930 . S
C1670 C1671 1.367 1_655 S
C1670 C1678 1.378 . S
C1671 C1670 1.367 1_455 S
C1671 C1679 1.433 . S
C1672 H1668 0.929 . S
C1672 C1674 1.378 . S
C1672 C1676 1.350 . S
C1673 C1676 1.463 . S
C1673 C1678 1.350 . S
C1673 N1681 1.427 . S
C1674 H1665 0.930 . S
C1674 C1672 1.378 . S
C1674 C1675 1.367 . S
C1675 C1674 1.367 . S
C1675 C1677 1.433 . S
C1676 C1672 1.350 . S
C1676 C1673 1.463 . S
C1676 N1680 1.427 . S
C1677 H1667 0.929 . S
C1677 C1675 1.433 . S
C1677 N1680 1.384 . S
C1678 H1669 0.929 . S
C1678 C1670 1.378 . S
C1678 C1673 1.350 . S
C1679 H1666 0.929 . S
C1679 C1671 1.433 . S
C1679 N1681 1.384 1_455 S
N1680 C1676 1.427 . S
N1680 C1677 1.384 . S
N1681 C1673 1.427 . S
N1681 C1679 1.384 1_655 S
H1682 C1688 0.930 . S
H1683 C1692 0.930 . S
H1684 C1697 0.929 . S
H1685 C1695 0.929 . S
H1686 C1690 0.929 . S
H1687 C1696 0.929 . S
C1688 H1682 0.930 . S
C1688 C1689 1.367 . S
C1688 C1696 1.378 . S
C1689 C1688 1.367 . S
C1689 C1697 1.433 . S
C1690 H1686 0.929 . S
C1690 C1692 1.378 . S
C1690 C1694 1.350 . S
C1691 C1694 1.463 . S
C1691 C1696 1.350 . S
C1691 N1699 1.427 . S
C1692 H1683 0.930 . S
C1692 C1690 1.378 . S
C1692 C1693 1.367 . S
C1693 C1692 1.367 . S
C1693 C1695 1.433 . S
C1694 C1690 1.350 . S
C1694 C1691 1.463 . S
C1694 N1698 1.427 . S
C1695 H1685 0.929 . S
C1695 C1693 1.433 . S
C1695 N1698 1.384 . S
C1696 H1687 0.929 . S
C1696 C1688 1.378 . S
C1696 C1691 1.350 . S
C1697 H1684 0.929 . S
C1697 C1689 1.433 . S
C1697 N1699 1.384 . S
N1698 C1694 1.427 . S
N1698 C1695 1.384 . S
N1699 C1691 1.427 . S
N1699 C1697 1.384 . S
H1700 C1706 0.930 . S
H1701 C1710 0.930 . S
H1702 C1715 0.929 . S
H1703 C1713 0.929 . S
H1704 C1708 0.929 . S
H1705 C1714 0.929 . S
C1706 H1700 0.930 . S
C1706 C1707 1.367 . S
C1706 C1714 1.378 . S
C1707 C1706 1.367 . S
C1707 C1715 1.433 . S
C1708 H1704 0.929 . S
C1708 C1710 1.378 . S
C1708 C1712 1.350 . S
C1709 C1712 1.463 . S
C1709 C1714 1.350 . S
C1709 N1717 1.427 . S
C1710 H1701 0.930 . S
C1710 C1708 1.378 . S
C1710 C1711 1.367 . S
C1711 C1710 1.367 . S
C1711 C1713 1.433 . S
C1712 C1708 1.350 . S
C1712 C1709 1.463 . S
C1712 N1716 1.427 . S
C1713 H1703 0.929 . S
C1713 C1711 1.433 . S
C1713 N1716 1.384 . S
C1714 H1705 0.929 . S
C1714 C1706 1.378 . S
C1714 C1709 1.350 . S
C1715 H1702 0.929 . S
C1715 C1707 1.433 . S
C1715 N1717 1.384 . S
N1716 C1712 1.427 . S
N1716 C1713 1.384 . S
N1717 C1709 1.427 . S
N1717 C1715 1.384 . S
H1718 C1724 0.930 . S
H1719 C1728 0.930 . S
H1720 C1733 0.929 . S
H1721 C1731 0.929 . S
H1722 C1726 0.929 . S
H1723 C1732 0.929 . S
C1724 H1718 0.930 . S
C1724 C1725 1.367 . S
C1724 C1732 1.378 . S
C1725 C1724 1.367 . S
C1725 C1733 1.433 . S
C1726 H1722 0.929 . S
C1726 C1728 1.378 . S
C1726 C1730 1.350 . S
C1727 C1730 1.463 . S
C1727 C1732 1.350 . S
C1727 N1735 1.427 . S
C1728 H1719 0.930 . S
C1728 C1726 1.378 . S
C1728 C1729 1.367 . S
C1729 C1728 1.367 . S
C1729 C1731 1.433 . S
C1730 C1726 1.350 . S
C1730 C1727 1.463 . S
C1730 N1734 1.427 . S
C1731 H1721 0.929 . S
C1731 C1729 1.433 . S
C1731 N1734 1.384 . S
C1732 H1723 0.929 . S
C1732 C1724 1.378 . S
C1732 C1727 1.350 . S
C1733 H1720 0.929 . S
C1733 C1725 1.433 . S
C1733 N1735 1.384 . S
N1734 C1730 1.427 . S
N1734 C1731 1.384 . S
N1735 C1727 1.427 . S
N1735 C1733 1.384 . S
H1736 C1742 0.930 . S
H1737 C1746 0.930 . S
H1738 C1751 0.929 . S
H1739 C1749 0.929 . S
H1740 C1744 0.929 . S
H1741 C1750 0.929 . S
C1742 H1736 0.930 . S
C1742 C1743 1.367 . S
C1742 C1750 1.378 . S
C1743 C1742 1.367 . S
C1743 C1751 1.433 . S
C1744 H1740 0.929 . S
C1744 C1746 1.378 . S
C1744 C1748 1.350 . S
C1745 C1748 1.463 . S
C1745 C1750 1.350 . S
C1745 N1753 1.427 . S
C1746 H1737 0.930 . S
C1746 C1744 1.378 . S
C1746 C1747 1.367 1_655 S
C1747 C1746 1.367 1_455 S
C1747 C1749 1.433 . S
C1748 C1744 1.350 . S
C1748 C1745 1.463 . S
C1748 N1752 1.427 . S
C1749 H1739 0.929 . S
C1749 C1747 1.433 . S
C1749 N1752 1.384 1_455 S
C1750 H1741 0.929 . S
C1750 C1742 1.378 . S
C1750 C1745 1.350 . S
C1751 H1738 0.929 . S
C1751 C1743 1.433 . S
C1751 N1753 1.384 . S
N1752 C1748 1.427 . S
N1752 C1749 1.384 1_655 S
N1753 C1745 1.427 . S
N1753 C1751 1.384 . S
H1754 C1760 0.930 . S
H1755 C1764 0.930 . S
H1756 C1769 0.929 . S
H1757 C1767 0.929 . S
H1758 C1762 0.929 . S
H1759 C1768 0.929 . S
C1760 H1754 0.930 . S
C1760 C1761 1.367 . S
C1760 C1768 1.378 . S
C1761 C1760 1.367 . S
C1761 C1769 1.433 . S
C1762 H1758 0.929 . S
C1762 C1764 1.378 . S
C1762 C1766 1.350 . S
C1763 C1766 1.463 . S
C1763 C1768 1.350 . S
C1763 N1771 1.427 . S
C1764 H1755 0.930 . S
C1764 C1762 1.378 . S
C1764 C1765 1.367 . S
C1765 C1764 1.367 . S
C1765 C1767 1.433 . S
C1766 C1762 1.350 . S
C1766 C1763 1.463 . S
C1766 N1770 1.427 . S
C1767 H1757 0.929 . S
C1767 C1765 1.433 . S
C1767 N1770 1.384 . S
C1768 H1759 0.929 . S
C1768 C1760 1.378 . S
C1768 C1763 1.350 . S
C1769 H1756 0.929 . S
C1769 C1761 1.433 . S
C1769 N1771 1.384 . S
N1770 C1766 1.427 . S
N1770 C1767 1.384 . S
N1771 C1763 1.427 . S
N1771 C1769 1.384 . S
H1772 C1778 0.930 . S
H1773 C1782 0.930 . S
H1774 C1787 0.929 . S
H1775 C1785 0.929 . S
H1776 C1780 0.929 . S
H1777 C1786 0.929 . S
C1778 H1772 0.930 . S
C1778 C1779 1.367 . S
C1778 C1786 1.378 . S
C1779 C1778 1.367 . S
C1779 C1787 1.433 . S
C1780 H1776 0.929 . S
C1780 C1782 1.378 . S
C1780 C1784 1.350 . S
C1781 C1784 1.463 . S
C1781 C1786 1.350 . S
C1781 N1789 1.427 . S
C1782 H1773 0.930 . S
C1782 C1780 1.378 . S
C1782 C1783 1.367 . S
C1783 C1782 1.367 . S
C1783 C1785 1.433 . S
C1784 C1780 1.350 . S
C1784 C1781 1.463 . S
C1784 N1788 1.427 . S
C1785 H1775 0.929 . S
C1785 C1783 1.433 . S
C1785 N1788 1.384 . S
C1786 H1777 0.929 . S
C1786 C1778 1.378 . S
C1786 C1781 1.350 . S
C1787 H1774 0.929 . S
C1787 C1779 1.433 . S
C1787 N1789 1.384 . S
N1788 C1784 1.427 . S
N1788 C1785 1.384 . S
N1789 C1781 1.427 . S
N1789 C1787 1.384 . S
H1790 C1796 0.930 . S
H1791 C1800 0.930 . S
H1792 C1805 0.929 . S
H1793 C1803 0.929 . S
H1794 C1798 0.929 . S
H1795 C1804 0.929 . S
C1796 H1790 0.930 . S
C1796 C1797 1.367 . S
C1796 C1804 1.378 . S
C1797 C1796 1.367 . S
C1797 C1805 1.433 . S
C1798 H1794 0.929 . S
C1798 C1800 1.378 . S
C1798 C1802 1.350 . S
C1799 C1802 1.463 . S
C1799 C1804 1.350 . S
C1799 N1807 1.427 . S
C1800 H1791 0.930 . S
C1800 C1798 1.378 . S
C1800 C1801 1.367 . S
C1801 C1800 1.367 . S
C1801 C1803 1.433 . S
C1802 C1798 1.350 . S
C1802 C1799 1.463 . S
C1802 N1806 1.427 . S
C1803 H1793 0.929 . S
C1803 C1801 1.433 . S
C1803 N1806 1.384 . S
C1804 H1795 0.929 . S
C1804 C1796 1.378 . S
C1804 C1799 1.350 . S
C1805 H1792 0.929 . S
C1805 C1797 1.433 . S
C1805 N1807 1.384 . S
N1806 C1802 1.427 . S
N1806 C1803 1.384 . S
N1807 C1799 1.427 . S
N1807 C1805 1.384 . S
H1808 C1814 0.930 . S
H1809 C1818 0.930 . S
H1810 C1823 0.929 . S
H1811 C1821 0.929 . S
H1812 C1816 0.929 . S
H1813 C1822 0.929 . S
C1814 H1808 0.930 . S
C1814 C1815 1.367 . S
C1814 C1822 1.378 1_655 S
C1815 C1814 1.367 . S
C1815 C1823 1.433 1_655 S
C1816 H1812 0.929 . S
C1816 C1818 1.378 . S
C1816 C1820 1.350 . S
C1817 C1820 1.463 . S
C1817 C1822 1.350 . S
C1817 N1825 1.427 . S
C1818 H1809 0.930 . S
C1818 C1816 1.378 . S
C1818 C1819 1.367 . S
C1819 C1818 1.367 . S
C1819 C1821 1.433 . S
C1820 C1816 1.350 . S
C1820 C1817 1.463 . S
C1820 N1824 1.427 . S
C1821 H1811 0.929 . S
C1821 C1819 1.433 . S
C1821 N1824 1.384 . S
C1822 H1813 0.929 . S
C1822 C1814 1.378 1_455 S
C1822 C1817 1.350 . S
C1823 H1810 0.929 . S
C1823 C1815 1.433 1_455 S
C1823 N1825 1.384 . S
N1824 C1820 1.427 . S
N1824 C1821 1.384 . S
N1825 C1817 1.427 . S
N1825 C1823 1.384 . S
H1826 C1832 0.930 . S
H1827 C1836 0.930 . S
H1828 C1841 0.929 . S
H1829 C1839 0.929 . S
H1830 C1834 0.929 . S
H1831 C1840 0.929 . S
C1832 H1826 0.930 . S
C1832 C1833 1.367 . S
C1832 C1840 1.378 . S
C1833 C1832 1.367 . S
C1833 C1841 1.433 . S
C1834 H1830 0.929 . S
C1834 C1836 1.378 . S
C1834 C1838 1.350 . S
C1835 C1838 1.463 . S
C1835 C1840 1.350 . S
C1835 N1843 1.427 . S
C1836 H1827 0.930 . S
C1836 C1834 1.378 . S
C1836 C1837 1.367 . S
C1837 C1836 1.367 . S
C1837 C1839 1.433 . S
C1838 C1834 1.350 . S
C1838 C1835 1.463 . S
C1838 N1842 1.427 . S
C1839 H1829 0.929 . S
C1839 C1837 1.433 . S
C1839 N1842 1.384 . S
C1840 H1831 0.929 . S
C1840 C1832 1.378 . S
C1840 C1835 1.350 . S
C1841 H1828 0.929 . S
C1841 C1833 1.433 . S
C1841 N1843 1.384 . S
N1842 C1838 1.427 . S
N1842 C1839 1.384 . S
N1843 C1835 1.427 . S
N1843 C1841 1.384 . S
H1844 C1850 0.930 . S
H1845 C1854 0.930 . S
H1846 C1859 0.929 . S
H1847 C1857 0.929 . S
H1848 C1852 0.929 . S
H1849 C1858 0.929 . S
C1850 H1844 0.930 . S
C1850 C1851 1.367 . S
C1850 C1858 1.378 . S
C1851 C1850 1.367 . S
C1851 C1859 1.433 . S
C1852 H1848 0.929 . S
C1852 C1854 1.378 . S
C1852 C1856 1.350 . S
C1853 C1856 1.463 . S
C1853 C1858 1.350 . S
C1853 N1861 1.427 . S
C1854 H1845 0.930 . S
C1854 C1852 1.378 . S
C1854 C1855 1.367 . S
C1855 C1854 1.367 . S
C1855 C1857 1.433 . S
C1856 C1852 1.350 . S
C1856 C1853 1.463 . S
C1856 N1860 1.427 . S
C1857 H1847 0.929 . S
C1857 C1855 1.433 . S
C1857 N1860 1.384 . S
C1858 H1849 0.929 . S
C1858 C1850 1.378 . S
C1858 C1853 1.350 . S
C1859 H1846 0.929 . S
C1859 C1851 1.433 . S
C1859 N1861 1.384 . S
N1860 C1856 1.427 . S
N1860 C1857 1.384 . S
N1861 C1853 1.427 . S
N1861 C1859 1.384 . S
H1862 C1868 0.930 . S
H1863 C1872 0.930 . S
H1864 C1877 0.929 . S
H1865 C1875 0.929 . S
H1866 C1870 0.929 . S
H1867 C1876 0.929 . S
C1868 H1862 0.930 . S
C1868 C1869 1.367 . S
C1868 C1876 1.378 . S
C1869 C1868 1.367 . S
C1869 C1877 1.433 . S
C1870 H1866 0.929 . S
C1870 C1872 1.378 . S
C1870 C1874 1.350 . S
C1871 C1874 1.463 . S
C1871 C1876 1.350 . S
C1871 N1879 1.427 . S
C1872 H1863 0.930 . S
C1872 C1870 1.378 . S
C1872 C1873 1.367 . S
C1873 C1872 1.367 . S
C1873 C1875 1.433 . S
C1874 C1870 1.350 . S
C1874 C1871 1.463 . S
C1874 N1878 1.427 . S
C1875 H1865 0.929 . S
C1875 C1873 1.433 . S
C1875 N1878 1.384 . S
C1876 H1867 0.929 . S
C1876 C1868 1.378 . S
C1876 C1871 1.350 . S
C1877 H1864 0.929 . S
C1877 C1869 1.433 . S
C1877 N1879 1.384 . S
N1878 C1874 1.427 . S
N1878 C1875 1.384 . S
N1879 C1871 1.427 . S
N1879 C1877 1.384 . S
H1880 C1886 0.930 . S
H1881 C1890 0.930 . S
H1882 C1895 0.929 . S
H1883 C1893 0.922 1_655 S
H1884 C1888 0.929 . S
H1885 C1894 0.929 . S
C1886 H1880 0.930 . S
C1886 C1887 1.367 . S
C1886 C1894 1.378 . S
C1887 C1886 1.367 . S
C1887 C1895 1.433 . S
C1888 H1884 0.929 . S
C1888 C1890 1.378 1_455 S
C1888 C1892 1.350 . S
C1889 C1892 1.463 . S
C1889 C1894 1.350 . S
C1889 N1897 1.427 . S
C1890 H1881 0.930 . S
C1890 C1888 1.378 1_655 S
C1890 C1891 1.367 . S
C1891 C1890 1.367 . S
C1891 C1893 1.418 1_655 S
C1892 C1888 1.350 . S
C1892 C1889 1.463 . S
C1892 N1896 1.427 . S
C1893 H1883 0.922 1_455 S
C1893 C1891 1.418 1_455 S
C1893 N1896 1.407 . S
C1894 H1885 0.929 . S
C1894 C1886 1.378 . S
C1894 C1889 1.350 . S
C1895 H1882 0.929 . S
C1895 C1887 1.433 . S
C1895 N1897 1.384 . S
N1896 C1892 1.427 . S
N1896 C1893 1.407 . S
N1897 C1889 1.427 . S
N1897 C1895 1.384 . S
H1898 C1904 0.930 . S
H1899 C1908 0.930 . S
H1900 C1913 0.929 . S
H1901 C1911 0.929 . S
H1902 C1906 0.929 . S
H1903 C1912 0.929 . S
C1904 H1898 0.930 . S
C1904 C1905 1.367 . S
C1904 C1912 1.378 . S
C1905 C1904 1.367 . S
C1905 C1913 1.433 . S
C1906 H1902 0.929 . S
C1906 C1908 1.378 . S
C1906 C1910 1.350 . S
C1907 C1910 1.463 . S
C1907 C1912 1.350 . S
C1907 N1915 1.427 . S
C1908 H1899 0.930 . S
C1908 C1906 1.378 . S
C1908 C1909 1.367 . S
C1909 C1908 1.367 . S
C1909 C1911 1.433 . S
C1910 C1906 1.350 . S
C1910 C1907 1.463 . S
C1910 N1914 1.427 . S
C1911 H1901 0.929 . S
C1911 C1909 1.433 . S
C1911 N1914 1.384 . S
C1912 H1903 0.929 . S
C1912 C1904 1.378 . S
C1912 C1907 1.350 . S
C1913 H1900 0.929 . S
C1913 C1905 1.433 . S
C1913 N1915 1.384 . S
N1914 C1910 1.427 . S
N1914 C1911 1.384 . S
N1915 C1907 1.427 . S
N1915 C1913 1.384 . S
H1916 C1922 0.930 . S
H1917 C1926 0.930 . S
H1918 C1931 0.929 . S
H1919 C1929 0.929 . S
H1920 C1924 0.929 . S
H1921 C1930 0.929 . S
C1922 H1916 0.930 . S
C1922 C1923 1.367 . S
C1922 C1930 1.378 . S
C1923 C1922 1.367 . S
C1923 C1931 1.433 . S
C1924 H1920 0.929 . S
C1924 C1926 1.378 . S
C1924 C1928 1.350 . S
C1925 C1928 1.463 . S
C1925 C1930 1.350 . S
C1925 N1933 1.427 . S
C1926 H1917 0.930 . S
C1926 C1924 1.378 . S
C1926 C1927 1.367 . S
C1927 C1926 1.367 . S
C1927 C1929 1.433 . S
C1928 C1924 1.350 . S
C1928 C1925 1.463 . S
C1928 N1932 1.427 . S
C1929 H1919 0.929 . S
C1929 C1927 1.433 . S
C1929 N1932 1.384 . S
C1930 H1921 0.929 . S
C1930 C1922 1.378 . S
C1930 C1925 1.350 . S
C1931 H1918 0.929 . S
C1931 C1923 1.433 . S
C1931 N1933 1.384 . S
N1932 C1928 1.427 . S
N1932 C1929 1.384 . S
N1933 C1925 1.427 . S
N1933 C1931 1.384 . S
H1934 C1940 0.930 . S
H1935 C1944 0.930 . S
H1936 C1949 0.929 . S
H1937 C1947 0.929 . S
H1938 C1942 0.929 . S
H1939 C1948 0.929 . S
C1940 H1934 0.930 . S
C1940 C1941 1.367 . S
C1940 C1948 1.378 . S
C1941 C1940 1.367 . S
C1941 C1949 1.433 . S
C1942 H1938 0.929 . S
C1942 C1944 1.378 . S
C1942 C1946 1.350 . S
C1943 C1946 1.463 . S
C1943 C1948 1.350 . S
C1943 N1951 1.427 . S
C1944 H1935 0.930 . S
C1944 C1942 1.378 . S
C1944 C1945 1.367 . S
C1945 C1944 1.367 . S
C1945 C1947 1.433 . S
C1946 C1942 1.350 . S
C1946 C1943 1.463 . S
C1946 N1950 1.427 . S
C1947 H1937 0.929 . S
C1947 C1945 1.433 . S
C1947 N1950 1.384 . S
C1948 H1939 0.929 . S
C1948 C1940 1.378 . S
C1948 C1943 1.350 . S
C1949 H1936 0.929 . S
C1949 C1941 1.433 . S
C1949 N1951 1.384 . S
N1950 C1946 1.427 . S
N1950 C1947 1.384 . S
N1951 C1943 1.427 . S
N1951 C1949 1.384 . S
H1952 C1958 0.930 . S
H1953 C1962 0.930 . S
H1954 C1967 0.929 . S
H1955 C1965 0.929 . S
H1956 C1960 0.929 . S
H1957 C1966 0.929 . S
C1958 H1952 0.930 . S
C1958 C1959 1.367 . S
C1958 C1966 1.378 . S
C1959 C1958 1.367 . S
C1959 C1967 1.433 1_545 S
C1960 H1956 0.929 . S
C1960 C1962 1.378 . S
C1960 C1964 1.350 . S
C1961 C1964 1.463 . S
C1961 C1966 1.350 . S
C1961 N1969 1.427 . S
C1962 H1953 0.930 . S
C1962 C1960 1.378 . S
C1962 C1963 1.367 . S
C1963 C1962 1.367 . S
C1963 C1965 1.433 . S
C1964 C1960 1.350 . S
C1964 C1961 1.463 . S
C1964 N1968 1.427 . S
C1965 H1955 0.929 . S
C1965 C1963 1.433 . S
C1965 N1968 1.384 . S
C1966 H1957 0.929 . S
C1966 C1958 1.378 . S
C1966 C1961 1.350 . S
C1967 H1954 0.929 . S
C1967 C1959 1.433 1_565 S
C1967 N1969 1.384 1_565 S
N1968 C1964 1.427 . S
N1968 C1965 1.384 . S
N1969 C1961 1.427 . S
N1969 C1967 1.384 1_545 S
H1970 C1976 0.930 . S
H1971 C1980 0.930 . S
H1972 C1985 0.929 . S
H1973 C1983 0.929 . S
H1974 C1978 0.929 . S
H1975 C1984 0.929 . S
C1976 H1970 0.930 . S
C1976 C1977 1.367 . S
C1976 C1984 1.378 . S
C1977 C1976 1.367 . S
C1977 C1985 1.433 . S
C1978 H1974 0.929 . S
C1978 C1980 1.378 1_565 S
C1978 C1982 1.350 . S
C1979 C1982 1.463 . S
C1979 C1984 1.350 . S
C1979 N1987 1.427 . S
C1980 H1971 0.930 . S
C1980 C1978 1.378 1_545 S
C1980 C1981 1.367 1_545 S
C1981 C1980 1.367 1_565 S
C1981 C1983 1.433 . S
C1982 C1978 1.350 . S
C1982 C1979 1.463 . S
C1982 N1986 1.427 . S
C1983 H1973 0.929 . S
C1983 C1981 1.433 . S
C1983 N1986 1.384 . S
C1984 H1975 0.929 . S
C1984 C1976 1.378 . S
C1984 C1979 1.350 . S
C1985 H1972 0.929 . S
C1985 C1977 1.433 . S
C1985 N1987 1.384 . S
N1986 C1982 1.427 . S
N1986 C1983 1.384 . S
N1987 C1979 1.427 . S
N1987 C1985 1.384 . S
H1988 C1994 0.930 . S
H1989 C1998 0.930 . S
H1990 C2003 0.929 . S
H1991 C2001 0.929 . S
H1992 C1996 0.929 . S
H1993 C2002 0.929 . S
C1994 H1988 0.930 . S
C1994 C1995 1.367 . S
C1994 C2002 1.378 . S
C1995 C1994 1.367 . S
C1995 C2003 1.433 . S
C1996 H1992 0.929 . S
C1996 C1998 1.378 1_565 S
C1996 C2000 1.350 . S
C1997 C2000 1.463 . S
C1997 C2002 1.350 . S
C1997 N2005 1.427 . S
C1998 H1989 0.930 . S
C1998 C1996 1.378 1_545 S
C1998 C1999 1.367 1_545 S
C1999 C1998 1.367 1_565 S
C1999 C2001 1.433 . S
C2000 C1996 1.350 . S
C2000 C1997 1.463 . S
C2000 N2004 1.427 . S
C2001 H1991 0.929 . S
C2001 C1999 1.433 . S
C2001 N2004 1.384 . S
C2002 H1993 0.929 . S
C2002 C1994 1.378 . S
C2002 C1997 1.350 . S
C2003 H1990 0.929 . S
C2003 C1995 1.433 . S
C2003 N2005 1.384 . S
N2004 C2000 1.427 . S
N2004 C2001 1.384 . S
N2005 C1997 1.427 . S
N2005 C2003 1.384 . S
H2006 C2012 0.930 . S
H2007 C2016 0.930 1_565 S
H2008 C2021 0.929 . S
H2009 C2019 0.929 . S
H2010 C2014 0.929 . S
H2011 C2020 0.929 . S
C2012 H2006 0.930 . S
C2012 C2013 1.367 . S
C2012 C2020 1.378 . S
C2013 C2012 1.367 . S
C2013 C2021 1.433 . S
C2014 H2010 0.929 . S
C2014 C2016 1.378 . S
C2014 C2018 1.350 . S
C2015 C2018 1.463 . S
C2015 C2020 1.350 . S
C2015 N2023 1.427 . S
C2016 H2007 0.930 1_545 S
C2016 C2014 1.378 . S
C2016 C2017 1.367 . S
C2017 C2016 1.367 . S
C2017 C2019 1.433 . S
C2018 C2014 1.350 . S
C2018 C2015 1.463 . S
C2018 N2022 1.427 . S
C2019 H2009 0.929 . S
C2019 C2017 1.433 . S
C2019 N2022 1.384 . S
C2020 H2011 0.929 . S
C2020 C2012 1.378 . S
C2020 C2015 1.350 . S
C2021 H2008 0.929 . S
C2021 C2013 1.433 . S
C2021 N2023 1.384 . S
N2022 C2018 1.427 . S
N2022 C2019 1.384 . S
N2023 C2015 1.427 . S
N2023 C2021 1.384 . S
H2024 C2030 0.923 1_545 S
H2025 C2034 0.930 . S
H2026 C2039 0.929 . S
H2027 C2037 0.929 . S
H2028 C2032 0.929 . S
H2029 C2038 0.929 . S
C2030 H2024 0.923 1_565 S
C2030 C2031 1.367 . S
C2030 C2038 1.378 . S
C2031 C2030 1.367 . S
C2031 C2039 1.433 . S
C2032 H2028 0.929 . S
C2032 C2034 1.378 . S
C2032 C2036 1.350 . S
C2033 C2036 1.463 . S
C2033 C2038 1.350 . S
C2033 N2041 1.427 . S
C2034 H2025 0.930 . S
C2034 C2032 1.378 . S
C2034 C2035 1.367 . S
C2035 C2034 1.367 . S
C2035 C2037 1.433 . S
C2036 C2032 1.350 . S
C2036 C2033 1.463 . S
C2036 N2040 1.427 . S
C2037 H2027 0.929 . S
C2037 C2035 1.433 . S
C2037 N2040 1.384 . S
C2038 H2029 0.929 . S
C2038 C2030 1.378 . S
C2038 C2033 1.350 . S
C2039 H2026 0.929 . S
C2039 C2031 1.433 . S
C2039 N2041 1.384 . S
N2040 C2036 1.427 . S
N2040 C2037 1.384 . S
N2041 C2033 1.427 . S
N2041 C2039 1.384 . S
H2042 C2048 0.930 . S
H2043 C2052 0.930 . S
H2044 C2057 0.929 . S
H2045 C2055 0.929 . S
H2046 C2050 0.929 . S
H2047 C2056 0.929 . S
C2048 H2042 0.930 . S
C2048 C2049 1.367 . S
C2048 C2056 1.378 . S
C2049 C2048 1.367 . S
C2049 C2057 1.433 1_545 S
C2050 H2046 0.929 . S
C2050 C2052 1.378 . S
C2050 C2054 1.350 . S
C2051 C2054 1.463 . S
C2051 C2056 1.350 . S
C2051 N2059 1.427 . S
C2052 H2043 0.930 . S
C2052 C2050 1.378 . S
C2052 C2053 1.367 . S
C2053 C2052 1.367 . S
C2053 C2055 1.433 . S
C2054 C2050 1.350 . S
C2054 C2051 1.463 . S
C2054 N2058 1.427 . S
C2055 H2045 0.929 . S
C2055 C2053 1.433 . S
C2055 N2058 1.384 . S
C2056 H2047 0.929 . S
C2056 C2048 1.378 . S
C2056 C2051 1.350 . S
C2057 H2044 0.929 . S
C2057 C2049 1.433 1_565 S
C2057 N2059 1.384 1_565 S
N2058 C2054 1.427 . S
N2058 C2055 1.384 . S
N2059 C2051 1.427 . S
N2059 C2057 1.384 1_545 S
H2060 C2066 0.930 . S
H2061 C2070 0.930 . S
H2062 C2075 0.929 . S
H2063 C2073 0.929 . S
H2064 C2068 0.929 . S
H2065 C2074 0.929 . S
C2066 H2060 0.930 . S
C2066 C2067 1.367 1_565 S
C2066 C2074 1.378 1_565 S
C2067 C2066 1.367 1_545 S
C2067 C2075 1.433 . S
C2068 H2064 0.929 . S
C2068 C2070 1.378 . S
C2068 C2072 1.350 . S
C2069 C2072 1.463 . S
C2069 C2074 1.350 . S
C2069 N2077 1.427 . S
C2070 H2061 0.930 . S
C2070 C2068 1.378 . S
C2070 C2071 1.367 . S
C2071 C2070 1.367 . S
C2071 C2073 1.433 . S
C2072 C2068 1.350 . S
C2072 C2069 1.463 . S
C2072 N2076 1.427 . S
C2073 H2063 0.929 . S
C2073 C2071 1.433 . S
C2073 N2076 1.384 . S
C2074 H2065 0.929 . S
C2074 C2066 1.378 1_545 S
C2074 C2069 1.350 . S
C2075 H2062 0.929 . S
C2075 C2067 1.433 . S
C2075 N2077 1.384 . S
N2076 C2072 1.427 . S
N2076 C2073 1.384 . S
N2077 C2069 1.427 . S
N2077 C2075 1.384 . S
H2078 C2084 0.930 . S
H2079 C2088 0.930 . S
H2080 C2093 0.929 . S
H2081 C2091 0.929 . S
H2082 C2086 0.929 . S
H2083 C2092 0.929 . S
C2084 H2078 0.930 . S
C2084 C2085 1.367 . S
C2084 C2092 1.378 . S
C2085 C2084 1.367 . S
C2085 C2093 1.433 . S
C2086 H2082 0.929 . S
C2086 C2088 1.378 . S
C2086 C2090 1.350 . S
C2087 C2090 1.463 . S
C2087 C2092 1.350 . S
C2087 N2095 1.427 . S
C2088 H2079 0.930 . S
C2088 C2086 1.378 . S
C2088 C2089 1.367 . S
C2089 C2088 1.367 . S
C2089 C2091 1.433 1_565 S
C2090 C2086 1.350 . S
C2090 C2087 1.463 . S
C2090 N2094 1.427 . S
C2091 H2081 0.929 . S
C2091 C2089 1.433 1_545 S
C2091 N2094 1.384 1_545 S
C2092 H2083 0.929 . S
C2092 C2084 1.378 . S
C2092 C2087 1.350 . S
C2093 H2080 0.929 . S
C2093 C2085 1.433 . S
C2093 N2095 1.384 . S
N2094 C2090 1.427 . S
N2094 C2091 1.384 1_565 S
N2095 C2087 1.427 . S
N2095 C2093 1.384 . S
H2096 C2102 0.930 . S
H2097 C2106 0.930 . S
H2098 C2111 0.929 . S
H2099 C2109 0.929 . S
H2100 C2104 0.929 . S
H2101 C2110 0.929 . S
C2102 H2096 0.930 . S
C2102 C2103 1.367 . S
C2102 C2110 1.378 . S
C2103 C2102 1.367 . S
C2103 C2111 1.433 . S
C2104 H2100 0.929 . S
C2104 C2106 1.378 . S
C2104 C2108 1.350 . S
C2105 C2108 1.463 . S
C2105 C2110 1.350 . S
C2105 N2113 1.427 . S
C2106 H2097 0.930 . S
C2106 C2104 1.378 . S
C2106 C2107 1.367 . S
C2107 C2106 1.367 . S
C2107 C2109 1.433 . S
C2108 C2104 1.350 . S
C2108 C2105 1.463 . S
C2108 N2112 1.427 . S
C2109 H2099 0.929 . S
C2109 C2107 1.433 . S
C2109 N2112 1.384 . S
C2110 H2101 0.929 . S
C2110 C2102 1.378 . S
C2110 C2105 1.350 . S
C2111 H2098 0.929 . S
C2111 C2103 1.433 . S
C2111 N2113 1.384 . S
N2112 C2108 1.427 . S
N2112 C2109 1.384 . S
N2113 C2105 1.427 . S
N2113 C2111 1.384 . S
H2114 C2120 0.930 . S
H2115 C2124 0.930 . S
H2116 C2129 0.929 . S
H2117 C2127 0.929 . S
H2118 C2122 0.929 . S
H2119 C2128 0.929 . S
C2120 H2114 0.930 . S
C2120 C2121 1.367 . S
C2120 C2128 1.378 . S
C2121 C2120 1.367 . S
C2121 C2129 1.433 . S
C2122 H2118 0.929 . S
C2122 C2124 1.378 . S
C2122 C2126 1.350 . S
C2123 C2126 1.463 . S
C2123 C2128 1.350 . S
C2123 N2131 1.427 . S
C2124 H2115 0.930 . S
C2124 C2122 1.378 . S
C2124 C2125 1.367 . S
C2125 C2124 1.367 . S
C2125 C2127 1.433 . S
C2126 C2122 1.350 . S
C2126 C2123 1.463 . S
C2126 N2130 1.427 . S
C2127 H2117 0.929 . S
C2127 C2125 1.433 . S
C2127 N2130 1.384 . S
C2128 H2119 0.929 . S
C2128 C2120 1.378 . S
C2128 C2123 1.350 . S
C2129 H2116 0.929 . S
C2129 C2121 1.433 . S
C2129 N2131 1.384 . S
N2130 C2126 1.427 . S
N2130 C2127 1.384 . S
N2131 C2123 1.427 . S
N2131 C2129 1.384 . S
H2132 C2138 0.930 . S
H2133 C2142 0.930 . S
H2134 C2147 0.929 . S
H2135 C2145 0.929 . S
H2136 C2140 0.929 . S
H2137 C2146 0.929 . S
C2138 H2132 0.930 . S
C2138 C2139 1.367 . S
C2138 C2146 1.378 . S
C2139 C2138 1.367 . S
C2139 C2147 1.433 . S
C2140 H2136 0.929 . S
C2140 C2142 1.378 . S
C2140 C2144 1.350 . S
C2141 C2144 1.463 . S
C2141 C2146 1.350 . S
C2141 N2149 1.427 . S
C2142 H2133 0.930 . S
C2142 C2140 1.378 . S
C2142 C2143 1.367 . S
C2143 C2142 1.367 . S
C2143 C2145 1.433 . S
C2144 C2140 1.350 . S
C2144 C2141 1.463 . S
C2144 N2148 1.427 . S
C2145 H2135 0.929 . S
C2145 C2143 1.433 . S
C2145 N2148 1.384 . S
C2146 H2137 0.929 . S
C2146 C2138 1.378 . S
C2146 C2141 1.350 . S
C2147 H2134 0.929 . S
C2147 C2139 1.433 . S
C2147 N2149 1.384 . S
N2148 C2144 1.427 . S
N2148 C2145 1.384 . S
N2149 C2141 1.427 . S
N2149 C2147 1.384 . S
H2150 C2156 0.930 . S
H2151 C2160 0.930 . S
H2152 C2165 0.929 . S
H2153 C2163 0.929 . S
H2154 C2158 0.929 . S
H2155 C2164 0.929 . S
C2156 H2150 0.930 . S
C2156 C2157 1.367 . S
C2156 C2164 1.378 . S
C2157 C2156 1.367 . S
C2157 C2165 1.433 . S
C2158 H2154 0.929 . S
C2158 C2160 1.378 . S
C2158 C2162 1.350 . S
C2159 C2162 1.463 . S
C2159 C2164 1.350 . S
C2159 N2167 1.427 . S
C2160 H2151 0.930 . S
C2160 C2158 1.378 . S
C2160 C2161 1.367 . S
C2161 C2160 1.367 . S
C2161 C2163 1.433 . S
C2162 C2158 1.350 . S
C2162 C2159 1.463 . S
C2162 N2166 1.427 . S
C2163 H2153 0.929 . S
C2163 C2161 1.433 . S
C2163 N2166 1.384 . S
C2164 H2155 0.929 . S
C2164 C2156 1.378 . S
C2164 C2159 1.350 . S
C2165 H2152 0.929 . S
C2165 C2157 1.433 . S
C2165 N2167 1.384 . S
N2166 C2162 1.427 . S
N2166 C2163 1.384 . S
N2167 C2159 1.427 . S
N2167 C2165 1.384 . S
H2168 C2174 0.930 . S
H2169 C2178 0.930 . S
H2170 C2183 0.929 . S
H2171 C2181 0.929 . S
H2172 C2176 0.929 . S
H2173 C2182 0.929 . S
C2174 H2168 0.930 . S
C2174 C2175 1.367 . S
C2174 C2182 1.378 . S
C2175 C2174 1.367 . S
C2175 C2183 1.433 . S
C2176 H2172 0.929 . S
C2176 C2178 1.378 . S
C2176 C2180 1.350 . S
C2177 C2180 1.463 . S
C2177 C2182 1.350 . S
C2177 N2185 1.427 . S
C2178 H2169 0.930 . S
C2178 C2176 1.378 . S
C2178 C2179 1.367 . S
C2179 C2178 1.367 . S
C2179 C2181 1.433 . S
C2180 C2176 1.350 . S
C2180 C2177 1.463 . S
C2180 N2184 1.427 . S
C2181 H2171 0.929 . S
C2181 C2179 1.433 . S
C2181 N2184 1.384 . S
C2182 H2173 0.929 . S
C2182 C2174 1.378 . S
C2182 C2177 1.350 . S
C2183 H2170 0.929 . S
C2183 C2175 1.433 . S
C2183 N2185 1.384 . S
N2184 C2180 1.427 . S
N2184 C2181 1.384 . S
N2185 C2177 1.427 . S
N2185 C2183 1.384 . S
H2186 C2192 0.930 . S
H2187 C2196 0.930 . S
H2188 C2201 0.929 . S
H2189 C2199 0.929 . S
H2190 C2194 0.929 . S
H2191 C2200 0.929 . S
C2192 H2186 0.930 . S
C2192 C2193 1.367 . S
C2192 C2200 1.378 . S
C2193 C2192 1.367 . S
C2193 C2201 1.433 . S
C2194 H2190 0.929 . S
C2194 C2196 1.378 . S
C2194 C2198 1.350 . S
C2195 C2198 1.463 . S
C2195 C2200 1.350 . S
C2195 N2203 1.427 . S
C2196 H2187 0.930 . S
C2196 C2194 1.378 . S
C2196 C2197 1.367 . S
C2197 C2196 1.367 . S
C2197 C2199 1.433 . S
C2198 C2194 1.350 . S
C2198 C2195 1.463 . S
C2198 N2202 1.427 . S
C2199 H2189 0.929 . S
C2199 C2197 1.433 . S
C2199 N2202 1.384 . S
C2200 H2191 0.929 . S
C2200 C2192 1.378 . S
C2200 C2195 1.350 . S
C2201 H2188 0.929 . S
C2201 C2193 1.433 . S
C2201 N2203 1.384 . S
N2202 C2198 1.427 . S
N2202 C2199 1.384 . S
N2203 C2195 1.427 . S
N2203 C2201 1.384 . S
H2204 C2210 0.930 . S
H2205 C2214 0.930 . S
H2206 C2219 0.929 . S
H2207 C2217 0.929 . S
H2208 C2212 0.929 . S
H2209 C2218 0.929 . S
C2210 H2204 0.930 . S
C2210 C2211 1.367 . S
C2210 C2218 1.378 . S
C2211 C2210 1.367 . S
C2211 C2219 1.433 . S
C2212 H2208 0.929 . S
C2212 C2214 1.378 . S
C2212 C2216 1.350 . S
C2213 C2216 1.463 . S
C2213 C2218 1.350 . S
C2213 N2221 1.427 . S
C2214 H2205 0.930 . S
C2214 C2212 1.378 . S
C2214 C2215 1.367 . S
C2215 C2214 1.367 . S
C2215 C2217 1.433 . S
C2216 C2212 1.350 . S
C2216 C2213 1.463 . S
C2216 N2220 1.427 . S
C2217 H2207 0.929 . S
C2217 C2215 1.433 . S
C2217 N2220 1.384 . S
C2218 H2209 0.929 . S
C2218 C2210 1.378 . S
C2218 C2213 1.350 . S
C2219 H2206 0.929 . S
C2219 C2211 1.433 . S
C2219 N2221 1.384 . S
N2220 C2216 1.427 . S
N2220 C2217 1.384 . S
N2221 C2213 1.427 . S
N2221 C2219 1.384 . S
H2222 C2228 0.930 . S
H2223 C2232 0.930 . S
H2224 C2237 0.929 . S
H2225 C2235 0.929 . S
H2226 C2230 0.929 . S
H2227 C2236 0.929 . S
C2228 H2222 0.930 . S
C2228 C2229 1.367 . S
C2228 C2236 1.378 . S
C2229 C2228 1.367 . S
C2229 C2237 1.433 . S
C2230 H2226 0.929 . S
C2230 C2232 1.378 . S
C2230 C2234 1.350 . S
C2231 C2234 1.463 . S
C2231 C2236 1.350 . S
C2231 N2239 1.427 . S
C2232 H2223 0.930 . S
C2232 C2230 1.378 . S
C2232 C2233 1.367 . S
C2233 C2232 1.367 . S
C2233 C2235 1.433 . S
C2234 C2230 1.350 . S
C2234 C2231 1.463 . S
C2234 N2238 1.427 . S
C2235 H2225 0.929 . S
C2235 C2233 1.433 . S
C2235 N2238 1.384 . S
C2236 H2227 0.929 . S
C2236 C2228 1.378 . S
C2236 C2231 1.350 . S
C2237 H2224 0.929 . S
C2237 C2229 1.433 . S
C2237 N2239 1.384 . S
N2238 C2234 1.427 . S
N2238 C2235 1.384 . S
N2239 C2231 1.427 . S
N2239 C2237 1.384 . S
H2240 C2246 0.930 . S
H2241 C2250 0.930 . S
H2242 C2255 0.929 . S
H2243 C2253 0.929 . S
H2244 C2248 0.929 . S
H2245 C2254 0.929 . S
C2246 H2240 0.930 . S
C2246 C2247 1.367 . S
C2246 C2254 1.378 . S
C2247 C2246 1.367 . S
C2247 C2255 1.433 . S
C2248 H2244 0.929 . S
C2248 C2250 1.378 . S
C2248 C2252 1.350 . S
C2249 C2252 1.463 . S
C2249 C2254 1.350 . S
C2249 N2257 1.427 . S
C2250 H2241 0.930 . S
C2250 C2248 1.378 . S
C2250 C2251 1.367 . S
C2251 C2250 1.367 . S
C2251 C2253 1.433 . S
C2252 C2248 1.350 . S
C2252 C2249 1.463 . S
C2252 N2256 1.427 . S
C2253 H2243 0.929 . S
C2253 C2251 1.433 . S
C2253 N2256 1.384 . S
C2254 H2245 0.929 . S
C2254 C2246 1.378 . S
C2254 C2249 1.350 . S
C2255 H2242 0.929 . S
C2255 C2247 1.433 . S
C2255 N2257 1.384 . S
N2256 C2252 1.427 . S
N2256 C2253 1.384 . S
N2257 C2249 1.427 . S
N2257 C2255 1.384 . S
H2258 C2264 0.930 . S
H2259 C2268 0.930 . S
H2260 C2273 0.929 . S
H2261 C2271 0.929 . S
H2262 C2266 0.927 1_655 S
H2263 C2272 0.927 1_455 S
C2264 H2258 0.930 . S
C2264 C2265 1.367 . S
C2264 C2272 1.379 . S
C2265 C2264 1.367 . S
C2265 C2273 1.433 . S
C2266 H2262 0.927 1_455 S
C2266 C2268 1.379 . S
C2266 C2270 1.350 . S
C2267 C2270 1.463 1_665 S
C2267 C2272 1.350 . S
C2267 N2275 1.427 . S
C2268 H2259 0.930 . S
C2268 C2266 1.379 . S
C2268 C2269 1.367 . S
C2269 C2268 1.367 . S
C2269 C2271 1.433 . S
C2270 C2266 1.350 . S
C2270 C2267 1.463 1_445 S
C2270 N2274 1.427 . S
C2271 H2261 0.929 . S
C2271 C2269 1.433 . S
C2271 N2274 1.384 . S
C2272 H2263 0.927 1_655 S
C2272 C2264 1.379 . S
C2272 C2267 1.350 . S
C2273 H2260 0.929 . S
C2273 C2265 1.433 . S
C2273 N2275 1.384 . S
N2274 C2270 1.427 . S
N2274 C2271 1.384 . S
N2275 C2267 1.427 . S
N2275 C2273 1.384 . S
H2276 C2282 0.930 . S
H2277 C2286 0.930 . S
H2278 C2291 0.929 . S
H2279 C2289 0.929 . S
H2280 C2284 0.929 . S
H2281 C2290 0.929 . S
C2282 H2276 0.930 . S
C2282 C2283 1.367 . S
C2282 C2290 1.378 . S
C2283 C2282 1.367 . S
C2283 C2291 1.433 . S
C2284 H2280 0.929 . S
C2284 C2286 1.378 . S
C2284 C2288 1.350 . S
C2285 C2288 1.463 . S
C2285 C2290 1.350 . S
C2285 N2293 1.427 . S
C2286 H2277 0.930 . S
C2286 C2284 1.378 . S
C2286 C2287 1.367 . S
C2287 C2286 1.367 . S
C2287 C2289 1.433 . S
C2288 C2284 1.350 . S
C2288 C2285 1.463 . S
C2288 N2292 1.427 . S
C2289 H2279 0.929 . S
C2289 C2287 1.433 . S
C2289 N2292 1.384 . S
C2290 H2281 0.929 . S
C2290 C2282 1.378 . S
C2290 C2285 1.350 . S
C2291 H2278 0.929 . S
C2291 C2283 1.433 . S
C2291 N2293 1.384 . S
N2292 C2288 1.427 . S
N2292 C2289 1.384 . S
N2293 C2285 1.427 . S
N2293 C2291 1.384 . S
H2294 C2300 0.951 . S
H2295 C2304 0.951 . S
H2296 C2309 0.929 . S
H2297 C2307 0.929 . S
H2298 C2302 0.929 . S
H2299 C2308 0.929 . S
C2300 H2294 0.951 . S
C2300 C2301 1.367 . S
C2300 C2308 1.378 1_556 S
C2301 C2300 1.367 . S
C2301 C2309 1.433 . S
C2302 H2298 0.929 . S
C2302 C2304 1.378 1_556 S
C2302 C2306 1.350 1_556 S
C2303 C2306 1.463 1_566 S
C2303 C2308 1.350 1_556 S
C2303 N2311 1.426 . S
C2304 H2295 0.951 . S
C2304 C2302 1.378 1_554 S
C2304 C2305 1.367 . S
C2305 C2304 1.367 . S
C2305 C2307 1.433 . S
C2306 C2302 1.350 1_554 S
C2306 C2303 1.463 1_544 S
C2306 N2310 1.426 . S
C2307 H2297 0.929 . S
C2307 C2305 1.433 . S
C2307 N2310 1.382 . S
C2308 H2299 0.929 . S
C2308 C2300 1.378 1_554 S
C2308 C2303 1.350 1_554 S
C2309 H2296 0.929 . S
C2309 C2301 1.433 . S
C2309 N2311 1.382 . S
N2310 C2306 1.426 . S
N2310 C2307 1.382 . S
N2311 C2303 1.426 . S
N2311 C2309 1.382 . S
H2312 C2318 0.930 . S
H2313 C2322 0.930 . S
H2314 C2327 0.929 . S
H2315 C2325 0.929 . S
H2316 C2320 0.929 . S
H2317 C2326 0.929 . S
C2318 H2312 0.930 . S
C2318 C2319 1.367 . S
C2318 C2326 1.378 . S
C2319 C2318 1.367 . S
C2319 C2327 1.433 . S
C2320 H2316 0.929 . S
C2320 C2322 1.378 . S
C2320 C2324 1.350 . S
C2321 C2324 1.463 . S
C2321 C2326 1.350 . S
C2321 N2329 1.427 . S
C2322 H2313 0.930 . S
C2322 C2320 1.378 . S
C2322 C2323 1.367 . S
C2323 C2322 1.367 . S
C2323 C2325 1.433 . S
C2324 C2320 1.350 . S
C2324 C2321 1.463 . S
C2324 N2328 1.427 . S
C2325 H2315 0.929 . S
C2325 C2323 1.433 . S
C2325 N2328 1.384 . S
C2326 H2317 0.929 . S
C2326 C2318 1.378 . S
C2326 C2321 1.350 . S
C2327 H2314 0.929 . S
C2327 C2319 1.433 . S
C2327 N2329 1.384 . S
N2328 C2324 1.427 . S
N2328 C2325 1.384 . S
N2329 C2321 1.427 . S
N2329 C2327 1.384 . S
H2330 C2336 0.930 . S
H2331 C2340 0.930 . S
H2332 C2345 0.929 . S
H2333 C2343 0.929 . S
H2334 C2338 0.929 1_545 S
H2335 C2344 0.929 1_565 S
C2336 H2330 0.930 . S
C2336 C2337 1.367 . S
C2336 C2344 1.378 . S
C2337 C2336 1.367 . S
C2337 C2345 1.433 . S
C2338 H2334 0.929 1_565 S
C2338 C2340 1.378 . S
C2338 C2342 1.350 . S
C2339 C2342 1.463 1_545 S
C2339 C2344 1.350 . S
C2339 N2347 1.427 . S
C2340 H2331 0.930 . S
C2340 C2338 1.378 . S
C2340 C2341 1.367 . S
C2341 C2340 1.367 . S
C2341 C2343 1.433 . S
C2342 C2338 1.350 . S
C2342 C2339 1.463 1_565 S
C2342 N2346 1.427 . S
C2343 H2333 0.929 . S
C2343 C2341 1.433 . S
C2343 N2346 1.384 . S
C2344 H2335 0.929 1_545 S
C2344 C2336 1.378 . S
C2344 C2339 1.350 . S
C2345 H2332 0.929 . S
C2345 C2337 1.433 . S
C2345 N2347 1.384 . S
N2346 C2342 1.427 . S
N2346 C2343 1.384 . S
N2347 C2339 1.427 . S
N2347 C2345 1.384 . S
H2348 C2354 0.930 . S
H2349 C2358 0.930 . S
H2350 C2363 0.929 . S
H2351 C2361 0.929 . S
H2352 C2356 0.929 . S
H2353 C2362 0.929 . S
C2354 H2348 0.930 . S
C2354 C2355 1.367 . S
C2354 C2362 1.378 . S
C2355 C2354 1.367 . S
C2355 C2363 1.433 . S
C2356 H2352 0.929 . S
C2356 C2358 1.378 . S
C2356 C2360 1.350 . S
C2357 C2360 1.463 . S
C2357 C2362 1.350 . S
C2357 N2365 1.427 . S
C2358 H2349 0.930 . S
C2358 C2356 1.378 . S
C2358 C2359 1.367 . S
C2359 C2358 1.367 . S
C2359 C2361 1.433 . S
C2360 C2356 1.350 . S
C2360 C2357 1.463 . S
C2360 N2364 1.427 . S
C2361 H2351 0.929 . S
C2361 C2359 1.433 . S
C2361 N2364 1.384 . S
C2362 H2353 0.929 . S
C2362 C2354 1.378 . S
C2362 C2357 1.350 . S
C2363 H2350 0.929 . S
C2363 C2355 1.433 . S
C2363 N2365 1.384 . S
N2364 C2360 1.427 . S
N2364 C2361 1.384 . S
N2365 C2357 1.427 . S
N2365 C2363 1.384 . S
H2366 C2372 0.930 . S
H2367 C2376 0.930 . S
H2368 C2381 0.929 . S
H2369 C2379 0.929 . S
H2370 C2374 0.947 . S
H2371 C2380 0.947 . S
C2372 H2366 0.930 . S
C2372 C2373 1.367 . S
C2372 C2380 1.366 1_565 S
C2373 C2372 1.367 . S
C2373 C2381 1.433 . S
C2374 H2370 0.947 . S
C2374 C2376 1.366 1_565 S
C2374 C2378 1.344 1_565 S
C2375 C2378 1.463 1_464 S
C2375 C2380 1.344 1_565 S
C2375 N2383 1.427 1_554 S
C2376 H2367 0.930 . S
C2376 C2374 1.366 1_545 S
C2376 C2377 1.367 . S
C2377 C2376 1.367 . S
C2377 C2379 1.433 . S
C2378 C2374 1.344 1_545 S
C2378 C2375 1.463 1_646 S
C2378 N2382 1.427 1_556 S
C2379 H2369 0.929 . S
C2379 C2377 1.433 . S
C2379 N2382 1.384 1_556 S
C2380 H2371 0.947 . S
C2380 C2372 1.366 1_545 S
C2380 C2375 1.344 1_545 S
C2381 H2368 0.929 . S
C2381 C2373 1.433 . S
C2381 N2383 1.384 1_554 S
N2382 C2378 1.427 1_554 S
N2382 C2379 1.384 1_554 S
N2383 C2375 1.427 1_556 S
N2383 C2381 1.384 1_556 S
H2384 C2390 0.930 . S
H2385 C2394 0.930 . S
H2386 C2399 0.929 . S
H2387 C2397 0.929 . S
H2388 C2392 0.929 . S
H2389 C2398 0.929 . S
C2390 H2384 0.930 . S
C2390 C2391 1.367 . S
C2390 C2398 1.378 . S
C2391 C2390 1.367 . S
C2391 C2399 1.433 . S
C2392 H2388 0.929 . S
C2392 C2394 1.378 . S
C2392 C2396 1.350 . S
C2393 C2396 1.463 . S
C2393 C2398 1.350 . S
C2393 N2401 1.427 . S
C2394 H2385 0.930 . S
C2394 C2392 1.378 . S
C2394 C2395 1.367 . S
C2395 C2394 1.367 . S
C2395 C2397 1.433 . S
C2396 C2392 1.350 . S
C2396 C2393 1.463 . S
C2396 N2400 1.427 . S
C2397 H2387 0.929 . S
C2397 C2395 1.433 . S
C2397 N2400 1.384 . S
C2398 H2389 0.929 . S
C2398 C2390 1.378 . S
C2398 C2393 1.350 . S
C2399 H2386 0.929 . S
C2399 C2391 1.433 . S
C2399 N2401 1.384 . S
N2400 C2396 1.427 . S
N2400 C2397 1.384 . S
N2401 C2393 1.427 . S
N2401 C2399 1.384 . S
H2402 C2408 0.930 . S
H2403 C2412 0.930 . S
H2404 C2417 0.929 . S
H2405 C2415 0.929 . S
H2406 C2410 0.929 . S
H2407 C2416 0.929 . S
C2408 H2402 0.930 . S
C2408 C2409 1.367 . S
C2408 C2416 1.378 . S
C2409 C2408 1.367 . S
C2409 C2417 1.433 . S
C2410 H2406 0.929 . S
C2410 C2412 1.378 . S
C2410 C2414 1.350 . S
C2411 C2414 1.463 . S
C2411 C2416 1.350 . S
C2411 N2419 1.427 . S
C2412 H2403 0.930 . S
C2412 C2410 1.378 . S
C2412 C2413 1.367 . S
C2413 C2412 1.367 . S
C2413 C2415 1.433 . S
C2414 C2410 1.350 . S
C2414 C2411 1.463 . S
C2414 N2418 1.427 . S
C2415 H2405 0.929 . S
C2415 C2413 1.433 . S
C2415 N2418 1.384 . S
C2416 H2407 0.929 . S
C2416 C2408 1.378 . S
C2416 C2411 1.350 . S
C2417 H2404 0.929 . S
C2417 C2409 1.433 . S
C2417 N2419 1.384 . S
N2418 C2414 1.427 . S
N2418 C2415 1.384 . S
N2419 C2411 1.427 . S
N2419 C2417 1.384 . S
H2420 C2426 0.930 . S
H2421 C2430 0.930 . S
H2422 C2435 0.929 . S
H2423 C2433 0.929 . S
H2424 C2428 0.929 . S
H2425 C2434 0.929 . S
C2426 H2420 0.930 . S
C2426 C2427 1.367 . S
C2426 C2434 1.378 . S
C2427 C2426 1.367 . S
C2427 C2435 1.433 . S
C2428 H2424 0.929 . S
C2428 C2430 1.378 . S
C2428 C2432 1.350 . S
C2429 C2432 1.463 . S
C2429 C2434 1.350 . S
C2429 N2437 1.427 . S
C2430 H2421 0.930 . S
C2430 C2428 1.378 . S
C2430 C2431 1.367 . S
C2431 C2430 1.367 . S
C2431 C2433 1.433 . S
C2432 C2428 1.350 . S
C2432 C2429 1.463 . S
C2432 N2436 1.427 . S
C2433 H2423 0.929 . S
C2433 C2431 1.433 . S
C2433 N2436 1.384 . S
C2434 H2425 0.929 . S
C2434 C2426 1.378 . S
C2434 C2429 1.350 . S
C2435 H2422 0.929 . S
C2435 C2427 1.433 . S
C2435 N2437 1.384 . S
N2436 C2432 1.427 . S
N2436 C2433 1.384 . S
N2437 C2429 1.427 . S
N2437 C2435 1.384 . S
H2438 C2444 0.930 . S
H2439 C2448 0.930 . S
H2440 C2453 0.929 . S
H2441 C2451 0.929 . S
H2442 C2446 0.929 . S
H2443 C2452 0.929 . S
C2444 H2438 0.930 . S
C2444 C2445 1.367 . S
C2444 C2452 1.378 . S
C2445 C2444 1.367 . S
C2445 C2453 1.433 . S
C2446 H2442 0.929 . S
C2446 C2448 1.378 . S
C2446 C2450 1.350 . S
C2447 C2450 1.463 . S
C2447 C2452 1.350 . S
C2447 N2455 1.427 . S
C2448 H2439 0.930 . S
C2448 C2446 1.378 . S
C2448 C2449 1.367 . S
C2449 C2448 1.367 . S
C2449 C2451 1.433 . S
C2450 C2446 1.350 . S
C2450 C2447 1.463 . S
C2450 N2454 1.427 . S
C2451 H2441 0.929 . S
C2451 C2449 1.433 . S
C2451 N2454 1.384 . S
C2452 H2443 0.929 . S
C2452 C2444 1.378 . S
C2452 C2447 1.350 . S
C2453 H2440 0.929 . S
C2453 C2445 1.433 . S
C2453 N2455 1.384 . S
N2454 C2450 1.427 . S
N2454 C2451 1.384 . S
N2455 C2447 1.427 . S
N2455 C2453 1.384 . S
H2456 C2462 0.930 . S
H2457 C2466 0.930 . S
H2458 C2471 0.929 . S
H2459 C2469 0.929 . S
H2460 C2464 0.929 . S
H2461 C2470 0.929 . S
C2462 H2456 0.930 . S
C2462 C2463 1.367 . S
C2462 C2470 1.378 . S
C2463 C2462 1.367 . S
C2463 C2471 1.433 . S
C2464 H2460 0.929 . S
C2464 C2466 1.378 . S
C2464 C2468 1.350 . S
C2465 C2468 1.463 1_554 S
C2465 C2470 1.350 . S
C2465 N2473 1.427 1_554 S
C2466 H2457 0.930 . S
C2466 C2464 1.378 . S
C2466 C2467 1.367 . S
C2467 C2466 1.367 . S
C2467 C2469 1.433 . S
C2468 C2464 1.350 . S
C2468 C2465 1.463 1_556 S
C2468 N2472 1.427 1_556 S
C2469 H2459 0.929 . S
C2469 C2467 1.433 . S
C2469 N2472 1.384 1_556 S
C2470 H2461 0.929 . S
C2470 C2462 1.378 . S
C2470 C2465 1.350 . S
C2471 H2458 0.929 . S
C2471 C2463 1.433 . S
C2471 N2473 1.384 1_554 S
N2472 C2468 1.427 1_554 S
N2472 C2469 1.384 1_554 S
N2473 C2465 1.427 1_556 S
N2473 C2471 1.384 1_556 S
H2474 C2480 0.930 . S
H2475 C2484 0.930 . S
H2476 C2489 0.929 . S
H2477 C2487 0.929 . S
H2478 C2482 0.929 . S
H2479 C2488 0.929 . S
C2480 H2474 0.930 . S
C2480 C2481 1.367 . S
C2480 C2488 1.378 . S
C2481 C2480 1.367 . S
C2481 C2489 1.433 . S
C2482 H2478 0.929 . S
C2482 C2484 1.378 . S
C2482 C2486 1.350 . S
C2483 C2486 1.463 1_455 S
C2483 C2488 1.350 . S
C2483 N2491 1.427 . S
C2484 H2475 0.930 . S
C2484 C2482 1.378 . S
C2484 C2485 1.367 . S
C2485 C2484 1.367 . S
C2485 C2487 1.433 . S
C2486 C2482 1.350 . S
C2486 C2483 1.463 1_655 S
C2486 N2490 1.427 . S
C2487 H2477 0.929 . S
C2487 C2485 1.433 . S
C2487 N2490 1.384 . S
C2488 H2479 0.929 . S
C2488 C2480 1.378 . S
C2488 C2483 1.350 . S
C2489 H2476 0.929 . S
C2489 C2481 1.433 . S
C2489 N2491 1.384 . S
N2490 C2486 1.427 . S
N2490 C2487 1.384 . S
N2491 C2483 1.427 . S
N2491 C2489 1.384 . S
H2492 C2498 0.930 1_554 S
H2493 C2502 0.930 1_556 S
H2494 C2507 0.929 . S
H2495 C2505 0.929 . S
H2496 C2500 0.929 . S
H2497 C2506 0.929 . S
C2498 H2492 0.930 1_556 S
C2498 C2499 1.367 . S
C2498 C2506 1.378 1_556 S
C2499 C2498 1.367 . S
C2499 C2507 1.433 . S
C2500 H2496 0.929 . S
C2500 C2502 1.378 1_556 S
C2500 C2504 1.350 1_556 S
C2501 C2504 1.463 1_456 S
C2501 C2506 1.350 1_556 S
C2501 N2509 1.427 . S
C2502 H2493 0.930 1_554 S
C2502 C2500 1.378 1_554 S
C2502 C2503 1.367 . S
C2503 C2502 1.367 . S
C2503 C2505 1.433 . S
C2504 C2500 1.350 1_554 S
C2504 C2501 1.463 1_654 S
C2504 N2508 1.427 . S
C2505 H2495 0.929 . S
C2505 C2503 1.433 . S
C2505 N2508 1.384 . S
C2506 H2497 0.929 . S
C2506 C2498 1.378 1_554 S
C2506 C2501 1.350 1_554 S
C2507 H2494 0.929 . S
C2507 C2499 1.433 . S
C2507 N2509 1.384 . S
N2508 C2504 1.427 . S
N2508 C2505 1.384 . S
N2509 C2501 1.427 . S
N2509 C2507 1.384 . S
H2510 C2516 0.930 . S
H2511 C2520 0.930 . S
H2512 C2525 0.929 . S
H2513 C2523 0.929 . S
H2514 C2518 0.929 . S
H2515 C2524 0.929 . S
C2516 H2510 0.930 . S
C2516 C2517 1.367 . S
C2516 C2524 1.378 . S
C2517 C2516 1.367 . S
C2517 C2525 1.433 . S
C2518 H2514 0.929 . S
C2518 C2520 1.378 . S
C2518 C2522 1.350 . S
C2519 C2522 1.463 . S
C2519 C2524 1.350 . S
C2519 N2527 1.427 . S
C2520 H2511 0.930 . S
C2520 C2518 1.378 . S
C2520 C2521 1.367 . S
C2521 C2520 1.367 . S
C2521 C2523 1.433 . S
C2522 C2518 1.350 . S
C2522 C2519 1.463 . S
C2522 N2526 1.427 . S
C2523 H2513 0.929 . S
C2523 C2521 1.433 . S
C2523 N2526 1.384 . S
C2524 H2515 0.929 . S
C2524 C2516 1.378 . S
C2524 C2519 1.350 . S
C2525 H2512 0.929 . S
C2525 C2517 1.433 . S
C2525 N2527 1.384 . S
N2526 C2522 1.427 . S
N2526 C2523 1.384 . S
N2527 C2519 1.427 . S
N2527 C2525 1.384 . S
C1095 C617 0.749 . S
C1099 C5 0.736 . S
C1113 C39 0.743 . S
C1117 C651 0.760 . S
C1131 C73 0.747 . S
C1135 C549 0.737 . S
C1149 C583 0.737 . S
C1153 C107 0.745 . S
C1167 C141 0.754 . S
C1171 C753 0.736 . S
C1185 C787 0.740 . S
C1189 C175 0.759 . S
C1203 C209 0.760 . S
C1207 C685 0.742 . S
C1221 C243 0.744 . S
C1225 C719 0.760 . S
C1239 C277 0.757 . S
C1243 C889 0.754 . S
C1257 C923 0.746 . S
C1261 C311 0.760 . S
C1275 C345 0.745 . S
C1279 C821 0.760 . S
C1293 C379 0.736 . S
C1297 C855 0.752 . S
C1311 C413 0.740 . S
C1315 C1025 0.741 . S
C1329 C1059 0.737 . S
C1333 C447 0.755 . S
C1347 C957 0.737 . S
C1351 C481 0.746 . S
C1365 C991 0.737 . S
C1369 C515 0.754 . S
C1383 C407 1.139 . S
C1387 C2 1.098 . S
C1401 C849 1.139 . S
C1405 C36 1.099 . S
C1419 C70 1.116 . S
C1423 C339 1.132 . S
C1437 C917 1.135 . S
C1441 C104 1.106 . S
C1455 C475 1.133 . S
C1459 C138 1.115 . S
C1473 C172 1.114 . S
C1477 C1053 1.133 . S
C1491 C543 1.139 . S
C1495 C206 1.100 . S
C1509 C985 1.135 . S
C1513 C240 1.111 . S
C1527 C135 1.138 . S
C1531 C274 1.100 . S
C1545 C308 1.112 . S
C1549 C577 1.133 . S
C1563 C342 1.100 . S
C1567 C67 1.139 . S
C1581 C645 1.132 . S
C1585 C376 1.117 . S
C1599 C410 1.116 . S
C1603 C203 1.132 . S
C1617 C781 1.138 . S
C1621 C444 1.105 . S
C1635 C478 1.116 . S
C1639 C271 1.132 . S
C1653 C512 1.103 . S
C1657 C713 1.136 . S
C1671 C951 1.133 . S
C1675 C546 1.113 . S
C1689 C580 1.110 . S
C1693 C305 1.134 . S
C1707 C614 1.113 . S
C1711 C883 1.134 . S
C1725 C373 1.136 . S
C1729 C648 1.108 . S
C1743 C682 1.113 . S
C1747 C1019 1.133 . S
C1761 C716 1.109 . S
C1765 C509 1.134 . S
C1779 C1087 1.139 . S
C1783 C750 1.098 . S
C1797 C441 1.136 . S
C1801 C784 1.103 . S
C1815 C679 1.133 . S
C1819 C818 1.115 . S
C1833 C852 1.117 . S
C1837 C33 1.133 . S
C1851 C886 1.110 . S
C1855 C611 1.136 . S
C1869 C101 1.133 . S
C1873 C920 1.112 . S
C1887 C954 1.100 . S
C1891 C747 1.139 . S
C1905 C988 1.111 . S
C1909 C237 1.135 . S
C1923 C815 1.138 . S
C1927 C1022 1.099 . S
C1941 C169 1.135 . S
C1945 C1056 1.108 . S
C1959 C247 1.748 1_545 S
C1963 C9 1.756 . S
C1977 C145 1.742 . S
C1981 C43 1.745 1_565 S
C1995 C77 1.742 . S
C1999 C179 1.745 1_565 S
C2013 C213 1.745 . S
C2017 C111 1.742 1_545 S
C2031 C519 1.742 1_565 S
C2035 C281 1.745 . S
C2049 C315 1.745 1_545 S
C2053 C417 1.754 . S
C2067 C451 1.756 1_545 S
C2071 C349 1.747 . S
C2085 C485 1.756 . S
C2089 C383 1.748 1_565 S
C2103 C791 1.748 . S
C2107 C553 1.741 . S
C2121 C689 1.743 . S
C2125 C587 1.743 . S
C2139 C723 1.748 . S
C2143 C621 1.756 . S
C2157 C757 1.745 . S
C2161 C655 1.742 . S
C2175 C825 1.746 . S
C2179 C1063 1.742 . S
C2193 C859 1.748 . S
C2197 C961 1.756 . S
C2211 C893 1.741 . S
C2215 C995 1.747 . S
C2229 C1029 1.751 . S
C2233 C927 1.743 . S
C2247 C20 1.757 . S
C2251 C836 1.757 . S
C2265 C326 1.757 . S
C2269 C54 1.757 . S
C2283 C904 1.769 . S
C2287 C88 1.769 . S
C2301 C122 1.766 . S
C2305 C394 1.766 . S
C2319 C156 1.770 . S
C2323 C972 1.770 . S
C2337 C190 1.770 . S
C2341 C462 1.770 . S
C2355 C1040 1.764 . S
C2359 C224 1.764 . S
C2373 C258 1.762 . S
C2377 C530 1.762 . S
C2391 C564 1.761 . S
C2395 C292 1.761 . S
C2409 C632 1.769 . S
C2413 C360 1.769 . S
C2427 C428 1.763 . S
C2431 C700 1.763 . S
C2445 C496 1.764 . S
C2449 C768 1.764 . S
C2463 C870 1.757 . S
C2467 C598 1.757 . S
C2481 C938 1.766 . S
C2485 C666 1.766 . S
C2499 C1006 1.770 . S
C2503 C734 1.770 . S
C2517 C1074 1.757 . S
C2521 C802 1.757 . S
