# Generated by pormake.
# Topology smg, (6)-cn, num edge types: 1
# Building blocks:
#     Node 0, Type 0, BuildingBlock: IZENUY_clean_sbu_0, # of connection points: 6
#     Node 1, Type 0, BuildingBlock: IZENUY_clean_sbu_0, # of connection points: 6
#     Node 2, Type 0, BuildingBlock: IZENUY_clean_sbu_0, # of connection points: 6
#     Node 3, Type 0, BuildingBlock: IZENUY_clean_sbu_0, # of connection points: 6
#     Node 4, Type 0, BuildingBlock: IZENUY_clean_sbu_0, # of connection points: 6
#     Node 5, Type 0, BuildingBlock: IZENUY_clean_sbu_0, # of connection points: 6
#     Node 6, Type 0, BuildingBlock: IZENUY_clean_sbu_0, # of connection points: 6
#     Node 7, Type 0, BuildingBlock: IZENUY_clean_sbu_0, # of connection points: 6
#     Node 8, Type 0, BuildingBlock: IZENUY_clean_sbu_0, # of connection points: 6
#     Node 9, Type 0, BuildingBlock: IZENUY_clean_sbu_0, # of connection points: 6
#     Node 10, Type 0, BuildingBlock: IZENUY_clean_sbu_0, # of connection points: 6
#     Node 11, Type 0, BuildingBlock: IZENUY_clean_sbu_0, # of connection points: 6
#     Node 12, Type 0, BuildingBlock: IZENUY_clean_sbu_0, # of connection points: 6
#     Node 13, Type 0, BuildingBlock: IZENUY_clean_sbu_0, # of connection points: 6
#     Node 14, Type 0, BuildingBlock: IZENUY_clean_sbu_0, # of connection points: 6
#     Node 15, Type 0, BuildingBlock: IZENUY_clean_sbu_0, # of connection points: 6
#     Node 16, Type 0, BuildingBlock: IZENUY_clean_sbu_0, # of connection points: 6
#     Node 17, Type 0, BuildingBlock: IZENUY_clean_sbu_0, # of connection points: 6
#     Edge 18, Type (0, 0), BuildingBlock: EZIPEK_clean_linker_0, # of connection points: 2
#     Edge 19, Type (0, 0), BuildingBlock: EZIPEK_clean_linker_0, # of connection points: 2
#     Edge 20, Type (0, 0), BuildingBlock: EZIPEK_clean_linker_0, # of connection points: 2
#     Edge 21, Type (0, 0), BuildingBlock: EZIPEK_clean_linker_0, # of connection points: 2
#     Edge 22, Type (0, 0), BuildingBlock: EZIPEK_clean_linker_0, # of connection points: 2
#     Edge 23, Type (0, 0), BuildingBlock: EZIPEK_clean_linker_0, # of connection points: 2
#     Edge 24, Type (0, 0), BuildingBlock: EZIPEK_clean_linker_0, # of connection points: 2
#     Edge 25, Type (0, 0), BuildingBlock: EZIPEK_clean_linker_0, # of connection points: 2
#     Edge 26, Type (0, 0), BuildingBlock: EZIPEK_clean_linker_0, # of connection points: 2
#     Edge 27, Type (0, 0), BuildingBlock: EZIPEK_clean_linker_0, # of connection points: 2
#     Edge 28, Type (0, 0), BuildingBlock: EZIPEK_clean_linker_0, # of connection points: 2
#     Edge 29, Type (0, 0), BuildingBlock: EZIPEK_clean_linker_0, # of connection points: 2
#     Edge 30, Type (0, 0), BuildingBlock: EZIPEK_clean_linker_0, # of connection points: 2
#     Edge 31, Type (0, 0), BuildingBlock: EZIPEK_clean_linker_0, # of connection points: 2
#     Edge 32, Type (0, 0), BuildingBlock: EZIPEK_clean_linker_0, # of connection points: 2
#     Edge 33, Type (0, 0), BuildingBlock: EZIPEK_clean_linker_0, # of connection points: 2
#     Edge 34, Type (0, 0), BuildingBlock: EZIPEK_clean_linker_0, # of connection points: 2
#     Edge 35, Type (0, 0), BuildingBlock: EZIPEK_clean_linker_0, # of connection points: 2
#     Edge 36, Type (0, 0), BuildingBlock: EZIPEK_clean_linker_0, # of connection points: 2
#     Edge 37, Type (0, 0), BuildingBlock: EZIPEK_clean_linker_0, # of connection points: 2
#     Edge 38, Type (0, 0), BuildingBlock: EZIPEK_clean_linker_0, # of connection points: 2
#     Edge 39, Type (0, 0), BuildingBlock: EZIPEK_clean_linker_0, # of connection points: 2
#     Edge 40, Type (0, 0), BuildingBlock: EZIPEK_clean_linker_0, # of connection points: 2
#     Edge 41, Type (0, 0), BuildingBlock: EZIPEK_clean_linker_0, # of connection points: 2
#     Edge 42, Type (0, 0), BuildingBlock: EZIPEK_clean_linker_0, # of connection points: 2
#     Edge 43, Type (0, 0), BuildingBlock: EZIPEK_clean_linker_0, # of connection points: 2
#     Edge 44, Type (0, 0), BuildingBlock: EZIPEK_clean_linker_0, # of connection points: 2
#     Edge 45, Type (0, 0), BuildingBlock: EZIPEK_clean_linker_0, # of connection points: 2
#     Edge 46, Type (0, 0), BuildingBlock: EZIPEK_clean_linker_0, # of connection points: 2
#     Edge 47, Type (0, 0), BuildingBlock: EZIPEK_clean_linker_0, # of connection points: 2
#     Edge 48, Type (0, 0), BuildingBlock: EZIPEK_clean_linker_0, # of connection points: 2
#     Edge 49, Type (0, 0), BuildingBlock: EZIPEK_clean_linker_0, # of connection points: 2
#     Edge 50, Type (0, 0), BuildingBlock: EZIPEK_clean_linker_0, # of connection points: 2
#     Edge 51, Type (0, 0), BuildingBlock: EZIPEK_clean_linker_0, # of connection points: 2
#     Edge 52, Type (0, 0), BuildingBlock: EZIPEK_clean_linker_0, # of connection points: 2
#     Edge 53, Type (0, 0), BuildingBlock: EZIPEK_clean_linker_0, # of connection points: 2
#     Edge 54, Type (0, 0), BuildingBlock: EZIPEK_clean_linker_0, # of connection points: 2
#     Edge 55, Type (0, 0), BuildingBlock: EZIPEK_clean_linker_0, # of connection points: 2
#     Edge 56, Type (0, 0), BuildingBlock: EZIPEK_clean_linker_0, # of connection points: 2
#     Edge 57, Type (0, 0), BuildingBlock: EZIPEK_clean_linker_0, # of connection points: 2
#     Edge 58, Type (0, 0), BuildingBlock: EZIPEK_clean_linker_0, # of connection points: 2
#     Edge 59, Type (0, 0), BuildingBlock: EZIPEK_clean_linker_0, # of connection points: 2
#     Edge 60, Type (0, 0), BuildingBlock: EZIPEK_clean_linker_0, # of connection points: 2
#     Edge 61, Type (0, 0), BuildingBlock: EZIPEK_clean_linker_0, # of connection points: 2
#     Edge 62, Type (0, 0), BuildingBlock: EZIPEK_clean_linker_0, # of connection points: 2
#     Edge 63, Type (0, 0), BuildingBlock: EZIPEK_clean_linker_0, # of connection points: 2
#     Edge 64, Type (0, 0), BuildingBlock: EZIPEK_clean_linker_0, # of connection points: 2
#     Edge 65, Type (0, 0), BuildingBlock: EZIPEK_clean_linker_0, # of connection points: 2
#     Edge 66, Type (0, 0), BuildingBlock: EZIPEK_clean_linker_0, # of connection points: 2
#     Edge 67, Type (0, 0), BuildingBlock: EZIPEK_clean_linker_0, # of connection points: 2
#     Edge 68, Type (0, 0), BuildingBlock: EZIPEK_clean_linker_0, # of connection points: 2
#     Edge 69, Type (0, 0), BuildingBlock: EZIPEK_clean_linker_0, # of connection points: 2
#     Edge 70, Type (0, 0), BuildingBlock: EZIPEK_clean_linker_0, # of connection points: 2
#     Edge 71, Type (0, 0), BuildingBlock: EZIPEK_clean_linker_0, # of connection points: 2
# Relax obj value: 0.248
# Max RMSD: 0.243
# Mean RMSD: 0.241
data_MOF--net-smg--node1-IZENUY_clean_sbu_0--edge1-EZIPEK_clean_linker_0
_symmetry_space_group_name_H-M    P1
_symmetry_Int_Tables_number       1
_symmetry_cell_setting            triclinic
loop_
_symmetry_equiv_pos_as_xyz
'x, y, z'
_cell_length_a     34.155237
_cell_length_b     34.308153
_cell_length_c     31.491692
_cell_angle_alpha  90.134351
_cell_angle_beta   89.898122
_cell_angle_gamma 119.99333
loop_
_atom_site_label
_atom_site_type_symbol
_atom_site_fract_x
_atom_site_fract_y
_atom_site_fract_z
_atom_type_partial_charge
Fe0 Fe 0.08143 0.61003 0.26579 0.0
Fe1 Fe 0.03729 0.66747 0.24825 0.0
O2 O 0.03477 0.61461 0.24756 0.0
Fe3 Fe 0.98501 0.56637 0.22943 0.0
O4 O 0.9758 0.53854 0.28087 0.0
O5 O 0.0456 0.55175 0.28737 0.0
O6 O 0.07745 0.63004 0.31789 0.0
C7 C 0.07535 0.66487 0.32616 0.0
C8 C 0.05709 0.55253 0.1983 0.0
O9 O 0.07146 0.68749 0.29654 0.0
C10 C 0.99485 0.62852 0.17021 0.0
O11 O 0.12549 0.66794 0.2474 0.0
O12 O 0.08554 0.69233 0.21383 0.0
O13 O 0.01563 0.53766 0.20813 0.0
O14 O 0.08777 0.58838 0.215 0.0
C15 C 0.95045 0.6179 0.27249 0.0
O16 O 1.00334 0.65667 0.19975 0.0
O17 O 0.99189 0.591 0.1773 0.0
C18 C 0.12279 0.69501 0.22127 0.0
O19 O 0.98951 0.6471 0.28309 0.0
O20 O 0.94512 0.58687 0.24648 0.0
C21 C 1.00372 0.52894 0.29742 0.0
Fe22 Fe 0.4332 0.48233 0.26479 0.0
Fe23 Fe 0.47652 0.43108 0.22448 0.0
O24 O 0.42847 0.43176 0.245 0.0
Fe25 Fe 0.37523 0.38212 0.24501 0.0
O26 O 0.35109 0.40702 0.21246 0.0
O27 O 0.37368 0.4679 0.2503 0.0
O28 O 0.4513 0.50925 0.21332 0.0
C29 C 0.4867 0.51524 0.19477 0.0
C30 C 0.38007 0.42195 0.32512 0.0
O31 O 0.50334 0.49004 0.2036 0.0
C32 C 0.42542 0.34458 0.26607 0.0
O33 O 0.49302 0.50569 0.28354 0.0
O34 O 0.5062 0.44951 0.27478 0.0
O35 O 0.35668 0.3955 0.29542 0.0
O36 O 0.41589 0.45821 0.3171 0.0
C37 C 0.41238 0.38145 0.16555 0.0
O38 O 0.45701 0.37104 0.24086 0.0
O39 O 0.39524 0.3529 0.27677 0.0
C40 C 0.51592 0.48647 0.29211 0.0
O41 O 0.45093 0.41406 0.17308 0.0
O42 O 0.38469 0.36064 0.19506 0.0
C43 C 0.34622 0.43919 0.22357 0.0
Fe44 Fe 0.61426 0.0658 0.23189 0.0
Fe45 Fe 0.55855 0.96737 0.26593 0.0
O46 O 0.61059 0.01477 0.24905 0.0
Fe47 Fe 0.66098 0.01121 0.24854 0.0
O48 O 0.70083 0.07126 0.25381 0.0
O49 O 0.65916 0.1 0.27147 0.0
O50 O 0.57345 0.06485 0.26979 0.0
C51 C 0.54927 0.03895 0.29914 0.0
C52 C 0.66269 0.04666 0.17087 0.0
O53 O 0.5448 1.00013 0.30352 0.0
C54 C 0.59858 0.92266 0.22732 0.0
O55 O 0.56996 0.0363 0.19182 0.0
O56 O 0.52406 0.97287 0.22507 0.0
O57 O 0.66379 0.01545 0.19116 0.0
O58 O 0.65521 0.07506 0.18964 0.0
C59 C 0.62476 0.97975 0.32666 0.0
O60 O 0.56506 0.92875 0.22889 0.0
O61 O 0.63482 0.95062 0.24442 0.0
C62 C 0.53259 0.99951 0.19435 0.0
O63 O 0.58579 0.95559 0.31046 0.0
O64 O 0.65871 1.00656 0.30501 0.0
C65 C 0.69663 0.10076 0.2736 0.0
Fe66 Fe 0.06929 0.47639 0.76911 0.0
Fe67 Fe 0.97316 0.43021 0.72815 0.0
O68 O 0.0213 0.42872 0.74715 0.0
Fe69 Fe 0.02113 0.37678 0.74456 0.0
O70 O 0.08175 0.39925 0.74621 0.0
O71 O 0.10848 0.46978 0.73258 0.0
O72 O 0.07087 0.51619 0.73147 0.0
C73 C 0.04633 0.515 0.70141 0.0
C74 C 0.04759 0.40499 0.8261 0.0
O75 O 1.00763 0.48052 0.6944 0.0
C76 C 0.93169 0.34396 0.76228 0.0
O77 O 0.03462 0.48976 0.80623 0.0
O78 O 0.97165 0.46507 0.76954 0.0
O79 O 0.01864 0.37384 0.80237 0.0
O80 O 0.07573 0.44296 0.81082 0.0
C81 C 0.99375 0.38395 0.6651 0.0
O82 O 0.93439 0.38205 0.7624 0.0
O83 O 0.96053 0.33955 0.74202 0.0
C84 C 0.99623 0.48696 0.80009 0.0
O85 O 0.96664 0.39438 0.68244 0.0
O86 O 0.0233 0.38042 0.68678 0.0
C87 C 0.11155 0.43463 0.72949 0.0
Fe88 Fe 0.66417 0.65963 0.74387 0.0
Fe89 Fe 0.60824 0.55758 0.73219 0.0
O90 O 0.61216 0.60898 0.74786 0.0
Fe91 Fe 0.5644 0.60991 0.76861 0.0
O92 O 0.59268 0.63091 0.81834 0.0
O93 O 0.655 0.68593 0.79139 0.0
O94 O 0.69149 0.63971 0.77865 0.0
C95 C 0.69617 0.60643 0.77195 0.0
C96 C 0.61005 0.6911 0.71837 0.0
O97 O 0.66826 0.5745 0.74776 0.0
C98 C 0.524 0.55117 0.70381 0.0
O99 O 0.68175 0.64257 0.69497 0.0
O100 O 0.62415 0.57643 0.67882 0.0
O101 O 0.58163 0.66814 0.74756 0.0
O102 O 0.64083 0.68295 0.70928 0.0
C103 C 0.55591 0.52753 0.80225 0.0
O104 O 0.54789 0.53301 0.71322 0.0
O105 O 0.53283 0.58811 0.72022 0.0
C106 C 0.65794 0.6127 0.66772 0.0
O107 O 0.59186 0.53451 0.7848 0.0
O108 O 0.53878 0.55219 0.79294 0.0
C109 C 0.62946 0.6669 0.82297 0.0
Fe110 Fe 0.49102 0.07536 0.73262 0.0
Fe111 Fe 0.38908 0.03038 0.74974 0.0
O112 O 0.43948 0.02757 0.74878 0.0
Fe113 Fe 0.43884 0.97753 0.76508 0.0
O114 O 0.45923 0.97065 0.71442 0.0
O115 O 0.51472 0.04063 0.70938 0.0
O116 O 0.46918 0.07474 0.68067 0.0
C117 C 0.4318 0.07181 0.67226 0.0
C118 C 0.52317 0.04951 0.79894 0.0
O119 O 0.40321 0.06474 0.70136 0.0
C120 C 0.38623 0.98629 0.826 0.0
O121 O 0.47689 0.1187 0.75225 0.0
O122 O 0.41255 0.07757 0.78503 0.0
O123 O 0.49776 0.00834 0.78786 0.0
O124 O 0.51608 0.07936 0.78405 0.0
C125 C 0.35418 0.94461 0.72008 0.0
O126 O 0.36643 0.99613 0.79764 0.0
O127 O 0.41901 0.98074 0.8171 0.0
C128 C 0.44669 0.11503 0.7784 0.0
O129 O 0.36058 0.98352 0.7152 0.0
O130 O 0.37994 0.93794 0.74483 0.0
C131 C 0.49658 0.99906 0.6987 0.0
Fe132 Fe 0.74009 0.94225 0.59792 0.0
Fe133 Fe 0.69174 0.996 0.58013 0.0
O134 O 0.69111 0.94327 0.58026 0.0
Fe135 Fe 0.64146 0.89395 0.56268 0.0
O136 O 0.64222 0.85686 0.60299 0.0
O137 O 0.70845 0.89499 0.63497 0.0
O138 O 0.74856 0.98073 0.64295 0.0
C139 C 0.72284 0.9939 0.65931 0.0
C140 C 0.71082 0.88013 0.52848 0.0
O141 O 0.69393 0.99788 0.6374 0.0
C142 C 0.65969 0.96217 0.50155 0.0
O143 O 0.77721 0.98802 0.56069 0.0
O144 O 0.75254 0.03294 0.57787 0.0
O145 O 0.67215 0.87698 0.52541 0.0
O146 O 0.73834 0.90342 0.55729 0.0
C147 C 0.60256 0.93923 0.60176 0.0
O148 O 0.68951 0.99501 0.52281 0.0
O149 O 0.63341 0.92404 0.51829 0.0
C150 C 0.78057 0.02635 0.55851 0.0
O151 O 0.63106 0.97348 0.58248 0.0
O152 O 0.60529 0.90393 0.59994 0.0
C153 C 0.66891 0.86087 0.63231 0.0
Fe154 Fe 0.15069 0.76531 0.56528 0.0
Fe155 Fe 0.09868 0.81223 0.59688 0.0
O156 O 0.09951 0.76255 0.58135 0.0
Fe157 Fe 0.0484 0.71031 0.58107 0.0
O158 O 0.06931 0.68501 0.61656 0.0
O159 O 0.13562 0.70832 0.58682 0.0
O160 O 0.17836 0.78949 0.61562 0.0
C161 C 0.18372 0.82594 0.63086 0.0
C162 C 0.09114 0.70817 0.50516 0.0
O163 O 0.15716 0.84016 0.61945 0.0
C164 C 0.0131 0.76015 0.55336 0.0
O165 O 0.1737 0.82197 0.54051 0.0
O166 O 0.11951 0.83871 0.54554 0.0
O167 O 0.06179 0.68781 0.53368 0.0
O168 O 0.12811 0.74282 0.51376 0.0
C169 C 0.04703 0.75254 0.65833 0.0
O170 O 0.03864 0.79219 0.57852 0.0
O171 O 0.02334 0.73103 0.54442 0.0
C172 C 0.1567 0.84624 0.52961 0.0
O173 O 0.07956 0.79058 0.64911 0.0
O174 O 0.02638 0.72346 0.62945 0.0
C175 C 0.10324 0.68098 0.61076 0.0
Fe176 Fe 0.23189 0.30589 0.60068 0.0
Fe177 Fe 0.33237 0.35512 0.57884 0.0
O178 O 0.28001 0.35419 0.58056 0.0
Fe179 Fe 0.27654 0.40106 0.56221 0.0
O180 O 0.25448 0.40861 0.61208 0.0
O181 O 0.20498 0.33736 0.62339 0.0
O182 O 0.25913 0.3137 0.65136 0.0
C183 C 0.29524 0.31301 0.65641 0.0
C184 C 0.19396 0.3234 0.53272 0.0
O185 O 0.32018 0.31778 0.62491 0.0
C186 C 0.33371 0.39792 0.50294 0.0
O187 O 0.25003 0.26534 0.5809 0.0
O188 O 0.31002 0.30889 0.54245 0.0
O189 O 0.21856 0.36576 0.53935 0.0
O190 O 0.2016 0.29558 0.55148 0.0
C191 C 0.36004 0.43861 0.60962 0.0
O192 O 0.35527 0.39295 0.53286 0.0
O193 O 0.29725 0.39722 0.5104 0.0
C194 C 0.27857 0.27039 0.55196 0.0
O195 O 0.35705 0.40104 0.61498 0.0
O196 O 0.33431 0.44345 0.58305 0.0
C197 C 0.21957 0.37897 0.63055 0.0
Fe198 Fe 0.73629 0.81092 0.10232 0.0
Fe199 Fe 0.68887 0.71086 0.07634 0.0
O200 O 0.68874 0.76259 0.0805 0.0
Fe201 Fe 0.64089 0.76614 0.06303 0.0
O202 O 0.63136 0.78247 0.11531 0.0
O203 O 0.70198 0.83398 0.12605 0.0
O204 O 0.72962 0.78242 0.15232 0.0
C205 C 0.72502 0.74389 0.15781 0.0
C206 C 0.71665 0.85052 0.03605 0.0
O207 O 0.71829 0.71782 0.12676 0.0
C208 C 0.65184 0.71876 -0.00146 0.0
O209 O 0.77971 0.79664 0.0834 0.0
O210 O 0.74015 0.73517 0.04601 0.0
O211 O 0.67483 0.82577 0.04503 0.0
O212 O 0.74571 0.84306 0.05336 0.0
C213 C 0.60051 0.67726 0.09943 0.0
O214 O 0.65929 0.69543 0.02498 0.0
O215 O 0.64715 0.75127 0.00983 0.0
C216 C 0.7775 0.768 0.0563 0.0
O217 O 0.63801 0.68066 0.10678 0.0
O218 O 0.59777 0.70655 0.07677 0.0
C219 C 0.66018 0.81692 0.13515 0.0
Fe220 Fe 0.28146 0.898 0.06073 0.0
Fe221 Fe 0.23154 0.94244 0.10127 0.0
O222 O 0.28166 0.94623 0.0811 0.0
Fe223 Fe 0.33245 0.99807 0.08194 0.0
O224 O 0.35885 0.97558 0.11459 0.0
O225 O 0.34242 0.91723 0.07515 0.0
O226 O 0.26443 0.8698 0.11159 0.0
C227 C 0.22725 0.85985 0.12896 0.0
C228 C 0.33137 0.96059 0.00161 0.0
O229 O 0.20778 0.88266 0.1204 0.0
C230 C 0.2777 0.03003 0.06025 0.0
O231 O 0.22148 0.8713 0.04146 0.0
O232 O 0.20373 0.92429 0.05004 0.0
O233 O 0.35307 0.98775 0.03139 0.0
O234 O 0.29748 0.92291 0.00914 0.0
C235 C 0.2934 0.9933 0.16182 0.0
O236 O 0.24754 1.00228 0.08611 0.0
O237 O 0.30987 0.0247 0.04968 0.0
C238 C 0.19635 0.88805 0.03259 0.0
O239 O 0.25594 0.95916 0.15357 0.0
O240 O 0.31992 0.01668 0.13233 0.0
C241 C 0.36864 0.94722 0.10172 0.0
Fe242 Fe 0.04373 0.34752 0.08213 0.0
Fe243 Fe 0.14415 0.39628 0.05594 0.0
O244 O 0.09682 0.3491 0.07936 0.0
Fe245 Fe 0.101 0.30384 0.10083 0.0
O246 O 0.06374 0.29657 0.1459 0.0
O247 O 0.04695 0.35076 0.13914 0.0
O248 O 0.06642 0.40823 0.08106 0.0
C249 C 0.1028 0.43803 0.09698 0.0
C250 C 0.01501 0.25726 0.06691 0.0
O251 O 0.13811 0.43523 0.0926 0.0
C252 C 0.15668 0.32611 0.02647 0.0
O253 O 0.03916 0.34422 0.02521 0.0
O254 O 0.10874 0.40101 0.01449 0.0
O255 O 0.05441 0.26269 0.0673 0.0
O256 O 1.00822 0.28645 0.08396 0.0
C257 C 0.18368 0.37808 0.12704 0.0
O258 O 0.15576 0.36195 0.01855 0.0
O259 O 0.13907 0.30416 0.0601 0.0
C260 C 0.06955 0.37233 0.00097 0.0
O261 O 0.18674 0.39831 0.09267 0.0
O262 O 0.1481 0.34122 0.13533 0.0
C263 C 0.05268 0.32375 0.16178 0.0
Fe264 Fe 0.4022 0.27865 0.93755 0.0
Fe265 Fe 0.35282 0.32815 0.9084 0.0
O266 O 0.35466 0.27754 0.91352 0.0
Fe267 Fe 0.30875 0.22557 0.89576 0.0
O268 O 0.29897 0.20122 0.94837 0.0
O269 O 0.3695 0.22034 0.9597 0.0
O270 O 0.39096 0.29831 0.98658 0.0
C271 C 0.3848 0.33144 0.99099 0.0
C272 C 0.38829 0.22134 0.87179 0.0
O273 O 0.38138 0.35161 0.95894 0.0
C274 C 0.31763 0.282 0.83084 0.0
O275 O 0.44416 0.33737 0.92044 0.0
O276 O 0.40438 0.35535 0.87865 0.0
O277 O 0.34584 0.20215 0.87944 0.0
O278 O 0.41545 0.25825 0.88944 0.0
C279 C 0.26527 0.27151 0.93118 0.0
O280 O 0.32339 0.31252 0.85702 0.0
O281 O 0.31526 0.2459 0.84235 0.0
C282 C 0.44188 0.36243 0.89192 0.0
O283 O 0.30182 0.30659 0.93823 0.0
O284 O 0.26372 0.24003 0.90834 0.0
C285 C 0.32749 0.19476 0.96745 0.0
Fe286 Fe 0.77299 0.14649 0.93407 0.0
Fe287 Fe 0.81915 0.09611 0.89417 0.0
O288 O 0.77069 0.09653 0.91487 0.0
Fe289 Fe 0.71789 0.04497 0.917 0.0
O290 O 0.68171 0.06948 0.91561 0.0
O291 O 0.72641 0.13904 0.89864 0.0
O292 O 0.81123 0.18325 0.89374 0.0
C293 C 0.83315 0.17987 0.86321 0.0
C294 C 0.72245 0.08034 0.99601 0.0
O295 O 0.83453 0.14378 0.85733 0.0
C296 C 0.77597 0.01237 0.93443 0.0
O297 O 0.82095 0.15968 0.97031 0.0
O298 O 0.85812 0.13376 0.93328 0.0
O299 O 0.719 0.04723 0.97477 0.0
O300 O 0.73418 0.11771 0.97831 0.0
C301 C 0.74756 0.04567 0.83619 0.0
O302 O 0.81132 0.05025 0.93059 0.0
O303 O 0.73993 1.00649 0.91856 0.0
C304 C 0.85583 0.15588 0.96407 0.0
O305 O 0.78671 0.05775 0.85073 0.0
O306 O 0.71566 0.04204 0.85954 0.0
C307 C 0.68763 0.10424 0.89711 0.0
Fe308 Fe 0.9974 0.68362 0.91423 0.0
Fe309 Fe 0.94398 0.73215 0.89802 0.0
O310 O 0.94601 0.68437 0.91612 0.0
Fe311 Fe 0.8964 0.63715 0.9364 0.0
O312 O 0.92243 0.64458 0.98781 0.0
O313 O 0.98654 0.65247 0.96416 0.0
O314 O 0.02639 0.73274 0.94672 0.0
C315 C 0.03151 0.77061 0.93876 0.0
C316 C 0.94147 0.59661 0.8933 0.0
O317 O 1.00379 0.7744 0.91418 0.0
C318 C 0.8599 0.6563 0.86857 0.0
O319 O 0.0166 0.71507 0.86393 0.0
O320 O 0.96103 0.7264 0.84549 0.0
O321 O 0.91239 0.59412 0.92023 0.0
O322 O 0.97317 0.63405 0.88192 0.0
C323 C 0.88872 0.71285 0.96607 0.0
O324 O 0.88433 0.69808 0.87795 0.0
O325 O 0.86767 0.62761 0.88574 0.0
C326 C 0.99451 0.72243 0.83589 0.0
O327 O 0.92591 0.74089 0.94959 0.0
O328 O 0.87093 0.67113 0.95675 0.0
C329 C 0.96065 0.64854 0.99474 0.0
Fe330 Fe 0.36041 0.04717 0.41938 0.0
Fe331 Fe 0.40614 0.14955 0.42856 0.0
O332 O 0.35775 0.09777 0.41361 0.0
Fe333 Fe 0.30746 0.0947 0.39326 0.0
O334 O 0.30374 0.05637 0.35037 0.0
O335 O 0.35857 0.04013 0.36219 0.0
O336 O 0.42129 0.07255 0.41782 0.0
C337 C 0.4483 0.10478 0.39546 0.0
C338 C 0.26863 0.01201 0.43555 0.0
O339 O 0.44402 0.13923 0.39384 0.0
C340 C 0.33223 0.15896 0.45933 0.0
O341 O 0.36265 0.05395 0.47675 0.0
O342 O 0.4174 0.12509 0.47559 0.0
O343 O 0.27005 0.04898 0.42995 0.0
O344 O 0.30037 0.00717 0.4224 0.0
C345 C 0.37508 0.17812 0.358 0.0
O346 O 0.37263 0.16634 0.46283 0.0
O347 O 0.30518 0.13221 0.43208 0.0
C348 C 0.3924 0.08904 0.49581 0.0
O349 O 0.40354 0.18215 0.38527 0.0
O350 O 0.33699 0.14214 0.35583 0.0
C351 C 0.33012 0.04231 0.33788 0.0
Fe352 Fe 0.89889 0.27349 0.42794 0.0
Fe353 Fe 1.00244 0.32673 0.41566 0.0
O354 O 0.94996 0.27554 0.41235 0.0
Fe355 Fe 0.94831 0.22607 0.39314 0.0
O356 O 0.92547 0.19643 0.44296 0.0
O357 O 0.87169 0.21399 0.44779 0.0
O358 O 0.91989 0.29008 0.48136 0.0
C359 C 0.95773 0.32275 0.49163 0.0
C360 C 0.86877 0.22053 0.3566 0.0
O361 O 0.98795 0.34517 0.46453 0.0
C362 C 1.0048 0.29021 0.33691 0.0
O363 O 0.91727 0.33325 0.41185 0.0
O364 O 0.9836 0.35675 0.38246 0.0
O365 O 0.89117 0.20256 0.36997 0.0
O366 O 0.87385 0.25556 0.37508 0.0
C367 C 0.03167 0.26915 0.43925 0.0
O368 O 0.02512 0.3165 0.36742 0.0
O369 O 0.96998 0.2524 0.34259 0.0
C370 C 0.9501 0.36161 0.38887 0.0
O371 O 0.02725 0.30222 0.44883 0.0
O372 O 1.0057 0.24043 0.41213 0.0
C373 C 0.88828 0.18922 0.45852 0.0
Fe374 Fe 0.70685 0.6749 0.41413 0.0
Fe375 Fe 0.76513 0.63164 0.4281 0.0
O376 O 0.76072 0.6786 0.41121 0.0
Fe377 Fe 0.80842 0.72874 0.3922 0.0
O378 O 0.77547 0.73646 0.35041 0.0
O379 O 0.70539 0.67902 0.35688 0.0
O380 O 0.67308 0.61402 0.40884 0.0
C381 C 0.68175 0.58811 0.38792 0.0
C382 C 0.76296 0.76555 0.43568 0.0
O383 O 0.72159 0.594 0.38898 0.0
C384 C 0.84456 0.7041 0.46192 0.0
O385 O 0.70733 0.67046 0.47161 0.0
O386 O 0.72288 0.61576 0.47029 0.0
O387 O 0.79938 0.76466 0.43088 0.0
O388 O 0.72708 0.7348 0.41983 0.0
C389 C 0.82653 0.66342 0.3584 0.0
O390 O 0.80879 0.66633 0.46736 0.0
O391 O 0.8488 0.72819 0.42999 0.0
C392 C 0.71201 0.64059 0.49079 0.0
O393 O 0.8086 0.6387 0.39028 0.0
O394 O 0.82301 0.69823 0.3526 0.0
C395 C 0.73699 0.70919 0.33482 0.0
C396 C 0.09859 0.50944 0.1045 0.0
C397 C 0.10105 0.47345 0.12364 0.0
C398 C 0.07113 0.48657 0.19006 0.0
C399 C 0.0711 0.52451 0.17197 0.0
N400 N 0.09754 0.57867 0.11523 0.0
N401 N 0.10385 0.43817 0.18819 0.0
C402 C 0.0887 0.53792 0.1301 0.0
C403 C 0.09165 0.46528 0.16757 0.0
N404 N 0.10547 0.51635 0.0618 0.0
N405 N 0.05113 0.4702 0.22846 0.0
H406 H 0.12178 0.42523 0.17262 0.0
H407 H 0.10152 0.43358 0.22099 0.0
H408 H 0.03563 0.48447 0.24588 0.0
H409 H 0.04619 0.43998 0.241 0.0
H410 H 0.09884 0.53858 0.04506 0.0
H411 H 0.11564 0.49797 0.04288 0.0
H412 H 0.1141 0.59237 0.08664 0.0
H413 H 0.09263 0.60056 0.13417 0.0
C414 C 0.51865 0.59888 0.18031 0.0
C415 C 0.51197 0.55618 0.16672 0.0
C416 C 0.55443 0.59258 0.10121 0.0
C417 C 0.5602 0.63466 0.11494 0.0
N418 N 0.53362 0.67318 0.15938 0.0
N419 N 0.51583 0.51143 0.10926 0.0
C420 C 0.53741 0.63611 0.15174 0.0
C421 C 0.5276 0.55274 0.12564 0.0
N422 N 0.51056 0.60524 0.22154 0.0
N423 N 0.5755 0.591 0.06489 0.0
H424 H 0.49708 0.4817 0.12607 0.0
H425 H 0.52147 0.50614 0.07782 0.0
H426 H 0.5912 0.61832 0.04427 0.0
H427 H 0.57851 0.56339 0.05588 0.0
H428 H 0.51899 0.63671 0.23384 0.0
H429 H 0.50068 0.58055 0.2448 0.0
H430 H 0.51397 0.67485 0.1839 0.0
H431 H 0.54567 0.69979 0.13787 0.0
C432 C 0.46822 0.94014 0.14994 0.0
C433 C 0.49628 0.98645 0.16132 0.0
C434 C 0.45033 1.00375 0.11414 0.0
C435 C 0.41572 0.95753 0.1129 0.0
N436 N 0.39248 0.88093 0.13166 0.0
N437 N 0.50828 0.0624 0.15664 0.0
C438 C 0.42502 0.92528 0.13092 0.0
C439 C 0.48626 0.01846 0.14365 0.0
N440 N 0.48351 0.91065 0.15579 0.0
N441 N 0.44894 0.03404 0.08715 0.0
H442 H 0.53356 0.07563 0.17949 0.0
H443 H 0.49781 0.08504 0.14781 0.0
H444 H 0.42425 0.02458 0.06406 0.0
H445 H 0.47537 0.06713 0.08426 0.0
H446 H 0.46584 0.87734 0.14543 0.0
H447 H 0.51644 0.92128 0.16565 0.0
H448 H 0.39607 0.85687 0.14866 0.0
H449 H 0.36095 0.86881 0.11747 0.0
C450 C 0.4837 0.09941 0.32661 0.0
C451 C 0.48319 0.0988 0.37157 0.0
C452 C 0.52315 0.0551 0.37065 0.0
C453 C 0.52241 0.05459 0.32542 0.0
N454 N 0.48827 0.06355 0.26205 0.0
N455 N 0.51192 0.08604 0.43634 0.0
C456 C 0.49928 0.07371 0.30389 0.0
C457 C 0.50579 0.07946 0.39346 0.0
N458 N 0.47008 0.1252 0.30536 0.0
N459 N 0.53763 0.03007 0.39199 0.0
H460 H 0.50091 0.10499 0.45327 0.0
H461 H 0.5316 0.07701 0.45441 0.0
H462 H 0.54762 0.00957 0.3768 0.0
H463 H 0.53533 0.02554 0.42474 0.0
H464 H 0.47354 0.13033 0.27267 0.0
H465 H 0.46051 0.14597 0.32081 0.0
H466 H 0.46749 0.0723 0.24537 0.0
H467 H 0.49477 0.04102 0.24559 0.0
C468 C 1.00744 0.48727 0.36374 0.0
C469 C 0.98618 0.48663 0.32445 0.0
C470 C 0.9306 0.4058 0.33684 0.0
C471 C 0.95468 0.40538 0.37306 0.0
N472 N 1.00782 0.44749 0.42778 0.0
N473 N 0.93229 0.44125 0.27004 0.0
C474 C 0.99089 0.4468 0.38833 0.0
C475 C 0.94853 0.44494 0.31039 0.0
N476 N 0.04437 0.52625 0.37709 0.0
N477 N 0.88974 0.36886 0.32834 0.0
H478 H 0.94609 0.4673 0.24802 0.0
H479 H 0.90848 0.41077 0.25655 0.0
H480 H 0.87531 0.3414 0.34888 0.0
H481 H 0.868 0.36781 0.30464 0.0
H482 H 0.065 0.52841 0.40227 0.0
H483 H 0.05611 0.55698 0.36196 0.0
H484 H 0.03162 0.47633 0.4435 0.0
H485 H 0.9944 0.41898 0.44692 0.0
C486 C 0.60036 0.54084 0.29686 0.0
C487 C 0.5591 0.51034 0.31737 0.0
C488 C 0.60158 0.52248 0.38421 0.0
C489 C 0.64293 0.55176 0.36298 0.0
N490 N 0.68187 0.57521 0.29639 0.0
N491 N 0.52183 0.46553 0.37903 0.0
C492 C 0.64229 0.55642 0.31841 0.0
C493 C 0.56022 0.49892 0.36058 0.0
N494 N 0.59972 0.55657 0.25726 0.0
N495 N 0.60182 0.51812 0.42729 0.0
H496 H 0.49084 0.44897 0.36325 0.0
H497 H 0.52128 0.45228 0.40888 0.0
H498 H 0.63177 0.53222 0.4448 0.0
H499 H 0.57261 0.50212 0.44568 0.0
H500 H 0.62837 0.58224 0.24256 0.0
H501 H 0.56989 0.54773 0.2412 0.0
H502 H 0.6836 0.57631 0.26334 0.0
H503 H 0.71232 0.5841 0.31131 0.0
C504 C 0.96086 0.53421 0.89542 0.0
C505 C 0.9411 0.55655 0.87406 0.0
C506 C 0.95738 0.53377 0.80565 0.0
C507 C 0.97826 0.51155 0.82654 0.0
N508 N 0.98428 0.478 0.89154 0.0
N509 N 0.90554 0.56265 0.81128 0.0
C510 C 0.97565 0.50819 0.87164 0.0
C511 C 0.93437 0.55111 0.82995 0.0
N512 N 0.96559 0.53806 0.93843 0.0
N513 N 0.96103 0.54061 0.76269 0.0
H514 H 0.8879 0.57469 0.82899 0.0
H515 H 0.8953 0.55553 0.7797 0.0
H516 H 0.97735 0.52958 0.74224 0.0
H517 H 0.95157 0.56154 0.7474 0.0
H518 H 0.98458 0.52746 0.95566 0.0
H519 H 0.95109 0.55312 0.95648 0.0
H520 H 0.9795 0.47129 0.92395 0.0
H521 H 0.99136 0.45603 0.87476 0.0
C522 C 0.51927 0.4425 0.80966 0.0
C523 C 0.53052 0.4851 0.82808 0.0
C524 C 0.49518 0.44622 0.89521 0.0
C525 C 0.48231 0.4041 0.87579 0.0
N526 N 0.49379 0.36308 0.82051 0.0
N527 N 0.53669 0.52822 0.89072 0.0
C528 C 0.49833 0.40275 0.83491 0.0
C529 C 0.52063 0.48715 0.87167 0.0
N530 N 0.52601 0.43929 0.76731 0.0
N531 N 0.48267 0.44662 0.93629 0.0
H532 H 0.55549 0.55849 0.87448 0.0
H533 H 0.53377 0.53282 0.92296 0.0
H534 H 0.4687 0.41765 0.95494 0.0
H535 H 0.4861 0.47488 0.95193 0.0
H536 H 0.51307 0.40883 0.75113 0.0
H537 H 0.54131 0.46677 0.74713 0.0
H538 H 0.50858 0.36007 0.79269 0.0
H539 H 0.4787 0.33383 0.83884 0.0
C540 C 0.6084 0.10121 0.80847 0.0
C541 C 0.56627 0.0652 0.82414 0.0
C542 C 0.60357 0.071 0.89249 0.0
C543 C 0.64678 0.10113 0.87497 0.0
N544 N 0.68985 0.1483 0.81628 0.0
N545 N 0.52691 0.01137 0.88 0.0
C546 C 0.64898 0.11781 0.8332 0.0
C547 C 0.56483 0.04877 0.86577 0.0
N548 N 0.61006 0.11924 0.76936 0.0
N549 N 0.59935 0.06493 0.93548 0.0
H550 H 0.49766 0.99382 0.86196 0.0
H551 H 0.52589 0.99539 0.90843 0.0
H552 H 0.62653 0.08294 0.95607 0.0
H553 H 0.56829 0.04665 0.95082 0.0
H554 H 0.63667 0.14991 0.75907 0.0
H555 H 0.5843 0.10428 0.74704 0.0
H556 H 0.69507 0.15697 0.78432 0.0
H557 H 0.71946 0.16488 0.83386 0.0
C558 C 0.53015 0.94167 0.61136 0.0
C559 C 0.56931 0.94403 0.62915 0.0
C560 C 0.56282 0.98483 0.69066 0.0
C561 C 0.52218 0.98097 0.67396 0.0
N562 N 0.45984 0.94042 0.62485 0.0
N563 N 0.61345 0.95447 0.6917 0.0
C564 C 0.50348 0.95466 0.63631 0.0
C565 C 0.58264 0.96149 0.67067 0.0
N566 N 0.51862 0.92762 0.57036 0.0
N567 N 0.58281 0.01048 0.72577 0.0
H568 H 0.62686 0.93591 0.67829 0.0
H569 H 0.62164 0.96242 0.7236 0.0
H570 H 0.56865 0.02593 0.74321 0.0
H571 H 0.61517 0.01897 0.73586 0.0
H572 H 0.49361 0.93032 0.55395 0.0
H573 H 0.53607 0.9158 0.55208 0.0
H574 H 0.44371 0.91798 0.59994 0.0
H575 H 0.43805 0.94689 0.64264 0.0
C576 C 0.07707 0.56117 0.63369 0.0
C577 C 0.06403 0.5582 0.67706 0.0
C578 C 0.09523 0.64047 0.67819 0.0
C579 C 0.10197 0.64227 0.63365 0.0
N580 N 0.10003 0.60489 0.56841 0.0
N581 N 0.06344 0.59656 0.74171 0.0
C582 C 0.09362 0.60283 0.61131 0.0
C583 C 0.07455 0.59844 0.69969 0.0
N584 N 0.07595 0.52488 0.61455 0.0
N585 N 0.1087 0.67966 0.69997 0.0
H586 H 0.05165 0.56793 0.7603 0.0
H587 H 0.0632 0.62274 0.7582 0.0
H588 H 0.12097 0.71034 0.68461 0.0
H589 H 0.11081 0.6827 0.73287 0.0
H590 H 0.08907 0.52579 0.58448 0.0
H591 H 0.06532 0.4946 0.63036 0.0
H592 H 0.08896 0.57665 0.54908 0.0
H593 H 0.11521 0.63526 0.55187 0.0
C594 C 0.4335 0.51393 0.61624 0.0
C595 C 0.3965 0.47592 0.63524 0.0
C596 C 0.44223 0.48779 0.69951 0.0
C597 C 0.47966 0.52571 0.6804 0.0
N598 N 0.50116 0.58537 0.62882 0.0
N599 N 0.36087 0.43747 0.69993 0.0
C600 C 0.47237 0.54221 0.64134 0.0
C601 C 0.39946 0.46663 0.67867 0.0
N602 N 0.43282 0.52226 0.57399 0.0
N603 N 0.44712 0.47197 0.73769 0.0
H604 H 0.3292 0.42242 0.68537 0.0
H605 H 0.35949 0.43181 0.73251 0.0
H606 H 0.47707 0.48714 0.75471 0.0
H607 H 0.42226 0.4423 0.75152 0.0
H608 H 0.4612 0.54657 0.55778 0.0
H609 H 0.40495 0.503 0.55467 0.0
H610 H 0.49507 0.59978 0.60238 0.0
H611 H 0.52807 0.60832 0.64739 0.0
C612 C 0.77393 0.84454 0.44852 0.0
C613 C 0.75861 0.79984 0.46239 0.0
C614 C 0.70503 0.80584 0.51037 0.0
C615 C 0.72363 0.85212 0.50094 0.0
N616 N 0.78217 0.91762 0.46513 0.0
N617 N 0.72398 0.74744 0.51933 0.0
C618 C 0.76025 0.87223 0.47131 0.0
C619 C 0.7282 0.78325 0.49701 0.0
N620 N 0.80051 0.8602 0.41323 0.0
N621 N 0.66537 0.78304 0.53217 0.0
H622 H 0.74695 0.73614 0.51492 0.0
H623 H 0.70315 0.73427 0.54581 0.0
H624 H 0.64734 0.79816 0.54314 0.0
H625 H 0.64864 0.74816 0.53559 0.0
H626 H 0.80891 0.89073 0.39888 0.0
H627 H 0.81192 0.84117 0.39707 0.0
H628 H 0.81156 0.93473 0.44709 0.0
H629 H 0.77253 0.93839 0.48053 0.0
C630 C 0.24951 0.96514 0.50018 0.0
C631 C 0.23384 0.97482 0.46264 0.0
C632 C 0.16352 0.902 0.4709 0.0
C633 C 0.18396 0.88884 0.50362 0.0
N634 N 0.25597 0.90807 0.5374 0.0
N635 N 0.17641 0.94969 0.40904 0.0
C636 C 0.22981 0.92016 0.51457 0.0
C637 C 0.1908 0.94248 0.44704 0.0
N638 N 0.28268 0.99943 0.52307 0.0
N639 N 0.1185 0.87638 0.46214 0.0
H640 H 0.19499 0.97956 0.39206 0.0
H641 H 0.14766 0.92513 0.39349 0.0
H642 H 0.0972 0.84588 0.47685 0.0
H643 H 0.10161 0.88709 0.44198 0.0
H644 H 0.29469 0.99446 0.55177 0.0
H645 H 0.29312 0.03293 0.51587 0.0
H646 H 0.29065 0.92982 0.54089 0.0
H647 H 0.24547 0.87623 0.54935 0.0
C648 C 0.0687 0.2564 0.50148 0.0
C649 C 0.07095 0.26786 0.45842 0.0
C650 C 0.15399 0.30981 0.46187 0.0
C651 C 0.15161 0.30445 0.50675 0.0
N652 N 0.10564 0.27225 0.56974 0.0
N653 N 0.11384 0.28628 0.39447 0.0
C654 C 0.10868 0.27686 0.5266 0.0
C655 C 0.11321 0.2892 0.43756 0.0
N656 N 0.0283 0.22391 0.51746 0.0
N657 N 0.19503 0.33498 0.44263 0.0
H658 H 0.084 0.2673 0.37736 0.0
H659 H 0.14316 0.29782 0.37648 0.0
H660 H 0.22552 0.34859 0.45911 0.0
H661 H 0.19889 0.34425 0.41079 0.0
H662 H 0.02431 0.20996 0.54758 0.0
H663 H 0.99951 0.20782 0.49838 0.0
H664 H 0.07516 0.25714 0.58627 0.0
H665 H 0.13359 0.2864 0.58963 0.0
C666 C 0.17662 0.4193 0.72502 0.0
C667 C 0.14707 0.43118 0.70418 0.0
C668 C 0.16137 0.40414 0.63651 0.0
C669 C 0.19265 0.39423 0.65676 0.0
N670 N 0.23392 0.39699 0.71958 0.0
N671 N 0.11826 0.44293 0.63883 0.0
C672 C 0.20153 0.4034 0.70084 0.0
C673 C 0.14203 0.42641 0.65946 0.0
N674 N 0.17976 0.42205 0.7683 0.0
N675 N 0.14817 0.3901 0.59577 0.0
H676 H 0.10353 0.45899 0.65475 0.0
H677 H 0.11675 0.44463 0.60591 0.0
H678 H 0.16034 0.37258 0.5785 0.0
H679 H 0.1218 0.39146 0.58064 0.0
H680 H 0.19591 0.40887 0.78634 0.0
H681 H 0.16442 0.43623 0.78644 0.0
H682 H 0.24603 0.40771 0.75019 0.0
H683 H 0.25038 0.38264 0.70356 0.0
C684 C 0.63783 0.74233 0.65632 0.0
C685 C 0.61417 0.73185 0.69565 0.0
C686 C 0.62213 0.80735 0.69239 0.0
C687 C 0.65475 0.81996 0.65913 0.0
N688 N 0.70147 0.79977 0.61798 0.0
N689 N 0.5868 0.75882 0.75327 0.0
C690 C 0.66527 0.78763 0.64402 0.0
C691 C 0.60695 0.76556 0.71451 0.0
N692 N 0.63358 0.7086 0.63033 0.0
N693 N 0.60455 0.83425 0.70205 0.0
H694 H 0.5733 0.72851 0.76956 0.0
H695 H 0.58561 0.78444 0.77004 0.0
H696 H 0.61384 0.86393 0.68567 0.0
H697 H 0.57797 0.82486 0.72338 0.0
H698 H 0.64901 0.71446 0.60068 0.0
H699 H 0.61025 0.67502 0.63677 0.0
H700 H 0.71233 0.77729 0.60952 0.0
H701 H 0.72297 0.83294 0.60862 0.0
C702 C 0.24099 0.83718 0.69036 0.0
C703 C 0.22615 0.85528 0.65692 0.0
C704 C 0.30171 0.92183 0.65814 0.0
C705 C 0.31365 0.90837 0.6963 0.0
N706 N 0.28814 0.85379 0.7531 0.0
N707 N 0.24163 0.92531 0.62276 0.0
C708 C 0.28161 0.86603 0.7137 0.0
C709 C 0.25596 0.90076 0.64511 0.0
N710 N 0.21654 0.79274 0.70053 0.0
N711 N 0.3344 0.95495 0.63378 0.0
H712 H 0.20866 0.91359 0.61286 0.0
H713 H 0.26249 0.95982 0.61807 0.0
H714 H 0.3686 0.96811 0.6404 0.0
H715 H 0.32756 0.96496 0.60483 0.0
H716 H 0.22836 0.77715 0.7211 0.0
H717 H 0.18602 0.77092 0.68625 0.0
H718 H 0.26323 0.82568 0.76904 0.0
H719 H 0.31672 0.87343 0.77139 0.0
C720 C 0.58978 0.84525 0.21418 0.0
C721 C 0.60127 0.88858 0.19947 0.0
C722 C 0.65921 0.8885 0.15432 0.0
C723 C 0.64342 0.84226 0.16238 0.0
N724 N 0.58674 0.77474 0.19826 0.0
N725 N 0.632 0.93981 0.14167 0.0
C726 C 0.60623 0.81981 0.19158 0.0
C727 C 0.63101 0.90615 0.16487 0.0
N728 N 0.5642 0.82882 0.24996 0.0
N729 N 0.70142 0.91689 0.13893 0.0
H730 H 0.60779 0.94921 0.14701 0.0
H731 H 0.65261 0.9535 0.11513 0.0
H732 H 0.72602 0.908 0.1341 0.0
H733 H 0.71353 0.95136 0.13575 0.0
H734 H 0.55874 0.79949 0.26501 0.0
H735 H 0.55061 0.84624 0.26563 0.0
H736 H 0.55726 0.75647 0.21595 0.0
H737 H 0.59847 0.75528 0.184 0.0
C738 C 0.17908 0.7773 0.22286 0.0
C739 C 0.16302 0.73534 0.20252 0.0
C740 C 0.19292 0.77464 0.13456 0.0
C741 C 0.20371 0.81662 0.15416 0.0
N742 N 0.20149 0.85612 0.21684 0.0
N743 N 0.16606 0.69423 0.14291 0.0
C744 C 0.19546 0.81747 0.19837 0.0
C745 C 0.17351 0.73421 0.15936 0.0
N746 N 0.18063 0.77859 0.26606 0.0
N747 N 0.19856 0.77292 0.09176 0.0
H748 H 0.15423 0.66565 0.16194 0.0
H749 H 0.17495 0.68989 0.1124 0.0
H750 H 0.21167 0.80109 0.07231 0.0
H751 H 0.18776 0.74337 0.0746 0.0
H752 H 0.19545 0.80828 0.28369 0.0
H753 H 0.17203 0.7496 0.28361 0.0
H754 H 0.19198 0.85771 0.24795 0.0
H755 H 0.21234 0.88584 0.19997 0.0
C756 C 0.25642 0.4454 0.15725 0.0
C757 C 0.22327 0.39822 0.15789 0.0
C758 C 0.26294 0.39237 0.22021 0.0
C759 C 0.30169 0.43436 0.21116 0.0
N760 N 0.33561 0.50106 0.1683 0.0
N761 N 0.20503 0.32522 0.18708 0.0
C762 C 0.29852 0.46116 0.17893 0.0
C763 C 0.22882 0.37114 0.18893 0.0
N764 N 0.24731 0.47571 0.13834 0.0
N765 N 0.25972 0.37195 0.2581 0.0
H766 H 0.18528 0.30713 0.16129 0.0
H767 H 0.21074 0.30522 0.20821 0.0
H768 H 0.28319 0.38857 0.28218 0.0
H769 H 0.23097 0.3421 0.26711 0.0
H770 H 0.26962 0.51032 0.13947 0.0
H771 H 0.21531 0.46721 0.12741 0.0
H772 H 0.33639 0.51969 0.14187 0.0
H773 H 0.36606 0.51393 0.18486 0.0
C774 C 0.20464 0.28924 0.01861 0.0
C775 C 0.18208 0.30993 -0.00136 0.0
C776 C 0.20637 0.2949 0.92927 0.0
C777 C 0.22481 0.27092 0.94987 0.0
N778 N 0.22907 0.2342 0.01273 0.0
N779 N 0.15745 0.3271 0.9326 0.0
C780 C 0.21897 0.26389 0.99401 0.0
C781 C 0.18155 0.31105 0.95322 0.0
N782 N 0.21655 0.29728 0.06049 0.0
N783 N 0.21456 0.30417 0.88698 0.0
H784 H 0.1415 0.34206 0.94803 0.0
H785 H 0.1512 0.32332 0.90006 0.0
H786 H 0.2305 0.29088 0.86851 0.0
H787 H 0.20764 0.32651 0.87086 0.0
H788 H 0.23619 0.28589 0.07539 0.0
H789 H 0.21275 0.32063 0.07863 0.0
H790 H 0.2225 0.22521 0.04465 0.0
H791 H 0.23948 0.21526 0.99495 0.0
C792 C 0.75755 0.89722 0.96997 0.0
C793 C 0.73283 0.89191 0.00826 0.0
C794 C 0.7536 0.97137 0.00312 0.0
C795 C 0.77265 0.97538 0.96245 0.0
N796 N 0.78976 0.94037 0.9049 0.0
N797 N 0.69376 0.9215 0.04947 0.0
C798 C 0.77403 0.93776 0.94526 0.0
C799 C 0.72699 0.92822 0.02158 0.0
N800 N 0.76377 0.86294 0.9564 0.0
N801 N 0.76105 0.00904 0.02452 0.0
H802 H 0.67107 0.89017 0.06202 0.0
H803 H 0.68541 0.94635 0.0554 0.0
H804 H 0.78269 0.0412 0.01263 0.0
H805 H 0.74999 0.00809 0.05562 0.0
H806 H 0.7851 0.86592 0.93142 0.0
H807 H 0.74846 0.83173 0.97137 0.0
H808 H 0.7872 0.91292 0.88829 0.0
H809 H 0.80383 0.97017 0.88741 0.0
C810 C 0.11156 0.85533 0.0192 0.0
C811 C 0.15452 0.86218 0.00546 0.0
C812 C 0.11692 0.81422 0.94326 0.0
C813 C 0.07458 0.80971 0.95554 0.0
N814 N 0.03413 0.83395 0.00073 0.0
N815 N 0.19843 0.85576 0.94856 0.0
C816 C 0.073 0.83345 0.99176 0.0
C817 C 0.15724 0.84404 0.96569 0.0
N818 N 0.10635 0.86611 0.05984 0.0
N819 N 0.11864 0.7882 0.91124 0.0
H820 H 0.22876 0.87632 0.96402 0.0
H821 H 0.20271 0.84844 0.91734 0.0
H822 H 0.09082 0.7671 0.89284 0.0
H823 H 0.14692 0.78512 0.90491 0.0
H824 H 0.07509 0.85772 0.07294 0.0
H825 H 0.13218 0.87874 0.08227 0.0
H826 H 0.03192 0.85408 0.02433 0.0
H827 H 1.00537 0.81757 0.98172 0.0
C828 C 0.42118 0.20875 0.80388 0.0
C829 C 0.40785 0.1974 0.8471 0.0
C830 C 0.44199 0.14899 0.8464 0.0
C831 C 0.44774 0.15373 0.80186 0.0
N832 N 0.44684 0.19116 0.73798 0.0
N833 N 0.40197 0.15253 0.90833 0.0
C834 C 0.43914 0.18511 0.78061 0.0
C835 C 0.41755 0.16656 0.86811 0.0
N836 N 0.41641 0.24197 0.78513 0.0
N837 N 0.46072 0.12784 0.86788 0.0
H838 H 0.3832 0.16373 0.92502 0.0
H839 H 0.40386 0.12658 0.92352 0.0
H840 H 0.48069 0.11712 0.85233 0.0
H841 H 0.4611 0.12591 0.90087 0.0
H842 H 0.42943 0.25545 0.75541 0.0
H843 H 0.40098 0.25764 0.80052 0.0
H844 H 0.43638 0.20905 0.71901 0.0
H845 H 0.46339 0.17727 0.72138 0.0
C846 C 0.85628 0.22104 0.79134 0.0
C847 C 0.85985 0.22203 0.83649 0.0
C848 C 0.905 0.30579 0.83342 0.0
C849 C 0.89922 0.30443 0.78873 0.0
N850 N 0.8625 0.26193 0.72618 0.0
N851 N 0.88831 0.26685 0.90072 0.0
C852 C 0.87272 0.26227 0.76818 0.0
C853 C 0.88422 0.26492 0.85745 0.0
N854 N 0.83847 0.18101 0.77013 0.0
N855 N 0.9328 0.34614 0.85278 0.0
H856 H 0.8812 0.23918 0.9195 0.0
H857 H 0.89801 0.29586 0.91851 0.0
H858 H 0.94585 0.37694 0.83729 0.0
H859 H 0.9449 0.34943 0.88364 0.0
H860 H 0.83935 0.1784 0.73725 0.0
H861 H 0.82653 0.15022 0.78517 0.0
H862 H 0.8396 0.23311 0.70972 0.0
H863 H 0.87359 0.29151 0.7088 0.0
C864 C 0.77564 0.60339 0.85389 0.0
C865 C 0.81844 0.64001 0.84082 0.0
C866 C 0.78143 0.64889 0.77741 0.0
C867 C 0.73926 0.61072 0.78919 0.0
N868 N 0.69913 0.54623 0.83417 0.0
N869 N 0.8627 0.69084 0.78461 0.0
C870 C 0.73761 0.58591 0.8257 0.0
C871 C 0.82145 0.66055 0.8009 0.0
N872 N 0.77001 0.58759 0.89455 0.0
N873 N 0.78313 0.67583 0.74477 0.0
H874 H 0.89276 0.70184 0.80098 0.0
H875 H 0.86752 0.70214 0.75332 0.0
H876 H 0.75576 0.668 0.72525 0.0
H877 H 0.81087 0.70753 0.73881 0.0
H878 H 0.73875 0.56428 0.90717 0.0
H879 H 0.79539 0.60134 0.91741 0.0
H880 H 0.69697 0.52426 0.85804 0.0
H881 H 0.67081 0.53323 0.81451 0.0
C882 C 0.85463 0.76413 0.97272 0.0
C883 C 0.86305 0.73069 0.99092 0.0
C884 C 0.83153 0.73903 0.0585 0.0
C885 C 0.81827 0.76759 0.0391 0.0
N886 N 0.82852 0.81819 0.98298 0.0
N887 N 0.85088 0.68072 0.04981 0.0
C888 C 0.83335 0.78341 -0.00238 0.0
C889 C 0.84927 0.71671 0.03352 0.0
N890 N 0.86361 0.77483 0.9307 0.0
N891 N 0.82944 0.73543 0.10156 0.0
H892 H 0.8623 0.66242 0.03261 0.0
H893 H 0.83701 0.66649 0.07915 0.0
H894 H 0.81985 0.75462 0.12 0.0
H895 H 0.84256 0.71858 0.11867 0.0
H896 H 0.85436 0.79526 0.9143 0.0
H897 H 0.87722 0.76048 0.91076 0.0
H898 H 0.84154 0.83475 0.95436 0.0
H899 H 0.81471 0.83323 0.00203 0.0
C900 C 0.33244 0.15556 0.0341 0.0
C901 C 0.31098 0.15326 0.99487 0.0
C902 C 0.25599 0.07292 0.00991 0.0
C903 C 0.28176 0.07363 0.04531 0.0
N904 N 0.34955 0.11611 0.08729 0.0
N905 N 0.25753 0.10518 0.94129 0.0
C906 C 0.32105 0.11523 0.05655 0.0
C907 C 0.27363 0.11085 0.98188 0.0
N908 N 0.3637 0.19628 0.05055 0.0
N909 N 0.21541 0.03522 0.00201 0.0
H910 H 0.27199 0.12991 0.91802 0.0
H911 H 0.23349 0.0741 0.929 0.0
H912 H 0.20238 1.00694 0.02157 0.0
H913 H 0.19295 0.03385 0.97891 0.0
H914 H 0.37607 0.20026 0.08142 0.0
H915 H 0.37454 0.22671 0.03509 0.0
H916 H 0.38184 0.14336 0.09241 0.0
H917 H 0.34235 0.08843 0.10571 0.0
C918 C 0.89301 0.17284 0.03719 0.0
C919 C 0.89684 0.178 0.99237 0.0
C920 C 0.97936 0.21237 0.00055 0.0
C921 C 0.97582 0.2192 0.0443 0.0
N922 N 0.92782 0.20151 0.10583 0.0
N923 N 0.9472 0.20797 0.93151 0.0
C924 C 0.93206 0.19811 0.06309 0.0
C925 C 0.94105 0.19898 0.97402 0.0
N926 N 0.85327 0.14116 0.05482 0.0
N927 N 0.01855 0.21721 0.98426 0.0
H928 H 0.92108 0.20149 0.91058 0.0
H929 H 0.9791 0.22623 0.91774 0.0
H930 H 0.04647 0.22459 0.00305 0.0
H931 H 0.02115 0.20851 0.95305 0.0
H932 H 0.84966 0.13314 0.08702 0.0
H933 H 0.8256 0.11926 0.03636 0.0
H934 H 0.89685 0.1915 0.12055 0.0
H935 H 0.9557 0.21553 0.12613 0.0
C936 C 0.30869 0.17888 0.52925 0.0
C937 C 0.31551 0.18492 0.48468 0.0
C938 C 0.27865 0.23116 0.48577 0.0
C939 C 0.2802 0.23226 0.53069 0.0
N940 N 0.29896 0.20868 0.59592 0.0
N941 N 0.30773 0.21859 0.42017 0.0
C942 C 0.29546 0.20619 0.55272 0.0
C943 C 0.30024 0.21126 0.46281 0.0
N944 N 0.31233 0.14538 0.54881 0.0
N945 N 0.25657 0.24963 0.4652 0.0
H946 H 0.32488 0.20635 0.40232 0.0
H947 H 0.29991 0.23947 0.40273 0.0
H948 H 0.2403 0.26405 0.48153 0.0
H949 H 0.25035 0.2468 0.43268 0.0
H950 H 0.30383 0.13663 0.58053 0.0
H951 H 0.3195 0.12337 0.53212 0.0
H952 H 0.31509 0.19493 0.61324 0.0
H953 H 0.28772 0.22651 0.61422 0.0
C954 C 0.87671 0.14304 0.5258 0.0
C955 C 0.86131 0.14714 0.48487 0.0
C956 C 0.80227 0.06703 0.48874 0.0
C957 C 0.81442 0.06418 0.53117 0.0
N958 N 0.8611 0.10076 0.59183 0.0
N959 N 0.80267 0.1143 0.43183 0.0
C960 C 0.85131 0.10258 0.55009 0.0
C961 C 0.82222 0.10948 0.46763 0.0
N962 N 0.91531 0.17823 0.54181 0.0
N963 N 0.77192 0.02873 0.46808 0.0
H964 H 0.81633 0.14397 0.41446 0.0
H965 H 0.7702 0.09028 0.42239 0.0
H966 H 0.75763 0.99724 0.4824 0.0
H967 H 0.7646 0.02766 0.43583 0.0
H968 H 0.93162 0.1763 0.56894 0.0
H969 H 0.93211 0.20914 0.52649 0.0
H970 H 0.88377 0.12871 0.60944 0.0
H971 H 0.84476 0.07111 0.60951 0.0
C972 C 0.95734 0.78121 0.51942 0.0
C973 C 0.96646 0.74934 0.53893 0.0
C974 C 0.89613 0.68818 0.50808 0.0
C975 C 0.88465 0.71949 0.4913 0.0
N976 N 0.89926 0.79618 0.49366 0.0
N977 N 0.93292 0.67285 0.5652 0.0
C978 C 0.91372 0.76621 0.50083 0.0
C979 C 0.93188 0.70308 0.53783 0.0
N980 N 0.9904 0.82527 0.51684 0.0
N981 N 0.87584 0.64482 0.49359 0.0
H982 H 0.95721 0.68226 0.58881 0.0
H983 H 0.90648 0.63969 0.56763 0.0
H984 H 0.85316 0.63285 0.46837 0.0
H985 H 0.88642 0.62237 0.50284 0.0
H986 H 0.98691 0.84883 0.49887 0.0
H987 H 0.0224 0.83747 0.53001 0.0
H988 H 0.91764 0.82981 0.50299 0.0
H989 H 0.86659 0.7862 0.4834 0.0
C990 C 0.872 0.59314 0.30415 0.0
C991 C 0.91307 0.62681 0.286 0.0
C992 C 0.89709 0.68492 0.31374 0.0
C993 C 0.85438 0.6514 0.32937 0.0
N994 N 0.79653 0.57269 0.32726 0.0
N995 N 0.95436 0.70363 0.26044 0.0
C996 C 0.84038 0.60521 0.32072 0.0
C997 C 0.92209 0.67223 0.28648 0.0
N998 N 0.86378 0.55003 0.30771 0.0
N999 N 0.91605 0.72858 0.32708 0.0
H1000 H 0.97201 0.69571 0.23844 0.0
H1001 H 0.95929 0.73601 0.25704 0.0
H1002 H 0.90149 0.73963 0.34964 0.0
H1003 H 0.94915 0.7529 0.31953 0.0
H1004 H 0.83679 0.5254 0.32512 0.0
H1005 H 0.88585 0.53977 0.29629 0.0
H1006 H 0.78359 0.53932 0.31788 0.0
H1007 H 0.772 0.58004 0.33745 0.0
C1008 C 0.44153 0.30076 0.31933 0.0
C1009 C 0.419 0.3005 0.28183 0.0
C1010 C 0.36832 0.21813 0.29062 0.0
C1011 C 0.3875 0.21966 0.33121 0.0
N1012 N 0.42867 0.27026 0.38976 0.0
N1013 N 0.35163 0.25936 0.23891 0.0
C1014 C 0.42073 0.2631 0.34712 0.0
C1015 C 0.37998 0.25925 0.2693 0.0
N1016 N 0.48124 0.33816 0.33018 0.0
N1017 N 0.33842 0.17825 0.27195 0.0
H1018 H 0.35772 0.28809 0.22282 0.0
H1019 H 0.31978 0.23183 0.23268 0.0
H1020 H 0.32509 0.14703 0.28626 0.0
H1021 H 0.32877 0.17605 0.24025 0.0
H1022 H 0.5006 0.33878 0.35603 0.0
H1023 H 0.49671 0.36667 0.31091 0.0
H1024 H 0.44996 0.30201 0.40265 0.0
H1025 H 0.40869 0.24677 0.41263 0.0
C1026 C 0.80316 0.21226 0.3084 0.0
C1027 C 0.82844 0.19377 0.32735 0.0
C1028 C 0.76338 0.11933 0.31916 0.0
C1029 C 0.73799 0.13554 0.29759 0.0
N1030 N 0.73834 0.19918 0.26498 0.0
N1031 N 0.8372 0.12788 0.32405 0.0
C1032 C 0.75902 0.18276 0.29044 0.0
C1033 C 0.81031 0.1468 0.3239 0.0
N1034 N 0.8224 0.25773 0.30511 0.0
N1035 N 0.74216 0.07838 0.33802 0.0
H1036 H 0.87217 0.14689 0.32034 0.0
H1037 H 0.82404 0.0933 0.32037 0.0
H1038 H 0.70847 0.06465 0.34629 0.0
H1039 H 0.75927 0.06419 0.353 0.0
H1040 H 0.80451 0.27392 0.2972 0.0
H1041 H 0.85697 0.27892 0.30943 0.0
H1042 H 0.75366 0.2325 0.25495 0.0
H1043 H 0.70649 0.17872 0.25179 0.0
C1044 C 0.0588 0.6504 0.44526 0.0
C1045 C 0.08051 0.69559 0.45967 0.0
C1046 C 0.09608 0.72224 0.38613 0.0
C1047 C 0.07409 0.67696 0.37152 0.0
N1048 N 0.0156 0.60098 0.38786 0.0
N1049 N 0.0992 0.77141 0.44231 0.0
C1050 C 0.04974 0.64176 0.40127 0.0
C1051 C 0.09303 0.73065 0.42964 0.0
N1052 N 0.04768 0.6157 0.47271 0.0
N1053 N 0.12053 0.75753 0.35947 0.0
H1054 H 0.09253 0.77716 0.47328 0.0
H1055 H 0.10446 0.79681 0.42103 0.0
H1056 H 0.12206 0.75436 0.32695 0.0
H1057 H 0.14169 0.79021 0.37045 0.0
H1058 H 0.03595 0.58279 0.46236 0.0
H1059 H 0.05349 0.62014 0.50522 0.0
H1060 H 0.9945 0.57554 0.40879 0.0
H1061 H 1.00486 0.59482 0.35633 0.0
C1062 C 0.36121 0.3768 0.43724 0.0
C1063 C 0.35192 0.40766 0.45888 0.0
C1064 C 0.35721 0.44607 0.39143 0.0
C1065 C 0.36363 0.41338 0.36975 0.0
N1066 N 0.35795 0.34048 0.37061 0.0
N1067 N 0.35174 0.47771 0.45886 0.0
C1068 C 0.36174 0.37672 0.39223 0.0
C1069 C 0.35267 0.44395 0.43648 0.0
N1070 N 0.37081 0.34833 0.45931 0.0
N1071 N 0.35289 0.47748 0.36841 0.0
H1072 H 0.35108 0.47826 0.49197 0.0
H1073 H 0.35581 0.50716 0.44542 0.0
H1074 H 0.35396 0.47835 0.3353 0.0
H1075 H 0.34433 0.50014 0.38132 0.0
H1076 H 0.38207 0.32828 0.44509 0.0
H1077 H 0.3738 0.34881 0.49209 0.0
H1078 H 0.35497 0.3119 0.385 0.0
H1079 H 0.35076 0.33585 0.33845 0.0
C1080 C 0.63962 1.00046 0.44497 0.0
C1081 C 0.65272 0.96876 0.45659 0.0
C1082 C 0.64124 0.94045 0.38374 0.0
C1083 C 0.63204 0.97461 0.37153 0.0
N1084 N 0.63349 0.04417 0.38806 0.0
N1085 N 0.67981 0.91914 0.4344 0.0
C1086 C 0.63456 1.00684 0.40138 0.0
C1087 C 0.65719 0.94144 0.42528 0.0
N1088 N 0.63021 0.0231 0.47536 0.0
N1089 N 0.63552 0.9076 0.35562 0.0
H1090 H 0.69664 0.92393 0.46302 0.0
H1091 H 0.68736 0.90154 0.41191 0.0
H1092 H 0.62506 0.90657 0.32433 0.0
H1093 H 0.63758 0.87942 0.36442 0.0
H1094 H 0.6159 0.04297 0.46838 0.0
H1095 H 0.63285 0.01894 0.50781 0.0
H1096 H 0.64045 0.07113 0.40804 0.0
H1097 H 0.62891 0.0497 0.35635 0.0
C1098 C 0.73345 0.10247 0.07368 0.0
C1099 C 0.70565 0.07356 0.0405 0.0
C1100 C 0.64597 0.03221 0.09288 0.0
C1101 C 0.67742 0.05484 0.12608 0.0
N1102 N 0.75339 0.10822 0.14789 0.0
N1103 N 0.63346 0.01075 0.01894 0.0
C1104 C 0.72189 0.08885 0.1164 0.0
C1105 C 0.66145 0.03808 0.05027 0.0
N1106 N 0.76935 0.14405 0.06523 0.0
N1107 N 0.60092 1.00704 0.10166 0.0
H1108 H 0.64028 0.01719 0.98668 0.0
H1109 H 0.60377 0.98068 0.02522 0.0
H1110 H 0.58842 1.00138 0.13244 0.0
H1111 H 0.57583 0.99447 0.07846 0.0
H1112 H 0.78703 0.16766 0.08892 0.0
H1113 H 0.77899 0.1572 0.03497 0.0
H1114 H 0.7876 0.12991 0.14172 0.0
H1115 H 0.74614 0.09951 0.17981 0.0
C1116 C 0.01885 0.63887 0.09467 0.0
C1117 C 0.99032 0.64041 0.12616 0.0
C1118 C 0.95795 0.66588 0.07192 0.0
C1119 C 0.97491 0.64907 0.03961 0.0
N1120 N 0.02242 0.61607 0.02364 0.0
N1121 N 0.93005 0.65516 0.1439 0.0
C1122 C 1.0059 0.63472 0.05166 0.0
C1123 C 0.95898 0.65395 0.11472 0.0
N1124 N 0.06016 0.64529 0.10543 0.0
N1125 N 0.94504 0.69658 0.06253 0.0
H1126 H 0.92914 0.64567 0.17548 0.0
H1127 H 0.90459 0.66203 0.13541 0.0
H1128 H 0.94922 0.71062 0.03235 0.0
H1129 H 0.93632 0.7124 0.08601 0.0
H1130 H 0.08424 0.64951 0.0827 0.0
H1131 H 0.07193 0.65258 0.13661 0.0
H1132 H 0.04231 0.60256 0.03355 0.0
H1133 H 0.01346 0.60993 0.9919 0.0
C1134 C 0.38072 0.32333 0.1082 0.0
C1135 C 0.39905 0.36848 0.12117 0.0
C1136 C 0.3995 0.39141 0.0476 0.0
C1137 C 0.38164 0.34568 0.03491 0.0
N1138 N 0.33232 0.26877 0.05666 0.0
N1139 N 0.40805 0.44142 0.10572 0.0
C1140 C 0.36457 0.31175 0.06645 0.0
C1141 C 0.40308 0.40146 0.09166 0.0
N1142 N 0.38152 0.29209 0.13431 0.0
N1143 N 0.41372 0.42542 0.01872 0.0
H1144 H 0.40874 0.44908 0.13788 0.0
H1145 H 0.40677 0.46489 0.08568 0.0
H1146 H 0.40644 0.42067 0.98655 0.0
H1147 H 0.43358 0.4592 0.02715 0.0
H1148 H 0.37044 0.25912 0.1246 0.0
H1149 H 0.39859 0.30078 0.16323 0.0
H1150 H 0.3166 0.24385 0.07972 0.0
H1151 H 0.31819 0.25981 0.02639 0.0
C1152 C 0.9854 0.3289 0.60828 0.0
C1153 C 0.98473 0.36839 0.62037 0.0
C1154 C 0.9578 0.37223 0.54906 0.0
C1155 C 0.96577 0.3376 0.53592 0.0
N1156 N 0.99628 0.28915 0.55086 0.0
N1157 N 0.97698 0.43222 0.59853 0.0
C1158 C 0.98252 0.31793 0.5648 0.0
C1159 C 0.97259 0.3913 0.58979 0.0
N1160 N 0.9852 0.29981 0.63801 0.0
N1161 N 0.93568 0.38665 0.52291 0.0
H1162 H 0.98842 0.44832 0.6273 0.0
H1163 H 0.9738 0.45236 0.57565 0.0
H1164 H 0.92478 0.37364 0.49249 0.0
H1165 H 0.92449 0.40842 0.53284 0.0
H1166 H 0.98168 0.26869 0.63009 0.0
H1167 H 0.98225 0.30348 0.6705 0.0
H1168 H 0.01364 0.27826 0.57021 0.0
H1169 H 0.99337 0.2792 0.51931 0.0
C1170 C 0.63976 0.61345 0.59043 0.0
C1171 C 0.67132 0.618 0.62231 0.0
C1172 C 0.72541 0.62623 0.56696 0.0
C1173 C 0.6967 0.62903 0.53562 0.0
N1174 N 0.62487 0.62212 0.51711 0.0
N1175 N 0.74328 0.62612 0.64132 0.0
C1176 C 0.65346 0.62178 0.54732 0.0
C1177 C 0.7141 0.62423 0.61065 0.0
N1178 N 0.59588 0.59929 0.60098 0.0
N1179 N 0.76187 0.62233 0.55532 0.0
H1180 H 0.73324 0.61576 0.67245 0.0
H1181 H 0.77768 0.63884 0.63613 0.0
H1182 H 0.76933 0.61872 0.52428 0.0
H1183 H 0.78177 0.61656 0.57647 0.0
H1184 H 0.56983 0.58827 0.57888 0.0
H1185 H 0.58466 0.59588 0.63208 0.0
H1186 H 0.59692 0.62551 0.52421 0.0
H1187 H 0.62938 0.61985 0.48464 0.0
C1188 C 0.40728 0.10736 0.61566 0.0
C1189 C 0.42148 0.07636 0.62713 0.0
C1190 C 0.41583 0.0531 0.55215 0.0
C1191 C 0.40414 0.08591 0.54067 0.0
N1192 N 0.40461 0.15443 0.56078 0.0
N1193 N 0.44666 0.02486 0.60427 0.0
C1194 C 0.40445 0.11598 0.5721 0.0
C1195 C 0.42802 0.0509 0.59477 0.0
N1196 N 0.39676 0.12925 0.64594 0.0
N1197 N 0.41591 0.02405 0.52234 0.0
H1198 H 0.45035 0.01648 0.635 0.0
H1199 H 0.45997 0.01269 0.58145 0.0
H1200 H 0.41424 0.02819 0.48979 0.0
H1201 H 0.41623 0.9947 0.53005 0.0
H1202 H 0.38013 0.14697 0.63895 0.0
H1203 H 0.40141 0.12746 0.67827 0.0
H1204 H 0.41057 0.18002 0.5822 0.0
H1205 H 0.40356 0.1634 0.52967 0.0
C1206 C 0.3256 0.96213 0.88229 0.0
C1207 C 0.37194 0.9825 0.87097 0.0
C1208 C 0.39212 0.98736 0.94595 0.0
C1209 C 0.34656 0.97156 0.95722 0.0
N1210 N 0.27357 0.95982 0.93552 0.0
N1211 N 0.44938 0.0302 0.89429 0.0
C1212 C 0.31432 0.96393 0.92521 0.0
C1213 C 0.40537 0.99998 0.90343 0.0
N1214 N 0.29226 0.93901 0.85315 0.0
N1215 N 0.42239 0.98831 0.97479 0.0
H1216 H 0.46037 0.04282 0.86389 0.0
H1217 H 0.47366 0.04659 0.91785 0.0
H1218 H 0.41334 0.97592 0.00557 0.0
H1219 H 0.45517 0.99646 0.96637 0.0
H1220 H 0.25817 0.92081 0.86151 0.0
H1221 H 0.29867 0.93343 0.82202 0.0
H1222 H 0.25056 0.95776 0.91265 0.0
H1223 H 0.26501 0.96323 0.9666 0.0
C1224 C 0.05548 0.41509 0.94654 0.0
C1225 C 0.05736 0.37644 0.95733 0.0
C1226 C 0.04965 0.35402 0.8826 0.0
C1227 C 0.05287 0.3958 0.87124 0.0
N1228 N 0.0728 0.47186 0.89471 0.0
N1229 N 0.05678 0.30857 0.9377 0.0
C1230 C 0.05975 0.42804 0.90365 0.0
C1231 C 0.05368 0.34523 0.92599 0.0
N1232 N 0.04857 0.43911 0.97741 0.0
N1233 N 0.04551 0.32392 0.85191 0.0
H1234 H 0.06012 0.30176 0.96928 0.0
H1235 H 0.05956 0.28681 0.91649 0.0
H1236 H 0.05296 0.33245 0.82003 0.0
H1237 H 0.03512 0.29032 0.858 0.0
H1238 H 0.04193 0.46501 0.97077 0.0
H1239 H 0.04412 0.42967 0.00927 0.0
H1240 H 0.08358 0.49668 0.91808 0.0
H1241 H 0.07753 0.48567 0.86477 0.0
C1242 C 0.60224 0.68674 0.88837 0.0
C1243 C 0.63892 0.68837 0.86542 0.0
C1244 C 0.68621 0.71798 0.92863 0.0
C1245 C 0.64726 0.70748 0.95304 0.0
N1246 N 0.56673 0.67756 0.95696 0.0
N1247 N 0.71631 0.70329 0.86539 0.0
C1248 C 0.60479 0.69071 0.93314 0.0
C1249 C 0.68119 0.70362 0.88584 0.0
N1250 N 0.56563 0.68296 0.86715 0.0
N1251 N 0.72827 0.74389 0.94548 0.0
H1252 H 0.71635 0.69689 0.83324 0.0
H1253 H 0.74499 0.70749 0.88114 0.0
H1254 H 0.73319 0.75758 0.97574 0.0
H1255 H 0.75789 0.75638 0.92771 0.0
H1256 H 0.53971 0.68547 0.88206 0.0
H1257 H 0.56387 0.68271 0.83408 0.0
H1258 H 0.53426 0.66077 0.94417 0.0
H1259 H 0.56731 0.67975 0.99003 0.0
C1260 C 0.72123 0.97495 0.73673 0.0
C1261 C 0.72815 1.00706 0.70487 0.0
C1262 C 0.7386 0.06144 0.76048 0.0
C1263 C 0.73826 0.0314 0.79148 0.0
N1264 N 0.73456 0.96125 0.80908 0.0
N1265 N 0.75025 0.08364 0.68651 0.0
C1266 C 0.73159 0.9888 0.77955 0.0
C1267 C 0.73844 0.0511 0.71673 0.0
N1268 N 0.70115 0.93047 0.72668 0.0
N1269 N 0.73889 0.09973 0.77281 0.0
H1270 H 0.75189 0.07776 0.65424 0.0
H1271 H 0.76261 0.11745 0.69374 0.0
H1272 H 0.74087 0.10918 0.80457 0.0
H1273 H 0.7344 0.12052 0.75173 0.0
H1274 H 0.6916 0.90491 0.749 0.0
H1275 H 0.68808 0.91907 0.69673 0.0
H1276 H 0.73535 0.93216 0.80104 0.0
H1277 H 0.73929 0.96895 0.84137 0.0
C1278 C 0.06664 0.76297 0.73648 0.0
C1279 C 0.03323 0.7429 0.70391 0.0
C1280 C 0.9771 0.70174 0.75908 0.0
C1281 C 1.00867 0.72832 0.79085 0.0
N1282 N 0.08064 0.79341 0.80747 0.0
N1283 N 0.95317 0.70196 0.68723 0.0
C1284 C 0.0527 0.76163 0.77899 0.0
C1285 C 0.98736 0.71442 0.71588 0.0
N1286 N 0.1116 0.78157 0.72765 0.0
N1287 N 0.93769 0.66402 0.76989 0.0
H1288 H 0.95839 0.71493 0.65659 0.0
H1289 H 0.91916 0.68378 0.69586 0.0
H1290 H 0.9294 0.65329 0.80125 0.0
H1291 H 0.91551 0.64153 0.74735 0.0
H1292 H 0.13629 0.79331 0.75128 0.0
H1293 H 0.1237 0.77973 0.69789 0.0
H1294 H 0.11199 0.8205 0.79895 0.0
H1295 H 0.07002 0.79583 0.83791 0.0
C1296 C 0.26704 0.26574 0.72128 0.0
C1297 C 0.30412 0.30004 0.69847 0.0
C1298 C 0.35214 0.31539 0.76089 0.0
C1299 C 0.31299 0.28805 0.78538 0.0
N1300 N 0.23241 0.23801 0.78986 0.0
N1301 N 0.38356 0.3574 0.69644 0.0
C1302 C 0.27017 0.26327 0.76585 0.0
C1303 C 0.34732 0.32458 0.718 0.0
N1304 N 0.22969 0.23418 0.69995 0.0
N1305 N 0.39405 0.33101 0.7781 0.0
H1306 H 0.38338 0.3639 0.66438 0.0
H1307 H 0.4141 0.37982 0.7108 0.0
H1308 H 0.39874 0.32357 0.80896 0.0
H1309 H 0.4239 0.34668 0.76061 0.0
H1310 H 0.20326 0.20612 0.71455 0.0
H1311 H 0.2277 0.23308 0.66687 0.0
H1312 H 0.19972 0.22344 0.77771 0.0
H1313 H 0.23353 0.23437 0.82263 0.0
C1314 C 0.99605 0.30331 0.2197 0.0
C1315 C 0.04143 0.32018 0.20698 0.0
C1316 C 0.06489 0.32276 0.28056 0.0
C1317 C 0.01936 0.30558 0.29326 0.0
N1318 N 0.94618 0.29657 0.27712 0.0
N1319 N 0.12053 0.35848 0.22566 0.0
C1320 C 0.9862 0.30094 0.26346 0.0
C1321 C 0.07632 0.33339 0.23748 0.0
N1322 N 0.96216 0.2881 0.19027 0.0
N1323 N 0.09734 0.32858 0.30917 0.0
H1324 H 0.1299 0.3695 0.19485 0.0
H1325 H 0.14747 0.3732 0.24688 0.0
H1326 H 0.09301 0.32858 0.34171 0.0
H1327 H 0.12866 0.33278 0.30047 0.0
H1328 H 0.928 0.27061 0.19837 0.0
H1329 H 0.96792 0.28973 0.15765 0.0
H1330 H 0.92251 0.29718 0.25673 0.0
H1331 H 0.93918 0.29795 0.30915 0.0
C1332 C 0.7053 0.73441 0.27654 0.0
C1333 C 0.72942 0.71302 0.28937 0.0
C1334 C 0.74673 0.70557 0.21515 0.0
C1335 C 0.72298 0.72776 0.20219 0.0
N1336 N 0.66462 0.74501 0.21957 0.0
N1337 N 0.76285 0.66785 0.27147 0.0
C1338 C 0.69791 0.73695 0.23268 0.0
C1339 C 0.74723 0.69563 0.25881 0.0
N1340 N 0.69024 0.75315 0.30605 0.0
N1341 N 0.76921 0.69424 0.18631 0.0
H1342 H 0.76137 0.65823 0.30294 0.0
H1343 H 0.77236 0.65032 0.2508 0.0
H1344 H 0.76385 0.6932 0.15388 0.0
H1345 H 0.79368 0.686 0.19463 0.0
H1346 H 0.67694 0.77366 0.29799 0.0
H1347 H 0.69417 0.75102 0.33867 0.0
H1348 H 0.64248 0.74787 0.24043 0.0
H1349 H 0.65545 0.74248 0.18772 0.0
C1350 C 0.30932 0.98415 0.28017 0.0
C1351 C 0.3278 0.02961 0.29276 0.0
C1352 C 0.32305 0.05106 0.22015 0.0
C1353 C 0.30646 1.00613 0.20671 0.0
N1354 N 0.30014 0.93414 0.22199 0.0
N1355 N 0.36972 0.10725 0.2716 0.0
C1356 C 0.30436 0.97371 0.23612 0.0
C1357 C 0.34035 0.06344 0.26171 0.0
N1358 N 0.29551 0.95096 0.30991 0.0
N1359 N 0.3195 0.08119 0.19461 0.0
H1360 H 0.38332 0.11714 0.30195 0.0
H1361 H 0.38372 0.13244 0.24861 0.0
H1362 H 0.30158 0.07173 0.16614 0.0
H1363 H 0.32923 0.11383 0.20434 0.0
H1364 H 0.27748 0.91685 0.30215 0.0
H1365 H 0.29941 0.95759 0.34244 0.0
H1366 H 0.30241 0.91122 0.24203 0.0
H1367 H 0.29902 0.92642 0.1898 0.0
loop_
_geom_bond_atom_site_label_1
_geom_bond_atom_site_label_2
_geom_bond_distance
_geom_bond_site_symmetry_2
_ccdc_geom_bond_type
Fe0 O2 1.918 . S
Fe0 O5 1.997 . S
Fe0 O6 2.002 . S
Fe0 O11 1.976 . S
Fe0 O14 1.996 . S
Fe1 O2 1.918 . S
Fe1 O9 1.997 . S
Fe1 O12 1.996 . S
Fe1 O16 1.976 1_455 S
Fe1 O19 2.002 1_455 S
O2 Fe0 1.918 . S
O2 Fe1 1.918 . S
O2 Fe3 1.918 1_455 S
Fe3 O2 1.918 1_655 S
Fe3 O4 2.002 . S
Fe3 O13 1.976 . S
Fe3 O17 1.996 . S
Fe3 O20 1.997 . S
O4 Fe3 2.002 . S
O4 C21 1.295 . S
O5 Fe0 1.997 . S
O5 C21 1.235 1_455 S
O6 Fe0 2.002 . S
O6 C7 1.295 . S
C7 O6 1.295 . S
C7 O9 1.235 . S
C8 O13 1.287 1_455 S
C8 O14 1.255 . S
O9 Fe1 1.997 . S
O9 C7 1.235 . S
C10 O16 1.287 . S
C10 O17 1.255 . S
O11 Fe0 1.976 . S
O11 C18 1.287 . S
O12 Fe1 1.996 . S
O12 C18 1.255 . S
O13 Fe3 1.976 . S
O13 C8 1.287 1_655 S
O14 Fe0 1.996 . S
O14 C8 1.255 . S
C15 O19 1.295 . S
C15 O20 1.235 . S
O16 Fe1 1.976 1_655 S
O16 C10 1.287 . S
O17 Fe3 1.996 . S
O17 C10 1.255 . S
C18 O11 1.287 . S
C18 O12 1.255 . S
O19 Fe1 2.002 1_655 S
O19 C15 1.295 . S
O20 Fe3 1.997 . S
O20 C15 1.235 . S
C21 O4 1.295 . S
C21 O5 1.235 1_655 S
Fe22 O24 1.918 . S
Fe22 O27 1.997 . S
Fe22 O28 2.002 . S
Fe22 O33 1.976 . S
Fe22 O36 1.996 . S
Fe23 O24 1.918 . S
Fe23 O31 1.997 . S
Fe23 O34 1.996 . S
Fe23 O38 1.976 . S
Fe23 O41 2.002 . S
O24 Fe22 1.918 . S
O24 Fe23 1.918 . S
O24 Fe25 1.918 . S
Fe25 O24 1.918 . S
Fe25 O26 2.002 . S
Fe25 O35 1.976 . S
Fe25 O39 1.996 . S
Fe25 O42 1.997 . S
O26 Fe25 2.002 . S
O26 C43 1.295 . S
O27 Fe22 1.997 . S
O27 C43 1.235 . S
O28 Fe22 2.002 . S
O28 C29 1.295 . S
C29 O28 1.295 . S
C29 O31 1.235 . S
C30 O35 1.287 . S
C30 O36 1.255 . S
O31 Fe23 1.997 . S
O31 C29 1.235 . S
C32 O38 1.287 . S
C32 O39 1.255 . S
O33 Fe22 1.976 . S
O33 C40 1.287 . S
O34 Fe23 1.996 . S
O34 C40 1.255 . S
O35 Fe25 1.976 . S
O35 C30 1.287 . S
O36 Fe22 1.996 . S
O36 C30 1.255 . S
C37 O41 1.295 . S
C37 O42 1.235 . S
O38 Fe23 1.976 . S
O38 C32 1.287 . S
O39 Fe25 1.996 . S
O39 C32 1.255 . S
C40 O33 1.287 . S
C40 O34 1.255 . S
O41 Fe23 2.002 . S
O41 C37 1.295 . S
O42 Fe25 1.997 . S
O42 C37 1.235 . S
C43 O26 1.295 . S
C43 O27 1.235 . S
Fe44 O46 1.918 . S
Fe44 O49 1.997 . S
Fe44 O50 2.002 . S
Fe44 O55 1.976 . S
Fe44 O58 1.996 . S
Fe45 O46 1.918 1_565 S
Fe45 O53 1.997 . S
Fe45 O56 1.996 . S
Fe45 O60 1.976 . S
Fe45 O63 2.002 . S
O46 Fe44 1.918 . S
O46 Fe45 1.918 1_545 S
O46 Fe47 1.918 . S
Fe47 O46 1.918 . S
Fe47 O48 2.002 . S
Fe47 O57 1.976 . S
Fe47 O61 1.996 1_545 S
Fe47 O64 1.997 1_545 S
O48 Fe47 2.002 . S
O48 C65 1.295 . S
O49 Fe44 1.997 . S
O49 C65 1.235 . S
O50 Fe44 2.002 . S
O50 C51 1.295 . S
C51 O50 1.295 . S
C51 O53 1.235 1_545 S
C52 O57 1.287 . S
C52 O58 1.255 . S
O53 Fe45 1.997 . S
O53 C51 1.235 1_565 S
C54 O60 1.287 . S
C54 O61 1.255 . S
O55 Fe44 1.976 . S
O55 C62 1.287 1_545 S
O56 Fe45 1.996 . S
O56 C62 1.255 . S
O57 Fe47 1.976 . S
O57 C52 1.287 . S
O58 Fe44 1.996 . S
O58 C52 1.255 . S
C59 O63 1.295 . S
C59 O64 1.235 . S
O60 Fe45 1.976 . S
O60 C54 1.287 . S
O61 Fe47 1.996 1_565 S
O61 C54 1.255 . S
C62 O55 1.287 1_565 S
C62 O56 1.255 . S
O63 Fe45 2.002 . S
O63 C59 1.295 . S
O64 Fe47 1.997 1_565 S
O64 C59 1.235 . S
C65 O48 1.295 . S
C65 O49 1.235 . S
Fe66 O68 1.918 . S
Fe66 O71 1.997 . S
Fe66 O72 2.002 . S
Fe66 O77 1.976 . S
Fe66 O80 1.996 . S
Fe67 O68 1.918 1_655 S
Fe67 O75 1.997 . S
Fe67 O78 1.996 . S
Fe67 O82 1.976 . S
Fe67 O85 2.002 . S
O68 Fe66 1.918 . S
O68 Fe67 1.918 1_455 S
O68 Fe69 1.918 . S
Fe69 O68 1.918 . S
Fe69 O70 2.002 . S
Fe69 O79 1.976 . S
Fe69 O83 1.996 1_455 S
Fe69 O86 1.997 1_455 S
O70 Fe69 2.002 . S
O70 C87 1.295 . S
O71 Fe66 1.997 . S
O71 C87 1.235 . S
O72 Fe66 2.002 . S
O72 C73 1.295 . S
C73 O72 1.295 . S
C73 O75 1.235 1_455 S
C74 O79 1.287 . S
C74 O80 1.255 . S
O75 Fe67 1.997 . S
O75 C73 1.235 1_655 S
C76 O82 1.287 . S
C76 O83 1.255 . S
O77 Fe66 1.976 . S
O77 C84 1.287 1_455 S
O78 Fe67 1.996 . S
O78 C84 1.255 . S
O79 Fe69 1.976 . S
O79 C74 1.287 . S
O80 Fe66 1.996 . S
O80 C74 1.255 . S
C81 O85 1.295 . S
C81 O86 1.235 . S
O82 Fe67 1.976 . S
O82 C76 1.287 . S
O83 Fe69 1.996 1_655 S
O83 C76 1.255 . S
C84 O77 1.287 1_655 S
C84 O78 1.255 . S
O85 Fe67 2.002 . S
O85 C81 1.295 . S
O86 Fe69 1.997 1_655 S
O86 C81 1.235 . S
C87 O70 1.295 . S
C87 O71 1.235 . S
Fe88 O90 1.918 . S
Fe88 O93 1.997 . S
Fe88 O94 2.002 . S
Fe88 O99 1.976 . S
Fe88 O102 1.996 . S
Fe89 O90 1.918 . S
Fe89 O97 1.997 . S
Fe89 O100 1.996 . S
Fe89 O104 1.976 . S
Fe89 O107 2.002 . S
O90 Fe88 1.918 . S
O90 Fe89 1.918 . S
O90 Fe91 1.918 . S
Fe91 O90 1.918 . S
Fe91 O92 2.002 . S
Fe91 O101 1.976 . S
Fe91 O105 1.996 . S
Fe91 O108 1.997 . S
O92 Fe91 2.002 . S
O92 C109 1.295 . S
O93 Fe88 1.997 . S
O93 C109 1.235 . S
O94 Fe88 2.002 . S
O94 C95 1.295 . S
C95 O94 1.295 . S
C95 O97 1.235 . S
C96 O101 1.287 . S
C96 O102 1.255 . S
O97 Fe89 1.997 . S
O97 C95 1.235 . S
C98 O104 1.287 . S
C98 O105 1.255 . S
O99 Fe88 1.976 . S
O99 C106 1.287 . S
O100 Fe89 1.996 . S
O100 C106 1.255 . S
O101 Fe91 1.976 . S
O101 C96 1.287 . S
O102 Fe88 1.996 . S
O102 C96 1.255 . S
C103 O107 1.295 . S
C103 O108 1.235 . S
O104 Fe89 1.976 . S
O104 C98 1.287 . S
O105 Fe91 1.996 . S
O105 C98 1.255 . S
C106 O99 1.287 . S
C106 O100 1.255 . S
O107 Fe89 2.002 . S
O107 C103 1.295 . S
O108 Fe91 1.997 . S
O108 C103 1.235 . S
C109 O92 1.295 . S
C109 O93 1.235 . S
Fe110 O112 1.918 . S
Fe110 O115 1.997 . S
Fe110 O116 2.002 . S
Fe110 O121 1.976 . S
Fe110 O124 1.996 . S
Fe111 O112 1.918 . S
Fe111 O119 1.997 . S
Fe111 O122 1.996 . S
Fe111 O126 1.976 1_545 S
Fe111 O129 2.002 1_545 S
O112 Fe110 1.918 . S
O112 Fe111 1.918 . S
O112 Fe113 1.918 1_545 S
Fe113 O112 1.918 1_565 S
Fe113 O114 2.002 . S
Fe113 O123 1.976 . S
Fe113 O127 1.996 . S
Fe113 O130 1.997 . S
O114 Fe113 2.002 . S
O114 C131 1.295 . S
O115 Fe110 1.997 . S
O115 C131 1.235 1_545 S
O116 Fe110 2.002 . S
O116 C117 1.295 . S
C117 O116 1.295 . S
C117 O119 1.235 . S
C118 O123 1.287 1_545 S
C118 O124 1.255 . S
O119 Fe111 1.997 . S
O119 C117 1.235 . S
C120 O126 1.287 . S
C120 O127 1.255 . S
O121 Fe110 1.976 . S
O121 C128 1.287 . S
O122 Fe111 1.996 . S
O122 C128 1.255 . S
O123 Fe113 1.976 . S
O123 C118 1.287 1_565 S
O124 Fe110 1.996 . S
O124 C118 1.255 . S
C125 O129 1.295 . S
C125 O130 1.235 . S
O126 Fe111 1.976 1_565 S
O126 C120 1.287 . S
O127 Fe113 1.996 . S
O127 C120 1.255 . S
C128 O121 1.287 . S
C128 O122 1.255 . S
O129 Fe111 2.002 1_565 S
O129 C125 1.295 . S
O130 Fe113 1.997 . S
O130 C125 1.235 . S
C131 O114 1.295 . S
C131 O115 1.235 1_565 S
Fe132 O134 1.918 . S
Fe132 O137 1.997 . S
Fe132 O138 2.002 . S
Fe132 O143 1.976 . S
Fe132 O146 1.996 . S
Fe133 O134 1.918 . S
Fe133 O141 1.997 1_565 S
Fe133 O144 1.996 1_565 S
Fe133 O148 1.976 . S
Fe133 O151 2.002 . S
O134 Fe132 1.918 . S
O134 Fe133 1.918 . S
O134 Fe135 1.918 . S
Fe135 O134 1.918 . S
Fe135 O136 2.002 . S
Fe135 O145 1.976 . S
Fe135 O149 1.996 . S
Fe135 O152 1.997 . S
O136 Fe135 2.002 . S
O136 C153 1.295 . S
O137 Fe132 1.997 . S
O137 C153 1.235 . S
O138 Fe132 2.002 . S
O138 C139 1.295 . S
C139 O138 1.295 . S
C139 O141 1.235 1_565 S
C140 O145 1.287 . S
C140 O146 1.255 . S
O141 Fe133 1.997 1_545 S
O141 C139 1.235 1_545 S
C142 O148 1.287 . S
C142 O149 1.255 . S
O143 Fe132 1.976 . S
O143 C150 1.287 1_565 S
O144 Fe133 1.996 1_545 S
O144 C150 1.255 . S
O145 Fe135 1.976 . S
O145 C140 1.287 . S
O146 Fe132 1.996 . S
O146 C140 1.255 . S
C147 O151 1.295 . S
C147 O152 1.235 . S
O148 Fe133 1.976 . S
O148 C142 1.287 . S
O149 Fe135 1.996 . S
O149 C142 1.255 . S
C150 O143 1.287 1_545 S
C150 O144 1.255 . S
O151 Fe133 2.002 . S
O151 C147 1.295 . S
O152 Fe135 1.997 . S
O152 C147 1.235 . S
C153 O136 1.295 . S
C153 O137 1.235 . S
Fe154 O156 1.918 . S
Fe154 O159 1.997 . S
Fe154 O160 2.002 . S
Fe154 O165 1.976 . S
Fe154 O168 1.996 . S
Fe155 O156 1.918 . S
Fe155 O163 1.997 . S
Fe155 O166 1.996 . S
Fe155 O170 1.976 . S
Fe155 O173 2.002 . S
O156 Fe154 1.918 . S
O156 Fe155 1.918 . S
O156 Fe157 1.918 . S
Fe157 O156 1.918 . S
Fe157 O158 2.002 . S
Fe157 O167 1.976 . S
Fe157 O171 1.987 1_455 S
Fe157 O174 1.997 . S
O158 Fe157 2.002 . S
O158 C175 1.295 . S
O159 Fe154 1.997 . S
O159 C175 1.235 . S
O160 Fe154 2.002 . S
O160 C161 1.295 . S
C161 O160 1.295 . S
C161 O163 1.235 . S
C162 O167 1.287 . S
C162 O168 1.255 . S
O163 Fe155 1.997 . S
O163 C161 1.235 . S
C164 O170 1.287 . S
C164 O171 1.258 1_455 S
O165 Fe154 1.976 . S
O165 C172 1.287 . S
O166 Fe155 1.996 . S
O166 C172 1.255 . S
O167 Fe157 1.976 . S
O167 C162 1.287 . S
O168 Fe154 1.996 . S
O168 C162 1.255 . S
C169 O173 1.295 . S
C169 O174 1.235 . S
O170 Fe155 1.976 . S
O170 C164 1.287 . S
O171 Fe157 1.987 1_655 S
O171 C164 1.258 1_655 S
C172 O165 1.287 . S
C172 O166 1.255 . S
O173 Fe155 2.002 . S
O173 C169 1.295 . S
O174 Fe157 1.997 . S
O174 C169 1.235 . S
C175 O158 1.295 . S
C175 O159 1.235 . S
Fe176 O178 1.918 . S
Fe176 O181 1.997 . S
Fe176 O182 2.002 . S
Fe176 O187 1.976 . S
Fe176 O190 1.996 . S
Fe177 O178 1.918 . S
Fe177 O185 1.997 . S
Fe177 O188 1.996 . S
Fe177 O192 1.976 . S
Fe177 O195 2.002 . S
O178 Fe176 1.918 . S
O178 Fe177 1.918 . S
O178 Fe179 1.918 . S
Fe179 O178 1.918 . S
Fe179 O180 2.002 . S
Fe179 O189 1.976 . S
Fe179 O193 1.996 . S
Fe179 O196 1.997 . S
O180 Fe179 2.002 . S
O180 C197 1.295 . S
O181 Fe176 1.997 . S
O181 C197 1.235 . S
O182 Fe176 2.002 . S
O182 C183 1.295 . S
C183 O182 1.295 . S
C183 O185 1.235 . S
C184 O189 1.287 . S
C184 O190 1.255 . S
O185 Fe177 1.997 . S
O185 C183 1.235 . S
C186 O192 1.287 . S
C186 O193 1.255 . S
O187 Fe176 1.976 . S
O187 C194 1.287 . S
O188 Fe177 1.996 . S
O188 C194 1.255 . S
O189 Fe179 1.976 . S
O189 C184 1.287 . S
O190 Fe176 1.996 . S
O190 C184 1.255 . S
C191 O195 1.295 . S
C191 O196 1.235 . S
O192 Fe177 1.976 . S
O192 C186 1.287 . S
O193 Fe179 1.996 . S
O193 C186 1.255 . S
C194 O187 1.287 . S
C194 O188 1.255 . S
O195 Fe177 2.002 . S
O195 C191 1.295 . S
O196 Fe179 1.997 . S
O196 C191 1.235 . S
C197 O180 1.295 . S
C197 O181 1.235 . S
Fe198 O200 1.918 . S
Fe198 O203 1.997 . S
Fe198 O204 2.002 . S
Fe198 O209 1.976 . S
Fe198 O212 1.996 . S
Fe199 O200 1.918 . S
Fe199 O207 1.997 . S
Fe199 O210 1.996 . S
Fe199 O214 1.976 . S
Fe199 O217 2.002 . S
O200 Fe198 1.918 . S
O200 Fe199 1.918 . S
O200 Fe201 1.918 . S
Fe201 O200 1.918 . S
Fe201 O202 2.002 . S
Fe201 O211 1.976 . S
Fe201 O215 1.996 . S
Fe201 O218 1.997 . S
O202 Fe201 2.002 . S
O202 C219 1.295 . S
O203 Fe198 1.997 . S
O203 C219 1.235 . S
O204 Fe198 2.002 . S
O204 C205 1.295 . S
C205 O204 1.295 . S
C205 O207 1.235 . S
C206 O211 1.287 . S
C206 O212 1.255 . S
O207 Fe199 1.997 . S
O207 C205 1.235 . S
C208 O214 1.287 1_556 S
C208 O215 1.255 1_556 S
O209 Fe198 1.976 . S
O209 C216 1.287 . S
O210 Fe199 1.996 . S
O210 C216 1.255 . S
O211 Fe201 1.976 . S
O211 C206 1.287 . S
O212 Fe198 1.996 . S
O212 C206 1.255 . S
C213 O217 1.295 . S
C213 O218 1.235 . S
O214 Fe199 1.976 . S
O214 C208 1.287 1_554 S
O215 Fe201 1.996 . S
O215 C208 1.255 1_554 S
C216 O209 1.287 . S
C216 O210 1.255 . S
O217 Fe199 2.002 . S
O217 C213 1.295 . S
O218 Fe201 1.997 . S
O218 C213 1.235 . S
C219 O202 1.295 . S
C219 O203 1.235 . S
Fe220 O222 1.918 . S
Fe220 O225 1.997 . S
Fe220 O226 2.002 . S
Fe220 O231 1.976 . S
Fe220 O234 1.996 . S
Fe221 O222 1.918 . S
Fe221 O229 1.997 . S
Fe221 O232 1.996 . S
Fe221 O236 1.976 . S
Fe221 O239 2.002 . S
O222 Fe220 1.918 . S
O222 Fe221 1.918 . S
O222 Fe223 1.918 . S
Fe223 O222 1.918 . S
Fe223 O224 2.002 . S
Fe223 O233 1.976 . S
Fe223 O237 1.996 1_565 S
Fe223 O240 1.997 1_565 S
O224 Fe223 2.002 . S
O224 C241 1.295 . S
O225 Fe220 1.997 . S
O225 C241 1.235 . S
O226 Fe220 2.002 . S
O226 C227 1.295 . S
C227 O226 1.295 . S
C227 O229 1.235 . S
C228 O233 1.277 1_556 S
C228 O234 1.251 1_556 S
O229 Fe221 1.997 . S
O229 C227 1.235 . S
C230 O236 1.287 1_545 S
C230 O237 1.255 . S
O231 Fe220 1.976 . S
O231 C238 1.287 . S
O232 Fe221 1.996 . S
O232 C238 1.255 . S
O233 Fe223 1.976 . S
O233 C228 1.277 1_554 S
O234 Fe220 1.996 . S
O234 C228 1.251 1_554 S
C235 O239 1.295 . S
C235 O240 1.235 1_565 S
O236 Fe221 1.976 . S
O236 C230 1.287 1_565 S
O237 Fe223 1.996 1_545 S
O237 C230 1.255 . S
C238 O231 1.287 . S
C238 O232 1.255 . S
O239 Fe221 2.002 . S
O239 C235 1.295 . S
O240 Fe223 1.997 1_545 S
O240 C235 1.235 1_545 S
C241 O224 1.295 . S
C241 O225 1.235 . S
Fe242 O244 1.918 . S
Fe242 O247 1.997 . S
Fe242 O248 2.002 . S
Fe242 O253 1.976 . S
Fe242 O256 1.996 . S
Fe243 O244 1.918 . S
Fe243 O251 1.997 . S
Fe243 O254 1.996 . S
Fe243 O258 1.976 . S
Fe243 O261 2.002 . S
O244 Fe242 1.918 . S
O244 Fe243 1.918 . S
O244 Fe245 1.918 . S
Fe245 O244 1.918 . S
Fe245 O246 2.002 . S
Fe245 O255 1.976 . S
Fe245 O259 1.996 . S
Fe245 O262 1.997 . S
O246 Fe245 2.002 . S
O246 C263 1.295 . S
O247 Fe242 1.997 . S
O247 C263 1.235 . S
O248 Fe242 2.002 . S
O248 C249 1.295 . S
C249 O248 1.295 . S
C249 O251 1.235 . S
C250 O255 1.287 . S
C250 O256 1.258 . S
O251 Fe243 1.997 . S
O251 C249 1.235 . S
C252 O258 1.287 . S
C252 O259 1.255 . S
O253 Fe242 1.976 . S
O253 C260 1.287 1_554 S
O254 Fe243 1.996 . S
O254 C260 1.255 1_554 S
O255 Fe245 1.976 . S
O255 C250 1.287 . S
O256 Fe242 1.996 . S
O256 C250 1.258 . S
C257 O261 1.295 . S
C257 O262 1.235 . S
O258 Fe243 1.976 . S
O258 C252 1.287 . S
O259 Fe245 1.996 . S
O259 C252 1.255 . S
C260 O253 1.287 1_556 S
C260 O254 1.255 1_556 S
O261 Fe243 2.002 . S
O261 C257 1.295 . S
O262 Fe245 1.997 . S
O262 C257 1.235 . S
C263 O246 1.295 . S
C263 O247 1.235 . S
Fe264 O266 1.918 . S
Fe264 O269 1.997 . S
Fe264 O270 2.002 . S
Fe264 O275 1.976 . S
Fe264 O278 1.996 . S
Fe265 O266 1.918 . S
Fe265 O273 1.997 . S
Fe265 O276 1.996 . S
Fe265 O280 1.976 . S
Fe265 O283 2.002 . S
O266 Fe264 1.918 . S
O266 Fe265 1.918 . S
O266 Fe267 1.918 . S
Fe267 O266 1.918 . S
Fe267 O268 2.002 . S
Fe267 O277 1.976 . S
Fe267 O281 1.996 . S
Fe267 O284 1.997 . S
O268 Fe267 2.002 . S
O268 C285 1.295 . S
O269 Fe264 1.997 . S
O269 C285 1.235 . S
O270 Fe264 2.002 . S
O270 C271 1.295 . S
C271 O270 1.295 . S
C271 O273 1.235 . S
C272 O277 1.287 . S
C272 O278 1.255 . S
O273 Fe265 1.997 . S
O273 C271 1.235 . S
C274 O280 1.287 . S
C274 O281 1.255 . S
O275 Fe264 1.976 . S
O275 C282 1.287 . S
O276 Fe265 1.996 . S
O276 C282 1.255 . S
O277 Fe267 1.976 . S
O277 C272 1.287 . S
O278 Fe264 1.996 . S
O278 C272 1.255 . S
C279 O283 1.295 . S
C279 O284 1.235 . S
O280 Fe265 1.976 . S
O280 C274 1.287 . S
O281 Fe267 1.996 . S
O281 C274 1.255 . S
C282 O275 1.287 . S
C282 O276 1.255 . S
O283 Fe265 2.002 . S
O283 C279 1.295 . S
O284 Fe267 1.997 . S
O284 C279 1.235 . S
C285 O268 1.295 . S
C285 O269 1.235 . S
Fe286 O288 1.918 . S
Fe286 O291 1.997 . S
Fe286 O292 2.002 . S
Fe286 O297 1.976 . S
Fe286 O300 1.996 . S
Fe287 O288 1.918 . S
Fe287 O295 1.997 . S
Fe287 O298 1.996 . S
Fe287 O302 1.976 . S
Fe287 O305 2.002 . S
O288 Fe286 1.918 . S
O288 Fe287 1.918 . S
O288 Fe289 1.918 . S
Fe289 O288 1.918 . S
Fe289 O290 2.002 . S
Fe289 O299 1.976 . S
Fe289 O303 1.996 1_545 S
Fe289 O306 1.997 . S
O290 Fe289 2.002 . S
O290 C307 1.295 . S
O291 Fe286 1.997 . S
O291 C307 1.235 . S
O292 Fe286 2.002 . S
O292 C293 1.295 . S
C293 O292 1.295 . S
C293 O295 1.235 . S
C294 O299 1.287 1_554 S
C294 O300 1.255 1_554 S
O295 Fe287 1.997 . S
O295 C293 1.235 . S
C296 O302 1.287 . S
C296 O303 1.255 1_545 S
O297 Fe286 1.976 . S
O297 C304 1.287 . S
O298 Fe287 1.996 . S
O298 C304 1.255 . S
O299 Fe289 1.976 . S
O299 C294 1.287 1_556 S
O300 Fe286 1.996 . S
O300 C294 1.255 1_556 S
C301 O305 1.295 . S
C301 O306 1.235 . S
O302 Fe287 1.976 . S
O302 C296 1.287 . S
O303 Fe289 1.996 1_565 S
O303 C296 1.255 1_565 S
C304 O297 1.287 . S
C304 O298 1.255 . S
O305 Fe287 2.002 . S
O305 C301 1.295 . S
O306 Fe289 1.997 . S
O306 C301 1.235 . S
C307 O290 1.295 . S
C307 O291 1.235 . S
Fe308 O310 1.918 . S
Fe308 O313 1.997 . S
Fe308 O314 2.002 1_655 S
Fe308 O319 1.974 1_655 S
Fe308 O322 1.996 . S
Fe309 O310 1.918 . S
Fe309 O317 1.997 . S
Fe309 O320 1.996 . S
Fe309 O324 1.976 . S
Fe309 O327 2.002 . S
O310 Fe308 1.918 . S
O310 Fe309 1.918 . S
O310 Fe311 1.918 . S
Fe311 O310 1.918 . S
Fe311 O312 2.002 . S
Fe311 O321 1.976 . S
Fe311 O325 1.996 . S
Fe311 O328 1.997 . S
O312 Fe311 2.002 . S
O312 C329 1.295 . S
O313 Fe308 1.997 . S
O313 C329 1.235 . S
O314 Fe308 2.002 1_455 S
O314 C315 1.295 . S
C315 O314 1.295 . S
C315 O317 1.235 1_455 S
C316 O321 1.287 . S
C316 O322 1.255 . S
O317 Fe309 1.997 . S
O317 C315 1.235 1_655 S
C318 O324 1.287 . S
C318 O325 1.255 . S
O319 Fe308 1.974 1_455 S
O319 C326 1.270 1_455 S
O320 Fe309 1.996 . S
O320 C326 1.255 . S
O321 Fe311 1.976 . S
O321 C316 1.287 . S
O322 Fe308 1.996 . S
O322 C316 1.255 . S
C323 O327 1.295 . S
C323 O328 1.235 . S
O324 Fe309 1.976 . S
O324 C318 1.287 . S
O325 Fe311 1.996 . S
O325 C318 1.255 . S
C326 O319 1.270 1_655 S
C326 O320 1.255 . S
O327 Fe309 2.002 . S
O327 C323 1.295 . S
O328 Fe311 1.997 . S
O328 C323 1.235 . S
C329 O312 1.295 . S
C329 O313 1.235 . S
Fe330 O332 1.918 . S
Fe330 O335 1.997 . S
Fe330 O336 2.002 . S
Fe330 O341 1.976 . S
Fe330 O344 1.996 1_545 S
Fe331 O332 1.918 . S
Fe331 O339 1.997 . S
Fe331 O342 1.996 . S
Fe331 O346 1.976 . S
Fe331 O349 2.002 . S
O332 Fe330 1.918 . S
O332 Fe331 1.918 . S
O332 Fe333 1.918 . S
Fe333 O332 1.918 . S
Fe333 O334 2.002 . S
Fe333 O343 1.976 . S
Fe333 O347 1.996 . S
Fe333 O350 1.997 . S
O334 Fe333 2.002 . S
O334 C351 1.295 . S
O335 Fe330 1.997 . S
O335 C351 1.235 . S
O336 Fe330 2.002 . S
O336 C337 1.295 . S
C337 O336 1.295 . S
C337 O339 1.235 . S
C338 O343 1.287 . S
C338 O344 1.255 1_545 S
O339 Fe331 1.997 . S
O339 C337 1.235 . S
C340 O346 1.287 . S
C340 O347 1.255 . S
O341 Fe330 1.976 . S
O341 C348 1.287 . S
O342 Fe331 1.996 . S
O342 C348 1.255 . S
O343 Fe333 1.976 . S
O343 C338 1.287 . S
O344 Fe330 1.996 1_565 S
O344 C338 1.255 1_565 S
C345 O349 1.295 . S
C345 O350 1.235 . S
O346 Fe331 1.976 . S
O346 C340 1.287 . S
O347 Fe333 1.996 . S
O347 C340 1.255 . S
C348 O341 1.287 . S
C348 O342 1.255 . S
O349 Fe331 2.002 . S
O349 C345 1.295 . S
O350 Fe333 1.997 . S
O350 C345 1.235 . S
C351 O334 1.295 . S
C351 O335 1.235 . S
Fe352 O354 1.918 . S
Fe352 O357 1.997 . S
Fe352 O358 2.002 . S
Fe352 O363 1.976 . S
Fe352 O366 1.996 . S
Fe353 O354 1.918 . S
Fe353 O361 1.997 . S
Fe353 O364 1.996 . S
Fe353 O368 1.976 1_655 S
Fe353 O371 2.002 1_655 S
O354 Fe352 1.918 . S
O354 Fe353 1.918 . S
O354 Fe355 1.918 . S
Fe355 O354 1.918 . S
Fe355 O356 2.002 . S
Fe355 O365 1.976 . S
Fe355 O369 1.996 . S
Fe355 O372 1.997 . S
O356 Fe355 2.002 . S
O356 C373 1.295 . S
O357 Fe352 1.997 . S
O357 C373 1.235 . S
O358 Fe352 2.002 . S
O358 C359 1.295 . S
C359 O358 1.295 . S
C359 O361 1.235 . S
C360 O365 1.287 . S
C360 O366 1.255 . S
O361 Fe353 1.997 . S
O361 C359 1.235 . S
C362 O368 1.287 1_655 S
C362 O369 1.255 . S
O363 Fe352 1.976 . S
O363 C370 1.287 . S
O364 Fe353 1.996 . S
O364 C370 1.255 . S
O365 Fe355 1.976 . S
O365 C360 1.287 . S
O366 Fe352 1.996 . S
O366 C360 1.255 . S
C367 O371 1.295 . S
C367 O372 1.235 1_455 S
O368 Fe353 1.976 1_455 S
O368 C362 1.287 1_455 S
O369 Fe355 1.996 . S
O369 C362 1.255 . S
C370 O363 1.287 . S
C370 O364 1.255 . S
O371 Fe353 2.002 1_455 S
O371 C367 1.295 . S
O372 Fe355 1.997 . S
O372 C367 1.235 1_655 S
C373 O356 1.295 . S
C373 O357 1.235 . S
Fe374 O376 1.918 . S
Fe374 O379 1.997 . S
Fe374 O380 2.002 . S
Fe374 O385 1.976 . S
Fe374 O388 1.996 . S
Fe375 O376 1.918 . S
Fe375 O383 1.997 . S
Fe375 O386 1.996 . S
Fe375 O390 1.976 . S
Fe375 O393 2.002 . S
O376 Fe374 1.918 . S
O376 Fe375 1.918 . S
O376 Fe377 1.918 . S
Fe377 O376 1.918 . S
Fe377 O378 2.002 . S
Fe377 O387 1.976 . S
Fe377 O391 1.996 . S
Fe377 O394 1.997 . S
O378 Fe377 2.002 . S
O378 C395 1.295 . S
O379 Fe374 1.997 . S
O379 C395 1.235 . S
O380 Fe374 2.002 . S
O380 C381 1.295 . S
C381 O380 1.295 . S
C381 O383 1.235 . S
C382 O387 1.287 . S
C382 O388 1.255 . S
O383 Fe375 1.997 . S
O383 C381 1.235 . S
C384 O390 1.287 . S
C384 O391 1.255 . S
O385 Fe374 1.976 . S
O385 C392 1.287 . S
O386 Fe375 1.996 . S
O386 C392 1.255 . S
O387 Fe377 1.976 . S
O387 C382 1.287 . S
O388 Fe374 1.996 . S
O388 C382 1.255 . S
C389 O393 1.295 . S
C389 O394 1.235 . S
O390 Fe375 1.976 . S
O390 C384 1.287 . S
O391 Fe377 1.996 . S
O391 C384 1.255 . S
C392 O385 1.287 . S
C392 O386 1.255 . S
O393 Fe375 2.002 . S
O393 C389 1.295 . S
O394 Fe377 1.997 . S
O394 C389 1.235 . S
C395 O378 1.295 . S
C395 O379 1.235 . S
C396 C397 1.363 . S
C396 C402 1.379 . S
C396 N404 1.356 . S
C397 C396 1.363 . S
C397 C403 1.363 . S
C398 C399 1.363 . S
C398 C403 1.379 . S
C398 N405 1.356 1_455 S
C399 C398 1.363 . S
C399 C402 1.363 . S
N400 C402 1.356 . S
N400 H412 0.984 . S
N400 H413 0.985 . S
N401 C403 1.356 . S
N401 H406 0.984 . S
N401 H407 0.985 . S
C402 C396 1.379 . S
C402 C399 1.363 . S
C402 N400 1.356 . S
C403 C397 1.363 . S
C403 C398 1.379 . S
C403 N401 1.356 . S
N404 C396 1.356 . S
N404 H410 0.984 . S
N404 H411 0.984 . S
N405 C398 1.356 1_655 S
N405 H408 0.984 . S
N405 H409 0.985 . S
H406 N401 0.984 . S
H407 N401 0.985 . S
H408 N405 0.984 . S
H409 N405 0.985 . S
H410 N404 0.984 . S
H411 N404 0.984 . S
H412 N400 0.984 . S
H413 N400 0.985 . S
C414 C415 1.363 . S
C414 C420 1.379 . S
C414 N422 1.356 . S
C415 C414 1.363 . S
C415 C421 1.363 . S
C416 C417 1.363 . S
C416 C421 1.379 . S
C416 N423 1.356 . S
C417 C416 1.363 . S
C417 C420 1.363 . S
N418 C420 1.356 . S
N418 H430 0.984 . S
N418 H431 0.985 . S
N419 C421 1.356 . S
N419 H424 0.984 . S
N419 H425 0.985 . S
C420 C414 1.379 . S
C420 C417 1.363 . S
C420 N418 1.356 . S
C421 C415 1.363 . S
C421 C416 1.379 . S
C421 N419 1.356 . S
N422 C414 1.356 . S
N422 H428 0.984 . S
N422 H429 0.984 . S
N423 C416 1.356 . S
N423 H426 0.984 . S
N423 H427 0.985 . S
H424 N419 0.984 . S
H425 N419 0.985 . S
H426 N423 0.984 . S
H427 N423 0.985 . S
H428 N422 0.984 . S
H429 N422 0.984 . S
H430 N418 0.984 . S
H431 N418 0.985 . S
C432 C433 1.363 . S
C432 C438 1.379 . S
C432 N440 1.356 . S
C433 C432 1.363 . S
C433 C439 1.363 . S
C434 C435 1.363 . S
C434 C439 1.379 . S
C434 N441 1.356 . S
C435 C434 1.363 . S
C435 C438 1.363 . S
N436 C438 1.356 . S
N436 H448 0.984 . S
N436 H449 0.985 . S
N437 C439 1.356 1_545 S
N437 H442 0.984 . S
N437 H443 0.985 . S
C438 C432 1.379 . S
C438 C435 1.363 . S
C438 N436 1.356 . S
C439 C433 1.363 . S
C439 C434 1.379 . S
C439 N437 1.356 1_565 S
N440 C432 1.356 . S
N440 H446 0.984 . S
N440 H447 0.984 . S
N441 C434 1.356 . S
N441 H444 0.984 . S
N441 H445 0.985 1_565 S
H442 N437 0.984 . S
H443 N437 0.985 . S
H444 N441 0.984 . S
H445 N441 0.985 1_545 S
H446 N440 0.984 . S
H447 N440 0.984 . S
H448 N436 0.984 . S
H449 N436 0.985 . S
C450 C451 1.363 . S
C450 C456 1.379 . S
C450 N458 1.356 . S
C451 C450 1.363 . S
C451 C457 1.363 . S
C452 C453 1.363 . S
C452 C457 1.379 . S
C452 N459 1.356 . S
C453 C452 1.363 . S
C453 C456 1.363 . S
N454 C456 1.356 . S
N454 H466 0.984 . S
N454 H467 0.985 . S
N455 C457 1.356 . S
N455 H460 0.984 . S
N455 H461 0.985 . S
C456 C450 1.379 . S
C456 C453 1.363 . S
C456 N454 1.356 . S
C457 C451 1.363 . S
C457 C452 1.379 . S
C457 N455 1.356 . S
N458 C450 1.356 . S
N458 H464 0.984 . S
N458 H465 0.984 . S
N459 C452 1.356 . S
N459 H462 0.984 . S
N459 H463 0.985 . S
H460 N455 0.984 . S
H461 N455 0.985 . S
H462 N459 0.984 . S
H463 N459 0.985 . S
H464 N458 0.984 . S
H465 N458 0.984 . S
H466 N454 0.984 . S
H467 N454 0.985 . S
C468 C469 1.363 . S
C468 C474 1.379 . S
C468 N476 1.356 1_655 S
C469 C468 1.363 . S
C469 C475 1.363 . S
C470 C471 1.363 . S
C470 C475 1.379 . S
C470 N477 1.356 . S
C471 C470 1.363 . S
C471 C474 1.363 . S
N472 C474 1.356 . S
N472 H484 0.984 1_655 S
N472 H485 0.985 . S
N473 C475 1.356 . S
N473 H478 0.984 . S
N473 H479 0.985 . S
C474 C468 1.379 . S
C474 C471 1.363 . S
C474 N472 1.356 . S
C475 C469 1.363 . S
C475 C470 1.379 . S
C475 N473 1.356 . S
N476 C468 1.356 1_455 S
N476 H482 0.984 . S
N476 H483 0.984 . S
N477 C470 1.356 . S
N477 H480 0.984 . S
N477 H481 0.985 . S
H478 N473 0.984 . S
H479 N473 0.985 . S
H480 N477 0.984 . S
H481 N477 0.985 . S
H482 N476 0.984 . S
H483 N476 0.984 . S
H484 N472 0.984 1_455 S
H485 N472 0.985 . S
C486 C487 1.363 . S
C486 C492 1.379 . S
C486 N494 1.356 . S
C487 C486 1.363 . S
C487 C493 1.363 . S
C488 C489 1.363 . S
C488 C493 1.379 . S
C488 N495 1.356 . S
C489 C488 1.363 . S
C489 C492 1.363 . S
N490 C492 1.356 . S
N490 H502 0.984 . S
N490 H503 0.985 . S
N491 C493 1.356 . S
N491 H496 0.984 . S
N491 H497 0.985 . S
C492 C486 1.379 . S
C492 C489 1.363 . S
C492 N490 1.356 . S
C493 C487 1.363 . S
C493 C488 1.379 . S
C493 N491 1.356 . S
N494 C486 1.356 . S
N494 H500 0.984 . S
N494 H501 0.984 . S
N495 C488 1.356 . S
N495 H498 0.984 . S
N495 H499 0.985 . S
H496 N491 0.984 . S
H497 N491 0.985 . S
H498 N495 0.984 . S
H499 N495 0.985 . S
H500 N494 0.984 . S
H501 N494 0.984 . S
H502 N490 0.984 . S
H503 N490 0.985 . S
C504 C505 1.363 . S
C504 C510 1.379 . S
C504 N512 1.356 . S
C505 C504 1.363 . S
C505 C511 1.363 . S
C506 C507 1.363 . S
C506 C511 1.379 . S
C506 N513 1.356 . S
C507 C506 1.363 . S
C507 C510 1.363 . S
N508 C510 1.356 . S
N508 H520 0.984 . S
N508 H521 0.985 . S
N509 C511 1.356 . S
N509 H514 0.984 . S
N509 H515 0.985 . S
C510 C504 1.379 . S
C510 C507 1.363 . S
C510 N508 1.356 . S
C511 C505 1.363 . S
C511 C506 1.379 . S
C511 N509 1.356 . S
N512 C504 1.356 . S
N512 H518 0.984 . S
N512 H519 0.984 . S
N513 C506 1.356 . S
N513 H516 0.984 . S
N513 H517 0.985 . S
H514 N509 0.984 . S
H515 N509 0.985 . S
H516 N513 0.984 . S
H517 N513 0.985 . S
H518 N512 0.984 . S
H519 N512 0.984 . S
H520 N508 0.984 . S
H521 N508 0.985 . S
C522 C523 1.363 . S
C522 C528 1.379 . S
C522 N530 1.356 . S
C523 C522 1.363 . S
C523 C529 1.363 . S
C524 C525 1.363 . S
C524 C529 1.379 . S
C524 N531 1.356 . S
C525 C524 1.363 . S
C525 C528 1.363 . S
N526 C528 1.356 . S
N526 H538 0.984 . S
N526 H539 0.985 . S
N527 C529 1.356 . S
N527 H532 0.984 . S
N527 H533 0.985 . S
C528 C522 1.379 . S
C528 C525 1.363 . S
C528 N526 1.356 . S
C529 C523 1.363 . S
C529 C524 1.379 . S
C529 N527 1.356 . S
N530 C522 1.356 . S
N530 H536 0.984 . S
N530 H537 0.984 . S
N531 C524 1.356 . S
N531 H534 0.984 . S
N531 H535 0.985 . S
H532 N527 0.984 . S
H533 N527 0.985 . S
H534 N531 0.984 . S
H535 N531 0.985 . S
H536 N530 0.984 . S
H537 N530 0.984 . S
H538 N526 0.984 . S
H539 N526 0.985 . S
C540 C541 1.363 . S
C540 C546 1.379 . S
C540 N548 1.356 . S
C541 C540 1.363 . S
C541 C547 1.363 . S
C542 C543 1.363 . S
C542 C547 1.379 . S
C542 N549 1.356 . S
C543 C542 1.363 . S
C543 C546 1.363 . S
N544 C546 1.356 . S
N544 H556 0.984 . S
N544 H557 0.985 . S
N545 C547 1.356 . S
N545 H550 0.984 . S
N545 H551 0.985 . S
C546 C540 1.379 . S
C546 C543 1.363 . S
C546 N544 1.356 . S
C547 C541 1.363 . S
C547 C542 1.379 . S
C547 N545 1.356 . S
N548 C540 1.356 . S
N548 H554 0.984 . S
N548 H555 0.984 . S
N549 C542 1.356 . S
N549 H552 0.984 . S
N549 H553 0.985 . S
H550 N545 0.984 . S
H551 N545 0.985 . S
H552 N549 0.984 . S
H553 N549 0.985 . S
H554 N548 0.984 . S
H555 N548 0.984 . S
H556 N544 0.984 . S
H557 N544 0.985 . S
C558 C559 1.363 . S
C558 C564 1.379 . S
C558 N566 1.356 . S
C559 C558 1.363 . S
C559 C565 1.363 . S
C560 C561 1.363 . S
C560 C565 1.379 . S
C560 N567 1.356 1_565 S
C561 C560 1.363 . S
C561 C564 1.363 . S
N562 C564 1.356 . S
N562 H574 0.984 . S
N562 H575 0.985 . S
N563 C565 1.356 . S
N563 H568 0.984 . S
N563 H569 0.985 . S
C564 C558 1.379 . S
C564 C561 1.363 . S
C564 N562 1.356 . S
C565 C559 1.363 . S
C565 C560 1.379 . S
C565 N563 1.356 . S
N566 C558 1.356 . S
N566 H572 0.984 . S
N566 H573 0.984 . S
N567 C560 1.356 1_545 S
N567 H570 0.984 . S
N567 H571 0.985 . S
H568 N563 0.984 . S
H569 N563 0.985 . S
H570 N567 0.984 . S
H571 N567 0.985 . S
H572 N566 0.984 . S
H573 N566 0.984 . S
H574 N562 0.984 . S
H575 N562 0.985 . S
C576 C577 1.363 . S
C576 C582 1.379 . S
C576 N584 1.356 . S
C577 C576 1.363 . S
C577 C583 1.363 . S
C578 C579 1.363 . S
C578 C583 1.379 . S
C578 N585 1.356 . S
C579 C578 1.363 . S
C579 C582 1.363 . S
N580 C582 1.356 . S
N580 H592 0.984 . S
N580 H593 0.985 . S
N581 C583 1.356 . S
N581 H586 0.984 . S
N581 H587 0.985 . S
C582 C576 1.379 . S
C582 C579 1.363 . S
C582 N580 1.356 . S
C583 C577 1.363 . S
C583 C578 1.379 . S
C583 N581 1.356 . S
N584 C576 1.356 . S
N584 H590 0.984 . S
N584 H591 0.984 . S
N585 C578 1.356 . S
N585 H588 0.984 . S
N585 H589 0.985 . S
H586 N581 0.984 . S
H587 N581 0.985 . S
H588 N585 0.984 . S
H589 N585 0.985 . S
H590 N584 0.984 . S
H591 N584 0.984 . S
H592 N580 0.984 . S
H593 N580 0.985 . S
C594 C595 1.363 . S
C594 C600 1.379 . S
C594 N602 1.356 . S
C595 C594 1.363 . S
C595 C601 1.363 . S
C596 C597 1.363 . S
C596 C601 1.379 . S
C596 N603 1.356 . S
C597 C596 1.363 . S
C597 C600 1.363 . S
N598 C600 1.356 . S
N598 H610 0.984 . S
N598 H611 0.985 . S
N599 C601 1.356 . S
N599 H604 0.984 . S
N599 H605 0.985 . S
C600 C594 1.379 . S
C600 C597 1.363 . S
C600 N598 1.356 . S
C601 C595 1.363 . S
C601 C596 1.379 . S
C601 N599 1.356 . S
N602 C594 1.356 . S
N602 H608 0.984 . S
N602 H609 0.984 . S
N603 C596 1.356 . S
N603 H606 0.984 . S
N603 H607 0.985 . S
H604 N599 0.984 . S
H605 N599 0.985 . S
H606 N603 0.984 . S
H607 N603 0.985 . S
H608 N602 0.984 . S
H609 N602 0.984 . S
H610 N598 0.984 . S
H611 N598 0.985 . S
C612 C613 1.363 . S
C612 C618 1.379 . S
C612 N620 1.356 . S
C613 C612 1.363 . S
C613 C619 1.363 . S
C614 C615 1.363 . S
C614 C619 1.379 . S
C614 N621 1.356 . S
C615 C614 1.363 . S
C615 C618 1.363 . S
N616 C618 1.356 . S
N616 H628 0.984 . S
N616 H629 0.985 . S
N617 C619 1.356 . S
N617 H622 0.984 . S
N617 H623 0.985 . S
C618 C612 1.379 . S
C618 C615 1.363 . S
C618 N616 1.356 . S
C619 C613 1.363 . S
C619 C614 1.379 . S
C619 N617 1.356 . S
N620 C612 1.356 . S
N620 H626 0.984 . S
N620 H627 0.984 . S
N621 C614 1.356 . S
N621 H624 0.984 . S
N621 H625 0.985 . S
H622 N617 0.984 . S
H623 N617 0.985 . S
H624 N621 0.984 . S
H625 N621 0.985 . S
H626 N620 0.984 . S
H627 N620 0.984 . S
H628 N616 0.984 . S
H629 N616 0.985 . S
C630 C631 1.363 . S
C630 C636 1.379 . S
C630 N638 1.356 . S
C631 C630 1.363 . S
C631 C637 1.363 . S
C632 C633 1.363 . S
C632 C637 1.379 . S
C632 N639 1.356 . S
C633 C632 1.363 . S
C633 C636 1.363 . S
N634 C636 1.356 . S
N634 H646 0.984 . S
N634 H647 0.985 . S
N635 C637 1.356 . S
N635 H640 0.984 . S
N635 H641 0.985 . S
C636 C630 1.379 . S
C636 C633 1.363 . S
C636 N634 1.356 . S
C637 C631 1.363 . S
C637 C632 1.379 . S
C637 N635 1.356 . S
N638 C630 1.356 . S
N638 H644 0.984 . S
N638 H645 0.984 1_565 S
N639 C632 1.356 . S
N639 H642 0.984 . S
N639 H643 0.985 . S
H640 N635 0.984 . S
H641 N635 0.985 . S
H642 N639 0.984 . S
H643 N639 0.985 . S
H644 N638 0.984 . S
H645 N638 0.984 1_545 S
H646 N634 0.984 . S
H647 N634 0.985 . S
C648 C649 1.363 . S
C648 C654 1.379 . S
C648 N656 1.356 . S
C649 C648 1.363 . S
C649 C655 1.363 . S
C650 C651 1.363 . S
C650 C655 1.379 . S
C650 N657 1.356 . S
C651 C650 1.363 . S
C651 C654 1.363 . S
N652 C654 1.356 . S
N652 H664 0.984 . S
N652 H665 0.985 . S
N653 C655 1.356 . S
N653 H658 0.984 . S
N653 H659 0.985 . S
C654 C648 1.379 . S
C654 C651 1.363 . S
C654 N652 1.356 . S
C655 C649 1.363 . S
C655 C650 1.379 . S
C655 N653 1.356 . S
N656 C648 1.356 . S
N656 H662 0.984 . S
N656 H663 0.984 1_455 S
N657 C650 1.356 . S
N657 H660 0.984 . S
N657 H661 0.985 . S
H658 N653 0.984 . S
H659 N653 0.985 . S
H660 N657 0.984 . S
H661 N657 0.985 . S
H662 N656 0.984 . S
H663 N656 0.984 1_655 S
H664 N652 0.984 . S
H665 N652 0.985 . S
C666 C667 1.363 . S
C666 C672 1.379 . S
C666 N674 1.356 . S
C667 C666 1.363 . S
C667 C673 1.363 . S
C668 C669 1.363 . S
C668 C673 1.379 . S
C668 N675 1.356 . S
C669 C668 1.363 . S
C669 C672 1.363 . S
N670 C672 1.356 . S
N670 H682 0.984 . S
N670 H683 0.985 . S
N671 C673 1.356 . S
N671 H676 0.984 . S
N671 H677 0.985 . S
C672 C666 1.379 . S
C672 C669 1.363 . S
C672 N670 1.356 . S
C673 C667 1.363 . S
C673 C668 1.379 . S
C673 N671 1.356 . S
N674 C666 1.356 . S
N674 H680 0.984 . S
N674 H681 0.984 . S
N675 C668 1.356 . S
N675 H678 0.984 . S
N675 H679 0.985 . S
H676 N671 0.984 . S
H677 N671 0.985 . S
H678 N675 0.984 . S
H679 N675 0.985 . S
H680 N674 0.984 . S
H681 N674 0.984 . S
H682 N670 0.984 . S
H683 N670 0.985 . S
C684 C685 1.363 . S
C684 C690 1.379 . S
C684 N692 1.356 . S
C685 C684 1.363 . S
C685 C691 1.363 . S
C686 C687 1.363 . S
C686 C691 1.379 . S
C686 N693 1.356 . S
C687 C686 1.363 . S
C687 C690 1.363 . S
N688 C690 1.356 . S
N688 H700 0.984 . S
N688 H701 0.985 . S
N689 C691 1.356 . S
N689 H694 0.984 . S
N689 H695 0.985 . S
C690 C684 1.379 . S
C690 C687 1.363 . S
C690 N688 1.356 . S
C691 C685 1.363 . S
C691 C686 1.379 . S
C691 N689 1.356 . S
N692 C684 1.356 . S
N692 H698 0.984 . S
N692 H699 0.984 . S
N693 C686 1.356 . S
N693 H696 0.984 . S
N693 H697 0.985 . S
H694 N689 0.984 . S
H695 N689 0.985 . S
H696 N693 0.984 . S
H697 N693 0.985 . S
H698 N692 0.984 . S
H699 N692 0.984 . S
H700 N688 0.984 . S
H701 N688 0.985 . S
C702 C703 1.363 . S
C702 C708 1.379 . S
C702 N710 1.356 . S
C703 C702 1.363 . S
C703 C709 1.363 . S
C704 C705 1.363 . S
C704 C709 1.379 . S
C704 N711 1.356 . S
C705 C704 1.363 . S
C705 C708 1.363 . S
N706 C708 1.356 . S
N706 H718 0.984 . S
N706 H719 0.985 . S
N707 C709 1.356 . S
N707 H712 0.984 . S
N707 H713 0.985 . S
C708 C702 1.379 . S
C708 C705 1.363 . S
C708 N706 1.356 . S
C709 C703 1.363 . S
C709 C704 1.379 . S
C709 N707 1.356 . S
N710 C702 1.356 . S
N710 H716 0.984 . S
N710 H717 0.984 . S
N711 C704 1.356 . S
N711 H714 0.984 . S
N711 H715 0.985 . S
H712 N707 0.984 . S
H713 N707 0.985 . S
H714 N711 0.984 . S
H715 N711 0.985 . S
H716 N710 0.984 . S
H717 N710 0.984 . S
H718 N706 0.984 . S
H719 N706 0.985 . S
C720 C721 1.363 . S
C720 C726 1.379 . S
C720 N728 1.356 . S
C721 C720 1.363 . S
C721 C727 1.363 . S
C722 C723 1.363 . S
C722 C727 1.379 . S
C722 N729 1.356 . S
C723 C722 1.363 . S
C723 C726 1.363 . S
N724 C726 1.356 . S
N724 H736 0.984 . S
N724 H737 0.985 . S
N725 C727 1.356 . S
N725 H730 0.984 . S
N725 H731 0.985 . S
C726 C720 1.379 . S
C726 C723 1.363 . S
C726 N724 1.356 . S
C727 C721 1.363 . S
C727 C722 1.379 . S
C727 N725 1.356 . S
N728 C720 1.356 . S
N728 H734 0.984 . S
N728 H735 0.984 . S
N729 C722 1.356 . S
N729 H732 0.984 . S
N729 H733 0.985 . S
H730 N725 0.984 . S
H731 N725 0.985 . S
H732 N729 0.984 . S
H733 N729 0.985 . S
H734 N728 0.984 . S
H735 N728 0.984 . S
H736 N724 0.984 . S
H737 N724 0.985 . S
C738 C739 1.363 . S
C738 C744 1.379 . S
C738 N746 1.356 . S
C739 C738 1.363 . S
C739 C745 1.363 . S
C740 C741 1.363 . S
C740 C745 1.379 . S
C740 N747 1.356 . S
C741 C740 1.363 . S
C741 C744 1.363 . S
N742 C744 1.356 . S
N742 H754 0.984 . S
N742 H755 0.985 . S
N743 C745 1.356 . S
N743 H748 0.984 . S
N743 H749 0.985 . S
C744 C738 1.379 . S
C744 C741 1.363 . S
C744 N742 1.356 . S
C745 C739 1.363 . S
C745 C740 1.379 . S
C745 N743 1.356 . S
N746 C738 1.356 . S
N746 H752 0.984 . S
N746 H753 0.984 . S
N747 C740 1.356 . S
N747 H750 0.984 . S
N747 H751 0.985 . S
H748 N743 0.984 . S
H749 N743 0.985 . S
H750 N747 0.984 . S
H751 N747 0.985 . S
H752 N746 0.984 . S
H753 N746 0.984 . S
H754 N742 0.984 . S
H755 N742 0.985 . S
C756 C757 1.363 . S
C756 C762 1.379 . S
C756 N764 1.356 . S
C757 C756 1.363 . S
C757 C763 1.363 . S
C758 C759 1.363 . S
C758 C763 1.379 . S
C758 N765 1.356 . S
C759 C758 1.363 . S
C759 C762 1.363 . S
N760 C762 1.356 . S
N760 H772 0.984 . S
N760 H773 0.985 . S
N761 C763 1.356 . S
N761 H766 0.984 . S
N761 H767 0.985 . S
C762 C756 1.379 . S
C762 C759 1.363 . S
C762 N760 1.356 . S
C763 C757 1.363 . S
C763 C758 1.379 . S
C763 N761 1.356 . S
N764 C756 1.356 . S
N764 H770 0.984 . S
N764 H771 0.984 . S
N765 C758 1.356 . S
N765 H768 0.984 . S
N765 H769 0.985 . S
H766 N761 0.984 . S
H767 N761 0.985 . S
H768 N765 0.984 . S
H769 N765 0.985 . S
H770 N764 0.984 . S
H771 N764 0.984 . S
H772 N760 0.984 . S
H773 N760 0.985 . S
C774 C775 1.363 . S
C774 C780 1.379 . S
C774 N782 1.356 . S
C775 C774 1.363 . S
C775 C781 1.363 1_554 S
C776 C777 1.363 . S
C776 C781 1.379 . S
C776 N783 1.356 . S
C777 C776 1.363 . S
C777 C780 1.363 1_556 S
N778 C780 1.356 . S
N778 H790 0.984 . S
N778 H791 0.985 1_554 S
N779 C781 1.356 . S
N779 H784 0.984 . S
N779 H785 0.985 . S
C780 C774 1.379 . S
C780 C777 1.363 1_554 S
C780 N778 1.356 . S
C781 C775 1.363 1_556 S
C781 C776 1.379 . S
C781 N779 1.356 . S
N782 C774 1.356 . S
N782 H788 0.984 . S
N782 H789 0.984 . S
N783 C776 1.356 . S
N783 H786 0.984 . S
N783 H787 0.985 . S
H784 N779 0.984 . S
H785 N779 0.985 . S
H786 N783 0.984 . S
H787 N783 0.985 . S
H788 N782 0.984 . S
H789 N782 0.984 . S
H790 N778 0.984 . S
H791 N778 0.985 1_556 S
C792 C793 1.363 1_556 S
C792 C798 1.379 . S
C792 N800 1.356 . S
C793 C792 1.363 1_554 S
C793 C799 1.363 . S
C794 C795 1.363 . S
C794 C799 1.379 1_556 S
C794 N801 1.356 . S
C795 C794 1.363 . S
C795 C798 1.363 . S
N796 C798 1.356 . S
N796 H808 0.984 . S
N796 H809 0.985 . S
N797 C799 1.356 . S
N797 H802 0.984 . S
N797 H803 0.985 . S
C798 C792 1.379 . S
C798 C795 1.363 . S
C798 N796 1.356 . S
C799 C793 1.363 . S
C799 C794 1.379 1_554 S
C799 N797 1.356 . S
N800 C792 1.356 . S
N800 H806 0.984 . S
N800 H807 0.984 . S
N801 C794 1.356 . S
N801 H804 0.984 1_565 S
N801 H805 0.972 1_566 S
H802 N797 0.984 . S
H803 N797 0.985 . S
H804 N801 0.984 1_545 S
H805 N801 0.972 1_544 S
H806 N800 0.984 . S
H807 N800 0.984 . S
H808 N796 0.984 . S
H809 N796 0.985 . S
C810 C811 1.363 . S
C810 C816 1.379 1_554 S
C810 N818 1.356 . S
C811 C810 1.363 . S
C811 C817 1.363 1_554 S
C812 C813 1.363 . S
C812 C817 1.379 . S
C812 N819 1.356 . S
C813 C812 1.363 . S
C813 C816 1.363 . S
N814 C816 1.356 . S
N814 H826 0.984 1_556 S
N814 H827 0.985 1_455 S
N815 C817 1.356 . S
N815 H820 0.984 . S
N815 H821 0.985 . S
C816 C810 1.379 1_556 S
C816 C813 1.363 . S
C816 N814 1.356 . S
C817 C811 1.363 1_556 S
C817 C812 1.379 . S
C817 N815 1.356 . S
N818 C810 1.356 . S
N818 H824 0.984 . S
N818 H825 0.984 . S
N819 C812 1.356 . S
N819 H822 0.984 . S
N819 H823 0.985 . S
H820 N815 0.984 . S
H821 N815 0.985 . S
H822 N819 0.984 . S
H823 N819 0.985 . S
H824 N818 0.984 . S
H825 N818 0.984 . S
H826 N814 0.984 1_554 S
H827 N814 0.985 1_655 S
C828 C829 1.363 . S
C828 C834 1.379 . S
C828 N836 1.356 . S
C829 C828 1.363 . S
C829 C835 1.363 . S
C830 C831 1.363 . S
C830 C835 1.379 . S
C830 N837 1.356 . S
C831 C830 1.363 . S
C831 C834 1.363 . S
N832 C834 1.356 . S
N832 H844 0.984 . S
N832 H845 0.985 . S
N833 C835 1.356 . S
N833 H838 0.984 . S
N833 H839 0.985 . S
C834 C828 1.379 . S
C834 C831 1.363 . S
C834 N832 1.356 . S
C835 C829 1.363 . S
C835 C830 1.379 . S
C835 N833 1.356 . S
N836 C828 1.356 . S
N836 H842 0.984 . S
N836 H843 0.984 . S
N837 C830 1.356 . S
N837 H840 0.984 . S
N837 H841 0.985 . S
H838 N833 0.984 . S
H839 N833 0.985 . S
H840 N837 0.984 . S
H841 N837 0.985 . S
H842 N836 0.984 . S
H843 N836 0.984 . S
H844 N832 0.984 . S
H845 N832 0.985 . S
C846 C847 1.363 . S
C846 C852 1.379 . S
C846 N854 1.356 . S
C847 C846 1.363 . S
C847 C853 1.363 . S
C848 C849 1.363 . S
C848 C853 1.379 . S
C848 N855 1.356 . S
C849 C848 1.363 . S
C849 C852 1.363 . S
N850 C852 1.356 . S
N850 H862 0.984 . S
N850 H863 0.985 . S
N851 C853 1.356 . S
N851 H856 0.984 . S
N851 H857 0.985 . S
C852 C846 1.379 . S
C852 C849 1.363 . S
C852 N850 1.356 . S
C853 C847 1.363 . S
C853 C848 1.379 . S
C853 N851 1.356 . S
N854 C846 1.356 . S
N854 H860 0.984 . S
N854 H861 0.984 . S
N855 C848 1.356 . S
N855 H858 0.984 . S
N855 H859 0.985 . S
H856 N851 0.984 . S
H857 N851 0.985 . S
H858 N855 0.984 . S
H859 N855 0.985 . S
H860 N854 0.984 . S
H861 N854 0.984 . S
H862 N850 0.984 . S
H863 N850 0.985 . S
C864 C865 1.363 . S
C864 C870 1.379 . S
C864 N872 1.356 . S
C865 C864 1.363 . S
C865 C871 1.363 . S
C866 C867 1.363 . S
C866 C871 1.379 . S
C866 N873 1.356 . S
C867 C866 1.363 . S
C867 C870 1.363 . S
N868 C870 1.356 . S
N868 H880 0.984 . S
N868 H881 0.985 . S
N869 C871 1.356 . S
N869 H874 0.984 . S
N869 H875 0.985 . S
C870 C864 1.379 . S
C870 C867 1.363 . S
C870 N868 1.356 . S
C871 C865 1.363 . S
C871 C866 1.379 . S
C871 N869 1.356 . S
N872 C864 1.356 . S
N872 H878 0.984 . S
N872 H879 0.984 . S
N873 C866 1.356 . S
N873 H876 0.984 . S
N873 H877 0.985 . S
H874 N869 0.984 . S
H875 N869 0.985 . S
H876 N873 0.984 . S
H877 N873 0.985 . S
H878 N872 0.984 . S
H879 N872 0.984 . S
H880 N868 0.984 . S
H881 N868 0.985 . S
C882 C883 1.363 . S
C882 C888 1.368 1_556 S
C882 N890 1.356 . S
C883 C882 1.363 . S
C883 C889 1.363 1_556 S
C884 C885 1.363 . S
C884 C889 1.379 . S
C884 N891 1.356 . S
C885 C884 1.363 . S
C885 C888 1.384 . S
N886 C888 1.353 1_556 S
N886 H898 0.984 . S
N886 H899 0.985 1_556 S
N887 C889 1.356 . S
N887 H892 0.984 . S
N887 H893 0.985 . S
C888 C882 1.368 1_554 S
C888 C885 1.384 . S
C888 N886 1.353 1_554 S
C889 C883 1.363 1_554 S
C889 C884 1.379 . S
C889 N887 1.356 . S
N890 C882 1.356 . S
N890 H896 0.984 . S
N890 H897 0.984 . S
N891 C884 1.356 . S
N891 H894 0.984 . S
N891 H895 0.985 . S
H892 N887 0.984 . S
H893 N887 0.985 . S
H894 N891 0.984 . S
H895 N891 0.985 . S
H896 N890 0.984 . S
H897 N890 0.984 . S
H898 N886 0.984 . S
H899 N886 0.985 1_554 S
C900 C901 1.363 1_554 S
C900 C906 1.379 . S
C900 N908 1.356 . S
C901 C900 1.363 1_556 S
C901 C907 1.363 . S
C902 C903 1.363 . S
C902 C907 1.379 1_554 S
C902 N909 1.356 1_554 S
C903 C902 1.363 . S
C903 C906 1.363 . S
N904 C906 1.356 . S
N904 H916 0.984 . S
N904 H917 0.985 . S
N905 C907 1.356 . S
N905 H910 0.984 . S
N905 H911 0.985 . S
C906 C900 1.379 . S
C906 C903 1.363 . S
C906 N904 1.356 . S
C907 C901 1.363 . S
C907 C902 1.379 1_556 S
C907 N905 1.356 . S
N908 C900 1.356 . S
N908 H914 0.984 . S
N908 H915 0.984 . S
N909 C902 1.356 1_556 S
N909 H912 0.984 1_556 S
N909 H913 0.985 . S
H910 N905 0.984 . S
H911 N905 0.985 . S
H912 N909 0.984 1_554 S
H913 N909 0.985 . S
H914 N908 0.984 . S
H915 N908 0.984 . S
H916 N904 0.984 . S
H917 N904 0.985 . S
C918 C919 1.363 1_554 S
C918 C924 1.379 . S
C918 N926 1.356 . S
C919 C918 1.363 1_556 S
C919 C925 1.363 . S
C920 C921 1.363 1_556 S
C920 C925 1.379 . S
C920 N927 1.356 1_655 S
C921 C920 1.363 1_554 S
C921 C924 1.363 . S
N922 C924 1.356 . S
N922 H934 0.984 . S
N922 H935 0.985 . S
N923 C925 1.356 . S
N923 H928 0.984 . S
N923 H929 0.985 . S
C924 C918 1.379 . S
C924 C921 1.363 . S
C924 N922 1.356 . S
C925 C919 1.363 . S
C925 C920 1.379 . S
C925 N923 1.356 . S
N926 C918 1.356 . S
N926 H932 0.984 . S
N926 H933 0.984 . S
N927 C920 1.356 1_455 S
N927 H930 0.984 1_556 S
N927 H931 0.985 . S
H928 N923 0.984 . S
H929 N923 0.985 . S
H930 N927 0.984 1_554 S
H931 N927 0.985 . S
H932 N926 0.984 . S
H933 N926 0.984 . S
H934 N922 0.984 . S
H935 N922 0.985 . S
C936 C937 1.363 . S
C936 C942 1.379 . S
C936 N944 1.356 . S
C937 C936 1.363 . S
C937 C943 1.363 . S
C938 C939 1.363 . S
C938 C943 1.379 . S
C938 N945 1.356 . S
C939 C938 1.363 . S
C939 C942 1.363 . S
N940 C942 1.356 . S
N940 H952 0.984 . S
N940 H953 0.985 . S
N941 C943 1.356 . S
N941 H946 0.984 . S
N941 H947 0.985 . S
C942 C936 1.379 . S
C942 C939 1.363 . S
C942 N940 1.356 . S
C943 C937 1.363 . S
C943 C938 1.379 . S
C943 N941 1.356 . S
N944 C936 1.356 . S
N944 H950 0.984 . S
N944 H951 0.984 . S
N945 C938 1.356 . S
N945 H948 0.984 . S
N945 H949 0.985 . S
H946 N941 0.984 . S
H947 N941 0.985 . S
H948 N945 0.984 . S
H949 N945 0.985 . S
H950 N944 0.984 . S
H951 N944 0.984 . S
H952 N940 0.984 . S
H953 N940 0.985 . S
C954 C955 1.363 . S
C954 C960 1.379 . S
C954 N962 1.356 . S
C955 C954 1.363 . S
C955 C961 1.363 . S
C956 C957 1.363 . S
C956 C961 1.379 . S
C956 N963 1.356 . S
C957 C956 1.363 . S
C957 C960 1.363 . S
N958 C960 1.356 . S
N958 H970 0.984 . S
N958 H971 0.985 . S
N959 C961 1.356 . S
N959 H964 0.984 . S
N959 H965 0.985 . S
C960 C954 1.379 . S
C960 C957 1.363 . S
C960 N958 1.356 . S
C961 C955 1.363 . S
C961 C956 1.379 . S
C961 N959 1.356 . S
N962 C954 1.356 . S
N962 H968 0.984 . S
N962 H969 0.984 . S
N963 C956 1.356 . S
N963 H966 0.992 . S
N963 H967 0.985 . S
H964 N959 0.984 . S
H965 N959 0.985 . S
H966 N963 0.992 . S
H967 N963 0.985 . S
H968 N962 0.984 . S
H969 N962 0.984 . S
H970 N958 0.984 . S
H971 N958 0.985 . S
C972 C973 1.363 . S
C972 C978 1.379 . S
C972 N980 1.356 . S
C973 C972 1.363 . S
C973 C979 1.363 . S
C974 C975 1.363 . S
C974 C979 1.379 . S
C974 N981 1.356 . S
C975 C974 1.363 . S
C975 C978 1.363 . S
N976 C978 1.356 . S
N976 H988 0.984 . S
N976 H989 0.985 . S
N977 C979 1.356 . S
N977 H982 0.990 . S
N977 H983 0.985 . S
C978 C972 1.379 . S
C978 C975 1.363 . S
C978 N976 1.356 . S
C979 C973 1.363 . S
C979 C974 1.379 . S
C979 N977 1.356 . S
N980 C972 1.356 . S
N980 H986 0.984 . S
N980 H987 0.984 1_655 S
N981 C974 1.356 . S
N981 H984 0.984 . S
N981 H985 0.985 . S
H982 N977 0.990 . S
H983 N977 0.985 . S
H984 N981 0.984 . S
H985 N981 0.985 . S
H986 N980 0.984 . S
H987 N980 0.984 1_455 S
H988 N976 0.984 . S
H989 N976 0.985 . S
C990 C991 1.363 . S
C990 C996 1.379 . S
C990 N998 1.356 . S
C991 C990 1.363 . S
C991 C997 1.363 . S
C992 C993 1.363 . S
C992 C997 1.379 . S
C992 N999 1.356 . S
C993 C992 1.363 . S
C993 C996 1.363 . S
N994 C996 1.356 . S
N994 H1006 0.984 . S
N994 H1007 0.985 . S
N995 C997 1.356 . S
N995 H1000 0.984 . S
N995 H1001 0.985 . S
C996 C990 1.379 . S
C996 C993 1.363 . S
C996 N994 1.356 . S
C997 C991 1.363 . S
C997 C992 1.379 . S
C997 N995 1.356 . S
N998 C990 1.356 . S
N998 H1004 0.984 . S
N998 H1005 0.984 . S
N999 C992 1.356 . S
N999 H1002 0.984 . S
N999 H1003 0.985 . S
H1000 N995 0.984 . S
H1001 N995 0.985 . S
H1002 N999 0.984 . S
H1003 N999 0.985 . S
H1004 N998 0.984 . S
H1005 N998 0.984 . S
H1006 N994 0.984 . S
H1007 N994 0.985 . S
C1008 C1009 1.363 . S
C1008 C1014 1.379 . S
C1008 N1016 1.356 . S
C1009 C1008 1.363 . S
C1009 C1015 1.363 . S
C1010 C1011 1.363 . S
C1010 C1015 1.379 . S
C1010 N1017 1.356 . S
C1011 C1010 1.363 . S
C1011 C1014 1.363 . S
N1012 C1014 1.356 . S
N1012 H1024 0.984 . S
N1012 H1025 0.985 . S
N1013 C1015 1.356 . S
N1013 H1018 0.984 . S
N1013 H1019 0.985 . S
C1014 C1008 1.379 . S
C1014 C1011 1.363 . S
C1014 N1012 1.356 . S
C1015 C1009 1.363 . S
C1015 C1010 1.379 . S
C1015 N1013 1.356 . S
N1016 C1008 1.356 . S
N1016 H1022 0.984 . S
N1016 H1023 0.984 . S
N1017 C1010 1.356 . S
N1017 H1020 0.984 . S
N1017 H1021 0.985 . S
H1018 N1013 0.984 . S
H1019 N1013 0.985 . S
H1020 N1017 0.984 . S
H1021 N1017 0.985 . S
H1022 N1016 0.984 . S
H1023 N1016 0.984 . S
H1024 N1012 0.984 . S
H1025 N1012 0.985 . S
C1026 C1027 1.363 . S
C1026 C1032 1.379 . S
C1026 N1034 1.356 . S
C1027 C1026 1.363 . S
C1027 C1033 1.363 . S
C1028 C1029 1.363 . S
C1028 C1033 1.379 . S
C1028 N1035 1.356 . S
C1029 C1028 1.363 . S
C1029 C1032 1.363 . S
N1030 C1032 1.356 . S
N1030 H1042 0.984 . S
N1030 H1043 0.985 . S
N1031 C1033 1.356 . S
N1031 H1036 0.984 . S
N1031 H1037 0.985 . S
C1032 C1026 1.379 . S
C1032 C1029 1.363 . S
C1032 N1030 1.356 . S
C1033 C1027 1.363 . S
C1033 C1028 1.379 . S
C1033 N1031 1.356 . S
N1034 C1026 1.356 . S
N1034 H1040 0.984 . S
N1034 H1041 0.984 . S
N1035 C1028 1.356 . S
N1035 H1038 0.984 . S
N1035 H1039 0.985 . S
H1036 N1031 0.984 . S
H1037 N1031 0.985 . S
H1038 N1035 0.984 . S
H1039 N1035 0.985 . S
H1040 N1034 0.984 . S
H1041 N1034 0.984 . S
H1042 N1030 0.984 . S
H1043 N1030 0.985 . S
C1044 C1045 1.363 . S
C1044 C1050 1.379 . S
C1044 N1052 1.356 . S
C1045 C1044 1.363 . S
C1045 C1051 1.363 . S
C1046 C1047 1.363 . S
C1046 C1051 1.379 . S
C1046 N1053 1.356 . S
C1047 C1046 1.363 . S
C1047 C1050 1.363 . S
N1048 C1050 1.356 . S
N1048 H1060 0.984 . S
N1048 H1061 0.985 . S
N1049 C1051 1.356 . S
N1049 H1054 0.984 . S
N1049 H1055 0.985 . S
C1050 C1044 1.379 . S
C1050 C1047 1.363 . S
C1050 N1048 1.356 . S
C1051 C1045 1.363 . S
C1051 C1046 1.379 . S
C1051 N1049 1.356 . S
N1052 C1044 1.356 . S
N1052 H1058 0.984 . S
N1052 H1059 0.984 . S
N1053 C1046 1.356 . S
N1053 H1056 0.984 . S
N1053 H1057 0.985 . S
H1054 N1049 0.984 . S
H1055 N1049 0.985 . S
H1056 N1053 0.984 . S
H1057 N1053 0.985 . S
H1058 N1052 0.984 . S
H1059 N1052 0.984 . S
H1060 N1048 0.984 . S
H1061 N1048 0.985 . S
C1062 C1063 1.363 . S
C1062 C1068 1.379 . S
C1062 N1070 1.356 . S
C1063 C1062 1.363 . S
C1063 C1069 1.363 . S
C1064 C1065 1.363 . S
C1064 C1069 1.379 . S
C1064 N1071 1.356 . S
C1065 C1064 1.363 . S
C1065 C1068 1.363 . S
N1066 C1068 1.356 . S
N1066 H1078 0.984 . S
N1066 H1079 0.985 . S
N1067 C1069 1.356 . S
N1067 H1072 0.984 . S
N1067 H1073 0.985 . S
C1068 C1062 1.379 . S
C1068 C1065 1.363 . S
C1068 N1066 1.356 . S
C1069 C1063 1.363 . S
C1069 C1064 1.379 . S
C1069 N1067 1.356 . S
N1070 C1062 1.356 . S
N1070 H1076 0.984 . S
N1070 H1077 0.984 . S
N1071 C1064 1.356 . S
N1071 H1074 0.984 . S
N1071 H1075 0.985 . S
H1072 N1067 0.984 . S
H1073 N1067 0.985 . S
H1074 N1071 0.984 . S
H1075 N1071 0.985 . S
H1076 N1070 0.984 . S
H1077 N1070 0.984 . S
H1078 N1066 0.984 . S
H1079 N1066 0.985 . S
C1080 C1081 1.363 . S
C1080 C1086 1.379 . S
C1080 N1088 1.356 1_565 S
C1081 C1080 1.363 . S
C1081 C1087 1.363 . S
C1082 C1083 1.363 . S
C1082 C1087 1.379 . S
C1082 N1089 1.356 . S
C1083 C1082 1.363 . S
C1083 C1086 1.363 . S
N1084 C1086 1.356 1_545 S
N1084 H1096 0.984 . S
N1084 H1097 0.985 . S
N1085 C1087 1.356 . S
N1085 H1090 0.984 . S
N1085 H1091 0.985 . S
C1086 C1080 1.379 . S
C1086 C1083 1.363 . S
C1086 N1084 1.356 1_565 S
C1087 C1081 1.363 . S
C1087 C1082 1.379 . S
C1087 N1085 1.356 . S
N1088 C1080 1.356 1_545 S
N1088 H1094 0.984 . S
N1088 H1095 0.984 . S
N1089 C1082 1.356 . S
N1089 H1092 0.984 . S
N1089 H1093 0.985 . S
H1090 N1085 0.984 . S
H1091 N1085 0.985 . S
H1092 N1089 0.984 . S
H1093 N1089 0.985 . S
H1094 N1088 0.984 . S
H1095 N1088 0.984 . S
H1096 N1084 0.984 . S
H1097 N1084 0.985 . S
C1098 C1099 1.363 . S
C1098 C1104 1.379 . S
C1098 N1106 1.356 . S
C1099 C1098 1.363 . S
C1099 C1105 1.363 . S
C1100 C1101 1.363 . S
C1100 C1105 1.379 . S
C1100 N1107 1.356 . S
C1101 C1100 1.363 . S
C1101 C1104 1.363 . S
N1102 C1104 1.356 . S
N1102 H1114 0.984 . S
N1102 H1115 0.985 . S
N1103 C1105 1.356 . S
N1103 H1108 0.984 1_554 S
N1103 H1109 0.985 . S
C1104 C1098 1.379 . S
C1104 C1101 1.363 . S
C1104 N1102 1.356 . S
C1105 C1099 1.363 . S
C1105 C1100 1.379 . S
C1105 N1103 1.356 . S
N1106 C1098 1.356 . S
N1106 H1112 0.984 . S
N1106 H1113 0.984 . S
N1107 C1100 1.356 . S
N1107 H1110 0.984 . S
N1107 H1111 0.985 1_545 S
H1108 N1103 0.984 1_556 S
H1109 N1103 0.985 . S
H1110 N1107 0.984 . S
H1111 N1107 0.985 1_565 S
H1112 N1106 0.984 . S
H1113 N1106 0.984 . S
H1114 N1102 0.984 . S
H1115 N1102 0.985 . S
C1116 C1117 1.363 . S
C1116 C1122 1.379 . S
C1116 N1124 1.356 . S
C1117 C1116 1.363 . S
C1117 C1123 1.363 . S
C1118 C1119 1.363 . S
C1118 C1123 1.379 . S
C1118 N1125 1.356 . S
C1119 C1118 1.363 . S
C1119 C1122 1.363 . S
N1120 C1122 1.356 . S
N1120 H1132 0.984 . S
N1120 H1133 0.985 1_554 S
N1121 C1123 1.356 . S
N1121 H1126 0.984 . S
N1121 H1127 0.985 . S
C1122 C1116 1.379 . S
C1122 C1119 1.363 . S
C1122 N1120 1.356 . S
C1123 C1117 1.363 . S
C1123 C1118 1.379 . S
C1123 N1121 1.356 . S
N1124 C1116 1.356 . S
N1124 H1130 0.984 . S
N1124 H1131 0.984 . S
N1125 C1118 1.356 . S
N1125 H1128 0.984 . S
N1125 H1129 0.985 . S
H1126 N1121 0.984 . S
H1127 N1121 0.985 . S
H1128 N1125 0.984 . S
H1129 N1125 0.985 . S
H1130 N1124 0.984 . S
H1131 N1124 0.984 . S
H1132 N1120 0.984 . S
H1133 N1120 0.985 1_556 S
C1134 C1135 1.363 . S
C1134 C1140 1.379 . S
C1134 N1142 1.356 . S
C1135 C1134 1.363 . S
C1135 C1141 1.363 . S
C1136 C1137 1.363 . S
C1136 C1141 1.379 . S
C1136 N1143 1.356 . S
C1137 C1136 1.363 . S
C1137 C1140 1.363 . S
N1138 C1140 1.356 . S
N1138 H1150 0.984 . S
N1138 H1151 0.985 . S
N1139 C1141 1.356 . S
N1139 H1144 0.984 . S
N1139 H1145 0.985 . S
C1140 C1134 1.379 . S
C1140 C1137 1.363 . S
C1140 N1138 1.356 . S
C1141 C1135 1.363 . S
C1141 C1136 1.379 . S
C1141 N1139 1.356 . S
N1142 C1134 1.356 . S
N1142 H1148 0.984 . S
N1142 H1149 0.984 . S
N1143 C1136 1.356 . S
N1143 H1146 0.984 1_554 S
N1143 H1147 0.985 . S
H1144 N1139 0.984 . S
H1145 N1139 0.985 . S
H1146 N1143 0.984 1_556 S
H1147 N1143 0.985 . S
H1148 N1142 0.984 . S
H1149 N1142 0.984 . S
H1150 N1138 0.984 . S
H1151 N1138 0.985 . S
C1152 C1153 1.363 . S
C1152 C1158 1.379 . S
C1152 N1160 1.356 . S
C1153 C1152 1.363 . S
C1153 C1159 1.363 . S
C1154 C1155 1.363 . S
C1154 C1159 1.379 . S
C1154 N1161 1.356 . S
C1155 C1154 1.363 . S
C1155 C1158 1.363 . S
N1156 C1158 1.356 . S
N1156 H1168 0.984 . S
N1156 H1169 0.985 . S
N1157 C1159 1.356 . S
N1157 H1162 0.984 . S
N1157 H1163 0.985 . S
C1158 C1152 1.379 . S
C1158 C1155 1.363 . S
C1158 N1156 1.356 . S
C1159 C1153 1.363 . S
C1159 C1154 1.379 . S
C1159 N1157 1.356 . S
N1160 C1152 1.356 . S
N1160 H1166 0.984 . S
N1160 H1167 0.984 . S
N1161 C1154 1.356 . S
N1161 H1164 0.984 . S
N1161 H1165 0.985 . S
H1162 N1157 0.984 . S
H1163 N1157 0.985 . S
H1164 N1161 0.984 . S
H1165 N1161 0.985 . S
H1166 N1160 0.984 . S
H1167 N1160 0.984 . S
H1168 N1156 0.984 . S
H1169 N1156 0.985 . S
C1170 C1171 1.363 . S
C1170 C1176 1.379 . S
C1170 N1178 1.356 . S
C1171 C1170 1.363 . S
C1171 C1177 1.363 . S
C1172 C1173 1.363 . S
C1172 C1177 1.379 . S
C1172 N1179 1.356 . S
C1173 C1172 1.363 . S
C1173 C1176 1.363 . S
N1174 C1176 1.356 . S
N1174 H1186 0.984 . S
N1174 H1187 0.985 . S
N1175 C1177 1.356 . S
N1175 H1180 0.984 . S
N1175 H1181 0.985 . S
C1176 C1170 1.379 . S
C1176 C1173 1.363 . S
C1176 N1174 1.356 . S
C1177 C1171 1.363 . S
C1177 C1172 1.379 . S
C1177 N1175 1.356 . S
N1178 C1170 1.356 . S
N1178 H1184 0.984 . S
N1178 H1185 0.984 . S
N1179 C1172 1.356 . S
N1179 H1182 0.984 . S
N1179 H1183 0.985 . S
H1180 N1175 0.984 . S
H1181 N1175 0.985 . S
H1182 N1179 0.984 . S
H1183 N1179 0.985 . S
H1184 N1178 0.984 . S
H1185 N1178 0.984 . S
H1186 N1174 0.984 . S
H1187 N1174 0.985 . S
C1188 C1189 1.363 . S
C1188 C1194 1.379 . S
C1188 N1196 1.356 . S
C1189 C1188 1.363 . S
C1189 C1195 1.363 . S
C1190 C1191 1.363 . S
C1190 C1195 1.379 . S
C1190 N1197 1.356 . S
C1191 C1190 1.363 . S
C1191 C1194 1.363 . S
N1192 C1194 1.356 . S
N1192 H1204 0.984 . S
N1192 H1205 0.985 . S
N1193 C1195 1.356 . S
N1193 H1198 0.984 . S
N1193 H1199 0.985 1_545 S
C1194 C1188 1.379 . S
C1194 C1191 1.363 . S
C1194 N1192 1.356 . S
C1195 C1189 1.363 . S
C1195 C1190 1.379 . S
C1195 N1193 1.356 . S
N1196 C1188 1.356 . S
N1196 H1202 0.984 . S
N1196 H1203 0.984 . S
N1197 C1190 1.356 . S
N1197 H1200 0.984 . S
N1197 H1201 0.985 1_545 S
H1198 N1193 0.984 . S
H1199 N1193 0.985 1_565 S
H1200 N1197 0.984 . S
H1201 N1197 0.985 1_565 S
H1202 N1196 0.984 . S
H1203 N1196 0.984 . S
H1204 N1192 0.984 . S
H1205 N1192 0.985 . S
C1206 C1207 1.363 . S
C1206 C1212 1.379 . S
C1206 N1214 1.356 . S
C1207 C1206 1.363 . S
C1207 C1213 1.363 . S
C1208 C1209 1.363 . S
C1208 C1213 1.379 . S
C1208 N1215 1.356 1_565 S
C1209 C1208 1.363 . S
C1209 C1212 1.363 . S
N1210 C1212 1.356 . S
N1210 H1222 0.984 . S
N1210 H1223 0.985 . S
N1211 C1213 1.356 1_545 S
N1211 H1216 0.984 . S
N1211 H1217 0.985 . S
C1212 C1206 1.379 . S
C1212 C1209 1.363 . S
C1212 N1210 1.356 . S
C1213 C1207 1.363 . S
C1213 C1208 1.379 . S
C1213 N1211 1.356 1_565 S
N1214 C1206 1.356 . S
N1214 H1220 0.984 . S
N1214 H1221 0.984 . S
N1215 C1208 1.356 1_545 S
N1215 H1218 0.983 1_546 S
N1215 H1219 0.985 . S
H1216 N1211 0.984 . S
H1217 N1211 0.985 . S
H1218 N1215 0.983 1_564 S
H1219 N1215 0.985 . S
H1220 N1214 0.984 . S
H1221 N1214 0.984 . S
H1222 N1210 0.984 . S
H1223 N1210 0.985 . S
C1224 C1225 1.363 . S
C1224 C1230 1.379 . S
C1224 N1232 1.356 . S
C1225 C1224 1.363 . S
C1225 C1231 1.363 . S
C1226 C1227 1.363 . S
C1226 C1231 1.379 . S
C1226 N1233 1.356 . S
C1227 C1226 1.363 . S
C1227 C1230 1.363 . S
N1228 C1230 1.356 . S
N1228 H1240 0.984 . S
N1228 H1241 0.985 . S
N1229 C1231 1.356 . S
N1229 H1234 0.984 . S
N1229 H1235 0.985 . S
C1230 C1224 1.379 . S
C1230 C1227 1.363 . S
C1230 N1228 1.356 . S
C1231 C1225 1.363 . S
C1231 C1226 1.379 . S
C1231 N1229 1.356 . S
N1232 C1224 1.356 . S
N1232 H1238 0.984 . S
N1232 H1239 0.984 1_556 S
N1233 C1226 1.356 . S
N1233 H1236 0.984 . S
N1233 H1237 0.985 . S
H1234 N1229 0.984 . S
H1235 N1229 0.985 . S
H1236 N1233 0.984 . S
H1237 N1233 0.985 . S
H1238 N1232 0.984 . S
H1239 N1232 0.984 1_554 S
H1240 N1228 0.984 . S
H1241 N1228 0.985 . S
C1242 C1243 1.363 . S
C1242 C1248 1.379 . S
C1242 N1250 1.356 . S
C1243 C1242 1.363 . S
C1243 C1249 1.363 . S
C1244 C1245 1.363 . S
C1244 C1249 1.379 . S
C1244 N1251 1.356 . S
C1245 C1244 1.363 . S
C1245 C1248 1.363 . S
N1246 C1248 1.356 . S
N1246 H1258 0.984 . S
N1246 H1259 0.985 1_556 S
N1247 C1249 1.356 . S
N1247 H1252 0.984 . S
N1247 H1253 0.985 . S
C1248 C1242 1.379 . S
C1248 C1245 1.363 . S
C1248 N1246 1.356 . S
C1249 C1243 1.363 . S
C1249 C1244 1.379 . S
C1249 N1247 1.356 . S
N1250 C1242 1.356 . S
N1250 H1256 0.984 . S
N1250 H1257 0.984 . S
N1251 C1244 1.356 . S
N1251 H1254 0.984 . S
N1251 H1255 0.985 . S
H1252 N1247 0.984 . S
H1253 N1247 0.985 . S
H1254 N1251 0.984 . S
H1255 N1251 0.985 . S
H1256 N1250 0.984 . S
H1257 N1250 0.984 . S
H1258 N1246 0.984 . S
H1259 N1246 0.985 1_554 S
C1260 C1261 1.363 1_565 S
C1260 C1266 1.379 . S
C1260 N1268 1.356 . S
C1261 C1260 1.363 1_545 S
C1261 C1267 1.363 . S
C1262 C1263 1.363 . S
C1262 C1267 1.379 . S
C1262 N1269 1.356 . S
C1263 C1262 1.363 . S
C1263 C1266 1.363 1_545 S
N1264 C1266 1.356 . S
N1264 H1276 0.984 . S
N1264 H1277 0.985 . S
N1265 C1267 1.356 . S
N1265 H1270 0.984 . S
N1265 H1271 0.985 . S
C1266 C1260 1.379 . S
C1266 C1263 1.363 1_565 S
C1266 N1264 1.356 . S
C1267 C1261 1.363 . S
C1267 C1262 1.379 . S
C1267 N1265 1.356 . S
N1268 C1260 1.356 . S
N1268 H1274 0.984 . S
N1268 H1275 0.984 . S
N1269 C1262 1.356 . S
N1269 H1272 0.984 . S
N1269 H1273 0.985 . S
H1270 N1265 0.984 . S
H1271 N1265 0.985 . S
H1272 N1269 0.984 . S
H1273 N1269 0.985 . S
H1274 N1268 0.984 . S
H1275 N1268 0.984 . S
H1276 N1264 0.984 . S
H1277 N1264 0.985 . S
C1278 C1279 1.363 . S
C1278 C1284 1.379 . S
C1278 N1286 1.356 . S
C1279 C1278 1.363 . S
C1279 C1285 1.363 1_455 S
C1280 C1281 1.363 1_655 S
C1280 C1285 1.379 . S
C1280 N1287 1.356 . S
C1281 C1280 1.363 1_455 S
C1281 C1284 1.363 . S
N1282 C1284 1.356 . S
N1282 H1294 0.984 . S
N1282 H1295 0.985 . S
N1283 C1285 1.356 . S
N1283 H1288 0.984 . S
N1283 H1289 0.985 . S
C1284 C1278 1.379 . S
C1284 C1281 1.363 . S
C1284 N1282 1.356 . S
C1285 C1279 1.363 1_655 S
C1285 C1280 1.379 . S
C1285 N1283 1.356 . S
N1286 C1278 1.356 . S
N1286 H1292 0.984 . S
N1286 H1293 0.984 . S
N1287 C1280 1.356 . S
N1287 H1290 0.984 . S
N1287 H1291 0.985 . S
H1288 N1283 0.984 . S
H1289 N1283 0.985 . S
H1290 N1287 0.984 . S
H1291 N1287 0.985 . S
H1292 N1286 0.984 . S
H1293 N1286 0.984 . S
H1294 N1282 0.984 . S
H1295 N1282 0.985 . S
C1296 C1297 1.363 . S
C1296 C1302 1.379 . S
C1296 N1304 1.356 . S
C1297 C1296 1.363 . S
C1297 C1303 1.363 . S
C1298 C1299 1.363 . S
C1298 C1303 1.379 . S
C1298 N1305 1.356 . S
C1299 C1298 1.363 . S
C1299 C1302 1.363 . S
N1300 C1302 1.356 . S
N1300 H1312 0.984 . S
N1300 H1313 0.985 . S
N1301 C1303 1.356 . S
N1301 H1306 0.984 . S
N1301 H1307 0.985 . S
C1302 C1296 1.379 . S
C1302 C1299 1.363 . S
C1302 N1300 1.356 . S
C1303 C1297 1.363 . S
C1303 C1298 1.379 . S
C1303 N1301 1.356 . S
N1304 C1296 1.356 . S
N1304 H1310 0.984 . S
N1304 H1311 0.984 . S
N1305 C1298 1.356 . S
N1305 H1308 0.984 . S
N1305 H1309 0.985 . S
H1306 N1301 0.984 . S
H1307 N1301 0.985 . S
H1308 N1305 0.984 . S
H1309 N1305 0.985 . S
H1310 N1304 0.984 . S
H1311 N1304 0.984 . S
H1312 N1300 0.984 . S
H1313 N1300 0.985 . S
C1314 C1315 1.363 1_655 S
C1314 C1320 1.379 . S
C1314 N1322 1.356 . S
C1315 C1314 1.363 1_455 S
C1315 C1321 1.363 . S
C1316 C1317 1.363 . S
C1316 C1321 1.379 . S
C1316 N1323 1.356 . S
C1317 C1316 1.363 . S
C1317 C1320 1.363 1_455 S
N1318 C1320 1.356 . S
N1318 H1330 0.984 . S
N1318 H1331 0.985 . S
N1319 C1321 1.356 . S
N1319 H1324 0.984 . S
N1319 H1325 0.985 . S
C1320 C1314 1.379 . S
C1320 C1317 1.363 1_655 S
C1320 N1318 1.356 . S
C1321 C1315 1.363 . S
C1321 C1316 1.379 . S
C1321 N1319 1.356 . S
N1322 C1314 1.356 . S
N1322 H1328 0.984 . S
N1322 H1329 0.984 . S
N1323 C1316 1.356 . S
N1323 H1326 0.984 . S
N1323 H1327 0.985 . S
H1324 N1319 0.984 . S
H1325 N1319 0.985 . S
H1326 N1323 0.984 . S
H1327 N1323 0.985 . S
H1328 N1322 0.984 . S
H1329 N1322 0.984 . S
H1330 N1318 0.984 . S
H1331 N1318 0.985 . S
C1332 C1333 1.363 . S
C1332 C1338 1.379 . S
C1332 N1340 1.356 . S
C1333 C1332 1.363 . S
C1333 C1339 1.363 . S
C1334 C1335 1.363 . S
C1334 C1339 1.379 . S
C1334 N1341 1.356 . S
C1335 C1334 1.363 . S
C1335 C1338 1.363 . S
N1336 C1338 1.356 . S
N1336 H1348 0.984 . S
N1336 H1349 0.985 . S
N1337 C1339 1.356 . S
N1337 H1342 0.984 . S
N1337 H1343 0.985 . S
C1338 C1332 1.379 . S
C1338 C1335 1.363 . S
C1338 N1336 1.356 . S
C1339 C1333 1.363 . S
C1339 C1334 1.379 . S
C1339 N1337 1.356 . S
N1340 C1332 1.356 . S
N1340 H1346 0.984 . S
N1340 H1347 0.984 . S
N1341 C1334 1.356 . S
N1341 H1344 0.984 . S
N1341 H1345 0.985 . S
H1342 N1337 0.984 . S
H1343 N1337 0.985 . S
H1344 N1341 0.984 . S
H1345 N1341 0.985 . S
H1346 N1340 0.984 . S
H1347 N1340 0.984 . S
H1348 N1336 0.984 . S
H1349 N1336 0.985 . S
C1350 C1351 1.363 1_565 S
C1350 C1356 1.379 . S
C1350 N1358 1.356 . S
C1351 C1350 1.363 1_545 S
C1351 C1357 1.363 . S
C1352 C1353 1.363 . S
C1352 C1357 1.379 . S
C1352 N1359 1.356 . S
C1353 C1352 1.363 . S
C1353 C1356 1.363 1_545 S
N1354 C1356 1.356 . S
N1354 H1366 0.984 . S
N1354 H1367 0.985 . S
N1355 C1357 1.356 . S
N1355 H1360 0.984 . S
N1355 H1361 0.985 . S
C1356 C1350 1.379 . S
C1356 C1353 1.363 1_565 S
C1356 N1354 1.356 . S
C1357 C1351 1.363 . S
C1357 C1352 1.379 . S
C1357 N1355 1.356 . S
N1358 C1350 1.356 . S
N1358 H1364 0.984 . S
N1358 H1365 0.984 . S
N1359 C1352 1.356 . S
N1359 H1362 0.984 . S
N1359 H1363 0.985 . S
H1360 N1355 0.984 . S
H1361 N1355 0.985 . S
H1362 N1359 0.984 . S
H1363 N1359 0.985 . S
H1364 N1358 0.984 . S
H1365 N1358 0.984 . S
H1366 N1354 0.984 . S
H1367 N1354 0.985 . S
C397 C249 1.383 . S
C399 C8 1.434 . S
C415 C29 1.433 . S
C417 C213 1.396 . S
C433 C62 1.395 . S
C435 C241 1.347 . S
C451 C337 1.380 . S
C453 C51 1.420 . S
C469 C21 1.413 . S
C471 C370 1.372 . S
C487 C40 1.403 . S
C489 C381 1.353 . S
C505 C316 1.334 . S
C507 C84 1.384 . S
C523 C103 1.403 . S
C525 C282 1.360 . S
C541 C118 1.393 . S
C543 C307 1.342 . S
C559 C147 1.376 . S
C561 C131 1.412 . S
C577 C73 1.450 . S
C579 C175 1.411 . S
C595 C191 1.362 . S
C597 C98 1.411 . S
C613 C382 1.360 . S
C615 C140 1.410 . S
C631 C338 1.329 1_565 S
C633 C172 1.380 . S
C649 C367 1.343 . S
C651 C184 1.391 . S
C667 C87 1.379 . S
C669 C197 1.417 . S
C685 C96 1.396 . S
C687 C153 1.437 . S
C703 C161 1.447 . S
C705 C125 1.412 . S
C721 C54 1.407 . S
C723 C219 1.446 . S
C739 C18 1.375 . S
C741 C227 1.416 . S
C757 C257 1.425 . S
C759 C43 1.389 . S
C775 C252 1.382 . S
C777 C279 1.333 . S
C793 C206 1.401 . S
C795 C296 1.350 1_565 S
C811 C238 1.413 . S
C813 C315 1.365 . S
C829 C272 1.407 . S
C831 C128 1.359 . S
C847 C293 1.425 . S
C849 C76 1.386 . S
C865 C318 1.416 . S
C867 C95 1.368 . S
C883 C323 1.395 . S
C885 C216 1.357 . S
C901 C285 1.435 . S
C903 C230 1.393 . S
C919 C304 1.394 . S
C921 C250 1.343 1_655 S
C937 C340 1.417 . S
C939 C194 1.364 . S
C955 C373 1.417 . S
C957 C150 1.377 . S
C973 C164 1.328 1_655 S
C975 C384 1.377 . S
C991 C15 1.406 . S
C993 C389 1.443 . S
C1009 C32 1.398 . S
C1011 C345 1.435 . S
C1027 C360 1.427 . S
C1029 C65 1.380 . S
C1045 C162 1.277 . S
C1047 C7 1.291 . S
C1063 C186 1.261 . S
C1065 C30 1.262 . S
C1081 C142 1.278 . S
C1083 C59 1.291 . S
C1099 C294 1.260 . S
C1101 C52 1.261 . S
C1117 C10 1.283 . S
C1119 C329 1.296 1_554 S
C1135 C37 1.319 . S
C1137 C271 1.319 1_554 S
C1153 C81 1.319 . S
C1155 C359 1.319 . S
C1171 C106 1.261 . S
C1173 C392 1.260 . S
C1189 C117 1.297 . S
C1191 C348 1.283 . S
C1207 C120 1.264 . S
C1209 C228 1.280 . S
C1225 C260 1.262 . S
C1227 C74 1.262 . S
C1243 C109 1.293 . S
C1245 C208 1.279 . S
C1261 C139 1.318 1_545 S
C1263 C301 1.318 . S
C1279 C169 1.303 . S
C1281 C326 1.291 1_455 S
C1297 C183 1.302 . S
C1299 C274 1.289 . S
C1315 C263 1.301 . S
C1317 C362 1.289 1_455 S
C1333 C395 1.318 . S
C1335 C205 1.317 . S
C1351 C351 1.317 . S
C1353 C235 1.317 1_545 S
