# Generated by pormake.
# Topology wli, (5)-cn, num edge types: 1
# Building blocks:
#     Node 0, Type 0, BuildingBlock: BEQFEK_clean_sbu_0, # of connection points: 5
#     Node 1, Type 0, BuildingBlock: BEQFEK_clean_sbu_0, # of connection points: 5
#     Node 2, Type 0, BuildingBlock: BEQFEK_clean_sbu_0, # of connection points: 5
#     Node 3, Type 0, BuildingBlock: BEQFEK_clean_sbu_0, # of connection points: 5
#     Node 4, Type 0, BuildingBlock: BEQFEK_clean_sbu_0, # of connection points: 5
#     Node 5, Type 0, BuildingBlock: BEQFEK_clean_sbu_0, # of connection points: 5
#     Edge 6, Type (0, 0), BuildingBlock: XIVTED_clean_linker_0, # of connection points: 2
#     Edge 7, Type (0, 0), BuildingBlock: XIVTED_clean_linker_0, # of connection points: 2
#     Edge 8, Type (0, 0), BuildingBlock: XIVTED_clean_linker_0, # of connection points: 2
#     Edge 9, Type (0, 0), BuildingBlock: XIVTED_clean_linker_0, # of connection points: 2
#     Edge 10, Type (0, 0), BuildingBlock: XIVTED_clean_linker_0, # of connection points: 2
#     Edge 11, Type (0, 0), BuildingBlock: XIVTED_clean_linker_0, # of connection points: 2
#     Edge 12, Type (0, 0), BuildingBlock: XIVTED_clean_linker_0, # of connection points: 2
#     Edge 13, Type (0, 0), BuildingBlock: XIVTED_clean_linker_0, # of connection points: 2
#     Edge 14, Type (0, 0), BuildingBlock: XIVTED_clean_linker_0, # of connection points: 2
#     Edge 15, Type (0, 0), BuildingBlock: XIVTED_clean_linker_0, # of connection points: 2
#     Edge 16, Type (0, 0), BuildingBlock: XIVTED_clean_linker_0, # of connection points: 2
#     Edge 17, Type (0, 0), BuildingBlock: XIVTED_clean_linker_0, # of connection points: 2
#     Edge 18, Type (0, 0), BuildingBlock: XIVTED_clean_linker_0, # of connection points: 2
#     Edge 19, Type (0, 0), BuildingBlock: XIVTED_clean_linker_0, # of connection points: 2
#     Edge 20, Type (0, 0), BuildingBlock: XIVTED_clean_linker_0, # of connection points: 2
# Relax obj value: 0.167
# Max RMSD: 0.120
# Mean RMSD: 0.120
data_MOF--net-wli--node1-BEQFEK_clean_sbu_0--edge1-XIVTED_clean_linker_0
_symmetry_space_group_name_H-M    P1
_symmetry_Int_Tables_number       1
_symmetry_cell_setting            triclinic
loop_
_symmetry_equiv_pos_as_xyz
'x, y, z'
_cell_length_a     36.907443
_cell_length_b     36.871476
_cell_length_c     28.462421
_cell_angle_alpha  90.012752
_cell_angle_beta   90.050187
_cell_angle_gamma 119.96895
loop_
_atom_site_label
_atom_site_type_symbol
_atom_site_fract_x
_atom_site_fract_y
_atom_site_fract_z
_atom_type_partial_charge
Co0 Co 0.19555 0.43427 0.98879 0.0
Co1 Co 0.13025 0.36827 0.05911 0.0
C2 C 0.19646 0.35562 0.01964 0.0
O3 O 0.20867 0.38823 0.99445 0.0
O4 O 0.16698 0.34436 0.0493 0.0
C5 C 0.28006 0.48829 0.96388 0.0
O6 O 0.2857 0.4653 0.99506 0.0
C7 C 0.08775 0.31587 0.14298 0.0
C8 C 0.02727 0.31449 0.13907 0.0
C9 C 0.04996 0.30178 0.16644 0.0
N10 N 0.08753 0.33675 0.10424 0.0
N11 N 0.05102 0.33517 0.10186 0.0
C12 C 0.12302 0.30882 0.15624 0.0
H13 H 0.13703 0.30371 0.12434 0.0
H14 H 0.14768 0.33694 0.17451 0.0
H15 H 0.11209 0.28126 0.17966 0.0
C16 C 0.20415 0.4916 0.06597 0.0
N17 N 0.18828 0.4528 0.04803 0.0
N18 N 0.16172 0.42537 0.07815 0.0
C19 C 0.16056 0.44589 0.11685 0.0
C20 C 0.18726 0.4886 0.11036 0.0
C21 C 0.23131 0.53075 0.03881 0.0
H22 H 0.22134 0.52638 0.0015 0.0
H23 H 0.26414 0.53747 0.04029 0.0
H24 H 0.22987 0.55796 0.05322 0.0
O25 O 0.14428 0.41397 0.95135 0.0
O26 O 0.10027 0.36314 -0.00102 0.0
H27 H 0.10143 0.41293 0.15155 0.0
H28 H 0.14436 0.44652 0.18995 0.0
C29 C 0.13494 0.42489 0.15951 0.0
H30 H 0.13895 0.39806 0.16918 0.0
H31 H 0.04276 0.3493 0.07542 0.0
O32 O 0.24314 0.48077 0.95523 0.0
C33 C 0.10822 0.38312 0.96032 0.0
Co34 Co 0.57364 0.76834 0.65602 0.0
Co35 Co 0.64157 0.76756 0.72234 0.0
C36 C 0.65155 0.84755 0.68665 0.0
O37 O 0.61701 0.8275 0.66473 0.0
O38 O 0.66591 0.8287 0.71125 0.0
C39 C 0.51674 0.79634 0.63626 0.0
O40 O 0.53811 0.82276 0.67002 0.0
C41 C 0.69483 0.77766 0.80546 0.0
C42 C 0.69759 0.71931 0.8003 0.0
C43 C 0.70944 0.75411 0.82847 0.0
N44 N 0.67438 0.75694 0.76635 0.0
N45 N 0.67687 0.72251 0.76316 0.0
C46 C 0.70073 0.8194 0.8196 0.0
H47 H 0.7043 0.83848 0.78807 0.0
H48 H 0.6728 0.81493 0.83911 0.0
H49 H 0.72878 0.83659 0.84223 0.0
C50 C 0.51824 0.717 0.73295 0.0
N51 N 0.55658 0.74073 0.71439 0.0
N52 N 0.58485 0.74171 0.7434 0.0
C53 C 0.56523 0.71905 0.78193 0.0
C54 C 0.52234 0.70254 0.77654 0.0
C55 C 0.47846 0.70487 0.707 0.0
H56 H 0.4824 0.7006 0.66916 0.0
H57 H 0.47085 0.73029 0.71058 0.0
H58 H 0.45201 0.67544 0.72091 0.0
O59 O 0.59588 0.74058 0.61544 0.0
O60 O 0.64395 0.74083 0.6627 0.0
H61 H 0.59986 0.69308 0.81332 0.0
H62 H 0.56595 0.69989 0.8538 0.0
C63 C 0.58715 0.71363 0.82327 0.0
H64 H 0.61347 0.74444 0.83386 0.0
H65 H 0.66315 0.70042 0.73635 0.0
O66 O 0.5261 0.76884 0.62416 0.0
C67 C 0.62464 0.73189 0.62353 0.0
Co68 Co 0.24499 0.81553 0.32043 0.0
Co69 Co 0.24592 0.88447 0.38661 0.0
C70 C 0.16618 0.81634 0.34838 0.0
O71 O 0.18622 0.80149 0.32712 0.0
O72 O 0.18491 0.84905 0.37385 0.0
C73 C 0.21572 0.73039 0.2996 0.0
O74 O 0.18848 0.7254 0.33226 0.0
C75 C 0.23584 0.92845 0.46908 0.0
C76 C 0.29528 0.98856 0.46502 0.0
C77 C 0.25983 0.9664 0.49235 0.0
N78 N 0.2569 0.92806 0.43061 0.0
N79 N 0.29201 0.9644 0.42809 0.0
C80 C 0.19338 0.8935 0.48232 0.0
H81 H 0.17474 0.87841 0.45037 0.0
H82 H 0.19654 0.86944 0.50237 0.0
H83 H 0.1765 0.9052 0.50422 0.0
C84 C 0.29331 0.80893 0.39924 0.0
N85 N 0.27101 0.82482 0.3797 0.0
N86 N 0.26998 0.85214 0.40863 0.0
C87 C 0.29114 0.85391 0.44808 0.0
C88 C 0.30671 0.82664 0.44341 0.0
C89 C 0.30511 0.78075 0.37386 0.0
H90 H 0.31054 0.78935 0.33616 0.0
H91 H 0.27906 0.74797 0.37664 0.0
H92 H 0.3338 0.78274 0.38884 0.0
O93 O 0.27456 0.86559 0.28059 0.0
O94 O 0.27423 0.91358 0.32756 0.0
H95 H 0.31745 0.91405 0.48072 0.0
H96 H 0.30799 0.87215 0.52082 0.0
C97 C 0.29585 0.88076 0.48967 0.0
H98 H 0.26508 0.87706 0.49879 0.0
H99 H 0.31446 0.97218 0.40188 0.0
O100 O 0.24403 0.76722 0.28865 0.0
C101 C 0.28373 0.90318 0.28876 0.0
Co102 Co 0.43278 0.20571 0.00266 0.0
Co103 Co 0.36784 0.1359 0.93513 0.0
C104 C 0.35361 0.20316 0.97384 0.0
O105 O 0.38741 0.21861 -0.00273 0.0
O106 O 0.34233 0.17171 0.94693 0.0
C107 C 0.48863 0.29017 0.02957 0.0
O108 O 0.46934 0.29814 0.99578 0.0
C109 C 0.32349 0.10009 0.84584 0.0
C110 C 0.30227 0.03301 0.856 0.0
C111 C 0.30289 0.06129 0.82346 0.0
N112 N 0.33506 0.09477 0.88898 0.0
N113 N 0.32181 0.05453 0.89499 0.0
C114 C 0.33094 0.14139 0.82774 0.0
H115 H 0.33364 0.16219 0.85725 0.0
H116 H 0.36074 0.15704 0.80791 0.0
H117 H 0.30516 0.13699 0.80402 0.0
C118 C 0.48978 0.21567 0.92416 0.0
N119 N 0.45119 0.19841 0.94292 0.0
N120 N 0.42461 0.16793 0.91542 0.0
C121 C 0.44578 0.16402 0.87895 0.0
C122 C 0.4877 0.19439 0.88305 0.0
C123 C 0.52773 0.25185 0.9455 0.0
H124 H 0.5221 0.27849 0.94952 0.0
H125 H 0.55596 0.2625 0.92342 0.0
H126 H 0.53335 0.24301 0.98088 0.0
O127 O 0.41246 0.15428 0.04063 0.0
O128 O 0.36548 0.10536 0.99336 0.0
H129 H 0.45226 0.1232 0.82909 0.0
H130 H 0.4113 0.13467 0.81646 0.0
C131 C 0.42764 0.12814 0.84502 0.0
H132 H 0.40493 0.09899 0.86317 0.0
H133 H 0.32695 0.04187 0.92534 0.0
O134 O 0.4786 0.25244 0.03805 0.0
C135 C 0.38507 0.11633 0.03233 0.0
Co136 Co 0.80923 0.23844 0.67126 0.0
Co137 Co 0.87633 0.23722 0.60446 0.0
C138 C 0.80457 0.15812 0.63935 0.0
O139 O 0.79119 0.17875 0.66212 0.0
O140 O 0.83754 0.17642 0.61442 0.0
C141 C 0.72588 0.21865 0.69087 0.0
O142 O 0.71817 0.19785 0.65117 0.0
C143 C 0.91541 0.22636 0.51853 0.0
C144 C 0.9802 0.2786 0.52682 0.0
C145 C 0.95411 0.24706 0.49618 0.0
N146 N 0.91849 0.24564 0.55975 0.0
N147 N 0.95749 0.27636 0.56475 0.0
C148 C 0.87638 0.18843 0.50184 0.0
H149 H 0.8586 0.16862 0.53204 0.0
H150 H 0.85612 0.1982 0.4835 0.0
H151 H 0.88391 0.16971 0.47734 0.0
C152 C 0.80638 0.29155 0.59535 0.0
N153 N 0.81984 0.26654 0.61321 0.0
N154 N 0.84783 0.26625 0.58475 0.0
C155 C 0.85297 0.29128 0.54769 0.0
C156 C 0.8266 0.30776 0.55309 0.0
C157 C 0.77877 0.30386 0.62105 0.0
H158 H 0.78575 0.30661 0.65919 0.0
H159 H 0.74564 0.27942 0.61561 0.0
H160 H 0.78302 0.33413 0.60811 0.0
O161 O 0.85991 0.26552 0.71083 0.0
O162 O 0.90604 0.26094 0.6646 0.0
H163 H 0.91563 0.31525 0.52328 0.0
H164 H 0.88188 0.32134 0.48179 0.0
C165 C 0.8835 0.30044 0.50869 0.0
H166 H 0.87658 0.27079 0.49142 0.0
H167 H 0.9683 0.29668 0.59345 0.0
O168 O 0.7633 0.23938 0.70572 0.0
C169 C 0.8964 0.27129 0.7033 0.0
Co170 Co 0.77882 0.58156 0.33526 0.0
Co171 Co 0.7735 0.64831 0.27125 0.0
C172 C 0.85565 0.65898 0.30339 0.0
O173 O 0.83719 0.62405 0.32457 0.0
O174 O 0.83521 0.6731 0.28142 0.0
C175 C 0.80958 0.54102 0.39443 0.0
O176 O 0.83954 0.57981 0.40122 0.0
C177 C 0.7805 0.69158 0.18212 0.0
C178 C 0.73747 0.71603 0.19398 0.0
C179 C 0.76301 0.71308 0.16027 0.0
N180 N 0.76521 0.68173 0.22604 0.0
N181 N 0.73993 0.69689 0.23308 0.0
C182 C 0.81213 0.68148 0.16275 0.0
H183 H 0.83056 0.67829 0.19154 0.0
H184 H 0.79593 0.65116 0.14381 0.0
H185 H 0.83349 0.70618 0.13798 0.0
C186 C 0.72885 0.52571 0.25804 0.0
N187 N 0.75076 0.5641 0.27712 0.0
N188 N 0.74648 0.59117 0.25099 0.0
C189 C 0.71984 0.57027 0.21545 0.0
C190 C 0.70808 0.52809 0.21846 0.0
C191 C 0.72855 0.48781 0.27742 0.0
H192 H 0.76059 0.49613 0.28853 0.0
H193 H 0.71734 0.46229 0.25103 0.0
H194 H 0.70797 0.47658 0.30876 0.0
O195 O 0.75128 0.60435 0.37641 0.0
O196 O 0.74738 0.65108 0.33047 0.0
H197 H 0.66988 0.56471 0.17064 0.0
H198 H 0.72179 0.60365 0.15315 0.0
C199 C 0.70101 0.5889 0.18376 0.0
H200 H 0.69728 0.61301 0.20282 0.0
H201 H 0.72354 0.69326 0.2642 0.0
O202 O 0.77897 0.534 0.36796 0.0
C203 C 0.74053 0.63187 0.3695 0.0
H204 H 0.1501 0.6502 0.30009 0.0
H205 H 0.26052 0.55782 0.13629 0.0
H206 H 0.27398 0.72692 0.24301 0.0
H207 H 0.12686 0.49858 0.15372 0.0
H208 H 0.26886 0.61662 0.18471 0.0
H209 H 0.14403 0.59029 0.25654 0.0
C210 C 0.17613 0.65441 0.27859 0.0
C211 C 0.21252 0.69366 0.27492 0.0
C212 C 0.23775 0.59063 0.17807 0.0
C213 C 0.20579 0.62519 0.2252 0.0
C214 C 0.23299 0.5572 0.15047 0.0
C215 C 0.19298 0.52336 0.14124 0.0
C216 C 0.20222 0.58989 0.19686 0.0
C217 C 0.15831 0.52378 0.16069 0.0
C218 C 0.17256 0.62023 0.25362 0.0
C219 C 0.24524 0.69727 0.24652 0.0
N220 N 0.16372 0.5565 0.18766 0.0
N221 N 0.24113 0.66342 0.22275 0.0
H222 H 0.51364 0.6313 0.81655 0.0
H223 H 0.28279 0.55158 0.91075 0.0
H224 H 0.4533 0.70537 0.80567 0.0
H225 H 0.35961 0.50132 0.95938 0.0
H226 H 0.34289 0.60563 0.86747 0.0
H227 H 0.45564 0.58073 0.86507 0.0
C228 C 0.48839 0.63716 0.82495 0.0
C229 C 0.4883 0.67265 0.8075 0.0
C230 C 0.34658 0.58286 0.88781 0.0
C231 C 0.42139 0.61448 0.86178 0.0
C232 C 0.31228 0.55193 0.91234 0.0
C233 C 0.31619 0.52184 0.93856 0.0
C234 C 0.38485 0.58332 0.88903 0.0
C235 C 0.3552 0.52392 0.93964 0.0
C236 C 0.45521 0.6082 0.85238 0.0
C237 C 0.45434 0.67822 0.81834 0.0
N238 N 0.38794 0.55394 0.91494 0.0
N239 N 0.42207 0.6493 0.8446 0.0
H240 H 0.30063 0.75307 0.47187 0.0
H241 H 0.50205 0.86191 0.63766 0.0
H242 H 0.37696 0.88691 0.48739 0.0
H243 H 0.45551 0.73857 0.57868 0.0
H244 H 0.44863 0.86846 0.5938 0.0
H245 H 0.35001 0.74423 0.52162 0.0
C246 C 0.3277 0.78054 0.48598 0.0
C247 C 0.33477 0.82075 0.47571 0.0
C248 C 0.45008 0.83995 0.59058 0.0
C249 C 0.39082 0.81094 0.53286 0.0
C250 C 0.48042 0.83609 0.61571 0.0
C251 C 0.48336 0.79973 0.61155 0.0
C252 C 0.42212 0.807 0.56155 0.0
C253 C 0.45453 0.76728 0.58257 0.0
C254 C 0.35576 0.77549 0.51431 0.0
C255 C 0.37003 0.85534 0.49512 0.0
N256 N 0.42502 0.77165 0.55868 0.0
N257 N 0.39675 0.84965 0.52284 0.0
H258 H 0.49373 0.19916 0.78741 0.0
H259 H 0.72795 0.24219 0.78223 0.0
H260 H 0.56051 0.19911 0.91174 0.0
H261 H 0.64546 0.19203 0.66258 0.0
H262 H 0.66998 0.23735 0.8285 0.0
H263 H 0.55202 0.20611 0.7391 0.0
C264 C 0.52077 0.20079 0.80443 0.0
C265 C 0.52276 0.19921 0.85352 0.0
C266 C 0.66461 0.22743 0.79211 0.0
C267 C 0.58928 0.20753 0.79894 0.0
C268 C 0.69769 0.23035 0.76561 0.0
C269 C 0.69143 0.2173 0.71855 0.0
C270 C 0.62512 0.21189 0.77125 0.0
C271 C 0.65154 0.20217 0.69886 0.0
C272 C 0.5539 0.20475 0.77697 0.0
C273 C 0.55829 0.2013 0.87403 0.0
N274 N 0.61984 0.19998 0.7253 0.0
N275 N 0.5903 0.20562 0.84666 0.0
H276 H 0.87577 0.54496 0.44188 0.0
H277 H 0.7575 0.30342 0.51337 0.0
H278 H 0.75027 0.45748 0.39574 0.0
H279 H 0.89026 0.3853 0.52978 0.0
H280 H 0.75312 0.35954 0.47206 0.0
H281 H 0.88061 0.48718 0.47691 0.0
C282 C 0.84915 0.51359 0.43919 0.0
C283 C 0.81247 0.50608 0.416 0.0
C284 C 0.78329 0.36511 0.48422 0.0
C285 C 0.81787 0.43968 0.45609 0.0
C286 C 0.78575 0.33316 0.50768 0.0
C287 C 0.82433 0.33989 0.52441 0.0
C288 C 0.81963 0.40418 0.47819 0.0
C289 C 0.86006 0.37888 0.51673 0.0
C290 C 0.85204 0.48056 0.45902 0.0
C291 C 0.77911 0.46471 0.41338 0.0
N292 N 0.85682 0.40971 0.49441 0.0
N293 N 0.78253 0.43306 0.43341 0.0
H294 H 0.51974 0.28577 0.11518 0.0
H295 H 0.7001 0.52464 0.12273 0.0
H296 H 0.5338 0.37306 0.00597 0.0
H297 H 0.64455 0.45228 0.24809 0.0
H298 H 0.64706 0.4666 0.07547 0.0
H299 H 0.5742 0.34377 0.16073 0.0
C300 C 0.53442 0.3171 0.10071 0.0
C301 C 0.52214 0.32471 0.05687 0.0
C302 C 0.64668 0.46351 0.11333 0.0
C303 C 0.58458 0.39092 0.10849 0.0
C304 C 0.67678 0.49654 0.14025 0.0
C305 C 0.67686 0.49308 0.18932 0.0
C306 C 0.61693 0.42661 0.13569 0.0
C307 C 0.64622 0.45588 0.2103 0.0
C308 C 0.56532 0.35014 0.12678 0.0
C309 C 0.54215 0.36592 0.0398 0.0
N310 N 0.61762 0.42398 0.18336 0.0
N311 N 0.57258 0.39753 0.06557 0.0
H312 H 0.95381 0.24878 0.72656 0.0
H313 H 0.09201 0.43005 0.89852 0.0
H314 H 0.91026 0.33368 0.76506 0.0
H315 H 0.05104 0.30262 0.93925 0.0
H316 H 0.03882 0.40356 0.83574 0.0
H317 H 0.00474 0.27681 0.79115 0.0
C318 C 0.95528 0.27355 0.7484 0.0
C319 C 0.92791 0.28897 0.74085 0.0
C320 C 0.04157 0.38165 0.85874 0.0
C321 C 0.9862 0.32141 0.81338 0.0
C322 C 0.07177 0.39659 0.89423 0.0
C323 C 0.07558 0.36835 0.92397 0.0
C324 C 0.01635 0.33835 0.85223 0.0
C325 C 0.04875 0.32531 0.91718 0.0
C326 C 0.98403 0.28925 0.78516 0.0
C327 C 0.93078 0.3209 0.77016 0.0
N328 N 0.02061 0.31152 0.88145 0.0
N329 N 0.95986 0.33654 0.80503 0.0
H330 H 0.73591 0.61251 0.46323 0.0
H331 H 0.60384 0.72329 0.53014 0.0
H332 H 0.69814 0.67477 0.36233 0.0
H333 H 0.67398 0.69619 0.63187 0.0
H334 H 0.62861 0.69501 0.46833 0.0
H335 H 0.70393 0.63281 0.52568 0.0
C336 C 0.72071 0.63021 0.45416 0.0
C337 C 0.71997 0.64222 0.40754 0.0
C338 C 0.63842 0.69513 0.50423 0.0
C339 C 0.68319 0.66524 0.47865 0.0
C340 C 0.62417 0.71112 0.53956 0.0
C341 C 0.63711 0.71241 0.58622 0.0
C342 C 0.66545 0.67996 0.51566 0.0
C343 C 0.6635 0.69616 0.59632 0.0
C344 C 0.70259 0.64187 0.48981 0.0
C345 C 0.69981 0.66515 0.39783 0.0
N346 N 0.67685 0.68065 0.5613 0.0
N347 N 0.68223 0.6759 0.43307 0.0
H348 H 0.34067 0.03102 0.02317 0.0
H349 H 0.32218 0.98831 0.29802 0.0
H350 H 0.40569 0.12905 0.12569 0.0
H351 H 0.29148 0.89097 0.19522 0.0
H352 H 0.35125 0.04043 0.2354 0.0
H353 H 0.32042 0.97905 0.08568 0.0
C354 C 0.35084 0.04163 0.05879 0.0
C355 C 0.37472 0.08448 0.06927 0.0
C356 C 0.33847 0.00769 0.22663 0.0
C357 C 0.35142 0.02517 0.14092 0.0
C358 C 0.32175 0.9779 0.26231 0.0
C359 C 0.30415 0.93519 0.25179 0.0
C360 C 0.33706 0.99466 0.17999 0.0
C361 C 0.3047 0.92355 0.20494 0.0
C362 C 0.3394 0.01192 0.0944 0.0
C363 C 0.38724 0.09636 0.116 0.0
N364 N 0.32049 0.95311 0.17067 0.0
N365 N 0.37509 0.06687 0.15019 0.0
H366 H 0.30231 0.20952 0.90862 0.0
H367 H 0.20594 0.30625 0.08454 0.0
H368 H 0.3438 0.23892 0.05251 0.0
H369 H 0.23215 0.34654 0.94005 0.0
H370 H 0.24125 0.2654 0.073 0.0
H371 H 0.26065 0.24427 0.91942 0.0
C372 C 0.30231 0.22294 0.94249 0.0
C373 C 0.32667 0.22177 0.97964 0.0
C374 C 0.23899 0.2831 0.04389 0.0
C375 C 0.27888 0.26036 0.99235 0.0
C376 C 0.21886 0.30625 0.05038 0.0
C377 C 0.21653 0.33001 0.01328 0.0
C378 C 0.25581 0.28294 -0.00027 0.0
C379 C 0.23375 0.32898 0.96967 0.0
C380 C 0.27879 0.24279 0.94854 0.0
C381 C 0.32574 0.23961 0.02286 0.0
N382 N 0.25251 0.30561 0.96397 0.0
N383 N 0.30203 0.25799 0.02815 0.0
H384 H 0.72265 0.10762 0.66199 0.0
H385 H 0.73603 0.90087 0.69795 0.0
H386 H 0.83484 0.10409 0.62817 0.0
H387 H 0.62099 0.89891 0.66425 0.0
H388 H 0.77438 0.97701 0.68488 0.0
H389 H 0.68607 0.03205 0.67468 0.0
C390 C 0.73955 0.09088 0.65708 0.0
C391 C 0.7818 0.11208 0.64389 0.0
C392 C 0.74074 0.95972 0.68043 0.0
C393 C 0.74029 0.02576 0.65916 0.0
C394 C 0.71886 0.91647 0.68821 0.0
C395 C 0.67531 0.8936 0.68207 0.0
C396 C 0.7187 0.98009 0.66743 0.0
C397 C 0.65457 0.91527 0.66914 0.0
C398 C 0.71865 0.04778 0.66428 0.0
C399 C 0.80216 0.08882 0.63798 0.0
N400 N 0.67641 0.95729 0.6625 0.0
N401 N 0.78128 0.04683 0.6461 0.0
H402 H 0.11275 0.84708 0.36393 0.0
H403 H 0.9083 0.62846 0.31522 0.0
H404 H 0.11517 0.73661 0.31831 0.0
H405 H 0.90763 0.74445 0.2983 0.0
H406 H 0.9838 0.66793 0.32585 0.0
H407 H 0.03675 0.81019 0.34992 0.0
C408 C 0.09733 0.81511 0.35123 0.0
C409 C 0.1203 0.79487 0.34228 0.0
C410 C 0.96726 0.68483 0.31952 0.0
C411 C 0.03398 0.75282 0.32648 0.0
C412 C 0.92415 0.66233 0.3135 0.0
C413 C 0.90172 0.68326 0.30581 0.0
C414 C 0.98826 0.72871 0.31868 0.0
C415 C 0.92389 0.72719 0.30384 0.0
C416 C 0.05415 0.79428 0.34294 0.0
C417 C 0.09883 0.75353 0.32558 0.0
N418 N 0.96608 0.74862 0.31074 0.0
N419 N 0.05694 0.73387 0.3185 0.0
H420 H 0.90494 0.22369 0.41647 0.0
H421 H 0.09882 0.31582 0.24517 0.0
H422 H 0.0305 0.26408 0.46417 0.0
H423 H 0.97107 0.24755 0.19642 0.0
H424 H 0.07459 0.29227 0.32489 0.0
H425 H 0.92787 0.22686 0.3358 0.0
C426 C 0.937 0.23178 0.41029 0.0
C427 C 0.96563 0.24279 0.44746 0.0
C428 C 0.0519 0.28166 0.29663 0.0
C429 C 0.99266 0.2486 0.35448 0.0
C430 C 0.06581 0.29469 0.25083 0.0
C431 C 0.03699 0.283 0.21376 0.0
C432 C 0.00881 0.25752 0.30564 0.0
C433 C 0.99436 0.25723 0.22395 0.0
C434 C 0.95026 0.23417 0.36392 0.0
C435 C 0.00734 0.25521 0.43661 0.0
N436 N 0.98152 0.2457 0.26894 0.0
N437 N 0.01971 0.2582 0.39113 0.0
H438 H 0.6952 0.78871 0.9075 0.0
H439 H 0.7763 0.67868 0.08016 0.0
H440 H 0.76218 0.72768 0.85914 0.0
H441 H 0.75248 0.77634 0.12651 0.0
H442 H 0.77306 0.69751 -0.00077 0.0
H443 H 0.71756 0.78666 0.98745 0.0
C444 C 0.71584 0.77624 0.91323 0.0
C445 C 0.72753 0.75912 0.87616 0.0
C446 C 0.76941 0.71543 0.02711 0.0
C447 C 0.75143 0.7547 0.96837 0.0
C448 C 0.77182 0.70502 0.07368 0.0
C449 C 0.76568 0.72658 0.11065 0.0
C450 C 0.75968 0.74689 0.01724 0.0
C451 C 0.75754 0.75892 0.09921 0.0
C452 C 0.72816 0.77457 0.9592 0.0
C453 C 0.75251 0.74134 0.88661 0.0
N454 N 0.75435 0.76781 0.05356 0.0
N455 N 0.76323 0.73916 0.93176 0.0
H456 H 0.33409 0.10995 0.74356 0.0
H457 H 0.22344 0.9178 0.57098 0.0
H458 H 0.2403 0.98696 0.79018 0.0
H459 H 0.28735 0.04588 0.52279 0.0
H460 H 0.22554 0.94242 0.65082 0.0
H461 H 0.3144 0.08789 0.66268 0.0
C462 C 0.3084 0.07876 0.73714 0.0
C463 C 0.28829 0.05058 0.77414 0.0
C464 C 0.23828 0.96513 0.62265 0.0
C465 C 0.26693 0.02438 0.68081 0.0
C466 C 0.23658 0.95101 0.57673 0.0
C467 C 0.25457 0.97977 0.53976 0.0
C468 C 0.25894 0.00832 0.63188 0.0
C469 C 0.27305 0.02261 0.55021 0.0
C470 C 0.29749 0.06595 0.69061 0.0
C471 C 0.25665 0.00978 0.76283 0.0
N472 N 0.27518 0.0356 0.59531 0.0
N473 N 0.24724 0.99777 0.71722 0.0
loop_
_geom_bond_atom_site_label_1
_geom_bond_atom_site_label_2
_geom_bond_distance
_geom_bond_site_symmetry_2
_ccdc_geom_bond_type
Co0 O3 1.970 . S
Co0 N17 1.989 1_556 S
Co0 O25 1.967 . S
Co0 O32 1.920 . S
Co1 O4 1.966 . S
Co1 N10 2.022 . S
Co1 N18 1.993 . S
Co1 O26 1.941 1_554 S
C2 O3 1.258 1_554 S
C2 O4 1.263 . S
O3 Co0 1.970 . S
O3 C2 1.258 1_556 S
O4 Co1 1.966 . S
O4 C2 1.263 . S
C5 O6 1.235 . S
C5 O32 1.289 . S
O6 C5 1.235 . S
C7 C9 1.400 . S
C7 N10 1.351 . S
C7 C12 1.501 . S
C8 C9 1.387 . S
C8 N11 1.341 . S
C9 C7 1.400 . S
C9 C8 1.387 . S
N10 Co1 2.022 . S
N10 C7 1.351 . S
N10 N11 1.365 . S
N11 C8 1.341 . S
N11 N10 1.365 . S
N11 H31 0.862 . S
C12 C7 1.501 . S
C12 H13 0.961 . S
C12 H14 0.961 . S
C12 H15 0.960 . S
H13 C12 0.961 . S
H14 C12 0.961 . S
H15 C12 0.960 . S
C16 N17 1.342 . S
C16 C20 1.401 . S
C16 C21 1.499 . S
N17 Co0 1.989 1_554 S
N17 C16 1.342 . S
N17 N18 1.388 . S
N18 Co1 1.993 . S
N18 N17 1.388 . S
N18 C19 1.346 . S
C19 N18 1.346 . S
C19 C20 1.396 . S
C19 C29 1.510 . S
C20 C16 1.401 . S
C20 C19 1.396 . S
C21 C16 1.499 . S
C21 H22 0.959 1_554 S
C21 H23 0.960 . S
C21 H24 0.961 1_554 S
H22 C21 0.959 1_556 S
H23 C21 0.960 . S
H24 C21 0.961 1_556 S
O25 Co0 1.967 . S
O25 C33 1.258 . S
O26 Co1 1.941 1_556 S
O26 C33 1.266 . S
H27 C29 0.959 . S
H28 C29 0.961 . S
C29 C19 1.510 . S
C29 H27 0.959 . S
C29 H28 0.961 . S
C29 H30 0.960 . S
H30 C29 0.960 . S
H31 N11 0.862 . S
O32 Co0 1.920 . S
O32 C5 1.289 . S
C33 O25 1.258 . S
C33 O26 1.266 . S
Co34 O37 1.970 . S
Co34 N51 1.989 . S
Co34 O59 1.967 . S
Co34 O66 1.920 . S
Co35 O38 1.966 . S
Co35 N44 2.022 . S
Co35 N52 1.993 . S
Co35 O60 1.941 . S
C36 O37 1.258 . S
C36 O38 1.263 . S
O37 Co34 1.970 . S
O37 C36 1.258 . S
O38 Co35 1.966 . S
O38 C36 1.263 . S
C39 O40 1.235 . S
C39 O66 1.289 . S
O40 C39 1.235 . S
C41 C43 1.400 . S
C41 N44 1.351 . S
C41 C46 1.501 . S
C42 C43 1.387 . S
C42 N45 1.341 . S
C43 C41 1.400 . S
C43 C42 1.387 . S
N44 Co35 2.022 . S
N44 C41 1.351 . S
N44 N45 1.365 . S
N45 C42 1.341 . S
N45 N44 1.365 . S
N45 H65 0.862 . S
C46 C41 1.501 . S
C46 H47 0.961 . S
C46 H48 0.961 . S
C46 H49 0.960 . S
H47 C46 0.961 . S
H48 C46 0.961 . S
H49 C46 0.960 . S
C50 N51 1.342 . S
C50 C54 1.401 . S
C50 C55 1.499 . S
N51 Co34 1.989 . S
N51 C50 1.342 . S
N51 N52 1.388 . S
N52 Co35 1.993 . S
N52 N51 1.388 . S
N52 C53 1.346 . S
C53 N52 1.346 . S
C53 C54 1.396 . S
C53 C63 1.510 . S
C54 C50 1.401 . S
C54 C53 1.396 . S
C55 C50 1.499 . S
C55 H56 0.959 . S
C55 H57 0.960 . S
C55 H58 0.961 . S
H56 C55 0.959 . S
H57 C55 0.960 . S
H58 C55 0.961 . S
O59 Co34 1.967 . S
O59 C67 1.258 . S
O60 Co35 1.941 . S
O60 C67 1.266 . S
H61 C63 0.959 . S
H62 C63 0.961 . S
C63 C53 1.510 . S
C63 H61 0.959 . S
C63 H62 0.961 . S
C63 H64 0.960 . S
H64 C63 0.960 . S
H65 N45 0.862 . S
O66 Co34 1.920 . S
O66 C39 1.289 . S
C67 O59 1.258 . S
C67 O60 1.266 . S
Co68 O71 1.970 . S
Co68 N85 1.989 . S
Co68 O93 1.967 . S
Co68 O100 1.920 . S
Co69 O72 1.966 . S
Co69 N78 2.022 . S
Co69 N86 1.993 . S
Co69 O94 1.941 . S
C70 O71 1.258 . S
C70 O72 1.263 . S
O71 Co68 1.970 . S
O71 C70 1.258 . S
O72 Co69 1.966 . S
O72 C70 1.263 . S
C73 O74 1.235 . S
C73 O100 1.289 . S
O74 C73 1.235 . S
C75 C77 1.400 . S
C75 N78 1.351 . S
C75 C80 1.501 . S
C76 C77 1.387 . S
C76 N79 1.341 . S
C77 C75 1.400 . S
C77 C76 1.387 . S
N78 Co69 2.022 . S
N78 C75 1.351 . S
N78 N79 1.365 . S
N79 C76 1.341 . S
N79 N78 1.365 . S
N79 H99 0.862 . S
C80 C75 1.501 . S
C80 H81 0.961 . S
C80 H82 0.961 . S
C80 H83 0.960 . S
H81 C80 0.961 . S
H82 C80 0.961 . S
H83 C80 0.960 . S
C84 N85 1.342 . S
C84 C88 1.401 . S
C84 C89 1.499 . S
N85 Co68 1.989 . S
N85 C84 1.342 . S
N85 N86 1.388 . S
N86 Co69 1.993 . S
N86 N85 1.388 . S
N86 C87 1.346 . S
C87 N86 1.346 . S
C87 C88 1.396 . S
C87 C97 1.510 . S
C88 C84 1.401 . S
C88 C87 1.396 . S
C89 C84 1.499 . S
C89 H90 0.959 . S
C89 H91 0.960 . S
C89 H92 0.961 . S
H90 C89 0.959 . S
H91 C89 0.960 . S
H92 C89 0.961 . S
O93 Co68 1.967 . S
O93 C101 1.258 . S
O94 Co69 1.941 . S
O94 C101 1.266 . S
H95 C97 0.959 . S
H96 C97 0.961 . S
C97 C87 1.510 . S
C97 H95 0.959 . S
C97 H96 0.961 . S
C97 H98 0.960 . S
H98 C97 0.960 . S
H99 N79 0.862 . S
O100 Co68 1.920 . S
O100 C73 1.289 . S
C101 O93 1.258 . S
C101 O94 1.266 . S
Co102 O105 1.970 . S
Co102 N119 1.989 1_554 S
Co102 O127 1.967 . S
Co102 O134 1.920 . S
Co103 O106 1.966 . S
Co103 N112 2.022 . S
Co103 N120 1.993 . S
Co103 O128 1.941 1_556 S
C104 O105 1.258 1_556 S
C104 O106 1.263 . S
O105 Co102 1.970 . S
O105 C104 1.258 1_554 S
O106 Co103 1.966 . S
O106 C104 1.263 . S
C107 O108 1.235 . S
C107 O134 1.289 . S
O108 C107 1.235 . S
C109 C111 1.400 . S
C109 N112 1.351 . S
C109 C114 1.501 . S
C110 C111 1.387 . S
C110 N113 1.341 . S
C111 C109 1.400 . S
C111 C110 1.387 . S
N112 Co103 2.022 . S
N112 C109 1.351 . S
N112 N113 1.365 . S
N113 C110 1.341 . S
N113 N112 1.365 . S
N113 H133 0.862 . S
C114 C109 1.501 . S
C114 H115 0.961 . S
C114 H116 0.961 . S
C114 H117 0.960 . S
H115 C114 0.961 . S
H116 C114 0.961 . S
H117 C114 0.960 . S
C118 N119 1.342 . S
C118 C122 1.401 . S
C118 C123 1.499 . S
N119 Co102 1.989 1_556 S
N119 C118 1.342 . S
N119 N120 1.388 . S
N120 Co103 1.993 . S
N120 N119 1.388 . S
N120 C121 1.346 . S
C121 N120 1.346 . S
C121 C122 1.396 . S
C121 C131 1.510 . S
C122 C118 1.401 . S
C122 C121 1.396 . S
C123 C118 1.499 . S
C123 H124 0.959 1_556 S
C123 H125 0.960 . S
C123 H126 0.961 1_556 S
H124 C123 0.959 1_554 S
H125 C123 0.960 . S
H126 C123 0.961 1_554 S
O127 Co102 1.967 . S
O127 C135 1.258 . S
O128 Co103 1.941 1_554 S
O128 C135 1.266 . S
H129 C131 0.959 . S
H130 C131 0.961 . S
C131 C121 1.510 . S
C131 H129 0.959 . S
C131 H130 0.961 . S
C131 H132 0.960 . S
H132 C131 0.960 . S
H133 N113 0.862 . S
O134 Co102 1.920 . S
O134 C107 1.289 . S
C135 O127 1.258 . S
C135 O128 1.266 . S
Co136 O139 1.970 . S
Co136 N153 1.989 . S
Co136 O161 1.967 . S
Co136 O168 1.920 . S
Co137 O140 1.966 . S
Co137 N146 2.022 . S
Co137 N154 1.993 . S
Co137 O162 1.941 . S
C138 O139 1.258 . S
C138 O140 1.263 . S
O139 Co136 1.970 . S
O139 C138 1.258 . S
O140 Co137 1.966 . S
O140 C138 1.263 . S
C141 O142 1.235 . S
C141 O168 1.289 . S
O142 C141 1.235 . S
C143 C145 1.400 . S
C143 N146 1.351 . S
C143 C148 1.501 . S
C144 C145 1.387 . S
C144 N147 1.341 . S
C145 C143 1.400 . S
C145 C144 1.387 . S
N146 Co137 2.022 . S
N146 C143 1.351 . S
N146 N147 1.365 . S
N147 C144 1.341 . S
N147 N146 1.365 . S
N147 H167 0.862 . S
C148 C143 1.501 . S
C148 H149 0.961 . S
C148 H150 0.961 . S
C148 H151 0.960 . S
H149 C148 0.961 . S
H150 C148 0.961 . S
H151 C148 0.960 . S
C152 N153 1.342 . S
C152 C156 1.401 . S
C152 C157 1.499 . S
N153 Co136 1.989 . S
N153 C152 1.342 . S
N153 N154 1.388 . S
N154 Co137 1.993 . S
N154 N153 1.388 . S
N154 C155 1.346 . S
C155 N154 1.346 . S
C155 C156 1.396 . S
C155 C165 1.510 . S
C156 C152 1.401 . S
C156 C155 1.396 . S
C157 C152 1.499 . S
C157 H158 0.959 . S
C157 H159 0.960 . S
C157 H160 0.961 . S
H158 C157 0.959 . S
H159 C157 0.960 . S
H160 C157 0.961 . S
O161 Co136 1.967 . S
O161 C169 1.258 . S
O162 Co137 1.941 . S
O162 C169 1.266 . S
H163 C165 0.959 . S
H164 C165 0.961 . S
C165 C155 1.510 . S
C165 H163 0.959 . S
C165 H164 0.961 . S
C165 H166 0.960 . S
H166 C165 0.960 . S
H167 N147 0.862 . S
O168 Co136 1.920 . S
O168 C141 1.289 . S
C169 O161 1.258 . S
C169 O162 1.266 . S
Co170 O173 1.970 . S
Co170 N187 1.989 . S
Co170 O195 1.967 . S
Co170 O202 1.920 . S
Co171 O174 1.966 . S
Co171 N180 2.022 . S
Co171 N188 1.993 . S
Co171 O196 1.941 . S
C172 O173 1.258 . S
C172 O174 1.263 . S
O173 Co170 1.970 . S
O173 C172 1.258 . S
O174 Co171 1.966 . S
O174 C172 1.263 . S
C175 O176 1.235 . S
C175 O202 1.289 . S
O176 C175 1.235 . S
C177 C179 1.400 . S
C177 N180 1.351 . S
C177 C182 1.501 . S
C178 C179 1.387 . S
C178 N181 1.341 . S
C179 C177 1.400 . S
C179 C178 1.387 . S
N180 Co171 2.022 . S
N180 C177 1.351 . S
N180 N181 1.365 . S
N181 C178 1.341 . S
N181 N180 1.365 . S
N181 H201 0.862 . S
C182 C177 1.501 . S
C182 H183 0.961 . S
C182 H184 0.961 . S
C182 H185 0.960 . S
H183 C182 0.961 . S
H184 C182 0.961 . S
H185 C182 0.960 . S
C186 N187 1.342 . S
C186 C190 1.401 . S
C186 C191 1.499 . S
N187 Co170 1.989 . S
N187 C186 1.342 . S
N187 N188 1.388 . S
N188 Co171 1.993 . S
N188 N187 1.388 . S
N188 C189 1.346 . S
C189 N188 1.346 . S
C189 C190 1.396 . S
C189 C199 1.510 . S
C190 C186 1.401 . S
C190 C189 1.396 . S
C191 C186 1.499 . S
C191 H192 0.959 . S
C191 H193 0.960 . S
C191 H194 0.961 . S
H192 C191 0.959 . S
H193 C191 0.960 . S
H194 C191 0.961 . S
O195 Co170 1.967 . S
O195 C203 1.258 . S
O196 Co171 1.941 . S
O196 C203 1.266 . S
H197 C199 0.959 . S
H198 C199 0.961 . S
C199 C189 1.510 . S
C199 H197 0.959 . S
C199 H198 0.961 . S
C199 H200 0.960 . S
H200 C199 0.960 . S
H201 N181 0.862 . S
O202 Co170 1.920 . S
O202 C175 1.289 . S
C203 O195 1.258 . S
C203 O196 1.266 . S
H204 C210 0.930 . S
H205 C214 0.930 . S
H206 C219 0.929 . S
H207 C217 0.929 . S
H208 C212 0.929 . S
H209 C218 0.929 . S
C210 H204 0.930 . S
C210 C211 1.367 . S
C210 C218 1.378 . S
C211 C210 1.367 . S
C211 C219 1.433 . S
C212 H208 0.929 . S
C212 C214 1.378 . S
C212 C216 1.350 . S
C213 C216 1.463 . S
C213 C218 1.350 . S
C213 N221 1.427 . S
C214 H205 0.930 . S
C214 C212 1.378 . S
C214 C215 1.367 . S
C215 C214 1.367 . S
C215 C217 1.433 . S
C216 C212 1.350 . S
C216 C213 1.463 . S
C216 N220 1.427 . S
C217 H207 0.929 . S
C217 C215 1.433 . S
C217 N220 1.384 . S
C218 H209 0.929 . S
C218 C210 1.378 . S
C218 C213 1.350 . S
C219 H206 0.929 . S
C219 C211 1.433 . S
C219 N221 1.384 . S
N220 C216 1.427 . S
N220 C217 1.384 . S
N221 C213 1.427 . S
N221 C219 1.384 . S
H222 C228 0.930 . S
H223 C232 0.930 . S
H224 C237 0.929 . S
H225 C235 0.929 . S
H226 C230 0.929 . S
H227 C236 0.929 . S
C228 H222 0.930 . S
C228 C229 1.367 . S
C228 C236 1.378 . S
C229 C228 1.367 . S
C229 C237 1.433 . S
C230 H226 0.929 . S
C230 C232 1.378 . S
C230 C234 1.350 . S
C231 C234 1.463 . S
C231 C236 1.350 . S
C231 N239 1.427 . S
C232 H223 0.930 . S
C232 C230 1.378 . S
C232 C233 1.367 . S
C233 C232 1.367 . S
C233 C235 1.433 . S
C234 C230 1.350 . S
C234 C231 1.463 . S
C234 N238 1.427 . S
C235 H225 0.929 . S
C235 C233 1.433 . S
C235 N238 1.384 . S
C236 H227 0.929 . S
C236 C228 1.378 . S
C236 C231 1.350 . S
C237 H224 0.929 . S
C237 C229 1.433 . S
C237 N239 1.384 . S
N238 C234 1.427 . S
N238 C235 1.384 . S
N239 C231 1.427 . S
N239 C237 1.384 . S
H240 C246 0.930 . S
H241 C250 0.930 . S
H242 C255 0.929 . S
H243 C253 0.929 . S
H244 C248 0.929 . S
H245 C254 0.929 . S
C246 H240 0.930 . S
C246 C247 1.367 . S
C246 C254 1.378 . S
C247 C246 1.367 . S
C247 C255 1.433 . S
C248 H244 0.929 . S
C248 C250 1.378 . S
C248 C252 1.350 . S
C249 C252 1.463 . S
C249 C254 1.350 . S
C249 N257 1.427 . S
C250 H241 0.930 . S
C250 C248 1.378 . S
C250 C251 1.367 . S
C251 C250 1.367 . S
C251 C253 1.433 . S
C252 C248 1.350 . S
C252 C249 1.463 . S
C252 N256 1.427 . S
C253 H243 0.929 . S
C253 C251 1.433 . S
C253 N256 1.384 . S
C254 H245 0.929 . S
C254 C246 1.378 . S
C254 C249 1.350 . S
C255 H242 0.929 . S
C255 C247 1.433 . S
C255 N257 1.384 . S
N256 C252 1.427 . S
N256 C253 1.384 . S
N257 C249 1.427 . S
N257 C255 1.384 . S
H258 C264 0.930 . S
H259 C268 0.930 . S
H260 C273 0.929 . S
H261 C271 0.929 . S
H262 C266 0.929 . S
H263 C272 0.929 . S
C264 H258 0.930 . S
C264 C265 1.367 . S
C264 C272 1.378 . S
C265 C264 1.367 . S
C265 C273 1.433 . S
C266 H262 0.929 . S
C266 C268 1.378 . S
C266 C270 1.350 . S
C267 C270 1.463 . S
C267 C272 1.350 . S
C267 N275 1.427 . S
C268 H259 0.930 . S
C268 C266 1.378 . S
C268 C269 1.367 . S
C269 C268 1.367 . S
C269 C271 1.433 . S
C270 C266 1.350 . S
C270 C267 1.463 . S
C270 N274 1.427 . S
C271 H261 0.929 . S
C271 C269 1.433 . S
C271 N274 1.384 . S
C272 H263 0.929 . S
C272 C264 1.378 . S
C272 C267 1.350 . S
C273 H260 0.929 . S
C273 C265 1.433 . S
C273 N275 1.384 . S
N274 C270 1.427 . S
N274 C271 1.384 . S
N275 C267 1.427 . S
N275 C273 1.384 . S
H276 C282 0.930 . S
H277 C286 0.930 . S
H278 C291 0.929 . S
H279 C289 0.929 . S
H280 C284 0.929 . S
H281 C290 0.929 . S
C282 H276 0.930 . S
C282 C283 1.367 . S
C282 C290 1.378 . S
C283 C282 1.367 . S
C283 C291 1.433 . S
C284 H280 0.929 . S
C284 C286 1.378 . S
C284 C288 1.350 . S
C285 C288 1.463 . S
C285 C290 1.350 . S
C285 N293 1.427 . S
C286 H277 0.930 . S
C286 C284 1.378 . S
C286 C287 1.367 . S
C287 C286 1.367 . S
C287 C289 1.433 . S
C288 C284 1.350 . S
C288 C285 1.463 . S
C288 N292 1.427 . S
C289 H279 0.929 . S
C289 C287 1.433 . S
C289 N292 1.384 . S
C290 H281 0.929 . S
C290 C282 1.378 . S
C290 C285 1.350 . S
C291 H278 0.929 . S
C291 C283 1.433 . S
C291 N293 1.384 . S
N292 C288 1.427 . S
N292 C289 1.384 . S
N293 C285 1.427 . S
N293 C291 1.384 . S
H294 C300 0.930 . S
H295 C304 0.930 . S
H296 C309 0.929 . S
H297 C307 0.929 . S
H298 C302 0.929 . S
H299 C308 0.929 . S
C300 H294 0.930 . S
C300 C301 1.367 . S
C300 C308 1.378 . S
C301 C300 1.367 . S
C301 C309 1.433 . S
C302 H298 0.929 . S
C302 C304 1.378 . S
C302 C306 1.350 . S
C303 C306 1.463 . S
C303 C308 1.350 . S
C303 N311 1.427 . S
C304 H295 0.930 . S
C304 C302 1.378 . S
C304 C305 1.367 . S
C305 C304 1.367 . S
C305 C307 1.433 . S
C306 C302 1.350 . S
C306 C303 1.463 . S
C306 N310 1.427 . S
C307 H297 0.929 . S
C307 C305 1.433 . S
C307 N310 1.384 . S
C308 H299 0.929 . S
C308 C300 1.378 . S
C308 C303 1.350 . S
C309 H296 0.929 . S
C309 C301 1.433 . S
C309 N311 1.384 . S
N310 C306 1.427 . S
N310 C307 1.384 . S
N311 C303 1.427 . S
N311 C309 1.384 . S
H312 C318 0.930 . S
H313 C322 0.930 . S
H314 C327 0.929 . S
H315 C325 0.929 . S
H316 C320 0.929 . S
H317 C326 0.929 . S
C318 H312 0.930 . S
C318 C319 1.367 . S
C318 C326 1.378 . S
C319 C318 1.367 . S
C319 C327 1.433 . S
C320 H316 0.929 . S
C320 C322 1.378 . S
C320 C324 1.350 . S
C321 C324 1.463 1_655 S
C321 C326 1.350 . S
C321 N329 1.427 . S
C322 H313 0.930 . S
C322 C320 1.378 . S
C322 C323 1.367 . S
C323 C322 1.367 . S
C323 C325 1.433 . S
C324 C320 1.350 . S
C324 C321 1.463 1_455 S
C324 N328 1.427 . S
C325 H315 0.929 . S
C325 C323 1.433 . S
C325 N328 1.384 . S
C326 H317 0.929 . S
C326 C318 1.378 . S
C326 C321 1.350 . S
C327 H314 0.929 . S
C327 C319 1.433 . S
C327 N329 1.384 . S
N328 C324 1.427 . S
N328 C325 1.384 . S
N329 C321 1.427 . S
N329 C327 1.384 . S
H330 C336 0.930 . S
H331 C340 0.930 . S
H332 C345 0.929 . S
H333 C343 0.929 . S
H334 C338 0.929 . S
H335 C344 0.929 . S
C336 H330 0.930 . S
C336 C337 1.367 . S
C336 C344 1.378 . S
C337 C336 1.367 . S
C337 C345 1.433 . S
C338 H334 0.929 . S
C338 C340 1.378 . S
C338 C342 1.350 . S
C339 C342 1.463 . S
C339 C344 1.350 . S
C339 N347 1.427 . S
C340 H331 0.930 . S
C340 C338 1.378 . S
C340 C341 1.367 . S
C341 C340 1.367 . S
C341 C343 1.433 . S
C342 C338 1.350 . S
C342 C339 1.463 . S
C342 N346 1.427 . S
C343 H333 0.929 . S
C343 C341 1.433 . S
C343 N346 1.384 . S
C344 H335 0.929 . S
C344 C336 1.378 . S
C344 C339 1.350 . S
C345 H332 0.929 . S
C345 C337 1.433 . S
C345 N347 1.384 . S
N346 C342 1.427 . S
N346 C343 1.384 . S
N347 C339 1.427 . S
N347 C345 1.384 . S
H348 C354 0.930 . S
H349 C358 0.930 . S
H350 C363 0.929 . S
H351 C361 0.929 . S
H352 C356 0.929 . S
H353 C362 0.929 1_565 S
C354 H348 0.930 . S
C354 C355 1.367 . S
C354 C362 1.378 . S
C355 C354 1.367 . S
C355 C363 1.433 . S
C356 H352 0.929 . S
C356 C358 1.378 1_545 S
C356 C360 1.350 1_545 S
C357 C360 1.463 1_545 S
C357 C362 1.350 . S
C357 N365 1.427 . S
C358 H349 0.930 . S
C358 C356 1.378 1_565 S
C358 C359 1.367 . S
C359 C358 1.367 . S
C359 C361 1.433 . S
C360 C356 1.350 1_565 S
C360 C357 1.463 1_565 S
C360 N364 1.427 . S
C361 H351 0.929 . S
C361 C359 1.433 . S
C361 N364 1.384 . S
C362 H353 0.929 1_545 S
C362 C354 1.378 . S
C362 C357 1.350 . S
C363 H350 0.929 . S
C363 C355 1.433 . S
C363 N365 1.384 . S
N364 C360 1.427 . S
N364 C361 1.384 . S
N365 C357 1.427 . S
N365 C363 1.384 . S
H366 C372 0.930 . S
H367 C376 0.930 . S
H368 C381 0.929 . S
H369 C379 0.929 . S
H370 C374 0.929 . S
H371 C380 0.929 . S
C372 H366 0.930 . S
C372 C373 1.367 . S
C372 C380 1.378 . S
C373 C372 1.367 . S
C373 C381 1.433 1_556 S
C374 H370 0.929 . S
C374 C376 1.378 . S
C374 C378 1.350 . S
C375 C378 1.463 1_556 S
C375 C380 1.350 . S
C375 N383 1.427 1_556 S
C376 H367 0.930 . S
C376 C374 1.378 . S
C376 C377 1.367 . S
C377 C376 1.367 . S
C377 C379 1.433 1_554 S
C378 C374 1.350 . S
C378 C375 1.463 1_554 S
C378 N382 1.427 1_554 S
C379 H369 0.929 . S
C379 C377 1.433 1_556 S
C379 N382 1.384 . S
C380 H371 0.929 . S
C380 C372 1.378 . S
C380 C375 1.350 . S
C381 H368 0.929 . S
C381 C373 1.433 1_554 S
C381 N383 1.384 . S
N382 C378 1.427 1_556 S
N382 C379 1.384 . S
N383 C375 1.427 1_554 S
N383 C381 1.384 . S
H384 C390 0.930 . S
H385 C394 0.930 . S
H386 C399 0.929 . S
H387 C397 0.929 . S
H388 C392 0.929 . S
H389 C398 0.929 . S
C390 H384 0.930 . S
C390 C391 1.367 . S
C390 C398 1.378 . S
C391 C390 1.367 . S
C391 C399 1.433 . S
C392 H388 0.929 . S
C392 C394 1.378 . S
C392 C396 1.350 . S
C393 C396 1.463 1_545 S
C393 C398 1.350 . S
C393 N401 1.427 . S
C394 H385 0.930 . S
C394 C392 1.378 . S
C394 C395 1.367 . S
C395 C394 1.367 . S
C395 C397 1.433 . S
C396 C392 1.350 . S
C396 C393 1.463 1_565 S
C396 N400 1.427 . S
C397 H387 0.929 . S
C397 C395 1.433 . S
C397 N400 1.384 . S
C398 H389 0.929 . S
C398 C390 1.378 . S
C398 C393 1.350 . S
C399 H386 0.929 . S
C399 C391 1.433 . S
C399 N401 1.384 . S
N400 C396 1.427 . S
N400 C397 1.384 . S
N401 C393 1.427 . S
N401 C399 1.384 . S
H402 C408 0.930 . S
H403 C412 0.930 . S
H404 C417 0.929 . S
H405 C415 0.929 . S
H406 C410 0.929 . S
H407 C416 0.929 . S
C408 H402 0.930 . S
C408 C409 1.367 . S
C408 C416 1.378 . S
C409 C408 1.367 . S
C409 C417 1.433 . S
C410 H406 0.929 . S
C410 C412 1.378 . S
C410 C414 1.350 . S
C411 C414 1.463 1_455 S
C411 C416 1.350 . S
C411 N419 1.427 . S
C412 H403 0.930 . S
C412 C410 1.378 . S
C412 C413 1.367 . S
C413 C412 1.367 . S
C413 C415 1.433 . S
C414 C410 1.350 . S
C414 C411 1.463 1_655 S
C414 N418 1.427 . S
C415 H405 0.929 . S
C415 C413 1.433 . S
C415 N418 1.384 . S
C416 H407 0.929 . S
C416 C408 1.378 . S
C416 C411 1.350 . S
C417 H404 0.929 . S
C417 C409 1.433 . S
C417 N419 1.384 . S
N418 C414 1.427 . S
N418 C415 1.384 . S
N419 C411 1.427 . S
N419 C417 1.384 . S
H420 C426 0.930 . S
H421 C430 0.930 . S
H422 C435 0.929 . S
H423 C433 0.929 1_655 S
H424 C428 0.929 . S
H425 C434 0.929 . S
C426 H420 0.930 . S
C426 C427 1.367 . S
C426 C434 1.378 . S
C427 C426 1.367 . S
C427 C435 1.433 1_655 S
C428 H424 0.929 . S
C428 C430 1.378 . S
C428 C432 1.350 . S
C429 C432 1.463 1_655 S
C429 C434 1.350 . S
C429 N437 1.427 1_655 S
C430 H421 0.930 . S
C430 C428 1.378 . S
C430 C431 1.367 . S
C431 C430 1.367 . S
C431 C433 1.433 . S
C432 C428 1.350 . S
C432 C429 1.463 1_455 S
C432 N436 1.427 1_455 S
C433 H423 0.929 1_455 S
C433 C431 1.433 . S
C433 N436 1.384 1_455 S
C434 H425 0.929 . S
C434 C426 1.378 . S
C434 C429 1.350 . S
C435 H422 0.929 . S
C435 C427 1.433 1_455 S
C435 N437 1.384 . S
N436 C432 1.427 1_655 S
N436 C433 1.384 1_655 S
N437 C429 1.427 1_455 S
N437 C435 1.384 . S
H438 C444 0.930 . S
H439 C448 0.930 . S
H440 C453 0.929 . S
H441 C451 0.929 . S
H442 C446 0.934 . S
H443 C452 0.934 . S
C444 H438 0.930 . S
C444 C445 1.367 . S
C444 C452 1.378 . S
C445 C444 1.367 . S
C445 C453 1.433 . S
C446 H442 0.934 . S
C446 C448 1.378 . S
C446 C450 1.350 . S
C447 C450 1.463 1_556 S
C447 C452 1.350 . S
C447 N455 1.427 . S
C448 H439 0.930 . S
C448 C446 1.378 . S
C448 C449 1.367 . S
C449 C448 1.367 . S
C449 C451 1.433 . S
C450 C446 1.350 . S
C450 C447 1.463 1_554 S
C450 N454 1.427 . S
C451 H441 0.929 . S
C451 C449 1.433 . S
C451 N454 1.384 . S
C452 H443 0.934 . S
C452 C444 1.378 . S
C452 C447 1.350 . S
C453 H440 0.929 . S
C453 C445 1.433 . S
C453 N455 1.384 . S
N454 C450 1.427 . S
N454 C451 1.384 . S
N455 C447 1.427 . S
N455 C453 1.384 . S
H456 C462 0.930 . S
H457 C466 0.930 . S
H458 C471 0.929 . S
H459 C469 0.929 1_545 S
H460 C464 0.929 . S
H461 C470 0.929 . S
C462 H456 0.930 . S
C462 C463 1.367 . S
C462 C470 1.378 . S
C463 C462 1.367 . S
C463 C471 1.433 . S
C464 H460 0.929 . S
C464 C466 1.378 . S
C464 C468 1.350 . S
C465 C468 1.463 1_545 S
C465 C470 1.350 . S
C465 N473 1.427 . S
C466 H457 0.930 . S
C466 C464 1.378 . S
C466 C467 1.367 . S
C467 C466 1.367 . S
C467 C469 1.433 . S
C468 C464 1.350 . S
C468 C465 1.463 1_565 S
C468 N472 1.427 1_565 S
C469 H459 0.929 1_565 S
C469 C467 1.433 . S
C469 N472 1.384 1_565 S
C470 H461 0.929 . S
C470 C462 1.378 . S
C470 C465 1.350 . S
C471 H458 0.929 . S
C471 C463 1.433 . S
C471 N473 1.384 . S
N472 C468 1.427 1_545 S
N472 C469 1.384 1_545 S
N473 C465 1.427 . S
N473 C471 1.384 . S
C211 C73 1.565 . S
C215 C20 1.595 . S
C229 C54 1.596 . S
C233 C5 1.570 . S
C247 C88 1.595 . S
C251 C39 1.565 . S
C265 C122 1.595 . S
C269 C141 1.573 . S
C283 C175 1.565 . S
C287 C156 1.595 . S
C301 C107 1.573 . S
C305 C190 1.596 . S
C319 C169 1.173 . S
C323 C33 1.173 . S
C337 C203 1.174 . S
C341 C67 1.174 . S
C355 C135 1.170 . S
C359 C101 1.170 . S
C373 C104 1.512 . S
C377 C2 1.509 . S
C391 C138 1.506 . S
C395 C36 1.512 . S
C409 C70 1.513 . S
C413 C172 1.506 . S
C427 C145 1.396 . S
C431 C9 1.394 . S
C445 C43 1.397 . S
C449 C179 1.393 . S
C463 C111 1.390 . S
C467 C77 1.398 . S
